drugbank_target|P11274 Breakpoint cluster region protein (DB00619; DB01254; DB06616; DB08901)
 OpenBabel12092120583D

  0  0  0     0  0            999 V3000
M  V30 BEGIN CTAB
M  V30 COUNTS 19959 20169 0 0 0
M  V30 BEGIN ATOM
M  V30 1 H -0.908 1.98254 -0.117106 0
M  V30 2 N 0 1.576 0 0
M  V30 3 C 0.933 2.03868 1.02534 0
M  V30 4 C 1.911 0.928543 1.3348 0
M  V30 5 O 3.095 1.19667 1.45644 0
M  V30 6 C 0.222 2.43627 2.35294 0
M  V30 7 C -0.732 3.65373 2.2001 0
M  V30 8 S 0.101 5.13292 1.52614 0
M  V30 9 C 1.257 5.56322 2.86805 0
M  V30 10 H 1.49 2.90518 0.631377 0
M  V30 11 H -0.977 1.52953 0.210867 0
M  V30 12 H 0.981 2.67203 3.11629 0
M  V30 13 H -0.358 1.57376 2.7183 0
M  V30 14 H -1.165 3.90944 3.18086 0
M  V30 15 H -1.563 3.418 1.51819 0
M  V30 16 H 0.729 5.58782 3.83104 0
M  V30 17 H 1.672 6.56266 2.65933 0
M  V30 18 H 2.08 4.83886 2.90714 0
M  V30 19 N 1.4781 -0.272755 1.55222 0
M  V30 20 C 2.7241 -1.00581 1.761 0
M  V30 21 C 3.0571 -1.85932 0.560625 0
M  V30 22 O 2.3321 -1.89416 -0.441801 0
M  V30 23 C 2.6151 -1.88816 3.06628 0
M  V30 24 C 2.4681 -1.06457 4.37021 0
M  V30 25 C 3.7871 -2.8752 3.33197 0
M  V30 26 H 0.9061 -0.364244 0.640699 0
M  V30 27 H 3.5481 -0.278189 1.87952 0
M  V30 28 H 1.6981 -2.50856 2.96654 0
M  V30 29 H 3.3701 -0.464863 4.58952 0
M  V30 30 H 1.6131 -0.368043 4.32236 0
M  V30 31 H 2.2841 -1.71514 5.24678 0
M  V30 32 H 4.7601 -2.35615 3.42965 0
M  V30 33 H 3.6361 -3.46399 4.25792 0
M  V30 34 H 3.8971 -3.62657 2.52849 0
M  V30 35 N 2.9562 -1.48159 -0.537278 0
M  V30 36 C 4.2332 -1.46291 -1.29839 0
M  V30 37 C 4.6132 -0.170613 -2.10409 0
M  V30 38 O 3.9612 0.847746 -2.12192 0
M  V30 39 C 4.1712 -2.72055 -2.18603 0
M  V30 40 C 5.5192 -3.20087 -2.7898 0
M  V30 41 O 6.5432 -2.72921 -2.28894 0
M  V30 42 O 5.4022 -4.02138 -3.70064 0
M  V30 43 H 2.4962 -0.583906 -0.585647 0
M  V30 44 H 5.0422 -1.60384 -0.554534 0
M  V30 45 H 3.8142 -3.57628 -1.58801 0
M  V30 46 H 3.4372 -2.60646 -3.00249 0
M  V30 47 N 4.4343 0.785586 -1.36625 0
M  V30 48 C 5.8453 1.36101 -1.27803 0
M  V30 49 C 6.1963 1.96035 0.0804875 0
M  V30 50 O 5.3213 1.92834 0.982042 0
M  V30 51 C 5.9163 2.47442 -2.31426 0
M  V30 52 C 4.4753 3.00789 -2.26281 0
M  V30 53 C 3.6223 1.73896 -2.15999 0
M  V30 54 H 6.5733 0.586928 -1.47448 0
M  V30 55 H 6.5943 3.2656 -1.95291 0
M  V30 56 H 6.1063 2.03791 -3.30289 0
M  V30 57 H 4.2073 3.48851 -1.30896 0
M  V30 58 H 4.3203 3.57343 -3.19128 0
M  V30 59 H 2.6843 1.9628 -1.62316 0
M  V30 60 H 3.4673 1.32368 -3.16755 0
M  V30 61 N 5.9124 1.20967 1.01018 0
M  V30 62 C 7.1584 1.02526 1.74975 0
M  V30 63 C 7.4914 -0.4408 1.89131 0
M  V30 64 O 6.7664 -1.32718 1.42184 0
M  V30 65 C 7.0494 1.71699 3.1653 0
M  V30 66 C 6.9024 3.25791 3.10129 0
M  V30 67 C 8.2214 1.45531 4.15342 0
M  V30 68 H 5.3404 0.373863 0.635134 0
M  V30 69 H 7.9824 1.49071 1.17805 0
M  V30 70 H 6.1324 1.32128 3.65341 0
M  V30 71 H 7.8044 3.74697 2.69072 0
M  V30 72 H 6.0474 3.56363 2.47362 0
M  V30 73 H 6.7184 3.69353 4.10222 0
M  V30 74 H 9.1944 1.79872 3.75213 0
M  V30 75 H 8.0704 1.96453 5.1254 0
M  V30 76 H 8.3314 0.384237 4.40427 0
M  V30 77 N 7.3905 -1.2043 1.01659 0
M  V30 78 C 8.6385 -1.89423 0.704522 0
M  V30 79 C 8.9595 -1.79231 -0.768197 0
M  V30 80 O 8.2295 -1.1947 -1.55254 0
M  V30 81 H 6.8095 -0.701178 0.257602 0
M  V30 82 H 9.4715 -1.4626 1.28818 0
M  V30 83 H 8.5675 -2.96052 0.987916 0
M  V30 84 N 8.8686 -0.792821 -1.36206 0
M  V30 85 C 10.1156 -0.366786 -1.99151 0
M  V30 86 C 10.4436 1.06243 -1.62919 0
M  V30 87 O 9.6986 1.74927 -0.877442 0
M  V30 88 C 9.9976 -0.481501 -3.54142 0
M  V30 89 C 9.6636 -1.87202 -4.10203 0
M  V30 90 C 8.3256 -2.25248 -4.25226 0
M  V30 91 C 10.6776 -2.78237 -4.40719 0
M  V30 92 C 8.0056 -3.53723 -4.68078 0
M  V30 93 C 10.3576 -4.06144 -4.85005 0
M  V30 94 C 9.0216 -4.44207 -4.98234 0
M  V30 95 H 8.2916 -0.134217 -0.728743 0
M  V30 96 H 10.9386 -1.01094 -1.62641 0
M  V30 97 H 9.2436 0.246146 -3.91026 0
M  V30 98 H 10.9406 -0.132844 -4.0078 0
M  V30 99 H 7.5306 -1.56639 -3.98951 0
M  V30 100 H 11.7146 -2.50097 -4.28679 0
M  V30 101 H 6.9706 -3.8308 -4.76508 0
M  V30 102 H 11.1446 -4.76796 -5.07581 0
M  V30 103 H 8.7716 -5.43814 -5.31197 0
M  V30 104 N 10.3467 1.47872 -0.545128 0
M  V30 105 C 11.3097 2.28337 0.198717 0
M  V30 106 C 12.3097 1.36255 0.853888 0
M  V30 107 O 13.4997 1.59003 0.711606 0
M  V30 108 C 10.6317 3.15585 1.28915 0
M  V30 109 H 11.8247 2.95567 -0.507941 0
M  V30 110 H 9.3777 1.53362 -0.301616 0
M  V30 111 H 10.1127 2.53019 2.02859 0
M  V30 112 H 9.8977 3.83337 0.824309 0
M  V30 113 H 11.3877 3.76243 1.81194 0
M  V30 114 N 11.8248 0.280983 1.55075 0
M  V30 115 C 12.7348 -0.61388 2.26426 0
M  V30 116 C 13.7508 -1.16521 1.29224 0
M  V30 117 O 14.9268 -1.19426 1.62171 0
M  V30 118 C 11.9918 -1.7788 2.9759 0
M  V30 119 C 11.0528 -1.26355 4.10284 0
M  V30 120 C 10.2858 -2.37295 4.78045 0
M  V30 121 O 10.5088 -3.56777 4.45047 0
M  V30 122 O 9.4428 -2.05119 5.65871 0
M  V30 123 H 13.2688 -0.0356932 3.03679 0
M  V30 124 H 10.8538 0.0481686 1.49322 0
M  V30 125 H 12.7358 -2.45791 3.42293 0
M  V30 126 H 11.4108 -2.34397 2.23249 0
M  V30 127 H 10.3178 -0.550735 3.70024 0
M  V30 128 H 11.6508 -0.744065 4.86543 0
M  V30 129 N 13.3029 -1.57598 0.00835791 0
M  V30 130 C 14.2659 -2.07884 -0.965242 0
M  V30 131 C 15.2659 -0.989825 -1.26725 0
M  V30 132 O 16.4559 -1.25218 -1.21104 0
M  V30 133 C 13.5879 -2.52731 -2.28779 0
M  V30 134 H 14.7809 -2.95178 -0.530112 0
M  V30 135 H 12.3339 -1.54458 -0.239283 0
M  V30 136 H 13.0689 -1.68705 -2.76964 0
M  V30 137 H 12.8539 -3.32272 -2.08177 0
M  V30 138 H 14.3439 -2.91933 -2.98605 0
M  V30 139 N 14.781 0.264519 -1.55364 0
M  V30 140 C 16.027 0.992314 -1.77552 0
M  V30 141 C 16.382 1.83626 -0.574379 0
M  V30 142 O 15.675 1.86648 0.432782 0
M  V30 143 C 15.869 1.9004 -3.02687 0
M  V30 144 C 15.698 1.14583 -4.34857 0
M  V30 145 C 14.468 0.858068 -4.97961 0
M  V30 146 C 16.666 0.532069 -5.1154 0
M  V30 147 N 14.648 0.0775974 -6.13851 0
M  V30 148 C 16.019 -0.113823 -6.19896 0
M  V30 149 C 18.074 0.440763 -4.95945 0
M  V30 150 C 16.777 -0.842231 -7.14352 0
M  V30 151 C 18.803 -0.274072 -5.90765 0
M  V30 152 C 18.165 -0.90867 -6.98515 0
M  V30 153 H 14.264 0.344811 -0.701875 0
M  V30 154 H 16.848 0.267141 -1.92859 0
M  V30 155 H 15.019 2.59775 -2.88741 0
M  V30 156 H 16.751 2.56243 -3.13243 0
M  V30 157 H 13.506 1.16547 -4.59036 0
M  V30 158 H 13.93 -0.300216 -6.76334 0
M  V30 159 H 18.572 0.917064 -4.12735 0
M  V30 160 H 16.29 -1.33019 -7.97077 0
M  V30 161 H 19.876 -0.345151 -5.80775 0
M  V30 162 H 18.756 -1.45299 -7.70622 0
M  V30 163 N 16.2591 1.48442 0.529413 0
M  V30 164 C 17.2061 1.63007 1.63394 0
M  V30 165 C 18.1761 0.47212 1.59249 0
M  V30 166 O 19.3611 0.695673 1.77666 0
M  V30 167 C 16.5011 1.6763 3.01653 0
M  V30 168 C 15.6141 2.94535 3.16027 0
M  V30 169 C 14.7491 2.90316 4.44849 0
M  V30 170 C 13.7881 4.11923 4.52754 0
M  V30 171 N 12.9251 4.05777 5.72965 0
M  V30 172 H 17.7651 2.5733 1.50285 0
M  V30 173 H 15.3021 1.27613 0.731656 0
M  V30 174 H 17.2601 1.68292 3.81751 0
M  V30 175 H 15.8901 0.76797 3.13532 0
M  V30 176 H 14.9421 3.03615 2.29177 0
M  V30 177 H 16.2541 3.84512 3.17729 0
M  V30 178 H 15.4081 2.89382 5.33238 0
M  V30 179 H 14.1471 1.98068 4.45668 0
M  V30 180 H 13.1521 4.13131 3.62771 0
M  V30 181 H 14.3771 5.0533 4.53672 0
M  V30 182 H 12.3231 3.16351 5.74681 0
M  V30 183 H 12.2401 4.8946 5.76164 0
M  V30 184 H 13.5081 4.08904 6.6364 0
M  V30 185 N 17.7372 -0.778329 1.37039 0
M  V30 186 C 18.7002 -1.87301 1.32102 0
M  V30 187 C 19.7002 -1.59198 0.226405 0
M  V30 188 O 20.8902 -1.67403 0.481861 0
M  V30 189 C 18.0222 -3.24309 1.05055 0
M  V30 190 H 19.2152 -1.93093 2.29467 0
M  V30 191 H 16.7682 -0.977358 1.21973 0
M  V30 192 H 17.5032 -3.24196 0.0819373 0
M  V30 193 H 17.2882 -3.46098 1.84279 0
M  V30 194 H 18.7782 -4.04382 1.04234 0
M  V30 195 N 19.2153 -1.21501 -1.00376 0
M  V30 196 C 20.1473 -0.933174 -2.09343 0
M  V30 197 C 21.1603 0.0840896 -1.62583 0
M  V30 198 O 22.3493 -0.148563 -1.77881 0
M  V30 199 C 19.4493 -0.379869 -3.36764 0
M  V30 200 C 18.6223 -1.45176 -4.12605 0
M  V30 201 C 17.6813 -0.907476 -5.18316 0
M  V30 202 O 16.7073 -1.5912 -5.46507 0
M  V30 203 N 17.9093 0.276649 -5.7984 0
M  V30 204 H 20.6743 -1.87124 -2.34104 0
M  V30 205 H 18.2353 -1.12043 -1.16867 0
M  V30 206 H 20.2273 -0.00131488 -4.047 0
M  V30 207 H 18.7973 0.463048 -3.09151 0
M  V30 208 H 18.0173 -2.00411 -3.39454 0
M  V30 209 H 19.3053 -2.17328 -4.6005 0
M  V30 210 H 18.7033 0.849147 -5.59291 0
M  V30 211 H 17.2603 0.596702 -6.49063 0
M  V30 212 N 20.6934 1.19889 -1.02296 0
M  V30 213 C 21.9404 1.8942 -0.715972 0
M  V30 214 C 22.2684 1.79251 0.754944 0
M  V30 215 O 21.5234 1.17526 1.56481 0
M  V30 216 C 21.8224 3.39883 -1.10518 0
M  V30 217 C 21.4884 3.70254 -2.57337 0
M  V30 218 C 20.1504 3.78254 -2.97452 0
M  V30 219 C 22.5024 3.84052 -3.52354 0
M  V30 220 C 19.8304 3.97514 -4.31509 0
M  V30 221 C 22.1824 4.04824 -4.86108 0
M  V30 222 C 20.8464 4.11054 -5.25919 0
M  V30 223 H 20.1164 0.693138 -0.261993 0
M  V30 224 H 22.7634 1.42012 -1.28472 0
M  V30 225 H 21.0684 3.8915 -0.454953 0
M  V30 226 H 22.7654 3.9199 -0.845261 0
M  V30 227 H 19.3554 3.64632 -2.25258 0
M  V30 228 H 23.5394 3.77221 -3.22518 0
M  V30 229 H 18.7954 4.00574 -4.61898 0
M  V30 230 H 22.9694 4.14442 -5.59653 0
M  V30 231 H 20.5964 4.2573 -6.29808 0
M  V30 232 N 22.1715 0.800033 1.35784 0
M  V30 233 C 23.5825 0.439142 1.81462 0
M  V30 234 C 23.9335 -1.03813 1.66485 0
M  V30 235 O 23.0585 -1.80626 1.19177 0
M  V30 236 C 23.6535 0.790314 3.29453 0
M  V30 237 C 22.2125 0.482111 3.733 0
M  V30 238 C 21.3595 1.01938 2.57883 0
M  V30 239 H 24.3105 0.992254 1.23855 0
M  V30 240 H 24.3315 0.0853677 3.80404 0
M  V30 241 H 23.8435 1.86554 3.40322 0
M  V30 242 H 21.9445 -0.584652 3.67984 0
M  V30 243 H 22.0575 1.01015 4.6833 0
M  V30 244 H 20.4215 0.442043 2.50835 0
M  V30 245 H 21.2045 2.10059 2.71533 0
M  V30 246 N 23.6496 -1.47581 0.552962 0
M  V30 247 C 24.9266 -1.95563 -0.0381515 0
M  V30 248 C 25.3066 -1.49552 -1.48988 0
M  V30 249 O 24.6546 -0.732414 -2.16444 0
M  V30 250 C 24.8646 -3.48848 0.102919 0
M  V30 251 C 26.2126 -4.24577 -0.0446082 0
M  V30 252 O 27.2366 -3.56187 0.0302548 0
M  V30 253 O 26.0956 -5.46116 -0.204923 0
M  V30 254 H 23.1896 -0.824321 -0.0665067 0
M  V30 255 H 25.7356 -1.58001 0.619186 0
M  V30 256 H 24.5076 -3.75129 1.11328 0
M  V30 257 H 24.1306 -3.93165 -0.592224 0
M  V30 258 N 25.1277 -0.289203 -1.54924 0
M  V30 259 C 26.3527 0.329299 -2.04769 0
M  V30 260 C 26.7777 1.4763 -1.16564 0
M  V30 261 O 26.1357 1.80527 -0.167186 0
M  V30 262 C 26.1837 0.774438 -3.52186 0
M  V30 263 O 25.2877 1.88038 -3.67036 0
M  V30 264 H 24.6287 0.0659259 -0.660719 0
M  V30 265 H 27.1587 -0.42761 -2.00082 0
M  V30 266 H 27.1687 1.06642 -3.93816 0
M  V30 267 H 25.8437 -0.0646707 -4.1585 0
M  V30 268 H 24.4207 1.58985 -3.3731 0
M  V30 269 N 26.6058 1.57591 -0.0167156 0
M  V30 270 C 27.5158 2.1291 0.98521 0
M  V30 271 C 28.5318 1.07834 1.36557 0
M  V30 272 O 29.7078 1.39826 1.44951 0
M  V30 273 C 26.7728 2.63512 2.25305 0
M  V30 274 C 25.8338 3.83256 1.93426 0
M  V30 275 C 25.0668 4.31435 3.14165 0
M  V30 276 O 25.2898 3.78851 4.26413 0
M  V30 277 O 24.2238 5.23416 2.97186 0
M  V30 278 H 28.0498 2.98772 0.544888 0
M  V30 279 H 25.6348 1.48012 0.203141 0
M  V30 280 H 27.5168 2.96183 2.99756 0
M  V30 281 H 26.1918 1.8074 2.68542 0
M  V30 282 H 25.0988 3.55531 1.16398 0
M  V30 283 H 26.4318 4.67153 1.55013 0
M  V30 284 N 28.0839 -0.256276 1.55502 0
M  V30 285 C 29.4949 -0.826068 1.67431 0
M  V30 286 C 29.8459 -1.86396 0.612446 0
M  V30 287 O 28.9709 -2.15031 -0.243025 0
M  V30 288 C 29.5659 -1.50512 3.03532 0
M  V30 289 C 28.1249 -2.02273 3.17431 0
M  V30 290 C 27.2719 -0.870548 2.63281 0
M  V30 291 H 30.2229 -0.0322728 1.58667 0
M  V30 292 H 30.2439 -2.37279 2.97454 0
M  V30 293 H 29.7559 -0.749484 3.80794 0
M  V30 294 H 27.8569 -2.80746 2.44974 0
M  V30 295 H 27.9699 -2.22655 4.24219 0
M  V30 296 H 26.3339 -1.26851 2.20864 0
M  V30 297 H 27.1169 -0.128149 3.43061 0
M  V30 298 N 29.562 -1.4872 -0.521534 0
M  V30 299 C 30.973 -1.50607 -1.10337 0
M  V30 300 C 31.324 -0.280612 -1.94183 0
M  V30 301 O 30.449 0.611507 -2.0758 0
M  V30 302 C 31.044 -2.72903 -2.00772 0
M  V30 303 C 29.603 -2.77634 -2.54158 0
M  V30 304 C 28.75 -2.44241 -1.31307 0
M  V30 305 H 31.701 -1.55714 -0.306388 0
M  V30 306 H 31.722 -2.519 -2.85178 0
M  V30 307 H 31.234 -3.62077 -1.39721 0
M  V30 308 H 29.335 -1.92689 -3.18907 0
M  V30 309 H 29.448 -3.79283 -2.92714 0
M  V30 310 H 27.812 -1.95577 -1.63161 0
M  V30 311 H 28.595 -3.35666 -0.719943 0
M  V30 312 N 31.0401 0.771051 -1.3745 0
M  V30 313 C 32.4561 1.07171 -1.18265 0
M  V30 314 C 32.6561 2.01491 -0.019287 0
M  V30 315 O 31.7121 2.44244 0.640408 0
M  V30 316 C 33.0251 1.66854 -2.50161 0
M  V30 317 C 34.5731 1.79109 -2.56689 0
M  V30 318 C 35.0481 2.42205 -3.88717 0
M  V30 319 N 36.5391 2.49655 -3.90162 0
M  V30 320 C 37.2741 2.9933 -4.8907 0
M  V30 321 N 36.7701 3.49172 -5.98374 0
M  V30 322 N 38.5631 2.9821 -4.76474 0
M  V30 323 H 30.7141 0.144796 -2.11906 0
M  V30 324 H 32.9771 0.126863 -0.939473 0
M  V30 325 H 32.6831 1.05017 -3.35655 0
M  V30 326 H 32.5571 2.6614 -2.673 0
M  V30 327 H 34.9441 2.40077 -1.71601 0
M  V30 328 H 35.0251 0.785757 -2.43433 0
M  V30 329 H 34.6691 1.81875 -4.74219 0
M  V30 330 H 34.5991 3.43345 -3.99276 0
M  V30 331 H 37.0901 2.14383 -3.11205 0
M  V30 332 H 37.4031 3.8548 -6.69795 0
M  V30 333 H 35.7481 3.47275 -6.02018 0
M  V30 334 H 38.9391 2.58572 -3.90203 0
M  V30 335 H 39.1121 3.36613 -5.53711 0
M  V30 336 N 32.5182 1.22032 0.997298 0
M  V30 337 C 33.4512 0.929735 2.08401 0
M  V30 338 C 34.4292 -0.125681 1.62114 0
M  V30 339 O 35.6132 0.00495409 1.88499 0
M  V30 340 C 32.7402 0.397488 3.3636 0
M  V30 341 C 31.7862 1.4369 4.01566 0
M  V30 342 S 32.6192 3.00874 4.42984 0
M  V30 343 C 33.7752 2.49276 5.74119 0
M  V30 344 H 34.0082 1.84998 2.32729 0
M  V30 345 H 31.5412 1.0509 1.13117 0
M  V30 346 H 33.4992 0.0969846 4.10385 0
M  V30 347 H 32.1602 -0.501571 3.10069 0
M  V30 348 H 31.3532 1.01427 4.93689 0
M  V30 349 H 30.9552 1.68588 3.33847 0
M  V30 350 H 33.2472 1.90242 6.50242 0
M  V30 351 H 34.1902 3.39872 6.21203 0
M  V30 352 H 34.5982 1.90714 5.31308 0
M  V30 353 N 33.9963 -1.19345 1.0293 0
M  V30 354 C 34.9063 -2.26245 0.620515 0
M  V30 355 C 35.9223 -1.70486 -0.347928 0
M  V30 356 O 37.0983 -2.00347 -0.205704 0
M  V30 357 C 34.1633 -3.46693 -0.0218957 0
M  V30 358 C 33.2243 -4.17632 0.994102 0
M  V30 359 C 32.4573 -5.32329 0.382253 0
M  V30 360 O 32.6803 -5.64552 -0.814676 0
M  V30 361 O 31.6143 -5.91664 1.10531 0
M  V30 362 H 35.4403 -2.63453 1.51083 0
M  V30 363 H 33.0253 -1.26207 0.799513 0
M  V30 364 H 34.9073 -4.19683 -0.380072 0
M  V30 365 H 33.5823 -3.11333 -0.886209 0
M  V30 366 H 32.4893 -3.4676 1.40387 0
M  V30 367 H 33.8223 -4.56964 1.8288 0
M  V30 368 N 35.4744 -0.807222 -1.35358 0
M  V30 369 C 36.4044 -0.232509 -2.3234 0
M  V30 370 C 37.3854 0.642386 -1.57504 0
M  V30 371 O 38.5704 0.572526 -1.85569 0
M  V30 372 C 35.7004 0.619238 -3.41735 0
M  V30 373 C 34.6544 -0.157215 -4.27711 0
M  V30 374 C 33.9804 0.816273 -5.28433 0
M  V30 375 C 35.2804 -1.35656 -5.04376 0
M  V30 376 H 36.9744 -1.04276 -2.80654 0
M  V30 377 H 34.5204 -0.50288 -1.34934 0
M  V30 378 H 36.4734 1.03137 -4.08584 0
M  V30 379 H 35.1974 1.46239 -2.92031 0
M  V30 380 H 33.8564 -0.550525 -3.62443 0
M  V30 381 H 33.5044 1.65494 -4.74996 0
M  V30 382 H 33.2044 0.301067 -5.86828 0
M  V30 383 H 34.7284 1.22659 -5.98153 0
M  V30 384 H 36.1424 -1.01927 -5.64166 0
M  V30 385 H 34.5394 -1.8063 -5.7227 0
M  V30 386 H 35.6094 -2.14288 -4.34981 0
M  V30 387 N 36.9525 1.47285 -0.560781 0
M  V30 388 C 38.3685 1.58065 -0.22081 0
M  V30 389 C 38.5685 1.55892 1.27671 0
M  V30 390 O 37.6245 1.46422 2.0571 0
M  V30 391 C 38.9375 2.88418 -0.850625 0
M  V30 392 C 40.4855 3.02009 -0.822184 0
M  V30 393 C 40.9605 4.35066 -1.43113 0
M  V30 394 N 42.4515 4.41711 -1.39448 0
M  V30 395 C 43.1865 5.43237 -1.83525 0
M  V30 396 N 42.6825 6.51555 -2.35474 0
M  V30 397 N 44.4755 5.34304 -1.74574 0
M  V30 398 H 36.6265 1.46941 -1.53369 0
M  V30 399 H 38.8895 0.699558 -0.639783 0
M  V30 400 H 38.5955 2.95755 -1.9032 0
M  V30 401 H 38.4695 3.75612 -0.345773 0
M  V30 402 H 40.8565 2.94266 0.221714 0
M  V30 403 H 40.9375 2.16347 -1.36483 0
M  V30 404 H 40.5815 4.43565 -2.47412 0
M  V30 405 H 40.5115 5.19465 -0.863899 0
M  V30 406 H 43.0025 3.64027 -1.01452 0
M  V30 407 H 43.3155 7.25203 -2.67021 0
M  V30 408 H 41.6605 6.52435 -2.39487 0
M  V30 409 H 44.8515 4.48581 -1.33763 0
M  V30 410 H 45.0245 6.13288 -2.09242 0
M  V30 411 N 38.4306 0.297415 1.54768 0
M  V30 412 C 39.6556 -0.318435 2.04941 0
M  V30 413 C 40.0806 -1.4701 1.17345 0
M  V30 414 O 39.4386 -1.80436 0.176758 0
M  V30 415 C 39.4866 -0.755749 3.52592 0
M  V30 416 O 38.5906 -1.86088 3.68028 0
M  V30 417 H 37.9316 -0.062421 0.661059 0
M  V30 418 H 40.4616 0.438215 1.99852 0
M  V30 419 H 40.4716 -1.04552 3.94376 0
M  V30 420 H 39.1466 0.0867233 4.1581 0
M  V30 421 H 37.7236 -1.57193 3.38149 0
M  V30 422 N 39.9087 -1.5758 0.0250728 0
M  V30 423 C 41.1547 -1.91917 -0.655413 0
M  V30 424 C 41.4877 -0.901433 -1.72011 0
M  V30 425 O 40.7627 0.0764069 -1.9435 0
M  V30 426 C 41.0457 -3.36751 -1.27558 0
M  V30 427 C 40.8987 -4.49258 -0.220719 0
M  V30 428 C 42.2177 -3.81469 -2.19475 0
M  V30 429 H 39.3367 -0.697925 -0.23679 0
M  V30 430 H 41.9787 -1.89825 0.0815036 0
M  V30 431 H 40.1287 -3.38664 -1.90365 0
M  V30 432 H 41.8007 -4.59478 0.409601 0
M  V30 433 H 40.0437 -4.31415 0.454264 0
M  V30 434 H 40.7147 -5.47618 -0.694175 0
M  V30 435 H 43.1907 -3.81266 -1.66659 0
M  V30 436 H 42.0667 -4.83512 -2.59822 0
M  V30 437 H 42.3277 -3.16744 -3.08424 0
M  V30 438 N 41.3868 0.248026 -1.55636 0
M  V30 439 C 42.6348 0.974295 -1.77065 0
M  V30 440 C 42.9558 1.85897 -0.588849 0
M  V30 441 O 42.2258 1.91868 0.395407 0
M  V30 442 H 40.8058 0.362733 -0.653019 0
M  V30 443 H 43.4678 0.266244 -1.93073 0
M  V30 444 H 42.5638 1.59667 -2.68166 0
M  V30 445 N 42.8649 1.48995 0.513639 0
M  V30 446 C 44.1419 1.48338 1.27495 0
M  V30 447 C 44.5219 0.204065 2.10111 0
M  V30 448 O 43.8699 -0.813881 2.13514 0
M  V30 449 C 44.0799 2.75498 2.14247 0
M  V30 450 C 45.4279 3.24484 2.73852 0
M  V30 451 O 46.4519 2.76528 2.24523 0
M  V30 452 O 45.3109 4.07974 3.6362 0
M  V30 453 H 42.4049 0.593149 0.576284 0
M  V30 454 H 44.9509 1.61246 0.528948 0
M  V30 455 H 43.7229 3.60109 1.53092 0
M  V30 456 H 43.3459 2.6539 2.96064 0
M  V30 457 N 44.343 -0.763751 1.37857 0
M  V30 458 C 45.592 -1.51789 1.32827 0
M  V30 459 C 45.905 -1.95426 -0.0823719 0
M  V30 460 O 47.111 -2.70298 -0.255172 0
M  V30 461 C 45.567 -2.74133 2.33193 0
M  V30 462 C 45.175 -2.37562 3.79827 0
M  V30 463 C 46.919 -3.52054 2.37188 0
M  V30 464 C 44.826 -3.56456 4.71904 0
M  V30 465 H 43.756 -0.569896 0.493695 0
M  V30 466 H 46.407 -0.835822 1.63359 0
M  V30 467 H 44.789 -3.4427 1.9569 0
M  V30 468 H 45.963 -1.75157 4.26212 0
M  V30 469 H 44.278 -1.72798 3.78853 0
M  V30 470 H 46.875 -4.40437 3.03182 0
M  V30 471 H 47.218 -3.92486 1.38782 0
M  V30 472 H 47.751 -2.88921 2.7344 0
M  V30 473 H 44.49 -3.21099 5.71468 0
M  V30 474 H 44.01 -4.17938 4.30218 0
M  V30 475 H 45.689 -4.23168 4.89426 0
M  V30 476 N 45.8211 -1.22559 -0.990812 0
M  V30 477 C 46.7311 -1.01394 -2.11557 0
M  V30 478 C 47.7471 0.0383962 -1.73958 0
M  V30 479 O 48.9231 -0.154787 -2.00804 0
M  V30 480 C 45.9881 -0.596569 -3.41529 0
M  V30 481 C 45.0491 -1.72276 -3.93217 0
M  V30 482 C 44.2821 -1.32521 -5.16985 0
M  V30 483 O 44.5051 -0.204909 -5.70032 0
M  V30 484 O 43.4391 -2.14247 -5.62478 0
M  V30 485 H 47.2651 -1.95633 -2.32296 0
M  V30 486 H 44.8501 -1.01172 -1.0993 0
M  V30 487 H 46.7321 -0.374263 -4.19735 0
M  V30 488 H 45.4071 0.316939 -3.22145 0
M  V30 489 H 44.3141 -1.99961 -3.16174 0
M  V30 490 H 45.6471 -2.61421 -4.17037 0
M  V30 491 N 47.2992 1.18797 -1.03562 0
M  V30 492 C 48.2312 2.21731 -0.580337 0
M  V30 493 C 49.2442 1.59051 0.347349 0
M  V30 494 O 50.4332 1.77929 0.142669 0
M  V30 495 C 47.5332 3.38459 0.172805 0
M  V30 496 C 46.7062 4.3072 -0.761496 0
M  V30 497 C 45.7652 5.26174 -0.0525547 0
M  V30 498 O 44.7912 5.65108 -0.681333 0
M  V30 499 N 45.9932 5.67624 1.21586 0
M  V30 500 H 48.7582 2.61417 -1.46565 0
M  V30 501 H 46.3192 1.33531 -0.915476 0
M  V30 502 H 48.3112 3.99335 0.656793 0
M  V30 503 H 46.8812 2.97507 0.959602 0
M  V30 504 H 46.1012 3.67525 -1.42544 0
M  V30 505 H 47.3892 4.89267 -1.39626 0
M  V30 506 H 46.7872 5.38038 1.74732 0
M  V30 507 H 45.3442 6.30721 1.64421 0
M  V30 508 N 48.7773 0.814389 1.34928 0
M  V30 509 C 49.6873 0.231978 2.3345 0
M  V30 510 C 50.7033 -0.629139 1.62228 0
M  V30 511 O 51.8793 -0.539052 1.94052 0
M  V30 512 C 48.9443 -0.603482 3.41407 0
M  V30 513 C 48.0053 0.279037 4.28392 0
M  V30 514 C 47.2383 -0.516643 5.31193 0
M  V30 515 O 47.4613 -1.75068 5.4287 0
M  V30 516 O 46.3953 0.0965652 6.01823 0
M  V30 517 H 50.2213 1.04721 2.85074 0
M  V30 518 H 47.8063 0.576343 1.37836 0
M  V30 519 H 49.6883 -1.07908 4.0735 0
M  V30 520 H 48.3633 -1.39618 2.92042 0
M  V30 521 H 47.2703 0.801948 3.65403 0
M  V30 522 H 48.6033 1.03588 4.81176 0
M  V30 523 N 50.2554 -1.46986 0.568584 0
M  V30 524 C 51.1854 -2.32946 -0.160753 0
M  V30 525 C 52.1664 -1.44487 -0.897631 0
M  V30 526 O 53.3514 -1.73327 -0.875867 0
M  V30 527 C 50.4814 -3.26494 -1.18403 0
M  V30 528 C 49.4354 -4.24282 -0.562895 0
M  V30 529 C 48.7614 -5.07236 -1.69163 0
M  V30 530 C 50.0614 -5.19989 0.490761 0
M  V30 531 H 51.7554 -2.94175 0.556916 0
M  V30 532 H 49.3014 -1.4146 0.26927 0
M  V30 533 H 51.2544 -3.85477 -1.70251 0
M  V30 534 H 49.9784 -2.63343 -1.93179 0
M  V30 535 H 48.6374 -3.66541 -0.0656164 0
M  V30 536 H 48.2854 -4.4048 -2.42871 0
M  V30 537 H 47.9854 -5.7345 -1.28174 0
M  V30 538 H 49.5094 -5.6908 -2.21314 0
M  V30 539 H 50.9234 -5.73271 0.0579047 0
M  V30 540 H 49.3204 -5.94469 0.820165 0
M  V30 541 H 50.3904 -4.64777 1.3824 0
M  V30 542 N 51.7335 -0.305618 -1.54608 0
M  V30 543 C 52.6435 0.57778 -2.27374 0
M  V30 544 C 53.6595 1.14451 -1.31061 0
M  V30 545 O 54.8355 1.16831 -1.6405 0
M  V30 546 C 51.9005 1.73123 -3.00382 0
M  V30 547 C 50.9615 1.19812 -4.12242 0
M  V30 548 C 50.1945 2.2966 -4.81759 0
M  V30 549 O 50.4175 3.49651 -4.50666 0
M  V30 550 O 49.3515 1.96091 -5.69062 0
M  V30 551 H 53.1775 -0.012624 -3.03697 0
M  V30 552 H 50.7625 -0.0719184 -1.49227 0
M  V30 553 H 52.6445 2.40315 -3.4616 0
M  V30 554 H 51.3195 2.30815 -2.26949 0
M  V30 555 H 50.2265 0.491798 -3.70853 0
M  V30 556 H 51.5595 0.666566 -4.87666 0
M  V30 557 N 53.2116 1.57565 -0.0334293 0
M  V30 558 C 54.6276 1.56297 0.322997 0
M  V30 559 C 54.8276 1.03945 1.7262 0
M  V30 560 O 53.8836 0.688109 2.42943 0
M  V30 561 C 55.1966 3.00232 0.167664 0
M  V30 562 C 56.7446 3.12078 0.240107 0
M  V30 563 C 57.2196 4.57859 0.113513 0
M  V30 564 N 58.7106 4.62887 0.170359 0
M  V30 565 C 59.4456 5.73319 0.0962517 0
M  V30 566 N 58.9416 6.92794 -0.0291881 0
M  V30 567 N 60.7346 5.61898 0.150551 0
M  V30 568 H 52.8856 1.89923 -0.950956 0
M  V30 569 H 55.1486 0.873824 -0.367608 0
M  V30 570 H 54.8546 3.42501 -0.799102 0
M  V30 571 H 54.7286 3.654 0.936083 0
M  V30 572 H 57.1156 2.69718 1.19733 0
M  V30 573 H 57.1966 2.49623 -0.558763 0
M  V30 574 H 56.8406 5.009 -0.840314 0
M  V30 575 H 56.7706 5.18299 0.931302 0
M  V30 576 H 59.2616 3.76954 0.26728 0
M  V30 577 H 59.5746 7.7276 -0.0789252 0
M  V30 578 H 57.9196 6.94971 -0.0640299 0
M  V30 579 H 61.1106 4.67448 0.246981 0
M  V30 580 H 61.2836 6.47938 0.0893365 0
M  V30 581 N 54.6897 -0.239769 1.55765 0
M  V30 582 C 55.9297 -0.974076 1.79697 0
M  V30 583 C 56.2937 -1.82249 0.604088 0
M  V30 584 O 57.4947 -2.58913 0.722324 0
M  V30 585 C 55.7657 -1.80595 3.08416 0
M  V30 586 S 57.3247 -2.59838 3.53596 0
M  V30 587 H 54.1427 -0.327524 0.63107 0
M  V30 588 H 56.7447 -0.241277 1.94005 0
M  V30 589 H 55.4487 -1.17249 3.93295 0
M  V30 590 H 54.9797 -2.58137 2.96865 0
M  V30 591 H 56.9947 -3.82987 3.15492 0
M  V30 592 N 56.1678 -1.49265 -0.50573 0
M  V30 593 C 57.1148 -1.65585 -1.6078 0
M  V30 594 C 58.0848 -0.497396 -1.58478 0
M  V30 595 O 59.2698 -0.72385 -1.76536 0
M  V30 596 C 56.4098 -1.72408 -2.98948 0
M  V30 597 C 55.5228 -2.99525 -3.11301 0
M  V30 598 C 54.6578 -2.97356 -4.40174 0
M  V30 599 C 53.6968 -4.19074 -4.46143 0
M  V30 600 N 52.8338 -4.14841 -5.66437 0
M  V30 601 H 57.6738 -2.59688 -1.46172 0
M  V30 602 H 55.2108 -1.28761 -0.711261 0
M  V30 603 H 57.1688 -1.74344 -3.79025 0
M  V30 604 H 55.7988 -0.817753 -3.1227 0
M  V30 605 H 54.8508 -3.07222 -2.24318 0
M  V30 606 H 56.1628 -3.89518 -3.11572 0
M  V30 607 H 55.3168 -2.97829 -5.28567 0
M  V30 608 H 54.0558 -2.05133 -4.42461 0
M  V30 609 H 53.0608 -4.1885 -3.56153 0
M  V30 610 H 54.2858 -5.12483 -4.45575 0
M  V30 611 H 52.2318 -3.25453 -5.69575 0
M  V30 612 H 52.1488 -4.98564 -5.68304 0
M  V30 613 H 53.4168 -4.1941 -6.57051 0
M  V30 614 N 57.6459 0.756429 -1.3826 0
M  V30 615 C 58.6089 1.85176 -1.35065 0
M  V30 616 C 59.6089 1.58818 -0.251703 0
M  V30 617 O 60.7989 1.66615 -0.508433 0
M  V30 618 C 57.9309 3.22596 -1.10201 0
M  V30 619 H 59.1239 1.89417 -2.3251 0
M  V30 620 H 56.6769 0.95783 -1.23512 0
M  V30 621 H 57.4119 3.24025 -0.133504 0
M  V30 622 H 57.1969 3.43122 -1.89762 0
M  V30 623 H 58.6869 4.02673 -1.10654 0
M  V30 624 N 59.124 1.23083 0.984299 0
M  V30 625 C 60.349 1.088 1.76571 0
M  V30 626 C 60.774 -0.356657 1.84688 0
M  V30 627 O 60.132 -1.25788 1.30565 0
M  V30 628 C 60.18 1.71371 3.17277 0
M  V30 629 O 59.284 0.973213 4.00752 0
M  V30 630 H 58.625 0.381599 0.543395 0
M  V30 631 H 61.155 1.63057 1.23587 0
M  V30 632 H 61.165 1.76449 3.67872 0
M  V30 633 H 59.84 2.76493 3.10684 0
M  V30 634 H 58.417 0.999078 3.59267 0
M  V30 635 N 60.6021 -1.18246 1.0419 0
M  V30 636 C 61.8511 -1.87588 0.741194 0
M  V30 637 C 62.1641 -1.81303 -0.734066 0
M  V30 638 O 63.3701 -2.46019 -1.14834 0
M  V30 639 C 61.8261 -3.36538 1.27555 0
M  V30 640 C 61.4341 -3.51349 2.77953 0
M  V30 641 C 63.1781 -4.11273 1.05143 0
M  V30 642 C 61.0851 -4.94265 3.2474 0
M  V30 643 H 60.0151 -0.702622 0.273565 0
M  V30 644 H 62.6661 -1.33601 1.25789 0
M  V30 645 H 61.0481 -3.9 0.686703 0
M  V30 646 H 62.2221 -3.08153 3.42605 0
M  V30 647 H 60.5371 -2.90022 2.98791 0
M  V30 648 H 63.1341 -5.16689 1.37611 0
M  V30 649 H 63.4771 -4.16298 -0.0112774 0
M  V30 650 H 64.0101 -3.63987 1.60495 0
M  V30 651 H 60.7491 -4.94408 4.30396 0
M  V30 652 H 60.2691 -5.38172 2.64823 0
M  V30 653 H 61.9481 -5.62987 3.18834 0
M  V30 654 N 62.0802 -0.821533 -1.34494 0
M  V30 655 C 63.4962 -0.507117 -1.51329 0
M  V30 656 C 63.6962 0.968964 -1.76673 0
M  V30 657 O 62.7522 1.75348 -1.81685 0
M  V30 658 C 64.0652 -1.36544 -2.67911 0
M  V30 659 C 65.6132 -1.36242 -2.81793 0
M  V30 660 C 66.0882 -2.2052 -4.01416 0
M  V30 661 N 67.5792 -2.18136 -4.08621 0
M  V30 662 C 68.3142 -2.80095 -5.00334 0
M  V30 663 N 67.8102 -3.51039 -5.9728 0
M  V30 664 N 69.6032 -2.69656 -4.93196 0
M  V30 665 H 61.7542 -1.77729 -1.16302 0
M  V30 666 H 64.0172 -0.757291 -0.570276 0
M  V30 667 H 63.7232 -2.41361 -2.55808 0
M  V30 668 H 63.5972 -1.02917 -3.62888 0
M  V30 669 H 65.9842 -0.322041 -2.93338 0
M  V30 670 H 66.0652 -1.73866 -1.87628 0
M  V30 671 H 65.7092 -3.24607 -3.90631 0
M  V30 672 H 65.6392 -1.80247 -4.94791 0
M  V30 673 H 68.1302 -1.6653 -3.39229 0
M  V30 674 H 68.4432 -3.95565 -6.63889 0
M  V30 675 H 66.7882 -3.55145 -5.97409 0
M  V30 676 H 69.9792 -2.13808 -4.16418 0
M  V30 677 H 70.1522 -3.1823 -5.64476 0
M  V30 678 N 63.5583 1.46682 -0.576371 0
M  V30 679 C 64.9743 1.57822 -0.237562 0
M  V30 680 C 65.1743 1.57237 1.26011 0
M  V30 681 O 64.2303 1.48596 2.04146 0
M  V30 682 C 65.5433 2.87499 -0.881168 0
M  V30 683 C 67.0913 3.01119 -0.85417 0
M  V30 684 C 67.5663 4.33524 -1.4772 0
M  V30 685 N 69.0573 4.40207 -1.44125 0
M  V30 686 C 69.7923 5.4126 -1.89276 0
M  V30 687 N 69.2883 6.49021 -2.42371 0
M  V30 688 N 71.0813 5.32422 -1.80231 0
M  V30 689 H 63.2323 1.45306 -1.54919 0
M  V30 690 H 65.4953 0.692733 -0.647167 0
M  V30 691 H 65.2013 2.9372 -1.93447 0
M  V30 692 H 65.0753 3.75224 -0.385592 0
M  V30 693 H 67.4623 2.94485 0.190491 0
M  V30 694 H 67.5433 2.14887 -1.3877 0
M  V30 695 H 67.1873 4.40916 -2.52103 0
M  V30 696 H 67.1173 5.1852 -0.918947 0
M  V30 697 H 69.6083 3.62931 -1.05307 0
M  V30 698 H 69.9213 7.2233 -2.74698 0
M  V30 699 H 68.2663 6.49858 -2.46393 0
M  V30 700 H 71.4573 4.47137 -1.38514 0
M  V30 701 H 71.6303 6.11034 -2.15735 0
M  V30 702 N 65.0364 0.313813 1.54444 0
M  V30 703 C 65.9664 -0.549454 2.26943 0
M  V30 704 C 66.9474 -1.12741 1.27372 0
M  V30 705 O 68.1324 -1.15436 1.56167 0
M  V30 706 C 65.2624 -1.71523 3.01989 0
M  V30 707 C 64.2164 -1.26703 4.08816 0
M  V30 708 C 63.5424 -2.51898 4.71647 0
M  V30 709 C 64.8424 -0.388962 5.2085 0
M  V30 710 H 66.5364 0.0552661 2.99349 0
M  V30 711 H 64.0824 0.0280207 1.43973 0
M  V30 712 H 66.0354 -2.32535 3.51433 0
M  V30 713 H 64.7594 -2.34639 2.27183 0
M  V30 714 H 63.4184 -0.679896 3.6024 0
M  V30 715 H 63.0664 -3.13356 3.93468 0
M  V30 716 H 62.7664 -2.22605 5.43802 0
M  V30 717 H 64.2904 -3.1369 5.23861 0
M  V30 718 H 65.7044 -0.905107 5.6611 0
M  V30 719 H 64.1014 -0.18924 5.99802 0
M  V30 720 H 65.1714 0.582699 4.81386 0
M  V30 721 N 66.5145 -1.57545 0.0417849 0
M  V30 722 C 67.4245 -2.14451 -0.951213 0
M  V30 723 C 68.4405 -1.09992 -1.34825 0
M  V30 724 O 69.6165 -1.42114 -1.42708 0
M  V30 725 C 66.6815 -2.67063 -2.21084 0
M  V30 726 C 65.7425 -3.86284 -1.87304 0
M  V30 727 C 64.9755 -4.36378 -3.07261 0
M  V30 728 O 65.1985 -3.85587 -4.20332 0
M  V30 729 O 64.1325 -5.28077 -2.88822 0
M  V30 730 H 67.9585 -2.99601 -0.497287 0
M  V30 731 H 65.5435 -1.48317 -0.179567 0
M  V30 732 H 67.4255 -3.00914 -2.95006 0
M  V30 733 H 66.1005 -1.84989 -2.65633 0
M  V30 734 H 65.0075 -3.57338 -1.10727 0
M  V30 735 H 66.3405 -4.6956 -1.47562 0
M  V30 736 N 67.9926 0.231505 -1.5589 0
M  V30 737 C 68.9246 1.31006 -1.8807 0
M  V30 738 C 69.9376 1.43539 -0.768145 0
M  V30 739 O 71.1266 1.44614 -1.04638 0
M  V30 740 C 68.2266 2.68688 -2.06543 0
M  V30 741 C 67.3996 2.78228 -3.37502 0
M  V30 742 C 66.4586 3.96857 -3.4553 0
M  V30 743 O 65.4846 3.85662 -4.18633 0
M  V30 744 N 66.6866 5.1072 -2.75944 0
M  V30 745 H 69.4516 1.03731 -2.81176 0
M  V30 746 H 67.0126 0.421573 -1.56315 0
M  V30 747 H 69.0046 3.46412 -2.09239 0
M  V30 748 H 67.5746 2.88605 -1.20109 0
M  V30 749 H 66.7946 1.87059 -3.46991 0
M  V30 750 H 68.0826 2.81564 -4.23791 0
M  V30 751 H 67.4806 5.2271 -2.16311 0
M  V30 752 H 66.0376 5.86523 -2.84314 0
M  V30 753 N 69.4707 1.49531 0.497807 0
M  V30 754 C 70.3807 1.69176 1.62532 0
M  V30 755 C 71.3967 0.5744 1.64246 0
M  V30 756 O 72.5727 0.849497 1.82608 0
M  V30 757 C 69.6377 1.75695 2.98885 0
M  V30 758 C 68.6987 2.9929 3.07773 0
M  V30 759 C 67.9317 3.05488 4.37622 0
M  V30 760 O 68.1547 2.19192 5.26603 0
M  V30 761 O 67.0887 3.9798 4.51548 0
M  V30 762 H 70.9147 2.647 1.48887 0
M  V30 763 H 68.4997 1.3331 0.674441 0
M  V30 764 H 70.3817 1.82317 3.79919 0
M  V30 765 H 69.0567 0.8335 3.12785 0
M  V30 766 H 67.9637 2.98183 2.25915 0
M  V30 767 H 69.2967 3.91125 2.98801 0
M  V30 768 N 70.9488 -0.749086 1.3866 0
M  V30 769 C 72.1948 -1.51056 1.35314 0
M  V30 770 C 72.5278 -1.94121 -0.0553751 0
M  V30 771 O 71.8028 -1.65763 -1.01749 0
M  V30 772 C 72.0858 -2.76003 2.31288 0
M  V30 773 C 71.9388 -2.39047 3.8102 0
M  V30 774 C 73.2578 -3.78046 2.2532 0
M  V30 775 H 70.3768 -0.547972 0.492844 0
M  V30 776 H 73.0188 -0.857628 1.69543 0
M  V30 777 H 71.1688 -3.31716 2.02229 0
M  V30 778 H 72.8408 -1.89074 4.20771 0
M  V30 779 H 71.0838 -1.71449 3.98482 0
M  V30 780 H 71.7548 -3.28462 4.4364 0
M  V30 781 H 74.2308 -3.31884 2.50983 0
M  V30 782 H 73.1068 -4.63159 2.94576 0
M  V30 783 H 73.3678 -4.23957 1.25352 0
M  V30 784 N 72.4269 -1.23603 -0.977757 0
M  V30 785 C 73.3749 -1.01704 -2.09187 0
M  V30 786 C 74.3689 0.0448214 -1.69341 0
M  V30 787 O 75.5749 -0.108902 -1.7967 0
M  V30 788 H 71.9499 -0.311803 -0.684312 0
M  V30 789 H 73.9209 -1.96207 -2.24823 0
M  V30 790 C 72.6699 -0.627746 -3.41986 0
M  V30 791 H 71.9929 -1.43656 -3.73099 0
M  V30 792 H 73.4329 -0.514053 -4.20872 0
M  V30 793 C 71.8919 0.664238 -3.30287 0
M  V30 794 O 72.4219 1.71268 -3.6336 0
M  V30 795 N 70.6279 0.641156 -2.83439 0
M  V30 796 H 70.1749 -0.212376 -2.56723 0
M  V30 797 H 70.1329 1.50583 -2.75993 0
M  V30 798 N 73.905 1.17692 -1.04816 0
M  V30 799 C 74.837 2.21103 -0.603822 0
M  V30 800 C 75.85 1.59411 0.33046 0
M  V30 801 O 77.039 1.7807 0.12379 0
M  V30 802 C 74.139 3.38623 0.136898 0
M  V30 803 C 73.312 4.29888 -0.807137 0
M  V30 804 C 72.371 5.26088 -0.10836 0
M  V30 805 O 71.397 5.64353 -0.741232 0
M  V30 806 N 72.599 5.68882 1.15558 0
M  V30 807 H 75.364 2.59848 -1.49329 0
M  V30 808 H 72.925 1.32553 -0.929587 0
M  V30 809 H 74.917 4.00009 0.614401 0
M  V30 810 H 73.487 2.98508 0.927993 0
M  V30 811 H 72.707 3.65993 -1.46434 0
M  V30 812 H 73.995 4.87759 -1.44807 0
M  V30 813 H 73.393 5.39861 1.69015 0
M  V30 814 H 71.95 6.32429 1.57722 0
M  V30 815 N 75.3831 0.828654 1.34056 0
M  V30 816 C 76.2931 0.256725 2.33191 0
M  V30 817 C 77.3091 -0.611898 1.62886 0
M  V30 818 O 78.4851 -0.51844 1.94613 0
M  V30 819 C 75.5501 -0.567238 3.42028 0
M  V30 820 C 74.6111 0.324458 4.28072 0
M  V30 821 C 73.8441 -0.460274 5.31712 0
M  V30 822 O 74.0671 -1.693 5.44696 0
M  V30 823 O 73.0011 0.160391 6.01686 0
M  V30 824 H 76.8271 1.07739 2.83947 0
M  V30 825 H 74.4121 0.59093 1.37217 0
M  V30 826 H 76.2941 -1.03582 4.08471 0
M  V30 827 H 74.9691 -1.36513 2.93506 0
M  V30 828 H 73.8761 0.840659 3.64532 0
M  V30 829 H 75.2091 1.08685 4.8005 0
M  V30 830 N 76.8612 -1.46375 0.584142 0
M  V30 831 C 78.2772 -1.57694 0.245929 0
M  V30 832 C 78.4772 -1.57903 -1.25175 0
M  V30 833 O 77.5332 -1.49676 -2.03355 0
M  V30 834 C 78.8462 -2.87028 0.896402 0
M  V30 835 C 80.3942 -3.00662 0.870127 0
M  V30 836 C 80.8692 -4.32734 1.50017 0
M  V30 837 N 82.3602 -4.39436 1.46458 0
M  V30 838 C 83.0952 -5.40248 1.92144 0
M  V30 839 N 82.5912 -6.47726 2.4581 0
M  V30 840 N 84.3842 -5.31459 1.83052 0
M  V30 841 H 76.5352 -1.44483 1.55687 0
M  V30 842 H 78.7982 -0.689291 0.650831 0
M  V30 843 H 78.5042 -2.9269 1.95002 0
M  V30 844 H 78.3782 -3.75014 0.405486 0
M  V30 845 H 80.7652 -2.94581 -0.174871 0
M  V30 846 H 80.8462 -2.14148 1.39908 0
M  V30 847 H 80.4902 -4.39573 2.54437 0
M  V30 848 H 80.4202 -5.18025 0.946432 0
M  V30 849 H 82.9112 -3.62367 1.07231 0
M  V30 850 H 83.2242 -7.20863 2.78525 0
M  V30 851 H 81.5692 -6.48542 2.49836 0
M  V30 852 H 84.7602 -4.46396 1.40883 0
M  V30 853 H 84.9332 -6.09881 2.18973 0
M  V30 854 N 78.3393 -0.321999 -1.54275 0
M  V30 855 C 79.5863 0.281044 -2.0054 0
M  V30 856 C 79.9143 1.52265 -1.21019 0
M  V30 857 O 79.1693 1.93687 -0.279982 0
M  V30 858 C 79.4683 0.661769 -3.5122 0
M  V30 859 C 79.1343 -0.480482 -4.48333 0
M  V30 860 C 77.7963 -0.794005 -4.74604 0
M  V30 861 C 80.1483 -1.24783 -5.06042 0
M  V30 862 C 77.4763 -1.87763 -5.55844 0
M  V30 863 C 79.8283 -2.32153 -5.88462 0
M  V30 864 C 78.4923 -2.64089 -6.13036 0
M  V30 865 H 77.7623 0.102841 -0.733829 0
M  V30 866 H 80.4093 -0.445453 -1.86247 0
M  V30 867 H 78.7143 1.46867 -3.63232 0
M  V30 868 H 80.4113 1.13989 -3.84457 0
M  V30 869 H 77.0013 -0.226039 -4.28004 0
M  V30 870 H 81.1853 -1.01887 -4.85729 0
M  V30 871 H 76.4413 -2.12954 -5.73115 0
M  V30 872 H 80.6153 -2.92057 -6.32199 0
M  V30 873 H 78.2423 -3.48185 -6.75775 0
M  V30 874 N 79.8174 1.5752 -0.0501392 0
M  V30 875 C 81.2334 1.56631 0.306402 0
M  V30 876 C 81.4334 1.0577 1.71508 0
M  V30 877 O 80.4894 0.713837 2.422 0
M  V30 878 C 81.8024 3.00393 0.135811 0
M  V30 879 C 83.3504 3.12315 0.206993 0
M  V30 880 C 83.8254 4.57954 0.064944 0
M  V30 881 N 85.3164 4.63041 0.121254 0
M  V30 882 C 86.0514 5.73389 0.0354381 0
M  V30 883 N 85.5474 6.92724 -0.102666 0
M  V30 884 N 87.3404 5.62026 0.090946 0
M  V30 885 H 79.4914 1.88903 -0.971046 0
M  V30 886 H 81.7544 0.869876 -0.376855 0
M  V30 887 H 81.4604 3.41635 -0.835384 0
M  V30 888 H 81.3344 3.66373 0.897275 0
M  V30 889 H 83.7214 2.70973 1.16866 0
M  V30 890 H 83.8024 2.49016 -0.585208 0
M  V30 891 H 83.4464 4.99981 -0.893394 0
M  V30 892 H 83.3764 5.19258 0.876277 0
M  V30 893 H 85.8674 3.77216 0.227284 0
M  V30 894 H 86.1804 7.72633 -0.160882 0
M  V30 895 H 84.5254 6.94864 -0.137737 0
M  V30 896 H 87.7164 4.67684 0.197388 0
M  V30 897 H 87.8894 6.47997 0.0206089 0
M  V30 898 N 81.2955 -0.223234 1.56011 0
M  V30 899 C 82.2285 -1.30377 1.87289 0
M  V30 900 C 83.2065 -1.45286 0.730112 0
M  V30 901 O 84.3905 -1.61126 0.978302 0
M  V30 902 C 81.5175 -2.67431 2.07843 0
M  V30 903 C 80.5635 -2.69546 3.30526 0
M  V30 904 S 81.3965 -2.23781 4.865 0
M  V30 905 C 82.5525 -3.62714 5.10088 0
M  V30 906 H 82.7855 -1.03652 2.78646 0
M  V30 907 H 80.3185 -0.425393 1.48424 0
M  V30 908 H 82.2765 -3.46336 2.20368 0
M  V30 909 H 80.9375 -2.91381 1.17285 0
M  V30 910 H 80.1305 -3.70255 3.41947 0
M  V30 911 H 79.7325 -1.98703 3.16849 0
M  V30 912 H 82.0245 -4.58391 4.98883 0
M  V30 913 H 82.9675 -3.5621 6.11981 0
M  V30 914 H 83.3755 -3.56323 4.37829 0
M  V30 915 N 82.7736 -1.49793 -0.48987 0
M  V30 916 C 84.0226 -1.59085 -1.23995 0
M  V30 917 C 84.3356 -0.287907 -1.9347 0
M  V30 918 O 85.5416 -0.259506 -2.70257 0
M  V30 919 C 83.9976 -2.80736 -2.252 0
M  V30 920 C 83.6056 -4.17833 -1.61614 0
M  V30 921 C 85.3496 -2.99364 -3.00967 0
M  V30 922 C 83.2566 -5.30693 -2.60996 0
M  V30 923 H 82.1866 -0.592372 -0.466488 0
M  V30 924 H 84.8376 -1.76197 -0.51252 0
M  V30 925 H 83.2196 -2.57142 -3.01154 0
M  V30 926 H 84.3936 -4.51608 -0.915774 0
M  V30 927 H 82.7086 -4.04656 -0.981977 0
M  V30 928 H 85.3056 -3.80851 -3.75308 0
M  V30 929 H 85.6486 -2.10356 -3.59244 0
M  V30 930 H 86.1816 -3.2305 -2.32128 0
M  V30 931 H 82.9206 -6.21796 -2.07485 0
M  V30 932 H 82.4406 -5.01359 -3.2924 0
M  V30 933 H 84.1196 -5.6049 -3.23202 0
M  V30 934 N 84.2517 0.741722 -1.39055 0
M  V30 935 C 85.4817 1.52876 -1.3897 0
M  V30 936 C 85.8897 1.8919 0.0193266 0
M  V30 937 O 85.2327 1.54138 0.999356 0
M  V30 938 C 85.2947 2.84929 -2.19216 0
M  V30 939 C 84.9587 2.71086 -3.67915 0
M  V30 940 C 85.9557 2.40084 -4.61146 0
M  V30 941 C 83.6407 2.88168 -4.11418 0
M  V30 942 C 85.6347 2.26335 -5.95862 0
M  V30 943 C 83.3217 2.74037 -5.46211 0
M  V30 944 C 84.3197 2.43166 -6.38247 0
M  V30 945 O 84.0077 2.29115 -7.70559 0
M  V30 946 H 83.7397 0.479252 -0.476753 0
M  V30 947 H 86.2937 0.924751 -1.83405 0
M  V30 948 H 84.5237 3.47564 -1.69518 0
M  V30 949 H 86.2127 3.46509 -2.11392 0
M  V30 950 H 86.9787 2.26545 -4.28838 0
M  V30 951 H 82.8577 3.11191 -3.40119 0
M  V30 952 H 86.4017 2.0216 -6.67665 0
M  V30 953 H 82.2987 2.87153 -5.78112 0
M  V30 954 H 83.0667 2.44237 -7.81211 0
M  V30 955 N 85.7298 1.2412 0.971189 0
M  V30 956 C 86.6598 1.05508 2.08304 0
M  V30 957 C 87.6408 -0.0308864 1.70072 0
M  V30 958 O 88.8258 0.135521 1.93727 0
M  V30 959 C 85.9558 0.655365 3.4106 0
M  V30 960 C 84.9098 1.68971 3.93234 0
M  V30 961 C 84.2358 1.14516 5.22293 0
M  V30 962 C 85.5358 3.08487 4.21465 0
M  V30 963 H 87.2298 1.98507 2.24132 0
M  V30 964 H 84.7758 0.955821 1.07704 0
M  V30 965 H 86.7288 0.51217 4.18276 0
M  V30 966 H 85.4528 -0.31032 3.25122 0
M  V30 967 H 84.1118 1.82106 3.18171 0
M  V30 968 H 83.7598 0.170189 5.02712 0
M  V30 969 H 83.4598 1.83635 5.58168 0
M  V30 970 H 84.9838 1.01401 6.02121 0
M  V30 971 H 86.3978 2.98601 4.89398 0
M  V30 972 H 84.7948 3.74926 4.68562 0
M  V30 973 H 85.8648 3.56787 3.28376 0
M  V30 974 N 87.2079 -1.17134 1.05439 0
M  V30 975 C 88.1399 -2.2078 0.615539 0
M  V30 976 C 89.1529 -1.59584 -0.322001 0
M  V30 977 O 90.3419 -1.78133 -0.114344 0
M  V30 978 C 87.4419 -3.38691 -0.118938 0
M  V30 979 C 86.6149 -4.29454 0.829924 0
M  V30 980 C 85.6739 -5.26024 0.136258 0
M  V30 981 O 84.6999 -5.63952 0.77115 0
M  V30 982 N 85.9019 -5.69487 -1.1254 0
M  V30 983 H 88.6669 -2.59052 1.50705 0
M  V30 984 H 86.2279 -1.32058 0.936603 0
M  V30 985 H 88.2199 -4.00329 -0.593179 0
M  V30 986 H 86.7899 -2.98996 -0.91215 0
M  V30 987 H 86.0099 -3.65211 1.48373 0
M  V30 988 H 87.2979 -4.86984 1.47392 0
M  V30 989 H 86.6959 -5.4075 -1.6615 0
M  V30 990 H 85.2529 -6.33257 -1.54366 0
M  V30 991 N 88.686 -0.835752 -1.33615 0
M  V30 992 C 89.914 -0.443344 -2.02094 0
M  V30 993 C 90.329 0.954522 -1.62894 0
M  V30 994 O 89.686 1.61982 -0.840723 0
M  V30 995 C 89.737 -0.550775 -3.5728 0
M  V30 996 O 89.458 -1.89356 -3.95065 0
M  V30 997 C 90.959 -0.154919 -4.43029 0
M  V30 998 H 88.179 -0.176359 -0.647409 0
M  V30 999 H 90.723 -1.12746 -1.70612 0
M  V30 1000 H 88.878 0.0853997 -3.87306 0
M  V30 1001 H 89.292 -1.87687 -4.89769 0
M  V30 1002 H 90.766 -0.281144 -5.51284 0
M  V30 1003 H 91.243 0.902863 -4.2982 0
M  V30 1004 H 91.849 -0.765404 -4.18356 0
M  V30 1005 N 90.1641 1.46063 -0.591896 0
M  V30 1006 C 91.0941 2.33172 0.123673 0
M  V30 1007 C 92.0751 1.45897 0.87453 0
M  V30 1008 O 93.2601 1.74698 0.848181 0
M  V30 1009 C 90.3901 3.28336 1.13194 0
M  V30 1010 C 89.3441 4.25124 0.495324 0
M  V30 1011 C 88.6701 5.09863 1.61071 0
M  V30 1012 C 89.9701 5.19143 -0.573425 0
M  V30 1013 H 91.6641 2.93252 -0.603646 0
M  V30 1014 H 89.2101 1.41014 -0.291741 0
M  V30 1015 H 91.1631 3.88137 1.64097 0
M  V30 1016 H 89.8871 2.66383 1.88965 0
M  V30 1017 H 88.5461 3.66599 0.00729452 0
M  V30 1018 H 88.1941 4.44288 2.35832 0
M  V30 1019 H 87.8941 5.75417 1.19035 0
M  V30 1020 H 89.4181 5.72529 2.12233 0
M  V30 1021 H 90.8321 5.73106 -0.1491 0
M  V30 1022 H 89.2291 5.93089 -0.914636 0
M  V30 1023 H 90.2991 4.62519 -1.45617 0
M  V30 1024 N 91.6422 0.330177 1.54103 0
M  V30 1025 C 92.5722 -0.525353 2.27513 0
M  V30 1026 C 93.5532 -1.11383 1.2856 0
M  V30 1027 O 94.7382 -1.13773 1.57383 0
M  V30 1028 C 91.8682 -1.6831 3.03791 0
M  V30 1029 C 90.8222 -1.2236 4.10137 0
M  V30 1030 C 90.1482 -2.46882 4.74293 0
M  V30 1031 C 91.4482 -0.333697 5.21233 0
M  V30 1032 H 93.1422 0.087013 2.99274 0
M  V30 1033 H 90.6882 0.0432893 1.43935 0
M  V30 1034 H 92.6412 -2.28795 3.5388 0
M  V30 1035 H 91.3652 -2.32216 2.29659 0
M  V30 1036 H 90.0242 -0.64165 3.60941 0
M  V30 1037 H 89.6722 -3.09165 3.96769 0
M  V30 1038 H 89.3722 -2.16825 5.46133 0
M  V30 1039 H 90.8962 -3.08117 5.27159 0
M  V30 1040 H 92.3102 -0.845013 5.67038 0
M  V30 1041 H 90.7072 -0.125612 5.99969 0
M  V30 1042 H 91.7772 0.633724 4.80741 0
M  V30 1043 N 93.1203 -1.57491 0.0584922 0
M  V30 1044 C 94.0833 -2.1085 -0.898617 0
M  V30 1045 C 95.0833 -1.02964 -1.23511 0
M  V30 1046 O 96.2733 -1.29007 -1.17059 0
M  V30 1047 C 93.4053 -2.59881 -2.20623 0
M  V30 1048 H 94.5983 -2.96715 -0.435936 0
M  V30 1049 H 92.1513 -1.55141 -0.190023 0
M  V30 1050 H 92.8863 -1.77431 -2.71457 0
M  V30 1051 H 92.6713 -3.38727 -1.97501 0
M  V30 1052 H 94.1613 -3.01285 -2.89166 0
M  V30 1053 N 94.5984 0.214957 -1.56127 0
M  V30 1054 C 95.5454 1.26642 -1.92952 0
M  V30 1055 C 96.5154 1.46244 -0.78753 0
M  V30 1056 O 97.7004 1.59704 -1.04399 0
M  V30 1057 C 94.8404 2.6104 -2.25726 0
M  V30 1058 C 93.9534 2.49183 -3.52891 0
M  V30 1059 C 93.0884 3.76149 -3.7508 0
M  V30 1060 C 92.1274 3.59041 -4.95738 0
M  V30 1061 N 91.2644 4.77972 -5.14283 0
M  V30 1062 H 96.1044 0.945384 -2.82607 0
M  V30 1063 H 93.6414 0.455489 -1.3987 0
M  V30 1064 H 95.5994 3.39313 -2.42739 0
M  V30 1065 H 94.2294 2.91227 -1.39236 0
M  V30 1066 H 93.2814 1.6231 -3.44034 0
M  V30 1067 H 94.5934 2.32466 -4.41318 0
M  V30 1068 H 93.7474 4.62865 -3.92226 0
M  V30 1069 H 92.4864 3.95799 -2.84947 0
M  V30 1070 H 91.4914 2.7071 -4.78535 0
M  V30 1071 H 92.7164 3.40856 -5.87362 0
M  V30 1072 H 90.6624 4.97923 -4.27093 0
M  V30 1073 H 90.5794 4.64006 -5.96853 0
M  V30 1074 H 91.8474 5.66096 -5.35869 0
M  V30 1075 N 96.0765 1.50051 0.48192 0
M  V30 1076 C 96.9865 1.7089 1.60728 0
M  V30 1077 C 98.0025 0.591788 1.63627 0
M  V30 1078 O 99.1785 0.868817 1.81696 0
M  V30 1079 C 96.2435 1.78855 2.97005 0
M  V30 1080 C 95.3045 3.02537 3.04581 0
M  V30 1081 C 94.5375 3.10112 4.34357 0
M  V30 1082 O 94.7605 2.24765 5.24249 0
M  V30 1083 O 93.6945 4.02747 4.47301 0
M  V30 1084 H 97.5205 2.66264 1.46072 0
M  V30 1085 H 95.1055 1.34018 0.660264 0
M  V30 1086 H 96.9875 1.86336 3.77964 0
M  V30 1087 H 95.6625 0.866628 3.11883 0
M  V30 1088 H 94.5695 3.00563 2.22739 0
M  V30 1089 H 95.9025 3.94272 2.94636 0
M  V30 1090 N 97.5546 -0.734337 1.39446 0
M  V30 1091 C 98.5016 -1.84835 1.38219 0
M  V30 1092 C 99.4716 -1.64331 0.24179 0
M  V30 1093 O 100.657 -1.85728 0.437002 0
M  V30 1094 C 97.7966 -3.22355 1.23212 0
M  V30 1095 C 96.9096 -3.5456 2.46801 0
M  V30 1096 C 96.0446 -4.81485 2.24377 0
M  V30 1097 C 95.0836 -5.06536 3.43639 0
M  V30 1098 N 94.2206 -6.24665 3.20528 0
M  V30 1099 H 99.0606 -1.85219 2.33448 0
M  V30 1100 H 96.5976 -0.905039 1.15963 0
M  V30 1101 H 98.5556 -4.0174 1.12522 0
M  V30 1102 H 97.1856 -3.21248 0.316121 0
M  V30 1103 H 96.2376 -2.69872 2.68092 0
M  V30 1104 H 97.5496 -3.6899 3.3563 0
M  V30 1105 H 96.7036 -5.68852 2.10933 0
M  V30 1106 H 95.4426 -4.6923 1.32944 0
M  V30 1107 H 94.4476 -4.17632 3.5758 0
M  V30 1108 H 95.6726 -5.20676 4.35974 0
M  V30 1109 H 93.6186 -6.13696 2.3176 0
M  V30 1110 H 93.5356 -6.39685 4.02913 0
M  V30 1111 H 94.8036 -7.14868 3.10779 0
M  V30 1112 N 99.0327 -1.24633 -0.964593 0
M  V30 1113 C 99.9797 -1.04144 -2.05968 0
M  V30 1114 C 100.95 0.046262 -1.66036 0
M  V30 1115 O 102.135 -0.108972 -1.90489 0
M  V30 1116 C 99.2747 -0.65563 -3.38815 0
M  V30 1117 C 98.3877 -1.81714 -3.91923 0
M  V30 1118 C 97.5227 -1.37662 -5.13052 0
M  V30 1119 C 96.5617 -2.50788 -5.58365 0
M  V30 1120 N 95.6987 -2.07582 -6.70712 0
M  V30 1121 H 100.539 -1.9787 -2.22827 0
M  V30 1122 H 98.0757 -0.9855 -1.09208 0
M  V30 1123 H 100.034 -0.412954 -4.15151 0
M  V30 1124 H 98.6637 0.244627 -3.21872 0
M  V30 1125 H 97.7157 -2.1734 -3.12198 0
M  V30 1126 H 99.0277 -2.66705 -4.21509 0
M  V30 1127 H 98.1817 -1.093 -5.96773 0
M  V30 1128 H 96.9207 -0.497293 -4.85158 0
M  V30 1129 H 95.9257 -2.79906 -4.73215 0
M  V30 1130 H 97.1507 -3.39283 -5.88272 0
M  V30 1131 H 95.0967 -1.22051 -6.44546 0
M  V30 1132 H 95.0137 -2.86125 -6.99763 0
M  V30 1133 H 96.2817 -1.82369 -7.57867 0
M  V30 1134 N 100.511 1.16574 -1.06058 0
M  V30 1135 C 101.736 1.91493 -0.796562 0
M  V30 1136 C 102.161 1.76773 0.642868 0
M  V30 1137 O 101.519 1.09142 1.44768 0
M  V30 1138 C 101.567 3.40293 -1.19303 0
M  V30 1139 O 100.671 4.11074 -0.330394 0
M  V30 1140 H 100.012 0.596678 -0.291326 0
M  V30 1141 H 102.542 1.47708 -1.41575 0
M  V30 1142 H 102.552 3.91057 -1.16356 0
M  V30 1143 H 101.227 3.50326 -2.24153 0
M  V30 1144 H 99.8038 3.70513 -0.421225 0
M  V30 1145 N 101.989 0.842826 1.3317 0
M  V30 1146 C 103.219 0.453397 2.01564 0
M  V30 1147 C 103.627 -0.951147 1.63554 0
M  V30 1148 O 102.97 -1.63021 0.846746 0
M  V30 1149 C 103.032 0.499013 3.5602 0
M  V30 1150 C 102.696 1.86037 4.1742 0
M  V30 1151 C 103.693 2.82416 4.36506 0
M  V30 1152 C 101.378 2.15428 4.53757 0
M  V30 1153 C 103.372 4.06346 4.91082 0
M  V30 1154 C 101.059 3.39615 5.0804 0
M  V30 1155 C 102.057 4.3489 5.26649 0
M  V30 1156 O 101.745 5.5688 5.79776 0
M  V30 1157 H 101.477 0.177871 0.652179 0
M  V30 1158 H 104.031 1.13808 1.70988 0
M  V30 1159 H 102.261 -0.242467 3.85939 0
M  V30 1160 H 103.95 0.126852 4.05702 0
M  V30 1161 H 104.716 2.6101 4.08777 0
M  V30 1162 H 100.595 1.42061 4.38565 0
M  V30 1163 H 104.139 4.80722 5.05522 0
M  V30 1164 H 100.036 3.60876 5.352 0
M  V30 1165 H 100.804 5.58674 5.98185 0
M  V30 1166 N 103.467 -1.45747 0.599634 0
M  V30 1167 C 104.744 -1.95585 0.0240846 0
M  V30 1168 C 105.124 -1.54217 -1.44154 0
M  V30 1169 O 104.472 -0.800903 -2.14004 0
M  V30 1170 C 104.682 -3.48344 0.21385 0
M  V30 1171 C 106.03 -4.24504 0.0904902 0
M  V30 1172 O 107.054 -3.55911 0.143558 0
M  V30 1173 O 105.913 -5.46491 -0.0310766 0
M  V30 1174 H 103.007 -0.82602 -0.0402478 0
M  V30 1175 H 105.553 -1.55951 0.669139 0
M  V30 1176 H 104.325 -3.71397 1.23206 0
M  V30 1177 H 103.948 -3.9485 -0.466842 0
M  V30 1178 N 104.945 -0.338344 -1.53925 0
M  V30 1179 C 106.361 0.0137736 -1.59594 0
M  V30 1180 C 106.561 1.49186 -1.35447 0
M  V30 1181 O 105.617 2.24987 -1.14616 0
M  V30 1182 C 106.93 -0.41773 -2.97784 0
M  V30 1183 C 108.478 -0.369633 -3.1081 0
M  V30 1184 C 108.953 -0.776524 -4.51369 0
M  V30 1185 N 110.444 -0.730506 -4.57403 0
M  V30 1186 C 111.179 -1.01736 -5.64303 0
M  V30 1187 N 110.675 -1.3721 -6.79077 0
M  V30 1188 N 112.468 -0.941942 -5.54151 0
M  V30 1189 H 104.619 -1.3012 -1.67876 0
M  V30 1190 H 106.882 -0.530082 -0.78595 0
M  V30 1191 H 106.588 -1.44811 -3.20504 0
M  V30 1192 H 106.462 0.209729 -3.76616 0
M  V30 1193 H 108.849 0.651568 -2.87817 0
M  V30 1194 H 108.93 -1.03223 -2.34049 0
M  V30 1195 H 108.574 -1.79571 -4.75096 0
M  V30 1196 H 108.504 -0.0914649 -5.26521 0
M  V30 1197 H 110.995 -0.468783 -3.74981 0
M  V30 1198 H 111.308 -1.57597 -7.5656 0
M  V30 1199 H 109.653 -1.4105 -6.80536 0
M  V30 1200 H 112.844 -0.664184 -4.63364 0
M  V30 1201 H 113.017 -1.16884 -6.37371 0
M  V30 1202 N 106.423 1.57458 -0.0668435 0
M  V30 1203 C 107.355 2.09413 0.931601 0
M  V30 1204 C 108.368 1.02522 1.26464 0
M  V30 1205 O 109.557 1.30049 1.22269 0
M  V30 1206 C 106.657 2.53537 2.24882 0
M  V30 1207 C 105.83 3.83944 2.09537 0
M  V30 1208 C 104.889 4.14214 3.2452 0
M  V30 1209 O 103.915 4.83891 2.9973 0
M  V30 1210 N 105.117 3.67367 4.49469 0
M  V30 1211 H 107.882 2.95699 0.488048 0
M  V30 1212 H 105.443 1.61462 0.119009 0
M  V30 1213 H 107.435 2.70853 3.00701 0
M  V30 1214 H 106.005 1.72415 2.60753 0
M  V30 1215 H 105.225 3.76057 1.18215 0
M  V30 1216 H 106.513 4.69312 1.96529 0
M  V30 1217 H 105.911 3.11068 4.72497 0
M  V30 1218 H 104.468 3.89891 5.2233 0
M  V30 1219 N 107.901 -0.206675 1.56239 0
M  V30 1220 C 109.317 -0.557025 1.49564 0
M  V30 1221 C 109.517 -1.86424 0.764735 0
M  V30 1222 O 108.573 -2.50584 0.310491 0
M  V30 1223 C 109.886 -0.622478 2.94186 0
M  V30 1224 C 111.434 -0.712099 3.04792 0
M  V30 1225 C 111.909 -0.808767 4.50803 0
M  V30 1226 N 113.4 -0.8726 4.54907 0
M  V30 1227 C 114.135 -0.967365 5.65181 0
M  V30 1228 N 113.631 -1.02515 6.85173 0
M  V30 1229 N 115.424 -1.00366 5.53067 0
M  V30 1230 H 107.575 0.650943 2.02179 0
M  V30 1231 H 109.838 0.230387 0.919579 0
M  V30 1232 H 109.544 0.268727 3.50672 0
M  V30 1233 H 109.418 -1.4811 3.46905 0
M  V30 1234 H 111.805 -1.59374 2.48363 0
M  V30 1235 H 111.886 0.172489 2.55218 0
M  V30 1236 H 111.53 0.0684754 5.07854 0
M  V30 1237 H 111.46 -1.70899 4.98098 0
M  V30 1238 H 113.951 -0.837657 3.68499 0
M  V30 1239 H 114.264 -1.09765 7.64965 0
M  V30 1240 H 112.609 -0.994026 6.87855 0
M  V30 1241 H 115.8 -0.95527 4.58249 0
M  V30 1242 H 115.973 -1.07405 6.39037 0
M  V30 1243 N 109.379 -1.50304 -0.473955 0
M  V30 1244 C 110.625 -1.62358 -1.22521 0
M  V30 1245 C 110.98 -0.318555 -1.89745 0
M  V30 1246 O 110.273 0.683315 -1.79001 0
M  V30 1247 C 110.467 -2.73938 -2.29549 0
M  V30 1248 C 110.296 -4.15165 -1.72825 0
M  V30 1249 C 109.066 -4.81604 -1.52924 0
M  V30 1250 C 111.264 -4.99503 -1.22481 0
M  V30 1251 N 109.246 -6.07056 -0.91413 0
M  V30 1252 C 110.617 -6.15655 -0.732743 0
M  V30 1253 C 112.672 -4.85299 -1.11308 0
M  V30 1254 C 111.375 -7.19164 -0.139976 0
M  V30 1255 C 113.401 -5.88982 -0.534258 0
M  V30 1256 C 112.763 -7.0438 -0.0525562 0
M  V30 1257 H 108.862 -0.648286 -0.437321 0
M  V30 1258 H 111.446 -1.87413 -0.527692 0
M  V30 1259 H 109.617 -2.50611 -2.9673 0
M  V30 1260 H 111.349 -2.75366 -2.96573 0
M  V30 1261 H 108.104 -4.3885 -1.78067 0
M  V30 1262 H 108.528 -6.74108 -0.625071 0
M  V30 1263 H 113.17 -3.96369 -1.47144 0
M  V30 1264 H 110.888 -8.07771 0.230591 0
M  V30 1265 H 114.474 -5.80055 -0.450219 0
M  V30 1266 H 113.354 -7.83238 0.388324 0
M  V30 1267 N 110.857 0.726932 -1.39834 0
M  V30 1268 C 112.105 1.4837 -1.37225 0
M  V30 1269 C 112.426 1.94979 0.0284857 0
M  V30 1270 O 111.696 1.69555 0.981213 0
M  V30 1271 H 110.276 0.55043 -0.505011 0
M  V30 1272 H 112.938 0.862468 -1.74778 0
M  V30 1273 H 112.034 2.36198 -2.04003 0
M  V30 1274 N 112.336 1.25143 0.95797 0
M  V30 1275 C 113.583 1.09692 1.70217 0
M  V30 1276 C 113.911 -0.362654 1.91089 0
M  V30 1277 O 113.166 -1.28386 1.47701 0
M  V30 1278 C 113.465 1.79272 3.09187 0
M  V30 1279 C 113.131 3.29196 3.08125 0
M  V30 1280 C 111.793 3.70096 3.07543 0
M  V30 1281 C 114.145 4.24995 3.0171 0
M  V30 1282 C 111.473 5.05213 2.9829 0
M  V30 1283 C 113.825 5.60132 2.93999 0
M  V30 1284 C 112.489 6.00365 2.9175 0
M  V30 1285 H 111.759 0.401393 0.622868 0
M  V30 1286 H 114.406 1.55372 1.11945 0
M  V30 1287 H 112.711 1.26014 3.70982 0
M  V30 1288 H 114.408 1.64773 3.65583 0
M  V30 1289 H 110.998 2.96651 3.09348 0
M  V30 1290 H 115.182 3.9439 3.01281 0
M  V30 1291 H 110.438 5.35569 2.94916 0
M  V30 1292 H 114.612 6.3406 2.87996 0
M  V30 1293 H 112.239 7.05023 2.84336 0
M  V30 1294 N 113.814 -1.1601 1.06675 0
M  V30 1295 C 115.23 -1.38622 0.790948 0
M  V30 1296 C 115.43 -1.92109 -0.607965 0
M  V30 1297 O 114.486 -2.12239 -1.36787 0
M  V30 1298 C 115.799 -2.36347 1.85905 0
M  V30 1299 C 117.347 -2.50023 1.88301 0
M  V30 1300 C 117.822 -3.51033 2.94176 0
M  V30 1301 N 119.313 -3.58563 2.93235 0
M  V30 1302 C 120.048 -4.36521 3.71803 0
M  V30 1303 N 119.544 -5.17869 4.602 0
M  V30 1304 N 121.337 -4.31541 3.60178 0
M  V30 1305 H 113.488 -0.796294 1.96908 0
M  V30 1306 H 115.751 -0.412597 0.853503 0
M  V30 1307 H 115.457 -2.04147 2.86386 0
M  V30 1308 H 115.331 -3.36042 1.71334 0
M  V30 1309 H 117.718 -2.81524 0.884769 0
M  V30 1310 H 117.799 -1.5035 2.06951 0
M  V30 1311 H 117.443 -3.20268 3.94196 0
M  V30 1312 H 117.373 -4.50445 2.72776 0
M  V30 1313 H 119.864 -3.00496 2.29152 0
M  V30 1314 H 120.177 -5.74578 5.16797 0
M  V30 1315 H 118.522 -5.17199 4.64253 0
M  V30 1316 H 121.713 -3.67051 2.90502 0
M  V30 1317 H 121.886 -4.9205 4.21653 0
M  V30 1318 N 115.292 -0.849877 -1.32721 0
M  V30 1319 C 116.708 -0.539102 -1.50219 0
M  V30 1320 C 116.908 0.931271 -1.78689 0
M  V30 1321 O 115.964 1.71455 -1.85363 0
M  V30 1322 C 117.277 -1.42196 -2.64954 0
M  V30 1323 C 118.825 -1.42189 -2.78839 0
M  V30 1324 C 119.3 -2.28985 -3.96648 0
M  V30 1325 N 120.791 -2.26754 -4.03902 0
M  V30 1326 C 121.526 -2.90644 -4.94281 0
M  V30 1327 N 121.022 -3.63629 -5.897 0
M  V30 1328 N 122.815 -2.80057 -4.87365 0
M  V30 1329 H 114.966 -1.80156 -1.12506 0
M  V30 1330 H 117.229 -0.769217 -0.554085 0
M  V30 1331 H 116.935 -2.46733 -2.50631 0
M  V30 1332 H 116.809 -1.10591 -3.60624 0
M  V30 1333 H 119.196 -0.38419 -2.92588 0
M  V30 1334 H 119.277 -1.77807 -1.83898 0
M  V30 1335 H 118.921 -3.32819 -3.83658 0
M  V30 1336 H 118.851 -1.90702 -4.90857 0
M  V30 1337 H 121.342 -1.73688 -3.3562 0
M  V30 1338 H 121.655 -4.09558 -6.55349 0
M  V30 1339 H 120 -3.67737 -5.89741 0
M  V30 1340 H 123.191 -2.22593 -4.11789 0
M  V30 1341 H 123.364 -3.30132 -5.57599 0
M  V30 1342 N 116.77 1.45427 -0.607355 0
M  V30 1343 C 117.733 2.28974 0.101693 0
M  V30 1344 C 118.733 1.39754 0.795329 0
M  V30 1345 O 119.923 1.61878 0.643527 0
M  V30 1346 C 117.055 3.20768 1.15414 0
M  V30 1347 H 118.248 2.93147 -0.632844 0
M  V30 1348 H 115.801 1.51945 -0.366391 0
M  V30 1349 H 116.536 2.61395 1.91945 0
M  V30 1350 H 116.321 3.86489 0.66098 0
M  V30 1351 H 117.811 3.83589 1.65073 0
M  V30 1352 N 118.248 0.346503 1.53744 0
M  V30 1353 C 119.211 -0.496439 2.23759 0
M  V30 1354 C 120.211 -1.0252 1.2388 0
M  V30 1355 O 121.401 -0.913974 1.48297 0
M  V30 1356 C 118.533 -1.69187 2.95954 0
M  V30 1357 H 119.726 0.115952 2.99676 0
M  V30 1358 H 117.279 0.0978939 1.55993 0
M  V30 1359 H 118.014 -2.34288 2.24231 0
M  V30 1360 H 117.799 -1.31989 3.69217 0
M  V30 1361 H 119.289 -2.28969 3.49232 0
M  V30 1362 N 119.726 -1.57421 0.075193 0
M  V30 1363 C 120.658 -2.09904 -0.920483 0
M  V30 1364 C 121.671 -1.03191 -1.25918 0
M  V30 1365 O 122.86 -1.30695 -1.21577 0
M  V30 1366 C 119.96 -2.54726 -2.23534 0
M  V30 1367 C 119.133 -3.8505 -2.07498 0
M  V30 1368 C 118.192 -4.15929 -3.22319 0
M  V30 1369 O 117.218 -4.85474 -2.9716 0
M  V30 1370 N 118.42 -3.69745 -4.47514 0
M  V30 1371 H 121.185 -2.95954 -0.472359 0
M  V30 1372 H 118.746 -1.61523 -0.110444 0
M  V30 1373 H 120.738 -2.72443 -2.9926 0
M  V30 1374 H 119.308 -1.73795 -2.59835 0
M  V30 1375 H 118.528 -3.76679 -1.16219 0
M  V30 1376 H 119.816 -4.70348 -1.94038 0
M  V30 1377 H 119.214 -3.13569 -4.7084 0
M  V30 1378 H 117.771 -3.92655 -5.20255 0
M  V30 1379 N 121.204 0.198386 -1.56346 0
M  V30 1380 C 122.167 1.22952 -1.93431 0
M  V30 1381 C 123.167 1.38611 -0.815092 0
M  V30 1382 O 124.357 1.36479 -1.08255 0
M  V30 1383 C 121.489 2.59946 -2.20546 0
M  V30 1384 H 122.682 0.912626 -2.85677 0
M  V30 1385 H 120.235 0.43977 -1.49986 0
M  V30 1386 H 120.97 2.96696 -1.30927 0
M  V30 1387 H 120.755 2.49953 -3.02102 0
M  V30 1388 H 122.245 3.3431 -2.50253 0
M  V30 1389 N 122.682 1.50554 0.465978 0
M  V30 1390 C 124.093 1.54599 1.04671 0
M  V30 1391 C 124.444 0.352488 1.93008 0
M  V30 1392 O 123.569 -0.534044 2.09707 0
M  V30 1393 C 124.164 2.80166 1.90505 0
M  V30 1394 C 122.723 2.86876 2.43678 0
M  V30 1395 C 121.87 2.48947 1.22151 0
M  V30 1396 H 124.821 1.56744 0.248384 0
M  V30 1397 H 124.842 2.62311 2.75633 0
M  V30 1398 H 124.354 3.67013 1.26186 0
M  V30 1399 H 122.455 2.04393 3.11536 0
M  V30 1400 H 122.568 3.89885 2.78436 0
M  V30 1401 H 120.932 2.01498 1.5579 0
M  V30 1402 H 121.715 3.38107 0.594866 0
M  V30 1403 N 124.16 -0.719506 1.40217 0
M  V30 1404 C 125.437 -1.47221 1.28784 0
M  V30 1405 C 125.817 -2.10883 -0.0956067 0
M  V30 1406 O 125.165 -1.99833 -1.10811 0
M  V30 1407 C 125.375 -2.5111 2.42373 0
M  V30 1408 C 126.723 -3.17053 2.82423 0
M  V30 1409 O 127.747 -2.61429 2.41937 0
M  V30 1410 O 126.606 -4.17742 3.52355 0
M  V30 1411 H 123.7 -0.654491 0.50554 0
M  V30 1412 H 126.246 -0.752014 1.52128 0
M  V30 1413 H 125.018 -2.02556 3.34793 0
M  V30 1414 H 124.641 -3.3067 2.20778 0
M  V30 1415 N 125.638 -1.25649 -0.95132 0
M  V30 1416 C 126.886 -1.10375 -1.69298 0
M  V30 1417 C 127.207 0.355339 -1.91735 0
M  V30 1418 O 126.477 1.25188 -1.50681 0
M  V30 1419 H 125.057 -0.405461 -0.627384 0
M  V30 1420 H 127.719 -1.57823 -1.14358 0
M  V30 1421 H 126.815 -1.61465 -2.67087 0
M  V30 1422 N 127.117 1.15442 -1.07289 0
M  V30 1423 C 128.08 2.18358 -0.696591 0
M  V30 1424 C 129.08 1.58637 0.262837 0
M  V30 1425 O 130.27 1.74145 0.0438809 0
M  V30 1426 C 127.402 3.4089 -0.0266151 0
M  V30 1427 H 128.595 2.53162 -1.60776 0
M  V30 1428 H 126.148 1.29893 -0.869342 0
M  V30 1429 H 126.883 3.11653 0.896822 0
M  V30 1430 H 126.668 3.85495 -0.716657 0
M  V30 1431 H 128.158 4.17009 0.222028 0
M  V30 1432 N 128.595 0.856903 1.32268 0
M  V30 1433 C 129.82 0.474569 2.01897 0
M  V30 1434 C 130.245 -0.921766 1.63967 0
M  V30 1435 O 129.603 -1.60589 0.84148 0
M  V30 1436 C 129.651 0.623799 3.55164 0
M  V30 1437 O 128.755 -0.342459 4.10976 0
M  V30 1438 H 128.096 0.190422 0.63611 0
M  V30 1439 H 130.626 1.15672 1.68764 0
M  V30 1440 H 130.636 0.512169 4.04773 0
M  V30 1441 H 129.311 1.64202 3.82113 0
M  V30 1442 H 127.888 -0.18688 3.72431 0
M  V30 1443 N 130.073 -1.45103 0.615059 0
M  V30 1444 C 130.983 -2.34382 -0.101034 0
M  V30 1445 C 131.999 -1.51681 -0.852585 0
M  V30 1446 O 133.175 -1.8446 -0.808484 0
M  V30 1447 C 130.24 -3.29417 -1.08099 0
M  V30 1448 C 129.301 -4.28025 -0.330577 0
M  V30 1449 C 128.534 -5.1852 -1.26385 0
M  V30 1450 O 128.757 -5.12598 -2.50198 0
M  V30 1451 O 127.691 -5.97122 -0.756866 0
M  V30 1452 H 131.517 -2.97033 0.632855 0
M  V30 1453 H 129.102 -1.4461 0.375293 0
M  V30 1454 H 130.984 -3.87958 -1.6452 0
M  V30 1455 H 129.659 -2.69321 -1.79577 0
M  V30 1456 H 128.566 -3.73078 0.276283 0
M  V30 1457 H 129.899 -4.90997 0.343866 0
M  V30 1458 N 131.551 -0.354651 -1.53558 0
M  V30 1459 C 132.962 0.126902 -1.86268 0
M  V30 1460 C 133.313 1.49075 -1.27558 0
M  V30 1461 O 132.438 2.08105 -0.5934 0
M  V30 1462 C 133.033 0.237046 -3.3797 0
M  V30 1463 C 131.592 0.662842 -3.70518 0
M  V30 1464 C 130.739 -0.196652 -2.76602 0
M  V30 1465 H 133.69 -0.573849 -1.47962 0
M  V30 1466 H 133.711 1.06259 -3.65362 0
M  V30 1467 H 133.223 -0.755725 -3.80671 0
M  V30 1468 H 131.324 1.66424 -3.33367 0
M  V30 1469 H 131.437 0.445034 -4.77029 0
M  V30 1470 H 129.801 0.332763 -2.52517 0
M  V30 1471 H 130.584 -1.18676 -3.22135 0
M  V30 1472 N 133.029 1.57378 -0.0835403 0
M  V30 1473 C 134.445 1.57246 0.273109 0
M  V30 1474 C 134.645 1.09385 1.69225 0
M  V30 1475 O 133.701 0.765051 2.40631 0
M  V30 1476 C 135.014 3.00614 0.0720628 0
M  V30 1477 C 136.562 3.12684 0.1407 0
M  V30 1478 C 137.037 4.57989 -0.0322094 0
M  V30 1479 N 138.528 4.63194 0.0230085 0
M  V30 1480 C 139.263 5.73335 -0.0861941 0
M  V30 1481 N 138.759 6.9235 -0.24958 0
M  V30 1482 N 140.552 5.62093 -0.0282886 0
M  V30 1483 H 132.703 1.86801 -1.0109 0
M  V30 1484 H 134.966 0.861687 -0.395222 0
M  V30 1485 H 134.672 3.39786 -0.907662 0
M  V30 1486 H 134.546 3.68193 0.81936 0
M  V30 1487 H 136.933 2.73391 1.11092 0
M  V30 1488 H 137.014 2.47719 -0.637896 0
M  V30 1489 H 136.658 4.97973 -0.999247 0
M  V30 1490 H 136.588 5.21 0.765937 0
M  V30 1491 H 139.079 3.77613 0.14722 0
M  V30 1492 H 139.392 7.72117 -0.324733 0
M  V30 1493 H 137.737 6.94415 -0.285097 0
M  V30 1494 H 140.928 4.67997 0.0981408 0
M  V30 1495 H 141.101 6.47895 -0.116845 0
M  V30 1496 N 134.507 -0.190092 1.56449 0
M  V30 1497 C 135.47 -1.21925 1.9408 0
M  V30 1498 C 136.47 -1.38176 0.822431 0
M  V30 1499 O 137.66 -1.35903 1.08977 0
M  V30 1500 C 134.792 -2.58773 2.21922 0
M  V30 1501 H 135.985 -0.897464 2.86157 0
M  V30 1502 H 133.538 -0.43181 1.50217 0
M  V30 1503 H 134.273 -2.95998 1.32499 0
M  V30 1504 H 134.058 -2.48348 3.03424 0
M  V30 1505 H 135.548 -3.32978 2.52022 0
M  V30 1506 N 135.985 -1.50799 -0.457987 0
M  V30 1507 C 137.21 -1.66496 -1.23668 0
M  V30 1508 C 137.635 -0.353288 -1.84752 0
M  V30 1509 O 136.993 0.684346 -1.67888 0
M  V30 1510 C 137.041 -2.76763 -2.3116 0
M  V30 1511 O 136.145 -2.38928 -3.36136 0
M  V30 1512 H 135.486 -0.555828 -0.363252 0
M  V30 1513 H 138.016 -1.9725 -0.543474 0
M  V30 1514 H 138.026 -3.00232 -2.76269 0
M  V30 1515 H 136.701 -3.71954 -1.86073 0
M  V30 1516 H 135.278 -2.25953 -2.96647 0
M  V30 1517 N 137.463 0.71206 -1.40597 0
M  V30 1518 C 138.426 1.80785 -1.40888 0
M  V30 1519 C 139.426 1.57937 -0.302103 0
M  V30 1520 O 140.616 1.64913 -0.561182 0
M  V30 1521 C 137.748 3.18927 -1.20409 0
M  V30 1522 H 138.941 1.81924 -2.38419 0
M  V30 1523 H 136.494 0.91805 -1.26497 0
M  V30 1524 H 137.229 3.23436 -0.236522 0
M  V30 1525 H 137.014 3.36911 -2.00582 0
M  V30 1526 H 138.504 3.98949 -1.23408 0
M  V30 1527 N 138.941 1.26152 0.944643 0
M  V30 1528 C 140.166 1.14363 1.7302 0
M  V30 1529 C 140.591 -0.29772 1.85729 0
M  V30 1530 O 139.949 -1.2157 1.34501 0
M  V30 1531 C 139.997 1.81378 3.11664 0
M  V30 1532 O 139.101 1.10022 3.97453 0
M  V30 1533 H 138.442 0.398694 0.53098 0
M  V30 1534 H 140.972 1.66906 1.18337 0
M  V30 1535 H 140.982 1.88064 3.62072 0
M  V30 1536 H 139.657 2.86237 3.0173 0
M  V30 1537 H 138.234 1.11287 3.55907 0
M  V30 1538 N 140.419 -1.14872 1.07899 0
M  V30 1539 C 141.835 -1.37776 0.805606 0
M  V30 1540 C 142.035 -1.92743 -0.587555 0
M  V30 1541 O 141.091 -2.13678 -1.34528 0
M  V30 1542 C 142.404 -2.34361 1.88402 0
M  V30 1543 C 143.952 -2.48012 1.90942 0
M  V30 1544 C 144.427 -3.47893 2.97883 0
M  V30 1545 N 145.918 -3.55433 2.97021 0
M  V30 1546 C 146.653 -4.32553 3.76412 0
M  V30 1547 N 146.149 -5.12959 4.65666 0
M  V30 1548 N 147.942 -4.27697 3.64735 0
M  V30 1549 H 140.093 -0.775365 1.97742 0
M  V30 1550 H 142.356 -0.403521 0.857831 0
M  V30 1551 H 142.062 -2.01098 2.88535 0
M  V30 1552 H 141.936 -3.34206 1.74889 0
M  V30 1553 H 144.323 -2.8057 0.914579 0
M  V30 1554 H 144.404 -1.48147 2.08534 0
M  V30 1555 H 144.048 -3.16069 3.97571 0
M  V30 1556 H 143.978 -4.47527 2.77538 0
M  V30 1557 H 146.469 -2.98048 2.32326 0
M  V30 1558 H 146.782 -5.69065 5.22862 0
M  V30 1559 H 145.127 -5.12245 4.69712 0
M  V30 1560 H 148.318 -3.63949 2.94378 0
M  V30 1561 H 148.491 -4.8755 4.26848 0
M  V30 1562 N 141.898 -0.863906 -1.31812 0
M  V30 1563 C 143.309 -0.52522 -1.7916 0
M  V30 1564 C 143.66 0.957518 -1.71248 0
M  V30 1565 O 142.785 1.74734 -1.27659 0
M  V30 1566 C 143.38 -0.9466 -3.25307 0
M  V30 1567 C 141.939 -0.659668 -3.70574 0
M  V30 1568 C 141.086 -1.14126 -2.52726 0
M  V30 1569 H 144.037 -1.05022 -1.1898 0
M  V30 1570 H 144.058 -0.266766 -3.79564 0
M  V30 1571 H 143.57 -2.02579 -3.31034 0
M  V30 1572 H 141.671 0.408416 -3.70355 0
M  V30 1573 H 141.784 -1.23245 -4.62977 0
M  V30 1574 H 140.148 -0.561216 -2.4844 0
M  V30 1575 H 140.931 -2.22775 -2.61201 0
M  V30 1576 N 143.376 1.44774 -0.622745 0
M  V30 1577 C 144.308 2.28856 0.125485 0
M  V30 1578 C 145.321 1.40811 0.817069 0
M  V30 1579 O 146.51 1.65044 0.679918 0
M  V30 1580 C 143.61 3.16963 1.19949 0
M  V30 1581 C 142.783 4.33374 0.592064 0
M  V30 1582 C 141.842 5.02577 1.55893 0
M  V30 1583 O 140.868 5.58873 1.07933 0
M  V30 1584 N 142.07 5.03256 2.89334 0
M  V30 1585 H 144.835 2.93713 -0.596068 0
M  V30 1586 H 142.396 1.55129 -0.463303 0
M  V30 1587 H 144.388 3.60123 1.84644 0
M  V30 1588 H 142.958 2.53913 1.82337 0
M  V30 1589 H 142.178 3.93509 -0.233322 0
M  V30 1590 H 143.466 5.08527 0.166738 0
M  V30 1591 H 142.864 4.58836 3.30887 0
M  V30 1592 H 141.421 5.50232 3.49412 0
M  V30 1593 N 144.854 0.36279 1.53368 0
M  V30 1594 C 146.265 -0.117022 1.86333 0
M  V30 1595 C 146.616 -1.48397 1.28347 0
M  V30 1596 O 145.741 -2.07787 0.604428 0
M  V30 1597 C 146.336 -0.21912 3.38091 0
M  V30 1598 C 144.895 -0.643184 3.70864 0
M  V30 1599 C 144.042 0.211318 2.76494 0
M  V30 1600 H 146.993 0.581687 1.47655 0
M  V30 1601 H 147.014 -1.04319 3.6592 0
M  V30 1602 H 146.526 0.775902 3.80265 0
M  V30 1603 H 144.627 -1.64654 3.34245 0
M  V30 1604 H 144.74 -0.41973 4.77258 0
M  V30 1605 H 143.104 -0.319367 2.5269 0
M  V30 1606 H 143.887 1.20383 3.21501 0
M  V30 1607 N 146.332 -1.57332 0.0918853 0
M  V30 1608 C 147.295 -2.12708 -0.85369 0
M  V30 1609 C 148.295 -1.05561 -1.213 0
M  V30 1610 O 149.485 -1.31461 -1.14296 0
M  V30 1611 C 146.617 -2.64503 -2.15061 0
M  V30 1612 H 147.81 -2.97573 -0.3729 0
M  V30 1613 H 145.363 -1.55509 -0.157072 0
M  V30 1614 H 146.098 -1.83149 -2.67632 0
M  V30 1615 H 145.883 -3.4284 -1.90272 0
M  V30 1616 H 147.373 -3.07351 -2.82711 0
M  V30 1617 N 147.81 0.181792 -1.56548 0
M  V30 1618 C 149.221 0.745244 -1.71181 0
M  V30 1619 C 149.572 1.83262 -0.70068 0
M  V30 1620 O 148.697 2.15946 0.140154 0
M  V30 1621 C 149.292 1.35859 -3.10367 0
M  V30 1622 C 147.851 1.86898 -3.2672 0
M  V30 1623 C 146.998 0.743942 -2.67134 0
M  V30 1624 H 149.949 -0.0434661 -1.5864 0
M  V30 1625 H 149.97 2.22817 -3.08436 0
M  V30 1626 H 149.482 0.566948 -3.83937 0
M  V30 1627 H 147.583 2.68738 -2.5809 0
M  V30 1628 H 147.696 2.02162 -4.34359 0
M  V30 1629 H 146.06 1.16169 -2.26665 0
M  V30 1630 H 146.843 -0.035676 -3.43281 0
M  V30 1631 N 149.288 1.51039 0.449983 0
M  V30 1632 C 150.251 1.70863 1.5277 0
M  V30 1633 C 151.251 0.578846 1.5002 0
M  V30 1634 O 152.441 0.846213 1.52266 0
M  V30 1635 C 149.573 1.75341 2.9235 0
M  V30 1636 H 150.766 2.67034 1.36502 0
M  V30 1637 H 148.319 1.40838 0.677812 0
M  V30 1638 H 149.054 0.809383 3.14037 0
M  V30 1639 H 148.839 2.57436 2.95752 0
M  V30 1640 H 150.329 1.92559 3.70555 0
M  V30 1641 N 150.766 -0.704594 1.40972 0
M  V30 1642 C 152.043 -1.45847 1.30338 0
M  V30 1643 C 152.423 -2.10973 -0.0732344 0
M  V30 1644 O 151.771 -2.00997 -1.08685 0
M  V30 1645 C 151.981 -2.48525 2.45023 0
M  V30 1646 C 153.329 -3.1404 2.8577 0
M  V30 1647 O 154.353 -2.58848 2.44696 0
M  V30 1648 O 153.212 -4.13981 3.56766 0
M  V30 1649 H 150.306 -0.649092 0.512454 0
M  V30 1650 H 152.852 -0.735836 1.52917 0
M  V30 1651 H 151.624 -1.98994 3.36923 0
M  V30 1652 H 151.247 -3.2831 2.24272 0
M  V30 1653 N 152.244 -1.26651 -0.937939 0
M  V30 1654 C 153.492 -1.12165 -1.68118 0
M  V30 1655 C 153.813 0.334983 -1.92101 0
M  V30 1656 O 153.083 1.23583 -1.52 0
M  V30 1657 H 151.663 -0.412093 -0.623048 0
M  V30 1658 H 154.325 -1.59027 -1.12678 0
M  V30 1659 H 153.421 -1.64289 -2.6536 0
M  V30 1660 N 153.722 1.14298 -1.08507 0
M  V30 1661 C 154.685 2.17607 -0.719711 0
M  V30 1662 C 155.685 1.58907 0.245997 0
M  V30 1663 O 156.875 1.74181 0.0254081 0
M  V30 1664 C 154.007 3.40842 -0.0627695 0
M  V30 1665 H 155.2 2.51443 -1.63452 0
M  V30 1666 H 152.753 1.28963 -0.88307 0
M  V30 1667 H 153.488 3.12587 0.863716 0
M  V30 1668 H 153.273 3.84713 -0.757504 0
M  V30 1669 H 154.763 4.17221 0.177786 0
M  V30 1670 N 155.201 0.870884 1.31352 0
M  V30 1671 C 156.478 0.402907 1.91405 0
M  V30 1672 C 156.858 -1.11512 1.79244 0
M  V30 1673 O 156.206 -1.94411 1.2007 0
M  V30 1674 C 156.416 0.885301 3.37585 0
M  V30 1675 C 157.764 0.911971 4.14691 0
M  V30 1676 O 158.788 0.831016 3.46371 0
M  V30 1677 O 157.647 1.02927 5.3672 0
M  V30 1678 H 154.741 0.120698 0.818145 0
M  V30 1679 H 157.287 0.958857 1.40014 0
M  V30 1680 H 156.059 1.92889 3.40455 0
M  V30 1681 H 155.682 0.307714 3.96407 0
M  V30 1682 N 156.679 -1.44442 0.630414 0
M  V30 1683 C 158.09 -1.85434 0.217063 0
M  V30 1684 C 158.441 -1.52748 -1.23136 0
M  V30 1685 O 157.566 -0.965205 -1.93682 0
M  V30 1686 C 158.161 -3.36581 0.387168 0
M  V30 1687 C 156.72 -3.76389 0.0283297 0
M  V30 1688 C 155.867 -2.68296 0.700889 0
M  V30 1689 H 158.818 -1.34919 0.83562 0
M  V30 1690 H 158.839 -3.78657 -0.374086 0
M  V30 1691 H 158.351 -3.60339 1.44144 0
M  V30 1692 H 156.452 -3.58246 -1.02423 0
M  V30 1693 H 156.565 -4.77095 0.437892 0
M  V30 1694 H 154.929 -2.54335 0.136267 0
M  V30 1695 H 155.712 -2.94887 1.75774 0
M  V30 1696 N 158.157 -0.370918 -1.53173 0
M  V30 1697 C 159.568 0.107139 -1.86392 0
M  V30 1698 C 159.919 1.47714 -1.29132 0
M  V30 1699 O 159.044 2.07464 -0.615439 0
M  V30 1700 C 159.639 0.201187 -3.38202 0
M  V30 1701 C 158.198 0.623507 -3.712 0
M  V30 1702 C 157.345 -0.225978 -2.76378 0
M  V30 1703 H 160.296 -0.58951 -1.47345 0
M  V30 1704 H 160.317 1.02377 -3.66468 0
M  V30 1705 H 159.829 -0.796058 -3.79848 0
M  V30 1706 H 157.93 1.62879 -3.35114 0
M  V30 1707 H 158.043 0.394414 -4.77474 0
M  V30 1708 H 156.407 0.305962 -2.52856 0
M  V30 1709 H 157.19 -1.22086 -3.20858 0
M  V30 1710 N 159.635 1.57281 -0.100228 0
M  V30 1711 C 161.046 1.81725 0.428107 0
M  V30 1712 C 161.397 1.01619 1.67833 0
M  V30 1713 O 160.522 0.247098 2.14985 0
M  V30 1714 C 161.117 3.29617 0.78347 0
M  V30 1715 C 159.676 3.54808 1.25653 0
M  V30 1716 C 158.823 2.76118 0.255752 0
M  V30 1717 H 161.774 1.55324 -0.325608 0
M  V30 1718 H 161.795 3.4322 1.64256 0
M  V30 1719 H 161.307 3.87893 -0.12665 0
M  V30 1720 H 159.408 3.01868 2.18418 0
M  V30 1721 H 159.521 4.63443 1.21482 0
M  V30 1722 H 157.885 2.43745 0.738956 0
M  V30 1723 H 158.668 3.37145 -0.647136 0
M  V30 1724 N 161.113 -0.173488 1.56642 0
M  V30 1725 C 162.076 -1.19859 1.95362 0
M  V30 1726 C 163.076 -1.37296 0.83704 0
M  V30 1727 O 164.266 -1.34739 1.10413 0
M  V30 1728 C 161.398 -2.56405 2.24654 0
M  V30 1729 H 162.591 -0.867062 2.87092 0
M  V30 1730 H 160.144 -0.415853 1.50666 0
M  V30 1731 H 160.879 -2.94576 1.35631 0
M  V30 1732 H 160.664 -2.45115 3.06041 0
M  V30 1733 H 162.154 -3.30287 2.5554 0
M  V30 1734 N 162.591 -1.51276 -0.441967 0
M  V30 1735 C 163.501 -1.75092 -1.56141 0
M  V30 1736 C 164.517 -0.634963 -1.62001 0
M  V30 1737 O 165.693 -0.916686 -1.79329 0
M  V30 1738 C 162.758 -1.86666 -2.92158 0
M  V30 1739 C 161.819 -3.10506 -2.96453 0
M  V30 1740 C 161.052 -3.21519 -4.25982 0
M  V30 1741 O 161.275 -2.38586 -5.18105 0
M  V30 1742 O 160.209 -4.14465 -4.36466 0
M  V30 1743 H 164.035 -2.70044 -1.38961 0
M  V30 1744 H 161.62 -1.35722 -0.624499 0
M  V30 1745 H 163.502 -1.96292 -3.72891 0
M  V30 1746 H 162.177 -0.949014 -3.09476 0
M  V30 1747 H 161.084 -3.06363 -2.14692 0
M  V30 1748 H 162.417 -4.01945 -2.84079 0
M  V30 1749 N 164.069 0.697108 -1.41344 0
M  V30 1750 C 164.979 1.84088 -1.45427 0
M  V30 1751 C 165.995 1.70545 -0.34501 0
M  V30 1752 O 167.171 1.92488 -0.592492 0
M  V30 1753 C 164.236 3.20056 -1.33286 0
M  V30 1754 C 163.297 3.45718 -2.54514 0
M  V30 1755 C 162.53 4.75199 -2.42944 0
M  V30 1756 O 162.753 5.51579 -1.45318 0
M  V30 1757 O 161.687 5.0161 -3.32672 0
M  V30 1758 H 165.513 1.836 -2.41919 0
M  V30 1759 H 163.098 0.849966 -1.22866 0
M  V30 1760 H 164.98 4.01236 -1.28794 0
M  V30 1761 H 163.655 3.2123 -0.39909 0
M  V30 1762 H 162.562 2.64474 -2.64583 0
M  V30 1763 H 163.895 3.49356 -3.46715 0
M  V30 1764 N 165.547 1.27147 0.931209 0
M  V30 1765 C 166.958 1.12044 1.49342 0
M  V30 1766 C 167.309 -0.295795 1.93957 0
M  V30 1767 O 166.434 -1.18835 1.80852 0
M  V30 1768 C 167.029 2.02781 2.71414 0
M  V30 1769 C 165.588 1.91794 3.2387 0
M  V30 1770 C 164.735 1.95543 1.96617 0
M  V30 1771 H 167.686 1.40091 0.745672 0
M  V30 1772 H 167.707 1.58156 3.46074 0
M  V30 1773 H 167.219 3.05848 2.38911 0
M  V30 1774 H 165.32 0.916992 3.6114 0
M  V30 1775 H 165.433 2.77852 3.90302 0
M  V30 1776 H 163.797 1.39722 2.12955 0
M  V30 1777 H 164.58 3.00259 1.66432 0
M  V30 1778 N 167.025 -1.13721 1.09112 0
M  V30 1779 C 167.935 -2.22638 0.73957 0
M  V30 1780 C 168.951 -1.72091 -0.257068 0
M  V30 1781 O 170.127 -2.01155 -0.0992154 0
M  V30 1782 C 167.192 -3.46322 0.16191 0
M  V30 1783 C 166.253 -4.11775 1.21408 0
M  V30 1784 C 165.486 -5.29555 0.663891 0
M  V30 1785 O 165.709 -5.68077 -0.514274 0
M  V30 1786 O 164.643 -5.84973 1.41738 0
M  V30 1787 H 168.469 -2.55074 1.64836 0
M  V30 1788 H 166.054 -1.21791 0.865289 0
M  V30 1789 H 167.936 -4.21107 -0.157073 0
M  V30 1790 H 166.611 -3.15593 -0.719932 0
M  V30 1791 H 165.518 -3.3883 1.58571 0
M  V30 1792 H 166.851 -4.46627 2.06845 0
M  V30 1793 N 168.503 -0.877838 -1.30888 0
M  V30 1794 C 169.466 -0.344265 -2.266 0
M  V30 1795 C 170.466 0.50922 -1.52524 0
M  V30 1796 O 171.656 0.317398 -1.71284 0
M  V30 1797 C 168.788 0.510198 -3.37061 0
M  V30 1798 H 169.981 -1.1893 -2.7531 0
M  V30 1799 H 167.534 -0.654088 -1.41956 0
M  V30 1800 H 168.269 1.37612 -2.93655 0
M  V30 1801 H 168.054 -0.101047 -3.9197 0
M  V30 1802 H 169.544 0.875537 -4.08319 0
M  V30 1803 N 169.982 1.44106 -0.638065 0
M  V30 1804 C 171.398 1.56672 -0.304286 0
M  V30 1805 C 171.598 1.6244 1.19228 0
M  V30 1806 O 170.654 1.57121 1.9766 0
M  V30 1807 C 171.967 2.83503 -1.00231 0
M  V30 1808 C 173.515 2.97226 -0.981116 0
M  V30 1809 C 173.99 4.26868 -1.65974 0
M  V30 1810 N 175.481 4.33698 -1.62666 0
M  V30 1811 C 176.216 5.32745 -2.12063 0
M  V30 1812 N 175.712 6.38157 -2.6968 0
M  V30 1813 N 177.505 5.24299 -2.02651 0
M  V30 1814 H 169.656 1.38605 -1.60942 0
M  V30 1815 H 171.919 0.664661 -0.675965 0
M  V30 1816 H 171.625 2.85251 -2.0573 0
M  V30 1817 H 171.499 3.73251 -0.54439 0
M  V30 1818 H 173.886 2.95027 0.0654188 0
M  V30 1819 H 173.967 2.08808 -1.47759 0
M  V30 1820 H 173.611 4.29826 -2.70576 0
M  V30 1821 H 173.541 5.14156 -1.13804 0
M  V30 1822 H 176.032 3.58138 -1.20606 0
M  V30 1823 H 176.345 7.10029 -3.05087 0
M  V30 1824 H 174.69 6.38823 -2.73734 0
M  V30 1825 H 177.881 4.4086 -1.57353 0
M  V30 1826 H 178.054 6.01334 -2.41457 0
M  V30 1827 N 171.46 0.379036 1.52974 0
M  V30 1828 C 172.871 -0.0972525 1.86447 0
M  V30 1829 C 173.222 -1.47027 1.29914 0
M  V30 1830 O 172.347 -2.07135 0.626433 0
M  V30 1831 C 172.942 -0.183248 3.38304 0
M  V30 1832 C 171.501 -0.603812 3.71525 0
M  V30 1833 C 170.648 0.240632 2.76254 0
M  V30 1834 H 173.599 0.597316 1.4703 0
M  V30 1835 H 173.62 -1.00432 3.67006 0
M  V30 1836 H 173.132 0.816191 3.79421 0
M  V30 1837 H 171.233 -1.61099 3.35973 0
M  V30 1838 H 171.346 -0.369086 4.77676 0
M  V30 1839 H 169.71 -0.292548 2.53014 0
M  V30 1840 H 170.493 1.23786 3.20206 0
M  V30 1841 N 172.938 -1.57226 0.108567 0
M  V30 1842 C 174.215 -1.86333 -0.594939 0
M  V30 1843 C 174.595 -1.00788 -1.85486 0
M  V30 1844 O 173.943 -0.0839293 -2.28346 0
M  V30 1845 C 174.153 -3.37265 -0.897405 0
M  V30 1846 C 175.501 -4.05629 -1.25501 0
M  V30 1847 O 176.525 -3.42224 -0.987998 0
M  V30 1848 O 175.384 -5.17531 -1.75567 0
M  V30 1849 H 172.478 -0.771018 -0.2991 0
M  V30 1850 H 175.024 -1.69102 0.142283 0
M  V30 1851 H 173.796 -3.913 -0.00413806 0
M  V30 1852 H 173.419 -3.59889 -1.69014 0
M  V30 1853 N 174.416 0.165178 -1.56732 0
M  V30 1854 C 175.664 0.879068 -1.8198 0
M  V30 1855 C 175.985 1.82514 -0.686561 0
M  V30 1856 O 175.255 1.93694 0.293146 0
M  V30 1857 H 173.835 0.327608 -0.671329 0
M  V30 1858 H 176.497 0.163526 -1.94213 0
M  V30 1859 H 175.593 1.45228 -2.76252 0
M  V30 1860 N 175.894 1.51508 0.433938 0
M  V30 1861 C 176.804 1.75917 1.5521 0
M  V30 1862 C 177.82 0.643545 1.61662 0
M  V30 1863 O 178.996 0.926183 1.7884 0
M  V30 1864 C 176.061 1.88213 2.91164 0
M  V30 1865 C 175.122 3.12074 2.94802 0
M  V30 1866 C 174.355 3.23774 4.24271 0
M  V30 1867 O 174.578 2.4133 5.16833 0
M  V30 1868 O 173.512 4.16774 4.34262 0
M  V30 1869 H 177.338 2.70777 1.37527 0
M  V30 1870 H 174.923 1.36051 0.617293 0
M  V30 1871 H 176.805 1.98267 3.71845 0
M  V30 1872 H 175.48 0.965413 3.08968 0
M  V30 1873 H 174.387 3.07497 2.13065 0
M  V30 1874 H 175.72 4.03446 2.81943 0
M  V30 1875 N 177.372 -0.689602 1.41712 0
M  V30 1876 C 178.62 -1.4468 1.4111 0
M  V30 1877 C 178.941 -1.94986 0.0232196 0
M  V30 1878 O 178.211 -1.72097 -0.935913 0
M  V30 1879 H 176.791 -0.536847 0.519427 0
M  V30 1880 H 179.453 -0.815825 1.77004 0
M  V30 1881 H 178.549 -2.30706 2.10193 0
M  V30 1882 N 178.85 -1.27639 -0.924453 0
M  V30 1883 C 180.075 -1.17101 -1.71179 0
M  V30 1884 C 180.5 0.268134 -1.86179 0
M  V30 1885 O 179.858 1.19415 -1.36418 0
M  V30 1886 C 179.906 -1.86313 -3.08739 0
M  V30 1887 O 179.01 -1.16331 -3.95652 0
M  V30 1888 H 178.351 -0.407091 -0.524569 0
M  V30 1889 H 180.881 -1.68767 -1.15666 0
M  V30 1890 H 180.891 -1.938 -3.59034 0
M  V30 1891 H 179.566 -2.91001 -2.97138 0
M  V30 1892 H 178.143 -1.16935 -3.54091 0
M  V30 1893 N 180.328 1.1314 -1.09713 0
M  V30 1894 C 181.739 1.66029 -0.853885 0
M  V30 1895 C 182.09 1.86241 0.617142 0
M  V30 1896 O 181.215 1.5834 1.47503 0
M  V30 1897 C 181.81 3.01599 -1.5435 0
M  V30 1898 C 180.369 3.51467 -1.34714 0
M  V30 1899 C 179.516 2.26648 -1.59769 0
M  V30 1900 H 182.467 0.970226 -1.25588 0
M  V30 1901 H 182.488 3.67709 -0.978267 0
M  V30 1902 H 182 2.86856 -2.6141 0
M  V30 1903 H 180.101 3.71408 -0.297838 0
M  V30 1904 H 180.214 4.314 -2.08401 0
M  V30 1905 H 178.578 2.33385 -1.01998 0
M  V30 1906 H 179.361 2.14467 -2.68065 0
M  V30 1907 N 181.806 0.884767 1.30421 0
M  V30 1908 C 183.054 0.502112 1.95763 0
M  V30 1909 C 183.375 -0.951815 1.70192 0
M  V30 1910 O 182.645 -1.6692 1.0254 0
M  V30 1911 H 181.225 0.182694 0.724315 0
M  V30 1912 H 183.887 1.1278 1.58955 0
M  V30 1913 H 182.983 0.672188 3.04775 0
M  V30 1914 N 183.284 -1.43765 0.645699 0
M  V30 1915 C 184.231 -2.30745 -0.0504648 0
M  V30 1916 C 185.201 -1.4432 -0.822241 0
M  V30 1917 O 186.386 -1.73202 -0.800358 0
M  V30 1918 C 183.526 -3.29802 -1.0161 0
M  V30 1919 C 182.639 -4.31326 -0.241219 0
M  V30 1920 C 181.774 -5.17469 -1.19998 0
M  V30 1921 C 180.813 -6.10691 -0.415094 0
M  V30 1922 N 179.95 -6.89483 -1.32506 0
M  V30 1923 H 184.79 -2.8973 0.697155 0
M  V30 1924 H 182.327 -1.42738 0.355563 0
M  V30 1925 H 184.285 -3.85734 -1.58949 0
M  V30 1926 H 182.915 -2.72483 -1.73069 0
M  V30 1927 H 181.967 -3.77749 0.448334 0
M  V30 1928 H 183.279 -4.9743 0.369437 0
M  V30 1929 H 182.433 -5.7799 -1.84424 0
M  V30 1930 H 181.172 -4.51473 -1.84455 0
M  V30 1931 H 180.177 -5.49265 0.242565 0
M  V30 1932 H 181.402 -6.78727 0.224966 0
M  V30 1933 H 179.348 -6.26142 -1.95657 0
M  V30 1934 H 179.265 -7.52081 -0.768783 0
M  V30 1935 H 180.533 -7.54516 -1.9577 0
M  V30 1936 N 184.763 -0.387143 -1.52771 0
M  V30 1937 C 185.726 0.436939 -2.24997 0
M  V30 1938 C 186.726 0.991991 -1.26555 0
M  V30 1939 O 187.916 0.874335 -1.50669 0
M  V30 1940 C 185.048 1.61281 -3.00335 0
M  V30 1941 H 186.241 -0.195365 -2.99263 0
M  V30 1942 H 183.794 -0.139218 -1.55679 0
M  V30 1943 H 184.529 2.2826 -2.30364 0
M  V30 1944 H 184.314 1.22154 -3.72587 0
M  V30 1945 H 185.804 2.19629 -3.5518 0
M  V30 1946 N 186.241 1.57166 -0.116904 0
M  V30 1947 C 187.657 1.5779 0.239693 0
M  V30 1948 C 187.857 1.1295 1.66867 0
M  V30 1949 O 186.913 0.81592 2.38954 0
M  V30 1950 C 188.226 3.00699 0.00828202 0
M  V30 1951 C 189.774 3.12912 0.0743438 0
M  V30 1952 C 190.249 4.57817 -0.129348 0
M  V30 1953 N 191.74 4.63139 -0.075247 0
M  V30 1954 C 192.475 5.73023 -0.207788 0
M  V30 1955 N 191.971 6.91665 -0.396382 0
M  V30 1956 N 193.764 5.61906 -0.14751 0
M  V30 1957 H 185.915 1.84615 -1.05029 0
M  V30 1958 H 188.178 0.85311 -0.41341 0
M  V30 1959 H 187.884 3.37784 -0.979531 0
M  V30 1960 H 187.758 3.69848 0.741077 0
M  V30 1961 H 190.145 2.75686 1.05268 0
M  V30 1962 H 190.226 2.4631 -0.690297 0
M  V30 1963 H 189.87 4.95742 -1.10465 0
M  V30 1964 H 189.8 5.22507 0.655253 0
M  V30 1965 H 192.291 3.7784 0.0670898 0
M  V30 1966 H 192.604 7.71255 -0.488437 0
M  V30 1967 H 190.949 6.93654 -0.432329 0
M  V30 1968 H 194.14 4.681 -0.00115036 0
M  V30 1969 H 194.313 6.47501 -0.254247 0
M  V30 1970 N 187.719 -0.156864 1.56817 0
M  V30 1971 C 189.13 -0.717916 1.72345 0
M  V30 1972 C 189.481 -1.82124 0.729747 0
M  V30 1973 O 188.606 -2.16141 -0.105781 0
M  V30 1974 C 189.201 -1.30904 3.12489 0
M  V30 1975 C 187.76 -1.81676 3.29653 0
M  V30 1976 C 186.907 -0.701349 2.68284 0
M  V30 1977 H 189.858 0.0686989 1.58551 0
M  V30 1978 H 189.879 -2.17882 3.11942 0
M  V30 1979 H 189.391 -0.505796 3.8479 0
M  V30 1980 H 187.492 -2.64598 2.62333 0
M  V30 1981 H 187.605 -1.95226 4.3752 0
M  V30 1982 H 185.969 -1.12548 2.28484 0
M  V30 1983 H 186.752 0.0902846 3.43181 0
M  V30 1984 N 189.197 -1.51736 -0.425897 0
M  V30 1985 C 190.445 -1.64644 -1.17204 0
M  V30 1986 C 190.766 -0.370486 -1.91448 0
M  V30 1987 O 190.036 0.614088 -1.86026 0
M  V30 1988 H 188.616 -0.606819 -0.435638 0
M  V30 1989 H 191.278 -1.88713 -0.487177 0
M  V30 1990 H 190.374 -2.47958 -1.89534 0
M  V30 1991 N 190.675 0.682077 -1.42076 0
M  V30 1992 C 191.903 1.47057 -1.4554 0
M  V30 1993 C 192.318 1.8869 -0.0645779 0
M  V30 1994 O 191.675 1.57666 0.919115 0
M  V30 1995 C 191.726 2.72442 -2.37609 0
M  V30 1996 O 191.447 2.32559 -3.71279 0
M  V30 1997 C 192.948 3.66069 -2.50017 0
M  V30 1998 H 190.168 0.452737 -0.495248 0
M  V30 1999 H 192.712 0.838695 -1.8651 0
M  V30 2000 H 190.867 3.31835 -1.9991 0
M  V30 2001 H 191.281 3.13475 -4.20516 0
M  V30 2002 H 192.755 4.50792 -3.18576 0
M  V30 2003 H 193.232 4.11476 -1.53572 0
M  V30 2004 H 193.838 3.12572 -2.88407 0
M  V30 2005 N 192.153 1.28127 0.917671 0
M  V30 2006 C 193.116 1.11744 2.00115 0
M  V30 2007 C 194.116 0.0583052 1.60694 0
M  V30 2008 O 195.306 0.303755 1.71531 0
M  V30 2009 C 192.438 0.704862 3.33533 0
M  V30 2010 H 193.631 2.07966 2.16079 0
M  V30 2011 H 191.184 1.11058 1.09981 0
M  V30 2012 H 191.919 -0.258299 3.2327 0
M  V30 2013 H 191.704 1.4699 3.63505 0
M  V30 2014 H 193.194 0.612768 4.1308 0
M  V30 2015 N 193.631 -1.12557 1.10312 0
M  V30 2016 C 195.047 -1.36036 0.834649 0
M  V30 2017 C 195.247 -1.93946 -0.546539 0
M  V30 2018 O 194.303 -2.16484 -1.29966 0
M  V30 2019 C 195.616 -2.30312 1.9333 0
M  V30 2020 C 197.164 -2.43906 1.9616 0
M  V30 2021 C 197.639 -3.41496 3.05195 0
M  V30 2022 N 199.13 -3.49053 3.04494 0
M  V30 2023 C 199.865 -4.24471 3.85502 0
M  V30 2024 N 199.361 -5.02966 4.76442 0
M  V30 2025 N 201.154 -4.19864 3.73725 0
M  V30 2026 H 193.305 -0.733246 1.99342 0
M  V30 2027 H 195.568 -0.385234 0.866198 0
M  V30 2028 H 195.274 -1.94933 2.92735 0
M  V30 2029 H 195.148 -3.30421 1.81939 0
M  V30 2030 H 197.535 -2.78567 0.973886 0
M  V30 2031 H 197.616 -1.4369 2.11629 0
M  V30 2032 H 197.26 -3.07565 4.04186 0
M  V30 2033 H 197.19 -4.41539 2.86968 0
M  V30 2034 H 199.681 -2.93053 2.38596 0
M  V30 2035 H 199.994 -5.57846 5.34815 0
M  V30 2036 H 198.339 -5.02167 4.80472 0
M  V30 2037 H 201.53 -3.57623 3.02032 0
M  V30 2038 H 201.703 -4.78386 4.37093 0
M  V30 2039 N 195.109 -0.891671 -1.2995 0
M  V30 2040 C 196.525 -0.58662 -1.48428 0
M  V30 2041 C 196.725 0.873951 -1.81561 0
M  V30 2042 O 195.781 1.65471 -1.90724 0
M  V30 2043 C 197.094 -1.50553 -2.60296 0
M  V30 2044 C 198.642 -1.50988 -2.74175 0
M  V30 2045 C 199.117 -2.41488 -3.89163 0
M  V30 2046 N 200.608 -2.39489 -3.96483 0
M  V30 2047 C 201.343 -3.06223 -4.84784 0
M  V30 2048 N 200.839 -3.82206 -5.77833 0
M  V30 2049 N 202.632 -2.95421 -4.78208 0
M  V30 2050 H 194.783 -1.83644 -1.06718 0
M  V30 2051 H 197.046 -0.786455 -0.529332 0
M  V30 2052 H 196.752 -2.54581 -2.42654 0
M  V30 2053 H 196.626 -1.22008 -3.56923 0
M  V30 2054 H 199.013 -0.47708 -2.91218 0
M  V30 2055 H 199.094 -1.83567 -1.78148 0
M  V30 2056 H 198.738 -3.44857 -3.72876 0
M  V30 2057 H 198.668 -2.06222 -4.84541 0
M  V30 2058 H 201.159 -1.84278 -3.29924 0
M  V30 2059 H 201.472 -4.302 -6.41988 0
M  V30 2060 H 199.817 -3.86313 -5.77743 0
M  V30 2061 H 203.008 -2.35581 -4.04499 0
M  V30 2062 H 203.181 -3.47704 -5.46814 0
M  V30 2063 N 196.587 1.43421 -0.653314 0
M  V30 2064 C 197.998 1.85065 -0.246537 0
M  V30 2065 C 198.349 1.54688 1.2069 0
M  V30 2066 O 197.474 0.995896 1.92122 0
M  V30 2067 C 198.069 3.35922 -0.440666 0
M  V30 2068 C 196.628 3.76297 -0.0882064 0
M  V30 2069 C 195.775 2.67147 -0.743484 0
M  V30 2070 H 198.726 1.33572 -0.856979 0
M  V30 2071 H 198.747 3.79204 0.313798 0
M  V30 2072 H 198.259 3.58 -1.49858 0
M  V30 2073 H 196.36 3.5983 0.96711 0
M  V30 2074 H 196.473 4.76338 -0.513738 0
M  V30 2075 H 194.837 2.54086 -0.176712 0
M  V30 2076 H 195.62 2.92053 -1.80443 0
M  V30 2077 N 198.065 0.39524 1.52563 0
M  V30 2078 C 199.313 -0.184678 2.01254 0
M  V30 2079 C 199.634 -1.46822 1.28329 0
M  V30 2080 O 198.904 -1.91666 0.405094 0
M  V30 2081 H 197.484 -0.0712355 0.743596 0
M  V30 2082 H 200.146 0.528293 1.87603 0
M  V30 2083 H 199.242 -0.390681 3.09645 0
M  V30 2084 N 199.544 -1.57102 0.125237 0
M  V30 2085 C 200.507 -2.14471 -0.80838 0
M  V30 2086 C 201.507 -1.0811 -1.19033 0
M  V30 2087 O 202.697 -1.33856 -1.11482 0
M  V30 2088 C 199.829 -2.69005 -2.09402 0
M  V30 2089 H 201.022 -2.98297 -0.309696 0
M  V30 2090 H 198.575 -1.55807 -0.124051 0
M  V30 2091 H 199.31 -1.88785 -2.63687 0
M  V30 2092 H 199.095 -3.46799 -1.82957 0
M  V30 2093 H 200.585 -3.13278 -2.76128 0
M  V30 2094 N 201.022 0.148545 -1.56898 0
M  V30 2095 C 201.985 1.16736 -1.97244 0
M  V30 2096 C 202.985 1.35947 -0.858777 0
M  V30 2097 O 204.175 1.32966 -1.12542 0
M  V30 2098 C 201.307 2.52798 -2.28705 0
M  V30 2099 H 202.5 0.821279 -2.88435 0
M  V30 2100 H 200.053 0.391831 -1.51309 0
M  V30 2101 H 200.788 2.92381 -1.403 0
M  V30 2102 H 200.573 2.40216 -3.09901 0
M  V30 2103 H 202.063 3.26179 -2.60762 0
M  V30 2104 N 202.5 1.5196 0.417844 0
M  V30 2105 C 203.463 1.74065 1.49111 0
M  V30 2106 C 204.463 0.610537 1.48758 0
M  V30 2107 O 205.653 0.87832 1.50437 0
M  V30 2108 C 202.785 1.81502 2.88565 0
M  V30 2109 H 203.978 2.69869 1.30807 0
M  V30 2110 H 201.531 1.42244 0.647785 0
M  V30 2111 H 202.266 0.875813 3.1225 0
M  V30 2112 H 202.051 2.63651 2.90225 0
M  V30 2113 H 203.541 2.00376 3.66387 0
M  V30 2114 N 203.978 -0.674533 1.42435 0
M  V30 2115 C 205.203 -1.46784 1.46524 0
M  V30 2116 C 205.628 -1.87938 0.078066 0
M  V30 2117 O 204.986 -1.56014 -0.92354 0
M  V30 2118 C 205.034 -2.69307 2.39805 0
M  V30 2119 O 204.138 -3.67587 1.86959 0
M  V30 2120 H 203.479 -0.440959 0.496439 0
M  V30 2121 H 206.009 -0.827326 1.87127 0
M  V30 2122 H 206.019 -3.17374 2.56393 0
M  V30 2123 H 204.694 -2.38692 3.40586 0
M  V30 2124 H 203.271 -3.2662 1.79927 0
M  V30 2125 N 205.456 -1.28612 -0.910864 0
M  V30 2126 C 206.704 -1.15705 -1.65701 0
M  V30 2127 C 207.025 0.29416 -1.92769 0
M  V30 2128 O 206.295 1.20331 -1.54588 0
M  V30 2129 H 204.875 -0.425216 -0.614167 0
M  V30 2130 H 207.537 -1.61381 -1.0928 0
M  V30 2131 H 206.633 -1.6988 -2.61815 0
M  V30 2132 N 206.934 1.1197 -1.10907 0
M  V30 2133 C 207.844 2.21433 -0.774896 0
M  V30 2134 C 208.86 1.72478 0.229657 0
M  V30 2135 O 210.036 2.01288 0.0672008 0
M  V30 2136 C 207.101 3.4602 -0.216986 0
M  V30 2137 C 206.162 4.09791 -1.27944 0
M  V30 2138 C 205.395 5.28431 -0.748055 0
M  V30 2139 O 205.618 5.68823 0.423833 0
M  V30 2140 O 204.552 5.82644 -1.51027 0
M  V30 2141 H 208.378 2.5242 -1.68873 0
M  V30 2142 H 205.963 1.20399 -0.884555 0
M  V30 2143 H 207.845 4.21304 0.090059 0
M  V30 2144 H 206.52 3.16698 0.669633 0
M  V30 2145 H 205.427 3.36265 -1.63941 0
M  V30 2146 H 206.76 4.4328 -2.13925 0
M  V30 2147 N 208.412 0.89855 1.29475 0
M  V30 2148 C 209.828 0.594483 1.48115 0
M  V30 2149 C 210.028 -0.86431 1.82022 0
M  V30 2150 O 209.084 -1.64457 1.91599 0
M  V30 2151 C 210.397 1.51932 2.59494 0
M  V30 2152 C 211.945 1.5244 2.7337 0
M  V30 2153 C 212.42 2.43548 3.87877 0
M  V30 2154 N 213.911 2.41589 3.95208 0
M  V30 2155 C 214.646 3.08789 4.83153 0
M  V30 2156 N 214.142 3.85265 5.75798 0
M  V30 2157 N 215.935 2.97952 4.76635 0
M  V30 2158 H 208.086 1.84207 1.05742 0
M  V30 2159 H 210.349 0.789251 0.525154 0
M  V30 2160 H 210.055 2.55865 2.41301 0
M  V30 2161 H 209.929 1.23899 3.56271 0
M  V30 2162 H 212.316 0.492518 2.90961 0
M  V30 2163 H 212.397 1.8451 1.77172 0
M  V30 2164 H 212.041 3.46829 3.71041 0
M  V30 2165 H 211.971 2.08788 4.83441 0
M  V30 2166 H 214.462 1.86025 3.28943 0
M  V30 2167 H 214.775 4.33598 6.39697 0
M  V30 2168 H 213.12 3.89371 5.75687 0
M  V30 2169 H 216.311 2.37723 4.03244 0
M  V30 2170 H 216.484 3.50599 5.44962 0
M  V30 2171 N 209.89 -1.43072 0.660911 0
M  V30 2172 C 211.167 -1.95307 0.107017 0
M  V30 2173 C 211.547 -1.60192 -1.37484 0
M  V30 2174 O 210.895 -0.890949 -2.10415 0
M  V30 2175 C 211.105 -3.47124 0.361402 0
M  V30 2176 C 212.453 -4.23738 0.270455 0
M  V30 2177 O 213.477 -3.54981 0.294382 0
M  V30 2178 O 212.336 -5.46131 0.200737 0
M  V30 2179 H 209.43 -0.826984 -0.00517729 0
M  V30 2180 H 211.976 -1.52972 0.734681 0
M  V30 2181 H 210.748 -3.65837 1.38848 0
M  V30 2182 H 210.371 -3.96475 -0.298953 0
M  V30 2183 N 211.368 -0.403325 -1.52352 0
M  V30 2184 C 212.645 0.232611 -1.94212 0
M  V30 2185 C 213.025 1.63133 -1.33981 0
M  V30 2186 O 212.373 2.22659 -0.513344 0
M  V30 2187 C 212.583 0.244811 -3.4814 0
M  V30 2188 C 213.931 0.46698 -4.22024 0
M  V30 2189 O 214.955 0.324419 -3.5472 0
M  V30 2190 O 213.814 0.74747 -5.41364 0
M  V30 2191 H 210.908 0.148223 -0.813609 0
M  V30 2192 H 213.454 -0.458848 -1.63379 0
M  V30 2193 H 212.226 -0.734378 -3.84347 0
M  V30 2194 H 211.849 0.980611 -3.85318 0
M  V30 2195 N 212.846 1.57033 -0.133567 0
M  V30 2196 C 214.262 1.58035 0.222944 0
M  V30 2197 C 214.462 1.14713 1.6566 0
M  V30 2198 O 213.518 0.841218 2.38075 0
M  V30 2199 C 214.831 3.00691 -0.0236116 0
M  V30 2200 C 216.379 3.12973 0.0411512 0
M  V30 2201 C 216.854 4.57654 -0.177899 0
M  V30 2202 N 218.345 4.63033 -0.124365 0
M  V30 2203 C 219.08 5.72771 -0.268553 0
M  V30 2204 N 218.576 6.91206 -0.46972 0
M  V30 2205 N 220.369 5.61718 -0.2071 0
M  V30 2206 H 212.52 1.8349 -1.06981 0
M  V30 2207 H 214.783 0.848677 -0.422436 0
M  V30 2208 H 214.489 3.36726 -1.0153 0
M  V30 2209 H 214.363 3.70614 0.701808 0
M  V30 2210 H 216.75 2.76787 1.02338 0
M  V30 2211 H 216.831 2.45564 -0.716383 0
M  V30 2212 H 216.475 4.94542 -1.15717 0
M  V30 2213 H 216.405 5.23173 0.599797 0
M  V30 2214 H 218.896 3.7789 0.027011 0
M  V30 2215 H 219.209 7.70693 -0.570212 0
M  V30 2216 H 217.554 6.93156 -0.505876 0
M  V30 2217 H 220.745 4.68072 -0.0507986 0
M  V30 2218 H 220.918 6.47195 -0.322909 0
M  V30 2219 N 214.325 -0.140222 1.56975 0
M  V30 2220 C 215.573 -0.850005 1.83356 0
M  V30 2221 C 215.894 -1.81399 0.71551 0
M  V30 2222 O 215.164 -1.94136 -0.262294 0
M  V30 2223 H 213.744 -0.316886 0.676456 0
M  V30 2224 H 216.406 -0.132608 1.94448 0
M  V30 2225 H 215.502 -1.40814 2.78528 0
M  V30 2226 N 215.803 -1.52179 -0.40978 0
M  V30 2227 C 217.214 -1.58377 -0.988615 0
M  V30 2228 C 217.565 -0.423879 -1.91566 0
M  V30 2229 O 216.69 0.455844 -2.11544 0
M  V30 2230 C 217.285 -2.87044 -1.79976 0
M  V30 2231 C 215.844 -2.95722 -2.32863 0
M  V30 2232 C 214.991 -2.53309 -1.12828 0
M  V30 2233 H 217.942 -1.57558 -0.190039 0
M  V30 2234 H 217.963 -2.7236 -2.65707 0
M  V30 2235 H 217.475 -3.71444 -1.12478 0
M  V30 2236 H 215.576 -2.15814 -3.03735 0
M  V30 2237 H 215.689 -3.99951 -2.63773 0
M  V30 2238 H 214.053 -2.07142 -1.48204 0
M  V30 2239 H 214.836 -3.40082 -0.46897 0
M  V30 2240 N 217.281 0.66697 -1.42791 0
M  V30 2241 C 218.692 1.2478 -1.38877 0
M  V30 2242 C 219.043 1.96012 -0.0859426 0
M  V30 2243 O 218.168 2.00463 0.815081 0
M  V30 2244 C 218.763 2.26938 -2.51564 0
M  V30 2245 C 217.322 2.80529 -2.50959 0
M  V30 2246 C 216.469 1.54965 -2.29959 0
M  V30 2247 H 219.42 0.459853 -1.51892 0
M  V30 2248 H 219.441 3.08834 -2.22265 0
M  V30 2249 H 218.953 1.75065 -3.46372 0
M  V30 2250 H 217.054 3.36502 -1.59991 0
M  V30 2251 H 217.167 3.29012 -3.48265 0
M  V30 2252 H 215.531 1.81817 -1.78366 0
M  V30 2253 H 216.314 1.05047 -3.26833 0
M  V30 2254 N 218.759 1.29093 0.90403 0
M  V30 2255 C 219.722 1.1386 1.98919 0
M  V30 2256 C 220.722 0.0753457 1.60623 0
M  V30 2257 O 221.912 0.321931 1.71199 0
M  V30 2258 C 219.044 0.740198 3.32767 0
M  V30 2259 H 220.237 2.10246 2.13861 0
M  V30 2260 H 217.79 1.12218 1.08797 0
M  V30 2261 H 218.525 -0.223997 3.23525 0
M  V30 2262 H 218.31 1.50838 3.61926 0
M  V30 2263 H 219.8 0.656546 4.12407 0
M  V30 2264 N 220.237 -1.11381 1.11499 0
M  V30 2265 C 221.462 -1.87475 0.887019 0
M  V30 2266 C 221.887 -1.79639 -0.557796 0
M  V30 2267 O 221.245 -1.15924 -1.39396 0
M  V30 2268 C 221.293 -3.34213 1.35403 0
M  V30 2269 O 220.397 -4.0903 0.526146 0
M  V30 2270 H 219.738 -0.582099 0.319463 0
M  V30 2271 H 222.268 -1.40785 1.48461 0
M  V30 2272 H 222.278 -3.8506 1.34881 0
M  V30 2273 H 220.953 -3.39232 2.40612 0
M  V30 2274 H 219.53 -3.68082 0.597522 0
M  V30 2275 N 221.715 -0.905404 -1.28997 0
M  V30 2276 C 222.961 -0.535039 -1.95615 0
M  V30 2277 C 223.294 0.917404 -1.71165 0
M  V30 2278 O 222.569 1.65123 -1.02785 0
M  V30 2279 C 222.852 -0.834918 -3.50287 0
M  V30 2280 C 222.705 -2.33948 -3.84172 0
M  V30 2281 C 224.024 -0.325318 -4.38896 0
M  V30 2282 H 221.143 -0.195861 -0.710498 0
M  V30 2283 H 223.785 -1.13313 -1.52513 0
M  V30 2284 H 221.935 -0.325904 -3.87131 0
M  V30 2285 H 223.607 -2.91847 -3.57243 0
M  V30 2286 H 221.85 -2.79789 -3.31513 0
M  V30 2287 H 222.521 -2.49987 -4.92149 0
M  V30 2288 H 224.997 -0.761256 -4.09077 0
M  V30 2289 H 223.873 -0.564295 -5.45992 0
M  V30 2290 H 224.134 0.774144 -4.35269 0
M  V30 2291 N 223.193 1.4272 -0.668489 0
M  V30 2292 C 224.156 2.292 0.00448567 0
M  V30 2293 C 225.156 1.43001 0.735339 0
M  V30 2294 O 226.346 1.64461 0.57429 0
M  V30 2295 C 223.478 3.25375 1.01705 0
M  V30 2296 H 224.671 2.90199 -0.756608 0
M  V30 2297 H 222.224 1.50254 -0.430506 0
M  V30 2298 H 222.959 2.69301 1.80686 0
M  V30 2299 H 222.744 3.88944 0.496463 0
M  V30 2300 H 224.234 3.90245 1.48655 0
M  V30 2301 N 224.671 0.411399 1.52136 0
M  V30 2302 C 225.634 -0.401089 2.25663 0
M  V30 2303 C 226.634 -0.971732 1.28117 0
M  V30 2304 O 227.824 -0.850254 1.52041 0
M  V30 2305 C 224.956 -1.56483 3.02863 0
M  V30 2306 H 226.149 0.24295 2.98914 0
M  V30 2307 H 223.702 0.163968 1.55438 0
M  V30 2308 H 224.437 -2.24567 2.33967 0
M  V30 2309 H 224.222 -1.16211 3.74483 0
M  V30 2310 H 225.712 -2.13951 3.58629 0
M  V30 2311 N 226.149 -1.5696 0.141893 0
M  V30 2312 C 227.079 -2.19516 -0.795936 0
M  V30 2313 C 228.06 -1.14187 -1.26077 0
M  V30 2314 O 229.245 -1.42511 -1.31925 0
M  V30 2315 C 226.375 -2.81272 -2.03723 0
M  V30 2316 C 225.329 -3.92384 -1.70936 0
M  V30 2317 C 224.655 -4.41052 -3.02287 0
M  V30 2318 C 225.955 -5.13403 -0.959954 0
M  V30 2319 H 227.649 -2.98138 -0.274596 0
M  V30 2320 H 225.195 -1.43406 -0.130636 0
M  V30 2321 H 227.148 -3.237 -2.69808 0
M  V30 2322 H 225.872 -1.99973 -2.58221 0
M  V30 2323 H 224.531 -3.50566 -1.07232 0
M  V30 2324 H 224.179 -3.56582 -3.54765 0
M  V30 2325 H 223.879 -5.15993 -2.81114 0
M  V30 2326 H 225.403 -4.86146 -3.69451 0
M  V30 2327 H 226.817 -5.52706 -1.52279 0
M  V30 2328 H 225.214 -5.94073 -0.848357 0
M  V30 2329 H 226.284 -4.84875 0.0492434 0
M  V30 2330 N 227.627 0.131896 -1.57047 0
M  V30 2331 C 229.043 0.485031 -1.52051 0
M  V30 2332 C 229.243 1.82563 -0.85281 0
M  V30 2333 O 228.299 2.48817 -0.429694 0
M  V30 2334 C 229.612 0.481409 -2.96821 0
M  V30 2335 C 231.16 0.565868 -3.07842 0
M  V30 2336 C 231.635 0.592762 -4.54148 0
M  V30 2337 N 233.126 0.654564 -4.58552 0
M  V30 2338 C 233.861 0.696608 -5.69153 0
M  V30 2339 N 233.357 0.697078 -6.89284 0
M  V30 2340 N 235.15 0.738639 -5.57226 0
M  V30 2341 H 227.301 -0.746664 -1.98843 0
M  V30 2342 H 229.564 -0.273999 -0.90754 0
M  V30 2343 H 229.27 -0.435731 -3.4899 0
M  V30 2344 H 229.144 1.3139 -3.53577 0
M  V30 2345 H 231.531 1.47343 -2.55684 0
M  V30 2346 H 231.612 -0.29406 -2.54104 0
M  V30 2347 H 231.256 -0.310701 -5.06949 0
M  V30 2348 H 231.186 1.46939 -5.05684 0
M  V30 2349 H 233.677 0.660887 -3.72076 0
M  V30 2350 H 233.99 0.731426 -7.69331 0
M  V30 2351 H 232.335 0.66471 -6.91814 0
M  V30 2352 H 235.526 0.735545 -4.62285 0
M  V30 2353 H 235.699 0.767938 -6.43434 0
M  V30 2354 N 229.106 1.52395 0.401703 0
M  V30 2355 C 230.331 1.70972 1.17403 0
M  V30 2356 C 230.756 0.421615 1.83314 0
M  V30 2357 O 230.114 -0.621564 1.70312 0
M  V30 2358 C 230.162 2.85151 2.20728 0
M  V30 2359 O 229.266 2.51238 3.27037 0
M  V30 2360 H 228.607 0.568927 0.342372 0
M  V30 2361 H 231.137 1.99131 0.469891 0
M  V30 2362 H 231.147 3.10279 2.64936 0
M  V30 2363 H 229.822 3.78603 1.7214 0
M  V30 2364 H 228.399 2.36808 2.88057 0
M  V30 2365 N 230.584 -0.659388 1.43143 0
M  V30 2366 C 231.532 -1.79374 1.4808 0
M  V30 2367 C 232.526 -1.65639 0.354988 0
M  V30 2368 O 233.732 -1.7206 0.528704 0
M  V30 2369 H 230.107 -0.591705 0.4641 0
M  V30 2370 H 232.078 -1.72329 2.43609 0
M  V30 2371 C 230.827 -3.17606 1.41499 0
M  V30 2372 H 230.15 -3.28809 2.27431 0
M  V30 2373 H 231.59 -3.96951 1.49015 0
M  V30 2374 C 230.049 -3.36642 0.131765 0
M  V30 2375 O 230.579 -3.93461 -0.809386 0
M  V30 2376 N 228.785 -2.90567 0.0439396 0
M  V30 2377 H 228.332 -2.44513 0.810619 0
M  V30 2378 H 228.29 -3.03681 -0.813969 0
M  V30 2379 N 232.062 -1.29571 -0.897171 0
M  V30 2380 C 233.309 -1.17689 -1.6479 0
M  V30 2381 C 233.637 0.27107 -1.92602 0
M  V30 2382 O 232.892 1.21193 -1.53658 0
M  V30 2383 C 233.191 -1.9382 -3.00281 0
M  V30 2384 C 232.857 -3.43522 -2.92068 0
M  V30 2385 C 231.519 -3.84348 -2.89535 0
M  V30 2386 C 233.871 -4.38906 -2.81089 0
M  V30 2387 C 231.199 -5.18869 -2.73846 0
M  V30 2388 C 233.551 -5.73521 -2.66939 0
M  V30 2389 C 232.215 -6.13601 -2.62774 0
M  V30 2390 H 231.485 -0.430654 -0.603008 0
M  V30 2391 H 234.132 -1.60536 -1.04404 0
M  V30 2392 H 232.437 -1.4357 -3.64547 0
M  V30 2393 H 234.134 -1.82028 -3.57305 0
M  V30 2394 H 230.724 -3.11072 -2.94842 0
M  V30 2395 H 234.908 -4.08315 -2.82121 0
M  V30 2396 H 230.164 -5.4903 -2.69027 0
M  V30 2397 H 234.338 -6.47078 -2.57416 0
M  V30 2398 H 231.965 -7.17786 -2.50375 0
M  V30 2399 N 233.54 1.10788 -1.12088 0
M  V30 2400 C 234.45 2.20599 -0.798338 0
M  V30 2401 C 235.466 1.72712 0.21135 0
M  V30 2402 O 236.642 2.01348 0.0458477 0
M  V30 2403 C 233.707 3.45771 -0.253674 0
M  V30 2404 C 232.768 4.08411 -1.32283 0
M  V30 2405 C 232.001 5.27608 -0.80406 0
M  V30 2406 O 232.224 5.69241 0.363478 0
M  V30 2407 O 231.158 5.8101 -1.57198 0
M  V30 2408 H 234.984 2.50614 -1.7154 0
M  V30 2409 H 232.569 1.19454 -0.897275 0
M  V30 2410 H 234.451 4.21376 0.0453691 0
M  V30 2411 H 233.126 3.1739 0.636005 0
M  V30 2412 H 232.033 3.34507 -1.67499 0
M  V30 2413 H 233.366 4.40986 -2.18614 0
M  V30 2414 N 235.018 0.912232 1.28515 0
M  V30 2415 C 236.434 0.610159 1.47476 0
M  V30 2416 C 236.634 -0.844955 1.82928 0
M  V30 2417 O 235.69 -1.62416 1.93332 0
M  V30 2418 C 237.003 1.54675 2.57868 0
M  V30 2419 C 238.551 1.55331 2.71738 0
M  V30 2420 C 239.026 2.47649 3.85272 0
M  V30 2421 N 240.517 2.45767 3.92623 0
M  V30 2422 C 241.252 3.13896 4.79851 0
M  V30 2423 N 240.748 3.9135 5.71679 0
M  V30 2424 N 242.541 3.02991 4.73448 0
M  V30 2425 H 234.692 1.85318 1.03783 0
M  V30 2426 H 236.955 0.794777 0.516753 0
M  V30 2427 H 236.661 2.5841 2.38574 0
M  V30 2428 H 236.535 1.27671 3.54937 0
M  V30 2429 H 238.922 0.52335 2.90422 0
M  V30 2430 H 239.003 1.86378 1.75205 0
M  V30 2431 H 238.647 3.50745 3.67342 0
M  V30 2432 H 238.577 2.13904 4.81199 0
M  V30 2433 H 241.068 1.89503 3.26951 0
M  V30 2434 H 241.381 4.40359 6.35062 0
M  V30 2435 H 239.726 3.95455 5.71524 0
M  V30 2436 H 242.917 2.41987 4.007 0
M  V30 2437 H 243.09 3.5636 5.41213 0
M  V30 2438 N 236.496 -1.42363 0.676048 0
M  V30 2439 C 237.745 -2.00745 0.196037 0
M  V30 2440 C 238.058 -1.54083 -1.20489 0
M  V30 2441 O 239.264 -2.04891 -1.78134 0
M  V30 2442 C 237.72 -3.58651 0.299616 0
M  V30 2443 C 237.328 -4.143 1.70468 0
M  V30 2444 C 239.072 -4.24326 -0.121619 0
M  V30 2445 C 236.979 -5.64574 1.76096 0
M  V30 2446 H 235.909 -0.750787 0.0695301 0
M  V30 2447 H 238.56 -1.63072 0.841412 0
M  V30 2448 H 236.942 -3.93833 -0.413673 0
M  V30 2449 H 238.116 -3.90575 2.44515 0
M  V30 2450 H 236.431 -3.61081 2.07387 0
M  V30 2451 H 239.028 -5.34607 -0.0997362 0
M  V30 2452 H 239.371 -3.99897 -1.15708 0
M  V30 2453 H 239.904 -3.94108 0.540706 0
M  V30 2454 H 236.643 -5.93804 2.77628 0
M  V30 2455 H 236.163 -5.90286 1.06406 0
M  V30 2456 H 237.842 -6.29013 1.51496 0
M  V30 2457 N 237.974 -0.419461 -1.51915 0
M  V30 2458 C 239.39 -0.0708431 -1.59443 0
M  V30 2459 C 239.59 1.41796 -1.43164 0
M  V30 2460 O 238.646 2.18596 -1.26381 0
M  V30 2461 C 239.959 -0.574991 -2.95151 0
M  V30 2462 C 241.507 -0.533867 -3.08413 0
M  V30 2463 C 241.982 -1.01469 -4.46618 0
M  V30 2464 N 243.473 -0.971939 -4.52888 0
M  V30 2465 C 244.208 -1.31505 -5.58116 0
M  V30 2466 N 243.704 -1.73014 -6.70849 0
M  V30 2467 N 245.497 -1.23436 -5.48379 0
M  V30 2468 H 237.648 -1.38836 -1.60743 0
M  V30 2469 H 239.911 -0.570998 -0.756747 0
M  V30 2470 H 239.617 -1.61597 -3.12377 0
M  V30 2471 H 239.491 0.00979777 -3.77199 0
M  V30 2472 H 241.878 0.498086 -2.90866 0
M  V30 2473 H 241.959 -1.15484 -2.28248 0
M  V30 2474 H 241.603 -2.04502 -4.6491 0
M  V30 2475 H 241.533 -0.370433 -5.25295 0
M  V30 2476 H 244.024 -0.666893 -3.71969 0
M  V30 2477 H 244.337 -1.97479 -7.47143 0
M  V30 2478 H 242.682 -1.76926 -6.72103 0
M  V30 2479 H 245.873 -0.908869 -4.59192 0
M  V30 2480 H 246.046 -1.50506 -6.30279 0
M  V30 2481 N 239.452 1.56882 -0.150215 0
M  V30 2482 C 240.399 2.16922 0.788244 0
M  V30 2483 C 241.369 1.10303 1.24187 0
M  V30 2484 O 242.554 1.38359 1.31383 0
M  V30 2485 C 239.694 2.79754 2.02068 0
M  V30 2486 C 238.807 4.00775 1.61257 0
M  V30 2487 C 237.942 4.51595 2.79705 0
M  V30 2488 C 236.981 5.65074 2.35282 0
M  V30 2489 N 236.118 6.10499 3.4675 0
M  V30 2490 H 240.958 2.96779 0.269444 0
M  V30 2491 H 238.495 1.46599 0.12128 0
M  V30 2492 H 240.453 3.14329 2.74323 0
M  V30 2493 H 239.083 2.02536 2.51354 0
M  V30 2494 H 238.135 3.72158 0.787553 0
M  V30 2495 H 239.447 4.82978 1.24633 0
M  V30 2496 H 238.601 4.88242 3.60145 0
M  V30 2497 H 237.34 3.68406 3.19576 0
M  V30 2498 H 236.345 5.28 1.53283 0
M  V30 2499 H 237.57 6.50052 1.96493 0
M  V30 2500 H 235.516 5.30243 3.86236 0
M  V30 2501 H 235.433 6.87637 3.14152 0
M  V30 2502 H 236.701 6.51791 4.27537 0
M  V30 2503 N 240.93 -0.123565 1.57115 0
M  V30 2504 C 242.178 -0.83051 1.84247 0
M  V30 2505 C 242.499 -1.80629 0.73471 0
M  V30 2506 O 241.769 -1.94403 -0.241688 0
M  V30 2507 H 240.349 -0.309694 0.679778 0
M  V30 2508 H 243.011 -0.111976 1.94578 0
M  V30 2509 H 242.107 -1.37852 2.80006 0
M  V30 2510 N 242.408 -1.52605 -0.393616 0
M  V30 2511 C 243.358 -1.73436 -1.48 0
M  V30 2512 C 244.342 -0.588386 -1.49756 0
M  V30 2513 O 245.534 -0.846047 -1.5547 0
M  V30 2514 C 242.663 -1.90247 -2.85764 0
M  V30 2515 C 241.749 -3.10763 -2.88595 0
M  V30 2516 N 242.14 -4.33196 -2.61103 0
M  V30 2517 C 240.438 -3.10914 -3.19763 0
M  V30 2518 C 241.139 -5.1477 -2.70899 0
M  V30 2519 N 240.115 -4.50356 -3.04435 0
M  V30 2520 H 243.917 -2.65727 -1.25563 0
M  V30 2521 H 241.431 -1.5085 -0.601513 0
M  V30 2522 H 243.428 -2.03291 -3.63976 0
M  V30 2523 H 242.088 -0.991663 -3.09186 0
M  V30 2524 H 243.099 -4.61408 -2.35209 0
M  V30 2525 H 239.776 -2.29626 -3.4868 0
M  V30 2526 H 241.166 -6.22355 -2.53227 0
M  V30 2527 N 243.887 0.651787 -1.4349 0
M  V30 2528 C 245.135 1.40888 -1.44897 0
M  V30 2529 C 245.456 1.94856 -0.0749086 0
M  V30 2530 O 244.726 1.74518 0.889956 0
M  V30 2531 H 243.306 0.522887 -0.533478 0
M  V30 2532 H 245.968 0.768609 -1.79104 0
M  V30 2533 H 245.064 2.25052 -2.16236 0
M  V30 2534 N 245.365 1.30045 0.890287 0
M  V30 2535 C 246.297 1.11786 2.00091 0
M  V30 2536 C 247.31 0.0626307 1.62679 0
M  V30 2537 O 248.499 0.308112 1.75821 0
M  V30 2538 C 245.599 0.681527 3.31977 0
M  V30 2539 C 244.772 1.81735 3.97858 0
M  V30 2540 C 243.831 1.37045 5.08041 0
M  V30 2541 O 242.857 2.07677 5.29961 0
M  V30 2542 N 244.059 0.246525 5.79976 0
M  V30 2543 H 246.824 2.07441 2.16306 0
M  V30 2544 H 244.385 1.2211 1.06305 0
M  V30 2545 H 246.377 0.365675 4.03045 0
M  V30 2546 H 244.947 -0.182828 3.12065 0
M  V30 2547 H 244.167 2.30159 3.20032 0
M  V30 2548 H 245.455 2.57865 4.38615 0
M  V30 2549 H 244.853 -0.34215 5.64664 0
M  V30 2550 H 243.41 -0.00990438 6.51799 0
M  V30 2551 N 246.843 -1.10192 1.12674 0
M  V30 2552 C 248.254 -1.63707 0.897604 0
M  V30 2553 C 248.605 -1.87812 -0.567546 0
M  V30 2554 O 247.73 -1.62196 -1.43253 0
M  V30 2555 C 248.325 -2.974 1.62292 0
M  V30 2556 C 246.884 -3.47772 1.43986 0
M  V30 2557 C 246.031 -2.22332 1.65722 0
M  V30 2558 H 248.982 -0.936587 1.28116 0
M  V30 2559 H 249.003 -3.64986 1.07541 0
M  V30 2560 H 248.515 -2.79824 2.68924 0
M  V30 2561 H 246.616 -3.70487 0.396206 0
M  V30 2562 H 246.729 -4.25723 2.19765 0
M  V30 2563 H 245.093 -2.30599 1.08149 0
M  V30 2564 H 245.876 -2.07285 2.73657 0
M  V30 2565 N 248.321 -0.919034 -1.28029 0
M  V30 2566 C 249.569 -0.553838 -1.94363 0
M  V30 2567 C 249.89 0.906357 -1.72656 0
M  V30 2568 O 249.16 1.64143 -1.0693 0
M  V30 2569 H 247.74 -0.201834 -0.719216 0
M  V30 2570 H 250.402 -1.16954 -1.55909 0
M  V30 2571 H 249.498 -0.752758 -3.02886 0
M  V30 2572 N 249.799 1.42003 -0.683588 0
M  V30 2573 C 250.762 2.29191 -0.0198243 0
M  V30 2574 C 251.762 1.43773 0.72013 0
M  V30 2575 O 252.952 1.65061 0.556815 0
M  V30 2576 C 250.084 3.26435 0.982487 0
M  V30 2577 H 251.277 2.8938 -0.787345 0
M  V30 2578 H 248.83 1.49789 -0.446418 0
M  V30 2579 H 249.565 2.71203 1.77819 0
M  V30 2580 H 249.35 3.89449 0.455182 0
M  V30 2581 H 250.84 3.918 1.44508 0
M  V30 2582 N 251.277 0.427512 1.51691 0
M  V30 2583 C 252.554 -0.201684 1.94557 0
M  V30 2584 C 252.934 -1.60981 1.36559 0
M  V30 2585 O 252.282 -2.21814 0.548702 0
M  V30 2586 C 252.492 -0.189394 3.48486 0
M  V30 2587 C 253.84 -0.39978 4.22714 0
M  V30 2588 O 254.864 -0.267945 3.55191 0
M  V30 2589 O 253.723 -0.661249 5.42485 0
M  V30 2590 H 250.817 -0.135261 0.815864 0
M  V30 2591 H 253.363 0.484782 1.62628 0
M  V30 2592 H 252.135 0.795431 3.8313 0
M  V30 2593 H 251.758 -0.919187 3.86829 0
M  V30 2594 N 252.755 -1.56801 0.158532 0
M  V30 2595 C 253.718 -2.16138 -0.762705 0
M  V30 2596 C 254.718 -1.1061 -1.16713 0
M  V30 2597 O 255.908 -1.36191 -1.08617 0
M  V30 2598 C 253.04 -2.73386 -2.03649 0
M  V30 2599 H 254.233 -2.98886 -0.246354 0
M  V30 2600 H 251.786 -1.56035 -0.0909744 0
M  V30 2601 H 252.521 -1.94335 -2.59623 0
M  V30 2602 H 252.306 -3.50601 -1.75559 0
M  V30 2603 H 253.796 -3.19065 -2.6942 0
M  V30 2604 N 254.233 0.115231 -1.57178 0
M  V30 2605 C 255.143 1.15994 -2.03918 0
M  V30 2606 C 256.159 1.45103 -0.960268 0
M  V30 2607 O 257.335 1.56144 -1.27204 0
M  V30 2608 C 254.4 2.46568 -2.43732 0
M  V30 2609 C 253.461 2.24822 -3.65723 0
M  V30 2610 C 252.694 3.4917 -4.03629 0
M  V30 2611 O 252.917 4.56623 -3.41835 0
M  V30 2612 O 251.851 3.39949 -4.96708 0
M  V30 2613 H 255.677 0.793019 -2.93164 0
M  V30 2614 H 253.262 0.3263 -1.45793 0
M  V30 2615 H 255.144 3.23492 -2.70057 0
M  V30 2616 H 253.819 2.82726 -1.57631 0
M  V30 2617 H 252.726 1.45744 -3.44542 0
M  V30 2618 H 254.059 1.93566 -4.52541 0
M  V30 2619 N 255.711 1.52812 0.385517 0
M  V30 2620 C 256.658 1.77838 1.47113 0
M  V30 2621 C 257.628 0.621757 1.54024 0
M  V30 2622 O 258.813 0.861846 1.70226 0
M  V30 2623 C 255.953 1.95618 2.84302 0
M  V30 2624 C 255.066 3.23316 2.86515 0
M  V30 2625 C 254.201 3.31394 4.15152 0
M  V30 2626 C 253.24 4.53201 4.1143 0
M  V30 2627 N 252.377 4.58542 5.3168 0
M  V30 2628 H 257.217 2.70482 1.25073 0
M  V30 2629 H 254.754 1.34006 0.606692 0
M  V30 2630 H 256.712 2.03912 3.63972 0
M  V30 2631 H 255.342 1.06331 3.04784 0
M  V30 2632 H 254.394 3.24076 1.99195 0
M  V30 2633 H 255.706 4.13045 2.79634 0
M  V30 2634 H 254.86 3.3889 5.03228 0
M  V30 2635 H 253.599 2.39645 4.24761 0
M  V30 2636 H 252.604 4.45827 3.21742 0
M  V30 2637 H 253.829 5.46271 4.03442 0
M  V30 2638 H 251.775 3.69686 5.41912 0
M  V30 2639 H 251.692 5.42148 5.26889 0
M  V30 2640 H 252.96 4.70296 6.21644 0
M  V30 2641 N 257.189 -0.644168 1.43834 0
M  V30 2642 C 258.6 -1.22554 1.40845 0
M  V30 2643 C 258.951 -1.9585 0.117115 0
M  V30 2644 O 258.076 -2.01734 -0.783086 0
M  V30 2645 C 258.671 -2.22907 2.55143 0
M  V30 2646 C 257.23 -2.76501 2.5539 0
M  V30 2647 C 256.377 -1.51287 2.32396 0
M  V30 2648 H 259.328 -0.43563 1.52604 0
M  V30 2649 H 259.349 -3.05259 2.2715 0
M  V30 2650 H 258.861 -1.69533 3.49114 0
M  V30 2651 H 256.962 -3.33914 1.65324 0
M  V30 2652 H 257.075 -3.23429 3.53455 0
M  V30 2653 H 255.439 -1.78957 1.81236 0
M  V30 2654 H 256.222 -0.998336 3.28463 0
M  V30 2655 N 258.668 -1.30515 -0.883378 0
M  V30 2656 C 259.915 -1.1943 -1.63532 0
M  V30 2657 C 260.243 0.250627 -1.92878 0
M  V30 2658 O 259.498 1.19556 -1.54935 0
M  V30 2659 C 259.797 -1.96994 -2.98209 0
M  V30 2660 C 259.463 -3.466 -2.88408 0
M  V30 2661 C 258.125 -3.87397 -2.85442 0
M  V30 2662 C 260.477 -4.41863 -2.76418 0
M  V30 2663 C 257.805 -5.21745 -2.68327 0
M  V30 2664 C 260.157 -5.7632 -2.60841 0
M  V30 2665 C 258.821 -6.16354 -2.56251 0
M  V30 2666 H 258.091 -0.437025 -0.598406 0
M  V30 2667 H 260.738 -1.61635 -1.02696 0
M  V30 2668 H 259.043 -1.47429 -3.63004 0
M  V30 2669 H 260.74 -1.85808 -3.55354 0
M  V30 2670 H 257.33 -3.14182 -2.91527 0
M  V30 2671 H 261.514 -4.11285 -2.77775 0
M  V30 2672 H 256.77 -5.51853 -2.63189 0
M  V30 2673 H 260.944 -6.49772 -2.50538 0
M  V30 2674 H 258.571 -7.20401 -2.42748 0
M  V30 2675 N 260.146 1.09593 -1.13257 0
M  V30 2676 C 261.376 1.85231 -0.915049 0
M  V30 2677 C 261.784 1.81345 0.539498 0
M  V30 2678 O 261.127 1.20664 1.38513 0
M  V30 2679 C 261.189 3.34275 -1.3229 0
M  V30 2680 C 260.853 3.6191 -2.79052 0
M  V30 2681 C 261.85 3.57777 -3.77216 0
M  V30 2682 C 259.535 3.90309 -3.16171 0
M  V30 2683 C 261.529 3.81652 -5.1051 0
M  V30 2684 C 259.216 4.13839 -4.49644 0
M  V30 2685 C 260.214 4.09502 -5.46623 0
M  V30 2686 O 259.902 4.32426 -6.77689 0
M  V30 2687 H 259.634 0.591997 -0.326367 0
M  V30 2688 H 262.188 1.394 -1.50854 0
M  V30 2689 H 260.418 3.80805 -0.672667 0
M  V30 2690 H 262.107 3.9132 -1.07812 0
M  V30 2691 H 262.873 3.35865 -3.49885 0
M  V30 2692 H 258.752 3.92811 -2.41289 0
M  V30 2693 H 262.296 3.78182 -5.86195 0
M  V30 2694 H 258.193 4.35232 -4.767 0
M  V30 2695 H 258.961 4.49896 -6.83766 0
M  V30 2696 N 261.624 0.925811 1.2754 0
M  V30 2697 C 262.87 0.566092 1.94739 0
M  V30 2698 C 263.203 -0.890057 1.72603 0
M  V30 2699 O 262.478 -1.63467 1.05399 0
M  V30 2700 C 262.761 0.89054 3.48915 0
M  V30 2701 C 262.614 2.4003 3.80402 0
M  V30 2702 C 263.933 0.395101 4.38323 0
M  V30 2703 H 261.052 0.20714 0.707292 0
M  V30 2704 H 263.694 1.15725 1.50691 0
M  V30 2705 H 261.844 0.387452 3.86563 0
M  V30 2706 H 263.516 2.97494 3.52555 0
M  V30 2707 H 261.759 2.85028 3.2702 0
M  V30 2708 H 262.43 2.57785 4.8811 0
M  V30 2709 H 264.906 0.826241 4.07814 0
M  V30 2710 H 263.782 0.651086 5.45025 0
M  V30 2711 H 264.043 -0.704798 4.36446 0
M  V30 2712 N 263.102 -1.41638 0.69111 0
M  V30 2713 C 264.05 -2.32597 0.0115199 0
M  V30 2714 C 265.044 -1.5072 -0.773296 0
M  V30 2715 O 266.25 -1.66685 -0.67942 0
M  V30 2716 H 262.625 -0.751849 -0.0150746 0
M  V30 2717 H 264.596 -2.87593 0.795791 0
M  V30 2718 C 263.345 -3.35467 -0.914172 0
M  V30 2719 H 262.668 -3.9852 -0.319687 0
M  V30 2720 H 264.108 -4.01662 -1.35808 0
M  V30 2721 C 262.567 -2.69004 -2.02826 0
M  V30 2722 O 263.097 -2.53444 -3.11655 0
M  V30 2723 N 261.303 -2.2777 -1.80469 0
M  V30 2724 H 260.85 -2.40626 -0.919615 0
M  V30 2725 H 260.808 -1.83635 -2.55197 0
M  V30 2726 N 264.58 -0.43555 -1.51462 0
M  V30 2727 C 265.826 0.131709 -2.02372 0
M  V30 2728 C 266.159 1.42516 -1.3192 0
M  V30 2729 O 265.434 1.89606 -0.433573 0
M  V30 2730 C 265.717 0.352301 -3.58373 0
M  V30 2731 C 265.57 -0.959676 -4.39443 0
M  V30 2732 C 266.889 1.12286 -4.25535 0
M  V30 2733 H 264.008 0.0463936 -0.735538 0
M  V30 2734 H 266.65 -0.574197 -1.81116 0
M  V30 2735 H 264.8 0.9536 -3.76615 0
M  V30 2736 H 266.472 -1.59482 -4.32855 0
M  V30 2737 H 264.715 -1.56468 -4.04599 0
M  V30 2738 H 265.386 -0.759394 -5.46752 0
M  V30 2739 H 267.862 0.613545 -4.11552 0
M  V30 2740 H 266.738 1.24598 -5.34571 0
M  V30 2741 H 266.999 2.15048 -3.86273 0
M  V30 2742 N 266.058 1.56714 -0.166846 0
M  V30 2743 C 266.968 2.21331 0.777791 0
M  V30 2744 C 267.984 1.20358 1.25658 0
M  V30 2745 O 269.16 1.53005 1.30964 0
M  V30 2746 C 266.225 2.83787 1.99163 0
M  V30 2747 C 265.286 3.99947 1.56016 0
M  V30 2748 C 264.519 4.59415 2.71613 0
M  V30 2749 O 264.742 4.17769 3.88362 0
M  V30 2750 O 263.676 5.49359 2.45945 0
M  V30 2751 H 267.502 3.02605 0.257636 0
M  V30 2752 H 265.087 1.49275 0.0611393 0
M  V30 2753 H 266.969 3.23405 2.70161 0
M  V30 2754 H 265.644 2.05513 2.50092 0
M  V30 2755 H 264.551 3.65007 0.819809 0
M  V30 2756 H 265.884 4.79801 1.09782 0
M  V30 2757 N 267.536 -0.106894 1.57237 0
M  V30 2758 C 268.783 -0.812526 1.85484 0
M  V30 2759 C 269.111 -1.79304 0.753687 0
M  V30 2760 O 268.366 -1.94047 -0.253853 0
M  V30 2761 C 268.665 -1.58628 3.20268 0
M  V30 2762 C 268.331 -0.748967 4.44636 0
M  V30 2763 C 266.993 -0.518104 4.78403 0
M  V30 2764 C 269.345 -0.166122 5.20935 0
M  V30 2765 C 266.673 0.305659 5.85903 0
M  V30 2766 C 269.025 0.644899 6.29304 0
M  V30 2767 C 267.689 0.885965 6.61594 0
M  V30 2768 H 266.959 -0.297324 0.678734 0
M  V30 2769 H 269.606 -0.0744332 1.91355 0
M  V30 2770 H 267.911 -2.39562 3.10028 0
M  V30 2771 H 269.608 -2.13643 3.39349 0
M  V30 2772 H 266.198 -0.939006 4.18187 0
M  V30 2773 H 270.382 -0.33167 4.95191 0
M  V30 2774 H 265.638 0.501528 6.0934 0
M  V30 2775 H 269.812 1.10345 6.87602 0
M  V30 2776 H 267.439 1.52609 7.44725 0
M  V30 2777 N 269.014 -1.53014 -0.377408 0
M  V30 2778 C 269.964 -1.74996 -1.46152 0
M  V30 2779 C 270.948 -0.604236 -1.49123 0
M  V30 2780 O 272.14 -0.862489 -1.54564 0
M  V30 2781 C 269.269 -1.93267 -2.8373 0
M  V30 2782 C 268.355 -3.13807 -2.85283 0
M  V30 2783 N 268.746 -4.35941 -2.56493 0
M  V30 2784 C 267.044 -3.14288 -3.16448 0
M  V30 2785 C 267.745 -5.17615 -2.65424 0
M  V30 2786 N 266.721 -4.53559 -2.99641 0
M  V30 2787 H 270.523 -2.67044 -1.22738 0
M  V30 2788 H 268.037 -1.51479 -0.585479 0
M  V30 2789 H 270.034 -2.0714 -3.61799 0
M  V30 2790 H 268.694 -1.0244 -3.08117 0
M  V30 2791 H 269.705 -4.63876 -2.30302 0
M  V30 2792 H 266.382 -2.33312 -3.46225 0
M  V30 2793 H 267.772 -6.25006 -2.46612 0
M  V30 2794 N 270.492 0.636531 -1.44174 0
M  V30 2795 C 271.442 1.74233 -1.47061 0
M  V30 2796 C 272.426 1.57331 -0.337034 0
M  V30 2797 O 273.618 1.67159 -0.581973 0
M  V30 2798 C 270.747 3.12897 -1.41246 0
M  V30 2799 C 269.833 3.35288 -2.59698 0
M  V30 2800 N 270.224 3.2807 -3.84972 0
M  V30 2801 C 268.522 3.66065 -2.54778 0
M  V30 2802 C 269.223 3.51001 -4.63867 0
M  V30 2803 N 268.199 3.73616 -3.94857 0
M  V30 2804 H 272.001 1.67103 -2.41773 0
M  V30 2805 H 269.515 0.838806 -1.3906 0
M  V30 2806 H 271.512 3.92189 -1.41398 0
M  V30 2807 H 270.172 3.21197 -0.47569 0
M  V30 2808 H 271.183 3.07109 -4.17019 0
M  V30 2809 H 267.86 3.81379 -1.6987 0
M  V30 2810 H 269.25 3.51059 -5.72894 0
M  V30 2811 N 271.97 1.30982 0.876444 0
M  V30 2812 C 272.88 1.2003 2.01569 0
M  V30 2813 C 273.896 0.11838 1.73597 0
M  V30 2814 O 275.072 0.33495 1.98595 0
M  V30 2815 C 272.137 0.901637 3.34771 0
M  V30 2816 C 271.198 2.06979 3.76109 0
M  V30 2817 C 270.431 1.78529 5.02954 0
M  V30 2818 O 270.654 0.717296 5.65872 0
M  V30 2819 O 269.588 2.64019 5.40905 0
M  V30 2820 H 273.414 2.15753 2.13739 0
M  V30 2821 H 270.999 1.10658 1.00375 0
M  V30 2822 H 272.881 0.750645 4.1466 0
M  V30 2823 H 271.556 -0.0256141 3.2369 0
M  V30 2824 H 270.463 2.27616 2.96887 0
M  V30 2825 H 271.796 2.97907 3.91807 0
M  V30 2826 N 273.449 -1.08991 1.13837 0
M  V30 2827 C 274.865 -1.33312 0.877506 0
M  V30 2828 C 275.065 -1.95587 -0.48456 0
M  V30 2829 O 274.121 -2.20509 -1.23013 0
M  V30 2830 C 275.434 -2.24045 2.0056 0
M  V30 2831 C 276.982 -2.37542 2.03821 0
M  V30 2832 C 277.457 -3.31614 3.15905 0
M  V30 2833 N 278.948 -3.39189 3.15445 0
M  V30 2834 C 279.683 -4.11992 3.98811 0
M  V30 2835 N 279.179 -4.87553 4.92203 0
M  V30 2836 N 280.972 -4.07762 3.86894 0
M  V30 2837 H 273.123 -0.669456 2.01574 0
M  V30 2838 H 275.386 -0.357482 0.878015 0
M  V30 2839 H 275.092 -1.85521 2.98789 0
M  V30 2840 H 274.966 -3.24466 1.92359 0
M  V30 2841 H 277.353 -2.75327 1.06202 0
M  V30 2842 H 277.434 -1.36884 2.16093 0
M  V30 2843 H 277.078 -2.94551 4.13766 0
M  V30 2844 H 277.008 -4.32186 3.0087 0
M  V30 2845 H 279.499 -2.85314 2.47799 0
M  V30 2846 H 279.812 -5.40549 5.52292 0
M  V30 2847 H 278.157 -4.86627 4.96205 0
M  V30 2848 H 281.348 -3.47833 3.13257 0
M  V30 2849 H 281.521 -4.64238 4.52092 0
M  V30 2850 N 274.927 -0.932562 -1.27047 0
M  V30 2851 C 276.175 -0.574422 -1.93765 0
M  V30 2852 C 276.496 0.887993 -1.73608 0
M  V30 2853 O 275.766 1.62999 -1.08665 0
M  V30 2854 H 274.346 -0.209451 -0.717035 0
M  V30 2855 H 277.008 -1.18601 -1.5466 0
M  V30 2856 H 276.104 -0.784841 -3.02071 0
M  V30 2857 N 276.405 1.4127 -0.698611 0
M  V30 2858 C 277.335 2.33447 -0.049629 0
M  V30 2859 C 278.316 1.51982 0.763898 0
M  V30 2860 O 279.501 1.80509 0.716257 0
M  V30 2861 C 276.631 3.35828 0.885267 0
M  V30 2862 C 275.585 4.27627 0.178613 0
M  V30 2863 C 274.911 5.20406 1.22807 0
M  V30 2864 C 276.211 5.13459 -0.956933 0
M  V30 2865 H 277.905 2.87966 -0.81951 0
M  V30 2866 H 275.451 1.38461 -0.395538 0
M  V30 2867 H 277.404 3.9924 1.34854 0
M  V30 2868 H 276.128 2.79666 1.68685 0
M  V30 2869 H 274.787 3.65643 -0.26466 0
M  V30 2870 H 274.435 4.60558 2.02226 0
M  V30 2871 H 274.135 5.82661 0.760239 0
M  V30 2872 H 275.659 5.86695 1.69179 0
M  V30 2873 H 277.073 5.70421 -0.573805 0
M  V30 2874 H 275.47 5.8467 -1.35205 0
M  V30 2875 H 276.54 4.50443 -1.79524 0
M  V30 2876 N 277.883 0.443576 1.51229 0
M  V30 2877 C 279.129 -0.120975 2.02439 0
M  V30 2878 C 279.462 -1.41815 1.32674 0
M  V30 2879 O 278.737 -1.89373 0.443622 0
M  V30 2880 C 279.02 -0.333291 3.58554 0
M  V30 2881 C 278.873 0.982968 4.38928 0
M  V30 2882 C 280.192 -1.10028 4.26124 0
M  V30 2883 H 277.311 -0.0424923 0.735774 0
M  V30 2884 H 279.953 0.583794 1.80809 0
M  V30 2885 H 278.103 -0.933614 3.77115 0
M  V30 2886 H 279.775 1.61775 4.32003 0
M  V30 2887 H 278.018 1.58611 4.03763 0
M  V30 2888 H 278.689 0.788379 5.46341 0
M  V30 2889 H 281.165 -0.591711 4.11871 0
M  V30 2890 H 280.041 -1.21761 5.35225 0
M  V30 2891 H 280.302 -2.12996 3.87408 0
M  V30 2892 N 279.361 -1.56624 0.175154 0
M  V30 2893 C 280.308 -2.18149 -0.753634 0
M  V30 2894 C 281.278 -1.12265 -1.22417 0
M  V30 2895 O 282.463 -1.40432 -1.29165 0
M  V30 2896 C 279.603 -2.82933 -1.97592 0
M  V30 2897 C 278.716 -4.03289 -1.5486 0
M  V30 2898 C 277.851 -4.55988 -2.72485 0
M  V30 2899 C 276.89 -5.68746 -2.26262 0
M  V30 2900 N 276.027 -6.15938 -3.36994 0
M  V30 2901 H 280.867 -2.9717 -0.222195 0
M  V30 2902 H 278.404 -1.46774 -0.0979422 0
M  V30 2903 H 280.362 -3.18653 -2.69288 0
M  V30 2904 H 278.992 -2.06509 -2.481 0
M  V30 2905 H 278.044 -3.73364 -0.728246 0
M  V30 2906 H 279.356 -4.849 -1.16933 0
M  V30 2907 H 278.51 -4.9391 -3.52332 0
M  V30 2908 H 277.249 -3.73443 -3.13674 0
M  V30 2909 H 276.254 -5.30372 -1.44863 0
M  V30 2910 H 277.479 -6.53095 -1.86127 0
M  V30 2911 H 275.425 -5.36321 -3.77751 0
M  V30 2912 H 275.342 -6.92548 -3.03172 0
M  V30 2913 H 276.61 -6.58511 -4.17114 0
M  V30 2914 N 280.839 0.0985539 -1.57292 0
M  V30 2915 C 282.085 0.803867 -1.86188 0
M  V30 2916 C 282.418 1.78549 -0.763794 0
M  V30 2917 O 281.693 1.93153 0.22855 0
M  V30 2918 C 281.976 1.53568 -3.25713 0
M  V30 2919 C 281.829 0.572277 -4.46145 0
M  V30 2920 C 283.148 2.48708 -3.63087 0
M  V30 2921 H 280.267 0.290781 -0.677211 0
M  V30 2922 H 282.909 0.0675783 -1.8988 0
M  V30 2923 H 281.059 2.16332 -3.22696 0
M  V30 2924 H 282.731 -0.0480894 -4.61275 0
M  V30 2925 H 280.974 -0.114618 -4.33649 0
M  V30 2926 H 281.645 1.12139 -5.40489 0
M  V30 2927 H 284.121 1.96039 -3.67026 0
M  V30 2928 H 282.997 2.96932 -4.61652 0
M  V30 2929 H 283.258 3.32309 -2.91588 0
M  V30 2930 N 282.317 1.53212 0.369288 0
M  V30 2931 C 283.265 1.80054 1.47253 0
M  V30 2932 C 284.259 0.669456 1.55611 0
M  V30 2933 O 285.465 0.852328 1.58541 0
M  V30 2934 H 281.84 0.570034 0.490475 0
M  V30 2935 H 283.811 2.72403 1.21817 0
M  V30 2936 C 282.56 2.00403 2.84137 0
M  V30 2937 H 281.883 2.86876 2.78464 0
M  V30 2938 H 283.323 2.23164 3.60519 0
M  V30 2939 C 281.782 0.782081 3.27697 0
M  V30 2940 O 282.312 -0.0310205 4.01688 0
M  V30 2941 N 280.518 0.606573 2.84199 0
M  V30 2942 H 280.065 1.26939 2.24152 0
M  V30 2943 H 280.023 -0.20962 3.137 0
M  V30 2944 N 283.795 -0.628877 1.44509 0
M  V30 2945 C 285.072 -1.38733 1.37886 0
M  V30 2946 C 285.452 -2.11065 0.0387008 0
M  V30 2947 O 284.8 -2.06476 -0.97878 0
M  V30 2948 C 285.01 -2.35188 2.57852 0
M  V30 2949 C 286.358 -2.9845 3.02014 0
M  V30 2950 O 287.382 -2.45513 2.58073 0
M  V30 2951 O 286.241 -3.94487 3.78209 0
M  V30 2952 H 283.335 -0.621015 0.54614 0
M  V30 2953 H 285.881 -0.653744 1.56602 0
M  V30 2954 H 284.653 -1.80855 3.46998 0
M  V30 2955 H 284.276 -3.1596 2.4136 0
M  V30 2956 N 285.273 -1.31445 -0.869486 0
M  V30 2957 C 286.22 -1.19135 -1.97675 0
M  V30 2958 C 287.19 -0.0770266 -1.65921 0
M  V30 2959 O 288.375 -0.249972 -1.89155 0
M  V30 2960 C 285.515 -0.905149 -3.33018 0
M  V30 2961 C 284.628 -2.10285 -3.77365 0
M  V30 2962 C 283.763 -1.75339 -5.01427 0
M  V30 2963 C 282.802 -2.91515 -5.38224 0
M  V30 2964 N 281.939 -2.56762 -6.53466 0
M  V30 2965 H 286.779 -2.13853 -2.07535 0
M  V30 2966 H 284.316 -1.06379 -1.01597 0
M  V30 2967 H 286.274 -0.719765 -4.10944 0
M  V30 2968 H 284.904 0.00519624 -3.228 0
M  V30 2969 H 283.956 -2.39899 -2.95216 0
M  V30 2970 H 285.268 -2.97237 -4.00564 0
M  V30 2971 H 284.422 -1.53266 -5.87022 0
M  V30 2972 H 283.161 -0.855801 -4.80133 0
M  V30 2973 H 282.166 -3.14237 -4.51149 0
M  V30 2974 H 283.391 -3.81985 -5.61484 0
M  V30 2975 H 281.337 -1.69526 -6.33717 0
M  V30 2976 H 281.254 -3.37243 -6.76612 0
M  V30 2977 H 282.522 -2.38083 -7.42251 0
M  V30 2978 N 286.751 1.08385 -1.14413 0
M  V30 2979 C 287.661 2.18856 -0.844951 0
M  V30 2980 C 288.677 1.73121 0.174668 0
M  V30 2981 O 289.853 2.014 0.00312857 0
M  V30 2982 C 286.918 3.45155 -0.32696 0
M  V30 2983 C 285.979 4.05513 -1.40916 0
M  V30 2984 C 285.212 5.25784 -0.915793 0
M  V30 2985 O 285.435 5.69884 0.242651 0
M  V30 2986 O 284.369 5.77545 -1.69487 0
M  V30 2987 H 288.195 2.46919 -1.76818 0
M  V30 2988 H 285.78 1.17524 -0.922411 0
M  V30 2989 H 287.662 4.21377 -0.0440211 0
M  V30 2990 H 286.337 3.18668 0.568539 0
M  V30 2991 H 285.244 3.30879 -1.74556 0
M  V30 2992 H 286.577 4.3625 -2.27919 0
M  V30 2993 N 288.23 0.939286 1.26551 0
M  V30 2994 C 289.476 0.586715 1.94128 0
M  V30 2995 C 289.809 -0.8717 1.73537 0
M  V30 2996 O 289.084 -1.62339 1.07127 0
M  V30 2997 C 289.367 0.927497 3.4795 0
M  V30 2998 C 289.22 2.44052 3.77834 0
M  V30 2999 C 290.539 0.441569 4.37879 0
M  V30 3000 H 287.658 0.21463 0.705055 0
M  V30 3001 H 290.3 1.17316 1.49455 0
M  V30 3002 H 288.45 0.428431 3.8613 0
M  V30 3003 H 290.122 3.01216 3.4938 0
M  V30 3004 H 288.365 2.8848 3.23978 0
M  V30 3005 H 289.036 2.62947 4.85348 0
M  V30 3006 H 291.512 0.869448 4.06915 0
M  V30 3007 H 290.388 0.708856 5.44304 0
M  V30 3008 H 290.649 -0.658467 4.37169 0
M  V30 3009 N 289.708 -1.40897 0.706093 0
M  V30 3010 C 290.933 -2.05895 0.249435 0
M  V30 3011 C 291.358 -1.52823 -1.09666 0
M  V30 3012 O 290.716 -0.659589 -1.68876 0
M  V30 3013 C 290.764 -3.59872 0.22904 0
M  V30 3014 O 289.868 -4.04708 -0.792784 0
M  V30 3015 H 289.209 -0.653206 0.119241 0
M  V30 3016 H 291.739 -1.80471 0.96391 0
M  V30 3017 H 291.749 -4.07951 0.0634791 0
M  V30 3018 H 290.424 -3.97866 1.21141 0
M  V30 3019 H 289.001 -3.68111 -0.59572 0
M  V30 3020 N 291.186 -0.45159 -1.50991 0
M  V30 3021 C 292.463 0.170707 -1.94854 0
M  V30 3022 C 292.843 1.58788 -1.39103 0
M  V30 3023 O 292.191 2.20913 -0.583921 0
M  V30 3024 C 292.401 0.133929 -3.48743 0
M  V30 3025 C 293.749 0.33248 -4.23296 0
M  V30 3026 O 294.773 0.211403 -3.55572 0
M  V30 3027 O 293.632 0.57486 -5.43468 0
M  V30 3028 H 290.726 0.122264 -0.817912 0
M  V30 3029 H 293.272 -0.510594 -1.61836 0
M  V30 3030 H 292.044 -0.856283 -3.81816 0
M  V30 3031 H 291.667 0.857529 -3.88242 0
M  V30 3032 N 292.664 1.56529 -0.183458 0
M  V30 3033 C 294.08 1.58664 0.172554 0
M  V30 3034 C 294.28 1.19925 1.61926 0
M  V30 3035 O 293.336 0.916534 2.35278 0
M  V30 3036 C 294.649 3.00463 -0.119262 0
M  V30 3037 C 296.197 3.12945 -0.0584396 0
M  V30 3038 C 296.672 4.56857 -0.323408 0
M  V30 3039 N 298.163 4.62403 -0.271612 0
M  V30 3040 C 298.898 5.71626 -0.450639 0
M  V30 3041 N 298.394 6.89362 -0.689384 0
M  V30 3042 N 300.187 5.60775 -0.385701 0
M  V30 3043 H 292.338 1.79994 -1.12765 0
M  V30 3044 H 294.601 0.834808 -0.449222 0
M  V30 3045 H 294.307 3.33326 -1.12192 0
M  V30 3046 H 294.181 3.72659 0.583544 0
M  V30 3047 H 296.568 2.79902 0.934805 0
M  V30 3048 H 296.649 2.4316 -0.794144 0
M  V30 3049 H 296.293 4.9061 -1.31392 0
M  V30 3050 H 296.223 5.24816 0.43305 0
M  V30 3051 H 298.714 3.77785 -0.0932256 0
M  V30 3052 H 299.027 7.68489 -0.815113 0
M  V30 3053 H 297.372 6.91196 -0.726142 0
M  V30 3054 H 300.563 4.67674 -0.199687 0
M  V30 3055 H 300.736 6.4584 -0.528646 0
M  V30 3056 N 294.142 -0.090211 1.57342 0
M  V30 3057 C 295.391 -0.791531 1.8552 0
M  V30 3058 C 295.704 -1.79659 0.773441 0
M  V30 3059 O 296.91 -2.54616 0.942497 0
M  V30 3060 C 295.366 -1.45856 3.2902 0
M  V30 3061 C 294.974 -0.493017 4.45279 0
M  V30 3062 C 296.718 -2.14332 3.66418 0
M  V30 3063 C 294.625 -1.16491 5.79814 0
M  V30 3064 H 293.555 -0.299356 0.692027 0
M  V30 3065 H 296.206 -0.0445343 1.83446 0
M  V30 3066 H 294.588 -2.25318 3.2565 0
M  V30 3067 H 295.762 0.270464 4.60006 0
M  V30 3068 H 294.077 0.0863061 4.16311 0
M  V30 3069 H 296.674 -2.65344 4.64216 0
M  V30 3070 H 297.017 -2.93447 2.95287 0
M  V30 3071 H 297.55 -1.41724 3.71698 0
M  V30 3072 H 294.289 -0.41447 6.54188 0
M  V30 3073 H 293.809 -1.8997 5.68921 0
M  V30 3074 H 295.488 -1.69001 6.24538 0
M  V30 3075 N 295.62 -1.53406 -0.361157 0
M  V30 3076 C 296.845 -1.74024 -1.12829 0
M  V30 3077 C 297.27 -0.470069 -1.82132 0
M  V30 3078 O 296.628 0.57619 -1.719 0
M  V30 3079 C 296.676 -2.90903 -2.13091 0
M  V30 3080 O 295.78 -2.59821 -3.20261 0
M  V30 3081 H 295.121 -0.577804 -0.327168 0
M  V30 3082 H 297.651 -2.00307 -0.41693 0
M  V30 3083 H 297.661 -3.17194 -2.56616 0
M  V30 3084 H 296.336 -3.83034 -1.62042 0
M  V30 3085 H 294.913 -2.44362 -2.81677 0
M  V30 3086 N 297.098 0.621204 -1.44841 0
M  V30 3087 C 298.323 1.41244 -1.51871 0
M  V30 3088 C 298.748 1.87519 -0.147764 0
M  V30 3089 O 298.106 1.59334 0.865 0
M  V30 3090 C 298.154 2.60221 -2.49634 0
M  V30 3091 O 297.258 3.60395 -2.00473 0
M  V30 3092 H 296.599 0.42223 -0.512463 0
M  V30 3093 H 299.129 0.757305 -1.90069 0
M  V30 3094 H 299.139 3.0764 -2.67996 0
M  V30 3095 H 297.814 2.25887 -3.4921 0
M  V30 3096 H 296.391 3.19717 -1.91925 0
M  V30 3097 N 298.576 1.31904 0.862503 0
M  V30 3098 C 299.506 1.22782 1.98612 0
M  V30 3099 C 300.487 0.113362 1.69722 0
M  V30 3100 O 301.672 0.299218 1.91881 0
M  V30 3101 C 298.802 0.942058 3.34279 0
M  V30 3102 C 297.756 2.0169 3.77499 0
M  V30 3103 C 297.082 1.58369 5.10709 0
M  V30 3104 C 298.382 3.43096 3.93805 0
M  V30 3105 H 300.076 2.16788 2.06502 0
M  V30 3106 H 297.622 1.04366 0.992154 0
M  V30 3107 H 299.575 0.864818 4.1243 0
M  V30 3108 H 298.299 -0.0336603 3.26583 0
M  V30 3109 H 296.958 2.08416 3.01593 0
M  V30 3110 H 296.606 0.595628 4.99461 0
M  V30 3111 H 296.306 2.30279 5.40597 0
M  V30 3112 H 297.83 1.52067 5.91361 0
M  V30 3113 H 299.244 3.39003 4.62331 0
M  V30 3114 H 297.641 4.13288 4.35101 0
M  V30 3115 H 298.711 3.83334 2.96957 0
M  V30 3116 N 300.054 -1.07777 1.14986 0
M  V30 3117 C 301.302 -1.79934 0.920235 0
M  V30 3118 C 301.623 -1.86955 -0.554336 0
M  V30 3119 O 300.893 -1.36731 -1.40291 0
M  V30 3120 H 299.473 -0.666424 0.337473 0
M  V30 3121 H 302.135 -1.3027 1.44968 0
M  V30 3122 H 301.231 -2.82539 1.32583 0
M  V30 3123 N 301.532 -0.945985 -1.26051 0
M  V30 3124 C 302.757 -0.612525 -1.98149 0
M  V30 3125 C 303.182 0.806623 -1.69927 0
M  V30 3126 O 302.54 1.54411 -0.950108 0
M  V30 3127 C 302.588 -0.866981 -3.50023 0
M  V30 3128 O 301.692 0.0585333 -4.12358 0
M  V30 3129 H 301.033 -0.23379 -0.621481 0
M  V30 3130 H 303.563 -1.27023 -1.60395 0
M  V30 3131 H 303.573 -0.789792 -4.00283 0
M  V30 3132 H 302.248 -1.90135 -3.69894 0
M  V30 3133 H 300.825 -0.0701241 -3.72834 0
M  V30 3134 N 303.011 1.40521 -0.713556 0
M  V30 3135 C 303.943 2.29191 -0.0203126 0
M  V30 3136 C 304.956 1.45723 0.725864 0
M  V30 3137 O 306.145 1.69033 0.573581 0
M  V30 3138 C 303.245 3.2395 0.995486 0
M  V30 3139 C 302.418 4.36262 0.315256 0
M  V30 3140 C 301.477 5.11474 1.23616 0
M  V30 3141 O 300.503 5.64606 0.721719 0
M  V30 3142 N 301.705 5.20638 2.56743 0
M  V30 3143 H 304.47 2.89327 -0.781652 0
M  V30 3144 H 302.031 1.51869 -0.561022 0
M  V30 3145 H 304.023 3.71137 1.61368 0
M  V30 3146 H 302.593 2.64995 1.6582 0
M  V30 3147 H 301.813 3.91228 -0.483106 0
M  V30 3148 H 303.101 5.08558 -0.157004 0
M  V30 3149 H 302.499 4.7895 3.01037 0
M  V30 3150 H 301.056 5.71339 3.13712 0
M  V30 3151 N 304.489 0.459591 1.5075 0
M  V30 3152 C 305.452 -0.329093 2.26825 0
M  V30 3153 C 306.452 -0.930481 1.31144 0
M  V30 3154 O 307.642 -0.801453 1.54669 0
M  V30 3155 C 304.774 -1.46768 3.07688 0
M  V30 3156 H 305.967 0.337924 2.9799 0
M  V30 3157 H 303.52 0.213336 1.54837 0
M  V30 3158 H 304.255 -2.17009 2.40993 0
M  V30 3159 H 304.04 -1.04238 3.77991 0
M  V30 3160 H 305.53 -2.02433 3.65254 0
M  V30 3161 N 305.967 -1.56429 0.191757 0
M  V30 3162 C 306.9 -2.14829 -0.76967 0
M  V30 3163 C 307.878 -1.08405 -1.2119 0
M  V30 3164 O 309.062 -1.36498 -1.30002 0
M  V30 3165 C 306.189 -2.70446 -2.03903 0
M  V30 3166 C 305.235 -3.89428 -1.7392 0
M  V30 3167 S 306.068 -5.28048 -0.890265 0
M  V30 3168 C 307.224 -5.87085 -2.16984 0
M  V30 3169 H 307.457 -2.96042 -0.273204 0
M  V30 3170 H 304.99 -1.54383 -0.0231975 0
M  V30 3171 H 306.948 -3.03134 -2.76803 0
M  V30 3172 H 305.609 -1.89281 -2.50662 0
M  V30 3173 H 304.802 -4.26742 -2.68155 0
M  V30 3174 H 304.404 -3.57732 -1.09103 0
M  V30 3175 H 306.696 -6.01244 -3.12269 0
M  V30 3176 H 307.639 -6.83747 -1.84108 0
M  V30 3177 H 308.047 -5.15663 -2.29678 0
M  V30 3178 N 307.445 0.0818655 -1.57387 0
M  V30 3179 C 308.377 1.12484 -1.997 0
M  V30 3180 C 309.39 1.35564 -0.90146 0
M  V30 3181 O 310.579 1.33982 -1.17945 0
M  V30 3182 C 307.679 2.47778 -2.31213 0
M  V30 3183 C 306.852 2.44793 -3.62485 0
M  V30 3184 C 305.911 3.62117 -3.81782 0
M  V30 3185 O 304.937 3.44005 -4.53486 0
M  V30 3186 N 306.139 4.82094 -3.23367 0
M  V30 3187 H 308.904 0.764585 -2.89783 0
M  V30 3188 H 306.465 0.270664 -1.59621 0
M  V30 3189 H 308.457 3.24891 -2.41304 0
M  V30 3190 H 307.027 2.75843 -1.4707 0
M  V30 3191 H 306.247 1.53134 -3.6324 0
M  V30 3192 H 307.535 2.39889 -4.48699 0
M  V30 3193 H 306.933 4.99713 -2.65148 0
M  V30 3194 H 305.49 5.56753 -3.38923 0
M  V30 3195 N 308.923 1.53595 0.353017 0
M  V30 3196 C 309.856 1.7572 1.45594 0
M  V30 3197 C 310.834 0.605961 1.50887 0
M  V30 3198 O 312.018 0.840023 1.68748 0
M  V30 3199 C 309.145 1.84732 2.83887 0
M  V30 3200 C 308.191 3.06808 2.96262 0
M  V30 3201 S 309.024 4.66065 2.63711 0
M  V30 3202 C 310.18 4.77943 4.04131 0
M  V30 3203 H 310.413 2.68994 1.26608 0
M  V30 3204 H 307.946 1.44343 0.548117 0
M  V30 3205 H 309.904 1.9061 3.63563 0
M  V30 3206 H 308.565 0.92488 3.00175 0
M  V30 3207 H 307.758 3.09761 3.97573 0
M  V30 3208 H 307.36 2.99108 2.24523 0
M  V30 3209 H 309.652 4.5877 4.98534 0
M  V30 3210 H 310.595 5.80022 4.06177 0
M  V30 3211 H 311.003 4.06472 3.91715 0
M  V30 3212 N 310.401 -0.613514 1.45168 0
M  V30 3213 C 311.311 -1.75296 1.55912 0
M  V30 3214 C 312.327 -1.68244 0.443856 0
M  V30 3215 O 313.503 -1.88706 0.70371 0
M  V30 3216 C 310.568 -3.1174 1.5172 0
M  V30 3217 C 309.629 -3.30291 2.74238 0
M  V30 3218 C 308.862 -4.60226 2.70236 0
M  V30 3219 O 309.085 -5.42168 1.77229 0
M  V30 3220 O 308.019 -4.81361 3.61352 0
M  V30 3221 H 311.845 -1.69183 2.52212 0
M  V30 3222 H 309.43 -0.776886 1.27612 0
M  V30 3223 H 311.312 -3.93044 1.51968 0
M  V30 3224 H 309.987 -3.18357 0.585697 0
M  V30 3225 H 308.894 -2.48598 2.79553 0
M  V30 3226 H 310.227 -3.28547 3.66494 0
M  V30 3227 N 311.879 -1.3236 -0.855495 0
M  V30 3228 C 313.295 -1.11332 -1.14356 0
M  V30 3229 C 313.495 0.106751 -2.01217 0
M  V30 3230 O 312.551 0.791891 -2.39761 0
M  V30 3231 C 313.864 -2.39237 -1.82171 0
M  V30 3232 C 315.412 -2.44986 -1.9481 0
M  V30 3233 C 315.887 -3.7281 -2.66039 0
M  V30 3234 N 317.378 -3.73787 -2.73565 0
M  V30 3235 C 318.113 -4.69394 -3.29327 0
M  V30 3236 N 317.609 -5.75367 -3.85907 0
M  V30 3237 N 319.402 -4.56893 -3.27423 0
M  V30 3238 H 311.553 -2.10586 -0.277027 0
M  V30 3239 H 313.816 -0.929701 -0.185364 0
M  V30 3240 H 313.522 -3.28431 -1.25802 0
M  V30 3241 H 313.396 -2.50134 -2.82335 0
M  V30 3242 H 315.783 -1.56252 -2.50338 0
M  V30 3243 H 315.864 -2.38043 -0.936448 0
M  V30 3244 H 315.508 -4.61918 -2.11174 0
M  V30 3245 H 315.438 -3.77024 -3.67642 0
M  V30 3246 H 317.929 -2.97189 -2.33424 0
M  V30 3247 H 318.242 -6.44378 -4.26611 0
M  V30 3248 H 316.587 -5.79123 -3.84242 0
M  V30 3249 H 319.778 -3.73269 -2.82467 0
M  V30 3250 H 319.951 -5.31577 -3.7058 0
M  V30 3251 N 313.357 1.07166 -1.15556 0
M  V30 3252 C 314.304 2.14417 -0.854055 0
M  V30 3253 C 315.274 1.64965 0.193806 0
M  V30 3254 O 316.459 1.90703 0.0609443 0
M  V30 3255 C 313.599 3.43304 -0.351574 0
M  V30 3256 C 312.712 4.06537 -1.46123 0
M  V30 3257 C 311.847 5.23266 -0.914677 0
M  V30 3258 C 310.886 5.78464 -2.00114 0
M  V30 3259 N 310.023 6.86521 -1.47083 0
M  V30 3260 H 314.863 2.39548 -1.77259 0
M  V30 3261 H 312.4 1.17543 -0.884425 0
M  V30 3262 H 314.358 4.17179 -0.0419409 0
M  V30 3263 H 312.988 3.18419 0.530037 0
M  V30 3264 H 312.04 3.30297 -1.88701 0
M  V30 3265 H 313.352 4.43567 -2.28144 0
M  V30 3266 H 312.506 6.04131 -0.557698 0
M  V30 3267 H 311.245 4.87658 -0.0636583 0
M  V30 3268 H 310.25 4.96243 -2.36692 0
M  V30 3269 H 311.475 6.16126 -2.85597 0
M  V30 3270 H 309.421 6.52849 -0.642198 0
M  V30 3271 H 309.338 7.22446 -2.22729 0
M  V30 3272 H 310.606 7.71087 -1.14215 0
M  V30 3273 N 314.835 0.952656 1.25548 0
M  V30 3274 C 315.782 0.47008 2.25962 0
M  V30 3275 C 316.752 -0.476384 1.59122 0
M  V30 3276 O 317.937 -0.39007 1.8677 0
M  V30 3277 C 315.077 -0.247881 3.44209 0
M  V30 3278 C 314.19 0.735591 4.25691 0
M  V30 3279 C 313.325 -0.0047306 5.312 0
M  V30 3280 C 312.364 0.969805 6.04368 0
M  V30 3281 N 311.501 0.260486 7.01617 0
M  V30 3282 H 316.341 1.33126 2.66611 0
M  V30 3283 H 313.878 0.66765 1.31076 0
M  V30 3284 H 315.836 -0.680695 4.1161 0
M  V30 3285 H 314.466 -1.07312 3.0444 0
M  V30 3286 H 313.518 1.28689 3.57971 0
M  V30 3287 H 314.83 1.47934 4.76358 0
M  V30 3288 H 313.984 -0.496275 6.04667 0
M  V30 3289 H 312.723 -0.781282 4.81401 0
M  V30 3290 H 311.728 1.47237 5.29718 0
M  V30 3291 H 312.953 1.74655 6.56256 0
M  V30 3292 H 310.899 -0.497364 6.54112 0
M  V30 3293 H 310.816 0.943362 7.50091 0
M  V30 3294 H 312.084 -0.209587 7.79218 0
M  V30 3295 N 316.313 -1.40141 0.720998 0
M  V30 3296 C 317.538 -2.05618 0.271258 0
M  V30 3297 C 317.963 -1.53978 -1.08039 0
M  V30 3298 O 317.321 -0.677463 -1.68167 0
M  V30 3299 C 317.369 -3.59609 0.267197 0
M  V30 3300 O 316.473 -4.05526 -0.749814 0
M  V30 3301 H 315.814 -0.651904 0.126162 0
M  V30 3302 H 318.344 -1.79439 0.982997 0
M  V30 3303 H 318.354 -4.0786 0.106744 0
M  V30 3304 H 317.029 -3.96559 1.25354 0
M  V30 3305 H 315.606 -3.68722 -0.556644 0
M  V30 3306 N 317.792 -0.46758 -1.50504 0
M  V30 3307 C 318.724 0.364655 -2.26281 0
M  V30 3308 C 319.737 0.960151 -1.31472 0
M  V30 3309 O 320.926 0.849153 -1.57008 0
M  V30 3310 C 318.026 1.52509 -3.02645 0
M  V30 3311 C 317.199 1.04302 -4.24782 0
M  V30 3312 C 316.258 2.07709 -4.8347 0
M  V30 3313 O 315.284 1.65913 -5.44483 0
M  V30 3314 N 316.486 3.40485 -4.70159 0
M  V30 3315 H 319.251 -0.28495 -2.98342 0
M  V30 3316 H 316.812 -0.298163 -1.59131 0
M  V30 3317 H 318.804 2.21371 -3.38787 0
M  V30 3318 H 317.374 2.07945 -2.33404 0
M  V30 3319 H 316.594 0.180393 -3.93787 0
M  V30 3320 H 317.882 0.698798 -5.03978 0
M  V30 3321 H 317.28 3.77155 -4.21629 0
M  V30 3322 H 315.837 4.05156 -5.1058 0
M  V30 3323 N 319.27 1.56325 -0.20005 0
M  V30 3324 C 320.22 2.15939 0.731743 0
M  V30 3325 C 321.204 1.10154 1.17281 0
M  V30 3326 O 322.396 1.36203 1.13038 0
M  V30 3327 C 319.525 2.82614 1.94895 0
M  V30 3328 C 318.611 3.95596 1.52855 0
M  V30 3329 N 319.002 4.99118 0.819418 0
M  V30 3330 C 317.3 4.07288 1.81748 0
M  V30 3331 C 318.001 5.78513 0.608053 0
M  V30 3332 N 316.977 5.31117 1.15828 0
M  V30 3333 H 320.779 2.9334 0.181285 0
M  V30 3334 H 318.293 1.624 -0.000452172 0
M  V30 3335 H 320.29 3.23718 2.62702 0
M  V30 3336 H 318.95 2.06702 2.50408 0
M  V30 3337 H 319.961 5.15723 0.47436 0
M  V30 3338 H 316.638 3.42509 2.38734 0
M  V30 3339 H 318.028 6.71885 0.0451619 0
M  V30 3340 N 320.748 -0.0735177 1.57428 0
M  V30 3341 C 321.996 -0.771472 1.86796 0
M  V30 3342 C 322.317 -1.78201 0.791804 0
M  V30 3343 O 321.587 -1.95074 -0.179718 0
M  V30 3344 H 320.167 -0.28791 0.689287 0
M  V30 3345 H 322.829 -0.0500161 1.94836 0
M  V30 3346 H 321.925 -1.28874 2.8425 0
M  V30 3347 N 322.226 -1.5378 -0.344866 0
M  V30 3348 C 323.189 -1.80981 -1.40637 0
M  V30 3349 C 324.189 -0.680816 -1.45676 0
M  V30 3350 O 325.379 -0.949095 -1.46075 0
M  V30 3351 C 322.511 -1.95063 -2.79577 0
M  V30 3352 H 323.704 -2.75803 -1.17783 0
M  V30 3353 H 321.257 -1.45173 -0.579181 0
M  V30 3354 H 321.992 -1.02379 -3.07716 0
M  V30 3355 H 321.777 -2.77198 -2.77315 0
M  V30 3356 H 323.267 -2.17629 -3.56409 0
M  V30 3357 N 323.704 0.605807 -1.45491 0
M  V30 3358 C 324.952 1.36207 -1.49305 0
M  V30 3359 C 325.273 1.94519 -0.136863 0
M  V30 3360 O 324.543 1.77261 0.833983 0
M  V30 3361 H 323.123 0.50565 -0.549843 0
M  V30 3362 H 325.785 0.711239 -1.81459 0
M  V30 3363 H 324.881 2.18058 -2.23287 0
M  V30 3364 N 325.182 1.32811 0.848464 0
M  V30 3365 C 326.407 1.26882 1.6406 0
M  V30 3366 C 326.832 -0.15913 1.87426 0
M  V30 3367 O 326.19 -1.11258 1.43148 0
M  V30 3368 C 326.238 2.03997 2.97351 0
M  V30 3369 O 325.342 1.39201 3.88197 0
M  V30 3370 H 324.683 0.436982 0.499943 0
M  V30 3371 H 327.213 1.75224 1.0563 0
M  V30 3372 H 327.223 2.14403 3.47124 0
M  V30 3373 H 325.898 3.0783 2.79666 0
M  V30 3374 H 324.475 1.37381 3.46671 0
M  V30 3375 N 326.66 -1.06551 1.16123 0
M  V30 3376 C 327.885 -1.83544 0.965735 0
M  V30 3377 C 328.31 -1.81843 -0.481102 0
M  V30 3378 O 327.668 -1.21732 -1.34354 0
M  V30 3379 C 327.716 -3.28169 1.49457 0
M  V30 3380 O 326.82 -4.0643 0.699157 0
M  V30 3381 H 326.161 -0.568026 0.343864 0
M  V30 3382 H 328.691 -1.34362 1.54299 0
M  V30 3383 H 328.701 -3.78992 1.51092 0
M  V30 3384 H 327.376 -3.28722 2.54784 0
M  V30 3385 H 325.953 -3.65216 0.7531 0
M  V30 3386 N 328.138 -0.959301 -1.25041 0
M  V30 3387 C 329.384 -0.617525 -1.9317 0
M  V30 3388 C 329.717 0.843981 -1.74902 0
M  V30 3389 O 328.992 1.60615 -1.09696 0
M  V30 3390 C 329.275 -0.982736 -3.46431 0
M  V30 3391 C 329.128 -2.50032 -3.73904 0
M  V30 3392 C 330.447 -0.511176 -4.37121 0
M  V30 3393 H 327.566 -0.22582 -0.701552 0
M  V30 3394 H 330.208 -1.19679 -1.4757 0
M  V30 3395 H 328.358 -0.489806 -3.854 0
M  V30 3396 H 330.03 -3.06737 -3.44544 0
M  V30 3397 H 328.273 -2.93598 -3.19348 0
M  V30 3398 H 328.944 -2.70635 -4.81103 0
M  V30 3399 H 331.42 -0.934075 -4.0548 0
M  V30 3400 H 330.296 -0.795361 -5.43107 0
M  V30 3401 H 330.557 0.588834 -4.38161 0
M  V30 3402 N 329.616 1.39756 -0.72842 0
M  V30 3403 C 330.864 2.00248 -0.272946 0
M  V30 3404 C 331.185 1.58077 1.14178 0
M  V30 3405 O 330.455 0.826014 1.77634 0
M  V30 3406 H 329.035 0.740554 -0.0979247 0
M  V30 3407 H 331.697 1.70903 -0.936912 0
M  V30 3408 H 330.793 3.10495 -0.316142 0
M  V30 3409 N 331.094 0.475555 1.50254 0
M  V30 3410 C 332.371 -0.139685 1.95101 0
M  V30 3411 C 332.751 -1.56555 1.41611 0
M  V30 3412 O 332.099 -2.19956 0.618993 0
M  V30 3413 C 332.309 -0.0784298 3.48912 0
M  V30 3414 C 333.657 -0.265095 4.23772 0
M  V30 3415 O 334.681 -0.154808 3.55863 0
M  V30 3416 O 333.54 -0.488327 5.44314 0
M  V30 3417 H 330.634 -0.109236 0.819754 0
M  V30 3418 H 333.18 0.536276 1.61004 0
M  V30 3419 H 331.952 0.916918 3.80405 0
M  V30 3420 H 331.575 -0.795655 3.89558 0
M  V30 3421 N 332.573 -1.56217 0.208337 0
M  V30 3422 C 333.536 -2.18455 -0.693557 0
M  V30 3423 C 334.536 -1.14268 -1.13135 0
M  V30 3424 O 335.726 -1.39577 -1.0423 0
M  V30 3425 C 332.858 -2.79727 -1.94848 0
M  V30 3426 H 334.051 -2.99519 -0.15114 0
M  V30 3427 H 331.604 -1.56245 -0.041287 0
M  V30 3428 H 332.339 -2.02497 -2.53309 0
M  V30 3429 H 332.124 -3.56009 -1.64316 0
M  V30 3430 H 333.614 -3.27475 -2.59133 0
M  V30 3431 N 334.051 0.0651679 -1.57465 0
M  V30 3432 C 335.276 0.779605 -1.9219 0
M  V30 3433 C 335.701 1.69988 -0.805333 0
M  V30 3434 O 335.059 1.79685 0.241435 0
M  V30 3435 C 335.107 1.54364 -3.2589 0
M  V30 3436 O 334.211 2.65474 -3.1559 0
M  V30 3437 H 333.552 0.212249 -0.629163 0
M  V30 3438 H 336.082 0.0314294 -2.04576 0
M  V30 3439 H 336.092 1.92146 -3.59922 0
M  V30 3440 H 334.767 0.868457 -4.06732 0
M  V30 3441 H 333.344 2.30501 -2.93128 0
M  V30 3442 N 335.529 1.53961 0.336706 0
M  V30 3443 C 336.945 1.44378 0.680241 0
M  V30 3444 C 337.145 0.606034 1.9217 0
M  V30 3445 O 336.201 0.099688 2.52303 0
M  V30 3446 C 337.514 2.87945 0.8665 0
M  V30 3447 C 339.062 2.97763 0.964682 0
M  V30 3448 C 339.537 4.42453 1.18321 0
M  V30 3449 N 341.028 4.46008 1.25025 0
M  V30 3450 C 341.763 5.55102 1.43697 0
M  V30 3451 N 341.259 6.7419 1.59498 0
M  V30 3452 N 343.052 5.42727 1.463 0
M  V30 3453 H 335.203 2.06918 -0.479455 0
M  V30 3454 H 337.466 0.935634 -0.152619 0
M  V30 3455 H 337.172 3.51691 0.0256937 0
M  V30 3456 H 337.046 3.33293 1.76623 0
M  V30 3457 H 339.433 2.34153 1.796 0
M  V30 3458 H 339.514 2.55766 0.041708 0
M  V30 3459 H 339.158 5.06645 0.356788 0
M  V30 3460 H 339.088 4.82048 2.11985 0
M  V30 3461 H 341.579 3.60196 1.14312 0
M  V30 3462 H 341.892 7.53095 1.734 0
M  V30 3463 H 340.237 6.77123 1.56621 0
M  V30 3464 H 343.428 4.48647 1.33543 0
M  V30 3465 H 343.601 6.27806 1.6051 0
M  V30 3466 N 337.007 -0.598083 1.45811 0
M  V30 3467 C 338.418 -1.18011 1.44673 0
M  V30 3468 C 338.769 -1.95378 0.179364 0
M  V30 3469 O 337.894 -2.04124 -0.718509 0
M  V30 3470 C 338.489 -2.14677 2.62105 0
M  V30 3471 C 337.048 -2.68236 2.64057 0
M  V30 3472 C 336.195 -1.43816 2.37091 0
M  V30 3473 H 339.146 -0.38686 1.53913 0
M  V30 3474 H 339.167 -2.97878 2.36746 0
M  V30 3475 H 338.679 -1.5834 3.5433 0
M  V30 3476 H 336.78 -3.28486 1.75864 0
M  V30 3477 H 336.893 -3.12021 3.63566 0
M  V30 3478 H 335.257 -1.731 1.86838 0
M  V30 3479 H 336.04 -0.893333 3.31473 0
M  V30 3480 N 338.485 -1.33259 -0.841409 0
M  V30 3481 C 339.896 -1.22066 -1.41269 0
M  V30 3482 C 340.247 0.161479 -1.95534 0
M  V30 3483 O 339.372 1.06094 -1.88608 0
M  V30 3484 C 339.967 -2.20996 -2.568 0
M  V30 3485 C 338.526 -2.13649 -3.09888 0
M  V30 3486 C 337.673 -2.08623 -1.82679 0
M  V30 3487 H 340.624 -1.44895 -0.647395 0
M  V30 3488 H 340.645 -1.81621 -3.34356 0
M  V30 3489 H 340.157 -3.2158 -2.17274 0
M  V30 3490 H 338.258 -1.16359 -3.53965 0
M  V30 3491 H 338.371 -3.04079 -3.70234 0
M  V30 3492 H 336.735 -1.54061 -2.02824 0
M  V30 3493 H 337.518 -3.1101 -1.45353 0
M  V30 3494 N 339.963 1.05934 -1.16686 0
M  V30 3495 C 341.193 1.82226 -0.973515 0
M  V30 3496 C 341.601 1.8297 0.481532 0
M  V30 3497 O 340.944 1.25009 1.34604 0
M  V30 3498 C 341.006 3.29897 -1.42858 0
M  V30 3499 C 340.67 3.52849 -2.90425 0
M  V30 3500 C 341.667 3.45595 -3.88407 0
M  V30 3501 C 339.352 3.80053 -3.28428 0
M  V30 3502 C 341.346 3.65217 -5.22394 0
M  V30 3503 C 339.033 3.99325 -4.62583 0
M  V30 3504 C 340.031 3.91905 -5.59374 0
M  V30 3505 O 339.719 4.10647 -6.91104 0
M  V30 3506 H 339.451 0.581314 -0.345036 0
M  V30 3507 H 342.005 1.3453 -1.55212 0
M  V30 3508 H 340.235 3.78472 -0.793477 0
M  V30 3509 H 341.924 3.87692 -1.20207 0
M  V30 3510 H 342.69 3.24564 -3.60393 0
M  V30 3511 H 338.569 3.84936 -2.53664 0
M  V30 3512 H 342.113 3.59341 -5.9793 0
M  V30 3513 H 338.01 4.19846 -4.90306 0
M  V30 3514 H 338.778 4.27915 -6.97733 0
M  V30 3515 N 341.441 0.965919 1.2453 0
M  V30 3516 C 342.857 0.67216 1.44756 0
M  V30 3517 C 343.057 -0.766609 1.86347 0
M  V30 3518 O 342.113 -1.5407 2.00047 0
M  V30 3519 C 343.426 1.65473 2.51076 0
M  V30 3520 C 344.974 1.66716 2.64905 0
M  V30 3521 C 345.449 2.63766 3.74421 0
M  V30 3522 N 346.94 2.62198 3.81846 0
M  V30 3523 C 347.675 3.33966 4.66106 0
M  V30 3524 N 347.171 4.15245 5.54566 0
M  V30 3525 N 348.964 3.22799 4.60171 0
M  V30 3526 H 341.115 1.89553 0.958293 0
M  V30 3527 H 343.378 0.815979 0.482579 0
M  V30 3528 H 343.084 2.68296 2.27399 0
M  V30 3529 H 342.958 1.4261 3.49202 0
M  V30 3530 H 345.345 0.646057 2.87941 0
M  V30 3531 H 345.426 1.93642 1.67142 0
M  V30 3532 H 345.07 3.6601 3.52135 0
M  V30 3533 H 345 2.34121 4.71694 0
M  V30 3534 H 347.491 2.032 3.18619 0
M  V30 3535 H 347.804 4.66898 6.15814 0
M  V30 3536 H 346.149 4.1934 5.54237 0
M  V30 3537 H 349.34 2.58764 3.90075 0
M  V30 3538 H 349.513 3.78994 5.25612 0
M  V30 3539 N 342.919 -1.39368 0.735821 0
M  V30 3540 C 344.167 -2.00101 0.283562 0
M  V30 3541 C 344.488 -1.5868 -1.13338 0
M  V30 3542 O 343.758 -0.835423 -1.77193 0
M  V30 3543 H 342.338 -0.740024 0.101851 0
M  V30 3544 H 345 -1.70404 0.945962 0
M  V30 3545 H 344.096 -3.10323 0.332604 0
M  V30 3546 N 344.397 -0.483516 -1.5 0
M  V30 3547 C 345.813 -0.138404 -1.58999 0
M  V30 3548 C 346.013 1.35597 -1.4905 0
M  V30 3549 O 345.069 2.13039 -1.35539 0
M  V30 3550 C 346.382 -0.699658 -2.92447 0
M  V30 3551 C 347.93 -0.664195 -3.05872 0
M  V30 3552 C 348.405 -1.20321 -4.41913 0
M  V30 3553 N 349.896 -1.16315 -4.48358 0
M  V30 3554 C 350.631 -1.55058 -5.52037 0
M  V30 3555 N 350.127 -2.01311 -6.62907 0
M  V30 3556 N 351.92 -1.46584 -5.42651 0
M  V30 3557 H 344.071 -1.45529 -1.5471 0
M  V30 3558 H 346.334 -0.60258 -0.731848 0
M  V30 3559 H 346.04 -1.747 -3.05242 0
M  V30 3560 H 345.914 -0.150194 -3.76901 0
M  V30 3561 H 348.301 0.374272 -2.92717 0
M  V30 3562 H 348.382 -1.25061 -2.23144 0
M  V30 3563 H 348.026 -2.24037 -4.55818 0
M  V30 3564 H 347.956 -0.592896 -5.23252 0
M  V30 3565 H 350.447 -0.824058 -3.68806 0
M  V30 3566 H 350.76 -2.2899 -7.38095 0
M  V30 3567 H 349.105 -2.05273 -6.63994 0
M  V30 3568 H 352.296 -1.10281 -4.54924 0
M  V30 3569 H 352.469 -1.77103 -6.23329 0
M  V30 3570 N 345.875 1.56104 -0.216619 0
M  V30 3571 C 347.1 2.0301 0.424462 0
M  V30 3572 C 347.525 1.0955 1.52907 0
M  V30 3573 O 346.883 0.0827914 1.81111 0
M  V30 3574 C 346.931 3.4819 0.937883 0
M  V30 3575 O 346.035 3.57865 2.04955 0
M  V30 3576 H 345.376 0.656925 0.0966755 0
M  V30 3577 H 347.906 2.01859 -0.33381 0
M  V30 3578 H 347.916 3.88413 1.24897 0
M  V30 3579 H 346.591 4.15699 0.129387 0
M  V30 3580 H 345.168 3.29527 1.74546 0
M  V30 3581 N 347.353 -0.0568162 1.57498 0
M  V30 3582 C 348.578 -0.769402 1.92601 0
M  V30 3583 C 349.003 -1.69559 0.814336 0
M  V30 3584 O 348.361 -1.79811 -0.231903 0
M  V30 3585 C 348.409 -1.52634 3.26704 0
M  V30 3586 O 347.513 -2.63797 3.16994 0
M  V30 3587 H 346.854 -0.208909 0.63028 0
M  V30 3588 H 349.384 -0.0205798 2.0459 0
M  V30 3589 H 349.394 -1.90234 3.60936 0
M  V30 3590 H 348.069 -0.846875 4.07186 0
M  V30 3591 H 346.646 -2.28943 2.94346 0
M  V30 3592 N 348.832 -1.54138 -0.328536 0
M  V30 3593 C 349.742 -1.86192 -1.42723 0
M  V30 3594 C 350.758 -0.753382 -1.56844 0
M  V30 3595 O 351.934 -1.04718 -1.72035 0
M  V30 3596 C 348.999 -2.07824 -2.77507 0
M  V30 3597 C 348.06 -3.31641 -2.72603 0
M  V30 3598 C 347.293 -3.52232 -4.00959 0
M  V30 3599 O 347.516 -2.7636 -4.9898 0
M  V30 3600 O 346.45 -4.45699 -4.0452 0
M  V30 3601 H 350.276 -2.79608 -1.18547 0
M  V30 3602 H 347.861 -1.3998 -0.522104 0
M  V30 3603 H 349.743 -2.23411 -3.57303 0
M  V30 3604 H 348.418 -1.17596 -3.01584 0
M  V30 3605 H 347.325 -3.21444 -1.91376 0
M  V30 3606 H 348.658 -4.2191 -2.53481 0
M  V30 3607 N 350.31 0.590341 -1.46126 0
M  V30 3608 C 351.535 1.37991 -1.54833 0
M  V30 3609 C 351.96 1.87163 -0.187506 0
M  V30 3610 O 351.318 1.61133 0.831008 0
M  V30 3611 C 351.366 2.54867 -2.55098 0
M  V30 3612 O 350.47 3.56061 -2.08073 0
M  V30 3613 H 349.811 0.411265 -0.521303 0
M  V30 3614 H 352.341 0.716819 -1.91632 0
M  V30 3615 H 352.351 3.01886 -2.74461 0
M  V30 3616 H 351.026 2.18429 -3.53923 0
M  V30 3617 H 349.603 3.15574 -1.98664 0
M  V30 3618 N 351.788 1.33704 0.83433 0
M  V30 3619 C 353.013 1.28615 1.62705 0
M  V30 3620 C 353.438 -0.139242 1.87584 0
M  V30 3621 O 352.796 -1.09734 1.4432 0
M  V30 3622 C 352.844 2.07139 2.95171 0
M  V30 3623 O 351.948 1.4331 3.86699 0
M  V30 3624 H 351.289 0.44226 0.49528 0
M  V30 3625 H 353.819 1.76335 1.03766 0
M  V30 3626 H 353.829 2.18073 3.44831 0
M  V30 3627 H 352.504 3.10779 2.76386 0
M  V30 3628 H 351.081 1.4105 3.45195 0
M  V30 3629 N 353.266 -1.05314 1.17247 0
M  V30 3630 C 354.506 -1.79869 0.970898 0
M  V30 3631 C 354.87 -1.85594 -0.491808 0
M  V30 3632 O 356.071 -2.56229 -0.812409 0
M  V30 3633 C 354.342 -3.19937 1.59295 0
M  V30 3634 S 355.901 -4.10986 1.53741 0
M  V30 3635 H 352.719 -0.61949 0.348931 0
M  V30 3636 H 355.321 -1.26368 1.49169 0
M  V30 3637 H 354.025 -3.13372 2.65003 0
M  V30 3638 H 353.556 -3.78515 1.07191 0
M  V30 3639 H 355.571 -4.93203 0.544537 0
M  V30 3640 N 354.744 -0.972509 -1.24016 0
M  V30 3641 C 355.992 -0.635776 -1.91839 0
M  V30 3642 C 356.313 0.832312 -1.76345 0
M  V30 3643 O 355.583 1.5946 -1.13795 0
M  V30 3644 H 354.163 -0.232157 -0.710009 0
M  V30 3645 H 356.825 -1.23462 -1.50809 0
M  V30 3646 H 355.921 -0.880545 -2.99421 0
M  V30 3647 N 356.222 1.38976 -0.743202 0
M  V30 3648 C 357.468 2.0064 -0.295189 0
M  V30 3649 C 357.801 1.5885 1.11716 0
M  V30 3650 O 357.076 0.821181 1.76315 0
M  V30 3651 C 357.359 3.578 -0.406318 0
M  V30 3652 C 357.212 4.09586 -1.85903 0
M  V30 3653 C 358.531 4.39616 0.206439 0
M  V30 3654 H 355.65 0.728935 -0.108733 0
M  V30 3655 H 358.292 1.65067 -0.940897 0
M  V30 3656 H 356.442 3.88235 0.143419 0
M  V30 3657 H 358.114 3.89837 -2.46627 0
M  V30 3658 H 356.357 3.6284 -2.3776 0
M  V30 3659 H 357.028 5.18708 -1.888 0
M  V30 3660 H 359.504 4.15273 -0.262283 0
M  V30 3661 H 358.38 5.48812 0.0983819 0
M  V30 3662 H 358.641 4.22754 1.2935 0
M  V30 3663 N 357.7 0.491464 1.49741 0
M  V30 3664 C 358.977 -0.118984 1.95238 0
M  V30 3665 C 359.357 -1.55044 1.43264 0
M  V30 3666 O 358.705 -2.19287 0.642287 0
M  V30 3667 C 358.915 -0.0414187 3.48975 0
M  V30 3668 C 360.263 -0.220133 4.24029 0
M  V30 3669 O 361.287 -0.117055 3.56008 0
M  V30 3670 O 360.146 -0.430567 5.44801 0
M  V30 3671 H 357.24 -0.100536 0.820866 0
M  V30 3672 H 359.786 0.553322 1.60426 0
M  V30 3673 H 358.558 0.957214 3.79412 0
M  V30 3674 H 358.181 -0.754292 3.9038 0
M  V30 3675 N 359.178 -1.55987 0.224894 0
M  V30 3676 C 360.426 -1.97998 -0.405099 0
M  V30 3677 C 360.747 -1.11387 -1.60056 0
M  V30 3678 O 360.017 -0.191645 -1.9496 0
M  V30 3679 H 358.597 -0.731235 -0.152658 0
M  V30 3680 H 361.259 -1.92279 0.318567 0
M  V30 3681 H 360.355 -3.03463 -0.729167 0
M  V30 3682 N 360.656 0.0484629 -1.57525 0
M  V30 3683 C 361.933 0.777447 -1.79486 0
M  V30 3684 C 362.313 1.94597 -0.818251 0
M  V30 3685 O 361.661 2.28047 0.143767 0
M  V30 3686 C 361.871 1.22864 -3.26658 0
M  V30 3687 C 363.219 1.65251 -3.91123 0
M  V30 3688 O 364.243 1.32372 -3.3069 0
M  V30 3689 O 363.102 2.26207 -4.97486 0
M  V30 3690 H 360.196 0.374357 -0.737419 0
M  V30 3691 H 362.742 0.0267359 -1.69679 0
M  V30 3692 H 361.514 0.393589 -3.89316 0
M  V30 3693 H 361.137 2.03996 -3.41279 0
M  V30 3694 N 362.134 1.5431 0.320358 0
M  V30 3695 C 363.364 1.7638 1.07582 0
M  V30 3696 C 363.772 0.513944 1.82086 0
M  V30 3697 O 363.115 -0.525123 1.76035 0
M  V30 3698 C 363.177 2.9055 2.1171 0
M  V30 3699 C 362.841 4.2934 1.56575 0
M  V30 3700 C 363.838 5.10077 1.00586 0
M  V30 3701 C 361.523 4.75893 1.60722 0
M  V30 3702 C 363.517 6.35477 0.494756 0
M  V30 3703 C 361.204 6.0126 1.09224 0
M  V30 3704 C 362.202 6.80886 0.53696 0
M  V30 3705 O 361.89 8.03894 0.0297371 0
M  V30 3706 H 361.622 0.592369 0.325692 0
M  V30 3707 H 364.176 2.02019 0.37116 0
M  V30 3708 H 362.406 2.60489 2.85801 0
M  V30 3709 H 364.095 3.00373 2.73003 0
M  V30 3710 H 364.861 4.75265 0.966869 0
M  V30 3711 H 360.74 4.13957 2.02882 0
M  V30 3712 H 364.284 6.97574 0.0606842 0
M  V30 3713 H 360.181 6.35562 1.12831 0
M  V30 3714 H 360.949 8.18372 0.14486 0
M  V30 3715 N 363.613 -0.582584 1.46437 0
M  V30 3716 C 364.523 -1.71949 1.59595 0
M  V30 3717 C 365.539 -1.67264 0.479443 0
M  V30 3718 O 366.715 -1.87171 0.743579 0
M  V30 3719 C 363.78 -3.08452 1.58298 0
M  V30 3720 C 362.841 -3.244 2.81182 0
M  V30 3721 C 362.074 -4.54391 2.79937 0
M  V30 3722 O 362.297 -5.38287 1.8869 0
M  V30 3723 O 361.231 -4.73588 3.71481 0
M  V30 3724 H 365.057 -1.63795 2.55744 0
M  V30 3725 H 362.642 -0.749643 1.29231 0
M  V30 3726 H 364.524 -3.89732 1.60271 0
M  V30 3727 H 363.199 -3.17043 0.653094 0
M  V30 3728 H 362.106 -2.42613 2.84763 0
M  V30 3729 H 363.439 -3.20699 3.7338 0
M  V30 3730 N 365.091 -1.34144 -0.827227 0
M  V30 3731 C 366.368 -1.16844 -1.56865 0
M  V30 3732 C 366.748 0.260654 -2.09485 0
M  V30 3733 O 366.096 1.26138 -1.9053 0
M  V30 3734 C 366.306 -2.21939 -2.6934 0
M  V30 3735 C 367.654 -2.56695 -3.3822 0
M  V30 3736 O 368.678 -2.20695 -2.79593 0
M  V30 3737 O 367.537 -3.18518 -4.44082 0
M  V30 3738 H 364.631 -0.452669 -0.692112 0
M  V30 3739 H 367.177 -1.45763 -0.868973 0
M  V30 3740 H 365.949 -3.17882 -2.28182 0
M  V30 3741 H 365.572 -1.94172 -3.46962 0
M  V30 3742 N 366.569 1.04691 -1.17803 0
M  V30 3743 C 367.532 2.10724 -0.901545 0
M  V30 3744 C 368.532 1.6042 0.110437 0
M  V30 3745 O 369.722 1.7377 -0.122303 0
M  V30 3746 C 366.854 3.39084 -0.351409 0
M  V30 3747 H 368.047 2.36686 -1.84174 0
M  V30 3748 H 365.6 1.21015 -0.98919 0
M  V30 3749 H 366.335 3.18782 0.59569 0
M  V30 3750 H 366.12 3.76909 -1.08083 0
M  V30 3751 H 367.61 4.17227 -0.176451 0
M  V30 3752 N 368.047 0.979072 1.23499 0
M  V30 3753 C 368.957 0.526431 2.28617 0
M  V30 3754 C 369.973 -0.418126 1.68901 0
M  V30 3755 O 371.149 -0.288372 1.99325 0
M  V30 3756 C 368.214 -0.165235 3.46306 0
M  V30 3757 C 367.275 0.82056 4.21385 0
M  V30 3758 C 366.508 0.161807 5.33455 0
M  V30 3759 O 366.731 -1.04742 5.60701 0
M  V30 3760 O 365.665 0.859708 5.95729 0
M  V30 3761 H 369.491 1.4006 2.69475 0
M  V30 3762 H 367.076 0.746643 1.29405 0
M  V30 3763 H 368.958 -0.553287 4.17752 0
M  V30 3764 H 367.633 -1.01419 3.07402 0
M  V30 3765 H 366.54 1.25929 3.52268 0
M  V30 3766 H 367.873 1.63828 4.64135 0
M  V30 3767 N 369.525 -1.3858 0.750561 0
M  V30 3768 C 370.455 -2.33102 0.136237 0
M  V30 3769 C 371.436 -1.54713 -0.706965 0
M  V30 3770 O 372.621 -1.83043 -0.648769 0
M  V30 3771 C 369.751 -3.38882 -0.760017 0
M  V30 3772 C 368.705 -4.27995 -0.0197785 0
M  V30 3773 C 368.031 -5.24605 -1.03408 0
M  V30 3774 C 369.331 -5.09554 1.14684 0
M  V30 3775 H 371.025 -2.84726 0.925822 0
M  V30 3776 H 368.571 -1.36898 0.446654 0
M  V30 3777 H 370.524 -4.0397 -1.19943 0
M  V30 3778 H 369.248 -2.85734 -1.58189 0
M  V30 3779 H 367.907 -3.64409 0.400184 0
M  V30 3780 H 367.555 -4.67746 -1.84994 0
M  V30 3781 H 367.255 -5.85081 -0.543464 0
M  V30 3782 H 368.779 -5.9257 -1.47288 0
M  V30 3783 H 370.193 -5.67899 0.785118 0
M  V30 3784 H 368.59 -5.7925 1.56812 0
M  V30 3785 H 369.66 -4.4347 1.96118 0
M  V30 3786 N 371.003 -0.499398 -1.49478 0
M  V30 3787 C 371.951 0.293604 -2.3074 0
M  V30 3788 C 372.945 0.96427 -1.39277 0
M  V30 3789 O 374.151 0.892141 -1.56336 0
M  V30 3790 H 370.526 0.113541 -0.743379 0
M  V30 3791 H 372.497 -0.411772 -2.95545 0
M  V30 3792 C 371.246 1.3462 -3.20582 0
M  V30 3793 H 370.569 0.83954 -3.90886 0
M  V30 3794 H 372.009 1.87308 -3.80384 0
M  V30 3795 C 370.468 2.36351 -2.40083 0
M  V30 3796 O 370.998 3.422 -2.10385 0
M  V30 3797 N 369.204 2.0878 -2.02137 0
M  V30 3798 H 368.751 1.22723 -2.26488 0
M  V30 3799 H 368.709 2.77075 -1.48583 0
M  V30 3800 N 372.481 1.55866 -0.233164 0
M  V30 3801 C 373.892 1.847 0.272554 0
M  V30 3802 C 374.243 1.15477 1.58617 0
M  V30 3803 O 373.368 0.42841 2.12117 0
M  V30 3804 C 373.963 3.35071 0.501299 0
M  V30 3805 C 372.522 3.6418 0.951304 0
M  V30 3806 C 371.669 2.77292 0.0208209 0
M  V30 3807 H 374.62 1.52005 -0.456074 0
M  V30 3808 H 374.641 3.55906 1.34577 0
M  V30 3809 H 374.153 3.85424 -0.454936 0
M  V30 3810 H 372.254 3.19293 1.92049 0
M  V30 3811 H 372.367 4.72071 0.817675 0
M  V30 3812 H 370.731 2.49131 0.529723 0
M  V30 3813 H 371.514 3.30448 -0.93054 0
M  V30 3814 N 373.959 -0.0401083 1.57549 0
M  V30 3815 C 375.375 -0.395556 1.54621 0
M  V30 3816 C 375.575 -1.77281 0.957799 0
M  V30 3817 O 374.631 -2.45888 0.574031 0
M  V30 3818 C 375.944 -0.307535 2.99123 0
M  V30 3819 C 377.492 -0.385425 3.10618 0
M  V30 3820 C 377.967 -0.326973 4.56831 0
M  V30 3821 N 379.458 -0.386102 4.61588 0
M  V30 3822 C 380.193 -0.363591 5.72246 0
M  V30 3823 N 379.689 -0.29402 6.92176 0
M  V30 3824 N 381.482 -0.412503 5.60584 0
M  V30 3825 H 373.633 0.861325 1.94152 0
M  V30 3826 H 375.896 0.326445 0.890021 0
M  V30 3827 H 375.602 0.638461 3.45856 0
M  V30 3828 H 375.476 -1.10552 3.60636 0
M  V30 3829 H 377.863 -1.32185 2.63839 0
M  V30 3830 H 377.944 0.44171 2.51957 0
M  V30 3831 H 377.588 0.605738 5.04275 0
M  V30 3832 H 377.518 -1.17207 5.13391 0
M  V30 3833 H 380.009 -0.442832 3.75296 0
M  V30 3834 H 380.322 -0.28164 7.72287 0
M  V30 3835 H 378.667 -0.260232 6.94513 0
M  V30 3836 H 381.858 -0.464769 4.65787 0
M  V30 3837 H 382.031 -0.391492 6.46816 0
M  V30 3838 N 375.437 -1.54477 -0.31217 0
M  V30 3839 C 376.684 -1.73227 -1.04875 0
M  V30 3840 C 377.012 -0.512042 -1.87639 0
M  V30 3841 O 376.267 0.506131 -1.89042 0
M  V30 3842 C 376.566 -2.967 -1.99258 0
M  V30 3843 C 376.232 -4.30974 -1.32559 0
M  V30 3844 C 374.894 -4.67477 -1.141 0
M  V30 3845 C 377.246 -5.14258 -0.847835 0
M  V30 3846 C 374.574 -5.84852 -0.465326 0
M  V30 3847 C 376.926 -6.32327 -0.185931 0
M  V30 3848 C 375.59 -6.67499 0.0107077 0
M  V30 3849 H 374.86 -0.633881 -0.383765 0
M  V30 3850 H 377.507 -1.88727 -0.324731 0
M  V30 3851 H 375.812 -2.75935 -2.7815 0
M  V30 3852 H 377.509 -3.08401 -2.563 0
M  V30 3853 H 374.099 -4.02262 -1.4793 0
M  V30 3854 H 378.283 -4.86565 -0.978192 0
M  V30 3855 H 373.539 -6.10654 -0.301883 0
M  V30 3856 H 377.713 -6.96135 0.192211 0
M  V30 3857 H 375.34 -7.58306 0.536287 0
M  V30 3858 N 376.915 0.57481 -1.46744 0
M  V30 3859 C 377.845 1.69337 -1.60771 0
M  V30 3860 C 378.826 1.63825 -0.457736 0
M  V30 3861 O 380.011 1.8172 -0.684947 0
M  V30 3862 C 377.141 3.0798 -1.60517 0
M  V30 3863 C 376.095 3.28327 -2.74564 0
M  V30 3864 C 375.421 4.67578 -2.59373 0
M  V30 3865 C 376.721 3.15398 -4.16319 0
M  V30 3866 H 378.415 1.57853 -2.54407 0
M  V30 3867 H 375.961 0.75799 -1.22436 0
M  V30 3868 H 377.914 3.86061 -1.68923 0
M  V30 3869 H 376.638 3.20381 -0.634305 0
M  V30 3870 H 375.297 2.52649 -2.65639 0
M  V30 3871 H 374.945 4.76755 -1.60353 0
M  V30 3872 H 374.645 4.82144 -3.35873 0
M  V30 3873 H 376.169 5.47817 -2.69682 0
M  V30 3874 H 377.583 3.83315 -4.26313 0
M  V30 3875 H 375.98 3.41482 -4.93468 0
M  V30 3876 H 377.05 2.12372 -4.3592 0
M  V30 3877 N 378.394 1.34581 0.820102 0
M  V30 3878 C 379.341 1.2639 1.93117 0
M  V30 3879 C 380.311 0.138554 1.65521 0
M  V30 3880 O 381.496 0.320004 1.88097 0
M  V30 3881 C 378.636 1.02812 3.29429 0
M  V30 3882 C 377.749 2.24146 3.693 0
M  V30 3883 C 376.884 1.93829 4.94574 0
M  V30 3884 C 375.923 3.1129 5.27034 0
M  V30 3885 N 375.06 2.80838 6.43486 0
M  V30 3886 H 379.9 2.21408 1.99455 0
M  V30 3887 H 377.437 1.10077 0.975784 0
M  V30 3888 H 379.395 0.871788 4.0799 0
M  V30 3889 H 378.025 0.114612 3.22596 0
M  V30 3890 H 377.077 2.50691 2.86109 0
M  V30 3891 H 378.389 3.11899 3.89257 0
M  V30 3892 H 377.543 1.74948 5.80929 0
M  V30 3893 H 376.282 1.03341 4.76626 0
M  V30 3894 H 375.287 3.30764 4.39175 0
M  V30 3895 H 376.512 4.02561 5.4692 0
M  V30 3896 H 374.458 1.92929 6.26988 0
M  V30 3897 H 374.375 3.62123 6.63629 0
M  V30 3898 H 375.643 2.65467 7.32903 0
M  V30 3899 N 379.872 -1.04064 1.18357 0
M  V30 3900 C 381.149 -1.74252 0.888581 0
M  V30 3901 C 381.529 -2.02138 -0.60856 0
M  V30 3902 O 380.877 -1.66656 -1.56327 0
M  V30 3903 C 381.087 -3.0277 1.73584 0
M  V30 3904 C 382.435 -3.76506 1.96286 0
M  V30 3905 O 383.459 -3.12668 1.70637 0
M  V30 3906 O 382.318 -4.91243 2.39464 0
M  V30 3907 H 379.412 -0.758271 0.330082 0
M  V30 3908 H 381.958 -1.1013 1.2911 0
M  V30 3909 H 380.73 -2.78299 2.75073 0
M  V30 3910 H 380.353 -3.74631 1.33183 0
M  V30 3911 N 381.35 -0.985608 -1.22978 0
M  V30 3912 C 382.298 -0.522631 -2.26652 0
M  V30 3913 C 383.292 0.422998 -1.64034 0
M  V30 3914 O 384.498 0.296319 -1.77544 0
M  V30 3915 H 380.873 -0.150597 -0.736766 0
M  V30 3916 H 382.844 -1.40863 -2.63059 0
M  V30 3917 C 381.593 0.154238 -3.47358 0
M  V30 3918 H 380.916 -0.564329 -3.95797 0
M  V30 3919 H 382.356 0.441744 -4.21693 0
M  V30 3920 C 380.815 1.38719 -3.07016 0
M  V30 3921 O 381.345 2.48307 -3.15764 0
M  V30 3922 N 379.551 1.25975 -2.61875 0
M  V30 3923 H 379.098 0.368068 -2.54957 0
M  V30 3924 H 379.056 2.08578 -2.3525 0
M  V30 3925 N 382.828 1.3818 -0.7579 0
M  V30 3926 C 383.758 2.33027 -0.148597 0
M  V30 3927 C 384.739 1.55085 0.69875 0
M  V30 3928 O 385.924 1.83384 0.639053 0
M  V30 3929 C 383.054 3.3928 0.742034 0
M  V30 3930 C 382.008 4.28 -0.00291946 0
M  V30 3931 C 381.334 5.25146 1.00625 0
M  V30 3932 C 382.634 5.08938 -1.17385 0
M  V30 3933 H 384.328 2.84231 -0.940909 0
M  V30 3934 H 381.874 1.36659 -0.453908 0
M  V30 3935 H 383.827 4.046 1.17799 0
M  V30 3936 H 382.551 2.86569 1.56671 0
M  V30 3937 H 381.21 3.64192 -0.419504 0
M  V30 3938 H 380.858 4.68721 1.8251 0
M  V30 3939 H 380.558 5.85361 0.512428 0
M  V30 3940 H 382.082 5.93342 1.44143 0
M  V30 3941 H 383.496 5.67474 -0.815224 0
M  V30 3942 H 381.893 5.7841 -1.59882 0
M  V30 3943 H 382.963 4.42424 -1.98468 0
M  V30 3944 N 384.306 0.507319 1.49211 0
M  V30 3945 C 385.555 -0.0368315 2.01666 0
M  V30 3946 C 385.868 -1.37459 1.39156 0
M  V30 3947 O 387.074 -2.00579 1.82976 0
M  V30 3948 C 385.53 -0.116089 3.59713 0
M  V30 3949 C 385.138 1.2154 4.31198 0
M  V30 3950 C 386.882 -0.610268 4.2009 0
M  V30 3951 C 384.789 1.09796 5.81119 0
M  V30 3952 H 383.719 -0.0175376 0.753796 0
M  V30 3953 H 386.37 0.647691 1.71689 0
M  V30 3954 H 384.752 -0.8652 3.86433 0
M  V30 3955 H 385.926 1.9783 4.16173 0
M  V30 3956 H 384.241 1.64352 3.82593 0
M  V30 3957 H 386.838 -0.715742 5.29888 0
M  V30 3958 H 387.181 -1.61064 3.8388 0
M  V30 3959 H 387.714 0.0824916 3.97714 0
M  V30 3960 H 384.453 2.0728 6.21864 0
M  V30 3961 H 383.973 0.376058 5.9862 0
M  V30 3962 H 385.652 0.779281 6.4229 0
M  V30 3963 N 385.784 -1.5574 0.241426 0
M  V30 3964 C 387.061 -1.90704 -0.434881 0
M  V30 3965 C 387.441 -1.16145 -1.76277 0
M  V30 3966 O 386.789 -0.277152 -2.26813 0
M  V30 3967 C 386.999 -3.43657 -0.608343 0
M  V30 3968 C 388.347 -4.14806 -0.906725 0
M  V30 3969 O 389.371 -3.49366 -0.694408 0
M  V30 3970 O 388.23 -5.30548 -1.31075 0
M  V30 3971 H 385.324 -0.793592 -0.23268 0
M  V30 3972 H 387.87 -1.67288 0.285086 0
M  V30 3973 H 386.642 -3.89927 0.327505 0
M  V30 3974 H 386.265 -3.72918 -1.37906 0
M  V30 3975 N 387.262 0.0317525 -1.57568 0
M  V30 3976 C 388.225 1.01783 -2.0536 0
M  V30 3977 C 389.225 1.29203 -0.957253 0
M  V30 3978 O 390.415 1.24251 -1.22095 0
M  V30 3979 C 387.547 2.35137 -2.46827 0
M  V30 3980 H 388.74 0.605062 -2.93733 0
M  V30 3981 H 386.293 0.278514 -1.53799 0
M  V30 3982 H 387.028 2.81168 -1.61602 0
M  V30 3983 H 386.813 2.16566 -3.26866 0
M  V30 3984 H 388.303 3.05938 -2.84239 0
M  V30 3985 N 388.74 1.54641 0.303973 0
M  V30 3986 C 389.688 1.86137 1.39484 0
M  V30 3987 C 390.682 0.734854 1.52631 0
M  V30 3988 O 391.888 0.918803 1.54784 0
M  V30 3989 H 388.263 0.590324 0.465856 0
M  V30 3990 H 390.234 2.77324 1.10154 0
M  V30 3991 C 388.983 2.12274 2.75382 0
M  V30 3992 H 388.306 2.98429 2.66046 0
M  V30 3993 H 389.746 2.38254 3.5073 0
M  V30 3994 C 388.205 0.920365 3.24085 0
M  V30 3995 O 388.735 0.139377 4.01458 0
M  V30 3996 N 386.941 0.726566 2.81371 0
M  V30 3997 H 386.488 1.36332 2.18567 0
M  V30 3998 H 386.446 -0.0763799 3.14307 0
M  V30 3999 N 390.218 -0.567019 1.47046 0
M  V30 4000 C 391.466 -1.322 1.52864 0
M  V30 4001 C 391.787 -1.94088 0.188388 0
M  V30 4002 O 391.057 -1.7941 -0.786693 0
M  V30 4003 H 389.637 -0.490894 0.563056 0
M  V30 4004 H 392.299 -0.662879 1.83281 0
M  V30 4005 H 391.395 -2.12062 2.2899 0
M  V30 4006 N 391.696 -1.35014 -0.812953 0
M  V30 4007 C 392.944 -1.27678 -1.56661 0
M  V30 4008 C 393.265 0.150359 -1.94419 0
M  V30 4009 O 392.535 1.08532 -1.63088 0
M  V30 4010 H 391.115 -0.469602 -0.580933 0
M  V30 4011 H 393.777 -1.69043 -0.970076 0
M  V30 4012 H 392.873 -1.88833 -2.48492 0
M  V30 4013 N 393.175 1.03435 -1.18907 0
M  V30 4014 C 394.4 1.80919 -1.01406 0
M  V30 4015 C 394.825 1.83055 0.432721 0
M  V30 4016 O 394.183 1.25252 1.31079 0
M  V30 4017 C 394.231 3.24091 -1.58105 0
M  V30 4018 O 393.335 4.04434 -0.806669 0
M  V30 4019 H 392.676 0.558709 -0.358803 0
M  V30 4020 H 395.206 1.30223 -1.57807 0
M  V30 4021 H 395.216 3.74853 -1.61087 0
M  V30 4022 H 393.891 3.21851 -2.6341 0
M  V30 4023 H 392.468 3.63091 -0.849666 0
M  V30 4024 N 394.653 0.992116 1.22453 0
M  V30 4025 C 396.069 0.702713 1.43297 0
M  V30 4026 C 396.269 -0.726909 1.87932 0
M  V30 4027 O 395.325 -1.49792 2.0327 0
M  V30 4028 C 396.638 1.70762 2.47509 0
M  V30 4029 C 398.186 1.72298 2.61309 0
M  V30 4030 C 398.661 2.71649 3.68742 0
M  V30 4031 N 400.152 2.70239 3.76199 0
M  V30 4032 C 400.887 3.43778 4.58917 0
M  V30 4033 N 400.383 4.26914 5.45633 0
M  V30 4034 N 402.176 3.32487 4.5322 0
M  V30 4035 H 394.327 1.91543 0.917871 0
M  V30 4036 H 396.59 0.826031 0.465162 0
M  V30 4037 H 396.296 2.73059 2.21657 0
M  V30 4038 H 396.17 1.49985 3.46099 0
M  V30 4039 H 398.557 0.706989 2.86506 0
M  V30 4040 H 398.638 1.97143 1.62997 0
M  V30 4041 H 398.282 3.73397 3.44292 0
M  V30 4042 H 398.212 2.44074 4.66622 0
M  V30 4043 H 400.703 2.09912 3.14237 0
M  V30 4044 H 401.016 4.79855 6.05771 0
M  V30 4045 H 399.361 4.31002 5.45218 0
M  V30 4046 H 402.552 2.6698 3.84499 0
M  V30 4047 H 402.725 3.90058 5.17454 0
M  V30 4048 N 396.131 -1.37776 0.765217 0
M  V30 4049 C 397.542 -1.82521 0.392819 0
M  V30 4050 C 397.893 -1.63789 -1.08017 0
M  V30 4051 O 397.018 -1.14542 -1.83601 0
M  V30 4052 C 397.613 -3.31358 0.706214 0
M  V30 4053 C 396.172 -3.74406 0.386952 0
M  V30 4054 C 395.319 -2.60394 0.953422 0
M  V30 4055 H 398.27 -1.2634 0.960412 0
M  V30 4056 H 398.291 -3.80498 -0.0114706 0
M  V30 4057 H 397.803 -3.44959 1.77833 0
M  V30 4058 H 395.904 -3.66377 -0.678112 0
M  V30 4059 H 396.017 -4.70749 0.890636 0
M  V30 4060 H 394.381 -2.51878 0.378064 0
M  V30 4061 H 395.164 -2.76791 2.03081 0
M  V30 4062 N 397.609 -0.515225 -1.4894 0
M  V30 4063 C 399.02 -0.0710067 -1.86565 0
M  V30 4064 C 399.371 1.34733 -1.42623 0
M  V30 4065 O 398.496 2.00653 -0.810379 0
M  V30 4066 C 399.091 -0.122083 -3.3858 0
M  V30 4067 C 397.65 0.266863 -3.75453 0
M  V30 4068 C 396.797 -0.488376 -2.72966 0
M  V30 4069 H 399.748 -0.727266 -1.41055 0
M  V30 4070 H 399.769 0.669818 -3.74558 0
M  V30 4071 H 399.281 -1.15448 -3.70531 0
M  V30 4072 H 397.382 1.30196 -3.49113 0
M  V30 4073 H 397.495 -0.0624811 -4.79059 0
M  V30 4074 H 395.859 0.0635622 -2.54621 0
M  V30 4075 H 396.642 -1.52113 -3.07761 0
M  V30 4076 N 399.087 1.5561 -0.249682 0
M  V30 4077 C 400.333 2.00044 0.367952 0
M  V30 4078 C 400.688 1.1349 1.55363 0
M  V30 4079 O 399.981 0.191079 1.90645 0
M  V30 4080 C 400.175 3.4775 0.824887 0
M  V30 4081 C 400.004 4.48596 -0.314973 0
M  V30 4082 C 398.774 4.99077 -0.790555 0
M  V30 4083 C 400.972 5.0144 -1.14291 0
M  V30 4084 N 398.954 5.83675 -1.90254 0
M  V30 4085 C 400.325 5.83236 -2.10322 0
M  V30 4086 C 402.38 4.83736 -1.17916 0
M  V30 4087 C 401.083 6.49217 -3.09692 0
M  V30 4088 C 403.109 5.50497 -2.16117 0
M  V30 4089 C 402.471 6.32084 -3.10884 0
M  V30 4090 H 398.57 0.775512 0.100522 0
M  V30 4091 H 401.154 1.91193 -0.367896 0
M  V30 4092 H 399.325 3.56994 1.53002 0
M  V30 4093 H 401.057 3.79056 1.4177 0
M  V30 4094 H 397.812 4.72119 -0.374218 0
M  V30 4095 H 398.236 6.30671 -2.46137 0
M  V30 4096 H 402.878 4.20286 -0.460352 0
M  V30 4097 H 400.596 7.11832 -3.8252 0
M  V30 4098 H 404.182 5.38752 -2.19631 0
M  V30 4099 H 403.062 6.82832 -3.8563 0
M  V30 4100 N 400.565 -0.0233959 1.57583 0
M  V30 4101 C 401.976 -0.56927 1.77809 0
M  V30 4102 C 402.327 -1.75284 0.881472 0
M  V30 4103 O 401.452 -2.1626 0.0777805 0
M  V30 4104 C 402.047 -1.03949 3.22459 0
M  V30 4105 C 400.606 -1.53084 3.43864 0
M  V30 4106 C 399.753 -0.471454 2.73263 0
M  V30 4107 H 402.704 0.202825 1.57399 0
M  V30 4108 H 402.725 -1.90661 3.29285 0
M  V30 4109 H 402.237 -0.177865 3.87692 0
M  V30 4110 H 400.338 -2.41414 2.83814 0
M  V30 4111 H 400.451 -1.57443 4.52491 0
M  V30 4112 H 398.815 -0.927788 2.37201 0
M  V30 4113 H 399.598 0.380808 3.41181 0
M  V30 4114 N 402.043 -1.548 -0.295768 0
M  V30 4115 C 403.454 -1.65274 -0.868411 0
M  V30 4116 C 403.805 -0.56481 -1.87894 0
M  V30 4117 O 402.93 0.29767 -2.14343 0
M  V30 4118 C 403.525 -2.99603 -1.58188 0
M  V30 4119 C 402.084 -3.12181 -2.10286 0
M  V30 4120 C 401.231 -2.6098 -0.93727 0
M  V30 4121 H 404.182 -1.58534 -0.0726422 0
M  V30 4122 H 404.203 -2.91319 -2.44772 0
M  V30 4123 H 403.715 -3.78764 -0.846151 0
M  V30 4124 H 401.816 -2.3775 -2.8689 0
M  V30 4125 H 401.929 -4.18415 -2.33379 0
M  V30 4126 H 400.293 -2.17564 -1.32431 0
M  V30 4127 H 401.076 -3.42623 -0.215414 0
M  V30 4128 N 403.521 0.559213 -1.47345 0
M  V30 4129 C 404.451 1.67622 -1.62558 0
M  V30 4130 C 405.432 1.63331 -0.475087 0
M  V30 4131 O 406.617 1.80983 -0.704182 0
M  V30 4132 C 403.747 3.0626 -1.63774 0
M  V30 4133 C 402.701 3.25397 -2.7803 0
M  V30 4134 C 402.027 4.64801 -2.64318 0
M  V30 4135 C 403.327 3.10965 -4.19641 0
M  V30 4136 H 405.021 1.55146 -2.56067 0
M  V30 4137 H 402.567 0.744961 -1.23233 0
M  V30 4138 H 404.52 3.84247 -1.73008 0
M  V30 4139 H 403.244 3.1969 -0.66825 0
M  V30 4140 H 401.903 2.49817 -2.68304 0
M  V30 4141 H 401.551 4.75028 -1.65401 0
M  V30 4142 H 401.251 4.78555 -3.40968 0
M  V30 4143 H 402.775 5.44926 -2.75478 0
M  V30 4144 H 404.189 3.78772 -4.30354 0
M  V30 4145 H 402.586 3.36229 -4.97062 0
M  V30 4146 H 403.656 2.07736 -4.38148 0
M  V30 4147 N 404.999 1.35443 0.805782 0
M  V30 4148 C 405.909 1.30546 1.94923 0
M  V30 4149 C 406.925 0.210233 1.72725 0
M  V30 4150 O 408.101 0.43975 1.9654 0
M  V30 4151 C 405.166 1.07782 3.29521 0
M  V30 4152 C 404.227 2.26625 3.64609 0
M  V30 4153 C 403.46 2.04938 4.92784 0
M  V30 4154 O 403.683 1.01624 5.61274 0
M  V30 4155 O 402.617 2.9232 5.26149 0
M  V30 4156 H 406.443 2.26779 2.02002 0
M  V30 4157 H 404.028 1.15823 0.943682 0
M  V30 4158 H 405.91 0.969392 4.10098 0
M  V30 4159 H 404.585 0.146003 3.23371 0
M  V30 4160 H 403.492 2.43033 2.84404 0
M  V30 4161 H 404.825 3.18257 3.75464 0
M  V30 4162 N 406.477 -1.02803 1.19454 0
M  V30 4163 C 407.707 -1.79581 1.02149 0
M  V30 4164 C 408.115 -1.84182 -0.432851 0
M  V30 4165 O 407.458 -1.28534 -1.31243 0
M  V30 4166 C 407.52 -3.25993 1.51554 0
M  V30 4167 C 407.184 -3.45025 2.99678 0
M  V30 4168 C 408.181 -3.35175 3.97434 0
M  V30 4169 C 405.866 -3.71212 3.38389 0
M  V30 4170 C 407.86 -3.51238 5.31893 0
M  V30 4171 C 405.547 -3.8692 4.73008 0
M  V30 4172 C 406.545 -3.76936 5.69569 0
M  V30 4173 O 406.233 -3.92179 7.01748 0
M  V30 4174 H 405.965 -0.571962 0.360327 0
M  V30 4175 H 408.519 -1.30367 1.58725 0
M  V30 4176 H 406.749 -3.76235 0.893543 0
M  V30 4177 H 408.438 -3.84368 1.30444 0
M  V30 4178 H 409.204 -3.14895 3.68872 0
M  V30 4179 H 405.083 -3.78075 2.6378 0
M  V30 4180 H 408.627 -3.43362 6.07247 0
M  V30 4181 H 404.524 -4.06699 5.01265 0
M  V30 4182 H 405.292 -4.09265 7.08833 0
M  V30 4183 N 407.956 -0.998596 -1.21925 0
M  V30 4184 C 408.888 -0.511879 -2.23411 0
M  V30 4185 C 409.901 0.396094 -1.57908 0
M  V30 4186 O 411.09 0.197316 -1.77406 0
M  V30 4187 C 408.19 0.276802 -3.37768 0
M  V30 4188 C 407.363 -0.628687 -4.32858 0
M  V30 4189 C 406.422 0.109272 -5.26087 0
M  V30 4190 O 405.448 -0.507237 -5.66935 0
M  V30 4191 N 406.65 1.38983 -5.63617 0
M  V30 4192 H 409.415 -1.38457 -2.658 0
M  V30 4193 H 406.976 -0.873981 -1.36283 0
M  V30 4194 H 408.968 0.77928 -3.97126 0
M  V30 4195 H 407.538 1.05063 -2.94415 0
M  V30 4196 H 406.758 -1.31175 -3.71735 0
M  V30 4197 H 408.046 -1.24514 -4.93329 0
M  V30 4198 H 407.444 1.91194 -5.32411 0
M  V30 4199 H 406.001 1.83739 -6.25367 0
M  V30 4200 N 409.434 1.37368 -0.772513 0
M  V30 4201 C 410.845 1.8231 -0.402493 0
M  V30 4202 C 411.196 1.6436 1.07146 0
M  V30 4203 O 410.321 1.15514 1.82991 0
M  V30 4204 C 410.916 3.30979 -0.723776 0
M  V30 4205 C 409.475 3.74195 -0.406802 0
M  V30 4206 C 408.622 2.59885 -0.967218 0
M  V30 4207 H 411.573 1.25829 -0.967099 0
M  V30 4208 H 411.594 3.80499 -0.00870832 0
M  V30 4209 H 411.106 3.44011 -1.7966 0
M  V30 4210 H 409.207 3.66732 0.658673 0
M  V30 4211 H 409.32 4.7027 -0.915588 0
M  V30 4212 H 407.684 2.51674 -0.391416 0
M  V30 4213 H 408.467 2.7571 -2.04546 0
M  V30 4214 N 410.912 0.523116 1.48665 0
M  V30 4215 C 412.142 -0.00961724 2.06598 0
M  V30 4216 C 412.55 -1.29333 1.38093 0
M  V30 4217 O 411.893 -1.77846 0.46007 0
M  V30 4218 C 411.955 -0.311135 3.58151 0
M  V30 4219 C 411.619 0.878092 4.48485 0
M  V30 4220 C 412.616 1.77464 4.88674 0
M  V30 4221 C 410.301 1.08315 4.90483 0
M  V30 4222 C 412.295 2.86021 5.69623 0
M  V30 4223 C 409.982 2.17187 5.71203 0
M  V30 4224 C 410.98 3.05873 6.10681 0
M  V30 4225 O 410.668 4.12862 6.89783 0
M  V30 4226 H 410.4 0.0272658 0.67545 0
M  V30 4227 H 412.954 0.726156 1.92136 0
M  V30 4228 H 411.184 -1.10079 3.70701 0
M  V30 4229 H 412.873 -0.785125 3.98234 0
M  V30 4230 H 413.639 1.62813 4.56855 0
M  V30 4231 H 409.518 0.402149 4.59243 0
M  V30 4232 H 413.062 3.55272 6.00356 0
M  V30 4233 H 408.959 2.31824 6.02435 0
M  V30 4234 H 409.727 4.10487 7.08126 0
M  V30 4235 N 412.39 -1.55475 0.257931 0
M  V30 4236 C 413.322 -2.19192 -0.669881 0
M  V30 4237 C 414.335 -1.17148 -1.1305 0
M  V30 4238 O 415.524 -1.43959 -1.05537 0
M  V30 4239 C 412.624 -2.79016 -1.92363 0
M  V30 4240 C 411.797 -4.06586 -1.61265 0
M  V30 4241 C 410.856 -4.50622 -2.7171 0
M  V30 4242 O 409.882 -5.16765 -2.38627 0
M  V30 4243 N 411.084 -4.19325 -4.01431 0
M  V30 4244 H 413.849 -2.99441 -0.124635 0
M  V30 4245 H 411.41 -1.6171 0.0783311 0
M  V30 4246 H 413.402 -3.05427 -2.65511 0
M  V30 4247 H 411.972 -2.0286 -2.37837 0
M  V30 4248 H 411.192 -3.87646 -0.715811 0
M  V30 4249 H 412.48 -4.89737 -1.37967 0
M  V30 4250 H 411.878 -3.66247 -4.31138 0
M  V30 4251 H 410.435 -4.50547 -4.7101 0
M  V30 4252 N 413.868 0.0150385 -1.57593 0
M  V30 4253 C 415.093 0.718067 -1.94573 0
M  V30 4254 C 415.518 1.6734 -0.859005 0
M  V30 4255 O 414.876 1.80362 0.184147 0
M  V30 4256 C 414.924 1.43918 -3.30636 0
M  V30 4257 O 414.028 2.55299 -3.23876 0
M  V30 4258 H 413.369 0.192125 -0.635597 0
M  V30 4259 H 415.899 -0.0336708 -2.04572 0
M  V30 4260 H 415.909 1.80598 -3.65853 0
M  V30 4261 H 414.584 0.738619 -4.09289 0
M  V30 4262 H 413.161 2.21058 -3.00312 0
M  V30 4263 N 415.346 1.54954 0.287554 0
M  V30 4264 C 416.595 1.74081 1.01877 0
M  V30 4265 C 416.908 0.541135 1.87966 0
M  V30 4266 O 418.114 0.614491 2.64455 0
M  V30 4267 C 416.57 3.08042 1.86113 0
M  V30 4268 C 416.178 4.35531 1.04961 0
M  V30 4269 C 417.922 3.36523 2.58752 0
M  V30 4270 C 415.829 5.60538 1.88551 0
M  V30 4271 H 414.759 0.64884 0.384087 0
M  V30 4272 H 417.41 1.81426 0.275101 0
M  V30 4273 H 415.792 2.94696 2.64519 0
M  V30 4274 H 416.966 4.59751 0.31074 0
M  V30 4275 H 415.281 4.14085 0.43843 0
M  V30 4276 H 417.878 4.27122 3.21668 0
M  V30 4277 H 418.221 2.56 3.28283 0
M  V30 4278 H 418.754 3.50901 1.87386 0
M  V30 4279 H 415.493 6.43767 1.23466 0
M  V30 4280 H 415.013 5.40483 2.60074 0
M  V30 4281 H 416.692 5.98297 2.46273 0
M  V30 4282 N 416.824 -0.551391 1.4764 0
M  V30 4283 C 418.054 -1.33163 1.57959 0
M  V30 4284 C 418.462 -1.87785 0.23094 0
M  V30 4285 O 417.805 -1.65996 -0.786825 0
M  V30 4286 C 417.867 -2.53449 2.54958 0
M  V30 4287 C 417.531 -2.20071 4.00522 0
M  V30 4288 C 418.528 -1.77017 4.88836 0
M  V30 4289 C 416.213 -2.31252 4.45901 0
M  V30 4290 C 418.207 -1.4558 6.20552 0
M  V30 4291 C 415.894 -1.99427 5.77644 0
M  V30 4292 C 416.892 -1.56659 6.64791 0
M  V30 4293 O 416.58 -1.25242 7.94084 0
M  V30 4294 H 416.312 -0.412022 0.535923 0
M  V30 4295 H 418.866 -0.674186 1.9402 0
M  V30 4296 H 417.096 -3.22104 2.13976 0
M  V30 4297 H 418.785 -3.15523 2.55343 0
M  V30 4298 H 419.551 -1.67867 4.55023 0
M  V30 4299 H 415.43 -2.63498 3.78272 0
M  V30 4300 H 418.974 -1.12125 6.8853 0
M  V30 4301 H 414.871 -2.08211 6.10998 0
M  V30 4302 H 415.639 -1.38822 8.06642 0
M  V30 4303 N 418.302 -1.35869 -0.798587 0
M  V30 4304 C 419.548 -1.2978 -1.55836 0
M  V30 4305 C 419.881 0.125322 -1.93795 0
M  V30 4306 O 419.156 1.07658 -1.61987 0
M  V30 4307 C 419.439 -2.21188 -2.84162 0
M  V30 4308 C 419.292 -3.72155 -2.52628 0
M  V30 4309 C 420.611 -2.11545 -3.85923 0
M  V30 4310 H 417.73 -0.472769 -0.565383 0
M  V30 4311 H 420.372 -1.66341 -0.918192 0
M  V30 4312 H 418.522 -1.90139 -3.38791 0
M  V30 4313 H 420.194 -4.13682 -2.04121 0
M  V30 4314 H 418.437 -3.92042 -1.85704 0
M  V30 4315 H 419.108 -4.31511 -3.44242 0
M  V30 4316 H 421.584 -2.38855 -3.40716 0
M  V30 4317 H 420.46 -2.77688 -4.73477 0
M  V30 4318 H 420.721 -1.09987 -4.282 0
M  V30 4319 N 419.78 1.02168 -1.19998 0
M  V30 4320 C 421.028 1.75338 -1.00504 0
M  V30 4321 C 421.349 1.89387 0.464506 0
M  V30 4322 O 420.619 1.43268 1.33608 0
M  V30 4323 H 419.199 0.649564 -0.368885 0
M  V30 4324 H 421.861 1.23205 -1.51018 0
M  V30 4325 H 420.957 2.75892 -1.45912 0
M  V30 4326 N 421.258 1.00505 1.21394 0
M  V30 4327 C 422.506 0.686415 1.90086 0
M  V30 4328 C 422.827 -0.785264 1.7849 0
M  V30 4329 O 422.097 -1.56387 1.17983 0
M  V30 4330 H 420.677 0.2509 0.703604 0
M  V30 4331 H 423.339 1.27417 1.47482 0
M  V30 4332 H 422.435 0.959621 2.96981 0
M  V30 4333 N 422.737 -1.36956 0.779787 0
M  V30 4334 C 423.67 -2.27896 0.117681 0
M  V30 4335 C 424.648 -1.46736 -0.700523 0
M  V30 4336 O 425.832 -1.76055 -0.673568 0
M  V30 4337 C 422.959 -3.28136 -0.839296 0
M  V30 4338 C 422.005 -4.26373 -0.10409 0
M  V30 4339 S 422.838 -5.2157 1.21348 0
M  V30 4340 C 423.994 -6.25359 0.260249 0
M  V30 4341 H 424.227 -2.83704 0.888778 0
M  V30 4342 H 421.76 -1.43352 0.57355 0
M  V30 4343 H 423.718 -3.86394 -1.38601 0
M  V30 4344 H 422.379 -2.7126 -1.58356 0
M  V30 4345 H 421.572 -4.97121 -0.82986 0
M  V30 4346 H 421.174 -3.72147 0.371858 0
M  V30 4347 H 423.466 -6.75145 -0.564435 0
M  V30 4348 H 424.409 -7.01885 0.936135 0
M  V30 4349 H 424.817 -5.64345 -0.132127 0
M  V30 4350 N 424.215 -0.530993 -1.48385 0
M  V30 4351 C 425.148 0.278511 -2.26494 0
M  V30 4352 C 426.126 0.943905 -1.32398 0
M  V30 4353 O 427.31 0.968098 -1.61741 0
M  V30 4354 C 424.437 1.39453 -3.08659 0
M  V30 4355 C 423.483 0.840434 -4.18137 0
M  V30 4356 S 424.316 -0.292496 -5.34701 0
M  V30 4357 C 425.472 0.825973 -6.20426 0
M  V30 4358 H 425.705 -0.384365 -2.94805 0
M  V30 4359 H 423.238 -0.316799 -1.51115 0
M  V30 4360 H 425.196 2.03382 -3.56575 0
M  V30 4361 H 423.857 2.02913 -2.3976 0
M  V30 4362 H 423.05 1.67769 -4.75257 0
M  V30 4363 H 422.652 0.277819 -3.72967 0
M  V30 4364 H 424.944 1.72438 -6.55188 0
M  V30 4365 H 425.887 0.292728 -7.07495 0
M  V30 4366 H 426.295 1.10683 -5.53543 0
M  V30 4367 N 425.693 1.55336 -0.266172 0
M  V30 4368 C 426.603 2.2583 0.635458 0
M  V30 4369 C 427.619 1.28106 1.17749 0
M  V30 4370 O 428.795 1.61024 1.20968 0
M  V30 4371 C 425.86 2.95879 1.80712 0
M  V30 4372 C 424.921 4.09059 1.30265 0
M  V30 4373 C 424.154 4.75759 2.41846 0
M  V30 4374 O 424.377 4.41622 3.61007 0
M  V30 4375 O 423.311 5.63888 2.1051 0
M  V30 4376 H 427.137 3.03631 0.0646693 0
M  V30 4377 H 424.722 1.49361 -0.0339177 0
M  V30 4378 H 426.604 3.39932 2.49047 0
M  V30 4379 H 425.279 2.21002 2.36516 0
M  V30 4380 H 424.186 3.69482 0.586019 0
M  V30 4381 H 425.519 4.85811 0.790458 0
M  V30 4382 N 427.171 -0.0066808 1.57599 0
M  V30 4383 C 428.419 -0.691552 1.899 0
M  V30 4384 C 428.74 -1.74682 0.866672 0
M  V30 4385 O 428.01 -1.95661 -0.0968189 0
M  V30 4386 H 426.59 -0.258416 0.700878 0
M  V30 4387 H 429.252 0.0326655 1.94873 0
M  V30 4388 H 428.348 -1.16702 2.8946 0
M  V30 4389 N 428.649 -1.55105 -0.279332 0
M  V30 4390 C 429.559 -1.90638 -1.36727 0
M  V30 4391 C 430.575 -0.802899 -1.54368 0
M  V30 4392 O 431.751 -1.10138 -1.68616 0
M  V30 4393 C 428.816 -2.16547 -2.70755 0
M  V30 4394 C 427.877 -3.40146 -2.61915 0
M  V30 4395 C 427.11 -3.6481 -3.8955 0
M  V30 4396 O 427.333 -2.92095 -4.89935 0
M  V30 4397 O 426.267 -4.58343 -3.90135 0
M  V30 4398 H 430.093 -2.83237 -1.09591 0
M  V30 4399 H 427.678 -1.4157 -0.477306 0
M  V30 4400 H 429.56 -2.34665 -3.50014 0
M  V30 4401 H 428.235 -1.27131 -2.9769 0
M  V30 4402 H 427.142 -3.2737 -1.81052 0
M  V30 4403 H 428.475 -4.29761 -2.3993 0
M  V30 4404 N 430.127 0.543554 -1.4793 0
M  V30 4405 C 431.375 1.29752 -1.54948 0
M  V30 4406 C 431.696 1.93764 -0.219242 0
M  V30 4407 O 430.966 1.80639 0.75805 0
M  V30 4408 H 429.546 0.481874 -0.570795 0
M  V30 4409 H 432.208 0.633636 -1.84312 0
M  V30 4410 H 431.304 2.08392 -2.32334 0
M  V30 4411 N 431.605 1.3629 0.791371 0
M  V30 4412 C 432.552 1.30458 1.90393 0
M  V30 4413 C 433.522 0.173632 1.6519 0
M  V30 4414 O 434.707 0.35983 1.87376 0
M  V30 4415 C 431.847 1.09777 3.27174 0
M  V30 4416 C 430.96 2.31929 3.64462 0
M  V30 4417 C 430.095 2.04276 4.90352 0
M  V30 4418 C 429.134 3.224 5.20312 0
M  V30 4419 N 428.271 2.94424 6.37385 0
M  V30 4420 H 433.111 2.25589 1.94714 0
M  V30 4421 H 430.648 1.12122 0.952216 0
M  V30 4422 H 432.606 0.958133 4.06049 0
M  V30 4423 H 431.236 0.183014 3.22281 0
M  V30 4424 H 430.288 2.56703 2.80727 0
M  V30 4425 H 431.6 3.20085 3.82553 0
M  V30 4426 H 430.754 1.87231 5.77087 0
M  V30 4427 H 429.493 1.13428 4.74326 0
M  V30 4428 H 428.498 3.40005 4.32061 0
M  V30 4429 H 429.723 4.14071 5.38258 0
M  V30 4430 H 427.669 2.06185 6.22755 0
M  V30 4431 H 427.586 3.76118 6.55798 0
M  V30 4432 H 428.854 2.80953 7.27108 0
M  V30 4433 N 433.083 -1.0153 1.20538 0
M  V30 4434 C 434.331 -1.74803 1.01432 0
M  V30 4435 C 434.652 -1.8963 -0.454456 0
M  V30 4436 O 433.922 -1.43975 -1.32846 0
M  V30 4437 H 432.502 -0.647598 0.372324 0
M  V30 4438 H 435.164 -1.22402 1.5167 0
M  V30 4439 H 434.26 -2.75114 1.47373 0
M  V30 4440 N 434.561 -1.01147 -1.20859 0
M  V30 4441 C 435.972 -0.730205 -1.71828 0
M  V30 4442 C 436.323 0.751662 -1.8123 0
M  V30 4443 O 435.448 1.58686 -1.47132 0
M  V30 4444 C 436.043 -1.31885 -3.12077 0
M  V30 4445 C 434.602 -1.08656 -3.60376 0
M  V30 4446 C 433.749 -1.42769 -2.37723 0
M  V30 4447 H 436.7 -1.18158 -1.05945 0
M  V30 4448 H 436.721 -0.706793 -3.73878 0
M  V30 4449 H 436.233 -2.39737 -3.05201 0
M  V30 4450 H 434.334 -0.0254814 -3.72591 0
M  V30 4451 H 434.447 -1.76301 -4.45483 0
M  V30 4452 H 432.811 -0.846603 -2.40218 0
M  V30 4453 H 433.594 -2.51666 -2.33493 0
M  V30 4454 N 436.039 1.36541 -0.78704 0
M  V30 4455 C 436.969 2.32659 -0.197992 0
M  V30 4456 C 437.95 1.56533 0.665697 0
M  V30 4457 O 439.135 1.84698 0.60001 0
M  V30 4458 C 436.265 3.40778 0.669901 0
M  V30 4459 C 435.219 4.27897 -0.0937039 0
M  V30 4460 C 434.545 5.27163 0.894629 0
M  V30 4461 C 435.845 5.06334 -1.28154 0
M  V30 4462 H 437.539 2.82171 -1.00099 0
M  V30 4463 H 435.085 1.35665 -0.482793 0
M  V30 4464 H 437.038 4.07008 1.09191 0
M  V30 4465 H 435.762 2.89827 1.50558 0
M  V30 4466 H 434.421 3.6322 -0.49666 0
M  V30 4467 H 434.069 4.72486 1.72527 0
M  V30 4468 H 433.769 5.86317 0.388149 0
M  V30 4469 H 435.293 5.96266 1.31525 0
M  V30 4470 H 436.707 5.65617 -0.93541 0
M  V30 4471 H 435.104 5.74888 -1.72115 0
M  V30 4472 H 436.174 4.38114 -2.07807 0
M  V30 4473 N 437.518 0.538854 1.48102 0
M  V30 4474 C 438.448 -0.207654 2.32575 0
M  V30 4475 C 439.429 -0.926559 1.4265 0
M  V30 4476 O 440.614 -0.91061 1.71527 0
M  V30 4477 C 437.744 -1.24957 3.24042 0
M  V30 4478 C 436.698 -0.648263 4.23062 0
M  V30 4479 C 436.024 -1.79348 5.03725 0
M  V30 4480 C 437.324 0.385897 5.20872 0
M  V30 4481 H 439.018 0.497534 2.95237 0
M  V30 4482 H 436.564 0.240715 1.41974 0
M  V30 4483 H 438.517 -1.77983 3.81969 0
M  V30 4484 H 437.241 -1.98446 2.59397 0
M  V30 4485 H 435.9 -0.139452 3.66335 0
M  V30 4486 H 435.548 -2.51696 4.35498 0
M  V30 4487 H 435.248 -1.39702 5.70751 0
M  V30 4488 H 436.772 -2.32735 5.64506 0
M  V30 4489 H 438.186 -0.057607 5.73271 0
M  V30 4490 H 436.583 0.700227 5.96001 0
M  V30 4491 H 437.653 1.28848 4.67468 0
M  V30 4492 N 438.996 -1.55193 0.274407 0
M  V30 4493 C 440.412 -1.59401 -0.0797543 0
M  V30 4494 C 440.612 -1.29162 -1.54659 0
M  V30 4495 O 439.668 -1.05215 -2.29534 0
M  V30 4496 C 440.981 -2.99257 0.294238 0
M  V30 4497 C 442.529 -3.12072 0.240796 0
M  V30 4498 C 443.004 -4.54194 0.589218 0
M  V30 4499 N 444.495 -4.60033 0.540744 0
M  V30 4500 C 445.23 -5.68027 0.783147 0
M  V30 4501 N 444.726 -6.8417 1.09013 0
M  V30 4502 N 446.519 -5.57572 0.711993 0
M  V30 4503 H 438.67 -1.73113 1.23067 0
M  V30 4504 H 440.933 -0.807197 0.497129 0
M  V30 4505 H 440.639 -3.26217 1.31435 0
M  V30 4506 H 440.513 -3.75427 -0.365281 0
M  V30 4507 H 442.9 -2.84877 -0.770024 0
M  V30 4508 H 442.981 -2.38117 0.934563 0
M  V30 4509 H 442.625 -4.82115 1.59772 0
M  V30 4510 H 442.555 -5.26448 -0.126331 0
M  V30 4511 H 445.046 -3.76599 0.313327 0
M  V30 4512 H 445.359 -7.6243 1.26178 0
M  V30 4513 H 443.704 -6.85787 1.12789 0
M  V30 4514 H 446.895 -4.65714 0.472014 0
M  V30 4515 H 447.068 -6.41659 0.90429 0
M  V30 4516 N 440.474 -0.00167713 -1.576 0
M  V30 4517 C 441.699 0.69739 -1.95323 0
M  V30 4518 C 442.124 1.6642 -0.876706 0
M  V30 4519 O 441.482 1.80548 0.165007 0
M  V30 4520 C 441.53 1.40403 -3.32144 0
M  V30 4521 O 440.634 2.5185 -3.26566 0
M  V30 4522 H 439.975 0.185373 -0.637599 0
M  V30 4523 H 442.505 -0.0553665 -2.04525 0
M  V30 4524 H 442.515 1.76707 -3.67748 0
M  V30 4525 H 441.19 0.695167 -4.10049 0
M  V30 4526 H 439.767 2.17861 -3.0264 0
M  V30 4527 N 441.952 1.55251 0.271103 0
M  V30 4528 C 442.884 1.84675 1.35749 0
M  V30 4529 C 443.897 0.731366 1.45447 0
M  V30 4530 O 445.086 1.00924 1.4723 0
M  V30 4531 C 442.186 1.99638 2.73857 0
M  V30 4532 C 441.359 3.30312 2.86727 0
M  V30 4533 C 440.418 3.35318 4.05522 0
M  V30 4534 O 439.444 4.08682 3.96191 0
M  V30 4535 N 440.646 2.62857 5.17577 0
M  V30 4536 H 443.411 2.78445 1.10853 0
M  V30 4537 H 440.972 1.55191 0.461218 0
M  V30 4538 H 442.964 2.00355 3.51625 0
M  V30 4539 H 441.534 1.12725 2.91568 0
M  V30 4540 H 440.754 3.42118 1.95829 0
M  V30 4541 H 442.042 4.16488 2.92258 0
M  V30 4542 H 441.44 2.02939 5.28046 0
M  V30 4543 H 439.997 2.69295 5.93568 0
M  V30 4544 N 443.43 -0.535701 1.48216 0
M  V30 4545 C 444.655 -1.32149 1.59848 0
M  V30 4546 C 445.08 -1.86338 0.256842 0
M  V30 4547 O 444.438 -1.64107 -0.770632 0
M  V30 4548 C 444.486 -2.45224 2.64381 0
M  V30 4549 O 443.59 -3.48093 2.21144 0
M  V30 4550 H 442.931 -0.391634 0.536208 0
M  V30 4551 H 445.461 -0.645202 1.94161 0
M  V30 4552 H 445.471 -2.91491 2.85476 0
M  V30 4553 H 444.146 -2.05143 3.61786 0
M  V30 4554 H 442.723 -3.07984 2.10239 0
M  V30 4555 N 444.908 -1.36708 -0.784132 0
M  V30 4556 C 446.136 -1.34398 -1.57305 0
M  V30 4557 C 446.551 0.0735577 -1.88657 0
M  V30 4558 O 445.908 1.03193 -1.50524 0
M  V30 4559 C 445.959 -2.17053 -2.89085 0
M  V30 4560 O 445.68 -3.53281 -2.59083 0
M  V30 4561 C 447.181 -2.22583 -3.83369 0
M  V30 4562 H 444.401 -0.460819 -0.487736 0
M  V30 4563 H 446.945 -1.79879 -0.972819 0
M  V30 4564 H 445.1 -1.75113 -3.45564 0
M  V30 4565 H 445.514 -3.9647 -3.43383 0
M  V30 4566 H 446.988 -2.84763 -4.72878 0
M  V30 4567 H 447.465 -1.23075 -4.21603 0
M  V30 4568 H 448.071 -2.64781 -3.32823 0
M  V30 4569 N 446.386 1.0089 -1.21074 0
M  V30 4570 C 447.611 1.78727 -1.05221 0
M  V30 4571 C 448.036 1.83932 0.393795 0
M  V30 4572 O 447.394 1.28004 1.28393 0
M  V30 4573 C 447.442 3.20665 -1.64944 0
M  V30 4574 O 446.546 4.02632 -0.892273 0
M  V30 4575 H 445.887 0.550973 -0.370574 0
M  V30 4576 H 448.417 1.26847 -1.60534 0
M  V30 4577 H 448.427 3.71352 -1.69002 0
M  V30 4578 H 447.102 3.16191 -2.70177 0
M  V30 4579 H 445.679 3.61207 -0.926492 0
M  V30 4580 N 447.864 1.01787 1.20321 0
M  V30 4581 C 448.774 0.598898 2.26827 0
M  V30 4582 C 449.79 -0.36418 1.70146 0
M  V30 4583 O 450.966 -0.224812 2.00141 0
M  V30 4584 C 448.031 -0.0549769 3.46656 0
M  V30 4585 C 447.092 0.954205 4.18561 0
M  V30 4586 C 446.325 0.331439 5.3267 0
M  V30 4587 O 446.548 -0.86851 5.63749 0
M  V30 4588 O 445.482 1.0488 5.92692 0
M  V30 4589 H 449.308 1.48562 2.64883 0
M  V30 4590 H 446.893 0.787434 1.26964 0
M  V30 4591 H 448.775 -0.420102 4.19301 0
M  V30 4592 H 447.45 -0.915876 3.10473 0
M  V30 4593 H 446.357 1.37072 3.48083 0
M  V30 4594 H 447.69 1.78511 4.58688 0
M  V30 4595 N 449.342 -1.36122 0.79427 0
M  V30 4596 C 450.274 -2.28683 0.153903 0
M  V30 4597 C 451.287 -1.49707 -0.639669 0
M  V30 4598 O 452.476 -1.7209 -0.474054 0
M  V30 4599 C 449.576 -3.29202 -0.804921 0
M  V30 4600 C 448.749 -4.37358 -0.060366 0
M  V30 4601 C 447.808 -5.17811 -0.935849 0
M  V30 4602 O 446.834 -5.67853 -0.391309 0
M  V30 4603 N 448.036 -5.34721 -2.25951 0
M  V30 4604 H 450.801 -2.84278 0.949008 0
M  V30 4605 H 448.362 -1.4834 0.648611 0
M  V30 4606 H 450.354 -3.79914 -1.39455 0
M  V30 4607 H 448.924 -2.74212 -1.50088 0
M  V30 4608 H 448.144 -3.87746 0.710382 0
M  V30 4609 H 449.432 -5.06777 0.45324 0
M  V30 4610 H 448.83 -4.95687 -2.72601 0
M  V30 4611 H 447.387 -5.88657 -2.79867 0
M  V30 4612 N 450.82 -0.546701 -1.47814 0
M  V30 4613 C 451.73 0.21026 -2.33656 0
M  V30 4614 C 452.746 0.922413 -1.47538 0
M  V30 4615 O 453.922 0.893652 -1.80488 0
M  V30 4616 C 450.987 1.23348 -3.24016 0
M  V30 4617 C 450.048 0.529883 -4.26017 0
M  V30 4618 C 449.281 1.50435 -5.12059 0
M  V30 4619 O 449.504 2.73837 -5.00369 0
M  V30 4620 O 448.438 1.03459 -5.92942 0
M  V30 4621 H 452.264 -0.493605 -2.99662 0
M  V30 4622 H 449.849 -0.307427 -1.46203 0
M  V30 4623 H 451.731 1.82438 -3.79861 0
M  V30 4624 H 450.406 1.91945 -2.60651 0
M  V30 4625 H 449.313 -0.101948 -3.73961 0
M  V30 4626 H 450.646 -0.11445 -4.92067 0
M  V30 4627 N 452.299 1.55045 -0.282633 0
M  V30 4628 C 453.246 2.22822 0.601566 0
M  V30 4629 C 454.216 1.20431 1.14392 0
M  V30 4630 O 455.401 1.48996 1.19184 0
M  V30 4631 C 452.541 2.95873 1.77632 0
M  V30 4632 C 451.654 4.12999 1.26711 0
M  V30 4633 C 450.789 4.73676 2.40426 0
M  V30 4634 C 449.828 5.82981 1.86545 0
M  V30 4635 N 448.965 6.3769 2.93762 0
M  V30 4636 H 453.805 2.97995 0.0169528 0
M  V30 4637 H 451.342 1.471 -0.00339964 0
M  V30 4638 H 453.3 3.36447 2.46697 0
M  V30 4639 H 451.93 2.2311 2.33285 0
M  V30 4640 H 450.982 3.77494 0.469314 0
M  V30 4641 H 452.294 4.91803 0.832518 0
M  V30 4642 H 451.448 5.17008 3.17471 0
M  V30 4643 H 450.187 3.94164 2.87203 0
M  V30 4644 H 449.192 5.39092 1.07983 0
M  V30 4645 H 450.417 6.64366 1.40694 0
M  V30 4646 H 448.363 5.61069 3.39908 0
M  V30 4647 H 448.28 7.11788 2.54744 0
M  V30 4648 H 449.548 6.8568 3.7076 0
M  V30 4649 N 453.777 0.010035 1.57597 0
M  V30 4650 C 455.193 -0.346164 1.55801 0
M  V30 4651 C 455.393 -1.74144 1.01371 0
M  V30 4652 O 454.449 -2.43938 0.651968 0
M  V30 4653 C 455.762 -0.212216 2.9995 0
M  V30 4654 C 457.31 -0.286409 3.11687 0
M  V30 4655 C 457.785 -0.18147 4.5764 0
M  V30 4656 N 459.276 -0.239056 4.62583 0
M  V30 4657 C 460.011 -0.181351 5.73113 0
M  V30 4658 N 459.507 -0.073661 6.92761 0
M  V30 4659 N 461.3 -0.233949 5.61613 0
M  V30 4660 H 453.451 0.922657 1.91313 0
M  V30 4661 H 455.714 0.354595 0.879185 0
M  V30 4662 H 455.42 0.748169 3.4365 0
M  V30 4663 H 455.294 -0.990224 3.6397 0
M  V30 4664 H 457.681 -1.23724 2.67911 0
M  V30 4665 H 457.762 0.521645 2.50425 0
M  V30 4666 H 457.406 0.765863 5.02093 0
M  V30 4667 H 457.336 -1.00814 5.1686 0
M  V30 4668 H 459.827 -0.32321 3.76515 0
M  V30 4669 H 460.14 -0.0358003 7.72792 0
M  V30 4670 H 458.485 -0.0391461 6.94989 0
M  V30 4671 H 461.676 -0.316347 4.6703 0
M  V30 4672 H 461.849 -0.185514 6.47734 0
M  V30 4673 N 455.255 -1.55392 -0.262866 0
M  V30 4674 C 456.185 -1.91978 -1.32917 0
M  V30 4675 C 457.166 -0.7828 -1.51017 0
M  V30 4676 O 458.351 -1.04178 -1.63892 0
M  V30 4677 C 455.481 -2.20055 -2.68687 0
M  V30 4678 C 454.435 -3.35854 -2.65304 0
M  V30 4679 C 453.761 -3.49435 -4.04721 0
M  V30 4680 C 455.061 -4.71977 -2.23685 0
M  V30 4681 H 456.755 -2.81292 -1.02544 0
M  V30 4682 H 454.301 -1.3534 -0.491846 0
M  V30 4683 H 456.254 -2.44237 -3.43404 0
M  V30 4684 H 454.978 -1.27551 -3.00663 0
M  V30 4685 H 453.637 -3.11655 -1.93045 0
M  V30 4686 H 453.285 -2.54379 -4.33936 0
M  V30 4687 H 452.985 -4.27297 -4.0335 0
M  V30 4688 H 454.509 -3.7592 -4.81161 0
M  V30 4689 H 455.923 -4.95637 -2.88127 0
M  V30 4690 H 454.32 -5.52828 -2.33456 0
M  V30 4691 H 455.39 -4.70115 -1.18827 0
M  V30 4692 N 456.733 0.527833 -1.48498 0
M  V30 4693 C 457.961 1.30823 -1.6029 0
M  V30 4694 C 458.376 1.86945 -0.263974 0
M  V30 4695 O 457.733 1.6651 0.747034 0
M  V30 4696 C 457.784 2.45756 -2.65116 0
M  V30 4697 O 457.505 1.91946 -3.93813 0
M  V30 4698 C 459.006 3.37543 -2.87367 0
M  V30 4699 H 456.226 0.397763 -0.540394 0
M  V30 4700 H 458.77 0.636529 -1.94341 0
M  V30 4701 H 456.925 3.08806 -2.33917 0
M  V30 4702 H 457.339 2.67195 -4.51339 0
M  V30 4703 H 458.813 4.14532 -3.6451 0
M  V30 4704 H 459.29 3.92905 -1.9627 0
M  V30 4705 H 459.896 2.80283 -3.19878 0
M  V30 4706 N 458.211 1.37122 0.776871 0
M  V30 4707 C 459.457 1.3325 1.53675 0
M  V30 4708 C 459.812 -0.0839891 1.92217 0
M  V30 4709 O 459.105 -1.04145 1.60824 0
M  V30 4710 C 459.299 2.20068 2.81611 0
M  V30 4711 C 459.128 3.70016 2.55574 0
M  V30 4712 C 457.898 4.39144 2.4996 0
M  V30 4713 C 460.096 4.62996 2.23917 0
M  V30 4714 N 458.078 5.74663 2.15953 0
M  V30 4715 C 459.449 5.86854 2.00005 0
M  V30 4716 C 461.504 4.51433 2.1003 0
M  V30 4717 C 460.207 7.00446 1.63609 0
M  V30 4718 C 462.233 5.64905 1.75033 0
M  V30 4719 C 461.595 6.8781 1.51977 0
M  V30 4720 H 457.694 0.542878 0.562856 0
M  V30 4721 H 460.278 1.72295 0.906784 0
M  V30 4722 H 458.449 1.83248 3.42454 0
M  V30 4723 H 460.181 2.07492 3.47461 0
M  V30 4724 H 456.936 3.92088 2.65639 0
M  V30 4725 H 457.36 6.46268 2.0166 0
M  V30 4726 H 462.002 3.56987 2.26539 0
M  V30 4727 H 459.72 7.94831 1.45837 0
M  V30 4728 H 463.306 5.57926 1.64952 0
M  V30 4729 H 462.186 7.74126 1.25296 0
M  V30 4730 N 459.689 -1.00246 1.21608 0
M  V30 4731 C 461.1 -1.55511 1.03312 0
M  V30 4732 C 461.451 -1.91946 -0.406332 0
M  V30 4733 O 460.576 -1.73753 -1.28992 0
M  V30 4734 C 461.171 -2.82576 1.86913 0
M  V30 4735 C 459.73 -3.34318 1.72941 0
M  V30 4736 C 458.877 -2.07487 1.83968 0
M  V30 4737 H 461.828 -0.824638 1.35593 0
M  V30 4738 H 461.849 -3.54559 1.38087 0
M  V30 4739 H 461.361 -2.56026 2.91672 0
M  V30 4740 H 459.462 -3.65797 0.70877 0
M  V30 4741 H 459.575 -4.05566 2.55055 0
M  V30 4742 H 457.939 -2.20603 1.27304 0
M  V30 4743 H 458.722 -1.83346 2.9024 0
M  V30 4744 N 461.167 -1.02423 -1.1978 0
M  V30 4745 C 462.583 -0.740459 -1.41384 0
M  V30 4746 C 462.783 0.676827 -1.89793 0
M  V30 4747 O 461.839 1.4435 -2.0717 0
M  V30 4748 C 463.152 -1.77264 -2.42895 0
M  V30 4749 C 464.7 -1.79165 -2.56649 0
M  V30 4750 C 465.175 -2.8133 -3.6141 0
M  V30 4751 N 466.666 -2.80118 -3.68901 0
M  V30 4752 C 467.401 -3.55824 -4.49641 0
M  V30 4753 N 466.897 -4.41231 -5.34123 0
M  V30 4754 N 468.69 -3.44387 -4.44246 0
M  V30 4755 H 460.841 -1.9391 -0.866764 0
M  V30 4756 H 463.104 -0.838074 -0.443098 0
M  V30 4757 H 462.81 -2.7884 -2.14339 0
M  V30 4758 H 462.684 -1.59108 -3.42001 0
M  V30 4759 H 465.071 -0.782702 -2.84531 0
M  V30 4760 H 465.152 -2.01396 -1.57713 0
M  V30 4761 H 464.796 -3.82394 -3.34271 0
M  V30 4762 H 464.726 -2.56359 -4.59986 0
M  V30 4763 H 467.217 -2.1817 -3.08562 0
M  V30 4764 H 467.53 -4.95747 -5.92836 0
M  V30 4765 H 465.875 -4.45306 -5.33599 0
M  V30 4766 H 469.066 -2.7708 -3.77285 0
M  V30 4767 H 469.239 -4.0364 -5.06931 0
M  V30 4768 N 462.645 1.35699 -0.801477 0
M  V30 4769 C 464.061 1.52065 -0.484596 0
M  V30 4770 C 464.261 1.75215 0.995084 0
M  V30 4771 O 463.317 1.79061 1.78026 0
M  V30 4772 C 464.63 2.69908 -1.32552 0
M  V30 4773 C 466.178 2.83784 -1.32044 0
M  V30 4774 C 466.653 4.04646 -2.14536 0
M  V30 4775 N 468.144 4.11814 -2.12046 0
M  V30 4776 C 468.879 5.04437 -2.72636 0
M  V30 4777 N 468.375 6.02426 -3.42133 0
M  V30 4778 N 470.168 4.97144 -2.62305 0
M  V30 4779 H 462.319 1.18928 -1.75983 0
M  V30 4780 H 464.582 0.581455 -0.748741 0
M  V30 4781 H 464.288 2.59363 -2.37537 0
M  V30 4782 H 464.162 3.64376 -0.975181 0
M  V30 4783 H 466.549 2.93783 -0.27846 0
M  V30 4784 H 466.63 1.90188 -1.71062 0
M  V30 4785 H 466.274 3.95407 -3.18772 0
M  V30 4786 H 466.204 4.97413 -1.72882 0
M  V30 4787 H 468.695 3.41664 -1.61476 0
M  V30 4788 H 469.008 6.69688 -3.85666 0
M  V30 4789 H 467.353 6.02615 -3.46237 0
M  V30 4790 H 470.544 4.19546 -2.07603 0
M  V30 4791 H 470.717 5.69138 -3.09815 0
M  V30 4792 N 464.123 0.554532 1.47522 0
M  V30 4793 C 465.348 0.0322661 2.07375 0
M  V30 4794 C 465.773 -1.25079 1.40488 0
M  V30 4795 O 465.131 -1.74859 0.47896 0
M  V30 4796 C 465.179 -0.149397 3.6029 0
M  V30 4797 O 464.283 -1.21259 3.9417 0
M  V30 4798 H 463.624 0.0501228 0.662106 0
M  V30 4799 H 466.154 0.769452 1.8958 0
M  V30 4800 H 466.164 -0.364437 4.06369 0
M  V30 4801 H 464.839 0.787743 4.08372 0
M  V30 4802 H 463.416 -0.97825 3.5984 0
M  V30 4803 N 465.601 -1.54893 0.290851 0
M  V30 4804 C 466.831 -2.04047 -0.323818 0
M  V30 4805 C 467.239 -1.16809 -1.48837 0
M  V30 4806 O 466.582 -0.184145 -1.82775 0
M  V30 4807 C 466.644 -3.49248 -0.852395 0
M  V30 4808 C 466.308 -4.56623 0.185557 0
M  V30 4809 C 467.305 -5.09985 1.01053 0
M  V30 4810 C 464.99 -5.01252 0.324332 0
M  V30 4811 C 466.984 -6.06507 1.96031 0
M  V30 4812 C 464.671 -5.97596 1.27757 0
M  V30 4813 C 465.669 -6.50107 2.09405 0
M  V30 4814 O 465.357 -7.44565 3.03114 0
M  V30 4815 H 465.089 -0.671735 -0.0758129 0
M  V30 4816 H 467.643 -2.00947 0.425393 0
M  V30 4817 H 465.873 -3.49639 -1.65195 0
M  V30 4818 H 467.562 -3.81654 -1.38185 0
M  V30 4819 H 468.328 -4.76307 0.914129 0
M  V30 4820 H 464.207 -4.60015 -0.301213 0
M  V30 4821 H 467.751 -6.47418 2.598 0
M  V30 4822 H 463.648 -6.30691 1.37473 0
M  V30 4823 H 464.416 -7.62334 2.97976 0
M  V30 4824 N 467.08 -0.0183926 -1.57589 0
M  V30 4825 C 468.305 0.676634 -1.96052 0
M  V30 4826 C 468.73 1.6548 -0.894307 0
M  V30 4827 O 468.088 1.80712 0.145849 0
M  V30 4828 C 468.136 1.36872 -3.33614 0
M  V30 4829 O 467.24 2.48372 -3.29219 0
M  V30 4830 H 466.581 0.1786 -0.63953 0
M  V30 4831 H 469.111 -0.077056 -2.04455 0
M  V30 4832 H 469.121 1.72797 -3.69601 0
M  V30 4833 H 467.796 0.651636 -4.10763 0
M  V30 4834 H 466.373 2.14639 -3.04934 0
M  V30 4835 N 468.558 1.5553 0.254621 0
M  V30 4836 C 469.969 1.67518 0.824286 0
M  V30 4837 C 470.32 0.614429 1.86331 0
M  V30 4838 O 469.445 -0.240736 2.15057 0
M  V30 4839 C 470.04 3.03692 1.50189 0
M  V30 4840 C 468.599 3.17646 2.01935 0
M  V30 4841 C 467.746 2.63373 0.867746 0
M  V30 4842 H 470.697 1.58671 0.0305843 0
M  V30 4843 H 470.718 2.97706 2.36962 0
M  V30 4844 H 470.23 3.80874 0.745431 0
M  V30 4845 H 468.331 2.45273 2.80485 0
M  V30 4846 H 468.444 4.24455 2.22204 0
M  V30 4847 H 466.808 2.20999 1.26616 0
M  V30 4848 H 467.591 3.43074 0.124498 0
M  V30 4849 N 470.036 -0.519951 1.48776 0
M  V30 4850 C 471.452 -0.849418 1.35119 0
M  V30 4851 C 471.652 -1.98077 0.36982 0
M  V30 4852 O 470.708 -2.51664 -0.205359 0
M  V30 4853 C 472.021 -1.20748 2.75391 0
M  V30 4854 C 473.569 -1.31679 2.83954 0
M  V30 4855 C 474.044 -1.70824 4.24951 0
M  V30 4856 N 475.535 -1.77908 4.27672 0
M  V30 4857 C 476.27 -2.09603 5.33717 0
M  V30 4858 N 475.766 -2.39652 6.5003 0
M  V30 4859 N 477.559 -2.10694 5.21119 0
M  V30 4860 H 469.71 0.226377 2.1119 0
M  V30 4861 H 471.973 0.0386519 0.947212 0
M  V30 4862 H 471.679 -0.449703 3.48813 0
M  V30 4863 H 471.553 -2.15534 3.09556 0
M  V30 4864 H 473.94 -2.06532 2.10781 0
M  V30 4865 H 474.021 -0.3499 2.53396 0
M  V30 4866 H 473.665 -0.965282 4.98643 0
M  V30 4867 H 473.595 -2.6858 4.52959 0
M  V30 4868 H 476.086 -1.56923 3.43779 0
M  V30 4869 H 476.399 -2.6297 7.26682 0
M  V30 4870 H 474.744 -2.37149 6.53288 0
M  V30 4871 H 477.935 -1.86682 4.29264 0
M  V30 4872 H 478.108 -2.35062 6.03863 0
M  V30 4873 N 471.514 -1.37532 -0.769588 0
M  V30 4874 C 472.739 -1.36231 -1.56384 0
M  V30 4875 C 473.164 0.0495849 -1.88035 0
M  V30 4876 O 472.522 1.02723 -1.49391 0
M  V30 4877 C 472.57 -2.20986 -2.84952 0
M  V30 4878 O 471.674 -1.61597 -3.79421 0
M  V30 4879 H 471.015 -0.465387 -0.473615 0
M  V30 4880 H 473.545 -1.81085 -0.952342 0
M  V30 4881 H 473.555 -2.34277 -3.34034 0
M  V30 4882 H 472.23 -3.23612 -2.61243 0
M  V30 4883 H 470.807 -1.57359 -3.38072 0
M  V30 4884 N 472.992 0.995999 -1.22138 0
M  V30 4885 C 474.239 1.7351 -1.04406 0
M  V30 4886 C 474.567 1.89884 0.421244 0
M  V30 4887 O 473.822 1.43683 1.32867 0
M  V30 4888 C 474.121 3.14553 -1.6968 0
M  V30 4889 C 473.787 3.18102 -3.19565 0
M  V30 4890 C 472.449 3.18778 -3.60464 0
M  V30 4891 C 474.801 3.14636 -4.15516 0
M  V30 4892 C 472.129 3.13684 -4.95801 0
M  V30 4893 C 474.481 3.11084 -5.50826 0
M  V30 4894 C 473.145 3.10074 -5.91109 0
M  V30 4895 H 472.415 0.634916 -0.38205 0
M  V30 4896 H 475.062 1.1667 -1.51857 0
M  V30 4897 H 473.367 3.74682 -1.14546 0
M  V30 4898 H 475.064 3.70477 -1.53454 0
M  V30 4899 H 471.654 3.18324 -2.86998 0
M  V30 4900 H 475.838 3.13266 -3.84939 0
M  V30 4901 H 471.094 3.11245 -5.26247 0
M  V30 4902 H 475.268 3.07357 -6.24904 0
M  V30 4903 H 472.895 3.05882 -6.95946 0
M  V30 4904 N 474.47 1.03057 1.19235 0
M  V30 4905 C 475.38 0.622922 2.26179 0
M  V30 4906 C 476.396 -0.346113 1.70523 0
M  V30 4907 O 477.572 -0.203572 2.00369 0
M  V30 4908 C 474.637 -0.0182063 3.46695 0
M  V30 4909 C 473.698 0.998546 4.17526 0
M  V30 4910 C 472.931 0.387917 5.32288 0
M  V30 4911 O 473.154 -0.808668 5.64639 0
M  V30 4912 O 472.088 1.1116 5.91546 0
M  V30 4913 H 475.914 1.51363 2.63292 0
M  V30 4914 H 473.499 0.800856 1.26122 0
M  V30 4915 H 475.381 -0.375606 4.19723 0
M  V30 4916 H 474.056 -0.882895 3.11427 0
M  V30 4917 H 472.963 1.40756 3.4661 0
M  V30 4918 H 474.296 1.83366 4.56769 0
M  V30 4919 N 475.948 -1.35272 0.808662 0
M  V30 4920 C 477.225 -1.93077 0.313181 0
M  V30 4921 C 477.605 -1.73847 -1.19752 0
M  V30 4922 O 476.953 -1.1087 -1.998 0
M  V30 4923 C 477.163 -3.41347 0.726859 0
M  V30 4924 C 478.511 -4.18493 0.717532 0
M  V30 4925 O 479.535 -3.4987 0.668535 0
M  V30 4926 O 478.394 -5.40937 0.777779 0
M  V30 4927 H 475.488 -0.822885 0.0824018 0
M  V30 4928 H 478.034 -1.44335 0.892499 0
M  V30 4929 H 476.806 -3.49082 1.76797 0
M  V30 4930 H 476.429 -3.97411 0.122461 0
M  V30 4931 N 477.426 -0.562348 -1.47226 0
M  V30 4932 C 478.666 -0.0426374 -2.04356 0
M  V30 4933 C 479.03 1.28487 -1.42671 0
M  V30 4934 O 480.231 1.89259 -1.90878 0
M  V30 4935 C 478.502 0.0433826 -3.57374 0
M  V30 4936 S 480.061 0.508472 -4.35844 0
M  V30 4937 H 476.879 -0.0276234 -0.710463 0
M  V30 4938 H 479.481 -0.750245 -1.80531 0
M  V30 4939 H 478.185 -0.927072 -3.99792 0
M  V30 4940 H 477.716 0.774387 -3.85703 0
M  V30 4941 H 479.731 1.76719 -4.63665 0
M  V30 4942 N 478.904 1.54736 -0.299062 0
M  V30 4943 C 480.152 1.99706 0.31017 0
M  V30 4944 C 480.473 1.18896 1.54559 0
M  V30 4945 O 479.743 0.284445 1.93824 0
M  V30 4946 H 478.323 0.737686 0.117596 0
M  V30 4947 H 480.985 1.9054 -0.409943 0
M  V30 4948 H 480.081 3.06596 0.58355 0
M  V30 4949 N 480.382 0.0267497 1.57577 0
M  V30 4950 C 481.63 -0.651116 1.91324 0
M  V30 4951 C 481.951 -1.72804 0.90353 0
M  V30 4952 O 481.221 -1.95822 -0.0552946 0
M  V30 4953 H 479.801 -0.243491 0.706202 0
M  V30 4954 H 482.463 0.0739935 1.94759 0
M  V30 4955 H 481.559 -1.10536 2.9187 0
M  V30 4956 N 481.861 -1.55662 -0.24637 0
M  V30 4957 C 483.109 -1.77168 -0.972411 0
M  V30 4958 C 483.43 -0.590827 -1.85834 0
M  V30 4959 O 482.7 0.393365 -1.9191 0
M  V30 4960 H 481.28 -0.653405 -0.362038 0
M  V30 4961 H 483.942 -1.93101 -0.264189 0
M  V30 4962 H 483.038 -2.68335 -1.59382 0
M  V30 4963 N 483.339 0.512053 -1.4905 0
M  V30 4964 C 484.569 1.28928 -1.61434 0
M  V30 4965 C 484.977 1.87107 -0.280647 0
M  V30 4966 O 484.32 1.68024 0.742537 0
M  V30 4967 C 484.382 2.466 -2.61588 0
M  V30 4968 C 484.046 2.09375 -4.06216 0
M  V30 4969 C 485.043 1.63994 -4.93358 0
M  V30 4970 C 482.728 2.19348 -4.51876 0
M  V30 4971 C 484.722 1.29076 -6.24194 0
M  V30 4972 C 482.409 1.84041 -5.82728 0
M  V30 4973 C 483.407 1.38978 -6.68711 0
M  V30 4974 O 483.095 1.04144 -7.97126 0
M  V30 4975 H 482.827 0.397668 -0.546659 0
M  V30 4976 H 485.381 0.622507 -1.9574 0
M  V30 4977 H 483.611 3.16318 -2.22441 0
M  V30 4978 H 485.3 3.08642 -2.63619 0
M  V30 4979 H 486.066 1.55744 -4.59313 0
M  V30 4980 H 481.945 2.53376 -3.85125 0
M  V30 4981 H 485.489 0.938303 -6.91261 0
M  V30 4982 H 481.386 1.91938 -6.16304 0
M  V30 4983 H 482.154 1.17387 -8.10039 0
M  V30 4984 N 484.817 1.37938 0.762283 0
M  V30 4985 C 486.045 1.36883 1.55147 0
M  V30 4986 C 486.46 -0.0435348 1.8875 0
M  V30 4987 O 485.817 -1.00786 1.52146 0
M  V30 4988 C 485.868 2.21624 2.85596 0
M  V30 4989 O 485.589 3.57358 2.5343 0
M  V30 4990 C 487.09 2.28653 3.7978 0
M  V30 4991 H 484.31 0.468521 0.480343 0
M  V30 4992 H 486.854 1.81404 0.944079 0
M  V30 4993 H 485.009 1.80588 3.42734 0
M  V30 4994 H 485.423 4.01883 3.37032 0
M  V30 4995 H 486.897 2.9225 4.68288 0
M  V30 4996 H 487.374 1.29767 4.19592 0
M  V30 4997 H 487.98 2.70043 3.28568 0
M  V30 4998 N 486.295 -0.989507 1.22664 0
M  V30 4999 C 487.706 -1.54406 1.04955 0
M  V30 5000 C 488.057 -1.92366 -0.385951 0
M  V30 5001 O 487.182 -1.75111 -1.27142 0
M  V30 5002 C 487.777 -2.80578 1.89899 0
M  V30 5003 C 486.336 -3.32464 1.76478 0
M  V30 5004 C 485.483 -2.05524 1.86159 0
M  V30 5005 H 488.434 -0.810211 1.3646 0
M  V30 5006 H 488.455 -3.53075 1.4184 0
M  V30 5007 H 487.967 -2.52918 2.94371 0
M  V30 5008 H 486.068 -3.65024 0.747528 0
M  V30 5009 H 486.181 -4.02838 2.59342 0
M  V30 5010 H 484.545 -2.19241 1.29636 0
M  V30 5011 H 485.328 -1.80258 2.92168 0
M  V30 5012 N 487.773 -1.03688 -1.18687 0
M  V30 5013 C 489.05 -0.652397 -1.84399 0
M  V30 5014 C 489.43 0.868386 -1.92412 0
M  V30 5015 O 488.778 1.76832 -1.44716 0
M  V30 5016 C 488.988 -1.3238 -3.22919 0
M  V30 5017 C 490.336 -1.45216 -3.98996 0
M  V30 5018 O 491.36 -1.2816 -3.32345 0
M  V30 5019 O 490.219 -1.72975 -5.18403 0
M  V30 5020 H 487.313 -0.227793 -0.795009 0
M  V30 5021 H 489.859 -1.13553 -1.2611 0
M  V30 5022 H 488.631 -2.36202 -3.11968 0
M  V30 5023 H 488.254 -0.829039 -3.88861 0
M  V30 5024 N 489.251 1.34841 -0.815825 0
M  V30 5025 C 490.491 2.00321 -0.406297 0
M  V30 5026 C 490.855 1.63293 1.00992 0
M  V30 5027 O 492.056 2.21563 1.52195 0
M  V30 5028 C 490.327 3.52421 -0.594469 0
M  V30 5029 S 491.886 4.37926 -0.276735 0
M  V30 5030 H 488.704 0.694155 -0.153848 0
M  V30 5031 H 491.306 1.64263 -1.06009 0
M  V30 5032 H 490.01 3.76858 -1.625 0
M  V30 5033 H 489.541 3.9333 0.0743157 0
M  V30 5034 H 491.556 4.87743 0.912215 0
M  V30 5035 N 490.729 0.570148 1.46925 0
M  V30 5036 C 491.954 0.0542592 2.07329 0
M  V30 5037 C 492.379 -1.23582 1.41806 0
M  V30 5038 O 491.737 -1.74341 0.497479 0
M  V30 5039 C 491.785 -0.111175 3.60429 0
M  V30 5040 O 490.889 -1.17071 3.95434 0
M  V30 5041 H 490.23 0.0571425 0.661537 0
M  V30 5042 H 492.76 0.789516 1.88753 0
M  V30 5043 H 492.77 -0.321315 4.06733 0
M  V30 5044 H 491.445 0.831012 4.07513 0
M  V30 5045 H 490.022 -0.940029 3.60857 0
M  V30 5046 N 492.207 -1.54576 0.307264 0
M  V30 5047 C 493.432 -2.05139 -0.305379 0
M  V30 5048 C 493.857 -1.18278 -1.46259 0
M  V30 5049 O 493.215 -0.188243 -1.8032 0
M  V30 5050 C 493.263 -3.53066 -0.733283 0
M  V30 5051 O 492.367 -3.69206 -1.83741 0
M  V30 5052 H 491.708 -0.661444 -0.0582105 0
M  V30 5053 H 494.238 -1.99569 0.450931 0
M  V30 5054 H 494.248 -3.95034 -1.02039 0
M  V30 5055 H 492.923 -4.15746 0.113198 0
M  V30 5056 H 491.5 -3.39143 -1.55037 0
M  V30 5057 N 493.685 -0.035106 -1.57561 0
M  V30 5058 C 494.633 0.962707 -2.11742 0
M  V30 5059 C 495.627 1.33296 -1.0454 0
M  V30 5060 O 496.833 1.31449 -1.22968 0
M  V30 5061 H 493.208 0.32826 -0.676572 0
M  V30 5062 H 495.179 0.48048 -2.94506 0
M  V30 5063 C 493.928 2.23388 -2.66445 0
M  V30 5064 H 493.251 1.95774 -3.48587 0
M  V30 5065 H 494.691 2.91402 -3.07995 0
M  V30 5066 C 493.15 2.96769 -1.59467 0
M  V30 5067 O 493.68 3.89105 -0.998 0
M  V30 5068 N 491.886 2.59212 -1.31369 0
M  V30 5069 H 491.433 1.84202 -1.80076 0
M  V30 5070 H 491.391 3.08618 -0.600173 0
M  V30 5071 N 495.163 1.55791 0.238111 0
M  V30 5072 C 496.073 1.94196 1.31625 0
M  V30 5073 C 497.089 0.843545 1.52185 0
M  V30 5074 O 498.265 1.1457 1.65637 0
M  V30 5075 C 495.33 2.2365 2.64918 0
M  V30 5076 C 494.391 3.46971 2.52804 0
M  V30 5077 C 493.624 3.7501 3.79741 0
M  V30 5078 O 493.847 3.04982 4.82019 0
M  V30 5079 O 492.781 4.68525 3.77846 0
M  V30 5080 H 496.607 2.86044 1.02043 0
M  V30 5081 H 494.192 1.42786 0.439603 0
M  V30 5082 H 496.074 2.43863 3.4367 0
M  V30 5083 H 494.749 1.34979 2.94215 0
M  V30 5084 H 493.656 3.32055 1.72309 0
M  V30 5085 H 494.989 4.35971 2.28451 0
M  V30 5086 N 496.642 -0.504142 1.49319 0
M  V30 5087 C 497.59 -1.62689 1.66238 0
M  V30 5088 C 498.584 -1.6095 0.528349 0
M  V30 5089 O 499.79 -1.65496 0.707887 0
M  V30 5090 H 496.165 -0.539247 0.524134 0
M  V30 5091 H 498.136 -1.45571 2.60484 0
M  V30 5092 C 496.885 -3.00841 1.74328 0
M  V30 5093 H 496.208 -3.02884 2.60963 0
M  V30 5094 H 497.648 -3.78945 1.90202 0
M  V30 5095 C 496.107 -3.33355 0.487416 0
M  V30 5096 O 496.637 -3.99819 -0.388294 0
M  V30 5097 N 494.843 -2.88469 0.351306 0
M  V30 5098 H 494.39 -2.34557 1.06492 0
M  V30 5099 H 494.348 -3.10591 -0.487899 0
M  V30 5100 N 498.12 -1.38341 -0.754957 0
M  V30 5101 C 499.05 -1.38176 -1.88227 0
M  V30 5102 C 500.031 -0.247873 -1.68284 0
M  V30 5103 O 501.216 -0.45075 -1.88896 0
M  V30 5104 C 498.346 -1.20471 -3.25736 0
M  V30 5105 C 497.3 -2.3105 -3.60278 0
M  V30 5106 C 496.626 -1.98452 -4.96509 0
M  V30 5107 C 497.926 -3.73305 -3.65295 0
M  V30 5108 H 499.62 -2.32512 -1.88622 0
M  V30 5109 H 497.166 -1.1192 -0.906082 0
M  V30 5110 H 499.119 -1.18982 -4.04254 0
M  V30 5111 H 497.843 -0.225965 -3.25817 0
M  V30 5112 H 496.502 -2.31723 -2.84078 0
M  V30 5113 H 496.15 -0.990641 -4.93148 0
M  V30 5114 H 495.85 -2.7251 -5.20588 0
M  V30 5115 H 497.374 -1.98578 -5.77407 0
M  V30 5116 H 498.788 -3.7467 -4.3393 0
M  V30 5117 H 497.185 -4.46557 -4.00883 0
M  V30 5118 H 498.255 -4.05719 -2.65556 0
M  V30 5119 N 499.598 0.982988 -1.23187 0
M  V30 5120 C 500.826 1.75921 -1.08901 0
M  V30 5121 C 501.241 1.85341 0.359719 0
M  V30 5122 O 500.598 1.33072 1.24892 0
M  V30 5123 C 500.649 3.18742 -1.70545 0
M  V30 5124 O 500.37 3.09814 -3.09753 0
M  V30 5125 C 501.871 4.1277 -1.61667 0
M  V30 5126 H 499.091 0.552166 -0.381252 0
M  V30 5127 H 501.635 1.23516 -1.62985 0
M  V30 5128 H 499.79 3.68182 -1.20501 0
M  V30 5129 H 500.204 3.99703 -3.39614 0
M  V30 5130 H 501.678 5.10697 -2.09506 0
M  V30 5131 H 502.155 4.3542 -0.575009 0
M  V30 5132 H 502.761 3.69232 -2.11064 0
M  V30 5133 N 501.076 1.04316 1.18135 0
M  V30 5134 C 502.301 0.768047 1.92655 0
M  V30 5135 C 502.726 -0.66904 1.758 0
M  V30 5136 O 502.084 -1.46372 1.06981 0
M  V30 5137 C 502.132 1.14239 3.42026 0
M  V30 5138 O 501.236 0.269333 4.1152 0
M  V30 5139 H 500.577 0.282436 0.600937 0
M  V30 5140 H 503.107 1.39367 1.49793 0
M  V30 5141 H 503.117 1.10538 3.92741 0
M  V30 5142 H 501.792 2.18928 3.53615 0
M  V30 5143 H 500.369 0.366175 3.71098 0
M  V30 5144 N 502.554 -1.34406 0.822964 0
M  V30 5145 C 503.779 -2.0304 0.423034 0
M  V30 5146 C 504.204 -1.61568 -0.963196 0
M  V30 5147 O 503.562 -0.800339 -1.62678 0
M  V30 5148 C 503.61 -3.56636 0.53321 0
M  V30 5149 O 502.714 -4.09971 -0.446939 0
M  V30 5150 H 502.055 -0.64075 0.174171 0
M  V30 5151 H 504.585 -1.71653 1.11339 0
M  V30 5152 H 504.595 -4.05945 0.408991 0
M  V30 5153 H 503.27 -3.86168 1.54425 0
M  V30 5154 H 501.847 -3.71835 -0.281601 0
M  V30 5155 N 504.032 -0.577932 -1.46621 0
M  V30 5156 C 504.942 0.160651 -2.34049 0
M  V30 5157 C 505.958 0.890911 -1.49462 0
M  V30 5158 O 507.134 0.855166 -1.82343 0
M  V30 5159 C 504.199 1.16447 -3.26559 0
M  V30 5160 C 503.26 0.4394 -4.27045 0
M  V30 5161 C 502.493 1.3954 -5.15135 0
M  V30 5162 O 502.716 2.63162 -5.06065 0
M  V30 5163 O 501.65 0.908585 -5.95003 0
M  V30 5164 H 505.476 -0.557057 -2.98547 0
M  V30 5165 H 503.061 -0.338369 -1.45518 0
M  V30 5166 H 504.943 1.7434 -3.83645 0
M  V30 5167 H 503.618 1.86373 -2.64663 0
M  V30 5168 H 502.525 -0.181247 -3.73661 0
M  V30 5169 H 503.858 -0.218799 -4.91713 0
M  V30 5170 N 505.51 1.54411 -0.315457 0
M  V30 5171 C 506.42 2.27737 0.56329 0
M  V30 5172 C 507.436 1.31787 1.13614 0
M  V30 5173 O 508.612 1.64791 1.15784 0
M  V30 5174 C 505.677 3.01478 1.71207 0
M  V30 5175 C 504.738 4.12997 1.17185 0
M  V30 5176 C 503.971 4.83212 2.26588 0
M  V30 5177 O 504.194 4.52884 3.46775 0
M  V30 5178 O 503.128 5.70299 1.92463 0
M  V30 5179 H 506.954 3.03683 -0.0319614 0
M  V30 5180 H 504.539 1.49178 -0.0814188 0
M  V30 5181 H 506.421 3.47683 2.38106 0
M  V30 5182 H 505.096 2.28414 2.29366 0
M  V30 5183 H 504.003 3.71159 0.468174 0
M  V30 5184 H 505.336 4.8808 0.635501 0
M  V30 5185 N 506.988 0.0434614 1.5754 0
M  V30 5186 C 508.265 -0.671479 1.83713 0
M  V30 5187 C 508.645 -1.89495 0.930315 0
M  V30 5188 O 507.993 -2.28498 -0.0105639 0
M  V30 5189 C 508.203 -1.0361 3.33266 0
M  V30 5190 C 509.551 -1.42167 4.00092 0
M  V30 5191 O 510.575 -1.12866 3.37846 0
M  V30 5192 O 509.434 -1.96817 5.09829 0
M  V30 5193 H 506.528 -0.330726 0.75799 0
M  V30 5194 H 509.074 0.0722373 1.69546 0
M  V30 5195 H 507.846 -0.165938 3.90948 0
M  V30 5196 H 507.469 -1.83751 3.52592 0
M  V30 5197 N 508.466 -1.55915 -0.229846 0
M  V30 5198 C 509.713 -1.78542 -0.955452 0
M  V30 5199 C 510.041 -0.610785 -1.84661 0
M  V30 5200 O 509.296 0.405213 -1.91459 0
M  V30 5201 C 509.595 -3.06845 -1.8325 0
M  V30 5202 C 509.261 -4.37395 -1.09528 0
M  V30 5203 C 507.923 -4.72868 -0.891598 0
M  V30 5204 C 510.275 -5.18029 -0.574046 0
M  V30 5205 C 507.603 -5.86496 -0.154655 0
M  V30 5206 C 509.955 -6.32423 0.149513 0
M  V30 5207 C 508.619 -6.66504 0.364519 0
M  V30 5208 H 507.889 -0.653333 -0.349625 0
M  V30 5209 H 510.536 -1.90183 -0.224235 0
M  V30 5210 H 508.841 -2.90291 -2.63132 0
M  V30 5211 H 510.538 -3.21553 -2.39592 0
M  V30 5212 H 507.128 -4.09538 -1.26399 0
M  V30 5213 H 511.312 -4.91066 -0.718899 0
M  V30 5214 H 506.568 -6.11396 0.0222356 0
M  V30 5215 H 510.742 -6.94137 0.560947 0
M  V30 5216 H 508.369 -7.54397 0.937495 0
M  V30 5217 N 509.944 0.496216 -1.49584 0
M  V30 5218 C 511.169 1.27865 -1.63295 0
M  V30 5219 C 511.594 1.85592 -0.306156 0
M  V30 5220 O 510.952 1.66092 0.726851 0
M  V30 5221 C 511 2.38128 -2.7079 0
M  V30 5222 O 510.104 3.42108 -2.30296 0
M  V30 5223 H 509.445 0.377279 -0.546403 0
M  V30 5224 H 511.975 0.593497 -1.95803 0
M  V30 5225 H 511.985 2.8382 -2.93104 0
M  V30 5226 H 510.66 1.95479 -3.67098 0
M  V30 5227 H 509.237 3.02301 -2.18331 0
M  V30 5228 N 511.423 1.38739 0.74761 0
M  V30 5229 C 512.648 1.38702 1.54197 0
M  V30 5230 C 513.073 -0.019664 1.8809 0
M  V30 5231 O 512.431 -1.00333 1.51006 0
M  V30 5232 C 512.479 2.25492 2.814 0
M  V30 5233 O 511.583 1.67613 3.76802 0
M  V30 5234 H 510.924 0.472863 0.466151 0
M  V30 5235 H 513.454 1.82577 0.923413 0
M  V30 5236 H 513.464 2.39561 3.30264 0
M  V30 5237 H 512.139 3.27727 2.56062 0
M  V30 5238 H 510.716 1.62718 3.35526 0
M  V30 5239 N 512.901 -0.976442 1.23707 0
M  V30 5240 C 514.149 -1.71487 1.06942 0
M  V30 5241 C 514.47 -1.9098 -0.393897 0
M  V30 5242 O 513.74 -1.48128 -1.28198 0
M  V30 5243 H 512.32 -0.635425 0.392739 0
M  V30 5244 H 514.982 -1.17515 1.55487 0
M  V30 5245 H 514.078 -2.70286 1.56051 0
M  V30 5246 N 514.379 -1.04941 -1.1758 0
M  V30 5247 C 515.311 -0.606174 -2.21039 0
M  V30 5248 C 516.324 0.328763 -1.59446 0
M  V30 5249 O 517.513 0.121895 -1.78083 0
M  V30 5250 C 514.613 0.133294 -3.38638 0
M  V30 5251 C 513.786 -0.811711 -4.29802 0
M  V30 5252 C 512.845 -0.113958 -5.26077 0
M  V30 5253 O 511.871 -0.747237 -5.64274 0
M  V30 5254 N 513.073 1.14953 -5.69004 0
M  V30 5255 H 515.838 -1.49606 -2.59689 0
M  V30 5256 H 513.399 -0.930997 -1.32454 0
M  V30 5257 H 515.391 0.610144 -4.00074 0
M  V30 5258 H 513.961 0.924816 -2.98607 0
M  V30 5259 H 513.181 -1.46824 -3.65837 0
M  V30 5260 H 514.469 -1.45326 -4.87604 0
M  V30 5261 H 513.867 1.68441 -5.40041 0
M  V30 5262 H 512.424 1.57049 -6.32597 0
M  V30 5263 N 515.857 1.33968 -0.830081 0
M  V30 5264 C 517.082 2.02813 -0.433796 0
M  V30 5265 C 517.507 1.62076 0.954614 0
M  V30 5266 O 516.865 0.808955 1.62252 0
M  V30 5267 C 516.913 3.56348 -0.552115 0
M  V30 5268 O 516.017 4.10202 0.425191 0
M  V30 5269 H 515.358 0.639817 -0.177567 0
M  V30 5270 H 517.888 1.7106 -1.12248 0
M  V30 5271 H 517.898 4.05722 -0.430513 0
M  V30 5272 H 516.573 3.85344 -1.56471 0
M  V30 5273 H 515.15 3.71979 0.261878 0
M  V30 5274 N 517.335 0.585699 1.46312 0
M  V30 5275 C 518.56 0.0762461 2.0726 0
M  V30 5276 C 518.985 -1.22071 1.43109 0
M  V30 5277 O 518.343 -1.73804 0.515942 0
M  V30 5278 C 518.391 -0.0729404 3.60526 0
M  V30 5279 O 517.495 -1.1287 3.96654 0
M  V30 5280 H 516.836 0.0641558 0.660893 0
M  V30 5281 H 519.366 0.809492 1.87905 0
M  V30 5282 H 519.376 -0.278158 4.07051 0
M  V30 5283 H 518.051 0.874188 4.06609 0
M  V30 5284 H 516.628 -0.901703 3.61834 0
M  V30 5285 N 518.813 -1.54241 0.323641 0
M  V30 5286 C 520.229 -1.59574 -0.0290018 0
M  V30 5287 C 520.429 -1.34017 -1.50472 0
M  V30 5288 O 519.485 -1.12464 -2.26071 0
M  V30 5289 C 520.798 -2.98169 0.389295 0
M  V30 5290 C 522.346 -3.11148 0.339958 0
M  V30 5291 C 522.821 -4.5209 0.733418 0
M  V30 5292 N 524.312 -4.5808 0.686827 0
M  V30 5293 C 525.047 -5.65248 0.963464 0
M  V30 5294 N 524.543 -6.80355 1.30724 0
M  V30 5295 N 526.336 -5.55025 0.88902 0
M  V30 5296 H 518.487 -1.6911 1.28512 0
M  V30 5297 H 520.75 -0.790972 0.522558 0
M  V30 5298 H 520.456 -3.21871 1.41746 0
M  V30 5299 H 520.33 -3.76399 -0.245657 0
M  V30 5300 H 522.717 -2.87182 -0.679002 0
M  V30 5301 H 522.798 -2.35023 1.00985 0
M  V30 5302 H 522.442 -4.76788 1.75029 0
M  V30 5303 H 522.372 -5.26584 0.0412189 0
M  V30 5304 H 524.863 -3.75411 0.43298 0
M  V30 5305 H 525.176 -7.58029 1.5037 0
M  V30 5306 H 523.521 -6.81851 1.3455 0
M  V30 5307 H 526.712 -4.63977 0.619939 0
M  V30 5308 H 526.885 -6.38458 1.10797 0
M  V30 5309 N 520.291 -0.0518155 -1.57515 0
M  V30 5310 C 521.537 0.622745 -1.93002 0
M  V30 5311 C 521.87 1.70456 -0.930499 0
M  V30 5312 O 521.145 1.94452 0.0434086 0
M  V30 5313 C 521.428 1.21824 -3.38867 0
M  V30 5314 C 521.281 0.144434 -4.49568 0
M  V30 5315 C 522.6 2.12968 -3.8514 0
M  V30 5316 H 519.719 0.22491 -0.701844 0
M  V30 5317 H 522.361 -0.113711 -1.89659 0
M  V30 5318 H 520.511 1.8459 -3.41846 0
M  V30 5319 H 522.183 -0.48753 -4.58717 0
M  V30 5320 H 520.426 -0.527424 -4.30582 0
M  V30 5321 H 521.097 0.601127 -5.48717 0
M  V30 5322 H 523.573 1.60163 -3.8404 0
M  V30 5323 H 522.449 2.51578 -4.87852 0
M  V30 5324 H 522.71 3.03004 -3.21934 0
M  V30 5325 N 521.769 1.56035 0.221574 0
M  V30 5326 C 522.994 1.83476 0.967026 0
M  V30 5327 C 523.419 0.632139 1.7716 0
M  V30 5328 O 522.777 -0.419082 1.7639 0
M  V30 5329 C 522.825 3.08907 1.86034 0
M  V30 5330 O 521.929 2.876 2.95567 0
M  V30 5331 H 521.27 0.604913 0.273817 0
M  V30 5332 H 523.8 2.03247 0.234893 0
M  V30 5333 H 523.81 3.3901 2.27016 0
M  V30 5334 H 522.485 3.96068 1.26898 0
M  V30 5335 H 521.062 2.6873 2.58532 0
M  V30 5336 N 523.247 -0.488276 1.49845 0
M  V30 5337 C 524.658 -1.06955 1.53028 0
M  V30 5338 C 525.009 -1.9351 0.323797 0
M  V30 5339 O 524.134 -2.08891 -0.565116 0
M  V30 5340 C 524.729 -1.94643 2.77307 0
M  V30 5341 C 523.288 -2.4791 2.83227 0
M  V30 5342 C 522.435 -1.25833 2.47106 0
M  V30 5343 H 525.386 -0.271626 1.56358 0
M  V30 5344 H 525.407 -2.79496 2.5819 0
M  V30 5345 H 524.919 -1.31621 3.65099 0
M  V30 5346 H 523.02 -3.14535 1.99745 0
M  V30 5347 H 523.133 -2.84193 3.85709 0
M  V30 5348 H 521.497 -1.58764 1.99163 0
M  V30 5349 H 522.28 -0.644993 3.37186 0
M  V30 5350 N 524.725 -1.39134 -0.740242 0
M  V30 5351 C 525.95 -1.39518 -1.53459 0
M  V30 5352 C 526.375 0.00968883 -1.88098 0
M  V30 5353 O 525.733 0.995312 -1.51536 0
M  V30 5354 C 525.781 -2.26981 -2.802 0
M  V30 5355 O 524.885 -1.69609 -3.75908 0
M  V30 5356 H 524.226 -0.475328 -0.463637 0
M  V30 5357 H 526.756 -1.83064 -0.913717 0
M  V30 5358 H 526.766 -2.41309 -3.28989 0
M  V30 5359 H 525.441 -3.29081 -2.5432 0
M  V30 5360 H 524.018 -1.64495 -3.34658 0
M  V30 5361 N 526.204 0.969867 -1.24223 0
M  V30 5362 C 527.615 1.52717 -1.07399 0
M  V30 5363 C 527.966 1.92956 0.355298 0
M  V30 5364 O 527.091 1.77112 1.2434 0
M  V30 5365 C 527.686 2.77521 -1.94339 0
M  V30 5366 C 526.245 3.29615 -1.81744 0
M  V30 5367 C 525.392 2.02537 -1.89405 0
M  V30 5368 H 528.343 0.788399 -1.37732 0
M  V30 5369 H 528.364 3.50773 -1.47439 0
M  V30 5370 H 527.876 2.48203 -2.98357 0
M  V30 5371 H 525.977 3.63789 -0.805505 0
M  V30 5372 H 526.09 3.98661 -2.65718 0
M  V30 5373 H 524.454 2.17151 -1.33108 0
M  V30 5374 H 525.237 1.75587 -2.94999 0
M  V30 5375 N 527.682 1.05563 1.17022 0
M  V30 5376 C 528.91 0.78845 1.91288 0
M  V30 5377 C 529.325 -0.656318 1.77025 0
M  V30 5378 O 528.682 -1.44869 1.10992 0
M  V30 5379 C 528.733 1.16444 3.42232 0
M  V30 5380 O 528.454 2.5525 3.5606 0
M  V30 5381 C 529.955 0.923937 4.33565 0
M  V30 5382 H 527.175 0.286389 0.606813 0
M  V30 5383 H 529.719 1.4073 1.48375 0
M  V30 5384 H 527.874 0.590266 3.82877 0
M  V30 5385 H 528.288 2.70097 4.49609 0
M  V30 5386 H 529.762 1.23672 5.37968 0
M  V30 5387 H 530.239 -0.140688 4.38975 0
M  V30 5388 H 530.845 1.48214 3.98639 0
M  V30 5389 N 529.16 -1.33526 0.837174 0
M  V30 5390 C 530.388 -2.02047 0.445494 0
M  V30 5391 C 530.803 -1.62995 -0.952788 0
M  V30 5392 O 530.16 -0.842447 -1.61892 0
M  V30 5393 C 530.211 -3.57221 0.554577 0
M  V30 5394 O 529.932 -3.94863 1.89776 0
M  V30 5395 C 531.433 -4.43012 0.159634 0
M  V30 5396 H 528.653 -0.647221 0.177048 0
M  V30 5397 H 531.197 -1.70492 1.12928 0
M  V30 5398 H 529.352 -3.87315 -0.0812781 0
M  V30 5399 H 529.766 -4.89569 1.88208 0
M  V30 5400 H 531.24 -5.51253 0.28701 0
M  V30 5401 H 531.717 -4.29916 -0.898289 0
M  V30 5402 H 532.323 -4.18274 0.769855 0
M  V30 5403 N 530.638 -0.59345 -1.46 0
M  V30 5404 C 531.868 -0.0889642 -2.06408 0
M  V30 5405 C 532.276 1.22597 -1.44106 0
M  V30 5406 O 531.619 1.75448 -0.544398 0
M  V30 5407 C 531.681 0.139902 -3.59228 0
M  V30 5408 C 531.345 -1.09107 -4.43784 0
M  V30 5409 C 532.342 -2.00577 -4.79651 0
M  V30 5410 C 530.027 -1.31593 -4.84756 0
M  V30 5411 C 532.021 -3.12873 -5.55328 0
M  V30 5412 C 529.708 -2.44192 -5.60191 0
M  V30 5413 C 530.706 -3.34661 -5.95392 0
M  V30 5414 O 530.394 -4.45302 -6.69299 0
M  V30 5415 H 530.126 -0.0594613 -0.67338 0
M  V30 5416 H 532.68 -0.817 -1.88452 0
M  V30 5417 H 530.91 0.922672 -3.75531 0
M  V30 5418 H 532.599 0.594228 -4.01527 0
M  V30 5419 H 533.365 -1.84425 -4.48567 0
M  V30 5420 H 529.244 -0.620801 -4.56801 0
M  V30 5421 H 532.788 -3.83511 -5.82722 0
M  V30 5422 H 528.685 -2.60303 -5.90688 0
M  V30 5423 H 529.453 -4.43805 -6.87735 0
M  V30 5424 N 532.116 1.54067 -0.331816 0
M  V30 5425 C 533.532 1.59587 0.0205388 0
M  V30 5426 C 533.732 1.34813 1.49759 0
M  V30 5427 O 532.788 1.13661 2.25471 0
M  V30 5428 C 534.101 2.97959 -0.405103 0
M  V30 5429 C 535.649 3.10964 -0.356454 0
M  V30 5430 C 536.124 4.51694 -0.757384 0
M  V30 5431 N 537.615 4.57709 -0.71111 0
M  V30 5432 C 538.35 5.64729 -0.993427 0
M  V30 5433 N 537.846 6.79652 -1.3433 0
M  V30 5434 N 539.639 5.54546 -0.918442 0
M  V30 5435 H 531.79 1.68426 -1.29407 0
M  V30 5436 H 534.053 0.78819 -0.526745 0
M  V30 5437 H 533.759 3.21115 -1.43451 0
M  V30 5438 H 533.633 3.76524 0.225692 0
M  V30 5439 H 536.02 2.87538 0.663763 0
M  V30 5440 H 536.101 2.34484 -1.02229 0
M  V30 5441 H 535.745 4.75853 -1.77555 0
M  V30 5442 H 535.675 5.26555 -0.0691444 0
M  V30 5443 H 538.166 3.75176 -0.452883 0
M  V30 5444 H 538.479 7.57221 -1.54388 0
M  V30 5445 H 536.824 6.81128 -1.38164 0
M  V30 5446 H 540.015 4.63641 -0.644536 0
M  V30 5447 H 540.188 6.37861 -1.14181 0
M  V30 5448 N 533.594 0.0601682 1.57485 0
M  V30 5449 C 534.527 -0.94676 2.07634 0
M  V30 5450 C 535.505 -1.29837 0.978826 0
M  V30 5451 O 536.689 -1.40969 1.2514 0
M  V30 5452 C 533.816 -2.25822 2.52433 0
M  V30 5453 C 532.862 -2.05901 3.73507 0
M  V30 5454 S 533.695 -1.32907 5.18745 0
M  V30 5455 C 534.851 -2.65356 5.66866 0
M  V30 5456 H 535.084 -0.520003 2.92717 0
M  V30 5457 H 532.617 -0.152319 1.53647 0
M  V30 5458 H 534.575 -3.01201 2.78905 0
M  V30 5459 H 533.236 -2.65624 1.67639 0
M  V30 5460 H 532.429 -3.02929 4.02803 0
M  V30 5461 H 532.031 -1.38659 3.47347 0
M  V30 5462 H 534.323 -3.61492 5.73001 0
M  V30 5463 H 535.266 -2.40685 6.6594 0
M  V30 5464 H 535.674 -2.72028 4.94632 0
M  V30 5465 N 535.072 -1.5615 -0.213296 0
M  V30 5466 C 536.319 -1.79546 -0.936462 0
M  V30 5467 C 536.647 -0.630337 -1.84003 0
M  V30 5468 O 535.902 0.384883 -1.91878 0
M  V30 5469 C 536.201 -3.08772 -1.79985 0
M  V30 5470 C 535.867 -4.38532 -1.04882 0
M  V30 5471 C 534.529 -4.73787 -0.841393 0
M  V30 5472 C 536.881 -5.18609 -0.51907 0
M  V30 5473 C 534.209 -5.86627 -0.0924403 0
M  V30 5474 C 536.561 -6.32229 0.216581 0
M  V30 5475 C 535.225 -6.6608 0.435191 0
M  V30 5476 H 534.495 -0.657004 -0.342676 0
M  V30 5477 H 537.142 -1.9041 -0.204051 0
M  V30 5478 H 535.447 -2.93065 -2.60038 0
M  V30 5479 H 537.144 -3.24077 -2.36168 0
M  V30 5480 H 533.734 -4.10855 -1.22048 0
M  V30 5481 H 537.918 -4.91801 -0.666775 0
M  V30 5482 H 533.174 -6.11338 0.087081 0
M  V30 5483 H 537.348 -6.93503 0.634538 0
M  V30 5484 H 534.975 -7.5336 1.01746 0
M  V30 5485 N 536.55 0.480323 -1.50102 0
M  V30 5486 C 537.966 0.813295 -1.37323 0
M  V30 5487 C 538.166 1.97027 -0.422206 0
M  V30 5488 O 537.222 2.5212 0.138563 0
M  V30 5489 C 538.535 1.13404 -2.78496 0
M  V30 5490 C 540.083 1.24104 -2.87345 0
M  V30 5491 C 540.558 1.59497 -4.29331 0
M  V30 5492 N 542.049 1.66507 -4.32238 0
M  V30 5493 C 542.784 1.95378 -5.39087 0
M  V30 5494 N 542.28 2.22333 -6.56155 0
M  V30 5495 N 544.073 1.96803 -5.26522 0
M  V30 5496 H 536.224 -0.282291 -2.10516 0
M  V30 5497 H 538.487 -0.063752 -0.945854 0
M  V30 5498 H 538.193 0.357064 -3.49883 0
M  V30 5499 H 538.067 2.07251 -3.15162 0
M  V30 5500 H 540.454 2.00871 -2.16183 0
M  V30 5501 H 540.535 0.282593 -2.54234 0
M  V30 5502 H 540.179 0.832736 -5.01027 0
M  V30 5503 H 540.109 2.56477 -4.59921 0
M  V30 5504 H 542.6 1.47753 -3.47818 0
M  V30 5505 H 542.913 2.43611 -7.33399 0
M  V30 5506 H 541.258 2.19745 -6.59346 0
M  V30 5507 H 544.449 1.75235 -4.34062 0
M  V30 5508 H 544.622 2.18969 -6.09883 0
M  V30 5509 N 538.028 1.39524 0.732853 0
M  V30 5510 C 539.305 1.27373 1.48444 0
M  V30 5511 C 539.685 -0.115725 2.10783 0
M  V30 5512 O 539.033 -1.12713 1.98766 0
M  V30 5513 C 539.243 2.39966 2.53412 0
M  V30 5514 C 540.591 2.79384 3.19733 0
M  V30 5515 O 541.615 2.39431 2.63725 0
M  V30 5516 O 540.474 3.48353 4.21085 0
M  V30 5517 H 537.568 0.499272 0.659285 0
M  V30 5518 H 540.114 1.51403 0.766496 0
M  V30 5519 H 538.886 3.32845 2.05742 0
M  V30 5520 H 538.509 2.17612 3.32762 0
M  V30 5521 N 539.506 -0.963266 1.24736 0
M  V30 5522 C 540.453 -2.05857 1.04363 0
M  V30 5523 C 541.423 -1.6604 -0.0444951 0
M  V30 5524 O 542.608 -1.90477 0.110999 0
M  V30 5525 C 539.748 -3.38745 0.659235 0
M  V30 5526 C 538.861 -3.9173 1.82131 0
M  V30 5527 C 537.996 -5.12906 1.38208 0
M  V30 5528 C 537.035 -5.58098 2.51382 0
M  V30 5529 N 536.172 -6.7049 2.08295 0
M  V30 5530 H 541.012 -2.22616 1.98107 0
M  V30 5531 H 538.549 -1.09103 0.986661 0
M  V30 5532 H 540.507 -4.15107 0.417371 0
M  V30 5533 H 539.137 -3.21898 -0.241201 0
M  V30 5534 H 538.189 -3.11966 2.17672 0
M  V30 5535 H 539.501 -4.21225 2.67153 0
M  V30 5536 H 538.655 -5.96657 1.09935 0
M  V30 5537 H 537.394 -4.85105 0.502456 0
M  V30 5538 H 536.399 -4.72917 2.80409 0
M  V30 5539 H 537.624 -5.87911 3.39909 0
M  V30 5540 H 535.57 -6.44416 1.22737 0
M  V30 5541 H 535.487 -6.99458 2.86869 0
M  V30 5542 H 536.755 -7.57672 1.83175 0
M  V30 5543 N 540.985 -1.06182 -1.16461 0
M  V30 5544 C 542.21 -0.798599 -1.91408 0
M  V30 5545 C 542.635 0.640987 -1.76842 0
M  V30 5546 O 541.993 1.44652 -1.09296 0
M  V30 5547 C 542.041 -1.19665 -3.40165 0
M  V30 5548 O 541.145 -0.334768 -4.11039 0
M  V30 5549 H 540.486 -0.291961 -0.596368 0
M  V30 5550 H 543.016 -1.41732 -1.47557 0
M  V30 5551 H 543.026 -1.16772 -3.90933 0
M  V30 5552 H 541.701 -2.24526 -3.50087 0
M  V30 5553 H 540.278 -0.425168 -3.70468 0
M  V30 5554 N 542.463 1.3308 -0.844243 0
M  V30 5555 C 543.879 1.50447 -0.532729 0
M  V30 5556 C 544.079 1.78292 0.938837 0
M  V30 5557 O 543.135 1.84635 1.72239 0
M  V30 5558 C 544.448 2.65555 -1.41072 0
M  V30 5559 C 545.996 2.7944 -1.41005 0
M  V30 5560 C 546.471 3.97616 -2.27301 0
M  V30 5561 N 547.962 4.0486 -2.2504 0
M  V30 5562 C 548.697 4.95508 -2.88547 0
M  V30 5563 N 548.193 5.91236 -3.61126 0
M  V30 5564 N 549.986 4.88548 -2.77989 0
M  V30 5565 H 542.137 1.13269 -1.79677 0
M  V30 5566 H 544.4 0.55734 -0.766861 0
M  V30 5567 H 544.106 2.51675 -2.45668 0
M  V30 5568 H 543.98 3.61089 -1.09061 0
M  V30 5569 H 546.367 2.92749 -0.371784 0
M  V30 5570 H 546.448 1.8465 -1.77026 0
M  V30 5571 H 546.092 3.85066 -3.3119 0
M  V30 5572 H 546.022 4.91661 -1.88619 0
M  V30 5573 H 548.513 3.36353 -1.72264 0
M  V30 5574 H 548.826 6.57079 -4.06776 0
M  V30 5575 H 547.171 5.91295 -3.65234 0
M  V30 5576 H 550.362 4.12729 -2.20846 0
M  V30 5577 H 550.535 5.58994 -3.27765 0
M  V30 5578 N 543.941 0.601185 1.45683 0
M  V30 5579 C 545.166 0.0982245 2.07167 0
M  V30 5580 C 545.591 -1.20546 1.44396 0
M  V30 5581 O 544.949 -1.73247 0.534347 0
M  V30 5582 C 544.997 -0.0346976 3.60583 0
M  V30 5583 O 544.101 -1.08657 3.97828 0
M  V30 5584 H 543.442 0.0711618 0.660176 0
M  V30 5585 H 545.972 0.829376 1.87036 0
M  V30 5586 H 545.982 -0.234969 4.07323 0
M  V30 5587 H 544.657 0.917265 4.05659 0
M  V30 5588 H 543.234 -0.863275 3.6277 0
M  V30 5589 N 545.419 -1.53889 0.339982 0
M  V30 5590 C 546.83 -1.86139 -0.144671 0
M  V30 5591 C 547.181 -1.2613 -1.50285 0
M  V30 5592 O 546.306 -0.573515 -2.08662 0
M  V30 5593 C 546.901 -3.37728 -0.269285 0
M  V30 5594 C 545.46 -3.69868 -0.698168 0
M  V30 5595 C 544.607 -2.76777 0.170249 0
M  V30 5596 H 547.558 -1.48503 0.559704 0
M  V30 5597 H 547.579 -3.64331 -1.0974 0
M  V30 5598 H 547.091 -3.81375 0.719366 0
M  V30 5599 H 545.192 -3.31764 -1.69597 0
M  V30 5600 H 545.305 -4.76582 -0.490533 0
M  V30 5601 H 543.669 -2.52188 -0.356844 0
M  V30 5602 H 544.452 -3.23253 1.15597 0
M  V30 5603 N 546.897 -0.0685191 -1.57451 0
M  V30 5604 C 548.122 0.613919 -1.98106 0
M  V30 5605 C 548.547 1.62551 -0.946501 0
M  V30 5606 O 547.905 1.81085 0.0882824 0
M  V30 5607 C 547.953 1.26189 -3.378 0
M  V30 5608 O 547.057 2.37773 -3.36954 0
M  V30 5609 H 546.398 0.158163 -0.644888 0
M  V30 5610 H 548.928 -0.142063 -2.04106 0
M  V30 5611 H 548.938 1.60951 -3.74912 0
M  V30 5612 H 547.613 0.520625 -4.12629 0
M  V30 5613 H 546.19 2.04829 -3.11608 0
M  V30 5614 N 548.375 1.56261 0.205012 0
M  V30 5615 C 549.307 1.90266 1.27795 0
M  V30 5616 C 550.32 0.792397 1.42214 0
M  V30 5617 O 551.509 1.07077 1.42817 0
M  V30 5618 C 548.609 2.11074 2.65143 0
M  V30 5619 C 547.782 3.42176 2.7246 0
M  V30 5620 C 546.841 3.52216 3.90936 0
M  V30 5621 O 545.867 4.25119 3.78501 0
M  V30 5622 N 547.069 2.84573 5.05963 0
M  V30 5623 H 549.834 2.82896 0.989434 0
M  V30 5624 H 547.395 1.57008 0.394981 0
M  V30 5625 H 549.387 2.15089 3.4281 0
M  V30 5626 H 547.957 1.2499 2.86524 0
M  V30 5627 H 547.177 3.50116 1.81142 0
M  V30 5628 H 548.465 4.28509 2.74331 0
M  V30 5629 H 547.863 2.25152 5.18963 0
M  V30 5630 H 546.42 2.94228 5.81613 0
M  V30 5631 N 549.853 -0.472356 1.50355 0
M  V30 5632 C 550.801 -1.59126 1.69651 0
M  V30 5633 C 551.795 -1.59793 0.56237 0
M  V30 5634 O 553.001 -1.63957 0.742832 0
M  V30 5635 H 549.376 -0.528008 0.535454 0
M  V30 5636 H 551.347 -1.40013 2.63513 0
M  V30 5637 C 550.096 -2.97075 1.8067 0
M  V30 5638 H 549.419 -2.9728 2.67329 0
M  V30 5639 H 550.859 -3.74825 1.98197 0
M  V30 5640 C 549.318 -3.32247 0.558016 0
M  V30 5641 O 549.848 -4.00553 -0.303399 0
M  V30 5642 N 548.054 -2.87659 0.412415 0
M  V30 5643 H 547.601 -2.32246 1.11443 0
M  V30 5644 H 547.559 -3.11556 -0.421908 0
M  V30 5645 N 551.331 -1.39911 -0.725443 0
M  V30 5646 C 552.556 -1.41137 -1.5197 0
M  V30 5647 C 552.981 -0.010262 -1.88097 0
M  V30 5648 O 552.339 0.979184 -1.52583 0
M  V30 5649 C 552.387 -2.2994 -2.77777 0
M  V30 5650 O 551.491 -1.73586 -3.74088 0
M  V30 5651 H 550.832 -0.480219 -0.458569 0
M  V30 5652 H 553.362 -1.84023 -0.894249 0
M  V30 5653 H 553.372 -2.44785 -3.26411 0
M  V30 5654 H 552.047 -3.31759 -2.50816 0
M  V30 5655 H 550.624 -1.68035 -3.32894 0
M  V30 5656 N 552.809 0.956637 -1.25245 0
M  V30 5657 C 553.741 2.05628 -1.01242 0
M  V30 5658 C 554.754 1.62785 0.0219579 0
M  V30 5659 O 555.943 1.77184 -0.216365 0
M  V30 5660 C 553.043 3.35069 -0.508161 0
M  V30 5661 C 552.216 4.06761 -1.60823 0
M  V30 5662 C 551.275 5.14473 -1.1047 0
M  V30 5663 O 550.301 5.40033 -1.79868 0
M  V30 5664 N 551.503 5.80474 0.0550773 0
M  V30 5665 H 554.268 2.2679 -1.95925 0
M  V30 5666 H 551.829 1.12505 -1.16423 0
M  V30 5667 H 553.821 4.044 -0.155819 0
M  V30 5668 H 552.391 3.10694 0.344683 0
M  V30 5669 H 551.611 3.31555 -2.13224 0
M  V30 5670 H 552.899 4.51418 -2.34733 0
M  V30 5671 H 552.297 5.62125 0.635004 0
M  V30 5672 H 550.854 6.50868 0.348469 0
M  V30 5673 N 554.287 1.06798 1.15896 0
M  V30 5674 C 555.219 0.641263 2.20046 0
M  V30 5675 C 556.232 -0.303355 1.59949 0
M  V30 5676 O 557.421 -0.0935478 1.78255 0
M  V30 5677 C 554.521 -0.0794029 3.38807 0
M  V30 5678 C 553.694 0.879986 4.28457 0
M  V30 5679 C 552.753 0.197638 5.25829 0
M  V30 5680 O 551.779 0.836913 5.63014 0
M  V30 5681 N 552.981 -1.05886 5.70761 0
M  V30 5682 H 555.746 1.53718 2.57276 0
M  V30 5683 H 553.307 0.951951 1.30956 0
M  V30 5684 H 555.299 -0.546418 4.00994 0
M  V30 5685 H 553.869 -0.877193 3.0004 0
M  V30 5686 H 553.089 1.52625 3.63454 0
M  V30 5687 H 554.377 1.53065 4.8523 0
M  V30 5688 H 553.775 -1.59828 5.42652 0
M  V30 5689 H 552.332 -1.46965 6.35015 0
M  V30 5690 N 555.766 -1.3263 0.851289 0
M  V30 5691 C 556.991 -2.02097 0.466006 0
M  V30 5692 C 557.416 -1.63574 -0.928709 0
M  V30 5693 O 556.774 -0.834665 -1.60944 0
M  V30 5694 C 556.822 -3.55425 0.608737 0
M  V30 5695 O 555.926 -4.10827 -0.359878 0
M  V30 5696 H 555.267 -0.636911 0.187724 0
M  V30 5697 H 557.797 -1.69253 1.14955 0
M  V30 5698 H 557.807 -4.04986 0.495006 0
M  V30 5699 H 556.482 -3.82806 1.62581 0
M  V30 5700 H 555.059 -3.72349 -0.202666 0
M  V30 5701 N 557.244 -0.608902 -1.45362 0
M  V30 5702 C 558.491 -0.104607 -2.0223 0
M  V30 5703 C 558.819 1.26534 -1.47714 0
M  V30 5704 O 558.074 1.84855 -0.642435 0
M  V30 5705 C 558.373 -0.0167296 -3.57396 0
M  V30 5706 C 558.039 -1.32251 -4.31069 0
M  V30 5707 C 556.701 -1.68019 -4.50914 0
M  V30 5708 C 559.053 -2.18542 -4.73169 0
M  V30 5709 C 556.381 -2.89828 -5.10114 0
M  V30 5710 C 558.733 -3.39602 -5.33717 0
M  V30 5711 C 557.397 -3.7562 -5.51784 0
M  V30 5712 H 556.667 -0.0382785 -0.740011 0
M  V30 5713 H 559.314 -0.790782 -1.7441 0
M  V30 5714 H 557.619 0.752715 -3.84502 0
M  V30 5715 H 559.316 0.389634 -3.99103 0
M  V30 5716 H 555.906 -1.03411 -4.15938 0
M  V30 5717 H 560.09 -1.92208 -4.5757 0
M  V30 5718 H 555.346 -3.17839 -5.22291 0
M  V30 5719 H 559.52 -4.06716 -5.65292 0
M  V30 5720 H 557.147 -4.70093 -5.97425 0
M  V30 5721 N 558.722 1.53707 -0.348139 0
M  V30 5722 C 559.999 1.93247 0.302475 0
M  V30 5723 C 560.379 1.28012 1.67857 0
M  V30 5724 O 559.727 0.43274 2.24365 0
M  V30 5725 C 559.937 3.47031 0.370159 0
M  V30 5726 C 561.285 4.20066 0.61882 0
M  V30 5727 O 562.309 3.53319 0.452087 0
M  V30 5728 O 561.168 5.38318 0.94215 0
M  V30 5729 H 558.262 0.807736 0.177458 0
M  V30 5730 H 560.808 1.64927 -0.399651 0
M  V30 5731 H 559.58 3.86745 -0.59534 0
M  V30 5732 H 559.203 3.81532 1.11888 0
M  V30 5733 N 560.2 0.0768682 1.57412 0
M  V30 5734 C 561.425 -0.603404 1.98428 0
M  V30 5735 C 561.85 -1.62047 0.955108 0
M  V30 5736 O 561.208 -1.81129 -0.0786778 0
M  V30 5737 C 561.256 -1.24396 3.38464 0
M  V30 5738 O 560.36 -2.35982 3.3821 0
M  V30 5739 H 559.701 -0.154741 0.645718 0
M  V30 5740 H 562.231 0.152885 2.04028 0
M  V30 5741 H 562.241 -1.5896 3.7576 0
M  V30 5742 H 560.916 -0.498735 4.12899 0
M  V30 5743 H 559.493 -2.03173 3.1269 0
M  V30 5744 N 561.678 -1.56367 -0.196722 0
M  V30 5745 C 562.903 -1.84991 -0.937714 0
M  V30 5746 C 563.328 -0.660244 -1.76132 0
M  V30 5747 O 562.686 0.390967 -1.77034 0
M  V30 5748 C 562.734 -3.11828 -1.81096 0
M  V30 5749 O 561.838 -2.92266 -2.90955 0
M  V30 5750 H 561.179 -0.609193 -0.264159 0
M  V30 5751 H 563.709 -2.03595 -0.202529 0
M  V30 5752 H 563.719 -3.42579 -2.21594 0
M  V30 5753 H 562.394 -3.98037 -1.2058 0
M  V30 5754 H 560.971 -2.72809 -2.54224 0
M  V30 5755 N 563.156 0.464375 -1.50603 0
M  V30 5756 C 564.381 1.24372 -1.65971 0
M  V30 5757 C 564.806 1.84901 -0.345453 0
M  V30 5758 O 564.164 1.67596 0.691457 0
M  V30 5759 C 564.212 2.32331 -2.7578 0
M  V30 5760 O 563.316 3.37146 -2.375 0
M  V30 5761 H 562.657 0.365604 -0.554283 0
M  V30 5762 H 565.187 0.55183 -1.97018 0
M  V30 5763 H 565.197 2.77539 -2.99059 0
M  V30 5764 H 563.872 1.87648 -3.71162 0
M  V30 5765 H 562.449 2.97602 -2.24694 0
M  V30 5766 N 564.634 1.40294 0.718013 0
M  V30 5767 C 566.045 1.34289 1.29705 0
M  V30 5768 C 566.396 0.0152228 1.96194 0
M  V30 5769 O 565.521 -0.88682 1.97394 0
M  V30 5770 C 566.116 2.43219 2.3586 0
M  V30 5771 C 564.675 2.40682 2.89394 0
M  V30 5772 C 563.822 2.24223 1.63154 0
M  V30 5773 H 566.773 1.50135 0.514312 0
M  V30 5774 H 566.794 2.10986 3.16647 0
M  V30 5775 H 566.306 3.39836 1.87439 0
M  V30 5776 H 564.407 1.47756 3.42051 0
M  V30 5777 H 564.52 3.36177 3.41353 0
M  V30 5778 H 562.884 1.71696 1.88129 0
M  V30 5779 H 563.667 3.22834 1.16761 0
M  V30 5780 N 566.112 -0.949982 1.2575 0
M  V30 5781 C 567.523 -1.50989 1.09815 0
M  V30 5782 C 567.874 -1.93497 -0.324556 0
M  V30 5783 O 566.999 -1.79068 -1.21506 0
M  V30 5784 C 567.594 -2.74394 1.98729 0
M  V30 5785 C 566.153 -3.26682 1.86965 0
M  V30 5786 C 565.3 -1.99498 1.92603 0
M  V30 5787 H 568.251 -0.766387 1.38968 0
M  V30 5788 H 568.272 -3.48383 1.53001 0
M  V30 5789 H 567.784 -2.43425 3.02268 0
M  V30 5790 H 565.885 -3.62461 0.863279 0
M  V30 5791 H 565.998 -3.94383 2.72027 0
M  V30 5792 H 564.362 -2.15005 1.36546 0
M  V30 5793 H 565.145 -1.70871 2.97755 0
M  V30 5794 N 567.59 -1.07411 -1.15328 0
M  V30 5795 C 568.818 -0.818782 -1.90009 0
M  V30 5796 C 569.233 0.628072 -1.78047 0
M  V30 5797 O 568.59 1.43085 -1.13282 0
M  V30 5798 C 568.641 -1.21874 -3.40337 0
M  V30 5799 O 568.362 -2.60883 -3.51954 0
M  V30 5800 C 569.863 -0.992796 -4.3204 0
M  V30 5801 H 567.083 -0.296007 -0.60218 0
M  V30 5802 H 569.627 -1.43073 -1.46117 0
M  V30 5803 H 567.782 -0.651103 -3.81889 0
M  V30 5804 H 568.196 -2.77216 -4.45255 0
M  V30 5805 H 569.67 -1.32215 -5.35932 0
M  V30 5806 H 570.147 0.0708331 -4.39143 0
M  V30 5807 H 570.753 -1.54537 -3.9623 0
M  V30 5808 N 569.068 1.32177 -0.85831 0
M  V30 5809 C 570.479 1.79381 -0.517621 0
M  V30 5810 C 570.83 1.70841 0.964769 0
M  V30 5811 O 569.955 1.26917 1.75274 0
M  V30 5812 C 570.55 3.25706 -0.932801 0
M  V30 5813 C 569.109 3.70851 -0.643953 0
M  V30 5814 C 568.256 2.53208 -1.13054 0
M  V30 5815 H 571.207 1.19424 -1.04516 0
M  V30 5816 H 571.228 3.79673 -0.250674 0
M  V30 5817 H 570.74 3.31889 -2.01174 0
M  V30 5818 H 568.841 3.70178 0.424112 0
M  V30 5819 H 568.954 4.63495 -1.21281 0
M  V30 5820 H 567.318 2.48676 -0.550679 0
M  V30 5821 H 568.101 2.62143 -2.21666 0
M  V30 5822 N 570.547 0.616602 1.45037 0
M  V30 5823 C 571.479 -0.135186 2.28801 0
M  V30 5824 C 572.492 -0.82303 1.40464 0
M  V30 5825 O 573.681 -0.686909 1.64754 0
M  V30 5826 C 570.781 -1.21292 3.16451 0
M  V30 5827 C 569.954 -0.61043 4.3312 0
M  V30 5828 C 569.013 -1.58022 5.01912 0
M  V30 5829 O 568.039 -1.10301 5.58411 0
M  V30 5830 N 569.241 -2.91464 5.02025 0
M  V30 5831 H 572.006 0.583612 2.93963 0
M  V30 5832 H 569.567 0.456723 1.55324 0
M  V30 5833 H 571.559 -1.86169 3.59337 0
M  V30 5834 H 570.129 -1.83412 2.53138 0
M  V30 5835 H 569.349 0.216638 3.93604 0
M  V30 5836 H 570.637 -0.188293 5.08451 0
M  V30 5837 H 570.035 -3.32829 4.57429 0
M  V30 5838 H 568.592 -3.51741 5.48745 0
M  V30 5839 N 572.025 -1.5352 0.356285 0
M  V30 5840 C 573.265 -2.03027 -0.23649 0
M  V30 5841 C 573.629 -1.23813 -1.46746 0
M  V30 5842 O 574.83 -1.63281 -2.13525 0
M  V30 5843 C 573.101 -3.53442 -0.530415 0
M  V30 5844 S 574.66 -4.24836 -1.09819 0
M  V30 5845 H 571.478 -0.707591 -0.0695378 0
M  V30 5846 H 574.08 -1.89077 0.496999 0
M  V30 5847 H 572.784 -4.087 0.373114 0
M  V30 5848 H 572.315 -3.71536 -1.29323 0
M  V30 5849 H 574.33 -4.35228 -2.38309 0
M  V30 5850 N 573.503 -0.0852151 -1.57369 0
M  V30 5851 C 574.453 0.88767 -2.10011 0
M  V30 5852 C 575.437 1.25021 -1.01285 0
M  V30 5853 O 576.629 1.22694 -1.27574 0
M  V30 5854 C 573.758 2.15037 -2.67608 0
M  V30 5855 C 572.844 1.81371 -3.83361 0
M  V30 5856 N 573.235 1.18216 -4.91791 0
M  V30 5857 C 571.533 2.11041 -3.92909 0
M  V30 5858 C 572.234 1.02941 -5.72519 0
M  V30 5859 N 571.21 1.54351 -5.21226 0
M  V30 5860 H 575.012 0.395279 -2.9123 0
M  V30 5861 H 572.526 0.11829 -1.61969 0
M  V30 5862 H 574.523 2.85667 -3.03644 0
M  V30 5863 H 573.183 2.64851 -1.8784 0
M  V30 5864 H 574.194 0.850168 -5.10874 0
M  V30 5865 H 570.871 2.63138 -3.24136 0
M  V30 5866 H 572.261 0.536298 -6.69756 0
M  V30 5867 N 574.981 1.5647 0.188427 0
M  V30 5868 C 575.928 1.95073 1.23349 0
M  V30 5869 C 576.898 0.812238 1.44886 0
M  V30 5870 O 578.083 1.07095 1.57909 0
M  V30 5871 C 575.223 2.30124 2.57171 0
M  V30 5872 C 574.336 3.57069 2.43157 0
M  V30 5873 C 573.471 3.81411 3.69729 0
M  V30 5874 C 572.51 5.0176 3.50575 0
M  V30 5875 N 571.647 5.22321 4.69175 0
M  V30 5876 H 576.487 2.84171 0.89728 0
M  V30 5877 H 574.024 1.40623 0.431683 0
M  V30 5878 H 575.982 2.48463 3.35145 0
M  V30 5879 H 574.612 1.44159 2.88822 0
M  V30 5880 H 573.664 3.4674 1.56447 0
M  V30 5881 H 574.976 4.452 2.24942 0
M  V30 5882 H 574.13 4.00026 4.56141 0
M  V30 5883 H 572.869 2.91624 3.90905 0
M  V30 5884 H 571.874 4.83061 2.62549 0
M  V30 5885 H 573.099 5.93063 3.30837 0
M  V30 5886 H 571.045 4.35483 4.90602 0
M  V30 5887 H 570.962 6.04643 4.53809 0
M  V30 5888 H 572.23 5.45401 5.56919 0
M  V30 5889 N 576.459 -0.456382 1.50847 0
M  V30 5890 C 577.875 -0.791345 1.386 0
M  V30 5891 C 578.075 -1.9633 0.453498 0
M  V30 5892 O 577.131 -2.52308 -0.0984353 0
M  V30 5893 C 578.444 -1.08959 2.80265 0
M  V30 5894 C 579.992 -1.19517 2.89283 0
M  V30 5895 C 580.467 -1.52647 4.31814 0
M  V30 5896 N 581.958 -1.59609 4.34832 0
M  V30 5897 C 582.693 -1.86777 5.42127 0
M  V30 5898 N 582.189 -2.11866 6.59609 0
M  V30 5899 N 583.982 -1.88402 5.29586 0
M  V30 5900 H 576.133 0.315746 2.1004 0
M  V30 5901 H 578.396 0.0787916 0.94472 0
M  V30 5902 H 578.102 -0.301355 3.50407 0
M  V30 5903 H 577.976 -2.02211 3.18419 0
M  V30 5904 H 580.363 -1.97406 2.19351 0
M  V30 5905 H 580.444 -0.242111 2.54652 0
M  V30 5906 H 580.088 -0.752922 5.02288 0
M  V30 5907 H 580.018 -2.49127 4.63943 0
M  V30 5908 H 582.509 -1.42201 3.50125 0
M  V30 5909 H 582.822 -2.31912 7.37182 0
M  V30 5910 H 581.167 -2.09228 6.62758 0
M  V30 5911 H 584.358 -1.68307 4.36795 0
M  V30 5912 H 584.531 -2.09238 6.13289 0
M  V30 5913 N 577.937 -1.40673 -0.710563 0
M  V30 5914 C 578.887 -1.37812 -1.81636 0
M  V30 5915 C 579.871 -0.254853 -1.58869 0
M  V30 5916 O 581.063 -0.494356 -1.69956 0
M  V30 5917 C 578.192 -1.24802 -3.19811 0
M  V30 5918 C 577.278 -2.41931 -3.48325 0
M  V30 5919 N 577.669 -3.67411 -3.47625 0
M  V30 5920 C 575.967 -2.35419 -3.78806 0
M  V30 5921 C 576.668 -4.45008 -3.74623 0
M  V30 5922 N 575.644 -3.74916 -3.93623 0
M  V30 5923 H 579.446 -2.32766 -1.79436 0
M  V30 5924 H 576.96 -1.34516 -0.909909 0
M  V30 5925 H 578.957 -1.20835 -3.99004 0
M  V30 5926 H 577.617 -0.308202 -3.23234 0
M  V30 5927 H 578.628 -4.00503 -3.28356 0
M  V30 5928 H 575.305 -1.4983 -3.89689 0
M  V30 5929 H 576.695 -5.53884 -3.80344 0
M  V30 5930 N 579.415 0.9433 -1.26252 0
M  V30 5931 C 580.831 1.21644 -1.03319 0
M  V30 5932 C 581.031 2.0003 0.242983 0
M  V30 5933 O 580.087 2.33838 0.952688 0
M  V30 5934 C 581.4 1.97978 -2.2633 0
M  V30 5935 C 582.948 2.10978 -2.31209 0
M  V30 5936 C 583.423 2.90713 -3.53907 0
M  V30 5937 N 584.914 2.98287 -3.54371 0
M  V30 5938 C 585.649 3.60406 -4.45976 0
M  V30 5939 N 585.145 4.24043 -5.47868 0
M  V30 5940 N 586.938 3.57658 -4.33633 0
M  V30 5941 H 579.089 0.419221 -2.08222 0
M  V30 5942 H 581.352 0.247995 -0.914988 0
M  V30 5943 H 581.058 1.47788 -3.19142 0
M  V30 5944 H 580.932 2.9865 -2.30408 0
M  V30 5945 H 583.319 2.6036 -1.38913 0
M  V30 5946 H 583.4 1.09575 -2.31143 0
M  V30 5947 H 583.044 2.42018 -4.46531 0
M  V30 5948 H 582.974 3.92367 -3.5122 0
M  V30 5949 H 585.465 2.53044 -2.80673 0
M  V30 5950 H 585.778 4.69334 -6.13959 0
M  V30 5951 H 584.123 4.22637 -5.51728 0
M  V30 5952 H 587.314 3.07134 -3.53251 0
M  V30 5953 H 587.487 4.05782 -5.05218 0
M  V30 5954 N 580.893 1.08022 1.14757 0
M  V30 5955 C 581.843 0.676345 2.17737 0
M  V30 5956 C 582.827 -0.302018 1.5804 0
M  V30 5957 O 584.019 -0.11466 1.76628 0
M  V30 5958 C 581.148 0.082984 3.432 0
M  V30 5959 C 580.234 1.0869 4.09936 0
M  V30 5960 N 580.625 2.26891 4.52055 0
M  V30 5961 C 578.923 0.921768 4.36371 0
M  V30 5962 C 579.624 2.90636 5.0389 0
M  V30 5963 N 578.6 2.18266 4.97856 0
M  V30 5964 H 582.402 1.5765 2.4804 0
M  V30 5965 H 579.916 0.954374 1.31398 0
M  V30 5966 H 581.913 -0.224289 4.16296 0
M  V30 5967 H 580.573 -0.812206 3.14378 0
M  V30 5968 H 581.584 2.6457 4.45223 0
M  V30 5969 H 578.261 0.0800499 4.17423 0
M  V30 5970 H 579.651 3.9104 5.46386 0
M  V30 5971 N 582.371 -1.3172 0.865308 0
M  V30 5972 C 583.611 -1.98675 0.480365 0
M  V30 5973 C 583.975 -1.66929 -0.948621 0
M  V30 5974 O 585.176 -2.27059 -1.43867 0
M  V30 5975 C 583.447 -3.49972 0.724858 0
M  V30 5976 S 585.006 -4.36598 0.439078 0
M  V30 5977 H 581.824 -0.687967 0.179506 0
M  V30 5978 H 584.426 -1.60215 1.12033 0
M  V30 5979 H 583.13 -3.70567 1.76375 0
M  V30 5980 H 582.661 -3.93335 0.0717173 0
M  V30 5981 H 584.676 -4.90792 -0.730564 0
M  V30 5982 N 583.85 -0.624285 -1.44708 0
M  V30 5983 C 585.26 -0.2092 -1.85524 0
M  V30 5984 C 585.611 1.23783 -1.52225 0
M  V30 5985 O 584.736 1.94089 -0.956986 0
M  V30 5986 C 585.332 -0.372897 -3.36742 0
M  V30 5987 C 583.891 -0.012374 -3.76398 0
M  V30 5988 C 583.038 -0.68951 -2.68591 0
M  V30 5989 H 585.989 -0.829894 -1.35272 0
M  V30 5990 H 586.01 0.390134 -3.78495 0
M  V30 5991 H 585.522 -1.42615 -3.60947 0
M  V30 5992 H 583.623 1.03941 -3.57809 0
M  V30 5993 H 583.736 -0.417663 -4.77276 0
M  V30 5994 H 582.1 -0.125484 -2.54391 0
M  V30 5995 H 582.883 -1.74522 -2.9563 0
M  V30 5996 N 585.328 1.53329 -0.364422 0
M  V30 5997 C 586.574 2.01537 0.225969 0
M  V30 5998 C 586.907 1.25128 1.48515 0
M  V30 5999 O 586.182 0.344653 1.91422 0
M  V30 6000 C 586.465 3.56339 0.519092 0
M  V30 6001 C 586.318 4.43441 -0.753639 0
M  V30 6002 C 587.637 4.19833 1.32015 0
M  V30 6003 H 584.756 0.732573 0.0806548 0
M  V30 6004 H 587.398 1.83597 -0.489084 0
M  V30 6005 H 585.548 3.71756 1.12825 0
M  V30 6006 H 587.22 4.39823 -1.39116 0
M  V30 6007 H 585.463 4.11457 -1.37424 0
M  V30 6008 H 586.134 5.49699 -0.503517 0
M  V30 6009 H 588.61 4.08242 0.804859 0
M  V30 6010 H 587.486 5.28177 1.49399 0
M  V30 6011 H 587.747 3.75821 2.32832 0
M  V30 6012 N 586.806 0.0935595 1.57322 0
M  V30 6013 C 588.052 -0.571355 1.94585 0
M  V30 6014 C 588.385 -1.67929 0.975366 0
M  V30 6015 O 587.66 -1.94498 0.00816206 0
M  V30 6016 C 587.943 -1.12797 3.41978 0
M  V30 6017 C 587.796 -0.0251881 4.49793 0
M  V30 6018 C 589.115 -2.02682 3.90651 0
M  V30 6019 H 586.234 -0.206223 0.70756 0
M  V30 6020 H 588.876 0.163956 1.89291 0
M  V30 6021 H 587.026 -1.75461 3.4662 0
M  V30 6022 H 588.698 0.608979 4.57263 0
M  V30 6023 H 586.941 0.641399 4.29032 0
M  V30 6024 H 587.612 -0.455433 5.50118 0
M  V30 6025 H 590.088 -1.49925 3.88152 0
M  V30 6026 H 588.964 -2.38555 4.94351 0
M  V30 6027 H 589.225 -2.94362 3.29854 0
M  V30 6028 N 588.284 -1.56567 -0.180126 0
M  V30 6029 C 589.53 -1.81761 -0.899497 0
M  V30 6030 C 589.863 -0.670015 -1.82276 0
M  V30 6031 O 589.138 0.328575 -1.91705 0
M  V30 6032 C 589.421 -3.17296 -1.7028 0
M  V30 6033 C 589.274 -4.4257 -0.803255 0
M  V30 6034 C 590.593 -3.49678 -2.67233 0
M  V30 6035 H 587.712 -0.661192 -0.325567 0
M  V30 6036 H 590.354 -1.89272 -0.16612 0
M  V30 6037 H 588.504 -3.11023 -2.32802 0
M  V30 6038 H 590.176 -4.60902 -0.191585 0
M  V30 6039 H 588.419 -4.33658 -0.110796 0
M  V30 6040 H 589.09 -5.33935 -1.40064 0
M  V30 6041 H 591.566 -3.56347 -2.14839 0
M  V30 6042 H 590.442 -4.45605 -3.20511 0
M  V30 6043 H 590.703 -2.73932 -3.47007 0
M  V30 6044 N 589.762 0.448376 -1.51087 0
M  V30 6045 C 590.987 1.22605 -1.6728 0
M  V30 6046 C 591.412 1.84524 -0.365045 0
M  V30 6047 O 590.77 1.6832 0.673642 0
M  V30 6048 C 590.818 2.29393 -2.78229 0
M  V30 6049 O 589.922 3.34608 -2.41063 0
M  V30 6050 H 589.263 0.359705 -0.558129 0
M  V30 6051 H 591.793 0.530903 -1.97592 0
M  V30 6052 H 591.803 2.74352 -3.01986 0
M  V30 6053 H 590.478 1.83701 -3.73131 0
M  V30 6054 H 589.055 2.95202 -2.27838 0
M  V30 6055 N 591.24 1.41047 0.703093 0
M  V30 6056 C 592.15 1.44645 1.84703 0
M  V30 6057 C 593.166 0.337778 1.7069 0
M  V30 6058 O 594.342 0.584327 1.92737 0
M  V30 6059 C 591.407 1.31928 3.20618 0
M  V30 6060 C 590.468 2.53047 3.46794 0
M  V30 6061 C 589.701 2.40927 4.76224 0
M  V30 6062 O 589.924 1.42978 5.5219 0
M  V30 6063 O 588.858 3.30543 5.03016 0
M  V30 6064 H 592.684 2.41139 1.84624 0
M  V30 6065 H 590.269 1.22504 0.855167 0
M  V30 6066 H 592.151 1.27092 4.01778 0
M  V30 6067 H 590.826 0.385469 3.21397 0
M  V30 6068 H 589.733 2.6346 2.65593 0
M  V30 6069 H 591.066 3.45231 3.50822 0
M  V30 6070 N 592.718 -0.936591 1.26751 0
M  V30 6071 C 593.681 -2.01752 1.08761 0
M  V30 6072 C 594.681 -1.60763 0.0344435 0
M  V30 6073 O 595.871 -1.71963 0.278258 0
M  V30 6074 C 593.003 -3.34543 0.655271 0
M  V30 6075 H 594.196 -2.19143 2.04735 0
M  V30 6076 H 591.749 -1.11618 1.09413 0
M  V30 6077 H 592.484 -3.22851 -0.30626 0
M  V30 6078 H 592.269 -3.65647 1.41578 0
M  V30 6079 H 593.759 -4.13944 0.551378 0
M  V30 6080 N 594.196 -1.08629 -1.14182 0
M  V30 6081 C 595.424 -0.838889 -1.8913 0
M  V30 6082 C 595.839 0.609153 -1.78703 0
M  V30 6083 O 595.196 1.41876 -1.14794 0
M  V30 6084 C 595.247 -1.25477 -3.39025 0
M  V30 6085 O 594.968 -2.64601 -3.49167 0
M  V30 6086 C 596.469 -1.03856 -4.30963 0
M  V30 6087 H 593.689 -0.302377 -0.599007 0
M  V30 6088 H 596.233 -1.44615 -1.44592 0
M  V30 6089 H 594.388 -0.691571 -3.81177 0
M  V30 6090 H 594.802 -2.81922 -4.42289 0
M  V30 6091 H 596.276 -1.37892 -5.345 0
M  V30 6092 H 596.753 0.0242522 -4.39193 0
M  V30 6093 H 597.359 -1.58731 -3.94569 0
M  V30 6094 N 595.674 1.31259 -0.872281 0
M  V30 6095 C 596.923 1.95893 -0.480493 0
M  V30 6096 C 597.236 1.697 0.972688 0
M  V30 6097 O 598.442 2.28214 1.47073 0
M  V30 6098 C 596.898 3.50705 -0.808342 0
M  V30 6099 C 596.506 3.85735 -2.27844 0
M  V30 6100 C 598.25 4.21719 -0.485136 0
M  V30 6101 C 596.157 5.33668 -2.54858 0
M  V30 6102 H 595.087 0.733182 -0.175955 0
M  V30 6103 H 597.738 1.49396 -1.0655 0
M  V30 6104 H 596.12 3.95706 -0.152558 0
M  V30 6105 H 597.294 3.51686 -2.97748 0
M  V30 6106 H 595.609 3.27792 -2.56791 0
M  V30 6107 H 598.206 5.30559 -0.664166 0
M  V30 6108 H 598.549 4.12316 0.574592 0
M  V30 6109 H 599.082 3.82359 -1.09756 0
M  V30 6110 H 595.821 5.48109 -3.59523 0
M  V30 6111 H 595.341 5.69061 -1.8955 0
M  V30 6112 H 597.02 6.00958 -2.39706 0
M  V30 6113 N 597.152 0.631951 1.44375 0
M  V30 6114 C 598.398 0.13697 2.02337 0
M  V30 6115 C 598.731 -1.23826 1.49602 0
M  V30 6116 O 598.006 -1.8221 0.680415 0
M  V30 6117 C 598.289 0.124536 3.59885 0
M  V30 6118 C 598.142 1.53217 4.229 0
M  V30 6119 C 599.461 -0.550481 4.36644 0
M  V30 6120 H 596.58 0.051247 0.735216 0
M  V30 6121 H 599.222 0.808581 1.71936 0
M  V30 6122 H 597.372 -0.44737 3.85916 0
M  V30 6123 H 599.044 2.15303 4.07973 0
M  V30 6124 H 597.287 2.0858 3.80364 0
M  V30 6125 H 597.958 1.4755 5.31914 0
M  V30 6126 H 600.434 -0.0641154 4.16051 0
M  V30 6127 H 599.31 -0.528371 5.46351 0
M  V30 6128 H 599.571 -1.62097 4.11311 0
M  V30 6129 N 598.631 -1.53133 0.372548 0
M  V30 6130 C 599.879 -2.00958 -0.214534 0
M  V30 6131 C 600.2 -1.26135 -1.48711 0
M  V30 6132 O 599.47 -0.376597 -1.92246 0
M  V30 6133 H 598.05 -0.742456 -0.0822664 0
M  V30 6134 H 600.712 -1.88367 0.500385 0
M  V30 6135 H 599.808 -3.09031 -0.436605 0
M  V30 6136 N 600.109 -0.101901 -1.5727 0
M  V30 6137 C 601.355 0.561027 -1.94885 0
M  V30 6138 C 601.688 1.6741 -0.984258 0
M  V30 6139 O 600.963 1.94491 -0.0184767 0
M  V30 6140 C 601.246 1.10982 -3.42571 0
M  V30 6141 C 601.099 0.00133418 -4.498 0
M  V30 6142 C 602.418 2.00608 -3.9172 0
M  V30 6143 H 599.537 0.202467 -0.708644 0
M  V30 6144 H 602.179 -0.173992 -1.89202 0
M  V30 6145 H 600.329 1.73621 -3.47546 0
M  V30 6146 H 602.001 -0.63322 -4.56933 0
M  V30 6147 H 600.244 -0.664143 -4.28686 0
M  V30 6148 H 600.915 0.426253 -5.50352 0
M  V30 6149 H 603.391 1.47864 -3.88941 0
M  V30 6150 H 602.267 2.3593 -4.95609 0
M  V30 6151 H 602.528 2.92608 -3.3141 0
M  V30 6152 N 601.587 1.56661 0.17182 0
M  V30 6153 C 603.003 1.50768 0.52357 0
M  V30 6154 C 603.203 0.806072 1.84675 0
M  V30 6155 O 602.259 0.366233 2.4983 0
M  V30 6156 C 603.572 2.955 0.556793 0
M  V30 6157 C 605.12 3.06303 0.644029 0
M  V30 6158 C 605.595 4.52492 0.708148 0
M  V30 6159 N 607.086 4.56737 0.771051 0
M  V30 6160 C 607.821 5.67196 0.841229 0
M  V30 6161 N 607.317 6.87287 0.872272 0
M  V30 6162 N 609.11 5.55165 0.88021 0
M  V30 6163 H 601.261 2.00679 -0.695817 0
M  V30 6164 H 603.524 0.914219 -0.250814 0
M  V30 6165 H 603.23 3.49986 -0.346774 0
M  V30 6166 H 603.104 3.50119 1.40346 0
M  V30 6167 H 605.491 2.51851 1.53802 0
M  V30 6168 H 605.572 2.5477 -0.229297 0
M  V30 6169 H 605.216 5.07575 -0.181585 0
M  V30 6170 H 605.146 5.01781 1.59761 0
M  V30 6171 H 607.637 3.70274 0.755364 0
M  V30 6172 H 607.95 7.6722 0.92698 0
M  V30 6173 H 606.295 6.89898 0.840557 0
M  V30 6174 H 609.486 4.60263 0.852956 0
M  V30 6175 H 609.659 6.41271 0.931439 0
M  V30 6176 N 603.065 -0.440357 1.51323 0
M  V30 6177 C 604.012 -1.53429 1.72419 0
M  V30 6178 C 604.982 -1.56165 0.565826 0
M  V30 6179 O 606.167 -1.73222 0.799917 0
M  V30 6180 C 603.307 -2.91169 1.85242 0
M  V30 6181 C 602.42 -2.97985 3.12777 0
M  V30 6182 C 601.555 -4.26829 3.16212 0
M  V30 6183 C 600.594 -4.27501 4.38074 0
M  V30 6184 N 599.731 -5.47866 4.39076 0
M  V30 6185 H 604.571 -1.34743 2.65797 0
M  V30 6186 H 602.108 -0.654608 1.31732 0
M  V30 6187 H 604.066 -3.71087 1.90658 0
M  V30 6188 H 602.696 -3.0842 0.952744 0
M  V30 6189 H 601.748 -2.10749 3.16685 0
M  V30 6190 H 603.06 -2.94342 4.02696 0
M  V30 6191 H 602.214 -5.15118 3.20527 0
M  V30 6192 H 600.953 -4.33124 2.24176 0
M  V30 6193 H 599.958 -3.37606 4.33938 0
M  V30 6194 H 601.183 -4.22873 5.31371 0
M  V30 6195 H 599.129 -5.54887 3.49909 0
M  V30 6196 H 599.046 -5.46091 5.22801 0
M  V30 6197 H 600.314 -6.38195 4.4758 0
M  V30 6198 N 604.543 -1.41418 -0.695603 0
M  V30 6199 C 605.771 -1.4413 -1.48439 0
M  V30 6200 C 606.186 -0.0465698 -1.88743 0
M  V30 6201 O 605.543 0.934117 -1.56782 0
M  V30 6202 C 605.594 -2.34998 -2.74696 0
M  V30 6203 O 605.315 -3.69043 -2.36091 0
M  V30 6204 C 606.816 -2.46513 -3.68438 0
M  V30 6205 H 604.036 -0.490905 -0.457442 0
M  V30 6206 H 606.58 -1.85702 -0.856454 0
M  V30 6207 H 604.735 -1.96735 -3.33728 0
M  V30 6208 H 605.149 -4.17505 -3.17474 0
M  V30 6209 H 606.623 -3.1426 -4.53811 0
M  V30 6210 H 607.1 -1.49638 -4.12922 0
M  V30 6211 H 607.706 -2.85412 -3.1531 0
M  V30 6212 N 606.021 0.929856 -1.27246 0
M  V30 6213 C 607.269 1.674 -1.13233 0
M  V30 6214 C 607.59 1.92311 0.322744 0
M  V30 6215 O 606.86 1.52784 1.22612 0
M  V30 6216 H 605.44 0.620411 -0.416052 0
M  V30 6217 H 608.102 1.11663 -1.59741 0
M  V30 6218 H 607.198 2.64308 -1.65975 0
M  V30 6219 N 607.499 1.09233 1.13605 0
M  V30 6220 C 608.431 0.687794 2.18637 0
M  V30 6221 C 609.444 -0.26936 1.60556 0
M  V30 6222 O 610.633 -0.0557162 1.78413 0
M  V30 6223 C 607.733 -0.00751901 3.38899 0
M  V30 6224 C 606.906 0.97067 4.26494 0
M  V30 6225 C 605.965 0.309129 5.25291 0
M  V30 6226 O 604.991 0.956149 5.61112 0
M  V30 6227 N 606.193 -0.937555 5.72879 0
M  V30 6228 H 608.958 1.59141 2.53957 0
M  V30 6229 H 606.519 0.979515 1.28907 0
M  V30 6230 H 608.511 -0.461238 4.02063 0
M  V30 6231 H 607.081 -0.813353 3.01833 0
M  V30 6232 H 606.301 1.603 3.60135 0
M  V30 6233 H 607.589 1.63323 4.81875 0
M  V30 6234 H 606.987 -1.48281 5.4592 0
M  V30 6235 H 605.544 -1.33463 6.3799 0
M  V30 6236 N 608.977 -1.30795 0.87923 0
M  V30 6237 C 610.226 -1.95636 0.490875 0
M  V30 6238 C 610.539 -1.70214 -0.963674 0
M  V30 6239 O 611.745 -2.28991 -1.45861 0
M  V30 6240 C 610.201 -3.50271 0.826929 0
M  V30 6241 C 609.809 -3.84521 2.29886 0
M  V30 6242 C 611.553 -4.21456 0.507494 0
M  V30 6243 C 609.46 -5.32309 2.57685 0
M  V30 6244 H 608.39 -0.732238 0.179841 0
M  V30 6245 H 611.041 -1.48829 1.07341 0
M  V30 6246 H 609.423 -3.9562 0.173542 0
M  V30 6247 H 610.597 -3.50102 2.99609 0
M  V30 6248 H 608.912 -3.26425 2.58526 0
M  V30 6249 H 611.509 -5.30199 0.692293 0
M  V30 6250 H 611.852 -4.12614 -0.552718 0
M  V30 6251 H 612.385 -3.81772 1.11782 0
M  V30 6252 H 609.124 -5.46195 3.62424 0
M  V30 6253 H 608.644 -5.68048 1.92566 0
M  V30 6254 H 610.323 -5.99678 2.42889 0
M  V30 6255 N 610.455 -0.639598 -1.44038 0
M  V30 6256 C 611.701 -0.156248 -2.02799 0
M  V30 6257 C 612.056 1.21145 -1.49471 0
M  V30 6258 O 611.349 1.79406 -0.672608 0
M  V30 6259 C 611.543 -0.0925348 -3.5728 0
M  V30 6260 C 611.372 -1.45252 -4.25596 0
M  V30 6261 C 610.142 -2.04145 -4.62226 0
M  V30 6262 C 612.34 -2.38812 -4.55492 0
M  V30 6263 N 610.322 -3.3329 -5.15549 0
M  V30 6264 C 611.693 -3.52578 -5.09989 0
M  V30 6265 C 613.748 -2.37785 -4.3745 0
M  V30 6266 C 612.451 -4.65525 -5.48342 0
M  V30 6267 C 614.477 -3.49802 -4.76857 0
M  V30 6268 C 613.839 -4.62292 -5.31475 0
M  V30 6269 H 609.938 -0.101292 -0.775412 0
M  V30 6270 H 612.522 -0.844938 -1.75411 0
M  V30 6271 H 610.693 0.565459 -3.84262 0
M  V30 6272 H 612.425 0.400426 -4.02714 0
M  V30 6273 H 609.18 -1.56999 -4.4682 0
M  V30 6274 H 609.604 -3.9934 -5.46678 0
M  V30 6275 H 614.246 -1.52061 -3.94509 0
M  V30 6276 H 611.964 -5.51951 -5.90233 0
M  V30 6277 H 615.55 -3.50193 -4.64603 0
M  V30 6278 H 614.43 -5.47536 -5.61403 0
M  V30 6279 N 611.933 1.52934 -0.380664 0
M  V30 6280 C 613.344 1.86457 0.0952684 0
M  V30 6281 C 613.695 1.3007 1.46889 0
M  V30 6282 O 612.82 0.628636 2.07068 0
M  V30 6283 C 613.415 3.38323 0.179648 0
M  V30 6284 C 611.974 3.71589 0.599858 0
M  V30 6285 C 611.121 2.76228 -0.243572 0
M  V30 6286 H 614.072 1.46966 -0.59888 0
M  V30 6287 H 614.093 3.67113 1.00042 0
M  V30 6288 H 613.605 3.79333 -0.820228 0
M  V30 6289 H 611.706 3.36144 1.60742 0
M  V30 6290 H 611.819 4.77715 0.364003 0
M  V30 6291 H 610.183 2.53045 0.289855 0
M  V30 6292 H 610.966 3.20074 -1.24127 0
M  V30 6293 N 613.412 0.11024 1.57214 0
M  V30 6294 C 614.36 -0.860586 2.16094 0
M  V30 6295 C 615.354 -1.28156 1.1078 0
M  V30 6296 O 616.56 -1.25433 1.29099 0
M  V30 6297 H 612.935 -0.295606 0.691463 0
M  V30 6298 H 614.906 -0.33942 2.96463 0
M  V30 6299 C 613.655 -2.10421 2.768 0
M  V30 6300 H 612.978 -1.7892 3.5753 0
M  V30 6301 H 614.418 -2.76375 3.21547 0
M  V30 6302 C 612.877 -2.88823 1.73444 0
M  V30 6303 O 613.407 -3.839 1.18251 0
M  V30 6304 N 611.613 -2.52649 1.43586 0
M  V30 6305 H 611.16 -1.754 1.8866 0
M  V30 6306 H 611.118 -3.05403 0.746735 0
M  V30 6307 N 614.89 -1.56749 -0.16351 0
M  V30 6308 C 616.167 -1.73321 -0.906599 0
M  V30 6309 C 616.547 -0.673779 -2.00059 0
M  V30 6310 O 615.895 0.310121 -2.26386 0
M  V30 6311 C 616.105 -3.168 -1.46419 0
M  V30 6312 C 617.453 -3.77993 -1.93407 0
M  V30 6313 O 618.477 -3.20127 -1.56196 0
M  V30 6314 O 617.336 -4.79615 -2.61976 0
M  V30 6315 H 614.43 -0.708073 -0.427272 0
M  V30 6316 H 616.976 -1.69029 -0.150727 0
M  V30 6317 H 615.748 -3.85396 -0.677189 0
M  V30 6318 H 615.371 -3.2545 -2.28403 0
M  V30 6319 N 616.368 0.432326 -1.51554 0
M  V30 6320 C 617.616 1.17901 -1.64146 0
M  V30 6321 C 617.937 1.91604 -0.362367 0
M  V30 6322 O 617.207 1.85764 0.621968 0
M  V30 6323 H 615.787 0.438206 -0.604966 0
M  V30 6324 H 618.449 0.495172 -1.88505 0
M  V30 6325 H 617.545 1.90584 -2.47152 0
M  V30 6326 N 617.846 1.41785 0.688094 0
M  V30 6327 C 618.756 1.46596 1.83158 0
M  V30 6328 C 619.772 0.355862 1.70322 0
M  V30 6329 O 620.948 0.604737 1.92106 0
M  V30 6330 C 618.013 1.35322 3.192 0
M  V30 6331 C 617.074 2.56711 3.4409 0
M  V30 6332 C 616.307 2.45965 4.73642 0
M  V30 6333 O 616.53 1.48827 5.50642 0
M  V30 6334 O 615.464 3.35859 4.99482 0
M  V30 6335 H 619.29 2.43083 1.82056 0
M  V30 6336 H 616.875 1.23404 0.842126 0
M  V30 6337 H 618.757 1.31347 4.00407 0
M  V30 6338 H 617.432 0.419536 3.2097 0
M  V30 6339 H 616.339 2.66262 2.62784 0
M  V30 6340 H 617.672 3.48933 3.47141 0
M  V30 6341 N 619.324 -0.923095 1.27737 0
M  V30 6342 C 620.572 -1.66797 1.14119 0
M  V30 6343 C 620.893 -1.92479 -0.312541 0
M  V30 6344 O 620.163 -1.53432 -1.218 0
M  V30 6345 H 618.743 -0.618196 0.419336 0
M  V30 6346 H 621.405 -1.10815 1.60331 0
M  V30 6347 H 620.501 -2.63424 1.67374 0
M  V30 6348 N 620.802 -1.09834 -1.13024 0
M  V30 6349 C 621.765 -0.745058 -2.16752 0
M  V30 6350 C 622.765 0.227435 -1.59183 0
M  V30 6351 O 623.955 0.0050786 -1.74199 0
M  V30 6352 C 621.087 -0.102543 -3.40746 0
M  V30 6353 H 622.28 -1.66375 -2.49518 0
M  V30 6354 H 619.833 -0.898061 -1.27924 0
M  V30 6355 H 620.568 0.827177 -3.13573 0
M  V30 6356 H 620.353 -0.80235 -3.83803 0
M  V30 6357 H 621.843 0.129082 -4.174 0
M  V30 6358 N 622.28 1.30327 -0.886154 0
M  V30 6359 C 623.527 1.96097 -0.505192 0
M  V30 6360 C 623.855 1.69952 0.945868 0
M  V30 6361 O 623.11 0.997653 1.68361 0
M  V30 6362 C 623.409 3.49906 -0.728042 0
M  V30 6363 C 623.075 3.96103 -2.15437 0
M  V30 6364 C 621.737 4.08428 -2.5444 0
M  V30 6365 C 624.089 4.20177 -3.08384 0
M  V30 6366 C 621.417 4.42189 -3.85598 0
M  V30 6367 C 623.769 4.55407 -4.39075 0
M  V30 6368 C 622.433 4.65941 -4.7797 0
M  V30 6369 H 621.703 0.71757 -0.184863 0
M  V30 6370 H 624.35 1.55171 -1.12223 0
M  V30 6371 H 622.655 3.9179 -0.027978 0
M  V30 6372 H 624.352 3.98869 -0.412862 0
M  V30 6373 H 620.942 3.87017 -1.84162 0
M  V30 6374 H 625.126 4.10134 -2.7947 0
M  V30 6375 H 620.382 4.48544 -4.15473 0
M  V30 6376 H 624.556 4.72986 -5.11133 0
M  V30 6377 H 622.183 4.91856 -5.79639 0
M  V30 6378 N 623.758 0.647228 1.43697 0
M  V30 6379 C 624.708 -0.0702191 2.27892 0
M  V30 6380 C 625.692 -0.800601 1.39568 0
M  V30 6381 O 626.884 -0.684055 1.63247 0
M  V30 6382 C 624.013 -1.04008 3.27165 0
M  V30 6383 C 623.099 -0.308484 4.22977 0
M  V30 6384 N 623.49 0.671721 5.0132 0
M  V30 6385 C 621.788 -0.550751 4.42586 0
M  V30 6386 C 622.489 1.10543 5.711 0
M  V30 6387 N 621.465 0.440903 5.41809 0
M  V30 6388 H 625.267 0.682031 2.85877 0
M  V30 6389 H 622.781 0.474022 1.55328 0
M  V30 6390 H 624.778 -1.56881 3.86256 0
M  V30 6391 H 623.438 -1.79246 2.70742 0
M  V30 6392 H 624.449 1.0502 5.0714 0
M  V30 6393 H 621.126 -1.28476 3.97241 0
M  V30 6394 H 622.516 1.91614 6.43998 0
M  V30 6395 N 625.236 -1.5273 0.388769 0
M  V30 6396 C 626.484 -2.01174 -0.193208 0
M  V30 6397 C 626.805 -1.27705 -1.47365 0
M  V30 6398 O 626.075 -0.396966 -1.91836 0
M  V30 6399 H 624.655 -0.743287 -0.0743871 0
M  V30 6400 H 627.317 -1.87826 0.520336 0
M  V30 6401 H 626.413 -3.09477 -0.403803 0
M  V30 6402 N 626.714 -0.118576 -1.57153 0
M  V30 6403 C 627.991 0.583062 -1.86708 0
M  V30 6404 C 628.371 1.84841 -1.01967 0
M  V30 6405 O 627.719 2.28288 -0.0984673 0
M  V30 6406 C 627.929 0.875912 -3.3783 0
M  V30 6407 C 629.277 1.22916 -4.0642 0
M  V30 6408 O 630.301 0.966188 -3.42846 0
M  V30 6409 O 629.16 1.72269 -5.18638 0
M  V30 6410 H 626.254 0.294185 -0.772906 0
M  V30 6411 H 628.8 -0.153048 -1.69008 0
M  V30 6412 H 627.572 -0.0207776 -3.91294 0
M  V30 6413 H 627.195 1.66719 -3.60958 0
M  V30 6414 N 628.193 1.56834 0.155195 0
M  V30 6415 C 629.156 1.96748 1.17571 0
M  V30 6416 C 630.156 0.853006 1.3631 0
M  V30 6417 O 631.346 1.11978 1.33441 0
M  V30 6418 C 628.478 2.27631 2.53765 0
M  V30 6419 H 629.671 2.88085 0.833498 0
M  V30 6420 H 627.224 1.51141 0.398242 0
M  V30 6421 H 627.959 1.39059 2.92973 0
M  V30 6422 H 627.744 3.0888 2.41527 0
M  V30 6423 H 629.234 2.59377 3.27282 0
M  V30 6424 N 629.671 -0.424282 1.51781 0
M  V30 6425 C 630.948 -1.18464 1.55646 0
M  V30 6426 C 631.328 -2.08529 0.328438 0
M  V30 6427 O 630.676 -2.17969 -0.685693 0
M  V30 6428 C 630.886 -1.97514 2.87731 0
M  V30 6429 C 632.234 -2.54106 3.40169 0
M  V30 6430 O 633.258 -2.07711 2.89369 0
M  V30 6431 O 632.117 -3.38759 4.28841 0
M  V30 6432 H 629.211 -0.540055 0.626314 0
M  V30 6433 H 631.757 -0.432291 1.64102 0
M  V30 6434 H 630.529 -1.31444 3.68562 0
M  V30 6435 H 630.152 -2.79787 2.82498 0
M  V30 6436 N 631.149 -1.42148 -0.680565 0
M  V30 6437 C 632.397 -1.42029 -1.43779 0
M  V30 6438 C 632.718 -0.0356347 -1.94967 0
M  V30 6439 O 631.988 0.924936 -1.7269 0
M  V30 6440 H 630.568 -0.522835 -0.533529 0
M  V30 6441 H 633.23 -1.7752 -0.804538 0
M  V30 6442 H 632.326 -2.11658 -2.29363 0
M  V30 6443 N 632.627 0.916307 -1.28225 0
M  V30 6444 C 633.852 1.7043 -1.18188 0
M  V30 6445 C 634.277 1.86346 0.256274 0
M  V30 6446 O 633.635 1.37175 1.18544 0
M  V30 6447 C 633.683 3.07546 -1.88275 0
M  V30 6448 O 632.787 3.94904 -1.18848 0
M  V30 6449 H 632.128 0.521967 -0.410423 0
M  V30 6450 H 634.658 1.14589 -1.69501 0
M  V30 6451 H 634.668 3.57793 -1.96082 0
M  V30 6452 H 633.343 2.95279 -2.92887 0
M  V30 6453 H 631.92 3.53339 -1.19187 0
M  V30 6454 N 634.105 1.10431 1.1244 0
M  V30 6455 C 635.352 0.846717 1.83948 0
M  V30 6456 C 635.68 -0.627709 1.84093 0
M  V30 6457 O 634.935 -1.47876 1.28184 0
M  V30 6458 C 635.234 1.34022 3.3132 0
M  V30 6459 C 634.9 2.82606 3.51347 0
M  V30 6460 C 633.562 3.23182 3.56521 0
M  V30 6461 C 635.914 3.78356 3.58464 0
M  V30 6462 C 633.242 4.58258 3.66356 0
M  V30 6463 C 635.594 5.13234 3.69829 0
M  V30 6464 C 634.258 5.53384 3.73259 0
M  V30 6465 H 633.528 0.309836 0.673114 0
M  V30 6466 H 636.175 1.38091 1.32677 0
M  V30 6467 H 634.48 0.726047 3.85014 0
M  V30 6468 H 636.177 1.11739 3.85118 0
M  V30 6469 H 632.767 2.50212 3.47983 0
M  V30 6470 H 636.951 3.48115 3.53737 0
M  V30 6471 H 632.207 4.88787 3.67284 0
M  V30 6472 H 636.381 5.87272 3.74279 0
M  V30 6473 H 634.008 6.58045 3.80633 0
M  V30 6474 N 635.583 -1.29855 0.893053 0
M  V30 6475 C 636.831 -1.9544 0.514566 0
M  V30 6476 C 637.152 -1.70795 -0.940959 0
M  V30 6477 O 636.422 -1.03601 -1.66264 0
M  V30 6478 H 635.002 -0.723137 0.187302 0
M  V30 6479 H 637.664 -1.58234 1.13789 0
M  V30 6480 H 636.76 -3.04341 0.691581 0
M  V30 6481 N 637.061 -0.65484 -1.43351 0
M  V30 6482 C 638.289 -0.176685 -2.06144 0
M  V30 6483 C 638.704 1.15831 -1.49093 0
M  V30 6484 O 638.061 1.71542 -0.622868 0
M  V30 6485 C 638.112 -0.0813326 -3.61408 0
M  V30 6486 O 637.833 -1.36355 -4.1634 0
M  V30 6487 C 639.334 0.422706 -4.4128 0
M  V30 6488 H 636.554 -0.0906429 -0.66485 0
M  V30 6489 H 639.098 -0.895945 -1.83829 0
M  V30 6490 H 637.253 0.588496 -3.82904 0
M  V30 6491 H 637.667 -1.22381 -5.10023 0
M  V30 6492 H 639.141 0.438375 -5.50257 0
M  V30 6493 H 639.618 1.45432 -4.14423 0
M  V30 6494 H 640.224 -0.214687 -4.24758 0
M  V30 6495 N 638.539 1.52521 -0.396863 0
M  V30 6496 C 639.95 1.86547 0.0754868 0
M  V30 6497 C 640.301 1.31621 1.45501 0
M  V30 6498 O 639.426 0.650563 2.0639 0
M  V30 6499 C 640.021 3.38495 0.143754 0
M  V30 6500 C 638.58 3.72205 0.560413 0
M  V30 6501 C 637.727 2.75954 -0.272856 0
M  V30 6502 H 640.678 1.46323 -0.614434 0
M  V30 6503 H 640.699 3.68153 0.961425 0
M  V30 6504 H 640.211 3.78442 -0.860415 0
M  V30 6505 H 638.312 3.3783 1.57167 0
M  V30 6506 H 638.425 4.78074 0.313314 0
M  V30 6507 H 636.789 2.53339 0.263 0
M  V30 6508 H 637.572 3.1874 -1.27515 0
M  V30 6509 N 640.017 0.126909 1.57088 0
M  V30 6510 C 641.428 -0.397201 1.82426 0
M  V30 6511 C 641.779 -1.66084 1.04453 0
M  V30 6512 O 640.904 -2.14534 0.283552 0
M  V30 6513 C 641.499 -0.727411 3.30899 0
M  V30 6514 C 640.058 -1.19612 3.56889 0
M  V30 6515 C 639.205 -0.20885 2.76512 0
M  V30 6516 H 642.156 0.351924 1.54749 0
M  V30 6517 H 642.177 -1.58407 3.45959 0
M  V30 6518 H 641.689 0.19247 3.87622 0
M  V30 6519 H 639.79 -2.13263 3.05532 0
M  V30 6520 H 639.903 -1.13598 4.65438 0
M  V30 6521 H 638.267 -0.697479 2.44964 0
M  V30 6522 H 639.05 0.704267 3.35998 0
M  V30 6523 N 641.495 -1.56914 -0.146875 0
M  V30 6524 C 642.743 -1.82994 -0.85777 0
M  V30 6525 C 643.064 -0.707814 -1.817 0
M  V30 6526 O 642.334 0.270521 -1.94023 0
M  V30 6527 H 640.914 -0.675106 -0.319751 0
M  V30 6528 H 643.576 -1.9439 -0.140849 0
M  V30 6529 H 642.672 -2.77928 -1.41994 0
M  V30 6530 N 642.974 0.416227 -1.52004 0
M  V30 6531 C 644.204 1.18401 -1.69307 0
M  V30 6532 C 644.612 1.84943 -0.399072 0
M  V30 6533 O 643.955 1.72406 0.634177 0
M  V30 6534 C 644.017 2.29465 -2.76742 0
M  V30 6535 C 643.681 1.83117 -4.18709 0
M  V30 6536 C 644.678 1.32286 -5.02789 0
M  V30 6537 C 642.363 1.90167 -4.64911 0
M  V30 6538 C 644.357 0.891178 -6.31139 0
M  V30 6539 C 642.044 1.4661 -5.93253 0
M  V30 6540 C 643.042 0.961696 -6.76196 0
M  V30 6541 O 642.73 0.532388 -8.02135 0
M  V30 6542 H 642.462 0.362098 -0.570843 0
M  V30 6543 H 645.016 0.496764 -1.99302 0
M  V30 6544 H 643.246 3.01531 -2.42107 0
M  V30 6545 H 644.935 2.91252 -2.82713 0
M  V30 6546 H 645.701 1.26218 -4.68288 0
M  V30 6547 H 641.58 2.28371 -4.00459 0
M  V30 6548 H 645.124 0.496788 -6.95829 0
M  V30 6549 H 641.021 1.52355 -6.27263 0
M  V30 6550 H 641.789 0.656339 -8.15864 0
M  V30 6551 N 644.452 1.42507 0.673017 0
M  V30 6552 C 645.7 1.42789 1.43023 0
M  V30 6553 C 646.021 0.0459738 1.94946 0
M  V30 6554 O 645.291 -0.915765 1.73178 0
M  V30 6555 H 643.871 0.525657 0.530748 0
M  V30 6556 H 646.533 1.77944 0.795113 0
M  V30 6557 H 645.629 2.12872 2.28237 0
M  V30 6558 N 645.93 -0.909495 1.28709 0
M  V30 6559 C 647.17 -1.67344 1.17368 0
M  V30 6560 C 647.534 -1.90058 -0.272419 0
M  V30 6561 O 648.735 -2.63944 -0.508617 0
M  V30 6562 C 647.006 -2.99219 1.95455 0
M  V30 6563 S 648.565 -3.90295 2.00538 0
M  V30 6564 H 645.383 -0.57466 0.418672 0
M  V30 6565 H 647.985 -1.08144 1.62865 0
M  V30 6566 H 646.689 -2.80393 2.9968 0
M  V30 6567 H 646.22 -3.63464 1.50524 0
M  V30 6568 H 648.235 -4.83511 1.11496 0
M  V30 6569 N 647.408 -1.11026 -1.11852 0
M  V30 6570 C 648.371 -0.768006 -2.1595 0
M  V30 6571 C 649.371 0.210538 -1.59416 0
M  V30 6572 O 650.561 -0.0133978 -1.74195 0
M  V30 6573 C 647.693 -0.138678 -3.40618 0
M  V30 6574 H 648.886 -1.69012 -2.4774 0
M  V30 6575 H 646.439 -0.911578 -1.26964 0
M  V30 6576 H 647.174 0.793872 -3.14433 0
M  V30 6577 H 646.959 -0.843012 -3.8293 0
M  V30 6578 H 648.449 0.0848039 -4.17514 0
M  V30 6579 N 648.886 1.2938 -0.899927 0
M  V30 6580 C 649.849 2.25983 -0.382677 0
M  V30 6581 C 650.849 1.53366 0.483259 0
M  V30 6582 O 652.039 1.71798 0.28828 0
M  V30 6583 C 649.171 3.37878 0.452915 0
M  V30 6584 H 650.364 2.73252 -1.23586 0
M  V30 6585 H 647.917 1.40825 -0.678088 0
M  V30 6586 H 648.652 2.95949 1.32608 0
M  V30 6587 H 648.437 3.91742 -0.167562 0
M  V30 6588 H 649.927 4.09746 0.806107 0
M  V30 6589 N 650.364 0.662433 1.43002 0
M  V30 6590 C 651.641 0.109096 1.95296 0
M  V30 6591 C 652.021 -1.37313 1.60338 0
M  V30 6592 O 651.369 -2.1032 0.893187 0
M  V30 6593 C 651.579 0.365096 3.47085 0
M  V30 6594 C 652.927 0.274964 4.23709 0
M  V30 6595 O 653.951 0.29816 3.5495 0
M  V30 6596 O 652.81 0.206549 5.4611 0
M  V30 6597 H 649.904 -0.00429724 0.826989 0
M  V30 6598 H 652.45 0.736308 1.52894 0
M  V30 6599 H 651.222 1.39237 3.65689 0
M  V30 6600 H 650.845 -0.294733 3.96506 0
M  V30 6601 N 651.842 -1.52309 0.404946 0
M  V30 6602 C 653.258 -1.59503 0.0556255 0
M  V30 6603 C 653.458 -1.41805 -1.43156 0
M  V30 6604 O 652.514 -1.2429 -2.19792 0
M  V30 6605 C 653.827 -2.95687 0.546801 0
M  V30 6606 C 655.375 -3.08909 0.504413 0
M  V30 6607 C 655.85 -4.47566 0.97203 0
M  V30 6608 N 657.341 -4.53795 0.928679 0
M  V30 6609 C 658.076 -5.59346 1.26174 0
M  V30 6610 N 657.572 -6.72469 1.66604 0
M  V30 6611 N 659.365 -5.49532 1.18198 0
M  V30 6612 H 651.516 -1.6206 1.37296 0
M  V30 6613 H 653.779 -0.762161 0.563751 0
M  V30 6614 H 653.485 -3.13905 1.58609 0
M  V30 6615 H 653.359 -3.77172 -0.0457905 0
M  V30 6616 H 655.746 -2.90378 -0.525819 0
M  V30 6617 H 655.827 -2.2934 1.13301 0
M  V30 6618 H 655.471 -4.6684 2.00057 0
M  V30 6619 H 655.401 -5.25625 0.320292 0
M  V30 6620 H 657.892 -3.72588 0.631369 0
M  V30 6621 H 658.205 -7.48993 1.9034 0
M  V30 6622 H 656.55 -6.73761 1.70504 0
M  V30 6623 H 659.741 -4.60038 0.865011 0
M  V30 6624 H 659.914 -6.31687 1.44485 0
M  V30 6625 N 653.32 -0.135238 -1.57019 0
M  V30 6626 C 654.283 0.794707 -2.14981 0
M  V30 6627 C 655.283 1.18342 -1.08866 0
M  V30 6628 O 656.473 1.10627 -1.34563 0
M  V30 6629 C 653.605 2.07685 -2.70333 0
M  V30 6630 H 654.798 0.290696 -2.98488 0
M  V30 6631 H 652.351 0.114128 -1.55883 0
M  V30 6632 H 653.086 2.6248 -1.9046 0
M  V30 6633 H 652.871 1.80745 -3.47957 0
M  V30 6634 H 654.361 2.74127 -3.1503 0
M  V30 6635 N 654.798 1.5699 0.138552 0
M  V30 6636 C 655.708 2.02174 1.19008 0
M  V30 6637 C 656.724 0.938622 1.46512 0
M  V30 6638 O 657.9 1.24872 1.58016 0
M  V30 6639 C 654.965 2.40045 2.50159 0
M  V30 6640 C 654.026 3.62346 2.30226 0
M  V30 6641 C 653.259 3.98401 3.55123 0
M  V30 6642 O 653.482 3.35019 4.61647 0
M  V30 6643 O 652.416 4.91606 3.47285 0
M  V30 6644 H 656.242 2.91954 0.836452 0
M  V30 6645 H 653.827 1.45293 0.347907 0
M  V30 6646 H 655.709 2.65225 3.27465 0
M  V30 6647 H 654.384 1.53417 2.85035 0
M  V30 6648 H 653.291 3.42341 1.50843 0
M  V30 6649 H 654.624 4.49617 2.00262 0
M  V30 6650 N 656.276 -0.40816 1.52223 0
M  V30 6651 C 657.186 -1.52202 1.78526 0
M  V30 6652 C 658.202 -1.60546 0.670892 0
M  V30 6653 O 659.378 -1.77242 0.956404 0
M  V30 6654 C 656.443 -2.87928 1.93128 0
M  V30 6655 C 655.504 -2.89463 3.17033 0
M  V30 6656 C 654.737 -4.18715 3.30929 0
M  V30 6657 O 654.96 -5.12662 2.50067 0
M  V30 6658 O 653.894 -4.27125 4.24084 0
M  V30 6659 H 657.72 -1.32911 2.73072 0
M  V30 6660 H 655.305 -0.594112 1.37079 0
M  V30 6661 H 657.187 -3.68426 2.04549 0
M  V30 6662 H 655.862 -3.07285 1.01772 0
M  V30 6663 H 654.769 -2.07815 3.11069 0
M  V30 6664 H 656.102 -2.75055 4.08174 0
M  V30 6665 N 657.755 -1.42862 -0.66545 0
M  V30 6666 C 658.687 -1.43026 -1.79098 0
M  V30 6667 C 659.7 -0.32803 -1.59461 0
M  V30 6668 O 660.889 -0.591709 -1.68407 0
M  V30 6669 C 657.989 -1.21566 -3.16346 0
M  V30 6670 C 657.162 -2.44399 -3.62751 0
M  V30 6671 C 656.221 -2.18344 -4.78761 0
M  V30 6672 O 655.247 -2.91611 -4.88827 0
M  V30 6673 N 656.449 -1.1924 -5.68122 0
M  V30 6674 H 659.214 -2.40045 -1.79439 0
M  V30 6675 H 656.775 -1.37861 -0.848872 0
M  V30 6676 H 658.767 -1.02037 -3.91625 0
M  V30 6677 H 657.337 -0.330368 -3.10849 0
M  V30 6678 H 656.557 -2.79433 -2.78048 0
M  V30 6679 H 657.845 -3.26173 -3.90498 0
M  V30 6680 H 657.243 -0.586603 -5.6265 0
M  V30 6681 H 655.8 -1.05698 -6.43173 0
M  V30 6682 N 659.233 0.902656 -1.29189 0
M  V30 6683 C 660.649 1.18296 -1.07137 0
M  V30 6684 C 660.849 2.00701 0.179223 0
M  V30 6685 O 659.905 2.3675 0.877812 0
M  V30 6686 C 661.218 1.90677 -2.32514 0
M  V30 6687 C 662.766 2.03515 -2.37804 0
M  V30 6688 C 663.241 2.79307 -3.62976 0
M  V30 6689 N 664.732 2.86862 -3.63681 0
M  V30 6690 C 665.467 3.46035 -4.57217 0
M  V30 6691 N 664.963 4.06399 -5.61081 0
M  V30 6692 N 666.756 3.43681 -4.44792 0
M  V30 6693 H 658.907 0.352765 -2.0945 0
M  V30 6694 H 661.17 0.21876 -0.922414 0
M  V30 6695 H 660.876 1.3756 -3.23682 0
M  V30 6696 H 660.75 2.91169 -2.39793 0
M  V30 6697 H 663.137 2.55809 -1.47125 0
M  V30 6698 H 663.218 1.02166 -2.34512 0
M  V30 6699 H 662.862 2.2769 -4.54004 0
M  V30 6700 H 662.792 3.80995 -3.63525 0
M  V30 6701 H 665.283 2.43987 -2.88581 0
M  V30 6702 H 665.596 4.49564 -6.2858 0
M  V30 6703 H 663.941 4.0487 -5.64894 0
M  V30 6704 H 667.132 2.9574 -3.62843 0
M  V30 6705 H 667.305 3.89503 -5.17872 0
M  V30 6706 N 660.711 1.11618 1.11262 0
M  V30 6707 C 662.127 0.850468 1.35053 0
M  V30 6708 C 662.327 -0.523868 1.94571 0
M  V30 6709 O 661.383 -1.2743 2.17986 0
M  V30 6710 C 662.696 1.96005 2.28041 0
M  V30 6711 C 664.244 1.98993 2.416 0
M  V30 6712 C 664.719 3.0916 3.37911 0
M  V30 6713 N 666.21 3.08547 3.45475 0
M  V30 6714 C 666.945 3.9043 4.19943 0
M  V30 6715 N 666.441 4.8228 4.97371 0
M  V30 6716 N 668.234 3.786 4.15474 0
M  V30 6717 H 660.385 2.00184 0.709932 0
M  V30 6718 H 662.648 0.870635 0.375099 0
M  V30 6719 H 662.354 2.9499 1.91503 0
M  V30 6720 H 662.228 1.85782 3.28275 0
M  V30 6721 H 664.615 1.00633 2.77411 0
M  V30 6722 H 664.696 2.13292 1.4121 0
M  V30 6723 H 664.34 4.07748 3.02827 0
M  V30 6724 H 664.27 2.92102 4.3816 0
M  V30 6725 H 666.761 2.42 2.90249 0
M  V30 6726 H 667.074 5.41289 5.51567 0
M  V30 6727 H 665.419 4.863 4.96525 0
M  V30 6728 H 668.61 3.06185 3.54074 0
M  V30 6729 H 668.783 4.42647 4.73253 0
M  V30 6730 N 662.189 -1.289 0.906776 0
M  V30 6731 C 663.139 -2.25122 0.361109 0
M  V30 6732 C 664.123 -1.52169 -0.52283 0
M  V30 6733 O 665.315 -1.73223 -0.363691 0
M  V30 6734 C 662.444 -3.40915 -0.403982 0
M  V30 6735 C 661.53 -4.21198 0.495279 0
M  V30 6736 N 661.921 -4.79636 1.60572 0
M  V30 6737 C 660.219 -4.45027 0.294372 0
M  V30 6738 C 660.92 -5.39977 2.16332 0
M  V30 6739 N 659.896 -5.23753 1.45546 0
M  V30 6740 H 663.698 -2.67869 1.20927 0
M  V30 6741 H 661.212 -1.43592 0.758632 0
M  V30 6742 H 663.209 -4.08922 -0.811695 0
M  V30 6743 H 661.869 -2.99703 -1.24932 0
M  V30 6744 H 662.88 -4.78209 1.98838 0
M  V30 6745 H 659.557 -4.14348 -0.512021 0
M  V30 6746 H 660.947 -5.96266 3.09704 0
M  V30 6747 N 663.667 -0.670007 -1.42649 0
M  V30 6748 C 664.599 0.0501746 -2.29145 0
M  V30 6749 C 665.612 0.770331 -1.43422 0
M  V30 6750 O 666.801 0.625288 -1.6719 0
M  V30 6751 C 663.901 1.09463 -3.20735 0
M  V30 6752 C 663.074 0.44926 -4.35087 0
M  V30 6753 C 662.133 1.39285 -5.07431 0
M  V30 6754 O 661.159 0.894997 -5.6212 0
M  V30 6755 N 662.361 2.72631 -5.12496 0
M  V30 6756 H 665.126 -0.692312 -2.91594 0
M  V30 6757 H 662.687 -0.514056 -1.53522 0
M  V30 6758 H 664.679 1.72705 -3.65999 0
M  V30 6759 H 663.249 1.73891 -2.59771 0
M  V30 6760 H 662.469 -0.362573 -3.92529 0
M  V30 6761 H 663.757 -0.000544776 -5.088 0
M  V30 6762 H 663.155 3.15623 -4.69467 0
M  V30 6763 H 661.712 3.31132 -5.61422 0
M  V30 6764 N 665.145 1.52092 -0.413018 0
M  V30 6765 C 666.422 1.94356 0.22024 0
M  V30 6766 C 666.802 1.35017 1.62277 0
M  V30 6767 O 666.15 0.527511 2.22328 0
M  V30 6768 C 666.36 3.48289 0.222638 0
M  V30 6769 C 667.708 4.22313 0.440098 0
M  V30 6770 O 668.732 3.54919 0.301826 0
M  V30 6771 O 667.591 5.41829 0.712984 0
M  V30 6772 H 664.685 0.814536 0.14304 0
M  V30 6773 H 667.231 1.63083 -0.469242 0
M  V30 6774 H 666.003 3.83872 -0.758836 0
M  V30 6775 H 665.626 3.85934 0.956057 0
M  V30 6776 N 666.623 0.143563 1.56945 0
M  V30 6777 C 667.871 -0.507402 1.95627 0
M  V30 6778 C 668.192 -1.65626 1.02922 0
M  V30 6779 O 667.462 -1.95693 0.0901136 0
M  V30 6780 H 666.042 -0.190436 0.722318 0
M  V30 6781 H 668.704 0.218257 1.93674 0
M  V30 6782 H 667.8 -0.885816 2.99265 0
M  V30 6783 N 668.101 -1.57061 -0.130224 0
M  V30 6784 C 669.031 -2.02552 -1.16168 0
M  V30 6785 C 670.012 -0.907971 -1.4384 0
M  V30 6786 O 671.197 -1.17693 -1.54473 0
M  V30 6787 C 668.327 -2.42035 -2.49071 0
M  V30 6788 C 667.281 -3.5713 -2.35886 0
M  V30 6789 C 666.607 -3.82478 -3.7365 0
M  V30 6790 C 667.907 -4.89236 -1.8288 0
M  V30 6791 H 669.601 -2.8897 -0.783359 0
M  V30 6792 H 667.147 -1.39021 -0.375376 0
M  V30 6793 H 669.1 -2.72462 -3.21469 0
M  V30 6794 H 667.824 -1.52573 -2.88771 0
M  V30 6795 H 666.483 -3.26895 -1.65938 0
M  V30 6796 H 666.131 -2.9024 -4.10816 0
M  V30 6797 H 665.831 -4.59944 -3.65685 0
M  V30 6798 H 667.355 -4.15347 -4.47571 0
M  V30 6799 H 668.769 -5.18272 -2.45085 0
M  V30 6800 H 667.166 -5.70624 -1.85763 0
M  V30 6801 H 668.236 -4.78494 -0.785571 0
M  V30 6802 N 669.579 0.400081 -1.52437 0
M  V30 6803 C 670.99 0.97851 -1.59003 0
M  V30 6804 C 671.341 1.91293 -0.436068 0
M  V30 6805 O 670.466 2.1183 0.442365 0
M  V30 6806 C 671.061 1.78145 -2.88184 0
M  V30 6807 C 669.62 2.30976 -2.97199 0
M  V30 6808 C 668.767 1.11212 -2.54022 0
M  V30 6809 H 671.718 0.180002 -1.57676 0
M  V30 6810 H 671.739 2.63968 -2.74046 0
M  V30 6811 H 671.251 1.1011 -3.72152 0
M  V30 6812 H 669.352 3.02355 -2.17744 0
M  V30 6813 H 669.465 2.61221 -4.01622 0
M  V30 6814 H 667.829 1.46882 -2.08081 0
M  V30 6815 H 668.612 0.447307 -3.40373 0
M  V30 6816 N 671.057 1.43213 0.657864 0
M  V30 6817 C 672.287 1.478 1.44356 0
M  V30 6818 C 672.695 0.0930206 1.88971 0
M  V30 6819 O 672.038 -0.906089 1.59799 0
M  V30 6820 C 672.1 2.35745 2.71412 0
M  V30 6821 C 671.764 3.83359 2.48767 0
M  V30 6822 C 672.761 4.74585 2.12285 0
M  V30 6823 C 670.446 4.27799 2.63235 0
M  V30 6824 C 672.44 6.08247 1.90562 0
M  V30 6825 C 670.127 5.61516 2.41128 0
M  V30 6826 C 671.125 6.51557 2.04847 0
M  V30 6827 O 670.813 7.82802 1.82967 0
M  V30 6828 H 670.545 0.504363 0.450104 0
M  V30 6829 H 673.099 1.88572 0.814241 0
M  V30 6830 H 671.329 1.89852 3.36887 0
M  V30 6831 H 673.018 2.31589 3.33348 0
M  V30 6832 H 673.784 4.41531 2.00687 0
M  V30 6833 H 669.663 3.57993 2.90451 0
M  V30 6834 H 673.207 6.78489 1.62168 0
M  V30 6835 H 669.104 5.94139 2.52327 0
M  V30 6836 H 669.872 7.94332 1.97429 0
M  V30 6837 N 672.536 -0.895792 1.29666 0
M  V30 6838 C 673.785 -1.64131 1.17234 0
M  V30 6839 C 674.098 -1.93665 -0.274416 0
M  V30 6840 O 675.304 -2.66472 -0.520105 0
M  V30 6841 C 673.76 -2.95764 2.05065 0
M  V30 6842 C 673.368 -2.7381 3.54587 0
M  V30 6843 C 675.112 -3.737 2.01367 0
M  V30 6844 C 673.019 -4.01194 4.34508 0
M  V30 6845 H 671.949 -0.615742 0.435175 0
M  V30 6846 H 674.6 -0.992626 1.54335 0
M  V30 6847 H 672.982 -3.61867 1.60837 0
M  V30 6848 H 674.156 -2.16277 4.06892 0
M  V30 6849 H 672.471 -2.09265 3.59996 0
M  V30 6850 H 675.068 -4.68152 2.58337 0
M  V30 6851 H 675.411 -4.04245 0.994575 0
M  V30 6852 H 675.944 -3.14444 2.43659 0
M  V30 6853 H 672.683 -3.75813 5.37071 0
M  V30 6854 H 672.203 -4.58272 3.86971 0
M  V30 6855 H 673.882 -4.69307 4.45376 0
M  V30 6856 N 674.014 -1.12206 -1.10668 0
M  V30 6857 C 675.291 -0.787382 -1.79052 0
M  V30 6858 C 675.671 0.723267 -1.98323 0
M  V30 6859 O 675.019 1.6561 -1.57434 0
M  V30 6860 C 675.229 -1.55968 -3.1221 0
M  V30 6861 C 676.577 -1.74413 -3.87125 0
M  V30 6862 O 677.601 -1.5246 -3.21923 0
M  V30 6863 O 676.46 -2.10952 -5.04144 0
M  V30 6864 H 673.554 -0.286137 -0.775922 0
M  V30 6865 H 676.1 -1.22595 -1.1734 0
M  V30 6866 H 674.872 -2.58692 -2.93588 0
M  V30 6867 H 674.495 -1.1152 -3.8164 0
M  V30 6868 N 675.492 1.28418 -0.913599 0
M  V30 6869 C 676.769 1.89977 -0.465619 0
M  V30 6870 C 677.149 1.82813 1.05559 0
M  V30 6871 O 676.497 1.26397 1.90358 0
M  V30 6872 C 676.707 3.34492 -0.995813 0
M  V30 6873 C 678.055 4.11468 -1.04782 0
M  V30 6874 O 679.079 3.43451 -0.944445 0
M  V30 6875 O 677.938 5.33046 -1.20518 0
M  V30 6876 H 675.032 0.813734 -0.147532 0
M  V30 6877 H 677.578 1.36786 -1.00437 0
M  V30 6878 H 676.35 3.33929 -2.03978 0
M  V30 6879 H 675.973 3.95181 -0.437878 0
M  V30 6880 N 676.97 0.677563 1.42291 0
M  V30 6881 C 678.195 0.207901 2.06355 0
M  V30 6882 C 678.62 -1.12723 1.50583 0
M  V30 6883 O 677.978 -1.70171 0.62543 0
M  V30 6884 C 678.026 0.156489 3.6026 0
M  V30 6885 O 677.13 -0.874162 4.03029 0
M  V30 6886 H 676.471 0.106056 0.655475 0
M  V30 6887 H 679.001 0.927354 1.82377 0
M  V30 6888 H 679.011 -0.0187258 4.07996 0
M  V30 6889 H 677.686 1.13101 4.00226 0
M  V30 6890 H 676.263 -0.669764 3.66836 0
M  V30 6891 N 678.448 -1.51871 0.421078 0
M  V30 6892 C 679.859 -1.86644 -0.0457991 0
M  V30 6893 C 680.21 -1.33919 -1.43388 0
M  V30 6894 O 679.335 -0.683316 -2.05328 0
M  V30 6895 C 679.93 -3.38681 -0.0898844 0
M  V30 6896 C 678.489 -3.73049 -0.501127 0
M  V30 6897 C 677.636 -2.75485 0.316723 0
M  V30 6898 H 680.587 -1.45327 0.637635 0
M  V30 6899 H 680.608 -3.69636 -0.902734 0
M  V30 6900 H 680.12 -3.77025 0.920513 0
M  V30 6901 H 678.221 -3.40288 -1.51773 0
M  V30 6902 H 678.334 -4.78512 -0.237217 0
M  V30 6903 H 676.698 -2.53725 -0.222663 0
M  V30 6904 H 677.481 -3.16671 1.32569 0
M  V30 6905 N 679.926 -0.151884 -1.56866 0
M  V30 6906 C 681.151 0.508044 -2.01081 0
M  V30 6907 C 681.576 1.57306 -1.03134 0
M  V30 6908 O 680.934 1.81298 -0.0078309 0
M  V30 6909 C 680.982 1.08106 -3.44014 0
M  V30 6910 O 680.086 2.19577 -3.49084 0
M  V30 6911 H 679.427 0.123757 -0.652365 0
M  V30 6912 H 681.957 -0.250055 -2.03066 0
M  V30 6913 H 681.967 1.40851 -3.82916 0
M  V30 6914 H 680.642 0.301168 -4.14808 0
M  V30 6915 H 679.219 1.88023 -3.22027 0
M  V30 6916 N 681.404 1.57128 0.121893 0
M  V30 6917 C 682.629 1.89254 0.848385 0
M  V30 6918 C 683.054 0.743527 1.72781 0
M  V30 6919 O 682.412 -0.306056 1.78698 0
M  V30 6920 C 682.46 3.20113 1.66012 0
M  V30 6921 O 681.564 3.05815 2.76679 0
M  V30 6922 H 680.905 0.621103 0.234793 0
M  V30 6923 H 683.435 2.0433 0.10516 0
M  V30 6924 H 683.445 3.52761 2.04996 0
M  V30 6925 H 682.12 4.03336 1.01452 0
M  V30 6926 H 680.697 2.84627 2.40918 0
M  V30 6927 N 682.882 -0.391992 1.52647 0
M  V30 6928 C 684.107 -1.16312 1.71716 0
M  V30 6929 C 684.532 -1.83042 0.433279 0
M  V30 6930 O 683.89 -1.70705 -0.610707 0
M  V30 6931 C 683.938 -2.18908 2.86551 0
M  V30 6932 O 683.042 -3.2543 2.53316 0
M  V30 6933 H 682.383 -0.338743 0.571095 0
M  V30 6934 H 684.913 -0.457202 1.99426 0
M  V30 6935 H 684.923 -2.62954 3.1196 0
M  V30 6936 H 683.598 -1.69726 3.79692 0
M  V30 6937 H 682.175 -2.86543 2.38637 0
M  V30 6938 N 684.36 -1.4356 -0.65026 0
M  V30 6939 C 685.771 -1.40324 -1.2315 0
M  V30 6940 C 686.122 -0.108812 -1.95898 0
M  V30 6941 O 685.247 0.79163 -2.01401 0
M  V30 6942 C 685.842 -2.54195 -2.23987 0
M  V30 6943 C 684.401 -2.54215 -2.77582 0
M  V30 6944 C 683.548 -2.31752 -1.5227 0
M  V30 6945 H 686.499 -1.52418 -0.442095 0
M  V30 6946 H 686.52 -2.25854 -3.0622 0
M  V30 6947 H 686.032 -3.48392 -1.71011 0
M  V30 6948 H 684.133 -1.63907 -3.34612 0
M  V30 6949 H 684.246 -3.52081 -3.24925 0
M  V30 6950 H 682.61 -1.80476 -1.79723 0
M  V30 6951 H 683.393 -3.28037 -1.01225 0
M  V30 6952 N 685.838 0.888903 -1.30139 0
M  V30 6953 C 686.788 1.9814 -1.12803 0
M  V30 6954 C 687.772 1.60839 -0.0443137 0
M  V30 6955 O 688.964 1.74971 -0.267208 0
M  V30 6956 C 686.093 3.33416 -0.817849 0
M  V30 6957 C 685.179 3.77043 -1.94163 0
M  V30 6958 N 685.57 3.92805 -3.18651 0
M  V30 6959 C 683.868 4.06407 -1.8371 0
M  V30 6960 C 684.569 4.29746 -3.92038 0
M  V30 6961 N 683.545 4.3939 -3.20059 0
M  V30 6962 H 687.347 2.08411 -2.07225 0
M  V30 6963 H 684.861 1.07845 -1.21421 0
M  V30 6964 H 686.858 4.11405 -0.674668 0
M  V30 6965 H 685.518 3.24484 0.118344 0
M  V30 6966 H 686.529 3.78042 -3.53984 0
M  V30 6967 H 683.206 4.05972 -0.974331 0
M  V30 6968 H 684.596 4.49695 -4.99223 0
M  V30 6969 N 687.317 1.12792 1.10072 0
M  V30 6970 C 688.247 0.821688 2.18565 0
M  V30 6971 C 689.228 -0.21612 1.68721 0
M  V30 6972 O 690.413 -0.0764932 1.94049 0
M  V30 6973 C 687.543 0.279624 3.46172 0
M  V30 6974 C 686.497 1.25092 4.09312 0
M  V30 6975 C 685.823 0.568916 5.31665 0
M  V30 6976 C 687.123 2.60699 4.52585 0
M  V30 6977 H 688.817 1.72888 2.44438 0
M  V30 6978 H 686.363 0.832702 1.17482 0
M  V30 6979 H 688.316 0.053099 4.21367 0
M  V30 6980 H 687.04 -0.662929 3.19801 0
M  V30 6981 H 685.699 1.46332 3.36129 0
M  V30 6982 H 685.347 -0.378898 5.01571 0
M  V30 6983 H 685.047 1.21687 5.74862 0
M  V30 6984 H 686.571 0.351517 6.09587 0
M  V30 6985 H 687.985 2.43465 5.19035 0
M  V30 6986 H 686.382 3.21608 5.06644 0
M  V30 6987 H 687.452 3.1886 3.65317 0
M  V30 6988 N 688.795 -1.27931 0.920396 0
M  V30 6989 C 690.02 -1.99343 0.572478 0
M  V30 6990 C 690.445 -1.68267 -0.840696 0
M  V30 6991 O 689.803 -0.918805 -1.56294 0
M  V30 6992 C 689.851 -3.51698 0.796284 0
M  V30 6993 O 688.955 -4.12157 -0.141602 0
M  V30 6994 H 688.296 -0.626065 0.221221 0
M  V30 6995 H 690.826 -1.62921 1.23765 0
M  V30 6996 H 690.836 -4.01793 0.708984 0
M  V30 6997 H 689.511 -3.73649 1.82644 0
M  V30 6998 H 688.088 -3.729 -0.005007 0
M  V30 6999 N 690.273 -0.685099 -1.4193 0
M  V30 7000 C 691.498 -0.218842 -2.06242 0
M  V30 7001 C 691.923 1.11923 -1.51178 0
M  V30 7002 O 691.281 1.69837 -0.634446 0
M  V30 7003 C 691.329 -0.175592 -3.60172 0
M  V30 7004 O 690.433 0.852776 -4.03487 0
M  V30 7005 H 689.774 -0.109531 -0.654904 0
M  V30 7006 H 692.304 -0.937013 -1.81882 0
M  V30 7007 H 692.314 -0.00291151 -4.08 0
M  V30 7008 H 690.989 -1.15222 -3.99621 0
M  V30 7009 H 689.566 0.650301 -3.67186 0
M  V30 7010 N 691.751 1.51645 -0.429126 0
M  V30 7011 C 692.698 2.27542 0.386446 0
M  V30 7012 C 693.668 1.30786 1.02393 0
M  V30 7013 O 694.853 1.59678 1.0444 0
M  V30 7014 C 691.993 3.11457 1.48623 0
M  V30 7015 C 691.106 4.23196 0.867691 0
M  V30 7016 C 690.241 4.94435 1.94183 0
M  V30 7017 C 689.28 5.98108 1.30129 0
M  V30 7018 N 688.417 6.62786 2.31644 0
M  V30 7019 H 693.257 2.968 -0.267155 0
M  V30 7020 H 690.794 1.46397 -0.143591 0
M  V30 7021 H 692.752 3.58429 2.13506 0
M  V30 7022 H 691.382 2.44329 2.10957 0
M  V30 7023 H 690.434 3.80248 0.107373 0
M  V30 7024 H 691.746 4.97499 0.35997 0
M  V30 7025 H 690.9 5.44914 2.66747 0
M  V30 7026 H 689.639 4.19744 2.48326 0
M  V30 7027 H 688.644 5.4693 0.561082 0
M  V30 7028 H 689.869 6.74751 0.767303 0
M  V30 7029 H 687.815 5.90913 2.84883 0
M  V30 7030 H 687.732 7.32828 1.85741 0
M  V30 7031 H 689 7.17897 3.03717 0
M  V30 7032 N 693.229 0.160201 1.56784 0
M  V30 7033 C 694.477 -0.486625 1.96154 0
M  V30 7034 C 694.798 -1.64525 1.04673 0
M  V30 7035 O 694.068 -1.95586 0.110864 0
M  V30 7036 H 692.648 -0.182764 0.724297 0
M  V30 7037 H 695.31 0.238787 1.93432 0
M  V30 7038 H 694.406 -0.854025 3.00188 0
M  V30 7039 N 694.707 -1.5719 -0.113559 0
M  V30 7040 C 696.123 -1.52607 -0.467253 0
M  V30 7041 C 696.323 -0.874058 -1.81556 0
M  V30 7042 O 695.379 -0.458703 -2.48299 0
M  V30 7043 C 696.692 -2.97363 -0.446736 0
M  V30 7044 C 698.24 -3.08482 -0.529903 0
M  V30 7045 C 698.715 -4.54809 -0.539721 0
M  V30 7046 N 700.206 -4.59284 -0.601005 0
M  V30 7047 C 700.941 -5.69927 -0.630138 0
M  V30 7048 N 700.437 -6.90051 -0.616589 0
M  V30 7049 N 702.23 -5.5805 -0.673558 0
M  V30 7050 H 694.381 -1.97958 0.769819 0
M  V30 7051 H 696.644 -0.90428 0.284572 0
M  V30 7052 H 696.35 -3.48458 0.47643 0
M  V30 7053 H 696.224 -3.55086 -1.27254 0
M  V30 7054 H 698.611 -2.57386 -1.44349 0
M  V30 7055 H 698.692 -2.53744 0.323695 0
M  V30 7056 H 698.336 -5.06552 0.369843 0
M  V30 7057 H 698.266 -5.07364 -1.41028 0
M  V30 7058 H 700.757 -3.72822 -0.617419 0
M  V30 7059 H 701.07 -7.70132 -0.641592 0
M  V30 7060 H 699.415 -6.92543 -0.583927 0
M  V30 7061 H 702.606 -4.63112 -0.681544 0
M  V30 7062 H 702.779 -6.44286 -0.692794 0
M  V30 7063 N 696.185 0.383891 -1.52853 0
M  V30 7064 C 697.433 1.12619 -1.67814 0
M  V30 7065 C 697.754 1.90354 -0.423141 0
M  V30 7066 O 697.024 1.87649 0.562554 0
M  V30 7067 H 695.604 0.418738 -0.618601 0
M  V30 7068 H 698.266 0.43495 -1.89985 0
M  V30 7069 H 697.362 1.82624 -2.5309 0
M  V30 7070 N 697.663 1.43903 0.642637 0
M  V30 7071 C 698.888 1.49758 1.43483 0
M  V30 7072 C 699.313 0.119911 1.87717 0
M  V30 7073 O 698.671 -0.888558 1.58033 0
M  V30 7074 C 698.719 2.45744 2.63898 0
M  V30 7075 O 697.823 1.95101 3.63331 0
M  V30 7076 H 697.164 0.506138 0.429791 0
M  V30 7077 H 699.694 1.88923 0.785438 0
M  V30 7078 H 699.704 2.63399 3.11584 0
M  V30 7079 H 698.379 3.45818 2.31046 0
M  V30 7080 H 696.956 1.87158 3.22531 0
M  V30 7081 N 699.141 -0.881989 1.30609 0
M  V30 7082 C 700.557 -1.16576 1.09005 0
M  V30 7083 C 700.757 -2.00961 -0.14727 0
M  V30 7084 O 699.813 -2.38117 -0.840036 0
M  V30 7085 C 701.126 -1.86954 2.35518 0
M  V30 7086 C 702.674 -1.99706 2.41011 0
M  V30 7087 C 703.149 -2.73497 3.67374 0
M  V30 7088 N 704.64 -2.8104 3.68199 0
M  V30 7089 C 705.375 -3.38718 4.62664 0
M  V30 7090 N 704.871 -3.97421 5.67475 0
M  V30 7091 N 706.664 -3.36561 4.50203 0
M  V30 7092 H 698.815 -0.319398 2.09985 0
M  V30 7093 H 701.078 -0.204058 0.925778 0
M  V30 7094 H 700.784 -1.32393 3.2583 0
M  V30 7095 H 700.658 -2.87317 2.44395 0
M  V30 7096 H 703.045 -2.53436 1.51176 0
M  V30 7097 H 703.126 -0.984218 2.36108 0
M  V30 7098 H 702.77 -2.20438 4.57569 0
M  V30 7099 H 702.7 -3.75163 3.6954 0
M  V30 7100 H 705.191 -2.39365 2.92426 0
M  V30 7101 H 705.504 -4.39507 6.35652 0
M  V30 7102 H 703.849 -3.95832 5.71264 0
M  V30 7103 H 707.04 -2.8993 3.67503 0
M  V30 7104 H 707.213 -3.81215 5.24003 0
M  V30 7105 N 700.619 -1.13374 -1.09472 0
M  V30 7106 C 701.896 -0.806329 -1.78207 0
M  V30 7107 C 702.276 0.702191 -1.99079 0
M  V30 7108 O 701.624 1.63931 -1.59182 0
M  V30 7109 C 701.834 -1.59271 -3.10538 0
M  V30 7110 C 703.182 -1.78509 -3.85253 0
M  V30 7111 O 704.206 -1.55866 -3.20288 0
M  V30 7112 O 703.065 -2.16287 -5.01879 0
M  V30 7113 H 700.159 -0.29435 -0.772843 0
M  V30 7114 H 702.705 -1.23833 -1.16033 0
M  V30 7115 H 701.477 -2.61792 -2.90828 0
M  V30 7116 H 701.1 -1.15562 -3.80436 0
M  V30 7117 N 702.098 1.27442 -0.927168 0
M  V30 7118 C 703.061 2.2512 -0.430525 0
M  V30 7119 C 704.061 1.54357 0.450619 0
M  V30 7120 O 705.251 1.72371 0.251774 0
M  V30 7121 C 702.383 3.38763 0.381144 0
M  V30 7122 H 703.576 2.70569 -1.29354 0
M  V30 7123 H 701.129 1.39355 -0.707806 0
M  V30 7124 H 701.864 2.98695 1.263 0
M  V30 7125 H 701.649 3.91298 -0.250618 0
M  V30 7126 H 703.139 4.11364 0.719012 0
M  V30 7127 N 703.576 0.692616 1.41565 0
M  V30 7128 C 704.506 0.0397325 2.33466 0
M  V30 7129 C 705.487 -0.770334 1.51657 0
M  V30 7130 O 706.672 -0.723903 1.80203 0
M  V30 7131 C 703.802 -0.899495 3.3545 0
M  V30 7132 C 702.756 -0.196738 4.27548 0
M  V30 7133 C 702.082 -1.25012 5.19881 0
M  V30 7134 C 703.382 0.935158 5.1386 0
M  V30 7135 H 705.076 0.807296 2.88311 0
M  V30 7136 H 702.622 0.389665 1.38628 0
M  V30 7137 H 704.575 -1.36545 3.98665 0
M  V30 7138 H 703.299 -1.69869 2.78948 0
M  V30 7139 H 701.958 0.249158 3.65752 0
M  V30 7140 H 701.606 -2.04177 4.59696 0
M  V30 7141 H 701.306 -0.784931 5.82334 0
M  V30 7142 H 702.83 -1.71665 5.85972 0
M  V30 7143 H 704.244 0.549619 5.70659 0
M  V30 7144 H 702.641 1.32726 5.85238 0
M  V30 7145 H 703.711 1.77613 4.512 0
M  V30 7146 N 705.054 -1.51416 0.437162 0
M  V30 7147 C 706.3 -2.02386 -0.129555 0
M  V30 7148 C 706.633 -1.32071 -1.42376 0
M  V30 7149 O 705.908 -0.43559 -1.8956 0
M  V30 7150 C 706.191 -3.5841 -0.348487 0
M  V30 7151 C 706.044 -4.39341 0.964352 0
M  V30 7152 C 707.363 -4.25654 -1.11834 0
M  V30 7153 H 704.482 -0.735587 -0.0456109 0
M  V30 7154 H 707.124 -1.81055 0.576124 0
M  V30 7155 H 705.274 -3.76716 -0.949592 0
M  V30 7156 H 706.946 -4.32685 1.59942 0
M  V30 7157 H 705.189 -4.04432 1.56898 0
M  V30 7158 H 705.86 -5.4667 0.765212 0
M  V30 7159 H 708.336 -4.11617 -0.609165 0
M  V30 7160 H 707.212 -5.34704 -1.24029 0
M  V30 7161 H 707.473 -3.86502 -2.14636 0
M  V30 7162 N 706.532 -0.168513 -1.56696 0
M  V30 7163 C 707.757 0.486688 -2.01609 0
M  V30 7164 C 708.182 1.56203 -1.04796 0
M  V30 7165 O 707.54 1.8128 -0.0270596 0
M  V30 7166 C 707.588 1.04451 -3.45141 0
M  V30 7167 O 706.692 2.15862 -3.51393 0
M  V30 7168 H 706.033 0.116831 -0.653641 0
M  V30 7169 H 708.563 -0.271579 -2.0279 0
M  V30 7170 H 708.573 1.36782 -3.84389 0
M  V30 7171 H 707.248 0.257155 -4.15104 0
M  V30 7172 H 705.825 1.84597 -3.24004 0
M  V30 7173 N 708.01 1.57248 0.105221 0
M  V30 7174 C 709.258 1.85204 0.808951 0
M  V30 7175 C 709.579 0.75574 1.7976 0
M  V30 7176 O 708.849 -0.218984 1.94672 0
M  V30 7177 H 707.429 0.683346 0.301739 0
M  V30 7178 H 710.091 1.94695 0.0892605 0
M  V30 7179 H 709.187 2.81595 1.34575 0
M  V30 7180 N 709.488 -0.375779 1.53054 0
M  V30 7181 C 710.451 -1.44254 1.7811 0
M  V30 7182 C 711.451 -1.47018 0.651328 0
M  V30 7183 O 712.641 -1.47957 0.919472 0
M  V30 7184 C 709.773 -2.8345 1.89391 0
M  V30 7185 H 710.966 -1.23316 2.73374 0
M  V30 7186 H 708.519 -0.608312 1.43977 0
M  V30 7187 H 709.254 -3.09716 0.961589 0
M  V30 7188 H 709.039 -2.82844 2.71555 0
M  V30 7189 H 710.529 -3.60722 2.10404 0
M  V30 7190 N 710.966 -1.44241 -0.634997 0
M  V30 7191 C 711.896 -1.53632 -1.7584 0
M  V30 7192 C 712.877 -0.389603 -1.65578 0
M  V30 7193 O 714.062 -0.609219 -1.84397 0
M  V30 7194 C 711.192 -1.47644 -3.14354 0
M  V30 7195 C 710.146 -2.60752 -3.394 0
M  V30 7196 C 709.472 -2.39817 -4.77904 0
M  V30 7197 C 710.772 -4.02921 -3.32343 0
M  V30 7198 H 712.466 -2.47662 -1.68238 0
M  V30 7199 H 710.012 -1.19197 -0.807969 0
M  V30 7200 H 711.965 -1.52815 -3.92716 0
M  V30 7201 H 710.689 -0.501284 -3.2273 0
M  V30 7202 H 709.348 -2.54965 -2.63417 0
M  V30 7203 H 708.996 -1.40502 -4.82978 0
M  V30 7204 H 708.696 -3.15649 -4.9562 0
M  V30 7205 H 710.22 -2.46799 -5.585 0
M  V30 7206 H 711.634 -4.10098 -4.00615 0
M  V30 7207 H 710.031 -4.78925 -3.61595 0
M  V30 7208 H 711.101 -4.26766 -2.30215 0
M  V30 7209 N 712.444 0.87505 -1.31075 0
M  V30 7210 C 713.354 2.01441 -1.20244 0
M  V30 7211 C 714.37 1.73584 -0.120227 0
M  V30 7212 O 715.546 1.98559 -0.337063 0
M  V30 7213 C 712.611 3.34675 -0.905199 0
M  V30 7214 C 711.672 3.75889 -2.0738 0
M  V30 7215 C 710.905 5.02764 -1.79064 0
M  V30 7216 O 711.128 5.65795 -0.723318 0
M  V30 7217 O 710.062 5.40623 -2.64594 0
M  V30 7218 H 713.888 2.13509 -2.1598 0
M  V30 7219 H 711.473 1.00257 -1.10765 0
M  V30 7220 H 713.355 4.1458 -0.755057 0
M  V30 7221 H 712.03 3.23692 0.0221695 0
M  V30 7222 H 710.937 2.96645 -2.27931 0
M  V30 7223 H 712.27 3.91489 -2.98324 0
M  V30 7224 N 713.922 1.13953 1.08869 0
M  V30 7225 C 715.147 0.928559 1.85452 0
M  V30 7226 C 715.572 -0.517642 1.80837 0
M  V30 7227 O 714.93 -1.36779 1.19001 0
M  V30 7228 C 714.978 1.42814 3.31114 0
M  V30 7229 O 714.082 0.617129 4.07756 0
M  V30 7230 H 713.423 0.33235 0.574839 0
M  V30 7231 H 715.953 1.5156 1.37443 0
M  V30 7232 H 715.963 1.43425 3.8196 0
M  V30 7233 H 714.638 2.48109 3.33788 0
M  V30 7234 H 713.215 0.679365 3.66659 0
M  V30 7235 N 715.4 -1.26948 0.933913 0
M  V30 7236 C 716.628 -1.98186 0.59414 0
M  V30 7237 C 717.043 -1.69614 -0.829257 0
M  V30 7238 O 716.4 -0.960213 -1.55197 0
M  V30 7239 C 716.451 -3.52123 0.818026 0
M  V30 7240 O 716.172 -3.79698 2.18543 0
M  V30 7241 C 717.673 -4.40608 0.48781 0
M  V30 7242 H 714.893 -0.632305 0.224569 0
M  V30 7243 H 717.437 -1.61646 1.25263 0
M  V30 7244 H 715.592 -3.86851 0.206246 0
M  V30 7245 H 716.006 -4.7426 2.24005 0
M  V30 7246 H 717.48 -5.47606 0.695126 0
M  V30 7247 H 717.957 -4.35394 -0.576913 0
M  V30 7248 H 718.563 -4.11411 1.078 0
M  V30 7249 N 716.879 -0.700114 -1.41195 0
M  V30 7250 C 717.826 -0.0376652 -2.30769 0
M  V30 7251 C 718.796 0.766544 -1.47354 0
M  V30 7252 O 719.981 0.73365 -1.76131 0
M  V30 7253 C 717.121 0.889452 -3.33441 0
M  V30 7254 C 716.234 0.076373 -4.31932 0
M  V30 7255 C 715.369 1.00155 -5.21673 0
M  V30 7256 C 714.408 0.181644 -6.1183 0
M  V30 7257 N 713.545 1.06087 -6.94039 0
M  V30 7258 H 718.385 -0.80726 -2.86858 0
M  V30 7259 H 715.922 -0.409798 -1.41277 0
M  V30 7260 H 717.88 1.44107 -3.91522 0
M  V30 7261 H 716.51 1.6254 -2.78892 0
M  V30 7262 H 715.562 -0.592223 -3.75762 0
M  V30 7263 H 716.874 -0.559076 -4.95657 0
M  V30 7264 H 716.028 1.62223 -5.8461 0
M  V30 7265 H 714.767 1.67085 -4.58186 0
M  V30 7266 H 713.772 -0.452085 -5.47938 0
M  V30 7267 H 714.997 -0.483925 -6.77374 0
M  V30 7268 H 712.943 1.7161 -6.33156 0
M  V30 7269 H 712.86 0.481094 -7.54468 0
M  V30 7270 H 714.128 1.66822 -7.6144 0
M  V30 7271 N 718.357 1.51182 -0.445186 0
M  V30 7272 C 719.32 2.26501 0.350722 0
M  V30 7273 C 720.32 1.3025 0.942952 0
M  V30 7274 O 721.51 1.53897 0.816175 0
M  V30 7275 C 718.642 3.06274 1.49697 0
M  V30 7276 H 719.835 2.98299 -0.309474 0
M  V30 7277 H 717.388 1.55034 -0.198551 0
M  V30 7278 H 718.123 2.38911 2.19299 0
M  V30 7279 H 717.908 3.76979 1.0784 0
M  V30 7280 H 719.398 3.63306 2.05909 0
M  V30 7281 N 719.835 0.176821 1.56605 0
M  V30 7282 C 721.06 -0.47599 2.01864 0
M  V30 7283 C 721.485 -1.55645 1.05623 0
M  V30 7284 O 720.843 -1.81263 0.0366729 0
M  V30 7285 C 720.891 -1.02619 3.4569 0
M  V30 7286 O 719.995 -2.13996 3.52533 0
M  V30 7287 H 719.336 -0.113363 0.654251 0
M  V30 7288 H 721.866 0.28233 2.02643 0
M  V30 7289 H 721.876 -1.34742 3.85109 0
M  V30 7290 H 720.551 -0.235138 4.15235 0
M  V30 7291 H 719.128 -1.82876 3.24978 0
M  V30 7292 N 721.313 -1.57302 -0.09688 0
M  V30 7293 C 722.223 -2.05258 -1.13606 0
M  V30 7294 C 723.239 -0.977137 -1.43972 0
M  V30 7295 O 724.415 -1.29018 -1.54649 0
M  V30 7296 C 721.48 -2.46593 -2.43706 0
M  V30 7297 C 720.541 -3.68322 -2.20538 0
M  V30 7298 C 719.774 -4.07676 -3.44435 0
M  V30 7299 O 719.997 -3.47141 -4.52603 0
M  V30 7300 O 718.931 -5.00641 -3.34129 0
M  V30 7301 H 722.757 -2.94069 -0.758752 0
M  V30 7302 H 720.342 -1.46164 -0.309263 0
M  V30 7303 H 722.224 -2.73814 -3.20318 0
M  V30 7304 H 720.899 -1.6092 -2.80867 0
M  V30 7305 H 719.806 -3.4622 -1.41713 0
M  V30 7306 H 721.139 -4.54769 -1.88271 0
M  V30 7307 N 722.791 0.367657 -1.53252 0
M  V30 7308 C 723.721 1.45632 -1.8252 0
M  V30 7309 C 724.702 1.55979 -0.678568 0
M  V30 7310 O 725.887 1.70581 -0.928217 0
M  V30 7311 C 723.017 2.82994 -2.01325 0
M  V30 7312 C 721.971 2.87473 -3.17086 0
M  V30 7313 C 721.297 4.2749 -3.21179 0
M  V30 7314 C 722.597 2.55182 -4.55719 0
M  V30 7315 H 724.291 1.21387 -2.73689 0
M  V30 7316 H 721.837 0.58251 -1.31692 0
M  V30 7317 H 723.79 3.59179 -2.20383 0
M  V30 7318 H 722.514 3.08622 -1.06864 0
M  V30 7319 H 721.173 2.13739 -2.97844 0
M  V30 7320 H 720.821 4.5019 -2.24361 0
M  V30 7321 H 720.521 4.31403 -3.98955 0
M  V30 7322 H 722.045 5.0555 -3.42419 0
M  V30 7323 H 723.459 3.21081 -4.74953 0
M  V30 7324 H 721.856 2.70414 -5.3572 0
M  V30 7325 H 722.926 1.5044 -4.60973 0
M  V30 7326 N 724.269 1.44576 0.627338 0
M  V30 7327 C 725.546 1.38033 1.38586 0
M  V30 7328 C 725.926 0.0409468 2.1106 0
M  V30 7329 O 725.274 -0.976582 2.0658 0
M  V30 7330 C 725.484 2.58102 2.34913 0
M  V30 7331 C 726.832 3.02332 2.98129 0
M  V30 7332 O 727.856 2.58334 2.45238 0
M  V30 7333 O 726.715 3.78628 3.94085 0
M  V30 7334 H 723.809 0.546801 0.620434 0
M  V30 7335 H 726.355 1.56672 0.652077 0
M  V30 7336 H 725.127 3.4719 1.80485 0
M  V30 7337 H 724.75 2.41696 3.15703 0
M  V30 7338 N 725.747 -0.868086 1.31537 0
M  V30 7339 C 726.677 -1.99131 1.21939 0
M  V30 7340 C 727.658 -1.69768 0.106166 0
M  V30 7341 O 728.843 -1.92006 0.291081 0
M  V30 7342 C 725.973 -3.34676 0.927879 0
M  V30 7343 C 724.927 -3.7835 2.00088 0
M  V30 7344 C 724.253 -5.11375 1.56203 0
M  V30 7345 C 725.553 -3.95256 3.41424 0
M  V30 7346 H 727.247 -2.07419 2.15911 0
M  V30 7347 H 724.793 -0.996569 1.03945 0
M  V30 7348 H 726.746 -4.12793 0.847327 0
M  V30 7349 H 725.47 -3.26565 -0.0475042 0
M  V30 7350 H 724.129 -3.02474 2.07135 0
M  V30 7351 H 723.777 -4.99709 0.57445 0
M  V30 7352 H 723.477 -5.41568 2.27985 0
M  V30 7353 H 725.001 -5.92001 1.49558 0
M  V30 7354 H 726.415 -4.63764 3.3704 0
M  V30 7355 H 724.812 -4.36849 4.1144 0
M  V30 7356 H 725.882 -2.98579 3.82072 0
M  V30 7357 N 727.225 -1.14528 -1.08264 0
M  V30 7358 C 728.135 -0.84728 -2.18765 0
M  V30 7359 C 729.151 0.172826 -1.7314 0
M  V30 7360 O 730.327 0.000985336 -2.014 0
M  V30 7361 C 727.392 -0.330633 -3.4512 0
M  V30 7362 C 726.453 -1.41348 -4.05363 0
M  V30 7363 C 725.686 -0.921387 -5.25686 0
M  V30 7364 O 725.909 0.236587 -5.69909 0
M  V30 7365 O 724.843 -1.70101 -5.77364 0
M  V30 7366 H 728.669 -1.7708 -2.46731 0
M  V30 7367 H 726.254 -0.923661 -1.17426 0
M  V30 7368 H 728.136 -0.0485053 -4.21372 0
M  V30 7369 H 726.811 0.565147 -3.18728 0
M  V30 7370 H 725.718 -1.74908 -3.30693 0
M  V30 7371 H 727.051 -2.28383 -4.36007 0
M  V30 7372 N 728.703 1.26451 -0.940633 0
M  V30 7373 C 729.65 2.264 -0.448497 0
M  V30 7374 C 730.62 1.5866 0.491546 0
M  V30 7375 O 731.805 1.86389 0.407874 0
M  V30 7376 C 728.945 3.43956 0.280715 0
M  V30 7377 C 728.058 4.26374 -0.694937 0
M  V30 7378 C 727.193 5.31171 0.0554186 0
M  V30 7379 C 726.232 6.05266 -0.912091 0
M  V30 7380 N 725.369 7.01833 -0.193524 0
M  V30 7381 H 730.209 2.67869 -1.30576 0
M  V30 7382 H 727.746 1.31707 -0.655112 0
M  V30 7383 H 729.704 4.10941 0.71994 0
M  V30 7384 H 728.334 3.03403 1.10212 0
M  V30 7385 H 727.386 3.59183 -1.25267 0
M  V30 7386 H 728.698 4.77748 -1.43382 0
M  V30 7387 H 727.852 6.04166 0.553951 0
M  V30 7388 H 726.591 4.80634 0.827183 0
M  V30 7389 H 725.596 5.31099 -1.42175 0
M  V30 7390 H 726.821 6.57893 -1.68385 0
M  V30 7391 H 724.767 6.53607 0.559758 0
M  V30 7392 H 724.684 7.50957 -0.871744 0
M  V30 7393 H 725.952 7.78983 0.283932 0
M  V30 7394 N 730.181 0.707592 1.40822 0
M  V30 7395 C 731.429 0.243189 2.00632 0
M  V30 7396 C 731.75 -1.16512 1.56365 0
M  V30 7397 O 731.02 -1.78841 0.799553 0
M  V30 7398 H 729.6 0.0869203 0.741926 0
M  V30 7399 H 732.262 0.911438 1.72275 0
M  V30 7400 H 731.358 0.270014 3.1093 0
M  V30 7401 N 731.66 -1.50943 0.453197 0
M  V30 7402 C 732.59 -2.31005 -0.34044 0
M  V30 7403 C 733.571 -1.37112 -1.00669 0
M  V30 7404 O 734.756 -1.66033 -1.0073 0
M  V30 7405 C 731.886 -3.16358 -1.433 0
M  V30 7406 C 730.84 -4.18658 -0.889363 0
M  V30 7407 C 730.166 -4.92633 -2.07887 0
M  V30 7408 C 731.466 -5.22227 0.0871142 0
M  V30 7409 H 733.16 -2.97601 0.327723 0
M  V30 7410 H 730.706 -1.43119 0.159054 0
M  V30 7411 H 732.659 -3.71155 -1.99555 0
M  V30 7412 H 731.383 -2.47613 -2.12968 0
M  V30 7413 H 730.042 -3.64936 -0.348915 0
M  V30 7414 H 729.69 -4.20376 -2.76211 0
M  V30 7415 H 729.39 -5.61819 -1.72143 0
M  V30 7416 H 730.914 -5.50258 -2.64666 0
M  V30 7417 H 732.328 -5.72001 -0.385656 0
M  V30 7418 H 730.725 -5.99032 0.357926 0
M  V30 7419 H 731.795 -4.74077 1.01879 0
M  V30 7420 N 733.138 -0.185124 -1.56509 0
M  V30 7421 C 734.048 0.751908 -2.22224 0
M  V30 7422 C 735.064 1.24244 -1.21817 0
M  V30 7423 O 736.24 1.29169 -1.54523 0
M  V30 7424 C 733.305 1.95837 -2.86092 0
M  V30 7425 C 732.366 1.51337 -4.01741 0
M  V30 7426 C 731.599 2.66233 -4.62554 0
M  V30 7427 O 731.822 3.8346 -4.22273 0
M  V30 7428 O 730.756 2.39517 -5.52191 0
M  V30 7429 H 734.582 0.222304 -3.02885 0
M  V30 7430 H 732.167 0.0437141 -1.49336 0
M  V30 7431 H 734.049 2.66368 -3.26536 0
M  V30 7432 H 732.724 2.47677 -2.08417 0
M  V30 7433 H 731.631 0.777155 -3.65939 0
M  V30 7434 H 732.964 1.04175 -4.81049 0
M  V30 7435 N 734.616 1.57351 0.0885366 0
M  V30 7436 C 735.549 1.97786 1.13825 0
M  V30 7437 C 736.527 0.852091 1.38485 0
M  V30 7438 O 737.711 1.11296 1.52137 0
M  V30 7439 C 734.838 2.30024 2.48609 0
M  V30 7440 C 733.884 3.52437 2.40189 0
M  V30 7441 S 734.717 5.03908 1.81209 0
M  V30 7442 C 735.873 5.39331 3.17605 0
M  V30 7443 H 736.106 2.86513 0.793587 0
M  V30 7444 H 733.639 1.51527 0.29646 0
M  V30 7445 H 735.597 2.49274 3.26148 0
M  V30 7446 H 734.258 1.41856 2.80242 0
M  V30 7447 H 733.451 3.72457 3.39546 0
M  V30 7448 H 733.053 3.32731 1.70781 0
M  V30 7449 H 735.345 5.36378 4.13891 0
M  V30 7450 H 736.288 6.4029 3.02381 0
M  V30 7451 H 736.696 4.6679 3.17438 0
M  V30 7452 N 736.094 -0.359525 1.53444 0
M  V30 7453 C 737.51 -0.701599 1.43352 0
M  V30 7454 C 737.71 -1.93049 0.577439 0
M  V30 7455 O 736.766 -2.52423 0.0622224 0
M  V30 7456 C 738.079 -0.90915 2.86627 0
M  V30 7457 C 739.627 -1.00878 2.96298 0
M  V30 7458 C 740.102 -1.24876 4.40647 0
M  V30 7459 N 741.593 -1.31632 4.44103 0
M  V30 7460 C 742.328 -1.51922 5.52908 0
M  V30 7461 N 741.824 -1.69489 6.71748 0
M  V30 7462 N 743.617 -1.54341 5.40496 0
M  V30 7463 H 735.768 0.448685 2.07607 0
M  V30 7464 H 738.031 0.138713 0.937797 0
M  V30 7465 H 737.737 -0.0778997 3.51614 0
M  V30 7466 H 737.611 -1.81551 3.30634 0
M  V30 7467 H 739.998 -1.83057 2.31461 0
M  V30 7468 H 740.079 -0.0796721 2.55676 0
M  V30 7469 H 739.723 -0.431961 5.0606 0
M  V30 7470 H 739.653 -2.19118 4.78848 0
M  V30 7471 H 742.144 -1.19646 3.5846 0
M  V30 7472 H 742.457 -1.84561 7.50438 0
M  V30 7473 H 740.802 -1.66655 6.74723 0
M  V30 7474 H 743.993 -1.40188 4.46615 0
M  V30 7475 H 744.166 -1.69812 6.25354 0
M  V30 7476 N 737.572 -1.44907 -0.619662 0
M  V30 7477 C 738.519 -1.52654 -1.73105 0
M  V30 7478 C 739.489 -0.373334 -1.6185 0
M  V30 7479 O 740.674 -0.585143 -1.81606 0
M  V30 7480 C 737.814 -1.48769 -3.11387 0
M  V30 7481 C 736.927 -2.74551 -3.33535 0
M  V30 7482 C 736.062 -2.62421 -4.61854 0
M  V30 7483 C 735.101 -3.83312 -4.77219 0
M  V30 7484 N 734.238 -3.69789 -5.96826 0
M  V30 7485 H 739.078 -2.47605 -1.65819 0
M  V30 7486 H 736.615 -1.22875 -0.808719 0
M  V30 7487 H 738.573 -1.44507 -3.91374 0
M  V30 7488 H 737.203 -0.573783 -3.1766 0
M  V30 7489 H 736.255 -2.88953 -2.47408 0
M  V30 7490 H 737.567 -3.64253 -3.40765 0
M  V30 7491 H 736.721 -2.56056 -5.50019 0
M  V30 7492 H 735.46 -1.70298 -4.57001 0
M  V30 7493 H 734.465 -3.90049 -3.87481 0
M  V30 7494 H 735.69 -4.76486 -4.83878 0
M  V30 7495 H 733.636 -2.80426 -5.93041 0
M  V30 7496 H 733.553 -4.53116 -6.05163 0
M  V30 7497 H 734.821 -3.67335 -6.87521 0
M  V30 7498 N 739.05 0.861098 -1.31996 0
M  V30 7499 C 740.296 1.61707 -1.23379 0
M  V30 7500 C 740.651 1.91315 0.204026 0
M  V30 7501 O 739.944 1.53997 1.13998 0
M  V30 7502 C 740.138 2.94822 -2.02027 0
M  V30 7503 C 739.967 2.78212 -3.5331 0
M  V30 7504 C 738.737 2.76933 -4.22654 0
M  V30 7505 C 740.935 2.52432 -4.48088 0
M  V30 7506 N 738.917 2.51466 -5.60034 0
M  V30 7507 C 740.288 2.36312 -5.73198 0
M  V30 7508 C 742.343 2.37848 -4.37416 0
M  V30 7509 C 741.046 2.0709 -6.88844 0
M  V30 7510 C 743.072 2.10016 -5.52854 0
M  V30 7511 C 742.434 1.94691 -6.7696 0
M  V30 7512 H 738.533 0.595703 -0.506618 0
M  V30 7513 H 741.117 1.01275 -1.66287 0
M  V30 7514 H 739.288 3.53243 -1.61474 0
M  V30 7515 H 741.02 3.59756 -1.85358 0
M  V30 7516 H 737.775 2.89638 -3.74709 0
M  V30 7517 H 738.199 2.41679 -6.32392 0
M  V30 7518 H 742.841 2.4842 -3.42122 0
M  V30 7519 H 740.559 1.95256 -7.84156 0
M  V30 7520 H 744.145 1.99519 -5.46519 0
M  V30 7521 H 743.025 1.7346 -7.64775 0
M  V30 7522 N 740.528 1.15101 1.07655 0
M  V30 7523 C 741.774 0.925343 1.80458 0
M  V30 7524 C 742.107 -0.546354 1.86356 0
M  V30 7525 O 741.382 -1.40496 1.34503 0
M  V30 7526 C 741.665 1.53646 3.25676 0
M  V30 7527 C 741.518 3.07854 3.27942 0
M  V30 7528 C 742.837 1.21968 4.22861 0
M  V30 7529 H 739.956 0.337592 0.655134 0
M  V30 7530 H 742.598 1.42217 1.25993 0
M  V30 7531 H 740.748 1.11395 3.72187 0
M  V30 7532 H 742.42 3.58989 2.89697 0
M  V30 7533 H 740.663 3.41904 2.66991 0
M  V30 7534 H 741.334 3.45725 4.30324 0
M  V30 7535 H 743.81 1.5851 3.84726 0
M  V30 7536 H 742.686 1.67349 5.22767 0
M  V30 7537 H 742.947 0.136207 4.4189 0
M  V30 7538 N 742.006 -1.2595 0.947325 0
M  V30 7539 C 742.936 -2.28521 0.479604 0
M  V30 7540 C 743.917 -1.63469 -0.470293 0
M  V30 7541 O 745.102 -1.90627 -0.370824 0
M  V30 7542 C 742.232 -3.46397 -0.250289 0
M  V30 7543 C 741.186 -4.23578 0.613643 0
M  V30 7544 C 740.512 -5.34131 -0.246568 0
M  V30 7545 C 741.812 -4.86979 1.88809 0
M  V30 7546 H 743.506 -2.67895 1.33688 0
M  V30 7547 H 741.052 -1.28783 0.644274 0
M  V30 7548 H 743.005 -4.17269 -0.588576 0
M  V30 7549 H 741.729 -3.05993 -1.14175 0
M  V30 7550 H 740.388 -3.54478 0.93491 0
M  V30 7551 H 740.036 -4.89968 -1.13756 0
M  V30 7552 H 739.736 -5.86683 0.328123 0
M  V30 7553 H 741.26 -6.07839 -0.579986 0
M  V30 7554 H 742.674 -5.50034 1.61666 0
M  V30 7555 H 741.071 -5.49675 2.40784 0
M  V30 7556 H 742.141 -4.09575 2.5957 0
M  V30 7557 N 743.484 -0.715051 -1.40445 0
M  V30 7558 C 744.709 -0.26254 -2.05732 0
M  V30 7559 C 745.134 1.08691 -1.53519 0
M  V30 7560 O 744.492 1.68453 -0.670328 0
M  V30 7561 C 744.54 -0.25195 -3.59719 0
M  V30 7562 O 743.644 0.766998 -4.05205 0
M  V30 7563 H 742.985 -0.123398 -0.652433 0
M  V30 7564 H 745.515 -0.975382 -1.79854 0
M  V30 7565 H 745.525 -0.0894537 -4.07902 0
M  V30 7566 H 744.2 -1.23672 -3.97087 0
M  V30 7567 H 742.777 0.572269 -3.68483 0
M  V30 7568 N 744.962 1.50701 -0.461195 0
M  V30 7569 C 746.21 2.01867 0.0970051 0
M  V30 7570 C 746.531 1.34591 1.41104 0
M  V30 7571 O 745.801 0.488041 1.89723 0
M  V30 7572 H 744.381 0.74599 0.0388392 0
M  V30 7573 H 747.043 1.85129 -0.609357 0
M  V30 7574 H 746.139 3.11051 0.255688 0
M  V30 7575 N 746.441 0.193421 1.56409 0
M  V30 7576 C 747.69 -0.445995 1.96707 0
M  V30 7577 C 748.003 -1.62876 1.08309 0
M  V30 7578 O 749.209 -2.33586 1.38383 0
M  V30 7579 C 747.665 -0.844863 3.49843 0
M  V30 7580 C 747.273 0.31352 4.46902 0
M  V30 7581 C 749.017 -1.45146 3.98915 0
M  V30 7582 C 746.924 -0.106214 5.91305 0
M  V30 7583 H 745.854 -0.170398 0.734493 0
M  V30 7584 H 748.505 0.285172 1.81271 0
M  V30 7585 H 746.887 -1.63265 3.60778 0
M  V30 7586 H 748.061 1.09103 4.47698 0
M  V30 7587 H 746.376 0.8315 4.08014 0
M  V30 7588 H 748.973 -1.77792 5.04276 0
M  V30 7589 H 749.316 -2.35734 3.43126 0
M  V30 7590 H 749.849 -0.727675 3.91088 0
M  V30 7591 H 746.588 0.765442 6.51016 0
M  V30 7592 H 746.108 -0.848623 5.93766 0
M  V30 7593 H 747.787 -0.542588 6.44721 0
M  V30 7594 N 747.919 -1.57396 -0.0801906 0
M  V30 7595 C 748.849 -2.06145 -1.09665 0
M  V30 7596 C 749.83 -0.953273 -1.40878 0
M  V30 7597 O 751.015 -1.22548 -1.50651 0
M  V30 7598 C 748.145 -2.49836 -2.41245 0
M  V30 7599 C 747.099 -3.64454 -2.24405 0
M  V30 7600 C 746.425 -3.94172 -3.61293 0
M  V30 7601 C 747.725 -4.94807 -1.67223 0
M  V30 7602 H 749.419 -2.91316 -0.691028 0
M  V30 7603 H 746.965 -1.40145 -0.330957 0
M  V30 7604 H 748.918 -2.82552 -3.12638 0
M  V30 7605 H 747.642 -1.61683 -2.83771 0
M  V30 7606 H 746.301 -3.32008 -1.55454 0
M  V30 7607 H 745.949 -3.03163 -4.01374 0
M  V30 7608 H 745.649 -4.71345 -3.50867 0
M  V30 7609 H 747.173 -4.29376 -4.3413 0
M  V30 7610 H 748.587 -5.25807 -2.28472 0
M  V30 7611 H 746.984 -5.76245 -1.67515 0
M  V30 7612 H 748.054 -4.80751 -0.632944 0
M  V30 7613 N 749.397 0.351382 -1.53633 0
M  V30 7614 C 750.36 1.41403 -1.80383 0
M  V30 7615 C 751.36 1.45963 -0.674635 0
M  V30 7616 O 752.55 1.46476 -0.942895 0
M  V30 7617 C 749.682 2.80401 -1.93876 0
M  V30 7618 H 750.875 1.18951 -2.75301 0
M  V30 7619 H 748.428 0.58533 -1.44926 0
M  V30 7620 H 749.163 3.08147 -1.01074 0
M  V30 7621 H 748.948 2.78488 -2.7602 0
M  V30 7622 H 750.438 3.57329 -2.16116 0
M  V30 7623 N 750.875 1.45233 0.611969 0
M  V30 7624 C 752.1 1.52767 1.40274 0
M  V30 7625 C 752.525 0.159701 1.87421 0
M  V30 7626 O 751.883 -0.854837 1.59882 0
M  V30 7627 C 751.931 2.51286 2.58626 0
M  V30 7628 O 751.035 2.02764 3.59111 0
M  V30 7629 H 750.376 0.515141 0.418958 0
M  V30 7630 H 752.906 1.90547 0.745188 0
M  V30 7631 H 752.916 2.69949 3.05927 0
M  V30 7632 H 751.591 3.50641 2.23659 0
M  V30 7633 H 750.168 1.93957 3.18489 0
M  V30 7634 N 752.353 -0.854086 1.3245 0
M  V30 7635 C 753.263 -1.99503 1.23434 0
M  V30 7636 C 754.279 -1.73371 0.147828 0
M  V30 7637 O 755.455 -1.97998 0.368609 0
M  V30 7638 C 752.52 -3.33192 0.958328 0
M  V30 7639 C 751.581 -3.72542 2.13333 0
M  V30 7640 C 750.814 -4.99852 1.8704 0
M  V30 7641 O 751.037 -5.64573 0.813239 0
M  V30 7642 O 749.971 -5.36345 2.73161 0
M  V30 7643 H 753.797 -2.10046 2.1935 0
M  V30 7644 H 751.382 -0.984823 1.12346 0
M  V30 7645 H 753.264 -4.13327 0.820918 0
M  V30 7646 H 751.939 -3.23687 0.0293299 0
M  V30 7647 H 750.846 -2.92981 2.32622 0
M  V30 7648 H 752.179 -3.86694 3.04514 0
M  V30 7649 N 753.831 -1.1567 -1.07043 0
M  V30 7650 C 754.741 -0.870435 -2.17855 0
M  V30 7651 C 755.757 0.154452 -1.73313 0
M  V30 7652 O 756.933 -0.0203759 -2.0139 0
M  V30 7653 C 753.998 -0.367219 -3.4475 0
M  V30 7654 C 753.059 -1.45639 -4.03841 0
M  V30 7655 C 752.292 -0.977092 -5.2468 0
M  V30 7656 O 752.515 0.176127 -5.70128 0
M  V30 7657 O 751.449 -1.76215 -5.75527 0
M  V30 7658 H 755.275 -1.79687 -2.44839 0
M  V30 7659 H 752.86 -0.936064 -1.1644 0
M  V30 7660 H 754.742 -0.0931947 -4.21297 0
M  V30 7661 H 753.417 0.53131 -3.1931 0
M  V30 7662 H 752.324 -1.78406 -3.28819 0
M  V30 7663 H 753.657 -2.32995 -4.3356 0
M  V30 7664 N 755.309 1.25446 -0.953992 0
M  V30 7665 C 756.537 1.97215 -0.625595 0
M  V30 7666 C 756.952 1.70911 0.802168 0
M  V30 7667 O 756.309 0.984782 1.5365 0
M  V30 7668 C 756.36 3.50777 -0.873943 0
M  V30 7669 O 756.081 3.76173 -2.24556 0
M  V30 7670 C 757.582 4.39776 -0.557845 0
M  V30 7671 H 754.802 0.628652 -0.2346 0
M  V30 7672 H 757.346 1.59632 -1.27819 0
M  V30 7673 H 755.501 3.86474 -0.267765 0
M  V30 7674 H 755.915 4.70636 -2.31522 0
M  V30 7675 H 757.389 5.46431 -0.782157 0
M  V30 7676 H 757.866 4.36257 0.507573 0
M  V30 7677 H 758.472 4.09644 -1.14332 0
M  V30 7678 N 756.787 0.722489 1.40064 0
M  V30 7679 C 758.017 0.274439 2.04769 0
M  V30 7680 C 758.425 -1.09125 1.54559 0
M  V30 7681 O 757.768 -1.69834 0.700149 0
M  V30 7682 C 757.83 0.184091 3.59028 0
M  V30 7683 C 757.494 1.48619 4.32159 0
M  V30 7684 C 758.491 2.42947 4.59644 0
M  V30 7685 C 756.176 1.74703 4.7094 0
M  V30 7686 C 758.17 3.616 5.24904 0
M  V30 7687 C 755.857 2.93636 5.3593 0
M  V30 7688 C 756.855 3.86907 5.62843 0
M  V30 7689 O 756.543 5.03753 6.26489 0
M  V30 7690 H 756.275 0.119847 0.665292 0
M  V30 7691 H 758.829 0.983352 1.80331 0
M  V30 7692 H 757.059 -0.580821 3.82313 0
M  V30 7693 H 758.748 -0.230306 4.05246 0
M  V30 7694 H 759.514 2.24062 4.30141 0
M  V30 7695 H 755.393 1.02955 4.49356 0
M  V30 7696 H 758.937 4.34418 5.45827 0
M  V30 7697 H 754.834 3.12428 5.64853 0
M  V30 7698 H 755.602 5.03922 6.44984 0
M  V30 7699 N 758.265 -1.50454 0.469181 0
M  V30 7700 C 759.195 -2.31353 -0.31592 0
M  V30 7701 C 760.176 -1.38172 -0.992094 0
M  V30 7702 O 761.361 -1.67093 -0.989633 0
M  V30 7703 C 758.491 -3.1786 -1.39937 0
M  V30 7704 C 757.445 -4.19578 -0.844909 0
M  V30 7705 C 756.771 -4.9481 -2.0265 0
M  V30 7706 C 758.071 -5.22106 0.142499 0
M  V30 7707 H 759.765 -2.97237 0.359269 0
M  V30 7708 H 757.311 -1.42942 0.174224 0
M  V30 7709 H 759.264 -3.7325 -1.95607 0
M  V30 7710 H 757.988 -2.49858 -2.1033 0
M  V30 7711 H 756.647 -3.65285 -0.310189 0
M  V30 7712 H 756.295 -4.23282 -2.71737 0
M  V30 7713 H 755.995 -5.63613 -1.66174 0
M  V30 7714 H 757.519 -5.53035 -2.58815 0
M  V30 7715 H 758.933 -5.72378 -0.324966 0
M  V30 7716 H 757.33 -5.98618 0.421441 0
M  V30 7717 H 758.4 -4.7297 1.06901 0
M  V30 7718 N 759.743 -0.201713 -1.56304 0
M  V30 7719 C 760.968 0.443815 -2.02596 0
M  V30 7720 C 761.393 1.53945 -1.08086 0
M  V30 7721 O 760.751 1.81182 -0.0655056 0
M  V30 7722 C 760.799 0.971066 -3.47279 0
M  V30 7723 O 759.903 2.0836 -3.55893 0
M  V30 7724 H 759.244 0.10294 -0.655972 0
M  V30 7725 H 761.774 -0.314533 -2.02168 0
M  V30 7726 H 761.784 1.28598 -3.87204 0
M  V30 7727 H 760.459 0.169048 -4.15556 0
M  V30 7728 H 759.036 1.77683 -3.27846 0
M  V30 7729 N 761.222 1.57436 0.0718424 0
M  V30 7730 C 762.172 2.00132 1.09229 0
M  V30 7731 C 763.156 0.883379 1.34481 0
M  V30 7732 O 764.348 1.14728 1.34783 0
M  V30 7733 C 761.477 2.44876 2.40605 0
M  V30 7734 C 760.563 3.63405 2.18627 0
M  V30 7735 N 760.954 4.77583 1.66579 0
M  V30 7736 C 759.252 3.69953 2.491 0
M  V30 7737 C 759.953 5.5943 1.59415 0
M  V30 7738 N 758.929 5.03275 2.05464 0
M  V30 7739 H 762.731 2.85849 0.683185 0
M  V30 7740 H 760.245 1.59987 0.278914 0
M  V30 7741 H 762.242 2.73703 3.14471 0
M  V30 7742 H 760.902 1.60546 2.82232 0
M  V30 7743 H 761.913 4.99875 1.35443 0
M  V30 7744 H 758.59 2.96336 2.94094 0
M  V30 7745 H 759.98 6.61093 1.20026 0
M  V30 7746 N 762.7 -0.34323 1.53817 0
M  V30 7747 C 763.63 -1.42709 1.84814 0
M  V30 7748 C 764.611 -1.5488 0.703297 0
M  V30 7749 O 765.796 -1.69082 0.955237 0
M  V30 7750 C 762.926 -2.79756 2.05801 0
M  V30 7751 C 761.88 -2.82392 3.21619 0
M  V30 7752 C 761.206 -4.22326 3.2794 0
M  V30 7753 C 762.506 -2.479 4.59721 0
M  V30 7754 H 764.2 -1.17018 2.75585 0
M  V30 7755 H 761.746 -0.561485 1.32602 0
M  V30 7756 H 763.699 -3.55627 2.26069 0
M  V30 7757 H 762.423 -3.06883 1.11761 0
M  V30 7758 H 761.082 -2.08974 3.01207 0
M  V30 7759 H 760.73 -4.46564 2.31494 0
M  V30 7760 H 760.43 -4.25001 4.05768 0
M  V30 7761 H 761.954 -5.00039 3.50419 0
M  V30 7762 H 763.368 -3.13484 4.80001 0
M  V30 7763 H 761.765 -2.61857 5.39954 0
M  V30 7764 H 762.835 -1.43087 4.63308 0
M  V30 7765 N 764.178 -1.45556 -0.604258 0
M  V30 7766 C 765.088 -1.57025 -1.74299 0
M  V30 7767 C 766.104 -0.45456 -1.67958 0
M  V30 7768 O 767.28 -0.715711 -1.88254 0
M  V30 7769 C 764.345 -1.53702 -3.10768 0
M  V30 7770 C 763.406 -2.76335 -3.28538 0
M  V30 7771 C 762.639 -2.73161 -4.58496 0
M  V30 7772 O 762.862 -1.80678 -5.41028 0
M  V30 7773 O 761.796 -3.64409 -4.79051 0
M  V30 7774 H 765.622 -2.53284 -1.67573 0
M  V30 7775 H 763.207 -1.28104 -0.768745 0
M  V30 7776 H 765.089 -1.54468 -3.92068 0
M  V30 7777 H 763.764 -0.605957 -3.17978 0
M  V30 7778 H 762.671 -2.8113 -2.46813 0
M  V30 7779 H 764.004 -3.68578 -3.26207 0
M  V30 7780 N 765.656 0.84705 -1.32902 0
M  V30 7781 C 766.619 1.9378 -1.224 0
M  V30 7782 C 767.619 1.60144 -0.145108 0
M  V30 7783 O 768.809 1.69638 -0.396058 0
M  V30 7784 C 765.941 3.29234 -0.884174 0
M  V30 7785 H 767.134 2.04518 -2.19345 0
M  V30 7786 H 764.687 1.03816 -1.16842 0
M  V30 7787 H 765.422 3.24193 0.0831277 0
M  V30 7788 H 765.207 3.55026 -1.6643 0
M  V30 7789 H 766.697 4.09162 -0.835226 0
M  V30 7790 N 767.134 1.16236 1.06428 0
M  V30 7791 C 768.064 0.890807 2.1584 0
M  V30 7792 C 769.045 -0.162333 1.69324 0
M  V30 7793 O 770.23 -0.0147191 1.94194 0
M  V30 7794 C 767.36 0.389615 3.45108 0
M  V30 7795 C 766.314 1.38051 4.05125 0
M  V30 7796 C 765.64 0.737773 5.29586 0
M  V30 7797 C 766.94 2.74965 4.44062 0
M  V30 7798 H 768.634 1.80577 2.38814 0
M  V30 7799 H 766.18 0.869657 1.14774 0
M  V30 7800 H 768.133 0.187127 4.20984 0
M  V30 7801 H 766.857 -0.560851 3.21748 0
M  V30 7802 H 765.516 1.56952 3.31303 0
M  V30 7803 H 765.164 -0.219135 5.02522 0
M  V30 7804 H 764.864 1.39914 5.70699 0
M  V30 7805 H 766.388 0.545275 6.0816 0
M  V30 7806 H 767.802 2.59855 5.11027 0
M  V30 7807 H 766.199 3.37563 4.96156 0
M  V30 7808 H 767.269 3.30321 3.54987 0
M  V30 7809 N 768.612 -1.24939 0.960631 0
M  V30 7810 C 769.542 -2.28 0.503815 0
M  V30 7811 C 770.523 -1.63959 -0.452928 0
M  V30 7812 O 771.708 -1.91009 -0.350585 0
M  V30 7813 C 768.838 -3.46643 -0.213535 0
M  V30 7814 C 767.792 -4.22903 0.658535 0
M  V30 7815 C 767.118 -5.34363 -0.189902 0
M  V30 7816 C 768.418 -4.84949 1.93963 0
M  V30 7817 H 770.112 -2.66462 1.36521 0
M  V30 7818 H 767.658 -1.28093 0.657897 0
M  V30 7819 H 769.611 -4.1787 -0.544286 0
M  V30 7820 H 768.335 -3.07187 -1.10923 0
M  V30 7821 H 766.994 -3.53467 0.972455 0
M  V30 7822 H 766.642 -4.91147 -1.08553 0
M  V30 7823 H 766.342 -5.86302 0.390331 0
M  V30 7824 H 767.866 -6.0842 -0.515484 0
M  V30 7825 H 769.28 -5.48288 1.67491 0
M  V30 7826 H 767.677 -5.47091 2.46601 0
M  V30 7827 H 768.747 -4.06799 2.639 0
M  V30 7828 N 770.09 -0.729906 -1.39679 0
M  V30 7829 C 771.02 -0.101618 -2.33279 0
M  V30 7830 C 772.001 0.729854 -1.53646 0
M  V30 7831 O 773.186 0.67587 -1.82059 0
M  V30 7832 C 770.316 0.81024 -3.37716 0
M  V30 7833 C 769.27 0.0833126 -4.27919 0
M  V30 7834 C 768.596 1.11185 -5.23012 0
M  V30 7835 C 769.896 -1.07107 -5.112 0
M  V30 7836 H 771.59 -0.883452 -2.86069 0
M  V30 7837 H 769.136 -0.426283 -1.37546 0
M  V30 7838 H 771.089 1.25927 -4.02145 0
M  V30 7839 H 769.813 1.62413 -2.83354 0
M  V30 7840 H 768.472 -0.346043 -3.64963 0
M  V30 7841 H 768.12 1.91917 -4.64948 0
M  V30 7842 H 767.82 0.63026 -5.8421 0
M  V30 7843 H 769.344 1.56068 -5.90318 0
M  V30 7844 H 770.758 -0.700726 -5.69002 0
M  V30 7845 H 769.155 -1.48196 -5.81514 0
M  V30 7846 H 770.225 -1.89513 -4.46332 0
M  V30 7847 N 771.568 1.50203 -0.477153 0
M  V30 7848 C 772.979 1.86685 -0.0235041 0
M  V30 7849 C 773.33 1.39148 1.38319 0
M  V30 7850 O 772.455 0.759051 2.02651 0
M  V30 7851 C 773.05 3.38781 -0.0358767 0
M  V30 7852 C 771.609 3.74652 0.362327 0
M  V30 7853 C 770.756 2.7412 -0.41875 0
M  V30 7854 H 773.707 1.4286 -0.691133 0
M  V30 7855 H 773.728 3.72732 0.764924 0
M  V30 7856 H 773.24 3.73349 -1.05981 0
M  V30 7857 H 771.341 3.45686 1.39039 0
M  V30 7858 H 771.454 4.79063 0.059457 0
M  V30 7859 H 769.818 2.54376 0.128341 0
M  V30 7860 H 770.601 3.11532 -1.44231 0
M  V30 7861 N 773.046 0.209999 1.56195 0
M  V30 7862 C 773.979 -0.744546 2.15712 0
M  V30 7863 C 774.957 -1.19917 1.09812 0
M  V30 7864 O 776.141 -1.284 1.38006 0
M  V30 7865 C 773.268 -2.00733 2.72807 0
M  V30 7866 C 772.314 -1.69363 3.91431 0
M  V30 7867 S 773.147 -0.828579 5.29051 0
M  V30 7868 C 774.303 -2.10118 5.89577 0
M  V30 7869 H 774.536 -0.238636 2.96341 0
M  V30 7870 H 772.069 -0.00517877 1.54399 0
M  V30 7871 H 774.027 -2.73246 3.06344 0
M  V30 7872 H 772.688 -2.48436 1.92193 0
M  V30 7873 H 771.881 -2.63157 4.29842 0
M  V30 7874 H 771.483 -1.04921 3.58981 0
M  V30 7875 H 773.775 -3.05231 6.04847 0
M  V30 7876 H 774.718 -1.76116 6.85849 0
M  V30 7877 H 775.126 -2.23644 5.18308 0
M  V30 7878 N 774.524 -1.57472 -0.0634922 0
M  V30 7879 C 775.471 -2.04258 -1.07457 0
M  V30 7880 C 776.441 -0.924804 -1.37973 0
M  V30 7881 O 777.626 -1.19305 -1.48899 0
M  V30 7882 C 774.766 -2.49832 -2.38071 0
M  V30 7883 C 773.879 -3.75263 -2.14014 0
M  V30 7884 C 773.014 -4.09585 -3.38251 0
M  V30 7885 C 772.053 -5.28032 -3.09594 0
M  V30 7886 N 771.19 -5.57953 -4.26185 0
M  V30 7887 H 776.03 -2.90402 -0.668626 0
M  V30 7888 H 773.567 -1.43609 -0.318572 0
M  V30 7889 H 775.525 -2.7431 -3.14341 0
M  V30 7890 H 774.155 -1.66654 -2.76453 0
M  V30 7891 H 773.207 -3.58075 -1.28399 0
M  V30 7892 H 774.519 -4.61667 -1.88852 0
M  V30 7893 H 773.673 -4.35008 -4.2291 0
M  V30 7894 H 772.412 -3.21765 -3.66495 0
M  V30 7895 H 771.417 -5.02397 -2.23332 0
M  V30 7896 H 772.642 -6.17477 -2.82663 0
M  V30 7897 H 770.588 -4.73092 -4.54445 0
M  V30 7898 H 770.505 -6.38793 -4.04326 0
M  V30 7899 H 771.773 -5.87931 -5.11817 0
M  V30 7900 N 776.003 0.335068 -1.53997 0
M  V30 7901 C 777.414 0.910191 -1.6301 0
M  V30 7902 C 777.765 1.89271 -0.516809 0
M  V30 7903 O 776.89 2.13516 0.352123 0
M  V30 7904 C 777.485 1.65761 -2.9548 0
M  V30 7905 C 776.044 2.18163 -3.06728 0
M  V30 7906 C 775.191 1.00338 -2.5851 0
M  V30 7907 H 778.142 0.112965 -1.58297 0
M  V30 7908 H 778.163 2.52107 -2.84995 0
M  V30 7909 H 777.675 0.94227 -3.76488 0
M  V30 7910 H 775.776 2.92847 -2.30372 0
M  V30 7911 H 775.889 2.43952 -4.1234 0
M  V30 7912 H 774.253 1.37925 -2.14124 0
M  V30 7913 H 775.036 0.30254 -3.41964 0
M  V30 7914 N 777.481 1.45874 0.596531 0
M  V30 7915 C 778.411 1.5824 1.71705 0
M  V30 7916 C 779.392 0.433366 1.64487 0
M  V30 7917 O 780.577 0.657895 1.82717 0
M  V30 7918 C 777.707 1.55927 3.10329 0
M  V30 7919 C 776.661 2.69659 3.32367 0
M  V30 7920 C 775.987 2.52403 4.71377 0
M  V30 7921 C 777.287 4.11591 3.21544 0
M  V30 7922 H 778.981 2.52035 1.61613 0
M  V30 7923 H 776.527 1.21297 0.776082 0
M  V30 7924 H 778.48 1.63173 3.88526 0
M  V30 7925 H 777.204 0.586674 3.21288 0
M  V30 7926 H 775.863 2.61859 2.56564 0
M  V30 7927 H 775.511 1.53258 4.79083 0
M  V30 7928 H 775.211 3.28679 4.87077 0
M  V30 7929 H 776.735 2.6152 5.5176 0
M  V30 7930 H 778.149 4.20576 3.89601 0
M  V30 7931 H 776.546 4.88344 3.4877 0
M  V30 7932 H 777.616 4.32719 2.1882 0
M  V30 7933 N 778.959 -0.83999 1.33349 0
M  V30 7934 C 779.906 -1.94972 1.23509 0
M  V30 7935 C 780.876 -1.65709 0.113967 0
M  V30 7936 O 782.061 -1.88552 0.292045 0
M  V30 7937 C 779.201 -3.30919 0.979105 0
M  V30 7938 C 778.314 -3.72587 2.18639 0
M  V30 7939 C 777.449 -4.97397 1.86465 0
M  V30 7940 C 776.488 -5.31597 3.03432 0
M  V30 7941 N 775.625 -6.47584 2.71254 0
M  V30 7942 H 780.465 -2.0272 2.18423 0
M  V30 7943 H 778.002 -0.992017 1.08616 0
M  V30 7944 H 779.96 -4.09239 0.811126 0
M  V30 7945 H 778.59 -3.22731 0.0667099 0
M  V30 7946 H 777.642 -2.89799 2.46416 0
M  V30 7947 H 778.954 -3.93844 3.06086 0
M  V30 7948 H 778.108 -5.83462 1.66305 0
M  V30 7949 H 776.847 -4.78107 0.96254 0
M  V30 7950 H 775.852 -4.44037 3.24208 0
M  V30 7951 H 777.077 -5.52836 3.94397 0
M  V30 7952 H 775.023 -6.29783 1.836 0
M  V30 7953 H 774.94 -6.68931 3.52231 0
M  V30 7954 H 776.208 -7.36764 2.54558 0
M  V30 7955 N 780.437 -1.16799 -1.0581 0
M  V30 7956 C 781.4 -0.881396 -2.11575 0
M  V30 7957 C 782.4 0.12574 -1.60308 0
M  V30 7958 O 783.59 -0.105716 -1.73879 0
M  V30 7959 C 780.722 -0.319037 -3.39404 0
M  V30 7960 H 781.915 -1.81907 -2.38432 0
M  V30 7961 H 779.468 -0.977597 -1.21954 0
M  V30 7962 H 780.203 0.626082 -3.18199 0
M  V30 7963 H 779.988 -1.04481 -3.77923 0
M  V30 7964 H 781.478 -0.13663 -4.17376 0
M  V30 7965 N 781.915 1.24427 -0.967243 0
M  V30 7966 C 782.878 2.23637 -0.501927 0
M  V30 7967 C 783.878 1.55712 0.401283 0
M  V30 7968 O 785.068 1.73085 0.196808 0
M  V30 7969 C 782.2 3.39804 0.273176 0
M  V30 7970 H 783.393 2.66317 -1.37897 0
M  V30 7971 H 780.946 1.37033 -0.751783 0
M  V30 7972 H 781.681 3.02562 1.16733 0
M  V30 7973 H 781.466 3.90303 -0.37498 0
M  V30 7974 H 782.956 4.13443 0.587776 0
M  V30 7975 N 783.393 0.737304 1.3929 0
M  V30 7976 C 784.356 0.10731 2.28949 0
M  V30 7977 C 785.356 -0.664716 1.46418 0
M  V30 7978 O 786.546 -0.493392 1.67067 0
M  V30 7979 C 783.678 -0.857145 3.29948 0
M  V30 7980 H 784.871 0.89725 2.86163 0
M  V30 7981 H 782.424 0.503279 1.47976 0
M  V30 7982 H 783.159 -1.67336 2.77794 0
M  V30 7983 H 782.944 -0.306167 3.90903 0
M  V30 7984 H 784.434 -1.29444 3.97031 0
M  V30 7985 N 784.871 -1.49948 0.485112 0
M  V30 7986 C 786.099 -2.06806 -0.0622824 0
M  V30 7987 C 786.514 -1.34736 -1.32256 0
M  V30 7988 O 785.871 -0.420836 -1.77582 0
M  V30 7989 C 785.922 -3.59934 -0.336096 0
M  V30 7990 O 785.643 -4.29289 0.874203 0
M  V30 7991 C 787.144 -4.33459 -0.928903 0
M  V30 7992 H 784.364 -0.670867 0.0133472 0
M  V30 7993 H 786.908 -1.92937 0.677917 0
M  V30 7994 H 785.063 -3.7356 -1.02625 0
M  V30 7995 H 785.477 -5.20735 0.627332 0
M  V30 7996 H 786.951 -5.41527 -1.07017 0
M  V30 7997 H 787.428 -3.94881 -1.92265 0
M  V30 7998 H 788.034 -4.24399 -0.276705 0
M  V30 7999 N 786.349 -0.21828 -1.56081 0
M  V30 8000 C 787.577 0.419258 -2.02608 0
M  V30 8001 C 787.992 1.53578 -1.09814 0
M  V30 8002 O 787.349 1.82185 -0.107149 0
M  V30 8003 C 787.4 0.953955 -3.48686 0
M  V30 8004 O 787.121 -0.11805 -4.37941 0
M  V30 8005 C 788.622 1.66506 -4.10841 0
M  V30 8006 H 785.842 0.10296 -0.663054 0
M  V30 8007 H 788.386 -0.333776 -2.01758 0
M  V30 8008 H 786.541 1.65727 -3.50162 0
M  V30 8009 H 786.955 0.283359 -5.23734 0
M  V30 8010 H 788.429 1.99123 -5.14834 0
M  V30 8011 H 788.906 2.57705 -3.55647 0
M  V30 8012 H 789.512 1.00703 -4.13206 0
M  V30 8013 N 787.827 1.57504 0.0551401 0
M  V30 8014 C 789.052 1.92682 0.767352 0
M  V30 8015 C 789.477 0.81614 1.69472 0
M  V30 8016 O 788.835 -0.229989 1.79835 0
M  V30 8017 C 788.883 3.26866 1.52286 0
M  V30 8018 O 787.987 3.17274 2.63459 0
M  V30 8019 H 787.328 0.630502 0.208238 0
M  V30 8020 H 789.858 2.04592 0.0184026 0
M  V30 8021 H 789.868 3.61138 1.8985 0
M  V30 8022 H 788.543 4.07276 0.842541 0
M  V30 8023 H 787.12 2.94589 2.2863 0
M  V30 8024 N 789.305 -0.326896 1.54172 0
M  V30 8025 C 790.237 -1.42319 1.79661 0
M  V30 8026 C 791.25 -1.47989 0.678456 0
M  V30 8027 O 792.439 -1.50773 0.955503 0
M  V30 8028 C 789.539 -2.80876 1.89636 0
M  V30 8029 C 788.712 -2.98449 3.19761 0
M  V30 8030 C 787.771 -4.17347 3.2048 0
M  V30 8031 O 786.797 -4.10667 3.94134 0
M  V30 8032 N 787.999 -5.26717 2.44027 0
M  V30 8033 H 790.764 -1.20819 2.74268 0
M  V30 8034 H 788.325 -0.516866 1.53428 0
M  V30 8035 H 790.317 -3.58619 1.87549 0
M  V30 8036 H 788.887 -2.95442 1.02141 0
M  V30 8037 H 788.107 -2.08035 3.34836 0
M  V30 8038 H 789.395 -3.07083 4.05681 0
M  V30 8039 H 788.793 -5.35019 1.8377 0
M  V30 8040 H 787.35 -6.02891 2.47721 0
M  V30 8041 N 790.784 -1.46188 -0.588786 0
M  V30 8042 C 792.195 -1.45421 -1.17088 0
M  V30 8043 C 792.546 -0.191801 -1.9526 0
M  V30 8044 O 791.671 0.705497 -2.04577 0
M  V30 8045 C 792.266 -2.63467 -2.13004 0
M  V30 8046 C 790.825 -2.6576 -2.6655 0
M  V30 8047 C 789.972 -2.38002 -1.42304 0
M  V30 8048 H 792.923 -1.54156 -0.377052 0
M  V30 8049 H 792.944 -2.38638 -2.96365 0
M  V30 8050 H 792.456 -3.55331 -1.56081 0
M  V30 8051 H 790.557 -1.77952 -3.27359 0
M  V30 8052 H 790.67 -3.65545 -3.09699 0
M  V30 8053 H 789.034 -1.87936 -1.71907 0
M  V30 8054 H 789.817 -3.32035 -0.872209 0
M  V30 8055 N 792.262 0.832906 -1.33792 0
M  V30 8056 C 793.508 1.59089 -1.25772 0
M  V30 8057 C 793.841 1.93414 0.174601 0
M  V30 8058 O 793.116 1.59195 1.11746 0
M  V30 8059 C 793.399 2.89699 -2.13885 0
M  V30 8060 C 793.252 2.62017 -3.65605 0
M  V30 8061 C 794.571 3.91182 -2.01654 0
M  V30 8062 H 791.69 0.577232 -0.458227 0
M  V30 8063 H 794.332 0.960227 -1.6395 0
M  V30 8064 H 792.482 3.4352 -1.81456 0
M  V30 8065 H 794.154 2.14582 -4.08353 0
M  V30 8066 H 792.397 1.95621 -3.87189 0
M  V30 8067 H 793.068 3.55112 -4.2261 0
M  V30 8068 H 795.544 3.46684 -2.30107 0
M  V30 8069 H 794.42 4.80391 -2.65548 0
M  V30 8070 H 794.681 4.30861 -0.990536 0
M  V30 8071 N 793.74 1.17359 1.05189 0
M  V30 8072 C 794.67 0.91365 2.14883 0
M  V30 8073 C 795.651 -0.144365 1.69486 0
M  V30 8074 O 796.836 0.00587861 1.94199 0
M  V30 8075 C 793.966 0.426196 3.44675 0
M  V30 8076 C 792.92 1.4234 4.03638 0
M  V30 8077 C 792.246 0.793902 5.28773 0
M  V30 8078 C 793.546 2.7966 4.41121 0
M  V30 8079 H 795.24 1.831 2.36885 0
M  V30 8080 H 792.786 0.881781 1.13845 0
M  V30 8081 H 794.739 0.231767 4.20762 0
M  V30 8082 H 793.463 -0.526693 3.22325 0
M  V30 8083 H 792.122 1.60457 3.2962 0
M  V30 8084 H 791.77 -0.165824 5.02727 0
M  V30 8085 H 791.47 1.45959 5.69183 0
M  V30 8086 H 792.994 0.609747 6.07548 0
M  V30 8087 H 794.408 2.6526 5.08242 0
M  V30 8088 H 792.805 3.42807 4.92548 0
M  V30 8089 H 793.875 3.34068 3.51464 0
M  V30 8090 N 795.218 -1.23913 0.973828 0
M  V30 8091 C 796.446 -1.96195 0.656891 0
M  V30 8092 C 796.861 -1.72166 -0.774876 0
M  V30 8093 O 796.218 -1.0091 -1.52064 0
M  V30 8094 C 796.269 -3.49342 0.929638 0
M  V30 8095 O 795.99 -3.72553 2.30512 0
M  V30 8096 C 797.491 -4.38833 0.627739 0
M  V30 8097 H 794.711 -0.624841 0.244572 0
M  V30 8098 H 797.255 -1.57579 1.30343 0
M  V30 8099 H 795.41 -3.85999 0.329216 0
M  V30 8100 H 795.824 -4.66893 2.3898 0
M  V30 8101 H 797.298 -5.45117 0.868991 0
M  V30 8102 H 797.775 -4.37009 -0.438104 0
M  V30 8103 H 798.381 -4.07773 1.20834 0
M  V30 8104 N 796.696 -0.74468 -1.38897 0
M  V30 8105 C 797.921 -0.306119 -2.05128 0
M  V30 8106 C 798.346 1.0541 -1.55789 0
M  V30 8107 O 797.704 1.66993 -0.705909 0
M  V30 8108 C 797.752 -0.328195 -3.59103 0
M  V30 8109 O 796.856 0.680876 -4.06741 0
M  V30 8110 H 796.197 -0.137209 -0.649669 0
M  V30 8111 H 798.727 -1.01331 -1.77745 0
M  V30 8112 H 798.737 -0.175956 -4.0762 0
M  V30 8113 H 797.412 -1.32067 -3.94374 0
M  V30 8114 H 795.989 0.49398 -3.69614 0
M  V30 8115 N 798.174 1.49689 -0.493057 0
M  V30 8116 C 799.106 2.26867 0.326195 0
M  V30 8117 C 800.119 1.33083 0.937697 0
M  V30 8118 O 801.308 1.58427 0.822382 0
M  V30 8119 C 798.408 3.0519 1.4735 0
M  V30 8120 C 797.581 4.26491 0.970767 0
M  V30 8121 C 796.64 4.86926 1.99473 0
M  V30 8122 O 795.666 5.47221 1.56647 0
M  V30 8123 N 796.868 4.75871 3.32456 0
M  V30 8124 H 799.633 2.97816 -0.335547 0
M  V30 8125 H 797.194 1.58602 -0.325129 0
M  V30 8126 H 799.186 3.42496 2.15589 0
M  V30 8127 H 797.756 2.369 2.03954 0
M  V30 8128 H 796.976 3.94036 0.113529 0
M  V30 8129 H 798.264 5.05092 0.613156 0
M  V30 8130 H 797.662 4.2797 3.69944 0
M  V30 8131 H 796.219 5.17383 3.96431 0
M  V30 8132 N 799.652 0.226554 1.55963 0
M  V30 8133 C 800.584 -0.713907 2.17798 0
M  V30 8134 C 801.597 -1.15387 1.14846 0
M  V30 8135 O 802.786 -1.08416 1.41804 0
M  V30 8136 C 799.886 -1.97945 2.75084 0
M  V30 8137 C 799.059 -1.69424 4.03255 0
M  V30 8138 C 798.118 -2.80734 4.45056 0
M  V30 8139 O 797.144 -2.4899 5.11852 0
M  V30 8140 N 798.346 -4.09797 4.11152 0
M  V30 8141 H 801.111 -0.18494 2.99129 0
M  V30 8142 H 798.672 0.0457346 1.61835 0
M  V30 8143 H 800.664 -2.71611 3.00016 0
M  V30 8144 H 799.234 -2.41876 1.98027 0
M  V30 8145 H 798.454 -0.793767 3.86126 0
M  V30 8146 H 799.742 -1.47806 4.86858 0
M  V30 8147 H 799.14 -4.38429 3.57486 0
M  V30 8148 H 797.697 -4.79992 4.40966 0
M  V30 8149 N 801.13 -1.57531 -0.0467866 0
M  V30 8150 C 802.379 -1.87632 -0.740069 0
M  V30 8151 C 802.692 -0.822691 -1.77457 0
M  V30 8152 O 803.898 -1.01235 -2.5192 0
M  V30 8153 C 802.354 -3.32917 -1.36727 0
M  V30 8154 C 801.962 -4.46469 -0.370035 0
M  V30 8155 C 803.706 -3.72189 -2.04146 0
M  V30 8156 C 801.613 -5.82806 -1.00457 0
M  V30 8157 H 800.543 -0.70002 -0.280158 0
M  V30 8158 H 803.194 -1.83499 0.00607151 0
M  V30 8159 H 801.576 -3.31739 -2.16252 0
M  V30 8160 H 802.75 -4.59085 0.397217 0
M  V30 8161 H 801.065 -4.15914 0.201079 0
M  V30 8162 H 803.662 -4.71357 -2.52441 0
M  V30 8163 H 804.005 -3.03268 -2.85192 0
M  V30 8164 H 804.538 -3.75465 -1.3142 0
M  V30 8165 H 801.277 -6.55083 -0.233907 0
M  V30 8166 H 800.797 -5.73944 -1.74209 0
M  V30 8167 H 802.476 -6.28961 -1.51713 0
M  V30 8168 N 802.608 0.318715 -1.54344 0
M  V30 8169 C 803.518 1.41535 -1.87097 0
M  V30 8170 C 804.534 1.56361 -0.763353 0
M  V30 8171 O 805.71 1.71365 -1.05811 0
M  V30 8172 C 802.775 2.76178 -2.09587 0
M  V30 8173 C 801.836 2.70486 -3.3337 0
M  V30 8174 C 801.069 3.98708 -3.54778 0
M  V30 8175 O 801.292 4.9721 -2.79532 0
M  V30 8176 O 800.226 4.01674 -4.48266 0
M  V30 8177 H 804.052 1.16764 -2.80357 0
M  V30 8178 H 801.637 0.51318 -1.4031 0
M  V30 8179 H 803.519 3.55873 -2.25682 0
M  V30 8180 H 802.194 3.00829 -1.19514 0
M  V30 8181 H 801.101 1.89325 -3.22656 0
M  V30 8182 H 802.434 2.50789 -4.23516 0
M  V30 8183 N 804.086 1.46499 0.581025 0
M  V30 8184 C 805.314 1.5547 1.36517 0
M  V30 8185 C 805.729 0.196407 1.87776 0
M  V30 8186 O 805.086 -0.806577 1.63709 0
M  V30 8187 C 805.137 2.56084 2.55154 0
M  V30 8188 O 804.858 3.86637 2.06018 0
M  V30 8189 C 806.359 2.75011 3.47683 0
M  V30 8190 H 803.579 0.525703 0.416986 0
M  V30 8191 H 806.123 1.9192 0.706177 0
M  V30 8192 H 804.278 2.22633 3.17039 0
M  V30 8193 H 804.692 4.41413 2.83292 0
M  V30 8194 H 806.166 3.49329 4.27403 0
M  V30 8195 H 806.643 1.81978 3.99726 0
M  V30 8196 H 807.249 3.09565 2.91632 0
M  V30 8197 N 805.565 -0.825799 1.34232 0
M  V30 8198 C 806.814 -1.57686 1.2577 0
M  V30 8199 C 807.127 -1.94848 -0.171372 0
M  V30 8200 O 808.333 -2.68854 -0.378123 0
M  V30 8201 C 806.789 -2.84478 2.20454 0
M  V30 8202 C 806.397 -2.54629 3.68603 0
M  V30 8203 C 808.141 -3.625 2.20893 0
M  V30 8204 C 806.048 -3.77597 4.55164 0
M  V30 8205 H 804.978 -0.591809 0.467203 0
M  V30 8206 H 807.629 -0.909421 1.59379 0
M  V30 8207 H 806.011 -3.52832 1.79793 0
M  V30 8208 H 807.185 -1.94404 4.17784 0
M  V30 8209 H 805.5 -1.89888 3.70582 0
M  V30 8210 H 808.097 -4.538 2.82789 0
M  V30 8211 H 808.44 -3.98404 1.20746 0
M  V30 8212 H 808.973 -3.01086 2.59985 0
M  V30 8213 H 805.712 -3.46815 5.56237 0
M  V30 8214 H 805.232 -4.37116 4.10719 0
M  V30 8215 H 806.911 -4.45039 4.69627 0
M  V30 8216 N 807.043 -1.17915 -1.04565 0
M  V30 8217 C 808.29 -0.971424 -1.77678 0
M  V30 8218 C 808.618 0.499401 -1.87979 0
M  V30 8219 O 807.873 1.38695 -1.38066 0
M  V30 8220 C 808.172 -1.56528 -3.213 0
M  V30 8221 C 807.838 -3.06138 -3.31044 0
M  V30 8222 C 806.5 -3.46974 -3.33411 0
M  V30 8223 C 808.852 -4.02151 -3.31548 0
M  V30 8224 C 806.18 -4.82406 -3.33918 0
M  V30 8225 C 808.532 -5.37492 -3.33595 0
M  V30 8226 C 807.196 -5.77782 -3.34251 0
M  V30 8227 H 806.466 -0.355469 -0.650171 0
M  V30 8228 H 809.113 -1.46902 -1.22849 0
M  V30 8229 H 807.418 -0.98955 -3.79098 0
M  V30 8230 H 809.115 -1.38003 -3.76505 0
M  V30 8231 H 805.705 -2.73589 -3.29919 0
M  V30 8232 H 809.889 -3.71656 -3.28916 0
M  V30 8233 H 805.145 -5.12927 -3.3274 0
M  V30 8234 H 809.319 -6.1166 -3.32934 0
M  V30 8235 H 806.946 -6.82702 -3.34397 0
M  V30 8236 N 808.521 1.23394 -0.980386 0
M  V30 8237 C 809.768 1.91809 -0.649261 0
M  V30 8238 C 810.096 1.765 0.817197 0
M  V30 8239 O 809.351 1.11979 1.60497 0
M  V30 8240 C 809.65 3.43542 -0.985588 0
M  V30 8241 C 809.316 3.79031 -2.44225 0
M  V30 8242 C 807.978 3.88429 -2.84035 0
M  V30 8243 C 810.33 3.96145 -3.38702 0
M  V30 8244 C 807.658 4.12368 -4.17336 0
M  V30 8245 C 810.01 4.21583 -4.71646 0
M  V30 8246 C 808.674 4.29203 -5.11215 0
M  V30 8247 H 807.944 0.70188 -0.237581 0
M  V30 8248 H 810.591 1.4642 -1.23424 0
M  V30 8249 H 808.896 3.90503 -0.318521 0
M  V30 8250 H 810.593 3.94708 -0.707596 0
M  V30 8251 H 807.183 3.7229 -2.12362 0
M  V30 8252 H 811.367 3.88274 -3.09123 0
M  V30 8253 H 806.623 4.1649 -4.47601 0
M  V30 8254 H 810.797 4.33769 -5.4481 0
M  V30 8255 H 808.424 4.47505 -6.14527 0
M  V30 8256 N 809.999 0.752036 1.385 0
M  V30 8257 C 810.946 0.123288 2.3047 0
M  V30 8258 C 811.916 -0.711326 1.50098 0
M  V30 8259 O 813.101 -0.667775 1.78733 0
M  V30 8260 C 810.241 -0.765085 3.36512 0
M  V30 8261 C 809.354 0.0839885 4.31918 0
M  V30 8262 C 808.489 -0.807243 5.25031 0
M  V30 8263 C 807.528 0.0455583 6.12083 0
M  V30 8264 N 806.665 -0.802547 6.97498 0
M  V30 8265 H 811.505 0.913169 2.83664 0
M  V30 8266 H 809.042 0.46195 1.39658 0
M  V30 8267 H 811 -1.29476 3.966 0
M  V30 8268 H 809.63 -1.52077 2.84732 0
M  V30 8269 H 808.682 0.731276 3.73305 0
M  V30 8270 H 809.994 0.74265 4.9324 0
M  V30 8271 H 809.148 -1.40414 5.90228 0
M  V30 8272 H 807.887 -1.49964 4.64071 0
M  V30 8273 H 806.892 0.655137 5.45883 0
M  V30 8274 H 808.117 0.734994 6.75111 0
M  V30 8275 H 806.063 -1.47992 6.39089 0
M  V30 8276 H 805.98 -0.200747 7.55733 0
M  V30 8277 H 807.248 -1.38447 7.67107 0
M  V30 8278 N 811.477 -1.49425 0.500989 0
M  V30 8279 C 812.723 -2.02753 -0.0436 0
M  V30 8280 C 813.056 -1.37991 -1.36646 0
M  V30 8281 O 812.331 -0.515597 -1.87542 0
M  V30 8282 C 812.614 -3.59565 -0.19616 0
M  V30 8283 C 812.467 -4.34855 1.14982 0
M  V30 8284 C 813.786 -4.30014 -0.936795 0
M  V30 8285 H 810.905 -0.73686 -0.0143711 0
M  V30 8286 H 813.547 -1.78448 0.652397 0
M  V30 8287 H 811.697 -3.80405 -0.788959 0
M  V30 8288 H 813.369 -4.25512 1.7815 0
M  V30 8289 H 811.612 -3.97414 1.73911 0
M  V30 8290 H 812.283 -5.42933 0.996385 0
M  V30 8291 H 814.759 -4.1383 -0.434036 0
M  V30 8292 H 813.635 -5.39483 -1.01238 0
M  V30 8293 H 813.896 -3.95257 -1.9805 0
M  V30 8294 N 812.955 -0.234822 -1.55841 0
M  V30 8295 C 814.366 0.270588 -1.84729 0
M  V30 8296 C 814.717 1.58494 -1.15646 0
M  V30 8297 O 813.842 2.12071 -0.430667 0
M  V30 8298 C 814.437 0.497733 -3.35124 0
M  V30 8299 C 812.996 0.947428 -3.64281 0
M  V30 8300 C 812.143 0.01787 -2.77294 0
M  V30 8301 H 815.094 -0.457691 -1.51957 0
M  V30 8302 H 815.115 1.34199 -3.56049 0
M  V30 8303 H 814.627 -0.459037 -3.85376 0
M  V30 8304 H 812.728 1.91709 -3.19497 0
M  V30 8305 H 812.841 0.812651 -4.72158 0
M  V30 8306 H 811.205 0.527071 -2.49187 0
M  V30 8307 H 811.988 -0.934056 -3.30349 0
M  V30 8308 N 814.433 1.57553 0.0384317 0
M  V30 8309 C 815.343 2.09333 1.0591 0
M  V30 8310 C 816.359 1.0299 1.40247 0
M  V30 8311 O 817.535 1.34669 1.49754 0
M  V30 8312 C 814.6 2.55468 2.34386 0
M  V30 8313 C 813.661 3.76254 2.06716 0
M  V30 8314 C 812.894 4.20179 3.29067 0
M  V30 8315 O 813.117 3.637 4.39407 0
M  V30 8316 O 812.051 5.12697 3.15317 0
M  V30 8317 H 815.877 2.96683 0.649087 0
M  V30 8318 H 813.462 1.47211 0.254802 0
M  V30 8319 H 815.344 2.85514 3.09935 0
M  V30 8320 H 814.019 1.71234 2.74701 0
M  V30 8321 H 812.926 3.51241 1.28766 0
M  V30 8322 H 814.259 4.61443 1.71263 0
M  V30 8323 N 815.911 -0.310526 1.54511 0
M  V30 8324 C 816.841 -1.38757 1.878 0
M  V30 8325 C 817.822 -1.53353 0.735991 0
M  V30 8326 O 819.007 -1.67018 0.990887 0
M  V30 8327 C 816.137 -2.75327 2.11689 0
M  V30 8328 C 815.091 -2.75506 3.27537 0
M  V30 8329 C 814.417 -4.15275 3.36824 0
M  V30 8330 C 815.717 -2.38093 4.64875 0
M  V30 8331 H 817.411 -1.11146 2.78005 0
M  V30 8332 H 814.957 -0.533232 1.33763 0
M  V30 8333 H 816.91 -3.50752 2.33562 0
M  V30 8334 H 815.634 -3.04443 1.18245 0
M  V30 8335 H 814.293 -2.02538 3.05572 0
M  V30 8336 H 813.941 -4.41553 2.40915 0
M  V30 8337 H 813.641 -4.16299 4.14692 0
M  V30 8338 H 815.165 -4.92493 3.60947 0
M  V30 8339 H 816.579 -3.03232 4.86542 0
M  V30 8340 H 814.976 -2.50345 5.45387 0
M  V30 8341 H 816.046 -1.33227 4.66239 0
M  V30 8342 N 817.389 -1.46805 -0.573248 0
M  V30 8343 C 818.619 -1.55965 -1.35494 0
M  V30 8344 C 819.027 -0.203038 -1.88107 0
M  V30 8345 O 818.37 0.81138 -1.6481 0
M  V30 8346 C 818.432 -2.51168 -2.57206 0
M  V30 8347 C 818.096 -3.97211 -2.25993 0
M  V30 8348 C 819.093 -4.86155 -1.84254 0
M  V30 8349 C 816.778 -4.42419 -2.37846 0
M  V30 8350 C 818.772 -6.18323 -1.54776 0
M  V30 8351 C 816.459 -5.74619 -2.0798 0
M  V30 8352 C 817.457 -6.62392 -1.66511 0
M  V30 8353 O 817.145 -7.92137 -1.37016 0
M  V30 8354 H 816.877 -0.529748 -0.419932 0
M  V30 8355 H 819.431 -1.92998 -0.702914 0
M  V30 8356 H 817.661 -2.09171 -3.25245 0
M  V30 8357 H 819.35 -2.50631 -3.19279 0
M  V30 8358 H 820.116 -4.52481 -1.74603 0
M  V30 8359 H 815.995 -3.74319 -2.69085 0
M  V30 8360 H 819.539 -6.8679 -1.22334 0
M  V30 8361 H 815.436 -6.0784 -2.17258 0
M  V30 8362 H 816.204 -8.04492 -1.50782 0
M  V30 8363 N 818.867 0.818669 -1.34668 0
M  V30 8364 C 819.777 1.9616 -1.2868 0
M  V30 8365 C 820.793 1.72918 -0.193742 0
M  V30 8366 O 821.969 1.96951 -0.420975 0
M  V30 8367 C 819.034 3.30534 -1.04633 0
M  V30 8368 C 818.095 3.66755 -2.23136 0
M  V30 8369 C 817.328 4.94717 -2.00227 0
M  V30 8370 O 817.551 5.62218 -0.96264 0
M  V30 8371 O 816.485 5.28915 -2.87286 0
M  V30 8372 H 820.311 2.04157 -2.24842 0
M  V30 8373 H 817.896 0.954691 -1.14917 0
M  V30 8374 H 819.778 4.11005 -0.930216 0
M  V30 8375 H 818.453 3.23495 -0.115139 0
M  V30 8376 H 817.36 2.8671 -2.40308 0
M  V30 8377 H 818.693 3.78484 -3.1466 0
M  V30 8378 N 820.346 1.18468 1.03938 0
M  V30 8379 C 821.595 0.975193 1.76558 0
M  V30 8380 C 821.908 -0.495978 1.89207 0
M  V30 8381 O 823.114 -0.824009 2.58694 0
M  V30 8382 C 821.57 1.69579 3.17444 0
M  V30 8383 C 821.178 3.20636 3.12884 0
M  V30 8384 C 822.922 1.56917 3.94433 0
M  V30 8385 C 820.829 3.8533 4.48636 0
M  V30 8386 H 819.759 0.361244 0.66183 0
M  V30 8387 H 822.41 1.41854 1.16403 0
M  V30 8388 H 820.792 1.18022 3.78004 0
M  V30 8389 H 821.966 3.79228 2.61768 0
M  V30 8390 H 820.281 3.33454 2.49394 0
M  V30 8391 H 822.878 2.02611 4.94826 0
M  V30 8392 H 823.221 0.521638 4.13019 0
M  V30 8393 H 823.754 2.05762 3.40451 0
M  V30 8394 H 820.493 4.90136 4.35255 0
M  V30 8395 H 820.013 3.31526 4.99851 0
M  V30 8396 H 821.692 3.88269 5.17549 0
M  V30 8397 N 821.824 -1.22873 0.986916 0
M  V30 8398 C 822.774 -2.2237 0.503547 0
M  V30 8399 C 823.758 -1.55186 -0.424998 0
M  V30 8400 O 824.95 -1.75186 -0.252791 0
M  V30 8401 C 822.079 -3.42794 -0.186355 0
M  V30 8402 C 821.165 -4.17196 0.762143 0
M  V30 8403 N 821.556 -4.68453 1.9075 0
M  V30 8404 C 819.854 -4.42255 0.576797 0
M  V30 8405 C 820.555 -5.25126 2.50235 0
M  V30 8406 N 819.531 -5.13437 1.7856 0
M  V30 8407 H 823.333 -2.59636 1.37718 0
M  V30 8408 H 820.847 -1.38476 0.848415 0
M  V30 8409 H 822.844 -4.13256 -0.549993 0
M  V30 8410 H 821.504 -3.07042 -1.05619 0
M  V30 8411 H 822.515 -4.64595 2.28848 0
M  V30 8412 H 819.192 -4.16766 -0.247474 0
M  V30 8413 H 820.582 -5.75363 3.46997 0
M  V30 8414 N 823.302 -0.75937 -1.38099 0
M  V30 8415 C 824.249 -0.135508 -2.30402 0
M  V30 8416 C 825.219 0.703356 -1.50473 0
M  V30 8417 O 826.404 0.658287 -1.79084 0
M  V30 8418 C 823.544 0.747228 -3.36913 0
M  V30 8419 C 822.657 -0.106893 -4.31868 0
M  V30 8420 C 821.792 0.779388 -5.25451 0
M  V30 8421 C 820.831 -0.0780179 -6.1205 0
M  V30 8422 N 819.968 0.765545 -6.97914 0
M  V30 8423 H 824.808 -0.9282 -2.83176 0
M  V30 8424 H 822.345 -0.46935 -1.39411 0
M  V30 8425 H 824.303 1.27371 -3.97281 0
M  V30 8426 H 822.933 1.50565 -2.85535 0
M  V30 8427 H 821.985 -0.751063 -3.72912 0
M  V30 8428 H 823.297 -0.768798 -4.9284 0
M  V30 8429 H 822.451 1.37282 -5.90964 0
M  V30 8430 H 821.19 1.47501 -4.6486 0
M  V30 8431 H 820.195 -0.684078 -5.45528 0
M  V30 8432 H 821.42 -0.770786 -6.74712 0
M  V30 8433 H 819.366 1.44601 -6.39864 0
M  V30 8434 H 819.283 0.160666 -7.55829 0
M  V30 8435 H 820.551 1.34377 -7.6783 0
M  V30 8436 N 824.78 1.49157 -0.508906 0
M  V30 8437 C 825.69 2.33045 0.269656 0
M  V30 8438 C 826.706 1.45143 0.959662 0
M  V30 8439 O 827.882 1.78155 0.939295 0
M  V30 8440 C 824.947 3.20772 1.31554 0
M  V30 8441 C 824.008 4.24531 0.638131 0
M  V30 8442 C 823.241 5.08065 1.63418 0
M  V30 8443 O 823.464 4.93238 2.86483 0
M  V30 8444 O 822.398 5.90117 1.18516 0
M  V30 8445 H 826.224 3.00821 -0.417183 0
M  V30 8446 H 823.809 1.46938 -0.270119 0
M  V30 8447 H 825.691 3.75095 1.92047 0
M  V30 8448 H 824.366 2.55681 1.98516 0
M  V30 8449 H 823.273 3.74099 -0.00674357 0
M  V30 8450 H 824.606 4.92199 0.0108155 0
M  V30 8451 N 826.258 0.243083 1.55714 0
M  V30 8452 C 827.505 -0.38272 1.9885 0
M  V30 8453 C 827.833 -1.58225 1.13115 0
M  V30 8454 O 827.088 -1.94861 0.181067 0
M  V30 8455 C 827.387 -0.839621 3.47398 0
M  V30 8456 C 827.053 0.251737 4.50197 0
M  V30 8457 C 825.715 0.551487 4.78029 0
M  V30 8458 C 828.067 0.988728 5.11736 0
M  V30 8459 C 825.395 1.59237 5.64677 0
M  V30 8460 C 827.747 2.0191 5.99512 0
M  V30 8461 C 826.411 2.32554 6.2568 0
M  V30 8462 H 825.681 -0.140047 0.727645 0
M  V30 8463 H 828.328 0.35011 1.88272 0
M  V30 8464 H 826.633 -1.65159 3.55288 0
M  V30 8465 H 828.33 -1.33404 3.78159 0
M  V30 8466 H 824.92 0.00796741 4.28599 0
M  V30 8467 H 829.104 0.7704 4.90284 0
M  V30 8468 H 824.36 1.83517 5.83208 0
M  V30 8469 H 828.534 2.59511 6.46241 0
M  V30 8470 H 826.161 3.13349 6.92616 0
M  V30 8471 N 827.736 -1.57571 -0.0300757 0
M  V30 8472 C 828.966 -1.93204 -0.731828 0
M  V30 8473 C 829.374 -0.841156 -1.69473 0
M  V30 8474 O 828.717 0.191231 -1.82702 0
M  V30 8475 C 828.779 -3.2463 -1.54453 0
M  V30 8476 C 828.443 -4.50862 -0.746507 0
M  V30 8477 C 829.44 -5.19879 -0.0472309 0
M  V30 8478 C 827.125 -4.9738 -0.701347 0
M  V30 8479 C 829.119 -6.33692 0.686518 0
M  V30 8480 C 826.806 -6.11089 0.036148 0
M  V30 8481 C 827.804 -6.791 0.728841 0
M  V30 8482 O 827.492 -7.90635 1.45436 0
M  V30 8483 H 827.224 -0.6423 -0.210775 0
M  V30 8484 H 829.778 -2.05398 0.00804194 0
M  V30 8485 H 828.008 -3.0876 -2.32818 0
M  V30 8486 H 829.697 -3.45597 -2.1288 0
M  V30 8487 H 830.463 -4.84945 -0.0731582 0
M  V30 8488 H 826.342 -4.44288 -1.23001 0
M  V30 8489 H 829.886 -6.86711 1.22773 0
M  V30 8490 H 825.783 -6.45468 0.064002 0
M  V30 8491 H 826.551 -8.06988 1.36794 0
M  V30 8492 N 829.214 0.302327 -1.54673 0
M  V30 8493 C 830.491 1.05721 -1.64567 0
M  V30 8494 C 830.871 2.0526 -0.493108 0
M  V30 8495 O 830.219 2.22729 0.510315 0
M  V30 8496 C 830.429 1.74025 -3.02517 0
M  V30 8497 C 831.777 2.26271 -3.59286 0
M  V30 8498 O 832.801 1.8406 -3.0496 0
M  V30 8499 O 831.66 3.0361 -4.54404 0
M  V30 8500 H 828.754 0.488577 -0.667249 0
M  V30 8501 H 831.3 0.300521 -1.67018 0
M  V30 8502 H 830.072 1.0174 -3.77842 0
M  V30 8503 H 829.695 2.56454 -3.03838 0
M  V30 8504 N 830.692 1.47107 0.565454 0
M  V30 8505 C 831.94 1.53005 1.32038 0
M  V30 8506 C 832.261 0.190453 1.94068 0
M  V30 8507 O 831.531 -0.784783 1.79494 0
M  V30 8508 H 830.111 0.563578 0.490294 0
M  V30 8509 H 832.773 1.83351 0.660928 0
M  V30 8510 H 831.869 2.29215 2.11818 0
M  V30 8511 N 832.17 -0.811516 1.35101 0
M  V30 8512 C 833.1 -1.9378 1.30275 0
M  V30 8513 C 834.081 -1.69165 0.178075 0
M  V30 8514 O 835.266 -1.90599 0.372256 0
M  V30 8515 C 832.396 -3.30439 1.06899 0
M  V30 8516 C 831.35 -3.69523 2.15955 0
M  V30 8517 C 830.676 -5.0429 1.77751 0
M  V30 8518 C 831.976 -3.80419 3.57881 0
M  V30 8519 H 833.67 -1.98075 2.24514 0
M  V30 8520 H 831.216 -0.951586 1.08078 0
M  V30 8521 H 833.169 -4.08828 1.02164 0
M  V30 8522 H 831.893 -3.26473 0.0910462 0
M  V30 8523 H 830.552 -2.93416 2.19778 0
M  V30 8524 H 830.2 -4.96823 0.785876 0
M  V30 8525 H 829.9 -5.31411 2.5075 0
M  V30 8526 H 831.424 -5.85125 1.74533 0
M  V30 8527 H 832.838 -4.49051 3.56407 0
M  V30 8528 H 831.235 -4.19005 4.29598 0
M  V30 8529 H 832.305 -2.82105 3.94391 0
M  V30 8530 N 833.648 -1.19017 -1.03309 0
M  V30 8531 C 834.895 -0.990214 -1.76638 0
M  V30 8532 C 835.223 0.479435 -1.88498 0
M  V30 8533 O 834.478 1.37223 -1.39529 0
M  V30 8534 C 834.777 -1.59927 -3.19622 0
M  V30 8535 C 834.443 -3.09632 -3.27779 0
M  V30 8536 C 833.105 -3.50491 -3.29712 0
M  V30 8537 C 835.457 -4.05644 -3.27264 0
M  V30 8538 C 832.785 -4.85921 -3.28782 0
M  V30 8539 C 835.137 -5.41 -3.27875 0
M  V30 8540 C 833.801 -5.81295 -3.28104 0
M  V30 8541 H 833.071 -0.362345 -0.646364 0
M  V30 8542 H 835.718 -1.48197 -1.21284 0
M  V30 8543 H 834.023 -1.0297 -3.78027 0
M  V30 8544 H 835.72 -1.41989 -3.7502 0
M  V30 8545 H 832.31 -2.77073 -3.26999 0
M  V30 8546 H 836.494 -3.75124 -3.24955 0
M  V30 8547 H 831.75 -5.16427 -3.27281 0
M  V30 8548 H 835.924 -6.15157 -3.26428 0
M  V30 8549 H 833.551 -6.86211 -3.27138 0
M  V30 8550 N 835.127 1.22348 -0.993418 0
M  V30 8551 C 836.538 1.72893 -0.704616 0
M  V30 8552 C 836.889 1.80095 0.778483 0
M  V30 8553 O 836.014 1.4476 1.60853 0
M  V30 8554 C 836.609 3.14 -1.27237 0
M  V30 8555 C 835.168 3.61949 -1.03294 0
M  V30 8556 C 834.315 2.39816 -1.39225 0
M  V30 8557 H 837.266 1.07688 -1.16572 0
M  V30 8558 H 837.287 3.74886 -0.651212 0
M  V30 8559 H 836.799 3.08727 -2.3518 0
M  V30 8560 H 834.9 3.72588 0.0298329 0
M  V30 8561 H 835.013 4.48051 -1.69668 0
M  V30 8562 H 833.377 2.41448 -0.810849 0
M  V30 8563 H 834.16 2.37203 -2.48172 0
M  V30 8564 N 836.605 0.766683 1.37694 0
M  V30 8565 C 838.021 0.445739 1.53249 0
M  V30 8566 C 838.221 -1.03935 1.72626 0
M  V30 8567 O 837.277 -1.82525 1.74473 0
M  V30 8568 C 838.59 1.2564 2.73194 0
M  V30 8569 C 840.138 1.24779 2.87053 0
M  V30 8570 C 840.613 2.04169 4.09974 0
M  V30 8571 N 842.104 2.01497 4.17077 0
M  V30 8572 C 842.839 2.5971 5.11212 0
M  V30 8573 N 842.335 3.26691 6.10938 0
M  V30 8574 N 844.128 2.49568 5.03659 0
M  V30 8575 H 836.279 1.72899 1.23368 0
M  V30 8576 H 838.542 0.733701 0.600322 0
M  V30 8577 H 838.248 2.30859 2.65324 0
M  V30 8578 H 838.122 0.882133 3.6674 0
M  V30 8579 H 840.509 0.203603 2.94397 0
M  V30 8580 H 840.59 1.66166 1.9448 0
M  V30 8581 H 840.234 3.08606 4.03392 0
M  V30 8582 H 840.164 1.60167 5.01651 0
M  V30 8583 H 842.655 1.52728 3.45662 0
M  V30 8584 H 842.968 3.68497 6.79286 0
M  V30 8585 H 841.313 3.30789 6.11231 0
M  V30 8586 H 844.504 1.96859 4.24693 0
M  V30 8587 H 844.677 2.95231 5.76839 0
M  V30 8588 N 838.083 -1.48885 0.516809 0
M  V30 8589 C 839.329 -2.02788 -0.0220928 0
M  V30 8590 C 839.662 -1.39433 -1.35175 0
M  V30 8591 O 838.937 -0.535459 -1.86984 0
M  V30 8592 C 839.22 -3.59753 -0.158012 0
M  V30 8593 C 839.073 -4.33611 1.19588 0
M  V30 8594 C 840.392 -4.30984 -0.891133 0
M  V30 8595 H 837.511 -0.736971 -0.00655488 0
M  V30 8596 H 840.153 -1.77746 0.671287 0
M  V30 8597 H 838.303 -3.8122 -0.748568 0
M  V30 8598 H 839.975 -4.23598 1.82653 0
M  V30 8599 H 838.218 -3.95547 1.78116 0
M  V30 8600 H 838.889 -5.41846 1.05391 0
M  V30 8601 H 841.365 -4.14267 -0.39012 0
M  V30 8602 H 840.241 -5.40527 -0.955107 0
M  V30 8603 H 840.502 -3.97336 -1.93847 0
M  V30 8604 N 839.561 -0.251338 -1.55583 0
M  V30 8605 C 840.493 0.679167 -2.18906 0
M  V30 8606 C 841.506 1.13545 -1.16667 0
M  V30 8607 O 842.695 1.06146 -1.4351 0
M  V30 8608 C 839.795 1.93544 -2.78198 0
M  V30 8609 C 838.968 1.62987 -4.05899 0
M  V30 8610 C 838.027 2.73618 -4.49466 0
M  V30 8611 O 837.053 2.40815 -5.15749 0
M  V30 8612 N 838.255 4.03204 -4.1762 0
M  V30 8613 H 841.02 0.137328 -2.99385 0
M  V30 8614 H 838.581 -0.0714754 -1.61742 0
M  V30 8615 H 840.573 2.66804 -3.04299 0
M  V30 8616 H 839.143 2.38695 -2.0185 0
M  V30 8617 H 838.363 0.732237 -3.8734 0
M  V30 8618 H 839.651 1.40041 -4.89148 0
M  V30 8619 H 839.049 4.32686 -3.64416 0
M  V30 8620 H 837.606 4.72916 -4.48547 0
M  V30 8621 N 841.039 1.57585 0.0217189 0
M  V30 8622 C 841.971 2.03849 1.04777 0
M  V30 8623 C 842.984 0.952558 1.32023 0
M  V30 8624 O 844.173 1.22974 1.29381 0
M  V30 8625 C 841.273 2.40504 2.3877 0
M  V30 8626 C 840.446 3.71566 2.30775 0
M  V30 8627 C 839.505 3.95329 3.47277 0
M  V30 8628 O 838.531 4.66289 3.26441 0
M  V30 8629 N 839.733 3.41536 4.69397 0
M  V30 8630 H 842.498 2.92491 0.653395 0
M  V30 8631 H 840.059 1.60538 0.209527 0
M  V30 8632 H 842.051 2.53532 3.15442 0
M  V30 8633 H 840.621 1.57494 2.70027 0
M  V30 8634 H 839.841 3.68822 1.39155 0
M  V30 8635 H 841.129 4.5753 2.22584 0
M  V30 8636 H 840.527 2.84033 4.89226 0
M  V30 8637 H 839.084 3.59932 5.43408 0
M  V30 8638 N 842.517 -0.29412 1.54831 0
M  V30 8639 C 843.763 -1.02602 1.75626 0
M  V30 8640 C 844.118 -1.84689 0.539232 0
M  V30 8641 O 843.411 -1.85788 -0.468322 0
M  V30 8642 C 843.605 -1.95782 2.99006 0
M  V30 8643 C 843.434 -1.22861 4.32591 0
M  V30 8644 C 842.204 -0.95294 4.96233 0
M  V30 8645 C 844.402 -0.629592 5.10432 0
M  V30 8646 N 842.384 -0.194728 6.13591 0
M  V30 8647 C 843.755 -0.00449586 6.2 0
M  V30 8648 C 845.81 -0.535327 4.95014 0
M  V30 8649 C 844.513 0.705754 7.15829 0
M  V30 8650 C 846.539 0.161284 5.9118 0
M  V30 8651 C 845.901 0.775203 7.00121 0
M  V30 8652 H 842 -0.358143 0.695167 0
M  V30 8653 H 844.584 -0.303896 1.92314 0
M  V30 8654 H 842.755 -2.65238 2.83731 0
M  V30 8655 H 844.487 -2.62175 3.08296 0
M  V30 8656 H 841.242 -1.25285 4.56728 0
M  V30 8657 H 841.666 0.171093 6.76784 0
M  V30 8658 H 846.308 -0.995662 4.10909 0
M  V30 8659 H 844.026 1.17784 7.9947 0
M  V30 8660 H 847.612 0.234256 5.81328 0
M  V30 8661 H 846.492 1.30566 7.73254 0
M  V30 8662 N 843.995 -1.47404 -0.557645 0
M  V30 8663 C 845.22 -1.57868 -1.34508 0
M  V30 8664 C 845.645 -0.229151 -1.86699 0
M  V30 8665 O 845.003 0.794908 -1.62944 0
M  V30 8666 C 845.051 -2.60712 -2.49122 0
M  V30 8667 O 844.155 -2.15952 -3.51338 0
M  V30 8668 H 843.496 -0.530335 -0.399551 0
M  V30 8669 H 846.026 -1.93181 -0.673954 0
M  V30 8670 H 846.036 -2.81118 -2.95697 0
M  V30 8671 H 844.711 -3.58701 -2.10491 0
M  V30 8672 H 843.288 -2.05644 -3.11071 0
M  V30 8673 N 845.473 0.80434 -1.35529 0
M  V30 8674 C 846.423 1.90565 -1.25175 0
M  V30 8675 C 847.407 1.60232 -0.146512 0
M  V30 8676 O 848.599 1.72918 -0.377943 0
M  V30 8677 C 845.728 3.2754 -1.02823 0
M  V30 8678 C 844.814 3.63932 -2.17748 0
M  V30 8679 N 845.205 3.71744 -3.42986 0
M  V30 8680 C 843.503 3.93901 -2.09184 0
M  V30 8681 C 844.204 4.03944 -4.18574 0
M  V30 8682 N 843.18 4.18146 -3.47355 0
M  V30 8683 H 846.982 1.9481 -2.20059 0
M  V30 8684 H 844.496 0.99905 -1.28034 0
M  V30 8685 H 846.493 4.06281 -0.934941 0
M  V30 8686 H 845.153 3.2458 -0.0882551 0
M  V30 8687 H 846.164 3.54765 -3.77309 0
M  V30 8688 H 842.841 3.98954 -1.23054 0
M  V30 8689 H 844.231 4.17036 -5.26811 0
M  V30 8690 N 846.951 1.19563 1.02676 0
M  V30 8691 C 847.883 0.893054 2.11086 0
M  V30 8692 C 848.896 -0.115101 1.62393 0
M  V30 8693 O 850.085 0.11459 1.78132 0
M  V30 8694 C 847.185 0.315533 3.37428 0
M  V30 8695 C 846.358 1.37276 4.153 0
M  V30 8696 C 845.417 0.808398 5.19953 0
M  V30 8697 O 844.443 1.48661 5.49444 0
M  V30 8698 N 845.645 -0.387253 5.79207 0
M  V30 8699 H 848.41 1.82622 2.37633 0
M  V30 8700 H 845.971 1.09792 1.18984 0
M  V30 8701 H 847.963 -0.0759166 4.04629 0
M  V30 8702 H 846.533 -0.521961 3.08211 0
M  V30 8703 H 845.753 1.93897 3.43217 0
M  V30 8704 H 847.041 2.08509 4.64114 0
M  V30 8705 H 846.439 -0.955725 5.57568 0
M  V30 8706 H 844.996 -0.720457 6.47806 0
M  V30 8707 N 848.429 -1.21819 0.999893 0
M  V30 8708 C 849.361 -2.23356 0.514256 0
M  V30 8709 C 850.374 -1.5795 -0.394413 0
M  V30 8710 O 851.563 -1.77427 -0.195428 0
M  V30 8711 C 848.663 -3.37797 -0.273207 0
M  V30 8712 C 847.836 -4.32791 0.633293 0
M  V30 8713 C 846.895 -5.26098 -0.103673 0
M  V30 8714 O 845.921 -5.66881 0.513269 0
M  V30 8715 N 847.123 -5.63764 -1.38383 0
M  V30 8716 H 849.888 -2.65653 1.3874 0
M  V30 8717 H 847.449 -1.3619 0.875431 0
M  V30 8718 H 849.441 -3.97209 -0.775053 0
M  V30 8719 H 848.011 -2.94527 -1.0475 0
M  V30 8720 H 847.231 -3.71595 1.31571 0
M  V30 8721 H 848.519 -4.93196 1.25039 0
M  V30 8722 H 847.917 -5.32614 -1.90627 0
M  V30 8723 H 846.474 -6.25562 -1.83073 0
M  V30 8724 N 849.908 -0.773975 -1.37286 0
M  V30 8725 C 851.324 -0.45386 -1.53011 0
M  V30 8726 C 851.524 1.03018 -1.73175 0
M  V30 8727 O 850.58 1.81597 -1.75438 0
M  V30 8728 C 851.893 -1.27087 -2.72524 0
M  V30 8729 C 853.441 -1.26299 -2.86387 0
M  V30 8730 C 853.916 -2.0634 -4.08886 0
M  V30 8731 N 855.407 -2.03706 -4.16003 0
M  V30 8732 C 856.142 -2.62418 -5.09828 0
M  V30 8733 N 855.638 -3.29926 -6.09197 0
M  V30 8734 N 857.431 -2.52236 -5.02328 0
M  V30 8735 H 849.582 -1.73551 -1.22449 0
M  V30 8736 H 851.845 -0.736874 -0.596423 0
M  V30 8737 H 851.551 -2.32263 -2.64096 0
M  V30 8738 H 851.425 -0.90157 -3.66267 0
M  V30 8739 H 853.812 -0.219213 -2.94285 0
M  V30 8740 H 853.893 -1.67195 -1.93596 0
M  V30 8741 H 853.537 -3.10741 -4.01749 0
M  V30 8742 H 853.467 -1.62825 -5.00795 0
M  V30 8743 H 855.958 -1.54559 -3.44848 0
M  V30 8744 H 856.271 -3.72095 -6.77322 0
M  V30 8745 H 854.616 -3.34026 -6.09469 0
M  V30 8746 H 857.807 -1.99108 -4.23643 0
M  V30 8747 H 857.98 -2.98286 -5.75265 0
M  V30 8748 N 851.386 1.48609 -0.524698 0
M  V30 8749 C 852.632 2.02797 0.0113382 0
M  V30 8750 C 852.965 1.40147 1.34433 0
M  V30 8751 O 852.24 0.545368 1.86698 0
M  V30 8752 C 852.523 3.59832 0.138931 0
M  V30 8753 C 852.376 4.32971 -1.21886 0
M  V30 8754 C 853.695 4.3145 0.868265 0
M  V30 8755 H 850.814 0.736995 0.00264645 0
M  V30 8756 H 853.456 1.77388 -0.680704 0
M  V30 8757 H 851.606 3.81612 0.72834 0
M  V30 8758 H 853.278 4.22624 -1.84897 0
M  V30 8759 H 851.521 3.94597 -1.80211 0
M  V30 8760 H 852.192 5.41279 -1.08263 0
M  V30 8761 H 854.668 4.14468 0.368145 0
M  V30 8762 H 853.544 5.41025 0.926428 0
M  V30 8763 H 853.805 3.98358 1.91737 0
M  V30 8764 N 852.864 0.259585 1.55447 0
M  V30 8765 C 854.112 -0.360893 1.98852 0
M  V30 8766 C 854.433 -1.57535 1.14924 0
M  V30 8767 O 853.703 -1.94485 0.235025 0
M  V30 8768 H 852.283 -0.136332 0.734454 0
M  V30 8769 H 854.945 0.361319 1.91522 0
M  V30 8770 H 854.041 -0.661388 3.05012 0
M  V30 8771 N 854.342 -1.57594 -0.0133615 0
M  V30 8772 C 855.619 -1.81173 -0.737273 0
M  V30 8773 C 855.999 -0.861395 -1.92726 0
M  V30 8774 O 855.347 0.0929324 -2.28311 0
M  V30 8775 C 855.557 -3.29314 -1.15557 0
M  V30 8776 C 856.905 -3.94707 -1.56498 0
M  V30 8777 O 857.929 -3.33557 -1.24973 0
M  V30 8778 O 856.788 -5.02402 -2.15069 0
M  V30 8779 H 853.882 -0.745575 -0.357837 0
M  V30 8780 H 856.428 -1.69696 0.0110674 0
M  V30 8781 H 855.2 -3.90096 -0.30677 0
M  V30 8782 H 854.823 -3.45739 -1.96343 0
M  V30 8783 N 855.82 0.285905 -1.54985 0
M  V30 8784 C 856.75 1.35752 -1.89983 0
M  V30 8785 C 857.731 1.52163 -0.760295 0
M  V30 8786 O 858.916 1.65421 -1.01733 0
M  V30 8787 C 856.046 2.71925 -2.16042 0
M  V30 8788 C 855 2.70261 -3.31878 0
M  V30 8789 C 854.326 4.09864 -3.43388 0
M  V30 8790 C 855.626 2.30667 -4.68604 0
M  V30 8791 H 857.32 1.06709 -2.79738 0
M  V30 8792 H 854.866 0.511884 -1.34595 0
M  V30 8793 H 856.819 3.46992 -2.39113 0
M  V30 8794 H 855.543 3.02523 -1.23074 0
M  V30 8795 H 854.202 1.97651 -3.08755 0
M  V30 8796 H 853.85 4.37664 -2.47909 0
M  V30 8797 H 853.55 4.09648 -4.21262 0
M  V30 8798 H 855.074 4.86689 -3.68736 0
M  V30 8799 H 856.488 2.95453 -4.91305 0
M  V30 8800 H 854.885 2.41637 -5.49301 0
M  V30 8801 H 855.955 1.25793 -4.68299 0
M  V30 8802 N 857.298 1.47698 0.54982 0
M  V30 8803 C 858.545 1.54702 1.30665 0
M  V30 8804 C 858.873 0.212418 1.93337 0
M  V30 8805 O 858.128 -0.79543 1.78805 0
M  V30 8806 C 858.427 2.61903 2.4319 0
M  V30 8807 C 858.093 4.04953 1.98302 0
M  V30 8808 C 856.755 4.43893 1.85776 0
M  V30 8809 C 859.107 4.94682 1.64133 0
M  V30 8810 C 856.435 5.70387 1.37388 0
M  V30 8811 C 858.787 6.21646 1.17214 0
M  V30 8812 C 857.451 6.5946 1.0329 0
M  V30 8813 H 856.721 0.566096 0.478139 0
M  V30 8814 H 859.368 1.8133 0.615767 0
M  V30 8815 H 857.673 2.2906 3.17866 0
M  V30 8816 H 859.37 2.64543 3.0136 0
M  V30 8817 H 855.96 3.74191 2.08995 0
M  V30 8818 H 860.144 4.65291 1.72679 0
M  V30 8819 H 855.4 5.98427 1.25278 0
M  V30 8820 H 859.574 6.90581 0.898391 0
M  V30 8821 H 857.201 7.57367 0.655735 0
M  V30 8822 N 858.776 -0.797141 1.35954 0
M  V30 8823 C 859.708 -1.91782 1.25509 0
M  V30 8824 C 860.721 -1.61843 0.176271 0
M  V30 8825 O 861.91 -1.73235 0.430343 0
M  V30 8826 C 859.01 -3.26396 0.912073 0
M  V30 8827 C 858.183 -3.84171 2.0912 0
M  V30 8828 C 857.242 -4.9721 1.72246 0
M  V30 8829 O 856.268 -5.14136 2.44239 0
M  V30 8830 N 857.47 -5.76831 0.651611 0
M  V30 8831 H 860.235 -2.01266 2.22063 0
M  V30 8832 H 857.796 -0.975033 1.29247 0
M  V30 8833 H 859.788 -3.99499 0.646707 0
M  V30 8834 H 858.358 -3.12579 0.0359079 0
M  V30 8835 H 857.578 -3.03148 2.51982 0
M  V30 8836 H 858.866 -4.19503 2.87914 0
M  V30 8837 H 858.264 -5.65675 0.0536678 0
M  V30 8838 H 856.821 -6.50272 0.44605 0
M  V30 8839 N 860.254 -1.20106 -1.0204 0
M  V30 8840 C 861.201 -0.946468 -2.10501 0
M  V30 8841 C 862.171 0.121902 -1.65652 0
M  V30 8842 O 863.356 -0.0220244 -1.90787 0
M  V30 8843 C 860.496 -0.500499 -3.41451 0
M  V30 8844 C 859.609 -1.63659 -3.998 0
M  V30 8845 C 858.744 -1.14131 -5.18794 0
M  V30 8846 C 857.783 -2.25074 -5.69217 0
M  V30 8847 N 856.92 -1.76791 -6.79477 0
M  V30 8848 H 861.76 -1.87506 -2.31615 0
M  V30 8849 H 859.297 -0.934693 -1.13587 0
M  V30 8850 H 861.255 -0.223276 -4.16602 0
M  V30 8851 H 859.885 0.391099 -3.20422 0
M  V30 8852 H 858.937 -2.02882 -3.21781 0
M  V30 8853 H 860.249 -2.47213 -4.33229 0
M  V30 8854 H 859.403 -0.819826 -6.01135 0
M  V30 8855 H 858.142 -0.275615 -4.86921 0
M  V30 8856 H 857.147 -2.58043 -4.85483 0
M  V30 8857 H 858.372 -3.12114 -6.03127 0
M  V30 8858 H 856.318 -0.925428 -6.4944 0
M  V30 8859 H 856.235 -2.53928 -7.12079 0
M  V30 8860 H 857.503 -1.47631 -7.65392 0
M  V30 8861 N 861.732 1.21287 -1.00634 0
M  V30 8862 C 862.662 2.25973 -0.588089 0
M  V30 8863 C 863.643 1.65527 0.391764 0
M  V30 8864 O 864.828 1.92179 0.279452 0
M  V30 8865 C 861.958 3.47197 0.0847336 0
M  V30 8866 C 860.912 4.20168 -0.815039 0
M  V30 8867 C 860.238 5.34699 -0.00855393 0
M  V30 8868 C 861.538 4.77416 -2.11828 0
M  V30 8869 H 863.232 2.61212 -1.46317 0
M  V30 8870 H 860.778 1.25563 -0.704985 0
M  V30 8871 H 862.731 4.19602 0.388821 0
M  V30 8872 H 861.455 3.11092 0.994456 0
M  V30 8873 H 860.114 3.49614 -1.10297 0
M  V30 8874 H 859.762 4.94837 0.902499 0
M  V30 8875 H 859.462 5.84449 -0.607664 0
M  V30 8876 H 860.986 6.09914 0.289317 0
M  V30 8877 H 862.4 5.41694 -1.87725 0
M  V30 8878 H 860.797 5.37561 -2.66736 0
M  V30 8879 H 861.867 3.96724 -2.78816 0
M  V30 8880 N 863.21 0.781244 1.36873 0
M  V30 8881 C 864.173 0.180094 2.28491 0
M  V30 8882 C 865.173 -0.617798 1.48458 0
M  V30 8883 O 866.363 -0.439991 1.68552 0
M  V30 8884 C 863.495 -0.751741 3.32508 0
M  V30 8885 H 864.688 0.987837 2.83164 0
M  V30 8886 H 862.241 0.550102 1.463 0
M  V30 8887 H 862.976 -1.58413 2.82977 0
M  V30 8888 H 862.761 -0.181649 3.91679 0
M  V30 8889 H 864.251 -1.16748 4.00949 0
M  V30 8890 N 864.689 -1.48329 0.532571 0
M  V30 8891 C 865.914 -2.074 0.00147755 0
M  V30 8892 C 866.339 -1.38615 -1.27151 0
M  V30 8893 O 865.697 -0.452949 -1.75551 0
M  V30 8894 C 865.745 -3.60029 -0.202866 0
M  V30 8895 O 864.849 -3.92327 -1.27097 0
M  V30 8896 H 864.19 -0.662777 0.0402883 0
M  V30 8897 H 866.72 -1.90701 0.741224 0
M  V30 8898 H 866.73 -4.05783 -0.424722 0
M  V30 8899 H 865.405 -4.09496 0.727033 0
M  V30 8900 H 863.982 -3.58348 -1.03156 0
M  V30 8901 N 866.167 -0.267825 -1.55308 0
M  V30 8902 C 867.099 0.65591 -2.19614 0
M  V30 8903 C 868.112 1.12302 -1.17865 0
M  V30 8904 O 869.301 1.04618 -1.44628 0
M  V30 8905 C 866.401 1.90582 -2.80235 0
M  V30 8906 C 865.574 1.58673 -4.07605 0
M  V30 8907 C 864.633 2.68836 -4.52343 0
M  V30 8908 O 863.659 2.35331 -5.18274 0
M  V30 8909 N 864.861 3.98752 -4.21873 0
M  V30 8910 H 867.626 0.105566 -2.99514 0
M  V30 8911 H 865.187 -0.0886263 -1.61657 0
M  V30 8912 H 867.179 2.63561 -3.07112 0
M  V30 8913 H 865.749 2.3654 -2.04371 0
M  V30 8914 H 864.969 0.691113 -3.88094 0
M  V30 8915 H 866.257 1.34845 -4.90606 0
M  V30 8916 H 865.655 4.28797 -3.68985 0
M  V30 8917 H 864.212 4.68131 -4.53537 0
M  V30 8918 N 867.645 1.57599 0.00500368 0
M  V30 8919 C 868.575 2.11143 0.99705 0
M  V30 8920 C 869.556 1.0194 1.3617 0
M  V30 8921 O 870.741 1.29596 1.44632 0
M  V30 8922 C 867.871 2.61062 2.2905 0
M  V30 8923 C 866.825 3.74745 2.0676 0
M  V30 8924 C 866.151 4.10961 3.42075 0
M  V30 8925 C 867.451 5.02222 1.43424 0
M  V30 8926 H 869.145 2.94281 0.551251 0
M  V30 8927 H 866.691 1.41565 0.263715 0
M  V30 8928 H 868.644 2.97146 2.98801 0
M  V30 8929 H 867.368 1.75038 2.75734 0
M  V30 8930 H 866.027 3.39047 1.39436 0
M  V30 8931 H 865.675 3.21968 3.86453 0
M  V30 8932 H 865.375 4.87549 3.27979 0
M  V30 8933 H 866.899 4.49599 4.1315 0
M  V30 8934 H 868.313 5.36109 2.03125 0
M  V30 8935 H 866.71 5.83581 1.39831 0
M  V30 8936 H 867.78 4.83224 0.40285 0
M  V30 8937 N 869.123 -0.277682 1.55134 0
M  V30 8938 C 870.371 -1.00791 1.75173 0
M  V30 8939 C 870.692 -1.86987 0.553266 0
M  V30 8940 O 869.962 -1.91079 -0.43195 0
M  V30 8941 H 868.542 -0.375129 0.645978 0
M  V30 8942 H 871.204 -0.303041 1.9253 0
M  V30 8943 H 870.3 -1.64756 2.6507 0
M  V30 8944 N 870.601 -1.47988 -0.541979 0
M  V30 8945 C 871.847 -1.55623 -1.30036 0
M  V30 8946 C 872.18 -0.224254 -1.92901 0
M  V30 8947 O 871.455 0.768629 -1.78668 0
M  V30 8948 C 871.738 -2.68562 -2.39888 0
M  V30 8949 C 871.591 -4.11426 -1.81792 0
M  V30 8950 C 872.91 -2.77325 -3.41729 0
M  V30 8951 H 870.029 -0.566498 -0.471433 0
M  V30 8952 H 872.671 -1.8011 -0.604998 0
M  V30 8953 H 870.821 -2.47814 -2.992 0
M  V30 8954 H 872.493 -4.43581 -1.26624 0
M  V30 8955 H 870.736 -4.18989 -1.12386 0
M  V30 8956 H 871.407 -4.8625 -2.61276 0
M  V30 8957 H 873.883 -2.96085 -2.92357 0
M  V30 8958 H 872.759 -3.58097 -4.16002 0
M  V30 8959 H 873.02 -1.84995 -4.01534 0
M  V30 8960 N 872.079 0.78992 -1.36375 0
M  V30 8961 C 873.309 1.57644 -1.33536 0
M  V30 8962 C 873.717 1.89007 0.0855075 0
M  V30 8963 O 873.06 1.50547 1.05267 0
M  V30 8964 C 873.122 2.92424 -2.09113 0
M  V30 8965 C 872.786 2.83793 -3.58205 0
M  V30 8966 C 873.783 2.56072 -4.52464 0
M  V30 8967 C 871.468 3.02386 -4.01084 0
M  V30 8968 C 873.462 2.47044 -5.87578 0
M  V30 8969 C 871.149 2.9298 -5.36289 0
M  V30 8970 C 872.147 2.65347 -6.29349 0
M  V30 8971 O 871.835 2.55935 -7.62071 0
M  V30 8972 H 871.567 0.495639 -0.459694 0
M  V30 8973 H 874.121 0.988354 -1.80058 0
M  V30 8974 H 872.351 3.53282 -1.57254 0
M  V30 8975 H 874.04 3.53693 -1.99139 0
M  V30 8976 H 874.806 2.4141 -4.2065 0
M  V30 8977 H 870.685 3.229 -3.29023 0
M  V30 8978 H 874.229 2.25396 -6.60184 0
M  V30 8979 H 870.126 3.07204 -5.67711 0
M  V30 8980 H 870.894 2.7142 -7.72187 0
M  V30 8981 N 873.557 1.20646 1.01402 0
M  V30 8982 C 874.973 0.961866 1.27359 0
M  V30 8983 C 875.173 -0.357083 1.98311 0
M  V30 8984 O 874.229 -1.08498 2.28001 0
M  V30 8985 C 875.542 2.14627 2.10609 0
M  V30 8986 C 877.09 2.18753 2.23866 0
M  V30 8987 C 877.565 3.36686 3.10494 0
M  V30 8988 N 879.056 3.36716 3.18083 0
M  V30 8989 C 879.791 4.24615 3.85343 0
M  V30 8990 N 879.287 5.22697 4.54708 0
M  V30 8991 N 881.08 4.12449 3.81893 0
M  V30 8992 H 873.231 2.05481 0.537721 0
M  V30 8993 H 875.494 0.899292 0.299963 0
M  V30 8994 H 875.2 3.10159 1.65814 0
M  V30 8995 H 875.074 2.12935 3.11349 0
M  V30 8996 H 877.461 1.23782 2.67885 0
M  V30 8997 H 877.542 2.24492 1.22626 0
M  V30 8998 H 877.186 4.31945 2.67181 0
M  V30 8999 H 877.116 3.28185 4.11828 0
M  V30 9000 H 879.607 2.65728 2.68695 0
M  V30 9001 H 879.92 5.86087 5.03708 0
M  V30 9002 H 878.265 5.26631 4.53525 0
M  V30 9003 H 881.456 3.35091 3.26851 0
M  V30 9004 H 881.629 4.81162 4.34035 0
M  V30 9005 N 875.035 -1.20752 1.01276 0
M  V30 9006 C 875.998 -2.2162 0.584583 0
M  V30 9007 C 876.998 -1.57094 -0.343215 0
M  V30 9008 O 878.188 -1.73696 -0.132433 0
M  V30 9009 C 875.32 -3.40583 -0.146872 0
M  V30 9010 H 876.513 -2.61015 1.47686 0
M  V30 9011 H 874.066 -1.34148 0.802123 0
M  V30 9012 H 874.801 -3.06686 -1.05424 0
M  V30 9013 H 874.586 -3.88642 0.51958 0
M  V30 9014 H 876.076 -4.15339 -0.433924 0
M  V30 9015 N 876.513 -0.788492 -1.36457 0
M  V30 9016 C 877.76 -0.360461 -1.99266 0
M  V30 9017 C 878.088 1.0676 -1.62581 0
M  V30 9018 O 877.343 1.75205 -0.871884 0
M  V30 9019 C 877.642 -0.470255 -3.54293 0
M  V30 9020 C 877.308 -1.85899 -4.10795 0
M  V30 9021 C 875.97 -2.23896 -4.25939 0
M  V30 9022 C 878.322 -2.76836 -4.41601 0
M  V30 9023 C 875.65 -3.52235 -4.69199 0
M  V30 9024 C 878.002 -4.04602 -4.86292 0
M  V30 9025 C 876.666 -4.42623 -4.99641 0
M  V30 9026 H 875.936 -0.131902 -0.729166 0
M  V30 9027 H 878.583 -1.00577 -1.62962 0
M  V30 9028 H 876.888 0.258559 -3.90946 0
M  V30 9029 H 878.585 -0.120119 -4.0082 0
M  V30 9030 H 875.175 -1.55372 -3.99447 0
M  V30 9031 H 879.359 -2.48735 -4.2947 0
M  V30 9032 H 874.615 -3.81565 -4.77722 0
M  V30 9033 H 878.789 -4.75182 -5.09092 0
M  V30 9034 H 876.416 -5.42125 -5.32921 0
M  V30 9035 N 877.991 1.48044 -0.54043 0
M  V30 9036 C 879.237 2.02797 -0.0101718 0
M  V30 9037 C 879.57 1.41565 1.32939 0
M  V30 9038 O 878.845 0.565139 1.86109 0
M  V30 9039 C 879.128 3.59959 0.100758 0
M  V30 9040 C 878.981 4.31654 -1.26471 0
M  V30 9041 C 880.3 4.32347 0.822455 0
M  V30 9042 H 877.419 0.736982 -0.00517052 0
M  V30 9043 H 880.061 1.76656 -0.69948 0
M  V30 9044 H 878.211 3.82363 0.687824 0
M  V30 9045 H 879.883 4.20639 -1.89369 0
M  V30 9046 H 878.126 3.92663 -1.84386 0
M  V30 9047 H 878.797 5.401 -1.13998 0
M  V30 9048 H 881.273 4.14835 0.324164 0
M  V30 9049 H 880.149 5.41978 0.868993 0
M  V30 9050 H 880.41 4.00369 1.87501 0
M  V30 9051 N 879.47 0.276058 1.55163 0
M  V30 9052 C 880.747 -0.392292 1.91626 0
M  V30 9053 C 881.127 -1.73646 1.20043 0
M  V30 9054 O 880.475 -2.26139 0.327606 0
M  V30 9055 C 880.685 -0.531641 3.44927 0
M  V30 9056 C 882.033 -0.8141 4.16722 0
M  V30 9057 O 883.057 -0.616413 3.50826 0
M  V30 9058 O 881.916 -1.19224 5.33337 0
M  V30 9059 H 879.01 -0.214945 0.798579 0
M  V30 9060 H 881.556 0.32228 1.66612 0
M  V30 9061 H 880.328 0.414282 3.89101 0
M  V30 9062 H 879.951 -1.29564 3.75897 0
M  V30 9063 N 880.948 -1.576 0.00335426 0
M  V30 9064 C 881.896 -2.09759 -1.00517 0
M  V30 9065 C 882.89 -1.01833 -1.35375 0
M  V30 9066 O 884.096 -1.20294 -1.339 0
M  V30 9067 H 880.471 -0.669821 -0.341825 0
M  V30 9068 H 882.442 -2.93478 -0.539718 0
M  V30 9069 C 881.191 -2.6189 -2.28711 0
M  V30 9070 H 880.514 -3.44571 -2.02758 0
M  V30 9071 H 881.954 -3.02061 -2.97548 0
M  V30 9072 C 880.413 -1.53455 -2.99922 0
M  V30 9073 O 880.943 -0.919402 -3.91037 0
M  V30 9074 N 879.149 -1.2612 -2.61806 0
M  V30 9075 H 878.696 -1.76329 -1.87792 0
M  V30 9076 H 878.654 -0.537872 -3.09765 0
M  V30 9077 N 882.426 0.269451 -1.5528 0
M  V30 9078 C 883.656 1.01724 -1.79821 0
M  V30 9079 C 884.064 1.80298 -0.573532 0
M  V30 9080 O 883.407 1.77666 0.466963 0
M  V30 9081 C 883.469 2.02043 -2.97353 0
M  V30 9082 C 883.133 1.42375 -4.34256 0
M  V30 9083 C 884.13 0.837611 -5.13108 0
M  V30 9084 C 881.815 1.44988 -4.8092 0
M  V30 9085 C 883.809 0.285557 -6.3676 0
M  V30 9086 C 881.496 0.893969 -6.04526 0
M  V30 9087 C 882.494 0.312809 -6.82283 0
M  V30 9088 O 882.182 -0.234582 -8.03558 0
M  V30 9089 H 881.914 0.30604 -0.602757 0
M  V30 9090 H 884.468 0.30454 -2.0313 0
M  V30 9091 H 882.698 2.77082 -2.69745 0
M  V30 9092 H 884.387 2.6298 -3.09187 0
M  V30 9093 H 885.153 0.81009 -4.78187 0
M  V30 9094 H 881.032 1.89162 -4.20403 0
M  V30 9095 H 884.576 -0.168696 -6.97396 0
M  V30 9096 H 880.473 0.918742 -6.38928 0
M  V30 9097 H 881.241 -0.124282 -8.18406 0
M  V30 9098 N 883.904 1.48273 0.534124 0
M  V30 9099 C 885.152 1.55771 1.28762 0
M  V30 9100 C 885.473 0.231575 1.9362 0
M  V30 9101 O 884.743 -0.746533 1.81118 0
M  V30 9102 H 883.323 0.573851 0.47823 0
M  V30 9103 H 885.985 1.84712 0.621888 0
M  V30 9104 H 885.081 2.33657 2.06908 0
M  V30 9105 N 885.382 -0.782676 1.36792 0
M  V30 9106 C 886.628 -1.54311 1.3159 0
M  V30 9107 C 886.961 -1.93928 -0.102696 0
M  V30 9108 O 886.236 -1.63233 -1.05761 0
M  V30 9109 C 886.519 -2.81561 2.24489 0
M  V30 9110 C 886.372 -2.48268 3.75078 0
M  V30 9111 C 887.691 -3.83428 2.16034 0
M  V30 9112 H 884.81 -0.559828 0.479335 0
M  V30 9113 H 887.452 -0.898717 1.67401 0
M  V30 9114 H 885.602 -3.36549 1.9408 0
M  V30 9115 H 887.274 -1.99279 4.16036 0
M  V30 9116 H 885.517 -1.81116 3.94182 0
M  V30 9117 H 886.188 -3.39183 4.35499 0
M  V30 9118 H 888.664 -3.37905 2.42815 0
M  V30 9119 H 887.54 -4.70204 2.83194 0
M  V30 9120 H 887.801 -4.26887 1.14976 0
M  V30 9121 N 886.86 -1.21182 -1.00761 0
M  V30 9122 C 887.823 -0.970339 -2.07646 0
M  V30 9123 C 888.823 0.0576345 -1.60697 0
M  V30 9124 O 890.013 -0.179369 -1.73274 0
M  V30 9125 C 887.145 -0.462703 -3.37745 0
M  V30 9126 H 888.338 -1.91856 -2.30502 0
M  V30 9127 H 885.891 -1.02844 -1.17698 0
M  V30 9128 H 886.626 0.490559 -3.20568 0
M  V30 9129 H 886.411 -1.20416 -3.73152 0
M  V30 9130 H 887.901 -0.313531 -4.16421 0
M  V30 9131 N 888.338 1.20213 -1.01915 0
M  V30 9132 C 889.271 2.2181 -0.536243 0
M  V30 9133 C 890.249 1.57144 0.417689 0
M  V30 9134 O 891.433 1.85461 0.337088 0
M  V30 9135 C 888.56 3.37989 0.219303 0
M  V30 9136 C 887.606 4.2097 -0.684571 0
M  V30 9137 S 888.439 4.90216 -2.15519 0
M  V30 9138 C 889.595 6.09814 -1.40988 0
M  V30 9139 H 889.828 2.62429 -1.39709 0
M  V30 9140 H 887.361 1.30305 -0.828254 0
M  V30 9141 H 889.319 4.05335 0.649112 0
M  V30 9142 H 887.98 2.95825 1.05575 0
M  V30 9143 H 887.173 5.03897 -0.101833 0
M  V30 9144 H 886.775 3.58892 -1.05227 0
M  V30 9145 H 889.067 6.73964 -0.691243 0
M  V30 9146 H 890.01 6.72552 -2.21539 0
M  V30 9147 H 890.418 5.5709 -0.911645 0
M  V30 9148 N 889.816 0.795718 1.36037 0
M  V30 9149 C 890.726 0.199784 2.33748 0
M  V30 9150 C 891.742 -0.651436 1.61345 0
M  V30 9151 O 892.918 -0.565743 1.93291 0
M  V30 9152 C 889.983 -0.650475 3.40543 0
M  V30 9153 C 889.044 0.219974 4.28736 0
M  V30 9154 C 888.277 -0.589798 5.30431 0
M  V30 9155 O 888.5 -1.82532 5.40406 0
M  V30 9156 O 887.434 0.0136187 6.01898 0
M  V30 9157 H 891.26 1.00782 2.8649 0
M  V30 9158 H 888.845 0.557293 1.38617 0
M  V30 9159 H 890.727 -1.13512 4.05824 0
M  V30 9160 H 889.402 -1.4363 2.9009 0
M  V30 9161 H 888.309 0.751516 3.66474 0
M  V30 9162 H 889.642 0.969468 4.82558 0
M  V30 9163 N 891.294 -1.47756 0.548274 0
M  V30 9164 C 892.227 -2.26804 -0.252059 0
M  V30 9165 C 893.205 -1.3349 -0.928389 0
M  V30 9166 O 894.389 -1.6286 -0.949156 0
M  V30 9167 C 891.516 -3.10266 -1.35841 0
M  V30 9168 C 890.562 -4.1909 -0.791578 0
M  V30 9169 S 891.395 -5.34323 0.354878 0
M  V30 9170 C 892.551 -6.21348 -0.753511 0
M  V30 9171 H 892.784 -2.94336 0.418744 0
M  V30 9172 H 890.317 -1.50735 0.334413 0
M  V30 9173 H 892.275 -3.58925 -1.99207 0
M  V30 9174 H 890.936 -2.42112 -2.00101 0
M  V30 9175 H 890.129 -4.77183 -1.62212 0
M  V30 9176 H 889.731 -3.73266 -0.234274 0
M  V30 9177 H 892.023 -6.57156 -1.6478 0
M  V30 9178 H 892.966 -7.07788 -0.210141 0
M  V30 9179 H 893.374 -5.54797 -1.04216 0
M  V30 9180 N 892.772 -0.284283 -1.55015 0
M  V30 9181 C 893.735 0.586182 -2.21577 0
M  V30 9182 C 894.735 1.07427 -1.1965 0
M  V30 9183 O 895.925 0.972977 -1.44495 0
M  V30 9184 C 893.057 1.80973 -2.88897 0
M  V30 9185 H 894.25 0.00487253 -2.999 0
M  V30 9186 H 891.803 -0.0349696 -1.56261 0
M  V30 9187 H 892.538 2.43131 -2.14611 0
M  V30 9188 H 892.323 1.46757 -3.636 0
M  V30 9189 H 893.813 2.42853 -3.39724 0
M  V30 9190 N 894.251 1.57596 -0.0117121 0
M  V30 9191 C 895.161 2.12596 0.991964 0
M  V30 9192 C 896.177 1.07399 1.36899 0
M  V30 9193 O 897.353 1.39365 1.45394 0
M  V30 9194 C 894.418 2.62796 2.2614 0
M  V30 9195 C 893.479 3.8264 1.94642 0
M  V30 9196 C 892.712 4.30435 3.15533 0
M  V30 9197 O 892.935 3.77495 4.27614 0
M  V30 9198 O 891.869 5.22469 2.98847 0
M  V30 9199 H 895.695 2.98597 0.554371 0
M  V30 9200 H 893.28 1.47947 0.207839 0
M  V30 9201 H 895.162 2.9523 3.00695 0
M  V30 9202 H 893.837 1.79886 2.69114 0
M  V30 9203 H 892.744 3.5516 1.17526 0
M  V30 9204 H 894.077 4.66658 1.56496 0
M  V30 9205 N 895.729 -0.261212 1.5542 0
M  V30 9206 C 896.676 -1.32315 1.89107 0
M  V30 9207 C 897.646 -1.48517 0.743767 0
M  V30 9208 O 898.831 -1.62733 0.996123 0
M  V30 9209 C 895.971 -2.67626 2.17877 0
M  V30 9210 C 895.084 -2.59549 3.45338 0
M  V30 9211 C 894.219 -3.87118 3.63748 0
M  V30 9212 C 893.258 -3.736 4.8486 0
M  V30 9213 N 892.395 -4.93029 4.99867 0
M  V30 9214 H 897.235 -1.02886 2.79675 0
M  V30 9215 H 894.772 -0.496812 1.38456 0
M  V30 9216 H 896.73 -3.4637 2.32559 0
M  V30 9217 H 895.36 -2.95232 1.30529 0
M  V30 9218 H 894.412 -1.72452 3.39064 0
M  V30 9219 H 895.724 -2.45465 4.34222 0
M  V30 9220 H 894.878 -4.74305 3.78312 0
M  V30 9221 H 893.617 -4.04084 2.73071 0
M  V30 9222 H 892.622 -2.84797 4.70288 0
M  V30 9223 H 893.847 -3.58143 5.76984 0
M  V30 9224 H 891.793 -5.10383 4.12123 0
M  V30 9225 H 891.71 -4.81521 5.82815 0
M  V30 9226 H 892.978 -5.81754 5.18828 0
M  V30 9227 N 897.207 -1.48554 -0.526253 0
M  V30 9228 C 898.447 -1.58362 -1.29232 0
M  V30 9229 C 898.811 -0.253353 -1.90321 0
M  V30 9230 O 900.012 -0.226439 -2.67845 0
M  V30 9231 C 898.283 -2.69294 -2.3498 0
M  V30 9232 S 899.842 -2.98891 -3.21262 0
M  V30 9233 H 896.66 -0.558859 -0.439543 0
M  V30 9234 H 899.262 -1.86094 -0.599099 0
M  V30 9235 H 897.966 -3.64504 -1.88587 0
M  V30 9236 H 897.497 -2.43475 -3.09004 0
M  V30 9237 H 899.512 -2.38475 -4.35137 0
M  V30 9238 N 898.685 0.775411 -1.37205 0
M  V30 9239 C 899.925 1.54689 -1.33606 0
M  V30 9240 C 900.289 1.91834 0.0798549 0
M  V30 9241 O 901.49 2.67722 0.240531 0
M  V30 9242 C 899.761 2.7804 -2.24563 0
M  V30 9243 S 901.32 3.68143 -2.38781 0
M  V30 9244 H 898.138 0.529631 -0.474355 0
M  V30 9245 H 900.74 0.912128 -1.72918 0
M  V30 9246 H 899.444 2.48825 -3.26365 0
M  V30 9247 H 898.975 3.46479 -1.86322 0
M  V30 9248 H 900.99 4.69843 -1.59568 0
M  V30 9249 N 900.163 1.21714 1.00117 0
M  V30 9250 C 901.095 0.937627 2.09144 0
M  V30 9251 C 902.108 -0.0806291 1.626 0
M  V30 9252 O 903.297 0.152348 1.77849 0
M  V30 9253 C 900.397 0.387036 3.36683 0
M  V30 9254 C 899.57 1.46054 4.12295 0
M  V30 9255 C 898.629 0.918505 5.18122 0
M  V30 9256 O 897.655 1.60282 5.46167 0
M  V30 9257 N 898.857 -0.264308 5.79898 0
M  V30 9258 H 901.622 1.87622 2.33705 0
M  V30 9259 H 899.183 1.12291 1.16629 0
M  V30 9260 H 901.175 0.00992825 4.04699 0
M  V30 9261 H 899.745 -0.456467 3.09249 0
M  V30 9262 H 898.965 2.01133 3.39027 0
M  V30 9263 H 900.253 2.18306 4.59587 0
M  V30 9264 H 899.651 -0.837242 5.5947 0
M  V30 9265 H 898.208 -0.582886 6.49188 0
M  V30 9266 N 901.641 -1.19671 1.02551 0
M  V30 9267 C 902.604 -2.20987 0.608055 0
M  V30 9268 C 903.604 -1.5745 -0.326534 0
M  V30 9269 O 904.794 -1.73827 -0.114003 0
M  V30 9270 C 901.926 -3.4072 -0.11074 0
M  V30 9271 H 903.119 -2.59434 1.50446 0
M  V30 9272 H 900.672 -1.3329 0.816307 0
M  V30 9273 H 901.407 -3.07787 -1.02165 0
M  V30 9274 H 901.192 -3.88069 0.560772 0
M  V30 9275 H 902.682 -4.15776 -0.389848 0
M  V30 9276 N 903.119 -0.802921 -1.35613 0
M  V30 9277 C 904.067 -0.198783 -2.31749 0
M  V30 9278 C 905.061 0.649416 -1.56458 0
M  V30 9279 O 906.267 0.542989 -1.71615 0
M  V30 9280 H 902.642 -0.0455177 -0.750621 0
M  V30 9281 H 904.613 -1.02479 -2.80251 0
M  V30 9282 C 903.362 0.641066 -3.41739 0
M  V30 9283 H 902.685 -0.00226244 -3.998 0
M  V30 9284 H 904.125 1.03022 -4.11294 0
M  V30 9285 C 902.584 1.80505 -2.84464 0
M  V30 9286 O 903.114 2.90235 -2.77717 0
M  V30 9287 N 901.32 1.61542 -2.41563 0
M  V30 9288 H 900.867 0.722863 -2.4725 0
M  V30 9289 H 900.825 2.39581 -2.03589 0
M  V30 9290 N 904.597 1.47463 -0.556102 0
M  V30 9291 C 905.56 2.28478 0.181743 0
M  V30 9292 C 906.56 1.36886 0.843738 0
M  V30 9293 O 907.75 1.59527 0.69977 0
M  V30 9294 C 904.882 3.16534 1.26566 0
M  V30 9295 H 906.075 2.95182 -0.529892 0
M  V30 9296 H 903.628 1.53134 -0.313005 0
M  V30 9297 H 904.363 2.5452 2.00973 0
M  V30 9298 H 904.148 3.83939 0.795798 0
M  V30 9299 H 905.638 3.77579 1.78393 0
M  V30 9300 N 906.075 0.2925 1.54862 0
M  V30 9301 C 907.007 -0.620889 2.2063 0
M  V30 9302 C 908.02 -1.10412 1.19637 0
M  V30 9303 O 909.209 -1.02304 1.46274 0
M  V30 9304 C 906.309 -1.861 2.83232 0
M  V30 9305 C 905.482 -1.52168 4.10078 0
M  V30 9306 C 904.541 -2.61605 4.56562 0
M  V30 9307 O 903.567 -2.27056 5.21952 0
M  V30 9308 N 904.769 -3.9199 4.28163 0
M  V30 9309 H 907.534 -0.0579028 2.99644 0
M  V30 9310 H 905.095 0.114333 1.61496 0
M  V30 9311 H 907.087 -2.58642 3.11266 0
M  V30 9312 H 905.657 -2.33259 2.08108 0
M  V30 9313 H 904.877 -0.629283 3.89145 0
M  V30 9314 H 906.165 -1.27023 4.92689 0
M  V30 9315 H 905.563 -4.22872 3.7576 0
M  V30 9316 H 904.12 -4.60857 4.60928 0
M  V30 9317 N 907.553 -1.57587 0.0200696 0
M  V30 9318 C 908.8 -1.91424 -0.660525 0
M  V30 9319 C 909.128 -0.895626 -1.72652 0
M  V30 9320 O 908.383 0.096771 -1.95461 0
M  V30 9321 C 908.682 -3.32002 -1.32323 0
M  V30 9322 C 908.348 -4.49223 -0.388487 0
M  V30 9323 C 907.01 -4.81021 -0.131184 0
M  V30 9324 C 909.362 -5.20581 0.253906 0
M  V30 9325 C 906.69 -5.81539 0.776471 0
M  V30 9326 C 909.042 -6.22067 1.14956 0
M  V30 9327 C 907.706 -6.52311 1.41584 0
M  V30 9328 H 906.976 -0.700472 -0.241703 0
M  V30 9329 H 909.623 -1.91333 0.0798991 0
M  V30 9330 H 907.928 -3.28312 -2.13819 0
M  V30 9331 H 909.625 -3.5545 -1.85623 0
M  V30 9332 H 906.215 -4.24391 -0.599207 0
M  V30 9333 H 910.399 -4.96253 0.068164 0
M  V30 9334 H 905.655 -6.03322 0.990575 0
M  V30 9335 H 909.829 -6.76484 1.65357 0
M  V30 9336 H 907.456 -7.30017 2.12083 0
M  V30 9337 N 909.032 0.252966 -1.55557 0
M  V30 9338 C 909.995 1.29645 -1.8901 0
M  V30 9339 C 910.995 1.41378 -0.766096 0
M  V30 9340 O 912.185 1.40183 -1.03414 0
M  V30 9341 C 909.317 2.67504 -2.11316 0
M  V30 9342 H 910.51 1.01202 -2.82309 0
M  V30 9343 H 908.063 0.491977 -1.48355 0
M  V30 9344 H 908.798 3.01095 -1.20466 0
M  V30 9345 H 908.583 2.6037 -2.93172 0
M  V30 9346 H 910.073 3.42861 -2.38403 0
M  V30 9347 N 910.51 1.48831 0.518367 0
M  V30 9348 C 911.42 1.6692 1.64848 0
M  V30 9349 C 912.436 0.551711 1.65022 0
M  V30 9350 O 913.612 0.824251 1.83761 0
M  V30 9351 C 910.677 1.71559 3.01278 0
M  V30 9352 C 909.738 2.9502 3.11868 0
M  V30 9353 C 908.971 2.99428 4.4179 0
M  V30 9354 O 909.194 2.11914 5.29574 0
M  V30 9355 O 908.128 3.91719 4.5699 0
M  V30 9356 H 911.954 2.62623 1.52521 0
M  V30 9357 H 909.539 1.32368 0.692749 0
M  V30 9358 H 911.421 1.77064 3.82396 0
M  V30 9359 H 910.096 0.790316 3.13904 0
M  V30 9360 H 909.003 2.95042 2.30003 0
M  V30 9361 H 910.336 3.8697 3.04163 0
M  V30 9362 N 911.988 -0.768124 1.37614 0
M  V30 9363 C 913.237 -1.5221 1.32345 0
M  V30 9364 C 913.55 -1.95399 -0.0885761 0
M  V30 9365 O 914.756 -2.70216 -0.263752 0
M  V30 9366 C 913.212 -2.74872 2.32322 0
M  V30 9367 C 912.82 -2.38767 3.79071 0
M  V30 9368 C 914.564 -3.52805 2.36069 0
M  V30 9369 C 912.471 -3.57953 4.7077 0
M  V30 9370 H 911.401 -0.571461 0.491883 0
M  V30 9371 H 914.052 -0.841004 1.63093 0
M  V30 9372 H 912.434 -3.44889 1.94596 0
M  V30 9373 H 913.608 -1.7651 4.25654 0
M  V30 9374 H 911.923 -1.74 3.78303 0
M  V30 9375 H 914.52 -4.41397 3.01782 0
M  V30 9376 H 914.863 -3.92925 1.37535 0
M  V30 9377 H 915.396 -2.89788 2.72521 0
M  V30 9378 H 912.135 -3.22911 5.70446 0
M  V30 9379 H 911.655 -4.19302 4.28889 0
M  V30 9380 H 913.334 -4.2472 4.8808 0
M  V30 9381 N 913.466 -1.22244 -0.994698 0
M  V30 9382 C 914.691 -1.07299 -1.77487 0
M  V30 9383 C 915.116 0.372302 -1.84379 0
M  V30 9384 O 914.474 1.2689 -1.29494 0
M  V30 9385 C 914.522 -1.68675 -3.18718 0
M  V30 9386 O 913.626 -0.939202 -4.01563 0
M  V30 9387 H 912.967 -0.376979 -0.546611 0
M  V30 9388 H 915.497 -1.62003 -1.24965 0
M  V30 9389 H 915.507 -1.73324 -3.69354 0
M  V30 9390 H 914.182 -2.73849 -3.13017 0
M  V30 9391 H 912.759 -0.968583 -3.60101 0
M  V30 9392 N 914.944 1.19125 -1.03184 0
M  V30 9393 C 915.854 2.26112 -0.625329 0
M  V30 9394 C 916.87 1.7056 0.344298 0
M  V30 9395 O 918.046 2.0039 0.20144 0
M  V30 9396 C 915.111 3.46697 0.0145169 0
M  V30 9397 C 914.172 4.17419 -1.00299 0
M  V30 9398 C 913.405 5.32247 -0.393581 0
M  V30 9399 O 913.628 5.64724 0.802659 0
M  V30 9400 O 912.562 5.91428 -1.1179 0
M  V30 9401 H 916.388 2.63131 -1.51643 0
M  V30 9402 H 913.973 1.26036 -0.802197 0
M  V30 9403 H 915.855 4.19762 0.371139 0
M  V30 9404 H 914.53 3.11521 0.879581 0
M  V30 9405 H 913.437 3.4646 -1.41125 0
M  V30 9406 H 914.77 4.56573 -1.83852 0
M  V30 9407 N 916.422 0.810101 1.35185 0
M  V30 9408 C 917.37 0.211071 2.3164 0
M  V30 9409 C 918.364 -0.641109 1.568 0
M  V30 9410 O 919.57 -0.533881 1.719 0
M  V30 9411 H 915.945 0.0494978 0.750369 0
M  V30 9412 H 917.916 1.03964 2.79703 0
M  V30 9413 C 916.665 -0.622933 3.42074 0
M  V30 9414 H 915.988 0.0234648 3.99793 0
M  V30 9415 H 917.428 -1.0084 4.11834 0
M  V30 9416 C 915.887 -1.78994 2.85417 0
M  V30 9417 O 916.417 -2.88758 2.79252 0
M  V30 9418 N 914.623 -1.60259 2.42416 0
M  V30 9419 H 914.17 -0.70974 2.4763 0
M  V30 9420 H 914.128 -2.38498 2.04857 0
M  V30 9421 N 917.9 -1.47166 0.563914 0
M  V30 9422 C 918.83 -2.32894 -0.168148 0
M  V30 9423 C 919.811 -1.44202 -0.902214 0
M  V30 9424 O 920.996 -1.73048 -0.881365 0
M  V30 9425 C 918.126 -3.26116 -1.19439 0
M  V30 9426 C 917.08 -4.24101 -0.576363 0
M  V30 9427 C 916.406 -5.06696 -1.70772 0
M  V30 9428 C 917.706 -5.20142 0.47425 0
M  V30 9429 H 919.4 -2.9435 0.547573 0
M  V30 9430 H 916.946 -1.41545 0.264778 0
M  V30 9431 H 918.899 -3.84935 -1.71474 0
M  V30 9432 H 917.623 -2.62728 -1.94014 0
M  V30 9433 H 916.282 -3.66519 -0.0772534 0
M  V30 9434 H 915.93 -4.39707 -2.44268 0
M  V30 9435 H 915.63 -5.7304 -1.29994 0
M  V30 9436 H 917.154 -5.68375 -2.2312 0
M  V30 9437 H 918.568 -5.73286 0.0397035 0
M  V30 9438 H 916.965 -5.94726 0.801287 0
M  V30 9439 H 918.035 -4.65214 1.36764 0
M  V30 9440 N 919.378 -0.300708 -1.54705 0
M  V30 9441 C 920.794 0.0526874 -1.59513 0
M  V30 9442 C 920.994 1.52444 -1.31769 0
M  V30 9443 O 920.05 2.27716 -1.09096 0
M  V30 9444 C 921.363 -0.344989 -2.98714 0
M  V30 9445 C 922.911 -0.29373 -3.11619 0
M  V30 9446 C 923.386 -0.666225 -4.53129 0
M  V30 9447 N 924.877 -0.618749 -4.59049 0
M  V30 9448 C 925.612 -0.879447 -5.66616 0
M  V30 9449 N 925.108 -1.2061 -6.82221 0
M  V30 9450 N 926.901 -0.806528 -5.56284 0
M  V30 9451 H 919.052 -1.25988 -1.71 0
M  V30 9452 H 921.315 -0.510758 -0.798643 0
M  V30 9453 H 921.021 -1.36953 -3.2394 0
M  V30 9454 H 920.895 0.301507 -3.75993 0
M  V30 9455 H 923.282 0.72156 -2.86142 0
M  V30 9456 H 923.363 -0.974844 -2.36496 0
M  V30 9457 H 923.007 -1.67932 -4.79334 0
M  V30 9458 H 922.937 0.0369575 -5.26587 0
M  V30 9459 H 925.428 -0.377202 -3.76013 0
M  V30 9460 H 925.741 -1.391 -7.60178 0
M  V30 9461 H 924.086 -1.24413 -6.83774 0
M  V30 9462 H 927.277 -0.550993 -4.64846 0
M  V30 9463 H 927.45 -1.01307 -6.40032 0
M  V30 9464 N 920.856 1.57574 -0.0284266 0
M  V30 9465 C 921.819 2.09096 0.938691 0
M  V30 9466 C 922.819 1.00588 1.25454 0
M  V30 9467 O 924.009 1.2675 1.19499 0
M  V30 9468 C 921.141 2.55624 2.25542 0
M  V30 9469 H 922.334 2.95829 0.49248 0
M  V30 9470 H 919.887 1.5475 0.219594 0
M  V30 9471 H 920.622 1.72218 2.74793 0
M  V30 9472 H 920.407 3.34896 2.03929 0
M  V30 9473 H 921.897 2.95712 2.94863 0
M  V30 9474 N 922.334 -0.244713 1.55689 0
M  V30 9475 C 923.75 -0.593331 1.48161 0
M  V30 9476 C 923.95 -1.88234 0.719047 0
M  V30 9477 O 923.006 -2.51266 0.249292 0
M  V30 9478 C 924.319 -0.694032 2.92581 0
M  V30 9479 C 925.867 -0.786213 3.02965 0
M  V30 9480 C 926.342 -0.918457 4.48696 0
M  V30 9481 N 927.833 -0.983272 4.52643 0
M  V30 9482 C 928.568 -1.1049 5.62654 0
M  V30 9483 N 928.064 -1.19193 6.8247 0
M  V30 9484 N 929.857 -1.13823 5.50455 0
M  V30 9485 H 922.008 0.601446 2.03707 0
M  V30 9486 H 924.271 0.207894 0.924924 0
M  V30 9487 H 923.977 0.183133 3.51223 0
M  V30 9488 H 923.851 -1.56525 3.4319 0
M  V30 9489 H 926.238 -1.65383 2.44402 0
M  V30 9490 H 926.319 0.110202 2.55563 0
M  V30 9491 H 925.963 -0.0553881 5.0787 0
M  V30 9492 H 925.893 -1.82994 4.93782 0
M  V30 9493 H 928.384 -0.927269 3.66347 0
M  V30 9494 H 928.697 -1.28387 7.62061 0
M  V30 9495 H 927.042 -1.16147 6.85226 0
M  V30 9496 H 930.233 -1.06673 4.55783 0
M  V30 9497 H 930.406 -1.22957 6.36228 0
M  V30 9498 N 923.813 -1.49104 -0.510467 0
M  V30 9499 C 925.038 -1.62068 -1.29417 0
M  V30 9500 C 925.463 -0.288432 -1.85875 0
M  V30 9501 O 924.821 0.742667 -1.65391 0
M  V30 9502 C 924.869 -2.68506 -2.40701 0
M  V30 9503 O 923.973 -2.27021 -3.4429 0
M  V30 9504 H 923.314 -0.542778 -0.382476 0
M  V30 9505 H 925.844 -1.95228 -0.612154 0
M  V30 9506 H 925.854 -2.90383 -2.86604 0
M  V30 9507 H 924.529 -3.65216 -1.98973 0
M  V30 9508 H 923.106 -2.15436 -3.04371 0
M  V30 9509 N 925.291 0.760815 -1.38019 0
M  V30 9510 C 926.239 1.89578 -1.34771 0
M  V30 9511 C 927.233 1.67766 -0.234714 0
M  V30 9512 O 928.439 1.75423 -0.403352 0
M  V30 9513 H 924.814 0.623608 -0.420258 0
M  V30 9514 H 926.785 1.89434 -2.30558 0
M  V30 9515 C 925.534 3.26976 -1.18246 0
M  V30 9516 H 924.857 3.44342 -2.03147 0
M  V30 9517 H 926.297 4.06657 -1.20026 0
M  V30 9518 C 924.756 3.36717 0.111145 0
M  V30 9519 O 925.286 3.86607 1.09079 0
M  V30 9520 N 923.492 2.90128 0.165542 0
M  V30 9521 H 923.039 2.49719 -0.632328 0
M  V30 9522 H 922.997 2.97026 1.03067 0
M  V30 9523 N 926.769 1.22769 0.988202 0
M  V30 9524 C 927.716 1.00195 2.07917 0
M  V30 9525 C 928.686 -0.0779391 1.65917 0
M  V30 9526 O 929.871 0.0726005 1.90662 0
M  V30 9527 C 927.011 0.590853 3.40004 0
M  V30 9528 C 926.124 1.74202 3.9532 0
M  V30 9529 C 925.259 1.27846 5.15586 0
M  V30 9530 C 924.298 2.40087 5.63049 0
M  V30 9531 N 923.435 1.94744 6.74551 0
M  V30 9532 H 928.275 1.93581 2.26562 0
M  V30 9533 H 925.812 0.96448 1.11068 0
M  V30 9534 H 927.77 0.333653 4.15864 0
M  V30 9535 H 926.4 -0.306007 3.21346 0
M  V30 9536 H 925.452 2.11342 3.16289 0
M  V30 9537 H 926.764 2.58612 4.26522 0
M  V30 9538 H 925.918 0.978919 5.9875 0
M  V30 9539 H 924.657 0.404617 4.86019 0
M  V30 9540 H 923.662 2.70824 4.78471 0
M  V30 9541 H 924.887 3.27995 5.9464 0
M  V30 9542 H 922.833 1.09729 6.46758 0
M  V30 9543 H 922.75 2.72718 7.05096 0
M  V30 9544 H 924.018 1.67873 7.61209 0
M  V30 9545 N 928.247 -1.18576 1.03814 0
M  V30 9546 C 929.524 -1.8433 0.654358 0
M  V30 9547 C 929.904 -1.92504 -0.866338 0
M  V30 9548 O 929.252 -1.44904 -1.76678 0
M  V30 9549 C 929.462 -3.22778 1.32723 0
M  V30 9550 C 930.81 -3.98841 1.45641 0
M  V30 9551 O 931.834 -3.32209 1.28514 0
M  V30 9552 O 930.693 -5.18219 1.73526 0
M  V30 9553 H 927.787 -0.794766 0.228638 0
M  V30 9554 H 930.333 -1.25989 1.13687 0
M  V30 9555 H 929.105 -3.11717 2.36534 0
M  V30 9556 H 928.728 -3.88772 0.833176 0
M  V30 9557 N 929.725 -0.817259 -1.34754 0
M  V30 9558 C 930.688 -0.240611 -2.27934 0
M  V30 9559 C 931.688 0.578219 -1.50044 0
M  V30 9560 O 932.878 0.395148 -1.69659 0
M  V30 9561 C 930.01 0.663318 -3.34384 0
M  V30 9562 H 931.203 -1.06257 -2.80445 0
M  V30 9563 H 928.756 -0.588697 -1.4479 0
M  V30 9564 H 929.491 1.50855 -2.87077 0
M  V30 9565 H 929.276 0.0777388 -3.92023 0
M  V30 9566 H 930.766 1.06076 -4.03903 0
M  V30 9567 N 931.203 1.46865 -0.571711 0
M  V30 9568 C 932.15 2.30189 0.167808 0
M  V30 9569 C 933.12 1.3995 0.89461 0
M  V30 9570 O 934.305 1.68905 0.887451 0
M  V30 9571 C 931.445 3.24205 1.1826 0
M  V30 9572 C 930.558 4.2954 0.460376 0
M  V30 9573 C 929.693 5.10693 1.46173 0
M  V30 9574 C 928.732 6.07788 0.725291 0
M  V30 9575 N 927.869 6.81847 1.67417 0
M  V30 9576 H 932.709 2.92902 -0.548831 0
M  V30 9577 H 930.246 1.44362 -0.282474 0
M  V30 9578 H 932.204 3.77147 1.7837 0
M  V30 9579 H 930.834 2.63324 1.86709 0
M  V30 9580 H 929.886 3.79541 -0.255546 0
M  V30 9581 H 931.198 4.98665 -0.115855 0
M  V30 9582 H 930.352 5.67857 2.13595 0
M  V30 9583 H 929.091 4.41502 2.07188 0
M  V30 9584 H 928.096 5.49787 0.037228 0
M  V30 9585 H 929.321 6.78993 0.120678 0
M  V30 9586 H 927.267 6.15376 2.27263 0
M  V30 9587 H 927.184 7.47195 1.15046 0
M  V30 9588 H 928.452 7.43577 2.33908 0
M  V30 9589 N 932.681 0.308908 1.54543 0
M  V30 9590 C 933.958 -0.351558 1.92415 0
M  V30 9591 C 934.338 -1.71061 1.23699 0
M  V30 9592 O 933.686 -2.25394 0.3755 0
M  V30 9593 C 933.896 -0.458357 3.45977 0
M  V30 9594 C 935.244 -0.725524 4.18355 0
M  V30 9595 O 936.268 -0.541859 3.52054 0
M  V30 9596 O 935.127 -1.07884 5.35745 0
M  V30 9597 H 932.221 -0.197957 0.802958 0
M  V30 9598 H 934.767 0.357548 1.65891 0
M  V30 9599 H 933.539 0.496723 3.88134 0
M  V30 9600 H 933.162 -1.21562 3.78561 0
M  V30 9601 N 934.159 -1.57557 0.0367827 0
M  V30 9602 C 935.57 -1.79853 -0.500971 0
M  V30 9603 C 935.921 -0.947749 -1.71791 0
M  V30 9604 O 935.046 -0.160287 -2.15806 0
M  V30 9605 C 935.641 -3.26193 -0.915626 0
M  V30 9606 C 934.2 -3.49457 -1.39845 0
M  V30 9607 C 933.347 -2.74864 -0.366784 0
M  V30 9608 H 936.298 -1.56509 0.262768 0
M  V30 9609 H 936.319 -3.36324 -1.7795 0
M  V30 9610 H 935.831 -3.88089 -0.0297227 0
M  V30 9611 H 933.932 -2.92823 -2.30402 0
M  V30 9612 H 934.045 -4.58172 -1.40054 0
M  V30 9613 H 932.409 -2.4057 -0.836554 0
M  V30 9614 H 933.192 -3.39479 0.510785 0
M  V30 9615 N 935.637 0.236453 -1.55816 0
M  V30 9616 C 936.865 0.980295 -1.82203 0
M  V30 9617 C 937.28 1.7854 -0.613926 0
M  V30 9618 O 936.637 1.77661 0.417491 0
M  V30 9619 C 936.688 1.90982 -3.06933 0
M  V30 9620 O 936.409 1.13728 -4.23081 0
M  V30 9621 C 937.91 2.76879 -3.46198 0
M  V30 9622 H 935.13 0.28799 -0.606055 0
M  V30 9623 H 937.674 0.256182 -2.02889 0
M  V30 9624 H 935.829 2.58808 -2.88266 0
M  V30 9625 H 936.243 1.76694 -4.93842 0
M  V30 9626 H 937.717 3.37831 -4.36548 0
M  V30 9627 H 938.194 3.48522 -2.67262 0
M  V30 9628 H 938.8 2.1449 -3.67252 0
M  V30 9629 N 937.115 1.49373 0.502552 0
M  V30 9630 C 938.343 1.62488 1.28084 0
M  V30 9631 C 938.758 0.295667 1.86471 0
M  V30 9632 O 938.115 -0.718664 1.67754 0
M  V30 9633 C 938.166 2.69249 2.4122 0
M  V30 9634 O 937.887 3.97014 1.85234 0
M  V30 9635 C 939.388 2.93054 3.32617 0
M  V30 9636 H 936.608 0.547068 0.388533 0
M  V30 9637 H 939.152 1.95394 0.603452 0
M  V30 9638 H 937.307 2.39125 3.04792 0
M  V30 9639 H 937.721 4.55809 2.59496 0
M  V30 9640 H 939.195 3.71493 4.08285 0
M  V30 9641 H 939.672 2.02911 3.89517 0
M  V30 9642 H 940.278 3.24589 2.74813 0
M  V30 9643 N 938.594 -0.753485 1.38421 0
M  V30 9644 C 939.541 -1.86723 1.35659 0
M  V30 9645 C 940.511 -1.64648 0.219121 0
M  V30 9646 O 941.696 -1.86313 0.411366 0
M  V30 9647 C 938.836 -3.24023 1.18758 0
M  V30 9648 C 937.949 -3.57928 2.41892 0
M  V30 9649 C 937.084 -4.84532 2.17721 0
M  V30 9650 C 936.123 -5.11224 3.36626 0
M  V30 9651 N 935.26 -6.29023 3.11889 0
M  V30 9652 H 940.1 -1.88419 2.30873 0
M  V30 9653 H 937.637 -0.920934 1.14705 0
M  V30 9654 H 939.595 -4.03252 1.06974 0
M  V30 9655 H 938.225 -3.21654 0.27182 0
M  V30 9656 H 937.277 -2.73541 2.64347 0
M  V30 9657 H 938.589 -3.73581 3.30513 0
M  V30 9658 H 937.743 -5.71704 2.03074 0
M  V30 9659 H 936.482 -4.71018 1.26465 0
M  V30 9660 H 935.487 -4.2252 3.51791 0
M  V30 9661 H 936.712 -5.26635 4.28757 0
M  V30 9662 H 934.658 -6.16832 2.2328 0
M  V30 9663 H 934.575 -6.45177 3.9406 0
M  V30 9664 H 935.843 -7.19083 3.00898 0
M  V30 9665 N 940.072 -1.23292 -0.981677 0
M  V30 9666 C 941.02 -1.0104 -2.09508 0
M  V30 9667 C 942.014 0.0501977 -1.69326 0
M  V30 9668 O 943.22 -0.103197 -1.79704 0
M  V30 9669 H 939.595 -0.309629 -0.685298 0
M  V30 9670 H 941.566 -1.95493 -2.25444 0
M  V30 9671 C 940.315 -0.616885 -3.42184 0
M  V30 9672 H 939.638 -1.4247 -3.73554 0
M  V30 9673 H 941.078 -0.500688 -4.21033 0
M  V30 9674 C 939.537 0.674721 -3.30074 0
M  V30 9675 O 940.067 1.72421 -3.62814 0
M  V30 9676 N 938.273 0.650151 -2.83234 0
M  V30 9677 H 937.82 -0.204225 -2.56789 0
M  V30 9678 H 937.778 1.51458 -2.75514 0
M  V30 9679 N 941.55 1.18024 -1.04442 0
M  V30 9680 C 942.775 1.92573 -0.770097 0
M  V30 9681 C 943.2 1.75871 0.667169 0
M  V30 9682 O 942.558 1.07136 1.46258 0
M  V30 9683 C 942.606 3.41904 -1.14602 0
M  V30 9684 O 941.71 4.11491 -0.273712 0
M  V30 9685 H 941.051 0.600636 -0.283076 0
M  V30 9686 H 943.581 1.49645 -1.39526 0
M  V30 9687 H 943.591 3.92623 -1.10956 0
M  V30 9688 H 942.266 3.53382 -2.19304 0
M  V30 9689 H 940.843 3.71059 -0.370124 0
M  V30 9690 N 943.028 0.824394 1.34319 0
M  V30 9691 C 943.958 0.262077 2.32025 0
M  V30 9692 C 944.939 -0.622277 1.58309 0
M  V30 9693 O 946.124 -0.548848 1.86283 0
M  V30 9694 C 943.254 -0.57567 3.42496 0
M  V30 9695 C 942.208 0.21167 4.27476 0
M  V30 9696 C 941.534 -0.748913 5.29429 0
M  V30 9697 C 942.834 1.42068 5.02607 0
M  V30 9698 H 944.528 1.07842 2.79304 0
M  V30 9699 H 942.074 0.520022 1.34282 0
M  V30 9700 H 944.027 -0.979251 4.09864 0
M  V30 9701 H 942.751 -1.42508 2.93869 0
M  V30 9702 H 941.41 0.596636 3.61712 0
M  V30 9703 H 941.058 -1.59432 4.77064 0
M  V30 9704 H 940.758 -0.226313 5.87164 0
M  V30 9705 H 942.282 -1.15032 5.99667 0
M  V30 9706 H 943.696 1.09103 5.62823 0
M  V30 9707 H 942.093 1.87903 5.69923 0
M  V30 9708 H 943.163 2.1981 4.32217 0
M  V30 9709 N 944.506 -1.46559 0.579492 0
M  V30 9710 C 945.416 -2.34066 -0.15816 0
M  V30 9711 C 946.432 -1.49556 -0.88932 0
M  V30 9712 O 947.608 -1.82434 -0.853226 0
M  V30 9713 C 944.673 -3.26683 -1.161 0
M  V30 9714 C 943.734 -4.27092 -0.434855 0
M  V30 9715 C 942.967 -5.15283 -1.38992 0
M  V30 9716 O 943.19 -5.06345 -2.62623 0
M  V30 9717 O 942.124 -5.95099 -0.902253 0
M  V30 9718 H 945.95 -2.98488 0.560234 0
M  V30 9719 H 943.535 -1.45482 0.339918 0
M  V30 9720 H 945.417 -3.8383 -1.73932 0
M  V30 9721 H 944.092 -2.64862 -1.86091 0
M  V30 9722 H 942.999 -3.73641 0.185224 0
M  V30 9723 H 944.332 -4.9169 0.224031 0
M  V30 9724 N 945.984 -0.3171 -1.54377 0
M  V30 9725 C 947.212 0.289558 -2.04864 0
M  V30 9726 C 947.627 1.46284 -1.19359 0
M  V30 9727 O 946.984 1.81135 -0.222795 0
M  V30 9728 C 947.035 0.730273 -3.54047 0
M  V30 9729 O 946.756 -0.396325 -4.36304 0
M  V30 9730 C 948.257 1.40041 -4.20599 0
M  V30 9731 H 945.477 0.0605836 -0.668259 0
M  V30 9732 H 948.021 -0.461411 -1.99227 0
M  V30 9733 H 946.176 1.43123 -3.59992 0
M  V30 9734 H 946.59 -0.0502901 -5.24476 0
M  V30 9735 H 948.064 1.65979 -5.26455 0
M  V30 9736 H 948.541 2.34565 -3.71316 0
M  V30 9737 H 949.147 0.742206 -4.18774 0
M  V30 9738 N 947.462 1.57535 -0.0451378 0
M  V30 9739 C 948.392 2.14208 0.929372 0
M  V30 9740 C 949.373 1.06221 1.32858 0
M  V30 9741 O 950.558 1.34132 1.40436 0
M  V30 9742 C 947.688 2.68217 2.20629 0
M  V30 9743 C 946.642 3.81134 1.94734 0
M  V30 9744 C 945.968 4.21636 3.28828 0
M  V30 9745 C 947.268 5.06531 1.27374 0
M  V30 9746 H 948.962 2.95886 0.457348 0
M  V30 9747 H 946.508 1.42332 0.218544 0
M  V30 9748 H 948.461 3.06502 2.89196 0
M  V30 9749 H 947.185 1.83722 2.70026 0
M  V30 9750 H 945.844 3.43312 1.28579 0
M  V30 9751 H 945.492 3.34099 3.76014 0
M  V30 9752 H 945.192 4.97736 3.12302 0
M  V30 9753 H 946.716 4.62516 3.98637 0
M  V30 9754 H 948.13 5.423 1.85967 0
M  V30 9755 H 946.527 5.87735 1.21194 0
M  V30 9756 H 947.597 4.84261 0.248913 0
M  V30 9757 N 948.94 -0.228186 1.55939 0
M  V30 9758 C 949.87 -1.28607 1.94891 0
M  V30 9759 C 950.851 -1.49236 0.816245 0
M  V30 9760 O 952.036 -1.61531 1.07803 0
M  V30 9761 C 949.166 -2.63719 2.25986 0
M  V30 9762 C 948.12 -2.57757 3.4168 0
M  V30 9763 C 947.446 -3.96837 3.58364 0
M  V30 9764 C 948.746 -2.13116 4.76843 0
M  V30 9765 H 950.44 -0.962531 2.83506 0
M  V30 9766 H 947.986 -0.461577 1.36402 0
M  V30 9767 H 949.939 -3.37878 2.51826 0
M  V30 9768 H 948.663 -2.97747 1.34217 0
M  V30 9769 H 947.322 -1.86055 3.15878 0
M  V30 9770 H 946.97 -4.28162 2.63982 0
M  V30 9771 H 946.67 -3.93731 4.36176 0
M  V30 9772 H 948.194 -4.72668 3.86545 0
M  V30 9773 H 949.608 -2.77015 5.01932 0
M  V30 9774 H 948.005 -2.21083 5.57891 0
M  V30 9775 H 949.075 -1.08326 4.72645 0
M  V30 9776 N 950.418 -1.49637 -0.494624 0
M  V30 9777 C 951.648 -1.62928 -1.27036 0
M  V30 9778 C 952.056 -0.302464 -1.86767 0
M  V30 9779 O 951.399 0.722878 -1.68879 0
M  V30 9780 C 951.461 -2.64449 -2.43531 0
M  V30 9781 C 951.125 -4.08632 -2.0462 0
M  V30 9782 C 952.122 -4.95238 -1.58225 0
M  V30 9783 C 949.807 -4.54405 -2.1406 0
M  V30 9784 C 951.801 -6.25658 -1.21782 0
M  V30 9785 C 949.488 -5.84836 -1.77228 0
M  V30 9786 C 950.486 -6.70287 -1.31165 0
M  V30 9787 O 950.174 -7.98287 -0.948339 0
M  V30 9788 H 949.906 -0.551263 -0.391261 0
M  V30 9789 H 952.46 -1.96453 -0.599621 0
M  V30 9790 H 950.69 -2.26117 -3.137 0
M  V30 9791 H 952.379 -2.67203 -3.05545 0
M  V30 9792 H 953.145 -4.611 -1.50373 0
M  V30 9793 H 949.024 -3.88056 -2.48865 0
M  V30 9794 H 952.568 -6.92309 -0.857566 0
M  V30 9795 H 948.465 -6.18502 -1.84732 0
M  V30 9796 H 949.233 -8.11353 -1.07925 0
M  V30 9797 N 951.896 0.746133 -1.38819 0
M  V30 9798 C 952.843 1.86001 -1.36647 0
M  V30 9799 C 953.813 1.6453 -0.227849 0
M  V30 9800 O 954.998 1.86092 -0.421241 0
M  V30 9801 C 952.138 3.23388 -1.20474 0
M  V30 9802 C 951.251 3.5664 -2.43786 0
M  V30 9803 C 950.386 4.8337 -2.20287 0
M  V30 9804 C 949.425 5.09431 -3.39332 0
M  V30 9805 N 948.562 6.2736 -3.1522 0
M  V30 9806 H 953.402 1.87192 -2.31869 0
M  V30 9807 H 950.939 0.914838 -1.15192 0
M  V30 9808 H 952.897 4.02679 -1.09112 0
M  V30 9809 H 951.527 3.21505 -0.288874 0
M  V30 9810 H 950.579 2.72135 -2.65794 0
M  V30 9811 H 951.891 3.71823 -3.3249 0
M  V30 9812 H 951.045 5.70619 -2.06103 0
M  V30 9813 H 949.784 4.70341 -1.28961 0
M  V30 9814 H 948.789 4.20648 -3.54027 0
M  V30 9815 H 950.014 5.24354 -4.31544 0
M  V30 9816 H 947.96 6.15639 -2.26549 0
M  V30 9817 H 947.877 6.43078 -3.97476 0
M  V30 9818 H 949.145 7.17477 -3.04707 0
M  V30 9819 N 953.375 1.23811 0.975125 0
M  V30 9820 C 954.786 1.0675 1.53171 0
M  V30 9821 C 955.137 -0.363475 1.92804 0
M  V30 9822 O 954.262 -1.25089 1.76583 0
M  V30 9823 C 954.857 1.93161 2.78342 0
M  V30 9824 C 953.416 1.80346 3.30382 0
M  V30 9825 C 952.563 1.88544 2.03338 0
M  V30 9826 H 955.514 1.37396 0.79423 0
M  V30 9827 H 955.535 1.45951 3.51395 0
M  V30 9828 H 955.047 2.97302 2.49465 0
M  V30 9829 H 953.148 0.790077 3.64127 0
M  V30 9830 H 953.261 2.64026 3.99784 0
M  V30 9831 H 951.625 1.32186 2.17713 0
M  V30 9832 H 952.408 2.94252 1.76836 0
M  V30 9833 N 954.853 -1.17469 1.05066 0
M  V30 9834 C 956.099 -1.87976 0.761113 0
M  V30 9835 C 956.432 -1.80756 -0.709995 0
M  V30 9836 O 955.707 -1.21469 -1.51906 0
M  V30 9837 C 955.99 -3.38055 1.2406 0
M  V30 9838 C 955.843 -3.54032 2.77455 0
M  V30 9839 C 957.162 -4.32036 0.838612 0
M  V30 9840 H 954.281 -0.682573 0.277963 0
M  V30 9841 H 956.923 -1.38147 1.30443 0
M  V30 9842 H 955.073 -3.80622 0.778388 0
M  V30 9843 H 956.745 -3.20489 3.3179 0
M  V30 9844 H 954.988 -2.96352 3.16793 0
M  V30 9845 H 955.659 -4.59377 3.06066 0
M  V30 9846 H 958.135 -3.97303 1.23651 0
M  V30 9847 H 957.011 -5.35583 1.20173 0
M  V30 9848 H 957.272 -4.41349 -0.257498 0
M  V30 9849 N 956.331 -0.831506 -1.3388 0
M  V30 9850 C 957.608 -0.345907 -1.92517 0
M  V30 9851 C 957.988 1.16784 -1.75854 0
M  V30 9852 O 957.336 1.97889 -1.14245 0
M  V30 9853 C 957.546 -0.784692 -3.40064 0
M  V30 9854 C 958.894 -0.78846 -4.17215 0
M  V30 9855 O 959.918 -0.727823 -3.48685 0
M  V30 9856 O 958.777 -0.869481 -5.39539 0
M  V30 9857 H 955.871 -0.0963568 -0.821367 0
M  V30 9858 H 958.417 -0.916868 -1.42799 0
M  V30 9859 H 957.189 -1.82697 -3.46031 0
M  V30 9860 H 956.812 -0.189897 -3.97146 0
M  V30 9861 N 957.809 1.4625 -0.587256 0
M  V30 9862 C 959.225 1.57641 -0.249284 0
M  V30 9863 C 959.425 1.58169 1.24839 0
M  V30 9864 O 958.481 1.50109 2.03036 0
M  V30 9865 C 959.794 2.86837 -0.902509 0
M  V30 9866 C 961.342 3.00476 -0.876524 0
M  V30 9867 C 961.817 4.32414 -1.50938 0
M  V30 9868 N 963.308 4.39124 -1.47392 0
M  V30 9869 C 964.043 5.39838 -1.93293 0
M  V30 9870 N 963.539 6.47202 -2.47188 0
M  V30 9871 N 965.332 5.31068 -1.84183 0
M  V30 9872 H 957.483 1.44151 -1.55994 0
M  V30 9873 H 959.746 0.687905 -0.652297 0
M  V30 9874 H 959.452 2.92274 -1.95624 0
M  V30 9875 H 959.326 3.74927 -0.413466 0
M  V30 9876 H 961.713 2.94618 0.168601 0
M  V30 9877 H 961.794 2.1385 -1.40363 0
M  V30 9878 H 961.438 4.3903 -2.55372 0
M  V30 9879 H 961.368 5.17823 -0.957455 0
M  V30 9880 H 963.859 3.62138 -1.08002 0
M  V30 9881 H 964.172 7.20269 -2.80058 0
M  V30 9882 H 962.517 6.48009 -2.51216 0
M  V30 9883 H 965.708 4.46095 -1.41833 0
M  V30 9884 H 965.881 6.09414 -2.2027 0
M  V30 9885 N 959.287 0.325282 1.54207 0
M  V30 9886 C 960.533 -0.277185 2.00897 0
M  V30 9887 C 960.866 -1.51651 1.21308 0
M  V30 9888 O 960.141 -1.92237 0.295825 0
M  V30 9889 C 960.424 -0.60961 3.54902 0
M  V30 9890 C 960.277 0.640542 4.45216 0
M  V30 9891 C 961.596 -1.42656 4.16338 0
M  V30 9892 H 958.715 -0.0992722 0.730284 0
M  V30 9893 H 961.357 0.442201 1.84783 0
M  V30 9894 H 959.507 -1.22249 3.68765 0
M  V30 9895 H 961.179 1.27878 4.43221 0
M  V30 9896 H 959.422 1.26908 4.14821 0
M  V30 9897 H 960.093 0.363459 5.50802 0
M  V30 9898 H 962.569 -0.908494 4.06061 0
M  V30 9899 H 961.445 -1.62792 5.24204 0
M  V30 9900 H 961.706 -2.42321 3.69774 0
M  V30 9901 N 960.765 -1.57509 0.0534917 0
M  V30 9902 C 961.993 -1.97098 -0.629298 0
M  V30 9903 C 962.408 -0.931128 -1.64242 0
M  V30 9904 O 961.765 0.0843866 -1.82305 0
M  V30 9905 C 961.816 -3.36767 -1.31415 0
M  V30 9906 O 961.537 -4.36766 -0.341599 0
M  V30 9907 C 963.038 -3.91127 -2.08649 0
M  V30 9908 H 960.258 -0.648611 -0.171886 0
M  V30 9909 H 962.802 -2.04145 0.120479 0
M  V30 9910 H 960.957 -3.30863 -2.01515 0
M  V30 9911 H 961.371 -5.1788 -0.830715 0
M  V30 9912 H 962.845 -4.91129 -2.51985 0
M  V30 9913 H 963.322 -3.26679 -2.9356 0
M  V30 9914 H 963.928 -4.00376 -1.43456 0
M  V30 9915 N 962.243 0.219913 -1.56058 0
M  V30 9916 C 963.659 0.569685 -1.49086 0
M  V30 9917 C 963.859 1.87066 -0.748903 0
M  V30 9918 O 962.915 2.50838 -0.289235 0
M  V30 9919 C 964.228 0.647397 -2.93648 0
M  V30 9920 C 965.776 0.737914 -3.04177 0
M  V30 9921 C 966.251 0.846957 -4.50101 0
M  V30 9922 N 967.742 0.911136 -4.5415 0
M  V30 9923 C 968.477 1.01525 -5.64341 0
M  V30 9924 N 967.973 1.0832 -6.8428 0
M  V30 9925 N 969.766 1.05051 -5.52196 0
M  V30 9926 H 961.917 -0.633778 -2.02724 0
M  V30 9927 H 964.18 -0.222583 -0.921499 0
M  V30 9928 H 963.886 -0.238987 -3.50887 0
M  V30 9929 H 963.76 1.51046 -3.45637 0
M  V30 9930 H 966.147 1.61474 -2.47002 0
M  V30 9931 H 966.228 -0.150845 -2.55355 0
M  V30 9932 H 965.872 -0.0254166 -5.07894 0
M  V30 9933 H 965.802 1.75116 -4.96631 0
M  V30 9934 H 968.293 0.868869 -3.67776 0
M  V30 9935 H 968.606 1.16247 -7.64007 0
M  V30 9936 H 966.951 1.05231 -6.86987 0
M  V30 9937 H 970.142 0.994086 -4.57423 0
M  V30 9938 H 970.315 1.12819 -6.38103 0
M  V30 9939 N 963.721 1.49897 0.486681 0
M  V30 9940 C 964.946 1.64106 1.26823 0
M  V30 9941 C 965.371 0.317967 1.85393 0
M  V30 9942 O 964.729 -0.71626 1.66551 0
M  V30 9943 C 964.777 2.72301 2.36399 0
M  V30 9944 O 963.881 2.32469 3.40634 0
M  V30 9945 H 963.222 0.548794 0.373793 0
M  V30 9946 H 965.752 1.96177 0.581017 0
M  V30 9947 H 965.762 2.94906 2.81948 0
M  V30 9948 H 964.437 3.68335 1.93137 0
M  V30 9949 H 963.014 2.20251 3.00905 0
M  V30 9950 N 965.199 -0.738761 1.39212 0
M  V30 9951 C 966.427 -1.52801 1.39497 0
M  V30 9952 C 966.842 -1.88797 -0.0114917 0
M  V30 9953 O 966.199 -1.53835 -0.981887 0
M  V30 9954 C 966.25 -2.81793 2.2644 0
M  V30 9955 O 965.971 -2.47328 3.61608 0
M  V30 9956 C 967.472 -3.75844 2.35067 0
M  V30 9957 H 964.692 -0.472322 0.476606 0
M  V30 9958 H 967.236 -0.913153 1.8298 0
M  V30 9959 H 965.391 -3.3962 1.8638 0
M  V30 9960 H 965.805 -3.30162 4.07545 0
M  V30 9961 H 967.279 -4.6326 3.00157 0
M  V30 9962 H 967.756 -4.17329 1.3687 0
M  V30 9963 H 968.362 -3.23937 2.75581 0
M  V30 9964 N 966.677 -1.24326 -0.968545 0
M  V30 9965 C 967.607 -1.05951 -2.08079 0
M  V30 9966 C 968.588 0.0272666 -1.70078 0
M  V30 9967 O 969.773 -0.139644 -1.93697 0
M  V30 9968 C 966.903 -0.662623 -3.4092 0
M  V30 9969 C 965.857 -1.69807 -3.92873 0
M  V30 9970 C 965.183 -1.15628 -5.22048 0
M  V30 9971 C 966.483 -3.09383 -4.20808 0
M  V30 9972 H 968.177 -1.98984 -2.23709 0
M  V30 9973 H 965.723 -0.958112 -1.075 0
M  V30 9974 H 967.676 -0.521071 -4.18166 0
M  V30 9975 H 966.4 0.303399 -3.25188 0
M  V30 9976 H 965.059 -1.82783 -3.17783 0
M  V30 9977 H 964.707 -0.180888 -5.02675 0
M  V30 9978 H 964.407 -1.84822 -5.57776 0
M  V30 9979 H 965.931 -1.02683 -6.01904 0
M  V30 9980 H 967.345 -2.99642 -4.88761 0
M  V30 9981 H 965.742 -3.75923 -4.67763 0
M  V30 9982 H 966.812 -3.57486 -3.27616 0
M  V30 9983 N 968.156 1.1691 -1.05688 0
M  V30 9984 C 969.402 1.8757 -0.771071 0
M  V30 9985 C 969.735 1.8113 0.700399 0
M  V30 9986 O 969.01 1.22273 1.5126 0
M  V30 9987 C 969.293 3.37392 -1.25851 0
M  V30 9988 C 969.146 3.52556 -2.79329 0
M  V30 9989 C 970.465 4.31585 -0.861512 0
M  V30 9990 H 967.584 0.681089 -0.281579 0
M  V30 9991 H 970.226 1.37453 -1.31174 0
M  V30 9992 H 968.376 3.80204 -0.798563 0
M  V30 9993 H 970.048 3.18725 -3.33485 0
M  V30 9994 H 968.291 2.94668 -3.1836 0
M  V30 9995 H 968.962 4.57748 -3.08498 0
M  V30 9996 H 971.438 3.96642 -1.25756 0
M  V30 9997 H 970.314 5.34939 -1.23012 0
M  V30 9998 H 970.575 4.4148 0.234089 0
M  V30 9999 N 969.634 0.838594 1.33437 0
M  V30 10000 C 970.564 0.286672 2.31734 0
M  V30 10001 C 971.545 -0.605451 1.5896 0
M  V30 10002 O 972.73 -0.529059 1.86854 0
M  V30 10003 C 969.86 -0.539311 3.43087 0
M  V30 10004 C 968.814 0.256997 4.27228 0
M  V30 10005 C 968.14 -0.692718 5.30194 0
M  V30 10006 C 969.44 1.47391 5.01072 0
M  V30 10007 H 971.134 1.10798 2.78144 0
M  V30 10008 H 968.68 0.534235 1.33723 0
M  V30 10009 H 970.633 -0.935724 4.1088 0
M  V30 10010 H 969.357 -1.39383 2.95364 0
M  V30 10011 H 968.016 0.634967 3.61059 0
M  V30 10012 H 967.664 -1.54363 4.78729 0
M  V30 10013 H 967.364 -0.164023 5.87371 0
M  V30 10014 H 968.888 -1.08665 6.00853 0
M  V30 10015 H 970.302 1.15067 5.61634 0
M  V30 10016 H 968.699 1.93937 5.67898 0
M  V30 10017 H 969.769 2.24382 4.29861 0
M  V30 10018 N 971.112 -1.45937 0.595003 0
M  V30 10019 C 972.062 -2.27491 -0.152331 0
M  V30 10020 C 973.046 -1.36591 -0.850396 0
M  V30 10021 O 974.238 -1.60675 -0.742462 0
M  V30 10022 C 971.367 -3.23203 -1.15735 0
M  V30 10023 C 970.453 -4.2159 -0.46077 0
M  V30 10024 N 970.844 -5.03416 0.490555 0
M  V30 10025 C 969.142 -4.40313 -0.709949 0
M  V30 10026 C 969.843 -5.74714 0.898825 0
M  V30 10027 N 968.819 -5.43046 0.24529 0
M  V30 10028 H 972.621 -2.8815 0.578526 0
M  V30 10029 H 970.135 -1.56936 0.417716 0
M  V30 10030 H 972.132 -3.8035 -1.70704 0
M  V30 10031 H 970.792 -2.64104 -1.8889 0
M  V30 10032 H 971.803 -5.10597 0.866692 0
M  V30 10033 H 968.48 -3.92351 -1.42713 0
M  V30 10034 H 969.87 -6.50487 1.68273 0
M  V30 10035 N 972.59 -0.333456 -1.54032 0
M  V30 10036 C 973.867 0.320902 -1.9295 0
M  V30 10037 C 974.247 1.69071 -1.26405 0
M  V30 10038 O 973.595 2.24768 -0.411311 0
M  V30 10039 C 973.805 0.403257 -3.46662 0
M  V30 10040 C 975.153 0.658875 -4.19457 0
M  V30 10041 O 976.177 0.485781 -3.52872 0
M  V30 10042 O 975.036 0.993475 -5.37394 0
M  V30 10043 H 972.13 0.185158 -0.806006 0
M  V30 10044 H 974.676 -0.383895 -1.65301 0
M  V30 10045 H 973.448 -0.558409 -3.87295 0
M  V30 10046 H 973.071 1.15524 -3.80447 0
M  V30 10047 N 974.068 1.57479 -0.061844 0
M  V30 10048 C 974.998 2.15181 0.9066 0
M  V30 10049 C 975.979 1.07624 1.31724 0
M  V30 10050 O 977.164 1.35614 1.39006 0
M  V30 10051 C 974.294 2.70542 2.17771 0
M  V30 10052 C 973.248 3.83178 1.9068 0
M  V30 10053 C 972.574 4.25099 3.24337 0
M  V30 10054 C 973.874 5.07853 1.21994 0
M  V30 10055 H 975.568 2.96355 0.42594 0
M  V30 10056 H 973.114 1.42556 0.203435 0
M  V30 10057 H 975.067 3.09552 2.85929 0
M  V30 10058 H 973.791 1.86575 2.68062 0
M  V30 10059 H 972.45 3.44656 1.24931 0
M  V30 10060 H 972.098 3.38069 3.72449 0
M  V30 10061 H 971.798 5.01021 3.07005 0
M  V30 10062 H 973.322 4.66718 3.93709 0
M  V30 10063 H 974.736 5.44242 1.80204 0
M  V30 10064 H 973.133 5.88987 1.14954 0
M  V30 10065 H 974.203 4.84497 0.197536 0
M  V30 10066 N 975.546 -0.211634 1.56173 0
M  V30 10067 C 976.476 -1.26533 1.96244 0
M  V30 10068 C 977.457 -1.48362 0.832028 0
M  V30 10069 O 978.642 -1.60378 1.0951 0
M  V30 10070 C 975.772 -2.61307 2.2877 0
M  V30 10071 C 974.726 -2.54119 3.44395 0
M  V30 10072 C 974.052 -3.93014 3.62552 0
M  V30 10073 C 975.352 -2.08046 4.79076 0
M  V30 10074 H 977.046 -0.932407 2.84511 0
M  V30 10075 H 974.592 -0.447084 1.36884 0
M  V30 10076 H 976.545 -3.35188 2.55396 0
M  V30 10077 H 975.269 -2.96307 1.37367 0
M  V30 10078 H 973.928 -1.82694 3.17834 0
M  V30 10079 H 973.576 -4.25338 2.68508 0
M  V30 10080 H 973.276 -3.89083 4.40327 0
M  V30 10081 H 974.8 -4.68542 3.91537 0
M  V30 10082 H 976.214 -2.71676 5.04842 0
M  V30 10083 H 974.611 -2.15154 5.60204 0
M  V30 10084 H 975.681 -1.03306 4.73768 0
M  V30 10085 N 977.024 -1.50153 -0.478725 0
M  V30 10086 C 977.971 -1.68458 -1.57767 0
M  V30 10087 C 978.941 -0.5259 -1.57555 0
M  V30 10088 O 980.126 -0.755574 -1.75202 0
M  V30 10089 C 977.266 -1.77772 -2.95789 0
M  V30 10090 C 976.379 -3.05092 -3.05848 0
M  V30 10091 C 975.514 -3.05247 -4.34739 0
M  V30 10092 C 974.553 -4.27053 -4.38512 0
M  V30 10093 N 973.69 -4.24991 -5.58862 0
M  V30 10094 H 978.53 -2.62282 -1.41464 0
M  V30 10095 H 976.067 -1.30023 -0.687921 0
M  V30 10096 H 978.025 -1.81152 -3.75819 0
M  V30 10097 H 976.655 -0.873944 -3.10744 0
M  V30 10098 H 975.707 -3.11219 -2.1874 0
M  V30 10099 H 977.019 -3.95075 -3.04495 0
M  V30 10100 H 976.173 -3.07314 -5.23109 0
M  V30 10101 H 974.912 -2.13081 -4.38689 0
M  V30 10102 H 973.917 -4.25206 -3.4854 0
M  V30 10103 H 975.142 -5.20437 -4.36259 0
M  V30 10104 H 973.088 -3.35674 -5.63612 0
M  V30 10105 H 973.005 -5.08734 -5.59219 0
M  V30 10106 H 974.273 -4.31193 -6.49379 0
M  V30 10107 N 978.502 0.731368 -1.39602 0
M  V30 10108 C 979.452 1.83662 -1.35101 0
M  V30 10109 C 980.436 1.5923 -0.231241 0
M  V30 10110 O 981.628 1.70671 -0.469072 0
M  V30 10111 C 978.757 3.21629 -1.20041 0
M  V30 10112 C 977.843 3.51878 -2.36733 0
M  V30 10113 N 978.234 3.53041 -3.6221 0
M  V30 10114 C 976.532 3.82259 -2.2977 0
M  V30 10115 C 977.233 3.81188 -4.39398 0
M  V30 10116 N 976.209 3.99145 -3.69031 0
M  V30 10117 H 980.011 1.82871 -2.30077 0
M  V30 10118 H 977.525 0.929777 -1.3315 0
M  V30 10119 H 979.522 4.00754 -1.14899 0
M  V30 10120 H 978.182 3.23656 -0.260184 0
M  V30 10121 H 979.193 3.34266 -3.95584 0
M  V30 10122 H 975.87 3.9187 -1.44029 0
M  V30 10123 H 977.26 3.88525 -5.48177 0
M  V30 10124 N 979.98 1.24838 0.961938 0
M  V30 10125 C 981.208 1.11871 1.74047 0
M  V30 10126 C 981.623 -0.328209 1.85925 0
M  V30 10127 O 980.98 -1.22616 1.35173 0
M  V30 10128 C 981.031 1.75931 3.15801 0
M  V30 10129 O 980.752 3.14967 3.04512 0
M  V30 10130 C 982.253 1.68649 4.09966 0
M  V30 10131 H 979.473 0.390569 0.545616 0
M  V30 10132 H 982.017 1.65058 1.20732 0
M  V30 10133 H 980.172 1.26733 3.66084 0
M  V30 10134 H 980.586 3.46349 3.93882 0
M  V30 10135 H 982.06 2.18144 5.07067 0
M  V30 10136 H 982.537 0.648831 4.34381 0
M  V30 10137 H 983.143 2.17301 3.65596 0
M  V30 10138 N 981.458 -1.16348 1.06306 0
M  V30 10139 C 982.869 -1.68491 0.80422 0
M  V30 10140 C 983.22 -1.84327 -0.672159 0
M  V30 10141 O 982.345 -1.53892 -1.52139 0
M  V30 10142 C 982.94 -3.06048 1.45328 0
M  V30 10143 C 981.499 -3.55311 1.24221 0
M  V30 10144 C 980.646 -2.31291 1.5297 0
M  V30 10145 H 983.597 -1.00708 1.22652 0
M  V30 10146 H 983.618 -3.70451 0.868674 0
M  V30 10147 H 983.13 -2.9449 2.52779 0
M  V30 10148 H 981.231 -3.72128 0.187447 0
M  V30 10149 H 981.344 -4.37397 1.95502 0
M  V30 10150 H 979.708 -2.3631 0.950241 0
M  V30 10151 H 980.491 -2.22331 2.6158 0
M  V30 10152 N 982.937 -0.845659 -1.3299 0
M  V30 10153 C 983.9 -0.288905 -2.27372 0
M  V30 10154 C 984.9 0.546263 -1.51237 0
M  V30 10155 O 986.09 0.359072 -1.70459 0
M  V30 10156 C 983.222 0.59224 -3.35716 0
M  V30 10157 H 984.415 -1.12181 -2.78128 0
M  V30 10158 H 981.968 -0.619276 -1.43508 0
M  V30 10159 H 982.703 1.44732 -2.90212 0
M  V30 10160 H 982.488 -0.00543255 -3.921 0
M  V30 10161 H 983.978 0.974848 -4.06062 0
M  V30 10162 N 984.415 1.45619 -0.602734 0
M  V30 10163 C 985.64 2.07157 -0.100429 0
M  V30 10164 C 986.065 1.44524 1.20393 0
M  V30 10165 O 985.423 0.536191 1.7319 0
M  V30 10166 C 985.471 3.60587 0.0308604 0
M  V30 10167 O 984.575 3.97944 1.08234 0
M  V30 10168 H 983.916 0.6601 -0.0718643 0
M  V30 10169 H 986.446 1.86948 -0.831366 0
M  V30 10170 H 986.456 4.07348 0.230634 0
M  V30 10171 H 985.131 4.05561 -0.921581 0
M  V30 10172 H 983.708 3.62862 0.859414 0
M  V30 10173 N 985.893 0.34162 1.53853 0
M  V30 10174 C 986.843 -0.531995 2.21707 0
M  V30 10175 C 987.827 -1.06759 1.2038 0
M  V30 10176 O 989.019 -1.00161 1.45934 0
M  V30 10177 C 986.148 -1.6834 2.99193 0
M  V30 10178 C 985.234 -1.16184 4.07875 0
M  V30 10179 N 985.625 -0.361348 5.04508 0
M  V30 10180 C 983.923 -1.43891 4.22151 0
M  V30 10181 C 984.624 -0.0785378 5.81647 0
M  V30 10182 N 983.6 -0.669651 5.3946 0
M  V30 10183 H 987.402 0.0866825 2.93772 0
M  V30 10184 H 984.916 0.148386 1.61721 0
M  V30 10185 H 986.913 -2.32121 3.46303 0
M  V30 10186 H 985.573 -2.30538 2.28653 0
M  V30 10187 H 986.584 -0.00259906 5.179 0
M  V30 10188 H 983.261 -2.06542 3.62832 0
M  V30 10189 H 984.651 0.567068 6.69503 0
M  V30 10190 N 987.371 -1.57444 0.0701946 0
M  V30 10191 C 988.782 -1.80875 -0.462709 0
M  V30 10192 C 989.133 -0.983975 -1.69742 0
M  V30 10193 O 988.258 -0.206027 -2.15417 0
M  V30 10194 C 988.853 -3.28062 -0.84623 0
M  V30 10195 C 987.412 -3.52345 -1.32401 0
M  V30 10196 C 986.559 -2.7558 -0.308399 0
M  V30 10197 H 989.51 -1.55917 0.295907 0
M  V30 10198 H 989.531 -3.40023 -1.70776 0
M  V30 10199 H 989.043 -3.88064 0.0526033 0
M  V30 10200 H 987.144 -2.97645 -2.24139 0
M  V30 10201 H 987.257 -4.6104 -1.30304 0
M  V30 10202 H 985.621 -2.4229 -0.785337 0
M  V30 10203 H 986.404 -3.38319 0.582679 0
M  V30 10204 N 988.849 0.203349 -1.56283 0
M  V30 10205 C 990.126 0.950415 -1.70958 0
M  V30 10206 C 990.506 2.01708 -0.622647 0
M  V30 10207 O 989.854 2.25523 0.367635 0
M  V30 10208 C 990.064 1.54434 -3.12971 0
M  V30 10209 C 991.412 2.02964 -3.72949 0
M  V30 10210 O 992.436 1.64293 -3.16048 0
M  V30 10211 O 991.295 2.74097 -4.72793 0
M  V30 10212 H 988.389 0.445154 -0.69697 0
M  V30 10213 H 990.935 0.193695 -1.68591 0
M  V30 10214 H 989.707 0.77505 -3.83547 0
M  V30 10215 H 989.33 2.36611 -3.19532 0
M  V30 10216 N 990.327 1.50405 0.470755 0
M  V30 10217 C 991.277 1.65681 1.56633 0
M  V30 10218 C 992.261 0.511424 1.52556 0
M  V30 10219 O 993.453 0.765844 1.59574 0
M  V30 10220 C 990.582 1.7546 2.95074 0
M  V30 10221 C 989.668 2.95676 3.04034 0
M  V30 10222 N 990.059 4.1935 2.82807 0
M  V30 10223 C 988.357 2.94241 3.35169 0
M  V30 10224 C 989.058 5.0032 2.96741 0
M  V30 10225 N 988.034 4.34282 3.26956 0
M  V30 10226 H 991.836 2.58994 1.38922 0
M  V30 10227 H 989.35 1.47593 0.67749 0
M  V30 10228 H 991.347 1.84508 3.73848 0
M  V30 10229 H 990.007 0.833057 3.13832 0
M  V30 10230 H 991.018 4.48842 2.58382 0
M  V30 10231 H 987.695 2.11587 3.59913 0
M  V30 10232 H 989.085 6.08664 2.84566 0
M  V30 10233 N 991.805 -0.723954 1.39988 0
M  V30 10234 C 993.216 -1.30273 1.33738 0
M  V30 10235 C 993.567 -1.96199 0.00690581 0
M  V30 10236 O 992.692 -1.97016 -0.895179 0
M  V30 10237 C 993.287 -2.36889 2.42217 0
M  V30 10238 C 991.846 -2.90412 2.39453 0
M  V30 10239 C 990.993 -1.64103 2.2353 0
M  V30 10240 H 993.944 -0.520672 1.49916 0
M  V30 10241 H 993.965 -3.17538 2.09642 0
M  V30 10242 H 993.477 -1.88878 3.39038 0
M  V30 10243 H 991.578 -3.42674 1.46304 0
M  V30 10244 H 991.691 -3.42775 3.34727 0
M  V30 10245 H 990.055 -1.88855 1.70897 0
M  V30 10246 H 990.838 -1.18128 3.22336 0
M  V30 10247 N 993.283 -1.25346 -0.955304 0
M  V30 10248 C 994.213 -1.08152 -2.06943 0
M  V30 10249 C 995.194 0.00922598 -1.70097 0
M  V30 10250 O 996.379 -0.160181 -1.93538 0
M  V30 10251 C 993.509 -0.698745 -3.40198 0
M  V30 10252 C 992.463 -1.73965 -3.9105 0
M  V30 10253 C 991.789 -1.21158 -5.20792 0
M  V30 10254 C 993.089 -3.13829 -4.17503 0
M  V30 10255 H 994.783 -2.01345 -2.21586 0
M  V30 10256 H 992.329 -0.969459 -1.06478 0
M  V30 10257 H 994.282 -0.565394 -4.1759 0
M  V30 10258 H 993.006 0.268892 -3.25491 0
M  V30 10259 H 991.665 -1.86143 -3.15827 0
M  V30 10260 H 991.313 -0.234193 -5.02455 0
M  V30 10261 H 991.013 -1.90728 -5.55785 0
M  V30 10262 H 992.537 -1.09061 -6.00781 0
M  V30 10263 H 993.951 -3.04809 -4.85556 0
M  V30 10264 H 992.348 -3.80863 -4.63749 0
M  V30 10265 H 993.418 -3.6094 -3.23806 0
M  V30 10266 N 994.761 1.15782 -1.06922 0
M  V30 10267 C 995.691 2.22538 -0.707045 0
M  V30 10268 C 996.672 1.67371 0.303471 0
M  V30 10269 O 997.857 1.9339 0.177189 0
M  V30 10270 C 994.987 3.47158 -0.0994269 0
M  V30 10271 C 993.941 4.15257 -1.03661 0
M  V30 10272 C 993.267 5.33902 -0.291974 0
M  V30 10273 C 994.567 4.65516 -2.36837 0
M  V30 10274 H 996.261 2.53089 -1.59958 0
M  V30 10275 H 993.807 1.21649 -0.770552 0
M  V30 10276 H 995.76 4.21073 0.165852 0
M  V30 10277 H 994.484 3.15926 0.828155 0
M  V30 10278 H 993.143 3.43276 -1.28674 0
M  V30 10279 H 992.791 4.98926 0.638928 0
M  V30 10280 H 992.491 5.80407 -0.916613 0
M  V30 10281 H 994.015 6.1059 -0.0343915 0
M  V30 10282 H 995.429 5.30981 -2.16175 0
M  V30 10283 H 993.826 5.22666 -2.94856 0
M  V30 10284 H 994.896 3.81387 -2.99453 0
M  V30 10285 N 996.239 0.8527 1.3254 0
M  V30 10286 C 997.171 0.253181 2.27797 0
M  V30 10287 C 998.184 -0.573977 1.52346 0
M  V30 10288 O 999.373 -0.398786 1.73988 0
M  V30 10289 C 996.473 -0.661034 3.32391 0
M  V30 10290 C 995.646 0.12984 4.37207 0
M  V30 10291 C 994.705 -0.709837 5.2139 0
M  V30 10292 O 993.731 -0.144056 5.69018 0
M  V30 10293 N 994.933 -2.0249 5.44039 0
M  V30 10294 H 997.698 1.07171 2.79883 0
M  V30 10295 H 995.259 0.712491 1.45379 0
M  V30 10296 H 997.251 -1.22806 3.85617 0
M  V30 10297 H 995.821 -1.38025 2.80478 0
M  V30 10298 H 995.041 0.878289 3.84291 0
M  V30 10299 H 996.329 0.673141 5.04328 0
M  V30 10300 H 995.727 -2.50792 5.0707 0
M  V30 10301 H 994.284 -2.5401 6.00269 0
M  V30 10302 N 997.718 -1.45297 0.610449 0
M  V30 10303 C 998.995 -1.95562 0.0386189 0
M  V30 10304 C 999.375 -1.55284 -1.43004 0
M  V30 10305 O 998.723 -0.816785 -2.13403 0
M  V30 10306 C 998.933 -3.48176 0.239731 0
M  V30 10307 C 1000.28 -4.24425 0.122035 0
M  V30 10308 O 1001.3 -3.55794 0.170003 0
M  V30 10309 O 1000.16 -5.46499 0.00953695 0
M  V30 10310 H 997.258 -0.826296 -0.0341081 0
M  V30 10311 H 999.804 -1.55449 0.68071 0
M  V30 10312 H 998.576 -3.70471 1.25963 0
M  V30 10313 H 998.199 -3.95186 -0.437486 0
M  V30 10314 N 999.196 -0.349774 -1.5367 0
M  V30 10315 C 1000.16 0.491676 -2.23864 0
M  V30 10316 C 1001.16 1.02256 -1.24098 0
M  V30 10317 O 1002.35 0.910816 -1.48492 0
M  V30 10318 C 999.481 1.68557 -2.96313 0
M  V30 10319 H 1000.67 -0.12233 -2.9965 0
M  V30 10320 H 998.227 -0.101214 -1.55972 0
M  V30 10321 H 998.962 2.3381 -2.2473 0
M  V30 10322 H 998.747 1.31203 -3.69497 0
M  V30 10323 H 1000.24 2.28225 -3.49718 0
M  V30 10324 N 1000.67 1.57404 -0.0785433 0
M  V30 10325 C 1001.6 2.16131 0.883726 0
M  V30 10326 C 1002.58 1.09015 1.30575 0
M  V30 10327 O 1003.77 1.3708 1.37559 0
M  V30 10328 C 1000.9 2.72836 2.1489 0
M  V30 10329 C 999.854 3.85178 1.86605 0
M  V30 10330 C 999.18 4.28516 3.1981 0
M  V30 10331 C 1000.48 5.09118 1.16601 0
M  V30 10332 H 1002.17 2.9679 0.394484 0
M  V30 10333 H 999.72 1.42763 0.188304 0
M  V30 10334 H 1001.67 3.12567 2.8263 0
M  V30 10335 H 1000.4 1.89408 2.66068 0
M  V30 10336 H 999.056 3.45962 1.21268 0
M  V30 10337 H 998.704 3.42 3.68843 0
M  V30 10338 H 998.404 5.04249 3.01674 0
M  V30 10339 H 999.928 4.70868 3.88737 0
M  V30 10340 H 1001.34 5.46123 1.74422 0
M  V30 10341 H 999.739 5.90173 1.087 0
M  V30 10342 H 1000.81 4.8468 0.146138 0
M  V30 10343 N 1002.15 -0.195058 1.56388 0
M  V30 10344 C 1003.57 -0.545894 1.49974 0
M  V30 10345 C 1003.77 -1.85851 0.778568 0
M  V30 10346 O 1002.82 -2.50346 0.329105 0
M  V30 10347 C 1004.14 -0.600599 2.94641 0
M  V30 10348 C 1005.68 -0.689429 3.05313 0
M  V30 10349 C 1006.16 -0.775243 4.51391 0
M  V30 10350 N 1007.65 -0.838769 4.55542 0
M  V30 10351 C 1008.39 -0.925337 5.65884 0
M  V30 10352 N 1007.88 -0.974204 6.85916 0
M  V30 10353 N 1009.67 -0.962528 5.53798 0
M  V30 10354 H 1001.83 0.66595 2.0169 0
M  V30 10355 H 1004.09 0.237215 0.917842 0
M  V30 10356 H 1003.79 0.29478 3.50462 0
M  V30 10357 H 1003.67 -1.45528 3.47996 0
M  V30 10358 H 1006.06 -1.57524 2.4954 0
M  V30 10359 H 1006.14 0.191451 2.55083 0
M  V30 10360 H 1005.78 0.106215 5.07789 0
M  V30 10361 H 1005.71 -1.67193 4.99354 0
M  V30 10362 H 1008.2 -0.810249 3.69112 0
M  V30 10363 H 1008.51 -1.04077 7.6576 0
M  V30 10364 H 1006.86 -0.942881 6.88574 0
M  V30 10365 H 1010.05 -0.921188 4.58946 0
M  V30 10366 H 1010.22 -1.02653 6.39817 0
M  V30 10367 N 1003.63 -1.50653 -0.462772 0
M  V30 10368 C 1004.88 -1.61296 -1.21105 0
M  V30 10369 C 1005.19 -0.322757 -1.92919 0
M  V30 10370 O 1006.4 -0.308211 -2.69745 0
M  V30 10371 C 1004.85 -2.84752 -2.201 0
M  V30 10372 C 1004.46 -4.20681 -1.54051 0
M  V30 10373 C 1006.21 -3.04744 -2.95518 0
M  V30 10374 C 1004.11 -5.35314 -2.51381 0
M  V30 10375 H 1003.04 -0.60069 -0.455728 0
M  V30 10376 H 1005.69 -1.77093 -0.480656 0
M  V30 10377 H 1004.08 -2.62532 -2.96467 0
M  V30 10378 H 1005.25 -4.53187 -0.834168 0
M  V30 10379 H 1003.56 -4.06361 -0.908828 0
M  V30 10380 H 1006.16 -3.87559 -3.68378 0
M  V30 10381 H 1006.5 -2.16802 -3.55391 0
M  V30 10382 H 1007.04 -3.27185 -2.26263 0
M  V30 10383 H 1003.78 -6.25437 -1.96235 0
M  V30 10384 H 1003.3 -5.07216 -3.20144 0
M  V30 10385 H 1004.98 -5.66229 -3.1304 0
M  V30 10386 N 1005.11 0.71652 -1.4037 0
M  V30 10387 C 1006.33 1.51069 -1.42102 0
M  V30 10388 C 1006.76 1.88087 -0.0222387 0
M  V30 10389 O 1006.12 1.53204 0.969448 0
M  V30 10390 C 1006.16 2.76307 -2.31704 0
M  V30 10391 O 1005.27 3.72975 -1.75964 0
M  V30 10392 H 1004.61 0.455502 -0.483129 0
M  V30 10393 H 1007.14 0.882514 -1.84588 0
M  V30 10394 H 1007.15 3.24846 -2.46859 0
M  V30 10395 H 1005.82 2.48698 -3.3335 0
M  V30 10396 H 1004.4 3.31818 -1.70151 0
M  V30 10397 N 1006.59 1.25851 0.948643 0
M  V30 10398 C 1007.52 1.02549 2.04979 0
M  V30 10399 C 1008.53 -0.0115923 1.62796 0
M  V30 10400 O 1009.72 0.227643 1.77042 0
M  V30 10401 C 1006.82 0.529486 3.34738 0
M  V30 10402 C 1005.99 1.6341 4.05729 0
M  V30 10403 C 1005.05 1.13743 5.1376 0
M  V30 10404 O 1004.08 1.83303 5.38877 0
M  V30 10405 N 1005.28 -0.0181151 5.80497 0
M  V30 10406 H 1008.05 1.97365 2.25537 0
M  V30 10407 H 1005.61 1.17137 1.11761 0
M  V30 10408 H 1007.6 0.181566 4.04293 0
M  V30 10409 H 1006.17 -0.324893 3.10907 0
M  V30 10410 H 1005.39 2.15331 3.30191 0
M  V30 10411 H 1006.68 2.37603 4.49914 0
M  V30 10412 H 1006.07 -0.599198 5.62518 0
M  V30 10413 H 1004.63 -0.307019 6.51077 0
M  V30 10414 N 1008.06 -1.15214 1.07534 0
M  V30 10415 C 1009.01 -2.22078 0.69168 0
M  V30 10416 C 1010.01 -1.66751 -0.298382 0
M  V30 10417 O 1011.21 -1.7927 -0.161897 0
M  V30 10418 H 1007.59 -0.723347 0.205604 0
M  V30 10419 H 1009.56 -2.51716 1.60256 0
M  V30 10420 C 1008.31 -3.47534 0.107546 0
M  V30 10421 H 1007.63 -3.90429 0.860522 0
M  V30 10422 H 1009.07 -4.23821 -0.123215 0
M  V30 10423 C 1007.53 -3.16583 -1.15226 0
M  V30 10424 O 1008.06 -3.33551 -2.23845 0
M  V30 10425 N 1006.27 -2.70611 -1.05915 0
M  V30 10426 H 1005.81 -2.57004 -0.175198 0
M  V30 10427 H 1005.77 -2.50277 -1.90287 0
M  V30 10428 N 1009.54 -0.859717 -1.32086 0
M  V30 10429 C 1010.79 -0.465581 -1.97075 0
M  V30 10430 C 1011.12 0.979917 -1.68012 0
M  V30 10431 O 1010.37 1.70337 -0.96353 0
M  V30 10432 C 1010.67 -0.657397 -3.51302 0
M  V30 10433 C 1010.34 -2.07413 -4.00363 0
M  V30 10434 C 1009 -2.4616 -4.13472 0
M  V30 10435 C 1011.35 -2.99855 -4.26305 0
M  V30 10436 C 1008.68 -3.76611 -4.49868 0
M  V30 10437 C 1011.03 -4.2981 -4.64161 0
M  V30 10438 C 1009.7 -4.68485 -4.75476 0
M  V30 10439 H 1008.97 -0.170368 -0.721149 0
M  V30 10440 H 1011.61 -1.09074 -1.57401 0
M  V30 10441 H 1009.92 0.0509638 -3.91767 0
M  V30 10442 H 1011.61 -0.332416 -3.9962 0
M  V30 10443 H 1008.2 -1.76327 -3.90649 0
M  V30 10444 H 1012.39 -2.7115 -4.15682 0
M  V30 10445 H 1007.64 -4.06352 -4.56824 0
M  V30 10446 H 1011.82 -5.015 -4.83188 0
M  V30 10447 H 1009.45 -5.69612 -5.03435 0
M  V30 10448 N 1011.02 1.44971 -0.618145 0
M  V30 10449 C 1011.95 2.33357 0.0815955 0
M  V30 10450 C 1012.93 1.47451 0.848072 0
M  V30 10451 O 1014.12 1.762 0.816532 0
M  V30 10452 C 1011.25 3.30324 1.07253 0
M  V30 10453 C 1010.2 4.25948 0.418563 0
M  V30 10454 C 1009.53 5.12685 1.51849 0
M  V30 10455 C 1010.83 5.18024 -0.66697 0
M  V30 10456 H 1012.52 2.92115 -0.656442 0
M  V30 10457 H 1010.07 1.40465 -0.317129 0
M  V30 10458 H 1012.02 3.91033 1.57069 0
M  V30 10459 H 1010.74 2.69748 1.8413 0
M  V30 10460 H 1009.4 3.66553 -0.0588308 0
M  V30 10461 H 1009.05 4.4847 2.2778 0
M  V30 10462 H 1008.75 5.7747 1.08637 0
M  V30 10463 H 1010.27 5.76264 2.01871 0
M  V30 10464 H 1011.69 5.72744 -0.252448 0
M  V30 10465 H 1010.09 5.91343 -1.02146 0
M  V30 10466 H 1011.16 4.59817 -1.53936 0
M  V30 10467 N 1012.5 0.357919 1.53482 0
M  V30 10468 C 1013.72 -0.237769 2.06033 0
M  V30 10469 C 1014.15 -1.42292 1.23023 0
M  V30 10470 O 1013.51 -1.79604 0.247427 0
M  V30 10471 C 1013.55 -0.616806 3.55286 0
M  V30 10472 O 1012.66 -1.71503 3.75047 0
M  V30 10473 H 1012 -0.0364322 0.663 0
M  V30 10474 H 1014.53 0.516301 1.97979 0
M  V30 10475 H 1014.54 -0.88996 3.98175 0
M  V30 10476 H 1013.21 0.249825 4.15149 0
M  V30 10477 H 1011.79 -1.43803 3.44057 0
M  V30 10478 N 1013.98 -1.5736 0.0868897 0
M  V30 10479 C 1015.2 -1.98809 -0.590757 0
M  V30 10480 C 1015.63 -0.965407 -1.61436 0
M  V30 10481 O 1014.98 0.067143 -1.81176 0
M  V30 10482 C 1015.03 -3.39249 -1.22238 0
M  V30 10483 O 1014.14 -3.39706 -2.33824 0
M  V30 10484 H 1013.48 -0.64669 -0.150626 0
M  V30 10485 H 1016.01 -2.03927 0.165873 0
M  V30 10486 H 1016.02 -3.76765 -1.56564 0
M  V30 10487 H 1014.69 -4.13208 -0.472434 0
M  V30 10488 H 1013.27 -3.13977 -2.01178 0
M  V30 10489 N 1015.45 0.186762 -1.56489 0
M  V30 10490 C 1016.7 0.904077 -1.80303 0
M  V30 10491 C 1017.02 1.84073 -0.661538 0
M  V30 10492 O 1018.22 2.59928 -0.784197 0
M  V30 10493 C 1016.68 1.65806 -3.19432 0
M  V30 10494 C 1016.29 0.765807 -4.41406 0
M  V30 10495 C 1018.03 2.36451 -3.52549 0
M  V30 10496 C 1015.94 1.51913 -5.71556 0
M  V30 10497 H 1014.87 0.34133 -0.672317 0
M  V30 10498 H 1017.52 0.157218 -1.82825 0
M  V30 10499 H 1015.9 2.44911 -3.11183 0
M  V30 10500 H 1017.07 0.0128225 -4.60798 0
M  V30 10501 H 1015.39 0.169772 -4.16054 0
M  V30 10502 H 1017.99 2.93378 -4.47027 0
M  V30 10503 H 1018.33 3.11044 -2.7669 0
M  V30 10504 H 1018.86 1.64305 -3.62283 0
M  V30 10505 H 1015.6 0.815829 -6.50403 0
M  V30 10506 H 1015.12 2.24583 -5.56168 0
M  V30 10507 H 1016.8 2.07073 -6.12968 0
M  V30 10508 N 1016.93 1.50896 0.454776 0
M  V30 10509 C 1017.88 1.71497 1.57136 0
M  V30 10510 C 1018.87 0.58098 1.59126 0
M  V30 10511 O 1020.08 0.761916 1.63079 0
M  V30 10512 H 1016.46 0.54158 0.521724 0
M  V30 10513 H 1018.43 2.65129 1.36928 0
M  V30 10514 C 1017.18 1.84125 2.94947 0
M  V30 10515 H 1016.5 2.7078 2.9414 0
M  V30 10516 H 1017.94 2.02558 3.72487 0
M  V30 10517 C 1016.4 0.596752 3.31573 0
M  V30 10518 O 1016.93 -0.256632 4.00879 0
M  V30 10519 N 1015.13 0.445958 2.87158 0
M  V30 10520 H 1014.68 1.14146 2.30929 0
M  V30 10521 H 1014.64 -0.385519 3.12027 0
M  V30 10522 N 1018.41 -0.709066 1.40748 0
M  V30 10523 C 1019.32 -1.85314 1.43861 0
M  V30 10524 C 1020.34 -1.70832 0.330539 0
M  V30 10525 O 1021.51 -1.92983 0.576152 0
M  V30 10526 C 1018.58 -3.21174 1.30568 0
M  V30 10527 C 1017.64 -3.47863 2.51574 0
M  V30 10528 C 1016.87 -4.77241 2.38906 0
M  V30 10529 O 1017.09 -5.52791 1.40636 0
M  V30 10530 O 1016.03 -5.04413 3.28407 0
M  V30 10531 H 1019.85 -1.85644 2.40354 0
M  V30 10532 H 1017.44 -0.860352 1.2214 0
M  V30 10533 H 1019.32 -4.02313 1.25388 0
M  V30 10534 H 1018 -3.21557 0.371841 0
M  V30 10535 H 1016.9 -2.66708 2.62331 0
M  V30 10536 H 1018.24 -3.52283 3.43741 0
M  V30 10537 N 1019.89 -1.26353 -0.941956 0
M  V30 10538 C 1020.8 -1.09618 -2.07415 0
M  V30 10539 C 1021.82 -0.0298963 -1.73974 0
M  V30 10540 O 1022.99 -0.233466 -2.00042 0
M  V30 10541 C 1020.06 -0.73013 -3.38925 0
M  V30 10542 C 1019.12 -1.87574 -3.86153 0
M  V30 10543 C 1018.35 -1.52706 -5.11387 0
M  V30 10544 O 1018.57 -0.428438 -5.68789 0
M  V30 10545 O 1017.51 -2.36154 -5.53638 0
M  V30 10546 H 1021.33 -2.04598 -2.2444 0
M  V30 10547 H 1018.92 -1.05407 -1.05876 0
M  V30 10548 H 1020.8 -0.538684 -4.17943 0
M  V30 10549 H 1019.48 0.190282 -3.2314 0
M  V30 10550 H 1018.38 -2.12214 -3.08084 0
M  V30 10551 H 1019.72 -2.77585 -4.06457 0
M  V30 10552 N 1021.37 1.14642 -1.08144 0
M  V30 10553 C 1022.62 1.84964 -0.804437 0
M  V30 10554 C 1022.93 1.8369 0.672106 0
M  V30 10555 O 1024.14 2.49775 1.06417 0
M  V30 10556 C 1022.59 3.32015 -1.38904 0
M  V30 10557 C 1022.2 3.41713 -2.89718 0
M  V30 10558 C 1023.94 4.07467 -1.19041 0
M  V30 10559 C 1021.85 4.82958 -3.41329 0
M  V30 10560 H 1020.78 0.692932 -0.297256 0
M  V30 10561 H 1023.43 1.29255 -1.30251 0
M  V30 10562 H 1021.81 3.87445 -0.818679 0
M  V30 10563 H 1022.99 2.96347 -3.52867 0
M  V30 10564 H 1021.3 2.79713 -3.08463 0
M  V30 10565 H 1023.9 5.1172 -1.55069 0
M  V30 10566 H 1024.24 4.16097 -0.130027 0
M  V30 10567 H 1024.78 3.58329 -1.72757 0
M  V30 10568 H 1021.51 4.79515 -4.46929 0
M  V30 10569 H 1021.03 5.28873 -2.82937 0
M  V30 10570 H 1022.71 5.51841 -3.37759 0
M  V30 10571 N 1022.85 0.866709 1.31628 0
M  V30 10572 C 1024.07 0.49039 2.01004 0
M  V30 10573 C 1024.49 -0.916244 1.65077 0
M  V30 10574 O 1023.85 -1.59975 0.8783 0
M  V30 10575 C 1023.9 0.634011 3.55897 0
M  V30 10576 O 1023.62 1.98525 3.90537 0
M  V30 10577 C 1025.12 0.258277 4.42547 0
M  V30 10578 H 1022.34 0.191421 0.643117 0
M  V30 10579 H 1024.88 1.16698 1.67934 0
M  V30 10580 H 1023.04 0.00501801 3.874 0
M  V30 10581 H 1023.45 1.99067 4.85255 0
M  V30 10582 H 1024.93 0.409733 5.50477 0
M  V30 10583 H 1025.4 -0.802301 4.3181 0
M  V30 10584 H 1026.01 0.862837 4.16456 0
M  V30 10585 N 1024.32 -1.44642 0.625825 0
M  V30 10586 C 1025.73 -1.85502 0.211175 0
M  V30 10587 C 1026.09 -1.52356 -1.2362 0
M  V30 10588 O 1025.21 -0.959051 -1.93988 0
M  V30 10589 C 1025.81 -3.36702 0.37648 0
M  V30 10590 C 1024.36 -3.76396 0.0163795 0
M  V30 10591 C 1023.51 -2.68517 0.692368 0
M  V30 10592 H 1026.46 -1.35183 0.831333 0
M  V30 10593 H 1026.48 -3.78536 -0.386106 0
M  V30 10594 H 1026 -3.60795 1.42999 0
M  V30 10595 H 1024.1 -3.57919 -1.0356 0
M  V30 10596 H 1024.21 -4.77231 0.422742 0
M  V30 10597 H 1022.57 -2.54377 0.128191 0
M  V30 10598 H 1023.36 -2.95444 1.74837 0
M  V30 10599 N 1025.8 -0.366053 -1.5329 0
M  V30 10600 C 1027.22 -0.0150149 -1.59593 0
M  V30 10601 C 1027.42 1.46719 -1.38116 0
M  V30 10602 O 1026.47 2.22884 -1.18656 0
M  V30 10603 C 1027.79 -0.471374 -2.96982 0
M  V30 10604 C 1029.33 -0.425634 -3.10092 0
M  V30 10605 C 1029.81 -0.857812 -4.49895 0
M  V30 10606 N 1031.3 -0.81289 -4.56011 0
M  V30 10607 C 1032.04 -1.11898 -5.62376 0
M  V30 10608 N 1031.53 -1.49436 -6.76491 0
M  V30 10609 N 1033.32 -1.04174 -5.52362 0
M  V30 10610 H 1025.48 -1.33127 -1.65502 0
M  V30 10611 H 1027.74 -0.544172 -0.776261 0
M  V30 10612 H 1027.44 -1.50569 -3.1784 0
M  V30 10613 H 1027.32 0.141764 -3.76934 0
M  V30 10614 H 1029.71 0.599548 -2.88945 0
M  V30 10615 H 1029.79 -1.07427 -2.32149 0
M  V30 10616 H 1029.43 -1.88111 -4.7178 0
M  V30 10617 H 1029.36 -0.186419 -5.2627 0
M  V30 10618 H 1031.85 -0.536343 -3.74075 0
M  V30 10619 H 1032.16 -1.71217 -7.53594 0
M  V30 10620 H 1030.51 -1.53302 -6.77882 0
M  V30 10621 H 1033.7 -0.747654 -4.62091 0
M  V30 10622 H 1033.87 -1.28362 -6.35159 0
M  V30 10623 N 1027.28 1.57312 -0.0952337 0
M  V30 10624 C 1028.7 1.57445 0.261416 0
M  V30 10625 C 1028.9 1.10639 1.68408 0
M  V30 10626 O 1027.95 0.782912 2.40056 0
M  V30 10627 C 1029.26 3.00659 0.0497206 0
M  V30 10628 C 1030.81 3.1278 0.117459 0
M  V30 10629 C 1031.29 4.57952 -0.0662441 0
M  V30 10630 N 1032.78 4.63199 -0.0114146 0
M  V30 10631 C 1033.51 5.73255 -0.128799 0
M  V30 10632 N 1033.01 6.92146 -0.301026 0
M  V30 10633 N 1034.8 5.62056 -0.0700599 0
M  V30 10634 H 1026.95 1.86045 -1.02475 0
M  V30 10635 H 1029.22 0.858726 -0.401614 0
M  V30 10636 H 1028.92 3.39102 -0.932888 0
M  V30 10637 H 1028.8 3.68792 0.791975 0
M  V30 10638 H 1031.18 2.74209 1.09057 0
M  V30 10639 H 1031.26 2.47238 -0.656288 0
M  V30 10640 H 1030.91 4.97217 -1.03623 0
M  V30 10641 H 1030.84 5.21555 0.727198 0
M  V30 10642 H 1033.33 3.77712 0.119154 0
M  V30 10643 H 1033.64 7.71855 -0.382104 0
M  V30 10644 H 1031.99 6.94184 -0.336695 0
M  V30 10645 H 1035.18 4.68057 0.0633587 0
M  V30 10646 H 1035.35 6.4779 -0.164991 0
M  V30 10647 N 1028.76 -0.17846 1.56586 0
M  V30 10648 C 1029.69 -1.24547 1.92408 0
M  V30 10649 C 1030.7 -1.40849 0.816421 0
M  V30 10650 O 1031.89 -1.40979 1.09486 0
M  V30 10651 C 1028.99 -2.61523 2.15544 0
M  V30 10652 C 1028.16 -2.66613 3.46751 0
M  V30 10653 C 1027.22 -3.84901 3.588 0
M  V30 10654 O 1026.25 -3.71231 4.31482 0
M  V30 10655 N 1027.45 -5.0106 2.9312 0
M  V30 10656 H 1030.22 -0.941275 2.84535 0
M  V30 10657 H 1027.78 -0.368275 1.57656 0
M  V30 10658 H 1029.77 -3.3911 2.20876 0
M  V30 10659 H 1028.34 -2.84362 1.29835 0
M  V30 10660 H 1027.56 -1.75174 3.5314 0
M  V30 10661 H 1028.85 -2.67018 4.33104 0
M  V30 10662 H 1028.25 -5.15067 2.33928 0
M  V30 10663 H 1026.8 -5.76535 3.04057 0
M  V30 10664 N 1030.24 -1.51135 -0.446768 0
M  V30 10665 C 1031.46 -1.67411 -1.22427 0
M  V30 10666 C 1031.89 -0.367009 -1.84485 0
M  V30 10667 O 1031.24 0.67185 -1.68392 0
M  V30 10668 C 1031.29 -2.78473 -2.29096 0
M  V30 10669 O 1030.4 -2.41419 -3.34351 0
M  V30 10670 H 1029.74 -0.558512 -0.359111 0
M  V30 10671 H 1032.27 -1.97648 -0.5288 0
M  V30 10672 H 1032.28 -3.02277 -2.7403 0
M  V30 10673 H 1030.95 -3.73326 -1.83304 0
M  V30 10674 H 1029.53 -2.28152 -2.9496 0
M  V30 10675 N 1031.71 0.701592 -1.41122 0
M  V30 10676 C 1032.65 1.8257 -1.36907 0
M  V30 10677 C 1033.62 1.6086 -0.237245 0
M  V30 10678 O 1034.81 1.83688 -0.423182 0
M  V30 10679 C 1031.94 3.19149 -1.13408 0
M  V30 10680 C 1030.98 3.59661 -2.29229 0
M  V30 10681 S 1031.81 3.65161 -3.91685 0
M  V30 10682 C 1032.97 5.04477 -3.70478 0
M  V30 10683 H 1033.2 1.85867 -2.32036 0
M  V30 10684 H 1030.74 0.869726 -1.27574 0
M  V30 10685 H 1032.69 3.97998 -1.00537 0
M  V30 10686 H 1031.36 3.13468 -0.199099 0
M  V30 10687 H 1030.55 4.58866 -2.08466 0
M  V30 10688 H 1030.15 2.88105 -2.38477 0
M  V30 10689 H 1032.44 5.91803 -3.29811 0
M  V30 10690 H 1033.39 5.3028 -4.69264 0
M  V30 10691 H 1033.79 4.75731 -3.03876 0
M  V30 10692 N 1033.19 1.2685 0.935242 0
M  V30 10693 C 1034.42 1.15538 1.71635 0
M  V30 10694 C 1034.83 -0.288698 1.8658 0
M  V30 10695 O 1034.19 -1.19721 1.37743 0
M  V30 10696 C 1034.24 1.8259 3.11999 0
M  V30 10697 O 1033.96 3.21355 2.97763 0
M  V30 10698 C 1035.46 1.77307 4.06297 0
M  V30 10699 H 1032.68 0.402055 0.537208 0
M  V30 10700 H 1035.23 1.67582 1.17203 0
M  V30 10701 H 1033.38 1.3447 3.63313 0
M  V30 10702 H 1033.8 3.54626 3.86446 0
M  V30 10703 H 1035.27 2.28851 5.02326 0
M  V30 10704 H 1035.75 0.740823 4.32907 0
M  V30 10705 H 1036.35 2.25007 3.60904 0
M  V30 10706 N 1034.67 -1.14067 1.0875 0
M  V30 10707 C 1035.92 -1.85459 0.82053 0
M  V30 10708 C 1036.25 -1.82923 -0.65213 0
M  V30 10709 O 1035.52 -1.26241 -1.47965 0
M  V30 10710 C 1035.81 -3.33937 1.34752 0
M  V30 10711 C 1035.66 -3.45026 2.88578 0
M  V30 10712 C 1036.98 -4.2915 0.975636 0
M  V30 10713 H 1034.1 -0.673384 0.299538 0
M  V30 10714 H 1036.74 -1.33927 1.34772 0
M  V30 10715 H 1034.89 -3.77953 0.899086 0
M  V30 10716 H 1036.56 -3.09771 3.41818 0
M  V30 10717 H 1034.81 -2.86124 3.26061 0
M  V30 10718 H 1035.48 -4.49408 3.20526 0
M  V30 10719 H 1037.95 -3.93168 1.36228 0
M  V30 10720 H 1036.83 -5.31489 1.37152 0
M  V30 10721 H 1037.09 -4.41945 -0.116956 0
M  V30 10722 N 1036.15 -0.873678 -1.31166 0
M  V30 10723 C 1037.1 -0.330288 -2.28424 0
M  V30 10724 C 1038.07 0.573299 -1.55893 0
M  V30 10725 O 1039.25 0.504143 -1.84019 0
M  V30 10726 C 1036.39 0.459004 -3.42034 0
M  V30 10727 C 1035.5 -0.472519 -4.29408 0
M  V30 10728 C 1034.64 0.331261 -5.30166 0
M  V30 10729 C 1033.68 -0.596453 -6.09187 0
M  V30 10730 N 1032.81 0.171305 -7.01891 0
M  V30 10731 H 1037.65 -1.16485 -2.7429 0
M  V30 10732 H 1035.19 -0.585813 -1.34932 0
M  V30 10733 H 1037.15 0.932432 -4.06647 0
M  V30 10734 H 1035.78 1.25824 -2.97268 0
M  V30 10735 H 1034.83 -1.06441 -3.65205 0
M  V30 10736 H 1036.14 -1.18372 -4.84551 0
M  V30 10737 H 1035.3 0.867038 -6.00473 0
M  V30 10738 H 1034.04 1.07573 -4.75688 0
M  V30 10739 H 1033.04 -1.14395 -5.37767 0
M  V30 10740 H 1034.27 -1.33983 -6.65752 0
M  V30 10741 H 1032.21 0.89852 -6.49817 0
M  V30 10742 H 1032.13 -0.480481 -7.54472 0
M  V30 10743 H 1033.4 0.688192 -7.76456 0
M  V30 10744 N 1037.63 1.44308 -0.633487 0
M  V30 10745 C 1038.57 2.30694 0.0700257 0
M  V30 10746 C 1039.54 1.43618 0.834447 0
M  V30 10747 O 1040.73 1.72517 0.815014 0
M  V30 10748 C 1037.87 3.28929 1.04403 0
M  V30 10749 C 1036.98 4.31106 0.277779 0
M  V30 10750 C 1036.12 5.16433 1.24381 0
M  V30 10751 C 1035.16 6.10317 0.466855 0
M  V30 10752 N 1034.29 6.88335 1.38347 0
M  V30 10753 H 1039.13 2.90311 -0.672567 0
M  V30 10754 H 1036.67 1.43034 -0.343449 0
M  V30 10755 H 1038.63 3.84373 1.62214 0
M  V30 10756 H 1037.26 2.71006 1.75372 0
M  V30 10757 H 1036.31 3.78115 -0.416292 0
M  V30 10758 H 1037.62 4.97725 -0.327251 0
M  V30 10759 H 1036.78 5.76406 1.89318 0
M  V30 10760 H 1035.51 4.49893 1.88276 0
M  V30 10761 H 1034.52 5.49451 -0.195989 0
M  V30 10762 H 1035.74 6.78894 -0.167414 0
M  V30 10763 H 1033.69 6.24461 2.00959 0
M  V30 10764 H 1033.61 7.51402 0.832517 0
M  V30 10765 H 1034.88 7.52829 2.0216 0
M  V30 10766 N 1039.1 0.374177 1.53094 0
M  V30 10767 C 1040.35 -0.212396 2.00981 0
M  V30 10768 C 1040.67 -1.48576 1.26293 0
M  V30 10769 O 1039.94 -1.92206 0.378642 0
M  V30 10770 H 1038.52 -0.0814763 0.742543 0
M  V30 10771 H 1041.19 0.502389 1.88314 0
M  V30 10772 H 1040.28 -0.433316 3.09077 0
M  V30 10773 N 1040.58 -1.57259 0.103575 0
M  V30 10774 C 1041.49 -2.18018 -0.866327 0
M  V30 10775 C 1042.51 -1.15198 -1.30404 0
M  V30 10776 O 1043.68 -1.47605 -1.37021 0
M  V30 10777 C 1040.75 -2.75533 -2.10434 0
M  V30 10778 C 1039.81 -3.93337 -1.72002 0
M  V30 10779 C 1039.04 -4.481 -2.89901 0
M  V30 10780 O 1039.27 -4.01784 -4.04877 0
M  V30 10781 O 1038.2 -5.39004 -2.67877 0
M  V30 10782 H 1042.03 -3.01322 -0.379338 0
M  V30 10783 H 1039.61 -1.48907 -0.121228 0
M  V30 10784 H 1041.49 -3.12259 -2.8297 0
M  V30 10785 H 1040.17 -1.9527 -2.58169 0
M  V30 10786 H 1039.08 -3.61408 -0.966193 0
M  V30 10787 H 1040.41 -4.74989 -1.29022 0
M  V30 10788 N 1042.06 0.170153 -1.56679 0
M  V30 10789 C 1043.01 1.21531 -1.9291 0
M  V30 10790 C 1043.99 1.39742 -0.797553 0
M  V30 10791 O 1045.19 1.41693 -1.06075 0
M  V30 10792 C 1042.32 2.55447 -2.29351 0
M  V30 10793 C 1041.4 2.40925 -3.49022 0
M  V30 10794 N 1041.79 1.96118 -4.66231 0
M  V30 10795 C 1040.09 2.71747 -3.53652 0
M  V30 10796 C 1040.79 1.94086 -5.48366 0
M  V30 10797 N 1039.77 2.36533 -4.89441 0
M  V30 10798 H 1043.57 0.860602 -2.81018 0
M  V30 10799 H 1041.08 0.378415 -1.5793 0
M  V30 10800 H 1043.08 3.30972 -2.53502 0
M  V30 10801 H 1041.74 2.9172 -1.42583 0
M  V30 10802 H 1042.75 1.66438 -4.90427 0
M  V30 10803 H 1039.43 3.1205 -2.77365 0
M  V30 10804 H 1040.82 1.61132 -6.52293 0
M  V30 10805 N 1043.54 1.5137 0.438746 0
M  V30 10806 C 1044.95 1.39514 0.775116 0
M  V30 10807 C 1045.15 0.47638 1.95788 0
M  V30 10808 O 1044.21 -0.0689832 2.52406 0
M  V30 10809 C 1045.52 2.81517 1.05681 0
M  V30 10810 C 1047.07 2.90658 1.16133 0
M  V30 10811 C 1047.55 4.33566 1.47597 0
M  V30 10812 N 1049.04 4.36665 1.54524 0
M  V30 10813 C 1049.77 5.4427 1.80438 0
M  V30 10814 N 1049.27 6.62037 2.04154 0
M  V30 10815 N 1051.06 5.31749 1.82208 0
M  V30 10816 H 1043.21 2.09657 -0.340237 0
M  V30 10817 H 1045.48 0.943736 -0.0898115 0
M  V30 10818 H 1045.18 3.50734 0.260441 0
M  V30 10819 H 1045.06 3.20757 1.98481 0
M  V30 10820 H 1047.44 2.2164 1.94833 0
M  V30 10821 H 1047.52 2.54917 0.212376 0
M  V30 10822 H 1047.17 5.03133 0.694251 0
M  V30 10823 H 1047.1 4.66819 2.43696 0
M  V30 10824 H 1049.59 3.51761 1.38105 0
M  V30 10825 H 1049.9 7.39838 2.23293 0
M  V30 10826 H 1048.25 6.65155 2.01479 0
M  V30 10827 H 1051.44 4.3873 1.63198 0
M  V30 10828 H 1051.61 6.15689 2.02067 0
M  V30 10829 N 1045.02 -0.694098 1.41492 0
M  V30 10830 C 1045.95 -1.81943 1.39389 0
M  V30 10831 C 1046.96 -1.6009 0.295836 0
M  V30 10832 O 1048.15 -1.69565 0.557658 0
M  V30 10833 C 1045.25 -3.18731 1.15167 0
M  V30 10834 C 1044.42 -3.67601 2.37041 0
M  V30 10835 C 1043.48 -4.83063 2.08654 0
M  V30 10836 O 1042.51 -4.94603 2.81704 0
M  V30 10837 N 1043.71 -5.70409 1.0777 0
M  V30 10838 H 1046.48 -1.84239 2.36381 0
M  V30 10839 H 1044.04 -0.876475 1.36123 0
M  V30 10840 H 1046.03 -3.93602 0.941264 0
M  V30 10841 H 1044.6 -3.11452 0.267673 0
M  V30 10842 H 1043.82 -2.83622 2.73774 0
M  V30 10843 H 1045.11 -3.96991 3.18239 0
M  V30 10844 H 1044.5 -5.63718 0.473123 0
M  V30 10845 H 1043.06 -6.45172 0.927177 0
M  V30 10846 N 1046.49 -1.27344 -0.928501 0
M  V30 10847 C 1047.42 -1.12517 -2.04602 0
M  V30 10848 C 1048.41 -0.0268563 -1.70079 0
M  V30 10849 O 1049.59 -0.201197 -1.93155 0
M  V30 10850 C 1046.72 -0.770749 -3.3864 0
M  V30 10851 C 1045.67 -1.8222 -3.87272 0
M  V30 10852 C 1045 -1.32178 -5.18105 0
M  V30 10853 C 1046.3 -3.22614 -4.10752 0
M  V30 10854 H 1047.99 -2.06 -2.17265 0
M  V30 10855 H 1045.54 -0.991827 -1.04397 0
M  V30 10856 H 1047.49 -0.653843 -4.16297 0
M  V30 10857 H 1046.22 0.19979 -3.25988 0
M  V30 10858 H 1044.88 -1.928 -3.11807 0
M  V30 10859 H 1044.52 -0.340719 -5.01845 0
M  V30 10860 H 1044.22 -2.02474 -5.51614 0
M  V30 10861 H 1045.75 -1.2178 -5.98333 0
M  V30 10862 H 1047.16 -3.1504 -4.78981 0
M  V30 10863 H 1045.56 -3.90614 -4.55566 0
M  V30 10864 H 1046.63 -3.67727 -3.16077 0
M  V30 10865 N 1047.97 1.13488 -1.09353 0
M  V30 10866 C 1048.9 2.20988 -0.75409 0
M  V30 10867 C 1049.88 1.67977 0.267901 0
M  V30 10868 O 1051.07 1.93722 0.136128 0
M  V30 10869 C 1048.2 3.46869 -0.173042 0
M  V30 10870 C 1047.15 4.12965 -1.12446 0
M  V30 10871 C 1046.48 5.33163 -0.405157 0
M  V30 10872 C 1047.78 4.60388 -2.46658 0
M  V30 10873 H 1049.47 2.49639 -1.6529 0
M  V30 10874 H 1047.02 1.19987 -0.796182 0
M  V30 10875 H 1048.97 4.21331 0.0764988 0
M  V30 10876 H 1047.7 3.17611 0.760956 0
M  V30 10877 H 1046.35 3.40469 -1.35927 0
M  V30 10878 H 1046 5.00169 0.532955 0
M  V30 10879 H 1045.7 5.78332 -1.03952 0
M  V30 10880 H 1047.23 6.1038 -0.163899 0
M  V30 10881 H 1048.64 5.26276 -2.27389 0
M  V30 10882 H 1047.04 5.16294 -3.05876 0
M  V30 10883 H 1048.11 3.74949 -3.07476 0
M  V30 10884 N 1049.45 0.880621 1.30701 0
M  V30 10885 C 1050.4 0.342397 2.28246 0
M  V30 10886 C 1051.37 -0.565023 1.56194 0
M  V30 10887 O 1052.55 -0.494377 1.84284 0
M  V30 10888 C 1049.69 -0.440859 3.42272 0
M  V30 10889 C 1048.81 0.495284 4.29151 0
M  V30 10890 C 1047.94 -0.303141 5.30334 0
M  V30 10891 C 1046.98 0.628751 6.08862 0
M  V30 10892 N 1046.12 -0.13408 7.01972 0
M  V30 10893 H 1050.96 1.17938 2.73669 0
M  V30 10894 H 1048.49 0.59296 1.34619 0
M  V30 10895 H 1050.45 -0.910854 4.07135 0
M  V30 10896 H 1049.08 -1.24245 2.97931 0
M  V30 10897 H 1048.13 1.08376 3.64635 0
M  V30 10898 H 1049.45 1.2094 4.83916 0
M  V30 10899 H 1048.6 -0.835181 6.00924 0
M  V30 10900 H 1047.34 -1.05049 4.76252 0
M  V30 10901 H 1046.34 1.17246 5.37153 0
M  V30 10902 H 1047.57 1.37512 6.65032 0
M  V30 10903 H 1045.52 -0.864046 6.50285 0
M  V30 10904 H 1045.43 0.520486 7.54206 0
M  V30 10905 H 1046.7 -0.647005 7.7681 0
M  V30 10906 N 1050.93 -1.4397 0.641131 0
M  V30 10907 C 1052.21 -1.95436 0.0800918 0
M  V30 10908 C 1052.59 -1.58282 -1.39678 0
M  V30 10909 O 1051.93 -0.861867 -2.11623 0
M  V30 10910 C 1052.14 -3.47589 0.313531 0
M  V30 10911 C 1053.49 -4.2407 0.212034 0
M  V30 10912 O 1054.52 -3.55353 0.245434 0
M  V30 10913 O 1053.38 -5.46356 0.125455 0
M  V30 10914 H 1050.47 -0.826834 -0.0165735 0
M  V30 10915 H 1053.02 -1.5397 0.71353 0
M  V30 10916 H 1051.79 -3.67716 1.33793 0
M  V30 10917 H 1051.41 -3.96025 -0.353563 0
M  V30 10918 N 1052.41 -0.382291 -1.52893 0
M  V30 10919 C 1053.63 0.204961 -2.06385 0
M  V30 10920 C 1054.06 1.40316 -1.25271 0
M  V30 10921 O 1053.42 1.79187 -0.275969 0
M  V30 10922 C 1053.46 0.560205 -3.56222 0
M  V30 10923 O 1052.57 1.65515 -3.77728 0
M  V30 10924 H 1051.91 0.0258798 -0.663495 0
M  V30 10925 H 1054.44 -0.547733 -1.97132 0
M  V30 10926 H 1054.45 0.826501 -3.99541 0
M  V30 10927 H 1053.12 -0.31584 -4.14699 0
M  V30 10928 H 1051.7 1.38311 -3.46301 0
M  V30 10929 N 1053.89 1.57202 -0.111913 0
M  V30 10930 C 1055.13 1.9495 0.547795 0
M  V30 10931 C 1055.46 0.994763 1.67137 0
M  V30 10932 O 1054.72 0.0173528 1.95692 0
M  V30 10933 C 1055.01 3.39152 1.12741 0
M  V30 10934 C 1054.68 4.50724 0.125916 0
M  V30 10935 C 1053.34 4.80968 -0.149489 0
M  V30 10936 C 1055.69 5.18215 -0.556987 0
M  V30 10937 C 1053.02 5.76023 -1.1142 0
M  V30 10938 C 1055.37 6.14307 -1.51029 0
M  V30 10939 C 1054.04 6.42947 -1.79375 0
M  V30 10940 H 1053.31 0.713372 0.200453 0
M  V30 10941 H 1055.96 1.90542 -0.191316 0
M  V30 10942 H 1054.26 3.4022 1.94313 0
M  V30 10943 H 1055.96 3.65668 1.64584 0
M  V30 10944 H 1052.55 4.27162 0.350756 0
M  V30 10945 H 1056.73 4.95012 -0.357378 0
M  V30 10946 H 1051.99 5.9652 -1.34064 0
M  V30 10947 H 1056.16 6.65692 -2.04516 0
M  V30 10948 H 1053.79 7.1641 -2.54284 0
M  V30 10949 N 1055.36 -0.161842 1.56767 0
M  V30 10950 C 1056.3 -1.22927 1.9226 0
M  V30 10951 C 1057.27 -1.42309 0.786562 0
M  V30 10952 O 1058.46 -1.57163 1.04078 0
M  V30 10953 C 1055.59 -2.59069 2.18177 0
M  V30 10954 C 1054.63 -2.56368 3.40849 0
M  V30 10955 S 1055.46 -2.04518 4.94907 0
M  V30 10956 C 1056.62 -3.42418 5.23928 0
M  V30 10957 H 1056.85 -0.926377 2.82499 0
M  V30 10958 H 1054.39 -0.366822 1.49979 0
M  V30 10959 H 1056.34 -3.37421 2.33789 0
M  V30 10960 H 1055.01 -2.86554 1.28629 0
M  V30 10961 H 1054.2 -3.56551 3.56213 0
M  V30 10962 H 1053.8 -1.86116 3.24402 0
M  V30 10963 H 1056.09 -4.38461 5.16486 0
M  V30 10964 H 1057.04 -3.3192 6.25487 0
M  V30 10965 H 1057.44 -3.38868 4.51474 0
M  V30 10966 N 1056.84 -1.516 -0.430713 0
M  V30 10967 C 1058.09 -1.6484 -1.18134 0
M  V30 10968 C 1058.42 -0.366725 -1.90706 0
M  V30 10969 O 1057.7 0.63398 -1.83878 0
M  V30 10970 C 1057.98 -2.85617 -2.19306 0
M  V30 10971 C 1057.83 -4.23778 -1.50773 0
M  V30 10972 C 1059.15 -3.01909 -3.20217 0
M  V30 10973 H 1056.27 -0.599907 -0.428113 0
M  V30 10974 H 1058.91 -1.84102 -0.46973 0
M  V30 10975 H 1057.06 -2.69325 -2.79993 0
M  V30 10976 H 1058.73 -4.51752 -0.93371 0
M  V30 10977 H 1056.98 -4.26171 -0.809966 0
M  V30 10978 H 1057.65 -5.04291 -2.24487 0
M  V30 10979 H 1060.12 -3.16956 -2.69589 0
M  V30 10980 H 1059 -3.87968 -3.88293 0
M  V30 10981 H 1059.26 -2.1427 -3.86705 0
M  V30 10982 N 1058.32 0.686584 -1.41858 0
M  V30 10983 C 1059.23 1.83002 -1.46791 0
M  V30 10984 C 1060.25 1.70284 -0.357675 0
M  V30 10985 O 1061.42 1.92042 -0.606781 0
M  V30 10986 C 1058.49 3.19056 -1.35661 0
M  V30 10987 C 1057.55 3.43817 -2.57077 0
M  V30 10988 C 1056.78 4.7338 -2.46469 0
M  V30 10989 O 1057 5.50483 -1.49413 0
M  V30 10990 O 1055.94 4.99124 -3.36391 0
M  V30 10991 H 1059.76 1.81797 -2.43277 0
M  V30 10992 H 1057.35 0.840812 -1.23494 0
M  V30 10993 H 1059.23 4.00267 -1.31773 0
M  V30 10994 H 1057.91 3.20925 -0.422951 0
M  V30 10995 H 1056.81 2.625 -2.66541 0
M  V30 10996 H 1058.15 3.4677 -3.49302 0
M  V30 10997 N 1059.8 1.27835 0.921735 0
M  V30 10998 C 1060.73 1.136 2.04003 0
M  V30 10999 C 1061.71 0.0358756 1.70062 0
M  V30 11000 O 1062.89 0.211438 1.93046 0
M  V30 11001 C 1060.02 0.788697 3.38226 0
M  V30 11002 C 1058.98 1.84272 3.863 0
M  V30 11003 C 1058.3 1.34923 5.17397 0
M  V30 11004 C 1059.6 3.24788 4.09035 0
M  V30 11005 H 1061.3 2.07149 2.1617 0
M  V30 11006 H 1058.84 0.997349 1.0387 0
M  V30 11007 H 1060.8 0.675911 4.15944 0
M  V30 11008 H 1059.52 -0.182499 3.2609 0
M  V30 11009 H 1058.18 1.94451 3.1078 0
M  V30 11010 H 1057.83 0.367328 5.01657 0
M  V30 11011 H 1057.53 2.05397 5.50532 0
M  V30 11012 H 1059.05 1.24951 5.97678 0
M  V30 11013 H 1060.47 3.17575 4.77304 0
M  V30 11014 H 1058.86 3.93025 4.53488 0
M  V30 11015 H 1059.93 3.69398 3.14122 0
M  V30 11016 N 1061.28 -1.12907 1.09954 0
M  V30 11017 C 1062.52 -1.84579 0.840155 0
M  V30 11018 C 1062.85 -1.83605 -0.632692 0
M  V30 11019 O 1062.13 -1.27803 -1.46617 0
M  V30 11020 C 1062.41 -3.32489 1.38286 0
M  V30 11021 C 1062.27 -3.41946 2.92221 0
M  V30 11022 C 1063.58 -4.28091 1.0211 0
M  V30 11023 H 1060.7 -0.670169 0.306663 0
M  V30 11024 H 1063.35 -1.3249 1.36185 0
M  V30 11025 H 1061.5 -3.76978 0.939123 0
M  V30 11026 H 1063.17 -3.06128 3.45085 0
M  V30 11027 H 1061.41 -2.8265 3.29077 0
M  V30 11028 H 1062.08 -4.45983 3.25274 0
M  V30 11029 H 1064.56 -3.91701 1.4039 0
M  V30 11030 H 1063.43 -5.30005 1.42781 0
M  V30 11031 H 1063.69 -4.42044 -0.0700753 0
M  V30 11032 N 1062.75 -0.88754 -1.30232 0
M  V30 11033 C 1063.66 -0.360333 -2.31816 0
M  V30 11034 C 1064.68 0.538741 -1.6545 0
M  V30 11035 O 1065.86 0.431246 -1.96729 0
M  V30 11036 C 1062.92 0.414336 -3.44215 0
M  V30 11037 C 1061.98 -0.514799 -4.26202 0
M  V30 11038 C 1061.21 0.222994 -5.33234 0
M  V30 11039 O 1061.44 1.44871 -5.51696 0
M  V30 11040 O 1060.37 -0.428221 -6.00375 0
M  V30 11041 H 1064.2 -1.20279 -2.78867 0
M  V30 11042 H 1061.78 -0.651459 -1.34448 0
M  V30 11043 H 1063.66 0.852859 -4.12679 0
M  V30 11044 H 1062.34 1.23305 -2.99295 0
M  V30 11045 H 1061.25 -1.00219 -3.60426 0
M  V30 11046 H 1062.58 -1.29959 -4.74733 0
M  V30 11047 N 1064.23 1.43628 -0.648757 0
M  V30 11048 C 1065.48 2.01465 -0.16002 0
M  V30 11049 C 1065.8 1.51413 1.22878 0
M  V30 11050 O 1065.07 0.724919 1.81994 0
M  V30 11051 H 1063.65 0.744885 -0.0561672 0
M  V30 11052 H 1066.31 1.75897 -0.839422 0
M  V30 11053 H 1065.41 3.1178 -0.141213 0
M  V30 11054 N 1065.71 0.390394 1.52688 0
M  V30 11055 C 1066.67 -0.432149 2.25089 0
M  V30 11056 C 1067.67 -0.989296 1.26766 0
M  V30 11057 O 1068.86 -0.871126 1.50854 0
M  V30 11058 C 1066 -1.60642 3.00678 0
M  V30 11059 H 1067.19 0.201734 2.99221 0
M  V30 11060 H 1064.74 0.142531 1.55649 0
M  V30 11061 H 1065.48 -2.2777 2.3085 0
M  V30 11062 H 1065.26 -1.21361 3.72846 0
M  V30 11063 H 1066.75 -2.18873 3.55647 0
M  V30 11064 N 1067.19 -1.57141 0.120249 0
M  V30 11065 C 1068.6 -1.5784 -0.236335 0
M  V30 11066 C 1068.8 -1.13304 -1.66626 0
M  V30 11067 O 1067.86 -0.821004 -2.3878 0
M  V30 11068 C 1069.17 -3.007 -0.00188211 0
M  V30 11069 C 1070.72 -3.12927 -0.0676838 0
M  V30 11070 C 1071.2 -4.57789 0.139092 0
M  V30 11071 N 1072.69 -4.63122 0.085104 0
M  V30 11072 C 1073.42 -5.72978 0.219983 0
M  V30 11073 N 1072.92 -6.91579 0.411102 0
M  V30 11074 N 1074.71 -5.61874 0.159469 0
M  V30 11075 H 1066.86 -1.84391 1.05422 0
M  V30 11076 H 1069.13 -0.852228 0.415225 0
M  V30 11077 H 1068.83 -3.37575 0.986718 0
M  V30 11078 H 1068.71 -3.70005 -0.733203 0
M  V30 11079 H 1071.09 -2.75909 -1.04681 0
M  V30 11080 H 1071.17 -2.46162 0.695538 0
M  V30 11081 H 1070.82 -4.95506 1.1152 0
M  V30 11082 H 1070.75 -5.22646 -0.644131 0
M  V30 11083 H 1073.24 -3.77854 -0.0590479 0
M  V30 11084 H 1073.55 -7.71149 0.504851 0
M  V30 11085 H 1071.9 -6.9356 0.447091 0
M  V30 11086 H 1075.09 -4.68099 0.0111131 0
M  V30 11087 H 1075.26 -6.47445 0.268028 0
M  V30 11088 N 1068.67 0.153526 -1.5685 0
M  V30 11089 C 1069.61 1.18973 -1.97773 0
M  V30 11090 C 1070.58 1.43041 -0.844311 0
M  V30 11091 O 1071.77 1.55484 -1.10586 0
M  V30 11092 C 1068.91 2.51981 -2.35795 0
M  V30 11093 C 1068.02 2.35143 -3.62397 0
M  V30 11094 C 1067.16 3.61141 -3.89552 0
M  V30 11095 C 1066.2 3.39311 -5.09445 0
M  V30 11096 N 1065.33 4.57423 -5.32643 0
M  V30 11097 H 1070.17 0.833758 -2.86099 0
M  V30 11098 H 1067.71 0.400252 -1.4155 0
M  V30 11099 H 1069.67 3.29527 -2.55867 0
M  V30 11100 H 1068.3 2.85539 -1.50557 0
M  V30 11101 H 1067.35 1.48684 -3.50139 0
M  V30 11102 H 1068.66 2.14969 -4.501 0
M  V30 11103 H 1067.82 4.47117 -4.10087 0
M  V30 11104 H 1066.55 3.84312 -3.00259 0
M  V30 11105 H 1065.56 2.51723 -4.8879 0
M  V30 11106 H 1066.78 3.17545 -6.00285 0
M  V30 11107 H 1064.73 4.8078 -4.46303 0
M  V30 11108 H 1064.65 4.40228 -6.14602 0
M  V30 11109 H 1065.92 5.44632 -5.57671 0
M  V30 11110 N 1070.14 1.51827 0.422667 0
M  V30 11111 C 1071.07 1.77152 1.52117 0
M  V30 11112 C 1072.06 0.621895 1.58324 0
M  V30 11113 O 1073.24 0.866118 1.73816 0
M  V30 11114 C 1070.37 1.90991 2.90068 0
M  V30 11115 C 1069.32 3.06516 2.98717 0
M  V30 11116 C 1068.65 3.05559 4.38791 0
M  V30 11117 C 1069.95 4.46223 2.71445 0
M  V30 11118 H 1071.64 2.69135 1.31175 0
M  V30 11119 H 1069.19 1.29507 0.629607 0
M  V30 11120 H 1071.14 2.07291 3.6689 0
M  V30 11121 H 1069.87 0.956688 3.12274 0
M  V30 11122 H 1068.53 2.89945 2.24338 0
M  V30 11123 H 1068.17 2.07985 4.57986 0
M  V30 11124 H 1067.87 3.83144 4.45505 0
M  V30 11125 H 1069.4 3.23971 5.17566 0
M  V30 11126 H 1070.81 4.63069 3.37994 0
M  V30 11127 H 1069.21 5.25623 2.89552 0
M  V30 11128 H 1070.28 4.5525 1.6696 0
M  V30 11129 N 1071.62 -0.679052 1.4222 0
M  V30 11130 C 1073.04 -0.991665 1.25053 0
M  V30 11131 C 1073.24 -2.00928 0.151665 0
M  V30 11132 O 1072.29 -2.47925 -0.478507 0
M  V30 11133 C 1073.61 -1.50053 2.60585 0
M  V30 11134 C 1075.16 -1.61852 2.67905 0
M  V30 11135 C 1075.63 -2.16135 4.03794 0
M  V30 11136 N 1077.12 -2.23474 4.05726 0
M  V30 11137 C 1077.86 -2.66541 5.07685 0
M  V30 11138 N 1077.35 -3.09092 6.20028 0
M  V30 11139 N 1079.15 -2.66252 4.95042 0
M  V30 11140 H 1071.3 -0.00521851 2.12399 0
M  V30 11141 H 1073.56 -0.0648465 0.94578 0
M  V30 11142 H 1073.27 -0.82731 3.41831 0
M  V30 11143 H 1073.14 -2.47998 2.84213 0
M  V30 11144 H 1075.53 -2.28281 1.87008 0
M  V30 11145 H 1075.61 -0.624074 2.4807 0
M  V30 11146 H 1075.25 -1.50316 4.85147 0
M  V30 11147 H 1075.18 -3.16363 4.20978 0
M  V30 11148 H 1077.67 -1.93467 3.24621 0
M  V30 11149 H 1077.99 -3.40627 6.93681 0
M  V30 11150 H 1076.33 -3.06959 6.23539 0
M  V30 11151 H 1079.52 -2.32369 4.06352 0
M  V30 11152 H 1079.69 -2.99496 5.74636 0
M  V30 11153 N 1073.1 -1.28322 -0.914942 0
M  V30 11154 C 1074.05 -1.08788 -2.00373 0
M  V30 11155 C 1075.03 -0.0118996 -1.60896 0
M  V30 11156 O 1076.23 -0.231902 -1.75474 0
M  V30 11157 C 1073.36 -0.750508 -3.34996 0
M  V30 11158 C 1072.44 -1.86527 -3.80879 0
M  V30 11159 N 1072.83 -3.10672 -3.99145 0
M  V30 11160 C 1071.13 -1.75485 -4.10026 0
M  V30 11161 C 1071.83 -3.833 -4.37557 0
M  V30 11162 N 1070.81 -3.11141 -4.45749 0
M  V30 11163 H 1074.61 -2.02984 -2.12544 0
M  V30 11164 H 1072.12 -1.19224 -1.1027 0
M  V30 11165 H 1074.12 -0.591644 -4.1268 0
M  V30 11166 H 1072.78 0.183696 -3.2418 0
M  V30 11167 H 1073.79 -3.46295 -3.85097 0
M  V30 11168 H 1070.47 -0.89234 -4.07852 0
M  V30 11169 H 1071.86 -4.90061 -4.59662 0
M  V30 11170 N 1074.58 1.12322 -1.10551 0
M  V30 11171 C 1075.82 1.8413 -0.849932 0
M  V30 11172 C 1076.16 1.83938 0.622946 0
M  V30 11173 O 1075.43 1.28579 1.45937 0
M  V30 11174 C 1075.72 3.31751 -1.40048 0
M  V30 11175 C 1075.57 3.40391 -2.9403 0
M  V30 11176 C 1076.89 4.27543 -1.04379 0
M  V30 11177 H 1074.01 0.668533 -0.310213 0
M  V30 11178 H 1076.65 1.31766 -1.36886 0
M  V30 11179 H 1074.8 3.76475 -0.959102 0
M  V30 11180 H 1076.47 3.04294 -3.46703 0
M  V30 11181 H 1074.71 2.809 -3.30571 0
M  V30 11182 H 1075.38 4.44252 -3.27635 0
M  V30 11183 H 1077.86 3.90951 -1.42466 0
M  V30 11184 H 1076.74 5.2924 -1.4559 0
M  V30 11185 H 1077 4.42075 0.0466316 0
M  V30 11186 N 1076.06 0.894434 1.2976 0
M  V30 11187 C 1077.3 0.517669 1.95771 0
M  V30 11188 C 1077.63 -0.935028 1.70551 0
M  V30 11189 O 1076.89 -1.67722 1.00835 0
M  V30 11190 C 1077.19 0.750307 3.49435 0
M  V30 11191 C 1076.85 2.17955 3.94723 0
M  V30 11192 C 1075.51 2.57036 4.068 0
M  V30 11193 C 1077.87 3.11053 4.18205 0
M  V30 11194 C 1075.19 3.88406 4.39724 0
M  V30 11195 C 1077.55 4.41966 4.52602 0
M  V30 11196 C 1076.21 4.80927 4.62888 0
M  V30 11197 H 1075.48 0.189428 0.716378 0
M  V30 11198 H 1078.13 1.13209 1.54454 0
M  V30 11199 H 1076.43 0.0529242 3.91764 0
M  V30 11200 H 1078.13 0.438251 3.98598 0
M  V30 11201 H 1074.72 1.86622 3.85837 0
M  V30 11202 H 1078.9 2.82076 4.08347 0
M  V30 11203 H 1074.16 4.18321 4.4589 0
M  V30 11204 H 1078.33 5.14134 4.69722 0
M  V30 11205 H 1075.96 5.82759 4.88156 0
M  V30 11206 N 1077.53 -1.43282 0.656365 0
M  V30 11207 C 1078.46 -2.33492 -0.0196962 0
M  V30 11208 C 1079.45 -1.49647 -0.80868 0
M  V30 11209 O 1080.63 -1.78303 -0.769529 0
M  V30 11210 C 1077.76 -3.33052 -0.984574 0
M  V30 11211 C 1076.71 -4.26908 -0.305483 0
M  V30 11212 C 1076.04 -5.16531 -1.38202 0
M  V30 11213 C 1077.34 -5.16073 0.804081 0
M  V30 11214 H 1079.03 -2.90272 0.733661 0
M  V30 11215 H 1076.58 -1.39574 0.354259 0
M  V30 11216 H 1078.53 -3.9506 -1.46647 0
M  V30 11217 H 1077.26 -2.74535 -1.76913 0
M  V30 11218 H 1075.92 -3.66268 0.155995 0
M  V30 11219 H 1075.56 -4.54351 -2.1581 0
M  V30 11220 H 1075.26 -5.80148 -0.932878 0
M  V30 11221 H 1076.79 -5.81414 -1.86522 0
M  V30 11222 H 1078.2 -5.71873 0.404212 0
M  V30 11223 H 1076.6 -5.88427 1.17789 0
M  V30 11224 H 1077.67 -4.55574 1.66073 0
M  V30 11225 N 1079.01 -0.398486 -1.52479 0
M  V30 11226 C 1080.26 0.180752 -2.01692 0
M  V30 11227 C 1080.59 1.46044 -1.28457 0
M  V30 11228 O 1079.84 1.92051 -0.376162 0
M  V30 11229 C 1080.14 0.485909 -3.54081 0
M  V30 11230 C 1079.81 -0.703321 -4.45381 0
M  V30 11231 C 1078.47 -1.02955 -4.70057 0
M  V30 11232 C 1080.82 -1.49848 -4.99194 0
M  V30 11233 C 1078.15 -2.15231 -5.45795 0
M  V30 11234 C 1080.5 -2.61192 -5.76161 0
M  V30 11235 C 1079.17 -2.94313 -5.99113 0
M  V30 11236 H 1078.44 0.0661417 -0.738042 0
M  V30 11237 H 1081.08 -0.53772 -1.83796 0
M  V30 11238 H 1079.39 1.28582 -3.701 0
M  V30 11239 H 1081.09 0.946872 -3.89661 0
M  V30 11240 H 1077.68 -0.439062 -4.26345 0
M  V30 11241 H 1081.86 -1.25968 -4.80048 0
M  V30 11242 H 1077.12 -2.41252 -5.61789 0
M  V30 11243 H 1081.29 -3.23201 -6.16858 0
M  V30 11244 H 1078.92 -3.81431 -6.57583 0
M  V30 11245 N 1080.49 1.57075 -0.12858 0
M  V30 11246 C 1081.72 1.99876 0.534544 0
M  V30 11247 C 1082.13 1.00843 1.59612 0
M  V30 11248 O 1081.49 0.00268947 1.825 0
M  V30 11249 C 1081.54 3.42654 1.15198 0
M  V30 11250 O 1081.26 4.37899 0.132823 0
M  V30 11251 C 1082.76 4.00637 1.8975 0
M  V30 11252 H 1079.98 0.656073 0.140744 0
M  V30 11253 H 1082.53 2.03337 -0.217742 0
M  V30 11254 H 1080.68 3.40101 1.85499 0
M  V30 11255 H 1081.1 5.21253 0.582682 0
M  V30 11256 H 1082.57 5.02592 2.28266 0
M  V30 11257 H 1083.05 3.40313 2.7764 0
M  V30 11258 H 1083.65 4.06764 1.2419 0
M  V30 11259 N 1081.97 -0.145205 1.5693 0
M  V30 11260 C 1083.25 -0.88631 1.74367 0
M  V30 11261 C 1083.63 -1.99259 0.697081 0
M  V30 11262 O 1082.97 -2.26732 -0.28368 0
M  V30 11263 C 1083.18 -1.42712 3.18488 0
M  V30 11264 C 1084.53 -1.88982 3.80225 0
M  V30 11265 O 1085.56 -1.5245 3.21928 0
M  V30 11266 O 1084.42 -2.56361 4.8264 0
M  V30 11267 H 1081.51 -0.418979 0.713011 0
M  V30 11268 H 1084.06 -0.130991 1.69194 0
M  V30 11269 H 1082.83 -0.632165 3.8616 0
M  V30 11270 H 1082.45 -2.24589 3.28094 0
M  V30 11271 N 1083.45 -1.52049 -0.414609 0
M  V30 11272 C 1084.38 -1.77956 -1.51175 0
M  V30 11273 C 1085.36 -0.630282 -1.57992 0
M  V30 11274 O 1086.54 -0.875324 -1.73354 0
M  V30 11275 C 1083.67 -1.92527 -2.89051 0
M  V30 11276 C 1082.63 -3.08096 -2.97087 0
M  V30 11277 C 1081.95 -3.07882 -4.37164 0
M  V30 11278 C 1083.25 -4.47656 -2.69075 0
M  V30 11279 H 1084.95 -2.69827 -1.29746 0
M  V30 11280 H 1082.49 -1.29839 -0.62273 0
M  V30 11281 H 1084.45 -2.09234 -3.65786 0
M  V30 11282 H 1083.17 -0.973235 -3.11762 0
M  V30 11283 H 1081.83 -2.91131 -2.22797 0
M  V30 11284 H 1081.48 -2.10411 -4.56877 0
M  V30 11285 H 1081.18 -3.85501 -4.43467 0
M  V30 11286 H 1082.7 -3.26712 -5.15841 0
M  V30 11287 H 1084.12 -4.64855 -3.35534 0
M  V30 11288 H 1082.51 -5.27151 -2.8676 0
M  V30 11289 H 1083.58 -4.56129 -1.64544 0
M  V30 11290 N 1084.93 0.6715 -1.42579 0
M  V30 11291 C 1085.86 1.79693 -1.49107 0
M  V30 11292 C 1086.84 1.66516 -0.347338 0
M  V30 11293 O 1088.02 1.85887 -0.562094 0
M  V30 11294 C 1085.15 3.1801 -1.39596 0
M  V30 11295 C 1084.11 3.45926 -2.5203 0
M  V30 11296 C 1083.43 4.83852 -2.27577 0
M  V30 11297 C 1084.73 3.4249 -3.94333 0
M  V30 11298 H 1086.43 1.74486 -2.433 0
M  V30 11299 H 1083.97 0.838042 -1.17102 0
M  V30 11300 H 1085.92 3.96478 -1.42771 0
M  V30 11301 H 1084.65 3.23901 -0.418989 0
M  V30 11302 H 1083.31 2.6982 -2.48178 0
M  V30 11303 H 1082.96 4.86398 -1.28165 0
M  V30 11304 H 1082.66 5.03493 -3.02934 0
M  V30 11305 H 1084.18 5.646 -2.32506 0
M  V30 11306 H 1085.59 4.10922 -3.9977 0
M  V30 11307 H 1083.99 3.73666 -4.69568 0
M  V30 11308 H 1085.06 2.41002 -4.20768 0
M  V30 11309 N 1086.4 1.28806 0.908124 0
M  V30 11310 C 1087.33 1.15758 2.02787 0
M  V30 11311 C 1088.31 0.053911 1.70015 0
M  V30 11312 O 1089.5 0.231901 1.9281 0
M  V30 11313 C 1086.63 0.824526 3.37371 0
M  V30 11314 C 1085.58 1.88359 3.84324 0
M  V30 11315 C 1084.91 1.40404 5.15937 0
M  V30 11316 C 1086.21 3.29108 4.05568 0
M  V30 11317 H 1087.9 2.09431 2.13961 0
M  V30 11318 H 1085.45 1.00831 1.02806 0
M  V30 11319 H 1087.4 0.71999 4.15204 0
M  V30 11320 H 1086.13 -0.147902 3.26265 0
M  V30 11321 H 1084.79 1.97736 3.087 0
M  V30 11322 H 1084.43 0.420515 5.01239 0
M  V30 11323 H 1084.13 2.11224 5.48323 0
M  V30 11324 H 1085.66 1.31283 5.9632 0
M  V30 11325 H 1087.07 3.2262 4.73909 0
M  V30 11326 H 1085.47 3.97812 4.49294 0
M  V30 11327 H 1086.54 3.72709 3.10187 0
M  V30 11328 N 1087.88 -1.11734 1.11145 0
M  V30 11329 C 1089.12 -1.85039 0.868318 0
M  V30 11330 C 1089.49 -1.82538 -0.595294 0
M  V30 11331 O 1090.69 -2.5126 -0.955071 0
M  V30 11332 C 1088.96 -3.28381 1.4107 0
M  V30 11333 S 1090.52 -4.18973 1.3041 0
M  V30 11334 H 1087.33 -0.638114 0.313578 0
M  V30 11335 H 1089.94 -1.34548 1.41835 0
M  V30 11336 H 1088.64 -3.27764 2.46979 0
M  V30 11337 H 1088.17 -3.83939 0.857576 0
M  V30 11338 H 1090.19 -4.95483 0.266605 0
M  V30 11339 N 1089.36 -0.901303 -1.29284 0
M  V30 11340 C 1090.59 -0.543511 -1.99634 0
M  V30 11341 C 1091 0.872154 -1.67448 0
M  V30 11342 O 1090.36 1.57591 -0.920406 0
M  V30 11343 C 1090.41 -0.728148 -3.54091 0
M  V30 11344 O 1090.13 -2.08809 -3.85137 0
M  V30 11345 C 1091.63 -0.375519 -4.41707 0
M  V30 11346 H 1088.85 -0.208405 -0.637815 0
M  V30 11347 H 1091.4 -1.21109 -1.64781 0
M  V30 11348 H 1089.55 -0.107728 -3.8725 0
M  V30 11349 H 1089.97 -2.11863 -4.79807 0
M  V30 11350 H 1091.44 -0.555538 -5.49197 0
M  V30 11351 H 1091.92 0.687532 -4.33785 0
M  V30 11352 H 1092.52 -0.972949 -4.14021 0
M  V30 11353 N 1090.84 1.42931 -0.663954 0
M  V30 11354 C 1091.78 2.3079 0.0210764 0
M  V30 11355 C 1092.75 1.45356 0.803796 0
M  V30 11356 O 1093.94 1.74207 0.778237 0
M  V30 11357 C 1091.08 3.31069 0.974023 0
M  V30 11358 C 1090.19 4.31598 0.186273 0
M  V30 11359 C 1089.33 5.18955 1.13399 0
M  V30 11360 C 1088.37 6.1117 0.337292 0
M  V30 11361 N 1087.5 6.91114 1.23715 0
M  V30 11362 H 1092.34 2.88819 -0.733995 0
M  V30 11363 H 1089.88 1.42274 -0.373711 0
M  V30 11364 H 1091.84 3.87727 1.54024 0
M  V30 11365 H 1090.47 2.74665 1.69585 0
M  V30 11366 H 1089.52 3.77147 -0.496402 0
M  V30 11367 H 1090.83 4.96919 -0.432753 0
M  V30 11368 H 1089.99 5.80292 1.77049 0
M  V30 11369 H 1088.73 4.53785 1.78691 0
M  V30 11370 H 1087.73 5.48911 -0.312492 0
M  V30 11371 H 1088.96 6.78386 -0.31138 0
M  V30 11372 H 1086.9 6.28583 1.87668 0
M  V30 11373 H 1086.82 7.52999 0.672946 0
M  V30 11374 H 1088.09 7.56948 1.86146 0
M  V30 11375 N 1092.32 0.406567 1.52266 0
M  V30 11376 C 1093.25 -0.411314 2.29849 0
M  V30 11377 C 1094.23 -1.04838 1.33952 0
M  V30 11378 O 1095.41 -1.05788 1.62857 0
M  V30 11379 C 1092.54 -1.52961 3.11802 0
M  V30 11380 C 1091.5 -1.01768 4.15725 0
M  V30 11381 C 1090.82 -2.22938 4.86007 0
M  V30 11382 C 1092.12 -0.073515 5.22248 0
M  V30 11383 H 1093.82 0.236054 2.98468 0
M  V30 11384 H 1091.36 0.114968 1.4354 0
M  V30 11385 H 1093.31 -2.10874 3.64843 0
M  V30 11386 H 1092.04 -2.20482 2.40947 0
M  V30 11387 H 1090.7 -0.46097 3.6369 0
M  V30 11388 H 1090.35 -2.89007 4.11684 0
M  V30 11389 H 1090.05 -1.89338 5.5626 0
M  V30 11390 H 1091.57 -2.81462 5.41859 0
M  V30 11391 H 1092.98 -0.561367 5.70545 0
M  V30 11392 H 1091.38 0.173551 5.99849 0
M  V30 11393 H 1092.45 0.872524 4.76985 0
M  V30 11394 N 1093.79 -1.57004 0.136909 0
M  V30 11395 C 1094.74 -2.16246 -0.806607 0
M  V30 11396 C 1095.71 -1.09246 -1.25118 0
M  V30 11397 O 1096.9 -1.3724 -1.32551 0
M  V30 11398 C 1094.04 -2.78031 -2.04433 0
M  V30 11399 C 1093.15 -3.99393 -1.64649 0
M  V30 11400 C 1092.28 -4.49208 -2.83524 0
M  V30 11401 C 1091.32 -5.63059 -2.40064 0
M  V30 11402 N 1090.46 -6.07537 -3.51913 0
M  V30 11403 H 1095.3 -2.9654 -0.294596 0
M  V30 11404 H 1092.84 -1.46491 -0.133705 0
M  V30 11405 H 1094.8 -3.11992 -2.76978 0
M  V30 11406 H 1093.43 -2.00398 -2.53062 0
M  V30 11407 H 1092.48 -3.71477 -0.819077 0
M  V30 11408 H 1093.79 -4.81904 -1.28723 0
M  V30 11409 H 1092.94 -4.85171 -3.64271 0
M  V30 11410 H 1091.68 -3.65683 -3.22688 0
M  V30 11411 H 1090.69 -5.26682 -1.57754 0
M  V30 11412 H 1091.91 -6.48362 -2.01997 0
M  V30 11413 H 1089.86 -5.2695 -3.90717 0
M  V30 11414 H 1089.78 -6.84949 -3.1997 0
M  V30 11415 H 1091.04 -6.48143 -4.33048 0
M  V30 11416 N 1095.27 0.136881 -1.57004 0
M  V30 11417 C 1096.22 1.16869 -1.99023 0
M  V30 11418 C 1097.19 1.42137 -0.859435 0
M  V30 11419 O 1098.37 1.54303 -1.12229 0
M  V30 11420 C 1095.51 2.49466 -2.38455 0
M  V30 11421 C 1094.63 2.31286 -3.64871 0
M  V30 11422 C 1093.76 3.56989 -3.9336 0
M  V30 11423 C 1092.8 3.33889 -5.13015 0
M  V30 11424 N 1091.94 4.51748 -5.37464 0
M  V30 11425 H 1096.78 0.803366 -2.86967 0
M  V30 11426 H 1094.32 0.385216 -1.41967 0
M  V30 11427 H 1096.27 3.26794 -2.59348 0
M  V30 11428 H 1094.9 2.83926 -1.53577 0
M  V30 11429 H 1093.96 1.44962 -3.51696 0
M  V30 11430 H 1095.27 2.10183 -4.52355 0
M  V30 11431 H 1094.42 4.42742 -4.14806 0
M  V30 11432 H 1093.16 3.81106 -3.04318 0
M  V30 11433 H 1092.17 2.46525 -4.91432 0
M  V30 11434 H 1093.39 3.1116 -6.03619 0
M  V30 11435 H 1091.34 4.76019 -4.51377 0
M  V30 11436 H 1091.25 4.33684 -6.19237 0
M  V30 11437 H 1092.52 5.38686 -5.63416 0
M  V30 11438 N 1096.75 1.52266 0.40654 0
M  V30 11439 C 1097.68 1.72025 1.51459 0
M  V30 11440 C 1098.7 0.600667 1.51314 0
M  V30 11441 O 1099.88 0.875894 1.55532 0
M  V30 11442 C 1096.98 1.7479 2.90348 0
M  V30 11443 C 1096.16 3.03826 3.14656 0
M  V30 11444 C 1095.22 2.98369 4.33431 0
M  V30 11445 O 1094.24 3.7227 4.30586 0
M  V30 11446 N 1095.44 2.16338 5.38682 0
M  V30 11447 H 1098.21 2.67622 1.34903 0
M  V30 11448 H 1095.77 1.50536 0.595867 0
M  V30 11449 H 1097.76 1.68667 3.67877 0
M  V30 11450 H 1096.33 0.86656 3.00349 0
M  V30 11451 H 1095.55 3.23577 2.25148 0
M  V30 11452 H 1096.84 3.89182 3.27742 0
M  V30 11453 H 1096.24 1.55731 5.43842 0
M  V30 11454 H 1094.8 2.1607 6.14945 0
M  V30 11455 N 1098.23 -0.663929 1.42933 0
M  V30 11456 C 1099.45 -1.45691 1.47611 0
M  V30 11457 C 1099.88 -1.87875 0.0920305 0
M  V30 11458 O 1099.24 -1.56696 -0.91192 0
M  V30 11459 C 1099.28 -2.67517 2.41799 0
M  V30 11460 O 1098.39 -3.66187 1.89686 0
M  V30 11461 H 1097.73 -0.437257 0.499702 0
M  V30 11462 H 1100.26 -0.813397 1.87737 0
M  V30 11463 H 1100.27 -3.1546 2.58745 0
M  V30 11464 H 1098.94 -2.36155 3.4235 0
M  V30 11465 H 1097.52 -3.25274 1.82349 0
M  V30 11466 N 1099.71 -1.29285 -0.901281 0
M  V30 11467 C 1100.95 -1.16934 -1.64836 0
M  V30 11468 C 1101.28 0.279826 -1.92982 0
M  V30 11469 O 1100.55 1.19179 -1.55478 0
M  V30 11470 H 1099.13 -0.429768 -0.61099 0
M  V30 11471 H 1101.79 -1.62189 -1.08077 0
M  V30 11472 H 1100.88 -1.71821 -2.60545 0
M  V30 11473 N 1101.18 1.11143 -1.11736 0
M  V30 11474 C 1102.43 1.82586 -0.866412 0
M  V30 11475 C 1102.75 1.85227 0.609593 0
M  V30 11476 O 1102.02 1.32505 1.44288 0
M  V30 11477 H 1100.6 0.676149 -0.31754 0
M  V30 11478 H 1103.27 1.34516 -1.41037 0
M  V30 11479 H 1102.36 2.8635 -1.24136 0
M  V30 11480 N 1102.66 0.908147 1.28804 0
M  V30 11481 C 1103.61 0.390734 2.27468 0
M  V30 11482 C 1104.58 -0.531765 1.57358 0
M  V30 11483 O 1105.76 -0.455177 1.85291 0
M  V30 11484 C 1102.9 -0.368159 3.43131 0
M  V30 11485 C 1102.02 0.586202 4.28004 0
M  V30 11486 C 1101.15 -0.190581 5.30858 0
M  V30 11487 C 1100.19 0.757758 6.07391 0
M  V30 11488 N 1099.33 0.0148488 7.02098 0
M  V30 11489 H 1104.17 1.23717 2.71105 0
M  V30 11490 H 1101.71 0.621382 1.33331 0
M  V30 11491 H 1103.66 -0.824289 4.08976 0
M  V30 11492 H 1102.29 -1.17898 3.00499 0
M  V30 11493 H 1101.35 1.16086 3.62254 0
M  V30 11494 H 1102.66 1.31177 4.81242 0
M  V30 11495 H 1101.81 -0.707528 6.0256 0
M  V30 11496 H 1100.55 -0.949234 4.78373 0
M  V30 11497 H 1099.56 1.28613 5.34545 0
M  V30 11498 H 1100.78 1.51588 6.61965 0
M  V30 11499 H 1098.73 -0.725916 6.51971 0
M  V30 11500 H 1098.64 0.680347 7.52932 0
M  V30 11501 H 1099.91 -0.482086 7.78008 0
M  V30 11502 N 1104.14 -1.42577 0.671525 0
M  V30 11503 C 1105.37 -2.05924 0.200731 0
M  V30 11504 C 1105.78 -1.50434 -1.14083 0
M  V30 11505 O 1105.14 -0.642845 -1.70803 0
M  V30 11506 C 1105.19 -3.61289 0.123505 0
M  V30 11507 O 1104.91 -4.1472 1.41205 0
M  V30 11508 C 1106.41 -4.41743 -0.371178 0
M  V30 11509 H 1103.63 -0.663746 0.0983958 0
M  V30 11510 H 1106.18 -1.82771 0.917338 0
M  V30 11511 H 1104.33 -3.83565 -0.543769 0
M  V30 11512 H 1104.75 -5.0856 1.28325 0
M  V30 11513 H 1106.22 -5.50731 -0.374128 0
M  V30 11514 H 1106.7 -4.16092 -1.40585 0
M  V30 11515 H 1107.3 -4.24478 0.264244 0
M  V30 11516 N 1105.62 -0.414636 -1.52048 0
M  V30 11517 C 1106.55 0.443601 -2.24866 0
M  V30 11518 C 1107.56 1.00556 -1.28032 0
M  V30 11519 O 1108.75 0.903566 -1.53941 0
M  V30 11520 C 1105.85 1.63004 -2.97124 0
M  V30 11521 C 1105.03 1.191 -4.20873 0
M  V30 11522 C 1104.08 2.24497 -4.75907 0
M  V30 11523 O 1103.11 1.84861 -5.38345 0
M  V30 11524 N 1104.31 3.56727 -4.57959 0
M  V30 11525 H 1107.08 -0.180393 -2.99157 0
M  V30 11526 H 1104.64 -0.242305 -1.60077 0
M  V30 11527 H 1106.63 2.33089 -3.30835 0
M  V30 11528 H 1105.2 2.15984 -2.25986 0
M  V30 11529 H 1104.42 0.318059 -3.92915 0
M  V30 11530 H 1105.71 0.874699 -5.01225 0
M  V30 11531 H 1105.11 3.91675 -4.08175 0
M  V30 11532 H 1103.66 4.22772 -4.96092 0
M  V30 11533 N 1107.1 1.56929 -0.145233 0
M  V30 11534 C 1108.03 2.13796 0.826078 0
M  V30 11535 C 1109.04 1.08697 1.21197 0
M  V30 11536 O 1110.23 1.3598 1.15635 0
M  V30 11537 C 1107.33 2.6443 2.11967 0
M  V30 11538 C 1106.5 3.9391 1.90142 0
M  V30 11539 C 1105.56 4.29872 3.03474 0
M  V30 11540 O 1104.59 4.98227 2.75242 0
M  V30 11541 N 1105.79 3.8931 4.30602 0
M  V30 11542 H 1108.56 2.97764 0.340073 0
M  V30 11543 H 1106.12 1.61854 0.0383928 0
M  V30 11544 H 1108.11 2.85502 2.86829 0
M  V30 11545 H 1106.68 1.85196 2.51836 0
M  V30 11546 H 1105.9 3.81481 0.993268 0
M  V30 11547 H 1107.19 4.78523 1.72896 0
M  V30 11548 H 1106.58 3.34229 4.56407 0
M  V30 11549 H 1105.14 4.15438 5.0225 0
M  V30 11550 N 1108.58 -0.128553 1.57075 0
M  V30 11551 C 1109.81 -0.851214 1.8825 0
M  V30 11552 C 1110.21 -1.74402 0.733531 0
M  V30 11553 O 1109.56 -1.81149 -0.305108 0
M  V30 11554 C 1109.62 -1.74451 3.14336 0
M  V30 11555 C 1109.28 -1.02699 4.45311 0
M  V30 11556 C 1110.28 -0.37224 5.18566 0
M  V30 11557 C 1107.96 -1.01101 4.9202 0
M  V30 11558 C 1109.96 0.2889 6.36745 0
M  V30 11559 C 1107.65 -0.346063 6.10119 0
M  V30 11560 C 1108.64 0.302744 6.82329 0
M  V30 11561 O 1108.33 0.9571 7.98182 0
M  V30 11562 H 1108.06 -0.250529 0.627863 0
M  V30 11563 H 1110.62 -0.120418 2.05047 0
M  V30 11564 H 1108.85 -2.51671 2.93596 0
M  V30 11565 H 1110.54 -2.34075 3.31608 0
M  V30 11566 H 1111.3 -0.376271 4.83538 0
M  V30 11567 H 1107.18 -1.50543 4.35727 0
M  V30 11568 H 1110.73 0.795901 6.93045 0
M  V30 11569 H 1106.62 -0.339762 6.44605 0
M  V30 11570 H 1107.39 0.860616 8.13963 0
M  V30 11571 N 1110.05 -1.5248 -0.398459 0
M  V30 11572 C 1111.33 -1.57634 -1.15805 0
M  V30 11573 C 1111.71 -0.363785 -2.07942 0
M  V30 11574 O 1111.06 0.648598 -2.19101 0
M  V30 11575 C 1111.27 -2.91042 -1.92602 0
M  V30 11576 C 1112.62 -3.44433 -2.48296 0
M  V30 11577 O 1113.64 -2.92853 -2.0277 0
M  V30 11578 O 1112.5 -4.34529 -3.31432 0
M  V30 11579 H 1109.59 -0.63539 -0.529347 0
M  V30 11580 H 1112.14 -1.64812 -0.404376 0
M  V30 11581 H 1110.91 -3.7074 -1.25169 0
M  V30 11582 H 1110.53 -2.87206 -2.74952 0
M  V30 11583 N 1111.53 0.65634 -1.43283 0
M  V30 11584 C 1112.77 1.4281 -1.46235 0
M  V30 11585 C 1113.14 1.9182 -0.0830126 0
M  V30 11586 O 1114.34 2.68797 0.0127701 0
M  V30 11587 C 1112.61 2.58008 -2.47319 0
M  V30 11588 S 1114.17 3.46582 -2.69122 0
M  V30 11589 H 1110.98 0.487523 -0.517534 0
M  V30 11590 H 1113.59 0.762298 -1.80026 0
M  V30 11591 H 1112.29 2.20271 -3.46279 0
M  V30 11592 H 1111.82 3.29441 -2.15016 0
M  V30 11593 H 1113.84 4.54629 -1.98813 0
M  V30 11594 N 1113.01 1.29761 0.894412 0
M  V30 11595 C 1113.96 1.15341 1.99912 0
M  V30 11596 C 1114.93 0.0453488 1.66038 0
M  V30 11597 O 1116.11 0.213829 1.89598 0
M  V30 11598 C 1113.25 0.841432 3.34685 0
M  V30 11599 C 1112.36 2.03046 3.81309 0
M  V30 11600 C 1111.5 1.65739 5.04682 0
M  V30 11601 C 1110.54 2.81191 5.43689 0
M  V30 11602 N 1109.68 2.44244 6.58247 0
M  V30 11603 H 1114.52 2.09854 2.11578 0
M  V30 11604 H 1112.05 1.04421 1.03608 0
M  V30 11605 H 1114.01 0.641211 4.12243 0
M  V30 11606 H 1112.64 -0.066797 3.22731 0
M  V30 11607 H 1111.69 2.34222 2.9974 0
M  V30 11608 H 1113 2.89538 4.06164 0
M  V30 11609 H 1112.16 1.42036 5.8984 0
M  V30 11610 H 1110.9 0.764019 4.81678 0
M  V30 11611 H 1109.9 3.0557 4.57064 0
M  V30 11612 H 1111.13 3.712 5.68672 0
M  V30 11613 H 1109.07 1.57402 6.36837 0
M  V30 11614 H 1108.99 3.24269 6.82924 0
M  V30 11615 H 1110.26 2.23875 7.46659 0
M  V30 11616 N 1114.49 -1.10549 1.12324 0
M  V30 11617 C 1115.73 -1.82941 0.889043 0
M  V30 11618 C 1116.09 -1.83483 -0.578935 0
M  V30 11619 O 1115.38 -1.28365 -1.42243 0
M  V30 11620 C 1115.58 -3.28997 1.39626 0
M  V30 11621 C 1115.4 -3.42683 2.91202 0
M  V30 11622 C 1114.17 -3.55164 3.59426 0
M  V30 11623 C 1116.37 -3.36187 3.89208 0
M  V30 11624 N 1114.35 -3.57414 4.99128 0
M  V30 11625 C 1115.73 -3.45168 5.15033 0
M  V30 11626 C 1117.78 -3.19778 3.81637 0
M  V30 11627 C 1116.48 -3.39431 6.34176 0
M  V30 11628 C 1118.51 -3.15362 5.003 0
M  V30 11629 C 1117.87 -3.24924 6.24983 0
M  V30 11630 H 1113.97 -0.684249 0.378585 0
M  V30 11631 H 1116.55 -1.32206 1.42932 0
M  V30 11632 H 1114.73 -3.78228 0.883051 0
M  V30 11633 H 1116.46 -3.89343 1.10425 0
M  V30 11634 H 1113.21 -3.5812 3.09914 0
M  V30 11635 H 1113.64 -3.62153 5.71991 0
M  V30 11636 H 1118.28 -3.11264 2.86137 0
M  V30 11637 H 1116 -3.46711 7.29943 0
M  V30 11638 H 1119.58 -3.03819 4.96171 0
M  V30 11639 H 1118.46 -3.21508 7.15264 0
M  V30 11640 N 1115.97 -0.914965 -1.28321 0
M  V30 11641 C 1117.2 -0.563835 -1.98757 0
M  V30 11642 C 1117.6 0.859528 -1.68549 0
M  V30 11643 O 1116.95 1.58105 -0.935336 0
M  V30 11644 C 1117.01 -0.694539 -3.52727 0
M  V30 11645 C 1116.67 -2.08767 -4.06528 0
M  V30 11646 C 1117.67 -3.06052 -4.20272 0
M  V30 11647 C 1115.35 -2.40118 -4.4119 0
M  V30 11648 C 1117.35 -4.32803 -4.67932 0
M  V30 11649 C 1115.04 -3.67108 -4.88544 0
M  V30 11650 C 1116.03 -4.63265 -5.01871 0
M  V30 11651 O 1115.72 -5.87997 -5.48192 0
M  V30 11652 H 1115.45 -0.213557 -0.641381 0
M  V30 11653 H 1118.01 -1.23062 -1.64453 0
M  V30 11654 H 1116.24 0.0293186 -3.86689 0
M  V30 11655 H 1117.93 -0.350335 -4.04385 0
M  V30 11656 H 1118.69 -2.8315 -3.93765 0
M  V30 11657 H 1114.57 -1.66025 -4.30066 0
M  V30 11658 H 1118.12 -5.07861 -4.78249 0
M  V30 11659 H 1114.01 -3.89834 -5.14489 0
M  V30 11660 H 1114.78 -5.90804 -5.66474 0
M  V30 11661 N 1117.44 1.42219 -0.679077 0
M  V30 11662 C 1118.69 2.00703 -0.200309 0
M  V30 11663 C 1119.01 1.54339 1.20161 0
M  V30 11664 O 1120.21 2.0527 1.77698 0
M  V30 11665 C 1118.67 3.58586 -0.307248 0
M  V30 11666 C 1118.28 4.13937 -1.71349 0
M  V30 11667 C 1120.02 4.24351 0.112588 0
M  V30 11668 C 1117.93 5.64198 -1.77297 0
M  V30 11669 H 1116.86 0.750638 -0.0711279 0
M  V30 11670 H 1119.51 1.62893 -0.844881 0
M  V30 11671 H 1117.89 3.93921 0.40529 0
M  V30 11672 H 1119.06 3.90054 -2.45346 0
M  V30 11673 H 1117.38 3.60639 -2.08155 0
M  V30 11674 H 1119.98 5.34627 0.0883578 0
M  V30 11675 H 1120.32 4.00142 1.14857 0
M  V30 11676 H 1120.85 3.93992 -0.549093 0
M  V30 11677 H 1117.59 5.93211 -2.78892 0
M  V30 11678 H 1117.11 5.90058 -1.07662 0
M  V30 11679 H 1118.79 6.2869 -1.52835 0
M  V30 11680 N 1118.92 0.422693 1.51826 0
M  V30 11681 C 1120.33 -0.0438129 1.86649 0
M  V30 11682 C 1120.68 -1.43246 1.34071 0
M  V30 11683 O 1119.81 -2.05256 0.685501 0
M  V30 11684 C 1120.4 -0.0862802 3.3869 0
M  V30 11685 C 1118.96 -0.497157 3.73102 0
M  V30 11686 C 1118.11 0.319655 2.75451 0
M  V30 11687 H 1121.06 0.639181 1.45259 0
M  V30 11688 H 1121.08 -0.8988 3.69732 0
M  V30 11689 H 1120.59 0.924525 3.76927 0
M  V30 11690 H 1118.69 -1.51411 3.40449 0
M  V30 11691 H 1118.81 -0.232125 4.78537 0
M  V30 11692 H 1117.17 -0.219963 2.53748 0
M  V30 11693 H 1117.95 1.32906 3.16529 0
M  V30 11694 N 1120.4 -1.5685 0.153553 0
M  V30 11695 C 1121.33 -2.20101 -0.779601 0
M  V30 11696 C 1122.31 -1.15121 -1.25225 0
M  V30 11697 O 1123.5 -1.43487 -1.30862 0
M  V30 11698 C 1120.63 -2.82778 -2.01628 0
M  V30 11699 C 1119.58 -3.93643 -1.68015 0
M  V30 11700 C 1118.91 -4.43286 -2.99001 0
M  V30 11701 C 1120.21 -5.14102 -0.921774 0
M  V30 11702 H 1121.9 -2.98334 -0.252432 0
M  V30 11703 H 1119.45 -1.43499 -0.119975 0
M  V30 11704 H 1121.4 -3.25696 -2.67395 0
M  V30 11705 H 1120.12 -2.01887 -2.56728 0
M  V30 11706 H 1118.78 -3.51354 -1.04624 0
M  V30 11707 H 1118.43 -3.59208 -3.52106 0
M  V30 11708 H 1118.13 -5.18068 -2.77272 0
M  V30 11709 H 1119.65 -4.88878 -3.65828 0
M  V30 11710 H 1121.07 -5.53823 -1.48167 0
M  V30 11711 H 1119.46 -5.94687 -0.804185 0
M  V30 11712 H 1120.53 -4.84825 0.0852757 0
M  V30 11713 N 1121.88 0.120221 -1.57141 0
M  V30 11714 C 1123.11 0.842441 -1.88972 0
M  V30 11715 C 1123.52 1.73494 -0.744671 0
M  V30 11716 O 1122.88 1.80268 0.284557 0
M  V30 11717 C 1122.93 1.67688 -3.20254 0
M  V30 11718 O 1122.65 0.820319 -4.30351 0
M  V30 11719 C 1124.15 2.50436 -3.65782 0
M  V30 11720 H 1121.37 0.242241 -0.625748 0
M  V30 11721 H 1123.91 0.104978 -2.0423 0
M  V30 11722 H 1122.07 2.36712 -3.0667 0
M  V30 11723 H 1122.48 1.39575 -5.05588 0
M  V30 11724 H 1123.96 3.04518 -4.60405 0
M  V30 11725 H 1124.43 3.27737 -2.92378 0
M  V30 11726 H 1125.04 1.86657 -3.82151 0
M  V30 11727 N 1123.36 1.52689 0.390367 0
M  V30 11728 C 1124.63 1.58246 1.14968 0
M  V30 11729 C 1125.01 0.374808 2.07746 0
M  V30 11730 O 1124.36 -0.636969 2.19442 0
M  V30 11731 C 1124.57 2.92059 1.91056 0
M  V30 11732 C 1125.92 3.45745 2.46466 0
M  V30 11733 O 1126.94 2.93924 2.01214 0
M  V30 11734 O 1125.8 4.3628 3.29122 0
M  V30 11735 H 1122.9 0.638189 0.52597 0
M  V30 11736 H 1125.44 1.65024 0.39563 0
M  V30 11737 H 1124.21 3.71399 1.23201 0
M  V30 11738 H 1123.84 2.8866 2.73425 0
M  V30 11739 N 1124.83 -0.648732 1.43629 0
M  V30 11740 C 1125.76 -1.77298 1.51947 0
M  V30 11741 C 1126.75 -1.65942 0.373785 0
M  V30 11742 O 1127.93 -1.8497 0.591596 0
M  V30 11743 C 1125.06 -3.15749 1.44638 0
M  V30 11744 C 1124.01 -3.41872 2.57502 0
M  V30 11745 C 1123.34 -4.8017 2.35246 0
M  V30 11746 C 1124.64 -3.36173 3.99731 0
M  V30 11747 H 1126.33 -1.70594 2.46045 0
M  V30 11748 H 1123.88 -0.819306 1.1842 0
M  V30 11749 H 1125.83 -3.94156 1.4906 0
M  V30 11750 H 1124.56 -3.23194 0.470466 0
M  V30 11751 H 1123.22 -2.65838 2.5244 0
M  V30 11752 H 1122.86 -4.84297 1.35887 0
M  V30 11753 H 1122.56 -4.9861 3.10906 0
M  V30 11754 H 1124.09 -5.6083 2.41459 0
M  V30 11755 H 1125.5 -4.0451 4.06257 0
M  V30 11756 H 1123.9 -3.66148 4.75453 0
M  V30 11757 H 1124.97 -2.34277 4.24549 0
M  V30 11758 N 1126.31 -1.30234 -0.887518 0
M  V30 11759 C 1127.54 -1.21955 -1.67755 0
M  V30 11760 C 1127.96 0.214701 -1.86871 0
M  V30 11761 O 1127.32 1.15459 -1.39782 0
M  V30 11762 C 1127.37 -1.95079 -3.03276 0
M  V30 11763 O 1126.47 -1.27615 -3.92158 0
M  V30 11764 H 1125.81 -0.421948 -0.512695 0
M  V30 11765 H 1128.34 -1.72011 -1.10785 0
M  V30 11766 H 1128.35 -2.04004 -3.53336 0
M  V30 11767 H 1127.03 -2.99392 -2.88682 0
M  V30 11768 H 1125.61 -1.27029 -3.50597 0
M  V30 11769 N 1127.79 1.09952 -1.12909 0
M  V30 11770 C 1129.04 1.82016 -0.887482 0
M  V30 11771 C 1129.37 1.85445 0.586546 0
M  V30 11772 O 1128.62 1.31446 1.44984 0
M  V30 11773 C 1128.92 3.28252 -1.41369 0
M  V30 11774 C 1128.59 3.44965 -2.90362 0
M  V30 11775 C 1127.25 3.49233 -3.31043 0
M  V30 11776 C 1129.6 3.49947 -3.86247 0
M  V30 11777 C 1126.93 3.56057 -4.66305 0
M  V30 11778 C 1129.28 3.58305 -5.21345 0
M  V30 11779 C 1127.94 3.6084 -5.61561 0
M  V30 11780 H 1127.21 0.666046 -0.324753 0
M  V30 11781 H 1129.86 1.29568 -1.41012 0
M  V30 11782 H 1128.17 3.83301 -0.81163 0
M  V30 11783 H 1129.86 3.82533 -1.20289 0
M  V30 11784 H 1126.45 3.42323 -2.57901 0
M  V30 11785 H 1130.64 3.45895 -3.55908 0
M  V30 11786 H 1125.89 3.56305 -4.96847 0
M  V30 11787 H 1130.07 3.61104 -5.95463 0
M  V30 11788 H 1127.69 3.6588 -6.6636 0
M  V30 11789 N 1129.27 0.921757 1.27833 0
M  V30 11790 C 1130.2 0.373575 2.26135 0
M  V30 11791 C 1131.21 -0.492414 1.55174 0
M  V30 11792 O 1132.4 -0.305998 1.75858 0
M  V30 11793 C 1129.5 -0.483911 3.35427 0
M  V30 11794 C 1128.68 0.361411 4.35904 0
M  V30 11795 C 1127.73 -0.432461 5.2442 0
M  V30 11796 O 1126.76 0.15777 5.68981 0
M  V30 11797 N 1127.96 -1.73367 5.54007 0
M  V30 11798 H 1130.73 1.21856 2.73809 0
M  V30 11799 H 1128.29 0.788552 1.41398 0
M  V30 11800 H 1130.28 -1.02193 3.91585 0
M  V30 11801 H 1128.85 -1.22963 2.874 0
M  V30 11802 H 1128.07 1.08076 3.79095 0
M  V30 11803 H 1129.36 0.939528 5.0005 0
M  V30 11804 H 1128.76 -2.23561 5.19651 0
M  V30 11805 H 1127.31 -2.21834 6.12889 0
M  V30 11806 N 1130.75 -1.41857 0.686609 0
M  V30 11807 C 1131.68 -2.28174 -0.0347358 0
M  V30 11808 C 1132.66 -1.41732 -0.796928 0
M  V30 11809 O 1133.84 -1.71165 -0.789607 0
M  V30 11810 C 1130.97 -3.21801 -1.0565 0
M  V30 11811 C 1130.01 -4.24727 -0.388523 0
M  V30 11812 S 1130.85 -5.28508 0.862546 0
M  V30 11813 C 1132 -6.25701 -0.157849 0
M  V30 11814 H 1132.24 -2.89005 0.697381 0
M  V30 11815 H 1129.77 -1.46861 0.476562 0
M  V30 11816 H 1131.73 -3.76278 -1.64089 0
M  V30 11817 H 1130.39 -2.60082 -1.76114 0
M  V30 11818 H 1129.58 -4.90471 -1.15991 0
M  V30 11819 H 1129.18 -3.73799 0.122567 0
M  V30 11820 H 1131.48 -6.6987 -1.01393 0
M  V30 11821 H 1132.42 -7.06569 0.465437 0
M  V30 11822 H 1132.83 -5.62204 -0.508614 0
M  V30 11823 N 1132.22 -0.430739 -1.51599 0
M  V30 11824 C 1133.47 0.138133 -2.02329 0
M  V30 11825 C 1133.8 1.42934 -1.31466 0
M  V30 11826 O 1133.08 1.89743 -0.427551 0
M  V30 11827 C 1133.36 0.363677 -3.58259 0
M  V30 11828 C 1133.21 -0.94572 -4.39746 0
M  V30 11829 C 1134.53 1.13637 -4.25176 0
M  V30 11830 H 1131.65 0.0487287 -0.735387 0
M  V30 11831 H 1134.29 -0.568444 -1.81297 0
M  V30 11832 H 1132.44 0.965552 -3.7631 0
M  V30 11833 H 1134.12 -1.58107 -4.33359 0
M  V30 11834 H 1132.36 -1.55183 -4.05094 0
M  V30 11835 H 1133.03 -0.742031 -5.4699 0
M  V30 11836 H 1135.51 0.626608 -4.11355 0
M  V30 11837 H 1134.38 1.26294 -5.34173 0
M  V30 11838 H 1134.64 2.16273 -3.85588 0
M  V30 11839 N 1133.7 1.56767 -0.161869 0
M  V30 11840 C 1134.98 1.88245 0.531352 0
M  V30 11841 C 1135.36 1.07025 1.81958 0
M  V30 11842 O 1134.71 0.161385 2.27929 0
M  V30 11843 C 1134.92 3.40117 0.782416 0
M  V30 11844 C 1136.27 4.09655 1.11661 0
M  V30 11845 O 1137.29 3.4538 0.871274 0
M  V30 11846 O 1136.15 5.23192 1.57901 0
M  V30 11847 H 1133.24 0.780725 0.272759 0
M  V30 11848 H 1135.79 1.68522 -0.199597 0
M  V30 11849 H 1134.56 3.91088 -0.128677 0
M  V30 11850 H 1134.18 3.65418 1.56702 0
M  V30 11851 N 1135.18 -0.111886 1.57202 0
M  V30 11852 C 1136.09 -1.1556 2.04165 0
M  V30 11853 C 1137.11 -1.44898 0.963354 0
M  V30 11854 O 1138.28 -1.55873 1.27536 0
M  V30 11855 C 1135.35 -2.46048 2.44256 0
M  V30 11856 C 1134.41 -2.24043 3.66201 0
M  V30 11857 C 1133.64 -3.4831 4.04371 0
M  V30 11858 O 1133.86 -4.55895 3.42806 0
M  V30 11859 O 1132.8 -3.38891 4.9743 0
M  V30 11860 H 1136.62 -0.786778 2.93332 0
M  V30 11861 H 1134.21 -0.323196 1.45862 0
M  V30 11862 H 1136.09 -3.22916 2.70745 0
M  V30 11863 H 1134.77 -2.8239 1.58233 0
M  V30 11864 H 1133.67 -1.4501 3.44852 0
M  V30 11865 H 1135.01 -1.92602 4.52952 0
M  V30 11866 N 1136.66 -1.52894 -0.382264 0
M  V30 11867 C 1137.59 -1.81122 -1.47367 0
M  V30 11868 C 1138.57 -0.663653 -1.56619 0
M  V30 11869 O 1139.75 -0.911898 -1.71459 0
M  V30 11870 C 1136.88 -1.98615 -2.84902 0
M  V30 11871 C 1135.84 -3.14328 -2.90485 0
M  V30 11872 C 1135.16 -3.17086 -4.30535 0
M  V30 11873 C 1136.46 -4.53263 -2.59519 0
M  V30 11874 H 1138.16 -2.72518 -1.23993 0
M  V30 11875 H 1135.7 -1.3113 -0.595049 0
M  V30 11876 H 1137.66 -2.16946 -3.61265 0
M  V30 11877 H 1136.38 -1.03915 -3.09628 0
M  V30 11878 H 1135.04 -2.95791 -2.16572 0
M  V30 11879 H 1134.69 -2.20055 -4.52311 0
M  V30 11880 H 1134.39 -3.94821 -4.3519 0
M  V30 11881 H 1135.91 -3.3758 -5.08795 0
M  V30 11882 H 1137.33 -4.71867 -3.25598 0
M  V30 11883 H 1135.72 -5.33115 -2.75514 0
M  V30 11884 H 1136.79 -4.59516 -1.54831 0
M  V30 11885 N 1138.14 0.641106 -1.43971 0
M  V30 11886 C 1139.05 1.78239 -1.52538 0
M  V30 11887 C 1140.06 1.6906 -0.411668 0
M  V30 11888 O 1141.24 1.90014 -0.66757 0
M  V30 11889 C 1138.3 3.14579 -1.45743 0
M  V30 11890 C 1137.37 3.35464 -2.67885 0
M  V30 11891 C 1136.6 4.65299 -2.61404 0
M  V30 11892 O 1136.82 5.45451 -1.66851 0
M  V30 11893 O 1135.76 4.8817 -3.521 0
M  V30 11894 H 1139.58 1.73965 -2.48937 0
M  V30 11895 H 1137.17 0.801098 -1.26106 0
M  V30 11896 H 1139.05 3.95873 -1.4444 0
M  V30 11897 H 1137.72 3.19417 -0.524837 0
M  V30 11898 H 1136.63 2.53888 -2.74758 0
M  V30 11899 H 1137.96 3.35481 -3.60157 0
M  V30 11900 N 1139.62 1.30703 0.880598 0
M  V30 11901 C 1140.58 1.17429 1.96832 0
M  V30 11902 C 1141.58 0.104305 1.60461 0
M  V30 11903 O 1142.77 0.352758 1.70591 0
M  V30 11904 C 1139.9 0.800099 3.31378 0
M  V30 11905 H 1141.09 2.14069 2.10034 0
M  V30 11906 H 1138.65 1.14162 1.06755 0
M  V30 11907 H 1139.38 -0.165606 3.23877 0
M  V30 11908 H 1139.17 1.57341 3.59146 0
M  V30 11909 H 1140.66 0.730826 4.11155 0
M  V30 11910 N 1141.09 -1.09351 1.1349 0
M  V30 11911 C 1142.34 -1.81812 0.898452 0
M  V30 11912 C 1142.67 -1.85525 -0.573959 0
M  V30 11913 O 1141.95 -1.32403 -1.42477 0
M  V30 11914 C 1142.23 -3.27921 1.48794 0
M  V30 11915 C 1142.08 -3.32476 3.02952 0
M  V30 11916 C 1143.4 -4.24625 1.15678 0
M  V30 11917 H 1140.52 -0.660074 0.327829 0
M  V30 11918 H 1143.16 -1.28091 1.40331 0
M  V30 11919 H 1141.31 -3.738 1.05858 0
M  V30 11920 H 1142.99 -2.94994 3.54649 0
M  V30 11921 H 1141.23 -2.72037 3.37903 0
M  V30 11922 H 1141.9 -4.35409 3.39298 0
M  V30 11923 H 1144.38 -3.87036 1.52781 0
M  V30 11924 H 1143.25 -5.25194 1.59571 0
M  V30 11925 H 1143.51 -4.42044 0.0705933 0
M  V30 11926 N 1142.57 -0.928524 -1.27343 0
M  V30 11927 C 1143.98 -0.613856 -1.7632 0
M  V30 11928 C 1144.33 0.870983 -1.75808 0
M  V30 11929 O 1143.46 1.68155 -1.36209 0
M  V30 11930 C 1144.05 -1.10755 -3.20186 0
M  V30 11931 C 1142.61 -0.843532 -3.66826 0
M  V30 11932 C 1141.76 -1.26579 -2.46724 0
M  V30 11933 H 1144.71 -1.10821 -1.13598 0
M  V30 11934 H 1144.73 -0.455598 -3.77763 0
M  V30 11935 H 1144.24 -2.18825 -3.20526 0
M  V30 11936 H 1142.34 0.223334 -3.7193 0
M  V30 11937 H 1142.46 -1.46165 -4.56259 0
M  V30 11938 H 1140.82 -0.684334 -2.45334 0
M  V30 11939 H 1141.6 -2.35516 -2.49774 0
M  V30 11940 N 1144.05 1.41491 -0.694123 0
M  V30 11941 C 1145 2.32594 -0.0164704 0
M  V30 11942 C 1145.99 1.50884 0.770086 0
M  V30 11943 O 1147.2 1.66829 0.675871 0
M  V30 11944 H 1143.57 0.751879 0.0134743 0
M  V30 11945 H 1145.54 2.87423 -0.80191 0
M  V30 11946 C 1144.29 3.35661 0.90703 0
M  V30 11947 H 1143.62 3.98587 0.311205 0
M  V30 11948 H 1145.06 4.0195 1.34952 0
M  V30 11949 C 1143.51 2.69436 2.02253 0
M  V30 11950 O 1144.04 2.54107 3.11115 0
M  V30 11951 N 1142.25 2.28154 1.79984 0
M  V30 11952 H 1141.8 2.40821 0.914492 0
M  V30 11953 H 1141.76 1.84178 2.54805 0
M  V30 11954 N 1145.53 0.438773 1.51369 0
M  V30 11955 C 1146.78 -0.128723 2.01289 0
M  V30 11956 C 1147.09 -1.43659 1.32745 0
M  V30 11957 O 1148.3 -2.08712 1.73642 0
M  V30 11958 C 1146.75 -0.279945 3.5881 0
M  V30 11959 C 1146.36 1.01758 4.3629 0
M  V30 11960 C 1148.1 -0.801133 4.16872 0
M  V30 11961 C 1146.01 0.831918 5.85519 0
M  V30 11962 H 1144.94 -0.0518814 0.752213 0
M  V30 11963 H 1147.59 0.568753 1.74463 0
M  V30 11964 H 1145.97 -1.04046 3.82087 0
M  V30 11965 H 1147.15 1.78653 4.24758 0
M  V30 11966 H 1145.46 1.46741 3.89687 0
M  V30 11967 H 1148.06 -0.956548 5.26074 0
M  V30 11968 H 1148.4 -1.78396 3.76139 0
M  V30 11969 H 1148.94 -0.0988934 3.97677 0
M  V30 11970 H 1145.67 1.78716 6.30667 0
M  V30 11971 H 1145.19 0.102785 5.99712 0
M  V30 11972 H 1146.87 0.485681 6.45174 0
M  V30 11973 N 1147.01 -1.56678 0.170181 0
M  V30 11974 C 1148.42 -1.83452 -0.346742 0
M  V30 11975 C 1148.77 -1.08993 -1.63141 0
M  V30 11976 O 1147.89 -0.342607 -2.13671 0
M  V30 11977 C 1148.49 -3.32779 -0.635882 0
M  V30 11978 C 1147.05 -3.60052 -1.09725 0
M  V30 11979 C 1146.19 -2.76983 -0.132516 0
M  V30 11980 H 1149.14 -1.53719 0.394465 0
M  V30 11981 H 1149.17 -3.50195 -1.48806 0
M  V30 11982 H 1148.68 -3.86944 0.299291 0
M  V30 11983 H 1146.78 -3.11297 -2.04756 0
M  V30 11984 H 1146.89 -4.68393 -1.00719 0
M  V30 11985 H 1145.26 -2.46794 -0.62966 0
M  V30 11986 H 1146.04 -3.33929 0.796658 0
M  V30 11987 N 1148.48 0.103547 -1.57259 0
M  V30 11988 C 1149.41 1.12714 -2.04494 0
M  V30 11989 C 1150.39 1.42278 -0.932255 0
M  V30 11990 O 1151.58 1.52453 -1.20298 0
M  V30 11991 C 1148.71 2.44927 -2.46228 0
M  V30 11992 C 1147.66 2.2979 -3.61082 0
M  V30 11993 C 1146.99 3.67105 -3.88765 0
M  V30 11994 C 1148.29 1.7455 -4.9227 0
M  V30 11995 H 1149.98 0.734198 -2.90258 0
M  V30 11996 H 1147.53 0.351725 -1.39638 0
M  V30 11997 H 1149.48 3.16798 -2.77879 0
M  V30 11998 H 1148.21 2.8614 -1.57453 0
M  V30 11999 H 1146.87 1.60366 -3.29664 0
M  V30 12000 H 1146.51 4.05831 -2.97171 0
M  V30 12001 H 1146.21 3.57825 -4.66084 0
M  V30 12002 H 1147.74 4.40456 -4.22884 0
M  V30 12003 H 1149.15 2.36253 -5.22358 0
M  V30 12004 H 1147.55 1.76051 -5.73695 0
M  V30 12005 H 1148.62 0.704242 -4.79759 0
M  V30 12006 N 1149.96 1.53094 0.37415 0
M  V30 12007 C 1151.21 1.69111 1.11934 0
M  V30 12008 C 1151.54 0.437252 1.89213 0
M  V30 12009 O 1150.82 -0.565298 1.86104 0
M  V30 12010 C 1151.1 2.93559 2.08554 0
M  V30 12011 C 1150.95 4.29082 1.3494 0
M  V30 12012 C 1152.27 3.13586 3.08791 0
M  V30 12013 H 1149.39 0.615383 0.405553 0
M  V30 12014 H 1152.03 1.85719 0.401078 0
M  V30 12015 H 1150.18 2.79531 2.69805 0
M  V30 12016 H 1151.85 4.54906 0.765402 0
M  V30 12017 H 1150.1 4.28884 0.651238 0
M  V30 12018 H 1150.77 5.12275 2.05616 0
M  V30 12019 H 1153.24 3.26743 2.57639 0
M  V30 12020 H 1152.12 4.02112 3.73627 0
M  V30 12021 H 1152.38 2.28475 3.78486 0
M  V30 12022 N 1151.44 -0.633461 1.44309 0
M  V30 12023 C 1152.85 -1.21504 1.41752 0
M  V30 12024 C 1153.2 -1.95758 0.131667 0
M  V30 12025 O 1152.33 -2.02311 -0.768072 0
M  V30 12026 C 1152.92 -2.21005 2.56792 0
M  V30 12027 C 1151.48 -2.74596 2.57438 0
M  V30 12028 C 1150.63 -1.49555 2.33513 0
M  V30 12029 H 1153.58 -0.424277 1.52923 0
M  V30 12030 H 1153.6 -3.03563 2.29412 0
M  V30 12031 H 1153.11 -1.66934 3.50364 0
M  V30 12032 H 1151.21 -3.32676 1.67801 0
M  V30 12033 H 1151.33 -3.20794 3.55849 0
M  V30 12034 H 1149.69 -1.77605 1.82561 0
M  V30 12035 H 1150.47 -0.973899 3.29196 0
M  V30 12036 N 1152.92 -1.31168 -0.873655 0
M  V30 12037 C 1154.2 -1.11285 -1.60857 0
M  V30 12038 C 1154.58 0.333788 -2.08444 0
M  V30 12039 O 1153.92 1.32726 -1.86 0
M  V30 12040 C 1154.13 -2.12379 -2.7694 0
M  V30 12041 C 1155.48 -2.44704 -3.46994 0
M  V30 12042 O 1156.51 -2.10778 -2.87143 0
M  V30 12043 O 1155.36 -3.02786 -4.54954 0
M  V30 12044 H 1152.46 -0.428177 -0.707526 0
M  V30 12045 H 1155 -1.42634 -0.91944 0
M  V30 12046 H 1153.78 -3.09703 -2.39164 0
M  V30 12047 H 1153.4 -1.81914 -3.53544 0
M  V30 12048 N 1154.4 1.08748 -1.14068 0
M  V30 12049 C 1155.31 2.19123 -0.837998 0
M  V30 12050 C 1156.32 1.73065 0.180164 0
M  V30 12051 O 1157.5 2.01398 0.00952285 0
M  V30 12052 C 1154.56 3.45257 -0.316 0
M  V30 12053 C 1153.62 4.05959 -1.39628 0
M  V30 12054 C 1152.86 5.26072 -0.899095 0
M  V30 12055 O 1153.08 5.69804 0.260744 0
M  V30 12056 O 1152.01 5.7808 -1.67652 0
M  V30 12057 H 1155.84 2.4748 -1.76033 0
M  V30 12058 H 1153.43 1.17816 -0.918675 0
M  V30 12059 H 1155.31 4.21389 -0.0306425 0
M  V30 12060 H 1153.98 3.18486 0.578654 0
M  V30 12061 H 1152.89 3.31432 -1.73505 0
M  V30 12062 H 1154.22 4.36971 -2.26533 0
M  V30 12063 N 1155.87 0.935264 1.26849 0
M  V30 12064 C 1156.78 0.446122 2.30319 0
M  V30 12065 C 1157.8 -0.476965 1.67335 0
M  V30 12066 O 1158.98 -0.357934 1.98194 0
M  V30 12067 C 1156.04 -0.286297 3.45516 0
M  V30 12068 C 1155.1 0.672626 4.23998 0
M  V30 12069 C 1154.34 -0.0249345 5.33694 0
M  V30 12070 O 1154.56 -1.24296 5.56693 0
M  V30 12071 O 1153.49 0.650752 5.98372 0
M  V30 12072 H 1157.32 1.30546 2.74211 0
M  V30 12073 H 1154.9 0.70091 1.31938 0
M  V30 12074 H 1156.79 -0.699109 4.1556 0
M  V30 12075 H 1155.46 -1.12112 3.03665 0
M  V30 12076 H 1154.37 1.13527 3.56458 0
M  V30 12077 H 1155.7 1.47489 4.69583 0
M  V30 12078 N 1157.35 -1.41121 0.701616 0
M  V30 12079 C 1158.28 -2.33436 0.0545974 0
M  V30 12080 C 1159.26 -1.52144 -0.760662 0
M  V30 12081 O 1160.45 -1.80661 -0.712414 0
M  V30 12082 C 1157.58 -3.36015 -0.878117 0
M  V30 12083 C 1156.53 -4.27664 -0.169511 0
M  V30 12084 C 1155.86 -5.20666 -1.21699 0
M  V30 12085 C 1157.16 -5.13254 0.967859 0
M  V30 12086 H 1158.85 -2.87791 0.825637 0
M  V30 12087 H 1156.4 -1.38377 0.398484 0
M  V30 12088 H 1158.35 -3.99526 -1.34004 0
M  V30 12089 H 1157.08 -2.80024 -1.68089 0
M  V30 12090 H 1155.73 -3.65586 0.272441 0
M  V30 12091 H 1155.38 -4.60987 -2.01246 0
M  V30 12092 H 1155.08 -5.82822 -0.747836 0
M  V30 12093 H 1156.61 -5.87053 -1.6793 0
M  V30 12094 H 1158.02 -5.70298 0.585944 0
M  V30 12095 H 1156.42 -5.84381 1.3645 0
M  V30 12096 H 1157.49 -4.5006 1.80483 0
M  V30 12097 N 1158.83 -0.446794 -1.51134 0
M  V30 12098 C 1160.11 0.176892 -1.94798 0
M  V30 12099 C 1160.49 1.59229 -1.38598 0
M  V30 12100 O 1159.84 2.21097 -0.576905 0
M  V30 12101 C 1160.05 0.145 -3.48699 0
M  V30 12102 C 1161.39 0.345917 -4.23189 0
M  V30 12103 O 1162.42 0.222691 -3.55503 0
M  V30 12104 O 1161.28 0.592112 -5.43283 0
M  V30 12105 H 1158.37 0.12486 -0.81752 0
M  V30 12106 H 1160.92 -0.505453 -1.61998 0
M  V30 12107 H 1159.69 -0.844156 -3.82086 0
M  V30 12108 H 1159.31 0.869851 -3.87968 0
M  V30 12109 N 1160.31 1.56586 -0.178487 0
M  V30 12110 C 1161.27 2.17091 0.73512 0
M  V30 12111 C 1162.27 1.12088 1.15295 0
M  V30 12112 O 1163.46 1.37563 1.06874 0
M  V30 12113 C 1160.59 2.75957 2.00151 0
M  V30 12114 H 1161.79 2.99176 0.208272 0
M  V30 12115 H 1159.34 1.56138 0.0710967 0
M  V30 12116 H 1160.07 1.97626 2.57127 0
M  V30 12117 H 1159.86 3.52809 1.7108 0
M  V30 12118 H 1161.35 3.2247 2.65335 0
M  V30 12119 N 1161.79 -0.095206 1.57312 0
M  V30 12120 C 1162.72 -1.11627 2.05089 0
M  V30 12121 C 1163.7 -1.41782 0.939787 0
M  V30 12122 O 1164.88 -1.51813 1.21105 0
M  V30 12123 C 1162.01 -2.43618 2.47523 0
M  V30 12124 C 1160.97 -2.27872 3.62296 0
M  V30 12125 C 1160.29 -3.65038 3.90706 0
M  V30 12126 C 1161.59 -1.71936 4.93189 0
M  V30 12127 H 1163.29 -0.718795 2.90644 0
M  V30 12128 H 1160.83 -0.344315 1.39823 0
M  V30 12129 H 1162.79 -3.1532 2.79556 0
M  V30 12130 H 1161.51 -2.85301 1.58968 0
M  V30 12131 H 1160.17 -1.58615 3.3051 0
M  V30 12132 H 1159.82 -4.04249 2.99319 0
M  V30 12133 H 1159.52 -3.55349 4.67976 0
M  V30 12134 H 1161.04 -4.38208 4.25213 0
M  V30 12135 H 1162.45 -2.33479 5.23603 0
M  V30 12136 H 1160.85 -1.73006 5.74621 0
M  V30 12137 H 1161.92 -0.678789 4.80125 0
M  V30 12138 N 1163.26 -1.53291 -0.366026 0
M  V30 12139 C 1164.21 -1.79697 -1.44836 0
M  V30 12140 C 1165.18 -0.641321 -1.5322 0
M  V30 12141 O 1166.37 -0.883453 -1.69115 0
M  V30 12142 C 1163.51 -1.99223 -2.81788 0
M  V30 12143 C 1162.62 -3.26938 -2.82375 0
M  V30 12144 C 1161.75 -3.36654 -4.10898 0
M  V30 12145 C 1160.79 -4.58404 -4.05626 0
M  V30 12146 N 1159.93 -4.65275 -5.25798 0
M  V30 12147 H 1164.77 -2.72053 -1.21619 0
M  V30 12148 H 1162.31 -1.34768 -0.589577 0
M  V30 12149 H 1164.27 -2.0853 -3.61346 0
M  V30 12150 H 1162.9 -1.10204 -3.03406 0
M  V30 12151 H 1161.95 -3.26587 -1.95052 0
M  V30 12152 H 1163.26 -4.16573 -2.74351 0
M  V30 12153 H 1162.41 -3.4527 -4.98872 0
M  V30 12154 H 1161.15 -2.45035 -4.21674 0
M  V30 12155 H 1160.16 -4.49888 -3.16039 0
M  V30 12156 H 1161.38 -5.51364 -3.96453 0
M  V30 12157 H 1159.33 -3.76557 -5.3716 0
M  V30 12158 H 1159.25 -5.48814 -5.19942 0
M  V30 12159 H 1160.51 -4.78175 -6.15605 0
M  V30 12160 N 1164.74 0.6258 -1.44643 0
M  V30 12161 C 1165.99 1.38125 -1.46984 0
M  V30 12162 C 1166.3 1.95299 -0.108429 0
M  V30 12163 O 1167.51 2.71498 -0.00940005 0
M  V30 12164 C 1165.97 2.50108 -2.58793 0
M  V30 12165 C 1165.57 1.99424 -4.01166 0
M  V30 12166 C 1167.32 3.27269 -2.70361 0
M  V30 12167 C 1165.23 3.08781 -5.04389 0
M  V30 12168 H 1164.16 0.519083 -0.546872 0
M  V30 12169 H 1166.81 0.67268 -1.70726 0
M  V30 12170 H 1165.19 3.23565 -2.28302 0
M  V30 12171 H 1166.36 1.32797 -4.4125 0
M  V30 12172 H 1164.68 1.35063 -3.93887 0
M  V30 12173 H 1167.27 4.08802 -3.44652 0
M  V30 12174 H 1167.62 3.77097 -1.76362 0
M  V30 12175 H 1168.15 2.60905 -3.00289 0
M  V30 12176 H 1164.89 2.63891 -6.00035 0
M  V30 12177 H 1164.41 3.74033 -4.68892 0
M  V30 12178 H 1166.09 3.73469 -5.28328 0
M  V30 12179 N 1166.22 1.31629 0.866686 0
M  V30 12180 C 1167.17 1.19556 1.97421 0
M  V30 12181 C 1168.14 0.0805578 1.65905 0
M  V30 12182 O 1169.32 0.253997 1.89102 0
M  V30 12183 C 1166.46 0.912234 3.32825 0
M  V30 12184 C 1165.58 2.11088 3.76916 0
M  V30 12185 C 1164.71 1.76406 5.01053 0
M  V30 12186 C 1163.75 2.9266 5.37602 0
M  V30 12187 N 1162.89 2.58152 6.52918 0
M  V30 12188 H 1167.73 2.14294 2.0708 0
M  V30 12189 H 1165.26 1.06595 1.0137 0
M  V30 12190 H 1167.22 0.72851 4.1079 0
M  V30 12191 H 1165.85 0.00167404 3.228 0
M  V30 12192 H 1164.9 2.40527 2.94705 0
M  V30 12193 H 1166.22 2.98089 3.99931 0
M  V30 12194 H 1165.37 1.54515 5.86694 0
M  V30 12195 H 1164.11 0.866018 4.79949 0
M  V30 12196 H 1163.11 3.15196 4.50479 0
M  V30 12197 H 1164.34 3.83179 5.6067 0
M  V30 12198 H 1162.28 1.70874 6.33355 0
M  V30 12199 H 1162.2 3.38682 6.75892 0
M  V30 12200 H 1163.47 2.39662 7.41743 0
M  V30 12201 N 1167.7 -1.08142 1.14644 0
M  V30 12202 C 1168.95 -1.79959 0.910908 0
M  V30 12203 C 1169.26 -1.87296 -0.563866 0
M  V30 12204 O 1170.47 -2.55555 -0.916735 0
M  V30 12205 C 1168.92 -3.23351 1.58025 0
M  V30 12206 C 1168.53 -3.2424 3.09148 0
M  V30 12207 C 1170.28 -3.99834 1.42595 0
M  V30 12208 C 1168.18 -4.62236 3.68906 0
M  V30 12209 H 1167.11 -0.674423 0.33715 0
M  V30 12210 H 1169.76 -1.21441 1.37566 0
M  V30 12211 H 1168.15 -3.82013 1.04318 0
M  V30 12212 H 1169.32 -2.75269 3.69545 0
M  V30 12213 H 1167.63 -2.61253 3.24246 0
M  V30 12214 H 1170.23 -5.01809 1.8464 0
M  V30 12215 H 1170.57 -4.14631 0.372402 0
M  V30 12216 H 1171.11 -3.47648 1.93354 0
M  V30 12217 H 1167.85 -4.52642 4.74126 0
M  V30 12218 H 1167.37 -5.11477 3.1329 0
M  V30 12219 H 1169.05 -5.3121 3.69358 0
M  V30 12220 N 1169.18 -0.941978 -1.26351 0
M  V30 12221 C 1170.4 -0.606231 -1.98342 0
M  V30 12222 C 1170.83 0.812014 -1.6967 0
M  V30 12223 O 1170.19 1.54712 -0.9452 0
M  V30 12224 C 1170.23 -0.855864 -3.50296 0
M  V30 12225 O 1169.34 0.0716251 -4.12338 0
M  V30 12226 H 1168.68 -0.231815 -0.62222 0
M  V30 12227 H 1171.21 -1.26513 -1.60797 0
M  V30 12228 H 1171.22 -0.777079 -4.00531 0
M  V30 12229 H 1169.89 -1.8896 -3.70496 0
M  V30 12230 H 1168.47 -0.0582866 -3.72854 0
M  V30 12231 N 1170.66 1.40747 -0.709091 0
M  V30 12232 C 1171.59 2.29196 -0.0130359 0
M  V30 12233 C 1172.6 1.45491 0.730487 0
M  V30 12234 O 1173.79 1.6885 0.578944 0
M  V30 12235 C 1170.89 3.23632 1.00577 0
M  V30 12236 C 1170.06 4.3616 0.329105 0
M  V30 12237 C 1169.12 5.11079 1.25239 0
M  V30 12238 O 1168.15 5.64374 0.739641 0
M  V30 12239 N 1169.35 5.1982 2.58394 0
M  V30 12240 H 1172.11 2.89574 -0.772462 0
M  V30 12241 H 1169.68 1.52046 -0.556197 0
M  V30 12242 H 1171.67 3.70622 1.62546 0
M  V30 12243 H 1170.24 2.64467 1.66661 0
M  V30 12244 H 1169.46 3.9138 -0.470683 0
M  V30 12245 H 1170.75 5.08605 -0.140856 0
M  V30 12246 H 1170.14 4.77992 3.02556 0
M  V30 12247 H 1168.7 5.7034 3.15524 0
M  V30 12248 N 1172.13 0.454803 1.50895 0
M  V30 12249 C 1173.38 -0.107367 2.01414 0
M  V30 12250 C 1173.7 -1.42243 1.34262 0
M  V30 12251 O 1174.9 -2.06858 1.75846 0
M  V30 12252 C 1173.36 -0.241872 3.59086 0
M  V30 12253 C 1172.97 1.06379 4.35187 0
M  V30 12254 C 1174.71 -0.756873 4.17698 0
M  V30 12255 C 1172.62 0.893973 5.84604 0
M  V30 12256 H 1171.55 -0.0439003 0.752721 0
M  V30 12257 H 1174.2 0.587225 1.7385 0
M  V30 12258 H 1172.58 -0.999873 3.83169 0
M  V30 12259 H 1173.75 1.83148 4.2284 0
M  V30 12260 H 1172.07 1.50865 3.88109 0
M  V30 12261 H 1174.67 -0.900697 5.27059 0
M  V30 12262 H 1175.01 -1.74397 3.7801 0
M  V30 12263 H 1175.54 -0.0567088 3.9776 0
M  V30 12264 H 1172.28 1.85395 6.28736 0
M  V30 12265 H 1171.8 0.166387 5.99569 0
M  V30 12266 H 1173.48 0.554084 6.44623 0
M  V30 12267 N 1173.61 -1.56489 0.186789 0
M  V30 12268 C 1174.56 -2.18703 -0.737402 0
M  V30 12269 C 1175.53 -1.13171 -1.21579 0
M  V30 12270 O 1176.71 -1.41388 -1.28118 0
M  V30 12271 C 1173.85 -2.84394 -1.95484 0
M  V30 12272 C 1172.97 -4.04429 -1.51859 0
M  V30 12273 C 1172.1 -4.58001 -2.69089 0
M  V30 12274 C 1171.14 -5.70412 -2.22029 0
M  V30 12275 N 1170.28 -6.18425 -3.32407 0
M  V30 12276 H 1175.12 -2.97327 -0.200105 0
M  V30 12277 H 1172.65 -1.46842 -0.087032 0
M  V30 12278 H 1174.61 -3.20646 -2.66912 0
M  V30 12279 H 1173.24 -2.08347 -2.46559 0
M  V30 12280 H 1172.29 -3.73895 -0.70048 0
M  V30 12281 H 1173.61 -4.85756 -1.13327 0
M  V30 12282 H 1172.76 -4.96515 -3.48652 0
M  V30 12283 H 1171.5 -3.75764 -3.1089 0
M  V30 12284 H 1170.5 -5.31434 -1.40918 0
M  V30 12285 H 1171.73 -6.54461 -1.81268 0
M  V30 12286 H 1169.68 -5.39113 -3.73755 0
M  V30 12287 H 1169.59 -6.94782 -2.98017 0
M  V30 12288 H 1170.86 -6.61592 -4.12209 0
M  V30 12289 N 1175.09 0.086862 -1.5736 0
M  V30 12290 C 1176.04 1.12359 -2.03662 0
M  V30 12291 C 1177.03 1.40982 -0.939169 0
M  V30 12292 O 1178.24 1.40566 -1.12433 0
M  V30 12293 H 1174.61 0.379605 -0.649156 0
M  V30 12294 H 1176.58 0.706822 -2.89908 0
M  V30 12295 C 1175.33 2.43327 -2.48369 0
M  V30 12296 H 1174.66 2.22148 -3.324 0
M  V30 12297 H 1176.1 3.14351 -2.84534 0
M  V30 12298 C 1174.55 3.08214 -1.36036 0
M  V30 12299 O 1175.08 3.95659 -0.694063 0
M  V30 12300 N 1173.29 2.68596 -1.10927 0
M  V30 12301 H 1172.84 1.97578 -1.6529 0
M  V30 12302 H 1172.8 3.12336 -0.359679 0
M  V30 12303 N 1176.57 1.53483 0.357892 0
M  V30 12304 C 1177.84 1.60649 1.11585 0
M  V30 12305 C 1178.22 0.418789 2.06904 0
M  V30 12306 O 1177.57 -0.590279 2.20744 0
M  V30 12307 C 1177.78 2.96046 1.84818 0
M  V30 12308 C 1179.13 3.50895 2.39076 0
M  V30 12309 O 1180.15 2.98126 1.94934 0
M  V30 12310 O 1179.01 4.43163 3.19794 0
M  V30 12311 H 1176.11 0.649202 0.512315 0
M  V30 12312 H 1178.65 1.65826 0.360537 0
M  V30 12313 H 1177.43 3.73929 1.15296 0
M  V30 12314 H 1177.05 2.94395 2.6724 0
M  V30 12315 N 1178.05 -0.61812 1.44973 0
M  V30 12316 C 1179.29 -1.37343 1.47715 0
M  V30 12317 C 1179.61 -1.95239 0.118784 0
M  V30 12318 O 1180.81 -2.7149 0.0237981 0
M  V30 12319 C 1179.27 -2.48732 2.60116 0
M  V30 12320 C 1178.88 -1.97294 4.02218 0
M  V30 12321 C 1180.62 -3.25831 2.72093 0
M  V30 12322 C 1178.53 -3.06102 5.06019 0
M  V30 12323 H 1177.46 -0.516175 0.549617 0
M  V30 12324 H 1180.11 -0.663617 1.7108 0
M  V30 12325 H 1178.49 -3.2235 2.30014 0
M  V30 12326 H 1179.67 -1.30455 4.41948 0
M  V30 12327 H 1177.98 -1.32972 3.94598 0
M  V30 12328 H 1180.58 -4.06968 3.46815 0
M  V30 12329 H 1180.92 -3.76156 1.7836 0
M  V30 12330 H 1181.45 -2.59309 3.01668 0
M  V30 12331 H 1178.19 -2.60706 6.01426 0
M  V30 12332 H 1177.71 -3.71541 4.70869 0
M  V30 12333 H 1179.39 -3.70662 5.30301 0
M  V30 12334 N 1179.52 -1.32087 -0.859693 0
M  V30 12335 C 1180.46 -1.16426 -1.97428 0
M  V30 12336 C 1181.47 -0.100582 -1.62489 0
M  V30 12337 O 1182.66 -0.349063 -1.75054 0
M  V30 12338 C 1179.76 -0.758822 -3.30295 0
M  V30 12339 C 1178.93 -1.90971 -3.93508 0
M  V30 12340 C 1177.99 -1.48865 -5.04704 0
M  V30 12341 O 1177.02 -2.1999 -5.2497 0
M  V30 12342 N 1178.22 -0.38182 -5.79243 0
M  V30 12343 H 1180.98 -2.12433 -2.11406 0
M  V30 12344 H 1178.54 -1.24558 -1.03426 0
M  V30 12345 H 1180.54 -0.459643 -4.02081 0
M  V30 12346 H 1179.11 0.109944 -3.12407 0
M  V30 12347 H 1178.33 -2.37566 -3.14573 0
M  V30 12348 H 1179.61 -2.68032 -4.32477 0
M  V30 12349 H 1179.01 0.210268 -5.65309 0
M  V30 12350 H 1177.57 -0.142224 -6.51645 0
M  V30 12351 N 1181 1.07532 -1.15215 0
M  V30 12352 C 1182.42 1.32183 -0.894411 0
M  V30 12353 C 1182.62 1.96188 0.459614 0
M  V30 12354 O 1181.67 2.22057 1.20195 0
M  V30 12355 C 1182.99 2.21473 -2.03397 0
M  V30 12356 C 1184.53 2.34927 -2.06829 0
M  V30 12357 C 1185.01 3.27564 -3.20103 0
M  V30 12358 N 1186.5 3.35144 -3.19738 0
M  V30 12359 C 1187.24 4.0688 -4.04025 0
M  V30 12360 N 1186.73 4.81246 -4.98371 0
M  V30 12361 N 1188.52 4.02802 -3.92055 0
M  V30 12362 H 1180.68 0.643732 -2.0241 0
M  V30 12363 H 1182.94 0.346272 -0.882496 0
M  V30 12364 H 1182.64 1.81701 -3.01127 0
M  V30 12365 H 1182.52 3.2199 -1.96475 0
M  V30 12366 H 1184.91 2.73953 -1.09699 0
M  V30 12367 H 1184.99 1.34121 -2.17819 0
M  V30 12368 H 1184.63 2.89258 -4.17483 0
M  V30 12369 H 1184.56 4.2832 -3.06349 0
M  V30 12370 H 1187.05 2.82135 -2.51412 0
M  V30 12371 H 1187.36 5.33472 -5.59131 0
M  V30 12372 H 1185.71 4.80268 -5.02362 0
M  V30 12373 H 1188.9 3.43816 -3.17661 0
M  V30 12374 H 1189.07 4.58443 -4.57967 0
M  V30 12375 N 1182.48 0.948665 1.2585 0
M  V30 12376 C 1183.39 0.470525 2.29833 0
M  V30 12377 C 1184.41 -0.45919 1.67832 0
M  V30 12378 O 1185.58 -0.336893 1.98562 0
M  V30 12379 C 1182.65 -0.249635 3.458 0
M  V30 12380 C 1181.71 0.717559 4.23261 0
M  V30 12381 C 1180.94 0.0316724 5.33691 0
M  V30 12382 O 1181.16 -1.18384 5.5798 0
M  V30 12383 O 1180.1 0.71418 5.97648 0
M  V30 12384 H 1183.92 1.33447 2.72811 0
M  V30 12385 H 1181.51 0.714864 1.31187 0
M  V30 12386 H 1183.39 -0.654993 4.16279 0
M  V30 12387 H 1182.07 -1.08885 3.04837 0
M  V30 12388 H 1180.97 1.17301 3.55234 0
M  V30 12389 H 1182.31 1.52461 4.67992 0
M  V30 12390 N 1183.96 -1.40369 0.716545 0
M  V30 12391 C 1184.91 -2.3071 0.0645944 0
M  V30 12392 C 1185.88 -1.48239 -0.749294 0
M  V30 12393 O 1187.06 -1.76975 -0.713045 0
M  V30 12394 C 1184.2 -3.34456 -0.850478 0
M  V30 12395 C 1183.31 -4.31992 -0.0259594 0
M  V30 12396 C 1182.45 -5.22806 -0.940599 0
M  V30 12397 C 1181.49 -6.12001 -0.110228 0
M  V30 12398 N 1180.62 -6.9523 -0.979796 0
M  V30 12399 H 1185.46 -2.85896 0.840682 0
M  V30 12400 H 1183 -1.40789 0.426258 0
M  V30 12401 H 1184.96 -3.93177 -1.39528 0
M  V30 12402 H 1183.59 -2.8077 -1.59274 0
M  V30 12403 H 1182.64 -3.75045 0.636036 0
M  V30 12404 H 1183.95 -4.94971 0.616883 0
M  V30 12405 H 1183.11 -5.86463 -1.5539 0
M  V30 12406 H 1181.85 -4.60104 -1.61726 0
M  V30 12407 H 1180.85 -5.47373 0.516001 0
M  V30 12408 H 1182.08 -6.76763 0.562944 0
M  V30 12409 H 1180.02 -6.35115 -1.64209 0
M  V30 12410 H 1179.94 -7.54978 -0.393012 0
M  V30 12411 H 1181.21 -7.63335 -1.57924 0
M  V30 12412 N 1185.44 -0.462799 -1.50652 0
M  V30 12413 C 1186.85 -0.11648 -1.59174 0
M  V30 12414 C 1187.05 1.37638 -1.47167 0
M  V30 12415 O 1186.11 2.14886 -1.3259 0
M  V30 12416 C 1187.42 -0.659289 -2.93383 0
M  V30 12417 C 1188.97 -0.62198 -3.06758 0
M  V30 12418 C 1189.44 -1.14219 -4.43529 0
M  V30 12419 N 1190.94 -1.10125 -4.49919 0
M  V30 12420 C 1191.67 -1.47436 -5.54121 0
M  V30 12421 N 1191.17 -1.92156 -6.65618 0
M  V30 12422 N 1192.96 -1.39091 -5.44619 0
M  V30 12423 H 1185.11 -1.43383 -1.56701 0
M  V30 12424 H 1187.37 -0.592438 -0.740082 0
M  V30 12425 H 1187.08 -1.70477 -3.07621 0
M  V30 12426 H 1186.95 -0.0982388 -3.77072 0
M  V30 12427 H 1189.34 0.414576 -2.92173 0
M  V30 12428 H 1189.42 -1.21974 -2.24847 0
M  V30 12429 H 1189.07 -2.17734 -4.58862 0
M  V30 12430 H 1189 -0.52073 -5.24019 0
M  V30 12431 H 1191.49 -0.773154 -3.69906 0
M  V30 12432 H 1191.8 -2.18796 -7.4118 0
M  V30 12433 H 1190.14 -1.96103 -6.6676 0
M  V30 12434 H 1193.34 -1.04001 -4.564 0
M  V30 12435 H 1193.51 -1.68496 -6.2571 0
M  V30 12436 N 1186.91 1.56388 -0.195085 0
M  V30 12437 C 1187.88 2.17859 0.712053 0
M  V30 12438 C 1188.88 1.13304 1.141 0
M  V30 12439 O 1190.07 1.38689 1.05409 0
M  V30 12440 C 1187.2 2.78065 1.97213 0
M  V30 12441 H 1188.39 2.9938 0.176529 0
M  V30 12442 H 1185.95 1.56205 0.0545322 0
M  V30 12443 H 1186.68 2.00342 2.55017 0
M  V30 12444 H 1186.47 3.54603 1.67329 0
M  V30 12445 H 1187.96 3.25266 2.619 0
M  V30 12446 N 1188.39 -0.0785156 1.57404 0
M  V30 12447 C 1189.34 -1.11278 2.04255 0
M  V30 12448 C 1190.33 -1.40482 0.946633 0
M  V30 12449 O 1191.54 -1.39968 1.13177 0
M  V30 12450 H 1187.92 -0.376157 0.65116 0
M  V30 12451 H 1189.89 -0.691437 2.90279 0
M  V30 12452 C 1188.64 -2.42006 2.49656 0
M  V30 12453 H 1187.96 -2.20383 3.33574 0
M  V30 12454 H 1189.4 -3.12837 2.86197 0
M  V30 12455 C 1187.86 -3.07488 1.37669 0
M  V30 12456 O 1188.39 -3.95285 0.715036 0
M  V30 12457 N 1186.59 -2.68004 1.1235 0
M  V30 12458 H 1186.14 -1.96698 1.66336 0
M  V30 12459 H 1186.1 -3.12141 0.376238 0
M  V30 12460 N 1189.87 -1.5367 -0.349747 0
M  V30 12461 C 1190.82 -1.81223 -1.42922 0
M  V30 12462 C 1191.79 -0.657536 -1.52531 0
M  V30 12463 O 1192.97 -0.90134 -1.68168 0
M  V30 12464 C 1190.11 -2.022 -2.79659 0
M  V30 12465 C 1189.23 -3.29915 -2.78891 0
M  V30 12466 C 1188.36 -3.40993 -4.07305 0
M  V30 12467 C 1187.4 -4.6268 -4.00741 0
M  V30 12468 N 1186.54 -4.70826 -5.20833 0
M  V30 12469 H 1191.38 -2.73328 -1.18727 0
M  V30 12470 H 1188.91 -1.35386 -0.57525 0
M  V30 12471 H 1190.87 -2.12351 -3.59114 0
M  V30 12472 H 1189.5 -1.13416 -3.0222 0
M  V30 12473 H 1188.55 -3.28637 -1.91577 0
M  V30 12474 H 1189.87 -4.19459 -2.69917 0
M  V30 12475 H 1189.02 -3.50542 -4.95182 0
M  V30 12476 H 1187.76 -2.49493 -4.19052 0
M  V30 12477 H 1186.76 -4.53215 -3.11249 0
M  V30 12478 H 1187.99 -5.55538 -3.90582 0
M  V30 12479 H 1185.93 -3.82233 -5.33136 0
M  V30 12480 H 1185.85 -5.54297 -5.14092 0
M  V30 12481 H 1187.12 -4.84677 -6.10499 0
M  V30 12482 N 1191.35 0.610423 -1.45298 0
M  V30 12483 C 1192.6 1.3668 -1.48872 0
M  V30 12484 C 1192.92 1.94562 -0.130686 0
M  V30 12485 O 1192.19 1.76996 0.839607 0
M  V30 12486 H 1190.77 0.507393 -0.548235 0
M  V30 12487 H 1193.43 0.716997 -1.81232 0
M  V30 12488 H 1192.53 2.18766 -2.22593 0
M  V30 12489 N 1192.83 1.32541 0.852676 0
M  V30 12490 C 1194.05 1.2636 1.64462 0
M  V30 12491 C 1194.48 -0.16508 1.87374 0
M  V30 12492 O 1193.83 -1.11712 1.42794 0
M  V30 12493 C 1193.88 2.03052 2.97997 0
M  V30 12494 O 1192.99 1.37967 3.88637 0
M  V30 12495 H 1192.33 0.435393 0.501327 0
M  V30 12496 H 1194.86 1.74888 1.06186 0
M  V30 12497 H 1194.87 2.133 3.47803 0
M  V30 12498 H 1193.54 3.06941 2.80642 0
M  V30 12499 H 1192.12 1.36279 3.47106 0
M  V30 12500 N 1194.3 -1.0692 1.15784 0
M  V30 12501 C 1195.25 -2.14235 0.858616 0
M  V30 12502 C 1196.22 -1.65006 -0.190295 0
M  V30 12503 O 1197.41 -1.90715 -0.0568853 0
M  V30 12504 C 1194.55 -3.43229 0.35888 0
M  V30 12505 C 1193.66 -4.06225 1.46987 0
M  V30 12506 C 1192.79 -5.2307 0.925812 0
M  V30 12507 C 1191.83 -5.78037 2.01345 0
M  V30 12508 N 1190.97 -6.86206 1.48544 0
M  V30 12509 H 1195.81 -2.3917 1.77769 0
M  V30 12510 H 1193.35 -1.17354 0.886925 0
M  V30 12511 H 1195.31 -4.17169 0.0508198 0
M  V30 12512 H 1193.94 -3.18531 -0.523259 0
M  V30 12513 H 1192.99 -3.29895 1.89403 0
M  V30 12514 H 1194.3 -4.43081 2.29088 0
M  V30 12515 H 1193.45 -6.04011 0.570555 0
M  V30 12516 H 1192.19 -4.87644 0.0740371 0
M  V30 12517 H 1191.2 -4.95738 2.37748 0
M  V30 12518 H 1192.42 -6.15517 2.86907 0
M  V30 12519 H 1190.37 -6.52711 0.656092 0
M  V30 12520 H 1190.29 -7.2197 2.24266 0
M  V30 12521 H 1191.55 -7.70842 1.15856 0
M  V30 12522 N 1195.78 -0.955326 -1.25345 0
M  V30 12523 C 1196.75 -0.480564 -2.24105 0
M  V30 12524 C 1197.75 0.416123 -1.55322 0
M  V30 12525 O 1198.94 0.213315 -1.72889 0
M  V30 12526 C 1196.07 0.305589 -3.39528 0
M  V30 12527 H 1197.26 -1.35349 -2.6762 0
M  V30 12528 H 1194.81 -0.738673 -1.37744 0
M  V30 12529 H 1195.55 1.19615 -3.01434 0
M  V30 12530 H 1195.33 -0.337719 -3.90643 0
M  V30 12531 H 1196.82 0.627201 -4.12863 0
M  V30 12532 N 1197.26 1.39987 -0.723979 0
M  V30 12533 C 1198.49 2.05037 -0.27702 0
M  V30 12534 C 1198.9 1.54565 1.08421 0
M  V30 12535 O 1198.26 0.705795 1.683 0
M  V30 12536 C 1198.31 3.60582 -0.25751 0
M  V30 12537 O 1198.03 4.09194 -1.565 0
M  V30 12538 C 1199.53 4.42817 0.206972 0
M  V30 12539 H 1196.75 0.659637 -0.122963 0
M  V30 12540 H 1199.3 1.7924 -0.98454 0
M  V30 12541 H 1197.45 3.85319 0.401037 0
M  V30 12542 H 1197.87 5.03447 -1.47112 0
M  V30 12543 H 1199.34 5.5174 0.16947 0
M  V30 12544 H 1199.82 4.21023 1.25045 0
M  V30 12545 H 1200.42 4.23205 -0.421604 0
M  V30 12546 N 1198.74 0.470782 1.50404 0
M  V30 12547 C 1199.65 -0.328877 2.32283 0
M  V30 12548 C 1200.67 -0.99629 1.42654 0
M  V30 12549 O 1201.84 -0.984331 1.75707 0
M  V30 12550 C 1198.91 -1.39675 3.1732 0
M  V30 12551 C 1197.97 -0.745965 4.22769 0
M  V30 12552 C 1197.2 -1.76295 5.03742 0
M  V30 12553 O 1197.42 -2.98943 4.85788 0
M  V30 12554 O 1196.36 -1.33495 5.86909 0
M  V30 12555 H 1200.18 0.340491 3.01785 0
M  V30 12556 H 1197.77 0.232637 1.47578 0
M  V30 12557 H 1199.65 -2.0153 3.70086 0
M  V30 12558 H 1198.33 -2.04959 2.50546 0
M  V30 12559 H 1197.23 -0.0884647 3.73995 0
M  V30 12560 H 1198.57 -0.136074 4.92012 0
M  V30 12561 N 1200.22 -1.56282 0.203376 0
M  V30 12562 C 1201.63 -1.58871 -0.152335 0
M  V30 12563 C 1201.83 -1.21978 -1.60386 0
M  V30 12564 O 1200.89 -0.946422 -2.34092 0
M  V30 12565 C 1202.2 -3.00287 0.157515 0
M  V30 12566 C 1203.75 -3.12846 0.098287 0
M  V30 12567 C 1204.23 -4.56408 0.38156 0
M  V30 12568 N 1205.72 -4.6202 0.330475 0
M  V30 12569 C 1206.45 -5.71006 0.523397 0
M  V30 12570 N 1205.95 -6.88428 0.777115 0
M  V30 12571 N 1207.74 -5.60238 0.457082 0
M  V30 12572 H 1199.89 -1.78543 1.15048 0
M  V30 12573 H 1202.15 -0.829019 0.459816 0
M  V30 12574 H 1201.86 -3.3187 1.16427 0
M  V30 12575 H 1201.73 -3.73372 -0.536041 0
M  V30 12576 H 1204.12 -2.8107 -0.899085 0
M  V30 12577 H 1204.2 -2.42129 0.825045 0
M  V30 12578 H 1203.85 -4.88897 1.37629 0
M  V30 12579 H 1203.78 -5.25325 -0.366182 0
M  V30 12580 H 1206.27 -3.77636 0.141327 0
M  V30 12581 H 1206.58 -7.67389 0.912911 0
M  V30 12582 H 1204.93 -6.90215 0.814104 0
M  V30 12583 H 1208.12 -4.67382 0.259226 0
M  V30 12584 H 1208.29 -6.45114 0.610848 0
M  V30 12585 N 1201.7 0.070167 -1.57444 0
M  V30 12586 C 1202.63 1.08351 -2.06839 0
M  V30 12587 C 1203.61 1.40269 -0.962224 0
M  V30 12588 O 1204.79 1.49867 -1.23505 0
M  V30 12589 C 1201.92 2.39649 -2.51368 0
M  V30 12590 C 1200.88 2.22079 -3.65875 0
M  V30 12591 C 1200.2 3.58776 -3.96464 0
M  V30 12592 C 1201.5 1.64069 -4.95862 0
M  V30 12593 H 1203.2 0.672465 -2.9175 0
M  V30 12594 H 1200.74 0.322027 -1.40353 0
M  V30 12595 H 1202.69 3.10833 -2.84537 0
M  V30 12596 H 1201.42 2.82736 -1.63487 0
M  V30 12597 H 1200.08 1.53337 -3.32992 0
M  V30 12598 H 1199.73 3.99436 -3.05712 0
M  V30 12599 H 1199.43 3.47859 -4.7357 0
M  V30 12600 H 1200.95 4.31387 -4.32131 0
M  V30 12601 H 1202.36 2.2512 -5.27251 0
M  V30 12602 H 1200.76 1.63843 -5.773 0
M  V30 12603 H 1201.83 0.60232 -4.81145 0
M  V30 12604 N 1203.17 1.53854 0.341593 0
M  V30 12605 C 1204.12 1.81979 1.41959 0
M  V30 12606 C 1205.09 0.665616 1.5218 0
M  V30 12607 O 1206.28 0.910246 1.67688 0
M  V30 12608 C 1203.42 2.03681 2.78583 0
M  V30 12609 C 1202.53 3.31389 2.77137 0
M  V30 12610 C 1201.66 3.43148 4.05491 0
M  V30 12611 C 1200.7 4.64799 3.98282 0
M  V30 12612 N 1199.84 4.73581 5.18329 0
M  V30 12613 H 1204.68 2.73953 1.17275 0
M  V30 12614 H 1202.22 1.35689 0.568062 0
M  V30 12615 H 1204.17 2.14253 3.57983 0
M  V30 12616 H 1202.8 1.15017 3.01614 0
M  V30 12617 H 1201.86 3.29649 1.89832 0
M  V30 12618 H 1203.17 4.20885 2.67689 0
M  V30 12619 H 1202.32 3.53163 4.93316 0
M  V30 12620 H 1201.06 2.51712 4.17723 0
M  V30 12621 H 1200.07 4.54859 3.08842 0
M  V30 12622 H 1201.29 5.57601 3.87631 0
M  V30 12623 H 1199.24 3.85055 5.31102 0
M  V30 12624 H 1199.15 5.57016 5.11145 0
M  V30 12625 H 1200.42 4.87908 6.0792 0
M  V30 12626 N 1204.65 -0.602709 1.4562 0
M  V30 12627 C 1205.6 -1.71312 1.54664 0
M  V30 12628 C 1206.57 -1.61403 0.392197 0
M  V30 12629 O 1207.75 -1.80911 0.606297 0
M  V30 12630 C 1204.89 -3.09629 1.52393 0
M  V30 12631 C 1204.01 -3.30308 2.78425 0
M  V30 12632 C 1203.14 -4.5876 2.67793 0
M  V30 12633 C 1202.18 -4.72713 3.88855 0
M  V30 12634 N 1201.32 -5.92469 3.76729 0
M  V30 12635 H 1206.16 -1.62918 2.49523 0
M  V30 12636 H 1203.69 -0.794324 1.2381 0
M  V30 12637 H 1205.65 -3.89661 1.49064 0
M  V30 12638 H 1204.28 -3.16968 0.610816 0
M  V30 12639 H 1203.33 -2.44018 2.9182 0
M  V30 12640 H 1204.65 -3.36491 3.68205 0
M  V30 12641 H 1203.8 -5.46993 2.62457 0
M  V30 12642 H 1202.54 -4.54983 1.75619 0
M  V30 12643 H 1201.54 -3.82903 3.94545 0
M  V30 12644 H 1202.77 -4.78284 4.82101 0
M  V30 12645 H 1200.72 -5.89728 2.87328 0
M  V30 12646 H 1200.63 -5.99833 4.60148 0
M  V30 12647 H 1201.9 -6.83187 3.75334 0
M  V30 12648 N 1206.13 -1.32992 -0.845635 0
M  V30 12649 C 1207.08 -1.22682 -1.95494 0
M  V30 12650 C 1208.05 -0.106942 -1.65755 0
M  V30 12651 O 1209.23 -0.28405 -1.88674 0
M  V30 12652 C 1206.37 -0.965068 -3.31331 0
M  V30 12653 C 1205.48 -2.17058 -3.7351 0
M  V30 12654 C 1204.62 -1.84355 -4.98183 0
M  V30 12655 C 1203.66 -3.01176 -5.32878 0
M  V30 12656 N 1202.8 -2.68506 -6.48729 0
M  V30 12657 H 1207.64 -2.17562 -2.03644 0
M  V30 12658 H 1205.17 -1.08194 -0.996613 0
M  V30 12659 H 1207.13 -0.793771 -4.09579 0
M  V30 12660 H 1205.76 -0.0530285 -3.22756 0
M  V30 12661 H 1204.81 -2.45185 -2.90841 0
M  V30 12662 H 1206.12 -3.04413 -3.95138 0
M  V30 12663 H 1205.28 -1.6383 -5.84162 0
M  V30 12664 H 1204.02 -0.942264 -4.78511 0
M  V30 12665 H 1203.02 -3.22323 -4.45408 0
M  V30 12666 H 1204.25 -3.9205 -5.54503 0
M  V30 12667 H 1202.19 -1.80929 -6.30556 0
M  V30 12668 H 1202.11 -3.49392 -6.70419 0
M  V30 12669 H 1203.38 -2.51432 -7.37836 0
M  V30 12670 N 1207.61 1.06304 -1.1635 0
M  V30 12671 C 1208.54 2.15745 -0.893103 0
M  V30 12672 C 1209.52 1.69341 0.160531 0
M  V30 12673 O 1210.7 1.94196 0.0126526 0
M  V30 12674 C 1207.83 3.45066 -0.393287 0
M  V30 12675 C 1206.79 4.04978 -1.38482 0
M  V30 12676 C 1206.11 5.29507 -0.743409 0
M  V30 12677 C 1207.41 4.4377 -2.75438 0
M  V30 12678 H 1209.11 2.38622 -1.80831 0
M  V30 12679 H 1206.65 1.14681 -0.870878 0
M  V30 12680 H 1208.61 4.20964 -0.191607 0
M  V30 12681 H 1207.33 3.21808 0.557426 0
M  V30 12682 H 1205.99 3.31136 -1.57304 0
M  V30 12683 H 1205.64 5.02545 0.213787 0
M  V30 12684 H 1205.34 5.7055 -1.40521 0
M  V30 12685 H 1206.86 6.08102 -0.551746 0
M  V30 12686 H 1208.28 5.1075 -2.60398 0
M  V30 12687 H 1206.67 4.95797 -3.38091 0
M  V30 12688 H 1207.74 3.54636 -3.30699 0
M  V30 12689 N 1209.09 0.96196 1.24836 0
M  V30 12690 C 1210.31 0.637709 1.97353 0
M  V30 12691 C 1210.74 -0.784919 1.7094 0
M  V30 12692 O 1210.09 -1.53188 0.969694 0
M  V30 12693 C 1210.14 0.911485 3.4889 0
M  V30 12694 O 1209.25 -0.00601668 4.124 0
M  V30 12695 H 1208.59 0.241685 0.618453 0
M  V30 12696 H 1211.12 1.29055 1.58764 0
M  V30 12697 H 1211.13 0.840702 3.99245 0
M  V30 12698 H 1209.8 1.9483 3.67442 0
M  V30 12699 H 1208.38 0.117597 3.72715 0
M  V30 12700 N 1210.56 -1.39601 0.731392 0
M  V30 12701 C 1211.47 -2.34425 0.090527 0
M  V30 12702 C 1212.49 -1.58131 -0.725992 0
M  V30 12703 O 1213.67 -1.90441 -0.655294 0
M  V30 12704 C 1210.73 -3.37138 -0.808624 0
M  V30 12705 C 1209.79 -4.29295 0.0197365 0
M  V30 12706 C 1209.02 -5.27102 -0.836593 0
M  V30 12707 O 1209.25 -5.31302 -2.07543 0
M  V30 12708 O 1208.18 -6.01307 -0.267172 0
M  V30 12709 H 1212.01 -2.9088 0.873084 0
M  V30 12710 H 1209.59 -1.41066 0.492024 0
M  V30 12711 H 1211.47 -4.00087 -1.32319 0
M  V30 12712 H 1210.15 -2.83074 -1.57006 0
M  V30 12713 H 1209.06 -3.69581 0.579744 0
M  V30 12714 H 1210.39 -4.86555 0.743308 0
M  V30 12715 N 1212.04 -0.478751 -1.50152 0
M  V30 12716 C 1212.97 0.347829 -2.26545 0
M  V30 12717 C 1213.99 0.950354 -1.32182 0
M  V30 12718 O 1215.18 0.837462 -1.57635 0
M  V30 12719 C 1212.28 1.50255 -3.0377 0
M  V30 12720 C 1211.45 1.01142 -4.25546 0
M  V30 12721 C 1210.51 2.0411 -4.85 0
M  V30 12722 O 1209.53 1.61862 -5.45701 0
M  V30 12723 N 1210.74 3.36982 -4.72677 0
M  V30 12724 H 1213.5 -0.307113 -2.98122 0
M  V30 12725 H 1211.06 -0.309981 -1.58905 0
M  V30 12726 H 1213.05 2.18848 -3.40423 0
M  V30 12727 H 1211.62 2.06205 -2.34943 0
M  V30 12728 H 1210.84 0.151124 -3.9391 0
M  V30 12729 H 1212.13 0.661326 -5.04484 0
M  V30 12730 H 1211.53 3.74011 -4.2442 0
M  V30 12731 H 1210.09 4.0135 -5.13577 0
M  V30 12732 N 1213.52 1.56172 -0.211661 0
M  V30 12733 C 1214.43 2.23468 0.714081 0
M  V30 12734 C 1215.45 1.23908 1.22159 0
M  V30 12735 O 1216.62 1.56693 1.26528 0
M  V30 12736 C 1213.69 2.89375 1.90953 0
M  V30 12737 C 1212.75 4.04251 1.44497 0
M  V30 12738 C 1211.98 4.67006 2.58343 0
M  V30 12739 O 1212.2 4.28721 3.76237 0
M  V30 12740 O 1211.14 5.56177 2.3011 0
M  V30 12741 H 1214.96 3.03219 0.170862 0
M  V30 12742 H 1212.55 1.49389 0.0183607 0
M  V30 12743 H 1214.43 3.3101 2.60787 0
M  V30 12744 H 1213.11 2.12591 2.44104 0
M  V30 12745 H 1212.01 3.67205 0.714932 0
M  V30 12746 H 1213.35 4.82748 0.959947 0
M  V30 12747 N 1215 -0.0618163 1.57479 0
M  V30 12748 C 1216.22 -0.775513 1.92355 0
M  V30 12749 C 1216.65 -1.69816 0.808949 0
M  V30 12750 O 1216.01 -1.79736 -0.23761 0
M  V30 12751 C 1216.05 -1.5367 3.26218 0
M  V30 12752 O 1215.16 -2.64802 3.16155 0
M  V30 12753 H 1214.5 -0.210909 0.629614 0
M  V30 12754 H 1217.03 -0.0270752 2.04582 0
M  V30 12755 H 1217.04 -1.91379 3.6033 0
M  V30 12756 H 1215.71 -0.859798 4.06916 0
M  V30 12757 H 1214.29 -2.29876 2.93618 0
M  V30 12758 N 1216.48 -1.54033 -0.333429 0
M  V30 12759 C 1217.41 -1.85719 -1.4153 0
M  V30 12760 C 1218.39 -0.713144 -1.54429 0
M  V30 12761 O 1219.57 -0.965984 -1.68471 0
M  V30 12762 C 1216.7 -2.07578 -2.78439 0
M  V30 12763 C 1215.66 -3.23411 -2.80338 0
M  V30 12764 C 1214.98 -3.30622 -4.2023 0
M  V30 12765 C 1216.28 -4.6129 -2.44968 0
M  V30 12766 H 1217.98 -2.76325 -1.15261 0
M  V30 12767 H 1215.52 -1.32957 -0.55303 0
M  V30 12768 H 1217.48 -2.28329 -3.5418 0
M  V30 12769 H 1216.2 -1.13713 -3.06165 0
M  V30 12770 H 1214.86 -3.02531 -2.07052 0
M  V30 12771 H 1214.51 -2.34333 -4.45081 0
M  V30 12772 H 1214.21 -4.08466 -4.22409 0
M  V30 12773 H 1215.73 -3.53596 -4.97798 0
M  V30 12774 H 1217.14 -4.81987 -3.10421 0
M  V30 12775 H 1215.54 -5.41611 -2.58414 0
M  V30 12776 H 1216.61 -4.6421 -1.40134 0
M  V30 12777 N 1217.95 0.594978 -1.45938 0
M  V30 12778 C 1218.88 1.71536 -1.58422 0
M  V30 12779 C 1219.87 1.64441 -0.435116 0
M  V30 12780 O 1221.05 1.82647 -0.659839 0
M  V30 12781 C 1218.18 3.10163 -1.56257 0
M  V30 12782 C 1217.13 3.3208 -2.70013 0
M  V30 12783 C 1216.46 4.71108 -2.52905 0
M  V30 12784 C 1217.76 3.21105 -4.11933 0
M  V30 12785 H 1219.45 1.61344 -2.52207 0
M  V30 12786 H 1217 0.774791 -1.2138 0
M  V30 12787 H 1218.95 3.88352 -1.63587 0
M  V30 12788 H 1217.68 3.21225 -0.590093 0
M  V30 12789 H 1216.34 2.56286 -2.62132 0
M  V30 12790 H 1215.98 4.7892 -1.53768 0
M  V30 12791 H 1215.68 4.86727 -3.29197 0
M  V30 12792 H 1217.21 5.51482 -2.62107 0
M  V30 12793 H 1218.62 3.89153 -4.2099 0
M  V30 12794 H 1217.02 3.4825 -4.88715 0
M  V30 12795 H 1218.09 2.18359 -4.32952 0
M  V30 12796 N 1219.43 1.33438 0.838571 0
M  V30 12797 C 1220.36 1.26344 1.96365 0
M  V30 12798 C 1221.34 0.143956 1.6949 0
M  V30 12799 O 1222.53 0.333779 1.9131 0
M  V30 12800 C 1219.66 1.0022 3.32526 0
M  V30 12801 C 1218.61 2.08466 3.73799 0
M  V30 12802 C 1217.94 1.67555 5.07769 0
M  V30 12803 C 1219.24 3.50144 3.87552 0
M  V30 12804 H 1220.93 2.20478 2.02558 0
M  V30 12805 H 1218.48 1.06139 0.973168 0
M  V30 12806 H 1220.43 0.939068 4.10803 0
M  V30 12807 H 1219.16 0.0252514 3.2659 0
M  V30 12808 H 1217.81 2.13822 2.97785 0
M  V30 12809 H 1217.46 0.685619 4.98305 0
M  V30 12810 H 1217.16 2.39993 5.36356 0
M  V30 12811 H 1218.69 1.62708 5.88522 0
M  V30 12812 H 1220.1 3.47287 4.56141 0
M  V30 12813 H 1218.5 4.21069 4.27575 0
M  V30 12814 H 1219.57 3.88628 2.89994 0
M  V30 12815 N 1220.91 -1.05686 1.16912 0
M  V30 12816 C 1221.84 -2.15268 0.904532 0
M  V30 12817 C 1222.82 -1.69424 -0.151548 0
M  V30 12818 O 1224.01 -1.942 -0.00235371 0
M  V30 12819 C 1221.14 -3.44853 0.411581 0
M  V30 12820 C 1220.09 -4.04237 1.40628 0
M  V30 12821 C 1219.42 -5.29105 0.771479 0
M  V30 12822 C 1220.72 -4.42303 2.77787 0
M  V30 12823 H 1222.41 -2.37659 1.82094 0
M  V30 12824 H 1219.96 -1.14217 0.876947 0
M  V30 12825 H 1221.91 -4.20857 0.213929 0
M  V30 12826 H 1220.63 -3.22099 -0.540352 0
M  V30 12827 H 1219.29 -3.30297 1.59058 0
M  V30 12828 H 1218.94 -5.02652 -0.187133 0
M  V30 12829 H 1218.64 -5.69797 1.43545 0
M  V30 12830 H 1220.16 -6.07801 0.583988 0
M  V30 12831 H 1221.58 -5.09362 2.63103 0
M  V30 12832 H 1219.98 -4.93997 3.40716 0
M  V30 12833 H 1221.05 -3.52877 3.32575 0
M  V30 12834 N 1222.39 -0.968567 -1.24324 0
M  V30 12835 C 1223.32 -0.444065 -2.23838 0
M  V30 12836 C 1224.3 0.482311 -1.55282 0
M  V30 12837 O 1225.48 0.413489 -1.83909 0
M  V30 12838 C 1222.61 0.358874 -3.36793 0
M  V30 12839 C 1221.66 -0.509913 -4.23441 0
M  V30 12840 S 1222.49 -1.95064 -4.98708 0
M  V30 12841 C 1223.65 -1.15652 -6.15122 0
M  V30 12842 H 1223.88 -1.28738 -2.67981 0
M  V30 12843 H 1221.41 -0.773665 -1.33618 0
M  V30 12844 H 1223.37 0.816164 -4.02305 0
M  V30 12845 H 1222.03 1.17717 -2.91207 0
M  V30 12846 H 1221.22 0.106617 -5.03887 0
M  V30 12847 H 1220.83 -0.902967 -3.62936 0
M  V30 12848 H 1223.12 -0.411966 -6.76246 0
M  V30 12849 H 1224.06 -1.93539 -6.81137 0
M  V30 12850 H 1224.47 -0.680507 -5.60383 0
M  V30 12851 N 1223.87 1.39211 -0.738786 0
M  V30 12852 C 1225.09 2.05256 -0.297421 0
M  V30 12853 C 1225.52 1.55341 1.06069 0
M  V30 12854 O 1224.87 0.698823 1.67291 0
M  V30 12855 C 1224.92 3.59239 -0.312969 0
M  V30 12856 O 1224.03 4.06448 0.698112 0
M  V30 12857 H 1223.37 0.650245 -0.134454 0
M  V30 12858 H 1225.9 1.78173 -1.00577 0
M  V30 12859 H 1225.91 4.07691 -0.158675 0
M  V30 12860 H 1224.58 3.94931 -1.30394 0
M  V30 12861 H 1223.16 3.69401 0.509643 0
M  V30 12862 N 1225.34 0.486708 1.49896 0
M  V30 12863 C 1226.76 0.0353906 1.86666 0
M  V30 12864 C 1227.11 -1.3743 1.40026 0
M  V30 12865 O 1226.23 -2.02163 0.77194 0
M  V30 12866 C 1226.83 0.0574475 3.38751 0
M  V30 12867 C 1225.39 -0.338464 3.74875 0
M  V30 12868 C 1224.53 0.436196 2.73848 0
M  V30 12869 H 1227.48 0.700215 1.42417 0
M  V30 12870 H 1227.5 -0.741175 3.73212 0
M  V30 12871 H 1227.02 1.08356 3.72667 0
M  V30 12872 H 1225.12 -1.36835 3.46565 0
M  V30 12873 H 1225.23 -0.0289519 4.79091 0
M  V30 12874 H 1223.59 -0.112141 2.54453 0
M  V30 12875 H 1224.38 1.46212 3.10608 0
M  V30 12876 N 1226.82 -1.56058 0.219941 0
M  V30 12877 C 1228.05 -2.031 -0.42014 0
M  V30 12878 C 1228.47 -1.09875 -1.52673 0
M  V30 12879 O 1227.83 -0.0866458 -1.81093 0
M  V30 12880 C 1227.88 -3.48389 -0.93047 0
M  V30 12881 O 1226.98 -3.583 -2.04192 0
M  V30 12882 H 1226.32 -0.657129 -0.0952772 0
M  V30 12883 H 1228.85 -2.01787 0.338105 0
M  V30 12884 H 1228.86 -3.88678 -1.2407 0
M  V30 12885 H 1227.54 -4.15725 -0.120539 0
M  V30 12886 H 1226.12 -3.29898 -1.73845 0
M  V30 12887 N 1228.3 0.053464 -1.57509 0
M  V30 12888 C 1229.23 1.09391 -2.00272 0
M  V30 12889 C 1230.21 1.36553 -0.882727 0
M  V30 12890 O 1231.4 1.4962 -1.14657 0
M  V30 12891 C 1228.52 2.43424 -2.35505 0
M  V30 12892 C 1227.57 2.32278 -3.577 0
M  V30 12893 S 1228.4 1.69939 -5.0782 0
M  V30 12894 C 1229.56 3.05512 -5.46272 0
M  V30 12895 H 1229.79 0.729569 -2.88209 0
M  V30 12896 H 1227.32 0.262633 -1.5215 0
M  V30 12897 H 1229.28 3.20515 -2.56477 0
M  V30 12898 H 1227.94 2.77013 -1.48064 0
M  V30 12899 H 1227.14 3.31165 -3.79928 0
M  V30 12900 H 1226.74 1.63327 -3.36453 0
M  V30 12901 H 1229.03 4.0184 -5.45464 0
M  V30 12902 H 1229.97 2.88043 -6.46867 0
M  V30 12903 H 1230.38 3.06962 -4.73745 0
M  V30 12904 N 1229.78 1.54207 0.325255 0
M  V30 12905 C 1230.74 1.82757 1.38321 0
M  V30 12906 C 1231.74 0.699312 1.44797 0
M  V30 12907 O 1232.93 0.96762 1.44854 0
M  V30 12908 C 1230.06 1.98608 2.7707 0
M  V30 12909 H 1231.26 2.7728 1.14261 0
M  V30 12910 H 1228.81 1.45899 0.560647 0
M  V30 12911 H 1229.55 1.0629 3.06387 0
M  V30 12912 H 1229.33 2.80707 2.73763 0
M  V30 12913 H 1230.82 2.2215 3.53609 0
M  V30 12914 N 1231.26 -0.58723 1.46251 0
M  V30 12915 C 1232.5 -1.3456 1.51327 0
M  V30 12916 C 1232.83 -1.93815 0.163146 0
M  V30 12917 O 1232.09 -1.76723 -0.840677 0
M  V30 12918 C 1232.39 -2.49776 2.5563 0
M  V30 12919 C 1232.05 -2.08543 3.99776 0
M  V30 12920 C 1230.71 -1.97013 4.39021 0
M  V30 12921 C 1233.07 -1.76669 4.90344 0
M  V30 12922 C 1230.39 -1.5186 5.66706 0
M  V30 12923 C 1232.75 -1.32996 6.18462 0
M  V30 12924 C 1231.41 -1.20039 6.56618 0
M  V30 12925 H 1230.68 -0.492391 0.553744 0
M  V30 12926 H 1233.33 -0.661715 1.79704 0
M  V30 12927 H 1231.63 -3.23592 2.20897 0
M  V30 12928 H 1233.33 -3.07995 2.56788 0
M  V30 12929 H 1229.92 -2.18451 3.68751 0
M  V30 12930 H 1234.1 -1.84465 4.60746 0
M  V30 12931 H 1229.36 -1.40467 5.95045 0
M  V30 12932 H 1233.53 -1.07385 6.88071 0
M  V30 12933 H 1231.16 -0.848268 7.55452 0
M  V30 12934 N 1232.74 -1.33881 -0.831482 0
M  V30 12935 C 1234.15 -1.13376 -1.1233 0
M  V30 12936 C 1234.35 0.0704402 -2.01377 0
M  V30 12937 O 1233.41 0.748516 -2.4115 0
M  V30 12938 C 1234.72 -2.42484 -1.77826 0
M  V30 12939 C 1236.27 -2.4846 -1.90359 0
M  V30 12940 C 1236.74 -3.77548 -2.59272 0
M  V30 12941 N 1238.23 -3.7866 -2.66778 0
M  V30 12942 C 1238.97 -4.75258 -3.20807 0
M  V30 12943 N 1238.47 -5.82234 -3.75466 0
M  V30 12944 N 1240.26 -4.62724 -3.19128 0
M  V30 12945 H 1232.41 -2.11051 -0.238998 0
M  V30 12946 H 1234.67 -0.932893 -0.168565 0
M  V30 12947 H 1234.38 -3.30647 -1.19857 0
M  V30 12948 H 1234.25 -2.55186 -2.77777 0
M  V30 12949 H 1236.64 -1.60742 -2.47479 0
M  V30 12950 H 1236.72 -2.39693 -0.893359 0
M  V30 12951 H 1236.36 -4.65651 -2.02808 0
M  V30 12952 H 1236.29 -3.83594 -3.60781 0
M  V30 12953 H 1238.79 -3.01351 -2.28026 0
M  V30 12954 H 1239.1 -6.51968 -4.14918 0
M  V30 12955 H 1237.44 -5.85959 -3.73733 0
M  V30 12956 H 1240.63 -3.78303 -2.75688 0
M  V30 12957 H 1240.81 -5.38175 -3.60932 0
M  V30 12958 N 1234.21 1.05064 -1.1747 0
M  V30 12959 C 1235.46 1.78352 -0.965311 0
M  V30 12960 C 1235.79 1.87527 0.504707 0
M  V30 12961 O 1235.07 1.376 1.37465 0
M  V30 12962 C 1235.35 3.22173 -1.60862 0
M  V30 12963 C 1235.2 3.21003 -3.15083 0
M  V30 12964 C 1236.52 4.2004 -1.31358 0
M  V30 12965 H 1233.64 0.647452 -0.352101 0
M  V30 12966 H 1236.28 1.22794 -1.44988 0
M  V30 12967 H 1234.43 3.69613 -1.19658 0
M  V30 12968 H 1236.11 2.81629 -3.65353 0
M  V30 12969 H 1234.35 2.59309 -3.47766 0
M  V30 12970 H 1235.02 4.22516 -3.55224 0
M  V30 12971 H 1237.5 3.81099 -1.6704 0
M  V30 12972 H 1236.37 5.1891 -1.78953 0
M  V30 12973 H 1236.63 4.41477 -0.234606 0
M  V30 12974 N 1235.69 0.975146 1.23809 0
M  V30 12975 C 1236.64 0.482305 2.2284 0
M  V30 12976 C 1237.63 -0.439787 1.54773 0
M  V30 12977 O 1238.82 -0.269496 1.74936 0
M  V30 12978 C 1235.95 -0.219056 3.426 0
M  V30 12979 C 1235.03 0.722299 4.17904 0
M  V30 12980 N 1235.42 1.86271 4.70252 0
M  V30 12981 C 1233.72 0.53457 4.42785 0
M  V30 12982 C 1234.42 2.45212 5.2749 0
M  V30 12983 N 1233.4 1.73652 5.15117 0
M  V30 12984 H 1237.2 1.35234 2.60939 0
M  V30 12985 H 1234.71 0.835162 1.3928 0
M  V30 12986 H 1236.71 -0.589401 4.12713 0
M  V30 12987 H 1235.37 -1.08544 3.0602 0
M  V30 12988 H 1236.38 2.24404 4.66758 0
M  V30 12989 H 1233.06 -0.287232 4.16511 0
M  V30 12990 H 1234.45 3.41491 5.78648 0
M  V30 12991 N 1237.17 -1.38817 0.746158 0
M  V30 12992 C 1238.39 -2.05096 0.308302 0
M  V30 12993 C 1238.82 -1.55902 -1.05244 0
M  V30 12994 O 1238.18 -0.707685 -1.66918 0
M  V30 12995 C 1238.23 -3.59068 0.332016 0
M  V30 12996 O 1237.33 -4.06813 -0.676547 0
M  V30 12997 H 1236.67 -0.649523 0.1379 0
M  V30 12998 H 1239.2 -1.77637 1.0152 0
M  V30 12999 H 1239.21 -4.07601 0.180293 0
M  V30 13000 H 1237.89 -3.94234 1.32487 0
M  V30 13001 H 1236.46 -3.69666 -0.490046 0
M  V30 13002 N 1238.65 -0.49465 -1.49636 0
M  V30 13003 C 1240.06 -0.150217 -1.58892 0
M  V30 13004 C 1240.26 1.34485 -1.50053 0
M  V30 13005 O 1239.32 2.12026 -1.37118 0
M  V30 13006 C 1240.63 -0.721372 -2.91919 0
M  V30 13007 C 1242.18 -0.686908 -3.0537 0
M  V30 13008 C 1242.66 -1.23601 -4.41006 0
M  V30 13009 N 1244.15 -1.19644 -4.47481 0
M  V30 13010 C 1244.88 -1.59157 -5.50869 0
M  V30 13011 N 1244.38 -2.06232 -6.61393 0
M  V30 13012 N 1246.17 -1.50612 -5.41546 0
M  V30 13013 H 1238.32 -1.46675 -1.53624 0
M  V30 13014 H 1240.58 -0.608003 -0.727349 0
M  V30 13015 H 1240.29 -1.76964 -3.03935 0
M  V30 13016 H 1240.16 -0.178199 -3.76779 0
M  V30 13017 H 1242.55 0.352508 -2.92987 0
M  V30 13018 H 1242.63 -1.26716 -2.22209 0
M  V30 13019 H 1242.28 -2.27418 -4.5414 0
M  V30 13020 H 1242.21 -0.631765 -5.22797 0
M  V30 13021 H 1244.7 -0.851443 -3.68183 0
M  V30 13022 H 1245.01 -2.34469 -7.36372 0
M  V30 13023 H 1243.36 -2.10202 -6.6245 0
M  V30 13024 H 1246.55 -1.13659 -4.54092 0
M  V30 13025 H 1246.72 -1.8173 -6.21995 0
M  V30 13026 N 1240.13 1.55939 -0.228214 0
M  V30 13027 C 1241.07 2.21957 0.69556 0
M  V30 13028 C 1242.07 1.20109 1.19458 0
M  V30 13029 O 1243.27 1.38171 1.15364 0
M  V30 13030 H 1239.65 0.711744 0.242744 0
M  V30 13031 H 1241.62 2.98177 0.115403 0
M  V30 13032 C 1240.37 2.91847 1.88999 0
M  V30 13033 H 1239.69 3.69978 1.51512 0
M  V30 13034 H 1241.13 3.4143 2.51399 0
M  V30 13035 C 1239.59 1.94683 2.74954 0
M  V30 13036 O 1240.12 1.468 3.73915 0
M  V30 13037 N 1238.33 1.62188 2.41129 0
M  V30 13038 H 1237.87 2.01322 1.60709 0
M  V30 13039 H 1237.83 0.9744 2.98919 0
M  V30 13040 N 1241.6 -0.0451101 1.57535 0
M  V30 13041 C 1242.85 -0.737654 1.88157 0
M  V30 13042 C 1243.17 -1.76743 0.823817 0
M  V30 13043 O 1242.44 -1.95366 -0.144503 0
M  V30 13044 H 1241.02 -0.275431 0.694368 0
M  V30 13045 H 1243.69 -0.0148651 1.94894 0
M  V30 13046 H 1242.78 -1.23726 2.86528 0
M  V30 13047 N 1243.08 -1.54377 -0.317073 0
M  V30 13048 C 1244.03 -1.84214 -1.39046 0
M  V30 13049 C 1245 -0.689742 -1.51102 0
M  V30 13050 O 1246.18 -0.936809 -1.66218 0
M  V30 13051 C 1243.32 -2.08087 -2.75307 0
M  V30 13052 C 1242.44 -3.35756 -2.7183 0
M  V30 13053 C 1241.57 -3.49556 -3.9998 0
M  V30 13054 C 1240.61 -4.71076 -3.90837 0
M  V30 13055 N 1239.75 -4.81767 -5.10729 0
M  V30 13056 H 1244.59 -2.75785 -1.12902 0
M  V30 13057 H 1242.13 -1.36575 -0.546404 0
M  V30 13058 H 1244.08 -2.19921 -3.54529 0
M  V30 13059 H 1242.71 -1.19801 -2.99746 0
M  V30 13060 H 1241.77 -3.32627 -1.84563 0
M  V30 13061 H 1243.08 -4.2509 -2.60959 0
M  V30 13062 H 1242.23 -3.60967 -4.87635 0
M  V30 13063 H 1240.97 -2.58326 -4.13665 0
M  V30 13064 H 1239.98 -4.59715 -3.01566 0
M  V30 13065 H 1241.2 -5.63698 -3.78711 0
M  V30 13066 H 1239.15 -3.93455 -5.24908 0
M  V30 13067 H 1239.06 -5.65077 -5.02219 0
M  V30 13068 H 1240.33 -4.97517 -6.00081 0
M  V30 13069 N 1244.56 0.579466 -1.4656 0
M  V30 13070 C 1245.79 1.36837 -1.55854 0
M  V30 13071 C 1246.21 1.87019 -0.20141 0
M  V30 13072 O 1245.57 1.61746 0.81901 0
M  V30 13073 C 1245.62 2.52965 -2.56985 0
M  V30 13074 O 1244.72 3.54505 -2.10713 0
M  V30 13075 H 1244.06 0.407379 -0.524345 0
M  V30 13076 H 1246.59 0.702558 -1.9216 0
M  V30 13077 H 1246.6 2.99838 -2.76697 0
M  V30 13078 H 1245.28 2.15793 -3.55536 0
M  V30 13079 H 1243.85 3.14089 -2.01003 0
M  V30 13080 N 1246.04 1.3432 0.824371 0
M  V30 13081 C 1247.27 1.29481 1.60992 0
M  V30 13082 C 1247.68 -0.133581 1.88728 0
M  V30 13083 O 1247.02 -1.09065 1.4782 0
M  V30 13084 C 1247.08 2.01604 2.97651 0
M  V30 13085 C 1246.75 3.50866 2.92817 0
M  V30 13086 C 1247.74 4.458 2.67504 0
M  V30 13087 C 1245.43 3.93258 3.12495 0
M  V30 13088 C 1247.42 5.81101 2.61918 0
M  V30 13089 C 1245.11 5.28659 3.06533 0
M  V30 13090 C 1246.11 6.22392 2.81278 0
M  V30 13091 O 1245.79 7.55311 2.75246 0
M  V30 13092 H 1245.53 0.446931 0.507177 0
M  V30 13093 H 1248.08 1.77484 1.03386 0
M  V30 13094 H 1246.31 1.48212 3.5717 0
M  V30 13095 H 1248 1.90073 3.58646 0
M  V30 13096 H 1248.77 4.1437 2.52037 0
M  V30 13097 H 1244.64 3.20699 3.31169 0
M  V30 13098 H 1248.19 6.54233 2.42125 0
M  V30 13099 H 1244.09 5.59709 3.21553 0
M  V30 13100 H 1244.85 7.6503 2.90984 0
M  V30 13101 N 1247.52 -1.0444 1.18026 0
M  V30 13102 C 1248.74 -1.81234 0.998089 0
M  V30 13103 C 1249.16 -1.83271 -0.453559 0
M  V30 13104 O 1248.52 -1.26545 -1.31502 0
M  V30 13105 C 1248.57 -3.27007 1.54106 0
M  V30 13106 O 1248.29 -3.25174 2.93587 0
M  V30 13107 C 1249.79 -4.20461 1.40455 0
M  V30 13108 H 1247.01 -0.57085 0.352663 0
M  V30 13109 H 1249.55 -1.31649 1.56489 0
M  V30 13110 H 1247.71 -3.73837 1.01611 0
M  V30 13111 H 1248.12 -4.16466 3.18836 0
M  V30 13112 H 1249.6 -5.20695 1.83249 0
M  V30 13113 H 1250.07 -4.37781 0.352713 0
M  V30 13114 H 1250.68 -3.79493 1.92004 0
M  V30 13115 N 1248.99 -0.981699 -1.2329 0
M  V30 13116 C 1250.24 -0.651302 -1.9174 0
M  V30 13117 C 1250.57 0.815318 -1.76587 0
M  V30 13118 O 1249.82 1.60377 -1.1215 0
M  V30 13119 C 1250.12 -0.989244 -3.43437 0
M  V30 13120 C 1249.79 -2.44629 -3.78771 0
M  V30 13121 C 1248.45 -2.84449 -3.88127 0
M  V30 13122 C 1250.8 -3.39123 -3.95784 0
M  V30 13123 C 1248.13 -4.17775 -4.11923 0
M  V30 13124 C 1250.48 -4.72095 -4.21081 0
M  V30 13125 C 1249.15 -5.11672 -4.28659 0
M  V30 13126 H 1248.42 -0.238328 -0.701627 0
M  V30 13127 H 1251.06 -1.2358 -1.46288 0
M  V30 13128 H 1249.37 -0.322677 -3.90469 0
M  V30 13129 H 1251.07 -0.711796 -3.94632 0
M  V30 13130 H 1247.66 -2.12759 -3.72064 0
M  V30 13131 H 1251.84 -3.09536 -3.87945 0
M  V30 13132 H 1247.1 -4.48043 -4.16013 0
M  V30 13133 H 1251.27 -5.45271 -4.33189 0
M  V30 13134 H 1248.9 -6.15003 -4.46851 0
M  V30 13135 N 1250.47 1.3842 -0.753509 0
M  V30 13136 C 1251.4 2.33073 -0.141198 0
M  V30 13137 C 1252.38 1.54863 0.70367 0
M  V30 13138 O 1253.57 1.8318 0.644872 0
M  V30 13139 C 1250.7 3.39043 0.752802 0
M  V30 13140 C 1249.65 4.27999 0.0106692 0
M  V30 13141 C 1248.98 5.24824 1.02291 0
M  V30 13142 C 1250.28 5.09308 -1.15768 0
M  V30 13143 H 1251.97 2.84528 -0.93188 0
M  V30 13144 H 1249.52 1.36802 -0.449567 0
M  V30 13145 H 1251.47 4.04224 1.19083 0
M  V30 13146 H 1250.2 2.8607 1.57581 0
M  V30 13147 H 1248.85 3.64323 -0.407939 0
M  V30 13148 H 1248.5 4.68139 1.83998 0
M  V30 13149 H 1248.2 5.85196 0.53101 0
M  V30 13150 H 1249.73 5.92882 1.46026 0
M  V30 13151 H 1251.14 5.6773 -0.797203 0
M  V30 13152 H 1249.54 5.78914 -1.58044 0
M  V30 13153 H 1250.61 4.43051 -1.97062 0
M  V30 13154 N 1251.95 0.502579 1.49372 0
M  V30 13155 C 1253.2 -0.0432341 2.01654 0
M  V30 13156 C 1253.51 -1.379 1.38719 0
M  V30 13157 O 1254.72 -2.01159 1.82338 0
M  V30 13158 C 1253.17 -0.127509 3.59674 0
M  V30 13159 C 1252.78 1.20171 4.31582 0
M  V30 13160 C 1254.53 -0.623603 4.19895 0
M  V30 13161 C 1252.43 1.07951 5.81464 0
M  V30 13162 H 1251.36 -0.0199308 0.753737 0
M  V30 13163 H 1254.01 0.642237 1.71894 0
M  V30 13164 H 1252.4 -0.877465 3.86156 0
M  V30 13165 H 1253.57 1.96508 4.16799 0
M  V30 13166 H 1251.89 1.63136 3.83113 0
M  V30 13167 H 1254.48 -0.732562 5.29658 0
M  V30 13168 H 1254.83 -1.62282 3.83367 0
M  V30 13169 H 1255.36 0.0698641 3.97739 0
M  V30 13170 H 1252.1 2.05304 6.22519 0
M  V30 13171 H 1251.62 0.357051 5.98736 0
M  V30 13172 H 1253.3 0.758885 6.42534 0
M  V30 13173 N 1253.43 -1.55816 0.23648 0
M  V30 13174 C 1254.65 -2.03534 -0.398575 0
M  V30 13175 C 1255.08 -1.11488 -1.51499 0
M  V30 13176 O 1254.44 -0.105848 -1.80991 0
M  V30 13177 C 1254.48 -3.49356 -0.893467 0
M  V30 13178 O 1253.59 -3.60446 -2.00381 0
M  V30 13179 H 1252.93 -0.658102 -0.0883021 0
M  V30 13180 H 1255.46 -2.01417 0.359488 0
M  V30 13181 H 1255.47 -3.89972 -1.19941 0
M  V30 13182 H 1254.14 -4.1583 -0.0764388 0
M  V30 13183 H 1252.72 -3.31723 -1.70336 0
M  V30 13184 N 1254.91 0.036755 -1.57557 0
M  V30 13185 C 1256.13 0.744813 -1.93565 0
M  V30 13186 C 1256.56 1.68508 -0.835863 0
M  V30 13187 O 1255.91 1.80091 0.208986 0
M  V30 13188 C 1255.96 1.48461 -3.28621 0
M  V30 13189 O 1255.07 2.59739 -3.20327 0
M  V30 13190 H 1254.41 0.200866 -0.632889 0
M  V30 13191 H 1256.94 -0.00547543 -2.04599 0
M  V30 13192 H 1256.95 1.85622 -3.63329 0
M  V30 13193 H 1255.62 0.794953 -4.08232 0
M  V30 13194 H 1254.2 2.25176 -2.97237 0
M  V30 13195 N 1256.39 1.54543 0.308881 0
M  V30 13196 C 1257.66 1.64118 1.06418 0
M  V30 13197 C 1258.04 0.484402 2.05467 0
M  V30 13198 O 1257.39 -0.519752 2.2251 0
M  V30 13199 C 1257.6 3.01776 1.75306 0
M  V30 13200 C 1258.95 3.58324 2.27792 0
M  V30 13201 O 1259.97 3.04177 1.85351 0
M  V30 13202 O 1258.83 4.53113 3.05533 0
M  V30 13203 H 1255.93 0.665172 0.491401 0
M  V30 13204 H 1258.47 1.66889 0.307598 0
M  V30 13205 H 1257.24 3.77407 1.03341 0
M  V30 13206 H 1256.87 3.02748 2.57739 0
M  V30 13207 N 1257.86 -0.571685 1.46866 0
M  V30 13208 C 1259.09 -1.35327 1.56109 0
M  V30 13209 C 1259.5 -1.88086 0.20504 0
M  V30 13210 O 1258.84 -1.64896 -0.809626 0
M  V30 13211 C 1258.91 -2.56939 2.51441 0
M  V30 13212 C 1258.57 -2.2557 3.97451 0
M  V30 13213 C 1259.57 -1.83737 4.86351 0
M  V30 13214 C 1257.25 -2.37375 4.42672 0
M  V30 13215 C 1259.25 -1.54118 6.18487 0
M  V30 13216 C 1256.93 -2.07368 5.7484 0
M  V30 13217 C 1257.93 -1.65806 6.62569 0
M  V30 13218 O 1257.62 -1.36173 7.92283 0
M  V30 13219 H 1257.35 -0.419368 0.530194 0
M  V30 13220 H 1259.91 -0.700859 1.93073 0
M  V30 13221 H 1258.14 -3.25023 2.09517 0
M  V30 13222 H 1259.82 -3.19012 2.5097 0
M  V30 13223 H 1260.59 -1.74122 4.52666 0
M  V30 13224 H 1256.47 -2.68686 3.74605 0
M  V30 13225 H 1260.01 -1.21603 6.8692 0
M  V30 13226 H 1255.91 -2.16611 6.08071 0
M  V30 13227 H 1256.68 -1.49926 8.04652 0
M  V30 13228 N 1259.34 -1.34755 -0.817236 0
M  V30 13229 C 1260.25 -1.28888 -1.96023 0
M  V30 13230 C 1261.27 -0.195582 -1.72897 0
M  V30 13231 O 1262.44 -0.423071 -1.96906 0
M  V30 13232 C 1259.51 -1.04985 -3.30423 0
M  V30 13233 C 1258.57 -2.23526 -3.66517 0
M  V30 13234 C 1257.8 -2.00753 -4.94504 0
M  V30 13235 O 1258.03 -0.968622 -5.62116 0
M  V30 13236 O 1256.96 -2.87848 -5.28608 0
M  V30 13237 H 1260.79 -2.25059 -2.03917 0
M  V30 13238 H 1258.37 -1.15019 -0.953467 0
M  V30 13239 H 1260.25 -0.934589 -4.10906 0
M  V30 13240 H 1258.93 -0.118582 -3.23483 0
M  V30 13241 H 1257.83 -2.40613 -2.86455 0
M  V30 13242 H 1259.17 -3.15062 -3.78149 0
M  V30 13243 N 1260.82 1.03812 -1.18578 0
M  V30 13244 C 1262.24 1.29271 -0.936011 0
M  V30 13245 C 1262.44 1.97551 0.396965 0
M  V30 13246 O 1261.49 2.25769 1.13069 0
M  V30 13247 C 1262.8 2.1489 -2.1034 0
M  V30 13248 C 1264.35 2.28228 -2.14198 0
M  V30 13249 C 1264.83 3.17214 -3.30362 0
M  V30 13250 N 1266.32 3.24802 -3.30239 0
M  V30 13251 C 1267.05 3.9382 -4.16765 0
M  V30 13252 N 1266.55 4.65147 -5.1343 0
M  V30 13253 N 1268.34 3.90125 -4.04671 0
M  V30 13254 H 1260.49 0.579011 -2.04356 0
M  V30 13255 H 1262.76 0.318021 -0.893066 0
M  V30 13256 H 1262.46 1.72029 -3.06755 0
M  V30 13257 H 1262.34 3.15576 -2.06619 0
M  V30 13258 H 1264.72 2.70324 -1.18359 0
M  V30 13259 H 1264.8 1.27124 -2.21976 0
M  V30 13260 H 1264.45 2.75829 -4.26475 0
M  V30 13261 H 1264.38 4.18356 -3.19821 0
M  V30 13262 H 1266.87 2.73994 -2.60261 0
M  V30 13263 H 1267.18 5.15414 -5.7582 0
M  V30 13264 H 1265.53 4.64043 -5.17387 0
M  V30 13265 H 1268.72 3.33536 -3.28438 0
M  V30 13266 H 1268.89 4.43641 -4.7232 0
M  V30 13267 N 1262.3 0.988223 1.22768 0
M  V30 13268 C 1263.26 0.539813 2.22752 0
M  V30 13269 C 1264.26 -0.374796 1.56371 0
M  V30 13270 O 1265.45 -0.167402 1.73394 0
M  V30 13271 C 1262.58 -0.215461 3.40218 0
M  V30 13272 H 1263.78 1.42397 2.63938 0
M  V30 13273 H 1261.33 0.774933 1.35737 0
M  V30 13274 H 1262.06 -1.11581 3.045 0
M  V30 13275 H 1261.85 0.441173 3.8961 0
M  V30 13276 H 1263.34 -0.517517 4.14381 0
M  V30 13277 N 1263.78 -1.38018 0.760839 0
M  V30 13278 C 1264.69 -2.34181 0.140232 0
M  V30 13279 C 1265.7 -1.59635 -0.692287 0
M  V30 13280 O 1266.88 -1.91788 -0.614752 0
M  V30 13281 C 1263.94 -3.38778 -0.73693 0
M  V30 13282 C 1263 -4.29157 0.110792 0
M  V30 13283 C 1262.24 -5.28758 -0.724599 0
M  V30 13284 O 1262.46 -5.35585 -1.96226 0
M  V30 13285 O 1261.39 -6.01738 -0.139565 0
M  V30 13286 H 1265.22 -2.88962 0.934588 0
M  V30 13287 H 1262.8 -1.3999 0.521835 0
M  V30 13288 H 1264.69 -4.02804 -1.23803 0
M  V30 13289 H 1263.36 -2.86341 -1.50966 0
M  V30 13290 H 1262.27 -3.68268 0.658007 0
M  V30 13291 H 1263.6 -4.84869 0.846346 0
M  V30 13292 N 1265.25 -0.510493 -1.49103 0
M  V30 13293 C 1266.5 0.0226445 -2.03387 0
M  V30 13294 C 1266.85 1.33817 -1.38242 0
M  V30 13295 O 1266.15 1.84625 -0.512282 0
M  V30 13296 C 1266.34 0.221921 -3.5671 0
M  V30 13297 C 1266.17 -1.07273 -4.36718 0
M  V30 13298 C 1264.94 -1.62719 -4.78383 0
M  V30 13299 C 1267.14 -1.97844 -4.74723 0
M  V30 13300 N 1265.12 -2.86676 -5.42854 0
M  V30 13301 C 1266.49 -3.06378 -5.3901 0
M  V30 13302 C 1268.55 -1.98407 -4.56661 0
M  V30 13303 C 1267.25 -4.15515 -5.87145 0
M  V30 13304 C 1269.28 -3.06525 -5.05763 0
M  V30 13305 C 1268.64 -4.13778 -5.70059 0
M  V30 13306 H 1264.74 -0.0327303 -0.781315 0
M  V30 13307 H 1267.32 -0.687457 -1.8216 0
M  V30 13308 H 1265.49 0.901088 -3.77803 0
M  V30 13309 H 1267.22 0.752916 -3.97635 0
M  V30 13310 H 1263.98 -1.17109 -4.58893 0
M  V30 13311 H 1264.4 -3.49733 -5.79669 0
M  V30 13312 H 1269.04 -1.16789 -4.0635 0
M  V30 13313 H 1266.76 -4.97925 -6.36472 0
M  V30 13314 H 1270.35 -3.07992 -4.93591 0
M  V30 13315 H 1269.23 -4.96061 -6.07366 0
M  V30 13316 N 1266.73 1.55688 -0.24474 0
M  V30 13317 C 1268.15 1.59219 0.110159 0
M  V30 13318 C 1268.35 1.26187 1.57096 0
M  V30 13319 O 1267.4 1.00815 2.31501 0
M  V30 13320 C 1268.72 2.99764 -0.237075 0
M  V30 13321 C 1270.26 3.12475 -0.181198 0
M  V30 13322 C 1270.74 4.55236 -0.502435 0
M  V30 13323 N 1272.23 4.60981 -0.452855 0
M  V30 13324 C 1272.97 5.69418 -0.674605 0
M  V30 13325 N 1272.46 6.86125 -0.959366 0
M  V30 13326 N 1274.25 5.5883 -0.605459 0
M  V30 13327 H 1266.41 1.7543 -1.19741 0
M  V30 13328 H 1268.67 0.816537 -0.481634 0
M  V30 13329 H 1268.37 3.28666 -1.25185 0
M  V30 13330 H 1268.25 3.74662 0.436859 0
M  V30 13331 H 1270.64 2.83355 0.824248 0
M  V30 13332 H 1270.72 2.39857 -0.888952 0
M  V30 13333 H 1270.36 4.85077 -1.50543 0
M  V30 13334 H 1270.29 5.26111 0.226773 0
M  V30 13335 H 1272.78 3.77128 -0.241401 0
M  V30 13336 H 1273.09 7.64699 -1.11605 0
M  V30 13337 H 1271.44 6.87814 -0.996816 0
M  V30 13338 H 1274.63 4.6653 -0.383053 0
M  V30 13339 H 1274.8 6.43268 -0.781673 0
M  V30 13340 N 1268.21 -0.0283989 1.57574 0
M  V30 13341 C 1269.12 -1.04575 2.10003 0
M  V30 13342 C 1270.14 -1.39588 1.03881 0
M  V30 13343 O 1271.31 -1.48894 1.35619 0
M  V30 13344 C 1268.38 -2.32755 2.56955 0
M  V30 13345 C 1267.44 -2.04317 3.77562 0
M  V30 13346 C 1266.67 -3.26385 4.22266 0
M  V30 13347 O 1266.89 -4.37082 3.66491 0
M  V30 13348 O 1265.83 -3.12046 5.14695 0
M  V30 13349 H 1269.65 -0.630183 2.9709 0
M  V30 13350 H 1267.24 -0.245423 1.4737 0
M  V30 13351 H 1269.12 -3.08111 2.87482 0
M  V30 13352 H 1267.8 -2.73605 1.72979 0
M  V30 13353 H 1266.7 -1.26527 3.52054 0
M  V30 13354 H 1268.04 -1.68321 4.62524 0
M  V30 13355 N 1269.69 -1.54705 -0.300681 0
M  V30 13356 C 1270.64 -1.86433 -1.39087 0
M  V30 13357 C 1271.63 -0.738101 -1.52474 0
M  V30 13358 O 1272.84 -0.922096 -1.54588 0
M  V30 13359 H 1269.21 -0.591314 -0.464599 0
M  V30 13360 H 1271.18 -2.77558 -1.09563 0
M  V30 13361 C 1269.93 -2.1286 -2.74929 0
M  V30 13362 H 1269.25 -2.98994 -2.6541 0
M  V30 13363 H 1270.69 -2.39 -3.50222 0
M  V30 13364 C 1269.15 -0.92726 -3.23888 0
M  V30 13365 O 1269.68 -0.147921 -4.01428 0
M  V30 13366 N 1267.89 -0.732553 -2.81215 0
M  V30 13367 H 1267.44 -1.36797 -2.18276 0
M  V30 13368 H 1267.39 0.0696902 -3.14323 0
M  V30 13369 N 1271.17 0.563888 -1.47167 0
M  V30 13370 C 1272.42 1.31766 -1.5271 0
M  V30 13371 C 1272.73 1.94664 -0.191164 0
M  V30 13372 O 1273.93 2.71214 -0.124543 0
M  V30 13373 C 1272.39 2.38907 -2.69168 0
M  V30 13374 C 1272 1.8223 -4.09263 0
M  V30 13375 C 1273.74 3.15508 -2.83999 0
M  V30 13376 C 1271.65 2.87111 -5.17031 0
M  V30 13377 H 1270.58 0.495421 -0.568396 0
M  V30 13378 H 1273.23 0.599665 -1.73425 0
M  V30 13379 H 1271.61 3.13591 -2.4182 0
M  V30 13380 H 1272.79 1.13963 -4.46485 0
M  V30 13381 H 1271.1 1.18235 -3.99261 0
M  V30 13382 H 1273.7 3.93816 -3.61681 0
M  V30 13383 H 1274.04 3.69277 -1.92197 0
M  V30 13384 H 1274.57 2.47934 -3.11085 0
M  V30 13385 H 1271.31 2.38204 -6.10687 0
M  V30 13386 H 1270.83 3.53809 -4.84334 0
M  V30 13387 H 1272.51 3.50724 -5.43692 0
M  V30 13388 N 1272.64 1.35187 0.810078 0
M  V30 13389 C 1274.06 1.15149 1.10512 0
M  V30 13390 C 1274.26 -0.038394 2.01463 0
M  V30 13391 O 1273.32 -0.710056 2.42311 0
M  V30 13392 C 1274.63 2.45282 1.73946 0
M  V30 13393 C 1276.18 2.51457 1.86382 0
M  V30 13394 C 1276.65 3.81625 2.53232 0
M  V30 13395 N 1278.14 3.82856 2.6072 0
M  V30 13396 C 1278.88 4.80302 3.13206 0
M  V30 13397 N 1278.37 5.88134 3.66156 0
M  V30 13398 N 1280.17 4.67743 3.11726 0
M  V30 13399 H 1272.32 2.11405 0.205391 0
M  V30 13400 H 1274.58 0.935457 0.153702 0
M  V30 13401 H 1274.29 3.32512 1.14582 0
M  V30 13402 H 1274.16 2.59573 2.73682 0
M  V30 13403 H 1276.55 1.64659 2.44891 0
M  V30 13404 H 1276.63 2.41084 0.855113 0
M  V30 13405 H 1276.27 4.68819 1.95375 0
M  V30 13406 H 1276.2 3.89285 3.54633 0
M  V30 13407 H 1278.69 3.04941 2.23203 0
M  V30 13408 H 1279.01 6.58487 4.04494 0
M  V30 13409 H 1277.35 5.91831 3.64364 0
M  V30 13410 H 1280.54 3.82642 2.69635 0
M  V30 13411 H 1280.72 5.43849 3.52324 0
M  V30 13412 N 1274.12 -1.03182 1.19127 0
M  V30 13413 C 1275.03 -2.14875 0.94159 0
M  V30 13414 C 1276.05 -1.73727 -0.0973872 0
M  V30 13415 O 1277.22 -2.01214 0.0865775 0
M  V30 13416 C 1274.29 -3.43356 0.480366 0
M  V30 13417 C 1273.35 -3.98835 1.58838 0
M  V30 13418 C 1272.58 -5.21183 1.14907 0
M  V30 13419 O 1272.81 -5.70399 0.0114141 0
M  V30 13420 O 1271.74 -5.69423 1.95042 0
M  V30 13421 H 1275.57 -2.38799 1.8764 0
M  V30 13422 H 1273.15 -1.13299 0.973841 0
M  V30 13423 H 1275.03 -4.20763 0.231658 0
M  V30 13424 H 1273.71 -3.20884 -0.426041 0
M  V30 13425 H 1272.62 -3.22776 1.8912 0
M  V30 13426 H 1273.95 -4.25665 2.47123 0
M  V30 13427 N 1275.6 -0.99472 -1.22242 0
M  V30 13428 C 1276.53 -0.504783 -2.23572 0
M  V30 13429 C 1277.55 0.401105 -1.57781 0
M  V30 13430 O 1278.73 0.202948 -1.77343 0
M  V30 13431 C 1275.83 0.287524 -3.37678 0
M  V30 13432 C 1275.01 -0.614941 -4.33056 0
M  V30 13433 C 1274.07 0.125974 -5.26049 0
M  V30 13434 O 1273.09 -0.489234 -5.67094 0
M  V30 13435 N 1274.29 1.40772 -5.63173 0
M  V30 13436 H 1277.06 -1.37612 -2.66238 0
M  V30 13437 H 1274.62 -0.86965 -1.3656 0
M  V30 13438 H 1276.61 0.791884 -3.96877 0
M  V30 13439 H 1275.18 1.05998 -2.9408 0
M  V30 13440 H 1274.4 -1.29994 -3.72149 0
M  V30 13441 H 1275.69 -1.22947 -4.93722 0
M  V30 13442 H 1275.09 1.92884 -5.31801 0
M  V30 13443 H 1273.65 1.85723 -6.2478 0
M  V30 13444 N 1277.08 1.37613 -0.768148 0
M  V30 13445 C 1278.01 2.28935 -0.110234 0
M  V30 13446 C 1279.02 1.48459 0.668122 0
M  V30 13447 O 1280.21 1.71154 0.506808 0
M  V30 13448 C 1277.31 3.27606 0.867598 0
M  V30 13449 C 1276.49 4.37163 0.143819 0
M  V30 13450 C 1275.54 5.15931 1.03449 0
M  V30 13451 O 1274.57 5.67003 0.499605 0
M  V30 13452 N 1275.77 5.30311 2.36114 0
M  V30 13453 H 1278.54 2.86037 -0.894585 0
M  V30 13454 H 1276.1 1.4955 -0.620185 0
M  V30 13455 H 1278.09 3.77183 1.4668 0
M  V30 13456 H 1276.66 2.71298 1.55294 0
M  V30 13457 H 1275.88 3.89031 -0.636257 0
M  V30 13458 H 1277.17 5.0755 -0.356446 0
M  V30 13459 H 1276.57 4.90394 2.82011 0
M  V30 13460 H 1275.12 5.83209 2.9105 0
M  V30 13461 N 1278.56 0.518393 1.4883 0
M  V30 13462 C 1279.5 -0.250684 2.29435 0
M  V30 13463 C 1280.47 -0.944481 1.36634 0
M  V30 13464 O 1281.66 -0.947766 1.65596 0
M  V30 13465 C 1278.8 -1.29871 3.1973 0
M  V30 13466 C 1277.91 -0.61493 4.27601 0
M  V30 13467 C 1277.05 -1.64489 5.05091 0
M  V30 13468 C 1276.09 -0.943932 6.04778 0
M  V30 13469 N 1275.22 -1.91889 6.75369 0
M  V30 13470 H 1280.06 0.44288 2.94691 0
M  V30 13471 H 1277.6 0.230246 1.45287 0
M  V30 13472 H 1279.56 -1.91851 3.70471 0
M  V30 13473 H 1278.19 -1.96081 2.56422 0
M  V30 13474 H 1277.24 0.118552 3.80215 0
M  V30 13475 H 1278.55 -0.063994 4.98759 0
M  V30 13476 H 1277.71 -2.33928 5.59788 0
M  V30 13477 H 1276.44 -2.2297 4.33746 0
M  V30 13478 H 1275.45 -0.235407 5.49296 0
M  V30 13479 H 1276.67 -0.365383 6.78116 0
M  V30 13480 H 1274.62 -2.493 6.06783 0
M  V30 13481 H 1274.54 -1.41909 7.42562 0
M  V30 13482 H 1275.81 -2.60563 7.34661 0
M  V30 13483 N 1280.03 -1.55556 0.252993 0
M  V30 13484 C 1280.98 -2.21634 -0.643979 0
M  V30 13485 C 1281.95 -1.18226 -1.1667 0
M  V30 13486 O 1283.14 -1.46694 -1.22006 0
M  V30 13487 C 1280.28 -2.92429 -1.83246 0
M  V30 13488 C 1279.39 -4.10506 -1.34569 0
M  V30 13489 C 1278.52 -4.69001 -2.49421 0
M  V30 13490 C 1277.56 -5.79315 -1.97636 0
M  V30 13491 N 1276.7 -6.31967 -3.05878 0
M  V30 13492 H 1281.54 -2.97909 -0.0738178 0
M  V30 13493 H 1279.08 -1.47079 -0.0246728 0
M  V30 13494 H 1281.04 -3.31678 -2.53072 0
M  V30 13495 H 1279.67 -2.18617 -2.375 0
M  V30 13496 H 1278.72 -3.76529 -0.541268 0
M  V30 13497 H 1280.03 -4.90125 -0.92622 0
M  V30 13498 H 1279.18 -5.10855 -3.27279 0
M  V30 13499 H 1277.92 -3.88612 -2.94673 0
M  V30 13500 H 1276.93 -5.36933 -1.18251 0
M  V30 13501 H 1278.15 -6.6156 -1.53347 0
M  V30 13502 H 1276.1 -5.5448 -3.50553 0
M  V30 13503 H 1276.02 -7.06797 -2.68281 0
M  V30 13504 H 1277.28 -6.7848 -3.83777 0
M  V30 13505 N 1281.51 0.0200419 -1.57587 0
M  V30 13506 C 1282.75 0.713765 -1.91533 0
M  V30 13507 C 1283.12 1.72035 -0.852516 0
M  V30 13508 O 1284.32 2.46299 -1.07658 0
M  V30 13509 C 1282.59 1.35786 -3.30601 0
M  V30 13510 S 1284.15 2.07948 -3.86397 0
M  V30 13511 H 1280.97 0.236249 -0.670602 0
M  V30 13512 H 1283.57 -0.0318313 -1.95474 0
M  V30 13513 H 1282.27 0.612147 -4.05809 0
M  V30 13514 H 1281.8 2.14181 -3.29985 0
M  V30 13515 H 1283.82 3.3521 -3.65853 0
M  V30 13516 N 1282.99 1.54862 0.292472 0
M  V30 13517 C 1284.24 1.74548 1.02661 0
M  V30 13518 C 1284.57 0.535895 1.86972 0
M  V30 13519 O 1283.82 -0.482016 1.89671 0
M  V30 13520 C 1284.12 2.99214 1.95463 0
M  V30 13521 C 1283.79 4.32628 1.2706 0
M  V30 13522 C 1282.45 4.68892 1.08138 0
M  V30 13523 C 1284.8 5.15296 0.782278 0
M  V30 13524 C 1282.13 5.85397 0.39081 0
M  V30 13525 C 1284.48 6.32512 0.105392 0
M  V30 13526 C 1283.14 6.67431 -0.0957097 0
M  V30 13527 H 1282.41 0.638717 0.375662 0
M  V30 13528 H 1285.06 1.89125 0.300672 0
M  V30 13529 H 1283.37 2.79454 2.74613 0
M  V30 13530 H 1285.06 3.1164 2.52352 0
M  V30 13531 H 1281.65 4.04113 1.42796 0
M  V30 13532 H 1285.84 4.87771 0.916151 0
M  V30 13533 H 1281.09 6.10989 0.224095 0
M  V30 13534 H 1285.27 6.95833 -0.280845 0
M  V30 13535 H 1282.89 7.57562 -0.63281 0
M  V30 13536 N 1284.47 -0.556076 1.47464 0
M  V30 13537 C 1285.88 -0.882115 1.33007 0
M  V30 13538 C 1286.08 -1.9892 0.321407 0
M  V30 13539 O 1285.14 -2.51088 -0.266668 0
M  V30 13540 C 1286.45 -1.27428 2.72365 0
M  V30 13541 C 1288 -1.38564 2.80658 0
M  V30 13542 C 1288.48 -1.81136 4.20659 0
M  V30 13543 N 1289.97 -1.88284 4.23206 0
M  V30 13544 C 1290.7 -2.22555 5.28447 0
M  V30 13545 N 1290.2 -2.55432 6.43993 0
M  V30 13546 N 1291.99 -2.23339 5.15826 0
M  V30 13547 H 1284.14 0.17481 2.11679 0
M  V30 13548 H 1286.41 0.0155421 0.947873 0
M  V30 13549 H 1286.11 -0.53463 3.47613 0
M  V30 13550 H 1285.99 -2.23019 3.04208 0
M  V30 13551 H 1288.37 -2.1161 2.05682 0
M  V30 13552 H 1288.45 -0.411588 2.52467 0
M  V30 13553 H 1288.1 -1.08659 4.96141 0
M  V30 13554 H 1288.03 -2.79546 4.46275 0
M  V30 13555 H 1290.52 -1.65259 3.3985 0
M  V30 13556 H 1290.83 -2.80612 7.20053 0
M  V30 13557 H 1289.18 -2.5301 6.47311 0
M  V30 13558 H 1292.37 -1.97094 4.24584 0
M  V30 13559 H 1292.54 -2.49717 5.97951 0
M  V30 13560 N 1285.95 -1.35615 -0.802897 0
M  V30 13561 C 1287.17 -1.32377 -1.59659 0
M  V30 13562 C 1287.6 0.0954235 -1.87858 0
M  V30 13563 O 1286.96 1.06336 -1.46842 0
M  V30 13564 C 1287 -2.13972 -2.90256 0
M  V30 13565 O 1286.11 -1.52296 -3.83249 0
M  V30 13566 H 1285.45 -0.453699 -0.484823 0
M  V30 13567 H 1287.98 -1.78708 -0.996217 0
M  V30 13568 H 1287.99 -2.26061 -3.39647 0
M  V30 13569 H 1286.66 -3.17145 -2.69057 0
M  V30 13570 H 1285.24 -1.49068 -3.41809 0
M  V30 13571 N 1287.43 1.02549 -1.19673 0
M  V30 13572 C 1288.67 1.76004 -1.00144 0
M  V30 13573 C 1289 1.888 0.467423 0
M  V30 13574 O 1288.26 1.404 1.36331 0
M  V30 13575 C 1288.55 3.18597 -1.61959 0
M  V30 13576 C 1288.22 3.258 -3.11713 0
M  V30 13577 C 1286.88 3.27473 -3.52583 0
M  V30 13578 C 1289.23 3.24675 -4.0772 0
M  V30 13579 C 1286.56 3.25681 -4.88005 0
M  V30 13580 C 1288.91 3.24424 -5.43076 0
M  V30 13581 C 1287.58 3.24396 -5.83372 0
M  V30 13582 H 1286.85 0.644044 -0.366453 0
M  V30 13583 H 1289.5 1.20338 -1.48966 0
M  V30 13584 H 1287.8 3.77364 -1.05375 0
M  V30 13585 H 1289.5 3.74109 -1.44374 0
M  V30 13586 H 1286.09 3.25228 -2.7915 0
M  V30 13587 H 1290.27 3.2256 -3.77185 0
M  V30 13588 H 1285.53 3.23986 -5.18501 0
M  V30 13589 H 1289.7 3.22504 -6.17223 0
M  V30 13590 H 1287.33 3.22762 -6.8828 0
M  V30 13591 N 1288.9 1.00119 1.21713 0
M  V30 13592 C 1290.13 0.700172 1.95224 0
M  V30 13593 C 1290.55 -0.730138 1.73351 0
M  V30 13594 O 1289.91 -1.50026 1.01794 0
M  V30 13595 C 1289.96 1.02202 3.45814 0
M  V30 13596 O 1289.06 0.125188 4.1221 0
M  V30 13597 H 1288.4 0.261238 0.610451 0
M  V30 13598 H 1290.93 1.34041 1.54578 0
M  V30 13599 H 1290.94 0.967293 3.96368 0
M  V30 13600 H 1289.62 2.06422 3.61058 0
M  V30 13601 H 1288.2 0.236114 3.72152 0
M  V30 13602 N 1290.38 -1.37203 0.775435 0
M  V30 13603 C 1291.31 -2.32819 0.17826 0
M  V30 13604 C 1292.29 -1.55963 -0.678944 0
M  V30 13605 O 1293.48 -1.84183 -0.615648 0
M  V30 13606 C 1290.61 -3.40198 -0.698768 0
M  V30 13607 C 1289.56 -4.27961 0.057423 0
M  V30 13608 C 1288.89 -5.26385 -0.93929 0
M  V30 13609 C 1290.19 -5.07402 1.23856 0
M  V30 13610 H 1291.88 -2.8301 0.977028 0
M  V30 13611 H 1289.43 -1.3607 0.471274 0
M  V30 13612 H 1291.38 -4.06067 -1.12637 0
M  V30 13613 H 1290.1 -2.88541 -1.53009 0
M  V30 13614 H 1288.76 -3.63628 0.465848 0
M  V30 13615 H 1288.41 -4.71007 -1.76527 0
M  V30 13616 H 1288.11 -5.85966 -0.437844 0
M  V30 13617 H 1289.64 -5.9513 -1.36576 0
M  V30 13618 H 1291.05 -5.6639 0.887423 0
M  V30 13619 H 1289.45 -5.76327 1.67234 0
M  V30 13620 H 1290.52 -4.3986 2.04085 0
M  V30 13621 N 1291.86 -0.526279 -1.48553 0
M  V30 13622 C 1293.09 0.0052277 -2.06899 0
M  V30 13623 C 1293.5 1.2849 -1.38332 0
M  V30 13624 O 1292.86 1.76354 -0.469648 0
M  V30 13625 C 1292.91 0.236709 -3.60724 0
M  V30 13626 O 1292.63 -0.992256 -4.26715 0
M  V30 13627 C 1294.13 0.809014 -4.35855 0
M  V30 13628 H 1291.35 -0.0318426 -0.670244 0
M  V30 13629 H 1293.9 -0.730865 -1.90994 0
M  V30 13630 H 1292.05 0.922842 -3.76248 0
M  V30 13631 H 1292.47 -0.770697 -5.18807 0
M  V30 13632 H 1293.94 0.920428 -5.44272 0
M  V30 13633 H 1294.42 1.81302 -4.00033 0
M  V30 13634 H 1295.02 0.159564 -4.25001 0
M  V30 13635 N 1293.34 1.5542 -0.261239 0
M  V30 13636 C 1294.56 2.04142 0.366144 0
M  V30 13637 C 1294.99 1.13884 1.49706 0
M  V30 13638 O 1294.35 0.134629 1.80799 0
M  V30 13639 C 1294.39 3.50733 0.837774 0
M  V30 13640 O 1293.5 3.63588 1.94621 0
M  V30 13641 H 1292.84 0.659424 0.077821 0
M  V30 13642 H 1295.37 2.0082 -0.391487 0
M  V30 13643 H 1295.38 3.91831 1.13721 0
M  V30 13644 H 1294.05 4.15899 0.0102742 0
M  V30 13645 H 1292.63 3.34391 1.65037 0
M  V30 13646 N 1294.82 -0.0116844 1.57596 0
M  V30 13647 C 1296.06 -0.699994 1.90336 0
M  V30 13648 C 1296.39 -1.74067 0.861072 0
M  V30 13649 O 1295.67 -1.94119 -0.121712 0
M  V30 13650 C 1295.95 -1.35377 3.33684 0
M  V30 13651 C 1295.81 -0.325434 4.48621 0
M  V30 13652 C 1297.12 -2.28312 3.76247 0
M  V30 13653 H 1294.24 -0.253002 0.692213 0
M  V30 13654 H 1296.89 0.037211 1.89964 0
M  V30 13655 H 1295.04 -1.98212 3.34132 0
M  V30 13656 H 1296.71 0.302331 4.60308 0
M  V30 13657 H 1294.95 0.353527 4.32357 0
M  V30 13658 H 1295.62 -0.8217 5.4585 0
M  V30 13659 H 1298.1 -1.75505 3.77276 0
M  V30 13660 H 1296.97 -2.71028 4.77321 0
M  V30 13661 H 1297.23 -3.15727 3.09465 0
M  V30 13662 N 1296.29 -1.55015 -0.284256 0
M  V30 13663 C 1297.2 -1.90203 -1.37332 0
M  V30 13664 C 1298.22 -0.797994 -1.54622 0
M  V30 13665 O 1299.4 -1.09602 -1.68965 0
M  V30 13666 C 1296.46 -2.15687 -2.71441 0
M  V30 13667 C 1295.52 -3.39313 -2.62993 0
M  V30 13668 C 1294.75 -3.63571 -3.90707 0
M  V30 13669 O 1294.98 -2.90538 -4.9086 0
M  V30 13670 O 1293.91 -4.57102 -3.91589 0
M  V30 13671 H 1297.74 -2.82888 -1.1049 0
M  V30 13672 H 1295.32 -1.41418 -0.481798 0
M  V30 13673 H 1297.2 -2.33553 -3.50758 0
M  V30 13674 H 1295.88 -1.26185 -2.98092 0
M  V30 13675 H 1294.79 -3.26793 -1.82091 0
M  V30 13676 H 1296.12 -4.28997 -2.41293 0
M  V30 13677 N 1297.77 0.548248 -1.47757 0
M  V30 13678 C 1298.7 1.66409 -1.63799 0
M  V30 13679 C 1299.68 1.62973 -0.487211 0
M  V30 13680 O 1300.87 1.80455 -0.717612 0
M  V30 13681 C 1298 3.05035 -1.66046 0
M  V30 13682 C 1296.95 3.23322 -2.80441 0
M  V30 13683 C 1296.28 4.62824 -2.67765 0
M  V30 13684 C 1297.58 3.07837 -4.2194 0
M  V30 13685 H 1299.27 1.53239 -2.57212 0
M  V30 13686 H 1296.82 0.735783 -1.23783 0
M  V30 13687 H 1298.77 3.82951 -1.75859 0
M  V30 13688 H 1297.49 3.19185 -0.69199 0
M  V30 13689 H 1296.15 2.47816 -2.70153 0
M  V30 13690 H 1295.8 4.73786 -1.68927 0
M  V30 13691 H 1295.5 4.76007 -3.44515 0
M  V30 13692 H 1297.03 5.42864 -2.7952 0
M  V30 13693 H 1298.44 3.75563 -4.33157 0
M  V30 13694 H 1296.84 3.32525 -4.99547 0
M  V30 13695 H 1297.91 2.04474 -4.3968 0
M  V30 13696 N 1299.25 1.36039 0.795694 0
M  V30 13697 C 1300.18 1.25713 1.91648 0
M  V30 13698 C 1301.19 0.177993 1.61824 0
M  V30 13699 O 1302.38 0.432186 1.73189 0
M  V30 13700 C 1299.48 0.915546 3.26299 0
M  V30 13701 C 1298.66 2.09528 3.83949 0
M  V30 13702 C 1297.72 1.72775 4.97026 0
M  V30 13703 O 1296.74 2.44786 5.13876 0
M  V30 13704 N 1297.94 0.65775 5.76762 0
M  V30 13705 H 1300.71 2.22277 2.01029 0
M  V30 13706 H 1298.27 1.2935 0.973657 0
M  V30 13707 H 1300.26 0.650958 3.9943 0
M  V30 13708 H 1298.83 0.0392343 3.12575 0
M  V30 13709 H 1298.05 2.52304 3.0288 0
M  V30 13710 H 1299.34 2.88361 4.19196 0
M  V30 13711 H 1298.74 0.0596875 5.65669 0
M  V30 13712 H 1297.29 0.45297 6.50224 0
M  V30 13713 N 1300.73 -1.01913 1.20215 0
M  V30 13714 C 1301.66 -2.10043 0.89203 0
M  V30 13715 C 1302.64 -1.61861 -0.154873 0
M  V30 13716 O 1303.82 -1.88478 -0.0290135 0
M  V30 13717 C 1300.95 -3.37021 0.336813 0
M  V30 13718 C 1300 -4.0409 1.36431 0
M  V30 13719 S 1300.83 -4.48334 2.92843 0
M  V30 13720 C 1301.99 -5.78517 2.3889 0
M  V30 13721 H 1302.22 -2.36025 1.80775 0
M  V30 13722 H 1299.75 -1.14992 1.03035 0
M  V30 13723 H 1301.71 -4.10494 0.0230191 0
M  V30 13724 H 1300.37 -3.09115 -0.557363 0
M  V30 13725 H 1299.56 -4.95436 0.925147 0
M  V30 13726 H 1299.17 -3.36831 1.62545 0
M  V30 13727 H 1301.46 -6.53564 1.78494 0
M  V30 13728 H 1302.4 -6.27226 3.28623 0
M  V30 13729 H 1302.81 -5.34658 1.8111 0
M  V30 13730 N 1302.21 -1.00763 -1.2118 0
M  V30 13731 C 1303.14 -0.590493 -2.2591 0
M  V30 13732 C 1304.12 0.390002 -1.65569 0
M  V30 13733 O 1305.3 0.277406 -1.92208 0
M  V30 13734 C 1302.43 0.0810388 -3.47205 0
M  V30 13735 C 1301.39 -0.81951 -4.20081 0
M  V30 13736 C 1300.71 -0.014244 -5.34698 0
M  V30 13737 C 1302.01 -2.12336 -4.7719 0
M  V30 13738 H 1303.71 -1.46595 -2.61056 0
M  V30 13739 H 1301.25 -0.706321 -1.25487 0
M  V30 13740 H 1303.21 0.384355 -4.19644 0
M  V30 13741 H 1301.93 0.991145 -3.11197 0
M  V30 13742 H 1300.59 -1.10669 -3.49497 0
M  V30 13743 H 1300.24 0.897233 -4.94933 0
M  V30 13744 H 1299.94 -0.613883 -5.84384 0
M  V30 13745 H 1301.46 0.282827 -6.09945 0
M  V30 13746 H 1302.87 -1.88301 -5.41494 0
M  V30 13747 H 1301.27 -2.67308 -5.37277 0
M  V30 13748 H 1302.34 -2.79238 -3.96427 0
M  V30 13749 N 1303.68 1.3679 -0.7827 0
M  V30 13750 C 1304.91 2.03678 -0.363734 0
M  V30 13751 C 1305.33 1.59024 1.01768 0
M  V30 13752 O 1304.68 0.776541 1.65155 0
M  V30 13753 C 1304.74 3.59165 -0.410213 0
M  V30 13754 O 1304.46 4.02188 -1.73714 0
M  V30 13755 C 1305.96 4.43296 0.018972 0
M  V30 13756 H 1303.18 0.653828 -0.150829 0
M  V30 13757 H 1305.72 1.74903 -1.05968 0
M  V30 13758 H 1303.88 3.86673 0.237249 0
M  V30 13759 H 1304.29 4.96754 -1.68332 0
M  V30 13760 H 1305.76 5.51962 -0.0646943 0
M  V30 13761 H 1306.24 4.25948 1.07076 0
M  V30 13762 H 1306.85 4.21036 -0.600721 0
M  V30 13763 N 1305.16 0.53415 1.48272 0
M  V30 13764 C 1306.11 -0.239672 2.31362 0
M  V30 13765 C 1307.1 -0.931501 1.4149 0
M  V30 13766 O 1308.31 -0.855411 1.58375 0
M  V30 13767 H 1304.69 -0.09616 0.745827 0
M  V30 13768 H 1306.66 0.480638 2.94504 0
M  V30 13769 C 1305.41 -1.27102 3.23636 0
M  V30 13770 H 1304.73 -0.748082 3.92739 0
M  V30 13771 H 1306.17 -1.78379 3.84652 0
M  V30 13772 C 1304.63 -2.30683 2.45534 0
M  V30 13773 O 1305.16 -3.37197 2.18314 0
M  V30 13774 N 1303.36 -2.04006 2.06954 0
M  V30 13775 H 1302.91 -1.17403 2.29291 0
M  V30 13776 H 1302.87 -2.73531 1.5501 0
M  V30 13777 N 1306.64 -1.55279 0.269478 0
M  V30 13778 C 1307.87 -2.04334 -0.355313 0
M  V30 13779 C 1308.29 -1.14677 -1.491 0
M  V30 13780 O 1307.65 -0.144215 -1.80726 0
M  V30 13781 C 1307.7 -3.51172 -0.819162 0
M  V30 13782 O 1306.8 -3.64615 -1.9269 0
M  V30 13783 H 1306.14 -0.659827 -0.0743229 0
M  V30 13784 H 1308.67 -2.00609 0.402131 0
M  V30 13785 H 1308.68 -3.92428 -1.11642 0
M  V30 13786 H 1307.36 -4.15898 0.0117821 0
M  V30 13787 H 1305.93 -3.35261 -1.63261 0
M  V30 13788 N 1308.12 0.00332656 -1.576 0
M  V30 13789 C 1309.36 0.69341 -1.92279 0
M  V30 13790 C 1309.72 1.71121 -0.870715 0
M  V30 13791 O 1310.92 2.45143 -1.10265 0
M  V30 13792 C 1309.19 1.32272 -3.32022 0
M  V30 13793 S 1310.75 2.03838 -3.88581 0
M  V30 13794 H 1307.57 0.229123 -0.67307 0
M  V30 13795 H 1310.17 -0.0525621 -1.95429 0
M  V30 13796 H 1308.88 0.569071 -4.06435 0
M  V30 13797 H 1308.41 2.10669 -3.32238 0
M  V30 13798 H 1310.42 3.31311 -3.69388 0
M  V30 13799 N 1309.6 1.55164 0.276031 0
M  V30 13800 C 1310.84 1.75887 1.00953 0
M  V30 13801 C 1311.18 0.5567 1.8605 0
M  V30 13802 O 1310.45 -0.445799 1.89322 0
M  V30 13803 C 1310.73 3.06228 1.89463 0
M  V30 13804 C 1310.59 4.36795 1.07379 0
M  V30 13805 C 1311.91 3.32589 2.88223 0
M  V30 13806 H 1309.02 0.639929 0.365596 0
M  V30 13807 H 1311.67 1.87893 0.282156 0
M  V30 13808 H 1309.82 2.96124 2.51481 0
M  V30 13809 H 1311.49 4.58853 0.474549 0
M  V30 13810 H 1309.73 4.32157 0.377165 0
M  V30 13811 H 1310.4 5.24315 1.72621 0
M  V30 13812 H 1312.88 3.42467 2.36338 0
M  V30 13813 H 1311.75 4.2506 3.47297 0
M  V30 13814 H 1312.02 2.52083 3.6319 0
M  V30 13815 N 1311.07 -0.540404 1.48045 0
M  V30 13816 C 1312.02 -1.64598 1.61791 0
M  V30 13817 C 1312.99 -1.59595 0.460301 0
M  V30 13818 O 1314.18 -1.78176 0.682482 0
M  V30 13819 C 1311.32 -3.02887 1.65389 0
M  V30 13820 C 1310.43 -3.18202 2.92184 0
M  V30 13821 C 1309.56 -4.46989 2.87009 0
M  V30 13822 C 1308.6 -4.55795 4.08555 0
M  V30 13823 N 1307.74 -5.75958 4.01518 0
M  V30 13824 H 1312.58 -1.52188 2.56208 0
M  V30 13825 H 1310.12 -0.741097 1.27068 0
M  V30 13826 H 1312.08 -3.82988 1.65457 0
M  V30 13827 H 1310.71 -3.14092 0.744703 0
M  V30 13828 H 1309.76 -2.31422 3.01907 0
M  V30 13829 H 1311.07 -3.20571 3.82146 0
M  V30 13830 H 1310.22 -5.35369 2.85421 0
M  V30 13831 H 1308.96 -4.47125 1.94759 0
M  V30 13832 H 1307.97 -3.65824 4.1043 0
M  V30 13833 H 1309.19 -4.57406 5.01953 0
M  V30 13834 H 1307.14 -5.77011 3.12081 0
M  V30 13835 H 1307.06 -5.79777 4.85175 0
M  V30 13836 H 1308.32 -6.66653 4.03972 0
M  V30 13837 N 1312.55 -1.36459 -0.788468 0
M  V30 13838 C 1313.48 -1.33545 -1.91541 0
M  V30 13839 C 1314.46 -0.206762 -1.68839 0
M  V30 13840 O 1315.65 -0.404553 -1.89939 0
M  V30 13841 C 1312.78 -1.12492 -3.28577 0
M  V30 13842 C 1311.73 -2.22196 -3.65805 0
M  V30 13843 C 1311.06 -1.86285 -5.01201 0
M  V30 13844 C 1312.36 -3.64286 -3.7429 0
M  V30 13845 H 1314.05 -2.27844 -1.94236 0
M  V30 13846 H 1311.6 -1.09677 -0.933105 0
M  V30 13847 H 1313.55 -1.09089 -4.07035 0
M  V30 13848 H 1312.28 -0.146446 -3.26272 0
M  V30 13849 H 1310.93 -2.24727 -2.89644 0
M  V30 13850 H 1310.58 -0.87009 -4.95417 0
M  V30 13851 H 1310.28 -2.59734 -5.27079 0
M  V30 13852 H 1311.81 -1.84439 -5.82078 0
M  V30 13853 H 1313.22 -3.63977 -4.42937 0
M  V30 13854 H 1311.62 -4.36648 -4.11653 0
M  V30 13855 H 1312.69 -3.99123 -2.75371 0
M  V30 13856 N 1314.03 1.01274 -1.20754 0
M  V30 13857 C 1314.96 2.10029 -0.917628 0
M  V30 13858 C 1315.98 1.62516 0.0961411 0
M  V30 13859 O 1317.16 1.77986 -0.135371 0
M  V30 13860 C 1314.26 3.37037 -0.354891 0
M  V30 13861 C 1313.44 4.1367 -1.42113 0
M  V30 13862 C 1312.5 5.18974 -0.869023 0
M  V30 13863 O 1311.52 5.47671 -1.55063 0
M  V30 13864 N 1312.72 5.79619 0.319631 0
M  V30 13865 H 1315.49 2.35485 -1.85383 0
M  V30 13866 H 1313.05 1.17695 -1.11173 0
M  V30 13867 H 1315.04 4.0469 0.0286895 0
M  V30 13868 H 1313.61 3.088 0.485956 0
M  V30 13869 H 1312.83 3.40931 -1.97889 0
M  V30 13870 H 1314.12 4.61649 -2.13911 0
M  V30 13871 H 1313.52 5.58646 0.89059 0
M  V30 13872 H 1312.08 6.48603 0.644807 0
M  V30 13873 N 1315.51 1.01404 1.20644 0
M  V30 13874 C 1316.74 0.72104 1.93929 0
M  V30 13875 C 1317.15 -0.717853 1.7462 0
M  V30 13876 O 1316.51 -1.48664 1.05855 0
M  V30 13877 C 1316.56 1.04399 3.46097 0
M  V30 13878 O 1316.28 2.42637 3.64773 0
M  V30 13879 C 1317.78 0.771678 4.36532 0
M  V30 13880 H 1315 0.264983 0.616462 0
M  V30 13881 H 1317.55 1.35453 1.53208 0
M  V30 13882 H 1315.7 0.455946 3.84708 0
M  V30 13883 H 1316.12 2.54201 4.58783 0
M  V30 13884 H 1317.59 1.04774 5.41965 0
M  V30 13885 H 1318.07 -0.294188 4.38214 0
M  V30 13886 H 1318.67 1.34176 4.0358 0
M  V30 13887 N 1316.99 -1.36373 0.789944 0
M  V30 13888 C 1318.23 -1.99523 0.363119 0
M  V30 13889 C 1318.57 -1.6255 -1.0626 0
M  V30 13890 O 1317.84 -0.880551 -1.73426 0
M  V30 13891 C 1318.12 -3.56215 0.527526 0
M  V30 13892 C 1317.98 -4.0304 1.99697 0
M  V30 13893 C 1319.3 -4.40063 -0.0571079 0
M  V30 13894 H 1316.42 -0.724824 0.133412 0
M  V30 13895 H 1319.06 -1.61778 0.996381 0
M  V30 13896 H 1317.21 -3.88498 -0.0115636 0
M  V30 13897 H 1318.88 -3.81241 2.59717 0
M  V30 13898 H 1317.12 -3.54561 2.49939 0
M  V30 13899 H 1317.79 -5.12001 2.06297 0
M  V30 13900 H 1320.27 -4.14143 0.403082 0
M  V30 13901 H 1319.15 -5.4883 0.0879494 0
M  V30 13902 H 1319.41 -4.26901 -1.14926 0
M  V30 13903 N 1318.47 -0.542005 -1.47987 0
M  V30 13904 C 1319.42 0.234244 -2.26794 0
M  V30 13905 C 1320.4 0.899085 -1.33436 0
M  V30 13906 O 1321.59 0.799904 -1.57894 0
M  V30 13907 C 1318.72 1.27312 -3.18821 0
M  V30 13908 C 1317.81 0.612457 -4.19654 0
M  V30 13909 N 1318.2 -0.30875 -5.04857 0
M  V30 13910 C 1316.5 0.868224 -4.37468 0
M  V30 13911 C 1317.2 -0.691052 -5.77581 0
M  V30 13912 N 1316.17 -0.0493574 -5.43578 0
M  V30 13913 H 1319.97 -0.47427 -2.90048 0
M  V30 13914 H 1317.49 -0.360868 -1.5834 0
M  V30 13915 H 1319.49 1.84305 -3.73948 0
M  V30 13916 H 1318.15 1.98288 -2.57122 0
M  V30 13917 H 1319.16 -0.682054 -5.13389 0
M  V30 13918 H 1315.83 1.56765 -3.86951 0
M  V30 13919 H 1317.22 -1.44713 -6.56131 0
M  V30 13920 N 1319.94 1.55134 -0.277709 0
M  V30 13921 C 1321.17 2.04519 0.344472 0
M  V30 13922 C 1321.59 1.15466 1.4849 0
M  V30 13923 O 1320.95 0.153798 1.80646 0
M  V30 13924 C 1321 3.51602 0.800527 0
M  V30 13925 O 1320.1 3.65632 1.90754 0
M  V30 13926 H 1319.44 0.660212 0.0708226 0
M  V30 13927 H 1321.97 2.00393 -0.412764 0
M  V30 13928 H 1321.98 3.93015 1.09559 0
M  V30 13929 H 1320.66 4.15886 -0.033838 0
M  V30 13930 H 1319.24 3.36122 1.61481 0
M  V30 13931 N 1321.42 0.00503138 1.57599 0
M  V30 13932 C 1322.67 -0.677979 1.89964 0
M  V30 13933 C 1322.98 -1.74657 0.88059 0
M  V30 13934 O 1324.19 -2.48455 1.09463 0
M  V30 13935 C 1322.65 -1.25708 3.37232 0
M  V30 13936 C 1322.25 -0.223045 4.47444 0
M  V30 13937 C 1324 -1.91799 3.787 0
M  V30 13938 C 1321.9 -0.812416 5.85793 0
M  V30 13939 H 1320.83 -0.256991 0.708852 0
M  V30 13940 H 1323.49 0.0663988 1.8338 0
M  V30 13941 H 1321.87 -2.05228 3.3867 0
M  V30 13942 H 1323.04 0.54794 4.57531 0
M  V30 13943 H 1321.36 0.337714 4.15028 0
M  V30 13944 H 1323.95 -2.36808 4.79402 0
M  V30 13945 H 1324.3 -2.75067 3.1248 0
M  V30 13946 H 1324.83 -1.19004 3.79583 0
M  V30 13947 H 1321.57 -0.0184031 6.55497 0
M  V30 13948 H 1321.09 -1.55244 5.79361 0
M  V30 13949 H 1322.77 -1.30952 6.33609 0
M  V30 13950 N 1322.9 -1.55308 -0.267798 0
M  V30 13951 C 1324.31 -1.66814 -0.838459 0
M  V30 13952 C 1324.66 -0.598609 -1.86845 0
M  V30 13953 O 1323.79 0.25896 -2.14845 0
M  V30 13954 C 1324.38 -3.02408 -1.52758 0
M  V30 13955 C 1322.94 -3.15923 -2.04621 0
M  V30 13956 C 1322.09 -2.62628 -0.890044 0
M  V30 13957 H 1325.04 -1.58639 -0.0440354 0
M  V30 13958 H 1325.06 -2.95687 -2.39478 0
M  V30 13959 H 1324.57 -3.80228 -0.777695 0
M  V30 13960 H 1322.67 -2.42886 -2.82555 0
M  V30 13961 H 1322.79 -4.22556 -2.25794 0
M  V30 13962 H 1321.15 -2.19918 -1.28485 0
M  V30 13963 H 1321.93 -3.42956 -0.153579 0
M  V30 13964 N 1324.38 0.532545 -1.4833 0
M  V30 13965 C 1325.31 1.64662 -1.65555 0
M  V30 13966 C 1326.29 1.62447 -0.50447 0
M  V30 13967 O 1327.47 1.79684 -0.736712 0
M  V30 13968 C 1324.6 3.03256 -1.69272 0
M  V30 13969 C 1323.56 3.20329 -2.83854 0
M  V30 13970 C 1322.88 4.59958 -2.72659 0
M  V30 13971 C 1324.18 3.03345 -4.25181 0
M  V30 13972 H 1325.88 1.50502 -2.58823 0
M  V30 13973 H 1323.42 0.722612 -1.24556 0
M  V30 13974 H 1325.38 3.81064 -1.79911 0
M  V30 13975 H 1324.1 3.18433 -0.725805 0
M  V30 13976 H 1322.76 2.44937 -2.72766 0
M  V30 13977 H 1322.41 4.71967 -1.73942 0
M  V30 13978 H 1322.11 4.72327 -3.49544 0
M  V30 13979 H 1323.63 5.39869 -2.85262 0
M  V30 13980 H 1325.05 3.70948 -4.37116 0
M  V30 13981 H 1323.44 3.27208 -5.03045 0
M  V30 13982 H 1324.51 1.998 -4.41824 0
M  V30 13983 N 1325.86 1.36875 0.78122 0
M  V30 13984 C 1327.08 1.34732 1.57019 0
M  V30 13985 C 1327.5 -0.0695423 1.88672 0
M  V30 13986 O 1326.86 -1.02873 1.50743 0
M  V30 13987 C 1326.91 2.17668 2.88623 0
M  V30 13988 O 1326.63 3.53832 2.5833 0
M  V30 13989 C 1328.13 2.23398 3.82895 0
M  V30 13990 H 1325.35 0.461857 0.486754 0
M  V30 13991 H 1327.89 1.80086 0.968989 0
M  V30 13992 H 1326.05 1.75848 3.4519 0
M  V30 13993 H 1326.46 3.972 3.42538 0
M  V30 13994 H 1327.94 2.85769 4.72271 0
M  V30 13995 H 1328.41 1.23972 4.2134 0
M  V30 13996 H 1329.02 2.65489 3.32258 0
M  V30 13997 N 1327.33 -1.00632 1.21289 0
M  V30 13998 C 1328.58 -1.73802 1.02351 0
M  V30 13999 C 1328.9 -1.90503 -0.443611 0
M  V30 14000 O 1330.1 -2.60868 -0.752356 0
M  V30 14001 C 1328.56 -3.12647 1.78269 0
M  V30 14002 C 1328.17 -3.03923 3.29142 0
M  V30 14003 C 1329.91 -3.89956 1.67735 0
M  V30 14004 C 1327.82 -4.3784 3.97556 0
M  V30 14005 H 1326.75 -0.651616 0.379358 0
M  V30 14006 H 1329.4 -1.12446 1.45011 0
M  V30 14007 H 1327.78 -3.74605 1.28401 0
M  V30 14008 H 1328.95 -2.51211 3.86303 0
M  V30 14009 H 1327.27 -2.40103 3.40205 0
M  V30 14010 H 1329.87 -4.89051 2.1618 0
M  V30 14011 H 1330.21 -4.11423 0.635338 0
M  V30 14012 H 1330.74 -3.34647 2.15072 0
M  V30 14013 H 1327.48 -4.21573 5.01952 0
M  V30 14014 H 1327 -4.90518 3.45184 0
M  V30 14015 H 1328.68 -5.06644 4.02393 0
M  V30 14016 N 1328.81 -1.02043 -1.20104 0
M  V30 14017 C 1329.76 -0.587332 -2.25063 0
M  V30 14018 C 1330.75 0.375844 -1.65178 0
M  V30 14019 O 1331.96 0.245347 -1.7832 0
M  V30 14020 H 1328.33 -0.171637 -0.732151 0
M  V30 14021 H 1330.31 -1.48339 -2.58917 0
M  V30 14022 C 1329.05 0.0546893 -3.47657 0
M  V30 14023 H 1328.38 -0.677457 -3.94018 0
M  V30 14024 H 1329.82 0.320786 -4.22785 0
M  V30 14025 C 1328.28 1.29869 -3.10863 0
M  V30 14026 O 1328.81 2.39161 -3.22746 0
M  V30 14027 N 1327.01 1.18423 -2.65376 0
M  V30 14028 H 1326.56 0.294895 -2.55906 0
M  V30 14029 H 1326.52 2.01755 -2.41128 0
M  V30 14030 N 1330.29 1.35952 -0.797165 0
M  V30 14031 C 1331.24 2.29941 -0.198995 0
M  V30 14032 C 1332.21 1.52355 0.661592 0
M  V30 14033 O 1333.39 1.80832 0.60865 0
M  V30 14034 C 1330.53 3.38846 0.654033 0
M  V30 14035 C 1329.65 4.31409 -0.225949 0
M  V30 14036 C 1328.78 5.27401 0.634188 0
M  V30 14037 C 1327.82 6.11602 -0.246773 0
M  V30 14038 N 1326.96 6.9976 0.57279 0
M  V30 14039 H 1331.8 2.80508 -1.00594 0
M  V30 14040 H 1329.33 1.38064 -0.507617 0
M  V30 14041 H 1331.29 4.00643 1.16367 0
M  V30 14042 H 1329.92 2.89578 1.42633 0
M  V30 14043 H 1328.97 3.70699 -0.853616 0
M  V30 14044 H 1330.29 4.90532 -0.904416 0
M  V30 14045 H 1329.44 5.94525 1.20933 0
M  V30 14046 H 1328.18 4.68751 1.34625 0
M  V30 14047 H 1327.18 5.43434 -0.834258 0
M  V30 14048 H 1328.41 6.72329 -0.956559 0
M  V30 14049 H 1326.35 6.43609 1.26901 0
M  V30 14050 H 1326.27 7.55985 -0.0478303 0
M  V30 14051 H 1327.54 7.71244 1.13151 0
M  V30 14052 N 1331.77 0.549846 1.47697 0
M  V30 14053 C 1332.68 -0.205286 2.337 0
M  V30 14054 C 1333.69 -0.919271 1.47734 0
M  V30 14055 O 1334.87 -0.889808 1.80678 0
M  V30 14056 C 1331.94 -1.22658 3.24278 0
M  V30 14057 C 1331 -0.520815 4.26129 0
M  V30 14058 C 1330.23 -1.49345 5.12378 0
M  V30 14059 O 1330.45 -2.72772 5.00951 0
M  V30 14060 O 1329.39 -1.02197 5.93161 0
M  V30 14061 H 1333.21 0.499982 2.99556 0
M  V30 14062 H 1330.8 0.310538 1.46137 0
M  V30 14063 H 1332.68 -1.8163 3.80248 0
M  V30 14064 H 1331.35 -1.9139 2.61059 0
M  V30 14065 H 1330.26 0.109906 3.73939 0
M  V30 14066 H 1331.59 0.124922 4.92041 0
M  V30 14067 N 1333.25 -1.54984 0.285932 0
M  V30 14068 C 1334.52 -1.91872 -0.380083 0
M  V30 14069 C 1334.9 -1.21146 -1.72878 0
M  V30 14070 O 1334.25 -0.341999 -2.25926 0
M  V30 14071 C 1334.46 -3.45258 -0.509667 0
M  V30 14072 C 1335.81 -4.17232 -0.787549 0
M  V30 14073 O 1336.83 -3.51211 -0.594062 0
M  V30 14074 O 1335.69 -5.34085 -1.15826 0
M  V30 14075 H 1332.79 -0.799931 -0.209856 0
M  V30 14076 H 1335.33 -1.66403 0.332882 0
M  V30 14077 H 1334.1 -3.88829 0.439049 0
M  V30 14078 H 1333.73 -3.76715 -1.27168 0
M  V30 14079 N 1334.72 -0.0133892 -1.57594 0
M  V30 14080 C 1336 0.706416 -1.82398 0
M  V30 14081 C 1336.38 1.91236 -0.893983 0
M  V30 14082 O 1335.73 2.28436 0.0541675 0
M  V30 14083 C 1335.94 1.09951 -3.31228 0
M  V30 14084 C 1337.29 1.49776 -3.97306 0
M  V30 14085 O 1338.31 1.19293 -3.3563 0
M  V30 14086 O 1337.17 2.06511 -5.0598 0
M  V30 14087 H 1334.26 0.345131 -0.751541 0
M  V30 14088 H 1336.81 -0.0398687 -1.69653 0
M  V30 14089 H 1335.58 0.240514 -3.9056 0
M  V30 14090 H 1335.21 1.90447 -3.49021 0
M  V30 14091 N 1336.2 1.55448 0.259558 0
M  V30 14092 C 1337.11 1.92364 1.34289 0
M  V30 14093 C 1338.13 0.822492 1.53333 0
M  V30 14094 O 1339.3 1.12277 1.672 0
M  V30 14095 C 1336.37 2.19978 2.67975 0
M  V30 14096 C 1335.43 3.43454 2.57562 0
M  V30 14097 C 1334.66 3.69741 3.84873 0
M  V30 14098 O 1334.89 2.9831 4.86176 0
M  V30 14099 O 1333.82 4.63274 3.84267 0
M  V30 14100 H 1337.65 2.8461 1.05975 0
M  V30 14101 H 1335.23 1.42167 0.459239 0
M  V30 14102 H 1337.11 2.39104 3.46998 0
M  V30 14103 H 1335.79 1.30912 2.96047 0
M  V30 14104 H 1334.7 3.29649 1.76869 0
M  V30 14105 H 1336.03 4.32782 2.34437 0
M  V30 14106 N 1337.68 -0.524672 1.4861 0
M  V30 14107 C 1338.91 -1.30958 1.60825 0
M  V30 14108 C 1339.33 -1.86142 0.270682 0
M  V30 14109 O 1338.69 -1.64675 -0.758415 0
M  V30 14110 C 1338.74 -2.43252 2.66197 0
M  V30 14111 O 1337.84 -3.4644 2.23725 0
M  V30 14112 H 1337.18 -0.387638 0.539104 0
M  V30 14113 H 1339.71 -0.630755 1.94635 0
M  V30 14114 H 1339.72 -2.89362 2.87635 0
M  V30 14115 H 1338.4 -2.02449 3.63301 0
M  V30 14116 H 1336.97 -3.06413 2.12522 0
M  V30 14117 N 1339.16 -1.37287 -0.77395 0
M  V30 14118 C 1340.57 -1.28954 -1.3501 0
M  V30 14119 C 1340.92 0.0638301 -1.96096 0
M  V30 14120 O 1340.05 0.965624 -1.93661 0
M  V30 14121 C 1340.64 -2.3352 -2.45467 0
M  V30 14122 C 1339.2 -2.28828 -2.98856 0
M  V30 14123 C 1338.35 -2.17468 -1.72055 0
M  V30 14124 H 1341.3 -1.47941 -0.57438 0
M  V30 14125 H 1341.32 -1.98058 -3.24889 0
M  V30 14126 H 1340.83 -3.32009 -2.00977 0
M  V30 14127 H 1338.93 -1.33855 -3.47726 0
M  V30 14128 H 1339.04 -3.22152 -3.54619 0
M  V30 14129 H 1337.41 -1.63977 -1.94894 0
M  V30 14130 H 1338.19 -3.17868 -1.29672 0
M  V30 14131 N 1340.64 0.999871 -1.21821 0
M  V30 14132 C 1341.88 1.73497 -1.0365 0
M  V30 14133 C 1342.21 1.90194 0.430271 0
M  V30 14134 O 1341.48 1.45655 1.31002 0
M  V30 14135 H 1340.06 0.642804 -0.380541 0
M  V30 14136 H 1342.72 1.20461 -1.53216 0
M  V30 14137 H 1341.81 2.73215 -1.50864 0
M  V30 14138 N 1342.11 1.02678 1.19562 0
M  V30 14139 C 1343.04 0.626359 2.24942 0
M  V30 14140 C 1344.03 -0.363612 1.66168 0
M  V30 14141 O 1345.21 -0.246793 1.92625 0
M  V30 14142 C 1342.34 -0.0257912 3.4729 0
M  V30 14143 C 1341.29 0.886237 4.18724 0
M  V30 14144 C 1340.62 0.0993081 5.34608 0
M  V30 14145 C 1341.92 2.19901 4.73752 0
M  V30 14146 H 1343.61 1.50729 2.58691 0
M  V30 14147 H 1341.16 0.726195 1.24348 0
M  V30 14148 H 1343.11 -0.317545 4.20202 0
M  V30 14149 H 1341.84 -0.941511 3.12735 0
M  V30 14150 H 1340.5 1.16215 3.47692 0
M  V30 14151 H 1340.14 -0.81838 4.96298 0
M  V30 14152 H 1339.84 0.706776 5.83334 0
M  V30 14153 H 1341.37 -0.185754 6.10317 0
M  V30 14154 H 1342.78 1.96892 5.3843 0
M  V30 14155 H 1341.18 2.75821 5.32956 0
M  V30 14156 H 1342.25 2.85509 3.91934 0
M  V30 14157 N 1343.59 -1.35528 0.804364 0
M  V30 14158 C 1344.82 -2.02779 0.395517 0
M  V30 14159 C 1345.23 -1.60764 -0.997572 0
M  V30 14160 O 1344.57 -0.799737 -1.65378 0
M  V30 14161 C 1344.64 -3.57302 0.396904 0
M  V30 14162 C 1344.3 -4.22574 1.74012 0
M  V30 14163 C 1345.3 -4.44411 2.69806 0
M  V30 14164 C 1342.98 -4.59738 2.02352 0
M  V30 14165 C 1344.98 -5.02511 3.92124 0
M  V30 14166 C 1342.66 -5.17553 3.24934 0
M  V30 14167 C 1343.66 -5.38881 4.19638 0
M  V30 14168 O 1343.35 -5.95478 5.40056 0
M  V30 14169 H 1343.08 -0.657003 0.15913 0
M  V30 14170 H 1345.63 -1.74176 1.08867 0
M  V30 14171 H 1343.86 -3.85087 -0.352836 0
M  V30 14172 H 1345.55 -4.05899 0.0106754 0
M  V30 14173 H 1346.32 -4.16081 2.49202 0
M  V30 14174 H 1342.2 -4.42452 1.2945 0
M  V30 14175 H 1345.74 -5.19075 4.66055 0
M  V30 14176 H 1341.64 -5.4531 3.45409 0
M  V30 14177 H 1342.41 -6.13931 5.41323 0
M  V30 14178 N 1345.07 -0.557671 -1.47404 0
M  V30 14179 C 1346.32 -0.0337216 -2.02072 0
M  V30 14180 C 1346.64 1.32106 -1.43433 0
M  V30 14181 O 1345.91 1.86171 -0.609692 0
M  V30 14182 H 1344.49 -0.00947648 -0.74694 0
M  V30 14183 H 1347.15 -0.727784 -1.80802 0
M  V30 14184 H 1346.25 0.0540331 -3.12053 0
M  V30 14185 N 1346.55 1.54831 -0.294147 0
M  V30 14186 C 1347.8 2.00001 0.317135 0
M  V30 14187 C 1348.12 1.18256 1.54421 0
M  V30 14188 O 1347.38 0.245035 1.9416 0
M  V30 14189 C 1347.68 3.4997 0.72495 0
M  V30 14190 C 1347.34 4.49126 -0.399616 0
M  V30 14191 C 1346.01 4.75958 -0.708354 0
M  V30 14192 C 1348.36 5.08208 -1.15644 0
M  V30 14193 C 1345.69 5.59137 -1.77716 0
M  V30 14194 C 1348.04 5.9255 -2.21512 0
M  V30 14195 C 1346.7 6.17695 -2.52999 0
M  V30 14196 H 1345.97 0.731856 0.116048 0
M  V30 14197 H 1348.62 1.87019 -0.41182 0
M  V30 14198 H 1346.92 3.60526 1.53388 0
M  V30 14199 H 1348.62 3.82341 1.20898 0
M  V30 14200 H 1345.21 4.28341 -0.148877 0
M  V30 14201 H 1349.4 4.87486 -0.931178 0
M  V30 14202 H 1344.65 5.76859 -2.02592 0
M  V30 14203 H 1348.83 6.37359 -2.80617 0
M  V30 14204 H 1346.45 6.81939 -3.35951 0
M  V30 14205 N 1348.03 0.0217466 1.57585 0
M  V30 14206 C 1348.96 -0.961069 2.12804 0
M  V30 14207 C 1349.94 -1.3442 1.04237 0
M  V30 14208 O 1351.12 -1.42412 1.32032 0
M  V30 14209 C 1348.25 -2.24586 2.64912 0
M  V30 14210 C 1347.21 -2.0037 3.78201 0
M  V30 14211 C 1346.53 -3.35051 4.16708 0
M  V30 14212 C 1347.83 -1.34879 5.04584 0
M  V30 14213 H 1349.53 -0.501222 2.95175 0
M  V30 14214 H 1347.07 -0.239649 1.41992 0
M  V30 14215 H 1349.03 -2.93715 3.02175 0
M  V30 14216 H 1347.75 -2.72723 1.79693 0
M  V30 14217 H 1346.41 -1.33662 3.41365 0
M  V30 14218 H 1346.06 -3.80932 3.28481 0
M  V30 14219 H 1345.76 -3.19656 4.93045 0
M  V30 14220 H 1347.28 -4.05459 4.56547 0
M  V30 14221 H 1348.7 -1.93997 5.3948 0
M  V30 14222 H 1347.09 -1.29906 5.85871 0
M  V30 14223 H 1348.16 -0.320774 4.83838 0
M  V30 14224 N 1349.51 -1.55583 -0.251311 0
M  V30 14225 C 1350.45 -1.90764 -1.33086 0
M  V30 14226 C 1351.45 -0.786236 -1.50049 0
M  V30 14227 O 1352.65 -0.97081 -1.51576 0
M  V30 14228 H 1349.03 -0.605795 -0.445551 0
M  V30 14229 H 1351 -2.80903 -1.00678 0
M  V30 14230 C 1349.75 -2.21499 -2.68018 0
M  V30 14231 H 1349.07 -3.07287 -2.55763 0
M  V30 14232 H 1350.51 -2.50021 -3.42441 0
M  V30 14233 C 1348.97 -1.02983 -3.20774 0
M  V30 14234 O 1349.5 -0.275557 -4.00754 0
M  V30 14235 N 1347.71 -0.821649 -2.78742 0
M  V30 14236 H 1347.25 -1.43672 -2.13813 0
M  V30 14237 H 1347.21 -0.0303445 -3.14385 0
M  V30 14238 N 1350.98 0.516783 -1.48886 0
M  V30 14239 C 1352.23 1.27375 -1.57808 0
M  V30 14240 C 1352.56 1.92492 -0.256963 0
M  V30 14241 O 1351.84 1.79947 0.738193 0
M  V30 14242 C 1352.12 2.35295 -2.72595 0
M  V30 14243 C 1351.97 1.74783 -4.14453 0
M  V30 14244 C 1353.29 3.36973 -2.83085 0
M  V30 14245 H 1350.41 0.46175 -0.574418 0
M  V30 14246 H 1353.05 0.57434 -1.81111 0
M  V30 14247 H 1351.2 2.94951 -2.52857 0
M  V30 14248 H 1352.88 1.19076 -4.45666 0
M  V30 14249 H 1351.12 1.05258 -4.20836 0
M  V30 14250 H 1351.79 2.52985 -4.90615 0
M  V30 14251 H 1354.27 2.87289 -3.01005 0
M  V30 14252 H 1353.14 4.09864 -3.65106 0
M  V30 14253 H 1353.4 3.98336 -1.91784 0
M  V30 14254 N 1352.46 1.37696 0.766659 0
M  V30 14255 C 1353.71 1.32507 1.52069 0
M  V30 14256 C 1354.02 -0.0864967 1.95409 0
M  V30 14257 O 1355.23 -0.260877 2.70244 0
M  V30 14258 C 1353.69 2.32614 2.74625 0
M  V30 14259 C 1353.29 3.79325 2.38363 0
M  V30 14260 C 1355.04 2.36445 3.52554 0
M  V30 14261 C 1352.94 4.7115 3.57451 0
M  V30 14262 H 1351.87 0.492491 0.570937 0
M  V30 14263 H 1354.53 1.63183 0.839268 0
M  V30 14264 H 1352.91 1.94963 3.44682 0
M  V30 14265 H 1354.08 4.25841 1.76056 0
M  V30 14266 H 1352.4 3.78488 1.73597 0
M  V30 14267 H 1354.99 3.02252 4.41076 0
M  V30 14268 H 1355.34 1.37953 3.92778 0
M  V30 14269 H 1355.87 2.72829 2.89498 0
M  V30 14270 H 1352.61 5.70789 3.22304 0
M  V30 14271 H 1352.13 4.29335 4.18846 0
M  V30 14272 H 1353.81 4.88532 4.242 0
M  V30 14273 N 1353.94 -0.993397 1.22349 0
M  V30 14274 C 1355.19 -1.73544 1.04931 0
M  V30 14275 C 1355.52 -1.89721 -0.414661 0
M  V30 14276 O 1354.79 -1.44001 -1.30743 0
M  V30 14277 C 1355.08 -3.14131 1.7605 0
M  V30 14278 C 1354.93 -3.05604 3.30039 0
M  V30 14279 C 1356.25 -4.13294 1.51249 0
M  V30 14280 H 1353.37 -0.629915 0.382591 0
M  V30 14281 H 1356.01 -1.15737 1.50682 0
M  V30 14282 H 1354.16 -3.63483 1.37157 0
M  V30 14283 H 1355.83 -2.63876 3.78374 0
M  V30 14284 H 1354.07 -2.42421 3.59742 0
M  V30 14285 H 1354.75 -4.05086 3.74979 0
M  V30 14286 H 1357.22 -3.72696 1.85033 0
M  V30 14287 H 1356.1 -5.09781 2.03507 0
M  V30 14288 H 1356.36 -4.39855 0.444973 0
M  V30 14289 N 1355.42 -1.03311 -1.19015 0
M  V30 14290 C 1356.37 -0.588076 -2.20285 0
M  V30 14291 C 1357.35 0.365442 -1.56695 0
M  V30 14292 O 1358.54 0.185725 -1.76023 0
M  V30 14293 C 1355.67 0.0553478 -3.43255 0
M  V30 14294 C 1354.76 -0.920863 -4.13982 0
M  V30 14295 N 1355.15 -2.08495 -4.60829 0
M  V30 14296 C 1353.45 -0.74522 -4.3973 0
M  V30 14297 C 1354.15 -2.701 -5.1519 0
M  V30 14298 N 1353.12 -1.98031 -5.06246 0
M  V30 14299 H 1356.93 -1.47529 -2.54189 0
M  V30 14300 H 1354.44 -0.900663 -1.35136 0
M  V30 14301 H 1356.44 0.39182 -4.15055 0
M  V30 14302 H 1355.1 0.938199 -3.1085 0
M  V30 14303 H 1356.11 -2.46418 -4.5552 0
M  V30 14304 H 1352.79 0.088182 -4.17407 0
M  V30 14305 H 1354.18 -3.6871 -5.61696 0
M  V30 14306 N 1356.9 1.35099 -0.81154 0
M  V30 14307 C 1358.12 2.03391 -0.405805 0
M  V30 14308 C 1358.55 1.60745 0.97686 0
M  V30 14309 O 1357.9 0.786518 1.63351 0
M  V30 14310 C 1357.95 3.57075 -0.502954 0
M  V30 14311 O 1357.06 4.09577 0.481681 0
M  V30 14312 H 1356.4 0.642203 -0.168733 0
M  V30 14313 H 1358.93 1.72591 -1.0988 0
M  V30 14314 H 1358.94 4.06277 -0.37456 0
M  V30 14315 H 1357.61 3.87463 -1.51145 0
M  V30 14316 H 1356.19 3.71583 0.313115 0
M  V30 14317 N 1358.37 0.56548 1.47106 0
M  V30 14318 C 1359.34 -0.167191 2.28589 0
M  V30 14319 C 1360.34 -0.835005 1.3742 0
M  V30 14320 O 1361.53 -0.689598 1.59969 0
M  V30 14321 C 1358.66 -1.24548 3.17333 0
M  V30 14322 H 1359.85 0.548677 2.94838 0
M  V30 14323 H 1357.4 0.322749 1.52931 0
M  V30 14324 H 1358.14 -1.99348 2.55794 0
M  V30 14325 H 1357.92 -0.771335 3.84438 0
M  V30 14326 H 1359.41 -1.75985 3.78707 0
M  V30 14327 N 1359.85 -1.54672 0.302354 0
M  V30 14328 C 1361.08 -2.04578 -0.309093 0
M  V30 14329 C 1361.5 -1.17957 -1.47416 0
M  V30 14330 O 1360.85 -0.2055 -1.81339 0
M  V30 14331 C 1360.9 -3.53334 -0.764023 0
M  V30 14332 O 1360.62 -4.36662 0.354674 0
M  V30 14333 C 1362.13 -4.19243 -1.44048 0
M  V30 14334 H 1359.35 -0.667651 -0.0669575 0
M  V30 14335 H 1361.89 -1.99658 0.442379 0
M  V30 14336 H 1360.04 -3.5861 -1.46552 0
M  V30 14337 H 1360.46 -5.245 0.000241188 0
M  V30 14338 H 1361.93 -5.24847 -1.70995 0
M  V30 14339 H 1362.41 -3.69061 -2.38098 0
M  V30 14340 H 1363.02 -4.18046 -0.782132 0
M  V30 14341 N 1361.33 -0.0301034 -1.57571 0
M  V30 14342 C 1362.58 0.647042 -1.91462 0
M  V30 14343 C 1362.9 1.72612 -0.907206 0
M  V30 14344 O 1362.17 1.95833 0.0511268 0
M  V30 14345 H 1360.75 0.241988 -0.706718 0
M  V30 14346 H 1363.41 -0.0781385 -1.94743 0
M  V30 14347 H 1362.51 1.09915 -2.92105 0
M  V30 14348 N 1362.81 1.55714 0.243056 0
M  V30 14349 C 1364.06 1.77726 0.970555 0
M  V30 14350 C 1364.38 0.595108 1.85172 0
M  V30 14351 O 1363.64 -0.42143 1.91108 0
M  V30 14352 C 1363.94 3.05281 1.85845 0
M  V30 14353 C 1363.6 4.36451 1.13232 0
M  V30 14354 C 1362.27 4.72095 0.931656 0
M  V30 14355 C 1364.62 5.17524 0.617944 0
M  V30 14356 C 1361.95 5.86344 0.204373 0
M  V30 14357 C 1364.3 6.32527 -0.0958899 0
M  V30 14358 C 1362.96 6.66789 -0.308 0
M  V30 14359 H 1362.23 0.650345 0.355151 0
M  V30 14360 H 1364.88 1.89986 0.240351 0
M  V30 14361 H 1363.18 2.8805 2.65584 0
M  V30 14362 H 1364.88 3.19511 2.4231 0
M  V30 14363 H 1361.47 4.08451 1.29867 0
M  V30 14364 H 1365.65 4.90439 0.760507 0
M  V30 14365 H 1360.91 6.11393 0.0296 0
M  V30 14366 H 1365.08 6.94588 -0.502077 0
M  V30 14367 H 1362.71 7.55165 -0.873502 0
M  V30 14368 N 1364.29 -0.50888 1.49158 0
M  V30 14369 C 1365.23 -1.61129 1.65246 0
M  V30 14370 C 1366.2 -1.58582 0.49405 0
M  V30 14371 O 1367.39 -1.76689 0.720122 0
M  V30 14372 C 1364.53 -2.99311 1.71776 0
M  V30 14373 C 1363.64 -3.11933 2.98868 0
M  V30 14374 C 1362.78 -4.408 2.96426 0
M  V30 14375 C 1361.82 -4.47027 4.18131 0
M  V30 14376 N 1360.95 -5.67311 4.13645 0
M  V30 14377 H 1365.79 -1.4672 2.59379 0
M  V30 14378 H 1363.33 -0.713978 1.28611 0
M  V30 14379 H 1365.29 -3.79392 1.73543 0
M  V30 14380 H 1363.92 -3.12442 0.811159 0
M  V30 14381 H 1362.97 -2.24966 3.06748 0
M  V30 14382 H 1364.28 -3.12393 3.8886 0
M  V30 14383 H 1363.44 -5.29194 2.96712 0
M  V30 14384 H 1362.17 -4.42893 2.04199 0
M  V30 14385 H 1361.18 -3.57036 4.18097 0
M  V30 14386 H 1362.4 -4.46656 5.11542 0
M  V30 14387 H 1360.35 -5.70261 3.2425 0
M  V30 14388 H 1360.27 -5.69355 4.97364 0
M  V30 14389 H 1361.54 -6.57934 4.18022 0
M  V30 14390 N 1365.76 -1.381 -0.759346 0
M  V30 14391 C 1366.7 -1.3075 -1.88248 0
M  V30 14392 C 1367.71 -0.220835 -1.61295 0
M  V30 14393 O 1368.9 -0.477952 -1.71982 0
M  V30 14394 C 1366 -1.00174 -3.23757 0
M  V30 14395 C 1365.17 -2.19635 -3.78258 0
M  V30 14396 C 1364.23 -1.85892 -4.92271 0
M  V30 14397 O 1363.26 -2.58325 -5.07205 0
M  V30 14398 N 1364.46 -0.810436 -5.74815 0
M  V30 14399 H 1367.22 -2.27529 -1.95065 0
M  V30 14400 H 1364.78 -1.31886 -0.93902 0
M  V30 14401 H 1366.78 -0.756631 -3.97564 0
M  V30 14402 H 1365.35 -0.122094 -3.12361 0
M  V30 14403 H 1364.57 -2.60246 -2.96084 0
M  V30 14404 H 1365.85 -2.99373 -4.11404 0
M  V30 14405 H 1365.25 -0.209644 -5.65311 0
M  V30 14406 H 1363.81 -0.625206 -6.48795 0
M  V30 14407 N 1367.24 0.986894 -1.22875 0
M  V30 14408 C 1368.47 1.768 -1.08427 0
M  V30 14409 C 1368.89 1.84612 0.360555 0
M  V30 14410 O 1368.25 1.30299 1.26063 0
M  V30 14411 C 1368.3 3.17638 -1.70701 0
M  V30 14412 O 1367.4 4.00957 -0.964752 0
M  V30 14413 H 1366.74 0.544199 -0.380451 0
M  V30 14414 H 1369.27 1.23931 -1.62795 0
M  V30 14415 H 1369.28 3.68243 -1.75672 0
M  V30 14416 H 1367.96 3.11267 -2.75837 0
M  V30 14417 H 1366.54 3.59477 -0.991493 0
M  V30 14418 N 1368.72 1.0394 1.18466 0
M  V30 14419 C 1369.95 0.761926 1.92897 0
M  V30 14420 C 1370.37 -0.674618 1.75586 0
M  V30 14421 O 1369.73 -1.46711 1.06515 0
M  V30 14422 C 1369.78 1.13152 3.42387 0
M  V30 14423 O 1368.88 0.256266 4.11603 0
M  V30 14424 H 1368.22 0.280527 0.601831 0
M  V30 14425 H 1370.75 1.3889 1.50235 0
M  V30 14426 H 1370.76 1.0929 3.9309 0
M  V30 14427 H 1369.44 2.17804 3.54308 0
M  V30 14428 H 1368.01 0.354392 3.71212 0
M  V30 14429 N 1370.2 -1.34667 0.818693 0
M  V30 14430 C 1371.15 -2.31501 0.225816 0
M  V30 14431 C 1372.14 -1.57205 -0.631112 0
M  V30 14432 O 1373.35 -1.72237 -0.522924 0
M  V30 14433 H 1369.72 -0.750039 0.0542747 0
M  V30 14434 H 1371.69 -2.79036 1.05743 0
M  V30 14435 C 1370.44 -3.42464 -0.60114 0
M  V30 14436 H 1369.76 -3.9977 0.0489207 0
M  V30 14437 H 1371.2 -4.12468 -0.982154 0
M  V30 14438 C 1369.66 -2.86551 -1.77173 0
M  V30 14439 O 1370.19 -2.81085 -2.86974 0
M  V30 14440 N 1368.4 -2.43432 -1.58712 0
M  V30 14441 H 1367.95 -2.48077 -0.693958 0
M  V30 14442 H 1367.9 -2.06371 -2.37188 0
M  V30 14443 N 1371.68 -0.573274 -1.46804 0
M  V30 14444 C 1372.61 0.153316 -2.32996 0
M  V30 14445 C 1373.59 0.893013 -1.44773 0
M  V30 14446 O 1374.77 0.870329 -1.73606 0
M  V30 14447 C 1371.9 1.1736 -3.2687 0
M  V30 14448 C 1370.86 0.549347 -4.2446 0
M  V30 14449 C 1370.18 1.67542 -5.07773 0
M  V30 14450 C 1371.48 -0.50736 -5.1983 0
M  V30 14451 H 1373.18 -0.566305 -2.93995 0
M  V30 14452 H 1370.72 -0.273785 -1.41373 0
M  V30 14453 H 1372.68 1.6902 -3.86019 0
M  V30 14454 H 1371.4 1.92337 -2.63958 0
M  V30 14455 H 1370.06 0.0539142 -3.6656 0
M  V30 14456 H 1369.71 2.41463 -4.41253 0
M  V30 14457 H 1369.41 1.26343 -5.73856 0
M  V30 14458 H 1370.93 2.19496 -5.69784 0
M  V30 14459 H 1372.34 -0.0762061 -5.73249 0
M  V30 14460 H 1370.74 -0.839139 -5.94204 0
M  V30 14461 H 1371.81 -1.39723 -4.64333 0
M  V30 14462 N 1373.15 1.5451 -0.310553 0
M  V30 14463 C 1374.38 2.04442 0.297807 0
M  V30 14464 C 1374.79 1.18695 1.47337 0
M  V30 14465 O 1374.14 0.207405 1.82525 0
M  V30 14466 C 1374.2 3.50306 0.807851 0
M  V30 14467 C 1373.86 4.5635 -0.24369 0
M  V30 14468 C 1374.86 5.08656 -1.07539 0
M  V30 14469 C 1372.54 5.00798 -0.388138 0
M  V30 14470 C 1374.54 6.03961 -2.03738 0
M  V30 14471 C 1372.22 5.95921 -1.35357 0
M  V30 14472 C 1373.22 6.47387 -2.17667 0
M  V30 14473 O 1372.91 7.40644 -3.12571 0
M  V30 14474 H 1372.64 0.672646 0.0672525 0
M  V30 14475 H 1375.2 2.00389 -0.450948 0
M  V30 14476 H 1373.43 3.51714 1.6073 0
M  V30 14477 H 1375.12 3.83383 1.33314 0
M  V30 14478 H 1375.88 4.75105 -0.97471 0
M  V30 14479 H 1371.76 4.60361 0.242608 0
M  V30 14480 H 1375.3 6.44057 -2.68023 0
M  V30 14481 H 1371.2 6.2889 -1.45493 0
M  V30 14482 H 1371.97 7.58477 -3.0766 0
M  V30 14483 N 1374.63 0.0384594 1.57553 0
M  V30 14484 C 1375.87 -0.642187 1.9405 0
M  V30 14485 C 1376.24 -1.68753 0.915779 0
M  V30 14486 O 1377.44 -2.42133 1.16726 0
M  V30 14487 C 1375.71 -1.23422 3.35413 0
M  V30 14488 S 1377.27 -1.93464 3.93849 0
M  V30 14489 H 1374.09 -0.211198 0.678908 0
M  V30 14490 H 1376.69 0.104358 1.95221 0
M  V30 14491 H 1375.39 -0.461112 4.07801 0
M  V30 14492 H 1374.92 -2.01787 3.37707 0
M  V30 14493 H 1376.94 -3.21401 3.78042 0
M  V30 14494 N 1376.11 -1.55841 -0.234795 0
M  V30 14495 C 1377.34 -1.82307 -0.978355 0
M  V30 14496 C 1377.75 -0.615825 -1.78474 0
M  V30 14497 O 1377.11 0.4156 -1.77705 0
M  V30 14498 C 1377.16 -3.07136 -1.90655 0
M  V30 14499 O 1376.88 -4.23202 -1.13278 0
M  V30 14500 C 1378.38 -3.46492 -2.76511 0
M  V30 14501 H 1375.6 -0.606361 -0.287345 0
M  V30 14502 H 1378.15 -2.02916 -0.254023 0
M  V30 14503 H 1376.3 -2.88542 -2.58501 0
M  V30 14504 H 1376.72 -4.94029 -1.76168 0
M  V30 14505 H 1378.19 -4.36908 -3.37366 0
M  V30 14506 H 1378.67 -2.67633 -3.48238 0
M  V30 14507 H 1379.27 -3.6748 -2.14099 0
M  V30 14508 N 1377.59 0.500963 -1.49426 0
M  V30 14509 C 1378.52 1.61114 -1.69011 0
M  V30 14510 C 1379.5 1.61341 -0.538813 0
M  V30 14511 O 1380.69 1.78081 -0.77466 0
M  V30 14512 C 1377.82 2.99598 -1.75666 0
M  V30 14513 C 1376.77 3.14236 -2.90585 0
M  V30 14514 C 1376.1 4.54071 -2.82354 0
M  V30 14515 C 1377.4 2.94258 -4.3152 0
M  V30 14516 H 1379.09 1.44978 -2.61957 0
M  V30 14517 H 1376.64 0.69603 -1.26061 0
M  V30 14518 H 1378.59 3.77163 -1.87953 0
M  V30 14519 H 1377.31 3.16822 -0.793186 0
M  V30 14520 H 1375.97 2.39096 -2.779 0
M  V30 14521 H 1375.62 4.68172 -1.83914 0
M  V30 14522 H 1375.32 4.64806 -3.59485 0
M  V30 14523 H 1376.84 5.33696 -2.96649 0
M  V30 14524 H 1378.26 3.61592 -4.44886 0
M  V30 14525 H 1376.65 3.16464 -5.09873 0
M  V30 14526 H 1377.72 1.90383 -4.45962 0
M  V30 14527 N 1379.07 1.38501 0.752011 0
M  V30 14528 C 1379.98 1.38094 1.8965 0
M  V30 14529 C 1380.99 0.277851 1.71767 0
M  V30 14530 O 1382.17 0.516536 1.94663 0
M  V30 14531 C 1379.23 1.2063 3.25037 0
M  V30 14532 C 1378.3 2.40758 3.55435 0
M  V30 14533 C 1377.53 2.24118 4.84362 0
M  V30 14534 O 1377.75 1.23571 5.56854 0
M  V30 14535 O 1376.69 3.12741 5.14273 0
M  V30 14536 H 1380.51 2.34532 1.92947 0
M  V30 14537 H 1378.1 1.19437 0.897504 0
M  V30 14538 H 1379.98 1.12957 4.05979 0
M  V30 14539 H 1378.65 0.272785 3.22549 0
M  V30 14540 H 1377.56 2.54006 2.74648 0
M  V30 14541 H 1378.89 3.32745 3.62686 0
M  V30 14542 N 1380.55 -0.980364 1.23396 0
M  V30 14543 C 1381.79 -1.72421 1.06765 0
M  V30 14544 C 1382.12 -1.90151 -0.394515 0
M  V30 14545 O 1381.4 -1.4538 -1.29209 0
M  V30 14546 C 1381.68 -3.12246 1.79372 0
M  V30 14547 C 1381.54 -3.02087 3.33262 0
M  V30 14548 C 1382.85 -4.11667 1.55624 0
M  V30 14549 H 1379.97 -0.625822 0.389251 0
M  V30 14550 H 1382.62 -1.14132 1.51901 0
M  V30 14551 H 1380.77 -3.62008 1.41004 0
M  V30 14552 H 1382.44 -2.59848 3.81152 0
M  V30 14553 H 1380.68 -2.38592 3.62293 0
M  V30 14554 H 1381.35 -4.01087 3.79254 0
M  V30 14555 H 1383.83 -3.70712 1.88975 0
M  V30 14556 H 1382.7 -5.07593 2.08902 0
M  V30 14557 H 1382.96 -4.39358 0.491601 0
M  V30 14558 N 1382.02 -1.04567 -1.17913 0
M  V30 14559 C 1383.3 -0.666082 -1.8391 0
M  V30 14560 C 1383.68 0.854062 -1.93052 0
M  V30 14561 O 1383.03 1.75752 -1.46026 0
M  V30 14562 C 1383.24 -1.34776 -3.21926 0
M  V30 14563 C 1384.59 -1.48177 -3.97905 0
M  V30 14564 O 1385.61 -1.30627 -3.31384 0
M  V30 14565 O 1384.47 -1.76822 -5.17104 0
M  V30 14566 H 1381.56 -0.233694 -0.793294 0
M  V30 14567 H 1384.11 -1.14487 -1.25263 0
M  V30 14568 H 1382.88 -2.38514 -3.10204 0
M  V30 14569 H 1382.5 -0.857914 -3.88234 0
M  V30 14570 N 1383.5 1.34231 -0.825823 0
M  V30 14571 C 1384.73 2.02949 -0.427354 0
M  V30 14572 C 1385.15 1.61772 0.959755 0
M  V30 14573 O 1384.51 0.803799 1.62508 0
M  V30 14574 C 1384.56 3.56522 -0.540799 0
M  V30 14575 O 1383.66 4.10065 0.438213 0
M  V30 14576 H 1383 0.640378 -0.175535 0
M  V30 14577 H 1385.53 1.71416 -1.11704 0
M  V30 14578 H 1385.54 4.05857 -0.41763 0
M  V30 14579 H 1384.22 3.85839 -1.55246 0
M  V30 14580 H 1382.79 3.71894 0.273687 0
M  V30 14581 N 1384.98 0.581051 1.46498 0
M  V30 14582 C 1386.23 0.0659956 2.02392 0
M  V30 14583 C 1386.55 -1.29329 1.45273 0
M  V30 14584 O 1385.81 -1.86047 0.607041 0
M  V30 14585 C 1386.11 -0.0514774 3.57363 0
M  V30 14586 C 1385.77 1.24 4.33514 0
M  V30 14587 C 1384.44 1.59383 4.54038 0
M  V30 14588 C 1386.79 2.09473 4.77253 0
M  V30 14589 C 1384.12 2.8004 5.15552 0
M  V30 14590 C 1386.47 3.29355 5.401 0
M  V30 14591 C 1385.13 3.65022 5.58852 0
M  V30 14592 H 1384.4 0.0241495 0.740606 0
M  V30 14593 H 1387.05 0.757354 1.75887 0
M  V30 14594 H 1385.35 -0.825955 3.82995 0
M  V30 14595 H 1387.05 -0.465726 3.98286 0
M  V30 14596 H 1383.64 0.954547 4.17835 0
M  V30 14597 H 1387.83 1.83441 4.61154 0
M  V30 14598 H 1383.08 3.07814 5.28262 0
M  V30 14599 H 1387.26 3.95855 5.7295 0
M  V30 14600 H 1384.88 4.58607 6.06287 0
M  V30 14601 N 1386.46 -1.54343 0.318742 0
M  V30 14602 C 1387.71 -2.00084 -0.284713 0
M  V30 14603 C 1388.03 -1.20855 -1.53033 0
M  V30 14604 O 1387.3 -0.309104 -1.93446 0
M  V30 14605 H 1385.88 -0.739123 -0.108193 0
M  V30 14606 H 1388.54 -1.90002 0.434174 0
M  V30 14607 H 1387.63 -3.07314 -0.544459 0
M  V30 14608 N 1387.94 -0.0468143 -1.5753 0
M  V30 14609 C 1389.17 0.636723 -1.96544 0
M  V30 14610 C 1389.57 1.65169 -0.922814 0
M  V30 14611 O 1388.92 1.83417 0.101892 0
M  V30 14612 C 1388.98 1.38435 -3.31777 0
M  V30 14613 C 1388.64 0.525714 -4.53966 0
M  V30 14614 C 1389.64 -0.206392 -5.1949 0
M  V30 14615 C 1387.32 0.457919 -5.00208 0
M  V30 14616 C 1389.32 -0.994779 -6.29589 0
M  V30 14617 C 1387.01 -0.334159 -6.10186 0
M  V30 14618 C 1388 -1.0592 -6.74737 0
M  V30 14619 O 1387.69 -1.83826 -7.826 0
M  V30 14620 H 1387.42 0.179197 -0.651816 0
M  V30 14621 H 1389.98 -0.108214 -2.05115 0
M  V30 14622 H 1388.21 2.17482 -3.19748 0
M  V30 14623 H 1389.9 1.9577 -3.55568 0
M  V30 14624 H 1390.66 -0.163457 -4.84724 0
M  V30 14625 H 1386.54 1.01185 -4.49758 0
M  V30 14626 H 1390.09 -1.56121 -6.79906 0
M  V30 14627 H 1385.98 -0.378748 -6.44388 0
M  V30 14628 H 1386.75 -1.75991 -7.99356 0
M  V30 14629 N 1389.41 1.55964 0.226527 0
M  V30 14630 C 1390.66 1.78745 0.95165 0
M  V30 14631 C 1390.99 0.614714 1.84531 0
M  V30 14632 O 1390.24 -0.401137 1.91545 0
M  V30 14633 C 1390.54 3.07235 1.82597 0
M  V30 14634 C 1390.21 4.37627 1.08596 0
M  V30 14635 C 1388.87 4.73057 0.881531 0
M  V30 14636 C 1391.22 5.1815 0.563019 0
M  V30 14637 C 1388.55 5.86528 0.142172 0
M  V30 14638 C 1390.9 6.3239 -0.162972 0
M  V30 14639 C 1389.57 6.66425 -0.378704 0
M  V30 14640 H 1388.84 0.654075 0.348233 0
M  V30 14641 H 1391.48 1.9023 0.220187 0
M  V30 14642 H 1389.79 2.9085 2.62514 0
M  V30 14643 H 1391.49 3.22063 2.38907 0
M  V30 14644 H 1388.08 4.09806 1.25527 0
M  V30 14645 H 1392.26 4.91218 0.708446 0
M  V30 14646 H 1387.52 6.1139 -0.0352481 0
M  V30 14647 H 1391.69 6.94016 -0.575719 0
M  V30 14648 H 1389.32 7.54196 -0.953549 0
M  V30 14649 N 1390.89 -0.493031 1.4969 0
M  V30 14650 C 1392.14 -1.24849 1.59814 0
M  V30 14651 C 1392.47 -1.92059 0.287555 0
M  V30 14652 O 1391.75 -1.81099 -0.709471 0
M  V30 14653 C 1392.03 -2.30929 2.76304 0
M  V30 14654 C 1391.88 -1.68167 4.17181 0
M  V30 14655 C 1393.2 -3.32427 2.8841 0
M  V30 14656 H 1390.32 -0.452553 0.581691 0
M  V30 14657 H 1392.96 -0.545455 1.82002 0
M  V30 14658 H 1391.11 -2.9089 2.57517 0
M  V30 14659 H 1392.78 -1.11971 4.47504 0
M  V30 14660 H 1391.03 -0.985496 4.22458 0
M  V30 14661 H 1391.7 -2.45148 4.94577 0
M  V30 14662 H 1394.17 -2.82464 3.05537 0
M  V30 14663 H 1393.05 -4.04004 3.71581 0
M  V30 14664 H 1393.31 -3.95234 1.98097 0
M  V30 14665 N 1392.37 -1.38898 -0.744656 0
M  V30 14666 C 1393.32 -1.36974 -1.87992 0
M  V30 14667 C 1394.31 -0.254277 -1.67481 0
M  V30 14668 O 1395.52 -0.423797 -1.7494 0
M  V30 14669 H 1391.89 -0.427508 -0.618661 0
M  V30 14670 H 1393.86 -2.32754 -1.86731 0
M  V30 14671 C 1392.61 -1.22054 -3.25573 0
M  V30 14672 H 1391.94 -2.07152 -3.41947 0
M  V30 14673 H 1393.38 -1.24763 -4.05228 0
M  V30 14674 C 1391.84 0.0718413 -3.36823 0
M  V30 14675 O 1392.37 1.0456 -3.87853 0
M  V30 14676 N 1390.57 0.131672 -2.90302 0
M  V30 14677 H 1390.12 -0.661428 -2.48964 0
M  V30 14678 H 1390.08 0.995936 -2.98209 0
M  V30 14679 N 1393.85 0.973806 -1.23914 0
M  V30 14680 C 1394.8 2.06734 -1.02614 0
M  V30 14681 C 1395.77 1.65997 0.0585705 0
M  V30 14682 O 1396.95 1.90564 -0.0948467 0
M  V30 14683 C 1394.09 3.39292 -0.630493 0
M  V30 14684 C 1393.2 3.9326 -1.78803 0
M  V30 14685 C 1392.34 5.14059 -1.33854 0
M  V30 14686 C 1391.38 5.60209 -2.46642 0
M  V30 14687 N 1390.51 6.72232 -2.02603 0
M  V30 14688 H 1395.35 2.24287 -1.96212 0
M  V30 14689 H 1392.89 1.09935 -0.977376 0
M  V30 14690 H 1394.85 4.15446 -0.382163 0
M  V30 14691 H 1393.48 3.21682 0.268483 0
M  V30 14692 H 1392.53 3.13801 -2.15019 0
M  V30 14693 H 1393.84 4.23475 -2.63573 0
M  V30 14694 H 1393 5.97567 -1.04873 0
M  V30 14695 H 1391.74 4.85513 -0.46131 0
M  V30 14696 H 1390.74 4.75278 -2.7639 0
M  V30 14697 H 1391.97 5.90771 -3.34912 0
M  V30 14698 H 1389.91 6.45433 -1.17269 0
M  V30 14699 H 1389.83 7.01865 -2.80929 0
M  V30 14700 H 1391.1 7.59198 -1.76745 0
M  V30 14701 N 1395.33 1.05191 1.17357 0
M  V30 14702 C 1396.29 0.65713 2.19578 0
M  V30 14703 C 1397.29 -0.29138 1.58138 0
M  V30 14704 O 1398.48 -0.075254 1.74037 0
M  V30 14705 C 1395.61 -0.0348162 3.40882 0
M  V30 14706 H 1396.8 1.56188 2.56018 0
M  V30 14707 H 1394.36 0.845795 1.31438 0
M  V30 14708 H 1395.09 -0.952835 3.09986 0
M  V30 14709 H 1394.88 0.647076 3.86724 0
M  V30 14710 H 1396.37 -0.297135 4.16542 0
M  V30 14711 N 1396.8 -1.33791 0.83293 0
M  V30 14712 C 1397.75 -2.29332 0.25989 0
M  V30 14713 C 1398.72 -1.54056 -0.620965 0
M  V30 14714 O 1399.91 -1.82382 -0.560492 0
M  V30 14715 C 1397.05 -3.40461 -0.563964 0
M  V30 14716 C 1396.16 -4.30658 0.34025 0
M  V30 14717 C 1395.29 -5.28897 -0.494134 0
M  V30 14718 C 1394.33 -6.10733 0.408842 0
M  V30 14719 N 1393.47 -7.01032 -0.38706 0
M  V30 14720 H 1398.31 -2.77743 1.07996 0
M  V30 14721 H 1395.85 -1.3667 0.544043 0
M  V30 14722 H 1397.81 -4.03587 -1.05704 0
M  V30 14723 H 1396.44 -2.93258 -1.34905 0
M  V30 14724 H 1395.49 -3.68305 0.9516 0
M  V30 14725 H 1396.8 -4.87962 1.03415 0
M  V30 14726 H 1395.95 -5.97522 -1.05128 0
M  V30 14727 H 1394.69 -4.72155 -1.2215 0
M  V30 14728 H 1393.7 -5.41031 0.978046 0
M  V30 14729 H 1394.92 -6.69557 1.13448 0
M  V30 14730 H 1392.87 -6.46747 -1.09792 0
M  V30 14731 H 1392.79 -7.55592 0.248249 0
M  V30 14732 H 1394.05 -7.73973 -0.926631 0
M  V30 14733 N 1398.28 -0.588812 -1.46187 0
M  V30 14734 C 1399.51 -0.0825301 -2.06735 0
M  V30 14735 C 1399.93 1.22507 -1.43658 0
M  V30 14736 O 1399.28 1.74203 -0.544022 0
M  V30 14737 C 1399.33 0.083501 -3.61404 0
M  V30 14738 O 1399.05 -1.17235 -4.22123 0
M  V30 14739 C 1400.56 0.623425 -4.38894 0
M  V30 14740 H 1397.78 -0.0602413 -0.66829 0
M  V30 14741 H 1400.32 -0.811215 -1.87722 0
M  V30 14742 H 1398.47 0.762432 -3.79823 0
M  V30 14743 H 1398.89 -0.990047 -5.15071 0
M  V30 14744 H 1400.36 0.688755 -5.47686 0
M  V30 14745 H 1400.84 1.64172 -4.07362 0
M  V30 14746 H 1401.45 -0.0208373 -4.25295 0
M  V30 14747 N 1399.76 1.54172 -0.326923 0
M  V30 14748 C 1401.18 1.59579 0.0256055 0
M  V30 14749 C 1401.38 1.34337 1.50186 0
M  V30 14750 O 1400.43 1.12945 2.25831 0
M  V30 14751 C 1401.75 2.98086 -0.395641 0
M  V30 14752 C 1403.29 3.11075 -0.346579 0
M  V30 14753 C 1403.77 4.51932 -0.743039 0
M  V30 14754 N 1405.26 4.57932 -0.696575 0
M  V30 14755 C 1405.99 5.65041 -0.975493 0
M  V30 14756 N 1405.49 6.80075 -1.32172 0
M  V30 14757 N 1407.28 5.54835 -0.900831 0
M  V30 14758 H 1399.43 1.68836 -1.28872 0
M  V30 14759 H 1401.7 0.789858 -0.52424 0
M  V30 14760 H 1401.4 3.21568 -1.42431 0
M  V30 14761 H 1401.28 3.76451 0.237645 0
M  V30 14762 H 1403.66 2.87326 0.672889 0
M  V30 14763 H 1403.75 2.34807 -1.01484 0
M  V30 14764 H 1403.39 4.76415 -1.76044 0
M  V30 14765 H 1403.32 5.26574 -0.0524263 0
M  V30 14766 H 1405.81 3.75318 -0.440969 0
M  V30 14767 H 1406.12 7.57708 -1.51983 0
M  V30 14768 H 1404.47 6.81563 -1.36001 0
M  V30 14769 H 1407.66 4.63844 -0.629812 0
M  V30 14770 H 1407.83 6.3822 -1.12156 0
M  V30 14771 N 1401.24 0.0551678 1.57503 0
M  V30 14772 C 1402.48 -0.618636 1.93134 0
M  V30 14773 C 1402.82 -1.70258 0.934125 0
M  V30 14774 O 1402.09 -1.9446 -0.0392699 0
M  V30 14775 C 1402.38 -1.21103 3.39126 0
M  V30 14776 C 1402.23 -0.134865 4.49598 0
M  V30 14777 C 1403.55 -2.12148 3.85592 0
M  V30 14778 H 1400.67 -0.223416 0.702321 0
M  V30 14779 H 1403.31 0.117748 1.89635 0
M  V30 14780 H 1401.46 -1.83862 3.42238 0
M  V30 14781 H 1403.13 0.497292 4.58612 0
M  V30 14782 H 1401.37 0.536587 4.30469 0
M  V30 14783 H 1402.04 -0.589447 5.48844 0
M  V30 14784 H 1404.52 -1.59346 3.8438 0
M  V30 14785 H 1403.4 -2.50539 4.88387 0
M  V30 14786 H 1403.66 -3.02318 3.22578 0
M  V30 14787 N 1402.72 -1.56081 -0.218252 0
M  V30 14788 C 1403.95 -1.83069 -0.957574 0
M  V30 14789 C 1404.35 -0.6325 -1.78315 0
M  V30 14790 O 1403.7 0.408298 -1.79105 0
M  V30 14791 C 1403.76 -3.03835 -1.92157 0
M  V30 14792 C 1403.42 -4.38702 -1.2802 0
M  V30 14793 C 1404.42 -5.15585 -0.66846 0
M  V30 14794 C 1402.11 -4.85427 -1.29098 0
M  V30 14795 C 1404.1 -6.37355 -0.0760499 0
M  V30 14796 C 1401.79 -6.07138 -0.69473 0
M  V30 14797 C 1402.78 -6.82943 -0.0883201 0
M  V30 14798 O 1402.47 -8.02352 0.498648 0
M  V30 14799 H 1402.2 -0.612493 -0.286057 0
M  V30 14800 H 1404.76 -2.04021 -0.23759 0
M  V30 14801 H 1402.99 -2.78709 -2.68064 0
M  V30 14802 H 1404.68 -3.17666 -2.52672 0
M  V30 14803 H 1405.44 -4.80592 -0.652434 0
M  V30 14804 H 1401.32 -4.26395 -1.75238 0
M  V30 14805 H 1404.87 -6.96464 0.397893 0
M  V30 14806 H 1400.76 -6.41604 -0.70818 0
M  V30 14807 H 1401.53 -8.17555 0.393289 0
M  V30 14808 N 1404.2 0.485086 -1.49949 0
M  V30 14809 C 1405.61 0.817651 -1.37064 0
M  V30 14810 C 1405.81 1.9716 -0.415949 0
M  V30 14811 O 1404.87 2.52074 0.146567 0
M  V30 14812 C 1406.18 1.14288 -2.78134 0
M  V30 14813 C 1407.73 1.25016 -2.8695 0
M  V30 14814 C 1408.2 1.60859 -4.28822 0
M  V30 14815 N 1409.69 1.67878 -4.31707 0
M  V30 14816 C 1410.43 1.97089 -5.38464 0
M  V30 14817 N 1409.93 2.24415 -6.55446 0
M  V30 14818 N 1411.72 1.98474 -5.25894 0
M  V30 14819 H 1403.87 -0.275606 -2.10604 0
M  V30 14820 H 1406.13 -0.0607486 -0.946052 0
M  V30 14821 H 1405.84 0.36817 -3.49768 0
M  V30 14822 H 1405.71 2.0825 -3.14502 0
M  V30 14823 H 1408.1 2.01556 -2.15544 0
M  V30 14824 H 1408.18 0.290664 -2.54143 0
M  V30 14825 H 1407.82 0.848639 -5.0076 0
M  V30 14826 H 1407.75 2.57936 -4.59104 0
M  V30 14827 H 1410.25 1.48856 -3.47347 0
M  V30 14828 H 1410.56 2.45938 -7.32622 0
M  V30 14829 H 1408.9 2.21837 -6.58645 0
M  V30 14830 H 1412.09 1.76612 -4.33504 0
M  V30 14831 H 1412.27 2.20904 -6.09184 0
M  V30 14832 N 1405.67 1.39291 0.737279 0
M  V30 14833 C 1406.95 1.26901 1.48847 0
M  V30 14834 C 1407.33 -0.122417 2.10745 0
M  V30 14835 O 1406.68 -1.13343 1.98408 0
M  V30 14836 C 1406.89 2.3916 2.54172 0
M  V30 14837 C 1408.24 2.78368 3.20619 0
M  V30 14838 O 1409.26 2.38593 2.64484 0
M  V30 14839 O 1408.12 3.47014 4.22189 0
M  V30 14840 H 1405.21 0.497176 0.660867 0
M  V30 14841 H 1407.76 1.51159 0.771299 0
M  V30 14842 H 1406.53 3.3219 2.06797 0
M  V30 14843 H 1406.15 2.16555 3.33451 0
M  V30 14844 N 1407.15 -0.967221 1.24429 0
M  V30 14845 C 1408.38 -1.7452 1.11133 0
M  V30 14846 C 1408.79 -1.85785 -0.336087 0
M  V30 14847 O 1408.15 -1.34652 -1.23188 0
M  V30 14848 C 1408.2 -3.16544 1.74591 0
M  V30 14849 O 1407.92 -3.05845 3.13673 0
M  V30 14850 C 1409.42 -4.10677 1.6691 0
M  V30 14851 H 1406.64 -0.547267 0.388253 0
M  V30 14852 H 1409.19 -1.2143 1.64545 0
M  V30 14853 H 1407.34 -3.66618 1.2518 0
M  V30 14854 H 1407.76 -3.95346 3.44676 0
M  V30 14855 H 1409.23 -5.07987 2.15992 0
M  V30 14856 H 1409.71 -4.34652 0.630411 0
M  V30 14857 H 1410.31 -3.66514 2.15749 0
M  V30 14858 N 1408.63 -1.05812 -1.16797 0
M  V30 14859 C 1409.59 -0.668766 -2.19226 0
M  V30 14860 C 1410.59 0.28299 -1.5829 0
M  V30 14861 O 1411.78 0.0660233 -1.74075 0
M  V30 14862 C 1408.91 0.0167379 -3.40896 0
M  V30 14863 H 1410.11 -1.57543 -2.55187 0
M  V30 14864 H 1407.66 -0.852753 -1.30988 0
M  V30 14865 H 1408.4 0.936382 -3.10487 0
M  V30 14866 H 1408.18 -0.667576 -3.86375 0
M  V30 14867 H 1409.67 0.275041 -4.16693 0
M  V30 14868 N 1410.11 1.33347 -0.840014 0
M  V30 14869 C 1411.02 2.32965 -0.276527 0
M  V30 14870 C 1412.03 1.634 0.598037 0
M  V30 14871 O 1413.21 1.95046 0.501888 0
M  V30 14872 C 1410.27 3.42498 0.53816 0
M  V30 14873 C 1409.34 4.27781 -0.360814 0
M  V30 14874 C 1408.57 5.32083 0.415085 0
M  V30 14875 O 1408.79 5.46115 1.64666 0
M  V30 14876 O 1407.73 6.01528 -0.211503 0
M  V30 14877 H 1411.55 2.83022 -1.10147 0
M  V30 14878 H 1409.14 1.3671 -0.602566 0
M  V30 14879 H 1411.02 4.09336 1.00108 0
M  V30 14880 H 1409.69 2.94655 1.34015 0
M  V30 14881 H 1408.6 3.63805 -0.871598 0
M  V30 14882 H 1409.93 4.7911 -1.1276 0
M  V30 14883 N 1411.59 0.596556 1.45873 0
M  V30 14884 C 1413 0.173758 1.8589 0
M  V30 14885 C 1413.35 -1.26665 1.49835 0
M  V30 14886 O 1412.47 -1.9588 0.919773 0
M  V30 14887 C 1413.07 0.308567 3.37392 0
M  V30 14888 C 1411.63 -0.0594585 3.76353 0
M  V30 14889 C 1410.77 0.638127 2.69858 0
M  V30 14890 H 1413.72 0.803928 1.36831 0
M  V30 14891 H 1413.75 -0.462294 3.77681 0
M  V30 14892 H 1413.26 1.35701 3.63603 0
M  V30 14893 H 1411.36 -1.1075 3.5576 0
M  V30 14894 H 1411.47 0.326506 4.77986 0
M  V30 14895 H 1409.84 0.0769147 2.54584 0
M  V30 14896 H 1410.62 1.68849 2.98906 0
M  V30 14897 N 1413.06 -1.53996 0.335095 0
M  V30 14898 C 1414.01 -2.26221 -0.541007 0
M  V30 14899 C 1415.01 -1.28053 -1.109 0
M  V30 14900 O 1416.21 -1.4579 -1.05571 0
M  V30 14901 H 1412.59 -0.726775 -0.193136 0
M  V30 14902 H 1414.56 -2.98263 0.0902792 0
M  V30 14903 C 1413.31 -3.04173 -1.68445 0
M  V30 14904 H 1412.63 -3.79537 -1.25665 0
M  V30 14905 H 1414.07 -3.57937 -2.27282 0
M  V30 14906 C 1412.53 -2.13162 -2.6089 0
M  V30 14907 O 1413.06 -1.7221 -3.62914 0
M  V30 14908 N 1411.26 -1.78414 -2.29384 0
M  V30 14909 H 1410.81 -2.11914 -1.46458 0
M  V30 14910 H 1410.77 -1.178 -2.91497 0
M  V30 14911 N 1414.54 -0.0635198 -1.57472 0
M  V30 14912 C 1415.79 0.602418 -1.94274 0
M  V30 14913 C 1416.14 1.67717 -0.942797 0
M  V30 14914 O 1415.44 1.91566 0.0361878 0
M  V30 14915 C 1415.63 1.23117 -3.35525 0
M  V30 14916 C 1415.46 0.218848 -4.49167 0
M  V30 14917 C 1414.23 -0.19356 -5.04929 0
M  V30 14918 C 1416.43 -0.540636 -5.1145 0
M  V30 14919 N 1414.41 -1.19745 -6.02108 0
M  V30 14920 C 1415.78 -1.39725 -6.0405 0
M  V30 14921 C 1417.83 -0.597606 -4.94301 0
M  V30 14922 C 1416.54 -2.30575 -6.81342 0
M  V30 14923 C 1418.56 -1.49358 -5.72229 0
M  V30 14924 C 1417.93 -2.33789 -6.64471 0
M  V30 14925 H 1414.02 0.191715 -0.758135 0
M  V30 14926 H 1416.61 -0.138733 -1.94205 0
M  V30 14927 H 1414.78 1.94229 -3.36348 0
M  V30 14928 H 1416.51 1.85691 -3.59584 0
M  V30 14929 H 1413.27 0.187897 -4.73227 0
M  V30 14930 H 1413.69 -1.69666 -6.55395 0
M  V30 14931 H 1418.33 0.0409459 -4.2278 0
M  V30 14932 H 1416.05 -2.9547 -7.52146 0
M  V30 14933 H 1419.64 -1.5424 -5.60983 0
M  V30 14934 H 1418.52 -3.01995 -7.23719 0
M  V30 14935 N 1416.02 1.56195 0.209972 0
M  V30 14936 C 1416.97 1.94226 1.27981 0
M  V30 14937 C 1417.96 0.825742 1.47912 0
M  V30 14938 O 1419.17 1.01066 1.48949 0
M  V30 14939 H 1415.54 0.617395 0.429333 0
M  V30 14940 H 1417.51 2.83474 0.931946 0
M  V30 14941 C 1416.26 2.28527 2.62051 0
M  V30 14942 H 1415.59 3.1396 2.47526 0
M  V30 14943 H 1417.03 2.59012 3.35692 0
M  V30 14944 C 1415.48 1.11452 3.17931 0
M  V30 14945 O 1416.01 0.381713 3.99882 0
M  V30 14946 N 1414.22 0.895263 2.76466 0
M  V30 14947 H 1413.77 1.4929 2.09929 0
M  V30 14948 H 1413.73 0.113688 3.14194 0
M  V30 14949 N 1417.5 -0.477127 1.50204 0
M  V30 14950 C 1418.41 -1.60182 1.71403 0
M  V30 14951 C 1419.42 -1.63437 0.597009 0
M  V30 14952 O 1420.6 -1.81418 0.874614 0
M  V30 14953 C 1417.66 -2.96432 1.79802 0
M  V30 14954 C 1416.73 -3.03614 3.03508 0
M  V30 14955 C 1415.96 -4.33365 3.11497 0
M  V30 14956 O 1416.18 -5.23529 2.26438 0
M  V30 14957 O 1415.12 -4.46013 4.04173 0
M  V30 14958 H 1418.94 -1.45221 2.66729 0
M  V30 14959 H 1416.53 -0.655982 1.34228 0
M  V30 14960 H 1418.41 -3.77367 1.87542 0
M  V30 14961 H 1417.08 -3.11605 0.876581 0
M  V30 14962 H 1415.99 -2.21779 3.01272 0
M  V30 14963 H 1417.32 -2.93376 3.95211 0
M  V30 14964 N 1418.98 -1.3968 -0.729882 0
M  V30 14965 C 1419.89 -1.41094 -1.87429 0
M  V30 14966 C 1420.9 -0.305142 -1.71303 0
M  V30 14967 O 1422.08 -0.54744 -1.93817 0
M  V30 14968 C 1419.14 -1.25786 -3.23077 0
M  V30 14969 C 1418.2 -2.46382 -3.5156 0
M  V30 14970 C 1417.44 -2.31795 -4.80735 0
M  V30 14971 O 1417.66 -1.32415 -5.54818 0
M  V30 14972 O 1416.59 -3.20883 -5.09232 0
M  V30 14973 H 1420.42 -2.37571 -1.89192 0
M  V30 14974 H 1418.01 -1.2085 -0.878389 0
M  V30 14975 H 1419.89 -1.19402 -4.0413 0
M  V30 14976 H 1418.56 -0.324065 -3.22074 0
M  V30 14977 H 1417.47 -2.58343 -2.70573 0
M  V30 14978 H 1418.8 -3.38473 -3.57347 0
M  V30 14979 N 1420.45 0.960609 -1.2494 0
M  V30 14980 C 1421.7 1.70448 -1.09333 0
M  V30 14981 C 1422.03 1.91012 0.366687 0
M  V30 14982 O 1421.28 1.4743 1.28697 0
M  V30 14983 C 1421.58 3.09564 -1.78619 0
M  V30 14984 C 1421.25 3.08819 -3.28545 0
M  V30 14985 C 1419.91 3.08323 -3.69446 0
M  V30 14986 C 1422.26 3.02606 -4.24357 0
M  V30 14987 C 1419.59 2.99356 -5.04582 0
M  V30 14988 C 1421.94 2.9518 -5.5951 0
M  V30 14989 C 1420.61 2.93017 -5.99748 0
M  V30 14990 H 1419.88 0.623714 -0.400078 0
M  V30 14991 H 1422.52 1.12273 -1.55136 0
M  V30 14992 H 1420.83 3.71247 -1.2523 0
M  V30 14993 H 1422.53 3.6593 -1.64001 0
M  V30 14994 H 1419.12 3.09974 -2.95997 0
M  V30 14995 H 1423.3 3.02113 -3.93753 0
M  V30 14996 H 1418.56 2.96046 -5.34946 0
M  V30 14997 H 1422.73 2.89333 -6.3345 0
M  V30 14998 H 1420.36 2.85824 -7.04421 0
M  V30 14999 N 1421.93 1.0643 1.16234 0
M  V30 15000 C 1422.84 0.687446 2.24302 0
M  V30 15001 C 1423.86 -0.297132 1.71444 0
M  V30 15002 O 1425.03 -0.146101 2.00869 0
M  V30 15003 C 1422.1 0.0810973 3.46605 0
M  V30 15004 C 1421.16 1.11772 4.14494 0
M  V30 15005 C 1420.39 0.54021 5.30959 0
M  V30 15006 O 1420.62 -0.646619 5.66723 0
M  V30 15007 O 1419.55 1.28057 5.8812 0
M  V30 15008 H 1423.38 1.58842 2.58849 0
M  V30 15009 H 1420.96 0.836649 1.23776 0
M  V30 15010 H 1422.84 -0.25524 4.20626 0
M  V30 15011 H 1421.52 -0.793338 3.13828 0
M  V30 15012 H 1420.43 1.50626 3.42436 0
M  V30 15013 H 1421.76 1.96373 4.5133 0
M  V30 15014 N 1423.41 -1.329 0.847073 0
M  V30 15015 C 1424.66 -1.96774 0.443022 0
M  V30 15016 C 1424.97 -1.67813 -1.0049 0
M  V30 15017 O 1426.18 -2.25366 -1.51402 0
M  V30 15018 C 1424.63 -3.52184 0.741268 0
M  V30 15019 C 1424.24 -3.90013 2.20441 0
M  V30 15020 C 1425.99 -4.22568 0.404569 0
M  V30 15021 C 1423.89 -5.38434 2.44627 0
M  V30 15022 H 1422.82 -0.736406 0.161932 0
M  V30 15023 H 1425.47 -1.51402 1.0368 0
M  V30 15024 H 1423.86 -3.95925 0.0770158 0
M  V30 15025 H 1425.03 -3.57304 2.90982 0
M  V30 15026 H 1423.35 -3.32633 2.50489 0
M  V30 15027 H 1425.94 -5.3173 0.562795 0
M  V30 15028 H 1426.29 -4.11144 -0.653172 0
M  V30 15029 H 1426.82 -3.84384 1.0244 0
M  V30 15030 H 1423.56 -5.5487 3.48997 0
M  V30 15031 H 1423.08 -5.72575 1.78656 0
M  V30 15032 H 1424.76 -6.05423 2.28194 0
M  V30 15033 N 1424.89 -0.604284 -1.45555 0
M  V30 15034 C 1425.8 0.118409 -2.34301 0
M  V30 15035 C 1426.81 0.863807 -1.51044 0
M  V30 15036 O 1427.99 0.822138 -1.83856 0
M  V30 15037 C 1425.06 1.10538 -3.28606 0
M  V30 15038 C 1424.12 0.362301 -4.27768 0
M  V30 15039 C 1423.35 1.30226 -5.17568 0
M  V30 15040 O 1423.57 2.53991 -5.10729 0
M  V30 15041 O 1422.51 0.801116 -5.96545 0
M  V30 15042 H 1426.33 -0.610816 -2.97494 0
M  V30 15043 H 1423.92 -0.364562 -1.44884 0
M  V30 15044 H 1425.8 1.67392 -3.86727 0
M  V30 15045 H 1424.47 1.81569 -2.67982 0
M  V30 15046 H 1423.38 -0.248616 -3.73273 0
M  V30 15047 H 1424.71 -0.307454 -4.91239 0
M  V30 15048 N 1426.37 1.53816 -0.343257 0
M  V30 15049 C 1427.3 2.27951 0.506005 0
M  V30 15050 C 1428.28 1.29502 1.10287 0
M  V30 15051 O 1429.46 1.58344 1.12432 0
M  V30 15052 C 1426.59 3.0521 1.65723 0
M  V30 15053 C 1425.55 4.11161 1.18871 0
M  V30 15054 C 1424.87 4.76373 2.42843 0
M  V30 15055 C 1426.17 5.21498 0.289403 0
M  V30 15056 H 1427.87 2.99189 -0.112435 0
M  V30 15057 H 1425.41 1.43893 -0.055516 0
M  V30 15058 H 1427.37 3.55811 2.2578 0
M  V30 15059 H 1426.09 2.31624 2.30256 0
M  V30 15060 H 1424.75 3.61473 0.610962 0
M  V30 15061 H 1424.4 3.99381 3.05784 0
M  V30 15062 H 1424.1 5.47955 2.12177 0
M  V30 15063 H 1425.62 5.29758 3.03627 0
M  V30 15064 H 1427.03 5.67736 0.796808 0
M  V30 15065 H 1425.43 6.00054 0.0746366 0
M  V30 15066 H 1426.5 4.80185 -0.674543 0
M  V30 15067 N 1427.84 0.0718701 1.57436 0
M  V30 15068 C 1428.75 -0.910077 2.16229 0
M  V30 15069 C 1429.77 -1.32699 1.12548 0
M  V30 15070 O 1430.95 -1.39967 1.44814 0
M  V30 15071 C 1428.01 -2.15942 2.71238 0
M  V30 15072 C 1427.07 -1.79891 3.89792 0
M  V30 15073 C 1426.31 -2.9887 4.42168 0
M  V30 15074 O 1426.53 -4.1289 3.93545 0
M  V30 15075 O 1425.46 -2.78682 5.33498 0
M  V30 15076 H 1429.29 -0.439969 3.00496 0
M  V30 15077 H 1426.87 -0.151204 1.48633 0
M  V30 15078 H 1428.76 -2.89204 3.06494 0
M  V30 15079 H 1427.43 -2.62051 1.90029 0
M  V30 15080 H 1426.34 -1.03881 3.59388 0
M  V30 15081 H 1427.67 -1.38566 4.72293 0
M  V30 15082 N 1429.32 -1.56304 -0.201686 0
M  V30 15083 C 1430.57 -1.79881 -0.921269 0
M  V30 15084 C 1430.89 -0.643809 -1.84065 0
M  V30 15085 O 1430.16 0.338239 -1.92958 0
M  V30 15086 H 1428.74 -0.663506 -0.343175 0
M  V30 15087 H 1431.4 -1.93779 -0.208775 0
M  V30 15088 H 1430.5 -2.7279 -1.51631 0
M  V30 15089 N 1430.8 0.469154 -1.50455 0
M  V30 15090 C 1432.03 1.24899 -1.65575 0
M  V30 15091 C 1432.45 1.85009 -0.339581 0
M  V30 15092 O 1431.81 1.67376 0.696774 0
M  V30 15093 C 1431.86 2.33205 -2.75041 0
M  V30 15094 O 1430.96 3.37898 -2.36429 0
M  V30 15095 H 1430.3 0.367362 -0.553119 0
M  V30 15096 H 1432.83 0.558083 -1.96842 0
M  V30 15097 H 1432.84 2.78487 -2.98176 0
M  V30 15098 H 1431.52 1.88826 -3.70564 0
M  V30 15099 H 1430.09 2.98314 -2.23748 0
M  V30 15100 N 1432.28 1.40065 0.722464 0
M  V30 15101 C 1433.21 1.35695 1.84715 0
M  V30 15102 C 1434.22 0.263522 1.60653 0
M  V30 15103 O 1435.41 0.523382 1.70655 0
M  V30 15104 C 1432.51 1.08722 3.20987 0
M  V30 15105 C 1431.69 2.29586 3.72302 0
M  V30 15106 C 1430.74 1.98879 4.87169 0
M  V30 15107 O 1429.77 2.71681 5.00178 0
M  V30 15108 N 1430.97 0.962554 5.72464 0
M  V30 15109 H 1433.74 2.32621 1.88964 0
M  V30 15110 H 1431.3 1.3433 0.903723 0
M  V30 15111 H 1433.29 0.861772 3.95418 0
M  V30 15112 H 1431.86 0.204869 3.11928 0
M  V30 15113 H 1431.08 2.68004 2.8908 0
M  V30 15114 H 1432.37 3.10176 4.03322 0
M  V30 15115 H 1431.77 0.359452 5.64557 0
M  V30 15116 H 1430.32 0.797003 6.46909 0
M  V30 15117 N 1433.76 -0.95397 1.25448 0
M  V30 15118 C 1434.99 -1.73331 1.12977 0
M  V30 15119 C 1435.4 -1.86131 -0.316364 0
M  V30 15120 O 1434.76 -1.35951 -1.21753 0
M  V30 15121 C 1434.81 -3.14675 1.77938 0
M  V30 15122 O 1434.53 -3.025 3.16899 0
M  V30 15123 C 1436.03 -4.08884 1.71256 0
M  V30 15124 H 1433.25 -0.543118 0.394036 0
M  V30 15125 H 1435.79 -1.19678 1.65823 0
M  V30 15126 H 1433.95 -3.6527 1.29062 0
M  V30 15127 H 1434.36 -3.91668 3.4885 0
M  V30 15128 H 1435.84 -5.05668 2.21368 0
M  V30 15129 H 1436.31 -4.33959 0.676476 0
M  V30 15130 H 1436.92 -3.64205 2.19624 0
M  V30 15131 N 1435.24 -1.07045 -1.15668 0
M  V30 15132 C 1436.17 -0.709413 -2.22463 0
M  V30 15133 C 1437.15 0.30169 -1.67403 0
M  V30 15134 O 1438.33 0.175131 -1.93409 0
M  V30 15135 C 1435.46 -0.103121 -3.47147 0
M  V30 15136 C 1434.42 -1.04103 -4.15146 0
M  V30 15137 C 1433.74 -0.297656 -5.33871 0
M  V30 15138 C 1435.04 -2.37332 -4.65264 0
M  V30 15139 H 1436.74 -1.60227 -2.52918 0
M  V30 15140 H 1434.28 -0.771846 -1.21567 0
M  V30 15141 H 1436.23 0.161371 -4.21091 0
M  V30 15142 H 1434.96 0.824792 -3.16014 0
M  V30 15143 H 1433.62 -1.2904 -3.43139 0
M  V30 15144 H 1433.27 0.633618 -4.98993 0
M  V30 15145 H 1432.97 -0.922789 -5.80309 0
M  V30 15146 H 1434.49 -0.0408892 -6.10586 0
M  V30 15147 H 1435.9 -2.1674 -5.30751 0
M  V30 15148 H 1434.3 -2.95412 -5.22352 0
M  V30 15149 H 1435.37 -2.99859 -3.81068 0
M  V30 15150 N 1436.71 1.32449 -0.85411 0
M  V30 15151 C 1438.13 1.50046 -0.543895 0
M  V30 15152 C 1438.33 1.78985 0.925561 0
M  V30 15153 O 1437.39 1.85909 1.70862 0
M  V30 15154 C 1438.7 2.64499 -1.43041 0
M  V30 15155 C 1440.25 2.78384 -1.43078 0
M  V30 15156 C 1440.72 3.95915 -2.3025 0
M  V30 15157 N 1442.21 4.03176 -2.28043 0
M  V30 15158 C 1442.95 4.9335 -2.92221 0
M  V30 15159 N 1442.44 5.88536 -3.6551 0
M  V30 15160 N 1444.24 4.86468 -2.81612 0
M  V30 15161 H 1436.39 1.11931 -1.80514 0
M  V30 15162 H 1438.65 0.551626 -0.770982 0
M  V30 15163 H 1438.36 2.49842 -2.47532 0
M  V30 15164 H 1438.23 3.60269 -1.11742 0
M  V30 15165 H 1440.62 2.92464 -0.393529 0
M  V30 15166 H 1440.7 1.83329 -1.78393 0
M  V30 15167 H 1440.34 3.82594 -3.34043 0
M  V30 15168 H 1440.27 4.90245 -1.92268 0
M  V30 15169 H 1442.76 3.35064 -1.74759 0
M  V30 15170 H 1443.08 6.54038 -4.11648 0
M  V30 15171 H 1441.42 5.88564 -3.69618 0
M  V30 15172 H 1444.61 4.11076 -2.23907 0
M  V30 15173 H 1444.79 5.56542 -3.3191 0
M  V30 15174 N 1438.19 0.611994 1.45232 0
M  V30 15175 C 1439.44 0.106467 2.01419 0
M  V30 15176 C 1439.75 -1.2723 1.48566 0
M  V30 15177 O 1440.96 -1.8708 1.96757 0
M  V30 15178 C 1439.42 0.139639 3.59629 0
M  V30 15179 C 1439.02 1.51853 4.21479 0
M  V30 15180 C 1440.77 -0.310417 4.23364 0
M  V30 15181 C 1438.67 1.50785 5.71855 0
M  V30 15182 H 1437.6 0.0360345 0.753138 0
M  V30 15183 H 1440.26 0.767974 1.66657 0
M  V30 15184 H 1438.64 -0.588606 3.91601 0
M  V30 15185 H 1439.81 2.26884 4.01074 0
M  V30 15186 H 1438.13 1.91105 3.69956 0
M  V30 15187 H 1440.72 -0.337656 5.33633 0
M  V30 15188 H 1441.07 -1.33398 3.94348 0
M  V30 15189 H 1441.6 0.364704 3.96125 0
M  V30 15190 H 1438.34 2.50916 6.05575 0
M  V30 15191 H 1437.86 0.800195 5.94438 0
M  V30 15192 H 1439.54 1.23341 6.35135 0
M  V30 15193 N 1439.67 -1.53632 0.351409 0
M  V30 15194 C 1440.6 -2.28217 -0.49391 0
M  V30 15195 C 1441.58 -1.30085 -1.09599 0
M  V30 15196 O 1442.77 -1.58938 -1.1159 0
M  V30 15197 C 1439.9 -3.06085 -1.64102 0
M  V30 15198 C 1438.85 -4.11786 -1.16689 0
M  V30 15199 C 1438.18 -4.77654 -2.40314 0
M  V30 15200 C 1439.48 -5.21644 -0.261742 0
M  V30 15201 H 1441.17 -2.99125 0.1283 0
M  V30 15202 H 1438.72 -1.43861 0.0631462 0
M  V30 15203 H 1440.67 -3.57003 -2.2389 0
M  V30 15204 H 1439.39 -2.32842 -2.29025 0
M  V30 15205 H 1438.05 -3.61792 -0.591784 0
M  V30 15206 H 1437.7 -4.00997 -3.03661 0
M  V30 15207 H 1437.4 -5.49072 -2.09268 0
M  V30 15208 H 1438.92 -5.3136 -3.00813 0
M  V30 15209 H 1440.34 -5.6815 -0.766689 0
M  V30 15210 H 1438.73 -6.00085 -0.0428132 0
M  V30 15211 H 1439.8 -4.79821 0.699999 0
M  V30 15212 N 1441.15 -0.0802183 -1.57396 0
M  V30 15213 C 1442.39 0.590512 -1.95684 0
M  V30 15214 C 1442.75 1.66265 -0.960199 0
M  V30 15215 O 1443.95 2.38954 -1.23104 0
M  V30 15216 C 1442.22 1.14486 -3.38567 0
M  V30 15217 S 1443.78 1.82954 -3.9884 0
M  V30 15218 H 1440.6 0.193123 -0.684269 0
M  V30 15219 H 1443.2 -0.156081 -1.94876 0
M  V30 15220 H 1441.91 0.352828 -4.08881 0
M  V30 15221 H 1441.44 1.92762 -3.42938 0
M  V30 15222 H 1443.45 3.11265 -3.86431 0
M  V30 15223 N 1442.63 1.56409 0.193394 0
M  V30 15224 C 1443.86 1.84569 0.928328 0
M  V30 15225 C 1444.26 0.660788 1.77286 0
M  V30 15226 O 1443.61 -0.379752 1.79732 0
M  V30 15227 C 1443.67 3.06854 1.87299 0
M  V30 15228 C 1443.33 4.40684 1.21025 0
M  V30 15229 C 1444.33 5.16583 0.58635 0
M  V30 15230 C 1442.01 4.87419 1.21359 0
M  V30 15231 C 1444.01 6.37395 -0.0253573 0
M  V30 15232 C 1441.7 6.08167 0.598052 0
M  V30 15233 C 1442.69 6.82997 -0.0203414 0
M  V30 15234 O 1442.38 8.01457 -0.626232 0
M  V30 15235 H 1442.11 0.616966 0.276277 0
M  V30 15236 H 1444.67 2.04373 0.205102 0
M  V30 15237 H 1442.9 2.82938 2.63596 0
M  V30 15238 H 1444.59 3.21645 2.47587 0
M  V30 15239 H 1445.35 4.81569 0.575894 0
M  V30 15240 H 1441.23 4.29129 1.68432 0
M  V30 15241 H 1444.78 6.95743 -0.508644 0
M  V30 15242 H 1440.67 6.42649 0.606017 0
M  V30 15243 H 1441.44 8.16825 -0.523305 0
M  V30 15244 N 1444.1 -0.461169 1.50702 0
M  V30 15245 C 1445.01 -1.58355 1.73092 0
M  V30 15246 C 1446.03 -1.62795 0.61431 0
M  V30 15247 O 1447.21 -1.8048 0.893806 0
M  V30 15248 C 1444.27 -2.94509 1.82936 0
M  V30 15249 C 1443.33 -3.00378 3.06711 0
M  V30 15250 C 1442.56 -4.30037 3.16076 0
M  V30 15251 O 1442.79 -5.21097 2.31978 0
M  V30 15252 O 1441.72 -4.41702 4.08881 0
M  V30 15253 H 1445.55 -1.42384 2.68255 0
M  V30 15254 H 1443.13 -0.641709 1.34916 0
M  V30 15255 H 1445.01 -3.75357 1.91534 0
M  V30 15256 H 1443.69 -3.10658 0.909581 0
M  V30 15257 H 1442.6 -2.18571 3.03608 0
M  V30 15258 H 1443.93 -2.89167 3.983 0
M  V30 15259 N 1445.58 -1.40446 -0.715026 0
M  V30 15260 C 1446.53 -1.40756 -1.82911 0
M  V30 15261 C 1447.5 -0.264443 -1.63981 0
M  V30 15262 O 1448.68 -0.462589 -1.85107 0
M  V30 15263 C 1445.82 -1.27648 -3.20624 0
M  V30 15264 C 1444.94 -2.5167 -3.51121 0
M  V30 15265 C 1444.07 -2.31 -4.78344 0
M  V30 15266 C 1443.11 -3.50596 -5.01746 0
M  V30 15267 N 1442.25 -3.29117 -6.20183 0
M  V30 15268 H 1447.09 -2.35981 -1.8198 0
M  V30 15269 H 1444.62 -1.17201 -0.888951 0
M  V30 15270 H 1446.58 -1.18054 -4.00149 0
M  V30 15271 H 1445.21 -0.360419 -3.20782 0
M  V30 15272 H 1444.26 -2.7179 -2.66147 0
M  V30 15273 H 1445.58 -3.4069 -3.64324 0
M  V30 15274 H 1444.73 -2.18763 -5.65887 0
M  V30 15275 H 1443.47 -1.39406 -4.67351 0
M  V30 15276 H 1442.47 -3.63309 -4.12658 0
M  V30 15277 H 1443.7 -4.43117 -5.14611 0
M  V30 15278 H 1441.65 -2.40206 -6.1044 0
M  V30 15279 H 1441.56 -4.11702 -6.34064 0
M  V30 15280 H 1442.83 -3.20614 -7.10512 0
M  V30 15281 N 1447.06 0.947303 -1.25952 0
M  V30 15282 C 1448.3 1.70755 -1.12348 0
M  V30 15283 C 1448.66 1.89165 0.328721 0
M  V30 15284 O 1449.86 2.62318 0.586749 0
M  V30 15285 C 1448.14 3.04889 -1.86486 0
M  V30 15286 S 1449.69 3.96076 -1.88863 0
M  V30 15287 H 1446.51 0.586836 -0.401428 0
M  V30 15288 H 1449.11 1.12932 -1.59583 0
M  V30 15289 H 1447.82 2.89166 -2.91224 0
M  V30 15290 H 1447.35 3.67772 -1.39668 0
M  V30 15291 H 1449.36 4.86608 -0.970929 0
M  V30 15292 N 1448.54 1.07657 1.15099 0
M  V30 15293 C 1449.77 0.821631 1.89559 0
M  V30 15294 C 1450.18 -0.629174 1.78432 0
M  V30 15295 O 1449.52 -1.44353 1.13613 0
M  V30 15296 C 1449.58 1.15473 3.4045 0
M  V30 15297 C 1449.25 2.60675 3.75363 0
M  V30 15298 C 1450.24 3.58923 3.76125 0
M  V30 15299 C 1447.93 2.96333 4.05576 0
M  V30 15300 C 1449.92 4.90863 4.06611 0
M  V30 15301 C 1447.61 4.28469 4.35727 0
M  V30 15302 C 1448.61 5.25543 4.36226 0
M  V30 15303 O 1448.29 6.55305 4.65651 0
M  V30 15304 H 1448.03 0.296469 0.607521 0
M  V30 15305 H 1450.58 1.43722 1.46742 0
M  V30 15306 H 1448.81 0.482117 3.83683 0
M  V30 15307 H 1450.5 0.881832 3.96205 0
M  V30 15308 H 1451.27 3.32718 3.52879 0
M  V30 15309 H 1447.14 2.2142 4.04344 0
M  V30 15310 H 1450.69 5.66626 4.06916 0
M  V30 15311 H 1446.59 4.54425 4.58441 0
M  V30 15312 H 1447.35 6.60503 4.83402 0
M  V30 15313 N 1450.02 -1.31994 0.861122 0
M  V30 15314 C 1450.96 -2.30666 0.299352 0
M  V30 15315 C 1451.96 -1.59133 -0.580779 0
M  V30 15316 O 1453.16 -1.73813 -0.467864 0
M  V30 15317 H 1449.54 -0.747932 0.0781091 0
M  V30 15318 H 1451.51 -2.7553 1.14567 0
M  V30 15319 C 1450.26 -3.44203 -0.491883 0
M  V30 15320 H 1449.58 -3.99412 0.17608 0
M  V30 15321 H 1451.02 -4.15384 -0.850434 0
M  V30 15322 C 1449.48 -2.92042 -1.67967 0
M  V30 15323 O 1450.01 -2.90073 -2.77886 0
M  V30 15324 N 1448.22 -2.48358 -1.50887 0
M  V30 15325 H 1447.76 -2.50159 -0.614683 0
M  V30 15326 H 1447.72 -2.13813 -2.30503 0
M  V30 15327 N 1451.49 -0.619688 -1.44906 0
M  V30 15328 C 1452.44 0.0920359 -2.30616 0
M  V30 15329 C 1453.41 0.848114 -1.42815 0
M  V30 15330 O 1454.6 0.831439 -1.71732 0
M  V30 15331 C 1451.74 1.07537 -3.27917 0
M  V30 15332 C 1450.85 0.318904 -4.30821 0
M  V30 15333 C 1449.98 1.29303 -5.15222 0
M  V30 15334 C 1449.02 0.525071 -6.09844 0
M  V30 15335 N 1448.16 1.44909 -6.86983 0
M  V30 15336 H 1453 -0.644834 -2.9094 0
M  V30 15337 H 1450.54 -0.329785 -1.43356 0
M  V30 15338 H 1452.5 1.65874 -3.82808 0
M  V30 15339 H 1451.13 1.7795 -2.6932 0
M  V30 15340 H 1450.18 -0.380192 -3.78495 0
M  V30 15341 H 1451.49 -0.279742 -4.98015 0
M  V30 15342 H 1450.64 1.94809 -5.74573 0
M  V30 15343 H 1449.38 1.92561 -4.48076 0
M  V30 15344 H 1448.39 -0.14355 -5.49613 0
M  V30 15345 H 1449.61 -0.102625 -6.79022 0
M  V30 15346 H 1447.56 2.06908 -6.22515 0
M  V30 15347 H 1447.48 0.90418 -7.50574 0
M  V30 15348 H 1448.74 2.09335 -7.50866 0
M  V30 15349 N 1452.97 1.53444 -0.359552 0
M  V30 15350 C 1454.2 2.05584 0.232953 0
M  V30 15351 C 1454.62 1.23347 1.42937 0
M  V30 15352 O 1453.97 0.272662 1.80452 0
M  V30 15353 C 1454.02 3.55926 0.632359 0
M  V30 15354 O 1453.74 4.35045 -0.516494 0
M  V30 15355 C 1455.25 4.24301 1.28389 0
M  V30 15356 H 1452.47 0.669676 0.042132 0
M  V30 15357 H 1455.01 1.97878 -0.516176 0
M  V30 15358 H 1453.16 3.63802 1.33141 0
M  V30 15359 H 1453.58 5.24138 -0.194906 0
M  V30 15360 H 1455.05 5.30832 1.51397 0
M  V30 15361 H 1455.53 3.77644 2.24236 0
M  V30 15362 H 1456.14 4.20661 0.626438 0
M  V30 15363 N 1454.45 0.0885642 1.57351 0
M  V30 15364 C 1455.4 -0.872723 2.13664 0
M  V30 15365 C 1456.37 -1.28418 1.05347 0
M  V30 15366 O 1457.55 -1.36709 1.33099 0
M  V30 15367 C 1454.69 -2.12886 2.71613 0
M  V30 15368 C 1453.81 -1.76852 3.94141 0
M  V30 15369 C 1452.94 -2.97203 4.40277 0
M  V30 15370 C 1451.98 -2.57265 5.55411 0
M  V30 15371 N 1451.12 -3.70429 5.96428 0
M  V30 15372 H 1455.96 -0.385644 2.95494 0
M  V30 15373 H 1453.49 -0.178688 1.46011 0
M  V30 15374 H 1455.45 -2.86441 3.03327 0
M  V30 15375 H 1454.08 -2.59105 1.92521 0
M  V30 15376 H 1453.13 -0.932921 3.68783 0
M  V30 15377 H 1454.45 -1.43481 4.77718 0
M  V30 15378 H 1453.6 -3.79019 4.7374 0
M  V30 15379 H 1452.34 -3.3378 3.55587 0
M  V30 15380 H 1451.34 -1.73875 5.21582 0
M  V30 15381 H 1452.57 -2.21839 6.41844 0
M  V30 15382 H 1450.51 -4.06737 5.14686 0
M  V30 15383 H 1450.43 -3.40881 6.74786 0
M  V30 15384 H 1451.7 -4.52774 6.3452 0
M  V30 15385 N 1455.93 -1.56509 -0.185096 0
M  V30 15386 C 1457.18 -1.804 -0.902158 0
M  V30 15387 C 1457.49 -0.663496 -1.84003 0
M  V30 15388 O 1458.7 -0.786963 -2.59844 0
M  V30 15389 C 1457.15 -3.19608 -1.65466 0
M  V30 15390 C 1456.76 -4.41487 -0.761109 0
M  V30 15391 C 1458.5 -3.52801 -2.36076 0
M  V30 15392 C 1456.41 -5.71717 -1.51305 0
M  V30 15393 H 1455.34 -0.67268 -0.340614 0
M  V30 15394 H 1457.99 -1.82842 -0.155273 0
M  V30 15395 H 1456.37 -3.11443 -2.44579 0
M  V30 15396 H 1457.55 -4.60799 -0.00791878 0
M  V30 15397 H 1455.86 -4.16072 -0.165344 0
M  V30 15398 H 1458.46 -4.47339 -2.92902 0
M  V30 15399 H 1458.8 -2.77021 -3.10749 0
M  V30 15400 H 1459.34 -3.62457 -1.63919 0
M  V30 15401 H 1456.08 -6.5049 -0.808907 0
M  V30 15402 H 1455.6 -5.56406 -2.23992 0
M  V30 15403 H 1457.27 -6.13188 -2.0642 0
M  V30 15404 N 1457.41 0.45317 -1.50944 0
M  V30 15405 C 1458.82 1.03354 -1.55482 0
M  V30 15406 C 1459.17 1.92701 -0.368873 0
M  V30 15407 O 1458.29 2.10153 0.516208 0
M  V30 15408 C 1458.89 1.88118 -2.81775 0
M  V30 15409 C 1457.45 2.41232 -2.88936 0
M  V30 15410 C 1456.59 1.20032 -2.49975 0
M  V30 15411 H 1459.55 0.235059 -1.5695 0
M  V30 15412 H 1459.57 2.73394 -2.64643 0
M  V30 15413 H 1459.08 1.23064 -3.68072 0
M  V30 15414 H 1457.18 3.09788 -2.07032 0
M  V30 15415 H 1457.29 2.75113 -3.92237 0
M  V30 15416 H 1455.66 1.54072 -2.02815 0
M  V30 15417 H 1456.44 0.56612 -3.386 0
M  V30 15418 N 1458.88 1.40823 0.707568 0
M  V30 15419 C 1459.83 1.41724 1.82162 0
M  V30 15420 C 1460.8 0.273135 1.63839 0
M  V30 15421 O 1461.99 0.472399 1.84859 0
M  V30 15422 C 1459.13 1.29347 3.19943 0
M  V30 15423 C 1458.24 2.53529 3.49782 0
M  V30 15424 C 1457.37 2.33533 4.77112 0
M  V30 15425 C 1456.41 3.53252 4.9988 0
M  V30 15426 N 1455.55 3.32401 6.18429 0
M  V30 15427 H 1460.39 2.36943 1.80726 0
M  V30 15428 H 1457.93 1.17671 0.882723 0
M  V30 15429 H 1459.89 1.20175 3.99517 0
M  V30 15430 H 1458.52 0.377426 3.20586 0
M  V30 15431 H 1457.57 2.73198 2.64702 0
M  V30 15432 H 1458.88 3.42617 3.62512 0
M  V30 15433 H 1458.03 2.2176 5.64719 0
M  V30 15434 H 1456.77 1.41883 4.66605 0
M  V30 15435 H 1455.78 3.65492 4.10725 0
M  V30 15436 H 1457 4.4584 5.12253 0
M  V30 15437 H 1454.95 2.4344 6.09158 0
M  V30 15438 H 1454.87 4.15059 6.31872 0
M  V30 15439 H 1456.13 3.24377 7.08802 0
M  V30 15440 N 1460.36 -0.94061 1.26453 0
M  V30 15441 C 1461.27 -2.07298 1.09839 0
M  V30 15442 C 1462.29 -1.73971 0.0317477 0
M  V30 15443 O 1463.46 -2.00017 0.235594 0
M  V30 15444 C 1460.53 -3.38847 0.733736 0
M  V30 15445 C 1459.59 -3.85954 1.87985 0
M  V30 15446 C 1458.82 -5.11224 1.5325 0
M  V30 15447 O 1459.05 -5.68743 0.434491 0
M  V30 15448 O 1457.98 -5.53386 2.36743 0
M  V30 15449 H 1461.81 -2.24222 2.04837 0
M  V30 15450 H 1459.39 -1.05763 1.0552 0
M  V30 15451 H 1461.27 -4.17885 0.543131 0
M  V30 15452 H 1459.95 -3.2316 -0.186843 0
M  V30 15453 H 1458.86 -3.07858 2.12542 0
M  V30 15454 H 1460.19 -4.06162 2.78017 0
M  V30 15455 N 1461.84 -1.08266 -1.14527 0
M  V30 15456 C 1463.12 -0.724254 -1.81697 0
M  V30 15457 C 1463.5 0.792212 -1.95671 0
M  V30 15458 O 1462.85 1.71017 -1.51543 0
M  V30 15459 C 1463.06 -1.44949 -3.17475 0
M  V30 15460 C 1464.4 -1.60761 -3.9299 0
M  V30 15461 O 1465.43 -1.41103 -3.2706 0
M  V30 15462 O 1464.29 -1.93184 -5.11216 0
M  V30 15463 H 1461.38 -0.258814 -0.785458 0
M  V30 15464 H 1463.93 -1.18414 -1.21557 0
M  V30 15465 H 1462.7 -2.48262 -3.02459 0
M  V30 15466 H 1462.32 -0.980993 -3.85308 0
M  V30 15467 N 1463.32 1.31536 -0.86811 0
M  V30 15468 C 1464.57 1.96386 -0.477176 0
M  V30 15469 C 1464.89 1.68968 0.973381 0
M  V30 15470 O 1464.16 1.00409 1.68211 0
M  V30 15471 H 1462.74 0.726579 -0.173468 0
M  V30 15472 H 1465.4 1.60377 -1.10749 0
M  V30 15473 H 1464.5 3.05606 -0.633376 0
M  V30 15474 N 1464.8 0.627364 1.44575 0
M  V30 15475 C 1465.71 -0.0811184 2.3446 0
M  V30 15476 C 1466.72 -0.839668 1.52399 0
M  V30 15477 O 1467.9 -0.792784 1.8514 0
M  V30 15478 C 1464.96 -1.05296 3.30323 0
M  V30 15479 C 1464.03 -0.294201 4.28291 0
M  V30 15480 C 1463.26 -1.21975 5.19575 0
M  V30 15481 O 1463.48 -2.45834 5.14706 0
M  V30 15482 O 1462.42 -0.70611 5.97744 0
M  V30 15483 H 1466.24 0.658067 2.96485 0
M  V30 15484 H 1463.83 0.387565 1.44285 0
M  V30 15485 H 1465.71 -1.61218 3.89341 0
M  V30 15486 H 1464.38 -1.77283 2.70837 0
M  V30 15487 H 1463.29 0.307969 3.7283 0
M  V30 15488 H 1464.62 0.385567 4.90687 0
M  V30 15489 N 1466.28 -1.53251 0.367684 0
M  V30 15490 C 1467.5 -2.0618 -0.224645 0
M  V30 15491 C 1467.93 -1.23927 -1.41505 0
M  V30 15492 O 1467.28 -0.258858 -1.79443 0
M  V30 15493 C 1467.33 -3.55671 -0.594171 0
M  V30 15494 O 1466.44 -3.76132 -1.69112 0
M  V30 15495 H 1465.78 -0.663218 -0.0322099 0
M  V30 15496 H 1468.31 -1.97646 0.528897 0
M  V30 15497 H 1468.32 -3.98734 -0.864589 0
M  V30 15498 H 1466.99 -4.14982 0.276254 0
M  V30 15499 H 1465.57 -3.44965 -1.41609 0
M  V30 15500 N 1467.75 -0.0969077 -1.57302 0
M  V30 15501 C 1468.98 0.574705 -1.98758 0
M  V30 15502 C 1469.4 1.61612 -0.976067 0
M  V30 15503 O 1468.75 1.82468 0.0340803 0
M  V30 15504 C 1468.8 1.22078 -3.40263 0
M  V30 15505 O 1468.53 0.221022 -4.37542 0
M  V30 15506 C 1470.03 1.97783 -3.96732 0
M  V30 15507 H 1467.25 0.153934 -0.653104 0
M  V30 15508 H 1469.79 -0.17673 -2.03735 0
M  V30 15509 H 1467.95 1.92314 -3.36295 0
M  V30 15510 H 1468.36 0.687583 -5.19974 0
M  V30 15511 H 1469.83 2.38346 -4.97891 0
M  V30 15512 H 1470.31 2.8444 -3.3465 0
M  V30 15513 H 1470.92 1.3236 -4.04179 0
M  V30 15514 N 1469.23 1.56605 0.176793 0
M  V30 15515 C 1470.51 1.72546 0.921261 0
M  V30 15516 C 1470.89 0.656794 2.00623 0
M  V30 15517 O 1470.24 -0.329303 2.26115 0
M  V30 15518 C 1470.45 3.15548 1.491 0
M  V30 15519 C 1471.79 3.7634 1.96604 0
M  V30 15520 O 1472.82 3.18791 1.58905 0
M  V30 15521 O 1471.68 4.77377 2.66033 0
M  V30 15522 H 1468.77 0.704425 0.43326 0
M  V30 15523 H 1471.32 1.68895 0.165052 0
M  V30 15524 H 1470.09 3.84808 0.709839 0
M  V30 15525 H 1469.71 3.23502 2.31154 0
M  V30 15526 N 1470.71 -0.445159 1.51182 0
M  V30 15527 C 1472.13 -0.781023 1.39184 0
M  V30 15528 C 1472.33 -1.95988 0.468076 0
M  V30 15529 O 1471.38 -2.52374 -0.0796822 0
M  V30 15530 C 1472.69 -1.06874 2.81067 0
M  V30 15531 C 1474.24 -1.17364 2.90163 0
M  V30 15532 C 1474.72 -1.49433 4.32936 0
M  V30 15533 N 1476.21 -1.56373 4.36006 0
M  V30 15534 C 1476.94 -1.82743 5.435 0
M  V30 15535 N 1476.44 -2.06958 6.61166 0
M  V30 15536 N 1478.23 -1.84461 5.30971 0
M  V30 15537 H 1470.38 0.331347 2.098 0
M  V30 15538 H 1472.65 0.0858102 0.944108 0
M  V30 15539 H 1472.35 -0.275306 3.50621 0
M  V30 15540 H 1472.23 -1.99839 3.19913 0
M  V30 15541 H 1474.61 -1.95771 2.20812 0
M  V30 15542 H 1474.69 -0.22318 2.54825 0
M  V30 15543 H 1474.34 -0.715573 5.02834 0
M  V30 15544 H 1474.27 -2.45673 4.65782 0
M  V30 15545 H 1476.76 -1.39595 3.51172 0
M  V30 15546 H 1477.07 -2.26427 7.38885 0
M  V30 15547 H 1475.42 -2.04297 6.64295 0
M  V30 15548 H 1478.61 -1.65057 4.38034 0
M  V30 15549 H 1478.78 -2.04675 6.14827 0
M  V30 15550 N 1472.19 -1.41197 -0.700089 0
M  V30 15551 C 1473.12 -1.45456 -1.8266 0
M  V30 15552 C 1474.1 -0.313719 -1.67182 0
M  V30 15553 O 1475.28 -0.524528 -1.86982 0
M  V30 15554 C 1472.41 -1.33161 -3.20758 0
M  V30 15555 C 1471.37 -2.4501 -3.50933 0
M  V30 15556 C 1470.69 -2.17782 -4.88339 0
M  V30 15557 C 1471.99 -3.87352 -3.50365 0
M  V30 15558 H 1473.69 -2.39735 -1.79353 0
M  V30 15559 H 1471.23 -1.1539 -0.861465 0
M  V30 15560 H 1473.19 -1.34754 -3.99274 0
M  V30 15561 H 1471.91 -0.353646 -3.2468 0
M  V30 15562 H 1470.57 -2.42692 -2.74766 0
M  V30 15563 H 1470.22 -1.1834 -4.88881 0
M  V30 15564 H 1469.92 -2.92728 -5.09494 0
M  V30 15565 H 1471.44 -2.21083 -5.6917 0
M  V30 15566 H 1472.86 -3.9141 -4.18893 0
M  V30 15567 H 1471.25 -4.61944 -3.83051 0
M  V30 15568 H 1472.32 -4.15827 -2.4943 0
M  V30 15569 N 1473.67 0.933891 -1.2695 0
M  V30 15570 C 1474.6 2.03399 -1.03461 0
M  V30 15571 C 1475.58 1.62543 0.0430025 0
M  V30 15572 O 1476.76 1.8823 -0.100894 0
M  V30 15573 C 1473.89 3.339 -0.56818 0
M  V30 15574 C 1472.93 3.93732 -1.63944 0
M  V30 15575 S 1473.77 4.27096 -3.23032 0
M  V30 15576 C 1474.92 5.60686 -2.78176 0
M  V30 15577 H 1475.16 2.23011 -1.96604 0
M  V30 15578 H 1472.69 1.07621 -1.10711 0
M  V30 15579 H 1474.65 4.0936 -0.305745 0
M  V30 15580 H 1473.31 3.12221 0.343096 0
M  V30 15581 H 1472.5 4.87886 -1.26424 0
M  V30 15582 H 1472.1 3.24833 -1.85362 0
M  V30 15583 H 1474.39 6.39715 -2.23093 0
M  V30 15584 H 1475.34 6.03098 -3.7105 0
M  V30 15585 H 1475.75 5.20912 -2.17511 0
M  V30 15586 N 1475.14 1.08871 1.13951 0
M  V30 15587 C 1476.39 0.819665 1.84732 0
M  V30 15588 C 1476.71 -0.656535 1.83615 0
M  V30 15589 O 1475.98 -1.47614 1.28791 0
M  V30 15590 H 1474.56 0.30023 0.684011 0
M  V30 15591 H 1477.22 1.37568 1.38062 0
M  V30 15592 H 1476.32 1.16809 2.89417 0
M  V30 15593 N 1476.62 -1.31073 0.875073 0
M  V30 15594 C 1477.57 -2.28389 0.332718 0
M  V30 15595 C 1478.54 -1.55954 -0.571639 0
M  V30 15596 O 1479.72 -1.84073 -0.502185 0
M  V30 15597 C 1476.86 -3.42083 -0.455364 0
M  V30 15598 C 1475.98 -4.29358 0.477088 0
M  V30 15599 C 1475.11 -5.30201 -0.325619 0
M  V30 15600 C 1474.15 -6.09123 0.602935 0
M  V30 15601 N 1473.29 -7.01909 -0.163836 0
M  V30 15602 H 1478.13 -2.74166 1.16777 0
M  V30 15603 H 1475.66 -1.3487 0.587248 0
M  V30 15604 H 1477.62 -4.06746 -0.928104 0
M  V30 15605 H 1476.25 -2.97402 -1.25507 0
M  V30 15606 H 1475.3 -3.65091 1.06829 0
M  V30 15607 H 1476.62 -4.84425 1.18887 0
M  V30 15608 H 1475.77 -6.00565 -0.860647 0
M  V30 15609 H 1474.51 -4.75802 -1.07067 0
M  V30 15610 H 1473.51 -5.37645 1.14968 0
M  V30 15611 H 1474.74 -6.65609 1.34692 0
M  V30 15612 H 1472.69 -6.49913 -0.891604 0
M  V30 15613 H 1472.6 -7.5442 0.48851 0
M  V30 15614 H 1473.87 -7.76529 -0.679929 0
M  V30 15615 N 1478.1 -0.635022 -1.4424 0
M  V30 15616 C 1479.35 -0.140788 -2.01609 0
M  V30 15617 C 1479.67 1.24317 -1.50234 0
M  V30 15618 O 1478.94 1.82677 -0.707519 0
M  V30 15619 H 1477.52 -0.0490568 -0.745387 0
M  V30 15620 H 1480.18 -0.8226 -1.7669 0
M  V30 15621 H 1479.28 -0.111456 -3.11901 0
M  V30 15622 N 1479.58 1.53054 -0.375806 0
M  V30 15623 C 1480.51 2.23664 0.500685 0
M  V30 15624 C 1481.52 1.25432 1.03782 0
M  V30 15625 O 1482.71 1.51592 0.942451 0
M  V30 15626 C 1479.81 2.9288 1.70513 0
M  V30 15627 C 1478.99 4.17706 1.29772 0
M  V30 15628 C 1478.04 4.7004 2.36536 0
M  V30 15629 O 1477.07 5.33466 1.98502 0
M  V30 15630 N 1478.27 4.48732 3.68266 0
M  V30 15631 H 1481.04 2.99519 -0.104201 0
M  V30 15632 H 1478.6 1.60641 -0.201488 0
M  V30 15633 H 1480.59 3.24795 2.41433 0
M  V30 15634 H 1479.16 2.20416 2.21665 0
M  V30 15635 H 1478.38 3.91978 0.41795 0
M  V30 15636 H 1479.67 4.98837 1.00197 0
M  V30 15637 H 1479.07 3.98075 4.01936 0
M  V30 15638 H 1477.62 4.85172 4.3526 0
M  V30 15639 N 1481.06 0.105248 1.57248 0
M  V30 15640 C 1482.3 -0.556878 1.95004 0
M  V30 15641 C 1482.64 -1.672 0.987818 0
M  V30 15642 O 1481.91 -1.94487 0.022616 0
M  V30 15643 C 1482.19 -1.10252 3.42807 0
M  V30 15644 C 1482.05 0.00823908 4.49799 0
M  V30 15645 C 1483.37 -1.99774 3.92146 0
M  V30 15646 H 1480.48 -0.200959 0.709073 0
M  V30 15647 H 1483.13 0.178019 1.89164 0
M  V30 15648 H 1481.28 -1.7288 3.47915 0
M  V30 15649 H 1482.95 0.642944 4.56797 0
M  V30 15650 H 1481.19 0.673265 4.28544 0
M  V30 15651 H 1481.86 -0.414538 5.50441 0
M  V30 15652 H 1484.34 -1.47036 3.89255 0
M  V30 15653 H 1483.21 -2.34874 4.9611 0
M  V30 15654 H 1483.48 -2.91902 3.32033 0
M  V30 15655 N 1482.53 -1.56697 -0.168486 0
M  V30 15656 C 1483.47 -1.93197 -1.23319 0
M  V30 15657 C 1484.48 -0.825373 -1.40326 0
M  V30 15658 O 1485.67 -1.10381 -1.40279 0
M  V30 15659 C 1482.77 -2.17205 -2.60145 0
M  V30 15660 C 1481.94 -3.48442 -2.64399 0
M  V30 15661 C 1481 -3.61244 -3.82609 0
M  V30 15662 O 1480.03 -4.33837 -3.68476 0
M  V30 15663 N 1481.23 -2.96304 -4.99183 0
M  V30 15664 H 1483.99 -2.85128 -0.923138 0
M  V30 15665 H 1481.55 -1.57887 -0.358229 0
M  V30 15666 H 1483.55 -2.23031 -3.37697 0
M  V30 15667 H 1482.12 -1.31643 -2.83529 0
M  V30 15668 H 1481.34 -3.54248 -1.72922 0
M  V30 15669 H 1482.62 -4.34795 -2.64255 0
M  V30 15670 H 1482.02 -2.37203 -5.13567 0
M  V30 15671 H 1480.58 -3.07722 -5.74587 0
M  V30 15672 N 1484.01 0.437135 -1.51416 0
M  V30 15673 C 1484.94 1.538 -1.75692 0
M  V30 15674 C 1485.92 1.5891 -0.606759 0
M  V30 15675 O 1487.11 1.74635 -0.849492 0
M  V30 15676 C 1484.24 2.91877 -1.88215 0
M  V30 15677 C 1483.19 3.01628 -3.03652 0
M  V30 15678 C 1482.52 4.41687 -3.01358 0
M  V30 15679 C 1483.82 2.75691 -4.43612 0
M  V30 15680 H 1485.51 1.33737 -2.67871 0
M  V30 15681 H 1483.06 0.641936 -1.289 0
M  V30 15682 H 1485.01 3.68851 -2.03781 0
M  V30 15683 H 1483.74 3.13173 -0.926847 0
M  V30 15684 H 1482.39 2.27094 -2.87791 0
M  V30 15685 H 1482.04 4.5995 -2.03605 0
M  V30 15686 H 1481.74 4.49141 -3.78875 0
M  V30 15687 H 1483.27 5.20634 -3.19018 0
M  V30 15688 H 1484.68 3.42398 -4.59822 0
M  V30 15689 H 1483.08 2.94554 -5.22836 0
M  V30 15690 H 1484.15 1.71297 -4.53636 0
M  V30 15691 N 1485.49 1.41566 0.692592 0
M  V30 15692 C 1486.77 1.31572 1.44735 0
M  V30 15693 C 1487.15 -0.0553081 2.11028 0
M  V30 15694 O 1486.5 -1.06974 2.01913 0
M  V30 15695 C 1486.71 2.47125 2.46435 0
M  V30 15696 C 1488.05 2.88427 3.11601 0
M  V30 15697 O 1489.08 2.46886 2.5676 0
M  V30 15698 O 1487.94 3.6027 4.10935 0
M  V30 15699 H 1485.03 0.517949 0.644715 0
M  V30 15700 H 1487.58 1.53536 0.722818 0
M  V30 15701 H 1486.35 3.38601 1.96124 0
M  V30 15702 H 1485.97 2.27054 3.26393 0
M  V30 15703 N 1486.97 -0.927146 1.27443 0
M  V30 15704 C 1488.38 -1.48984 1.1252 0
M  V30 15705 C 1488.73 -1.94051 -0.289602 0
M  V30 15706 O 1487.86 -1.8123 -1.18257 0
M  V30 15707 C 1488.45 -2.70765 2.03646 0
M  V30 15708 C 1487.01 -3.23256 1.92827 0
M  V30 15709 C 1486.16 -1.95991 1.9617 0
M  V30 15710 H 1489.11 -0.741196 1.40328 0
M  V30 15711 H 1489.13 -3.45567 1.5926 0
M  V30 15712 H 1488.64 -2.37933 3.0661 0
M  V30 15713 H 1486.74 -3.60845 0.928516 0
M  V30 15714 H 1486.85 -3.89413 2.79096 0
M  V30 15715 H 1485.22 -2.12508 1.40402 0
M  V30 15716 H 1486 -1.65473 3.00788 0
M  V30 15717 N 1488.45 -1.09474 -1.13372 0
M  V30 15718 C 1489.38 -0.692446 -2.1849 0
M  V30 15719 C 1490.39 0.265942 -1.60613 0
M  V30 15720 O 1491.58 0.0519189 -1.78424 0
M  V30 15721 C 1488.68 0.000306083 -3.389 0
M  V30 15722 C 1487.85 -0.979745 -4.26286 0
M  V30 15723 C 1486.91 -0.320309 -5.25224 0
M  V30 15724 O 1485.94 -0.968089 -5.60907 0
M  V30 15725 N 1487.14 0.92536 -5.73077 0
M  V30 15726 H 1489.91 -1.59681 -2.53618 0
M  V30 15727 H 1487.47 -0.982256 -1.28699 0
M  V30 15728 H 1489.46 0.45268 -4.0216 0
M  V30 15729 H 1488.03 0.806927 -3.02006 0
M  V30 15730 H 1487.25 -1.61067 -3.59793 0
M  V30 15731 H 1488.54 -1.64348 -4.81526 0
M  V30 15732 H 1487.93 1.47119 -5.46235 0
M  V30 15733 H 1486.49 1.32105 -6.38272 0
M  V30 15734 N 1489.92 1.30607 -0.882012 0
M  V30 15735 C 1490.89 2.26489 -0.351498 0
M  V30 15736 C 1491.89 1.52686 0.504348 0
M  V30 15737 O 1493.08 1.71385 0.311928 0
M  V30 15738 C 1490.21 3.37222 0.499435 0
M  V30 15739 H 1491.4 2.74929 -1.19809 0
M  V30 15740 H 1488.96 1.41746 -0.658616 0
M  V30 15741 H 1489.69 2.94093 1.36673 0
M  V30 15742 H 1489.48 3.91936 -0.11356 0
M  V30 15743 H 1490.97 4.08596 0.862497 0
M  V30 15744 N 1491.4 0.642663 1.43901 0
M  V30 15745 C 1492.33 -0.0419756 2.33462 0
M  V30 15746 C 1493.31 -0.822923 1.48869 0
M  V30 15747 O 1494.5 -0.786508 1.7756 0
M  V30 15748 C 1491.63 -1.01631 3.32097 0
M  V30 15749 C 1490.58 -0.346206 4.26597 0
M  V30 15750 C 1489.91 -1.43125 5.15189 0
M  V30 15751 C 1491.21 0.754799 5.16817 0
M  V30 15752 H 1492.9 0.705929 2.90959 0
M  V30 15753 H 1490.45 0.340924 1.39906 0
M  V30 15754 H 1492.4 -1.5041 3.93643 0
M  V30 15755 H 1491.13 -1.79525 2.72834 0
M  V30 15756 H 1489.78 0.121038 3.664 0
M  V30 15757 H 1489.43 -2.20135 4.52271 0
M  V30 15758 H 1489.13 -0.988194 5.79231 0
M  V30 15759 H 1490.66 -1.92061 5.79607 0
M  V30 15760 H 1492.07 0.349624 5.72233 0
M  V30 15761 H 1490.47 1.12169 5.89524 0
M  V30 15762 H 1491.54 1.61718 4.57138 0
M  V30 15763 N 1492.88 -1.52852 0.383918 0
M  V30 15764 C 1493.81 -2.23927 -0.488816 0
M  V30 15765 C 1494.83 -1.2598 -1.03115 0
M  V30 15766 O 1496.02 -1.5209 -0.934398 0
M  V30 15767 C 1493.12 -2.9378 -1.68957 0
M  V30 15768 C 1492.29 -4.18388 -1.27555 0
M  V30 15769 C 1491.35 -4.71287 -2.3404 0
M  V30 15770 O 1490.37 -5.34511 -1.9567 0
M  V30 15771 N 1491.58 -4.50679 -3.65881 0
M  V30 15772 H 1494.34 -2.99459 0.120084 0
M  V30 15773 H 1491.9 -1.60532 0.210004 0
M  V30 15774 H 1493.89 -3.26071 -2.39707 0
M  V30 15775 H 1492.46 -2.21588 -2.20493 0
M  V30 15776 H 1491.68 -3.92194 -0.397157 0
M  V30 15777 H 1492.97 -4.99361 -0.975506 0
M  V30 15778 H 1492.37 -4.00201 -3.9982 0
M  V30 15779 H 1490.93 -4.87473 -4.32681 0
M  V30 15780 N 1494.36 -0.113586 -1.5719 0
M  V30 15781 C 1495.64 0.588987 -1.86522 0
M  V30 15782 C 1496.02 1.85163 -1.01379 0
M  V30 15783 O 1495.36 2.28318 -0.0912188 0
M  V30 15784 C 1495.57 0.886633 -3.3755 0
M  V30 15785 C 1496.92 1.24206 -4.06027 0
M  V30 15786 O 1497.95 0.977068 -3.42537 0
M  V30 15787 O 1496.81 1.73914 -5.18089 0
M  V30 15788 H 1493.9 0.296637 -0.771968 0
M  V30 15789 H 1496.45 -0.147681 -1.69056 0
M  V30 15790 H 1495.22 -0.00835421 -3.91299 0
M  V30 15791 H 1494.84 1.67865 -3.60426 0
M  V30 15792 N 1495.84 1.56784 0.160173 0
M  V30 15793 C 1497.25 1.51153 0.512352 0
M  V30 15794 C 1497.45 0.819774 1.84071 0
M  V30 15795 O 1496.51 0.384789 2.49551 0
M  V30 15796 C 1497.82 2.95906 0.534817 0
M  V30 15797 C 1499.37 3.06773 0.621248 0
M  V30 15798 C 1499.85 4.53006 0.674501 0
M  V30 15799 N 1501.34 4.57298 0.737087 0
M  V30 15800 C 1502.07 5.67805 0.799054 0
M  V30 15801 N 1501.57 6.87916 0.821171 0
M  V30 15802 N 1503.36 5.55804 0.838928 0
M  V30 15803 H 1495.51 2.00157 -0.710712 0
M  V30 15804 H 1497.77 0.91233 -0.257601 0
M  V30 15805 H 1497.48 3.49719 -0.372773 0
M  V30 15806 H 1497.35 3.51152 1.3774 0
M  V30 15807 H 1499.74 2.52987 1.51926 0
M  V30 15808 H 1499.82 2.54593 -0.248224 0
M  V30 15809 H 1499.47 5.07426 -0.219301 0
M  V30 15810 H 1499.4 5.02954 1.56028 0
M  V30 15811 H 1501.89 3.70825 0.727827 0
M  V30 15812 H 1502.2 7.67888 0.869938 0
M  V30 15813 H 1500.55 6.90504 0.789264 0
M  V30 15814 H 1503.74 4.60884 0.818728 0
M  V30 15815 H 1503.91 6.41945 0.883757 0
M  V30 15816 N 1497.32 -0.429099 1.51646 0
M  V30 15817 C 1498.59 -1.18958 1.55269 0
M  V30 15818 C 1498.97 -2.08633 0.321816 0
M  V30 15819 O 1498.32 -2.1775 -0.69261 0
M  V30 15820 C 1498.53 -1.98427 2.87102 0
M  V30 15821 C 1499.88 -2.55185 3.39361 0
M  V30 15822 O 1500.9 -2.08629 2.88708 0
M  V30 15823 O 1499.76 -3.40119 4.27763 0
M  V30 15824 H 1496.86 -0.542041 0.624596 0
M  V30 15825 H 1499.4 -0.437499 1.63964 0
M  V30 15826 H 1498.17 -1.32613 3.68143 0
M  V30 15827 H 1497.8 -2.80683 2.81608 0
M  V30 15828 N 1498.79 -1.41931 -0.685074 0
M  V30 15829 C 1500.04 -1.43062 -1.44585 0
M  V30 15830 C 1500.39 -0.0425175 -1.92353 0
M  V30 15831 O 1499.69 0.933507 -1.67321 0
M  V30 15832 C 1499.88 -2.38099 -2.6654 0
M  V30 15833 C 1499.71 -3.86013 -2.30704 0
M  V30 15834 C 1498.48 -4.54622 -2.20559 0
M  V30 15835 C 1500.68 -4.76711 -1.93005 0
M  V30 15836 N 1498.66 -5.87613 -1.77719 0
M  V30 15837 C 1500.03 -5.9873 -1.61005 0
M  V30 15838 C 1502.09 -4.6426 -1.79907 0
M  V30 15839 C 1500.79 -7.09684 -1.17221 0
M  V30 15840 C 1502.82 -5.75187 -1.37529 0
M  V30 15841 C 1502.18 -6.96311 -1.06445 0
M  V30 15842 H 1498.28 -0.578696 -0.525961 0
M  V30 15843 H 1500.86 -1.77882 -0.791591 0
M  V30 15844 H 1499.03 -2.05358 -3.29671 0
M  V30 15845 H 1500.76 -2.29878 -3.33074 0
M  V30 15846 H 1497.52 -4.08698 -2.39296 0
M  V30 15847 H 1497.94 -6.58124 -1.58751 0
M  V30 15848 H 1502.58 -3.71104 -2.02588 0
M  V30 15849 H 1500.3 -8.02698 -0.932855 0
M  V30 15850 H 1503.89 -5.67561 -1.27929 0
M  V30 15851 H 1502.77 -7.80687 -0.741497 0
M  V30 15852 N 1500.27 0.920374 -1.27933 0
M  V30 15853 C 1501.2 2.02644 -1.07089 0
M  V30 15854 C 1502.22 1.62781 -0.024674 0
M  V30 15855 O 1503.41 1.76491 -0.267023 0
M  V30 15856 C 1500.51 3.33476 -0.603919 0
M  V30 15857 C 1499.68 4.01988 -1.72407 0
M  V30 15858 C 1498.74 5.11098 -1.25159 0
M  V30 15859 O 1497.76 5.3466 -1.95261 0
M  V30 15860 N 1498.97 5.80393 -0.111197 0
M  V30 15861 H 1501.73 2.21085 -2.0234 0
M  V30 15862 H 1499.29 1.09124 -1.19597 0
M  V30 15863 H 1501.28 4.03788 -0.271579 0
M  V30 15864 H 1499.85 3.11554 0.255557 0
M  V30 15865 H 1499.07 3.25312 -2.22633 0
M  V30 15866 H 1500.36 4.4451 -2.47566 0
M  V30 15867 H 1499.76 5.63713 0.473746 0
M  V30 15868 H 1498.32 6.51599 0.161912 0
M  V30 15869 N 1501.75 1.10074 1.1279 0
M  V30 15870 C 1503.17 0.831776 1.36212 0
M  V30 15871 C 1503.37 -0.550632 1.93831 0
M  V30 15872 O 1502.42 -1.30422 2.16209 0
M  V30 15873 C 1503.73 1.92844 2.3072 0
M  V30 15874 C 1505.28 1.95645 2.4432 0
M  V30 15875 C 1505.76 3.04474 3.4214 0
M  V30 15876 N 1507.25 3.03756 3.49695 0
M  V30 15877 C 1507.98 3.84605 4.25284 0
M  V30 15878 N 1507.48 4.7538 5.0397 0
M  V30 15879 N 1509.27 3.72838 4.20652 0
M  V30 15880 H 1501.42 1.99187 0.737452 0
M  V30 15881 H 1503.69 0.865383 0.387062 0
M  V30 15882 H 1503.39 2.92323 1.9555 0
M  V30 15883 H 1503.27 1.81241 3.30805 0
M  V30 15884 H 1505.65 0.968004 2.78772 0
M  V30 15885 H 1505.73 2.11325 1.44136 0
M  V30 15886 H 1505.38 4.03536 3.08418 0
M  V30 15887 H 1505.31 2.86036 4.42144 0
M  V30 15888 H 1507.8 2.37977 2.93556 0
M  V30 15889 H 1508.11 5.33637 5.58974 0
M  V30 15890 H 1506.46 4.79411 5.0318 0
M  V30 15891 H 1509.65 3.01276 3.5826 0
M  V30 15892 H 1509.82 4.36083 4.79308 0
M  V30 15893 N 1503.23 -1.30138 0.888926 0
M  V30 15894 C 1504.46 -2.00143 0.524437 0
M  V30 15895 C 1504.87 -1.66608 -0.888093 0
M  V30 15896 O 1504.23 -0.905326 -1.58462 0
M  V30 15897 C 1504.28 -3.54769 0.694327 0
M  V30 15898 O 1504 -3.87112 2.05125 0
M  V30 15899 C 1505.5 -4.42045 0.333354 0
M  V30 15900 H 1502.72 -0.639775 0.202309 0
M  V30 15901 H 1505.26 -1.65929 1.19531 0
M  V30 15902 H 1503.42 -3.87335 0.0707712 0
M  V30 15903 H 1503.83 -4.81807 2.07275 0
M  V30 15904 H 1505.31 -5.49702 0.503107 0
M  V30 15905 H 1505.78 -4.33109 -0.728893 0
M  V30 15906 H 1506.39 -4.14931 0.933398 0
M  V30 15907 N 1504.71 -0.650285 -1.43559 0
M  V30 15908 C 1505.95 -0.162725 -2.02146 0
M  V30 15909 C 1506.28 1.21911 -1.51166 0
M  V30 15910 O 1505.56 1.81329 -0.703563 0
M  V30 15911 C 1505.84 -0.170356 -3.59697 0
M  V30 15912 C 1505.7 -1.5859 -4.20915 0
M  V30 15913 C 1507.01 0.494831 -4.37309 0
M  V30 15914 H 1504.13 -0.0606055 -0.734504 0
M  V30 15915 H 1506.78 -0.830411 -1.70892 0
M  V30 15916 H 1504.93 0.39819 -3.86454 0
M  V30 15917 H 1506.6 -2.20481 -4.05199 0
M  V30 15918 H 1504.84 -2.13407 -3.77677 0
M  V30 15919 H 1505.51 -1.54312 -5.29992 0
M  V30 15920 H 1507.99 0.0111281 -4.16099 0
M  V30 15921 H 1506.86 0.458753 -5.4698 0
M  V30 15922 H 1507.12 1.56846 -4.13342 0
M  V30 15923 N 1506.18 1.52647 -0.392018 0
M  V30 15924 C 1507.43 2.00798 0.19056 0
M  V30 15925 C 1507.75 1.28265 1.47673 0
M  V30 15926 O 1508.95 1.67142 2.13953 0
M  V30 15927 C 1507.41 3.57779 0.390148 0
M  V30 15928 C 1507.02 4.39213 -0.882933 0
M  V30 15929 C 1508.76 4.14211 0.928945 0
M  V30 15930 C 1506.67 5.87801 -0.651474 0
M  V30 15931 H 1505.6 0.750262 0.0749879 0
M  V30 15932 H 1508.25 1.7613 -0.514835 0
M  V30 15933 H 1506.63 3.78707 1.15746 0
M  V30 15934 H 1507.8 4.30051 -1.65507 0
M  V30 15935 H 1506.12 3.94015 -1.34688 0
M  V30 15936 H 1508.72 5.22884 1.11787 0
M  V30 15937 H 1509.06 3.70475 1.89878 0
M  V30 15938 H 1509.59 3.97185 0.221135 0
M  V30 15939 H 1506.33 6.35864 -1.59239 0
M  V30 15940 H 1505.85 5.99744 0.0816786 0
M  V30 15941 H 1507.53 6.46363 -0.287057 0
M  V30 15942 N 1507.66 0.121921 1.57128 0
M  V30 15943 C 1508.63 -0.812905 2.143 0
M  V30 15944 C 1509.63 -1.19261 1.07858 0
M  V30 15945 O 1510.82 -1.11764 1.33621 0
M  V30 15946 C 1507.95 -2.09969 2.68562 0
M  V30 15947 H 1509.14 -0.315992 2.98231 0
M  V30 15948 H 1506.69 -0.12734 1.5578 0
M  V30 15949 H 1507.43 -2.64085 1.88228 0
M  V30 15950 H 1507.21 -1.83688 3.46412 0
M  V30 15951 H 1508.7 -2.76788 3.12695 0
M  V30 15952 N 1509.14 -1.56867 -0.151857 0
M  V30 15953 C 1510.07 -1.93039 -1.21701 0
M  V30 15954 C 1511.05 -0.795607 -1.41806 0
M  V30 15955 O 1512.24 -1.05076 -1.56497 0
M  V30 15956 C 1509.36 -2.19822 -2.57674 0
M  V30 15957 C 1508.41 -3.42474 -2.54192 0
M  V30 15958 S 1509.24 -4.96199 -2.01363 0
M  V30 15959 C 1510.4 -5.26098 -3.39075 0
M  V30 15960 H 1510.63 -2.83083 -0.90837 0
M  V30 15961 H 1508.16 -1.5021 -0.357265 0
M  V30 15962 H 1510.12 -2.35932 -3.35926 0
M  V30 15963 H 1508.78 -1.30451 -2.8573 0
M  V30 15964 H 1507.98 -3.58476 -3.54276 0
M  V30 15965 H 1507.58 -3.25581 -1.84047 0
M  V30 15966 H 1509.87 -5.19268 -4.35163 0
M  V30 15967 H 1510.81 -6.27588 -3.27931 0
M  V30 15968 H 1511.22 -4.53623 -3.35986 0
M  V30 15969 N 1510.62 0.421051 -1.51871 0
M  V30 15970 C 1511.57 1.53277 -1.74954 0
M  V30 15971 C 1512.56 1.57792 -0.616282 0
M  V30 15972 O 1513.77 1.61342 -0.798054 0
M  V30 15973 H 1510.14 0.50953 -0.553067 0
M  V30 15974 H 1512.11 1.30988 -2.68113 0
M  V30 15975 C 1510.86 2.90772 -1.90649 0
M  V30 15976 H 1510.18 2.88035 -2.77265 0
M  V30 15977 H 1511.62 3.67882 -2.10805 0
M  V30 15978 C 1510.08 3.30161 -0.670463 0
M  V30 15979 O 1510.61 4.01352 0.167271 0
M  V30 15980 N 1508.82 2.86093 -0.509813 0
M  V30 15981 H 1508.37 2.28329 -1.19262 0
M  V30 15982 H 1508.32 3.12809 0.315918 0
M  V30 15983 N 1512.1 1.42293 0.677538 0
M  V30 15984 C 1513.34 1.42334 1.43476 0
M  V30 15985 C 1513.67 0.0397842 1.94959 0
M  V30 15986 O 1512.94 -0.921258 1.72886 0
M  V30 15987 H 1511.52 0.523969 0.532415 0
M  V30 15988 H 1514.18 1.7769 0.800758 0
M  V30 15989 H 1513.27 2.12146 2.28912 0
M  V30 15990 N 1513.57 -0.913576 1.28419 0
M  V30 15991 C 1514.82 -1.65731 1.14961 0
M  V30 15992 C 1515.14 -1.93269 -0.301079 0
M  V30 15993 O 1516.34 -2.6573 -0.556778 0
M  V30 15994 C 1514.8 -2.98562 2.00969 0
M  V30 15995 C 1514.41 -2.78671 3.5078 0
M  V30 15996 C 1516.15 -3.76439 1.96198 0
M  V30 15997 C 1514.06 -4.07144 4.28938 0
M  V30 15998 H 1512.99 -0.621681 0.426648 0
M  V30 15999 H 1515.64 -1.0138 1.52952 0
M  V30 16000 H 1514.02 -3.64049 1.55835 0
M  V30 16001 H 1515.19 -2.21864 4.03873 0
M  V30 16002 H 1513.51 -2.14206 3.57078 0
M  V30 16003 H 1516.11 -4.71668 2.51861 0
M  V30 16004 H 1516.45 -4.05577 0.938771 0
M  V30 16005 H 1516.98 -3.17772 2.39303 0
M  V30 16006 H 1513.72 -3.83178 5.31841 0
M  V30 16007 H 1513.24 -4.63562 3.80619 0
M  V30 16008 H 1514.92 -4.754 4.38866 0
M  V30 16009 N 1515.05 -1.1067 -1.12204 0
M  V30 16010 C 1515.96 -0.770221 -2.21596 0
M  V30 16011 C 1516.98 0.233297 -1.72429 0
M  V30 16012 O 1518.15 0.0714493 -2.01273 0
M  V30 16013 C 1515.22 -0.209682 -3.46065 0
M  V30 16014 C 1514.28 -1.27079 -4.1006 0
M  V30 16015 C 1513.51 -0.736899 -5.28588 0
M  V30 16016 O 1513.74 0.435838 -5.68732 0
M  V30 16017 O 1512.67 -1.49797 -5.82962 0
M  V30 16018 H 1516.5 -1.6834 -2.52776 0
M  V30 16019 H 1514.08 -0.882012 -1.20586 0
M  V30 16020 H 1515.96 0.0989516 -4.21284 0
M  V30 16021 H 1514.64 0.676316 -3.16556 0
M  V30 16022 H 1513.55 -1.63231 -3.3661 0
M  V30 16023 H 1514.88 -2.12989 -4.4373 0
M  V30 16024 N 1516.53 1.29665 -0.895815 0
M  V30 16025 C 1517.78 1.96006 -0.520522 0
M  V30 16026 C 1518.11 1.7048 0.930068 0
M  V30 16027 O 1517.38 1.01558 1.6588 0
M  V30 16028 C 1517.67 3.50897 -0.808925 0
M  V30 16029 C 1517.52 3.85896 -2.31093 0
M  V30 16030 C 1518.84 4.39125 -0.292769 0
M  V30 16031 H 1515.96 0.711931 -0.190588 0
M  V30 16032 H 1518.6 1.53349 -1.12179 0
M  V30 16033 H 1516.75 3.87362 -0.297194 0
M  V30 16034 H 1518.42 3.59397 -2.89191 0
M  V30 16035 H 1516.67 3.33578 -2.77323 0
M  V30 16036 H 1517.34 4.93989 -2.46331 0
M  V30 16037 H 1519.81 4.0963 -0.730906 0
M  V30 16038 H 1518.69 5.46395 -0.523799 0
M  V30 16039 H 1518.95 4.34683 0.806393 0
M  V30 16040 N 1518.01 0.657889 1.43212 0
M  V30 16041 C 1518.96 -0.0308596 2.30779 0
M  V30 16042 C 1519.93 -0.809951 1.45014 0
M  V30 16043 O 1521.11 -0.785615 1.73876 0
M  V30 16044 C 1518.25 -0.988048 3.30653 0
M  V30 16045 C 1517.36 -0.204567 4.31515 0
M  V30 16046 C 1516.5 -1.15598 5.1847 0
M  V30 16047 C 1515.54 -0.363197 6.11022 0
M  V30 16048 N 1514.67 -1.26644 6.90584 0
M  V30 16049 H 1519.51 0.721745 2.89128 0
M  V30 16050 H 1517.05 0.367677 1.42431 0
M  V30 16051 H 1519.01 -1.55666 3.87071 0
M  V30 16052 H 1517.64 -1.70747 2.73944 0
M  V30 16053 H 1516.69 0.48041 3.77354 0
M  V30 16054 H 1518 0.411684 4.97098 0
M  V30 16055 H 1517.16 -1.79507 5.79536 0
M  V30 16056 H 1515.9 -1.80613 4.53023 0
M  V30 16057 H 1514.9 0.28922 5.49039 0
M  V30 16058 H 1516.13 0.28262 6.78512 0
M  V30 16059 H 1514.07 -1.90331 6.27782 0
M  V30 16060 H 1513.99 -0.70486 7.52707 0
M  V30 16061 H 1515.26 -1.89353 7.56152 0
M  V30 16062 N 1519.49 -1.52437 0.400108 0
M  V30 16063 C 1520.42 -2.29672 -0.421054 0
M  V30 16064 C 1521.4 -1.33506 -1.05405 0
M  V30 16065 O 1522.58 -1.62408 -1.06477 0
M  V30 16066 C 1519.71 -3.1115 -1.54281 0
M  V30 16067 C 1518.67 -4.1529 -1.0353 0
M  V30 16068 C 1517.99 -4.85058 -2.24996 0
M  V30 16069 C 1519.29 -5.22212 -0.0956529 0
M  V30 16070 H 1520.99 -2.98565 0.2234 0
M  V30 16071 H 1518.53 -1.43588 0.108883 0
M  V30 16072 H 1520.49 -3.63945 -2.12419 0
M  V30 16073 H 1519.21 -2.4001 -2.21501 0
M  V30 16074 H 1517.87 -3.63492 -0.476383 0
M  V30 16075 H 1517.52 -4.10455 -2.9075 0
M  V30 16076 H 1517.22 -5.55452 -1.91694 0
M  V30 16077 H 1518.74 -5.40661 -2.83756 0
M  V30 16078 H 1520.15 -5.70302 -0.585548 0
M  V30 16079 H 1518.55 -5.99917 0.148121 0
M  V30 16080 H 1519.62 -4.77351 0.852296 0
M  V30 16081 N 1520.96 -0.130252 -1.57061 0
M  V30 16082 C 1522.19 0.535707 -2.00362 0
M  V30 16083 C 1522.61 1.58712 -1.00956 0
M  V30 16084 O 1521.97 1.81292 0.0171546 0
M  V30 16085 C 1522.02 1.12836 -3.42491 0
M  V30 16086 O 1521.12 2.24367 -3.46025 0
M  V30 16087 H 1520.47 0.132735 -0.650598 0
M  V30 16088 H 1523 -0.222047 -2.03392 0
M  V30 16089 H 1523.01 1.46115 -3.80939 0
M  V30 16090 H 1521.68 0.358304 -4.14354 0
M  V30 16091 H 1520.26 1.92443 -3.19406 0
M  V30 16092 N 1522.44 1.56945 0.143535 0
M  V30 16093 C 1523.69 1.8381 0.856831 0
M  V30 16094 C 1524.02 0.712375 1.80662 0
M  V30 16095 O 1523.3 -0.283743 1.92419 0
M  V30 16096 C 1523.58 3.21184 1.62828 0
M  V30 16097 C 1523.43 4.44324 0.699744 0
M  V30 16098 C 1524.75 3.5582 2.58999 0
M  V30 16099 H 1521.87 0.668611 0.310046 0
M  V30 16100 H 1524.51 1.89609 0.1219 0
M  V30 16101 H 1522.66 3.16372 2.2548 0
M  V30 16102 H 1524.34 4.61224 0.0839619 0
M  V30 16103 H 1522.58 4.33799 0.0095529 0
M  V30 16104 H 1523.25 5.37058 1.27564 0
M  V30 16105 H 1525.73 3.61264 2.06464 0
M  V30 16106 H 1524.6 4.52964 3.10024 0
M  V30 16107 H 1524.86 2.81956 3.40519 0
M  V30 16108 N 1523.92 -0.412991 1.52093 0
M  V30 16109 C 1524.87 -1.50294 1.75158 0
M  V30 16110 C 1525.84 -1.55119 0.593902 0
M  V30 16111 O 1527.02 -1.71751 0.831032 0
M  V30 16112 C 1524.16 -2.87781 1.90463 0
M  V30 16113 C 1523.28 -2.92295 3.181 0
M  V30 16114 C 1522.41 -4.21056 3.23859 0
M  V30 16115 C 1521.45 -4.1953 4.45714 0
M  V30 16116 N 1520.59 -5.39857 4.48886 0
M  V30 16117 H 1525.43 -1.29927 2.68185 0
M  V30 16118 H 1522.96 -0.630741 1.32891 0
M  V30 16119 H 1524.92 -3.67588 1.9732 0
M  V30 16120 H 1523.55 -3.06651 1.00822 0
M  V30 16121 H 1522.6 -2.05002 3.20434 0
M  V30 16122 H 1523.92 -2.87031 4.0794 0
M  V30 16123 H 1523.07 -5.09253 3.29767 0
M  V30 16124 H 1521.81 -4.2901 2.31952 0
M  V30 16125 H 1520.81 -3.29724 4.39957 0
M  V30 16126 H 1522.04 -4.1322 5.38912 0
M  V30 16127 H 1519.99 -5.48486 3.59861 0
M  V30 16128 H 1519.9 -5.36572 5.32566 0
M  V30 16129 H 1521.17 -6.30018 4.59018 0
M  V30 16130 N 1525.4 -1.4265 -0.669982 0
M  V30 16131 C 1526.65 -1.43376 -1.43002 0
M  V30 16132 C 1526.97 -0.0519386 -1.94431 0
M  V30 16133 O 1526.23 0.940456 -1.71621 0
M  V30 16134 C 1526.53 -2.40913 -2.63999 0
M  V30 16135 C 1526.19 -3.87183 -2.31085 0
M  V30 16136 C 1524.86 -4.27024 -2.21819 0
M  V30 16137 C 1527.21 -4.79428 -2.04447 0
M  V30 16138 C 1524.54 -5.57084 -1.84049 0
M  V30 16139 C 1526.89 -6.09835 -1.68179 0
M  V30 16140 C 1525.55 -6.4867 -1.57428 0
M  V30 16141 H 1524.82 -0.524651 -0.52328 0
M  V30 16142 H 1527.47 -1.75622 -0.763494 0
M  V30 16143 H 1525.77 -2.02012 -3.35706 0
M  V30 16144 H 1527.47 -2.38737 -3.22189 0
M  V30 16145 H 1524.06 -3.55642 -2.392 0
M  V30 16146 H 1528.25 -4.49431 -2.10535 0
M  V30 16147 H 1523.5 -5.86029 -1.74298 0
M  V30 16148 H 1527.68 -6.80796 -1.46594 0
M  V30 16149 H 1525.3 -7.49358 -1.2793 0
M  V30 16150 N 1526.88 0.906753 -1.28902 0
M  V30 16151 C 1527.83 2.03141 -1.13299 0
M  V30 16152 C 1528.82 1.69325 -0.0504114 0
M  V30 16153 O 1530.03 1.78774 -0.209696 0
M  V30 16154 H 1526.4 0.665709 -0.349766 0
M  V30 16155 H 1528.37 2.13441 -2.08531 0
M  V30 16156 C 1527.12 3.37918 -0.818935 0
M  V30 16157 H 1526.44 3.64437 -1.64395 0
M  V30 16158 H 1527.88 4.17318 -0.749753 0
M  V30 16159 C 1526.34 3.33498 0.477582 0
M  V30 16160 O 1526.87 3.7241 1.50578 0
M  V30 16161 N 1525.08 2.86594 0.480862 0
M  V30 16162 H 1524.63 2.55124 -0.356308 0
M  V30 16163 H 1524.58 2.84019 1.34835 0
M  V30 16164 N 1528.36 1.11264 1.11616 0
M  V30 16165 C 1529.58 0.88306 1.87661 0
M  V30 16166 C 1530.01 -0.561586 1.79521 0
M  V30 16167 O 1529.36 -1.3964 1.1563 0
M  V30 16168 C 1529.41 1.34698 3.34498 0
M  V30 16169 O 1528.52 0.517512 4.0914 0
M  V30 16170 H 1527.86 0.318233 0.582772 0
M  V30 16171 H 1530.39 1.48164 1.41098 0
M  V30 16172 H 1530.4 1.34068 3.85344 0
M  V30 16173 H 1529.07 2.39896 3.39739 0
M  V30 16174 H 1527.65 0.589751 3.68207 0
M  V30 16175 N 1529.83 -1.29188 0.902679 0
M  V30 16176 C 1531.25 -1.47924 0.599209 0
M  V30 16177 C 1531.45 -1.82297 -0.858494 0
M  V30 16178 O 1530.51 -1.92123 -1.63845 0
M  V30 16179 C 1531.82 -2.59008 1.52759 0
M  V30 16180 C 1533.37 -2.72882 1.53312 0
M  V30 16181 C 1533.84 -3.87097 2.44785 0
M  V30 16182 N 1535.33 -3.94435 2.42849 0
M  V30 16183 C 1536.07 -4.82165 3.1033 0
M  V30 16184 N 1535.56 -5.74565 3.87101 0
M  V30 16185 N 1537.36 -4.75681 2.99473 0
M  V30 16186 H 1529.51 -1.05154 1.84544 0
M  V30 16187 H 1531.77 -0.522632 0.790924 0
M  V30 16188 H 1531.48 -2.40483 2.56634 0
M  V30 16189 H 1531.35 -3.55873 1.25036 0
M  V30 16190 H 1533.74 -2.90802 0.501804 0
M  V30 16191 H 1533.82 -1.76582 1.85074 0
M  V30 16192 H 1533.46 -3.69932 3.48012 0
M  V30 16193 H 1533.39 -4.82772 2.10331 0
M  V30 16194 H 1535.88 -3.28347 1.87074 0
M  V30 16195 H 1536.2 -6.3831 4.35638 0
M  V30 16196 H 1534.54 -5.74441 3.91207 0
M  V30 16197 H 1537.73 -4.02483 2.39009 0
M  V30 16198 H 1537.91 -5.4384 3.52337 0
M  V30 16199 N 1531.31 -0.665475 -1.42861 0
M  V30 16200 C 1532.22 0.018927 -2.34592 0
M  V30 16201 C 1533.24 0.798967 -1.54572 0
M  V30 16202 O 1534.41 0.743419 -1.87177 0
M  V30 16203 C 1531.48 0.965013 -3.32999 0
M  V30 16204 C 1530.54 0.180544 -4.2892 0
M  V30 16205 C 1529.77 1.08157 -5.22626 0
M  V30 16206 O 1530 2.32101 -5.21043 0
M  V30 16207 O 1528.93 0.54738 -5.99406 0
M  V30 16208 H 1532.76 -0.736444 -2.94636 0
M  V30 16209 H 1530.34 -0.425684 -1.43207 0
M  V30 16210 H 1532.22 1.50839 -3.93479 0
M  V30 16211 H 1530.9 1.7004 -2.75442 0
M  V30 16212 H 1529.8 -0.40671 -3.71883 0
M  V30 16213 H 1531.14 -0.515529 -4.89493 0
M  V30 16214 N 1532.79 1.52222 -0.408187 0
M  V30 16215 C 1534.04 2.01803 0.167905 0
M  V30 16216 C 1534.36 1.29385 1.45223 0
M  V30 16217 O 1533.62 0.388383 1.91807 0
M  V30 16218 C 1533.92 3.54384 0.463353 0
M  V30 16219 C 1533.58 4.44924 -0.731665 0
M  V30 16220 C 1532.25 4.69392 -1.05946 0
M  V30 16221 C 1534.6 4.9823 -1.53023 0
M  V30 16222 C 1531.93 5.44414 -2.18702 0
M  V30 16223 C 1534.28 5.74486 -2.64855 0
M  V30 16224 C 1532.94 5.97227 -2.98121 0
M  V30 16225 H 1532.21 0.738448 0.0614409 0
M  V30 16226 H 1534.86 1.83449 -0.549412 0
M  V30 16227 H 1533.16 3.70911 1.26223 0
M  V30 16228 H 1534.86 3.90256 0.922042 0
M  V30 16229 H 1531.45 4.26057 -0.4662 0
M  V30 16230 H 1535.64 4.79236 -1.29022 0
M  V30 16231 H 1530.89 5.60242 -2.44824 0
M  V30 16232 H 1535.07 6.14788 -3.27122 0
M  V30 16233 H 1532.69 6.5514 -3.8561 0
M  V30 16234 N 1534.27 0.138579 1.5699 0
M  V30 16235 C 1535.49 -0.525074 2.00643 0
M  V30 16236 C 1535.92 -1.58174 1.01796 0
M  V30 16237 O 1535.28 -1.81298 -0.00754003 0
M  V30 16238 C 1535.32 -1.11019 3.43085 0
M  V30 16239 O 1534.43 -2.22529 3.4721 0
M  V30 16240 H 1533.77 -0.129283 0.651292 0
M  V30 16241 H 1536.3 0.23283 2.03271 0
M  V30 16242 H 1536.31 -1.44093 3.81708 0
M  V30 16243 H 1534.98 -0.336325 4.14538 0
M  V30 16244 H 1533.56 -1.90747 3.20422 0
M  V30 16245 N 1535.75 -1.57019 -0.13521 0
M  V30 16246 C 1536.68 -2.02182 -1.16811 0
M  V30 16247 C 1537.66 -0.9034 -1.44127 0
M  V30 16248 O 1538.84 -1.17202 -1.54846 0
M  V30 16249 C 1535.97 -2.41243 -2.49838 0
M  V30 16250 C 1534.93 -3.56379 -2.37018 0
M  V30 16251 C 1534.25 -3.8129 -3.74863 0
M  V30 16252 C 1535.55 -4.88653 -1.84432 0
M  V30 16253 H 1537.25 -2.8872 -0.792529 0
M  V30 16254 H 1534.79 -1.38901 -0.379788 0
M  V30 16255 H 1536.74 -2.7144 -3.22332 0
M  V30 16256 H 1535.47 -1.51656 -2.89254 0
M  V30 16257 H 1534.13 -3.26366 -1.66975 0
M  V30 16258 H 1533.78 -2.88934 -4.11735 0
M  V30 16259 H 1533.48 -4.58781 -3.67143 0
M  V30 16260 H 1535 -4.13924 -4.48887 0
M  V30 16261 H 1536.41 -5.17492 -2.46729 0
M  V30 16262 H 1534.81 -5.70032 -1.87574 0
M  V30 16263 H 1535.88 -4.78242 -0.800759 0
M  V30 16264 N 1537.22 0.404919 -1.52309 0
M  V30 16265 C 1538.17 1.49363 -1.75953 0
M  V30 16266 C 1539.14 1.54802 -0.60212 0
M  V30 16267 O 1540.33 1.71308 -0.840128 0
M  V30 16268 C 1537.47 2.86767 -1.91987 0
M  V30 16269 C 1536.58 2.90603 -3.19646 0
M  V30 16270 C 1535.71 4.19333 -3.26088 0
M  V30 16271 C 1534.75 4.17161 -4.47932 0
M  V30 16272 N 1533.89 5.37469 -4.51743 0
M  V30 16273 H 1538.73 1.28503 -2.6887 0
M  V30 16274 H 1536.27 0.623684 -1.33224 0
M  V30 16275 H 1538.23 3.66536 -1.99267 0
M  V30 16276 H 1536.86 3.06112 -1.02447 0
M  V30 16277 H 1535.91 2.033 -3.21517 0
M  V30 16278 H 1537.22 2.84864 -4.09456 0
M  V30 16279 H 1536.37 5.07497 -3.32463 0
M  V30 16280 H 1535.11 4.27774 -2.34224 0
M  V30 16281 H 1534.12 3.27386 -4.417 0
M  V30 16282 H 1535.34 4.10356 -5.41096 0
M  V30 16283 H 1533.29 5.46569 -3.62764 0
M  V30 16284 H 1533.21 5.3374 -5.35404 0
M  V30 16285 H 1534.47 6.27575 -4.62353 0
M  V30 16286 N 1538.7 1.43003 0.662408 0
M  V30 16287 C 1540.12 1.26201 0.977003 0
M  V30 16288 C 1540.32 0.175104 2.00738 0
M  V30 16289 O 1539.37 -0.44954 2.48466 0
M  V30 16290 C 1540.69 2.62319 1.47001 0
M  V30 16291 C 1542.24 2.69776 1.58714 0
M  V30 16292 C 1542.71 4.06289 2.11408 0
M  V30 16293 N 1544.2 4.08307 2.18724 0
M  V30 16294 C 1544.94 5.10761 2.60598 0
M  V30 16295 N 1544.43 6.23593 3.01834 0
M  V30 16296 N 1546.23 4.98115 2.60456 0
M  V30 16297 H 1538.38 2.12391 -0.0195698 0
M  V30 16298 H 1540.64 0.946472 0.0538044 0
M  V30 16299 H 1540.35 3.42773 0.78736 0
M  V30 16300 H 1540.22 2.87088 2.44664 0
M  V30 16301 H 1542.61 1.89659 2.26083 0
M  V30 16302 H 1542.69 2.48782 0.595081 0
M  V30 16303 H 1542.33 4.86868 1.44644 0
M  V30 16304 H 1542.26 4.24641 3.11428 0
M  V30 16305 H 1544.75 3.26857 1.89665 0
M  V30 16306 H 1545.07 6.97609 3.32509 0
M  V30 16307 H 1543.41 6.27079 2.99661 0
M  V30 16308 H 1546.6 4.09037 2.27611 0
M  V30 16309 H 1546.77 5.78092 2.92769 0
M  V30 16310 N 1540.18 -0.899904 1.29381 0
M  V30 16311 C 1541.11 -2.00584 1.08817 0
M  V30 16312 C 1542.09 -1.626 0.000108013 0
M  V30 16313 O 1543.28 -1.87896 0.150764 0
M  V30 16314 C 1540.4 -3.32276 0.656508 0
M  V30 16315 C 1539.45 -3.89247 1.74325 0
M  V30 16316 S 1540.28 -4.18381 3.34242 0
M  V30 16317 C 1541.44 -5.53114 2.92943 0
M  V30 16318 H 1541.67 -2.1772 2.02448 0
M  V30 16319 H 1539.2 -1.04648 1.13526 0
M  V30 16320 H 1541.16 -4.08405 0.414172 0
M  V30 16321 H 1539.82 -3.1302 -0.260196 0
M  V30 16322 H 1539.02 -4.84363 1.39315 0
M  V30 16323 H 1538.62 -3.19805 1.9391 0
M  V30 16324 H 1540.91 -6.33576 2.39976 0
M  V30 16325 H 1541.85 -5.93048 3.8691 0
M  V30 16326 H 1542.26 -5.14962 2.31245 0
M  V30 16327 N 1541.66 -1.11854 -1.11024 0
M  V30 16328 C 1543.07 -0.885443 -1.64368 0
M  V30 16329 C 1543.42 0.581455 -1.87386 0
M  V30 16330 O 1542.55 1.44452 -1.61129 0
M  V30 16331 C 1543.14 -1.60082 -2.98595 0
M  V30 16332 C 1541.7 -1.41403 -3.4883 0
M  V30 16333 C 1540.85 -1.64069 -2.23555 0
M  V30 16334 H 1543.8 -1.27418 -0.94606 0
M  V30 16335 H 1543.82 -1.04832 -3.65774 0
M  V30 16336 H 1543.33 -2.66842 -2.8181 0
M  V30 16337 H 1541.43 -0.368727 -3.70771 0
M  V30 16338 H 1541.54 -2.16603 -4.27341 0
M  V30 16339 H 1539.91 -1.06437 -2.31394 0
M  V30 16340 H 1540.69 -2.72112 -2.09308 0
M  V30 16341 N 1543.14 1.28707 -0.909517 0
M  V30 16342 C 1544.36 1.99821 -0.555557 0
M  V30 16343 C 1544.79 1.67549 0.854931 0
M  V30 16344 O 1544.14 0.905521 1.57067 0
M  V30 16345 C 1544.19 3.52361 -0.766438 0
M  V30 16346 O 1543.3 4.12022 0.17654 0
M  V30 16347 H 1542.64 0.627918 -0.215905 0
M  V30 16348 H 1545.17 1.63965 -1.2238 0
M  V30 16349 H 1545.18 4.02379 -0.674894 0
M  V30 16350 H 1543.85 3.75184 -1.7947 0
M  V30 16351 H 1542.43 3.72882 0.0366216 0
M  V30 16352 N 1544.61 0.673042 1.42506 0
M  V30 16353 C 1546.03 0.342429 1.55883 0
M  V30 16354 C 1546.23 -1.15229 1.65302 0
M  V30 16355 O 1545.29 -1.93767 1.61897 0
M  V30 16356 C 1546.6 1.0712 2.80973 0
M  V30 16357 C 1548.15 1.05336 2.94743 0
M  V30 16358 C 1548.62 1.76342 4.22691 0
M  V30 16359 N 1550.11 1.73201 4.29599 0
M  V30 16360 C 1550.85 2.25 5.27411 0
M  V30 16361 N 1550.34 2.85173 6.31386 0
M  V30 16362 N 1552.14 2.15385 5.19197 0
M  V30 16363 H 1544.29 1.64277 1.34636 0
M  V30 16364 H 1546.55 0.691984 0.647968 0
M  V30 16365 H 1546.26 2.1263 2.80145 0
M  V30 16366 H 1546.13 0.635313 3.71811 0
M  V30 16367 H 1548.52 0.00659669 2.95099 0
M  V30 16368 H 1548.6 1.52811 2.0514 0
M  V30 16369 H 1548.24 2.80985 4.23096 0
M  V30 16370 H 1548.17 1.26317 5.11225 0
M  V30 16371 H 1550.66 1.2931 3.55088 0
M  V30 16372 H 1550.98 3.22323 7.02373 0
M  V30 16373 H 1549.32 2.89242 6.31953 0
M  V30 16374 H 1552.51 1.68065 4.36889 0
M  V30 16375 H 1552.69 2.5606 5.95262 0
M  V30 16376 N 1546.09 -1.52004 0.416254 0
M  V30 16377 C 1547.04 -2.27206 -0.405723 0
M  V30 16378 C 1548.01 -1.29913 -1.03498 0
M  V30 16379 O 1549.19 -1.58786 -1.0579 0
M  V30 16380 C 1546.33 -3.10186 -1.51258 0
M  V30 16381 C 1545.45 -4.22445 -0.903539 0
M  V30 16382 C 1544.58 -4.92771 -1.98368 0
M  V30 16383 C 1543.62 -5.96983 -1.35196 0
M  V30 16384 N 1542.76 -6.60798 -2.37255 0
M  V30 16385 H 1547.6 -2.97016 0.241983 0
M  V30 16386 H 1545.14 -1.46514 0.131174 0
M  V30 16387 H 1547.09 -3.56606 -2.16537 0
M  V30 16388 H 1545.72 -2.42532 -2.13021 0
M  V30 16389 H 1544.78 -3.80144 -0.139607 0
M  V30 16390 H 1546.09 -4.97176 -0.402136 0
M  V30 16391 H 1545.24 -5.42633 -2.71357 0
M  V30 16392 H 1543.98 -4.17624 -2.51876 0
M  V30 16393 H 1542.99 -5.46434 -0.607431 0
M  V30 16394 H 1544.21 -6.74076 -0.824482 0
M  V30 16395 H 1542.16 -5.88476 -2.89882 0
M  V30 16396 H 1542.07 -7.31227 -1.91947 0
M  V30 16397 H 1543.34 -7.15296 -3.09792 0
M  V30 16398 N 1547.57 -0.146903 -1.56914 0
M  V30 16399 C 1548.5 0.823803 -2.13883 0
M  V30 16400 C 1549.52 1.21081 -1.08826 0
M  V30 16401 O 1550.7 1.15491 -1.36103 0
M  V30 16402 C 1547.8 2.11686 -2.64655 0
M  V30 16403 C 1546.98 1.89723 -3.94112 0
M  V30 16404 C 1546.04 3.03016 -4.30195 0
M  V30 16405 O 1545.06 2.74711 -4.9852 0
M  V30 16406 N 1546.26 4.30187 -3.89768 0
M  V30 16407 H 1549.03 0.336904 -2.978 0
M  V30 16408 H 1546.59 0.0366704 -1.61858 0
M  V30 16409 H 1548.58 2.86525 -2.85807 0
M  V30 16410 H 1547.15 2.51639 -1.85464 0
M  V30 16411 H 1546.37 0.989208 -3.81587 0
M  V30 16412 H 1547.66 1.72387 -4.78707 0
M  V30 16413 H 1547.06 4.56051 -3.34715 0
M  V30 16414 H 1545.62 5.01807 -4.15972 0
M  V30 16415 N 1549.05 1.57088 0.126881 0
M  V30 16416 C 1550.28 1.88614 0.850444 0
M  V30 16417 C 1550.69 0.737309 1.73808 0
M  V30 16418 O 1550.05 -0.292196 1.80146 0
M  V30 16419 C 1550.1 3.19541 1.69044 0
M  V30 16420 O 1549.82 4.3 0.838555 0
M  V30 16421 C 1551.32 3.64717 2.51985 0
M  V30 16422 H 1548.54 0.624715 0.244892 0
M  V30 16423 H 1551.09 2.04184 0.113634 0
M  V30 16424 H 1549.24 3.05664 2.38009 0
M  V30 16425 H 1549.65 5.04992 1.41717 0
M  V30 16426 H 1551.13 4.5911 3.06467 0
M  V30 16427 H 1551.61 2.90986 3.28974 0
M  V30 16428 H 1552.21 3.81356 1.88276 0
M  V30 16429 N 1550.53 -0.396836 1.52522 0
M  V30 16430 C 1551.77 -1.14037 1.66853 0
M  V30 16431 C 1552.1 -1.90706 0.406987 0
M  V30 16432 O 1551.37 -1.87165 -0.578443 0
M  V30 16433 H 1549.95 -0.423967 0.615029 0
M  V30 16434 H 1552.61 -0.451042 1.89609 0
M  V30 16435 H 1551.7 -1.84763 2.51533 0
M  V30 16436 N 1552.01 -1.43353 -0.654814 0
M  V30 16437 C 1553.25 -1.451 -1.41682 0
M  V30 16438 C 1553.58 -0.0743864 -1.94057 0
M  V30 16439 O 1552.86 0.904515 -1.72188 0
M  V30 16440 C 1553.14 -2.49204 -2.59941 0
M  V30 16441 C 1553 -3.96134 -2.13069 0
M  V30 16442 C 1554.31 -2.50064 -3.62155 0
M  V30 16443 H 1551.43 -0.528339 -0.513836 0
M  V30 16444 H 1554.08 -1.74892 -0.742489 0
M  V30 16445 H 1552.23 -2.2393 -3.1747 0
M  V30 16446 H 1553.9 -4.32459 -1.60552 0
M  V30 16447 H 1552.14 -4.09042 -1.44455 0
M  V30 16448 H 1552.81 -4.64585 -2.98101 0
M  V30 16449 H 1555.29 -2.72587 -3.14382 0
M  V30 16450 H 1554.16 -3.24849 -4.42452 0
M  V30 16451 H 1554.42 -1.53385 -4.14639 0
M  V30 16452 N 1553.48 0.89303 -1.29857 0
M  V30 16453 C 1554.73 1.64413 -1.18214 0
M  V30 16454 C 1555.06 1.92687 0.26492 0
M  V30 16455 O 1554.31 1.54044 1.20702 0
M  V30 16456 C 1554.61 2.99661 -1.94777 0
M  V30 16457 C 1554.28 2.90969 -3.44453 0
M  V30 16458 C 1552.94 2.88306 -3.8527 0
M  V30 16459 C 1555.29 2.79686 -4.39801 0
M  V30 16460 C 1552.62 2.72188 -5.19741 0
M  V30 16461 C 1554.97 2.65107 -5.7437 0
M  V30 16462 C 1553.64 2.60814 -6.14437 0
M  V30 16463 H 1552.91 0.60163 -0.432577 0
M  V30 16464 H 1555.55 1.03891 -1.60869 0
M  V30 16465 H 1553.86 3.64087 -1.44733 0
M  V30 16466 H 1555.56 3.56722 -1.83168 0
M  V30 16467 H 1552.15 2.93848 -3.12012 0
M  V30 16468 H 1556.33 2.80816 -4.09214 0
M  V30 16469 H 1551.59 2.67273 -5.49886 0
M  V30 16470 H 1555.76 2.55349 -6.47897 0
M  V30 16471 H 1553.39 2.48082 -7.18582 0
M  V30 16472 N 1554.96 1.12442 1.10429 0
M  V30 16473 C 1556.21 0.878021 1.82031 0
M  V30 16474 C 1556.53 -0.597787 1.85611 0
M  V30 16475 O 1555.8 -1.43442 1.33422 0
M  V30 16476 H 1554.38 0.321839 0.674113 0
M  V30 16477 H 1557.04 1.41891 1.33615 0
M  V30 16478 H 1556.14 1.25957 2.85554 0
M  V30 16479 N 1556.44 -1.28223 0.91633 0
M  V30 16480 C 1557.69 -1.95153 0.551639 0
M  V30 16481 C 1558.02 -1.71938 -0.902829 0
M  V30 16482 O 1557.29 -1.04184 -1.64243 0
M  V30 16483 C 1557.58 -3.49565 0.864647 0
M  V30 16484 C 1557.43 -3.82171 2.37203 0
M  V30 16485 C 1558.75 -4.38604 0.362593 0
M  V30 16486 H 1555.87 -0.708808 0.20189 0
M  V30 16487 H 1558.51 -1.51545 1.14604 0
M  V30 16488 H 1556.66 -3.8684 0.358782 0
M  V30 16489 H 1558.33 -3.54751 2.94872 0
M  V30 16490 H 1556.57 -3.29124 2.82595 0
M  V30 16491 H 1557.25 -4.90007 2.54159 0
M  V30 16492 H 1559.72 -4.08416 0.795983 0
M  V30 16493 H 1558.6 -5.45493 0.61066 0
M  V30 16494 H 1558.86 -4.35911 -0.737137 0
M  V30 16495 N 1557.92 -0.68059 -1.42147 0
M  V30 16496 C 1558.86 -0.00585926 -2.30799 0
M  V30 16497 C 1559.83 0.786778 -1.46284 0
M  V30 16498 O 1561.02 0.757853 -1.75103 0
M  V30 16499 C 1558.16 0.935319 -3.32183 0
M  V30 16500 C 1557.27 0.13589 -4.31786 0
M  V30 16501 C 1556.41 1.07335 -5.20243 0
M  V30 16502 C 1555.45 0.265943 -6.11522 0
M  V30 16503 N 1554.58 1.15641 -6.92511 0
M  V30 16504 H 1559.42 -0.767651 -2.87943 0
M  V30 16505 H 1556.96 -0.39029 -1.41828 0
M  V30 16506 H 1558.92 1.49489 -3.89498 0
M  V30 16507 H 1557.55 1.66368 -2.76626 0
M  V30 16508 H 1556.6 -0.540383 -3.76542 0
M  V30 16509 H 1557.91 -0.490716 -4.9638 0
M  V30 16510 H 1557.07 1.70265 -5.82319 0
M  V30 16511 H 1555.81 1.73383 -4.55839 0
M  V30 16512 H 1554.81 -0.376531 -5.48509 0
M  V30 16513 H 1556.04 -0.39053 -6.77976 0
M  V30 16514 H 1553.98 1.80319 -6.30731 0
M  V30 16515 H 1553.9 0.585022 -7.53733 0
M  V30 16516 H 1555.17 1.773 -7.59069 0
M  V30 16517 N 1559.4 1.51781 -0.424309 0
M  V30 16518 C 1560.64 2.01157 0.147925 0
M  V30 16519 C 1560.96 1.31369 1.44919 0
M  V30 16520 O 1562.16 1.71643 2.10359 0
M  V30 16521 C 1560.62 3.58526 0.31417 0
M  V30 16522 C 1560.23 4.37242 -0.975898 0
M  V30 16523 C 1561.97 4.16088 0.840876 0
M  V30 16524 C 1559.88 5.86287 -0.776009 0
M  V30 16525 H 1558.81 0.751684 0.0590568 0
M  V30 16526 H 1561.46 1.74998 -0.552079 0
M  V30 16527 H 1559.84 3.81077 1.07687 0
M  V30 16528 H 1561.02 4.26444 -1.74592 0
M  V30 16529 H 1559.33 3.9107 -1.43015 0
M  V30 16530 H 1561.93 5.25138 1.0067 0
M  V30 16531 H 1562.27 3.7442 1.81977 0
M  V30 16532 H 1562.8 3.97565 0.136836 0
M  V30 16533 H 1559.54 6.32343 -1.7269 0
M  V30 16534 H 1559.06 5.99783 -0.0455544 0
M  V30 16535 H 1560.74 6.45609 -0.424095 0
M  V30 16536 N 1560.87 0.155222 1.56834 0
M  V30 16537 C 1561.84 -0.767266 2.15976 0
M  V30 16538 C 1562.84 -1.16946 1.10364 0
M  V30 16539 O 1564.03 -1.08905 1.35961 0
M  V30 16540 C 1561.16 -2.04226 2.72956 0
M  V30 16541 H 1562.35 -0.252662 2.98834 0
M  V30 16542 H 1559.9 -0.0942677 1.56015 0
M  V30 16543 H 1560.64 -2.60033 1.93787 0
M  V30 16544 H 1560.42 -1.76299 3.5023 0
M  V30 16545 H 1561.91 -2.70093 3.18495 0
M  V30 16546 N 1562.35 -1.57153 -0.118549 0
M  V30 16547 C 1563.6 -1.8515 -0.82748 0
M  V30 16548 C 1563.93 -0.741026 -1.79506 0
M  V30 16549 O 1563.21 0.253095 -1.92846 0
M  V30 16550 C 1563.49 -3.23734 -1.57698 0
M  V30 16551 C 1563.34 -4.45381 -0.628967 0
M  V30 16552 C 1564.66 -3.59895 -2.53305 0
M  V30 16553 H 1561.78 -0.673459 -0.29937 0
M  V30 16554 H 1564.42 -1.89778 -0.0917198 0
M  V30 16555 H 1562.57 -3.19919 -2.20418 0
M  V30 16556 H 1564.24 -4.61299 -0.0105746 0
M  V30 16557 H 1562.49 -4.33759 0.059462 0
M  V30 16558 H 1563.16 -5.3902 -1.19004 0
M  V30 16559 H 1565.63 -3.64503 -2.0069 0
M  V30 16560 H 1564.51 -4.57839 -3.02778 0
M  V30 16561 H 1564.77 -2.87338 -3.3599 0
M  V30 16562 N 1563.83 0.388742 -1.5273 0
M  V30 16563 C 1565.08 1.13543 -1.68035 0
M  V30 16564 C 1565.41 1.89622 -0.419177 0
M  V30 16565 O 1564.68 1.85556 0.583031 0
M  V30 16566 C 1564.97 2.11346 -2.91556 0
M  V30 16567 C 1564.82 1.39029 -4.27775 0
M  V30 16568 C 1566.14 3.11769 -3.10625 0
M  V30 16569 H 1563.26 0.411406 -0.611485 0
M  V30 16570 H 1565.9 0.418781 -1.85327 0
M  V30 16571 H 1564.05 2.7246 -2.76944 0
M  V30 16572 H 1565.72 0.808775 -4.54155 0
M  V30 16573 H 1563.96 0.692133 -4.28243 0
M  V30 16574 H 1564.64 2.10495 -5.1029 0
M  V30 16575 H 1567.11 2.60745 -3.2427 0
M  V30 16576 H 1565.99 3.77447 -3.98529 0
M  V30 16577 H 1566.25 3.80649 -2.24853 0
M  V30 16578 N 1565.31 1.43698 0.647203 0
M  V30 16579 C 1566.54 1.49085 1.43462 0
M  V30 16580 C 1566.95 0.110605 1.88476 0
M  V30 16581 O 1566.31 -0.880365 1.59862 0
M  V30 16582 C 1566.36 2.44186 2.66562 0
M  V30 16583 O 1566.08 3.76844 2.23429 0
M  V30 16584 C 1567.58 2.58876 3.59858 0
M  V30 16585 H 1564.8 0.506148 0.440517 0
M  V30 16586 H 1567.34 1.88502 0.792931 0
M  V30 16587 H 1565.5 2.07949 3.26858 0
M  V30 16588 H 1565.91 4.2804 3.0312 0
M  V30 16589 H 1567.39 3.29482 4.42883 0
M  V30 16590 H 1567.86 1.63567 4.07606 0
M  V30 16591 H 1568.47 2.95949 3.05441 0
M  V30 16592 N 1566.79 -0.886131 1.30328 0
M  V30 16593 C 1567.73 -1.99174 1.16612 0
M  V30 16594 C 1568.7 -1.66006 0.0559202 0
M  V30 16595 O 1569.89 -1.89458 0.225897 0
M  V30 16596 C 1567.03 -3.34142 0.862726 0
M  V30 16597 C 1566.14 -3.80008 2.05469 0
M  V30 16598 C 1565.28 -5.03617 1.68949 0
M  V30 16599 C 1564.32 -5.41888 2.84647 0
M  V30 16600 N 1563.45 -6.56678 2.48431 0
M  V30 16601 H 1568.29 -2.10238 2.11197 0
M  V30 16602 H 1565.83 -1.02941 1.05079 0
M  V30 16603 H 1567.79 -4.11826 0.667447 0
M  V30 16604 H 1566.42 -3.22767 -0.0462461 0
M  V30 16605 H 1565.47 -2.98243 2.36126 0
M  V30 16606 H 1566.78 -4.04312 2.92119 0
M  V30 16607 H 1565.94 -5.88923 1.45789 0
M  V30 16608 H 1564.67 -4.81182 0.794674 0
M  V30 16609 H 1563.68 -4.55109 3.08474 0
M  V30 16610 H 1564.9 -5.66296 3.74813 0
M  V30 16611 H 1562.85 -6.35821 1.61453 0
M  V30 16612 H 1562.77 -6.80846 3.28611 0
M  V30 16613 H 1564.04 -7.45219 2.28624 0
M  V30 16614 N 1568.26 -1.13026 -1.09832 0
M  V30 16615 C 1569.68 -0.867598 -1.33959 0
M  V30 16616 C 1569.88 0.499047 -1.95222 0
M  V30 16617 O 1568.94 1.24644 -2.19591 0
M  V30 16618 C 1570.25 -1.98893 -2.25526 0
M  V30 16619 C 1571.8 -2.02054 -2.39047 0
M  V30 16620 C 1572.27 -3.13438 -3.33947 0
M  V30 16621 N 1573.76 -3.12921 -3.41518 0
M  V30 16622 C 1574.5 -3.95746 -4.14937 0
M  V30 16623 N 1573.99 -4.88574 -4.91189 0
M  V30 16624 N 1575.79 -3.8386 -4.10619 0
M  V30 16625 H 1567.94 -2.01072 -0.684382 0
M  V30 16626 H 1570.2 -0.875341 -0.363982 0
M  V30 16627 H 1569.91 -2.97405 -1.87731 0
M  V30 16628 H 1569.78 -1.89948 -3.25883 0
M  V30 16629 H 1572.17 -1.04158 -2.76107 0
M  V30 16630 H 1572.25 -2.15072 -1.38483 0
M  V30 16631 H 1571.89 -4.11571 -2.9761 0
M  V30 16632 H 1571.82 -2.97658 -4.34405 0
M  V30 16633 H 1574.31 -2.45677 -2.87144 0
M  V30 16634 H 1574.63 -5.48269 -5.44629 0
M  V30 16635 H 1572.97 -4.92583 -4.90292 0
M  V30 16636 H 1576.16 -3.10669 -3.50146 0
M  V30 16637 H 1576.34 -4.48637 -4.67577 0
M  V30 16638 N 1569.74 1.27735 -0.923117 0
M  V30 16639 C 1570.65 2.30734 -0.424124 0
M  V30 16640 C 1571.67 1.66872 0.49291 0
M  V30 16641 O 1572.84 1.97843 0.37683 0
M  V30 16642 C 1569.91 3.45227 0.319254 0
M  V30 16643 C 1568.97 4.2462 -0.632137 0
M  V30 16644 C 1568.2 5.33646 0.0758596 0
M  V30 16645 O 1568.43 5.55481 1.29602 0
M  V30 16646 O 1567.36 5.98966 -0.593624 0
M  V30 16647 H 1571.19 2.75444 -1.27923 0
M  V30 16648 H 1568.77 1.32601 -0.688288 0
M  V30 16649 H 1570.65 4.14874 0.73873 0
M  V30 16650 H 1569.33 3.02582 1.15004 0
M  V30 16651 H 1568.24 3.57525 -1.1012 0
M  V30 16652 H 1569.57 4.70969 -1.43001 0
M  V30 16653 N 1571.22 0.688118 1.41784 0
M  V30 16654 C 1572.64 0.358943 1.55511 0
M  V30 16655 C 1572.84 -1.13469 1.66514 0
M  V30 16656 O 1571.89 -1.92039 1.63943 0
M  V30 16657 C 1573.21 1.10094 2.79821 0
M  V30 16658 C 1574.75 1.08456 2.93609 0
M  V30 16659 C 1575.23 1.80815 4.20797 0
M  V30 16660 N 1576.72 1.77748 4.27738 0
M  V30 16661 C 1577.45 2.30581 5.24995 0
M  V30 16662 N 1576.95 2.91854 6.28326 0
M  V30 16663 N 1578.74 2.2088 5.16884 0
M  V30 16664 H 1570.89 1.65695 1.32886 0
M  V30 16665 H 1573.16 0.698818 0.640592 0
M  V30 16666 H 1572.86 2.15589 2.77874 0
M  V30 16667 H 1572.74 0.674713 3.71117 0
M  V30 16668 H 1575.12 0.0378955 2.95076 0
M  V30 16669 H 1575.21 1.54978 2.03508 0
M  V30 16670 H 1574.85 2.85457 4.20092 0
M  V30 16671 H 1574.78 1.31732 5.09857 0
M  V30 16672 H 1577.27 1.33069 3.53696 0
M  V30 16673 H 1577.58 3.29755 6.98915 0
M  V30 16674 H 1575.93 2.95929 6.28849 0
M  V30 16675 H 1579.12 1.72689 4.35082 0
M  V30 16676 H 1579.29 2.62359 5.92513 0
M  V30 16677 N 1572.7 -1.51554 0.432352 0
M  V30 16678 C 1573.92 -2.06947 -0.136995 0
M  V30 16679 C 1574.35 -1.29817 -1.36122 0
M  V30 16680 O 1573.71 -0.334733 -1.78183 0
M  V30 16681 C 1573.75 -3.57871 -0.442785 0
M  V30 16682 O 1572.86 -3.82966 -1.53007 0
M  V30 16683 H 1572.2 -0.663988 -0.00405152 0
M  V30 16684 H 1574.73 -1.95225 0.612249 0
M  V30 16685 H 1574.74 -4.02042 -0.694694 0
M  V30 16686 H 1573.41 -4.13436 0.452013 0
M  V30 16687 H 1571.99 -3.50661 -1.26851 0
M  V30 16688 N 1574.18 -0.163538 -1.56749 0
M  V30 16689 C 1575.12 0.769787 -2.17584 0
M  V30 16690 C 1576.09 1.23246 -1.11354 0
M  V30 16691 O 1577.28 1.30203 -1.3947 0
M  V30 16692 C 1574.42 1.99685 -2.81461 0
M  V30 16693 C 1573.53 1.57846 -4.0213 0
M  V30 16694 C 1572.67 2.75858 -4.53955 0
M  V30 16695 C 1571.71 2.30473 -5.67053 0
M  V30 16696 N 1570.84 3.41551 -6.13423 0
M  V30 16697 H 1575.68 0.244221 -2.96998 0
M  V30 16698 H 1573.22 0.108821 -1.46697 0
M  V30 16699 H 1575.18 2.71643 -3.16648 0
M  V30 16700 H 1573.81 2.49624 -2.04664 0
M  V30 16701 H 1572.86 0.755907 -3.72814 0
M  V30 16702 H 1574.17 1.20525 -4.8402 0
M  V30 16703 H 1573.33 3.55984 -4.91284 0
M  V30 16704 H 1572.06 3.16434 -3.71107 0
M  V30 16705 H 1571.07 1.48791 -5.29284 0
M  V30 16706 H 1572.29 1.90964 -6.51698 0
M  V30 16707 H 1570.24 3.81717 -5.33506 0
M  V30 16708 H 1570.16 3.08298 -6.90281 0
M  V30 16709 H 1571.43 4.21985 -6.554 0
M  V30 16710 N 1575.65 1.57214 0.110213 0
M  V30 16711 C 1576.9 1.85586 0.817649 0
M  V30 16712 C 1577.23 0.750536 1.79111 0
M  V30 16713 O 1576.51 -0.242864 1.92978 0
M  V30 16714 C 1576.79 3.24565 1.55979 0
M  V30 16715 C 1576.64 4.45708 0.605339 0
M  V30 16716 C 1577.96 3.61233 2.51393 0
M  V30 16717 H 1575.08 0.675037 0.295794 0
M  V30 16718 H 1577.72 1.89824 0.0816541 0
M  V30 16719 H 1575.87 3.21083 2.18718 0
M  V30 16720 H 1577.55 4.61298 -0.0138894 0
M  V30 16721 H 1575.79 4.33722 -0.0824644 0
M  V30 16722 H 1576.46 5.39643 1.16143 0
M  V30 16723 H 1578.94 3.65563 1.98754 0
M  V30 16724 H 1577.81 4.59438 3.00346 0
M  V30 16725 H 1578.07 2.89116 3.34461 0
M  V30 16726 N 1577.13 -0.380637 1.52934 0
M  V30 16727 C 1578.54 -0.958182 1.60237 0
M  V30 16728 C 1578.89 -1.90722 0.460393 0
M  V30 16729 O 1578.02 -2.12376 -0.415354 0
M  V30 16730 C 1578.61 -1.7446 2.90429 0
M  V30 16731 C 1577.17 -2.27172 3.00116 0
M  V30 16732 C 1576.32 -1.07969 2.55417 0
M  V30 16733 H 1579.27 -0.159908 1.57892 0
M  V30 16734 H 1579.29 -2.60456 2.77385 0
M  V30 16735 H 1578.8 -1.05362 3.73524 0
M  V30 16736 H 1576.91 -2.99557 2.21577 0
M  V30 16737 H 1577.02 -2.56086 4.04916 0
M  V30 16738 H 1575.38 -1.4422 2.09935 0
M  V30 16739 H 1576.17 -0.403925 3.40915 0
M  V30 16740 N 1578.61 -1.44039 -0.639573 0
M  V30 16741 C 1579.84 -1.49626 -1.42462 0
M  V30 16742 C 1580.25 -0.117078 -1.88837 0
M  V30 16743 O 1579.59 0.885666 -1.6094 0
M  V30 16744 C 1579.65 -2.39182 -2.68388 0
M  V30 16745 C 1579.32 -3.86496 -2.43865 0
M  V30 16746 C 1580.31 -4.7725 -2.06224 0
M  V30 16747 C 1578 -4.31117 -2.57766 0
M  V30 16748 C 1579.99 -6.10625 -1.82801 0
M  V30 16749 C 1577.68 -5.64541 -2.33958 0
M  V30 16750 C 1578.68 -6.54113 -1.96533 0
M  V30 16751 O 1578.37 -7.85068 -1.72983 0
M  V30 16752 H 1578.1 -0.510054 -0.443645 0
M  V30 16753 H 1580.65 -1.89593 -0.790162 0
M  V30 16754 H 1578.88 -1.94127 -3.34442 0
M  V30 16755 H 1580.57 -2.35816 -3.30372 0
M  V30 16756 H 1581.34 -4.44051 -1.95048 0
M  V30 16757 H 1577.22 -3.61663 -2.85868 0
M  V30 16758 H 1580.76 -6.80499 -1.53514 0
M  V30 16759 H 1576.66 -5.97304 -2.44741 0
M  V30 16760 H 1577.43 -7.96782 -1.87298 0
M  V30 16761 N 1580.09 0.879207 -1.30796 0
M  V30 16762 C 1581.34 1.62625 -1.19315 0
M  V30 16763 C 1581.65 1.93999 0.249731 0
M  V30 16764 O 1582.86 2.67112 0.486129 0
M  V30 16765 C 1581.31 2.93129 -2.08815 0
M  V30 16766 C 1580.92 2.69272 -3.58045 0
M  V30 16767 C 1582.66 3.71105 -2.0611 0
M  V30 16768 C 1580.57 3.95628 -4.39582 0
M  V30 16769 H 1579.5 0.61015 -0.442981 0
M  V30 16770 H 1582.15 0.972892 -1.55586 0
M  V30 16771 H 1580.53 3.59789 -1.65432 0
M  V30 16772 H 1581.71 2.11078 -4.09613 0
M  V30 16773 H 1580.02 2.04664 -3.62632 0
M  V30 16774 H 1582.62 4.64824 -2.64277 0
M  V30 16775 H 1582.96 4.02946 -1.04597 0
M  V30 16776 H 1583.5 3.11315 -2.47644 0
M  V30 16777 H 1580.24 3.68943 -5.41813 0
M  V30 16778 H 1579.76 4.53307 -3.92775 0
M  V30 16779 H 1581.43 4.63597 -4.51317 0
M  V30 16780 N 1581.57 1.13606 1.09231 0
M  V30 16781 C 1582.81 0.900386 1.81717 0
M  V30 16782 C 1583.15 -0.571984 1.85586 0
M  V30 16783 O 1582.42 -1.42336 1.32554 0
M  V30 16784 C 1582.7 1.49143 3.27763 0
M  V30 16785 C 1582.56 3.03306 3.32153 0
M  V30 16786 C 1583.88 1.16129 4.24502 0
M  V30 16787 H 1581 0.328531 0.659724 0
M  V30 16788 H 1583.64 1.40467 1.27941 0
M  V30 16789 H 1581.79 1.06256 3.73687 0
M  V30 16790 H 1583.46 3.54963 2.94617 0
M  V30 16791 H 1581.7 3.38192 2.71677 0
M  V30 16792 H 1582.37 3.39761 4.35047 0
M  V30 16793 H 1584.85 1.53193 3.86874 0
M  V30 16794 H 1583.73 1.60129 5.25024 0
M  V30 16795 H 1583.99 0.0752973 4.42036 0
M  V30 16796 N 1583.05 -1.27244 0.929878 0
M  V30 16797 C 1584.46 -1.4662 0.630451 0
M  V30 16798 C 1584.66 -1.84077 -0.819633 0
M  V30 16799 O 1583.72 -1.95555 -1.59733 0
M  V30 16800 C 1585.03 -2.55709 1.58219 0
M  V30 16801 C 1586.58 -2.69569 1.59065 0
M  V30 16802 C 1587.05 -3.81818 2.52941 0
M  V30 16803 N 1588.54 -3.89195 2.51161 0
M  V30 16804 C 1589.28 -4.75474 3.20488 0
M  V30 16805 N 1588.78 -5.66225 3.99201 0
M  V30 16806 N 1590.57 -4.69222 3.09495 0
M  V30 16807 H 1582.72 -1.01216 1.86733 0
M  V30 16808 H 1584.98 -0.505737 0.801832 0
M  V30 16809 H 1584.69 -2.34985 2.61677 0
M  V30 16810 H 1584.56 -3.53141 1.32556 0
M  V30 16811 H 1586.95 -2.89672 0.563375 0
M  V30 16812 H 1587.03 -1.72616 1.88778 0
M  V30 16813 H 1586.67 -3.62467 3.55781 0
M  V30 16814 H 1586.6 -4.78202 2.20524 0
M  V30 16815 H 1589.1 -3.24305 1.93997 0
M  V30 16816 H 1589.41 -6.28925 4.4908 0
M  V30 16817 H 1587.75 -5.66013 4.03304 0
M  V30 16818 H 1590.94 -3.97322 2.47493 0
M  V30 16819 H 1591.12 -5.36244 3.63794 0
M  V30 16820 N 1584.52 -0.695628 -1.41417 0
M  V30 16821 C 1585.46 0.00883515 -2.29198 0
M  V30 16822 C 1586.47 0.744337 -1.44788 0
M  V30 16823 O 1587.66 0.59503 -1.6829 0
M  V30 16824 C 1584.76 1.0366 -3.22657 0
M  V30 16825 C 1583.93 0.37071 -4.35826 0
M  V30 16826 C 1582.99 1.3011 -5.09861 0
M  V30 16827 O 1582.02 0.793461 -5.63642 0
M  V30 16828 N 1583.22 2.63343 -5.1733 0
M  V30 16829 H 1585.98 -0.744795 -2.90298 0
M  V30 16830 H 1583.54 -0.541663 -1.5257 0
M  V30 16831 H 1585.54 1.66075 -3.69054 0
M  V30 16832 H 1584.11 1.69177 -2.62865 0
M  V30 16833 H 1583.33 -0.433315 -3.91811 0
M  V30 16834 H 1584.61 -0.0923178 -5.08716 0
M  V30 16835 H 1584.01 3.07103 -4.75083 0
M  V30 16836 H 1582.57 3.20952 -5.67303 0
M  V30 16837 N 1586 1.51322 -0.440383 0
M  V30 16838 C 1587.24 2.04022 0.124196 0
M  V30 16839 C 1587.61 1.31715 1.39697 0
M  V30 16840 O 1588.81 1.74804 2.04198 0
M  V30 16841 C 1587.08 3.55829 0.334744 0
M  V30 16842 S 1588.64 4.30244 0.862291 0
M  V30 16843 H 1585.45 0.710349 0.0304204 0
M  V30 16844 H 1588.06 1.86049 -0.600487 0
M  V30 16845 H 1586.76 4.06022 -0.597876 0
M  V30 16846 H 1586.29 3.78101 1.08642 0
M  V30 16847 H 1588.31 4.47705 2.13951 0
M  V30 16848 N 1587.48 0.171848 1.5666 0
M  V30 16849 C 1588.73 -0.473669 1.97191 0
M  V30 16850 C 1589.06 -1.6286 1.05784 0
M  V30 16851 O 1588.33 -1.94216 0.105084 0
M  V30 16852 C 1588.62 -0.956134 3.47174 0
M  V30 16853 C 1588.47 0.199007 4.4936 0
M  V30 16854 C 1589.79 -1.82962 4.00266 0
M  V30 16855 H 1586.91 -0.170704 0.716958 0
M  V30 16856 H 1589.55 0.25809 1.88239 0
M  V30 16857 H 1587.7 -1.57969 3.54934 0
M  V30 16858 H 1589.37 0.836109 4.53659 0
M  V30 16859 H 1587.61 0.85442 4.25302 0
M  V30 16860 H 1588.29 -0.180704 5.51704 0
M  V30 16861 H 1590.76 -1.30394 3.95141 0
M  V30 16862 H 1589.64 -2.13621 5.05625 0
M  V30 16863 H 1589.9 -2.77557 3.44114 0
M  V30 16864 N 1588.96 -1.5727 -0.101874 0
M  V30 16865 C 1589.87 -2.04896 -1.14257 0
M  V30 16866 C 1590.88 -0.972561 -1.44282 0
M  V30 16867 O 1592.06 -1.28526 -1.55058 0
M  V30 16868 C 1589.12 -2.45818 -2.44488 0
M  V30 16869 C 1588.19 -3.6762 -2.21707 0
M  V30 16870 C 1587.42 -4.06581 -3.45728 0
M  V30 16871 O 1587.64 -3.45702 -4.53703 0
M  V30 16872 O 1586.58 -4.99578 -3.35716 0
M  V30 16873 H 1590.4 -2.93827 -0.768085 0
M  V30 16874 H 1587.99 -1.46065 -0.313902 0
M  V30 16875 H 1589.87 -2.72796 -3.21186 0
M  V30 16876 H 1588.54 -1.60028 -2.81377 0
M  V30 16877 H 1587.45 -3.45768 -1.42812 0
M  V30 16878 H 1588.78 -4.54169 -1.89714 0
M  V30 16879 N 1590.44 0.372521 -1.53134 0
M  V30 16880 C 1591.35 1.47994 -1.8203 0
M  V30 16881 C 1592.36 1.58937 -0.708179 0
M  V30 16882 O 1593.54 1.74962 -0.997511 0
M  V30 16883 C 1590.6 2.83342 -1.99796 0
M  V30 16884 C 1589.66 2.81984 -3.23702 0
M  V30 16885 C 1588.9 4.10877 -3.40611 0
M  V30 16886 O 1589.12 5.06686 -2.61964 0
M  V30 16887 O 1588.05 4.17111 -4.33938 0
M  V30 16888 H 1591.88 1.26501 -2.761 0
M  V30 16889 H 1589.46 0.561957 -1.38428 0
M  V30 16890 H 1591.35 3.63551 -2.13092 0
M  V30 16891 H 1590.02 3.04826 -1.08916 0
M  V30 16892 H 1588.93 2.00498 -3.15834 0
M  V30 16893 H 1590.26 2.65453 -4.14482 0
M  V30 16894 N 1591.91 1.44376 0.631925 0
M  V30 16895 C 1593.16 1.46398 1.38747 0
M  V30 16896 C 1593.48 0.100149 1.95343 0
M  V30 16897 O 1594.68 -0.00210908 2.715 0
M  V30 16898 C 1593.14 2.57731 2.51203 0
M  V30 16899 C 1592.75 4.00317 2.01123 0
M  V30 16900 C 1594.49 2.68972 3.28412 0
M  V30 16901 C 1592.4 5.03075 3.10917 0
M  V30 16902 H 1591.33 0.544667 0.521396 0
M  V30 16903 H 1593.98 1.70439 0.679912 0
M  V30 16904 H 1592.36 2.26928 3.2453 0
M  V30 16905 H 1593.53 4.40683 1.34666 0
M  V30 16906 H 1591.85 3.93311 1.36732 0
M  V30 16907 H 1594.45 3.42916 4.10259 0
M  V30 16908 H 1594.79 1.74762 3.77841 0
M  V30 16909 H 1595.32 2.9918 2.62176 0
M  V30 16910 H 1592.06 5.98911 2.66433 0
M  V30 16911 H 1591.58 4.67302 3.76017 0
M  V30 16912 H 1593.26 5.2674 3.75705 0
M  V30 16913 N 1593.39 -0.872258 1.31261 0
M  V30 16914 C 1594.3 -2.01185 1.20673 0
M  V30 16915 C 1595.32 -1.73558 0.123921 0
M  V30 16916 O 1596.49 -1.98487 0.341288 0
M  V30 16917 C 1593.56 -3.34481 0.91232 0
M  V30 16918 C 1592.62 -3.75446 2.08179 0
M  V30 16919 C 1591.85 -5.02382 1.80134 0
M  V30 16920 O 1592.08 -5.6564 0.735358 0
M  V30 16921 O 1591.01 -5.40059 2.65744 0
M  V30 16922 H 1594.84 -2.13049 2.16434 0
M  V30 16923 H 1592.42 -1.00021 1.10978 0
M  V30 16924 H 1594.3 -4.14419 0.763879 0
M  V30 16925 H 1592.98 -3.23696 -0.0152802 0
M  V30 16926 H 1591.88 -2.96159 2.28562 0
M  V30 16927 H 1593.22 -3.90853 2.99156 0
M  V30 16928 N 1594.87 -1.14184 -1.08627 0
M  V30 16929 C 1596.29 -0.881757 -1.33031 0
M  V30 16930 C 1596.49 0.478313 -1.95741 0
M  V30 16931 O 1595.54 1.22308 -2.209 0
M  V30 16932 C 1596.85 -2.01274 -2.23404 0
M  V30 16933 C 1598.4 -2.04578 -2.3689 0
M  V30 16934 C 1598.88 -3.16962 -3.30604 0
M  V30 16935 N 1600.37 -3.16526 -3.3818 0
M  V30 16936 C 1601.1 -4.00124 -4.10716 0
M  V30 16937 N 1600.6 -4.93757 -4.8598 0
M  V30 16938 N 1602.39 -3.88193 -4.06525 0
M  V30 16939 H 1594.54 -2.01787 -0.663017 0
M  V30 16940 H 1596.81 -0.879152 -0.354677 0
M  V30 16941 H 1596.51 -2.9938 -1.84566 0
M  V30 16942 H 1596.39 -1.93393 -3.2385 0
M  V30 16943 H 1598.77 -1.0708 -2.74987 0
M  V30 16944 H 1598.85 -2.16529 -1.36194 0
M  V30 16945 H 1598.5 -4.14704 -2.93228 0
M  V30 16946 H 1598.43 -3.02248 -4.31223 0
M  V30 16947 H 1600.92 -2.48708 -2.84522 0
M  V30 16948 H 1601.23 -5.54015 -5.38783 0
M  V30 16949 H 1599.58 -4.97756 -4.8504 0
M  V30 16950 H 1602.77 -3.14365 -3.46831 0
M  V30 16951 H 1602.94 -4.53571 -4.62793 0
M  V30 16952 N 1596.35 1.26749 -0.936613 0
M  V30 16953 C 1597.76 1.46284 -0.638218 0
M  V30 16954 C 1597.96 1.84509 0.80986 0
M  V30 16955 O 1597.02 1.96399 1.58693 0
M  V30 16956 C 1598.33 2.54867 -1.59573 0
M  V30 16957 C 1599.88 2.68721 -1.60493 0
M  V30 16958 C 1600.36 3.80471 -2.54963 0
M  V30 16959 N 1601.85 3.87857 -2.53221 0
M  V30 16960 C 1602.58 4.73767 -3.23005 0
M  V30 16961 N 1602.08 5.641 -4.02198 0
M  V30 16962 N 1603.87 4.67574 -3.11979 0
M  V30 16963 H 1596.02 1.00224 -1.87267 0
M  V30 16964 H 1598.29 0.501478 -0.804502 0
M  V30 16965 H 1597.99 2.33594 -2.62919 0
M  V30 16966 H 1597.87 3.52433 -1.34427 0
M  V30 16967 H 1600.25 2.8937 -0.578729 0
M  V30 16968 H 1600.33 1.71613 -1.89691 0
M  V30 16969 H 1599.98 3.60575 -3.57698 0
M  V30 16970 H 1599.91 4.77026 -2.23056 0
M  V30 16971 H 1602.4 3.23272 -1.95714 0
M  V30 16972 H 1602.71 6.26535 -4.52409 0
M  V30 16973 H 1601.06 5.63866 -4.063 0
M  V30 16974 H 1604.25 3.96004 -2.49596 0
M  V30 16975 H 1604.42 5.34308 -3.66633 0
M  V30 16976 N 1597.83 0.703118 1.41046 0
M  V30 16977 C 1599.07 0.236818 2.00708 0
M  V30 16978 C 1599.4 -1.17008 1.55994 0
M  V30 16979 O 1598.67 -1.79094 0.793871 0
M  V30 16980 H 1597.25 0.0845643 0.742198 0
M  V30 16981 H 1599.91 0.905964 1.72564 0
M  V30 16982 H 1599 0.260141 3.11014 0
M  V30 16983 N 1599.3 -1.51086 0.448402 0
M  V30 16984 C 1600.24 -2.24615 -0.402921 0
M  V30 16985 C 1601.22 -1.26994 -1.01544 0
M  V30 16986 O 1602.4 -1.56159 -1.05577 0
M  V30 16987 C 1599.53 -3.00504 -1.56253 0
M  V30 16988 C 1598.57 -4.1287 -1.06961 0
M  V30 16989 S 1599.41 -5.355 -0.00265176 0
M  V30 16990 C 1600.56 -6.14931 -1.16667 0
M  V30 16991 H 1600.79 -2.96475 0.221298 0
M  V30 16992 H 1598.33 -1.52631 0.23303 0
M  V30 16993 H 1600.29 -3.44824 -2.22726 0
M  V30 16994 H 1598.95 -2.28212 -2.15819 0
M  V30 16995 H 1598.14 -4.65288 -1.93708 0
M  V30 16996 H 1597.74 -3.70869 -0.48296 0
M  V30 16997 H 1600.03 -6.44688 -2.08286 0
M  V30 16998 H 1600.98 -7.04806 -0.682223 0
M  V30 16999 H 1601.38 -5.46601 -1.41024 0
M  V30 17000 N 1600.78 -0.180154 -1.56567 0
M  V30 17001 C 1601.69 0.758959 -2.21984 0
M  V30 17002 C 1602.71 1.24631 -1.21422 0
M  V30 17003 O 1603.88 1.29659 -1.54112 0
M  V30 17004 C 1600.95 1.96744 -2.85469 0
M  V30 17005 C 1600.01 1.52612 -4.01258 0
M  V30 17006 C 1599.24 2.677 -4.61706 0
M  V30 17007 O 1599.47 3.84799 -4.21054 0
M  V30 17008 O 1598.4 2.41269 -5.51428 0
M  V30 17009 H 1602.23 0.231919 -3.02813 0
M  V30 17010 H 1599.81 0.0484552 -1.49321 0
M  V30 17011 H 1601.69 2.67404 -3.25689 0
M  V30 17012 H 1600.37 2.48337 -2.0763 0
M  V30 17013 H 1599.28 0.78877 -3.6569 0
M  V30 17014 H 1600.61 1.05701 -4.80716 0
M  V30 17015 N 1602.26 1.57322 0.0935319 0
M  V30 17016 C 1603.17 2.05499 1.13169 0
M  V30 17017 C 1604.19 0.980199 1.43764 0
M  V30 17018 O 1605.36 1.29347 1.54374 0
M  V30 17019 C 1602.43 2.47111 2.43181 0
M  V30 17020 C 1601.49 3.68791 2.19754 0
M  V30 17021 C 1600.72 4.08408 3.43567 0
M  V30 17022 O 1600.94 3.48104 4.51863 0
M  V30 17023 O 1599.88 5.01351 3.33062 0
M  V30 17024 H 1603.7 2.9423 0.752491 0
M  V30 17025 H 1601.29 1.4623 0.306151 0
M  V30 17026 H 1603.17 2.74495 3.19735 0
M  V30 17027 H 1601.85 1.61518 2.80524 0
M  V30 17028 H 1600.75 3.46521 1.40976 0
M  V30 17029 H 1602.09 4.55169 1.87303 0
M  V30 17030 N 1603.74 -0.364395 1.53329 0
M  V30 17031 C 1604.98 -1.10855 1.6982 0
M  V30 17032 C 1605.32 -1.88931 0.449291 0
M  V30 17033 O 1604.59 -1.8646 -0.553437 0
M  V30 17034 C 1604.88 -2.06681 2.94881 0
M  V30 17035 C 1604.73 -1.32206 4.29932 0
M  V30 17036 C 1606.05 -3.06788 3.15546 0
M  V30 17037 H 1603.17 -0.401626 0.617953 0
M  V30 17038 H 1605.81 -0.389244 1.8597 0
M  V30 17039 H 1603.96 -2.68019 2.81244 0
M  V30 17040 H 1605.63 -0.73642 4.55384 0
M  V30 17041 H 1603.87 -0.623916 4.2929 0
M  V30 17042 H 1604.54 -2.0235 5.13574 0
M  V30 17043 H 1607.02 -2.55554 3.28377 0
M  V30 17044 H 1605.9 -3.71059 4.04483 0
M  V30 17045 H 1606.16 -3.77023 2.3088 0
M  V30 17046 N 1605.22 -1.44709 -0.62426 0
M  V30 17047 C 1606.46 -1.47561 -1.38094 0
M  V30 17048 C 1606.79 -0.112115 -1.94677 0
M  V30 17049 O 1606.06 0.856458 -1.76186 0
M  V30 17050 H 1604.64 -0.543368 -0.512601 0
M  V30 17051 H 1607.3 -1.8054 -0.734258 0
M  V30 17052 H 1606.39 -2.20496 -2.2088 0
M  V30 17053 N 1606.69 0.865285 -1.31722 0
M  V30 17054 C 1607.94 1.6135 -1.21033 0
M  V30 17055 C 1608.26 1.94253 0.229141 0
M  V30 17056 O 1609.46 2.67613 0.457771 0
M  V30 17057 C 1607.92 2.90898 -2.11912 0
M  V30 17058 C 1607.53 2.6546 -3.60881 0
M  V30 17059 C 1609.27 3.68898 -2.10035 0
M  V30 17060 C 1607.18 3.90943 -4.43754 0
M  V30 17061 H 1606.11 0.605418 -0.449428 0
M  V30 17062 H 1608.76 0.956335 -1.56609 0
M  V30 17063 H 1607.14 3.58014 -1.69239 0
M  V30 17064 H 1608.31 2.06721 -4.11829 0
M  V30 17065 H 1606.63 2.00806 -3.64782 0
M  V30 17066 H 1609.23 4.61995 -2.69193 0
M  V30 17067 H 1609.57 4.01813 -1.08865 0
M  V30 17068 H 1610.1 3.08671 -2.50932 0
M  V30 17069 H 1606.84 3.63176 -5.45696 0
M  V30 17070 H 1606.36 4.49116 -3.97561 0
M  V30 17071 H 1608.04 4.58784 -4.56208 0
M  V30 17072 N 1608.17 1.14759 1.0802 0
M  V30 17073 C 1609.4 0.940521 1.8395 0
M  V30 17074 C 1609.81 -0.514424 1.82072 0
M  V30 17075 O 1609.15 -1.36835 1.22564 0
M  V30 17076 C 1609.22 1.3689 3.32417 0
M  V30 17077 C 1608.88 2.84019 3.58025 0
M  V30 17078 C 1609.88 3.82117 3.52538 0
M  V30 17079 C 1607.56 3.21526 3.85909 0
M  V30 17080 C 1609.56 5.15728 3.74571 0
M  V30 17081 C 1607.24 4.55312 4.07596 0
M  V30 17082 C 1608.24 5.52222 4.01921 0
M  V30 17083 O 1607.93 6.83592 4.23034 0
M  V30 17084 H 1607.66 0.334505 0.587437 0
M  V30 17085 H 1610.21 1.52763 1.37305 0
M  V30 17086 H 1608.44 0.725149 3.7984 0
M  V30 17087 H 1610.13 1.13202 3.89795 0
M  V30 17088 H 1610.9 3.54486 3.31005 0
M  V30 17089 H 1606.78 2.46686 3.89444 0
M  V30 17090 H 1610.32 5.91357 3.70057 0
M  V30 17091 H 1606.22 4.82661 4.28613 0
M  V30 17092 H 1606.99 6.89909 4.40418 0
M  V30 17093 N 1609.65 -1.26251 0.943322 0
M  V30 17094 C 1611.07 -1.45943 0.645966 0
M  V30 17095 C 1611.27 -1.84936 -0.800064 0
M  V30 17096 O 1610.32 -1.97238 -1.57649 0
M  V30 17097 C 1611.64 -2.54017 1.60922 0
M  V30 17098 C 1613.18 -2.67866 1.61916 0
M  V30 17099 C 1613.66 -3.79113 2.56977 0
M  V30 17100 N 1615.15 -3.86509 2.55275 0
M  V30 17101 C 1615.88 -4.72048 3.25513 0
M  V30 17102 N 1615.38 -5.61959 4.05184 0
M  V30 17103 N 1617.17 -4.65913 3.14454 0
M  V30 17104 H 1609.32 -0.992295 1.87796 0
M  V30 17105 H 1611.59 -0.497204 0.80715 0
M  V30 17106 H 1611.29 -2.32197 2.64155 0
M  V30 17107 H 1611.17 -3.51715 1.36294 0
M  V30 17108 H 1613.55 -2.89059 0.594067 0
M  V30 17109 H 1613.64 -1.70604 1.90598 0
M  V30 17110 H 1613.28 -3.58673 3.59605 0
M  V30 17111 H 1613.21 -4.75836 2.25583 0
M  V30 17112 H 1615.7 -3.22229 1.97425 0
M  V30 17113 H 1616.01 -6.24127 4.55725 0
M  V30 17114 H 1614.36 -5.61704 4.09285 0
M  V30 17115 H 1617.55 -3.94675 2.51693 0
M  V30 17116 H 1617.72 -5.32356 3.69461 0
M  V30 17117 N 1611.13 -0.710588 -1.40671 0
M  V30 17118 C 1612.38 -0.248316 -2.01274 0
M  V30 17119 C 1612.71 1.1539 -1.56201 0
M  V30 17120 O 1611.98 1.78182 -0.779838 0
M  V30 17121 C 1612.27 -0.322762 -3.58651 0
M  V30 17122 C 1612.12 -1.763 -4.1381 0
M  V30 17123 C 1613.44 0.308908 -4.39015 0
M  V30 17124 H 1610.56 -0.0917037 -0.731272 0
M  V30 17125 H 1613.2 -0.902145 -1.67216 0
M  V30 17126 H 1611.35 0.233923 -3.87795 0
M  V30 17127 H 1613.02 -2.37468 -3.95483 0
M  V30 17128 H 1611.26 -2.29233 -3.68286 0
M  V30 17129 H 1611.94 -1.76652 -5.22971 0
M  V30 17130 H 1614.41 -0.165363 -4.15771 0
M  V30 17131 H 1613.29 0.226347 -5.48433 0
M  V30 17132 H 1613.55 1.39174 -4.19622 0
M  V30 17133 N 1612.61 1.50847 -0.456408 0
M  V30 17134 C 1613.83 2.07139 0.104054 0
M  V30 17135 C 1614.26 1.31966 1.34039 0
M  V30 17136 O 1613.62 0.363038 1.77628 0
M  V30 17137 C 1613.66 3.5853 0.385794 0
M  V30 17138 O 1612.77 3.85351 1.46895 0
M  V30 17139 H 1612.11 0.663968 -0.00651246 0
M  V30 17140 H 1614.64 1.94226 -0.64323 0
M  V30 17141 H 1614.65 4.03097 0.630644 0
M  V30 17142 H 1613.32 4.12665 -0.51773 0
M  V30 17143 H 1611.9 3.52635 1.21256 0
M  V30 17144 N 1614.09 0.188454 1.56469 0
M  V30 17145 C 1615.33 -0.451165 1.97 0
M  V30 17146 C 1615.65 -1.6261 1.07624 0
M  V30 17147 O 1614.92 -1.95354 0.146125 0
M  V30 17148 H 1613.5 -0.16967 0.727476 0
M  V30 17149 H 1616.17 0.273638 1.9297 0
M  V30 17150 H 1615.26 -0.799741 3.0168 0
M  V30 17151 N 1615.56 -1.5737 -0.0851874 0
M  V30 17152 C 1616.81 -1.86864 -0.78802 0
M  V30 17153 C 1617.14 -0.778936 -1.77894 0
M  V30 17154 O 1616.42 0.212132 -1.9334 0
M  V30 17155 C 1616.7 -3.27006 -1.50795 0
M  V30 17156 C 1616.55 -4.46615 -0.534354 0
M  V30 17157 C 1617.87 -3.65187 -2.45614 0
M  V30 17158 H 1614.99 -0.679657 -0.285017 0
M  V30 17159 H 1617.63 -1.8993 -0.0514443 0
M  V30 17160 H 1615.78 -3.24522 -2.13583 0
M  V30 17161 H 1617.46 -4.61217 0.0872761 0
M  V30 17162 H 1615.7 -4.33536 0.151455 0
M  V30 17163 H 1616.37 -5.41423 -1.07544 0
M  V30 17164 H 1618.85 -3.68678 -1.92913 0
M  V30 17165 H 1617.72 -4.64158 -2.92999 0
M  V30 17166 H 1617.98 -2.944 -3.2982 0
M  V30 17167 N 1617.04 0.356258 -1.53521 0
M  V30 17168 C 1618 1.41975 -1.79933 0
M  V30 17169 C 1619 1.46177 -0.669997 0
M  V30 17170 O 1620.19 1.46774 -0.938239 0
M  V30 17171 C 1617.33 2.81015 -1.92985 0
M  V30 17172 H 1618.52 1.19824 -2.74922 0
M  V30 17173 H 1616.07 0.589928 -1.4474 0
M  V30 17174 H 1616.81 3.08466 -1.00095 0
M  V30 17175 H 1616.59 2.79363 -2.75135 0
M  V30 17176 H 1618.08 3.58013 -2.1498 0
M  V30 17177 N 1618.52 1.45038 0.616577 0
M  V30 17178 C 1619.75 1.52094 1.40267 0
M  V30 17179 C 1620.16 0.150558 1.88199 0
M  V30 17180 O 1619.52 -0.846258 1.61693 0
M  V30 17181 C 1619.57 2.49786 2.61322 0
M  V30 17182 O 1619.29 3.81498 2.15385 0
M  V30 17183 C 1620.79 2.66451 3.54286 0
M  V30 17184 H 1618.01 0.515378 0.429681 0
M  V30 17185 H 1620.56 1.90141 0.752768 0
M  V30 17186 H 1618.71 2.14835 3.22373 0
M  V30 17187 H 1619.13 4.34374 2.93972 0
M  V30 17188 H 1620.6 3.38802 4.35795 0
M  V30 17189 H 1621.08 1.72177 4.04044 0
M  V30 17190 H 1621.68 3.02362 2.99095 0
M  V30 17191 N 1620 -0.858287 1.32179 0
M  V30 17192 C 1621.27 -1.59548 1.13154 0
M  V30 17193 C 1621.65 -2.0882 -0.309439 0
M  V30 17194 O 1621 -1.87536 -1.30547 0
M  V30 17195 C 1621.21 -2.74443 2.15597 0
M  V30 17196 C 1622.56 -3.44115 2.48737 0
M  V30 17197 O 1623.58 -2.84664 2.14114 0
M  V30 17198 O 1622.44 -4.51389 3.08074 0
M  V30 17199 H 1619.54 -0.702481 0.436405 0
M  V30 17200 H 1622.08 -0.902731 1.43697 0
M  V30 17201 H 1620.86 -2.35533 3.12473 0
M  V30 17202 H 1620.48 -3.51397 1.86028 0
M  V30 17203 N 1621.48 -1.1533 -1.07409 0
M  V30 17204 C 1622.72 -0.922348 -1.79376 0
M  V30 17205 C 1623.04 0.551929 -1.87652 0
M  V30 17206 O 1624.24 0.900444 -2.56133 0
M  V30 17207 C 1622.7 -1.60081 -3.22339 0
M  V30 17208 C 1622.31 -3.11206 -3.22265 0
M  V30 17209 C 1624.05 -1.45138 -3.98917 0
M  V30 17210 C 1621.96 -3.71842 -4.59878 0
M  V30 17211 H 1620.89 -0.341438 -0.672262 0
M  V30 17212 H 1623.54 -1.38336 -1.20562 0
M  V30 17213 H 1621.92 -1.06748 -3.81341 0
M  V30 17214 H 1623.1 -3.7129 -2.72911 0
M  V30 17215 H 1621.41 -3.25903 -2.59183 0
M  V30 17216 H 1624.01 -1.87832 -5.00623 0
M  V30 17217 H 1624.35 -0.398796 -4.14385 0
M  V30 17218 H 1624.88 -1.95564 -3.46409 0
M  V30 17219 H 1621.62 -4.76998 -4.49614 0
M  V30 17220 H 1621.14 -3.16541 -5.09472 0
M  V30 17221 H 1622.82 -3.72733 -5.28847 0
M  V30 17222 N 1622.95 1.25748 -0.950004 0
M  V30 17223 C 1623.89 2.25247 -0.423855 0
M  V30 17224 C 1624.9 1.56233 0.457726 0
M  V30 17225 O 1626.09 1.76496 0.266749 0
M  V30 17226 C 1623.19 3.36422 0.409074 0
M  V30 17227 C 1622.36 4.34991 -0.458421 0
M  V30 17228 C 1621.42 5.25253 0.315537 0
M  V30 17229 O 1620.45 5.68489 -0.284474 0
M  V30 17230 N 1621.65 5.57732 1.60983 0
M  V30 17231 H 1624.41 2.71026 -1.27925 0
M  V30 17232 H 1621.97 1.39607 -0.819853 0
M  V30 17233 H 1623.97 3.93764 0.934447 0
M  V30 17234 H 1622.54 2.90068 1.1653 0
M  V30 17235 H 1621.76 3.76594 -1.16494 0
M  V30 17236 H 1623.04 4.97833 -1.05068 0
M  V30 17237 H 1622.44 5.24502 2.1193 0
M  V30 17238 H 1621 6.17678 2.08126 0
M  V30 17239 N 1624.43 0.718038 1.40292 0
M  V30 17240 C 1625.39 0.0757483 2.29075 0
M  V30 17241 C 1626.39 -0.684831 1.45488 0
M  V30 17242 O 1627.58 -0.516369 1.66371 0
M  V30 17243 C 1624.72 -0.902534 3.28736 0
M  V30 17244 H 1625.91 0.857729 2.87373 0
M  V30 17245 H 1623.46 0.482839 1.48655 0
M  V30 17246 H 1624.2 -1.71148 2.75461 0
M  V30 17247 H 1623.98 -0.360009 3.90444 0
M  V30 17248 H 1625.47 -1.34903 3.9521 0
M  V30 17249 N 1625.91 -1.50602 0.464402 0
M  V30 17250 C 1626.84 -2.31252 -0.323263 0
M  V30 17251 C 1627.82 -1.37856 -0.996476 0
M  V30 17252 O 1629.01 -1.66777 -0.994933 0
M  V30 17253 C 1626.14 -3.17414 -1.40945 0
M  V30 17254 C 1625.09 -4.19307 -0.858226 0
M  V30 17255 C 1624.42 -4.94164 -2.0422 0
M  V30 17256 C 1625.72 -5.22148 0.125921 0
M  V30 17257 H 1627.41 -2.97349 0.34983 0
M  V30 17258 H 1624.96 -1.42997 0.169685 0
M  V30 17259 H 1626.91 -3.72627 -1.96791 0
M  V30 17260 H 1625.63 -2.49189 -2.11122 0
M  V30 17261 H 1624.29 -3.65185 -0.321785 0
M  V30 17262 H 1623.94 -4.22417 -2.7308 0
M  V30 17263 H 1623.64 -5.63083 -1.67963 0
M  V30 17264 H 1625.16 -5.5221 -2.60569 0
M  V30 17265 H 1626.58 -5.72272 -0.343136 0
M  V30 17266 H 1624.98 -5.98749 0.402433 0
M  V30 17267 H 1626.05 -4.73307 1.05399 0
M  V30 17268 N 1627.39 -0.19675 -1.56367 0
M  V30 17269 C 1628.34 0.723461 -2.19168 0
M  V30 17270 C 1629.31 1.20856 -1.13943 0
M  V30 17271 O 1630.49 1.27215 -1.42201 0
M  V30 17272 C 1627.63 1.93669 -2.85633 0
M  V30 17273 C 1626.74 1.49281 -4.05388 0
M  V30 17274 C 1625.88 2.66167 -4.59705 0
M  V30 17275 C 1624.92 2.18393 -5.71814 0
M  V30 17276 N 1624.05 3.28462 -6.20529 0
M  V30 17277 H 1628.89 0.181169 -2.97449 0
M  V30 17278 H 1626.43 0.0776802 -1.46895 0
M  V30 17279 H 1628.39 2.64865 -3.22339 0
M  V30 17280 H 1627.02 2.45227 -2.09913 0
M  V30 17281 H 1626.07 0.676658 -3.74333 0
M  V30 17282 H 1627.38 1.10231 -4.86467 0
M  V30 17283 H 1626.54 3.45483 -4.98725 0
M  V30 17284 H 1625.28 3.08491 -3.77736 0
M  V30 17285 H 1624.28 1.37531 -5.32321 0
M  V30 17286 H 1625.51 1.77097 -6.55602 0
M  V30 17287 H 1623.45 3.70315 -5.41482 0
M  V30 17288 H 1623.37 2.93587 -6.96665 0
M  V30 17289 H 1624.64 4.07988 -6.64204 0
M  V30 17290 N 1628.87 1.57413 0.0768405 0
M  V30 17291 C 1629.83 2.02363 1.0762 0
M  V30 17292 C 1630.83 0.919879 1.3189 0
M  V30 17293 O 1632.02 1.18489 1.27695 0
M  V30 17294 C 1629.15 2.39995 2.42106 0
M  V30 17295 H 1630.34 2.91881 0.688889 0
M  V30 17296 H 1627.9 1.52938 0.322422 0
M  V30 17297 H 1628.63 1.53488 2.85678 0
M  V30 17298 H 1628.42 3.20534 2.25833 0
M  V30 17299 H 1629.91 2.75365 3.13948 0
M  V30 17300 N 1630.34 -0.348112 1.53707 0
M  V30 17301 C 1631.31 -1.41018 1.80683 0
M  V30 17302 C 1632.31 -1.4582 0.67774 0
M  V30 17303 O 1633.5 -1.46275 0.94601 0
M  V30 17304 C 1630.63 -2.79988 1.94473 0
M  V30 17305 H 1631.82 -1.18365 2.75554 0
M  V30 17306 H 1629.38 -0.582244 1.4505 0
M  V30 17307 H 1630.11 -3.07931 1.0173 0
M  V30 17308 H 1629.9 -2.77899 2.76612 0
M  V30 17309 H 1631.39 -3.56868 2.16876 0
M  V30 17310 N 1631.82 -1.45363 -0.608876 0
M  V30 17311 C 1633.07 -1.49313 -1.36792 0
M  V30 17312 C 1633.4 -0.134357 -1.94035 0
M  V30 17313 O 1632.65 0.866819 -1.75456 0
M  V30 17314 C 1632.95 -2.51893 -2.53544 0
M  V30 17315 C 1632.62 -3.96636 -2.14455 0
M  V30 17316 C 1631.28 -4.36048 -2.03508 0
M  V30 17317 C 1633.63 -4.87668 -1.83929 0
M  V30 17318 C 1630.96 -5.64389 -1.60256 0
M  V30 17319 C 1633.31 -6.16419 -1.42163 0
M  V30 17320 C 1631.98 -6.54763 -1.29774 0
M  V30 17321 H 1631.25 -0.546373 -0.500557 0
M  V30 17322 H 1633.89 -1.78702 -0.68832 0
M  V30 17323 H 1632.2 -2.16068 -3.26836 0
M  V30 17324 H 1633.89 -2.52187 -3.11773 0
M  V30 17325 H 1630.48 -3.65467 -2.23901 0
M  V30 17326 H 1634.67 -4.57956 -1.91284 0
M  V30 17327 H 1629.92 -5.92894 -1.49285 0
M  V30 17328 H 1634.1 -6.86401 -1.17588 0
M  V30 17329 H 1631.73 -7.5411 -0.960322 0
M  V30 17330 N 1633.3 0.851265 -1.32632 0
M  V30 17331 C 1634.58 1.58945 -1.13999 0
M  V30 17332 C 1634.96 2.08981 0.29836 0
M  V30 17333 O 1634.31 1.88226 1.2955 0
M  V30 17334 C 1634.52 2.73296 -2.17049 0
M  V30 17335 C 1635.86 3.42791 -2.50559 0
M  V30 17336 O 1636.89 2.83524 -2.15621 0
M  V30 17337 O 1635.75 4.49749 -3.10464 0
M  V30 17338 H 1632.84 0.700157 -0.440124 0
M  V30 17339 H 1635.39 0.895098 -1.44174 0
M  V30 17340 H 1634.16 2.33873 -3.13718 0
M  V30 17341 H 1633.78 3.50405 -1.87888 0
M  V30 17342 N 1634.78 1.15898 1.06796 0
M  V30 17343 C 1636.02 0.938728 1.79766 0
M  V30 17344 C 1636.36 -0.53249 1.86757 0
M  V30 17345 O 1635.63 -1.39492 1.35544 0
M  V30 17346 C 1635.92 1.56062 3.24525 0
M  V30 17347 C 1635.77 3.10283 3.25645 0
M  V30 17348 C 1637.09 1.25108 4.21943 0
M  V30 17349 H 1634.21 0.342451 0.652607 0
M  V30 17350 H 1636.85 1.4315 1.24933 0
M  V30 17351 H 1635 1.14158 3.71349 0
M  V30 17352 H 1636.67 3.61132 2.87021 0
M  V30 17353 H 1634.91 3.43879 2.64443 0
M  V30 17354 H 1635.58 3.48913 4.27743 0
M  V30 17355 H 1638.06 1.61364 3.83537 0
M  V30 17356 H 1636.94 1.7123 5.21509 0
M  V30 17357 H 1637.2 0.169043 4.41777 0
M  V30 17358 N 1636.26 -1.25243 0.956659 0
M  V30 17359 C 1637.2 -2.2781 0.46963 0
M  V30 17360 C 1638.2 -1.63003 -0.461138 0
M  V30 17361 O 1639.4 -1.76805 -0.337644 0
M  V30 17362 H 1635.78 -0.740078 0.133374 0
M  V30 17363 H 1637.75 -2.66273 1.34689 0
M  V30 17364 C 1636.5 -3.46904 -0.235206 0
M  V30 17365 H 1635.82 -3.97006 0.471869 0
M  V30 17366 H 1637.26 -4.20548 -0.539969 0
M  V30 17367 C 1635.72 -3.03697 -1.45841 0
M  V30 17368 O 1636.25 -3.09887 -2.55603 0
M  V30 17369 N 1634.46 -2.58866 -1.32049 0
M  V30 17370 H 1634 -2.54029 -0.427428 0
M  V30 17371 H 1633.96 -2.30322 -2.14008 0
M  V30 17372 N 1637.73 -0.725468 -1.3991 0
M  V30 17373 C 1638.68 -0.0682776 -2.325 0
M  V30 17374 C 1639.68 0.736285 -1.52562 0
M  V30 17375 O 1640.88 0.638542 -1.68293 0
M  V30 17376 H 1637.26 -0.00327742 -0.751993 0
M  V30 17377 H 1639.23 -0.865735 -2.85565 0
M  V30 17378 C 1637.98 0.832036 -3.37598 0
M  V30 17379 H 1637.3 0.222341 -3.99181 0
M  V30 17380 H 1638.74 1.25965 -4.04856 0
M  V30 17381 C 1637.2 1.96201 -2.73874 0
M  V30 17382 O 1637.73 3.05378 -2.60974 0
M  V30 17383 N 1635.94 1.74857 -2.32106 0
M  V30 17384 H 1635.48 0.860621 -2.42798 0
M  V30 17385 H 1635.44 2.50639 -1.89808 0
M  V30 17386 N 1639.21 1.50354 -0.472382 0
M  V30 17387 C 1640.16 2.28555 0.321118 0
M  V30 17388 C 1641.13 1.33665 0.98605 0
M  V30 17389 O 1642.31 1.62603 0.998239 0
M  V30 17390 C 1639.45 3.15586 1.39641 0
M  V30 17391 C 1638.57 4.25508 0.746129 0
M  V30 17392 C 1637.7 4.99794 1.79943 0
M  V30 17393 C 1636.74 6.01589 1.12946 0
M  V30 17394 N 1635.88 6.69149 2.12567 0
M  V30 17395 H 1640.72 2.95913 -0.352051 0
M  V30 17396 H 1638.26 1.45926 -0.185461 0
M  V30 17397 H 1640.21 3.64397 2.03152 0
M  V30 17398 H 1638.84 2.50271 2.03873 0
M  V30 17399 H 1637.9 3.804 -0.00157718 0
M  V30 17400 H 1639.21 4.98326 0.217335 0
M  V30 17401 H 1638.36 5.5233 2.51031 0
M  V30 17402 H 1637.1 4.26684 2.36203 0
M  V30 17403 H 1636.11 5.48312 0.404207 0
M  V30 17404 H 1637.33 6.76672 0.573735 0
M  V30 17405 H 1635.28 5.9883 2.67841 0
M  V30 17406 H 1635.19 7.37847 1.64676 0
M  V30 17407 H 1636.46 7.26301 2.83031 0
M  V30 17408 N 1640.69 0.205039 1.56261 0
M  V30 17409 C 1641.97 -0.479238 1.89638 0
M  V30 17410 C 1642.35 -1.78938 1.12002 0
M  V30 17411 O 1641.7 -2.27398 0.224179 0
M  V30 17412 C 1641.91 -0.688324 3.42145 0
M  V30 17413 C 1643.25 -1.00322 4.12578 0
M  V30 17414 O 1644.28 -0.775697 3.47651 0
M  V30 17415 O 1643.14 -1.43412 5.27347 0
M  V30 17416 H 1640.23 -0.251125 0.78795 0
M  V30 17417 H 1642.78 0.245994 1.67908 0
M  V30 17418 H 1641.55 0.236479 3.90585 0
M  V30 17419 H 1641.17 -1.46565 3.696 0
M  V30 17420 N 1642.17 -1.57451 -0.0684915 0
M  V30 17421 C 1643.42 -1.87689 -0.768156 0
M  V30 17422 C 1643.75 -0.79776 -1.77058 0
M  V30 17423 O 1643.02 0.191614 -1.93554 0
M  V30 17424 C 1643.31 -3.28587 -1.47319 0
M  V30 17425 C 1643.16 -4.47156 -0.486954 0
M  V30 17426 C 1644.48 -3.67772 -2.41727 0
M  V30 17427 H 1641.6 -0.682642 -0.277793 0
M  V30 17428 H 1644.24 -1.89974 -0.0312968 0
M  V30 17429 H 1642.39 -3.26769 -2.10129 0
M  V30 17430 H 1644.06 -4.61099 0.136189 0
M  V30 17431 H 1642.3 -4.33351 0.197429 0
M  V30 17432 H 1642.98 -5.42533 -1.01795 0
M  V30 17433 H 1645.45 -3.70704 -1.88992 0
M  V30 17434 H 1644.33 -4.6724 -2.88059 0
M  V30 17435 H 1644.59 -2.97882 -3.26679 0
M  V30 17436 N 1643.65 0.339955 -1.5389 0
M  V30 17437 C 1644.87 1.10417 -1.75564 0
M  V30 17438 C 1645.3 1.81466 -0.495156 0
M  V30 17439 O 1644.66 1.72679 0.552415 0
M  V30 17440 C 1644.7 2.09056 -2.93816 0
M  V30 17441 O 1643.81 3.16645 -2.64215 0
M  V30 17442 H 1643.15 0.319164 -0.582263 0
M  V30 17443 H 1645.68 0.389251 -2.00863 0
M  V30 17444 H 1645.69 2.52215 -3.20705 0
M  V30 17445 H 1644.36 1.56741 -3.85234 0
M  V30 17446 H 1642.94 2.78278 -2.48225 0
M  V30 17447 N 1645.13 1.45684 0.601159 0
M  V30 17448 C 1646.37 1.50258 1.362 0
M  V30 17449 C 1646.7 0.146358 1.93648 0
M  V30 17450 O 1645.98 -0.839985 1.75427 0
M  V30 17451 C 1646.26 2.5868 2.50513 0
M  V30 17452 C 1646.12 4.03769 1.98219 0
M  V30 17453 C 1647.43 2.63332 3.52624 0
M  V30 17454 H 1644.55 0.547045 0.493873 0
M  V30 17455 H 1647.2 1.77527 0.677068 0
M  V30 17456 H 1645.35 2.35559 3.08941 0
M  V30 17457 H 1647.02 4.3812 1.44391 0
M  V30 17458 H 1645.26 4.14121 1.29174 0
M  V30 17459 H 1645.93 4.75329 2.80653 0
M  V30 17460 H 1648.41 2.84067 3.04048 0
M  V30 17461 H 1647.28 3.41047 4.30091 0
M  V30 17462 H 1647.54 1.68668 4.0866 0
M  V30 17463 N 1646.6 -0.84422 1.33082 0
M  V30 17464 C 1647.54 -1.95789 1.17226 0
M  V30 17465 C 1648.51 -1.62453 0.0690721 0
M  V30 17466 O 1649.7 -1.87088 0.230322 0
M  V30 17467 C 1646.83 -3.29193 0.796847 0
M  V30 17468 C 1645.87 -3.81503 1.90677 0
M  V30 17469 S 1646.7 -4.03828 3.51686 0
M  V30 17470 C 1647.86 -5.40191 3.16139 0
M  V30 17471 H 1648.09 -2.08938 2.115 0
M  V30 17472 H 1645.63 -0.99739 1.17862 0
M  V30 17473 H 1647.58 -4.06281 0.587018 0
M  V30 17474 H 1646.25 -3.13842 -0.127199 0
M  V30 17475 H 1645.44 -4.78018 1.59734 0
M  V30 17476 H 1645.04 -3.11293 2.07299 0
M  V30 17477 H 1647.33 -6.22827 2.66632 0
M  V30 17478 H 1648.28 -5.76105 4.11715 0
M  V30 17479 H 1648.68 -5.04691 2.52879 0
M  V30 17480 N 1648.08 -1.16463 -1.0618 0
M  V30 17481 C 1649.01 -0.815728 -2.13122 0
M  V30 17482 C 1649.99 0.213124 -1.61197 0
M  V30 17483 O 1651.18 0.0969425 -1.88251 0
M  V30 17484 C 1648.3 -0.215095 -3.38016 0
M  V30 17485 C 1647.35 -1.21774 -4.08746 0
M  V30 17486 S 1648.18 -2.7649 -4.586 0
M  V30 17487 C 1649.34 -2.17879 -5.86753 0
M  V30 17488 H 1649.57 -1.72148 -2.42389 0
M  V30 17489 H 1647.1 -0.98822 -1.18632 0
M  V30 17490 H 1649.06 0.124982 -4.1031 0
M  V30 17491 H 1647.72 0.66844 -3.06905 0
M  V30 17492 H 1646.92 -0.745936 -4.98449 0
M  V30 17493 H 1646.52 -1.50296 -3.42472 0
M  V30 17494 H 1648.81 -1.54817 -6.59574 0
M  V30 17495 H 1649.75 -3.05797 -6.38666 0
M  V30 17496 H 1650.16 -1.61717 -5.4084 0
M  V30 17497 N 1649.56 1.24734 -0.963288 0
M  V30 17498 C 1650.78 1.97285 -0.639808 0
M  V30 17499 C 1651.21 1.71024 0.783099 0
M  V30 17500 O 1650.57 0.971324 1.53085 0
M  V30 17501 C 1650.62 3.48793 -0.915197 0
M  V30 17502 O 1649.72 4.124 0.00162805 0
M  V30 17503 H 1649.06 0.618196 -0.242343 0
M  V30 17504 H 1651.59 1.58627 -1.29224 0
M  V30 17505 H 1651.6 3.99155 -0.84495 0
M  V30 17506 H 1650.28 3.67235 -1.95221 0
M  V30 17507 H 1648.85 3.72702 -0.121563 0
M  V30 17508 N 1651.04 0.732878 1.39523 0
M  V30 17509 C 1651.95 0.0930216 2.34416 0
M  V30 17510 C 1652.96 -0.724309 1.58208 0
M  V30 17511 O 1654.14 -0.653267 1.90511 0
M  V30 17512 C 1651.2 -0.805036 3.37224 0
M  V30 17513 C 1650.27 0.0243049 4.29293 0
M  V30 17514 C 1649.5 -0.830984 5.27191 0
M  V30 17515 O 1649.72 -2.06977 5.31523 0
M  V30 17516 O 1648.66 -0.260772 6.01335 0
M  V30 17517 H 1652.48 0.876179 2.90786 0
M  V30 17518 H 1650.07 0.493525 1.41013 0
M  V30 17519 H 1651.95 -1.31894 4.00228 0
M  V30 17520 H 1650.62 -1.56704 2.83241 0
M  V30 17521 H 1649.53 0.583677 3.69519 0
M  V30 17522 H 1650.86 0.748485 4.86476 0
M  V30 17523 N 1652.52 -1.50101 0.480349 0
M  V30 17524 C 1653.45 -2.25419 -0.355186 0
M  V30 17525 C 1654.43 -1.2912 -0.988276 0
M  V30 17526 O 1655.61 -1.58364 -1.02241 0
M  V30 17527 C 1652.74 -3.03751 -1.49844 0
M  V30 17528 C 1651.78 -4.15046 -0.981799 0
M  V30 17529 S 1652.62 -5.35385 0.110936 0
M  V30 17530 C 1653.77 -6.17267 -1.03597 0
M  V30 17531 H 1654.01 -2.95939 0.284135 0
M  V30 17532 H 1651.54 -1.52103 0.265352 0
M  V30 17533 H 1653.5 -3.49471 -2.15361 0
M  V30 17534 H 1652.16 -2.32739 -2.1093 0
M  V30 17535 H 1651.35 -4.69292 -1.83795 0
M  V30 17536 H 1650.95 -3.7181 -0.404184 0
M  V30 17537 H 1653.24 -6.48961 -1.94565 0
M  V30 17538 H 1654.19 -7.06094 -0.532569 0
M  V30 17539 H 1654.6 -5.49469 -1.29398 0
M  V30 17540 N 1653.99 -0.213323 -1.5615 0
M  V30 17541 C 1655.27 0.469174 -1.8989 0
M  V30 17542 C 1655.65 1.78341 -1.1295 0
M  V30 17543 O 1655 2.27276 -0.236236 0
M  V30 17544 C 1655.21 0.67017 -3.42505 0
M  V30 17545 C 1656.56 0.981324 -4.13104 0
M  V30 17546 O 1657.58 0.757249 -3.48058 0
M  V30 17547 O 1656.44 1.40614 -5.281 0
M  V30 17548 H 1653.53 0.246943 -0.789271 0
M  V30 17549 H 1656.08 -0.254896 -1.67775 0
M  V30 17550 H 1654.85 -0.257189 -3.90454 0
M  V30 17551 H 1654.47 1.44603 -3.70372 0
M  V30 17552 N 1655.47 1.57485 0.0601405 0
M  V30 17553 C 1656.72 1.88094 0.758192 0
M  V30 17554 C 1657.05 0.807138 1.76632 0
M  V30 17555 O 1656.33 -0.181347 1.93653 0
M  V30 17556 C 1656.61 3.29363 1.45574 0
M  V30 17557 C 1656.46 4.47408 0.463233 0
M  V30 17558 C 1657.78 3.69048 2.39773 0
M  V30 17559 H 1654.9 0.684106 0.274169 0
M  V30 17560 H 1657.54 1.89988 0.0212215 0
M  V30 17561 H 1655.69 3.27879 2.08393 0
M  V30 17562 H 1657.36 4.6102 -0.160641 0
M  V30 17563 H 1655.61 4.3324 -0.220408 0
M  V30 17564 H 1656.28 5.43065 0.989164 0
M  V30 17565 H 1658.75 3.71701 1.87024 0
M  V30 17566 H 1657.63 4.68761 2.85577 0
M  V30 17567 H 1657.89 2.9961 3.25094 0
M  V30 17568 N 1656.95 -0.331789 1.54068 0
M  V30 17569 C 1657.9 -1.42815 1.83593 0
M  V30 17570 C 1658.89 -1.53931 0.707231 0
M  V30 17571 O 1660.1 -1.56414 0.890763 0
M  V30 17572 H 1656.47 -0.476418 0.581833 0
M  V30 17573 H 1658.44 -1.15133 2.75294 0
M  V30 17574 C 1657.19 -2.79162 2.07277 0
M  V30 17575 H 1656.52 -2.7138 2.93586 0
M  V30 17576 H 1657.96 -3.54966 2.31895 0
M  V30 17577 C 1656.42 -3.25691 0.861816 0
M  V30 17578 O 1656.95 -4.01644 0.0670133 0
M  V30 17579 N 1655.15 -2.82634 0.675746 0
M  V30 17580 H 1654.7 -2.20988 1.32371 0
M  V30 17581 H 1654.66 -3.14119 -0.133004 0
M  V30 17582 N 1658.43 -1.46001 -0.593424 0
M  V30 17583 C 1659.39 -1.55347 -1.68523 0
M  V30 17584 C 1660.39 -0.431599 -1.549 0
M  V30 17585 O 1661.58 -0.695559 -1.59711 0
M  V30 17586 C 1658.71 -1.46355 -3.07885 0
M  V30 17587 H 1659.91 -2.52639 -1.61597 0
M  V30 17588 H 1657.46 -1.33652 -0.810363 0
M  V30 17589 H 1658.19 -0.503024 -3.20375 0
M  V30 17590 H 1657.98 -2.27741 -3.19181 0
M  V30 17591 H 1659.47 -1.55958 -3.87385 0
M  V30 17592 N 1659.91 0.83715 -1.33527 0
M  V30 17593 C 1661.16 1.58747 -1.24428 0
M  V30 17594 C 1661.47 1.94696 0.187885 0
M  V30 17595 O 1662.67 2.68524 0.400903 0
M  V30 17596 C 1661.13 2.86337 -2.18035 0
M  V30 17597 C 1660.74 2.57745 -3.66431 0
M  V30 17598 C 1662.48 3.6436 -2.17812 0
M  V30 17599 C 1660.39 3.81443 -4.51946 0
M  V30 17600 H 1659.32 0.595749 -0.462168 0
M  V30 17601 H 1661.97 0.922901 -1.58603 0
M  V30 17602 H 1660.35 3.54344 -1.76795 0
M  V30 17603 H 1661.53 1.97939 -4.16121 0
M  V30 17604 H 1659.84 1.93023 -3.68959 0
M  V30 17605 H 1662.44 4.56181 -2.78932 0
M  V30 17606 H 1662.78 3.99414 -1.17364 0
M  V30 17607 H 1663.31 3.03279 -2.57423 0
M  V30 17608 H 1660.05 3.51519 -5.53276 0
M  V30 17609 H 1659.57 4.40582 -4.06998 0
M  V30 17610 H 1661.25 4.49004 -4.65837 0
M  V30 17611 N 1661.38 1.17024 1.05561 0
M  V30 17612 C 1662.35 0.885897 2.11387 0
M  V30 17613 C 1663.35 -0.122327 1.60334 0
M  V30 17614 O 1664.54 0.109416 1.73856 0
M  V30 17615 C 1661.67 0.32626 3.39335 0
M  V30 17616 H 1662.86 1.82414 2.38045 0
M  V30 17617 H 1660.42 0.980191 1.21745 0
M  V30 17618 H 1661.15 -0.619308 3.18332 0
M  V30 17619 H 1660.94 1.05285 3.777 0
M  V30 17620 H 1662.43 0.145513 4.17346 0
M  V30 17621 N 1662.86 -1.24221 0.969889 0
M  V30 17622 C 1664.11 -1.91973 0.631725 0
M  V30 17623 C 1664.43 -1.76169 -0.836032 0
M  V30 17624 O 1663.7 -1.13459 -1.597 0
M  V30 17625 H 1662.28 -0.710497 0.230658 0
M  V30 17626 H 1664.94 -1.51069 1.23143 0
M  V30 17627 H 1664.04 -2.99606 0.874223 0
M  V30 17628 N 1664.34 -0.740267 -1.39132 0
M  V30 17629 C 1665.57 -0.30093 -2.047 0
M  V30 17630 C 1665.98 1.0661 -1.5582 0
M  V30 17631 O 1665.34 1.67465 -0.725388 0
M  V30 17632 C 1665.39 -0.299574 -3.60257 0
M  V30 17633 O 1665.11 -1.61265 -4.07339 0
M  V30 17634 C 1666.61 0.155279 -4.43028 0
M  V30 17635 H 1663.83 -0.130652 -0.658157 0
M  V30 17636 H 1666.38 -1.00539 -1.78079 0
M  V30 17637 H 1664.53 0.356041 -3.8576 0
M  V30 17638 H 1664.95 -1.52977 -5.01695 0
M  V30 17639 H 1666.42 0.105068 -5.519 0
M  V30 17640 H 1666.9 1.20123 -4.22454 0
M  V30 17641 H 1667.5 -0.470965 -4.22684 0
M  V30 17642 N 1665.82 1.49844 -0.488302 0
M  V30 17643 C 1666.75 2.31737 0.286432 0
M  V30 17644 C 1667.73 1.39424 0.974418 0
M  V30 17645 O 1668.91 1.68339 0.968274 0
M  V30 17646 C 1666.04 3.19616 1.35878 0
M  V30 17647 C 1665 4.20619 0.791409 0
M  V30 17648 C 1664.32 4.9735 1.96333 0
M  V30 17649 C 1665.62 5.21882 -0.208975 0
M  V30 17650 H 1667.32 2.96755 -0.397092 0
M  V30 17651 H 1664.86 1.42709 -0.192413 0
M  V30 17652 H 1666.82 3.75711 1.90838 0
M  V30 17653 H 1665.54 2.52516 2.07131 0
M  V30 17654 H 1664.2 3.65651 0.263647 0
M  V30 17655 H 1663.85 4.26708 2.66325 0
M  V30 17656 H 1663.55 5.65684 1.58983 0
M  V30 17657 H 1665.07 5.56286 2.51751 0
M  V30 17658 H 1666.49 5.72746 0.252049 0
M  V30 17659 H 1664.88 5.98033 -0.497638 0
M  V30 17660 H 1665.95 4.7157 -1.12916 0
M  V30 17661 N 1667.3 0.221601 1.56034 0
M  V30 17662 C 1668.24 -0.688502 2.20291 0
M  V30 17663 C 1669.21 -1.19028 1.15851 0
M  V30 17664 O 1670.4 -1.24936 1.44206 0
M  V30 17665 C 1667.54 -1.89101 2.88678 0
M  V30 17666 C 1666.65 -1.42812 4.07711 0
M  V30 17667 C 1665.79 -2.5882 4.63881 0
M  V30 17668 C 1664.83 -2.09268 5.75216 0
M  V30 17669 N 1663.96 -3.18549 6.25676 0
M  V30 17670 H 1668.8 -0.133824 2.97699 0
M  V30 17671 H 1666.34 -0.0543007 1.47 0
M  V30 17672 H 1668.3 -2.59704 3.26512 0
M  V30 17673 H 1666.93 -2.41857 2.13788 0
M  V30 17674 H 1665.98 -0.617019 3.75363 0
M  V30 17675 H 1667.29 -1.02478 4.8816 0
M  V30 17676 H 1666.45 -3.37505 5.04158 0
M  V30 17677 H 1665.18 -3.02443 3.82596 0
M  V30 17678 H 1664.19 -1.29045 5.34441 0
M  V30 17679 H 1665.41 -1.66645 6.58336 0
M  V30 17680 H 1663.36 -3.61653 5.47305 0
M  V30 17681 H 1663.28 -2.82466 7.01248 0
M  V30 17682 H 1664.55 -3.97369 6.7061 0
M  V30 17683 N 1668.77 -1.57515 -0.0517878 0
M  V30 17684 C 1669.7 -2.0809 -1.05929 0
M  V30 17685 C 1670.69 -0.978529 -1.39136 0
M  V30 17686 O 1671.87 -1.25245 -1.48416 0
M  V30 17687 C 1669 -2.54147 -2.36699 0
M  V30 17688 C 1667.95 -3.68442 -2.17794 0
M  V30 17689 C 1667.28 -4.00624 -3.54125 0
M  V30 17690 C 1668.58 -4.97743 -1.5827 0
M  V30 17691 H 1670.27 -2.92515 -0.638371 0
M  V30 17692 H 1667.82 -1.40719 -0.305625 0
M  V30 17693 H 1669.77 -2.88145 -3.07491 0
M  V30 17694 H 1668.5 -1.66775 -2.80809 0
M  V30 17695 H 1667.16 -3.34758 -1.4944 0
M  V30 17696 H 1666.8 -3.10353 -3.95841 0
M  V30 17697 H 1666.5 -4.77597 -3.42308 0
M  V30 17698 H 1668.03 -4.37136 -4.26315 0
M  V30 17699 H 1669.44 -5.29843 -2.18951 0
M  V30 17700 H 1667.84 -5.79173 -1.57094 0
M  V30 17701 H 1668.91 -4.81815 -0.546127 0
M  V30 17702 N 1670.25 0.323614 -1.54242 0
M  V30 17703 C 1671.48 1.07954 -1.76152 0
M  V30 17704 C 1671.89 1.82194 -0.510099 0
M  V30 17705 O 1671.23 1.75923 0.528838 0
M  V30 17706 C 1671.3 2.12323 -2.90102 0
M  V30 17707 C 1670.96 1.57481 -4.29009 0
M  V30 17708 C 1671.96 1.01662 -5.09864 0
M  V30 17709 C 1669.64 1.61726 -4.75552 0
M  V30 17710 C 1671.64 0.508168 -6.35371 0
M  V30 17711 C 1669.32 1.10493 -6.01028 0
M  V30 17712 C 1670.32 0.551331 -6.80771 0
M  V30 17713 O 1670.01 0.0467053 -8.03886 0
M  V30 17714 H 1669.74 0.326941 -0.59168 0
M  V30 17715 H 1672.3 0.375423 -2.0194 0
M  V30 17716 H 1670.53 2.8635 -2.59885 0
M  V30 17717 H 1672.21 2.73636 -2.99796 0
M  V30 17718 H 1672.98 0.976899 -4.7506 0
M  V30 17719 H 1668.86 2.03755 -4.13527 0
M  V30 17720 H 1672.4 0.0754082 -6.97559 0
M  V30 17721 H 1668.3 1.14172 -6.35323 0
M  V30 17722 H 1669.07 0.162133 -8.18339 0
M  V30 17723 N 1671.73 1.46313 0.585673 0
M  V30 17724 C 1672.98 1.5147 1.34399 0
M  V30 17725 C 1673.31 0.165209 1.93797 0
M  V30 17726 O 1672.56 -0.838796 1.76813 0
M  V30 17727 C 1672.86 2.55895 2.49504 0
M  V30 17728 C 1672.53 3.99997 2.08118 0
M  V30 17729 C 1671.19 4.3923 1.96545 0
M  V30 17730 C 1673.54 4.90532 1.76147 0
M  V30 17731 C 1670.87 5.66867 1.51256 0
M  V30 17732 C 1673.22 6.18603 1.32338 0
M  V30 17733 C 1671.88 6.56745 1.1934 0
M  V30 17734 H 1671.15 0.554268 0.491801 0
M  V30 17735 H 1673.8 1.79774 0.659803 0
M  V30 17736 H 1672.11 2.21241 3.23357 0
M  V30 17737 H 1673.8 2.57116 3.07722 0
M  V30 17738 H 1670.39 3.68983 2.18058 0
M  V30 17739 H 1674.58 4.60942 1.83974 0
M  V30 17740 H 1669.83 5.95194 1.39834 0
M  V30 17741 H 1674.01 6.88185 1.06653 0
M  V30 17742 H 1671.63 7.55542 0.840228 0
M  V30 17743 N 1673.21 -0.830057 1.33969 0
M  V30 17744 C 1674.63 -1.12209 1.13496 0
M  V30 17745 C 1674.83 -2.01384 -0.0682972 0
M  V30 17746 O 1673.88 -2.4123 -0.745949 0
M  V30 17747 C 1675.19 -1.77568 2.42673 0
M  V30 17748 C 1676.74 -1.90095 2.48662 0
M  V30 17749 C 1677.22 -2.5887 3.77823 0
M  V30 17750 N 1678.71 -2.66375 3.78944 0
M  V30 17751 C 1679.44 -3.20301 4.75599 0
M  V30 17752 N 1678.94 -3.74846 5.82634 0
M  V30 17753 N 1680.73 -3.18636 4.63063 0
M  V30 17754 H 1672.88 -0.236752 2.11076 0
M  V30 17755 H 1675.15 -0.167572 0.933072 0
M  V30 17756 H 1674.85 -1.19505 3.30774 0
M  V30 17757 H 1674.73 -2.77505 2.55481 0
M  V30 17758 H 1677.11 -2.47308 1.61005 0
M  V30 17759 H 1677.19 -0.890808 2.39788 0
M  V30 17760 H 1676.84 -2.02313 4.65867 0
M  V30 17761 H 1676.77 -3.60373 3.83978 0
M  V30 17762 H 1679.26 -2.27705 3.01594 0
M  V30 17763 H 1679.57 -4.14224 6.52409 0
M  V30 17764 H 1677.92 -3.7311 5.86357 0
M  V30 17765 H 1681.11 -2.75286 3.78597 0
M  V30 17766 H 1681.28 -3.60359 5.38559 0
M  V30 17767 N 1674.69 -1.17582 -1.04939 0
M  V30 17768 C 1675.6 -0.909588 -2.16249 0
M  V30 17769 C 1676.61 0.123166 -1.73564 0
M  V30 17770 O 1677.79 -0.0566976 -2.0132 0
M  V30 17771 C 1674.85 -0.429342 -3.44031 0
M  V30 17772 C 1673.92 -1.529 -4.01149 0
M  V30 17773 C 1673.15 -1.07157 -5.22832 0
M  V30 17774 O 1673.37 0.0732634 -5.70353 0
M  V30 17775 O 1672.31 -1.86567 -5.72255 0
M  V30 17776 H 1676.13 -1.84074 -2.41558 0
M  V30 17777 H 1673.72 -0.956914 -1.14732 0
M  V30 17778 H 1675.6 -0.16917 -4.2106 0
M  V30 17779 H 1674.27 0.473629 -3.20216 0
M  V30 17780 H 1673.18 -1.84308 -3.25548 0
M  V30 17781 H 1674.51 -2.40777 -4.29287 0
M  V30 17782 N 1676.17 1.23705 -0.976463 0
M  V30 17783 C 1677.1 2.2734 -0.532809 0
M  V30 17784 C 1678.08 1.64523 0.432012 0
M  V30 17785 O 1679.26 1.9144 0.326233 0
M  V30 17786 C 1676.39 3.46887 0.169374 0
M  V30 17787 C 1675.35 4.22031 -0.712336 0
M  V30 17788 C 1674.67 5.34561 0.121838 0
M  V30 17789 C 1675.97 4.8244 -2.00123 0
M  V30 17790 H 1677.67 2.64702 -1.39904 0
M  V30 17791 H 1675.21 1.27244 -0.674156 0
M  V30 17792 H 1677.16 4.18529 0.491028 0
M  V30 17793 H 1675.89 3.08574 1.07002 0
M  V30 17794 H 1674.55 3.522 -1.01739 0
M  V30 17795 H 1674.2 4.92489 1.0229 0
M  V30 17796 H 1673.9 5.85758 -0.464962 0
M  V30 17797 H 1675.42 6.09027 0.437963 0
M  V30 17798 H 1676.83 5.46111 -1.7446 0
M  V30 17799 H 1675.23 5.43906 -2.53548 0
M  V30 17800 H 1676.3 4.03405 -2.69059 0
M  V30 17801 N 1677.64 0.747635 1.38738 0
M  V30 17802 C 1679.05 0.369576 1.83006 0
M  V30 17803 C 1679.41 -1.10091 1.62402 0
M  V30 17804 O 1678.53 -1.85042 1.12198 0
M  V30 17805 C 1679.13 0.664018 3.32229 0
M  V30 17806 C 1677.68 0.339308 3.74868 0
M  V30 17807 C 1676.83 0.920231 2.61586 0
M  V30 17808 H 1679.78 0.944268 1.27551 0
M  V30 17809 H 1679.8 -0.0598575 3.80453 0
M  V30 17810 H 1679.32 1.73432 3.47193 0
M  V30 17811 H 1677.42 -0.724649 3.65485 0
M  V30 17812 H 1677.53 0.830699 4.71843 0
M  V30 17813 H 1675.89 0.346002 2.52339 0
M  V30 17814 H 1676.68 1.99544 2.79351 0
M  V30 17815 N 1679.12 -1.49583 0.496242 0
M  V30 17816 C 1680.03 -2.32808 -0.289404 0
M  V30 17817 C 1681.05 -1.44324 -0.971933 0
M  V30 17818 O 1682.22 -1.77352 -0.954366 0
M  V30 17819 C 1679.29 -3.19645 -1.34269 0
M  V30 17820 C 1678.35 -4.23975 -0.6741 0
M  V30 17821 C 1677.58 -5.06661 -1.6772 0
M  V30 17822 O 1677.81 -4.90792 -2.90654 0
M  V30 17823 O 1676.74 -5.89091 -1.23514 0
M  V30 17824 H 1680.57 -3.01164 0.391664 0
M  V30 17825 H 1678.15 -1.47162 0.257652 0
M  V30 17826 H 1680.03 -3.73453 -1.9522 0
M  V30 17827 H 1678.71 -2.53989 -2.00677 0
M  V30 17828 H 1677.61 -3.74092 -0.0249732 0
M  V30 17829 H 1678.95 -4.92172 -0.0525442 0
M  V30 17830 N 1680.6 -0.229873 -1.55915 0
M  V30 17831 C 1682.01 0.276452 -1.84642 0
M  V30 17832 C 1682.36 1.58861 -1.15142 0
M  V30 17833 O 1681.49 2.12207 -0.423932 0
M  V30 17834 C 1682.08 0.508371 -3.34964 0
M  V30 17835 C 1680.64 0.958989 -3.63979 0
M  V30 17836 C 1679.79 0.0266738 -2.77287 0
M  V30 17837 H 1682.74 -0.452864 -1.52101 0
M  V30 17838 H 1682.76 1.35328 -3.55621 0
M  V30 17839 H 1682.27 -0.4468 -3.8552 0
M  V30 17840 H 1680.37 1.92722 -3.18887 0
M  V30 17841 H 1680.49 0.827637 -4.71897 0
M  V30 17842 H 1678.85 0.53498 -2.49018 0
M  V30 17843 H 1679.63 -0.923563 -3.30644 0
M  V30 17844 N 1682.08 1.5754 0.0434337 0
M  V30 17845 C 1683.01 2.08648 1.04824 0
M  V30 17846 C 1683.99 0.985894 1.38615 0
M  V30 17847 O 1685.17 1.2603 1.4775 0
M  V30 17848 C 1682.3 2.55399 2.35348 0
M  V30 17849 C 1681.26 3.69592 2.15837 0
M  V30 17850 C 1680.58 4.02497 3.51995 0
M  V30 17851 C 1681.88 4.98575 1.55629 0
M  V30 17852 H 1683.58 2.9285 0.622849 0
M  V30 17853 H 1681.12 1.40879 0.298158 0
M  V30 17854 H 1683.08 2.89771 3.05958 0
M  V30 17855 H 1681.8 1.68262 2.7992 0
M  V30 17856 H 1680.46 3.35546 1.47663 0
M  V30 17857 H 1680.11 3.12448 3.94189 0
M  V30 17858 H 1679.81 4.79406 3.39771 0
M  V30 17859 H 1681.33 4.39391 4.23991 0
M  V30 17860 H 1682.75 5.30996 2.16138 0
M  V30 17861 H 1681.14 5.79998 1.54021 0
M  V30 17862 H 1682.21 4.82098 0.520567 0
M  V30 17863 N 1683.56 -0.31543 1.54411 0
M  V30 17864 C 1684.8 -1.0524 1.73005 0
M  V30 17865 C 1685.13 -1.87747 0.50808 0
M  V30 17866 O 1684.39 -1.88935 -0.51012 0
M  V30 17867 C 1684.68 -1.99884 2.96279 0
M  V30 17868 C 1684.35 -1.33468 4.30694 0
M  V30 17869 C 1683.01 -1.15087 4.67235 0
M  V30 17870 C 1685.36 -0.858688 5.14078 0
M  V30 17871 C 1682.69 -0.47767 5.84752 0
M  V30 17872 C 1685.04 -0.199278 6.32286 0
M  V30 17873 C 1683.71 -0.00338158 6.675 0
M  V30 17874 H 1682.98 -0.385102 0.63307 0
M  V30 17875 H 1685.63 -0.328714 1.88658 0
M  V30 17876 H 1683.93 -2.78732 2.75347 0
M  V30 17877 H 1685.63 -2.56951 3.07859 0
M  V30 17878 H 1682.22 -1.48779 4.01949 0
M  V30 17879 H 1686.4 -0.98846 4.86357 0
M  V30 17880 H 1681.66 -0.314772 6.10589 0
M  V30 17881 H 1685.83 0.177517 6.96174 0
M  V30 17882 H 1683.46 0.52028 7.58418 0
M  V30 17883 N 1685.03 -1.46622 -0.577906 0
M  V30 17884 C 1686.26 -1.5576 -1.36185 0
M  V30 17885 C 1686.68 -0.200403 -1.87733 0
M  V30 17886 O 1686.03 0.803091 -1.6388 0
M  V30 17887 C 1686.09 -2.56626 -2.54608 0
M  V30 17888 O 1685.81 -3.87074 -2.05195 0
M  V30 17889 C 1687.31 -2.75751 -3.47097 0
M  V30 17890 H 1684.53 -0.526589 -0.415866 0
M  V30 17891 H 1687.07 -1.9207 -0.702091 0
M  V30 17892 H 1685.23 -2.23307 -3.16564 0
M  V30 17893 H 1685.64 -4.42015 -2.82352 0
M  V30 17894 H 1687.11 -3.50237 -4.26659 0
M  V30 17895 H 1687.59 -1.82829 -3.99337 0
M  V30 17896 H 1688.2 -3.10185 -2.90973 0
M  V30 17897 N 1686.51 0.822941 -1.34408 0
M  V30 17898 C 1687.79 1.56492 -1.17345 0
M  V30 17899 C 1688.17 2.09567 0.253965 0
M  V30 17900 O 1687.52 1.90931 1.25529 0
M  V30 17901 C 1687.73 2.6863 -2.22797 0
M  V30 17902 C 1689.08 3.37399 -2.57773 0
M  V30 17903 O 1690.1 2.78887 -2.21587 0
M  V30 17904 O 1688.96 4.43063 -3.19934 0
M  V30 17905 H 1686.05 0.690664 -0.454876 0
M  V30 17906 H 1688.6 0.864315 -1.4604 0
M  V30 17907 H 1687.37 2.27166 -3.18608 0
M  V30 17908 H 1686.99 3.46341 -1.95279 0
M  V30 17909 N 1687.99 1.18137 1.04314 0
M  V30 17910 C 1688.9 0.921044 2.15764 0
M  V30 17911 C 1689.92 -0.11396 1.73626 0
M  V30 17912 O 1691.09 0.0673733 2.01287 0
M  V30 17913 C 1688.16 0.447581 3.43799 0
M  V30 17914 C 1687.22 1.55025 4.00332 0
M  V30 17915 C 1686.45 1.09928 5.22256 0
M  V30 17916 O 1686.67 -0.0430152 5.70384 0
M  V30 17917 O 1685.61 1.896 5.71258 0
M  V30 17918 H 1689.43 1.85353 2.40579 0
M  V30 17919 H 1687.02 0.962985 1.14223 0
M  V30 17920 H 1688.9 0.191497 4.20965 0
M  V30 17921 H 1687.58 -0.456641 3.20463 0
M  V30 17922 H 1686.48 1.86032 3.24566 0
M  V30 17923 H 1687.82 2.4305 4.28004 0
M  V30 17924 N 1689.47 -1.23186 0.98301 0
M  V30 17925 C 1690.72 -1.91671 0.653342 0
M  V30 17926 C 1691.04 -1.76673 -0.813438 0
M  V30 17927 O 1690.3 -1.1232 -1.60258 0
M  V30 17928 C 1690.6 -3.43331 0.992898 0
M  V30 17929 C 1690.26 -3.78511 2.45032 0
M  V30 17930 C 1688.93 -3.87824 2.84861 0
M  V30 17931 C 1691.28 -3.95423 3.39544 0
M  V30 17932 C 1688.61 -4.11479 4.18213 0
M  V30 17933 C 1690.96 -4.20579 4.72543 0
M  V30 17934 C 1689.62 -4.28114 5.12128 0
M  V30 17935 H 1688.89 -0.701373 0.239075 0
M  V30 17936 H 1691.54 -1.46157 1.23736 0
M  V30 17937 H 1689.84 -3.90434 0.326832 0
M  V30 17938 H 1691.54 -3.94556 0.715995 0
M  V30 17939 H 1688.13 -3.71838 2.13154 0
M  V30 17940 H 1692.31 -3.87615 3.09949 0
M  V30 17941 H 1687.57 -4.15536 4.48486 0
M  V30 17942 H 1691.74 -4.32608 5.45732 0
M  V30 17943 H 1689.37 -4.46196 6.15478 0
M  V30 17944 N 1690.95 -0.754982 -1.38339 0
M  V30 17945 C 1692.18 -0.322156 -2.04073 0
M  V30 17946 C 1692.58 1.05488 -1.57063 0
M  V30 17947 O 1691.93 1.68154 -0.739597 0
M  V30 17948 C 1691.99 -0.267836 -3.58501 0
M  V30 17949 C 1691.65 -1.58665 -4.28572 0
M  V30 17950 C 1692.65 -2.53609 -4.53849 0
M  V30 17951 C 1690.34 -1.85647 -4.66734 0
M  V30 17952 C 1692.33 -3.73753 -5.16321 0
M  V30 17953 C 1690.02 -3.06065 -5.28931 0
M  V30 17954 C 1691.01 -3.99938 -5.53659 0
M  V30 17955 O 1690.7 -5.18238 -6.14561 0
M  V30 17956 H 1690.43 -0.135341 -0.662313 0
M  V30 17957 H 1692.99 -1.02517 -1.77987 0
M  V30 17958 H 1691.22 0.491434 -3.83565 0
M  V30 17959 H 1692.91 0.135662 -4.05673 0
M  V30 17960 H 1693.67 -2.3404 -4.24794 0
M  V30 17961 H 1689.55 -1.13415 -4.46831 0
M  V30 17962 H 1693.1 -4.47039 -5.35539 0
M  V30 17963 H 1688.99 -3.25526 -5.57408 0
M  V30 17964 H 1689.76 -5.18838 -6.33047 0
M  V30 17965 N 1692.42 1.49318 -0.504168 0
M  V30 17966 C 1693.84 1.86612 -0.0571729 0
M  V30 17967 C 1694.19 1.4162 1.35787 0
M  V30 17968 O 1693.31 0.79548 2.01249 0
M  V30 17969 C 1693.91 3.38661 -0.0969773 0
M  V30 17970 C 1692.47 3.75245 0.294692 0
M  V30 17971 C 1691.61 2.7332 -0.468125 0
M  V30 17972 H 1694.56 1.4159 -0.716788 0
M  V30 17973 H 1694.58 3.74051 0.697569 0
M  V30 17974 H 1694.1 3.71377 -1.12698 0
M  V30 17975 H 1692.2 3.48138 1.32781 0
M  V30 17976 H 1692.31 4.79092 -0.0269621 0
M  V30 17977 H 1690.67 2.54567 0.0824379 0
M  V30 17978 H 1691.46 3.0888 -1.49827 0
M  V30 17979 N 1693.9 0.238138 1.5579 0
M  V30 17980 C 1694.85 -0.681413 2.22395 0
M  V30 17981 C 1695.84 -1.18691 1.20867 0
M  V30 17982 O 1697.05 -1.14482 1.38903 0
M  V30 17983 H 1693.43 -0.238207 0.713275 0
M  V30 17984 H 1695.4 -0.0964141 2.98244 0
M  V30 17985 C 1694.15 -1.87137 2.93045 0
M  V30 17986 H 1693.47 -1.49153 3.70936 0
M  V30 17987 H 1694.91 -2.4922 3.43024 0
M  V30 17988 C 1693.37 -2.73709 1.9643 0
M  V30 17989 O 1693.9 -3.72973 1.49178 0
M  V30 17990 N 1692.1 -2.40092 1.6372 0
M  V30 17991 H 1691.65 -1.59423 2.02341 0
M  V30 17992 H 1691.61 -2.98293 0.993414 0
M  V30 17993 N 1695.38 -1.57561 -0.0350783 0
M  V30 17994 C 1696.63 -1.88996 -0.727095 0
M  V30 17995 C 1696.96 -0.834671 -1.7568 0
M  V30 17996 O 1696.21 0.165098 -1.95002 0
M  V30 17997 C 1696.51 -3.27169 -1.43858 0
M  V30 17998 C 1696.18 -4.47589 -0.545421 0
M  V30 17999 C 1694.84 -4.80268 -0.2994 0
M  V30 18000 C 1697.19 -5.21151 0.0716124 0
M  V30 18001 C 1694.52 -5.839 0.57253 0
M  V30 18002 C 1696.87 -6.25709 0.931209 0
M  V30 18003 C 1695.53 -6.56866 1.18675 0
M  V30 18004 H 1694.8 -0.691586 -0.266063 0
M  V30 18005 H 1697.45 -1.91496 0.0129076 0
M  V30 18006 H 1695.76 -3.2063 -2.25175 0
M  V30 18007 H 1697.45 -3.48738 -1.97946 0
M  V30 18008 H 1694.04 -4.22034 -0.747323 0
M  V30 18009 H 1698.23 -4.96188 -0.105504 0
M  V30 18010 H 1693.48 -6.06418 0.778882 0
M  V30 18011 H 1697.66 -6.81855 1.41587 0
M  V30 18012 H 1695.28 -7.3699 1.86412 0
M  V30 18013 N 1696.86 0.307236 -1.54576 0
M  V30 18014 C 1697.82 1.36178 -1.84359 0
M  V30 18015 C 1698.82 1.43971 -0.716163 0
M  V30 18016 O 1700.01 1.43715 -0.98446 0
M  V30 18017 C 1697.14 2.74733 -2.01828 0
M  V30 18018 H 1698.34 1.11017 -2.78595 0
M  V30 18019 H 1695.89 0.543582 -1.46543 0
M  V30 18020 H 1696.62 3.05126 -1.09858 0
M  V30 18021 H 1696.41 2.70468 -2.83883 0
M  V30 18022 H 1697.9 3.50992 -2.26261 0
M  V30 18023 N 1698.34 1.46926 0.570122 0
M  V30 18024 C 1699.25 1.6105 1.70587 0
M  V30 18025 C 1700.26 0.493636 1.66851 0
M  V30 18026 O 1701.44 0.759454 1.86532 0
M  V30 18027 C 1698.5 1.60913 3.07096 0
M  V30 18028 C 1697.56 2.83928 3.21999 0
M  V30 18029 C 1696.8 2.83788 4.51996 0
M  V30 18030 O 1697.02 1.93256 5.36664 0
M  V30 18031 O 1695.95 3.75491 4.70415 0
M  V30 18032 H 1699.78 2.57126 1.61616 0
M  V30 18033 H 1697.37 1.29863 0.738637 0
M  V30 18034 H 1699.25 1.63576 3.88356 0
M  V30 18035 H 1697.92 0.680005 3.16477 0
M  V30 18036 H 1696.83 2.86814 2.40185 0
M  V30 18037 H 1698.16 3.76091 3.17516 0
M  V30 18038 N 1699.82 -0.815801 1.34842 0
M  V30 18039 C 1701.06 -1.5693 1.27347 0
M  V30 18040 C 1701.38 -1.94387 -0.154462 0
M  V30 18041 O 1700.65 -1.62858 -1.08876 0
M  V30 18042 H 1699.23 -0.581923 0.468374 0
M  V30 18043 H 1701.9 -0.973642 1.68838 0
M  V30 18044 H 1700.99 -2.4889 1.88308 0
M  V30 18045 N 1701.29 -1.18689 -1.03686 0
M  V30 18046 C 1702.54 -0.978948 -1.7635 0
M  V30 18047 C 1702.86 0.49195 -1.89312 0
M  V30 18048 O 1704.06 0.818501 -2.58868 0
M  V30 18049 C 1702.52 -1.70255 -3.17083 0
M  V30 18050 C 1702.13 -3.21301 -3.12201 0
M  V30 18051 C 1703.87 -1.57756 -3.94098 0
M  V30 18052 C 1701.78 -3.86284 -4.47815 0
M  V30 18053 H 1700.71 -0.362652 -0.661059 0
M  V30 18054 H 1703.36 -1.42102 -1.161 0
M  V30 18055 H 1701.74 -1.18826 -3.77752 0
M  V30 18056 H 1702.91 -3.79785 -2.6096 0
M  V30 18057 H 1701.23 -3.33984 -2.48684 0
M  V30 18058 H 1703.83 -2.03664 -4.94394 0
M  V30 18059 H 1704.17 -0.530427 -4.12907 0
M  V30 18060 H 1704.7 -2.06486 -3.40012 0
M  V30 18061 H 1701.44 -4.91061 -4.34211 0
M  V30 18062 H 1700.96 -3.32589 -4.99144 0
M  V30 18063 H 1702.64 -3.89369 -5.16721 0
M  V30 18064 N 1702.77 1.22662 -0.989529 0
M  V30 18065 C 1703.73 2.22695 -0.542183 0
M  V30 18066 C 1704.73 1.56411 0.373132 0
M  V30 18067 O 1705.92 1.73412 0.165556 0
M  V30 18068 C 1703.06 3.40241 0.211841 0
M  V30 18069 H 1704.25 2.63786 -1.42678 0
M  V30 18070 H 1701.8 1.35654 -0.776377 0
M  V30 18071 H 1702.54 3.04618 1.11257 0
M  V30 18072 H 1702.32 3.89563 -0.445319 0
M  V30 18073 H 1703.81 4.14436 0.513107 0
M  V30 18074 N 1704.25 0.762308 1.37937 0
M  V30 18075 C 1705.18 0.156036 2.32978 0
M  V30 18076 C 1706.16 -0.693795 1.55308 0
M  V30 18077 O 1707.35 -0.633195 1.83587 0
M  V30 18078 C 1704.48 -0.731199 3.39515 0
M  V30 18079 C 1703.43 0.0165834 4.27997 0
M  V30 18080 C 1702.76 -0.989476 5.25465 0
M  V30 18081 C 1704.06 1.19009 5.08561 0
M  V30 18082 H 1705.75 0.949978 2.83929 0
M  V30 18083 H 1703.3 0.458269 1.36513 0
M  V30 18084 H 1705.25 -1.16507 4.04974 0
M  V30 18085 H 1703.97 -1.55756 2.87067 0
M  V30 18086 H 1702.63 0.431128 3.64056 0
M  V30 18087 H 1702.28 -1.81013 4.69301 0
M  V30 18088 H 1701.98 -0.493738 5.85522 0
M  V30 18089 H 1703.5 -1.42248 5.93799 0
M  V30 18090 H 1704.92 0.833336 5.67211 0
M  V30 18091 H 1703.31 1.61727 5.77896 0
M  V30 18092 H 1704.38 1.99879 4.41788 0
M  V30 18093 N 1705.73 -1.49049 0.51208 0
M  V30 18094 C 1706.95 -2.07382 -0.0271044 0
M  V30 18095 C 1707.38 -1.3685 -1.29049 0
M  V30 18096 O 1706.74 -0.428713 -1.76158 0
M  V30 18097 C 1706.78 -3.59715 -0.252462 0
M  V30 18098 O 1705.89 -3.90538 -1.32491 0
M  V30 18099 H 1705.23 -0.663269 0.0311507 0
M  V30 18100 H 1707.76 -1.91705 0.714873 0
M  V30 18101 H 1707.77 -4.05159 -0.480603 0
M  V30 18102 H 1706.44 -4.10459 0.670531 0
M  V30 18103 H 1705.02 -3.56892 -1.08085 0
M  V30 18104 N 1707.21 -0.246397 -1.55662 0
M  V30 18105 C 1708.48 0.42879 -1.90842 0
M  V30 18106 C 1708.86 1.75905 -1.16707 0
M  V30 18107 O 1708.21 2.26723 -0.284391 0
M  V30 18108 C 1708.42 0.597368 -3.4385 0
M  V30 18109 C 1709.77 0.893477 -4.15093 0
M  V30 18110 O 1710.79 0.683251 -3.49586 0
M  V30 18111 O 1709.65 1.2938 -5.30964 0
M  V30 18112 H 1706.75 0.230145 -0.794331 0
M  V30 18113 H 1709.29 -0.290426 -1.67196 0
M  V30 18114 H 1708.06 -0.339952 -3.8982 0
M  V30 18115 H 1707.69 1.36714 -3.73356 0
M  V30 18116 N 1708.68 1.57577 0.026722 0
M  V30 18117 C 1710.09 1.77689 0.573022 0
M  V30 18118 C 1710.45 0.877771 1.7547 0
M  V30 18119 O 1709.57 0.0732156 2.16276 0
M  V30 18120 C 1710.17 3.22239 1.0463 0
M  V30 18121 C 1708.72 3.4354 1.5381 0
M  V30 18122 C 1707.87 2.73163 0.47722 0
M  V30 18123 H 1710.82 1.57441 -0.199502 0
M  V30 18124 H 1710.84 3.28882 1.91355 0
M  V30 18125 H 1710.36 3.87654 0.186047 0
M  V30 18126 H 1708.46 2.83304 2.42012 0
M  V30 18127 H 1708.57 4.52158 1.58398 0
M  V30 18128 H 1706.93 2.37004 0.932793 0
M  V30 18129 H 1707.72 3.41261 -0.373605 0
M  V30 18130 N 1710.16 -0.299034 1.54737 0
M  V30 18131 C 1711.41 -1.03553 1.74369 0
M  V30 18132 C 1711.74 -1.86856 0.529019 0
M  V30 18133 O 1711.02 -1.8864 -0.473854 0
M  V30 18134 C 1711.3 -1.93988 3.03382 0
M  V30 18135 C 1711.15 -1.13852 4.35153 0
M  V30 18136 C 1712.47 -2.93128 3.28274 0
M  V30 18137 H 1709.59 -0.375055 0.634431 0
M  V30 18138 H 1712.23 -0.310018 1.87454 0
M  V30 18139 H 1710.38 -2.5585 2.92358 0
M  V30 18140 H 1712.05 -0.542614 4.58098 0
M  V30 18141 H 1710.3 -0.441278 4.3155 0
M  V30 18142 H 1710.97 -1.80385 5.21694 0
M  V30 18143 H 1713.44 -2.41396 3.38921 0
M  V30 18144 H 1712.32 -3.53569 4.19857 0
M  V30 18145 H 1712.58 -3.66892 2.46663 0
M  V30 18146 N 1711.64 -1.47227 -0.562322 0
M  V30 18147 C 1712.6 -1.58887 -1.6519 0
M  V30 18148 C 1713.6 -0.464359 -1.53949 0
M  V30 18149 O 1714.79 -0.729279 -1.582 0
M  V30 18150 C 1711.92 -1.52853 -3.04711 0
M  V30 18151 H 1713.12 -2.5601 -1.56202 0
M  V30 18152 H 1710.67 -1.35341 -0.781832 0
M  V30 18153 H 1711.41 -0.570867 -3.19236 0
M  V30 18154 H 1711.19 -2.3446 -3.14279 0
M  V30 18155 H 1712.68 -1.6414 -3.83989 0
M  V30 18156 N 1713.12 0.808639 -1.35273 0
M  V30 18157 C 1714.06 1.92036 -1.28026 0
M  V30 18158 C 1715.03 1.65397 -0.152611 0
M  V30 18159 O 1716.22 1.87819 -0.335972 0
M  V30 18160 C 1713.36 3.28544 -1.05607 0
M  V30 18161 C 1712.47 3.67382 -2.27276 0
M  V30 18162 C 1711.61 4.9291 -1.98024 0
M  V30 18163 C 1710.65 5.2437 -3.15757 0
M  V30 18164 N 1709.78 6.41077 -2.86294 0
M  V30 18165 H 1714.62 1.97567 -2.23095 0
M  V30 18166 H 1712.16 0.966397 -1.10902 0
M  V30 18167 H 1714.12 4.07234 -0.906418 0
M  V30 18168 H 1712.75 3.22487 -0.142015 0
M  V30 18169 H 1711.8 2.83969 -2.53112 0
M  V30 18170 H 1713.11 3.86593 -3.15194 0
M  V30 18171 H 1712.27 5.79421 -1.79877 0
M  V30 18172 H 1711.01 4.7573 -1.07387 0
M  V30 18173 H 1710.01 4.36349 -3.34483 0
M  V30 18174 H 1711.24 5.4348 -4.07193 0
M  V30 18175 H 1709.18 6.25327 -1.98249 0
M  V30 18176 H 1709.1 6.60528 -3.67748 0
M  V30 18177 H 1710.37 7.30622 -2.71684 0
M  V30 18178 N 1714.6 1.19237 1.03055 0
M  V30 18179 C 1715.51 0.943876 2.14775 0
M  V30 18180 C 1716.52 -0.0955384 1.73738 0
M  V30 18181 O 1717.7 0.0887187 2.01204 0
M  V30 18182 C 1714.76 0.48402 3.43305 0
M  V30 18183 C 1713.82 1.59262 3.98665 0
M  V30 18184 C 1713.06 1.15461 5.21061 0
M  V30 18185 O 1713.28 0.0174841 5.70397 0
M  V30 18186 O 1712.21 1.95648 5.69215 0
M  V30 18187 H 1716.04 1.87894 2.38599 0
M  V30 18188 H 1713.63 0.975046 1.13195 0
M  V30 18189 H 1715.51 0.236135 4.20738 0
M  V30 18190 H 1714.18 -0.422626 3.20929 0
M  V30 18191 H 1713.09 1.89464 3.22574 0
M  V30 18192 H 1714.42 2.47576 4.25402 0
M  V30 18193 N 1716.07 -1.22136 0.99602 0
M  V30 18194 C 1717.3 -1.95519 0.69189 0
M  V30 18195 C 1717.72 -1.7304 -0.73748 0
M  V30 18196 O 1717.08 -1.01157 -1.50456 0
M  V30 18197 C 1717.13 -3.46244 1.00735 0
M  V30 18198 O 1716.23 -4.12259 0.107713 0
M  V30 18199 H 1715.58 -0.611553 0.258648 0
M  V30 18200 H 1718.11 -1.55145 1.33384 0
M  V30 18201 H 1718.12 -3.96774 0.950482 0
M  V30 18202 H 1716.79 -3.6193 2.04889 0
M  V30 18203 H 1715.37 -3.72248 0.220336 0
M  V30 18204 N 1717.55 -0.769612 -1.37531 0
M  V30 18205 C 1718.79 -0.338106 -2.01584 0
M  V30 18206 C 1719.16 1.06474 -1.59773 0
M  V30 18207 O 1720.36 1.59624 -2.16272 0
M  V30 18208 C 1718.63 -0.474572 -3.54235 0
M  V30 18209 S 1720.19 -0.128014 -4.38613 0
M  V30 18210 H 1717.01 -0.130211 -0.698975 0
M  V30 18211 H 1719.61 -1.00376 -1.67765 0
M  V30 18212 H 1718.31 -1.49622 -3.82154 0
M  V30 18213 H 1717.84 0.207706 -3.92851 0
M  V30 18214 H 1719.86 1.07715 -4.84368 0
M  V30 18215 N 1719.03 1.48775 -0.519977 0
M  V30 18216 C 1719.96 2.26281 0.295295 0
M  V30 18217 C 1720.94 1.31694 0.953695 0
M  V30 18218 O 1722.13 1.61019 0.980063 0
M  V30 18219 C 1719.25 3.07617 1.41738 0
M  V30 18220 C 1718.3 4.17503 0.871411 0
M  V30 18221 S 1719.13 5.34903 -0.252845 0
M  V30 18222 C 1720.29 6.19797 0.871949 0
M  V30 18223 H 1720.52 2.95082 -0.362498 0
M  V30 18224 H 1718.05 1.51346 -0.305587 0
M  V30 18225 H 1720.01 3.55058 2.0602 0
M  V30 18226 H 1718.67 2.38249 2.04685 0
M  V30 18227 H 1717.87 4.74 1.71288 0
M  V30 18228 H 1717.47 3.7275 0.305463 0
M  V30 18229 H 1719.76 6.53892 1.7729 0
M  V30 18230 H 1720.7 7.07258 0.345174 0
M  V30 18231 H 1721.11 5.52707 1.14784 0
M  V30 18232 N 1720.51 0.254649 1.55529 0
M  V30 18233 C 1721.44 -0.635656 2.24681 0
M  V30 18234 C 1722.42 -1.17519 1.22977 0
M  V30 18235 O 1723.6 -1.21311 1.51649 0
M  V30 18236 C 1720.73 -1.82922 2.95224 0
M  V30 18237 C 1719.69 -1.42212 4.03683 0
M  V30 18238 C 1719.01 -2.69713 4.61691 0
M  V30 18239 C 1720.31 -0.587436 5.18986 0
M  V30 18240 H 1722.01 -0.0590063 2.99342 0
M  V30 18241 H 1719.55 -0.02694 1.43975 0
M  V30 18242 H 1721.51 -2.45777 3.42304 0
M  V30 18243 H 1720.23 -2.43137 2.18064 0
M  V30 18244 H 1718.89 -0.81687 3.57383 0
M  V30 18245 H 1718.54 -3.28143 3.81223 0
M  V30 18246 H 1718.24 -2.43194 5.34911 0
M  V30 18247 H 1719.76 -3.33453 5.11509 0
M  V30 18248 H 1721.18 -1.12048 5.62244 0
M  V30 18249 H 1719.57 -0.417988 5.98643 0
M  V30 18250 H 1720.64 0.398577 4.83259 0
M  V30 18251 N 1721.99 -1.57589 -0.0183649 0
M  V30 18252 C 1722.93 -2.08354 -1.03398 0
M  V30 18253 C 1723.93 -0.999575 -1.36766 0
M  V30 18254 O 1725.13 -1.18438 -1.35545 0
M  V30 18255 H 1721.51 -0.665046 -0.351023 0
M  V30 18256 H 1723.48 -2.92707 -0.580111 0
M  V30 18257 C 1722.23 -2.58713 -2.32299 0
M  V30 18258 H 1721.55 -3.41744 -2.07487 0
M  V30 18259 H 1722.99 -2.97932 -3.01683 0
M  V30 18260 C 1721.45 -1.49307 -3.02008 0
M  V30 18261 O 1721.98 -0.865426 -3.92267 0
M  V30 18262 N 1720.19 -1.225 -2.63519 0
M  V30 18263 H 1719.73 -1.73724 -1.90205 0
M  V30 18264 H 1719.69 -0.495132 -3.10477 0
M  V30 18265 N 1723.46 0.290824 -1.54893 0
M  V30 18266 C 1724.39 1.36354 -1.89551 0
M  V30 18267 C 1725.38 1.52403 -0.75546 0
M  V30 18268 O 1726.56 1.65743 -1.01208 0
M  V30 18269 C 1723.69 2.72609 -2.15178 0
M  V30 18270 C 1722.64 2.71313 -3.31019 0
M  V30 18271 C 1721.97 4.10952 -3.42085 0
M  V30 18272 C 1723.27 2.32153 -4.6787 0
M  V30 18273 H 1724.96 1.07597 -2.79398 0
M  V30 18274 H 1722.51 0.516154 -1.34432 0
M  V30 18275 H 1724.46 3.47749 -2.3801 0
M  V30 18276 H 1723.19 3.02913 -1.22112 0
M  V30 18277 H 1721.85 1.9863 -3.08126 0
M  V30 18278 H 1721.49 4.38449 -2.46518 0
M  V30 18279 H 1721.19 4.10984 -4.1996 0
M  V30 18280 H 1722.72 4.87857 -3.67189 0
M  V30 18281 H 1724.13 2.97011 -4.90364 0
M  V30 18282 H 1722.53 2.4338 -5.48531 0
M  V30 18283 H 1723.6 1.27279 -4.67897 0
M  V30 18284 N 1724.94 1.47523 0.554506 0
M  V30 18285 C 1725.87 1.63093 1.67102 0
M  V30 18286 C 1726.85 0.480298 1.63178 0
M  V30 18287 O 1728.04 0.709956 1.80757 0
M  V30 18288 C 1725.17 1.64751 3.05736 0
M  V30 18289 C 1724.12 2.79068 3.24507 0
M  V30 18290 C 1723.45 2.65801 4.63955 0
M  V30 18291 C 1724.75 4.20631 3.09623 0
M  V30 18292 H 1726.44 2.56561 1.54328 0
M  V30 18293 H 1723.99 1.2347 0.741023 0
M  V30 18294 H 1725.94 1.74234 3.83693 0
M  V30 18295 H 1724.67 0.678453 3.19475 0
M  V30 18296 H 1723.32 2.691 2.48959 0
M  V30 18297 H 1722.97 1.66917 4.74497 0
M  V30 18298 H 1722.67 3.42494 4.77464 0
M  V30 18299 H 1724.2 2.77216 5.44044 0
M  V30 18300 H 1725.61 4.31562 3.77396 0
M  V30 18301 H 1724.01 4.98133 3.3464 0
M  V30 18302 H 1725.08 4.38809 2.06336 0
M  V30 18303 N 1726.42 -0.801453 1.357 0
M  V30 18304 C 1727.35 -1.92807 1.31711 0
M  V30 18305 C 1728.33 -1.69028 0.190642 0
M  V30 18306 O 1729.52 -1.90317 0.38641 0
M  V30 18307 C 1726.65 -3.29635 1.09352 0
M  V30 18308 C 1725.6 -3.67908 2.18695 0
M  V30 18309 C 1724.93 -5.02955 1.81494 0
M  V30 18310 C 1726.23 -3.77749 3.60698 0
M  V30 18311 H 1727.92 -1.96401 2.2598 0
M  V30 18312 H 1725.47 -0.943528 1.08782 0
M  V30 18313 H 1727.42 -4.08058 1.052 0
M  V30 18314 H 1726.14 -3.26396 0.115306 0
M  V30 18315 H 1724.8 -2.91775 2.21952 0
M  V30 18316 H 1724.45 -4.96225 0.822776 0
M  V30 18317 H 1724.15 -5.29533 2.54692 0
M  V30 18318 H 1725.67 -5.83811 1.78876 0
M  V30 18319 H 1727.09 -4.4639 3.59734 0
M  V30 18320 H 1725.49 -4.15801 4.327 0
M  V30 18321 H 1726.56 -2.79167 3.96477 0
M  V30 18322 N 1727.9 -1.19782 -1.02421 0
M  V30 18323 C 1729.12 -1.02939 -1.80051 0
M  V30 18324 C 1729.55 0.417153 -1.83416 0
M  V30 18325 O 1728.91 1.3001 -1.26361 0
M  V30 18326 C 1728.95 -1.60853 -3.22736 0
M  V30 18327 O 1728.06 -0.840999 -4.03734 0
M  V30 18328 H 1727.4 -0.363537 -0.555641 0
M  V30 18329 H 1729.93 -1.58908 -1.28878 0
M  V30 18330 H 1729.94 -1.64266 -3.73471 0
M  V30 18331 H 1728.61 -2.66135 -3.19602 0
M  V30 18332 H 1727.19 -0.880482 -3.62356 0
M  V30 18333 N 1729.38 1.21606 -1.00248 0
M  V30 18334 C 1730.31 2.26159 -0.580911 0
M  V30 18335 C 1731.29 1.65402 0.397017 0
M  V30 18336 O 1732.47 1.92089 0.285552 0
M  V30 18337 C 1729.6 3.47168 0.0957564 0
M  V30 18338 C 1728.56 4.20425 -0.801695 0
M  V30 18339 C 1727.88 5.34699 0.00842241 0
M  V30 18340 C 1729.18 4.78086 -2.10311 0
M  V30 18341 H 1730.88 2.61675 -1.45487 0
M  V30 18342 H 1728.42 1.25786 -0.700995 0
M  V30 18343 H 1730.38 4.19477 0.402141 0
M  V30 18344 H 1729.1 3.10775 1.00433 0
M  V30 18345 H 1727.76 3.49963 -1.09187 0
M  V30 18346 H 1727.41 4.94548 0.918206 0
M  V30 18347 H 1727.11 5.84639 -0.589105 0
M  V30 18348 H 1728.63 6.09819 0.30868 0
M  V30 18349 H 1730.05 5.42287 -1.86004 0
M  V30 18350 H 1728.44 5.38405 -2.65028 0
M  V30 18351 H 1729.51 3.97607 -2.77555 0
M  V30 18352 N 1730.86 0.776895 1.37121 0
M  V30 18353 C 1732.27 0.408311 1.8218 0
M  V30 18354 C 1732.62 -1.06621 1.64701 0
M  V30 18355 O 1731.74 -1.82621 1.16097 0
M  V30 18356 C 1732.34 0.734339 3.30746 0
M  V30 18357 C 1730.9 0.418746 3.74063 0
M  V30 18358 C 1730.04 0.97551 2.59575 0
M  V30 18359 H 1732.99 0.971111 1.25519 0
M  V30 18360 H 1733.02 0.0208557 3.80494 0
M  V30 18361 H 1732.53 1.80757 3.43436 0
M  V30 18362 H 1730.63 -0.646961 3.6694 0
M  V30 18363 H 1730.74 0.930597 4.69975 0
M  V30 18364 H 1729.11 0.399449 2.51548 0
M  V30 18365 H 1729.89 2.05425 2.75056 0
M  V30 18366 N 1732.33 -1.48497 0.527859 0
M  V30 18367 C 1733.24 -2.3337 -0.239957 0
M  V30 18368 C 1734.26 -1.46353 -0.941101 0
M  V30 18369 O 1735.44 -1.79337 -0.916532 0
M  V30 18370 C 1732.5 -3.22421 -1.27458 0
M  V30 18371 C 1731.56 -4.25309 -0.584017 0
M  V30 18372 C 1730.79 -5.10105 -1.56935 0
M  V30 18373 O 1731.02 -4.96846 -2.80178 0
M  V30 18374 O 1729.95 -5.91578 -1.10991 0
M  V30 18375 H 1733.78 -3.00265 0.455458 0
M  V30 18376 H 1731.36 -1.46582 0.288809 0
M  V30 18377 H 1733.24 -3.7751 -1.87254 0
M  V30 18378 H 1731.92 -2.58189 -1.95244 0
M  V30 18379 H 1730.83 -3.7406 0.0543828 0
M  V30 18380 H 1732.16 -4.92173 0.0518646 0
M  V30 18381 N 1733.81 -0.262893 -1.55392 0
M  V30 18382 C 1734.77 0.616662 -2.20749 0
M  V30 18383 C 1735.77 1.09066 -1.18158 0
M  V30 18384 O 1736.96 0.992797 -1.4314 0
M  V30 18385 C 1734.1 1.84937 -2.86376 0
M  V30 18386 H 1735.29 0.0462013 -2.99864 0
M  V30 18387 H 1732.84 -0.013432 -1.56294 0
M  V30 18388 H 1733.58 2.46066 -2.1124 0
M  V30 18389 H 1733.36 1.51754 -3.61543 0
M  V30 18390 H 1734.85 2.47511 -3.36345 0
M  V30 18391 N 1735.29 1.57597 0.0100073 0
M  V30 18392 C 1736.24 2.089 1.02292 0
M  V30 18393 C 1737.23 1.00681 1.36234 0
M  V30 18394 O 1738.44 1.19155 1.34915 0
M  V30 18395 H 1734.81 0.666899 0.347491 0
M  V30 18396 H 1736.78 2.9301 0.56458 0
M  V30 18397 C 1735.53 2.59942 2.30923 0
M  V30 18398 H 1734.86 3.4284 2.05672 0
M  V30 18399 H 1736.3 2.99528 3.00098 0
M  V30 18400 C 1734.75 1.50907 3.01212 0
M  V30 18401 O 1735.28 0.886216 3.91802 0
M  V30 18402 N 1733.49 1.23895 2.62866 0
M  V30 18403 H 1733.04 1.7473 1.89281 0
M  V30 18404 H 1733 0.511591 3.1021 0
M  V30 18405 N 1736.77 -0.282606 1.55045 0
M  V30 18406 C 1737.7 -1.35347 1.90272 0
M  V30 18407 C 1738.68 -1.52001 0.763532 0
M  V30 18408 O 1739.86 -1.65204 1.02085 0
M  V30 18409 C 1736.99 -2.71464 2.16621 0
M  V30 18410 C 1735.95 -2.69554 3.32453 0
M  V30 18411 C 1735.27 -4.09132 3.4426 0
M  V30 18412 C 1736.57 -2.29669 4.69094 0
M  V30 18413 H 1738.27 -1.06113 2.79965 0
M  V30 18414 H 1735.81 -0.509018 1.34703 0
M  V30 18415 H 1737.77 -3.46482 2.39851 0
M  V30 18416 H 1736.49 -3.02261 1.23717 0
M  V30 18417 H 1735.15 -1.96993 3.09175 0
M  V30 18418 H 1734.8 -4.37136 2.4884 0
M  V30 18419 H 1734.5 -4.08751 4.22133 0
M  V30 18420 H 1736.02 -4.85903 3.69771 0
M  V30 18421 H 1737.44 -2.94407 4.91932 0
M  V30 18422 H 1735.83 -2.40467 5.49814 0
M  V30 18423 H 1736.9 -1.24796 4.68566 0
M  V30 18424 N 1738.25 -1.47815 -0.546675 0
M  V30 18425 C 1739.18 -1.63976 -1.66235 0
M  V30 18426 C 1740.16 -0.488945 -1.62921 0
M  V30 18427 O 1741.34 -0.719532 -1.80378 0
M  V30 18428 C 1738.47 -1.6637 -3.04858 0
M  V30 18429 C 1737.43 -2.80785 -3.23023 0
M  V30 18430 C 1736.75 -2.68257 -4.62539 0
M  V30 18431 C 1738.05 -4.22267 -3.07388 0
M  V30 18432 H 1739.75 -2.57375 -1.52965 0
M  V30 18433 H 1737.29 -1.23861 -0.734465 0
M  V30 18434 H 1739.24 -1.76266 -3.82764 0
M  V30 18435 H 1737.97 -0.695386 -3.19111 0
M  V30 18436 H 1736.63 -2.70417 -2.47529 0
M  V30 18437 H 1736.28 -1.69431 -4.73606 0
M  V30 18438 H 1735.98 -3.45022 -4.75641 0
M  V30 18439 H 1737.5 -2.80097 -5.42566 0
M  V30 18440 H 1738.91 -4.33557 -3.75102 0
M  V30 18441 H 1737.31 -4.999 -3.31994 0
M  V30 18442 H 1738.38 -4.39897 -2.04006 0
M  V30 18443 N 1739.72 0.794246 -1.36123 0
M  V30 18444 C 1740.95 1.58297 -1.33228 0
M  V30 18445 C 1741.37 1.88597 0.0875426 0
M  V30 18446 O 1740.72 1.49754 1.04307 0
M  V30 18447 C 1740.77 2.90687 -2.14904 0
M  V30 18448 O 1740.5 2.61695 -3.51351 0
M  V30 18449 C 1742 3.85009 -2.19734 0
M  V30 18450 H 1739.22 0.491139 -0.457191 0
M  V30 18451 H 1741.76 0.986129 -1.79153 0
M  V30 18452 H 1739.92 3.46852 -1.72546 0
M  V30 18453 H 1740.33 3.46313 -3.93913 0
M  V30 18454 H 1741.8 4.74976 -2.8125 0
M  V30 18455 H 1742.28 4.22504 -1.19946 0
M  V30 18456 H 1742.89 3.34777 -2.62307 0
M  V30 18457 N 1741.2 1.20323 1.01785 0
M  V30 18458 C 1742.45 1.01263 1.75363 0
M  V30 18459 C 1742.78 -0.455392 1.89094 0
M  V30 18460 O 1742.03 -1.35435 1.41266 0
M  V30 18461 C 1742.33 1.63984 3.1756 0
M  V30 18462 C 1742 3.13781 3.23809 0
M  V30 18463 C 1740.66 3.54661 3.25222 0
M  V30 18464 C 1743.01 4.09779 3.22072 0
M  V30 18465 C 1740.34 4.90068 3.22568 0
M  V30 18466 C 1742.69 5.45131 3.20959 0
M  V30 18467 C 1741.35 5.85426 3.20675 0
M  V30 18468 H 1740.62 0.370547 0.641698 0
M  V30 18469 H 1743.27 1.4973 1.19387 0
M  V30 18470 H 1741.58 1.07776 3.76685 0
M  V30 18471 H 1743.27 1.46753 3.73182 0
M  V30 18472 H 1739.86 2.81215 3.23444 0
M  V30 18473 H 1744.05 3.79231 3.20152 0
M  V30 18474 H 1739.3 5.20553 3.20678 0
M  V30 18475 H 1743.48 6.19264 3.18568 0
M  V30 18476 H 1741.1 6.90321 3.18373 0
M  V30 18477 N 1742.68 -1.21073 1.00892 0
M  V30 18478 C 1743.61 -2.25847 0.592897 0
M  V30 18479 C 1744.59 -1.6561 -0.38824 0
M  V30 18480 O 1745.78 -1.92238 -0.275361 0
M  V30 18481 C 1742.91 -3.47214 -0.0773439 0
M  V30 18482 C 1741.86 -4.19994 0.82398 0
M  V30 18483 C 1741.19 -5.34696 0.0199341 0
M  V30 18484 C 1742.49 -4.76964 2.12844 0
M  V30 18485 H 1744.18 -2.609 1.46873 0
M  V30 18486 H 1741.73 -1.25412 0.707656 0
M  V30 18487 H 1743.68 -4.19684 -0.379889 0
M  V30 18488 H 1742.4 -3.11303 -0.987833 0
M  V30 18489 H 1741.06 -3.49379 1.11041 0
M  V30 18490 H 1740.71 -4.95028 -0.891966 0
M  V30 18491 H 1740.41 -5.84319 0.620102 0
M  V30 18492 H 1741.93 -6.09974 -0.276336 0
M  V30 18493 H 1743.35 -5.41293 1.88878 0
M  V30 18494 H 1741.74 -5.36992 2.67879 0
M  V30 18495 H 1742.81 -3.96129 2.79659 0
M  V30 18496 N 1744.16 -0.784156 -1.36707 0
M  V30 18497 C 1745.41 -0.354133 -1.99379 0
M  V30 18498 C 1745.73 1.07276 -1.62241 0
M  V30 18499 O 1744.99 1.75481 -0.866317 0
M  V30 18500 C 1745.29 -0.459004 -3.5444 0
M  V30 18501 C 1744.95 -1.84594 -4.11383 0
M  V30 18502 C 1743.62 -2.22543 -4.26648 0
M  V30 18503 C 1745.97 -2.75433 -4.42477 0
M  V30 18504 C 1743.3 -3.50744 -4.70315 0
M  V30 18505 C 1745.65 -4.03056 -4.87574 0
M  V30 18506 C 1744.31 -4.41034 -5.01044 0
M  V30 18507 H 1743.58 -0.129586 -0.729581 0
M  V30 18508 H 1746.23 -1.00059 -1.6328 0
M  V30 18509 H 1744.53 0.27097 -3.90862 0
M  V30 18510 H 1746.23 -0.107393 -4.00856 0
M  V30 18511 H 1742.82 -1.54103 -3.99938 0
M  V30 18512 H 1747 -2.4737 -4.30258 0
M  V30 18513 H 1742.26 -3.80047 -4.78931 0
M  V30 18514 H 1746.43 -4.73563 -5.10599 0
M  V30 18515 H 1744.06 -5.4043 -5.34639 0
M  V30 18516 N 1745.64 1.48215 -0.535727 0
M  V30 18517 C 1746.57 2.3253 0.212562 0
M  V30 18518 C 1747.55 1.42454 0.929568 0
M  V30 18519 O 1748.73 1.71334 0.914228 0
M  V30 18520 C 1745.86 3.23777 1.25641 0
M  V30 18521 C 1744.82 4.22924 0.657191 0
M  V30 18522 C 1744.14 5.03345 1.80411 0
M  V30 18523 C 1745.44 5.20953 -0.374902 0
M  V30 18524 H 1747.14 2.95341 -0.491301 0
M  V30 18525 H 1744.68 1.42024 -0.237718 0
M  V30 18526 H 1746.64 3.81592 1.78789 0
M  V30 18527 H 1745.36 2.58978 1.98993 0
M  V30 18528 H 1744.02 3.66304 0.147184 0
M  V30 18529 H 1743.67 4.34965 2.52615 0
M  V30 18530 H 1743.37 5.70455 1.40906 0
M  V30 18531 H 1744.89 5.64013 2.33926 0
M  V30 18532 H 1746.3 5.73258 0.0697072 0
M  V30 18533 H 1744.7 5.96147 -0.687646 0
M  V30 18534 H 1745.77 4.67739 -1.27861 0
M  V30 18535 N 1747.11 0.27113 1.5525 0
M  V30 18536 C 1748.04 -0.61179 2.25343 0
M  V30 18537 C 1749.03 -1.16208 1.24216 0
M  V30 18538 O 1750.21 -1.19696 1.52927 0
M  V30 18539 C 1747.34 -1.7978 2.97147 0
M  V30 18540 C 1746.29 -1.37922 4.05169 0
M  V30 18541 C 1745.62 -2.64801 4.64526 0
M  V30 18542 C 1746.92 -0.532357 5.1958 0
M  V30 18543 H 1748.61 -0.0272538 2.99388 0
M  V30 18544 H 1746.16 -0.0116681 1.43995 0
M  V30 18545 H 1748.11 -2.42132 3.44891 0
M  V30 18546 H 1746.84 -2.40811 2.20631 0
M  V30 18547 H 1745.5 -0.778918 3.5823 0
M  V30 18548 H 1745.14 -3.24081 3.84682 0
M  V30 18549 H 1744.84 -2.37507 5.37461 0
M  V30 18550 H 1746.37 -3.28009 5.15017 0
M  V30 18551 H 1747.78 -1.06078 5.63401 0
M  V30 18552 H 1746.18 -0.35447 5.99052 0
M  V30 18553 H 1747.25 0.44981 4.82809 0
M  V30 18554 N 1748.59 -1.576 -0.00164943 0
M  V30 18555 C 1749.87 -1.81716 -0.723788 0
M  V30 18556 C 1750.25 -0.875694 -1.9208 0
M  V30 18557 O 1749.6 0.0759629 -2.28374 0
M  V30 18558 C 1749.81 -3.30164 -1.13106 0
M  V30 18559 C 1751.16 -3.95859 -1.5356 0
M  V30 18560 O 1752.18 -3.34477 -1.2249 0
M  V30 18561 O 1751.04 -5.03986 -2.1133 0
M  V30 18562 H 1748.13 -0.748213 -0.352287 0
M  V30 18563 H 1750.68 -1.69683 0.0236782 0
M  V30 18564 H 1749.45 -3.90313 -0.277771 0
M  V30 18565 H 1749.07 -3.47188 -1.93768 0
M  V30 18566 N 1750.07 0.274379 -1.55193 0
M  V30 18567 C 1751.02 1.34139 -1.84366 0
M  V30 18568 C 1752 1.44755 -0.702475 0
M  V30 18569 O 1753.2 1.48459 -0.963785 0
M  V30 18570 C 1750.33 2.7019 -2.11784 0
M  V30 18571 C 1749.41 2.63689 -3.32158 0
M  V30 18572 N 1749.8 2.26808 -4.52097 0
M  V30 18573 C 1748.1 2.94752 -3.34719 0
M  V30 18574 C 1748.8 2.30264 -5.34185 0
M  V30 18575 N 1747.78 2.68683 -4.72557 0
M  V30 18576 H 1751.58 1.0463 -2.74645 0
M  V30 18577 H 1749.09 0.483012 -1.55051 0
M  V30 18578 H 1751.09 3.47158 -2.30839 0
M  V30 18579 H 1749.75 3.00588 -1.22788 0
M  V30 18580 H 1750.76 1.98809 -4.78221 0
M  V30 18581 H 1747.44 3.29871 -2.55912 0
M  V30 18582 H 1748.83 2.04323 -6.4008 0
M  V30 18583 N 1751.55 1.48103 0.538828 0
M  V30 18584 C 1752.48 1.64856 1.65363 0
M  V30 18585 C 1753.46 0.497579 1.6266 0
M  V30 18586 O 1754.64 0.729088 1.79994 0
M  V30 18587 C 1751.77 1.67984 3.03971 0
M  V30 18588 C 1750.73 2.82494 3.21529 0
M  V30 18589 C 1750.05 2.70706 4.6111 0
M  V30 18590 C 1751.35 4.23892 3.05145 0
M  V30 18591 H 1753.05 2.58183 1.51598 0
M  V30 18592 H 1750.59 1.24249 0.727886 0
M  V30 18593 H 1752.55 1.78294 3.81824 0
M  V30 18594 H 1751.27 0.712299 3.18738 0
M  V30 18595 H 1749.93 2.71725 2.46091 0
M  V30 18596 H 1749.58 1.7194 4.727 0
M  V30 18597 H 1749.28 3.47539 4.73804 0
M  V30 18598 H 1750.8 2.82971 5.41073 0
M  V30 18599 H 1752.22 4.3554 3.72797 0
M  V30 18600 H 1750.61 5.01654 3.29338 0
M  V30 18601 H 1751.68 4.40973 2.01671 0
M  V30 18602 N 1753.03 -0.787016 1.36542 0
M  V30 18603 C 1753.97 -1.89975 1.31065 0
M  V30 18604 C 1754.94 -1.65134 0.178905 0
M  V30 18605 O 1756.13 -1.8726 0.36581 0
M  V30 18606 C 1753.27 -3.26822 1.10821 0
M  V30 18607 C 1752.38 -3.6372 2.33091 0
M  V30 18608 C 1751.52 -4.89697 2.0584 0
M  V30 18609 C 1750.56 -5.1928 3.24059 0
M  V30 18610 N 1749.69 -6.36441 2.96457 0
M  V30 18611 H 1754.53 -1.93993 2.2621 0
M  V30 18612 H 1752.07 -0.948631 1.12425 0
M  V30 18613 H 1754.03 -4.05741 0.971091 0
M  V30 18614 H 1752.66 -3.22221 0.193302 0
M  V30 18615 H 1751.71 -2.79906 2.57598 0
M  V30 18616 H 1753.02 -3.81529 3.21305 0
M  V30 18617 H 1752.18 -5.76486 1.89072 0
M  V30 18618 H 1750.91 -4.73962 1.14941 0
M  V30 18619 H 1749.92 -4.30973 3.41383 0
M  V30 18620 H 1751.14 -5.36934 4.15787 0
M  V30 18621 H 1749.09 -6.22093 2.08172 0
M  V30 18622 H 1749.01 -6.54594 3.78209 0
M  V30 18623 H 1750.28 -7.26207 2.83273 0
M  V30 18624 N 1754.5 -1.20861 -1.01145 0
M  V30 18625 C 1755.92 -0.964575 -1.27154 0
M  V30 18626 C 1756.12 0.352861 -1.98386 0
M  V30 18627 O 1755.18 1.08012 -2.28232 0
M  V30 18628 C 1756.49 -2.15074 -2.10151 0
M  V30 18629 C 1758.04 -2.19229 -2.234 0
M  V30 18630 C 1758.51 -3.37346 -3.09777 0
M  V30 18631 N 1760 -3.37392 -3.17365 0
M  V30 18632 C 1760.74 -4.25434 -3.84439 0
M  V30 18633 N 1760.23 -5.23664 -4.53595 0
M  V30 18634 N 1762.03 -4.13261 -3.81014 0
M  V30 18635 H 1754.18 -2.05595 -0.533346 0
M  V30 18636 H 1756.44 -0.899928 -0.298048 0
M  V30 18637 H 1756.15 -3.10511 -1.65153 0
M  V30 18638 H 1756.02 -2.13598 -3.10895 0
M  V30 18639 H 1758.41 -1.24352 -2.6762 0
M  V30 18640 H 1758.49 -2.24752 -1.22148 0
M  V30 18641 H 1758.13 -4.32513 -2.66261 0
M  V30 18642 H 1758.06 -3.29061 -4.11128 0
M  V30 18643 H 1760.55 -2.66299 -2.68129 0
M  V30 18644 H 1760.87 -5.87158 -5.02459 0
M  V30 18645 H 1759.21 -5.27595 -4.52403 0
M  V30 18646 H 1762.4 -3.35786 -3.26137 0
M  V30 18647 H 1762.58 -4.82085 -4.3301 0
M  V30 18648 N 1755.98 1.20536 -1.01532 0
M  V30 18649 C 1757.23 1.90152 -0.704973 0
M  V30 18650 C 1757.56 1.78569 0.763343 0
M  V30 18651 O 1756.84 1.16906 1.55445 0
M  V30 18652 C 1757.12 3.41589 -1.1397 0
M  V30 18653 C 1756.97 3.62113 -2.66823 0
M  V30 18654 C 1758.29 4.34335 -0.709984 0
M  V30 18655 H 1755.41 0.690524 -0.257577 0
M  V30 18656 H 1758.05 1.41959 -1.26284 0
M  V30 18657 H 1756.2 3.82765 -0.66505 0
M  V30 18658 H 1757.87 3.30197 -3.2213 0
M  V30 18659 H 1756.12 3.05626 -3.07855 0
M  V30 18660 H 1756.79 4.68261 -2.92294 0
M  V30 18661 H 1759.26 4.00799 -1.11801 0
M  V30 18662 H 1758.14 5.38915 -1.04221 0
M  V30 18663 H 1758.4 4.40391 0.388408 0
M  V30 18664 N 1757.46 0.791395 1.36289 0
M  V30 18665 C 1758.42 0.197069 2.28351 0
M  V30 18666 C 1759.42 -0.606748 1.48913 0
M  V30 18667 O 1760.61 -0.427453 1.68874 0
M  V30 18668 C 1757.75 -0.727009 3.33058 0
M  V30 18669 H 1758.94 1.00885 2.82422 0
M  V30 18670 H 1756.49 0.560959 1.45887 0
M  V30 18671 H 1757.23 -1.56306 2.84146 0
M  V30 18672 H 1757.01 -0.152537 3.91803 0
M  V30 18673 H 1758.5 -1.13765 4.01805 0
M  V30 18674 N 1758.94 -1.47929 0.54358 0
M  V30 18675 C 1759.85 -2.33611 -0.215191 0
M  V30 18676 C 1760.87 -1.47343 -0.925526 0
M  V30 18677 O 1762.04 -1.80299 -0.897459 0
M  V30 18678 C 1759.11 -3.23755 -1.24031 0
M  V30 18679 C 1758.17 -4.25904 -0.538874 0
M  V30 18680 C 1757.4 -5.11741 -1.51516 0
M  V30 18681 O 1757.62 -4.9979 -2.74893 0
M  V30 18682 O 1756.56 -5.92722 -1.0471 0
M  V30 18683 H 1760.38 -2.99765 0.487279 0
M  V30 18684 H 1757.97 -1.46267 0.30434 0
M  V30 18685 H 1759.85 -3.79475 -1.8324 0
M  V30 18686 H 1758.53 -2.60245 -1.92495 0
M  V30 18687 H 1757.43 -3.73982 0.0940539 0
M  V30 18688 H 1758.77 -4.9209 0.104063 0
M  V30 18689 N 1760.42 -0.27936 -1.55104 0
M  V30 18690 C 1761.36 0.606268 -2.22695 0
M  V30 18691 C 1762.33 1.14646 -1.20189 0
M  V30 18692 O 1763.52 1.19498 -1.48744 0
M  V30 18693 C 1760.66 1.78256 -2.95497 0
M  V30 18694 C 1759.77 1.27582 -4.12731 0
M  V30 18695 C 1758.91 2.41425 -4.73167 0
M  V30 18696 C 1757.95 1.87775 -5.82586 0
M  V30 18697 N 1757.08 2.95108 -6.37068 0
M  V30 18698 H 1761.92 0.0232427 -2.97991 0
M  V30 18699 H 1759.46 -0.000294714 -1.471 0
M  V30 18700 H 1761.42 2.47406 -3.35925 0
M  V30 18701 H 1760.05 2.33755 -2.22617 0
M  V30 18702 H 1759.1 0.477281 -3.77394 0
M  V30 18703 H 1760.41 0.842897 -4.91627 0
M  V30 18704 H 1759.57 3.18561 -5.16337 0
M  V30 18705 H 1758.31 2.88035 -3.93557 0
M  V30 18706 H 1757.31 1.0912 -5.38862 0
M  V30 18707 H 1758.54 1.42096 -6.64067 0
M  V30 18708 H 1756.48 3.41091 -5.60351 0
M  V30 18709 H 1756.4 2.56246 -7.11248 0
M  V30 18710 H 1757.67 3.72206 -6.84896 0
M  V30 18711 N 1761.9 1.57599 -0.0067085 0
M  V30 18712 C 1762.81 2.1228 0.998709 0
M  V30 18713 C 1763.82 1.06964 1.37239 0
M  V30 18714 O 1765 1.38902 1.45836 0
M  V30 18715 C 1762.06 2.62076 2.26973 0
M  V30 18716 C 1761.12 3.8202 1.95855 0
M  V30 18717 C 1760.36 4.29431 3.16898 0
M  V30 18718 O 1760.58 3.76136 4.2881 0
M  V30 18719 O 1759.51 5.21518 3.00504 0
M  V30 18720 H 1763.34 2.9842 0.563849 0
M  V30 18721 H 1760.92 1.47881 0.212535 0
M  V30 18722 H 1762.81 2.94274 3.01631 0
M  V30 18723 H 1761.48 1.79031 2.69684 0
M  V30 18724 H 1760.39 3.54785 1.18653 0
M  V30 18725 H 1761.72 4.66159 1.57977 0
M  V30 18726 N 1763.37 -0.266145 1.55336 0
M  V30 18727 C 1764.34 -1.31242 1.87904 0
M  V30 18728 C 1765.34 -1.42022 0.754083 0
M  V30 18729 O 1766.53 -1.41054 1.02222 0
M  V30 18730 C 1763.66 -2.69285 2.09041 0
M  V30 18731 H 1764.85 -1.03592 2.81441 0
M  V30 18732 H 1762.4 -0.504537 1.47933 0
M  V30 18733 H 1763.14 -3.02106 1.17909 0
M  V30 18734 H 1762.92 -2.62846 2.90954 0
M  V30 18735 H 1764.41 -3.4487 2.35488 0
M  V30 18736 N 1764.85 -1.48386 -0.530967 0
M  V30 18737 C 1766.1 -1.56585 -1.28875 0
M  V30 18738 C 1766.43 -0.238583 -1.92729 0
M  V30 18739 O 1765.71 0.75533 -1.79235 0
M  V30 18740 C 1765.99 -2.70338 -2.37886 0
M  V30 18741 C 1765.84 -4.12766 -1.78729 0
M  V30 18742 C 1767.16 -2.79857 -3.39659 0
M  V30 18743 H 1764.28 -0.569986 -0.46721 0
M  V30 18744 H 1766.92 -1.80555 -0.591596 0
M  V30 18745 H 1765.07 -2.50031 -2.9735 0
M  V30 18746 H 1766.74 -4.4451 -1.23324 0
M  V30 18747 H 1764.99 -4.19813 -1.09269 0
M  V30 18748 H 1765.66 -4.88178 -2.57655 0
M  V30 18749 H 1768.13 -2.9825 -2.90149 0
M  V30 18750 H 1767.01 -3.61179 -4.13329 0
M  V30 18751 H 1767.27 -1.87974 -4.00148 0
M  V30 18752 N 1766.33 0.779763 -1.36958 0
M  V30 18753 C 1767.28 1.91417 -1.32145 0
M  V30 18754 C 1768.27 1.68074 -0.211572 0
M  V30 18755 O 1769.48 1.75962 -0.379139 0
M  V30 18756 H 1765.85 0.62934 -0.411624 0
M  V30 18757 H 1767.82 1.92594 -2.27926 0
M  V30 18758 C 1766.57 3.28574 -1.13729 0
M  V30 18759 H 1765.9 3.47109 -1.98383 0
M  V30 18760 H 1767.34 4.08272 -1.1441 0
M  V30 18761 C 1765.79 3.36531 0.157538 0
M  V30 18762 O 1766.32 3.85067 1.14397 0
M  V30 18763 N 1764.53 2.89872 0.205509 0
M  V30 18764 H 1764.08 2.50566 -0.597854 0
M  V30 18765 H 1764.04 2.95578 1.07151 0
M  V30 18766 N 1767.81 1.21396 1.00503 0
M  V30 18767 C 1768.75 0.973198 2.09279 0
M  V30 18768 C 1769.72 -0.100797 1.65794 0
M  V30 18769 O 1770.91 0.0463185 1.90744 0
M  V30 18770 C 1768.05 0.543941 3.40786 0
M  V30 18771 C 1767.16 1.68737 3.97683 0
M  V30 18772 C 1766.3 1.20728 5.17299 0
M  V30 18773 C 1765.34 2.32305 5.66305 0
M  V30 18774 N 1764.47 1.8543 6.77171 0
M  V30 18775 H 1769.31 1.90441 2.29208 0
M  V30 18776 H 1766.85 0.949082 1.12387 0
M  V30 18777 H 1768.81 0.276311 4.16284 0
M  V30 18778 H 1767.44 -0.350263 3.20894 0
M  V30 18779 H 1766.49 2.06964 3.19171 0
M  V30 18780 H 1767.8 2.5271 4.30045 0
M  V30 18781 H 1766.96 0.896312 6.00043 0
M  V30 18782 H 1765.7 0.3376 4.8653 0
M  V30 18783 H 1764.7 2.64205 4.82158 0
M  V30 18784 H 1765.93 3.19769 5.99103 0
M  V30 18785 H 1763.87 1.00806 6.48208 0
M  V30 18786 H 1763.79 2.62976 7.08788 0
M  V30 18787 H 1765.06 1.57366 7.6345 0
M  V30 18788 N 1769.29 -1.19996 1.0217 0
M  V30 18789 C 1770.22 -2.21695 0.540962 0
M  V30 18790 C 1771.2 -1.57232 -0.414343 0
M  V30 18791 O 1772.38 -1.85533 -0.33314 0
M  V30 18792 C 1769.51 -3.38035 -0.212109 0
M  V30 18793 C 1768.55 -4.20824 0.693529 0
M  V30 18794 S 1769.39 -4.89756 2.16562 0
M  V30 18795 C 1770.54 -6.09513 1.42286 0
M  V30 18796 H 1770.78 -2.62131 1.40267 0
M  V30 18797 H 1768.31 -1.30128 0.831026 0
M  V30 18798 H 1770.27 -4.05473 -0.640484 0
M  V30 18799 H 1768.93 -2.96049 -1.04945 0
M  V30 18800 H 1768.12 -5.03874 0.112557 0
M  V30 18801 H 1767.72 -3.58667 1.05991 0
M  V30 18802 H 1770.01 -6.73816 0.705585 0
M  V30 18803 H 1770.96 -6.72079 2.22969 0
M  V30 18804 H 1771.37 -5.56895 0.923499 0
M  V30 18805 N 1770.76 -0.798611 -1.35867 0
M  V30 18806 C 1771.99 -0.386378 -2.03769 0
M  V30 18807 C 1772.41 0.992154 -1.59806 0
M  V30 18808 O 1771.77 1.64094 -0.770895 0
M  V30 18809 C 1771.82 -0.468859 -3.57539 0
M  V30 18810 O 1770.92 0.520742 -4.09099 0
M  V30 18811 H 1770.26 -0.162597 -0.643784 0
M  V30 18812 H 1772.79 -1.08228 -1.73631 0
M  V30 18813 H 1772.8 -0.335775 -4.06616 0
M  V30 18814 H 1771.48 -1.47441 -3.88888 0
M  V30 18815 H 1770.06 0.348559 -3.71267 0
M  V30 18816 N 1772.24 1.47639 -0.551417 0
M  V30 18817 C 1773.17 2.32743 0.187887 0
M  V30 18818 C 1774.15 1.43432 0.914407 0
M  V30 18819 O 1775.34 1.72295 0.896005 0
M  V30 18820 C 1772.47 3.25092 1.22199 0
M  V30 18821 C 1771.42 4.23598 0.612298 0
M  V30 18822 C 1770.75 5.0523 1.75062 0
M  V30 18823 C 1772.05 5.20526 -0.430135 0
M  V30 18824 H 1773.74 2.94804 -0.522598 0
M  V30 18825 H 1771.29 1.41764 -0.252768 0
M  V30 18826 H 1773.24 3.83467 1.74731 0
M  V30 18827 H 1771.96 2.61074 1.96235 0
M  V30 18828 H 1770.62 3.6644 0.108324 0
M  V30 18829 H 1770.27 4.3762 2.47987 0
M  V30 18830 H 1769.97 5.71918 1.34848 0
M  V30 18831 H 1771.5 5.66463 2.27931 0
M  V30 18832 H 1772.91 5.73299 0.00890168 0
M  V30 18833 H 1771.31 5.95384 -0.750836 0
M  V30 18834 H 1772.38 4.66356 -1.32815 0
M  V30 18835 N 1773.72 0.287581 1.54954 0
M  V30 18836 C 1774.67 -0.609238 2.1971 0
M  V30 18837 C 1775.65 -1.10905 1.16571 0
M  V30 18838 O 1776.85 -1.05206 1.4234 0
M  V30 18839 C 1773.98 -1.78705 2.9312 0
M  V30 18840 C 1773.06 -1.30383 4.0356 0
M  V30 18841 N 1773.45 -0.537641 5.02934 0
M  V30 18842 C 1771.75 -1.58573 4.16858 0
M  V30 18843 C 1772.45 -0.281993 5.81016 0
M  V30 18844 N 1771.43 -0.857984 5.36786 0
M  V30 18845 H 1775.23 -0.0161538 2.93896 0
M  V30 18846 H 1772.74 0.0917131 1.62141 0
M  V30 18847 H 1774.74 -2.44095 3.37969 0
M  V30 18848 H 1773.4 -2.38397 2.20448 0
M  V30 18849 H 1774.41 -0.183797 5.17574 0
M  V30 18850 H 1771.09 -2.1911 3.55383 0
M  V30 18851 H 1772.48 0.332479 6.71077 0
M  V30 18852 N 1775.2 -1.57593 0.0150662 0
M  V30 18853 C 1776.15 -2.10501 -0.989557 0
M  V30 18854 C 1777.14 -1.02836 -1.34615 0
M  V30 18855 O 1778.35 -1.21286 -1.33002 0
M  V30 18856 H 1774.72 -0.672343 -0.336838 0
M  V30 18857 H 1776.69 -2.93871 -0.517893 0
M  V30 18858 C 1775.44 -2.63583 -2.26759 0
M  V30 18859 H 1774.76 -3.46069 -2.00191 0
M  V30 18860 H 1776.2 -3.04264 -2.95295 0
M  V30 18861 C 1774.66 -1.5568 -2.98773 0
M  V30 18862 O 1775.19 -0.948437 -3.90343 0
M  V30 18863 N 1773.4 -1.28062 -2.60861 0
M  V30 18864 H 1772.95 -1.77719 -1.86477 0
M  V30 18865 H 1772.9 -0.560878 -3.09357 0
M  V30 18866 N 1776.68 0.257904 -1.55475 0
M  V30 18867 C 1777.61 1.32303 -1.92401 0
M  V30 18868 C 1778.59 1.50767 -0.787617 0
M  V30 18869 O 1779.77 1.63559 -1.047 0
M  V30 18870 C 1776.9 2.67984 -2.20912 0
M  V30 18871 C 1775.86 2.64231 -3.36699 0
M  V30 18872 C 1775.18 4.03604 -3.50725 0
M  V30 18873 C 1776.48 2.22177 -4.72689 0
M  V30 18874 H 1778.18 1.01646 -2.81618 0
M  V30 18875 H 1775.72 0.487523 -1.35496 0
M  V30 18876 H 1777.68 3.42622 -2.45332 0
M  V30 18877 H 1776.4 3.00254 -1.2851 0
M  V30 18878 H 1775.06 1.92049 -3.1227 0
M  V30 18879 H 1774.71 4.33122 -2.55763 0
M  V30 18880 H 1774.41 4.01983 -4.28583 0
M  V30 18881 H 1775.93 4.79959 -3.77455 0
M  V30 18882 H 1777.34 2.86543 -4.96554 0
M  V30 18883 H 1775.74 2.3169 -5.5357 0
M  V30 18884 H 1776.81 1.17326 -4.70492 0
M  V30 18885 N 1778.15 1.48666 0.52309 0
M  V30 18886 C 1779.12 1.63211 1.60919 0
M  V30 18887 C 1780.12 0.505012 1.52664 0
M  V30 18888 O 1781.31 0.770967 1.56211 0
M  V30 18889 C 1778.44 1.60878 3.00551 0
M  V30 18890 H 1779.63 2.60061 1.4936 0
M  V30 18891 H 1777.19 1.37366 0.745674 0
M  V30 18892 H 1777.92 0.655306 3.1761 0
M  V30 18893 H 1777.71 2.4271 3.07952 0
M  V30 18894 H 1779.2 1.74263 3.79502 0
M  V30 18895 N 1779.63 -0.772489 1.37369 0
M  V30 18896 C 1780.86 -1.56158 1.35729 0
M  V30 18897 C 1781.28 -1.88712 -0.0575274 0
M  V30 18898 O 1780.63 -1.51395 -1.01911 0
M  V30 18899 C 1780.68 -2.87231 2.19501 0
M  V30 18900 O 1780.4 -2.56072 3.5547 0
M  V30 18901 C 1781.91 -3.81464 2.25831 0
M  V30 18902 H 1779.13 -0.483803 0.464947 0
M  V30 18903 H 1781.67 -0.957502 1.80699 0
M  V30 18904 H 1779.82 -3.44063 1.78042 0
M  V30 18905 H 1780.24 -3.40002 3.99373 0
M  V30 18906 H 1781.71 -4.70442 2.8877 0
M  V30 18907 H 1782.19 -4.20542 1.26653 0
M  V30 18908 H 1782.8 -3.30561 2.67599 0
M  V30 18909 N 1781.11 -1.21927 -0.998575 0
M  V30 18910 C 1782.36 -1.04194 -1.73987 0
M  V30 18911 C 1782.69 0.4227 -1.89544 0
M  V30 18912 O 1781.96 1.31353 -1.43446 0
M  V30 18913 C 1782.25 -1.74717 -3.14874 0
M  V30 18914 C 1782.1 -3.28741 -3.07001 0
M  V30 18915 C 1783.42 -1.49495 -4.13931 0
M  V30 18916 H 1780.54 -0.379918 -0.631531 0
M  V30 18917 H 1783.18 -1.5019 -1.16374 0
M  V30 18918 H 1781.33 -1.35615 -3.64062 0
M  V30 18919 H 1783 -3.77252 -2.65478 0
M  V30 18920 H 1781.25 -3.58711 -2.43944 0
M  V30 18921 H 1781.92 -3.73258 -4.06672 0
M  V30 18922 H 1784.39 -1.83451 -3.73477 0
M  V30 18923 H 1783.27 -2.01344 -5.10639 0
M  V30 18924 H 1783.53 -0.426324 -4.4004 0
M  V30 18925 N 1782.59 1.19452 -1.02805 0
M  V30 18926 C 1783.84 1.89114 -0.724029 0
M  V30 18927 C 1784.16 1.79571 0.747307 0
M  V30 18928 O 1783.42 1.18191 1.55979 0
M  V30 18929 C 1783.72 3.3941 -1.11964 0
M  V30 18930 C 1783.38 3.69156 -2.58911 0
M  V30 18931 C 1782.05 3.76984 -2.99059 0
M  V30 18932 C 1784.4 3.82549 -3.53986 0
M  V30 18933 C 1781.73 3.95673 -4.33197 0
M  V30 18934 C 1784.08 4.02751 -4.87826 0
M  V30 18935 C 1782.74 4.08812 -5.27664 0
M  V30 18936 H 1782.01 0.692017 -0.264941 0
M  V30 18937 H 1784.66 1.41463 -1.29075 0
M  V30 18938 H 1782.96 3.88952 -0.471514 0
M  V30 18939 H 1784.66 3.91627 -0.861939 0
M  V30 18940 H 1781.25 3.6367 -2.26808 0
M  V30 18941 H 1785.43 3.75845 -3.24121 0
M  V30 18942 H 1780.69 3.98605 -4.63599 0
M  V30 18943 H 1784.86 4.12056 -5.61412 0
M  V30 18944 H 1782.49 4.23046 -6.31614 0
M  V30 18945 N 1784.07 0.805805 1.35442 0
M  V30 18946 C 1785.31 0.385046 1.98398 0
M  V30 18947 C 1785.64 -1.05114 1.64244 0
M  V30 18948 O 1784.91 -1.72711 0.924532 0
M  V30 18949 H 1783.49 0.139386 0.733881 0
M  V30 18950 H 1786.15 1.03147 1.65368 0
M  V30 18951 H 1785.24 0.490126 3.08227 0
M  V30 18952 N 1785.54 -1.47344 0.559239 0
M  V30 18953 C 1786.96 -1.86272 0.126394 0
M  V30 18954 C 1787.31 -1.46563 -1.30437 0
M  V30 18955 O 1786.43 -0.869624 -1.98158 0
M  V30 18956 C 1787.03 -3.38068 0.222602 0
M  V30 18957 C 1785.59 -3.7608 -0.155219 0
M  V30 18958 C 1784.73 -2.71394 0.569244 0
M  V30 18959 H 1787.68 -1.38833 0.768845 0
M  V30 18960 H 1787.7 -3.76382 -0.558262 0
M  V30 18961 H 1787.22 -3.66938 1.26404 0
M  V30 18962 H 1785.32 -3.52826 -1.19768 0
M  V30 18963 H 1785.43 -4.78662 0.204756 0
M  V30 18964 H 1783.79 -2.54697 0.0120996 0
M  V30 18965 H 1784.58 -3.03107 1.61187 0
M  V30 18966 N 1787.02 -0.295795 -1.54799 0
M  V30 18967 C 1788.25 0.317763 -2.04445 0
M  V30 18968 C 1788.67 1.47915 -1.17331 0
M  V30 18969 O 1788.02 1.81425 -0.197811 0
M  V30 18970 C 1788.07 0.778995 -3.53007 0
M  V30 18971 O 1787.79 -0.33616 -4.36808 0
M  V30 18972 C 1789.3 1.45824 -4.18629 0
M  V30 18973 H 1786.52 0.0697871 -0.667361 0
M  V30 18974 H 1789.06 -0.433911 -1.99844 0
M  V30 18975 H 1787.21 1.4807 -3.57986 0
M  V30 18976 H 1787.63 0.0219928 -5.24495 0
M  V30 18977 H 1789.1 1.73218 -5.24118 0
M  V30 18978 H 1789.58 2.3966 -3.68049 0
M  V30 18979 H 1790.19 0.799847 -4.17711 0
M  V30 18980 N 1788.5 1.57583 -0.0234236 0
M  V30 18981 C 1789.43 2.12907 0.958804 0
M  V30 18982 C 1790.41 1.0438 1.34309 0
M  V30 18983 O 1791.6 1.32184 1.42271 0
M  V30 18984 C 1788.73 2.65151 2.24304 0
M  V30 18985 C 1787.68 3.78414 1.99967 0
M  V30 18986 C 1787.01 4.17064 3.34607 0
M  V30 18987 C 1788.31 5.04727 1.34342 0
M  V30 18988 H 1790 2.95228 0.498081 0
M  V30 18989 H 1787.55 1.42017 0.238138 0
M  V30 18990 H 1789.5 3.02487 2.93393 0
M  V30 18991 H 1788.22 1.79983 2.72532 0
M  V30 18992 H 1786.88 3.41507 1.33298 0
M  V30 18993 H 1786.53 3.28886 3.80583 0
M  V30 18994 H 1786.23 4.93385 3.19132 0
M  V30 18995 H 1787.76 4.56978 4.04973 0
M  V30 18996 H 1789.17 5.39686 1.93422 0
M  V30 18997 H 1787.57 5.86009 1.29282 0
M  V30 18998 H 1788.64 4.83872 0.315625 0
M  V30 18999 N 1789.98 -0.249655 1.5561 0
M  V30 19000 C 1790.91 -1.31281 1.931 0
M  V30 19001 C 1791.89 -1.50347 0.795601 0
M  V30 19002 O 1793.08 -1.63001 1.05566 0
M  V30 19003 C 1790.21 -2.66808 2.2233 0
M  V30 19004 C 1789.16 -2.62441 3.38096 0
M  V30 19005 C 1788.49 -4.01738 3.52861 0
M  V30 19006 C 1789.79 -2.19667 4.7386 0
M  V30 19007 H 1791.48 -1.00151 2.82153 0
M  V30 19008 H 1789.03 -0.480331 1.35753 0
M  V30 19009 H 1790.98 -3.41316 2.47146 0
M  V30 19010 H 1789.7 -2.99569 1.30101 0
M  V30 19011 H 1788.36 -1.90391 3.13284 0
M  V30 19012 H 1788.01 -4.31759 2.58056 0
M  V30 19013 H 1787.71 -3.99705 4.30708 0
M  V30 19014 H 1789.23 -4.7795 3.79995 0
M  V30 19015 H 1790.65 -2.83906 4.98067 0
M  V30 19016 H 1789.04 -2.28751 5.54791 0
M  V30 19017 H 1790.11 -1.14829 4.71108 0
M  V30 19018 N 1791.46 -1.48941 -0.515198 0
M  V30 19019 C 1792.87 -1.35389 -0.8451 0
M  V30 19020 C 1793.07 -0.376141 -1.97958 0
M  V30 19021 O 1792.13 0.197324 -2.51728 0
M  V30 19022 C 1793.44 -2.75775 -1.19868 0
M  V30 19023 C 1794.99 -2.84373 -1.30772 0
M  V30 19024 C 1795.47 -4.25494 -1.69466 0
M  V30 19025 N 1796.96 -4.28237 -1.76542 0
M  V30 19026 C 1797.69 -5.34384 -2.07898 0
M  V30 19027 N 1797.19 -6.50792 -2.37575 0
M  V30 19028 N 1798.98 -5.21789 -2.09029 0
M  V30 19029 H 1791.13 -2.11117 0.233118 0
M  V30 19030 H 1793.39 -0.947083 0.0416757 0
M  V30 19031 H 1793.1 -3.48955 -0.438565 0
M  V30 19032 H 1792.97 -3.10243 -2.14545 0
M  V30 19033 H 1795.36 -2.11439 -2.05858 0
M  V30 19034 H 1795.44 -2.53506 -0.341808 0
M  V30 19035 H 1795.09 -4.98949 -0.949358 0
M  V30 19036 H 1795.02 -4.53814 -2.67133 0
M  V30 19037 H 1797.51 -3.44278 -1.55824 0
M  V30 19038 H 1797.82 -7.27518 -2.60649 0
M  V30 19039 H 1796.17 -6.54042 -2.35062 0
M  V30 19040 H 1799.36 -4.29858 -1.85311 0
M  V30 19041 H 1799.53 -6.0461 -2.33133 0
M  V30 19042 N 1792.94 0.765193 -1.37777 0
M  V30 19043 C 1794.35 1.34186 -1.29811 0
M  V30 19044 C 1794.7 1.96133 0.0513426 0
M  V30 19045 O 1793.82 1.94272 0.953273 0
M  V30 19046 C 1794.42 2.43975 -2.35078 0
M  V30 19047 C 1792.98 2.97393 -2.30726 0
M  V30 19048 C 1792.12 1.70667 -2.18559 0
M  V30 19049 H 1795.07 0.564948 -1.48304 0
M  V30 19050 H 1795.1 3.23622 -2.00123 0
M  V30 19051 H 1794.61 1.98859 -3.33282 0
M  V30 19052 H 1792.71 3.46867 -1.36067 0
M  V30 19053 H 1792.82 3.52561 -3.24403 0
M  V30 19054 H 1791.19 1.93846 -1.65215 0
M  V30 19055 H 1791.97 1.27645 -3.18687 0
M  V30 19056 N 1794.41 1.22455 0.992094 0
M  V30 19057 C 1795.64 1.07677 1.77258 0
M  V30 19058 C 1796.06 -0.368377 1.84458 0
M  V30 19059 O 1795.42 -1.26614 1.29763 0
M  V30 19060 C 1795.47 1.69353 3.18358 0
M  V30 19061 O 1794.57 0.947746 4.01362 0
M  V30 19062 H 1793.91 0.378141 0.545807 0
M  V30 19063 H 1796.44 1.62269 1.2462 0
M  V30 19064 H 1796.45 1.7411 3.68985 0
M  V30 19065 H 1795.13 2.74515 3.12433 0
M  V30 19066 H 1793.71 0.976245 3.59894 0
M  V30 19067 N 1795.89 -1.18905 1.03437 0
M  V30 19068 C 1796.8 -2.25979 0.63014 0
M  V30 19069 C 1797.82 -1.70633 -0.340668 0
M  V30 19070 O 1798.99 -2.00432 -0.197174 0
M  V30 19071 C 1796.06 -3.46699 -0.00713795 0
M  V30 19072 C 1795.12 -4.17205 1.01187 0
M  V30 19073 C 1794.35 -5.32162 0.404909 0
M  V30 19074 O 1794.58 -5.64894 -0.790638 0
M  V30 19075 O 1793.51 -5.91188 1.13048 0
M  V30 19076 H 1797.34 -2.62808 1.52203 0
M  V30 19077 H 1794.92 -1.25865 0.804878 0
M  V30 19078 H 1796.8 -4.1984 -0.362204 0
M  V30 19079 H 1795.48 -3.11707 -0.872948 0
M  V30 19080 H 1794.38 -3.46159 1.41862 0
M  V30 19081 H 1795.72 -4.56181 1.84823 0
M  V30 19082 N 1797.37 -0.812977 -1.35013 0
M  V30 19083 C 1798.32 -0.225816 -2.29693 0
M  V30 19084 C 1799.29 0.643767 -1.53117 0
M  V30 19085 O 1800.47 0.587505 -1.8153 0
M  V30 19086 C 1797.61 0.614444 -3.39586 0
M  V30 19087 C 1796.72 -0.276281 -4.31116 0
M  V30 19088 C 1795.86 0.572595 -5.28105 0
M  V30 19089 C 1794.9 -0.318133 -6.11273 0
M  V30 19090 N 1794.04 0.491086 -7.0038 0
M  V30 19091 H 1798.88 -1.03861 -2.79315 0
M  V30 19092 H 1796.41 -0.523695 -1.37462 0
M  V30 19093 H 1798.37 1.11683 -4.01973 0
M  V30 19094 H 1797 1.39244 -2.91223 0
M  V30 19095 H 1796.05 -0.89682 -3.69677 0
M  V30 19096 H 1797.36 -0.961601 -4.89443 0
M  V30 19097 H 1796.52 1.13986 -5.95896 0
M  V30 19098 H 1795.26 1.29146 -4.7029 0
M  V30 19099 H 1794.26 -0.897622 -5.42423 0
M  V30 19100 H 1795.49 -1.03496 -6.71167 0
M  V30 19101 H 1793.43 1.19381 -6.45046 0
M  V30 19102 H 1793.35 -0.136054 -7.55878 0
M  V30 19103 H 1794.62 1.04143 -7.72512 0
M  V30 19104 N 1798.85 1.47045 -0.567045 0
M  V30 19105 C 1799.76 2.33924 0.177998 0
M  V30 19106 C 1800.77 1.48797 0.901967 0
M  V30 19107 O 1801.95 1.81704 0.868662 0
M  V30 19108 C 1799.01 3.25687 1.18865 0
M  V30 19109 C 1798.08 4.26708 0.471049 0
M  V30 19110 C 1797.31 5.14087 1.43355 0
M  V30 19111 O 1797.53 5.041 2.66907 0
M  V30 19112 O 1796.47 5.94313 0.952674 0
M  V30 19113 H 1800.29 2.98952 -0.534907 0
M  V30 19114 H 1797.88 1.45765 -0.327571 0
M  V30 19115 H 1799.76 3.82342 1.7718 0
M  V30 19116 H 1798.43 2.63274 1.8833 0
M  V30 19117 H 1797.34 3.73785 -0.153539 0
M  V30 19118 H 1798.67 4.91862 -0.182337 0
M  V30 19119 N 1800.33 0.304 1.5464 0
M  V30 19120 C 1801.55 -0.309709 2.05075 0
M  V30 19121 C 1801.98 -1.46509 1.1797 0
M  V30 19122 O 1801.33 -1.80359 0.184437 0
M  V30 19123 C 1801.38 -0.740734 3.5291 0
M  V30 19124 O 1800.49 -1.8452 3.68817 0
M  V30 19125 H 1799.83 -0.0596065 0.661319 0
M  V30 19126 H 1802.36 0.446718 1.99664 0
M  V30 19127 H 1802.37 -1.02873 3.94818 0
M  V30 19128 H 1801.04 0.104422 4.15769 0
M  V30 19129 H 1799.62 -1.55753 3.38815 0
M  V30 19130 N 1801.8 -1.57568 0.0317802 0
M  V30 19131 C 1802.75 -2.10379 -0.949183 0
M  V30 19132 C 1803.72 -1.00649 -1.32133 0
M  V30 19133 O 1804.91 -1.28084 -1.41418 0
M  V30 19134 C 1802.05 -2.63762 -2.22539 0
M  V30 19135 C 1801.16 -3.87509 -1.90946 0
M  V30 19136 C 1800.29 -4.29276 -3.12882 0
M  V30 19137 C 1799.33 -5.45775 -2.77121 0
M  V30 19138 N 1798.47 -5.82686 -3.9169 0
M  V30 19139 H 1803.31 -2.93912 -0.491922 0
M  V30 19140 H 1800.85 -1.45272 -0.23121 0
M  V30 19141 H 1802.8 -2.92803 -2.9719 0
M  V30 19142 H 1801.43 -1.83055 -2.65877 0
M  V30 19143 H 1800.49 -3.6518 -1.06526 0
M  V30 19144 H 1801.8 -4.72235 -1.6061 0
M  V30 19145 H 1800.95 -4.59768 -3.95851 0
M  V30 19146 H 1799.69 -3.43323 -3.46382 0
M  V30 19147 H 1798.7 -5.14974 -1.92565 0
M  V30 19148 H 1799.92 -6.3343 -2.44834 0
M  V30 19149 H 1797.87 -4.99688 -4.25027 0
M  V30 19150 H 1797.78 -6.62058 -3.64986 0
M  V30 19151 H 1799.05 -6.17785 -4.75355 0
M  V30 19152 N 1803.28 0.241399 -1.5574 0
M  V30 19153 C 1804.21 1.30255 -1.93793 0
M  V30 19154 C 1805.19 1.49923 -0.803563 0
M  V30 19155 O 1806.38 1.62439 -1.06429 0
M  V30 19156 C 1803.51 2.65625 -2.23742 0
M  V30 19157 C 1802.46 2.60645 -3.39483 0
M  V30 19158 C 1801.79 3.99861 -3.54986 0
M  V30 19159 C 1803.09 2.17151 -4.75019 0
M  V30 19160 H 1804.78 0.986532 -2.8268 0
M  V30 19161 H 1802.33 0.473125 -1.36006 0
M  V30 19162 H 1804.28 3.40001 -2.48953 0
M  V30 19163 H 1803.01 2.98874 -1.31688 0
M  V30 19164 H 1801.66 1.88727 -3.14289 0
M  V30 19165 H 1801.31 4.30385 -2.60342 0
M  V30 19166 H 1801.01 3.97415 -4.32822 0
M  V30 19167 H 1802.54 4.75928 -3.82524 0
M  V30 19168 H 1803.95 2.8126 -4.99565 0
M  V30 19169 H 1802.35 2.25805 -5.55996 0
M  V30 19170 H 1803.42 1.12329 -4.7171 0
M  V30 19171 N 1804.76 1.49212 0.507292 0
M  V30 19172 C 1806.17 1.51655 1.08892 0
M  V30 19173 C 1806.52 0.299163 1.93906 0
M  V30 19174 O 1805.65 -0.591635 2.08155 0
M  V30 19175 C 1806.24 2.7481 1.98154 0
M  V30 19176 C 1804.8 2.80051 2.51492 0
M  V30 19177 C 1803.95 2.45486 1.28966 0
M  V30 19178 H 1806.9 1.56 0.291488 0
M  V30 19179 H 1806.92 2.54615 2.82757 0
M  V30 19180 H 1806.43 3.63396 1.36253 0
M  V30 19181 H 1804.53 1.95729 3.1705 0
M  V30 19182 H 1804.65 3.82064 2.89075 0
M  V30 19183 H 1803.01 1.97128 1.61284 0
M  V30 19184 H 1803.79 3.36339 0.687821 0
M  V30 19185 N 1806.24 -0.757876 1.38181 0
M  V30 19186 C 1807.2 -1.85317 1.34871 0
M  V30 19187 C 1808.2 -1.58844 0.250041 0
M  V30 19188 O 1809.39 -1.66668 0.506688 0
M  V30 19189 C 1806.52 -3.22712 1.09864 0
M  V30 19190 H 1807.72 -1.89661 2.32312 0
M  V30 19191 H 1805.27 -0.959122 1.23412 0
M  V30 19192 H 1806 -3.24039 0.130112 0
M  V30 19193 H 1805.79 -3.4332 1.89403 0
M  V30 19194 H 1807.28 -4.02789 1.10232 0
M  V30 19195 N 1807.72 -1.22979 -0.985586 0
M  V30 19196 C 1808.66 -1.00374 -2.09828 0
M  V30 19197 C 1809.66 0.0555734 -1.69309 0
M  V30 19198 O 1810.86 -0.0974909 -1.79736 0
M  V30 19199 H 1807.24 -0.307451 -0.686278 0
M  V30 19200 H 1809.21 -1.94776 -2.26064 0
M  V30 19201 C 1807.96 -0.606018 -3.42378 0
M  V30 19202 H 1807.28 -1.41284 -3.74004 0
M  V30 19203 H 1808.72 -0.487318 -4.2119 0
M  V30 19204 C 1807.18 0.685197 -3.29859 0
M  V30 19205 O 1807.71 1.73572 -3.62265 0
M  V30 19206 N 1805.92 0.65914 -2.83026 0
M  V30 19207 H 1805.46 -0.196071 -2.56853 0
M  V30 19208 H 1805.42 1.52332 -2.75031 0
M  V30 19209 N 1809.19 1.18355 -1.04066 0
M  V30 19210 C 1810.61 1.69995 -0.771919 0
M  V30 19211 C 1810.96 1.83011 0.707213 0
M  V30 19212 O 1810.08 1.5096 1.55048 0
M  V30 19213 C 1810.68 3.08765 -1.39461 0
M  V30 19214 C 1809.24 3.57617 -1.17418 0
M  V30 19215 C 1808.38 2.34168 -1.48528 0
M  V30 19216 H 1811.33 1.0303 -1.20708 0
M  V30 19217 H 1811.35 3.72042 -0.79782 0
M  V30 19218 H 1810.87 2.9926 -2.47113 0
M  V30 19219 H 1808.97 3.72418 -0.116398 0
M  V30 19220 H 1809.08 4.41048 -1.87119 0
M  V30 19221 H 1807.44 2.38081 -0.904972 0
M  V30 19222 H 1808.23 2.27282 -2.57289 0
M  V30 19223 N 1810.67 0.820125 1.3458 0
M  V30 19224 C 1811.9 0.418747 2.03129 0
M  V30 19225 C 1812.32 -0.966605 1.61364 0
M  V30 19226 O 1811.68 -1.62847 0.796903 0
M  V30 19227 C 1811.73 0.525681 3.56748 0
M  V30 19228 O 1810.83 -0.455592 4.09876 0
M  V30 19229 H 1810.17 0.172819 0.641116 0
M  V30 19230 H 1812.7 1.10977 1.71888 0
M  V30 19231 H 1812.71 0.400422 4.0603 0
M  V30 19232 H 1811.39 1.53609 3.86493 0
M  V30 19233 H 1809.97 -0.289449 3.71775 0
M  V30 19234 N 1812.15 -1.46743 0.574835 0
M  V30 19235 C 1813.08 -2.2832 -0.20062 0
M  V30 19236 C 1814.1 -1.3805 -0.862898 0
M  V30 19237 O 1815.28 -1.6272 -0.733785 0
M  V30 19238 C 1812.38 -3.1285 -1.303 0
M  V30 19239 C 1811.56 -4.31195 -0.734153 0
M  V30 19240 C 1810.62 -4.97183 -1.72324 0
M  V30 19241 O 1809.64 -5.55025 -1.26239 0
M  V30 19242 N 1810.84 -4.93476 -3.05714 0
M  V30 19243 H 1813.61 -2.95513 0.499231 0
M  V30 19244 H 1811.17 -1.56568 0.412077 0
M  V30 19245 H 1813.16 -3.53861 -1.96378 0
M  V30 19246 H 1811.73 -2.47784 -1.90583 0
M  V30 19247 H 1810.95 -3.94063 0.103888 0
M  V30 19248 H 1812.24 -5.07704 -0.333751 0
M  V30 19249 H 1811.64 -4.47715 -3.45786 0
M  V30 19250 H 1810.2 -5.38453 -3.67304 0
M  V30 19251 N 1813.63 -0.312197 -1.54477 0
M  V30 19252 C 1815.04 0.178189 -1.85848 0
M  V30 19253 C 1815.39 1.52534 -1.23401 0
M  V30 19254 O 1814.52 2.09661 -0.535822 0
M  V30 19255 C 1815.11 0.330099 -3.37188 0
M  V30 19256 C 1813.67 0.764703 -3.6855 0
M  V30 19257 C 1812.82 -0.120348 -2.77039 0
M  V30 19258 H 1815.77 -0.532853 -1.49487 0
M  V30 19259 H 1815.79 1.16287 -3.62295 0
M  V30 19260 H 1815.3 -0.650527 -3.82609 0
M  V30 19261 H 1813.4 1.75548 -3.28654 0
M  V30 19262 H 1813.51 0.576331 -4.75621 0
M  V30 19263 H 1811.88 0.402229 -2.51504 0
M  V30 19264 H 1812.66 -1.09753 -3.25283 0
M  V30 19265 N 1815.11 1.57549 -0.040136 0
M  V30 19266 C 1816.36 1.91427 0.635496 0
M  V30 19267 C 1816.67 0.919277 1.72652 0
M  V30 19268 O 1817.87 1.14971 2.45955 0
M  V30 19269 C 1816.33 3.39949 1.18164 0
M  V30 19270 C 1815.94 4.4783 0.12332 0
M  V30 19271 C 1817.68 3.82878 1.83315 0
M  V30 19272 C 1815.59 5.87458 0.681727 0
M  V30 19273 H 1814.52 0.714401 0.241138 0
M  V30 19274 H 1817.17 1.83186 -0.107231 0
M  V30 19275 H 1815.55 3.43157 1.97633 0
M  V30 19276 H 1816.73 4.56197 -0.64972 0
M  V30 19277 H 1815.04 4.14173 -0.43008 0
M  V30 19278 H 1817.64 4.84558 2.2607 0
M  V30 19279 H 1817.98 3.1853 2.68038 0
M  V30 19280 H 1818.51 3.82139 1.10519 0
M  V30 19281 H 1815.25 6.55376 -0.127616 0
M  V30 19282 H 1814.77 5.82675 1.423 0
M  V30 19283 H 1816.45 6.36369 1.16806 0
M  V30 19284 N 1816.58 -0.233136 1.55866 0
M  V30 19285 C 1817.81 -0.976415 1.82411 0
M  V30 19286 C 1818.23 -1.78409 0.617724 0
M  V30 19287 O 1817.58 -1.77749 -0.413709 0
M  V30 19288 C 1817.64 -1.90328 3.07339 0
M  V30 19289 O 1817.36 -1.12828 4.23322 0
M  V30 19290 C 1818.86 -2.76142 3.46786 0
M  V30 19291 H 1816.08 -0.2867 0.606666 0
M  V30 19292 H 1818.62 -0.251863 2.02943 0
M  V30 19293 H 1816.78 -2.58193 2.88816 0
M  V30 19294 H 1817.19 -1.75643 4.94216 0
M  V30 19295 H 1818.66 -3.36901 4.37266 0
M  V30 19296 H 1819.14 -3.47953 2.68003 0
M  V30 19297 H 1819.75 -2.13708 3.67708 0
M  V30 19298 N 1818.06 -1.49479 -0.499372 0
M  V30 19299 C 1819 -1.60874 -1.61848 0
M  V30 19300 C 1819.97 -0.457753 -1.56024 0
M  V30 19301 O 1821.16 -0.673516 -1.76057 0
M  V30 19302 C 1818.29 -1.56518 -3.00366 0
M  V30 19303 C 1817.33 -2.76834 -3.24446 0
M  V30 19304 S 1818.16 -4.38486 -3.07392 0
M  V30 19305 C 1819.32 -4.36779 -4.48303 0
M  V30 19306 H 1819.55 -2.55543 -1.51938 0
M  V30 19307 H 1817.09 -1.3839 -0.68465 0
M  V30 19308 H 1819.04 -1.54691 -3.80238 0
M  V30 19309 H 1817.71 -0.631341 -3.0769 0
M  V30 19310 H 1816.9 -2.70011 -4.2557 0
M  V30 19311 H 1816.5 -2.76082 -2.52299 0
M  V30 19312 H 1818.79 -4.08599 -5.4042 0
M  V30 19313 H 1819.74 -5.38186 -4.60175 0
M  V30 19314 H 1820.14 -3.66837 -4.29058 0
M  V30 19315 N 1819.54 0.750537 -1.38581 0
M  V30 19316 C 1820.77 1.53978 -1.38196 0
M  V30 19317 C 1821.18 1.8878 0.0274976 0
M  V30 19318 O 1820.54 1.52997 0.994894 0
M  V30 19319 C 1820.59 2.83702 -2.24043 0
M  V30 19320 O 1820.31 2.50384 -3.59499 0
M  V30 19321 C 1821.81 3.77823 -2.31872 0
M  V30 19322 H 1819.03 0.476345 -0.472585 0
M  V30 19323 H 1821.58 0.928634 -1.82199 0
M  V30 19324 H 1819.73 3.41187 -1.83494 0
M  V30 19325 H 1820.15 3.33605 -4.04732 0
M  V30 19326 H 1821.62 4.65788 -2.96218 0
M  V30 19327 H 1822.1 4.18474 -1.33327 0
M  V30 19328 H 1822.7 3.26262 -2.72824 0
M  V30 19329 N 1821.02 1.235 0.979051 0
M  V30 19330 C 1822.3 0.976124 1.69503 0
M  V30 19331 C 1822.68 -0.504883 2.04974 0
M  V30 19332 O 1822.02 -1.47642 1.74397 0
M  V30 19333 C 1822.23 1.8877 2.93542 0
M  V30 19334 C 1823.58 2.15196 3.66027 0
M  V30 19335 O 1824.61 1.8633 3.03578 0
M  V30 19336 O 1823.47 2.64157 4.78417 0
M  V30 19337 H 1820.56 0.36825 0.740487 0
M  V30 19338 H 1823.11 1.34549 1.03415 0
M  V30 19339 H 1821.88 2.88882 2.63937 0
M  V30 19340 H 1821.5 1.52079 3.67366 0
M  V30 19341 N 1822.5 -1.17802 1.04693 0
M  V30 19342 C 1823.72 -1.92408 0.774194 0
M  V30 19343 C 1824.15 -1.76012 -0.663424 0
M  V30 19344 O 1823.51 -1.07447 -1.4603 0
M  V30 19345 C 1823.55 -3.4166 1.1533 0
M  V30 19346 O 1822.66 -4.11431 0.282469 0
M  V30 19347 H 1822 -0.600033 0.284353 0
M  V30 19348 H 1824.53 -1.49348 1.39844 0
M  V30 19349 H 1824.54 -3.92386 1.11791 0
M  V30 19350 H 1823.21 -3.52914 2.20056 0
M  V30 19351 H 1821.79 -3.70979 0.378021 0
M  V30 19352 N 1823.98 -0.827251 -1.34143 0
M  V30 19353 C 1825.22 -0.427198 -1.98863 0
M  V30 19354 C 1825.58 0.999732 -1.64387 0
M  V30 19355 O 1824.87 1.68747 -0.907462 0
M  V30 19356 C 1825.06 -0.571534 -3.52801 0
M  V30 19357 C 1824.89 -2.01094 -4.02233 0
M  V30 19358 C 1823.66 -2.64374 -4.30621 0
M  V30 19359 C 1825.86 -2.97823 -4.19292 0
M  V30 19360 N 1823.84 -3.9951 -4.66117 0
M  V30 19361 C 1825.21 -4.17877 -4.58016 0
M  V30 19362 C 1827.27 -2.94382 -4.01552 0
M  V30 19363 C 1825.97 -5.34951 -4.80853 0
M  V30 19364 C 1828 -4.10676 -4.25558 0
M  V30 19365 C 1827.36 -5.29483 -4.64572 0
M  V30 19366 H 1823.46 -0.204514 -0.754783 0
M  V30 19367 H 1826.04 -1.07287 -1.62474 0
M  V30 19368 H 1824.21 0.044261 -3.88375 0
M  V30 19369 H 1825.95 -0.144059 -4.04444 0
M  V30 19370 H 1822.7 -2.15586 -4.21687 0
M  V30 19371 H 1823.12 -4.69142 -4.88093 0
M  V30 19372 H 1827.77 -2.03667 -3.70513 0
M  V30 19373 H 1825.48 -6.26221 -5.10757 0
M  V30 19374 H 1829.07 -4.09418 -4.13362 0
M  V30 19375 H 1827.95 -6.17974 -4.82781 0
M  V30 19376 N 1825.45 1.46436 -0.582609 0
M  V30 19377 C 1826.68 2.07275 -0.0718712 0
M  V30 19378 C 1827.1 1.42851 1.22373 0
M  V30 19379 O 1826.46 0.512272 1.73912 0
M  V30 19380 C 1826.51 3.6051 0.08055 0
M  V30 19381 O 1825.61 3.96414 1.13707 0
M  V30 19382 H 1824.95 0.661027 -0.0627607 0
M  V30 19383 H 1827.48 1.88076 -0.805524 0
M  V30 19384 H 1827.49 4.06991 0.286749 0
M  V30 19385 H 1826.17 4.06792 -0.865603 0
M  V30 19386 H 1824.75 3.61643 0.909338 0
M  V30 19387 N 1826.93 0.320385 1.54309 0
M  V30 19388 C 1827.86 -0.539789 2.27175 0
M  V30 19389 C 1828.84 -1.12198 1.2785 0
M  V30 19390 O 1830.03 -1.1477 1.56657 0
M  V30 19391 C 1827.16 -1.70236 3.02716 0
M  V30 19392 C 1826.11 -1.24962 4.09351 0
M  V30 19393 C 1825.44 -2.49888 4.72715 0
M  V30 19394 C 1826.74 -0.366788 5.21011 0
M  V30 19395 H 1828.43 0.0680079 2.99323 0
M  V30 19396 H 1825.98 0.0341488 1.4396 0
M  V30 19397 H 1827.93 -2.31037 3.5242 0
M  V30 19398 H 1826.65 -2.33669 2.2818 0
M  V30 19399 H 1825.31 -0.664556 3.60526 0
M  V30 19400 H 1824.96 -3.11679 3.94798 0
M  V30 19401 H 1824.66 -2.20288 5.44745 0
M  V30 19402 H 1826.19 -3.11458 5.25192 0
M  V30 19403 H 1827.6 -0.881001 5.6649 0
M  V30 19404 H 1826 -0.163707 5.99877 0
M  V30 19405 H 1827.07 0.603185 4.81134 0
M  V30 19406 N 1828.41 -1.57525 0.0484906 0
M  V30 19407 C 1829.32 -2.14854 -0.942076 0
M  V30 19408 C 1830.34 -1.10565 -1.34355 0
M  V30 19409 O 1831.51 -1.4272 -1.42102 0
M  V30 19410 C 1828.58 -2.68002 -2.19945 0
M  V30 19411 C 1827.64 -3.87078 -1.85658 0
M  V30 19412 C 1826.87 -4.37682 -3.05401 0
M  V30 19413 O 1827.09 -3.87373 -4.18687 0
M  V30 19414 O 1826.03 -5.29302 -2.86571 0
M  V30 19415 H 1829.85 -2.9981 -0.48453 0
M  V30 19416 H 1827.44 -1.48392 -0.173252 0
M  V30 19417 H 1829.32 -3.02167 -2.93722 0
M  V30 19418 H 1828 -1.86118 -2.64843 0
M  V30 19419 H 1826.9 -3.57806 -1.09205 0
M  V30 19420 H 1828.24 -4.70184 -1.45562 0
M  V30 19421 N 1829.89 0.224867 -1.55988 0
M  V30 19422 C 1831.13 0.951154 -1.79111 0
M  V30 19423 C 1831.47 1.84119 -0.617568 0
M  V30 19424 O 1830.74 1.90686 0.383312 0
M  V30 19425 C 1831.02 1.79292 -3.12292 0
M  V30 19426 C 1830.88 0.929603 -4.40089 0
M  V30 19427 C 1832.2 2.77132 -3.41886 0
M  V30 19428 H 1829.32 0.344359 -0.651603 0
M  V30 19429 H 1831.96 0.220228 -1.88719 0
M  V30 19430 H 1830.11 2.41609 -3.04232 0
M  V30 19431 H 1831.78 0.323432 -4.60165 0
M  V30 19432 H 1830.02 0.234877 -4.33164 0
M  V30 19433 H 1830.69 1.55289 -5.29707 0
M  V30 19434 H 1833.17 2.24951 -3.50052 0
M  V30 19435 H 1832.05 3.33135 -4.36248 0
M  V30 19436 H 1832.31 3.54705 -2.63887 0
M  V30 19437 N 1831.37 1.49742 0.491438 0
M  V30 19438 C 1832.3 1.6173 1.60993 0
M  V30 19439 C 1833.28 0.466021 1.55779 0
M  V30 19440 O 1834.46 0.682843 1.75697 0
M  V30 19441 C 1831.59 1.58109 2.99532 0
M  V30 19442 C 1830.63 2.78551 3.22973 0
M  V30 19443 S 1831.47 4.4011 3.05063 0
M  V30 19444 C 1832.62 4.3915 4.4598 0
M  V30 19445 H 1832.86 2.56345 1.50581 0
M  V30 19446 H 1830.39 1.38752 0.677301 0
M  V30 19447 H 1832.35 1.56706 3.79412 0
M  V30 19448 H 1831.01 0.64765 3.0735 0
M  V30 19449 H 1830.2 2.72264 4.24133 0
M  V30 19450 H 1829.8 2.77416 2.50831 0
M  V30 19451 H 1832.09 4.11459 5.38245 0
M  V30 19452 H 1833.04 5.40619 4.57315 0
M  V30 19453 H 1833.45 3.69107 4.27107 0
M  V30 19454 N 1832.84 -0.743177 1.38977 0
M  V30 19455 C 1834.07 -1.53753 1.39193 0
M  V30 19456 C 1834.49 -1.88095 -0.0136591 0
M  V30 19457 O 1833.85 -1.51326 -0.998508 0
M  V30 19458 C 1833.9 -2.80679 2.26389 0
M  V30 19459 O 1833 -3.76265 1.68815 0
M  V30 19460 H 1832.35 -0.464639 0.474349 0
M  V30 19461 H 1834.88 -0.917579 1.82871 0
M  V30 19462 H 1834.89 -3.29498 2.40614 0
M  V30 19463 H 1833.56 -2.55014 3.28543 0
M  V30 19464 H 1832.14 -3.35004 1.63788 0
M  V30 19465 N 1834.32 -1.24018 -0.972487 0
M  V30 19466 C 1835.25 -0.986185 -2.06899 0
M  V30 19467 C 1836.27 0.0426574 -1.62744 0
M  V30 19468 O 1837.46 -0.193816 -1.77445 0
M  V30 19469 C 1834.56 -0.46551 -3.35688 0
M  V30 19470 C 1833.73 -1.55637 -4.08774 0
M  V30 19471 C 1832.79 -1.03918 -5.15837 0
M  V30 19472 O 1831.81 -1.72986 -5.42277 0
M  V30 19473 N 1833.02 0.128891 -5.80357 0
M  V30 19474 H 1835.78 -1.93025 -2.29263 0
M  V30 19475 H 1833.34 -1.14983 -1.13976 0
M  V30 19476 H 1835.33 -0.104379 -4.04565 0
M  V30 19477 H 1833.9 0.384166 -3.1023 0
M  V30 19478 H 1833.12 -2.08991 -3.3424 0
M  V30 19479 H 1834.41 -2.28973 -4.54366 0
M  V30 19480 H 1833.81 0.706438 -5.61272 0
M  V30 19481 H 1832.37 0.431211 -6.50372 0
M  V30 19482 N 1835.8 1.17245 -1.05316 0
M  V30 19483 C 1837.05 1.87813 -0.765112 0
M  V30 19484 C 1837.38 1.80907 0.706147 0
M  V30 19485 O 1836.65 1.21793 1.51647 0
M  V30 19486 C 1836.94 3.3779 -1.24779 0
M  V30 19487 C 1836.79 3.53441 -2.78208 0
M  V30 19488 C 1838.11 4.31857 -0.847805 0
M  V30 19489 H 1835.23 0.681979 -0.279415 0
M  V30 19490 H 1837.87 1.37869 -1.30737 0
M  V30 19491 H 1836.02 3.80456 -0.786487 0
M  V30 19492 H 1837.69 3.19782 -3.32472 0
M  V30 19493 H 1835.94 2.95678 -3.17423 0
M  V30 19494 H 1836.61 4.58725 -3.07043 0
M  V30 19495 H 1839.08 3.97039 -1.24496 0
M  V30 19496 H 1837.96 5.35326 -1.21313 0
M  V30 19497 H 1838.22 4.41403 0.248104 0
M  V30 19498 N 1837.28 0.834353 1.33702 0
M  V30 19499 C 1838.21 0.221764 2.28125 0
M  V30 19500 C 1839.22 -0.594917 1.51541 0
M  V30 19501 O 1840.41 -0.422726 1.73422 0
M  V30 19502 C 1837.51 -0.706778 3.31448 0
M  V30 19503 C 1836.69 0.0695756 4.37345 0
M  V30 19504 C 1835.74 -0.781623 5.20362 0
M  V30 19505 O 1834.77 -0.222459 5.68765 0
M  V30 19506 N 1835.97 -2.09968 5.41197 0
M  V30 19507 H 1838.74 1.03303 2.81333 0
M  V30 19508 H 1836.3 0.692389 1.46348 0
M  V30 19509 H 1838.29 -1.28109 3.83888 0
M  V30 19510 H 1836.86 -1.41877 2.78549 0
M  V30 19511 H 1836.08 0.825247 3.85465 0
M  V30 19512 H 1837.37 0.603576 5.05207 0
M  V30 19513 H 1836.77 -2.57756 5.03565 0
M  V30 19514 H 1835.32 -2.62258 5.96711 0
M  V30 19515 N 1838.76 -1.46125 0.590367 0
M  V30 19516 C 1840 -2.02646 0.0789983 0
M  V30 19517 C 1840.34 -1.45996 -1.28058 0
M  V30 19518 O 1839.61 -0.627981 -1.84083 0
M  V30 19519 C 1839.89 -3.60094 0.0214749 0
M  V30 19520 C 1839.75 -4.27112 1.41049 0
M  V30 19521 C 1841.07 -4.34889 -0.675236 0
M  V30 19522 H 1838.18 -0.736382 0.0301818 0
M  V30 19523 H 1840.83 -1.7418 0.759037 0
M  V30 19524 H 1838.98 -3.84477 -0.557648 0
M  V30 19525 H 1840.65 -4.13969 2.03537 0
M  V30 19526 H 1838.89 -3.86178 1.97607 0
M  V30 19527 H 1839.56 -5.3592 1.32264 0
M  V30 19528 H 1842.04 -4.15697 -0.183176 0
M  V30 19529 H 1840.91 -5.44615 -0.684538 0
M  V30 19530 H 1841.18 -4.06503 -1.73804 0
M  V30 19531 N 1840.23 -0.328564 -1.54137 0
M  V30 19532 C 1841.16 0.527734 -2.27458 0
M  V30 19533 C 1842.15 1.11518 -1.28444 0
M  V30 19534 O 1843.33 1.13938 -1.57264 0
M  V30 19535 C 1840.46 1.68628 -3.03615 0
M  V30 19536 C 1839.41 1.22789 -4.10008 0
M  V30 19537 C 1838.74 2.47378 -4.74034 0
M  V30 19538 C 1840.04 0.339152 -5.21198 0
M  V30 19539 H 1841.73 -0.0838808 -2.99282 0
M  V30 19540 H 1839.28 -0.0417829 -1.43939 0
M  V30 19541 H 1841.23 2.29165 -3.5364 0
M  V30 19542 H 1839.96 2.32456 -2.29416 0
M  V30 19543 H 1838.62 0.645427 -3.60874 0
M  V30 19544 H 1838.26 3.09581 -3.96445 0
M  V30 19545 H 1837.96 2.17396 -5.45905 0
M  V30 19546 H 1839.49 3.08668 -5.26836 0
M  V30 19547 H 1840.9 0.850947 -5.6695 0
M  V30 19548 H 1839.3 0.131892 -5.99955 0
M  V30 19549 H 1840.37 -0.628692 -4.80807 0
M  V30 19550 N 1841.71 1.57497 -0.0568439 0
M  V30 19551 C 1842.64 2.14892 0.913427 0
M  V30 19552 C 1843.62 1.07205 1.32065 0
M  V30 19553 O 1844.81 1.35172 1.39435 0
M  V30 19554 C 1841.94 2.69849 2.18629 0
M  V30 19555 C 1840.89 3.8257 1.91896 0
M  V30 19556 C 1840.22 4.24068 3.25685 0
M  V30 19557 C 1841.52 5.07463 1.23606 0
M  V30 19558 H 1843.21 2.96218 0.435347 0
M  V30 19559 H 1840.76 1.4249 0.20796 0
M  V30 19560 H 1842.71 3.08643 2.86911 0
M  V30 19561 H 1841.44 1.85723 2.68653 0
M  V30 19562 H 1840.09 3.44258 1.26024 0
M  V30 19563 H 1839.74 3.36884 3.73521 0
M  V30 19564 H 1839.44 5.00043 3.08594 0
M  V30 19565 H 1840.97 4.65466 3.95189 0
M  V30 19566 H 1842.38 5.43667 1.81931 0
M  V30 19567 H 1840.78 5.88619 1.16823 0
M  V30 19568 H 1841.85 4.84432 0.212918 0
M  V30 19569 N 1843.19 -0.216591 1.56105 0
M  V30 19570 C 1844.42 -0.955625 1.8317 0
M  V30 19571 C 1844.83 -1.78247 0.634397 0
M  V30 19572 O 1844.17 -1.79148 -0.406391 0
M  V30 19573 C 1844.23 -1.91834 3.04039 0
M  V30 19574 C 1843.9 -1.27553 4.38838 0
M  V30 19575 C 1844.89 -0.662972 5.15656 0
M  V30 19576 C 1842.58 -1.28582 4.85564 0
M  V30 19577 C 1844.57 -0.0692674 6.37362 0
M  V30 19578 C 1842.26 -0.688269 6.07212 0
M  V30 19579 C 1843.26 -0.0810524 6.82952 0
M  V30 19580 O 1842.95 0.507186 8.02298 0
M  V30 19581 H 1842.68 -0.285405 0.612797 0
M  V30 19582 H 1845.23 -0.235419 2.04046 0
M  V30 19583 H 1843.46 -2.67767 2.78994 0
M  V30 19584 H 1845.15 -2.52334 3.17934 0
M  V30 19585 H 1845.92 -0.647319 4.80661 0
M  V30 19586 H 1841.8 -1.74784 4.26581 0
M  V30 19587 H 1845.34 0.405305 6.96422 0
M  V30 19588 H 1841.24 -0.701352 6.41679 0
M  V30 19589 H 1842.01 0.401989 8.17512 0
M  V30 19590 N 1844.67 -1.5 -0.48349 0
M  V30 19591 C 1845.92 -1.60369 -1.23645 0
M  V30 19592 C 1846.24 -0.298319 -1.92199 0
M  V30 19593 O 1845.5 0.715001 -1.82171 0
M  V30 19594 C 1845.8 -2.72475 -2.31283 0
M  V30 19595 C 1845.46 -4.13384 -1.80068 0
M  V30 19596 C 1844.13 -4.51727 -1.65821 0
M  V30 19597 C 1846.48 -5.01501 -1.41937 0
M  V30 19598 C 1843.81 -5.7594 -1.11847 0
M  V30 19599 C 1846.16 -6.2625 -0.894093 0
M  V30 19600 C 1844.82 -6.63406 -0.738151 0
M  V30 19601 H 1844.09 -0.58683 -0.452451 0
M  V30 19602 H 1846.74 -1.83893 -0.534393 0
M  V30 19603 H 1845.04 -2.42991 -3.07348 0
M  V30 19604 H 1846.74 -2.77703 -2.89278 0
M  V30 19605 H 1843.33 -3.83128 -1.92122 0
M  V30 19606 H 1847.51 -4.7252 -1.51784 0
M  V30 19607 H 1842.77 -6.03413 -0.985001 0
M  V30 19608 H 1846.94 -6.93897 -0.589916 0
M  V30 19609 H 1844.57 -7.59536 -0.317755 0
M  V30 19610 N 1846.15 0.735796 -1.39369 0
M  V30 19611 C 1847.08 1.86303 -1.4076 0
M  V30 19612 C 1848.06 1.67926 -0.27107 0
M  V30 19613 O 1849.24 1.88257 -0.476773 0
M  V30 19614 C 1846.37 3.24043 -1.24955 0
M  V30 19615 C 1845.33 3.57055 -2.35999 0
M  V30 19616 C 1844.65 4.93723 -2.05284 0
M  V30 19617 C 1845.95 3.60109 -3.7831 0
M  V30 19618 H 1847.65 1.85396 -2.35093 0
M  V30 19619 H 1845.19 0.890552 -1.1316 0
M  V30 19620 H 1847.15 4.02574 -1.24549 0
M  V30 19621 H 1845.87 3.25475 -0.270902 0
M  V30 19622 H 1844.53 2.80853 -2.35621 0
M  V30 19623 H 1844.18 4.91734 -1.05859 0
M  V30 19624 H 1843.88 5.16779 -2.79667 0
M  V30 19625 H 1845.4 5.74612 -2.06527 0
M  V30 19626 H 1846.81 4.28718 -3.80622 0
M  V30 19627 H 1845.21 3.94683 -4.52046 0
M  V30 19628 H 1846.28 2.59932 -4.09345 0
M  V30 19629 N 1847.63 1.24532 0.965897 0
M  V30 19630 C 1848.56 0.997143 2.06373 0
M  V30 19631 C 1849.57 -0.0340261 1.62764 0
M  V30 19632 O 1850.76 0.203223 1.77339 0
M  V30 19633 C 1847.86 0.483305 3.35436 0
M  V30 19634 C 1847.03 1.57803 4.07942 0
M  V30 19635 C 1846.09 1.06652 5.15278 0
M  V30 19636 O 1845.12 1.75859 5.41352 0
M  V30 19637 N 1846.32 -0.0981119 5.80417 0
M  V30 19638 H 1849.08 1.94238 2.28236 0
M  V30 19639 H 1846.65 1.15586 1.13365 0
M  V30 19640 H 1848.64 0.125833 4.04504 0
M  V30 19641 H 1847.21 -0.367709 3.1043 0
M  V30 19642 H 1846.43 2.1076 3.33127 0
M  V30 19643 H 1847.72 2.3138 4.53146 0
M  V30 19644 H 1847.11 -0.676662 5.61638 0
M  V30 19645 H 1845.67 -0.396714 6.50592 0
M  V30 19646 N 1849.1 -1.16685 1.05936 0
M  V30 19647 C 1850.03 -2.23129 0.688153 0
M  V30 19648 C 1851.01 -1.67108 -0.31765 0
M  V30 19649 O 1852.2 -1.93233 -0.193578 0
M  V30 19650 C 1849.33 -3.47229 0.069991 0
M  V30 19651 C 1848.28 -4.16121 1.00137 0
M  V30 19652 C 1847.61 -5.34131 0.246699 0
M  V30 19653 C 1848.91 -4.67508 2.32882 0
M  V30 19654 H 1850.6 -2.54436 1.57806 0
M  V30 19655 H 1848.15 -1.22298 0.76021 0
M  V30 19656 H 1850.1 -4.20918 -0.201545 0
M  V30 19657 H 1848.83 -3.15212 -0.854909 0
M  V30 19658 H 1847.49 -3.44355 1.25759 0
M  V30 19659 H 1847.13 -4.98366 -0.681204 0
M  V30 19660 H 1846.83 -5.81163 0.867373 0
M  V30 19661 H 1848.36 -6.10598 -0.0173762 0
M  V30 19662 H 1849.77 -5.32795 2.11666 0
M  V30 19663 H 1848.17 -5.25147 2.90414 0
M  V30 19664 H 1849.24 -3.83912 2.96209 0
M  V30 19665 N 1850.58 -0.841432 -1.33258 0
M  V30 19666 C 1851.49 -0.279006 -2.32935 0
M  V30 19667 C 1852.51 0.596298 -1.63463 0
M  V30 19668 O 1853.68 0.499812 -1.951 0
M  V30 19669 C 1850.75 0.534514 -3.42555 0
M  V30 19670 C 1849.81 -0.365366 -4.27742 0
M  V30 19671 C 1849.04 0.409423 -5.32127 0
M  V30 19672 O 1849.27 1.64085 -5.4629 0
M  V30 19673 O 1848.2 -0.217904 -6.01505 0
M  V30 19674 H 1852.03 -1.10448 -2.82904 0
M  V30 19675 H 1849.61 -0.60402 -1.36645 0
M  V30 19676 H 1851.49 0.996723 -4.09443 0
M  V30 19677 H 1850.17 1.33701 -2.94798 0
M  V30 19678 H 1849.07 -0.875469 -3.63712 0
M  V30 19679 H 1850.41 -1.1327 -4.78989 0
M  V30 19680 N 1852.06 1.4581 -0.598108 0
M  V30 19681 C 1853.02 2.28905 0.11623 0
M  V30 19682 C 1854.02 1.39246 0.804187 0
M  V30 19683 O 1855.21 1.61466 0.653793 0
M  V30 19684 C 1852.34 3.20029 1.17449 0
M  V30 19685 H 1853.54 2.93543 -0.614217 0
M  V30 19686 H 1851.09 1.52175 -0.356735 0
M  V30 19687 H 1851.83 2.60171 1.93601 0
M  V30 19688 H 1851.61 3.86061 0.685508 0
M  V30 19689 H 1853.1 3.82533 1.67505 0
M  V30 19690 N 1853.54 0.336733 1.53961 0
M  V30 19691 C 1854.79 -0.262826 1.9998 0
M  V30 19692 C 1855.1 -1.52201 1.22858 0
M  V30 19693 O 1856.31 -2.19839 1.5932 0
M  V30 19694 C 1854.76 -0.518877 3.5614 0
M  V30 19695 C 1854.37 0.724019 4.42111 0
M  V30 19696 C 1856.11 -1.07767 4.10593 0
M  V30 19697 C 1854.02 0.439143 5.89767 0
M  V30 19698 H 1852.95 -0.101987 0.747071 0
M  V30 19699 H 1855.6 0.451004 1.77871 0
M  V30 19700 H 1853.98 -1.29323 3.74288 0
M  V30 19701 H 1855.16 1.49896 4.35738 0
M  V30 19702 H 1853.47 1.20396 3.98615 0
M  V30 19703 H 1856.07 -1.30564 5.18514 0
M  V30 19704 H 1856.41 -2.03111 3.63389 0
M  V30 19705 H 1856.95 -0.36418 3.96129 0
M  V30 19706 H 1853.68 1.36212 6.41192 0
M  V30 19707 H 1853.2 -0.297839 5.9906 0
M  V30 19708 H 1854.88 0.0538506 6.46978 0
M  V30 19709 N 1855.02 -1.57465 0.0651956 0
M  V30 19710 C 1856.43 -1.80728 -0.468449 0
M  V30 19711 C 1856.78 -0.978581 -1.70054 0
M  V30 19712 O 1855.9 -0.199186 -2.15481 0
M  V30 19713 C 1856.5 -3.27791 -0.856641 0
M  V30 19714 C 1855.06 -3.51923 -1.33519 0
M  V30 19715 C 1854.2 -2.7548 -0.317147 0
M  V30 19716 H 1857.15 -1.5601 0.290955 0
M  V30 19717 H 1857.18 -3.39479 -1.71855 0
M  V30 19718 H 1856.69 -3.88079 0.0402823 0
M  V30 19719 H 1854.79 -2.96932 -2.25083 0
M  V30 19720 H 1854.9 -4.60624 -1.31767 0
M  V30 19721 H 1853.27 -2.4204 -0.793026 0
M  V30 19722 H 1854.05 -3.38502 0.571935 0
M  V30 19723 N 1856.49 0.20831 -1.56217 0
M  V30 19724 C 1857.46 1.24178 -1.92646 0
M  V30 19725 C 1858.46 1.39125 -0.806274 0
M  V30 19726 O 1859.65 1.37163 -1.07386 0
M  V30 19727 C 1856.78 2.61342 -2.18891 0
M  V30 19728 H 1857.97 0.930748 -2.85091 0
M  V30 19729 H 1855.52 0.449285 -1.49703 0
M  V30 19730 H 1856.26 2.97521 -1.29041 0
M  V30 19731 H 1856.04 2.51866 -3.00509 0
M  V30 19732 H 1857.53 3.35892 -2.48125 0
M  V30 19733 N 1857.97 1.50255 0.475528 0
M  V30 19734 C 1859.38 1.53931 1.05651 0
M  V30 19735 C 1859.73 0.340226 1.93228 0
M  V30 19736 O 1858.86 -0.547349 2.09363 0
M  V30 19737 C 1859.45 2.78951 1.92281 0
M  V30 19738 C 1858.01 2.85323 2.45495 0
M  V30 19739 C 1857.16 2.48166 1.2373 0
M  V30 19740 H 1860.11 1.56583 0.258332 0
M  V30 19741 H 1860.13 2.60555 2.77293 0
M  V30 19742 H 1859.64 3.66205 1.28514 0
M  V30 19743 H 1857.74 2.0241 3.12827 0
M  V30 19744 H 1857.86 3.88109 2.80906 0
M  V30 19745 H 1856.22 2.00505 1.57066 0
M  V30 19746 H 1857 3.37722 0.616324 0
M  V30 19747 N 1859.45 -0.728395 1.39758 0
M  V30 19748 C 1860.73 -1.48036 1.27846 0
M  V30 19749 C 1861.11 -2.10818 -0.108996 0
M  V30 19750 O 1860.45 -1.99125 -1.12078 0
M  V30 19751 C 1860.66 -2.52644 2.40774 0
M  V30 19752 C 1862.01 -3.1884 2.80404 0
M  V30 19753 O 1863.04 -2.6296 2.40272 0
M  V30 19754 O 1861.9 -4.19971 3.49696 0
M  V30 19755 H 1858.99 -0.657688 0.501374 0
M  V30 19756 H 1861.54 -0.761658 1.51647 0
M  V30 19757 H 1860.31 -2.04678 3.335 0
M  V30 19758 H 1859.93 -3.32066 2.18674 0
M  V30 19759 N 1860.93 -1.25042 -0.959279 0
M  V30 19760 C 1862.15 -1.12339 -1.74341 0
M  V30 19761 C 1862.58 0.319342 -1.85369 0
M  V30 19762 O 1861.94 1.23129 -1.33075 0
M  V30 19763 C 1861.98 -1.77734 -3.13756 0
M  V30 19764 O 1861.09 -1.05383 -3.98708 0
M  V30 19765 H 1860.43 -0.392479 -0.535589 0
M  V30 19766 H 1862.96 -1.65516 -1.20274 0
M  V30 19767 H 1862.97 -1.83832 -3.64239 0
M  V30 19768 H 1861.64 -2.82702 -3.05045 0
M  V30 19769 H 1860.22 -1.07132 -3.57179 0
M  V30 19770 N 1862.41 1.16121 -1.06553 0
M  V30 19771 C 1863.35 2.20597 -0.678659 0
M  V30 19772 C 1864.32 1.6287 0.325988 0
M  V30 19773 O 1865.51 1.89593 0.214278 0
M  V30 19774 C 1862.65 3.45021 -0.0740442 0
M  V30 19775 C 1861.76 4.16981 -1.12919 0
M  V30 19776 C 1860.9 5.28931 -0.490435 0
M  V30 19777 C 1859.94 5.92697 -1.52893 0
M  V30 19778 N 1859.07 6.96134 -0.913346 0
M  V30 19779 H 1863.91 2.53041 -1.57398 0
M  V30 19780 H 1861.45 1.24282 -0.786923 0
M  V30 19781 H 1863.41 4.16162 0.294059 0
M  V30 19782 H 1862.04 3.13118 0.784671 0
M  V30 19783 H 1861.09 3.44417 -1.61496 0
M  V30 19784 H 1862.4 4.60495 -1.91693 0
M  V30 19785 H 1861.56 6.0666 -0.0695112 0
M  V30 19786 H 1860.29 4.86588 0.329154 0
M  V30 19787 H 1859.3 5.13688 -1.95972 0
M  V30 19788 H 1860.52 6.37119 -2.35066 0
M  V30 19789 H 1858.47 6.559 -0.114515 0
M  V30 19790 H 1858.39 7.38032 -1.63843 0
M  V30 19791 H 1859.66 7.77779 -0.517655 0
M  V30 19792 N 1863.88 0.848487 1.3281 0
M  V30 19793 C 1865.3 0.537529 1.50276 0
M  V30 19794 C 1865.5 -0.93314 1.78591 0
M  V30 19795 O 1864.56 -1.71649 1.85184 0
M  V30 19796 C 1865.87 1.41919 2.65103 0
M  V30 19797 C 1867.42 1.41897 2.78988 0
M  V30 19798 C 1867.89 2.2857 3.96888 0
M  V30 19799 N 1869.38 2.26331 4.04139 0
M  V30 19800 C 1870.12 2.90127 4.94585 0
M  V30 19801 N 1869.61 3.63011 5.9008 0
M  V30 19802 N 1871.41 2.79547 4.87658 0
M  V30 19803 H 1863.56 1.80038 1.12695 0
M  V30 19804 H 1865.82 0.768636 0.554889 0
M  V30 19805 H 1865.53 2.4647 2.50889 0
M  V30 19806 H 1865.4 1.10213 3.60739 0
M  V30 19807 H 1867.79 0.381128 2.92628 0
M  V30 19808 H 1867.87 1.77614 1.84084 0
M  V30 19809 H 1867.51 3.32418 3.84006 0
M  V30 19810 H 1867.44 1.90188 4.91056 0
M  V30 19811 H 1869.93 1.73337 3.35802 0
M  V30 19812 H 1870.25 4.08872 6.55777 0
M  V30 19813 H 1868.59 3.67119 5.90126 0
M  V30 19814 H 1871.78 2.22162 4.12021 0
M  V30 19815 H 1871.96 3.29548 5.57944 0
M  V30 19816 N 1865.36 -1.4549 0.605832 0
M  V30 19817 C 1866.29 -2.28694 -0.152145 0
M  V30 19818 C 1867.31 -1.3985 -0.833422 0
M  V30 19819 O 1868.5 -1.6424 -0.699105 0
M  V30 19820 C 1865.6 -3.15544 -1.23634 0
M  V30 19821 C 1864.77 -4.32655 -0.642525 0
M  V30 19822 C 1863.83 -5.00726 -1.61739 0
M  V30 19823 O 1862.85 -5.57577 -1.14438 0
M  V30 19824 N 1864.06 -4.9985 -2.95178 0
M  V30 19825 H 1866.82 -2.94387 0.561801 0
M  V30 19826 H 1864.38 -1.55659 0.445195 0
M  V30 19827 H 1866.37 -3.57947 -1.88828 0
M  V30 19828 H 1864.94 -2.51771 -1.85284 0
M  V30 19829 H 1864.16 -3.93754 0.187451 0
M  V30 19830 H 1865.45 -5.08298 -0.225985 0
M  V30 19831 H 1864.85 -4.54949 -3.36211 0
M  V30 19832 H 1863.41 -5.46123 -3.558 0
M  V30 19833 N 1866.84 -0.344893 -1.5378 0
M  V30 19834 C 1868.07 0.255228 -2.05824 0
M  V30 19835 C 1868.49 1.43329 -1.21812 0
M  V30 19836 O 1867.85 1.79807 -0.232191 0
M  V30 19837 C 1867.9 0.646906 -3.5475 0
M  V30 19838 O 1867 1.74677 -3.7358 0
M  V30 19839 H 1866.34 0.0420518 -0.662667 0
M  V30 19840 H 1868.87 -0.499498 -1.98409 0
M  V30 19841 H 1868.88 0.923686 -3.97407 0
M  V30 19842 H 1867.56 -0.214619 -4.15346 0
M  V30 19843 H 1866.13 1.46715 -3.42825 0
M  V30 19844 N 1868.32 1.57428 -0.0735454 0
M  V30 19845 C 1869.57 1.92732 0.594748 0
M  V30 19846 C 1869.88 0.955693 1.70663 0
M  V30 19847 O 1871.09 1.20162 2.43461 0
M  V30 19848 C 1869.54 3.42379 1.10927 0
M  V30 19849 C 1869.15 4.47991 0.0283008 0
M  V30 19850 C 1870.89 3.8668 1.75153 0
M  V30 19851 C 1868.8 5.88771 0.556965 0
M  V30 19852 H 1867.73 0.719355 0.22593 0
M  V30 19853 H 1870.38 1.82918 -0.146063 0
M  V30 19854 H 1868.76 3.47272 1.9031 0
M  V30 19855 H 1869.94 4.54716 -0.74634 0
M  V30 19856 H 1868.25 4.13168 -0.517835 0
M  V30 19857 H 1870.85 4.89244 2.15741 0
M  V30 19858 H 1871.19 3.24144 2.61221 0
M  V30 19859 H 1871.73 3.84397 1.02389 0
M  V30 19860 H 1868.47 6.54958 -0.266602 0
M  V30 19861 H 1867.99 5.85563 1.29909 0
M  V30 19862 H 1869.66 6.38703 1.03281 0
M  V30 19863 N 1869.8 -0.200022 1.56326 0
M  V30 19864 C 1870.73 -1.25071 1.97179 0
M  V30 19865 C 1871.71 -1.4774 0.84303 0
M  V30 19866 O 1872.89 -1.5956 1.10699 0
M  V30 19867 C 1870.02 -2.596 2.30706 0
M  V30 19868 C 1868.98 -2.51552 3.46274 0
M  V30 19869 C 1868.3 -3.90309 3.65463 0
M  V30 19870 C 1869.6 -2.0448 4.80609 0
M  V30 19871 H 1871.3 -0.911238 2.85196 0
M  V30 19872 H 1868.84 -0.436899 1.37212 0
M  V30 19873 H 1870.8 -3.33281 2.5788 0
M  V30 19874 H 1869.52 -2.95278 1.39565 0
M  V30 19875 H 1868.18 -1.80327 3.19183 0
M  V30 19876 H 1867.83 -4.23331 2.71662 0
M  V30 19877 H 1867.53 -3.858 4.43207 0
M  V30 19878 H 1869.05 -4.65619 3.95008 0
M  V30 19879 H 1870.46 -2.67917 5.06847 0
M  V30 19880 H 1868.86 -2.10985 5.61788 0
M  V30 19881 H 1869.93 -0.997828 4.74522 0
M  V30 19882 N 1871.27 -1.50505 -0.467553 0
M  V30 19883 C 1872.52 -1.61671 -1.21938 0
M  V30 19884 C 1872.85 -0.318688 -1.91871 0
M  V30 19885 O 1872.1 0.695639 -1.82919 0
M  V30 19886 C 1872.4 -2.74913 -2.28381 0
M  V30 19887 C 1872.07 -4.1527 -1.75674 0
M  V30 19888 C 1870.73 -4.5346 -1.6102 0
M  V30 19889 C 1873.08 -5.02978 -1.3661 0
M  V30 19890 C 1870.41 -5.77094 -1.05732 0
M  V30 19891 C 1872.76 -6.27163 -0.827621 0
M  V30 19892 C 1871.43 -6.64152 -0.667746 0
M  V30 19893 H 1870.7 -0.591596 -0.446201 0
M  V30 19894 H 1873.34 -1.84449 -0.514858 0
M  V30 19895 H 1871.65 -2.46237 -3.04754 0
M  V30 19896 H 1873.35 -2.80756 -2.86317 0
M  V30 19897 H 1869.94 -3.85144 -1.88047 0
M  V30 19898 H 1874.12 -4.74103 -1.46764 0
M  V30 19899 H 1869.38 -6.04424 -0.920946 0
M  V30 19900 H 1873.55 -6.94484 -0.516286 0
M  V30 19901 H 1871.18 -7.5983 -0.237178 0
M  V30 19902 N 1872.75 0.720973 -1.40142 0
M  V30 19903 C 1873.98 1.51519 -1.41622 0
M  V30 19904 C 1874.4 1.88093 -0.0162669 0
M  V30 19905 O 1873.76 1.52895 0.974307 0
M  V30 19906 C 1873.81 2.77041 -2.30826 0
M  V30 19907 O 1872.91 3.73532 -1.74779 0
M  V30 19908 H 1872.25 0.457034 -0.481681 0
M  V30 19909 H 1874.78 0.88837 -1.84307 0
M  V30 19910 H 1874.79 3.25628 -2.45826 0
M  V30 19911 H 1873.47 2.49755 -3.32558 0
M  V30 19912 H 1872.05 3.32356 -1.69097 0
M  V30 19913 N 1874.23 1.25549 0.952634 0
M  V30 19914 C 1875.46 1.13162 1.73211 0
M  V30 19915 C 1875.87 -0.314383 1.86164 0
M  V30 19916 O 1875.23 -1.21608 1.3608 0
M  V30 19917 C 1875.28 1.78273 3.14485 0
M  V30 19918 O 1875 3.17221 3.02163 0
M  V30 19919 C 1876.5 1.71691 4.08702 0
M  V30 19920 H 1873.72 0.394613 0.542698 0
M  V30 19921 H 1876.27 1.65951 1.19502 0
M  V30 19922 H 1874.42 1.2945 3.65132 0
M  V30 19923 H 1874.84 3.49266 3.91297 0
M  V30 19924 H 1876.31 2.21906 5.05432 0
M  V30 19925 H 1876.79 0.681094 4.33887 0
M  V30 19926 H 1877.39 2.20012 3.63971 0
M  V30 19927 N 1875.71 -1.15554 1.07168 0
M  V30 19928 C 1876.62 -2.2386 0.701714 0
M  V30 19929 C 1877.63 -1.7163 -0.28621 0
M  V30 19930 O 1878.81 -2.00958 -0.133308 0
M  V30 19931 C 1875.88 -3.46546 0.103165 0
M  V30 19932 C 1874.94 -4.13774 1.14409 0
M  V30 19933 C 1874.17 -5.30604 0.574007 0
M  V30 19934 O 1874.39 -5.67123 -0.610521 0
M  V30 19935 O 1873.33 -5.87293 1.31799 0
M  V30 19936 H 1877.15 -2.57833 1.60487 0
M  V30 19937 H 1874.74 -1.23241 0.844514 0
M  V30 19938 H 1876.62 -4.2078 -0.228452 0
M  V30 19939 H 1875.29 -3.14327 -0.773339 0
M  V30 19940 H 1874.2 -3.4147 1.52803 0
M  V30 19941 H 1875.53 -4.5007 1.99243 0
M  V30 19942 N 1877.19 -0.855519 -1.32358 0
M  V30 19943 C 1878.43 -0.460002 -1.97514 0
M  V30 19944 C 1878.77 0.982052 -1.67539 0
M  V30 19945 O 1878.04 1.68925 -0.964091 0
M  V30 19946 C 1878.32 -0.70064 -3.53218 0
M  V30 19947 C 1878.18 -2.19118 -3.9282 0
M  V30 19948 C 1879.5 -0.157597 -4.39818 0
M  V30 19949 H 1876.62 -0.168606 -0.717455 0
M  V30 19950 H 1879.26 -1.0741 -1.56726 0
M  V30 19951 H 1877.41 -0.177937 -3.88092 0
M  V30 19952 H 1879.08 -2.78002 -3.6812 0
M  V30 19953 H 1877.32 -2.66934 -3.41948 0
M  V30 19954 H 1877.99 -2.31024 -5.0133 0
M  V30 19955 H 1880.47 -0.604597 -4.11684 0
M  V30 19956 H 1879.35 -0.355532 -5.47747 0
M  V30 19957 H 1879.61 0.939679 -4.31998 0
M  V30 19958 O 1878.7 1.42829 -0.753803 0
M  V30 19959 H 1879.4 1.91176 -0.311684 0
M  V30 END ATOM
M  V30 BEGIN BOND
M  V30 END BOND
M  V30 END CTAB
M  END
$$$$
