drugbank_target|P68638 Complement control protein C3 (DB02264; DB03959; DB04786)
 OpenBabel12092119543D

  0  0  0     0  0            999 V3000
M  V30 BEGIN CTAB
M  V30 COUNTS 3921 3971 0 0 0
M  V30 BEGIN ATOM
M  V30 1 H -0.908 1.98254 -0.117106 0
M  V30 2 N 0 1.576 0 0
M  V30 3 C 0.933 2.03868 1.02534 0
M  V30 4 C 1.911 0.928543 1.3348 0
M  V30 5 O 3.095 1.19667 1.45644 0
M  V30 6 C 0.222 2.43627 2.35294 0
M  V30 7 C -0.732 3.65373 2.2001 0
M  V30 8 S 0.101 5.13292 1.52614 0
M  V30 9 C 1.257 5.56322 2.86805 0
M  V30 10 H 1.49 2.90518 0.631377 0
M  V30 11 H -0.977 1.52953 0.210867 0
M  V30 12 H 0.981 2.67203 3.11629 0
M  V30 13 H -0.358 1.57376 2.7183 0
M  V30 14 H -1.165 3.90944 3.18086 0
M  V30 15 H -1.563 3.418 1.51819 0
M  V30 16 H 0.729 5.58782 3.83104 0
M  V30 17 H 1.672 6.56266 2.65933 0
M  V30 18 H 2.08 4.83886 2.90714 0
M  V30 19 N 1.4781 -0.272755 1.55222 0
M  V30 20 C 2.4251 -1.33716 1.88119 0
M  V30 21 C 3.3951 -1.49066 0.73271 0
M  V30 22 O 4.5801 -1.63469 0.984002 0
M  V30 23 C 1.7201 -2.69238 2.15882 0
M  V30 24 C 0.8331 -2.62108 3.43399 0
M  V30 25 C -0.0319 -3.89811 3.60861 0
M  V30 26 C -0.9929 -3.77193 4.8207 0
M  V30 27 N -1.8559 -4.9673 4.96189 0
M  V30 28 H 2.9841 -1.04962 2.78903 0
M  V30 29 H 0.5211 -0.507088 1.38083 0
M  V30 30 H 2.4791 -3.48089 2.29978 0
M  V30 31 H 1.1091 -2.96194 1.28331 0
M  V30 32 H 0.1611 -1.74967 3.37773 0
M  V30 33 H 1.4731 -2.48685 4.32386 0
M  V30 34 H 0.6271 -4.77103 3.74777 0
M  V30 35 H -0.6339 -4.06102 2.7006 0
M  V30 36 H -1.6289 -2.88284 4.68159 0
M  V30 37 H -0.4039 -3.62421 5.74307 0
M  V30 38 H -2.4579 -5.13431 4.08319 0
M  V30 39 H -2.5409 -4.85839 5.79221 0
M  V30 40 H -1.2729 -5.85594 5.1449 0
M  V30 41 N 2.9562 -1.48159 -0.537278 0
M  V30 42 C 4.2022 -1.56035 -1.29541 0
M  V30 43 C 4.5352 -0.230377 -1.92829 0
M  V30 44 O 3.8102 0.762952 -1.78911 0
M  V30 45 C 4.0932 -2.69323 -2.39034 0
M  V30 46 C 3.9462 -4.12002 -1.80485 0
M  V30 47 C 5.2652 -2.78408 -3.40847 0
M  V30 48 H 2.3842 -0.567992 -0.469632 0
M  V30 49 H 5.0262 -1.80302 -0.599277 0
M  V30 50 H 3.1762 -2.48763 -2.98412 0
M  V30 51 H 4.8482 -4.43981 -1.25215 0
M  V30 52 H 3.0912 -4.19344 -1.11055 0
M  V30 53 H 3.7622 -4.87077 -2.59731 0
M  V30 54 H 6.2382 -2.97012 -2.91416 0
M  V30 55 H 5.1142 -3.59416 -4.14863 0
M  V30 56 H 5.3752 -1.86269 -4.00944 0
M  V30 57 N 4.4343 0.785586 -1.36625 0
M  V30 58 C 5.3443 1.92964 -1.33425 0
M  V30 59 C 6.3603 1.72394 -0.235851 0
M  V30 60 O 7.5363 1.95866 -0.468878 0
M  V30 61 C 4.6013 3.27884 -1.12662 0
M  V30 62 C 3.6623 3.61204 -2.32013 0
M  V30 63 C 2.8953 4.89687 -2.12231 0
M  V30 64 O 3.1183 5.59704 -1.09945 0
M  V30 65 O 2.0523 5.21752 -3.00098 0
M  V30 66 H 5.8783 1.98613 -2.29753 0
M  V30 67 H 3.4633 0.926384 -1.17211 0
M  V30 68 H 5.3453 4.08614 -1.03016 0
M  V30 69 H 4.0203 3.23118 -0.193991 0
M  V30 70 H 2.9273 2.80765 -2.47228 0
M  V30 71 H 4.2603 3.70698 -3.23796 0
M  V30 72 N 5.9124 1.20967 1.01018 0
M  V30 73 C 7.1374 1.0503 1.78839 0
M  V30 74 C 7.5624 -0.395752 1.8389 0
M  V30 75 O 6.9204 -1.28529 1.27867 0
M  V30 76 C 6.9684 1.64602 3.2084 0
M  V30 77 O 6.0724 0.887988 4.02726 0
M  V30 78 H 5.4134 0.369987 0.551367 0
M  V30 79 H 7.9434 1.60399 1.27018 0
M  V30 80 H 7.9534 1.68607 3.71532 0
M  V30 81 H 6.6284 2.69841 3.16479 0
M  V30 82 H 5.2054 0.922648 3.61305 0
M  V30 83 N 7.3905 -1.2043 1.01659 0
M  V30 84 C 8.6365 -1.90079 0.706963 0
M  V30 85 C 8.9695 -1.78648 -0.761474 0
M  V30 86 O 8.2445 -1.17069 -1.55323 0
M  V30 87 C 8.5275 -3.41469 1.14327 0
M  V30 88 C 8.3805 -3.61833 2.67201 0
M  V30 89 C 9.6995 -4.34261 0.714529 0
M  V30 90 H 6.8185 -0.690254 0.2583 0
M  V30 91 H 9.4605 -1.41826 1.26433 0
M  V30 92 H 7.6105 -3.82696 0.669056 0
M  V30 93 H 9.2825 -3.2986 3.22475 0
M  V30 94 H 7.5255 -3.05304 3.08175 0
M  V30 95 H 8.1965 -4.67955 2.92783 0
M  V30 96 H 10.6725 -4.00682 1.12221 0
M  V30 97 H 9.5485 -5.38806 1.04784 0
M  V30 98 H 9.8095 -4.40431 -0.383799 0
M  V30 99 N 8.8686 -0.792821 -1.36206 0
M  V30 100 C 10.0966 -0.378825 -2.03402 0
M  V30 101 C 10.5116 1.00586 -1.59774 0
M  V30 102 O 9.8686 1.64574 -0.788764 0
M  V30 103 C 9.9196 -0.43683 -3.58851 0
M  V30 104 O 9.6406 -1.76691 -4.00889 0
M  V30 105 C 11.1416 -0.0138943 -4.43298 0
M  V30 106 H 8.3616 -0.155673 -0.652692 0
M  V30 107 H 10.9056 -1.07261 -1.74113 0
M  V30 108 H 9.0606 0.208575 -3.86838 0
M  V30 109 H 9.4746 -1.72011 -4.95492 0
M  V30 110 H 10.9486 -0.105615 -5.51899 0
M  V30 111 H 11.4256 1.03915 -4.2673 0
M  V30 112 H 12.0316 -0.63192 -4.20579 0
M  V30 113 N 10.3467 1.47872 -0.545128 0
M  V30 114 C 11.5937 2.02493 -0.0165858 0
M  V30 115 C 11.9217 1.42073 1.32836 0
M  V30 116 O 11.1767 0.561459 1.87473 0
M  V30 117 C 11.4757 3.57131 0.13867 0
M  V30 118 C 11.1417 4.36411 -1.13384 0
M  V30 119 C 9.8037 4.57792 -1.48256 0
M  V30 120 C 12.1557 4.82223 -1.97764 0
M  V30 121 C 9.4837 5.22233 -2.67376 0
M  V30 122 C 11.8357 5.47977 -3.16076 0
M  V30 123 C 10.4997 5.67593 -3.51275 0
M  V30 124 H 9.7697 0.740975 -0.00606918 0
M  V30 125 H 12.4167 1.77683 -0.714207 0
M  V30 126 H 10.7217 3.80865 0.919172 0
M  V30 127 H 12.4187 3.97031 0.562782 0
M  V30 128 H 9.0087 4.2004 -0.852297 0
M  V30 129 H 13.1927 4.65493 -1.72132 0
M  V30 130 H 8.4487 5.35616 -2.94831 0
M  V30 131 H 12.6227 5.8244 -3.81755 0
M  V30 132 H 10.2497 6.17298 -4.43675 0
M  V30 133 N 11.8248 0.280983 1.55075 0
M  V30 134 C 12.7548 -0.597469 2.25727 0
M  V30 135 C 13.7358 -1.15417 1.24952 0
M  V30 136 O 14.9208 -1.18722 1.53684 0
M  V30 137 C 12.0508 -1.7789 2.98283 0
M  V30 138 C 11.0048 -1.35347 4.06036 0
M  V30 139 C 10.3308 -2.61846 4.66198 0
M  V30 140 C 11.6308 -0.499354 5.19907 0
M  V30 141 H 13.3248 -0.00824265 2.99399 0
M  V30 142 H 10.8708 -0.0025244 1.44 0
M  V30 143 H 12.8238 -2.39937 3.46422 0
M  V30 144 H 11.5478 -2.39405 2.22155 0
M  V30 145 H 10.2068 -0.756156 3.58717 0
M  V30 146 H 9.8548 -3.21632 3.86732 0
M  V30 147 H 9.5548 -2.3409 5.38958 0
M  V30 148 H 11.0788 -3.24732 5.1709 0
M  V30 149 H 12.4928 -1.02498 5.64063 0
M  V30 150 H 10.8898 -0.316424 5.99265 0
M  V30 151 H 11.9598 0.480459 4.82514 0
M  V30 152 N 13.3029 -1.57598 0.00835791 0
M  V30 153 C 14.5309 -1.95214 -0.68549 0
M  V30 154 C 14.9459 -0.883706 -1.66841 0
M  V30 155 O 14.3029 0.136565 -1.81988 0
M  V30 156 C 14.3539 -3.32865 -1.41007 0
M  V30 157 O 14.0749 -4.35609 -0.466552 0
M  V30 158 C 15.5759 -3.84991 -2.19765 0
M  V30 159 H 12.7959 -0.643422 -0.190392 0
M  V30 160 H 15.3399 -2.04406 0.0619607 0
M  V30 161 H 13.4949 -3.24956 -2.10908 0
M  V30 162 H 13.9089 -5.15288 -0.978699 0
M  V30 163 H 15.3829 -4.8371 -2.65948 0
M  V30 164 H 15.8599 -3.18137 -3.02796 0
M  V30 165 H 16.4659 -3.96103 -1.54864 0
M  V30 166 N 14.781 0.264519 -1.55364 0
M  V30 167 C 15.711 1.33121 -1.91836 0
M  V30 168 C 16.692 1.51101 -0.781192 0
M  V30 169 O 17.877 1.64003 -1.04003 0
M  V30 170 C 15.007 2.68921 -2.19769 0
M  V30 171 C 13.961 2.65661 -3.35571 0
M  V30 172 C 13.287 4.05093 -3.49004 0
M  V30 173 C 14.587 2.24187 -4.71739 0
M  V30 174 H 16.281 1.02844 -2.81182 0
M  V30 175 H 13.827 0.493286 -1.35287 0
M  V30 176 H 15.78 3.43663 -2.43872 0
M  V30 177 H 14.504 3.00799 -1.27231 0
M  V30 178 H 13.163 1.93377 -3.1145 0
M  V30 179 H 12.811 4.34206 -2.53917 0
M  V30 180 H 12.511 4.03804 -4.26868 0
M  V30 181 H 14.035 4.81561 -3.75408 0
M  V30 182 H 15.449 2.88654 -4.9533 0
M  V30 183 H 13.846 2.34044 -5.52579 0
M  V30 184 H 14.916 1.19327 -4.69988 0
M  V30 185 N 16.2591 1.48442 0.529413 0
M  V30 186 C 17.1891 1.65902 1.64313 0
M  V30 187 C 18.1701 0.507897 1.6234 0
M  V30 188 O 19.3551 0.740503 1.79528 0
M  V30 189 C 16.4851 1.69911 3.02898 0
M  V30 190 C 15.4391 2.8453 3.19729 0
M  V30 191 C 14.7651 2.73629 4.59381 0
M  V30 192 C 16.0651 4.25821 3.02447 0
M  V30 193 H 17.7591 2.5914 1.49955 0
M  V30 194 H 15.3051 1.24709 0.719982 0
M  V30 195 H 17.2581 1.80715 3.80684 0
M  V30 196 H 15.9821 0.732524 3.18279 0
M  V30 197 H 14.6411 2.73283 2.44361 0
M  V30 198 H 14.2891 1.74938 4.71599 0
M  V30 199 H 13.9891 3.50541 4.71588 0
M  V30 200 H 15.5131 2.86401 5.39265 0
M  V30 201 H 16.9271 4.37898 3.70024 0
M  V30 202 H 15.3241 5.03735 3.26146 0
M  V30 203 H 16.3941 4.42244 1.98867 0
M  V30 204 N 17.7372 -0.778329 1.37039 0
M  V30 205 C 18.9852 -1.53361 1.31623 0
M  V30 206 C 19.3062 -1.94739 -0.100831 0
M  V30 207 O 18.5762 -1.65797 -1.04347 0
M  V30 208 H 17.1562 -0.568794 0.484234 0
M  V30 209 H 19.8182 -0.926742 1.71457 0
M  V30 210 H 18.9142 -2.43606 1.95096 0
M  V30 211 N 19.2153 -1.21501 -1.00376 0
M  V30 212 C 20.4643 -1.02718 -1.73586 0
M  V30 213 C 20.7773 0.439589 -1.90596 0
M  V30 214 O 21.9833 0.746848 -2.61026 0
M  V30 215 C 20.4393 -1.78929 -3.1227 0
M  V30 216 C 20.0473 -3.29783 -3.03228 0
M  V30 217 C 21.7913 -1.68557 -3.89601 0
M  V30 218 C 19.6983 -3.98479 -4.36999 0
M  V30 219 H 18.6283 -0.380733 -0.650814 0
M  V30 220 H 21.2793 -1.45248 -1.1214 0
M  V30 221 H 19.6613 -1.29192 -3.74333 0
M  V30 222 H 20.8353 -3.86832 -2.50395 0
M  V30 223 H 19.1503 -3.40711 -2.39385 0
M  V30 224 H 21.7473 -2.17211 -4.88593 0
M  V30 225 H 22.0903 -0.644021 -4.11288 0
M  V30 226 H 22.6233 -2.15778 -3.34193 0
M  V30 227 H 19.3623 -5.02841 -4.20513 0
M  V30 228 H 18.8823 -3.46219 -4.89788 0
M  V30 229 H 20.5613 -4.03462 -5.05794 0
M  V30 230 N 20.6934 1.19889 -1.02296 0
M  V30 231 C 21.9414 1.89046 -0.714558 0
M  V30 232 C 22.2624 1.79636 0.758681 0
M  V30 233 O 21.5324 1.20292 1.54618 0
M  V30 234 H 20.1124 0.699802 -0.261317 0
M  V30 235 H 22.7744 1.45574 -1.29592 0
M  V30 236 H 21.8704 2.95524 -1.0036 0
M  V30 237 N 22.1715 0.800033 1.35784 0
M  V30 238 C 23.4115 0.382891 2.00782 0
M  V30 239 C 23.7755 -1.02891 1.62103 0
M  V30 240 O 24.9765 -1.54771 2.19771 0
M  V30 241 C 23.2475 0.553299 3.53091 0
M  V30 242 S 24.8065 0.225608 4.3822 0
M  V30 243 H 21.6245 0.145737 0.695904 0
M  V30 244 H 24.2265 1.04085 1.65489 0
M  V30 245 H 22.9305 1.58091 3.78729 0
M  V30 246 H 22.4615 -0.120214 3.93216 0
M  V30 247 H 24.4765 -0.969074 4.86645 0
M  V30 248 N 23.6496 -1.47581 0.552962 0
M  V30 249 C 24.8956 -2.02782 0.0273648 0
M  V30 250 C 25.2286 -1.42687 -1.31734 0
M  V30 251 O 24.5036 -0.580897 -1.85623 0
M  V30 252 C 24.7866 -3.60031 -0.0702371 0
M  V30 253 C 24.6396 -4.30566 1.30126 0
M  V30 254 C 25.9586 -4.33028 -0.785771 0
M  V30 255 H 23.0776 -0.736912 0.0114185 0
M  V30 256 H 25.7196 -1.76056 0.714432 0
M  V30 257 H 23.8696 -3.82932 -0.655382 0
M  V30 258 H 25.5416 -4.19018 1.92929 0
M  V30 259 H 23.7846 -3.91086 1.87709 0
M  V30 260 H 24.4556 -5.39114 1.18573 0
M  V30 261 H 26.9316 -4.15095 -0.288982 0
M  V30 262 H 25.8076 -5.42695 -0.823013 0
M  V30 263 H 26.0686 -4.01945 -1.841 0
M  V30 264 N 25.1277 -0.289203 -1.54924 0
M  V30 265 C 26.0577 0.58549 -2.2604 0
M  V30 266 C 27.0387 1.14753 -1.25562 0
M  V30 267 O 28.2237 1.17906 -1.54311 0
M  V30 268 C 25.3537 1.76305 -2.99222 0
M  V30 269 C 24.3077 1.33191 -4.06748 0
M  V30 270 C 23.6337 2.5937 -4.6758 0
M  V30 271 C 24.9337 0.471775 -5.20165 0
M  V30 272 H 26.6277 -0.00763532 -2.99399 0
M  V30 273 H 24.1737 -0.00511229 -1.43999 0
M  V30 274 H 26.1267 2.38097 -3.47689 0
M  V30 275 H 24.8507 2.38223 -2.23422 0
M  V30 276 H 23.5097 0.737121 -3.59113 0
M  V30 277 H 23.1577 3.19576 -3.88433 0
M  V30 278 H 22.8577 2.31228 -5.40192 0
M  V30 279 H 24.3817 3.21985 -5.18804 0
M  V30 280 H 25.7957 0.995056 -5.64599 0
M  V30 281 H 24.1927 0.284639 -5.99425 0
M  V30 282 H 25.2627 -0.506041 -4.82252 0
M  V30 283 N 26.6058 1.57591 -0.0167156 0
M  V30 284 C 27.8308 1.9598 0.67872 0
M  V30 285 C 28.2558 0.892546 1.65575 0
M  V30 286 O 27.6138 -0.147772 1.80697 0
M  V30 287 C 27.6618 3.33468 1.37227 0
M  V30 288 O 26.7658 3.28954 2.48722 0
M  V30 289 H 26.1068 0.639339 0.17928 0
M  V30 290 H 28.6368 2.04463 -0.0748802 0
M  V30 291 H 28.6468 3.69417 1.7319 0
M  V30 292 H 27.3218 4.10694 0.656007 0
M  V30 293 H 25.8988 3.04705 2.14963 0
M  V30 294 N 28.0839 -0.256276 1.55502 0
M  V30 295 C 29.3239 -0.993081 1.78654 0
M  V30 296 C 29.6879 -1.8288 0.584724 0
M  V30 297 O 30.8889 -2.59665 0.694822 0
M  V30 298 C 29.1599 -1.83856 3.06483 0
M  V30 299 S 30.7189 -2.63573 3.5082 0
M  V30 300 H 27.5369 -0.334199 0.62756 0
M  V30 301 H 30.1389 -0.26184 1.93739 0
M  V30 302 H 28.8429 -1.21414 3.92029 0
M  V30 303 H 28.3739 -2.61271 2.94111 0
M  V30 304 H 30.3889 -3.86312 3.11412 0
M  V30 305 N 29.562 -1.4872 -0.521534 0
M  V30 306 C 30.802 -1.58771 -1.28729 0
M  V30 307 C 31.166 -0.259394 -1.9024 0
M  V30 308 O 32.367 -0.234942 -2.67771 0
M  V30 309 C 30.638 -2.70039 -2.34124 0
M  V30 310 S 32.197 -2.9991 -3.20312 0
M  V30 311 H 29.015 -0.560251 -0.437767 0
M  V30 312 H 31.617 -1.86283 -0.593188 0
M  V30 313 H 30.321 -3.65101 -1.87429 0
M  V30 314 H 29.852 -2.44455 -3.08229 0
M  V30 315 H 31.867 -2.39855 -4.34378 0
M  V30 316 N 31.0401 0.771051 -1.3745 0
M  V30 317 C 32.2681 1.56015 -1.35893 0
M  V30 318 C 32.6831 1.88718 0.0555523 0
M  V30 319 O 32.0401 1.51502 1.01752 0
M  V30 320 C 32.0911 2.87001 -2.19801 0
M  V30 321 O 31.8121 2.557 -3.55738 0
M  V30 322 C 33.3131 3.81228 -2.26231 0
M  V30 323 H 30.5331 0.483317 -0.465453 0
M  V30 324 H 33.0771 0.955611 -1.80799 0
M  V30 325 H 31.2321 3.43877 -1.78402 0
M  V30 326 H 31.6461 3.39584 -3.99729 0
M  V30 327 H 33.1201 4.70139 -2.89263 0
M  V30 328 H 33.5971 4.20409 -1.27093 0
M  V30 329 H 34.2031 3.30281 -2.67945 0
M  V30 330 N 32.5182 1.22032 0.997298 0
M  V30 331 C 33.7672 1.03637 1.73038 0
M  V30 332 C 34.0802 -0.429475 1.90827 0
M  V30 333 O 35.2862 -0.732995 2.61418 0
M  V30 334 C 33.7422 1.80582 3.11317 0
M  V30 335 C 33.3502 3.31387 3.01474 0
M  V30 336 C 35.0942 1.70621 3.88701 0
M  V30 337 C 33.0012 4.00791 4.3488 0
M  V30 338 H 31.9312 0.384179 0.648785 0
M  V30 339 H 34.5822 1.4584 1.11368 0
M  V30 340 H 32.9642 1.31175 3.73643 0
M  V30 341 H 34.1382 3.88155 2.4834 0
M  V30 342 H 32.4532 3.41976 2.37575 0
M  V30 343 H 35.0502 2.19799 4.87434 0
M  V30 344 H 35.3932 0.665823 4.10941 0
M  V30 345 H 35.9262 2.17547 3.33044 0
M  V30 346 H 32.6652 5.05064 4.1784 0
M  V30 347 H 32.1852 3.48811 4.87945 0
M  V30 348 H 33.8642 4.06139 5.03647 0
M  V30 349 N 33.9963 -1.19345 1.0293 0
M  V30 350 C 35.4073 -1.70725 0.755633 0
M  V30 351 C 35.7583 -1.82326 -0.724676 0
M  V30 352 O 34.8833 -1.49471 -1.56484 0
M  V30 353 C 35.4783 -3.10084 1.36503 0
M  V30 354 C 34.0373 -3.58723 1.13994 0
M  V30 355 C 33.1843 -2.35577 1.46283 0
M  V30 356 H 36.1353 -1.0418 1.19718 0
M  V30 357 H 36.1563 -3.72787 0.762217 0
M  V30 358 H 35.6683 -3.01609 2.44241 0
M  V30 359 H 33.7693 -3.72512 0.0807901 0
M  V30 360 H 33.8823 -4.42816 1.82894 0
M  V30 361 H 32.2463 -2.38935 0.88217 0
M  V30 362 H 33.0293 -2.29731 2.55105 0
M  V30 363 N 35.4744 -0.807222 -1.35358 0
M  V30 364 C 36.6994 -0.399309 -2.0352 0
M  V30 365 C 37.1244 0.981986 -1.60433 0
M  V30 366 O 36.4824 1.63601 -0.781299 0
M  V30 367 C 36.5304 -0.491552 -3.57234 0
M  V30 368 O 35.6344 0.494754 -4.09421 0
M  V30 369 H 34.9754 -0.166682 -0.642739 0
M  V30 370 H 37.5054 -1.09328 -1.72941 0
M  V30 371 H 37.5154 -0.361588 -4.06395 0
M  V30 372 H 36.1904 -1.49907 -3.87944 0
M  V30 373 H 34.7674 0.324977 -3.71481 0
M  V30 374 N 36.9525 1.47285 -0.560781 0
M  V30 375 C 38.3685 1.58065 -0.22081 0
M  V30 376 C 38.5685 1.55892 1.27671 0
M  V30 377 O 37.6245 1.46422 2.0571 0
M  V30 378 C 38.9375 2.88418 -0.850625 0
M  V30 379 C 40.4855 3.02009 -0.822184 0
M  V30 380 C 40.9605 4.35066 -1.43113 0
M  V30 381 N 42.4515 4.41711 -1.39448 0
M  V30 382 C 43.1865 5.43237 -1.83525 0
M  V30 383 N 42.6825 6.51555 -2.35474 0
M  V30 384 N 44.4755 5.34304 -1.74574 0
M  V30 385 H 36.6265 1.46941 -1.53369 0
M  V30 386 H 38.8895 0.699558 -0.639783 0
M  V30 387 H 38.5955 2.95755 -1.9032 0
M  V30 388 H 38.4695 3.75612 -0.345773 0
M  V30 389 H 40.8565 2.94266 0.221714 0
M  V30 390 H 40.9375 2.16347 -1.36483 0
M  V30 391 H 40.5815 4.43565 -2.47412 0
M  V30 392 H 40.5115 5.19465 -0.863899 0
M  V30 393 H 43.0025 3.64027 -1.01452 0
M  V30 394 H 43.3155 7.25203 -2.67021 0
M  V30 395 H 41.6605 6.52435 -2.39487 0
M  V30 396 H 44.8515 4.48581 -1.33763 0
M  V30 397 H 45.0245 6.13288 -2.09242 0
M  V30 398 N 38.4306 0.297415 1.54768 0
M  V30 399 C 39.8416 -0.195947 1.85669 0
M  V30 400 C 40.1926 -1.53707 1.21937 0
M  V30 401 O 39.3176 -2.10164 0.515754 0
M  V30 402 C 39.9126 -0.362318 3.36857 0
M  V30 403 C 38.4716 -0.799901 3.67802 0
M  V30 404 C 37.6186 0.0938578 2.77141 0
M  V30 405 H 40.5696 0.518538 1.4999 0
M  V30 406 H 40.5906 -1.19745 3.61167 0
M  V30 407 H 40.1026 0.613921 3.83214 0
M  V30 408 H 38.2036 -1.78682 3.26961 0
M  V30 409 H 38.3166 -0.621773 4.75048 0
M  V30 410 H 36.6806 -0.426254 2.51108 0
M  V30 411 H 37.4636 1.06639 3.26318 0
M  V30 412 N 39.9087 -1.5758 0.0250728 0
M  V30 413 C 41.1577 -1.90811 -0.653767 0
M  V30 414 C 41.4707 -0.90273 -1.73523 0
M  V30 415 O 42.6767 -1.12614 -2.47043 0
M  V30 416 C 41.1327 -3.38804 -1.21409 0
M  V30 417 C 40.7407 -4.47692 -0.166126 0
M  V30 418 C 42.4847 -3.81108 -1.86967 0
M  V30 419 C 40.3917 -5.86779 -0.737856 0
M  V30 420 H 39.3217 -0.712063 -0.247956 0
M  V30 421 H 41.9727 -1.83281 0.0897137 0
M  V30 422 H 40.3547 -3.41252 -2.00905 0
M  V30 423 H 41.5287 -4.56797 0.606079 0
M  V30 424 H 39.8437 -4.14565 0.390466 0
M  V30 425 H 42.4407 -4.82375 -2.30692 0
M  V30 426 H 42.7837 -3.15953 -2.71071 0
M  V30 427 H 43.3167 -3.81065 -1.14167 0
M  V30 428 H 40.0557 -6.55468 0.0649577 0
M  V30 429 H 39.5757 -5.81288 -1.47864 0
M  V30 430 H 41.2547 -6.35223 -1.22884 0
M  V30 431 N 41.3868 0.248026 -1.55636 0
M  V30 432 C 42.3348 1.32683 -1.91045 0
M  V30 433 C 43.3288 1.49883 -0.789401 0
M  V30 434 O 44.5348 1.51371 -0.974007 0
M  V30 435 H 40.9098 0.444272 -0.606734 0
M  V30 436 H 42.8808 1.00085 -2.81115 0
M  V30 437 C 41.6298 2.6755 -2.22064 0
M  V30 438 H 40.9528 2.55114 -3.07826 0
M  V30 439 H 42.3928 3.41912 -2.50743 0
M  V30 440 C 40.8518 3.20556 -1.0366 0
M  V30 441 O 41.3818 4.00695 -0.284016 0
M  V30 442 N 39.5878 2.78568 -0.82753 0
M  V30 443 H 39.1348 2.1351 -1.44123 0
M  V30 444 H 39.0928 3.14378 -0.0369803 0
M  V30 445 N 42.8649 1.48995 0.513639 0
M  V30 446 C 43.7979 1.59319 1.63379 0
M  V30 447 C 44.7759 0.442816 1.56454 0
M  V30 448 O 45.9599 0.656655 1.76693 0
M  V30 449 C 43.0869 1.5364 3.01848 0
M  V30 450 C 42.1329 2.7372 3.27078 0
M  V30 451 S 42.9659 4.35528 3.1157 0
M  V30 452 C 44.1219 4.32473 4.52458 0
M  V30 453 H 44.3549 2.54079 1.54374 0
M  V30 454 H 41.8879 1.3773 0.697849 0
M  V30 455 H 43.8459 1.51049 3.81699 0
M  V30 456 H 42.5069 0.601898 3.08279 0
M  V30 457 H 41.6999 2.6593 4.28132 0
M  V30 458 H 41.3019 2.73657 2.54927 0
M  V30 459 H 43.5939 4.03414 5.44301 0
M  V30 460 H 44.5369 5.33762 4.65299 0
M  V30 461 H 44.9449 3.62718 4.32546 0
M  V30 462 N 44.343 -0.763751 1.37857 0
M  V30 463 C 45.29 -1.87726 1.34267 0
M  V30 464 C 46.26 -1.64807 0.206879 0
M  V30 465 O 47.445 -1.86613 0.397508 0
M  V30 466 C 44.585 -3.24896 1.16346 0
M  V30 467 C 43.698 -3.59716 2.39225 0
M  V30 468 C 42.833 -4.86137 2.14114 0
M  V30 469 C 41.872 -5.13711 3.32817 0
M  V30 470 N 41.009 -6.31323 3.07206 0
M  V30 471 H 45.849 -1.90129 2.29466 0
M  V30 472 H 43.386 -0.929433 1.14017 0
M  V30 473 H 45.344 -4.04036 1.03975 0
M  V30 474 H 43.974 -3.21847 0.247909 0
M  V30 475 H 43.026 -2.75498 2.62307 0
M  V30 476 H 44.338 -3.76027 3.27728 0
M  V30 477 H 43.492 -5.73198 1.9882 0
M  V30 478 H 42.231 -4.71945 1.22961 0
M  V30 479 H 41.236 -4.25123 3.48641 0
M  V30 480 H 42.461 -5.29807 4.24832 0
M  V30 481 H 40.407 -6.18474 2.1869 0
M  V30 482 H 40.324 -6.48087 3.89254 0
M  V30 483 H 41.592 -7.213 2.95546 0
M  V30 484 N 45.8211 -1.22559 -0.990812 0
M  V30 485 C 47.0681 -1.05141 -1.73065 0
M  V30 486 C 47.3961 0.413191 -1.9006 0
M  V30 487 O 46.6511 1.32257 -1.44245 0
M  V30 488 C 46.9501 -1.71011 -3.13831 0
M  V30 489 C 46.6161 -3.20911 -3.16745 0
M  V30 490 C 45.2781 -3.61812 -3.17247 0
M  V30 491 C 47.6301 -4.16846 -3.12872 0
M  V30 492 C 44.9581 -4.97127 -3.1158 0
M  V30 493 C 47.3101 -5.5214 -3.08746 0
M  V30 494 C 45.9741 -5.92419 -3.07565 0
M  V30 495 H 45.2441 -0.384738 -0.633291 0
M  V30 496 H 47.8911 -1.5235 -1.16025 0
M  V30 497 H 46.1961 -1.16133 -3.74193 0
M  V30 498 H 47.8931 -1.55023 -3.69823 0
M  V30 499 H 44.4831 -2.88344 -3.17105 0
M  V30 500 H 48.6671 -3.86263 -3.11632 0
M  V30 501 H 43.9231 -5.27562 -3.09012 0
M  V30 502 H 48.0971 -6.26201 -3.04705 0
M  V30 503 H 45.7241 -6.97236 -3.02929 0
M  V30 504 N 47.2992 1.18797 -1.03562 0
M  V30 505 C 48.2462 2.22253 -0.622259 0
M  V30 506 C 49.2162 1.61987 0.36736 0
M  V30 507 O 50.4012 1.88986 0.262492 0
M  V30 508 C 47.5412 3.45097 0.0138462 0
M  V30 509 C 46.6542 4.19722 -1.02263 0
M  V30 510 C 45.7892 5.30009 -0.355573 0
M  V30 511 C 44.8282 5.96399 -1.37749 0
M  V30 512 N 43.9652 6.98234 -0.735766 0
M  V30 513 H 48.8052 2.56968 -1.50903 0
M  V30 514 H 46.3422 1.26245 -0.755017 0
M  V30 515 H 48.3002 4.15279 0.399948 0
M  V30 516 H 46.9302 3.11018 0.864158 0
M  V30 517 H 45.9822 3.48418 -1.52673 0
M  V30 518 H 47.2942 4.65227 -1.79903 0
M  V30 519 H 46.4482 6.0664 0.0850095 0
M  V30 520 H 45.1872 4.85592 0.452967 0
M  V30 521 H 44.1922 5.18512 -1.82826 0
M  V30 522 H 45.4172 6.42899 -2.18764 0
M  V30 523 H 43.3632 6.55979 0.0525597 0
M  V30 524 H 43.2802 7.41965 -1.44995 0
M  V30 525 H 44.5482 7.78845 -0.31941 0
M  V30 526 N 48.7773 0.814389 1.34928 0
M  V30 527 C 49.7253 0.218424 2.31572 0
M  V30 528 C 50.7193 -0.636128 1.57002 0
M  V30 529 O 51.9253 -0.52842 1.72069 0
M  V30 530 H 48.3003 0.0518799 0.750208 0
M  V30 531 H 50.2713 1.04852 2.79372 0
M  V30 532 C 49.0203 -0.61207 3.4227 0
M  V30 533 H 48.3433 0.0361578 3.99784 0
M  V30 534 H 49.7833 -0.995317 4.12152 0
M  V30 535 C 48.2423 -1.78087 2.85984 0
M  V30 536 O 48.7723 -2.8787 2.80168 0
M  V30 537 N 46.9783 -1.59488 2.42924 0
M  V30 538 H 46.5253 -0.701874 2.47854 0
M  V30 539 H 46.4833 -2.37846 2.05613 0
M  V30 540 N 50.2554 -1.46986 0.568584 0
M  V30 541 C 51.4804 -2.07335 0.0520528 0
M  V30 542 C 51.9054 -1.41675 -1.23733 0
M  V30 543 O 51.2634 -0.495623 -1.74394 0
M  V30 544 C 51.3114 -3.60417 -0.11501 0
M  V30 545 O 50.4154 -3.95309 -1.17492 0
M  V30 546 H 49.7564 -0.661597 0.0564385 0
M  V30 547 H 52.2864 -1.88837 0.787507 0
M  V30 548 H 52.2964 -4.06698 -0.325644 0
M  V30 549 H 50.9714 -4.07601 0.826675 0
M  V30 550 H 49.5484 -3.60757 -0.943869 0
M  V30 551 N 51.7335 -0.305618 -1.54608 0
M  V30 552 C 52.9795 0.302746 -2.00528 0
M  V30 553 C 53.3125 1.53184 -1.19367 0
M  V30 554 O 52.5875 1.92598 -0.271321 0
M  V30 555 C 52.8705 0.654756 -3.54097 0
M  V30 556 C 52.7235 -0.583793 -4.45995 0
M  V30 557 C 54.0425 1.47947 -4.14487 0
M  V30 558 H 51.1615 0.108564 -0.72896 0
M  V30 559 H 53.8035 -0.418634 -1.85331 0
M  V30 560 H 51.9535 1.26935 -3.67178 0
M  V30 561 H 53.6255 -1.22224 -4.44814 0
M  V30 562 H 51.8685 -1.21615 -4.16404 0
M  V30 563 H 52.5395 -0.293287 -5.5122 0
M  V30 564 H 55.0155 0.96013 -4.04871 0
M  V30 565 H 53.8915 1.69454 -5.22088 0
M  V30 566 H 54.1525 2.47011 -3.66658 0
M  V30 567 N 53.2116 1.57565 -0.0334293 0
M  V30 568 C 54.1216 2.13943 0.962572 0
M  V30 569 C 55.1376 1.09276 1.35406 0
M  V30 570 O 56.3136 1.41355 1.4346 0
M  V30 571 C 53.3786 2.65887 2.22497 0
M  V30 572 C 52.4396 3.85286 1.8935 0
M  V30 573 C 51.6726 4.34743 3.09571 0
M  V30 574 O 51.8956 3.83352 4.22371 0
M  V30 575 O 50.8296 5.26538 2.91618 0
M  V30 576 H 54.6556 2.99333 0.513169 0
M  V30 577 H 52.2406 1.4822 0.18743 0
M  V30 578 H 54.1226 2.99346 2.96598 0
M  V30 579 H 52.7976 1.83578 2.6661 0
M  V30 580 H 51.7046 3.56746 1.1262 0
M  V30 581 H 53.0376 4.68771 1.5005 0
M  V30 582 N 54.6897 -0.239769 1.55765 0
M  V30 583 C 55.9177 -0.98417 1.81994 0
M  V30 584 C 56.3327 -1.7867 0.610124 0
M  V30 585 O 55.6897 -1.77571 -0.421271 0
M  V30 586 C 55.7407 -1.91635 3.06526 0
M  V30 587 O 55.4617 -1.14629 4.22838 0
M  V30 588 C 56.9627 -2.77616 3.45607 0
M  V30 589 H 54.1827 -0.28928 0.605441 0
M  V30 590 H 56.7267 -0.260499 2.02834 0
M  V30 591 H 54.8817 -2.5942 2.87715 0
M  V30 592 H 55.2957 -1.77745 4.93464 0
M  V30 593 H 56.7697 -3.38759 4.35828 0
M  V30 594 H 57.2467 -3.4909 2.6652 0
M  V30 595 H 57.8527 -2.15271 3.66795 0
M  V30 596 N 56.1678 -1.49265 -0.50573 0
M  V30 597 C 57.4448 -1.49012 -1.26707 0
M  V30 598 C 57.8248 -0.215205 -2.1 0
M  V30 599 O 57.1728 0.802547 -2.13943 0
M  V30 600 C 57.3828 -2.7663 -2.12783 0
M  V30 601 C 58.7308 -3.25932 -2.72127 0
M  V30 602 O 59.7548 -2.77715 -2.23054 0
M  V30 603 O 58.6138 -4.09897 -3.61451 0
M  V30 604 H 55.7078 -0.596197 -0.57313 0
M  V30 605 H 58.2538 -1.61524 -0.52039 0
M  V30 606 H 57.0258 -3.60916 -1.5118 0
M  V30 607 H 56.6488 -2.66956 -2.94653 0
M  V30 608 N 57.6459 0.756429 -1.3826 0
M  V30 609 C 58.6089 1.85176 -1.35065 0
M  V30 610 C 59.6089 1.58818 -0.251703 0
M  V30 611 O 60.7989 1.66615 -0.508433 0
M  V30 612 C 57.9309 3.22596 -1.10201 0
M  V30 613 H 59.1239 1.89417 -2.3251 0
M  V30 614 H 56.6769 0.95783 -1.23512 0
M  V30 615 H 57.4119 3.24025 -0.133504 0
M  V30 616 H 57.1969 3.43122 -1.89762 0
M  V30 617 H 58.6869 4.02673 -1.10654 0
M  V30 618 N 59.124 1.23083 0.984299 0
M  V30 619 C 60.072 1.00593 2.09723 0
M  V30 620 C 61.066 -0.0538014 1.69315 0
M  V30 621 O 62.272 0.0993719 1.79725 0
M  V30 622 H 58.647 0.30817 0.685956 0
M  V30 623 H 60.618 1.95012 2.2586 0
M  V30 624 C 59.367 0.609601 3.42314 0
M  V30 625 H 58.69 1.41675 3.73856 0
M  V30 626 H 60.13 0.491726 4.21139 0
M  V30 627 C 58.589 -0.681745 3.2993 0
M  V30 628 O 59.119 -1.73192 3.62446 0
M  V30 629 N 57.325 -0.656178 2.83095 0
M  V30 630 H 56.872 0.198759 2.56832 0
M  V30 631 H 56.83 -1.52044 2.75191 0
M  V30 632 N 60.6021 -1.18246 1.0419 0
M  V30 633 C 61.5651 -2.20128 0.638452 0
M  V30 634 C 62.5651 -1.57885 -0.304805 0
M  V30 635 O 63.7551 -1.73967 -0.0900369 0
M  V30 636 C 60.8871 -3.4084 -0.0637751 0
M  V30 637 H 62.0801 -2.57336 1.54007 0
M  V30 638 H 59.6331 -1.32152 0.834598 0
M  V30 639 H 60.3681 -3.09166 -0.979136 0
M  V30 640 H 60.1531 -3.8726 0.614198 0
M  V30 641 H 61.6431 -4.16274 -0.332512 0
M  V30 642 N 62.0802 -0.821533 -1.34494 0
M  V30 643 C 63.0282 -0.230702 -2.31453 0
M  V30 644 C 64.0222 0.627793 -1.57338 0
M  V30 645 O 65.2282 0.519288 -1.72347 0
M  V30 646 H 61.6032 -0.0558577 -0.749923 0
M  V30 647 H 63.5742 -1.06332 -2.78812 0
M  V30 648 C 62.3232 0.59391 -3.4259 0
M  V30 649 H 61.6462 -0.0573588 -3.99759 0
M  V30 650 H 63.0862 0.973446 -4.12674 0
M  V30 651 C 61.5452 1.76568 -2.86924 0
M  V30 652 O 62.0752 2.8638 -2.81691 0
M  V30 653 N 60.2812 1.58198 -2.43766 0
M  V30 654 H 59.8282 0.68872 -2.48222 0
M  V30 655 H 59.7862 2.36752 -2.06871 0
M  V30 656 N 63.5583 1.46682 -0.576371 0
M  V30 657 C 64.7883 2.06498 -0.0648694 0
M  V30 658 C 65.1963 1.42665 1.24271 0
M  V30 659 O 64.5393 0.523886 1.76071 0
M  V30 660 C 64.6013 3.5904 0.181816 0
M  V30 661 C 64.2653 4.45028 -1.0392 0
M  V30 662 C 65.2623 4.81959 -1.94966 0
M  V30 663 C 62.9473 4.86259 -1.25927 0
M  V30 664 C 64.9413 5.58942 -3.06371 0
M  V30 665 C 62.6283 5.63002 -2.37638 0
M  V30 666 C 63.6263 5.99257 -3.2769 0
M  V30 667 O 63.3143 6.7445 -4.37461 0
M  V30 668 H 63.0463 0.674028 -0.0515987 0
M  V30 669 H 65.6003 1.89393 -0.794951 0
M  V30 670 H 63.8303 3.74429 0.966436 0
M  V30 671 H 65.5193 4.00806 0.641047 0
M  V30 672 H 66.2853 4.50689 -1.79177 0
M  V30 673 H 62.1643 4.57494 -0.567448 0
M  V30 674 H 65.7083 5.87158 -3.76684 0
M  V30 675 H 61.6053 5.93686 -2.53392 0
M  V30 676 H 62.3733 6.92867 -4.35749 0
M  V30 677 N 65.0364 0.313813 1.54444 0
M  V30 678 C 65.9844 -0.572171 2.25453 0
M  V30 679 C 66.9784 -1.12657 1.2651 0
M  V30 680 O 68.1844 -1.07573 1.44319 0
M  V30 681 H 64.5594 -0.203146 0.724041 0
M  V30 682 H 66.5304 0.0491145 2.9836 0
M  V30 683 C 65.2794 -1.72626 3.0182 0
M  V30 684 H 64.6024 -1.30891 3.77767 0
M  V30 685 H 66.0424 -2.32199 3.54767 0
M  V30 686 C 64.5014 -2.63806 2.09542 0
M  V30 687 O 65.0314 -3.65256 1.67185 0
M  V30 688 N 63.2374 -2.31824 1.75232 0
M  V30 689 H 62.7844 -1.49368 2.09873 0
M  V30 690 H 62.7424 -2.93095 1.13767 0
M  V30 691 N 66.5145 -1.57545 0.0417849 0
M  V30 692 C 67.7635 -1.91494 -0.633492 0
M  V30 693 C 68.0765 -0.921084 -1.72556 0
M  V30 694 O 69.2825 -1.15228 -2.45835 0
M  V30 695 C 67.7385 -3.40072 -1.17808 0
M  V30 696 C 67.3465 -4.47843 -0.118633 0
M  V30 697 C 69.0905 -3.8307 -1.82915 0
M  V30 698 C 66.9975 -5.87529 -0.675578 0
M  V30 699 H 65.9275 -0.714653 -0.24039 0
M  V30 700 H 68.5785 -1.83175 0.109148 0
M  V30 701 H 66.9605 -3.43364 -1.97274 0
M  V30 702 H 68.1345 -4.56128 0.654494 0
M  V30 703 H 66.4495 -4.14128 0.434414 0
M  V30 704 H 69.0465 -4.84794 -2.25563 0
M  V30 705 H 69.3895 -3.1881 -2.67705 0
M  V30 706 H 69.9225 -3.82255 -1.10119 0
M  V30 707 H 66.6615 -6.55362 0.134475 0
M  V30 708 H 66.1815 -5.82824 -1.4169 0
M  V30 709 H 67.8605 -6.36491 -1.1614 0
M  V30 710 N 67.9926 0.231505 -1.5589 0
M  V30 711 C 69.2406 0.955461 -1.78088 0
M  V30 712 C 69.5616 1.85262 -0.608533 0
M  V30 713 O 68.8316 1.92277 0.375035 0
M  V30 714 H 67.4116 0.355787 -0.656829 0
M  V30 715 H 70.0736 0.245751 -1.93344 0
M  V30 716 H 69.1696 1.56814 -2.69844 0
M  V30 717 N 69.4707 1.49531 0.497807 0
M  V30 718 C 70.7477 1.49682 1.25915 0
M  V30 719 C 71.1277 0.226339 2.09883 0
M  V30 720 O 70.4757 -0.791189 2.14365 0
M  V30 721 C 70.6857 2.77755 2.11313 0
M  V30 722 C 72.0337 3.27371 2.70395 0
M  V30 723 O 73.0577 2.78894 2.21578 0
M  V30 724 O 71.9167 4.11808 3.59272 0
M  V30 725 H 69.0107 0.599228 0.56996 0
M  V30 726 H 71.5567 1.61798 0.511816 0
M  V30 727 H 70.3287 3.61713 1.49264 0
M  V30 728 H 69.9517 2.68515 2.93233 0
M  V30 729 N 70.9488 -0.749086 1.3866 0
M  V30 730 C 72.1768 -1.53834 1.38358 0
M  V30 731 C 72.5918 -1.88783 -0.0255219 0
M  V30 732 O 71.9488 -1.53101 -0.993292 0
M  V30 733 C 71.9998 -2.83468 2.2434 0
M  V30 734 O 71.7208 -2.50008 3.5976 0
M  V30 735 C 73.2218 -3.7758 2.32267 0
M  V30 736 H 70.4418 -0.47585 0.473083 0
M  V30 737 H 72.9858 -0.926726 1.82297 0
M  V30 738 H 71.1408 -3.40995 1.83851 0
M  V30 739 H 71.5548 -3.33182 4.05081 0
M  V30 740 H 73.0288 -4.65478 2.96706 0
M  V30 741 H 73.5058 -4.18334 1.33765 0
M  V30 742 H 74.1118 -3.25976 2.73166 0
M  V30 743 N 72.4269 -1.23603 -0.977757 0
M  V30 744 C 73.6759 -1.06377 -1.71368 0
M  V30 745 C 73.9889 0.399062 -1.91486 0
M  V30 746 O 75.1949 0.691312 -2.62551 0
M  V30 747 C 73.6509 -1.85512 -3.08404 0
M  V30 748 C 73.2589 -3.36141 -2.96164 0
M  V30 749 C 75.0029 -1.76783 -3.85938 0
M  V30 750 C 72.9099 -4.07659 -4.28449 0
M  V30 751 H 71.8399 -0.394452 -0.642591 0
M  V30 752 H 74.4909 -1.47594 -1.09034 0
M  V30 753 H 72.8729 -1.37103 -3.71509 0
M  V30 754 H 74.0469 -3.92056 -2.42133 0
M  V30 755 H 72.3619 -3.45712 -2.32104 0
M  V30 756 H 74.9589 -2.27526 -4.83876 0
M  V30 757 H 75.3019 -0.731116 -4.0983 0
M  V30 758 H 75.8349 -2.22818 -3.2954 0
M  V30 759 H 72.5739 -5.11648 -4.09752 0
M  V30 760 H 72.0939 -3.5653 -4.82334 0
M  V30 761 H 73.7729 -4.141 -4.97122 0
M  V30 762 N 73.905 1.17692 -1.04816 0
M  V30 763 C 74.815 2.25229 -0.65643 0
M  V30 764 C 75.831 1.71018 0.320761 0
M  V30 765 O 77.007 2.00649 0.173805 0
M  V30 766 C 74.072 3.46684 -0.0332629 0
M  V30 767 C 73.133 4.15997 -1.06042 0
M  V30 768 C 72.366 5.31654 -0.466893 0
M  V30 769 O 72.589 5.65777 0.724758 0
M  V30 770 O 71.523 5.89831 -1.1993 0
M  V30 771 H 75.349 2.61016 -1.55255 0
M  V30 772 H 72.934 1.24919 -0.81949 0
M  V30 773 H 74.816 4.20234 0.313256 0
M  V30 774 H 73.491 3.12703 0.836566 0
M  V30 775 H 72.398 3.44482 -1.45886 0
M  V30 776 H 73.731 4.53996 -1.90127 0
M  V30 777 N 75.3831 0.828654 1.34056 0
M  V30 778 C 76.6131 0.431993 2.02033 0
M  V30 779 C 77.0211 -0.96844 1.62536 0
M  V30 780 O 76.3641 -1.6391 0.829408 0
M  V30 781 C 76.4261 0.461224 3.56529 0
M  V30 782 C 76.0901 1.81599 4.1937 0
M  V30 783 C 77.0871 2.7777 4.39477 0
M  V30 784 C 74.7721 2.10604 4.56017 0
M  V30 785 C 76.7661 4.01115 4.95364 0
M  V30 786 C 74.4531 3.34207 5.11614 0
M  V30 787 C 75.4511 4.2928 5.31232 0
M  V30 788 O 75.1391 5.50699 5.8565 0
M  V30 789 H 74.8711 0.170943 0.654029 0
M  V30 790 H 77.4251 1.11988 1.72185 0
M  V30 791 H 75.6551 -0.283388 3.8566 0
M  V30 792 H 77.3441 0.0838149 4.05813 0
M  V30 793 H 78.1101 2.56659 4.11523 0
M  V30 794 H 73.9891 1.37402 4.40047 0
M  V30 795 H 77.5331 4.75333 5.10592 0
M  V30 796 H 73.4301 3.55179 5.38997 0
M  V30 797 H 74.1981 5.52298 6.04077 0
M  V30 798 N 76.8612 -1.46375 0.584142 0
M  V30 799 C 77.7912 -2.33103 -0.136037 0
M  V30 800 C 78.7722 -1.45431 -0.882255 0
M  V30 801 O 79.9572 -1.74246 -0.857434 0
M  V30 802 C 77.0872 -3.27731 -1.14933 0
M  V30 803 C 76.0412 -4.24855 -0.517862 0
M  V30 804 C 75.3672 -5.09001 -1.63773 0
M  V30 805 C 76.6672 -5.19439 0.545886 0
M  V30 806 H 78.3612 -2.93568 0.588086 0
M  V30 807 H 75.9072 -1.41166 0.284259 0
M  V30 808 H 77.8602 -3.87261 -1.66153 0
M  V30 809 H 76.5842 -2.65377 -1.90375 0
M  V30 810 H 75.2432 -3.6659 -0.0267361 0
M  V30 811 H 74.8912 -4.43031 -2.38185 0
M  V30 812 H 74.5912 -5.74777 -1.22085 0
M  V30 813 H 76.1152 -5.71396 -2.15266 0
M  V30 814 H 77.5292 -5.73177 0.118704 0
M  V30 815 H 75.9262 -5.93566 0.88317 0
M  V30 816 H 76.9962 -4.63285 1.43162 0
M  V30 817 N 78.3393 -0.321999 -1.54275 0
M  V30 818 C 79.5793 0.281657 -2.0245 0
M  V30 819 C 79.9433 1.49468 -1.20513 0
M  V30 820 O 81.1443 2.17109 -1.58484 0
M  V30 821 C 79.4153 0.609014 -3.52173 0
M  V30 822 S 80.9743 1.19255 -4.22284 0
M  V30 823 H 77.7923 0.0852825 -0.705867 0
M  V30 824 H 80.3943 -0.454758 -1.90137 0
M  V30 825 H 79.0983 -0.281982 -4.0943 0
M  V30 826 H 78.6293 1.37567 -3.68563 0
M  V30 827 H 80.6443 2.47944 -4.29812 0
M  V30 828 N 79.8174 1.5752 -0.0501392 0
M  V30 829 C 80.7474 2.14502 0.922566 0
M  V30 830 C 81.7284 1.06642 1.3252 0
M  V30 831 O 82.9134 1.34577 1.4001 0
M  V30 832 C 80.0434 2.68916 2.19776 0
M  V30 833 C 78.9974 3.8175 1.93523 0
M  V30 834 C 78.3234 4.22677 3.27487 0
M  V30 835 C 79.6234 5.06932 1.25765 0
M  V30 836 H 81.3174 2.9603 0.447952 0
M  V30 837 H 78.8634 1.42401 0.214024 0
M  V30 838 H 80.8164 3.07419 2.88222 0
M  V30 839 H 79.5404 1.84578 2.69441 0
M  V30 840 H 78.1994 3.43718 1.27489 0
M  V30 841 H 77.8474 3.35291 3.74952 0
M  V30 842 H 77.5474 4.98725 3.1072 0
M  V30 843 H 79.0714 4.63779 3.97166 0
M  V30 844 H 80.4854 5.42888 1.84244 0
M  V30 845 H 78.8824 5.88116 1.19328 0
M  V30 846 H 79.9524 4.84337 0.233536 0
M  V30 847 N 81.2955 -0.223234 1.56011 0
M  V30 848 C 82.7065 -0.790368 1.69145 0
M  V30 849 C 83.0575 -1.85055 0.651845 0
M  V30 850 O 82.1825 -2.15498 -0.197359 0
M  V30 851 C 82.7775 -1.4404 3.06656 0
M  V30 852 C 81.3365 -1.95494 3.2165 0
M  V30 853 C 80.4835 -0.814506 2.65068 0
M  V30 854 H 83.4345 0.00139011 1.587 0
M  V30 855 H 83.4555 -2.30916 3.0242 0
M  V30 856 H 82.9675 -0.668543 3.82298 0
M  V30 857 H 81.0685 -2.75487 2.50874 0
M  V30 858 H 81.1815 -2.13607 4.28846 0
M  V30 859 H 79.5455 -1.22137 2.23505 0
M  V30 860 H 80.3285 -0.0553515 3.43255 0
M  V30 861 N 82.7736 -1.49793 -0.48987 0
M  V30 862 C 84.0216 -1.59525 -1.24081 0
M  V30 863 C 84.3426 -0.288953 -1.92847 0
M  V30 864 O 83.6126 0.692436 -1.83254 0
M  V30 865 H 82.1926 -0.587796 -0.460983 0
M  V30 866 H 84.8546 -1.86477 -0.566778 0
M  V30 867 H 83.9506 -2.39696 -1.99881 0
M  V30 868 N 84.2517 0.741722 -1.39055 0
M  V30 869 C 85.4817 1.52876 -1.3897 0
M  V30 870 C 85.8897 1.8919 0.0193266 0
M  V30 871 O 85.2327 1.54138 0.999356 0
M  V30 872 C 85.2947 2.84929 -2.19216 0
M  V30 873 C 84.9587 2.71086 -3.67915 0
M  V30 874 C 85.9557 2.40084 -4.61146 0
M  V30 875 C 83.6407 2.88168 -4.11418 0
M  V30 876 C 85.6347 2.26335 -5.95862 0
M  V30 877 C 83.3217 2.74037 -5.46211 0
M  V30 878 C 84.3197 2.43166 -6.38247 0
M  V30 879 O 84.0077 2.29115 -7.70559 0
M  V30 880 H 83.7397 0.479252 -0.476753 0
M  V30 881 H 86.2937 0.924751 -1.83405 0
M  V30 882 H 84.5237 3.47564 -1.69518 0
M  V30 883 H 86.2127 3.46509 -2.11392 0
M  V30 884 H 86.9787 2.26545 -4.28838 0
M  V30 885 H 82.8577 3.11191 -3.40119 0
M  V30 886 H 86.4017 2.0216 -6.67665 0
M  V30 887 H 82.2987 2.87153 -5.78112 0
M  V30 888 H 83.0667 2.44237 -7.81211 0
M  V30 889 N 85.7298 1.2412 0.971189 0
M  V30 890 C 87.1458 1.00584 1.23916 0
M  V30 891 C 87.3458 -0.287481 1.99439 0
M  V30 892 O 86.4018 -1.00454 2.31658 0
M  V30 893 C 87.7148 2.21864 2.0297 0
M  V30 894 C 89.2628 2.26452 2.16076 0
M  V30 895 C 89.7378 3.47343 2.98524 0
M  V30 896 N 91.2288 3.47639 3.06107 0
M  V30 897 C 91.9638 4.37837 3.70251 0
M  V30 898 N 91.4598 5.38286 4.36142 0
M  V30 899 N 93.2528 4.25558 3.67228 0
M  V30 900 H 85.4038 2.07236 0.465499 0
M  V30 901 H 87.6668 0.909236 0.268315 0
M  V30 902 H 87.3728 3.15771 1.54861 0
M  V30 903 H 87.2468 2.23698 3.03709 0
M  V30 904 H 89.6338 1.33078 2.6339 0
M  V30 905 H 89.7148 2.28645 1.14696 0
M  V30 906 H 89.3588 4.41029 2.51905 0
M  V30 907 H 89.2888 3.42393 4.00093 0
M  V30 908 H 91.7798 2.74966 2.59233 0
M  V30 909 H 92.0928 6.03352 4.82894 0
M  V30 910 H 90.4378 5.42176 4.34822 0
M  V30 911 H 93.6288 3.46322 3.14927 0
M  V30 912 H 93.8018 4.96054 4.16935 0
M  V30 913 N 87.2079 -1.17134 1.05439 0
M  V30 914 C 88.1549 -2.21235 0.657539 0
M  V30 915 C 89.1249 -1.62551 -0.341543 0
M  V30 916 O 90.3099 -1.89379 -0.232393 0
M  V30 917 C 87.4499 -3.45076 0.0410575 0
M  V30 918 C 86.5629 -4.18042 1.08927 0
M  V30 919 C 85.6979 -5.29376 0.439848 0
M  V30 920 C 84.7369 -5.94132 1.4722 0
M  V30 921 N 83.8739 -6.96975 0.846756 0
M  V30 922 H 88.7139 -2.54534 1.54972 0
M  V30 923 H 86.2509 -1.25028 0.775006 0
M  V30 924 H 88.2089 -4.15862 -0.33383 0
M  V30 925 H 86.8389 -3.12353 -0.814568 0
M  V30 926 H 85.8909 -3.45945 1.58196 0
M  V30 927 H 87.2029 -4.62306 1.87282 0
M  V30 928 H 86.3569 -6.06699 0.0115125 0
M  V30 929 H 85.0959 -4.86251 -0.375656 0
M  V30 930 H 84.1009 -5.15538 1.91052 0
M  V30 931 H 85.3259 -6.39337 2.28965 0
M  V30 932 H 83.2719 -6.5598 0.0518075 0
M  V30 933 H 83.1889 -7.39565 1.5678 0
M  V30 934 H 84.4569 -7.78239 0.443277 0
M  V30 935 N 88.686 -0.835752 -1.33615 0
M  V30 936 C 89.618 -0.224151 -2.28101 0
M  V30 937 C 90.631 0.593331 -1.51603 0
M  V30 938 O 91.82 0.420911 -1.73466 0
M  V30 939 C 88.92 0.703309 -3.31522 0
M  V30 940 C 88.093 -0.0741528 -4.37337 0
M  V30 941 C 87.152 0.776176 -5.20444 0
M  V30 942 O 86.178 0.216506 -5.68788 0
M  V30 943 N 87.38 2.09401 -5.41416 0
M  V30 944 H 90.145 -1.03598 -2.81225 0
M  V30 945 H 87.706 -0.69392 -1.46275 0
M  V30 946 H 89.698 1.27707 -3.84022 0
M  V30 947 H 88.268 1.41585 -2.78698 0
M  V30 948 H 87.488 -0.82928 -3.85378 0
M  V30 949 H 88.776 -0.608863 -5.05144 0
M  V30 950 H 88.174 2.57229 -5.03835 0
M  V30 951 H 86.731 2.61633 -5.96985 0
M  V30 952 N 90.1641 1.46063 -0.591896 0
M  V30 953 C 91.1111 2.30399 0.136069 0
M  V30 954 C 92.0811 1.41169 0.875238 0
M  V30 955 O 93.2661 1.70112 0.86409 0
M  V30 956 C 90.4061 3.25804 1.13781 0
M  V30 957 C 89.5191 4.30134 0.401137 0
M  V30 958 C 88.6541 5.12659 1.39121 0
M  V30 959 C 87.6931 6.0873 0.641462 0
M  V30 960 N 86.8301 6.8409 1.58004 0
M  V30 961 H 91.6701 2.92118 -0.589144 0
M  V30 962 H 89.2071 1.43959 -0.302342 0
M  V30 963 H 91.1651 3.79569 1.73156 0
M  V30 964 H 89.7951 2.65872 1.83062 0
M  V30 965 H 88.8471 3.79152 -0.307826 0
M  V30 966 H 90.1591 4.98458 -0.184565 0
M  V30 967 H 89.3131 5.70747 2.05749 0
M  V30 968 H 88.0521 4.44316 2.01084 0
M  V30 969 H 87.0571 5.49786 -0.0385419 0
M  V30 970 H 88.2821 6.79095 0.0270945 0
M  V30 971 H 86.2281 6.18449 2.18761 0
M  V30 972 H 86.1451 7.48709 1.04738 0
M  V30 973 H 87.4131 7.4673 2.23639 0
M  V30 974 N 91.6422 0.330177 1.54103 0
M  V30 975 C 92.5752 -0.575477 2.20825 0
M  V30 976 C 93.5532 -1.11064 1.18758 0
M  V30 977 O 94.7372 -1.17341 1.47524 0
M  V30 978 C 91.8642 -1.79032 2.87516 0
M  V30 979 C 90.9102 -1.38581 4.03358 0
M  V30 980 S 91.7432 -0.416911 5.33875 0
M  V30 981 C 92.8992 -1.63889 6.04062 0
M  V30 982 H 93.1322 -0.00872114 2.97299 0
M  V30 983 H 90.6652 0.114254 1.53977 0
M  V30 984 H 92.6232 -2.48734 3.2656 0
M  V30 985 H 91.2842 -2.32827 2.10832 0
M  V30 986 H 90.4772 -2.29123 4.48908 0
M  V30 987 H 90.0792 -0.768419 3.66021 0
M  V30 988 H 92.3712 -2.57536 6.26643 0
M  V30 989 H 93.3142 -1.22542 6.97416 0
M  V30 990 H 93.7222 -1.82887 5.34053 0
M  V30 991 N 93.1203 -1.57491 0.0584922 0
M  V30 992 C 94.3683 -1.92597 -0.612436 0
M  V30 993 C 94.6893 -0.938162 -1.70949 0
M  V30 994 O 93.9593 0.0158301 -1.95894 0
M  V30 995 H 92.5393 -0.710964 -0.229214 0
M  V30 996 H 95.2013 -1.94571 0.113218 0
M  V30 997 H 94.2973 -2.94038 -1.04633 0
M  V30 998 N 94.5984 0.214957 -1.56127 0
M  V30 999 C 96.0094 0.781386 -1.69562 0
M  V30 1000 C 96.3604 1.84707 -0.66165 0
M  V30 1001 O 95.4854 2.156 0.185927 0
M  V30 1002 C 96.0804 1.42411 -3.07416 0
M  V30 1003 C 94.6394 1.93786 -3.22683 0
M  V30 1004 C 93.7864 0.800438 -2.65496 0
M  V30 1005 H 96.7374 -0.00980633 -1.58697 0
M  V30 1006 H 96.7584 2.29309 -3.0364 0
M  V30 1007 H 96.2704 0.64826 -3.82648 0
M  V30 1008 H 94.3714 2.74152 -2.52332 0
M  V30 1009 H 94.4844 2.1133 -4.29973 0
M  V30 1010 H 92.8484 1.2095 -2.2415 0
M  V30 1011 H 93.6314 0.0371471 -3.4328 0
M  V30 1012 N 96.0765 1.50051 0.48192 0
M  V30 1013 C 97.3255 1.59741 1.23149 0
M  V30 1014 C 97.6385 0.298163 1.93314 0
M  V30 1015 O 98.8445 0.273835 2.70116 0
M  V30 1016 C 97.3005 2.81926 2.23708 0
M  V30 1017 C 96.9085 4.18685 1.59396 0
M  V30 1018 C 98.6525 3.00956 2.99375 0
M  V30 1019 C 96.5595 5.3207 2.58178 0
M  V30 1020 H 95.4895 0.594838 0.46334 0
M  V30 1021 H 98.1405 1.76467 0.503169 0
M  V30 1022 H 96.5225 2.58736 2.99786 0
M  V30 1023 H 97.6965 4.52088 0.891811 0
M  V30 1024 H 96.0115 4.05171 0.960503 0
M  V30 1025 H 98.6085 3.82836 3.73283 0
M  V30 1026 H 98.9515 2.12258 3.58123 0
M  V30 1027 H 99.4845 3.24277 2.30411 0
M  V30 1028 H 96.2235 6.22888 2.04184 0
M  V30 1029 H 95.7435 5.03098 3.26577 0
M  V30 1030 H 97.4225 5.62196 3.20225 0
M  V30 1031 N 97.5546 -0.734337 1.39446 0
M  V30 1032 C 98.7846 -1.52137 1.39778 0
M  V30 1033 C 99.1926 -1.89198 -0.00929312 0
M  V30 1034 O 98.5356 -1.54666 -0.991168 0
M  V30 1035 C 98.5976 -2.83762 2.20724 0
M  V30 1036 C 98.2616 -2.69131 3.69347 0
M  V30 1037 C 99.2586 -2.37635 4.62413 0
M  V30 1038 C 96.9436 -2.85982 4.1294 0
M  V30 1039 C 98.9376 -2.23172 5.97054 0
M  V30 1040 C 96.6246 -2.71137 5.47657 0
M  V30 1041 C 97.6226 -2.39777 6.39528 0
M  V30 1042 O 97.3106 -2.25026 7.71763 0
M  V30 1043 H 97.0426 -0.476717 0.479288 0
M  V30 1044 H 99.5966 -0.915012 1.83893 0
M  V30 1045 H 97.8266 -3.4666 1.71359 0
M  V30 1046 H 99.5156 -3.45383 2.13226 0
M  V30 1047 H 100.282 -2.24267 4.30034 0
M  V30 1048 H 96.1606 -3.09383 3.41765 0
M  V30 1049 H 99.7046 -1.98617 6.68728 0
M  V30 1050 H 95.6016 -2.84083 5.79626 0
M  V30 1051 H 96.3696 -2.40091 7.82495 0
M  V30 1052 N 99.0327 -1.24633 -0.964593 0
M  V30 1053 C 99.9957 -1.0424 -2.04124 0
M  V30 1054 C 100.996 0.00137563 -1.608 0
M  V30 1055 O 102.186 -0.239883 -1.7254 0
M  V30 1056 C 99.3177 -0.580588 -3.3592 0
M  V30 1057 H 100.511 -1.99803 -2.23649 0
M  V30 1058 H 98.0637 -1.06899 -1.14027 0
M  V30 1059 H 98.7987 0.3781 -3.22088 0
M  V30 1060 H 98.5837 -1.33398 -3.6871 0
M  V30 1061 H 100.074 -0.459034 -4.15069 0
M  V30 1062 N 100.511 1.16574 -1.06058 0
M  V30 1063 C 101.458 2.20883 -0.669263 0
M  V30 1064 C 102.428 1.62729 0.332918 0
M  V30 1065 O 103.613 1.895 0.222346 0
M  V30 1066 C 100.753 3.45049 -0.0593572 0
M  V30 1067 C 99.8658 4.17458 -1.11143 0
M  V30 1068 C 99.0008 5.29135 -0.467916 0
M  V30 1069 C 98.0398 5.93343 -1.50369 0
M  V30 1070 N 97.1768 6.96516 -0.883706 0
M  V30 1071 H 102.017 2.53709 -1.5632 0
M  V30 1072 H 99.5538 1.24616 -0.781625 0
M  V30 1073 H 101.512 4.16033 0.311771 0
M  V30 1074 H 100.142 3.12781 0.797992 0
M  V30 1075 H 99.1938 3.45101 -1.60029 0
M  V30 1076 H 100.506 4.61307 -1.89731 0
M  V30 1077 H 99.6598 6.06684 -0.0436871 0
M  V30 1078 H 98.3988 4.86443 0.349864 0
M  V30 1079 H 97.4038 5.14517 -1.93784 0
M  V30 1080 H 98.6288 6.38114 -2.32352 0
M  V30 1081 H 96.5748 6.55943 -0.086595 0
M  V30 1082 H 96.4918 7.38723 -1.607 0
M  V30 1083 H 97.7598 7.77993 -0.484543 0
M  V30 1084 N 101.989 0.842826 1.3317 0
M  V30 1085 C 103.229 0.446574 1.99462 0
M  V30 1086 C 103.593 -0.976818 1.65295 0
M  V30 1087 O 104.794 -1.477 2.24584 0
M  V30 1088 C 103.065 0.665353 3.51152 0
M  V30 1089 S 104.624 0.364911 4.3728 0
M  V30 1090 H 101.442 0.167803 0.690915 0
M  V30 1091 H 104.044 1.09297 1.62094 0
M  V30 1092 H 102.748 1.7006 3.73507 0
M  V30 1093 H 102.279 0.00494568 3.934 0
M  V30 1094 H 104.294 -0.813761 4.89482 0
M  V30 1095 N 103.467 -1.45747 0.599634 0
M  V30 1096 C 104.695 -2.06668 0.0978551 0
M  V30 1097 C 105.11 -1.44562 -1.21439 0
M  V30 1098 O 104.467 -0.556923 -1.73795 0
M  V30 1099 C 104.518 -3.61456 -0.0567044 0
M  V30 1100 O 104.239 -4.21242 1.20361 0
M  V30 1101 C 105.74 -4.39345 -0.590869 0
M  V30 1102 H 102.96 -0.667825 0.0651943 0
M  V30 1103 H 105.504 -1.87115 0.82511 0
M  V30 1104 H 103.659 -3.80378 -0.734251 0
M  V30 1105 H 104.073 -5.14323 1.02821 0
M  V30 1106 H 105.547 -5.48182 -0.648131 0
M  V30 1107 H 106.024 -4.08568 -1.61147 0
M  V30 1108 H 106.63 -4.25268 0.0523679 0
M  V30 1109 N 104.945 -0.338344 -1.53925 0
M  V30 1110 C 106.193 0.259245 -2.0043 0
M  V30 1111 C 106.514 1.51484 -1.22791 0
M  V30 1112 O 105.784 1.93037 -0.33368 0
M  V30 1113 H 104.364 0.0987845 -0.740439 0
M  V30 1114 H 107.026 -0.458302 -1.89435 0
M  V30 1115 H 106.122 0.505334 -3.07982 0
M  V30 1116 N 106.423 1.57458 -0.0668435 0
M  V30 1117 C 107.651 1.97624 0.612565 0
M  V30 1118 C 108.066 0.94502 1.63447 0
M  V30 1119 O 107.423 -0.0689276 1.8237 0
M  V30 1120 C 107.474 3.37869 1.28555 0
M  V30 1121 O 107.195 4.3704 0.304557 0
M  V30 1122 C 108.696 3.92882 2.05325 0
M  V30 1123 H 105.916 0.650045 0.166381 0
M  V30 1124 H 108.46 2.04035 -0.137782 0
M  V30 1125 H 106.615 3.3256 1.98702 0
M  V30 1126 H 107.029 5.18565 0.786779 0
M  V30 1127 H 108.503 4.93247 2.47812 0
M  V30 1128 H 108.98 3.29156 2.9078 0
M  V30 1129 H 109.586 4.01577 1.40056 0
M  V30 1130 N 107.901 -0.206675 1.56239 0
M  V30 1131 C 109.149 -0.927007 1.79586 0
M  V30 1132 C 109.47 -1.8427 0.637929 0
M  V30 1133 O 108.74 -1.92849 -0.344398 0
M  V30 1134 H 107.32 -0.345292 0.662407 0
M  V30 1135 H 109.982 -0.21496 1.93711 0
M  V30 1136 H 109.078 -1.52501 2.72305 0
M  V30 1137 N 109.379 -1.50304 -0.473955 0
M  V30 1138 C 110.625 -1.62358 -1.22521 0
M  V30 1139 C 110.98 -0.318555 -1.89745 0
M  V30 1140 O 110.273 0.683315 -1.79001 0
M  V30 1141 C 110.467 -2.73938 -2.29549 0
M  V30 1142 C 110.296 -4.15165 -1.72825 0
M  V30 1143 C 109.066 -4.81604 -1.52924 0
M  V30 1144 C 111.264 -4.99503 -1.22481 0
M  V30 1145 N 109.246 -6.07056 -0.91413 0
M  V30 1146 C 110.617 -6.15655 -0.732743 0
M  V30 1147 C 112.672 -4.85299 -1.11308 0
M  V30 1148 C 111.375 -7.19164 -0.139976 0
M  V30 1149 C 113.401 -5.88982 -0.534258 0
M  V30 1150 C 112.763 -7.0438 -0.0525562 0
M  V30 1151 H 108.862 -0.648286 -0.437321 0
M  V30 1152 H 111.446 -1.87413 -0.527692 0
M  V30 1153 H 109.617 -2.50611 -2.9673 0
M  V30 1154 H 111.349 -2.75366 -2.96573 0
M  V30 1155 H 108.104 -4.3885 -1.78067 0
M  V30 1156 H 108.528 -6.74108 -0.625071 0
M  V30 1157 H 113.17 -3.96369 -1.47144 0
M  V30 1158 H 110.888 -8.07771 0.230591 0
M  V30 1159 H 114.474 -5.80055 -0.450219 0
M  V30 1160 H 113.354 -7.83238 0.388324 0
M  V30 1161 N 110.857 0.726932 -1.39834 0
M  V30 1162 C 112.085 1.51613 -1.40787 0
M  V30 1163 C 112.5 1.88799 -0.00451505 0
M  V30 1164 O 111.857 1.54662 0.968809 0
M  V30 1165 C 111.908 2.79863 -2.28821 0
M  V30 1166 O 111.629 2.44253 -3.63692 0
M  V30 1167 C 113.13 3.73837 -2.38245 0
M  V30 1168 H 110.35 0.468264 -0.480593 0
M  V30 1169 H 112.894 0.897607 -1.83748 0
M  V30 1170 H 111.049 3.38027 -1.89252 0
M  V30 1171 H 111.463 3.26695 -4.1033 0
M  V30 1172 H 112.937 4.60699 -3.04073 0
M  V30 1173 H 113.414 4.16153 -1.40403 0
M  V30 1174 H 114.02 3.21589 -2.78317 0
M  V30 1175 N 112.336 1.25143 0.95797 0
M  V30 1176 C 113.266 1.07711 2.07173 0
M  V30 1177 C 114.247 -0.0128462 1.70095 0
M  V30 1178 O 115.432 0.156061 1.93572 0
M  V30 1179 C 112.562 0.691503 3.40346 0
M  V30 1180 C 111.516 1.73132 3.9142 0
M  V30 1181 C 110.842 1.20049 5.21049 0
M  V30 1182 C 112.142 3.1294 4.1817 0
M  V30 1183 H 113.836 2.00873 2.22014 0
M  V30 1184 H 111.382 0.967191 1.06684 0
M  V30 1185 H 113.335 0.556505 4.17709 0
M  V30 1186 H 112.059 -0.275819 3.25433 0
M  V30 1187 H 110.718 1.8547 3.16222 0
M  V30 1188 H 110.366 0.223499 5.02503 0
M  V30 1189 H 110.066 1.89545 5.56189 0
M  V30 1190 H 111.59 1.07782 6.01012 0
M  V30 1191 H 113.004 3.03775 4.86203 0
M  V30 1192 H 111.401 3.79875 4.64559 0
M  V30 1193 H 112.471 3.6025 3.24573 0
M  V30 1194 N 113.814 -1.1601 1.06675 0
M  V30 1195 C 115.061 -1.86633 0.785781 0
M  V30 1196 C 115.389 -1.81929 -0.687896 0
M  V30 1197 O 114.644 -1.23253 -1.52011 0
M  V30 1198 C 114.943 -3.35547 1.23057 0
M  V30 1199 C 114.609 -3.60448 2.70902 0
M  V30 1200 C 113.271 -3.66954 3.11285 0
M  V30 1201 C 115.623 -3.7071 3.66365 0
M  V30 1202 C 112.951 -3.81225 4.45965 0
M  V30 1203 C 115.303 -3.86503 5.00797 0
M  V30 1204 C 113.967 -3.91252 5.40813 0
M  V30 1205 H 113.237 -0.682937 0.287538 0
M  V30 1206 H 115.884 -1.37146 1.33654 0
M  V30 1207 H 114.189 -3.87193 0.59907 0
M  V30 1208 H 115.886 -3.88583 0.990163 0
M  V30 1209 H 112.476 -3.56021 2.38636 0
M  V30 1210 H 116.66 -3.64991 3.36296 0
M  V30 1211 H 111.916 -3.83155 4.76447 0
M  V30 1212 H 116.09 -3.93385 5.74649 0
M  V30 1213 H 113.717 -4.02062 6.45174 0
M  V30 1214 N 115.292 -0.849877 -1.32721 0
M  V30 1215 C 116.24 -0.279745 -2.30912 0
M  V30 1216 C 117.234 0.594278 -1.58634 0
M  V30 1217 O 118.44 0.482613 -1.73409 0
M  V30 1218 H 114.815 -0.0717521 -0.748569 0
M  V30 1219 H 116.786 -1.12222 -2.76494 0
M  V30 1220 C 115.535 0.521108 -3.43773 0
M  V30 1221 H 114.858 -0.142141 -3.99547 0
M  V30 1222 H 116.298 0.885693 -4.14646 0
M  V30 1223 C 114.757 1.70442 -2.90605 0
M  V30 1224 O 115.287 2.8034 -2.87702 0
M  V30 1225 N 113.493 1.52991 -2.47067 0
M  V30 1226 H 113.04 0.635914 -2.49628 0
M  V30 1227 H 112.998 2.32311 -2.11847 0
M  V30 1228 N 116.77 1.45427 -0.607355 0
M  V30 1229 C 117.702 2.2871 0.149752 0
M  V30 1230 C 118.715 1.39937 0.831958 0
M  V30 1231 O 119.904 1.64313 0.697385 0
M  V30 1232 C 117.004 3.15673 1.23304 0
M  V30 1233 C 116.177 4.32722 0.637996 0
M  V30 1234 C 115.236 5.00895 1.61215 0
M  V30 1235 O 114.262 5.57697 1.13854 0
M  V30 1236 N 115.464 5.00159 2.94655 0
M  V30 1237 H 118.229 2.94328 -0.564882 0
M  V30 1238 H 115.79 1.55612 -0.446823 0
M  V30 1239 H 117.782 3.58144 1.88454 0
M  V30 1240 H 116.352 2.51965 1.8502 0
M  V30 1241 H 115.572 3.93734 -0.191572 0
M  V30 1242 H 116.86 5.08321 0.220665 0
M  V30 1243 H 116.258 4.553 3.35735 0
M  V30 1244 H 114.815 5.46495 3.55228 0
M  V30 1245 N 118.248 0.346503 1.53744 0
M  V30 1246 C 119.488 -0.249413 2.02873 0
M  V30 1247 C 119.852 -1.47532 1.22876 0
M  V30 1248 O 121.053 -2.1456 1.61918 0
M  V30 1249 C 119.324 -0.552909 3.53097 0
M  V30 1250 S 120.883 -1.12521 4.24128 0
M  V30 1251 H 117.701 -0.074042 0.707134 0
M  V30 1252 H 120.303 0.48495 1.8939 0
M  V30 1253 H 119.007 0.347083 4.0893 0
M  V30 1254 H 118.538 -1.31686 3.70705 0
M  V30 1255 H 120.553 -2.41075 4.33702 0
M  V30 1256 N 119.726 -1.57421 0.075193 0
M  V30 1257 C 120.975 -1.92794 -0.592731 0
M  V30 1258 C 121.288 -0.957478 -1.70563 0
M  V30 1259 O 122.494 -1.20417 -2.43335 0
M  V30 1260 C 120.95 -3.42495 -1.10569 0
M  V30 1261 C 120.558 -4.47994 -0.0236121 0
M  V30 1262 C 122.302 -3.86864 -1.74748 0
M  V30 1263 C 120.209 -5.88829 -0.550803 0
M  V30 1264 H 119.139 -0.719591 -0.225177 0
M  V30 1265 H 121.79 -1.82902 0.147978 0
M  V30 1266 H 120.172 -3.47471 -1.89947 0
M  V30 1267 H 121.346 -4.54637 0.751099 0
M  V30 1268 H 119.661 -4.13113 0.522159 0
M  V30 1269 H 122.258 -4.8947 -2.15229 0
M  V30 1270 H 122.601 -3.24417 -2.60882 0
M  V30 1271 H 123.134 -3.84504 -1.01986 0
M  V30 1272 H 119.873 -6.54929 0.273457 0
M  V30 1273 H 119.393 -5.85698 -1.29296 0
M  V30 1274 H 121.072 -6.38811 -1.02613 0
M  V30 1275 N 121.204 0.198386 -1.56346 0
M  V30 1276 C 122.151 1.24589 -1.94284 0
M  V30 1277 C 123.121 1.454 -0.802997 0
M  V30 1278 O 124.306 1.58588 -1.06087 0
M  V30 1279 C 121.446 2.58631 -2.28482 0
M  V30 1280 C 120.559 2.45426 -3.55514 0
M  V30 1281 C 119.694 3.7215 -3.79049 0
M  V30 1282 C 118.733 3.53763 -4.99518 0
M  V30 1283 N 117.87 4.72491 -5.19323 0
M  V30 1284 H 122.71 0.915356 -2.83593 0
M  V30 1285 H 120.247 0.440629 -1.40346 0
M  V30 1286 H 122.205 3.3672 -2.46324 0
M  V30 1287 H 120.835 2.89734 -1.42317 0
M  V30 1288 H 119.887 1.58652 -3.45737 0
M  V30 1289 H 121.199 2.27772 -4.43758 0
M  V30 1290 H 120.353 4.58679 -3.97113 0
M  V30 1291 H 119.092 3.92754 -2.89129 0
M  V30 1292 H 118.097 2.65619 -4.8138 0
M  V30 1293 H 119.322 3.34607 -5.90944 0
M  V30 1294 H 117.268 4.93365 -4.3235 0
M  V30 1295 H 117.185 4.5765 -6.01741 0
M  V30 1296 H 118.453 5.6038 -5.41843 0
M  V30 1297 N 122.682 1.50554 0.465978 0
M  V30 1298 C 124.098 1.38093 0.800154 0
M  V30 1299 C 124.298 0.440988 1.96615 0
M  V30 1300 O 123.354 -0.114499 2.5224 0
M  V30 1301 C 124.667 2.79565 1.10742 0
M  V30 1302 C 126.215 2.88516 1.21357 0
M  V30 1303 C 126.69 4.30833 1.55393 0
M  V30 1304 N 128.181 4.33807 1.62375 0
M  V30 1305 C 128.916 5.40927 1.90225 0
M  V30 1306 N 128.412 6.58247 2.16062 0
M  V30 1307 N 130.205 5.28376 1.9177 0
M  V30 1308 H 122.356 2.10237 -0.302366 0
M  V30 1309 H 124.619 0.945203 -0.0727746 0
M  V30 1310 H 124.325 3.50208 0.323661 0
M  V30 1311 H 124.199 3.17125 2.04234 0
M  V30 1312 H 126.586 2.1809 1.98799 0
M  V30 1313 H 126.667 2.54492 0.258321 0
M  V30 1314 H 126.311 5.01799 0.784889 0
M  V30 1315 H 126.241 4.62347 2.52076 0
M  V30 1316 H 128.732 3.49212 1.44427 0
M  V30 1317 H 129.045 7.3569 2.36601 0
M  V30 1318 H 127.39 6.61413 2.13444 0
M  V30 1319 H 130.581 4.35715 1.71085 0
M  V30 1320 H 130.754 6.11944 2.13139 0
M  V30 1321 N 124.16 -0.719506 1.40217 0
M  V30 1322 C 125.576 -1.02707 1.22161 0
M  V30 1323 C 125.776 -2.0128 0.0940557 0
M  V30 1324 O 124.832 -2.46452 -0.549318 0
M  V30 1325 C 126.145 -1.57454 2.56181 0
M  V30 1326 C 127.693 -1.69458 2.63159 0
M  V30 1327 C 128.168 -2.27611 3.97438 0
M  V30 1328 N 129.659 -2.35002 3.99159 0
M  V30 1329 C 130.394 -2.80972 4.99842 0
M  V30 1330 N 129.89 -3.26723 6.10921 0
M  V30 1331 N 131.683 -2.80321 4.87213 0
M  V30 1332 H 123.834 -0.0660492 2.12297 0
M  V30 1333 H 126.097 -0.0919077 0.943534 0
M  V30 1334 H 125.803 -0.924873 3.39321 0
M  V30 1335 H 125.677 -2.56036 2.76993 0
M  V30 1336 H 128.064 -2.33543 1.80393 0
M  V30 1337 H 128.145 -0.694867 2.46181 0
M  V30 1338 H 127.789 -1.6415 4.80643 0
M  V30 1339 H 127.719 -3.2829 4.11744 0
M  V30 1340 H 130.21 -2.02685 3.18947 0
M  V30 1341 H 130.523 -3.60355 6.8364 0
M  V30 1342 H 128.868 -3.24692 6.14492 0
M  V30 1343 H 132.059 -2.43912 3.9953 0
M  V30 1344 H 132.232 -3.15831 5.65822 0
M  V30 1345 N 125.638 -1.25649 -0.95132 0
M  V30 1346 C 126.878 -1.11802 -1.71113 0
M  V30 1347 C 127.242 0.334758 -1.89059 0
M  V30 1348 O 128.443 0.595121 -2.62129 0
M  V30 1349 C 126.714 -1.85512 -3.05483 0
M  V30 1350 S 128.273 -1.87597 -3.96677 0
M  V30 1351 H 125.091 -0.399552 -0.588115 0
M  V30 1352 H 127.693 -1.59222 -1.1344 0
M  V30 1353 H 126.397 -2.90299 -2.90094 0
M  V30 1354 H 125.928 -1.38493 -3.68216 0
M  V30 1355 H 127.943 -0.955389 -4.86916 0
M  V30 1356 N 127.117 1.15442 -1.07289 0
M  V30 1357 C 128.528 1.67803 -0.818475 0
M  V30 1358 C 128.879 1.8489 0.656507 0
M  V30 1359 O 128.004 1.55176 1.50829 0
M  V30 1360 C 128.599 3.04805 -1.47917 0
M  V30 1361 C 127.158 3.54245 -1.27229 0
M  V30 1362 C 126.305 2.29986 -1.54925 0
M  V30 1363 H 129.256 0.996646 -1.23502 0
M  V30 1364 H 129.277 3.69702 -0.90005 0
M  V30 1365 H 128.789 2.92336 -2.55267 0
M  V30 1366 H 126.89 3.71956 -0.21899 0
M  V30 1367 H 127.003 4.35723 -1.99203 0
M  V30 1368 H 125.367 2.35496 -0.970242 0
M  V30 1369 H 126.15 2.20105 -2.63455 0
M  V30 1370 N 128.595 0.856903 1.32268 0
M  V30 1371 C 129.82 0.474569 2.01897 0
M  V30 1372 C 130.245 -0.921766 1.63967 0
M  V30 1373 O 129.603 -1.60589 0.84148 0
M  V30 1374 C 129.651 0.623799 3.55164 0
M  V30 1375 O 128.755 -0.342459 4.10976 0
M  V30 1376 H 128.096 0.190422 0.63611 0
M  V30 1377 H 130.626 1.15672 1.68764 0
M  V30 1378 H 130.636 0.512169 4.04773 0
M  V30 1379 H 129.311 1.64202 3.82113 0
M  V30 1380 H 127.888 -0.18688 3.72431 0
M  V30 1381 N 130.073 -1.45103 0.615059 0
M  V30 1382 C 131.484 -1.85654 0.197383 0
M  V30 1383 C 131.835 -1.51433 -1.24749 0
M  V30 1384 O 130.96 -0.944608 -1.94695 0
M  V30 1385 C 131.555 -3.36972 0.351448 0
M  V30 1386 C 130.114 -3.76398 -0.011593 0
M  V30 1387 C 129.261 -2.69024 0.672394 0
M  V30 1388 H 132.212 -1.35797 0.821263 0
M  V30 1389 H 132.233 -3.78239 -0.414227 0
M  V30 1390 H 131.745 -3.61847 1.40314 0
M  V30 1391 H 129.846 -3.5714 -1.06217 0
M  V30 1392 H 129.959 -4.77532 0.387265 0
M  V30 1393 H 128.323 -2.54465 0.109284 0
M  V30 1394 H 129.106 -2.96735 1.72636 0
M  V30 1395 N 131.551 -0.354651 -1.53558 0
M  V30 1396 C 132.967 -0.00315426 -1.596 0
M  V30 1397 C 133.167 1.47741 -1.37021 0
M  V30 1398 O 132.223 2.23759 -1.16996 0
M  V30 1399 C 133.536 -0.44929 -2.97325 0
M  V30 1400 C 135.084 -0.402578 -3.104 0
M  V30 1401 C 135.559 -0.824355 -4.5052 0
M  V30 1402 N 137.05 -0.778979 -4.56603 0
M  V30 1403 C 137.785 -1.07715 -5.63192 0
M  V30 1404 N 137.281 -1.44405 -6.77583 0
M  V30 1405 N 139.074 -1.00066 -5.53121 0
M  V30 1406 H 131.225 -1.31893 -1.66487 0
M  V30 1407 H 133.488 -0.538388 -0.780284 0
M  V30 1408 H 133.194 -1.48202 -3.1895 0
M  V30 1409 H 133.068 0.169772 -3.76818 0
M  V30 1410 H 135.455 0.621004 -2.88492 0
M  V30 1411 H 135.536 -1.05699 -2.32941 0
M  V30 1412 H 135.18 -1.846 -4.73165 0
M  V30 1413 H 135.11 -0.147304 -5.26394 0
M  V30 1414 H 137.601 -0.508528 -3.74463 0
M  V30 1415 H 137.914 -1.65612 -7.54846 0
M  V30 1416 H 136.259 -1.4826 -6.79002 0
M  V30 1417 H 139.45 -0.713293 -4.62633 0
M  V30 1418 H 139.623 -1.23638 -6.36096 0
M  V30 1419 N 133.029 1.57378 -0.0835403 0
M  V30 1420 C 134.306 1.85363 0.624507 0
M  V30 1421 C 134.686 0.978239 1.87066 0
M  V30 1422 O 134.034 0.0475908 2.2845 0
M  V30 1423 C 134.244 3.35795 0.950947 0
M  V30 1424 C 135.592 4.03581 1.31939 0
M  V30 1425 O 136.616 3.40609 1.04232 0
M  V30 1426 O 135.475 5.14672 1.83779 0
M  V30 1427 H 132.569 0.766162 0.311329 0
M  V30 1428 H 135.115 1.69307 -0.115362 0
M  V30 1429 H 133.887 3.91244 0.0663899 0
M  V30 1430 H 133.51 3.57154 1.74719 0
M  V30 1431 N 134.507 -0.190092 1.56449 0
M  V30 1432 C 135.756 -0.907912 1.80111 0
M  V30 1433 C 136.069 -1.84214 0.657619 0
M  V30 1434 O 137.275 -2.60094 0.778663 0
M  V30 1435 C 135.731 -1.66485 3.19078 0
M  V30 1436 C 135.339 -0.7752 4.41242 0
M  V30 1437 C 137.083 -2.37201 3.52045 0
M  V30 1438 C 134.99 -1.53129 5.71231 0
M  V30 1439 H 133.92 -0.34276 0.671589 0
M  V30 1440 H 136.571 -0.161109 1.82791 0
M  V30 1441 H 134.953 -2.45572 3.10661 0
M  V30 1442 H 136.127 -0.0226298 4.60794 0
M  V30 1443 H 134.442 -0.178627 4.16017 0
M  V30 1444 H 137.039 -2.94329 4.46402 0
M  V30 1445 H 137.382 -3.11632 2.76028 0
M  V30 1446 H 137.915 -1.65075 3.61932 0
M  V30 1447 H 134.654 -0.82967 6.50228 0
M  V30 1448 H 134.174 -2.25767 5.55688 0
M  V30 1449 H 135.853 -2.08377 6.12526 0
M  V30 1450 N 135.985 -1.50799 -0.457987 0
M  V30 1451 C 137.262 -1.52968 -1.21902 0
M  V30 1452 C 137.642 -0.281906 -2.09209 0
M  V30 1453 O 136.99 0.734076 -2.16388 0
M  V30 1454 C 137.2 -2.8326 -2.03875 0
M  V30 1455 C 138.548 -3.34425 -2.6162 0
M  V30 1456 O 139.572 -2.8467 -2.14106 0
M  V30 1457 O 138.431 -4.21188 -3.48228 0
M  V30 1458 H 135.525 -0.614129 -0.553873 0
M  V30 1459 H 138.071 -1.63098 -0.468739 0
M  V30 1460 H 136.843 -3.65543 -1.39621 0
M  V30 1461 H 136.466 -2.76195 -2.8601 0
M  V30 1462 N 137.463 0.71206 -1.40597 0
M  V30 1463 C 138.411 1.84746 -1.41321 0
M  V30 1464 C 139.405 1.66842 -0.293268 0
M  V30 1465 O 140.611 1.73904 -0.464481 0
M  V30 1466 H 136.986 0.608522 -0.441819 0
M  V30 1467 H 138.957 1.81252 -2.37045 0
M  V30 1468 C 137.706 3.22638 -1.29614 0
M  V30 1469 H 137.029 3.37023 -2.15071 0
M  V30 1470 H 138.469 4.02209 -1.3418 0
M  V30 1471 C 136.928 3.36899 -0.00673121 0
M  V30 1472 O 137.458 3.90186 0.954859 0
M  V30 1473 N 135.664 2.9053 0.0639327 0
M  V30 1474 H 135.211 2.47353 -0.719311 0
M  V30 1475 H 135.169 3.0045 0.926118 0
M  V30 1476 N 138.941 1.26152 0.944643 0
M  V30 1477 C 140.189 1.11271 1.6871 0
M  V30 1478 C 140.51 -0.345166 1.91921 0
M  V30 1479 O 139.78 -1.24387 1.51343 0
M  V30 1480 H 138.36 0.408783 0.625224 0
M  V30 1481 H 141.022 1.58427 1.1352 0
M  V30 1482 H 140.118 1.62879 2.66227 0
M  V30 1483 N 140.419 -1.14872 1.07899 0
M  V30 1484 C 141.351 -2.19425 0.662231 0
M  V30 1485 C 142.364 -1.60231 -0.288079 0
M  V30 1486 O 143.553 -1.78336 -0.076534 0
M  V30 1487 C 140.653 -3.38867 -0.0470695 0
M  V30 1488 C 139.826 -4.27597 0.920831 0
M  V30 1489 C 138.885 -5.25616 0.247805 0
M  V30 1490 O 137.911 -5.62189 0.890599 0
M  V30 1491 N 139.113 -5.71746 -1.00435 0
M  V30 1492 H 141.878 -2.55797 1.56166 0
M  V30 1493 H 139.439 -1.30042 0.964404 0
M  V30 1494 H 141.431 -4.01497 -0.50813 0
M  V30 1495 H 140.001 -3.00864 -0.848523 0
M  V30 1496 H 139.221 -3.61982 1.56087 0
M  V30 1497 H 140.509 -4.83748 1.57688 0
M  V30 1498 H 139.907 -5.44153 -1.54642 0
M  V30 1499 H 138.464 -6.36389 -1.40899 0
M  V30 1500 N 141.898 -0.863906 -1.31812 0
M  V30 1501 C 142.828 -0.330843 -2.31144 0
M  V30 1502 C 143.809 0.575005 -1.60087 0
M  V30 1503 O 144.994 0.493304 -1.8783 0
M  V30 1504 C 142.124 0.47374 -3.44054 0
M  V30 1505 C 141.078 -0.338481 -4.26659 0
M  V30 1506 C 140.404 0.591412 -5.31419 0
M  V30 1507 C 141.704 -1.56926 -4.98168 0
M  V30 1508 H 143.398 -1.16086 -2.75979 0
M  V30 1509 H 140.944 -0.559657 -1.32679 0
M  V30 1510 H 142.897 0.857143 -4.12591 0
M  V30 1511 H 141.621 1.33721 -2.9797 0
M  V30 1512 H 140.28 -0.703754 -3.59782 0
M  V30 1513 H 139.928 1.45199 -4.81587 0
M  V30 1514 H 139.628 0.0519022 -5.87577 0
M  V30 1515 H 141.152 0.97179 -6.02817 0
M  V30 1516 H 142.566 -1.25764 -5.59336 0
M  V30 1517 H 140.963 -2.04739 -5.64094 0
M  V30 1518 H 142.033 -2.32544 -4.25501 0
M  V30 1519 N 143.376 1.44774 -0.622745 0
M  V30 1520 C 144.653 1.95522 -0.0551974 0
M  V30 1521 C 145.033 1.5649 1.41683 0
M  V30 1522 O 144.381 0.834848 2.12703 0
M  V30 1523 C 144.591 3.4796 -0.269242 0
M  V30 1524 C 145.939 4.24306 -0.158014 0
M  V30 1525 O 146.963 3.55637 -0.200162 0
M  V30 1526 O 145.822 5.46471 -0.0558693 0
M  V30 1527 H 142.916 0.826556 0.0271015 0
M  V30 1528 H 145.462 1.54866 -0.693864 0
M  V30 1529 H 144.234 3.6939 -1.29099 0
M  V30 1530 H 143.857 3.95543 0.403966 0
M  V30 1531 N 144.854 0.36279 1.53368 0
M  V30 1532 C 146.103 -0.22888 2.00397 0
M  V30 1533 C 146.416 -1.50096 1.25421 0
M  V30 1534 O 147.622 -2.17106 1.63025 0
M  V30 1535 C 146.078 -0.458417 3.56969 0
M  V30 1536 C 145.686 0.798877 4.4082 0
M  V30 1537 C 147.43 -1.00789 4.12361 0
M  V30 1538 C 145.337 0.539078 5.88938 0
M  V30 1539 H 144.267 -0.089305 0.748693 0
M  V30 1540 H 146.918 0.481099 1.77081 0
M  V30 1541 H 145.3 -1.22959 3.76427 0
M  V30 1542 H 146.474 1.57262 4.33134 0
M  V30 1543 H 144.789 1.27137 3.96516 0
M  V30 1544 H 147.386 -1.21754 5.20653 0
M  V30 1545 H 147.729 -1.9692 3.66781 0
M  V30 1546 H 148.262 -0.296961 3.9669 0
M  V30 1547 H 145.001 1.47064 6.3879 0
M  V30 1548 H 144.521 -0.196222 5.99479 0
M  V30 1549 H 146.2 0.163542 6.46793 0
M  V30 1550 N 146.332 -1.57332 0.0918853 0
M  V30 1551 C 147.58 -1.93853 -0.571446 0
M  V30 1552 C 147.901 -0.974212 -1.6892 0
M  V30 1553 O 147.171 -0.0257254 -1.95883 0
M  V30 1554 H 145.751 -0.715666 -0.214082 0
M  V30 1555 H 148.413 -1.94287 0.154464 0
M  V30 1556 H 147.509 -2.96191 -0.983729 0
M  V30 1557 N 147.81 0.181792 -1.56548 0
M  V30 1558 C 149.058 0.89832 -1.81038 0
M  V30 1559 C 149.379 1.83232 -0.667164 0
M  V30 1560 O 148.649 1.93372 0.313673 0
M  V30 1561 H 147.229 0.33471 -0.667816 0
M  V30 1562 H 149.891 0.184116 -1.94028 0
M  V30 1563 H 148.987 1.4815 -2.74696 0
M  V30 1564 N 149.288 1.51039 0.449983 0
M  V30 1565 C 150.534 1.63322 1.20223 0
M  V30 1566 C 150.867 0.34241 1.91158 0
M  V30 1567 O 150.142 -0.657344 1.83055 0
M  V30 1568 C 150.425 2.82801 2.22925 0
M  V30 1569 C 150.278 4.21823 1.56157 0
M  V30 1570 C 151.597 2.97807 3.24035 0
M  V30 1571 H 148.716 0.594407 0.435718 0
M  V30 1572 H 151.358 1.83489 0.493136 0
M  V30 1573 H 149.508 2.65738 2.834 0
M  V30 1574 H 151.18 4.50526 0.991162 0
M  V30 1575 H 149.423 4.25105 0.864172 0
M  V30 1576 H 150.094 5.01391 2.30891 0
M  V30 1577 H 152.57 3.13497 2.73603 0
M  V30 1578 H 151.446 3.82992 3.93202 0
M  V30 1579 H 151.707 2.09328 3.89402 0
M  V30 1580 N 150.766 -0.704594 1.40972 0
M  V30 1581 C 152.043 -1.45847 1.30338 0
M  V30 1582 C 152.423 -2.10973 -0.0732344 0
M  V30 1583 O 151.771 -2.00997 -1.08685 0
M  V30 1584 C 151.981 -2.48525 2.45023 0
M  V30 1585 C 153.329 -3.1404 2.8577 0
M  V30 1586 O 154.353 -2.58848 2.44696 0
M  V30 1587 O 153.212 -4.13981 3.56766 0
M  V30 1588 H 150.306 -0.649092 0.512454 0
M  V30 1589 H 152.852 -0.735836 1.52917 0
M  V30 1590 H 151.624 -1.98994 3.36923 0
M  V30 1591 H 151.247 -3.2831 2.24272 0
M  V30 1592 N 152.244 -1.26651 -0.937939 0
M  V30 1593 C 153.491 -1.12387 -1.6845 0
M  V30 1594 C 153.819 0.332208 -1.91642 0
M  V30 1595 O 153.074 1.2602 -1.49725 0
M  V30 1596 C 153.373 -1.84168 -3.06295 0
M  V30 1597 C 153.039 -3.34056 -3.02849 0
M  V30 1598 C 151.701 -3.74942 -3.01616 0
M  V30 1599 C 154.053 -4.29741 -2.9491 0
M  V30 1600 C 151.381 -5.09894 -2.90215 0
M  V30 1601 C 153.733 -5.64738 -2.8505 0
M  V30 1602 C 152.397 -6.0493 -2.82162 0
M  V30 1603 H 151.667 -0.411252 -0.616403 0
M  V30 1604 H 154.314 -1.57134 -1.09459 0
M  V30 1605 H 152.619 -1.319 -3.6893 0
M  V30 1606 H 154.316 -1.70569 -3.62915 0
M  V30 1607 H 150.906 -3.01534 -3.0459 0
M  V30 1608 H 155.09 -3.99133 -2.94969 0
M  V30 1609 H 150.346 -5.40194 -2.86358 0
M  V30 1610 H 154.52 -6.38561 -2.77872 0
M  V30 1611 H 152.147 -7.09457 -2.73084 0
M  V30 1612 N 153.722 1.14298 -1.08507 0
M  V30 1613 C 154.97 1.84993 -0.813763 0
M  V30 1614 C 155.291 1.83405 0.662393 0
M  V30 1615 O 154.561 1.28319 1.48024 0
M  V30 1616 H 153.141 0.684966 -0.298045 0
M  V30 1617 H 155.803 1.385 -1.37126 0
M  V30 1618 H 154.899 2.89788 -1.15884 0
M  V30 1619 N 155.201 0.870884 1.31352 0
M  V30 1620 C 156.426 0.495957 2.01383 0
M  V30 1621 C 156.851 -0.904324 1.64935 0
M  V30 1622 O 156.209 -1.59687 0.858466 0
M  V30 1623 C 156.257 0.661433 3.54482 0
M  V30 1624 O 155.361 -0.298851 4.11316 0
M  V30 1625 H 154.702 0.197158 0.634054 0
M  V30 1626 H 157.232 1.17455 1.67527 0
M  V30 1627 H 157.242 0.555072 4.04207 0
M  V30 1628 H 155.917 1.68246 3.8035 0
M  V30 1629 H 154.494 -0.147368 3.72609 0
M  V30 1630 N 156.679 -1.44442 0.630414 0
M  V30 1631 C 157.904 -2.06927 0.139944 0
M  V30 1632 C 158.329 -1.46795 -1.17613 0
M  V30 1633 O 157.687 -0.569144 -1.72135 0
M  V30 1634 C 157.735 -3.6058 0.0379581 0
M  V30 1635 O 156.839 -3.99937 -1.0062 0
M  V30 1636 H 156.18 -0.658608 0.0844483 0
M  V30 1637 H 158.71 -1.85327 0.866891 0
M  V30 1638 H 158.72 -4.07714 -0.152856 0
M  V30 1639 H 157.395 -4.03728 0.998809 0
M  V30 1640 H 155.972 -3.64436 -0.79001 0
M  V30 1641 N 158.157 -0.370918 -1.53173 0
M  V30 1642 C 159.406 0.218249 -2.00516 0
M  V30 1643 C 159.719 1.49429 -1.26215 0
M  V30 1644 O 160.925 2.16239 -1.64174 0
M  V30 1645 C 159.381 0.43948 -3.57207 0
M  V30 1646 C 158.989 -0.822244 -4.4039 0
M  V30 1647 C 160.733 0.986012 -4.1289 0
M  V30 1648 C 158.64 -0.570304 -5.88644 0
M  V30 1649 H 157.57 0.0853333 -0.749156 0
M  V30 1650 H 160.221 -0.490483 -1.76823 0
M  V30 1651 H 158.603 1.20961 -3.77074 0
M  V30 1652 H 159.777 -1.59557 -4.32294 0
M  V30 1653 H 158.092 -1.29238 -3.95836 0
M  V30 1654 H 160.689 1.18991 -5.21292 0
M  V30 1655 H 161.032 1.94972 -3.6782 0
M  V30 1656 H 161.565 0.27592 -3.96842 0
M  V30 1657 H 158.304 -1.50449 -6.38001 0
M  V30 1658 H 157.824 0.164427 -5.99575 0
M  V30 1659 H 159.503 -0.19784 -6.46697 0
M  V30 1660 N 159.635 1.57281 -0.100228 0
M  V30 1661 C 160.863 1.98879 0.570509 0
M  V30 1662 C 161.278 0.979476 1.61405 0
M  V30 1663 O 160.635 -0.0302288 1.82475 0
M  V30 1664 C 160.686 3.4052 1.2136 0
M  V30 1665 O 160.407 4.37588 0.211786 0
M  V30 1666 C 161.908 3.97149 1.96945 0
M  V30 1667 H 159.128 0.653428 0.152555 0
M  V30 1668 H 161.672 2.03697 -0.18103 0
M  V30 1669 H 159.827 3.367 1.91603 0
M  V30 1670 H 160.241 5.20118 0.676607 0
M  V30 1671 H 161.715 4.98393 2.37294 0
M  V30 1672 H 162.192 3.3525 2.83733 0
M  V30 1673 H 162.798 4.04458 1.31506 0
M  V30 1674 N 161.113 -0.173488 1.56642 0
M  V30 1675 C 162.343 -0.904781 1.85734 0
M  V30 1676 C 162.751 -1.76431 0.68328 0
M  V30 1677 O 162.094 -1.802 -0.356865 0
M  V30 1678 C 162.156 -1.83382 3.09211 0
M  V30 1679 C 161.82 -1.15411 4.42187 0
M  V30 1680 C 162.817 -0.520609 5.17287 0
M  V30 1681 C 160.502 -1.15151 4.88923 0
M  V30 1682 C 162.496 0.106412 6.37311 0
M  V30 1683 C 160.183 -0.520664 6.08878 0
M  V30 1684 C 161.181 0.107196 6.82916 0
M  V30 1685 O 160.869 0.728102 8.00596 0
M  V30 1686 H 160.601 -0.268408 0.62043 0
M  V30 1687 H 163.155 -0.179096 2.04618 0
M  V30 1688 H 161.385 -2.59976 2.86268 0
M  V30 1689 H 163.074 -2.43476 3.24768 0
M  V30 1690 H 163.84 -0.514606 4.82262 0
M  V30 1691 H 159.719 -1.62961 4.31236 0
M  V30 1692 H 163.263 0.597081 6.9504 0
M  V30 1693 H 159.16 -0.524242 6.43368 0
M  V30 1694 H 159.928 0.627138 8.16094 0
M  V30 1695 N 162.591 -1.51276 -0.441967 0
M  V30 1696 C 163.816 -1.67799 -1.21895 0
M  V30 1697 C 164.241 -0.372864 -1.84367 0
M  V30 1698 O 163.599 0.666501 -1.68604 0
M  V30 1699 C 163.647 -2.79199 -2.28211 0
M  V30 1700 O 162.751 -2.42479 -3.33583 0
M  V30 1701 H 162.092 -0.559649 -0.357336 0
M  V30 1702 H 164.622 -1.97815 -0.522522 0
M  V30 1703 H 164.632 -3.03146 -2.73069 0
M  V30 1704 H 163.307 -3.73906 -1.82118 0
M  V30 1705 H 161.884 -2.29087 -2.94234 0
M  V30 1706 N 164.069 0.697108 -1.41344 0
M  V30 1707 C 165.309 1.46939 -1.42085 0
M  V30 1708 C 165.673 1.9198 -0.0280397 0
M  V30 1709 O 166.874 2.6865 0.0897504 0
M  V30 1710 C 165.145 2.64985 -2.39828 0
M  V30 1711 S 166.704 3.54147 -2.59085 0
M  V30 1712 H 163.522 0.502146 -0.503359 0
M  V30 1713 H 166.124 0.813546 -1.77769 0
M  V30 1714 H 164.828 2.30098 -3.39828 0
M  V30 1715 H 164.359 3.35464 -2.05493 0
M  V30 1716 H 166.374 4.60137 -1.85711 0
M  V30 1717 N 165.547 1.27147 0.931209 0
M  V30 1718 C 166.495 1.09398 2.05268 0
M  V30 1719 C 167.489 0.0180591 1.6939 0
M  V30 1720 O 168.695 0.17551 1.79142 0
M  V30 1721 H 165.07 0.336986 0.672268 0
M  V30 1722 H 167.041 2.04416 2.17386 0
M  V30 1723 C 165.79 0.75424 3.39421 0
M  V30 1724 H 165.113 1.57404 3.67511 0
M  V30 1725 H 166.553 0.669903 4.18674 0
M  V30 1726 C 165.012 -0.541197 3.32525 0
M  V30 1727 O 165.542 -1.57664 3.69466 0
M  V30 1728 N 163.748 -0.535517 2.85623 0
M  V30 1729 H 163.295 0.307511 2.55758 0
M  V30 1730 H 163.253 -1.40236 2.81392 0
M  V30 1731 N 167.025 -1.13721 1.09112 0
M  V30 1732 C 168.25 -1.89314 0.847053 0
M  V30 1733 C 168.675 -1.78416 -0.595774 0
M  V30 1734 O 168.033 -1.12942 -1.41823 0
M  V30 1735 C 168.081 -3.3701 1.28284 0
M  V30 1736 O 167.185 -4.10054 0.439267 0
M  V30 1737 H 166.526 -0.588745 0.307044 0
M  V30 1738 H 169.056 -1.43902 1.45442 0
M  V30 1739 H 169.066 -3.87834 1.26683 0
M  V30 1740 H 167.741 -3.4426 2.33363 0
M  V30 1741 H 166.318 -3.69266 0.519312 0
M  V30 1742 N 168.503 -0.877838 -1.30888 0
M  V30 1743 C 169.751 -0.491723 -1.96027 0
M  V30 1744 C 170.072 0.960827 -1.69685 0
M  V30 1745 O 169.342 1.67462 -1.01654 0
M  V30 1746 H 167.922 -0.17885 -0.725273 0
M  V30 1747 H 170.584 -1.11935 -1.59551 0
M  V30 1748 H 169.68 -0.656016 -3.05128 0
M  V30 1749 N 169.982 1.44106 -0.638065 0
M  V30 1750 C 171.212 2.06037 -0.152394 0
M  V30 1751 C 171.62 1.47808 1.18108 0
M  V30 1752 O 170.963 0.598092 1.73691 0
M  V30 1753 C 171.025 3.59488 0.0293714 0
M  V30 1754 C 170.689 4.4022 -1.22702 0
M  V30 1755 C 171.686 4.73256 -2.15232 0
M  V30 1756 C 169.371 4.8048 -1.46437 0
M  V30 1757 C 171.365 5.45444 -3.29802 0
M  V30 1758 C 169.052 5.52417 -2.61303 0
M  V30 1759 C 170.05 5.84819 -3.52811 0
M  V30 1760 O 169.738 6.55289 -4.65673 0
M  V30 1761 H 169.47 0.671233 -0.0801401 0
M  V30 1762 H 172.024 1.85851 -0.874563 0
M  V30 1763 H 170.254 3.78191 0.806758 0
M  V30 1764 H 171.943 4.03164 0.470475 0
M  V30 1765 H 172.709 4.42684 -1.98131 0
M  V30 1766 H 168.588 4.54676 -0.760977 0
M  V30 1767 H 172.132 5.70653 -4.01249 0
M  V30 1768 H 168.029 5.82404 -2.78344 0
M  V30 1769 H 168.797 6.73762 -4.64744 0
M  V30 1770 N 171.46 0.379036 1.52974 0
M  V30 1771 C 172.41 -0.477772 2.22938 0
M  V30 1772 C 173.394 -1.03792 1.22948 0
M  V30 1773 O 174.586 -0.965725 1.48333 0
M  V30 1774 C 171.715 -1.60994 3.03209 0
M  V30 1775 C 170.801 -1.06203 4.10587 0
M  V30 1776 N 171.192 -0.238214 5.05239 0
M  V30 1777 C 169.49 -1.33554 4.25534 0
M  V30 1778 C 170.191 0.0633235 5.81666 0
M  V30 1779 N 169.167 -0.537901 5.40932 0
M  V30 1780 H 172.969 0.158295 2.93473 0
M  V30 1781 H 170.483 0.187778 1.61311 0
M  V30 1782 H 172.48 -2.23607 3.5186 0
M  V30 1783 H 171.14 -2.24893 2.34207 0
M  V30 1784 H 172.151 0.123695 5.17752 0
M  V30 1785 H 168.828 -1.97632 3.6776 0
M  V30 1786 H 170.218 0.730161 6.67921 0
M  V30 1787 N 172.938 -1.57226 0.108567 0
M  V30 1788 C 173.868 -2.17778 -0.84232 0
M  V30 1789 C 174.849 -1.11487 -1.2847 0
M  V30 1790 O 176.034 -1.39681 -1.34918 0
M  V30 1791 C 173.164 -2.76888 -2.09644 0
M  V30 1792 C 172.118 -3.88669 -1.79221 0
M  V30 1793 C 171.444 -4.34541 -3.11574 0
M  V30 1794 C 172.744 -5.11251 -1.06864 0
M  V30 1795 H 174.438 -2.97489 -0.337774 0
M  V30 1796 H 171.984 -1.43097 -0.161025 0
M  V30 1797 H 173.937 -3.17904 -2.76614 0
M  V30 1798 H 172.661 -1.94451 -2.62405 0
M  V30 1799 H 171.32 -3.48213 -1.14644 0
M  V30 1800 H 170.968 -3.48977 -3.62249 0
M  V30 1801 H 170.668 -5.09914 -2.91996 0
M  V30 1802 H 172.192 -4.782 -3.7968 0
M  V30 1803 H 173.606 -5.49352 -1.63968 0
M  V30 1804 H 172.003 -5.9214 -0.974178 0
M  V30 1805 H 173.073 -4.8487 -0.0536168 0
M  V30 1806 N 174.416 0.165178 -1.56732 0
M  V30 1807 C 175.665 0.879143 -1.81532 0
M  V30 1808 C 175.978 1.83144 -0.686842 0
M  V30 1809 O 177.184 2.58823 -0.819944 0
M  V30 1810 C 175.64 1.61388 -3.21686 0
M  V30 1811 C 175.248 0.704904 -4.4242 0
M  V30 1812 C 176.992 2.3157 -3.55774 0
M  V30 1813 C 174.899 1.44022 -5.73595 0
M  V30 1814 H 173.829 0.332033 -0.676957 0
M  V30 1815 H 176.48 0.132008 -1.83025 0
M  V30 1816 H 174.862 2.40599 -3.14529 0
M  V30 1817 H 176.036 -0.0506815 -4.60772 0
M  V30 1818 H 174.351 0.112419 -4.16248 0
M  V30 1819 H 176.948 2.8719 -4.51028 0
M  V30 1820 H 177.291 3.07201 -2.8095 0
M  V30 1821 H 177.824 1.59297 -3.64513 0
M  V30 1822 H 174.563 0.72612 -6.51466 0
M  V30 1823 H 174.083 2.16898 -5.5921 0
M  V30 1824 H 175.762 1.98606 -6.15764 0
M  V30 1825 N 175.894 1.51508 0.433938 0
M  V30 1826 C 177.142 1.6402 1.18075 0
M  V30 1827 C 177.463 0.360328 1.91642 0
M  V30 1828 O 176.733 -0.623945 1.85698 0
M  V30 1829 H 175.313 0.6045 0.43885 0
M  V30 1830 H 177.975 1.88452 0.497178 0
M  V30 1831 H 177.071 2.46949 1.90847 0
M  V30 1832 N 177.372 -0.689602 1.41712 0
M  V30 1833 C 178.282 -1.83314 1.46401 0
M  V30 1834 C 179.298 -1.7036 0.35405 0
M  V30 1835 O 180.474 -1.92171 0.602692 0
M  V30 1836 C 177.539 -3.19344 1.34982 0
M  V30 1837 C 176.6 -3.44363 2.56344 0
M  V30 1838 C 175.833 -4.73904 2.45461 0
M  V30 1839 O 176.056 -5.508 1.48241 0
M  V30 1840 O 174.99 -4.99839 3.35328 0
M  V30 1841 H 178.816 -1.82314 2.42889 0
M  V30 1842 H 176.401 -0.843438 1.23315 0
M  V30 1843 H 178.283 -4.00547 1.3092 0
M  V30 1844 H 176.958 -3.21014 0.41612 0
M  V30 1845 H 175.865 -2.63067 2.65982 0
M  V30 1846 H 177.198 -3.47512 3.48563 0
M  V30 1847 N 178.85 -1.27639 -0.924453 0
M  V30 1848 C 180.075 -1.17101 -1.71179 0
M  V30 1849 C 180.5 0.268134 -1.86179 0
M  V30 1850 O 179.858 1.19415 -1.36418 0
M  V30 1851 C 179.906 -1.86313 -3.08739 0
M  V30 1852 O 179.01 -1.16331 -3.95652 0
M  V30 1853 H 178.351 -0.407091 -0.524569 0
M  V30 1854 H 180.881 -1.68767 -1.15666 0
M  V30 1855 H 180.891 -1.938 -3.59034 0
M  V30 1856 H 179.566 -2.91001 -2.97138 0
M  V30 1857 H 178.143 -1.16935 -3.54091 0
M  V30 1858 N 180.328 1.1314 -1.09713 0
M  V30 1859 C 181.275 2.18642 -0.739196 0
M  V30 1860 C 182.245 1.63706 0.280978 0
M  V30 1861 O 183.43 1.90111 0.161946 0
M  V30 1862 C 180.57 3.44685 -0.169102 0
M  V30 1863 C 179.683 4.13711 -1.24367 0
M  V30 1864 C 178.818 5.27379 -0.636019 0
M  V30 1865 C 177.857 5.88259 -1.69169 0
M  V30 1866 N 176.994 6.93352 -1.10485 0
M  V30 1867 H 181.834 2.48607 -1.64312 0
M  V30 1868 H 179.371 1.22066 -0.820875 0
M  V30 1869 H 181.329 4.16815 0.179256 0
M  V30 1870 H 179.959 3.15161 0.698079 0
M  V30 1871 H 179.011 3.39835 -1.70927 0
M  V30 1872 H 180.323 4.55037 -2.04311 0
M  V30 1873 H 179.477 6.06238 -0.236677 0
M  V30 1874 H 178.216 4.8731 0.194928 0
M  V30 1875 H 177.221 5.08092 -2.10055 0
M  V30 1876 H 178.446 6.30399 -2.52536 0
M  V30 1877 H 176.392 6.55335 -0.295234 0
M  V30 1878 H 176.309 7.33236 -1.84121 0
M  V30 1879 H 177.577 7.76057 -0.73181 0
M  V30 1880 N 181.806 0.884767 1.30421 0
M  V30 1881 C 183.031 0.517288 2.00845 0
M  V30 1882 C 183.456 -0.886779 1.65885 0
M  V30 1883 O 182.814 -1.58768 0.875354 0
M  V30 1884 C 182.862 0.698994 3.5376 0
M  V30 1885 O 181.966 -0.255208 4.1161 0
M  V30 1886 H 181.307 0.203872 0.631927 0
M  V30 1887 H 183.837 1.19225 1.66272 0
M  V30 1888 H 183.847 0.597912 4.03595 0
M  V30 1889 H 182.522 1.72271 3.78544 0
M  V30 1890 H 181.099 -0.10784 3.72744 0
M  V30 1891 N 183.284 -1.43765 0.645699 0
M  V30 1892 C 184.514 -2.05953 0.163318 0
M  V30 1893 C 184.922 -1.48432 -1.17322 0
M  V30 1894 O 184.265 -0.607295 -1.73371 0
M  V30 1895 C 184.327 -3.59499 -0.0103065 0
M  V30 1896 C 183.991 -4.39563 1.25035 0
M  V30 1897 C 184.988 -4.72108 2.17739 0
M  V30 1898 C 182.673 -4.79697 1.48983 0
M  V30 1899 C 184.667 -5.43688 3.3269 0
M  V30 1900 C 182.354 -5.51023 2.64229 0
M  V30 1901 C 183.352 -5.8294 3.55908 0
M  V30 1902 O 183.04 -6.5281 4.69142 0
M  V30 1903 H 182.772 -0.670798 0.0836986 0
M  V30 1904 H 185.326 -1.85384 0.884407 0
M  V30 1905 H 183.556 -3.78613 -0.78669 0
M  V30 1906 H 185.245 -4.03408 -0.449087 0
M  V30 1907 H 186.011 -4.41627 2.00476 0
M  V30 1908 H 181.89 -4.54266 0.785078 0
M  V30 1909 H 185.434 -5.68517 4.04269 0
M  V30 1910 H 181.331 -5.8092 2.81429 0
M  V30 1911 H 182.099 -6.71288 4.6831 0
M  V30 1912 N 184.763 -0.387143 -1.52771 0
M  V30 1913 C 186.003 0.195537 -2.03463 0
M  V30 1914 C 186.367 1.44222 -1.26744 0
M  V30 1915 O 187.568 2.10192 -1.67549 0
M  V30 1916 C 185.839 0.459097 -3.54439 0
M  V30 1917 S 187.398 1.01237 -4.26962 0
M  V30 1918 H 184.216 0.0552675 -0.708849 0
M  V30 1919 H 186.818 -0.534992 -1.88037 0
M  V30 1920 H 185.522 -0.455382 -4.07866 0
M  V30 1921 H 185.053 1.21811 -3.74066 0
M  V30 1922 H 187.068 2.29492 -4.39941 0
M  V30 1923 N 186.241 1.57166 -0.116904 0
M  V30 1924 C 187.151 2.18745 0.847812 0
M  V30 1925 C 188.167 1.163 1.29423 0
M  V30 1926 O 189.343 1.48761 1.35765 0
M  V30 1927 C 186.408 2.77307 2.0809 0
M  V30 1928 C 185.469 3.94781 1.68661 0
M  V30 1929 C 184.702 4.50541 2.86091 0
M  V30 1930 O 184.925 4.05202 4.01456 0
M  V30 1931 O 183.859 5.41256 2.63298 0
M  V30 1932 H 187.685 3.01632 0.353778 0
M  V30 1933 H 185.27 1.49005 0.108599 0
M  V30 1934 H 187.152 3.14647 2.80313 0
M  V30 1935 H 185.827 1.97452 2.56504 0
M  V30 1936 H 184.734 3.62214 0.935518 0
M  V30 1937 H 186.067 4.76065 1.24991 0
M  V30 1938 N 187.719 -0.156864 1.56817 0
M  V30 1939 C 188.649 -1.19589 2.00551 0
M  V30 1940 C 189.63 -1.4536 0.883426 0
M  V30 1941 O 190.815 -1.56449 1.15054 0
M  V30 1942 C 187.945 -2.53143 2.37773 0
M  V30 1943 C 186.899 -2.41913 3.53075 0
M  V30 1944 C 186.225 -3.80088 3.76081 0
M  V30 1945 C 187.525 -1.91157 4.86062 0
M  V30 1946 H 189.219 -0.832293 2.87599 0
M  V30 1947 H 186.765 -0.398918 1.38364 0
M  V30 1948 H 188.718 -3.26047 2.66967 0
M  V30 1949 H 187.442 -2.91319 1.4765 0
M  V30 1950 H 186.101 -1.71462 3.24031 0
M  V30 1951 H 185.749 -4.15683 2.83225 0
M  V30 1952 H 185.449 -3.73439 4.53671 0
M  V30 1953 H 186.973 -4.54556 4.0769 0
M  V30 1954 H 188.387 -2.53846 5.14038 0
M  V30 1955 H 186.784 -1.95422 5.67389 0
M  V30 1956 H 187.854 -0.866673 4.77092 0
M  V30 1957 N 189.197 -1.51736 -0.425897 0
M  V30 1958 C 190.445 -1.64644 -1.17204 0
M  V30 1959 C 190.766 -0.370486 -1.91448 0
M  V30 1960 O 190.036 0.614088 -1.86026 0
M  V30 1961 H 188.616 -0.606819 -0.435638 0
M  V30 1962 H 191.278 -1.88713 -0.487177 0
M  V30 1963 H 190.374 -2.47958 -1.89534 0
M  V30 1964 N 190.675 0.682077 -1.42076 0
M  V30 1965 C 191.9 1.47558 -1.45744 0
M  V30 1966 C 192.325 1.87977 -0.0680981 0
M  V30 1967 O 191.683 1.55522 0.9318 0
M  V30 1968 C 191.731 2.70575 -2.38373 0
M  V30 1969 O 190.835 3.68573 -1.85007 0
M  V30 1970 H 190.176 0.443585 -0.494093 0
M  V30 1971 H 192.706 0.837238 -1.86686 0
M  V30 1972 H 192.716 3.18729 -2.54707 0
M  V30 1973 H 191.391 2.40495 -3.39315 0
M  V30 1974 H 189.968 3.2757 -1.78192 0
M  V30 1975 N 192.153 1.28127 0.917671 0
M  V30 1976 C 193.381 1.17892 1.70026 0
M  V30 1977 C 193.796 -0.262958 1.8696 0
M  V30 1978 O 193.153 -1.17811 1.3938 0
M  V30 1979 C 193.204 1.86872 3.09453 0
M  V30 1980 O 192.925 3.25428 2.93306 0
M  V30 1981 C 194.426 1.8289 4.03815 0
M  V30 1982 H 191.646 0.40942 0.531617 0
M  V30 1983 H 194.19 1.69181 1.14883 0
M  V30 1984 H 192.345 1.39464 3.61426 0
M  V30 1985 H 192.759 3.59918 3.81523 0
M  V30 1986 H 194.233 2.35751 4.99125 0
M  V30 1987 H 194.71 0.800412 4.31845 0
M  V30 1988 H 195.316 2.29959 3.57769 0
M  V30 1989 N 193.631 -1.12557 1.10312 0
M  V30 1990 C 194.879 -1.83675 0.843091 0
M  V30 1991 C 195.2 -1.84435 -0.633131 0
M  V30 1992 O 194.47 -1.30657 -1.45964 0
M  V30 1993 H 193.05 -0.680138 0.308904 0
M  V30 1994 H 195.712 -1.36301 1.39313 0
M  V30 1995 H 194.808 -2.87908 1.2048 0
M  V30 1996 N 195.109 -0.891671 -1.2995 0
M  V30 1997 C 196.334 -0.527932 -2.00568 0
M  V30 1998 C 196.759 0.877969 -1.66353 0
M  V30 1999 O 196.117 1.58301 -0.883762 0
M  V30 2000 C 196.165 -0.717745 -3.53385 0
M  V30 2001 O 195.269 0.233376 -4.11739 0
M  V30 2002 H 194.61 -0.20722 -0.630837 0
M  V30 2003 H 197.14 -1.20105 -1.65638 0
M  V30 2004 H 197.15 -0.619307 -4.03272 0
M  V30 2005 H 195.825 -1.74276 -3.77625 0
M  V30 2006 H 194.402 0.0880706 -3.72796 0
M  V30 2007 N 196.587 1.43421 -0.653314 0
M  V30 2008 C 197.52 2.2803 0.0879804 0
M  V30 2009 C 198.498 1.39833 0.82979 0
M  V30 2010 O 199.682 1.69275 0.829341 0
M  V30 2011 C 196.809 3.19247 1.13132 0
M  V30 2012 C 195.855 4.23704 0.487546 0
M  V30 2013 S 196.688 5.30377 -0.738961 0
M  V30 2014 C 197.844 6.25162 0.30384 0
M  V30 2015 H 198.077 2.90554 -0.629739 0
M  V30 2016 H 195.61 1.47934 -0.442156 0
M  V30 2017 H 197.568 3.72346 1.72827 0
M  V30 2018 H 196.229 2.55901 1.82136 0
M  V30 2019 H 195.422 4.87631 1.27407 0
M  V30 2020 H 195.024 3.73983 -0.0352915 0
M  V30 2021 H 197.316 6.67321 1.17 0
M  V30 2022 H 198.259 7.07463 -0.300402 0
M  V30 2023 H 198.667 5.60864 0.63969 0
M  V30 2024 N 198.065 0.39524 1.52563 0
M  V30 2025 C 199.311 -0.185318 2.01952 0
M  V30 2026 C 199.644 -1.45964 1.28095 0
M  V30 2027 O 198.919 -1.90689 0.38315 0
M  V30 2028 C 199.202 -0.447193 3.57312 0
M  V30 2029 C 199.055 0.842828 4.41833 0
M  V30 2030 C 200.374 -1.23529 4.22408 0
M  V30 2031 H 197.493 -0.0658788 0.73405 0
M  V30 2032 H 200.135 0.525975 1.82575 0
M  V30 2033 H 198.285 -1.05312 3.73954 0
M  V30 2034 H 199.957 1.4795 4.36931 0
M  V30 2035 H 198.2 1.45686 4.08605 0
M  V30 2036 H 198.871 0.614165 5.48573 0
M  V30 2037 H 201.347 -0.722445 4.0978 0
M  V30 2038 H 200.223 -1.38727 5.3108 0
M  V30 2039 H 200.484 -2.25213 3.80436 0
M  V30 2040 N 199.544 -1.57102 0.125237 0
M  V30 2041 C 200.79 -1.96488 -0.525753 0
M  V30 2042 C 201.145 -1.00786 -1.6389 0
M  V30 2043 O 200.438 -0.038979 -1.9156 0
M  V30 2044 C 200.632 -3.40096 -1.09862 0
M  V30 2045 C 200.461 -4.4968 -0.0425004 0
M  V30 2046 C 199.231 -5.03781 0.391463 0
M  V30 2047 C 201.429 -5.08936 0.740829 0
M  V30 2048 N 199.411 -5.96948 1.4327 0
M  V30 2049 C 200.782 -5.98105 1.6331 0
M  V30 2050 C 202.837 -4.91576 0.791029 0
M  V30 2051 C 201.54 -6.71774 2.57122 0
M  V30 2052 C 203.566 -5.6593 1.71688 0
M  V30 2053 C 202.928 -6.5479 2.59672 0
M  V30 2054 H 199.027 -0.765072 -0.161831 0
M  V30 2055 H 201.611 -1.93511 0.214801 0
M  V30 2056 H 199.782 -3.43707 -1.80887 0
M  V30 2057 H 201.514 -3.66591 -1.71444 0
M  V30 2058 H 198.269 -4.736 -0.00213584 0
M  V30 2059 H 198.693 -6.48236 1.95243 0
M  V30 2060 H 203.335 -4.22615 0.124915 0
M  V30 2061 H 201.053 -7.39977 3.24744 0
M  V30 2062 H 204.639 -5.54501 1.76125 0
M  V30 2063 H 203.519 -7.11316 3.30149 0
M  V30 2064 N 201.022 0.148545 -1.56898 0
M  V30 2065 C 201.97 1.20265 -1.99096 0
M  V30 2066 C 202.964 1.44559 -0.883123 0
M  V30 2067 O 204.17 1.4487 -1.0683 0
M  V30 2068 H 200.545 0.404786 -0.63376 0
M  V30 2069 H 202.516 0.82004 -2.86911 0
M  V30 2070 C 201.265 2.52886 -2.3863 0
M  V30 2071 H 200.588 2.35021 -3.23427 0
M  V30 2072 H 202.028 3.25274 -2.7198 0
M  V30 2073 C 200.487 3.13315 -1.23837 0
M  V30 2074 O 201.017 3.98077 -0.538268 0
M  V30 2075 N 199.223 2.72742 -1.00301 0
M  V30 2076 H 198.77 2.03912 -1.5741 0
M  V30 2077 H 198.728 3.13507 -0.236838 0
M  V30 2078 N 202.5 1.5196 0.417844 0
M  V30 2079 C 203.911 1.57851 0.997 0
M  V30 2080 C 204.262 0.413714 1.91789 0
M  V30 2081 O 203.387 -0.467057 2.113 0
M  V30 2082 C 203.982 2.86085 1.81496 0
M  V30 2083 C 202.541 2.94483 2.34428 0
M  V30 2084 C 201.688 2.52707 1.14169 0
M  V30 2085 H 204.639 1.57455 0.198392 0
M  V30 2086 H 204.66 2.70947 2.67148 0
M  V30 2087 H 204.172 3.70842 1.14446 0
M  V30 2088 H 202.273 2.142 3.04875 0
M  V30 2089 H 202.386 3.98546 2.65891 0
M  V30 2090 H 200.75 2.06353 1.49301 0
M  V30 2091 H 201.533 3.39828 0.486999 0
M  V30 2092 N 203.978 -0.674533 1.42435 0
M  V30 2093 C 204.888 -1.81751 1.48337 0
M  V30 2094 C 205.904 -1.69975 0.372099 0
M  V30 2095 O 207.08 -1.91521 0.62304 0
M  V30 2096 C 204.145 -3.17895 1.38361 0
M  V30 2097 C 203.206 -3.41625 2.59982 0
M  V30 2098 C 202.439 -4.71274 2.50473 0
M  V30 2099 O 202.662 -5.49197 1.54075 0
M  V30 2100 O 201.596 -4.96254 3.4061 0
M  V30 2101 H 205.422 -1.79728 2.44809 0
M  V30 2102 H 203.007 -0.830312 1.24202 0
M  V30 2103 H 204.889 -3.99136 1.35161 0
M  V30 2104 H 203.564 -3.20555 0.450144 0
M  V30 2105 H 202.471 -2.60231 2.68757 0
M  V30 2106 H 203.804 -3.43796 3.52229 0
M  V30 2107 N 205.456 -1.28612 -0.910864 0
M  V30 2108 C 206.419 -1.12803 -1.9952 0
M  V30 2109 C 207.419 -0.0668264 -1.60661 0
M  V30 2110 O 208.609 -0.312847 -1.71368 0
M  V30 2111 C 205.741 -0.72254 -3.33155 0
M  V30 2112 H 206.934 -2.09109 -2.14973 0
M  V30 2113 H 204.487 -1.11639 -1.09391 0
M  V30 2114 H 205.222 0.241152 -3.23402 0
M  V30 2115 H 205.007 -1.48916 -3.62721 0
M  V30 2116 H 206.497 -0.634666 -4.12749 0
M  V30 2117 N 206.934 1.1197 -1.10907 0
M  V30 2118 C 208.345 1.65114 -0.871446 0
M  V30 2119 C 208.696 1.86885 0.597353 0
M  V30 2120 O 207.821 1.59896 1.45816 0
M  V30 2121 C 208.416 2.99944 -1.5754 0
M  V30 2122 C 206.975 3.50018 -1.38435 0
M  V30 2123 C 206.122 2.24941 -1.62164 0
M  V30 2124 H 209.073 0.956851 -1.2661 0
M  V30 2125 H 209.094 3.66651 -1.01721 0
M  V30 2126 H 208.606 2.84067 -2.64438 0
M  V30 2127 H 206.707 3.71071 -0.337214 0
M  V30 2128 H 206.82 4.29165 -2.12965 0
M  V30 2129 H 205.184 2.3229 -1.04467 0
M  V30 2130 H 205.967 2.11612 -2.70324 0
M  V30 2131 N 208.412 0.89855 1.29475 0
M  V30 2132 C 209.661 0.519863 1.94885 0
M  V30 2133 C 209.974 -0.9383 1.71625 0
M  V30 2134 O 211.18 -1.42445 2.31131 0
M  V30 2135 C 209.636 0.878836 3.49005 0
M  V30 2136 C 209.244 2.35569 3.81066 0
M  V30 2137 C 210.988 0.570004 4.20656 0
M  V30 2138 C 208.895 2.65558 5.28425 0
M  V30 2139 H 207.825 0.190692 0.729488 0
M  V30 2140 H 210.476 1.09539 1.47219 0
M  V30 2141 H 208.858 0.232253 3.95318 0
M  V30 2142 H 210.032 3.04773 3.45616 0
M  V30 2143 H 208.347 2.63343 3.22552 0
M  V30 2144 H 210.944 0.770925 5.29113 0
M  V30 2145 H 211.287 -0.491404 4.1339 0
M  V30 2146 H 211.82 1.17438 3.8007 0
M  V30 2147 H 208.559 3.70493 5.40754 0
M  V30 2148 H 208.079 2.00977 5.65127 0
M  V30 2149 H 209.758 2.51765 5.96006 0
M  V30 2150 N 209.89 -1.43072 0.660911 0
M  V30 2151 C 211.13 -2.03596 0.181146 0
M  V30 2152 C 211.494 -1.51057 -1.18515 0
M  V30 2153 O 212.695 -2.03275 -1.75877 0
M  V30 2154 C 210.966 -3.56845 0.19911 0
M  V30 2155 S 212.525 -4.38289 -0.211684 0
M  V30 2156 H 209.343 -0.706954 0.0757479 0
M  V30 2157 H 211.945 -1.75027 0.870965 0
M  V30 2158 H 210.649 -3.92583 1.1961 0
M  V30 2159 H 210.18 -3.90067 -0.510996 0
M  V30 2160 H 212.195 -4.74583 -1.44863 0
M  V30 2161 N 211.368 -0.403325 -1.52352 0
M  V30 2162 C 212.278 0.432009 -2.30588 0
M  V30 2163 C 213.294 1.05884 -1.38075 0
M  V30 2164 O 214.47 1.06161 -1.71148 0
M  V30 2165 C 211.535 1.53669 -3.10784 0
M  V30 2166 C 210.596 0.933525 -4.19027 0
M  V30 2167 C 209.829 1.98557 -4.9539 0
M  V30 2168 O 210.052 3.20283 -4.71991 0
M  V30 2169 O 208.986 1.59504 -5.80381 0
M  V30 2170 H 212.812 -0.205739 -3.03002 0
M  V30 2171 H 210.397 -0.166675 -1.48467 0
M  V30 2172 H 212.279 2.17814 -3.60742 0
M  V30 2173 H 210.954 2.15915 -2.41169 0
M  V30 2174 H 209.861 0.254954 -3.7323 0
M  V30 2175 H 211.194 0.35508 -4.90918 0
M  V30 2176 N 212.846 1.57033 -0.133567 0
M  V30 2177 C 214.071 2.00475 0.531477 0
M  V30 2178 C 214.496 1.01291 1.58499 0
M  V30 2179 O 213.854 -0.0133279 1.81295 0
M  V30 2180 C 213.902 3.42729 1.12113 0
M  V30 2181 O 213.006 3.46498 2.23636 0
M  V30 2182 H 212.347 0.650876 0.131362 0
M  V30 2183 H 214.877 2.03344 -0.22634 0
M  V30 2184 H 214.887 3.81246 1.4531 0
M  V30 2185 H 213.562 4.14428 0.349557 0
M  V30 2186 H 212.139 3.19811 1.91769 0
M  V30 2187 N 214.325 -0.140222 1.56975 0
M  V30 2188 C 215.571 -0.852949 1.83991 0
M  V30 2189 C 215.904 -1.80512 0.716187 0
M  V30 2190 O 215.179 -1.92479 -0.279681 0
M  V30 2191 C 215.462 -1.6215 3.21527 0
M  V30 2192 C 215.315 -0.690363 4.4447 0
M  V30 2193 C 216.634 -2.58247 3.56366 0
M  V30 2194 H 213.753 -0.308634 0.669264 0
M  V30 2195 H 216.395 -0.117898 1.89634 0
M  V30 2196 H 214.545 -2.24812 3.16847 0
M  V30 2197 H 216.217 -0.0742264 4.6124 0
M  V30 2198 H 214.46 -0.000396433 4.338 0
M  V30 2199 H 215.131 -1.2643 5.37326 0
M  V30 2200 H 217.607 -2.05701 3.61699 0
M  V30 2201 H 216.483 -3.09067 4.53617 0
M  V30 2202 H 216.744 -3.39923 2.82674 0
M  V30 2203 N 215.803 -1.52179 -0.40978 0
M  V30 2204 C 216.75 -1.75475 -1.49924 0
M  V30 2205 C 217.72 -0.597175 -1.54994 0
M  V30 2206 O 218.905 -0.834655 -1.71575 0
M  V30 2207 C 216.045 -1.9107 -2.87378 0
M  V30 2208 C 215.158 -3.18717 -2.91622 0
M  V30 2209 C 214.293 -3.24747 -4.20372 0
M  V30 2210 C 213.332 -4.46598 -4.18588 0
M  V30 2211 N 212.469 -4.50025 -5.38908 0
M  V30 2212 H 217.309 -2.68458 -1.29361 0
M  V30 2213 H 214.846 -1.33024 -0.627934 0
M  V30 2214 H 216.804 -1.98096 -3.6717 0
M  V30 2215 H 215.434 -1.01469 -3.06437 0
M  V30 2216 H 214.486 -3.20866 -2.04326 0
M  V30 2217 H 215.798 -4.08544 -2.86169 0
M  V30 2218 H 214.952 -3.30841 -5.08556 0
M  V30 2219 H 213.691 -2.32857 -4.28519 0
M  V30 2220 H 212.696 -4.40652 -3.28794 0
M  V30 2221 H 213.921 -5.39783 -4.12081 0
M  V30 2222 H 211.867 -3.61017 -5.47725 0
M  V30 2223 H 211.784 -5.33697 -5.35447 0
M  V30 2224 H 213.052 -4.60347 -6.29048 0
M  V30 2225 N 217.281 0.66697 -1.42791 0
M  V30 2226 C 218.521 1.43892 -1.4517 0
M  V30 2227 C 218.885 1.91877 -0.0687551 0
M  V30 2228 O 220.086 2.6878 0.0327455 0
M  V30 2229 C 218.357 2.59839 -2.45395 0
M  V30 2230 S 219.916 3.48572 -2.66539 0
M  V30 2231 H 216.734 0.491356 -0.513897 0
M  V30 2232 H 219.336 0.775656 -1.79454 0
M  V30 2233 H 218.04 2.22838 -3.44632 0
M  V30 2234 H 217.571 3.3103 -2.12562 0
M  V30 2235 H 219.586 4.56094 -1.95429 0
M  V30 2236 N 218.759 1.29093 0.90403 0
M  V30 2237 C 219.691 1.09658 2.01266 0
M  V30 2238 C 220.704 0.0453729 1.62737 0
M  V30 2239 O 221.893 0.289446 1.76138 0
M  V30 2240 C 218.993 0.646278 3.32681 0
M  V30 2241 C 218.166 1.77505 3.99763 0
M  V30 2242 C 217.225 1.31649 5.09465 0
M  V30 2243 O 216.251 2.02045 5.32134 0
M  V30 2244 N 217.453 0.184997 5.80205 0
M  V30 2245 H 220.218 2.05135 2.18494 0
M  V30 2246 H 217.779 1.20975 1.07594 0
M  V30 2247 H 219.771 0.322906 4.0341 0
M  V30 2248 H 218.341 -0.215916 3.11853 0
M  V30 2249 H 217.561 2.26752 3.22455 0
M  V30 2250 H 218.849 2.53198 4.41325 0
M  V30 2251 H 218.247 -0.402021 5.6427 0
M  V30 2252 H 216.804 -0.0790358 6.51752 0
M  V30 2253 N 220.237 -1.11381 1.11499 0
M  V30 2254 C 221.462 -1.87475 0.887019 0
M  V30 2255 C 221.887 -1.79639 -0.557796 0
M  V30 2256 O 221.245 -1.15924 -1.39396 0
M  V30 2257 C 221.293 -3.34213 1.35403 0
M  V30 2258 O 220.397 -4.0903 0.526146 0
M  V30 2259 H 219.738 -0.582099 0.319463 0
M  V30 2260 H 222.268 -1.40785 1.48461 0
M  V30 2261 H 222.278 -3.8506 1.34881 0
M  V30 2262 H 220.953 -3.39232 2.40612 0
M  V30 2263 H 219.53 -3.68082 0.597522 0
M  V30 2264 N 221.715 -0.905404 -1.28997 0
M  V30 2265 C 223.126 -0.581953 -1.77398 0
M  V30 2266 C 223.477 0.902552 -1.74208 0
M  V30 2267 O 222.602 1.70584 -1.33154 0
M  V30 2268 C 223.197 -1.04961 -3.22131 0
M  V30 2269 C 221.756 -0.777229 -3.68288 0
M  V30 2270 C 220.903 -1.22109 -2.48967 0
M  V30 2271 H 223.854 -1.08754 -1.15578 0
M  V30 2272 H 223.875 -0.387387 -3.78523 0
M  V30 2273 H 223.387 -2.13008 -3.24421 0
M  V30 2274 H 221.488 0.290383 -3.71467 0
M  V30 2275 H 221.601 -1.37911 -4.58822 0
M  V30 2276 H 219.965 -0.639971 -2.46529 0
M  V30 2277 H 220.748 -2.30972 -2.53982 0
M  V30 2278 N 223.193 1.4272 -0.668489 0
M  V30 2279 C 224.604 1.84793 -0.266151 0
M  V30 2280 C 224.955 1.55959 1.19043 0
M  V30 2281 O 224.08 1.01622 1.91055 0
M  V30 2282 C 224.675 3.35436 -0.476271 0
M  V30 2283 C 223.234 3.76182 -0.128113 0
M  V30 2284 C 222.381 2.66344 -0.771777 0
M  V30 2285 H 225.332 1.32656 -0.871098 0
M  V30 2286 H 225.353 3.79515 0.273561 0
M  V30 2287 H 224.865 3.5639 -1.53647 0
M  V30 2288 H 222.966 3.60836 0.928891 0
M  V30 2289 H 223.079 4.75766 -0.564231 0
M  V30 2290 H 221.443 2.53885 -0.203652 0
M  V30 2291 H 222.226 2.90123 -1.83531 0
M  V30 2292 N 224.671 0.411399 1.52136 0
M  V30 2293 C 225.896 -0.165538 2.06738 0
M  V30 2294 C 226.321 -1.379 1.27926 0
M  V30 2295 O 225.679 -1.78628 0.310114 0
M  V30 2296 C 225.727 -0.492124 3.57226 0
M  V30 2297 O 224.831 -1.58276 3.80818 0
M  V30 2298 H 224.172 -0.0132132 0.663869 0
M  V30 2299 H 226.702 0.585253 1.96051 0
M  V30 2300 H 226.712 -0.750104 4.01045 0
M  V30 2301 H 225.387 0.394922 4.14021 0
M  V30 2302 H 223.964 -1.31677 3.48877 0
M  V30 2303 N 226.149 -1.5696 0.141893 0
M  V30 2304 C 227.398 -1.95135 -0.510427 0
M  V30 2305 C 227.711 -1.02896 -1.66348 0
M  V30 2306 O 228.917 -1.30629 -2.38009 0
M  V30 2307 C 227.373 -3.46876 -0.959427 0
M  V30 2308 C 226.981 -4.47691 0.166419 0
M  V30 2309 C 228.725 -3.93927 -1.58183 0
M  V30 2310 C 226.632 -5.90636 -0.300565 0
M  V30 2311 H 225.562 -0.728494 -0.194454 0
M  V30 2312 H 228.213 -1.8211 0.22542 0
M  V30 2313 H 226.595 -3.55215 -1.75038 0
M  V30 2314 H 227.769 -4.51043 0.94325 0
M  V30 2315 H 226.084 -4.10527 0.696905 0
M  V30 2316 H 228.681 -4.98158 -1.94275 0
M  V30 2317 H 229.024 -3.3519 -2.46888 0
M  V30 2318 H 229.557 -3.88484 -0.855863 0
M  V30 2319 H 226.296 -6.5318 0.550989 0
M  V30 2320 H 225.816 -5.90655 -1.04338 0
M  V30 2321 H 227.495 -6.42588 -0.754265 0
M  V30 2322 N 227.627 0.131896 -1.57047 0
M  V30 2323 C 228.852 0.860418 -1.8871 0
M  V30 2324 C 229.277 1.73251 -0.73251 0
M  V30 2325 O 228.635 1.785 0.317429 0
M  V30 2326 C 228.683 1.68047 -3.19049 0
M  V30 2327 O 227.787 2.7862 -3.04047 0
M  V30 2328 H 227.128 0.238743 -0.619595 0
M  V30 2329 H 229.658 0.118169 -2.04258 0
M  V30 2330 H 229.668 2.07238 -3.51449 0
M  V30 2331 H 228.343 1.04018 -4.02682 0
M  V30 2332 H 226.92 2.42726 -2.83088 0
M  V30 2333 N 229.106 1.52395 0.401703 0
M  V30 2334 C 230.054 1.7689 1.51039 0
M  V30 2335 C 231.048 0.636298 1.56996 0
M  V30 2336 O 232.254 0.818507 1.60314 0
M  V30 2337 H 228.629 0.559502 0.502456 0
M  V30 2338 H 230.6 2.69757 1.27568 0
M  V30 2339 C 229.349 1.94331 2.88324 0
M  V30 2340 H 228.672 2.80905 2.84486 0
M  V30 2341 H 230.112 2.15466 3.65172 0
M  V30 2342 C 228.571 0.712396 3.29282 0
M  V30 2343 O 229.101 -0.116218 4.01532 0
M  V30 2344 N 227.307 0.546154 2.85422 0
M  V30 2345 H 226.854 1.22156 2.26794 0
M  V30 2346 H 226.812 -0.276113 3.13185 0
M  V30 2347 N 230.584 -0.659388 1.43143 0
M  V30 2348 C 231.832 -1.41654 1.44147 0
M  V30 2349 C 232.153 -1.94893 0.0645739 0
M  V30 2350 O 231.423 -1.74044 -0.899198 0
M  V30 2351 H 230.003 -0.525708 0.530697 0
M  V30 2352 H 232.665 -0.778097 1.78694 0
M  V30 2353 H 231.761 -2.26195 2.1504 0
M  V30 2354 N 232.062 -1.29571 -0.897171 0
M  V30 2355 C 233.478 -1.07637 -1.17841 0
M  V30 2356 C 233.678 0.170713 -2.00776 0
M  V30 2357 O 232.734 0.867768 -2.3712 0
M  V30 2358 C 234.047 -2.3332 -1.8969 0
M  V30 2359 C 235.595 -2.38664 -2.02505 0
M  V30 2360 C 236.07 -3.64157 -2.77765 0
M  V30 2361 N 237.561 -3.64894 -2.85318 0
M  V30 2362 C 238.296 -4.58679 -3.44094 0
M  V30 2363 N 237.792 -5.62799 -4.04017 0
M  V30 2364 N 239.585 -4.46245 -3.41793 0
M  V30 2365 H 231.736 -2.09598 -0.343883 0
M  V30 2366 H 233.999 -0.923333 -0.214848 0
M  V30 2367 H 233.705 -3.24262 -1.36187 0
M  V30 2368 H 233.579 -2.41025 -2.9015 0
M  V30 2369 H 235.966 -1.48208 -2.55183 0
M  V30 2370 H 236.047 -2.34943 -1.01171 0
M  V30 2371 H 235.691 -4.54965 -2.25763 0
M  V30 2372 H 235.621 -3.65137 -3.7945 0
M  V30 2373 H 238.112 -2.89613 -2.42761 0
M  V30 2374 H 238.425 -6.3048 -4.46895 0
M  V30 2375 H 236.77 -5.66605 -4.02472 0
M  V30 2376 H 239.961 -3.64094 -2.94199 0
M  V30 2377 H 240.134 -5.19518 -3.87304 0
M  V30 2378 N 233.54 1.10788 -1.12088 0
M  V30 2379 C 234.49 2.15158 -0.754401 0
M  V30 2380 C 235.474 1.59026 0.244846 0
M  V30 2381 O 236.666 1.76927 0.0509097 0
M  V30 2382 C 233.795 3.42677 -0.206657 0
M  V30 2383 C 232.881 4.05751 -1.23398 0
M  V30 2384 N 233.272 4.43582 -2.43041 0
M  V30 2385 C 231.57 4.32764 -1.07848 0
M  V30 2386 C 232.271 4.93085 -3.08613 0
M  V30 2387 N 231.247 4.89664 -2.36072 0
M  V30 2388 H 235.049 2.42195 -1.6649 0
M  V30 2389 H 232.563 1.27872 -1.00112 0
M  V30 2390 H 234.56 4.16834 0.0740646 0
M  V30 2391 H 233.22 3.17101 0.698342 0
M  V30 2392 H 234.231 4.35395 -2.80449 0
M  V30 2393 H 230.908 4.16863 -0.230483 0
M  V30 2394 H 232.298 5.31933 -4.10483 0
M  V30 2395 N 235.018 0.912232 1.28515 0
M  V30 2396 C 235.966 0.389597 2.29314 0
M  V30 2397 C 236.96 -0.517915 1.61289 0
M  V30 2398 O 238.166 -0.399328 1.75515 0
M  V30 2399 H 234.541 0.107386 0.744293 0
M  V30 2400 H 236.512 1.25286 2.70825 0
M  V30 2401 C 235.261 -0.356496 3.45868 0
M  V30 2402 H 234.584 0.332608 3.98414 0
M  V30 2403 H 236.024 -0.686851 4.184 0
M  V30 2404 C 234.483 -1.56383 2.98406 0
M  V30 2405 O 235.013 -2.66294 3.00749 0
M  V30 2406 N 233.219 -1.41029 2.54085 0
M  V30 2407 H 232.766 -0.516089 2.52377 0
M  V30 2408 H 232.724 -2.21939 2.22689 0
M  V30 2409 N 236.496 -1.42363 0.676048 0
M  V30 2410 C 237.744 -2.01123 0.198437 0
M  V30 2411 C 238.065 -1.53731 -1.19966 0
M  V30 2412 O 237.335 -0.759518 -1.80577 0
M  V30 2413 H 235.915 -0.743678 0.0703721 0
M  V30 2414 H 238.577 -1.74263 0.872837 0
M  V30 2415 H 237.673 -3.11454 0.200686 0
M  V30 2416 N 237.974 -0.419461 -1.51915 0
M  V30 2417 C 239.204 0.151915 -2.06041 0
M  V30 2418 C 239.612 1.38539 -1.28855 0
M  V30 2419 O 238.955 1.80592 -0.336463 0
M  V30 2420 C 239.017 0.557119 -3.55157 0
M  V30 2421 C 238.681 -0.567054 -4.53468 0
M  V30 2422 C 239.678 -1.43379 -4.99738 0
M  V30 2423 C 237.363 -0.742693 -4.96779 0
M  V30 2424 C 239.357 -2.46102 -5.87973 0
M  V30 2425 C 237.044 -1.77322 -5.84808 0
M  V30 2426 C 238.042 -2.63078 -6.30301 0
M  V30 2427 O 237.73 -3.64364 -7.16585 0
M  V30 2428 H 237.462 0.0193293 -0.675724 0
M  V30 2429 H 240.016 -0.592073 -1.96682 0
M  V30 2430 H 238.246 1.35355 -3.62238 0
M  V30 2431 H 239.935 1.05759 -3.9188 0
M  V30 2432 H 240.701 -1.30954 -4.66986 0
M  V30 2433 H 236.58 -0.0848307 -4.60922 0
M  V30 2434 H 240.124 -3.13071 -6.23404 0
M  V30 2435 H 236.021 -1.89773 -6.16974 0
M  V30 2436 H 236.789 -3.60731 -7.34721 0
M  V30 2437 N 239.452 1.56882 -0.150215 0
M  V30 2438 C 240.362 2.20494 0.801222 0
M  V30 2439 C 241.378 1.19019 1.26927 0
M  V30 2440 O 242.554 1.51607 1.32579 0
M  V30 2441 C 239.619 2.81659 2.02161 0
M  V30 2442 C 238.68 3.9827 1.60249 0
M  V30 2443 C 237.913 4.56508 2.7647 0
M  V30 2444 O 238.136 4.13627 3.92771 0
M  V30 2445 O 237.07 5.46719 2.51757 0
M  V30 2446 H 240.896 3.02315 0.289717 0
M  V30 2447 H 238.481 1.49202 0.0769684 0
M  V30 2448 H 240.363 3.20522 2.73576 0
M  V30 2449 H 239.038 2.02849 2.52258 0
M  V30 2450 H 237.945 3.64117 0.858477 0
M  V30 2451 H 239.278 4.78609 1.14864 0
M  V30 2452 N 240.93 -0.123565 1.57115 0
M  V30 2453 C 242.207 -0.862196 1.75572 0
M  V30 2454 C 242.587 -1.98279 0.724475 0
M  V30 2455 O 241.935 -2.27102 -0.252407 0
M  V30 2456 C 242.145 -1.38309 3.20424 0
M  V30 2457 C 243.493 -1.83724 3.82793 0
M  V30 2458 O 244.517 -1.47999 3.23998 0
M  V30 2459 O 243.376 -2.49685 4.86127 0
M  V30 2460 H 240.47 -0.409113 0.718718 0
M  V30 2461 H 243.016 -0.107661 1.69358 0
M  V30 2462 H 241.788 -0.578889 3.86994 0
M  V30 2463 H 241.411 -2.20046 3.31158 0
M  V30 2464 N 242.408 -1.52605 -0.393616 0
M  V30 2465 C 243.655 -1.67424 -1.1391 0
M  V30 2466 C 243.983 -0.411859 -1.90089 0
M  V30 2467 O 243.238 0.605626 -1.86093 0
M  V30 2468 C 243.537 -2.85721 -2.14705 0
M  V30 2469 C 243.203 -4.23342 -1.55218 0
M  V30 2470 C 241.865 -4.60771 -1.3872 0
M  V30 2471 C 244.217 -5.09041 -1.11924 0
M  V30 2472 C 241.545 -5.81563 -0.774689 0
M  V30 2473 C 243.897 -6.30452 -0.520853 0
M  V30 2474 C 242.561 -6.66617 -0.343134 0
M  V30 2475 H 241.831 -0.612648 -0.416826 0
M  V30 2476 H 244.478 -1.8674 -0.424315 0
M  V30 2477 H 242.783 -2.60803 -2.92385 0
M  V30 2478 H 244.48 -2.94382 -2.72288 0
M  V30 2479 H 241.07 -3.93855 -1.69045 0
M  V30 2480 H 245.254 -4.80695 -1.23473 0
M  V30 2481 H 240.51 -6.08196 -0.625154 0
M  V30 2482 H 244.684 -6.96175 -0.177065 0
M  V30 2483 H 242.311 -7.60083 0.133571 0
M  V30 2484 N 243.887 0.651787 -1.4349 0
M  V30 2485 C 245.117 1.43728 -1.48411 0
M  V30 2486 C 245.525 1.8893 -0.10103 0
M  V30 2487 O 244.868 1.60182 0.899307 0
M  V30 2488 C 244.93 2.70411 -2.36893 0
M  V30 2489 C 244.594 2.4714 -3.8441 0
M  V30 2490 C 245.591 2.10271 -4.75481 0
M  V30 2491 C 243.276 2.6142 -4.28912 0
M  V30 2492 C 245.27 1.87982 -6.0905 0
M  V30 2493 C 242.957 2.38746 -5.62533 0
M  V30 2494 C 243.955 2.02083 -6.5242 0
M  V30 2495 O 243.643 1.79647 -7.8357 0
M  V30 2496 H 243.375 0.447962 -0.506267 0
M  V30 2497 H 245.929 0.80624 -1.88915 0
M  V30 2498 H 244.159 3.36079 -1.91278 0
M  V30 2499 H 245.848 3.32364 -2.33 0
M  V30 2500 H 246.614 1.98814 -4.42378 0
M  V30 2501 H 242.493 2.88931 -3.59222 0
M  V30 2502 H 246.037 1.5929 -6.7917 0
M  V30 2503 H 241.934 2.49806 -5.95203 0
M  V30 2504 H 242.702 1.9406 -7.95162 0
M  V30 2505 N 245.365 1.30045 0.890287 0
M  V30 2506 C 246.593 1.21472 1.67487 0
M  V30 2507 C 247.008 -0.223241 1.87476 0
M  V30 2508 O 246.365 -1.14828 1.41847 0
M  V30 2509 C 246.416 1.93394 3.05419 0
M  V30 2510 O 246.137 3.31576 2.86337 0
M  V30 2511 C 247.638 1.91414 3.99844 0
M  V30 2512 H 244.858 0.420604 0.522813 0
M  V30 2513 H 247.402 1.7158 1.11268 0
M  V30 2514 H 245.557 1.47099 3.58386 0
M  V30 2515 H 245.971 3.67929 3.73802 0
M  V30 2516 H 247.445 2.46285 4.94012 0
M  V30 2517 H 247.922 0.891833 4.3005 0
M  V30 2518 H 248.528 2.37496 3.52811 0
M  V30 2519 N 246.843 -1.10192 1.12674 0
M  V30 2520 C 248.12 -1.78717 0.794965 0
M  V30 2521 C 248.5 -1.98628 -0.714853 0
M  V30 2522 O 247.848 -1.58135 -1.64941 0
M  V30 2523 C 248.058 -3.11546 1.5729 0
M  V30 2524 C 249.406 -3.86382 1.76052 0
M  V30 2525 O 250.43 -3.21274 1.53823 0
M  V30 2526 O 249.289 -5.03246 2.13087 0
M  V30 2527 H 246.383 -0.774702 0.289423 0
M  V30 2528 H 248.929 -1.16819 1.23091 0
M  V30 2529 H 247.701 -2.92489 2.59935 0
M  V30 2530 H 247.324 -3.81164 1.13137 0
M  V30 2531 N 248.321 -0.919034 -1.28029 0
M  V30 2532 C 249.569 -0.553838 -1.94363 0
M  V30 2533 C 249.89 0.906357 -1.72656 0
M  V30 2534 O 249.16 1.64143 -1.0693 0
M  V30 2535 H 247.74 -0.201834 -0.719216 0
M  V30 2536 H 250.402 -1.16954 -1.55909 0
M  V30 2537 H 249.498 -0.752758 -3.02886 0
M  V30 2538 N 249.799 1.42003 -0.683588 0
M  V30 2539 C 251.024 2.06265 -0.216647 0
M  V30 2540 C 251.449 1.51059 1.12083 0
M  V30 2541 O 250.807 0.632638 1.69904 0
M  V30 2542 C 250.855 3.60191 -0.171759 0
M  V30 2543 O 249.959 4.03396 0.857069 0
M  V30 2544 H 249.3 0.65502 -0.108834 0
M  V30 2545 H 251.83 1.81982 -0.935077 0
M  V30 2546 H 251.84 4.08 0.0014303 0
M  V30 2547 H 250.515 3.99743 -1.14796 0
M  V30 2548 H 249.092 3.67117 0.654208 0
M  V30 2549 N 251.277 0.427512 1.51691 0
M  V30 2550 C 252.523 -0.142439 2.02299 0
M  V30 2551 C 252.856 -1.43214 1.31162 0
M  V30 2552 O 252.131 -1.89833 0.423511 0
M  V30 2553 C 252.414 -0.371301 3.58181 0
M  V30 2554 C 252.267 0.936358 4.39946 0
M  V30 2555 C 253.586 -1.14542 4.24933 0
M  V30 2556 H 250.705 -0.0502937 0.735282 0
M  V30 2557 H 253.347 0.564584 1.81418 0
M  V30 2558 H 251.497 -0.973559 3.76104 0
M  V30 2559 H 253.169 1.57184 4.33694 0
M  V30 2560 H 251.412 1.5432 4.05423 0
M  V30 2561 H 252.083 0.730388 5.47147 0
M  V30 2562 H 254.559 -0.635362 4.11221 0
M  V30 2563 H 253.435 -1.27431 5.33903 0
M  V30 2564 H 253.696 -2.17093 3.85127 0
M  V30 2565 N 252.755 -1.56801 0.158532 0
M  V30 2566 C 254.001 -1.96781 -0.490405 0
M  V30 2567 C 254.334 -1.04397 -1.63753 0
M  V30 2568 O 253.609 -0.0885805 -1.94298 0
M  V30 2569 C 253.892 -3.4635 -0.985594 0
M  V30 2570 C 253.745 -4.49512 0.160824 0
M  V30 2571 C 255.064 -3.98697 -1.86355 0
M  V30 2572 H 252.183 -0.715482 -0.176788 0
M  V30 2573 H 254.825 -1.88451 0.242088 0
M  V30 2574 H 252.975 -3.53579 -1.60978 0
M  V30 2575 H 254.647 -4.54353 0.797537 0
M  V30 2576 H 252.89 -4.26013 0.818256 0
M  V30 2577 H 253.561 -5.51531 -0.227569 0
M  V30 2578 H 256.037 -3.94019 -1.33746 0
M  V30 2579 H 254.913 -5.03792 -2.17909 0
M  V30 2580 H 255.174 -3.41744 -2.8047 0
M  V30 2581 N 254.233 0.115231 -1.57178 0
M  V30 2582 C 255.461 0.836437 -1.89239 0
M  V30 2583 C 255.876 1.73256 -0.750175 0
M  V30 2584 O 255.233 1.80357 0.278832 0
M  V30 2585 C 255.284 1.66671 -3.20785 0
M  V30 2586 O 255.005 0.806652 -4.3061 0
M  V30 2587 C 256.506 2.49274 -3.66575 0
M  V30 2588 H 253.726 0.240253 -0.626514 0
M  V30 2589 H 256.27 0.0984932 -2.04263 0
M  V30 2590 H 254.425 2.35737 -3.0742 0
M  V30 2591 H 254.839 1.37969 -5.06028 0
M  V30 2592 H 256.313 3.03055 -4.6137 0
M  V30 2593 H 256.79 3.26807 -2.93417 0
M  V30 2594 H 257.396 1.85443 -3.82741 0
M  V30 2595 N 255.711 1.52812 0.385517 0
M  V30 2596 C 256.941 1.71658 1.14966 0
M  V30 2597 C 257.349 0.436253 1.84102 0
M  V30 2598 O 256.692 -0.599313 1.73649 0
M  V30 2599 C 256.754 2.81309 2.23843 0
M  V30 2600 C 256.418 4.22313 1.74644 0
M  V30 2601 C 257.415 5.05352 1.22129 0
M  V30 2602 C 255.1 4.68648 1.80761 0
M  V30 2603 C 257.094 6.32807 0.763838 0
M  V30 2604 C 254.781 5.96086 1.34627 0
M  V30 2605 C 255.779 6.77996 0.825264 0
M  V30 2606 O 255.467 8.03045 0.370669 0
M  V30 2607 H 255.199 0.578022 0.350523 0
M  V30 2608 H 257.753 2.00263 0.456509 0
M  V30 2609 H 255.983 2.48133 2.96592 0
M  V30 2610 H 257.672 2.88524 2.85497 0
M  V30 2611 H 258.438 4.70736 1.16758 0
M  V30 2612 H 254.317 4.04979 2.20256 0
M  V30 2613 H 257.861 6.96689 0.356494 0
M  V30 2614 H 253.758 6.30205 1.39686 0
M  V30 2615 H 254.526 8.17021 0.491829 0
M  V30 2616 N 257.189 -0.644168 1.43834 0
M  V30 2617 C 258.414 -1.43642 1.49605 0
M  V30 2618 C 258.839 -1.8773 0.117913 0
M  V30 2619 O 258.197 -1.57938 -0.890239 0
M  V30 2620 C 258.245 -2.6416 2.45463 0
M  V30 2621 O 257.349 -3.63538 1.94714 0
M  V30 2622 H 256.69 -0.430329 0.50568 0
M  V30 2623 H 259.22 -0.787448 1.8884 0
M  V30 2624 H 259.23 -3.11864 2.63068 0
M  V30 2625 H 257.905 -2.31414 3.45572 0
M  V30 2626 H 256.482 -3.2273 1.86814 0
M  V30 2627 N 258.668 -1.30515 -0.883378 0
M  V30 2628 C 259.908 -1.20716 -1.64946 0
M  V30 2629 C 260.272 0.234072 -1.90568 0
M  V30 2630 O 261.473 0.455335 -2.64915 0
M  V30 2631 C 259.744 -2.01444 -2.9522 0
M  V30 2632 S 261.303 -2.0836 -3.86175 0
M  V30 2633 H 258.121 -0.430165 -0.566109 0
M  V30 2634 H 260.723 -1.65011 -1.04841 0
M  V30 2635 H 259.427 -3.05268 -2.74298 0
M  V30 2636 H 258.958 -1.57817 -3.60357 0
M  V30 2637 H 260.973 -1.21215 -4.81167 0
M  V30 2638 N 260.146 1.09593 -1.13257 0
M  V30 2639 C 261.094 2.18271 -0.803783 0
M  V30 2640 C 262.088 1.68054 0.213148 0
M  V30 2641 O 263.294 1.79862 0.0704699 0
M  V30 2642 H 259.669 0.711949 -0.242143 0
M  V30 2643 H 261.64 2.43235 -1.72856 0
M  V30 2644 C 260.389 3.46536 -0.28424 0
M  V30 2645 H 259.712 3.85545 -1.05807 0
M  V30 2646 H 261.152 4.23899 -0.0925945 0
M  V30 2647 C 259.611 3.22036 0.989684 0
M  V30 2648 O 260.141 3.44509 2.06584 0
M  V30 2649 N 258.347 2.7565 0.920086 0
M  V30 2650 H 257.894 2.57562 0.0442019 0
M  V30 2651 H 257.852 2.59635 1.77306 0
M  V30 2652 N 261.624 0.925811 1.2754 0
M  V30 2653 C 262.849 0.580924 1.99098 0
M  V30 2654 C 263.274 -0.833555 1.68622 0
M  V30 2655 O 262.632 -1.55903 0.925422 0
M  V30 2656 C 262.68 0.811186 3.51358 0
M  V30 2657 O 261.784 -0.124129 4.12213 0
M  V30 2658 H 261.125 0.223873 0.625122 0
M  V30 2659 H 263.655 1.24455 1.62395 0
M  V30 2660 H 263.665 0.72601 4.01489 0
M  V30 2661 H 262.34 1.84227 3.72872 0
M  V30 2662 H 260.917 0.0108006 3.72898 0
M  V30 2663 N 263.102 -1.41638 0.69111 0
M  V30 2664 C 264.35 -2.00902 0.219758 0
M  V30 2665 C 264.671 -1.54994 -1.18329 0
M  V30 2666 O 263.941 -0.778628 -1.79762 0
M  V30 2667 H 262.521 -0.74289 0.0782558 0
M  V30 2668 H 265.183 -1.73327 0.891271 0
M  V30 2669 H 264.279 -3.11224 0.233708 0
M  V30 2670 N 264.58 -0.43555 -1.51462 0
M  V30 2671 C 265.81 0.130053 -2.0619 0
M  V30 2672 C 266.218 1.37164 -1.30317 0
M  V30 2673 O 265.561 1.80225 -0.355598 0
M  V30 2674 C 265.623 0.519418 -3.55728 0
M  V30 2675 C 265.287 -0.615119 -4.52841 0
M  V30 2676 C 266.284 -1.48671 -4.9819 0
M  V30 2677 C 263.969 -0.795341 -4.95963 0
M  V30 2678 C 265.963 -2.52324 -5.8533 0
M  V30 2679 C 263.65 -1.83514 -5.82894 0
M  V30 2680 C 264.648 -2.69748 -6.27475 0
M  V30 2681 O 264.336 -3.71944 -7.1268 0
M  V30 2682 H 264.068 0.0121612 -0.675891 0
M  V30 2683 H 266.622 -0.6129 -1.96043 0
M  V30 2684 H 264.852 1.31505 -3.63653 0
M  V30 2685 H 266.541 1.01597 -3.92979 0
M  V30 2686 H 267.307 -1.359 -4.65571 0
M  V30 2687 H 263.186 -0.133713 -4.60806 0
M  V30 2688 H 266.73 -3.19665 -6.20048 0
M  V30 2689 H 262.627 -1.96306 -6.14926 0
M  V30 2690 H 263.395 -3.68503 -7.30854 0
M  V30 2691 N 266.058 1.56714 -0.166846 0
M  V30 2692 C 267.283 2.01557 0.488833 0
M  V30 2693 C 267.708 1.0463 1.56314 0
M  V30 2694 O 267.066 0.0251304 1.81283 0
M  V30 2695 C 267.114 3.4503 1.04818 0
M  V30 2696 O 266.218 3.51163 2.16236 0
M  V30 2697 H 265.559 0.653516 0.117526 0
M  V30 2698 H 268.089 2.02818 -0.269421 0
M  V30 2699 H 268.099 3.84243 1.37191 0
M  V30 2700 H 266.774 4.15077 0.261572 0
M  V30 2701 H 265.351 3.23807 1.84942 0
M  V30 2702 N 267.536 -0.106894 1.57237 0
M  V30 2703 C 268.466 -1.13148 2.04254 0
M  V30 2704 C 269.447 -1.42476 0.929224 0
M  V30 2705 O 270.632 -1.52709 1.19973 0
M  V30 2706 C 267.762 -2.4545 2.45706 0
M  V30 2707 C 266.716 -2.30558 3.60592 0
M  V30 2708 C 266.042 -3.67931 3.87983 0
M  V30 2709 C 267.342 -1.75597 4.91897 0
M  V30 2710 H 269.036 -0.740374 2.90101 0
M  V30 2711 H 266.582 -0.354696 1.39563 0
M  V30 2712 H 268.535 -3.17389 2.77205 0
M  V30 2713 H 267.259 -2.86475 1.56843 0
M  V30 2714 H 265.918 -1.61067 3.29322 0
M  V30 2715 H 265.566 -4.06462 2.96306 0
M  V30 2716 H 265.266 -3.58817 4.65322 0
M  V30 2717 H 266.79 -4.41356 4.21945 0
M  V30 2718 H 268.204 -2.37364 5.21854 0
M  V30 2719 H 266.601 -1.77272 5.73319 0
M  V30 2720 H 267.671 -0.714451 4.79608 0
M  V30 2721 N 269.014 -1.53014 -0.377408 0
M  V30 2722 C 270.263 -1.67845 -1.11853 0
M  V30 2723 C 270.576 -0.430625 -1.90801 0
M  V30 2724 O 271.782 -0.459261 -2.67587 0
M  V30 2725 C 270.238 -2.96668 -2.03756 0
M  V30 2726 C 269.846 -4.28671 -1.30175 0
M  V30 2727 C 271.59 -3.20865 -2.77932 0
M  V30 2728 C 269.497 -5.48591 -2.20911 0
M  V30 2729 H 268.427 -0.625343 -0.421263 0
M  V30 2730 H 271.078 -1.79514 -0.380409 0
M  V30 2731 H 269.46 -2.78773 -2.8125 0
M  V30 2732 H 270.634 -4.57157 -0.578259 0
M  V30 2733 H 268.949 -4.10825 -0.679108 0
M  V30 2734 H 271.546 -4.07642 -3.46024 0
M  V30 2735 H 271.889 -2.36424 -3.4265 0
M  V30 2736 H 272.422 -3.39379 -2.07525 0
M  V30 2737 H 269.161 -6.35474 -1.6079 0
M  V30 2738 H 268.681 -5.244 -2.91144 0
M  V30 2739 H 270.36 -5.8292 -2.80736 0
M  V30 2740 N 270.492 0.636531 -1.44174 0
M  V30 2741 C 271.74 1.39343 -1.46383 0
M  V30 2742 C 272.061 1.94766 -0.0955715 0
M  V30 2743 O 271.331 1.75452 0.871395 0
M  V30 2744 H 269.911 0.517199 -0.538994 0
M  V30 2745 H 272.573 0.74957 -1.7991 0
M  V30 2746 H 271.669 2.22746 -2.18611 0
M  V30 2747 N 271.97 1.30982 0.876444 0
M  V30 2748 C 272.918 1.18006 2.00443 0
M  V30 2749 C 273.912 0.0898871 1.69161 0
M  V30 2750 O 275.118 0.251333 1.78237 0
M  V30 2751 H 271.493 0.365196 0.65737 0
M  V30 2752 H 273.464 2.13453 2.0852 0
M  V30 2753 C 272.213 0.897521 3.35916 0
M  V30 2754 H 271.536 1.7285 3.60504 0
M  V30 2755 H 272.976 0.846874 4.15456 0
M  V30 2756 C 271.435 -0.399674 3.34521 0
M  V30 2757 O 271.965 -1.41852 3.7582 0
M  V30 2758 N 270.171 -0.413893 2.87637 0
M  V30 2759 H 269.718 0.41571 2.54224 0
M  V30 2760 H 269.676 -1.28175 2.87086 0
M  V30 2761 N 273.449 -1.08991 1.13837 0
M  V30 2762 C 274.674 -1.85551 0.926585 0
M  V30 2763 C 275.099 -1.80782 -0.519566 0
M  V30 2764 O 274.457 -1.18855 -1.36906 0
M  V30 2765 C 274.505 -3.31266 1.42462 0
M  V30 2766 O 273.609 -4.07822 0.612789 0
M  V30 2767 H 272.95 -0.575192 0.331738 0
M  V30 2768 H 275.48 -1.37604 1.51414 0
M  V30 2769 H 275.49 -3.82112 1.43019 0
M  V30 2770 H 274.165 -3.34052 2.47754 0
M  V30 2771 H 272.742 -3.66731 0.675463 0
M  V30 2772 N 274.927 -0.932562 -1.27047 0
M  V30 2773 C 276.175 -0.574422 -1.93765 0
M  V30 2774 C 276.496 0.887993 -1.73608 0
M  V30 2775 O 275.766 1.62999 -1.08665 0
M  V30 2776 H 274.346 -0.209451 -0.717035 0
M  V30 2777 H 277.008 -1.18601 -1.5466 0
M  V30 2778 H 276.104 -0.784841 -3.02071 0
M  V30 2779 N 276.405 1.4127 -0.698611 0
M  V30 2780 C 277.651 2.01478 -0.231207 0
M  V30 2781 C 277.984 1.55215 1.16713 0
M  V30 2782 O 277.259 0.764672 1.78838 0
M  V30 2783 C 277.542 3.58912 -0.292281 0
M  V30 2784 C 277.395 4.15293 -1.72778 0
M  V30 2785 C 278.714 4.38736 0.346194 0
M  V30 2786 H 275.833 0.732025 -0.0854878 0
M  V30 2787 H 278.475 1.67977 -0.887906 0
M  V30 2788 H 276.625 3.87582 0.26686 0
M  V30 2789 H 278.297 3.97486 -2.341 0
M  V30 2790 H 276.54 3.7022 -2.26096 0
M  V30 2791 H 277.211 5.24452 -1.72202 0
M  V30 2792 H 279.687 4.15897 -0.130035 0
M  V30 2793 H 278.563 5.48221 0.272932 0
M  V30 2794 H 278.824 4.18425 1.42734 0
M  V30 2795 N 277.883 0.443576 1.51229 0
M  V30 2796 C 278.813 -0.355142 2.30783 0
M  V30 2797 C 279.794 -1.0154 1.36468 0
M  V30 2798 O 280.979 -1.01785 1.65389 0
M  V30 2799 C 278.109 -1.45312 3.15439 0
M  V30 2800 C 277.063 -0.916002 4.18083 0
M  V30 2801 C 276.389 -2.1102 4.91299 0
M  V30 2802 C 277.689 0.0538602 5.22272 0
M  V30 2803 H 279.383 0.308767 2.97804 0
M  V30 2804 H 276.929 0.149937 1.43217 0
M  V30 2805 H 278.882 -2.01914 3.69876 0
M  V30 2806 H 277.606 -2.14541 2.46252 0
M  V30 2807 H 276.265 -0.372145 3.64706 0
M  V30 2808 H 275.913 -2.78882 4.18609 0
M  V30 2809 H 275.613 -1.75717 5.60712 0
M  V30 2810 H 277.137 -2.68164 5.48562 0
M  V30 2811 H 278.551 -0.422069 5.71744 0
M  V30 2812 H 276.948 0.319776 5.99247 0
M  V30 2813 H 278.018 0.98858 4.74716 0
M  V30 2814 N 279.361 -1.56624 0.175154 0
M  V30 2815 C 280.601 -1.98894 -0.471221 0
M  V30 2816 C 280.965 -1.05889 -1.60161 0
M  V30 2817 O 282.166 -1.37315 -2.3108 0
M  V30 2818 C 280.437 -3.44865 -0.938241 0
M  V30 2819 S 281.996 -4.09164 -1.58526 0
M  V30 2820 H 278.814 -0.694686 -0.151434 0
M  V30 2821 H 281.416 -1.93577 0.27352 0
M  V30 2822 H 280.12 -4.10265 -0.10518 0
M  V30 2823 H 279.651 -3.53956 -1.71693 0
M  V30 2824 H 281.666 -4.04528 -2.87352 0
M  V30 2825 N 280.839 0.0985539 -1.57292 0
M  V30 2826 C 282.064 0.820196 -1.90493 0
M  V30 2827 C 282.489 1.71658 -0.769094 0
M  V30 2828 O 281.847 1.79133 0.279495 0
M  V30 2829 C 281.895 1.61242 -3.22542 0
M  V30 2830 O 280.999 2.72108 -3.09888 0
M  V30 2831 H 280.34 0.225547 -0.62452 0
M  V30 2832 H 282.87 0.0748159 -2.04463 0
M  V30 2833 H 282.88 1.99737 -3.55766 0
M  V30 2834 H 281.555 0.954535 -4.04798 0
M  V30 2835 H 280.132 2.36667 -2.88172 0
M  V30 2836 N 282.317 1.53212 0.369288 0
M  V30 2837 C 283.565 1.68881 1.11012 0
M  V30 2838 C 283.886 0.441285 1.89941 0
M  V30 2839 O 283.156 -0.544623 1.88177 0
M  V30 2840 H 281.736 0.622569 0.412816 0
M  V30 2841 H 284.398 1.90391 0.416802 0
M  V30 2842 H 283.494 2.54822 1.80201 0
M  V30 2843 N 283.795 -0.628877 1.44509 0
M  V30 2844 C 285.043 -1.38565 1.4712 0
M  V30 2845 C 285.364 -1.94712 0.105899 0
M  V30 2846 O 284.634 -1.75912 -0.862079 0
M  V30 2847 H 283.214 -0.514333 0.541729 0
M  V30 2848 H 285.876 -0.740018 1.80305 0
M  V30 2849 H 284.972 -2.21583 2.19789 0
M  V30 2850 N 285.273 -1.31445 -0.869486 0
M  V30 2851 C 286.183 -1.21097 -2.0093 0
M  V30 2852 C 287.199 -0.127584 -1.73532 0
M  V30 2853 O 288.375 -0.345477 -1.98415 0
M  V30 2854 C 285.44 -0.919378 -3.34288 0
M  V30 2855 C 284.501 -2.08971 -3.75006 0
M  V30 2856 C 283.734 -1.81194 -5.02001 0
M  V30 2857 O 283.957 -0.747296 -5.65484 0
M  V30 2858 O 282.891 -2.66883 -5.39497 0
M  V30 2859 H 286.717 -2.16883 -2.12592 0
M  V30 2860 H 284.302 -1.11189 -0.997868 0
M  V30 2861 H 286.184 -0.772625 -4.14257 0
M  V30 2862 H 284.859 0.00844772 -3.23699 0
M  V30 2863 H 283.766 -2.29187 -2.95676 0
M  V30 2864 H 285.099 -2.9998 -3.90221 0
M  V30 2865 N 286.751 1.08385 -1.14413 0
M  V30 2866 C 287.997 1.81212 -0.923793 0
M  V30 2867 C 288.352 1.84555 0.543814 0
M  V30 2868 O 287.645 1.31056 1.39767 0
M  V30 2869 C 287.839 3.26273 -1.45879 0
M  V30 2870 C 287.668 3.37063 -2.97689 0
M  V30 2871 C 286.438 3.4824 -3.66138 0
M  V30 2872 C 288.636 3.28698 -3.95553 0
M  V30 2873 N 286.618 3.47824 -5.05858 0
M  V30 2874 C 287.989 3.35276 -5.21527 0
M  V30 2875 C 290.044 3.12437 -3.8767 0
M  V30 2876 C 288.747 3.27267 -6.40538 0
M  V30 2877 C 290.773 3.05757 -5.06228 0
M  V30 2878 C 290.135 3.12938 -6.3107 0
M  V30 2879 H 286.234 0.6769 -0.391574 0
M  V30 2880 H 288.818 1.29455 -1.45429 0
M  V30 2881 H 286.989 3.76474 -0.95507 0
M  V30 2882 H 288.721 3.87165 -1.17835 0
M  V30 2883 H 285.476 3.52141 -3.16692 0
M  V30 2884 H 285.9 3.51171 -5.78798 0
M  V30 2885 H 290.542 3.05747 -2.92025 0
M  V30 2886 H 288.26 3.32718 -7.36427 0
M  V30 2887 H 291.846 2.94295 -5.01878 0
M  V30 2888 H 290.726 3.078 -7.21269 0
M  V30 2889 N 288.23 0.939286 1.26551 0
M  V30 2890 C 289.455 0.602008 1.98471 0
M  V30 2891 C 289.88 -0.815624 1.69497 0
M  V30 2892 O 289.238 -1.54912 0.941905 0
M  V30 2893 C 289.286 0.848407 3.50477 0
M  V30 2894 O 288.39 -0.0804009 4.12322 0
M  V30 2895 H 287.731 0.23049 0.622712 0
M  V30 2896 H 290.261 1.2617 1.61066 0
M  V30 2897 H 290.271 0.768553 4.00696 0
M  V30 2898 H 288.946 1.88171 3.70897 0
M  V30 2899 H 287.523 0.0503508 3.72866 0
M  V30 2900 N 289.708 -1.40897 0.706093 0
M  V30 2901 C 290.985 -1.94868 0.169099 0
M  V30 2902 C 291.365 -1.64485 -1.32318 0
M  V30 2903 O 290.713 -0.95744 -2.07474 0
M  V30 2904 C 290.923 -3.45798 0.471654 0
M  V30 2905 C 292.271 -4.22663 0.405127 0
M  V30 2906 O 293.295 -3.53865 0.407168 0
M  V30 2907 O 292.154 -5.45216 0.374383 0
M  V30 2908 H 289.248 -0.82673 0.0211352 0
M  V30 2909 H 291.794 -1.50558 0.782976 0
M  V30 2910 H 290.566 -3.61235 1.50416 0
M  V30 2911 H 290.189 -3.97225 -0.172666 0
M  V30 2912 N 291.186 -0.45159 -1.50991 0
M  V30 2913 C 292.597 0.00818571 -1.86698 0
M  V30 2914 C 292.948 1.40661 -1.3678 0
M  V30 2915 O 292.073 2.0391 -0.724546 0
M  V30 2916 C 292.668 0.0216303 -3.38793 0
M  V30 2917 C 291.227 0.425865 -3.73983 0
M  V30 2918 C 290.374 -0.372163 -2.74791 0
M  V30 2919 H 293.325 -0.666785 -1.44013 0
M  V30 2920 H 293.346 0.828078 -3.7138 0
M  V30 2921 H 292.858 -0.996288 -3.75094 0
M  V30 2922 H 290.959 1.44886 -3.43277 0
M  V30 2923 H 291.072 0.140761 -4.78893 0
M  V30 2924 H 289.436 0.171498 -2.54122 0
M  V30 2925 H 290.219 -1.38922 -3.13935 0
M  V30 2926 N 292.664 1.56529 -0.183458 0
M  V30 2927 C 294.075 1.83739 0.331177 0
M  V30 2928 C 294.426 1.10373 1.62211 0
M  V30 2929 O 293.551 0.36071 2.13373 0
M  V30 2930 C 294.146 3.33306 0.607646 0
M  V30 2931 C 292.705 3.60969 1.06668 0
M  V30 2932 C 291.852 2.77086 0.109029 0
M  V30 2933 H 294.803 1.53379 -0.407484 0
M  V30 2934 H 294.824 3.51444 1.45832 0
M  V30 2935 H 294.336 3.86677 -0.332086 0
M  V30 2936 H 292.437 3.13021 2.0211 0
M  V30 2937 H 292.55 4.69231 0.967447 0
M  V30 2938 H 290.914 2.47319 0.608714 0
M  V30 2939 H 291.697 3.33241 -0.82494 0
M  V30 2940 N 294.142 -0.090211 1.57342 0
M  V30 2941 C 295.37 -0.806224 1.90546 0
M  V30 2942 C 295.785 -1.72041 0.777644 0
M  V30 2943 O 295.142 -1.80778 -0.250103 0
M  V30 2944 C 295.193 -1.61546 3.23396 0
M  V30 2945 O 294.914 -0.738043 4.31839 0
M  V30 2946 C 296.415 -2.4341 3.70495 0
M  V30 2947 H 293.635 -0.230256 0.630257 0
M  V30 2948 H 296.179 -0.0659843 2.04394 0
M  V30 2949 H 294.334 -2.30816 3.11131 0
M  V30 2950 H 294.748 -1.29901 5.08159 0
M  V30 2951 H 296.222 -2.95676 4.66133 0
M  V30 2952 H 296.699 -3.22098 2.98579 0
M  V30 2953 H 297.305 -1.79331 3.85643 0
M  V30 2954 N 295.62 -1.53406 -0.361157 0
M  V30 2955 C 296.86 -1.71507 -1.11197 0
M  V30 2956 C 297.224 -0.459337 -1.86425 0
M  V30 2957 O 298.425 -0.517102 -2.63779 0
M  V30 2958 C 296.696 -2.93307 -2.0422 0
M  V30 2959 S 298.255 -3.32135 -2.86761 0
M  V30 2960 H 295.073 -0.603448 -0.375995 0
M  V30 2961 H 297.675 -1.91516 -0.392642 0
M  V30 2962 H 296.379 -3.82891 -1.47724 0
M  V30 2963 H 295.91 -2.75712 -2.80618 0
M  V30 2964 H 297.925 -2.84493 -4.06544 0
M  V30 2965 N 297.098 0.621204 -1.44841 0
M  V30 2966 C 298.03 1.74615 -1.48466 0
M  V30 2967 C 299.043 1.58377 -0.37691 0
M  V30 2968 O 300.232 1.66508 -0.643215 0
M  V30 2969 C 297.332 3.12459 -1.31236 0
M  V30 2970 C 296.505 3.55064 -2.55438 0
M  V30 2971 C 295.564 4.71821 -2.32963 0
M  V30 2972 O 294.59 4.79628 -3.06505 0
M  V30 2973 N 295.792 5.64186 -1.36654 0
M  V30 2974 H 298.557 1.71973 -2.45449 0
M  V30 2975 H 296.118 0.806077 -1.40407 0
M  V30 2976 H 298.11 3.88302 -1.14032 0
M  V30 2977 H 296.68 3.09686 -0.4258 0
M  V30 2978 H 295.9 2.69324 -2.87851 0
M  V30 2979 H 297.188 3.80284 -3.38026 0
M  V30 2980 H 296.586 5.6058 -0.759344 0
M  V30 2981 H 295.143 6.39618 -1.25425 0
M  V30 2982 N 298.576 1.31904 0.862503 0
M  V30 2983 C 299.825 1.21373 1.61094 0
M  V30 2984 C 300.138 -0.22504 1.94301 0
M  V30 2985 O 301.344 -0.452121 2.67709 0
M  V30 2986 C 299.8 2.12525 2.9045 0
M  V30 2987 C 299.408 3.61441 2.64697 0
M  V30 2988 C 301.152 2.10813 3.68454 0
M  V30 2989 C 299.059 4.44578 3.90006 0
M  V30 2990 H 297.989 0.450705 0.604468 0
M  V30 2991 H 300.64 1.56811 0.953027 0
M  V30 2992 H 299.022 1.69994 3.57656 0
M  V30 2993 H 300.196 4.12264 2.05851 0
M  V30 2994 H 298.511 3.65205 2.00036 0
M  V30 2995 H 301.108 2.70167 4.61426 0
M  V30 2996 H 301.451 1.09713 4.01583 0
M  V30 2997 H 301.984 2.51583 3.08141 0
M  V30 2998 H 298.723 5.46461 3.62023 0
M  V30 2999 H 298.243 3.98508 4.48276 0
M  V30 3000 H 299.922 4.57176 4.5782 0
M  V30 3001 N 300.054 -1.07777 1.14986 0
M  V30 3002 C 301.3 -1.80557 0.923422 0
M  V30 3003 C 301.633 -1.86298 -0.548337 0
M  V30 3004 O 300.908 -1.34354 -1.40639 0
M  V30 3005 C 301.191 -3.25839 1.53299 0
M  V30 3006 C 301.044 -3.28269 3.07505 0
M  V30 3007 C 302.363 -4.22991 1.21518 0
M  V30 3008 H 299.482 -0.655493 0.336894 0
M  V30 3009 H 302.124 -1.26144 1.42083 0
M  V30 3010 H 300.274 -3.72306 1.10999 0
M  V30 3011 H 301.946 -2.90079 3.58681 0
M  V30 3012 H 300.189 -2.67355 3.4162 0
M  V30 3013 H 300.86 -4.30691 3.45266 0
M  V30 3014 H 303.336 -3.84894 1.581 0
M  V30 3015 H 302.212 -5.22945 1.66793 0
M  V30 3016 H 302.473 -4.41904 0.131505 0
M  V30 3017 N 301.532 -0.945985 -1.26051 0
M  V30 3018 C 302.479 -0.45809 -2.26208 0
M  V30 3019 C 303.449 0.484816 -1.58867 0
M  V30 3020 O 304.634 0.399969 -1.86561 0
M  V30 3021 C 301.774 0.266131 -3.44072 0
M  V30 3022 C 300.887 -0.713005 -4.26075 0
M  V30 3023 C 300.022 0.0329013 -5.3119 0
M  V30 3024 C 299.061 -0.93774 -6.04874 0
M  V30 3025 N 298.198 -0.223274 -7.01745 0
M  V30 3026 H 303.038 -1.3171 -2.67313 0
M  V30 3027 H 300.575 -0.66069 -1.31428 0
M  V30 3028 H 302.533 0.702514 -4.11243 0
M  V30 3029 H 301.163 1.08925 -3.03867 0
M  V30 3030 H 300.215 -1.26789 -3.58648 0
M  V30 3031 H 301.527 -1.45406 -4.77136 0
M  V30 3032 H 300.681 0.528335 -6.04395 0
M  V30 3033 H 299.42 0.806801 -4.8098 0
M  V30 3034 H 298.425 -1.44425 -5.30492 0
M  V30 3035 H 299.65 -1.71172 -6.57173 0
M  V30 3036 H 297.596 0.532046 -6.53839 0
M  V30 3037 H 297.513 -0.90357 -7.50581 0
M  V30 3038 H 298.781 0.250907 -7.79096 0
M  V30 3039 N 303.011 1.40521 -0.713556 0
M  V30 3040 C 304.251 2.02783 -0.256584 0
M  V30 3041 C 304.615 1.55352 1.12827 0
M  V30 3042 O 305.816 2.09663 1.68211 0
M  V30 3043 C 304.087 3.5586 -0.331414 0
M  V30 3044 S 305.646 4.38773 0.0488703 0
M  V30 3045 H 302.464 0.703655 -0.101934 0
M  V30 3046 H 305.066 1.71674 -0.935325 0
M  V30 3047 H 303.77 3.87874 -1.34098 0
M  V30 3048 H 303.301 3.91695 0.365873 0
M  V30 3049 H 305.316 4.79633 1.2715 0
M  V30 3050 N 304.489 0.459591 1.5075 0
M  V30 3051 C 305.9 0.00171547 1.867 0
M  V30 3052 C 306.251 -1.39934 1.37525 0
M  V30 3053 O 305.376 -2.03523 0.735349 0
M  V30 3054 C 305.971 -0.00366298 3.388 0
M  V30 3055 C 304.53 -0.406026 3.74204 0
M  V30 3056 C 303.677 0.38673 2.7459 0
M  V30 3057 H 306.628 0.674413 1.43657 0
M  V30 3058 H 306.649 -0.808371 3.71814 0
M  V30 3059 H 306.161 1.01617 3.74561 0
M  V30 3060 H 304.262 -1.43063 3.4404 0
M  V30 3061 H 304.375 -0.115362 4.78961 0
M  V30 3062 H 302.739 -0.158019 2.54209 0
M  V30 3063 H 303.522 1.40585 3.13194 0
M  V30 3064 N 305.967 -1.56429 0.191757 0
M  V30 3065 C 306.917 -2.15548 -0.743184 0
M  V30 3066 C 307.901 -1.09531 -1.17863 0
M  V30 3067 O 309.093 -1.35602 -1.13759 0
M  V30 3068 C 306.222 -2.81577 -1.96391 0
M  V30 3069 C 305.308 -3.9478 -1.54951 0
M  V30 3070 N 305.699 -4.98677 -0.845876 0
M  V30 3071 C 303.997 -4.06319 -1.83905 0
M  V30 3072 C 304.698 -5.78183 -0.638724 0
M  V30 3073 N 303.674 -5.30495 -1.18643 0
M  V30 3074 H 307.476 -2.9324 -0.196839 0
M  V30 3075 H 304.99 -1.62398 -0.0081603 0
M  V30 3076 H 306.987 -3.22321 -2.64415 0
M  V30 3077 H 305.647 -2.05371 -2.51501 0
M  V30 3078 H 306.658 -5.15464 -0.501704 0
M  V30 3079 H 303.335 -3.41238 -2.40548 0
M  V30 3080 H 304.725 -6.71851 -0.0807929 0
M  V30 3081 N 307.445 0.0818655 -1.57387 0
M  V30 3082 C 308.856 0.634871 -1.75574 0
M  V30 3083 C 309.207 1.78435 -0.815809 0
M  V30 3084 O 308.332 2.164 0.0025366 0
M  V30 3085 C 308.927 1.15845 -3.18379 0
M  V30 3086 C 307.486 1.65741 -3.37945 0
M  V30 3087 C 306.633 0.572549 -2.71325 0
M  V30 3088 H 309.584 -0.144268 -1.58043 0
M  V30 3089 H 309.605 2.02751 -3.21982 0
M  V30 3090 H 309.117 0.321631 -3.86765 0
M  V30 3091 H 307.218 2.51781 -2.74658 0
M  V30 3092 H 307.331 1.74129 -4.46336 0
M  V30 3093 H 305.695 1.01518 -2.33594 0
M  V30 3094 H 306.478 -0.253918 -3.4236 0
M  V30 3095 N 308.923 1.53595 0.353017 0
M  V30 3096 C 310.151 1.74311 1.1146 0
M  V30 3097 C 310.566 0.477854 1.82653 0
M  V30 3098 O 309.923 -0.549977 1.74016 0
M  V30 3099 C 309.974 2.91694 2.13534 0
M  V30 3100 O 309.695 4.13325 1.45238 0
M  V30 3101 C 311.196 3.24384 3.02142 0
M  V30 3102 H 308.416 0.582669 0.332773 0
M  V30 3103 H 310.96 2.00386 0.408107 0
M  V30 3104 H 309.115 2.67977 2.79763 0
M  V30 3105 H 309.529 4.79148 2.13349 0
M  V30 3106 H 311.003 4.09893 3.69718 0
M  V30 3107 H 311.48 2.40282 3.67643 0
M  V30 3108 H 312.086 3.50073 2.41514 0
M  V30 3109 N 310.401 -0.613514 1.45168 0
M  V30 3110 C 311.65 -1.36874 1.4815 0
M  V30 3111 C 311.963 -1.952 0.124982 0
M  V30 3112 O 313.169 -2.71481 0.0324176 0
M  V30 3113 C 311.625 -2.47905 2.60904 0
M  V30 3114 C 311.233 -1.96016 4.02842 0
M  V30 3115 C 312.977 -3.24965 2.73126 0
M  V30 3116 C 310.884 -3.04494 5.06988 0
M  V30 3117 H 309.814 -0.514428 0.551253 0
M  V30 3118 H 312.465 -0.658182 1.7129 0
M  V30 3119 H 310.847 -3.21618 2.31037 0
M  V30 3120 H 312.021 -1.29051 4.4236 0
M  V30 3121 H 310.336 -1.31719 3.95018 0
M  V30 3122 H 312.933 -4.05865 3.48106 0
M  V30 3123 H 313.276 -3.75588 1.79553 0
M  V30 3124 H 313.809 -2.5835 3.0249 0
M  V30 3125 H 310.548 -2.58795 6.0225 0
M  V30 3126 H 310.068 -3.70044 4.72046 0
M  V30 3127 H 311.747 -3.68976 5.31475 0
M  V30 3128 N 311.879 -1.3236 -0.855495 0
M  V30 3129 C 313.104 -1.2601 -1.64731 0
M  V30 3130 C 313.529 0.169068 -1.87339 0
M  V30 3131 O 312.887 1.12016 -1.42556 0
M  V30 3132 C 312.935 -2.02417 -2.98429 0
M  V30 3133 O 312.039 -1.3714 -3.8893 0
M  V30 3134 H 311.38 -0.434325 -0.502253 0
M  V30 3135 H 313.91 -1.74661 -1.06558 0
M  V30 3136 H 313.92 -2.12559 -3.48257 0
M  V30 3137 H 312.595 -3.06343 -2.81295 0
M  V30 3138 H 311.172 -1.3554 -3.47395 0
M  V30 3139 N 313.357 1.07166 -1.15556 0
M  V30 3140 C 314.305 2.16517 -0.8499 0
M  V30 3141 C 315.299 1.68468 0.177454 0
M  V30 3142 O 316.505 1.79971 0.0323026 0
M  V30 3143 H 312.88 0.706652 -0.25719 0
M  V30 3144 H 314.851 2.39514 -1.77976 0
M  V30 3145 C 313.6 3.45855 -0.357682 0
M  V30 3146 H 312.923 3.83214 -1.13961 0
M  V30 3147 H 314.363 4.23607 -0.182489 0
M  V30 3148 C 312.822 3.24062 0.921152 0
M  V30 3149 O 313.352 3.48813 1.9923 0
M  V30 3150 N 311.558 2.77539 0.86141 0
M  V30 3151 H 311.105 2.57598 -0.0104408 0
M  V30 3152 H 311.063 2.63337 1.71758 0
M  V30 3153 N 314.835 0.952656 1.25548 0
M  V30 3154 C 316.083 0.605176 1.92826 0
M  V30 3155 C 316.404 -0.860261 1.74999 0
M  V30 3156 O 315.674 -1.6125 1.11244 0
M  V30 3157 H 314.254 0.220832 0.713612 0
M  V30 3158 H 316.916 1.21047 1.52754 0
M  V30 3159 H 316.012 0.832798 3.00784 0
M  V30 3160 N 316.313 -1.40141 0.720998 0
M  V30 3161 C 317.543 -2.04798 0.27226 0
M  V30 3162 C 317.951 -1.54442 -1.09289 0
M  V30 3163 O 317.294 -0.698342 -1.69908 0
M  V30 3164 C 317.356 -3.59048 0.18027 0
M  V30 3165 C 317.02 -4.32317 1.48159 0
M  V30 3166 C 318.017 -4.59902 2.42458 0
M  V30 3167 C 315.702 -4.71125 1.74202 0
M  V30 3168 C 317.696 -5.25288 3.61042 0
M  V30 3169 C 315.383 -5.36242 2.93066 0
M  V30 3170 C 316.381 -5.63254 3.86308 0
M  V30 3171 O 316.069 -6.27024 5.03086 0
M  V30 3172 H 315.801 -0.665419 0.119139 0
M  V30 3173 H 318.355 -1.80436 0.981432 0
M  V30 3174 H 316.585 -3.82251 -0.58489 0
M  V30 3175 H 318.274 -4.05221 -0.234618 0
M  V30 3176 H 319.04 -4.30379 2.23604 0
M  V30 3177 H 314.919 -4.49466 1.02477 0
M  V30 3178 H 318.463 -5.46289 4.33837 0
M  V30 3179 H 314.36 -5.65185 3.11826 0
M  V30 3180 H 315.128 -6.4552 5.03235 0
M  V30 3181 N 317.792 -0.46758 -1.50504 0
M  V30 3182 C 318.722 0.318381 -2.31319 0
M  V30 3183 C 319.703 0.993564 -1.38066 0
M  V30 3184 O 320.888 0.991411 -1.66987 0
M  V30 3185 C 318.018 1.40275 -3.17711 0
M  V30 3186 C 316.972 0.849373 -4.19487 0
M  V30 3187 C 316.298 2.03177 -4.94594 0
M  V30 3188 C 317.598 -0.136942 -5.2212 0
M  V30 3189 H 319.292 -0.356106 -2.97275 0
M  V30 3190 H 316.838 -0.172703 -1.42961 0
M  V30 3191 H 318.791 1.96004 -3.73042 0
M  V30 3192 H 317.515 2.10596 -2.49634 0
M  V30 3193 H 316.174 0.314076 -3.65252 0
M  V30 3194 H 315.822 2.72187 -4.22993 0
M  V30 3195 H 315.522 1.66774 -5.63436 0
M  V30 3196 H 317.046 2.59403 -5.52759 0
M  V30 3197 H 318.46 0.331056 -5.72343 0
M  V30 3198 H 316.857 -0.41507 -5.98663 0
M  V30 3199 H 317.927 -1.06398 -4.73083 0
M  V30 3200 N 319.27 1.56325 -0.20005 0
M  V30 3201 C 320.495 2.02548 0.44597 0
M  V30 3202 C 320.92 1.07922 1.5406 0
M  V30 3203 O 320.278 0.0635775 1.81188 0
M  V30 3204 C 320.326 3.47175 0.974761 0
M  V30 3205 O 319.43 3.55671 2.08739 0
M  V30 3206 H 318.771 0.655862 0.103638 0
M  V30 3207 H 321.301 2.02201 -0.312381 0
M  V30 3208 H 321.311 3.87067 1.2901 0
M  V30 3209 H 319.986 4.15538 0.17347 0
M  V30 3210 H 318.563 3.27657 1.78032 0
M  V30 3211 N 320.748 -0.0735177 1.57428 0
M  V30 3212 C 321.973 -0.789787 1.91774 0
M  V30 3213 C 322.398 -1.70413 0.796306 0
M  V30 3214 O 321.756 -1.79555 -0.250961 0
M  V30 3215 C 321.804 -1.5609 3.25067 0
M  V30 3216 O 320.908 -2.67144 3.14178 0
M  V30 3217 H 320.249 -0.215582 0.628029 0
M  V30 3218 H 322.779 -0.0422781 2.04556 0
M  V30 3219 H 322.789 -1.94052 3.58898 0
M  V30 3220 H 321.464 -0.890015 4.06265 0
M  V30 3221 H 320.041 -2.32052 2.91901 0
M  V30 3222 N 322.226 -1.5378 -0.344866 0
M  V30 3223 C 323.474 -1.70625 -1.08311 0
M  V30 3224 C 323.795 -0.471447 -1.89215 0
M  V30 3225 O 323.065 0.514616 -1.8902 0
M  V30 3226 H 321.645 -0.629058 -0.402859 0
M  V30 3227 H 324.307 -1.9103 -0.386459 0
M  V30 3228 H 323.403 -2.57656 -1.76124 0
M  V30 3229 N 323.704 0.605807 -1.45491 0
M  V30 3230 C 324.951 1.36476 -1.49601 0
M  V30 3231 C 325.279 1.94007 -0.138452 0
M  V30 3232 O 324.534 1.75638 0.863114 0
M  V30 3233 C 324.833 2.53012 -2.52428 0
M  V30 3234 C 324.499 2.13617 -3.97087 0
M  V30 3235 C 323.161 2.02587 -4.36477 0
M  V30 3236 C 325.513 1.82899 -4.88055 0
M  V30 3237 C 322.841 1.59064 -5.64726 0
M  V30 3238 C 325.193 1.40861 -6.16718 0
M  V30 3239 C 323.857 1.28391 -6.55036 0
M  V30 3240 H 323.127 0.499402 -0.547429 0
M  V30 3241 H 325.774 0.684546 -1.78847 0
M  V30 3242 H 324.079 3.26379 -2.16758 0
M  V30 3243 H 325.776 3.1124 -2.52845 0
M  V30 3244 H 322.366 2.23129 -3.65939 0
M  V30 3245 H 326.55 1.90317 -4.58359 0
M  V30 3246 H 321.806 1.48034 -5.93208 0
M  V30 3247 H 325.98 1.16138 -6.86648 0
M  V30 3248 H 323.607 0.944403 -7.54311 0
M  V30 3249 N 325.182 1.32811 0.848464 0
M  V30 3250 C 326.129 1.22265 1.95755 0
M  V30 3251 C 327.099 0.103413 1.65778 0
M  V30 3252 O 328.284 0.280033 1.88734 0
M  V30 3253 C 325.424 0.958014 3.31536 0
M  V30 3254 C 324.537 2.16262 3.73971 0
M  V30 3255 C 323.672 1.83295 4.98575 0
M  V30 3256 C 322.711 3.00041 5.33518 0
M  V30 3257 N 321.848 2.67125 6.49299 0
M  V30 3258 H 326.688 2.17128 2.04107 0
M  V30 3259 H 324.225 1.07982 0.998913 0
M  V30 3260 H 326.183 0.785052 4.09747 0
M  V30 3261 H 324.813 0.046159 3.22767 0
M  V30 3262 H 323.865 2.44565 2.91362 0
M  V30 3263 H 325.177 3.03572 3.95785 0
M  V30 3264 H 324.331 1.62586 5.84509 0
M  V30 3265 H 323.07 0.932078 4.7871 0
M  V30 3266 H 322.075 3.21374 4.46093 0
M  V30 3267 H 323.3 3.90869 5.55336 0
M  V30 3268 H 321.246 1.79586 6.3094 0
M  V30 3269 H 321.163 3.47965 6.71161 0
M  V30 3270 H 322.431 2.49861 7.3837 0
M  V30 3271 N 326.66 -1.06551 1.16123 0
M  V30 3272 C 328.076 -1.3142 0.905585 0
M  V30 3273 C 328.276 -1.96571 -0.442964 0
M  V30 3274 O 327.332 -2.23068 -1.18308 0
M  V30 3275 C 328.645 -2.19741 2.05267 0
M  V30 3276 C 330.193 -2.33165 2.08813 0
M  V30 3277 C 330.668 -3.24838 3.22868 0
M  V30 3278 N 332.159 -3.32421 3.22568 0
M  V30 3279 C 332.894 -4.0344 4.0746 0
M  V30 3280 N 332.39 -4.77003 5.02434 0
M  V30 3281 N 334.183 -3.99464 3.95456 0
M  V30 3282 H 326.334 -0.626548 2.02949 0
M  V30 3283 H 328.597 -0.338777 0.8854 0
M  V30 3284 H 328.303 -1.79142 3.02657 0
M  V30 3285 H 328.177 -3.20313 1.99198 0
M  V30 3286 H 330.564 -2.73013 1.12018 0
M  V30 3287 H 330.645 -1.3227 2.18948 0
M  V30 3288 H 330.289 -2.85708 4.19921 0
M  V30 3289 H 330.219 -4.25707 3.0997 0
M  V30 3290 H 332.71 -2.79994 2.53795 0
M  V30 3291 H 333.023 -5.28712 5.63634 0
M  V30 3292 H 331.368 -4.75992 5.06415 0
M  V30 3293 H 334.559 -3.4111 3.20564 0
M  V30 3294 H 334.732 -4.54544 4.61837 0
M  V30 3295 N 328.138 -0.959301 -1.25041 0
M  V30 3296 C 329.363 -0.633507 -1.97488 0
M  V30 3297 C 329.788 0.788555 -1.70773 0
M  V30 3298 O 329.146 1.53394 -0.966431 0
M  V30 3299 C 329.194 -0.904057 -3.49083 0
M  V30 3300 O 328.298 0.0147939 -4.12397 0
M  V30 3301 H 327.639 -0.240368 -0.618966 0
M  V30 3302 H 330.169 -1.28717 -1.59038 0
M  V30 3303 H 330.179 -0.832203 -3.99423 0
M  V30 3304 H 328.854 -1.94048 -3.67856 0
M  V30 3305 H 327.431 -0.109664 -3.72739 0
M  V30 3306 N 329.616 1.39756 -0.72842 0
M  V30 3307 C 330.846 2.04651 -0.283117 0
M  V30 3308 C 331.254 1.5502 1.08469 0
M  V30 3309 O 330.597 0.707343 1.69536 0
M  V30 3310 C 330.659 3.58947 -0.199309 0
M  V30 3311 C 330.323 4.31525 -1.5045 0
M  V30 3312 C 331.32 4.5861 -2.44894 0
M  V30 3313 C 329.005 4.70195 -1.76698 0
M  V30 3314 C 330.999 5.23366 -3.63822 0
M  V30 3315 C 328.686 5.3468 -2.95906 0
M  V30 3316 C 329.684 5.61198 -3.89289 0
M  V30 3317 O 329.372 6.24347 -5.06404 0
M  V30 3318 H 329.104 0.664777 -0.122666 0
M  V30 3319 H 331.658 1.79913 -0.990987 0
M  V30 3320 H 329.888 3.82556 0.56461 0
M  V30 3321 H 331.577 4.0534 0.213125 0
M  V30 3322 H 332.343 4.29187 -2.25883 0
M  V30 3323 H 328.222 4.48916 -1.04859 0
M  V30 3324 H 331.766 5.4398 -4.36728 0
M  V30 3325 H 327.663 5.63524 -3.14819 0
M  V30 3326 H 328.431 6.42842 -5.06652 0
M  V30 3327 N 331.094 0.475555 1.50254 0
M  V30 3328 C 332.319 -0.0777042 2.07254 0
M  V30 3329 C 332.744 -1.3235 1.3366 0
M  V30 3330 O 332.102 -1.77152 0.385597 0
M  V30 3331 C 332.15 -0.340169 3.58992 0
M  V30 3332 O 331.254 -1.41982 3.87188 0
M  V30 3333 H 330.595 0.0149556 0.663832 0
M  V30 3334 H 333.125 0.667878 1.93392 0
M  V30 3335 H 333.135 -0.579332 4.03866 0
M  V30 3336 H 331.81 0.570167 4.11973 0
M  V30 3337 H 330.387 -1.16762 3.54148 0
M  V30 3338 N 332.573 -1.56217 0.208337 0
M  V30 3339 C 333.803 -2.02043 -0.431523 0
M  V30 3340 C 334.211 -1.08755 -1.54819 0
M  V30 3341 O 333.554 -0.0870009 -1.83494 0
M  V30 3342 C 333.616 -3.44239 -1.03633 0
M  V30 3343 C 333.28 -4.56965 -0.0567502 0
M  V30 3344 C 334.277 -5.14624 0.738773 0
M  V30 3345 C 331.962 -5.02266 0.0581736 0
M  V30 3346 C 333.956 -6.16045 1.63605 0
M  V30 3347 C 331.643 -6.03528 0.959001 0
M  V30 3348 C 332.641 -6.60293 1.7465 0
M  V30 3349 O 332.329 -7.59586 2.6322 0
M  V30 3350 H 332.061 -0.666772 -0.111313 0
M  V30 3351 H 334.615 -2.02919 0.318277 0
M  V30 3352 H 332.845 -3.40391 -1.83497 0
M  V30 3353 H 334.534 -3.73793 -1.58221 0
M  V30 3354 H 335.3 -4.80483 0.660364 0
M  V30 3355 H 331.179 -4.57771 -0.544633 0
M  V30 3356 H 334.723 -6.60279 2.25116 0
M  V30 3357 H 330.62 -6.37092 1.03848 0
M  V30 3358 H 331.388 -7.77057 2.57148 0
M  V30 3359 N 334.051 0.0651679 -1.57465 0
M  V30 3360 C 334.999 1.09542 -2.05191 0
M  V30 3361 C 335.993 1.39675 -0.958509 0
M  V30 3362 O 337.199 1.39003 -1.14359 0
M  V30 3363 H 333.574 0.370623 -0.654326 0
M  V30 3364 H 335.545 0.666802 -2.90854 0
M  V30 3365 C 334.294 2.39881 -2.51699 0
M  V30 3366 H 333.617 2.17547 -3.3543 0
M  V30 3367 H 335.057 3.104 -2.88839 0
M  V30 3368 C 333.516 3.0631 -1.40271 0
M  V30 3369 O 334.046 3.94664 -0.748523 0
M  V30 3370 N 332.252 2.67041 -1.14618 0
M  V30 3371 H 331.799 1.95281 -1.67997 0
M  V30 3372 H 331.757 3.1181 -0.402688 0
M  V30 3373 N 335.529 1.53961 0.336706 0
M  V30 3374 C 336.806 1.62171 1.09361 0
M  V30 3375 C 337.186 0.447263 2.06307 0
M  V30 3376 O 336.534 -0.559802 2.21537 0
M  V30 3377 C 336.744 2.98565 1.80721 0
M  V30 3378 C 338.092 3.54157 2.34218 0
M  V30 3379 O 339.116 3.00784 1.90807 0
M  V30 3380 O 337.975 4.47528 3.13657 0
M  V30 3381 H 335.069 0.6562 0.503319 0
M  V30 3382 H 337.615 1.66307 0.33765 0
M  V30 3383 H 336.387 3.75482 1.10132 0
M  V30 3384 H 336.01 2.9805 2.63158 0
M  V30 3385 N 337.007 -0.598083 1.45811 0
M  V30 3386 C 337.955 -1.72932 1.55555 0
M  V30 3387 C 338.949 -1.63984 0.424921 0
M  V30 3388 O 340.155 -1.69663 0.601205 0
M  V30 3389 H 336.53 -0.571489 0.488779 0
M  V30 3390 H 338.501 -1.61842 2.50699 0
M  V30 3391 C 337.25 -3.11318 1.54843 0
M  V30 3392 H 336.573 -3.18867 2.41172 0
M  V30 3393 H 338.013 -3.90274 1.65717 0
M  V30 3394 C 336.472 -3.3578 0.274427 0
M  V30 3395 O 337.002 -3.9654 -0.641778 0
M  V30 3396 N 335.208 -2.90119 0.167139 0
M  V30 3397 H 334.755 -2.40855 0.913596 0
M  V30 3398 H 334.713 -3.0686 -0.684435 0
M  V30 3399 N 338.485 -1.33259 -0.841409 0
M  V30 3400 C 339.731 -1.24757 -1.59886 0
M  V30 3401 C 340.064 0.186913 -1.93298 0
M  V30 3402 O 339.339 1.12757 -1.5848 0
M  V30 3403 C 339.622 -2.12036 -2.91055 0
M  V30 3404 C 339.475 -3.63929 -2.6434 0
M  V30 3405 C 340.794 -1.9916 -3.92458 0
M  V30 3406 H 337.913 -0.454542 -0.580138 0
M  V30 3407 H 340.555 -1.63335 -0.970647 0
M  V30 3408 H 338.705 -1.79265 -3.44669 0
M  V30 3409 H 340.377 -4.06978 -2.17178 0
M  V30 3410 H 338.62 -3.85935 -1.98082 0
M  V30 3411 H 339.291 -4.20341 -3.57796 0
M  V30 3412 H 341.767 -2.27895 -3.48143 0
M  V30 3413 H 340.643 -2.62484 -4.82072 0
M  V30 3414 H 340.904 -0.963082 -4.31482 0
M  V30 3415 N 339.963 1.05934 -1.16686 0
M  V30 3416 C 341.24 1.75643 -0.860747 0
M  V30 3417 C 341.62 2.01144 0.640641 0
M  V30 3418 O 340.968 1.64147 1.58959 0
M  V30 3419 C 341.178 3.05493 -1.68745 0
M  V30 3420 C 342.526 3.79581 -1.90271 0
M  V30 3421 O 343.55 3.15344 -1.65641 0
M  V30 3422 O 342.409 4.9499 -2.31618 0
M  V30 3423 H 339.503 0.763426 -0.317977 0
M  V30 3424 H 342.049 1.1217 -1.27342 0
M  V30 3425 H 340.821 2.8264 -2.70611 0
M  V30 3426 H 340.444 3.76702 -1.27206 0
M  V30 3427 N 341.441 0.965919 1.2453 0
M  V30 3428 C 342.688 0.626831 1.92554 0
M  V30 3429 C 343.016 -0.837739 1.75534 0
M  V30 3430 O 342.271 -1.61793 1.10098 0
M  V30 3431 C 342.57 0.945428 3.44669 0
M  V30 3432 C 342.236 2.39785 3.81856 0
M  V30 3433 C 340.898 2.79483 3.91718 0
M  V30 3434 C 343.25 3.34055 4.00071 0
M  V30 3435 C 340.578 4.12496 4.1721 0
M  V30 3436 C 342.93 4.66694 4.27059 0
M  V30 3437 C 341.594 5.06172 4.3514 0
M  V30 3438 H 340.864 0.229374 0.704605 0
M  V30 3439 H 343.511 1.21707 1.4785 0
M  V30 3440 H 341.816 0.272926 3.90848 0
M  V30 3441 H 343.513 0.661484 3.95507 0
M  V30 3442 H 340.103 2.08003 3.74743 0
M  V30 3443 H 344.287 3.04571 3.91855 0
M  V30 3444 H 339.543 4.42709 4.21685 0
M  V30 3445 H 343.717 5.3971 4.40097 0
M  V30 3446 H 341.344 6.09262 4.54646 0
M  V30 3447 N 342.919 -1.39368 0.735821 0
M  V30 3448 C 343.866 -2.30599 0.0963825 0
M  V30 3449 C 344.836 -1.49257 -0.728794 0
M  V30 3450 O 346.021 -1.77941 -0.688588 0
M  V30 3451 C 343.161 -3.35596 -0.804305 0
M  V30 3452 C 342.274 -4.31987 0.0335761 0
M  V30 3453 C 341.409 -5.24053 -0.868461 0
M  V30 3454 C 340.448 -6.12095 -0.0258776 0
M  V30 3455 N 339.585 -6.96514 -0.883893 0
M  V30 3456 H 344.425 -2.8471 0.880002 0
M  V30 3457 H 341.962 -1.40188 0.445619 0
M  V30 3458 H 343.92 -3.95062 -1.34096 0
M  V30 3459 H 342.55 -2.82938 -1.55389 0
M  V30 3460 H 341.602 -3.74133 0.68766 0
M  V30 3461 H 342.914 -4.94074 0.685036 0
M  V30 3462 H 342.068 -5.88549 -1.47293 0
M  V30 3463 H 340.807 -4.62289 -1.5537 0
M  V30 3464 H 339.812 -5.4661 0.591386 0
M  V30 3465 H 341.037 -6.75923 0.656156 0
M  V30 3466 H 338.983 -6.37318 -1.55441 0
M  V30 3467 H 338.9 -7.55448 -0.288931 0
M  V30 3468 H 340.168 -7.65439 -1.4739 0
M  V30 3469 N 344.397 -0.483516 -1.5 0
M  V30 3470 C 345.637 0.0657469 -2.04294 0
M  V30 3471 C 346.001 1.35869 -1.35659 0
M  V30 3472 O 347.202 1.99111 -1.80578 0
M  V30 3473 C 345.473 0.232758 -3.56641 0
M  V30 3474 S 347.032 0.738788 -4.32536 0
M  V30 3475 H 343.85 0.0100755 -0.710929 0
M  V30 3476 H 346.452 -0.653494 -1.84254 0
M  V30 3477 H 345.156 -0.713847 -4.04144 0
M  V30 3478 H 344.687 0.977751 -3.81056 0
M  V30 3479 H 346.702 2.01048 -4.53645 0
M  V30 3480 N 345.875 1.56104 -0.216619 0
M  V30 3481 C 346.822 2.2007 0.695531 0
M  V30 3482 C 347.792 1.15471 1.19397 0
M  V30 3483 O 348.977 1.43807 1.25396 0
M  V30 3484 C 346.117 2.88073 1.90021 0
M  V30 3485 C 345.23 4.07253 1.44113 0
M  V30 3486 C 344.365 4.63052 2.603 0
M  V30 3487 C 343.404 5.74545 2.11103 0
M  V30 3488 N 342.541 6.24656 3.20545 0
M  V30 3489 H 347.381 2.97655 0.143327 0
M  V30 3490 H 344.918 1.46982 0.0589934 0
M  V30 3491 H 346.876 3.25681 2.60745 0
M  V30 3492 H 345.506 2.13015 2.42538 0
M  V30 3493 H 344.558 3.75164 0.628999 0
M  V30 3494 H 345.87 4.8783 1.04036 0
M  V30 3495 H 345.024 5.03078 3.39113 0
M  V30 3496 H 343.763 3.81628 3.03663 0
M  V30 3497 H 342.768 5.34027 1.3075 0
M  V30 3498 H 343.993 6.57801 1.68746 0
M  V30 3499 H 341.939 5.46148 3.63399 0
M  V30 3500 H 341.856 7.00343 2.84704 0
M  V30 3501 H 343.124 6.69338 3.99508 0
M  V30 3502 N 347.353 -0.0568162 1.57498 0
M  V30 3503 C 348.583 -0.764515 1.91934 0
M  V30 3504 C 348.991 -1.70877 0.81227 0
M  V30 3505 O 348.334 -1.82351 -0.222213 0
M  V30 3506 C 348.396 -1.5994 3.21962 0
M  V30 3507 C 348.06 -0.822925 4.4953 0
M  V30 3508 C 349.057 -0.135464 5.19723 0
M  V30 3509 C 346.742 -0.785666 4.96117 0
M  V30 3510 C 348.736 0.578861 6.34766 0
M  V30 3511 C 346.423 -0.0675784 6.11063 0
M  V30 3512 C 347.421 0.613471 6.80239 0
M  V30 3513 O 347.109 1.31996 7.92989 0
M  V30 3514 H 346.841 -0.221647 0.63863 0
M  V30 3515 H 349.395 -0.0268218 2.05382 0
M  V30 3516 H 347.625 -2.38026 3.04763 0
M  V30 3517 H 349.314 -2.18715 3.41934 0
M  V30 3518 H 350.08 -0.155458 4.84751 0
M  V30 3519 H 345.959 -1.30524 4.42136 0
M  V30 3520 H 349.503 1.111 6.88696 0
M  V30 3521 H 345.4 -0.0455636 6.45484 0
M  V30 3522 H 346.168 1.23077 8.09194 0
M  V30 3523 N 348.832 -1.54138 -0.328536 0
M  V30 3524 C 350.08 -1.71765 -1.06496 0
M  V30 3525 C 350.401 -0.49149 -1.88704 0
M  V30 3526 O 349.671 0.494539 -1.89555 0
M  V30 3527 H 348.251 -0.633295 -0.396164 0
M  V30 3528 H 350.913 -1.91429 -0.366176 0
M  V30 3529 H 350.009 -2.5951 -1.73381 0
M  V30 3530 N 350.31 0.590341 -1.46126 0
M  V30 3531 C 351.54 1.37304 -1.54373 0
M  V30 3532 C 351.948 1.88332 -0.181071 0
M  V30 3533 O 351.291 1.63852 0.830559 0
M  V30 3534 C 351.353 2.6012 -2.48149 0
M  V30 3535 C 351.017 2.30613 -3.94546 0
M  V30 3536 C 352.014 1.89915 -4.83971 0
M  V30 3537 C 349.699 2.42993 -4.39613 0
M  V30 3538 C 351.693 1.61981 -6.16475 0
M  V30 3539 C 349.38 2.14672 -5.72153 0
M  V30 3540 C 350.378 1.7423 -6.60404 0
M  V30 3541 O 350.066 1.46251 -7.90485 0
M  V30 3542 H 349.798 0.426086 -0.524811 0
M  V30 3543 H 352.352 0.72539 -1.92165 0
M  V30 3544 H 350.582 3.27664 -2.05361 0
M  V30 3545 H 352.271 3.22182 -2.46887 0
M  V30 3546 H 353.037 1.79872 -4.50412 0
M  V30 3547 H 348.916 2.73435 -3.71153 0
M  V30 3548 H 352.46 1.30341 -6.85315 0
M  V30 3549 H 348.357 2.24337 -6.05263 0
M  V30 3550 H 349.125 1.6016 -8.02677 0
M  V30 3551 N 351.788 1.33704 0.83433 0
M  V30 3552 C 352.735 1.24335 1.94447 0
M  V30 3553 C 353.705 0.120991 1.65659 0
M  V30 3554 O 354.89 0.300035 1.88426 0
M  V30 3555 C 352.03 0.993124 3.30501 0
M  V30 3556 C 351.143 2.20217 3.71657 0
M  V30 3557 C 350.278 1.88572 4.96602 0
M  V30 3558 C 349.317 3.05683 5.30306 0
M  V30 3559 N 348.454 2.73997 6.46429 0
M  V30 3560 H 353.294 2.1928 2.01792 0
M  V30 3561 H 350.831 1.09035 0.987404 0
M  V30 3562 H 352.789 0.828467 4.08892 0
M  V30 3563 H 351.419 0.0803902 3.227 0
M  V30 3564 H 350.471 2.47642 2.88752 0
M  V30 3565 H 351.783 3.07752 3.92543 0
M  V30 3566 H 350.937 1.68776 5.82752 0
M  V30 3567 H 349.676 0.982799 4.77695 0
M  V30 3568 H 348.681 3.26088 4.42659 0
M  V30 3569 H 349.906 3.96737 5.51159 0
M  V30 3570 H 347.852 1.86268 6.28999 0
M  V30 3571 H 347.769 3.55064 6.67432 0
M  V30 3572 H 349.037 2.57679 7.35678 0
M  V30 3573 N 353.266 -1.05314 1.17247 0
M  V30 3574 C 354.196 -2.1498 0.911362 0
M  V30 3575 C 355.177 -1.69471 -0.146169 0
M  V30 3576 O 356.362 -1.942 0.003812 0
M  V30 3577 C 353.492 -3.4472 0.422528 0
M  V30 3578 C 352.446 -4.03789 1.4191 0
M  V30 3579 C 351.772 -5.28858 0.788274 0
M  V30 3580 C 353.072 -4.41418 2.7919 0
M  V30 3581 H 354.766 -2.3708 1.82848 0
M  V30 3582 H 352.312 -1.13938 0.880569 0
M  V30 3583 H 354.265 -4.20787 0.227289 0
M  V30 3584 H 352.989 -3.22269 -0.530123 0
M  V30 3585 H 351.648 -3.2979 1.60106 0
M  V30 3586 H 351.296 -5.02709 -0.171173 0
M  V30 3587 H 350.996 -5.69338 1.45353 0
M  V30 3588 H 352.52 -6.07612 0.603282 0
M  V30 3589 H 353.934 -5.08524 2.64719 0
M  V30 3590 H 352.331 -4.92913 3.42282 0
M  V30 3591 H 353.401 -3.51819 3.33693 0
M  V30 3592 N 354.744 -0.972509 -1.24016 0
M  V30 3593 C 355.969 -0.654417 -1.96805 0
M  V30 3594 C 356.394 0.770398 -1.716 0
M  V30 3595 O 355.752 1.52361 -0.982647 0
M  V30 3596 C 355.8 -0.941031 -3.48105 0
M  V30 3597 O 354.904 -0.0289472 -4.1239 0
M  V30 3598 H 354.245 -0.24692 -0.616382 0
M  V30 3599 H 356.775 -1.30396 -1.57664 0
M  V30 3600 H 356.785 -0.87452 -3.98517 0
M  V30 3601 H 355.46 -1.97939 -3.65777 0
M  V30 3602 H 354.037 -0.149192 -3.72601 0
M  V30 3603 N 356.222 1.38976 -0.743202 0
M  V30 3604 C 357.47 1.99948 -0.29417 0
M  V30 3605 C 357.791 1.59279 1.12495 0
M  V30 3606 O 357.061 0.844808 1.76748 0
M  V30 3607 H 355.641 0.739473 -0.105774 0
M  V30 3608 H 358.303 1.699 -0.954986 0
M  V30 3609 H 357.399 3.10142 -0.349056 0
M  V30 3610 N 357.7 0.491464 1.49741 0
M  V30 3611 C 358.925 -0.0557177 2.07325 0
M  V30 3612 C 359.35 -1.30925 1.35056 0
M  V30 3613 O 358.708 -1.76733 0.404365 0
M  V30 3614 C 358.756 -0.302074 3.59333 0
M  V30 3615 O 357.86 -1.37868 3.88672 0
M  V30 3616 H 357.201 0.0219956 0.663636 0
M  V30 3617 H 359.731 0.688352 1.92673 0
M  V30 3618 H 359.741 -0.536464 4.04458 0
M  V30 3619 H 358.416 0.61383 4.11345 0
M  V30 3620 H 356.993 -1.12999 3.55367 0
M  V30 3621 N 359.178 -1.55987 0.224894 0
M  V30 3622 C 360.403 -2.03232 -0.41369 0
M  V30 3623 C 360.828 -1.10359 -1.52323 0
M  V30 3624 O 360.186 -0.092395 -1.81064 0
M  V30 3625 C 360.234 -3.48682 -0.919405 0
M  V30 3626 O 359.338 -3.58947 -2.03054 0
M  V30 3627 H 358.679 -0.657428 -0.0931903 0
M  V30 3628 H 361.209 -2.01679 0.34451 0
M  V30 3629 H 361.219 -3.8907 -1.22835 0
M  V30 3630 H 359.894 -4.15761 -0.107339 0
M  V30 3631 H 358.471 -3.30448 -1.72796 0
M  V30 3632 N 360.656 0.0484629 -1.57525 0
M  V30 3633 C 361.881 0.759177 -1.93006 0
M  V30 3634 C 362.306 1.69125 -0.823317 0
M  V30 3635 O 361.664 1.79931 0.222364 0
M  V30 3636 C 361.712 1.50899 -3.27509 0
M  V30 3637 O 360.816 2.62112 -3.18388 0
M  V30 3638 H 360.157 0.205564 -0.631379 0
M  V30 3639 H 362.687 0.00972959 -2.04598 0
M  V30 3640 H 362.697 1.88317 -3.6194 0
M  V30 3641 H 361.372 0.825269 -4.0763 0
M  V30 3642 H 359.949 2.27379 -2.95556 0
M  V30 3643 N 362.134 1.5431 0.320358 0
M  V30 3644 C 363.359 1.76954 1.08175 0
M  V30 3645 C 363.784 0.518193 1.80821 0
M  V30 3646 O 363.142 -0.530411 1.73368 0
M  V30 3647 C 363.19 2.96451 2.05303 0
M  V30 3648 O 362.294 2.68221 3.13259 0
M  V30 3649 H 361.635 0.586275 0.311733 0
M  V30 3650 H 364.165 2.01342 0.363676 0
M  V30 3651 H 364.175 3.23887 2.48116 0
M  V30 3652 H 362.85 3.87196 1.51829 0
M  V30 3653 H 361.427 2.51744 2.75099 0
M  V30 3654 N 363.613 -0.582584 1.46437 0
M  V30 3655 C 364.841 -1.36682 1.55324 0
M  V30 3656 C 365.256 -1.87796 0.194409 0
M  V30 3657 O 364.613 -1.63623 -0.808318 0
M  V30 3658 C 364.664 -2.55426 2.55812 0
M  V30 3659 O 364.385 -2.0643 3.86417 0
M  V30 3660 C 365.886 -3.47976 2.74641 0
M  V30 3661 H 363.106 -0.417545 0.525259 0
M  V30 3662 H 365.65 -0.708219 1.91845 0
M  V30 3663 H 363.805 -3.17275 2.22295 0
M  V30 3664 H 364.219 -2.83762 4.41111 0
M  V30 3665 H 365.693 -4.27775 3.48874 0
M  V30 3666 H 366.17 -3.99919 1.81553 0
M  V30 3667 H 366.776 -2.91962 3.09255 0
M  V30 3668 N 365.091 -1.34144 -0.827227 0
M  V30 3669 C 366.331 -1.27603 -1.59677 0
M  V30 3670 C 366.695 0.153035 -1.91389 0
M  V30 3671 O 367.896 0.342566 -2.66608 0
M  V30 3672 C 366.167 -2.13784 -2.86411 0
M  V30 3673 S 367.726 -2.24552 -3.76991 0
M  V30 3674 H 364.544 -0.453789 -0.547354 0
M  V30 3675 H 367.146 -1.69309 -0.977479 0
M  V30 3676 H 365.85 -3.16627 -2.61104 0
M  V30 3677 H 365.381 -1.72959 -3.5334 0
M  V30 3678 H 367.396 -1.41514 -4.75593 0
M  V30 3679 N 366.569 1.04691 -1.17803 0
M  V30 3680 C 367.794 1.81984 -0.994813 0
M  V30 3681 C 368.219 1.82586 0.452112 0
M  V30 3682 O 367.577 1.23854 1.324 0
M  V30 3683 C 367.625 3.2575 -1.54659 0
M  V30 3684 O 366.729 4.05267 -0.763728 0
M  V30 3685 H 366.07 0.562483 -0.352857 0
M  V30 3686 H 368.6 1.3189 -1.56417 0
M  V30 3687 H 368.61 3.76541 -1.57102 0
M  V30 3688 H 367.285 3.24627 -2.59981 0
M  V30 3689 H 365.862 3.63972 -0.811108 0
M  V30 3690 N 368.047 0.979072 1.23499 0
M  V30 3691 C 369.458 0.684391 1.73704 0
M  V30 3692 C 369.809 -0.799448 1.79174 0
M  V30 3693 O 368.934 -1.62531 1.42873 0
M  V30 3694 C 369.529 1.23564 3.15464 0
M  V30 3695 C 368.088 0.99063 3.6313 0
M  V30 3696 C 367.235 1.36416 2.41425 0
M  V30 3697 H 370.186 1.15307 1.09041 0
M  V30 3698 H 370.207 0.607417 3.7562 0
M  V30 3699 H 369.719 2.31561 3.1145 0
M  V30 3700 H 367.82 -0.0733136 3.72528 0
M  V30 3701 H 367.933 1.64427 4.5 0
M  V30 3702 H 366.297 0.782616 2.42378 0
M  V30 3703 H 367.08 2.45387 2.40083 0
M  V30 3704 N 369.525 -1.3858 0.750561 0
M  V30 3705 C 370.773 -1.99789 0.30477 0
M  V30 3706 C 371.094 -1.59874 -1.11649 0
M  V30 3707 O 370.364 -0.85417 -1.76297 0
M  V30 3708 H 368.944 -0.738902 0.109694 0
M  V30 3709 H 371.606 -1.69391 0.963983 0
M  V30 3710 H 370.702 -3.09952 0.365499 0
M  V30 3711 N 371.003 -0.499398 -1.49478 0
M  V30 3712 C 371.951 0.293604 -2.3074 0
M  V30 3713 C 372.945 0.96427 -1.39277 0
M  V30 3714 O 374.151 0.892141 -1.56336 0
M  V30 3715 H 370.526 0.113541 -0.743379 0
M  V30 3716 H 372.497 -0.411772 -2.95545 0
M  V30 3717 C 371.246 1.3462 -3.20582 0
M  V30 3718 H 370.569 0.83954 -3.90886 0
M  V30 3719 H 372.009 1.87308 -3.80384 0
M  V30 3720 C 370.468 2.36351 -2.40083 0
M  V30 3721 O 370.998 3.422 -2.10385 0
M  V30 3722 N 369.204 2.0878 -2.02137 0
M  V30 3723 H 368.751 1.22723 -2.26488 0
M  V30 3724 H 368.709 2.77075 -1.48583 0
M  V30 3725 N 372.481 1.55866 -0.233164 0
M  V30 3726 C 373.709 2.02998 0.399905 0
M  V30 3727 C 374.124 1.11274 1.52524 0
M  V30 3728 O 373.481 0.124528 1.82075 0
M  V30 3729 C 373.532 3.4958 0.920639 0
M  V30 3730 O 373.253 4.37808 -0.159834 0
M  V30 3731 C 374.754 4.12411 1.62578 0
M  V30 3732 H 371.974 0.664006 0.0966281 0
M  V30 3733 H 374.518 2.0143 -0.353013 0
M  V30 3734 H 372.673 3.51727 1.62379 0
M  V30 3735 H 373.087 5.23981 0.23337 0
M  V30 3736 H 374.561 5.16711 1.94201 0
M  V30 3737 H 375.038 3.5809 2.54299 0
M  V30 3738 H 375.644 4.14148 0.967553 0
M  V30 3739 N 373.959 -0.0401083 1.57549 0
M  V30 3740 C 375.205 -0.728793 1.89895 0
M  V30 3741 C 375.56 -1.73551 0.830535 0
M  V30 3742 O 374.853 -1.90914 -0.162007 0
M  V30 3743 C 375.047 -1.44902 3.26708 0
M  V30 3744 C 374.876 -0.513568 4.46758 0
M  V30 3745 C 373.646 -0.138698 5.0511 0
M  V30 3746 C 375.844 0.203341 5.13898 0
M  V30 3747 N 373.826 0.799159 6.08676 0
M  V30 3748 C 375.197 0.997246 6.11927 0
M  V30 3749 C 377.252 0.271459 4.97159 0
M  V30 3750 C 375.955 1.85299 6.95023 0
M  V30 3751 C 377.981 1.11429 5.80808 0
M  V30 3752 C 377.343 1.89615 6.78399 0
M  V30 3753 H 373.442 -0.241125 0.743897 0
M  V30 3754 H 376.026 0.0108016 1.94697 0
M  V30 3755 H 374.197 -2.15914 3.22856 0
M  V30 3756 H 375.929 -2.08921 3.46603 0
M  V30 3757 H 372.684 -0.498496 4.70969 0
M  V30 3758 H 373.108 1.26227 6.65128 0
M  V30 3759 H 377.75 -0.318709 4.21597 0
M  V30 3760 H 375.468 2.454 7.69938 0
M  V30 3761 H 379.054 1.17038 5.69906 0
M  V30 3762 H 377.934 2.53779 7.42001 0
M  V30 3763 N 375.437 -1.54477 -0.31217 0
M  V30 3764 C 376.384 -1.84655 -1.38461 0
M  V30 3765 C 377.354 -0.694536 -1.50882 0
M  V30 3766 O 378.539 -0.942081 -1.6592 0
M  V30 3767 C 375.679 -2.0896 -2.74645 0
M  V30 3768 C 374.792 -3.36618 -2.70763 0
M  V30 3769 C 373.927 -3.50824 -3.98868 0
M  V30 3770 C 372.966 -4.72315 -3.89339 0
M  V30 3771 N 372.103 -4.83387 -5.09197 0
M  V30 3772 H 376.943 -2.76142 -1.12026 0
M  V30 3773 H 374.48 -1.36748 -0.542065 0
M  V30 3774 H 376.438 -2.21045 -3.53829 0
M  V30 3775 H 375.068 -1.20752 -2.99364 0
M  V30 3776 H 374.12 -3.33211 -1.83506 0
M  V30 3777 H 375.432 -4.25917 -2.59608 0
M  V30 3778 H 374.586 -3.62513 -4.86486 0
M  V30 3779 H 373.325 -2.59638 -4.12843 0
M  V30 3780 H 372.33 -4.6067 -3.00105 0
M  V30 3781 H 373.555 -5.64897 -3.76919 0
M  V30 3782 H 371.501 -3.9512 -5.23657 0
M  V30 3783 H 371.418 -5.66669 -5.00422 0
M  V30 3784 H 372.686 -4.9942 -5.98498 0
M  V30 3785 N 376.915 0.57481 -1.46744 0
M  V30 3786 C 378.326 1.15695 -1.46532 0
M  V30 3787 C 378.677 1.95068 -0.210425 0
M  V30 3788 O 377.802 2.05241 0.685944 0
M  V30 3789 C 378.397 2.1048 -2.65487 0
M  V30 3790 C 376.956 2.64002 -2.68291 0
M  V30 3791 C 376.103 1.40026 -2.39349 0
M  V30 3792 H 379.054 0.362325 -1.54509 0
M  V30 3793 H 379.075 2.94074 -2.41455 0
M  V30 3794 H 378.587 1.52683 -3.56805 0
M  V30 3795 H 376.688 3.25646 -1.81067 0
M  V30 3796 H 376.801 3.06197 -3.68483 0
M  V30 3797 H 375.165 1.70106 -1.89568 0
M  V30 3798 H 375.948 0.840485 -3.32852 0
M  V30 3799 N 378.394 1.34581 0.820102 0
M  V30 3800 C 379.304 1.28471 1.96297 0
M  V30 3801 C 380.32 0.191902 1.72939 0
M  V30 3802 O 381.496 0.418879 1.96996 0
M  V30 3803 C 378.561 1.04281 3.30645 0
M  V30 3804 C 377.622 2.22745 3.66992 0
M  V30 3805 C 376.855 1.997 4.9493 0
M  V30 3806 O 377.078 0.956656 5.6232 0
M  V30 3807 O 376.012 2.86723 5.2922 0
M  V30 3808 H 379.838 2.24624 2.04396 0
M  V30 3809 H 377.423 1.14816 0.955913 0
M  V30 3810 H 379.305 0.925841 4.11104 0
M  V30 3811 H 377.98 0.111697 3.23507 0
M  V30 3812 H 376.887 2.40003 2.86966 0
M  V30 3813 H 378.22 3.14257 3.78819 0
M  V30 3814 N 379.872 -1.04064 1.18357 0
M  V30 3815 C 380.802 -2.14001 0.934113 0
M  V30 3816 C 381.783 -1.69616 -0.128186 0
M  V30 3817 O 382.968 -1.94185 0.0244093 0
M  V30 3818 C 380.098 -3.44253 0.459066 0
M  V30 3819 C 379.052 -4.02261 1.46185 0
M  V30 3820 C 378.378 -5.27992 0.844322 0
M  V30 3821 C 379.678 -4.38432 2.83856 0
M  V30 3822 H 381.372 -2.35127 1.85352 0
M  V30 3823 H 378.918 -1.12998 0.892604 0
M  V30 3824 H 380.871 -4.20522 0.271907 0
M  V30 3825 H 379.595 -3.22813 -0.495912 0
M  V30 3826 H 378.254 -3.28074 1.63595 0
M  V30 3827 H 377.902 -5.02862 -0.117845 0
M  V30 3828 H 377.602 -5.67765 1.51384 0
M  V30 3829 H 379.126 -6.06938 0.667693 0
M  V30 3830 H 380.54 -5.05688 2.70098 0
M  V30 3831 H 378.937 -4.89254 3.47491 0
M  V30 3832 H 380.007 -3.4826 3.37406 0
M  V30 3833 N 381.35 -0.985608 -1.22978 0
M  V30 3834 C 382.761 -0.693593 -1.73338 0
M  V30 3835 C 383.112 0.789935 -1.79595 0
M  V30 3836 O 382.237 1.61771 -1.43733 0
M  V30 3837 C 382.832 -1.25235 -3.14804 0
M  V30 3838 C 381.391 -1.00987 -3.626 0
M  V30 3839 C 380.538 -1.37695 -2.40698 0
M  V30 3840 H 383.489 -1.15884 -1.08428 0
M  V30 3841 H 383.51 -0.627329 -3.75293 0
M  V30 3842 H 383.022 -2.33209 -3.10218 0
M  V30 3843 H 381.123 0.0535565 -3.72562 0
M  V30 3844 H 381.236 -1.66812 -4.49122 0
M  V30 3845 H 379.6 -0.795459 -2.4196 0
M  V30 3846 H 380.383 -2.46657 -2.38779 0
M  V30 3847 N 382.828 1.3818 -0.7579 0
M  V30 3848 C 383.775 2.30416 -0.133057 0
M  V30 3849 C 384.745 1.50398 0.704957 0
M  V30 3850 O 385.93 1.79014 0.660192 0
M  V30 3851 C 383.07 3.36834 0.750813 0
M  V30 3852 C 382.183 4.31879 -0.102297 0
M  V30 3853 C 381.318 5.25368 0.784979 0
M  V30 3854 C 380.357 6.12058 -0.0715046 0
M  V30 3855 N 379.494 6.97832 0.772972 0
M  V30 3856 H 384.334 2.83274 -0.925186 0
M  V30 3857 H 381.871 1.39461 -0.467866 0
M  V30 3858 H 383.829 3.97145 1.27794 0
M  V30 3859 H 382.459 2.85374 1.50868 0
M  V30 3860 H 381.511 3.72991 -0.747095 0
M  V30 3861 H 382.823 4.92921 -0.763552 0
M  V30 3862 H 381.977 5.90818 1.37911 0
M  V30 3863 H 380.716 4.64703 1.47996 0
M  V30 3864 H 379.721 5.456 -0.678272 0
M  V30 3865 H 380.946 6.74793 -0.763606 0
M  V30 3866 H 378.892 6.3971 1.45282 0
M  V30 3867 H 378.809 7.55812 0.168709 0
M  V30 3868 H 380.077 7.67687 1.35194 0
M  V30 3869 N 384.306 0.507319 1.49211 0
M  V30 3870 C 385.546 -0.0332372 2.04373 0
M  V30 3871 C 385.91 -1.33694 1.37804 0
M  V30 3872 O 387.111 -1.96213 1.83722 0
M  V30 3873 C 385.382 -0.17599 3.56966 0
M  V30 3874 S 386.941 -0.669882 4.33657 0
M  V30 3875 H 383.759 0.00123603 0.710999 0
M  V30 3876 H 386.361 0.682725 1.83191 0
M  V30 3877 H 385.065 0.778053 4.02957 0
M  V30 3878 H 384.596 -0.917005 3.82563 0
M  V30 3879 H 386.611 -1.93806 4.56786 0
M  V30 3880 N 385.784 -1.5574 0.241426 0
M  V30 3881 C 387.03 -1.99104 -0.385406 0
M  V30 3882 C 387.363 -1.1293 -1.57988 0
M  V30 3883 O 386.638 -0.191449 -1.93555 0
M  V30 3884 C 386.921 -3.51087 -0.800616 0
M  V30 3885 C 386.774 -4.48028 0.398874 0
M  V30 3886 C 388.093 -4.08015 -1.64959 0
M  V30 3887 H 385.212 -0.723848 -0.138614 0
M  V30 3888 H 387.854 -1.86903 0.341642 0
M  V30 3889 H 386.004 -3.61615 -1.4201 0
M  V30 3890 H 387.676 -4.49487 1.03726 0
M  V30 3891 H 385.919 -4.21077 1.04293 0
M  V30 3892 H 386.59 -5.51962 0.0651056 0
M  V30 3893 H 389.066 -4.00555 -1.12672 0
M  V30 3894 H 387.942 -5.14635 -1.90898 0
M  V30 3895 H 388.203 -3.56131 -2.61961 0
M  V30 3896 N 387.262 0.0317525 -1.57568 0
M  V30 3897 C 388.678 0.38735 -1.54828 0
M  V30 3898 C 388.878 1.7677 -0.967187 0
M  V30 3899 O 387.934 2.45581 -0.587063 0
M  V30 3900 C 389.247 0.291667 -2.99282 0
M  V30 3901 C 390.795 0.368946 -3.10818 0
M  V30 3902 C 391.27 0.302741 -4.56998 0
M  V30 3903 N 392.761 0.361617 -4.61786 0
M  V30 3904 C 393.496 0.333238 -5.72431 0
M  V30 3905 N 392.992 0.257308 -6.92322 0
M  V30 3906 N 394.785 0.382769 -5.60795 0
M  V30 3907 H 386.936 -0.871609 -1.93692 0
M  V30 3908 H 389.199 -0.331161 -0.888277 0
M  V30 3909 H 388.905 -0.656794 -3.45513 0
M  V30 3910 H 388.779 1.08638 -3.61217 0
M  V30 3911 H 391.166 1.30784 -2.64536 0
M  V30 3912 H 391.247 -0.455066 -2.5172 0
M  V30 3913 H 390.891 -0.632473 -5.03947 0
M  V30 3914 H 390.821 1.14482 -5.14005 0
M  V30 3915 H 393.312 0.422923 -3.75526 0
M  V30 3916 H 393.625 0.24068 -7.72425 0
M  V30 3917 H 391.97 0.223396 -6.94641 0
M  V30 3918 H 395.161 0.44006 -4.66027 0
M  V30 3919 H 395.334 0.357184 -6.47015 0
M  V30 3920 O 388.779 1.60553 0.174647 0
M  V30 3921 H 389.47 1.75876 0.811619 0
M  V30 END ATOM
M  V30 BEGIN BOND
M  V30 END BOND
M  V30 END CTAB
M  END
$$$$
