drugbank_target|C6S3C7 Plasmodium exported protein (DB11638)
 OpenBabel12092121103D

  0  0  0     0  0            999 V3000
M  V30 BEGIN CTAB
M  V30 COUNTS 4998 5063 0 0 0
M  V30 BEGIN ATOM
M  V30 1 H -0.908 1.98254 -0.117106 0
M  V30 2 N 0 1.576 0 0
M  V30 3 C 0.933 2.03868 1.02534 0
M  V30 4 C 1.911 0.928543 1.3348 0
M  V30 5 O 3.095 1.19667 1.45644 0
M  V30 6 C 0.222 2.43627 2.35294 0
M  V30 7 C -0.732 3.65373 2.2001 0
M  V30 8 S 0.101 5.13292 1.52614 0
M  V30 9 C 1.257 5.56322 2.86805 0
M  V30 10 H 1.49 2.90518 0.631377 0
M  V30 11 H -0.977 1.52953 0.210867 0
M  V30 12 H 0.981 2.67203 3.11629 0
M  V30 13 H -0.358 1.57376 2.7183 0
M  V30 14 H -1.165 3.90944 3.18086 0
M  V30 15 H -1.563 3.418 1.51819 0
M  V30 16 H 0.729 5.58782 3.83104 0
M  V30 17 H 1.672 6.56266 2.65933 0
M  V30 18 H 2.08 4.83886 2.90714 0
M  V30 19 N 1.4781 -0.272755 1.55222 0
M  V30 20 C 2.3881 -1.35918 1.91216 0
M  V30 21 C 3.4041 -1.54026 0.809436 0
M  V30 22 O 4.5801 -1.68148 1.10852 0
M  V30 23 C 1.6451 -2.69834 2.17693 0
M  V30 24 C 0.7061 -2.6047 3.41253 0
M  V30 25 C -0.0609 -3.88 3.66458 0
M  V30 26 O 0.1621 -4.88693 2.94169 0
M  V30 27 O -0.9039 -3.88189 4.59992 0
M  V30 28 H 2.9221 -1.0839 2.83699 0
M  V30 29 H 0.5071 -0.471301 1.41771 0
M  V30 30 H 2.3891 -3.49017 2.36147 0
M  V30 31 H 1.0641 -2.97148 1.28392 0
M  V30 32 H -0.0289 -1.79663 3.28134 0
M  V30 33 H 1.3041 -2.38106 4.30774 0
M  V30 34 N 2.9562 -1.48159 -0.537278 0
M  V30 35 C 4.3722 -1.34118 -0.865129 0
M  V30 36 C 4.5722 -0.346678 -1.98495 0
M  V30 37 O 3.6282 0.234715 -2.51407 0
M  V30 38 C 4.9412 -2.73963 -1.23954 0
M  V30 39 C 6.4892 -2.82397 -1.34984 0
M  V30 40 C 6.9642 -4.22928 -1.75772 0
M  V30 41 N 8.4552 -4.25566 -1.82887 0
M  V30 42 C 9.1902 -5.31235 -2.15817 0
M  V30 43 N 8.6862 -6.47189 -2.47222 0
M  V30 44 N 10.4792 -5.18624 -2.16761 0
M  V30 45 H 2.6302 -2.1144 0.201715 0
M  V30 46 H 4.8932 -0.947598 0.0275949 0
M  V30 47 H 4.5992 -3.48264 -0.490381 0
M  V30 48 H 4.4732 -3.0702 -2.19132 0
M  V30 49 H 6.8602 -2.08356 -2.08978 0
M  V30 50 H 6.9412 -2.5297 -0.379448 0
M  V30 51 H 6.5852 -4.97482 -1.02341 0
M  V30 52 H 6.5152 -4.49794 -2.73848 0
M  V30 53 H 9.0062 -3.41924 -1.60924 0
M  V30 54 H 9.3192 -7.23564 -2.71433 0
M  V30 55 H 7.6642 -6.50476 -2.44757 0
M  V30 56 H 10.8552 -4.27056 -1.91679 0
M  V30 57 H 11.0282 -6.01078 -2.42093 0
M  V30 58 N 4.4343 0.785586 -1.36625 0
M  V30 59 C 5.6593 1.57963 -1.34397 0
M  V30 60 C 6.0843 1.87964 0.071526 0
M  V30 61 O 5.4423 1.48182 1.0446 0
M  V30 62 C 5.4903 2.87511 -2.17646 0
M  V30 63 O 4.5943 3.81281 -1.57158 0
M  V30 64 H 3.9353 0.479014 -0.459828 0
M  V30 65 H 6.4653 0.973411 -1.79961 0
M  V30 66 H 6.4753 3.36745 -2.30362 0
M  V30 67 H 5.1503 2.65002 -3.20541 0
M  V30 68 H 3.7273 3.39885 -1.53403 0
M  V30 69 N 5.9124 1.20967 1.01018 0
M  V30 70 C 6.8594 0.964281 2.09691 0
M  V30 71 C 7.8294 -0.107853 1.65749 0
M  V30 72 O 9.0144 0.0381987 1.90762 0
M  V30 73 C 6.1544 0.52943 3.41015 0
M  V30 74 C 5.2674 1.67043 3.98398 0
M  V30 75 C 4.4024 1.18525 5.17808 0
M  V30 76 C 3.4414 2.29892 5.67288 0
M  V30 77 N 2.5784 1.82546 6.77954 0
M  V30 78 H 7.4184 1.89463 2.30017 0
M  V30 79 H 4.9554 0.944289 1.1279 0
M  V30 80 H 6.9134 0.258588 4.16398 0
M  V30 81 H 5.5434 -0.363919 3.20742 0
M  V30 82 H 4.5954 2.05603 3.20049 0
M  V30 83 H 5.9074 2.50877 4.31117 0
M  V30 84 H 5.0614 0.870762 6.00419 0
M  V30 85 H 3.8004 0.316887 4.86669 0
M  V30 86 H 2.8054 2.6215 4.83278 0
M  V30 87 H 4.0304 3.17216 6.00459 0
M  V30 88 H 1.9764 0.980454 6.48632 0
M  V30 89 H 1.8934 2.59956 7.09901 0
M  V30 90 H 3.1614 1.54115 7.64113 0
M  V30 91 N 7.3905 -1.2043 1.01659 0
M  V30 92 C 8.3385 -2.25249 0.580143 0
M  V30 93 C 9.3325 -1.65057 -0.381115 0
M  V30 94 O 10.5385 -1.78241 -0.251039 0
M  V30 95 H 6.9135 -0.732695 0.169299 0
M  V30 96 H 8.8845 -2.59389 1.47512 0
M  V30 97 C 7.6335 -3.47638 -0.065788 0
M  V30 98 H 6.9565 -3.94233 0.664874 0
M  V30 99 H 8.3965 -4.2268 -0.334282 0
M  V30 100 C 6.8555 -3.10447 -1.3086 0
M  V30 101 O 7.3855 -3.21981 -2.4019 0
M  V30 102 N 5.5915 -2.64996 -1.1927 0
M  V30 103 H 5.1385 -2.55811 -0.303064 0
M  V30 104 H 5.0965 -2.40482 -2.02523 0
M  V30 105 N 8.8686 -0.792821 -1.36206 0
M  V30 106 C 9.8156 -0.191653 -2.30003 0
M  V30 107 C 10.7856 0.666453 -1.52143 0
M  V30 108 O 11.9706 0.61442 -1.80636 0
M  V30 109 C 9.1106 0.664848 -3.38635 0
M  V30 110 C 8.2236 -0.212175 -4.31479 0
M  V30 111 C 7.3586 0.651022 -5.27196 0
M  V30 112 C 6.3976 -0.227247 -6.11678 0
M  V30 113 N 5.5346 0.595127 -6.99573 0
M  V30 114 H 10.3746 -0.996978 -2.80828 0
M  V30 115 H 7.9116 -0.503206 -1.38225 0
M  V30 116 H 9.8696 1.17645 -4.00269 0
M  V30 117 H 8.4996 1.43557 -2.89122 0
M  V30 118 H 7.5516 -0.841777 -3.70969 0
M  V30 119 H 8.8636 -0.888751 -4.90818 0
M  V30 120 H 8.0176 1.2283 -5.94136 0
M  V30 121 H 6.7566 1.36121 -4.68319 0
M  V30 122 H 5.7616 -0.816904 -5.43697 0
M  V30 123 H 6.9866 -0.93509 -6.72631 0
M  V30 124 H 4.9326 1.28955 -6.432 0
M  V30 125 H 4.8496 -0.0236952 -7.55996 0
M  V30 126 H 6.1176 1.15613 -7.70879 0
M  V30 127 N 10.3467 1.47872 -0.545128 0
M  V30 128 C 11.5937 2.02493 -0.0165858 0
M  V30 129 C 11.9217 1.42073 1.32836 0
M  V30 130 O 11.1767 0.561459 1.87473 0
M  V30 131 C 11.4757 3.57131 0.13867 0
M  V30 132 C 11.1417 4.36411 -1.13384 0
M  V30 133 C 9.8037 4.57792 -1.48256 0
M  V30 134 C 12.1557 4.82223 -1.97764 0
M  V30 135 C 9.4837 5.22233 -2.67376 0
M  V30 136 C 11.8357 5.47977 -3.16076 0
M  V30 137 C 10.4997 5.67593 -3.51275 0
M  V30 138 H 9.7697 0.740975 -0.00606918 0
M  V30 139 H 12.4167 1.77683 -0.714207 0
M  V30 140 H 10.7217 3.80865 0.919172 0
M  V30 141 H 12.4187 3.97031 0.562782 0
M  V30 142 H 9.0087 4.2004 -0.852297 0
M  V30 143 H 13.1927 4.65493 -1.72132 0
M  V30 144 H 8.4487 5.35616 -2.94831 0
M  V30 145 H 12.6227 5.8244 -3.81755 0
M  V30 146 H 10.2497 6.17298 -4.43675 0
M  V30 147 N 11.8248 0.280983 1.55075 0
M  V30 148 C 13.2358 -0.215629 1.85451 0
M  V30 149 C 13.5868 -1.54991 1.203 0
M  V30 150 O 12.7118 -2.10699 0.493435 0
M  V30 151 C 13.3068 -0.398026 3.36454 0
M  V30 152 C 11.8658 -0.838866 3.66933 0
M  V30 153 C 11.0128 0.064458 2.77225 0
M  V30 154 H 13.9638 0.502601 1.50531 0
M  V30 155 H 13.9848 -1.23569 3.59876 0
M  V30 156 H 13.4968 0.573241 3.83843 0
M  V30 157 H 11.5978 -1.8214 3.25048 0
M  V30 158 H 11.7108 -0.672123 4.74362 0
M  V30 159 H 10.0748 -0.452863 2.50642 0
M  V30 160 H 10.8578 1.03172 3.2743 0
M  V30 161 N 13.3029 -1.57598 0.00835791 0
M  V30 162 C 14.5489 -1.91211 -0.675732 0
M  V30 163 C 14.8819 -0.883139 -1.72958 0
M  V30 164 O 14.1569 0.097016 -1.94258 0
M  V30 165 C 14.4399 -3.35379 -1.31123 0
M  V30 166 C 14.2929 -4.48999 -0.268356 0
M  V30 167 C 15.6119 -3.7912 -2.23508 0
M  V30 168 H 12.7309 -0.695374 -0.244179 0
M  V30 169 H 15.3729 -1.89901 0.0613655 0
M  V30 170 H 13.5229 -3.36626 -1.93946 0
M  V30 171 H 15.1949 -4.59887 0.360844 0
M  V30 172 H 13.4379 -4.31873 0.408482 0
M  V30 173 H 14.1089 -5.46851 -0.752218 0
M  V30 174 H 16.5849 -3.79477 -1.70693 0
M  V30 175 H 15.4609 -4.80729 -2.64936 0
M  V30 176 H 15.7219 -3.13455 -3.11766 0
M  V30 177 N 14.781 0.264519 -1.55364 0
M  V30 178 C 16.028 0.994986 -1.7637 0
M  V30 179 C 16.356 1.85976 -0.5695 0
M  V30 180 O 15.611 1.90509 0.44776 0
M  V30 181 C 15.91 1.9004 -3.02687 0
M  V30 182 C 15.576 1.19243 -4.34847 0
M  V30 183 C 14.238 0.996709 -4.70764 0
M  V30 184 C 16.59 0.689296 -5.16622 0
M  V30 185 C 13.918 0.285261 -5.86006 0
M  V30 186 C 16.27 -0.00860079 -6.32599 0
M  V30 187 C 14.934 -0.215963 -6.67151 0
M  V30 188 H 14.204 0.364091 -0.645383 0
M  V30 189 H 16.851 0.266543 -1.89636 0
M  V30 190 H 15.156 2.69533 -2.84357 0
M  V30 191 H 16.853 2.46695 -3.16137 0
M  V30 192 H 13.443 1.3549 -4.06621 0
M  V30 193 H 17.627 0.828108 -4.89342 0
M  V30 194 H 12.883 0.113961 -6.11294 0
M  V30 195 H 17.057 -0.406186 -6.95214 0
M  V30 196 H 14.684 -0.769217 -7.56298 0
M  V30 197 N 16.2591 1.48442 0.529413 0
M  V30 198 C 17.5361 1.46978 1.29062 0
M  V30 199 C 17.9161 0.181769 2.10316 0
M  V30 200 O 17.2641 -0.836481 2.12639 0
M  V30 201 C 17.4741 2.7321 2.17157 0
M  V30 202 C 18.8221 3.21562 2.77278 0
M  V30 203 O 19.8461 2.74131 2.27444 0
M  V30 204 O 18.7051 4.04094 3.67927 0
M  V30 205 H 15.7991 0.587003 0.582543 0
M  V30 206 H 18.3451 1.60676 0.546021 0
M  V30 207 H 17.1171 3.58465 1.56903 0
M  V30 208 H 16.7401 2.62235 2.98862 0
M  V30 209 N 17.7372 -0.778329 1.37039 0
M  V30 210 C 18.6472 -1.92253 1.34446 0
M  V30 211 C 19.6632 -1.72267 0.244991 0
M  V30 212 O 20.8392 -1.95615 0.479258 0
M  V30 213 C 17.9042 -3.27282 1.144 0
M  V30 214 C 16.9652 -3.59969 2.33925 0
M  V30 215 C 16.1982 -4.88555 2.14825 0
M  V30 216 O 16.4212 -5.59113 1.12912 0
M  V30 217 O 15.3552 -5.20153 3.02861 0
M  V30 218 H 19.1812 -1.97392 2.30803 0
M  V30 219 H 16.7662 -0.920154 1.17701 0
M  V30 220 H 18.6482 -4.08062 1.05182 0
M  V30 221 H 17.3232 -3.23011 0.211124 0
M  V30 222 H 16.2302 -2.7945 2.48714 0
M  V30 223 H 17.5632 -3.68976 3.25757 0
M  V30 224 N 19.2153 -1.21501 -1.00376 0
M  V30 225 C 20.1623 -0.975387 -2.09177 0
M  V30 226 C 21.1323 0.0990615 -1.65804 0
M  V30 227 O 22.3173 -0.0483147 -1.90739 0
M  V30 228 C 19.4573 -0.547507 -3.40729 0
M  V30 229 C 18.5703 -1.69153 -3.97506 0
M  V30 230 C 17.7053 -1.2127 -5.17172 0
M  V30 231 C 16.7443 -2.32897 -5.66061 0
M  V30 232 N 15.8813 -1.86138 -6.76976 0
M  V30 233 H 20.7213 -1.9068 -2.29009 0
M  V30 234 H 18.2583 -0.950257 -1.12288 0
M  V30 235 H 20.2163 -0.280667 -4.16255 0
M  V30 236 H 18.8463 0.346904 -3.20931 0
M  V30 237 H 17.8983 -2.07298 -3.18954 0
M  V30 238 H 19.2103 -2.5316 -4.29781 0
M  V30 239 H 18.3643 -0.902591 -5.99948 0
M  V30 240 H 17.1033 -0.342692 -4.86495 0
M  V30 241 H 16.1083 -2.64709 -4.81881 0
M  V30 242 H 17.3333 -3.20396 -5.98768 0
M  V30 243 H 15.2793 -1.01484 -6.48103 0
M  V30 244 H 15.1963 -2.63717 -7.08512 0
M  V30 245 H 16.4643 -1.58165 -7.63285 0
M  V30 246 N 20.6934 1.19889 -1.02296 0
M  V30 247 C 21.9234 1.93109 -0.734332 0
M  V30 248 C 22.3314 1.75377 0.709889 0
M  V30 249 O 21.6744 1.06912 1.49384 0
M  V30 250 C 21.7364 3.45362 -0.99827 0
M  V30 251 C 21.4004 3.8686 -2.43287 0
M  V30 252 C 22.3974 3.92102 -3.41397 0
M  V30 253 C 20.0824 4.18668 -2.77529 0
M  V30 254 C 22.0764 4.28573 -4.71809 0
M  V30 255 C 19.7634 4.54813 -4.08153 0
M  V30 256 C 20.7614 4.59739 -5.05103 0
M  V30 257 O 20.4494 4.95051 -6.33388 0
M  V30 258 H 20.1814 0.620409 -0.268456 0
M  V30 259 H 22.7354 1.53144 -1.3688 0
M  V30 260 H 20.9654 3.85482 -0.306645 0
M  V30 261 H 22.6544 3.99814 -0.700234 0
M  V30 262 H 23.4204 3.67685 -3.1628 0
M  V30 263 H 19.2994 4.14021 -2.0275 0
M  V30 264 H 22.8434 4.32333 -5.4748 0
M  V30 265 H 18.7404 4.78687 -4.33047 0
M  V30 266 H 19.5084 5.1302 -6.37772 0
M  V30 267 N 22.1715 0.800033 1.35784 0
M  V30 268 C 23.4205 0.37387 1.98205 0
M  V30 269 C 23.7335 -1.06302 1.64193 0
M  V30 270 O 24.9395 -1.59198 2.19928 0
M  V30 271 C 23.3955 0.617532 3.54562 0
M  V30 272 C 23.0035 2.06654 3.9749 0
M  V30 273 C 24.7475 0.256401 4.23725 0
M  V30 274 C 22.6545 2.2563 5.46667 0
M  V30 275 H 21.5845 0.136055 0.741623 0
M  V30 276 H 24.2355 0.983166 1.54939 0
M  V30 277 H 22.6175 -0.0616248 3.95952 0
M  V30 278 H 23.7915 2.78296 3.67271 0
M  V30 279 H 22.1065 2.38691 3.41197 0
M  V30 280 H 24.7035 0.376318 5.33374 0
M  V30 281 H 25.0465 -0.796692 4.08606 0
M  V30 282 H 25.5795 0.889214 3.87734 0
M  V30 283 H 22.3185 3.2936 5.66747 0
M  V30 284 H 21.8385 1.58504 5.78478 0
M  V30 285 H 23.5175 2.06861 6.1304 0
M  V30 286 N 23.6496 -1.47581 0.552962 0
M  V30 287 C 24.5996 -2.26961 -0.217423 0
M  V30 288 C 25.5836 -1.34099 -0.889168 0
M  V30 289 O 26.7756 -1.58483 -0.788176 0
M  V30 290 C 23.9046 -3.19756 -1.24944 0
M  V30 291 C 22.9906 -4.20097 -0.581327 0
M  V30 292 N 23.3816 -5.04614 0.346171 0
M  V30 293 C 21.6796 -4.38099 -0.835767 0
M  V30 294 C 22.3806 -5.77052 0.733854 0
M  V30 295 N 21.3566 -5.43526 0.0896567 0
M  V30 296 H 25.1586 -2.89688 0.495761 0
M  V30 297 H 22.6726 -1.58068 0.372597 0
M  V30 298 H 24.6696 -3.75305 -1.81527 0
M  V30 299 H 23.3296 -2.58585 -1.96376 0
M  V30 300 H 24.3406 -5.12869 0.720098 0
M  V30 301 H 21.0176 -3.88102 -1.53892 0
M  V30 302 H 22.4076 -6.5504 1.49574 0
M  V30 303 N 25.1277 -0.289203 -1.54924 0
M  V30 304 C 26.5437 0.0645403 -1.59469 0
M  V30 305 C 26.7437 1.53419 -1.30632 0
M  V30 306 O 25.7997 2.2852 -1.074 0
M  V30 307 C 27.1127 -0.32278 -2.98963 0
M  V30 308 C 28.6607 -0.270564 -3.11828 0
M  V30 309 C 29.1357 -0.632532 -4.53611 0
M  V30 310 N 30.6267 -0.584617 -4.59496 0
M  V30 311 C 31.3617 -0.837314 -5.67254 0
M  V30 312 N 30.8577 -1.15536 -6.83098 0
M  V30 313 N 32.6507 -0.765166 -5.56868 0
M  V30 314 H 24.8017 -1.24714 -1.71931 0
M  V30 315 H 27.0647 -0.504809 -0.802416 0
M  V30 316 H 26.7707 -1.34541 -3.24948 0
M  V30 317 H 26.6447 0.32944 -3.75759 0
M  V30 318 H 29.0317 0.742805 -2.85598 0
M  V30 319 H 29.1127 -0.957242 -2.37214 0
M  V30 320 H 28.7567 -1.64365 -4.80569 0
M  V30 321 H 28.6867 0.07609 -5.26545 0
M  V30 322 H 31.1777 -0.349248 -3.76283 0
M  V30 323 H 31.4907 -1.33447 -7.61191 0
M  V30 324 H 29.8357 -1.19328 -6.84679 0
M  V30 325 H 33.0267 -0.516432 -4.65243 0
M  V30 326 H 33.1997 -0.965477 -6.40767 0
M  V30 327 N 26.6058 1.57591 -0.0167156 0
M  V30 328 C 27.8828 1.82547 0.702564 0
M  V30 329 C 28.2628 0.898018 1.91047 0
M  V30 330 O 27.6108 -0.0493456 2.28447 0
M  V30 331 C 27.8208 3.31459 1.09251 0
M  V30 332 C 29.1688 3.97622 1.48937 0
M  V30 333 O 30.1928 3.35881 1.18584 0
M  V30 334 O 29.0518 5.06415 2.05442 0
M  V30 335 H 26.1458 0.752268 0.343544 0
M  V30 336 H 28.6918 1.69644 -0.0434495 0
M  V30 337 H 27.4638 3.9061 0.23227 0
M  V30 338 H 27.0868 3.49422 1.89709 0
M  V30 339 N 28.0839 -0.256276 1.55502 0
M  V30 340 C 29.3299 -0.987079 1.77157 0
M  V30 341 C 29.6629 -1.85327 0.580315 0
M  V30 342 O 28.9379 -1.89874 -0.421686 0
M  V30 343 C 29.2209 -1.85553 3.08613 0
M  V30 344 C 29.0739 -1.01816 4.38125 0
M  V30 345 C 30.3929 -2.8397 3.36228 0
M  V30 346 H 27.5119 -0.357428 0.644526 0
M  V30 347 H 30.1539 -0.258239 1.88237 0
M  V30 348 H 28.3039 -2.47695 2.99298 0
M  V30 349 H 29.9759 -0.416159 4.59419 0
M  V30 350 H 28.2189 -0.322178 4.32602 0
M  V30 351 H 28.8899 -1.65939 5.26468 0
M  V30 352 H 31.3659 -2.31964 3.45445 0
M  V30 353 H 30.2419 -3.41864 4.29442 0
M  V30 354 H 30.5029 -3.59955 2.56681 0
M  V30 355 N 29.562 -1.4872 -0.521534 0
M  V30 356 C 30.472 -1.66569 -1.65203 0
M  V30 357 C 31.488 -0.548197 -1.65139 0
M  V30 358 O 32.664 -0.820339 -1.83936 0
M  V30 359 C 29.729 -1.70917 -3.01642 0
M  V30 360 C 28.79 -2.94356 -3.12495 0
M  V30 361 C 28.023 -2.98487 -4.42426 0
M  V30 362 O 28.246 -2.10786 -5.30024 0
M  V30 363 O 27.18 -3.90746 -4.57822 0
M  V30 364 H 31.006 -2.62298 -1.5308 0
M  V30 365 H 28.591 -1.3222 -0.695565 0
M  V30 366 H 30.473 -1.7625 -3.82771 0
M  V30 367 H 29.148 -0.783633 -3.14071 0
M  V30 368 H 28.055 -2.94552 -2.3063 0
M  V30 369 H 29.388 -3.86322 -3.04986 0
M  V30 370 N 31.0401 0.771051 -1.3745 0
M  V30 371 C 31.9871 1.88435 -1.3327 0
M  V30 372 C 32.9571 1.64914 -0.198136 0
M  V30 373 O 34.1421 1.86821 -0.387606 0
M  V30 374 C 31.2821 3.25509 -1.14622 0
M  V30 375 C 30.3951 3.60979 -2.37314 0
M  V30 376 C 29.5301 4.87265 -2.11533 0
M  V30 377 C 28.5691 5.15469 -3.30088 0
M  V30 378 N 27.7061 6.32944 -3.03853 0
M  V30 379 H 32.5461 1.91344 -2.28455 0
M  V30 380 H 30.0831 0.935466 -1.13523 0
M  V30 381 H 32.0411 4.04582 -1.01831 0
M  V30 382 H 30.6711 3.21974 -0.230837 0
M  V30 383 H 29.7231 2.76885 -2.60842 0
M  V30 384 H 31.0351 3.77759 -3.25729 0
M  V30 385 H 30.1891 5.74244 -1.95777 0
M  V30 386 H 28.9281 4.7259 -1.20457 0
M  V30 387 H 27.9331 4.26966 -3.46382 0
M  V30 388 H 29.1581 5.32052 -4.22016 0
M  V30 389 H 27.1041 6.19625 -2.15407 0
M  V30 390 H 27.0211 6.50143 -3.85812 0
M  V30 391 H 28.2891 7.22857 -2.91716 0
M  V30 392 N 32.5182 1.22032 0.997298 0
M  V30 393 C 33.4662 0.983634 2.10778 0
M  V30 394 C 34.4602 -0.0717564 1.69248 0
M  V30 395 O 35.6662 0.080304 1.79821 0
M  V30 396 H 32.0412 0.300877 0.689186 0
M  V30 397 H 34.0122 1.92606 2.27916 0
M  V30 398 C 32.7612 0.57326 3.42942 0
M  V30 399 H 32.0842 1.37702 3.75338 0
M  V30 400 H 33.5242 0.447031 4.21637 0
M  V30 401 C 31.9832 -0.7167 3.29188 0
M  V30 402 O 32.5132 -1.77027 3.60589 0
M  V30 403 N 30.7192 -0.686167 2.82383 0
M  V30 404 H 30.2662 0.171507 2.57028 0
M  V30 405 H 30.2242 -1.54955 2.73562 0
M  V30 406 N 33.9963 -1.19345 1.0293 0
M  V30 407 C 35.2453 -1.88363 0.721256 0
M  V30 408 C 35.5583 -1.80514 -0.753254 0
M  V30 409 O 36.7643 -2.44788 -1.17436 0
M  V30 410 C 35.2203 -3.37872 1.23978 0
M  V30 411 C 34.8283 -3.54278 2.74211 0
M  V30 412 C 36.5723 -4.12365 1.00775 0
M  V30 413 C 34.4793 -4.97682 3.19479 0
M  V30 414 H 33.4093 -0.705484 0.266098 0
M  V30 415 H 36.0603 -1.34928 1.24365 0
M  V30 416 H 34.4423 -3.90707 0.6453 0
M  V30 417 H 35.6163 -3.11769 3.39318 0
M  V30 418 H 33.9313 -2.93174 2.95699 0
M  V30 419 H 36.5283 -5.18119 1.32123 0
M  V30 420 H 36.8713 -4.16263 -0.0554308 0
M  V30 421 H 37.4043 -3.65668 1.56625 0
M  V30 422 H 34.1433 -4.98945 4.25128 0
M  V30 423 H 33.6633 -5.4095 2.591 0
M  V30 424 H 35.3423 -5.66337 3.12845 0
M  V30 425 N 35.4744 -0.807222 -1.35358 0
M  V30 426 C 36.7224 -0.387122 -1.98358 0
M  V30 427 C 37.0434 1.04942 -1.64354 0
M  V30 428 O 36.3134 1.72615 -0.926339 0
M  V30 429 H 34.8934 -0.140154 -0.733734 0
M  V30 430 H 37.5554 -1.0332 -1.6526 0
M  V30 431 H 36.6514 -0.493352 -3.08176 0
M  V30 432 N 36.9525 1.47285 -0.560781 0
M  V30 433 C 37.8995 2.30058 0.18491 0
M  V30 434 C 38.8695 1.39281 0.904986 0
M  V30 435 O 40.0545 1.68241 0.899979 0
M  V30 436 C 37.1945 3.23317 1.20666 0
M  V30 437 C 36.3075 4.29186 0.492285 0
M  V30 438 C 35.4425 5.09592 1.49964 0
M  V30 439 C 34.4815 6.07232 0.770439 0
M  V30 440 N 33.6185 6.80584 1.72479 0
M  V30 441 H 38.4585 2.93302 -0.527048 0
M  V30 442 H 35.9955 1.44568 -0.271738 0
M  V30 443 H 37.9535 3.75811 1.81168 0
M  V30 444 H 36.5835 2.61929 1.88661 0
M  V30 445 H 35.6355 3.7972 -0.227333 0
M  V30 446 H 36.9475 4.98738 -0.0787929 0
M  V30 447 H 36.1015 5.66254 2.17809 0
M  V30 448 H 34.8405 4.3995 2.10464 0
M  V30 449 H 33.8455 5.49745 0.0780846 0
M  V30 450 H 35.0705 6.78884 0.171134 0
M  V30 451 H 33.0165 6.1367 2.3183 0
M  V30 452 H 32.9335 7.46319 1.20596 0
M  V30 453 H 34.2015 7.41818 2.39428 0
M  V30 454 N 38.4306 0.297415 1.54768 0
M  V30 455 C 39.3786 -0.596051 2.24833 0
M  V30 456 C 40.3726 -1.13992 1.25308 0
M  V30 457 O 41.5786 -1.09098 1.4317 0
M  V30 458 H 37.9536 -0.210814 0.721846 0
M  V30 459 H 39.9246 0.0174667 2.98395 0
M  V30 460 C 38.6736 -1.75818 2.99972 0
M  V30 461 H 37.9966 -1.3489 3.76357 0
M  V30 462 H 39.4366 -2.35949 3.52284 0
M  V30 463 C 37.8956 -2.66014 2.06732 0
M  V30 464 O 38.4256 -3.67009 1.63302 0
M  V30 465 N 36.6316 -2.33669 1.72763 0
M  V30 466 H 36.1786 -1.51586 2.08277 0
M  V30 467 H 36.1366 -2.94285 1.10652 0
M  V30 468 N 39.9087 -1.5758 0.0250728 0
M  V30 469 C 40.8567 -2.11125 -0.97617 0
M  V30 470 C 41.8507 -1.03689 -1.33959 0
M  V30 471 O 43.0567 -1.22128 -1.3223 0
M  V30 472 H 39.4317 -0.674468 -0.332561 0
M  V30 473 H 41.4027 -2.94194 -0.499223 0
M  V30 474 C 40.1517 -2.65017 -2.2508 0
M  V30 475 H 39.4747 -3.47333 -1.9799 0
M  V30 476 H 40.9147 -3.06133 -2.93357 0
M  V30 477 C 39.3737 -1.57574 -2.97779 0
M  V30 478 O 39.9037 -0.973203 -3.89733 0
M  V30 479 N 38.1097 -1.29716 -2.60043 0
M  V30 480 H 37.6567 -1.789 -1.85345 0
M  V30 481 H 37.6147 -0.58051 -3.08994 0
M  V30 482 N 41.3868 0.248026 -1.55636 0
M  V30 483 C 42.6338 0.976224 -1.77415 0
M  V30 484 C 42.9618 1.85361 -0.589193 0
M  V30 485 O 42.2168 1.90973 0.427529 0
M  V30 486 C 42.5158 1.86819 -3.04686 0
M  V30 487 C 42.1818 1.14625 -4.36087 0
M  V30 488 C 40.8438 0.946723 -4.71795 0
M  V30 489 C 43.1958 0.634463 -5.17324 0
M  V30 490 C 40.5238 0.223091 -5.86276 0
M  V30 491 C 42.8758 -0.0756959 -6.32555 0
M  V30 492 C 41.5398 -0.286711 -6.66884 0
M  V30 493 H 40.8098 0.357226 -0.649208 0
M  V30 494 H 43.4568 0.246415 -1.89908 0
M  V30 495 H 41.7618 2.66502 -2.872 0
M  V30 496 H 43.4588 2.43329 -3.18735 0
M  V30 497 H 40.0488 1.3117 -4.08035 0
M  V30 498 H 44.2328 0.77616 -4.90193 0
M  V30 499 H 39.4888 0.0491185 -6.1138 0
M  V30 500 H 43.6628 -0.479899 -6.94745 0
M  V30 501 H 41.2898 -0.849389 -7.5544 0
M  V30 502 N 42.8649 1.48995 0.513639 0
M  V30 503 C 44.2759 1.5119 1.09537 0
M  V30 504 C 44.6269 0.290906 1.94031 0
M  V30 505 O 43.7519 -0.60049 2.07902 0
M  V30 506 C 44.3469 2.73964 1.99322 0
M  V30 507 C 42.9059 2.78978 2.52682 0
M  V30 508 C 42.0529 2.44934 1.30009 0
M  V30 509 H 45.0039 1.55875 0.298125 0
M  V30 510 H 45.0249 2.53409 2.83838 0
M  V30 511 H 44.5369 3.62813 1.37799 0
M  V30 512 H 42.6379 1.94378 3.1788 0
M  V30 513 H 42.7509 3.8083 2.90698 0
M  V30 514 H 41.1149 1.9644 1.62122 0
M  V30 515 H 41.8979 3.36043 0.702131 0
M  V30 516 N 44.343 -0.763751 1.37857 0
M  V30 517 C 45.276 -1.88486 1.28639 0
M  V30 518 C 46.254 -1.61757 0.165363 0
M  V30 519 O 47.438 -1.85391 0.340948 0
M  V30 520 C 44.565 -3.23884 0.990811 0
M  V30 521 C 43.611 -3.69514 2.12983 0
M  V30 522 S 44.444 -3.82244 3.75033 0
M  V30 523 C 45.6 -5.20477 3.47641 0
M  V30 524 H 45.833 -1.96017 2.23527 0
M  V30 525 H 43.366 -0.925684 1.23574 0
M  V30 526 H 45.324 -4.02081 0.827101 0
M  V30 527 H 43.985 -3.14044 0.0592832 0
M  V30 528 H 43.178 -4.67696 1.87821 0
M  V30 529 H 42.78 -2.98441 2.25408 0
M  V30 530 H 45.072 -6.05905 3.03125 0
M  V30 531 H 46.015 -5.50655 4.4518 0
M  V30 532 H 46.423 -4.88793 2.82385 0
M  V30 533 N 45.8211 -1.22559 -0.990812 0
M  V30 534 C 47.0511 -1.07623 -1.76355 0
M  V30 535 C 47.4591 0.37601 -1.85426 0
M  V30 536 O 46.8021 1.27228 -1.32509 0
M  V30 537 C 46.8641 -1.61507 -3.21179 0
M  V30 538 C 46.5281 -3.10146 -3.35646 0
M  V30 539 C 47.5251 -4.07553 -3.22796 0
M  V30 540 C 45.2101 -3.49644 -3.60631 0
M  V30 541 C 47.2041 -5.42442 -3.34716 0
M  V30 542 C 44.8911 -4.84682 -3.72192 0
M  V30 543 C 45.8891 -5.8089 -3.59243 0
M  V30 544 O 45.5771 -7.13476 -3.70415 0
M  V30 545 H 45.3091 -0.377745 -0.560611 0
M  V30 546 H 47.8631 -1.62658 -1.25425 0
M  V30 547 H 46.0931 -1.00881 -3.73309 0
M  V30 548 H 47.7821 -1.42202 -3.80175 0
M  V30 549 H 48.5481 -3.78381 -3.03403 0
M  V30 550 H 44.4271 -2.75282 -3.69785 0
M  V30 551 H 47.9711 -6.17518 -3.24526 0
M  V30 552 H 43.8681 -5.13534 -3.91092 0
M  V30 553 H 44.6361 -7.21083 -3.87275 0
M  V30 554 N 47.2992 1.18797 -1.03562 0
M  V30 555 C 48.5482 1.87978 -0.731235 0
M  V30 556 C 48.8612 1.80911 0.743671 0
M  V30 557 O 50.0672 2.45407 1.16137 0
M  V30 558 C 48.5232 3.3721 -1.25768 0
M  V30 559 C 48.1312 3.52818 -2.76085 0
M  V30 560 C 49.8752 4.11825 -1.0296 0
M  V30 561 C 47.7822 4.9598 -3.22114 0
M  V30 562 H 46.7122 0.704063 -0.269835 0
M  V30 563 H 49.3632 1.34266 -1.25079 0
M  V30 564 H 47.7452 3.90359 -0.666011 0
M  V30 565 H 48.9192 3.09965 -3.40966 0
M  V30 566 H 47.2342 2.91602 -2.97249 0
M  V30 567 H 49.8312 5.17411 -1.34869 0
M  V30 568 H 50.1742 4.16287 0.0333546 0
M  V30 569 H 50.7072 3.64833 -1.58562 0
M  V30 570 H 47.4462 4.96684 -4.27768 0
M  V30 571 H 46.9662 5.39569 -2.61965 0
M  V30 572 H 48.6452 5.6467 -3.15844 0
M  V30 573 N 48.7773 0.814389 1.34928 0
M  V30 574 C 50.0073 0.41054 2.0248 0
M  V30 575 C 50.4153 -0.985625 1.61499 0
M  V30 576 O 49.7583 -1.64781 0.811976 0
M  V30 577 C 49.8203 0.423384 3.56998 0
M  V30 578 C 49.4843 1.77141 4.21272 0
M  V30 579 C 50.4813 2.73093 4.42398 0
M  V30 580 C 48.1663 2.05755 4.58225 0
M  V30 581 C 50.1603 3.95838 4.9959 0
M  V30 582 C 47.8473 3.28762 5.1513 0
M  V30 583 C 48.8453 4.23621 5.35755 0
M  V30 584 O 48.5333 5.44456 5.91458 0
M  V30 585 H 48.2653 0.163997 0.655806 0
M  V30 586 H 50.8193 1.10155 1.73364 0
M  V30 587 H 49.0493 -0.324276 3.85338 0
M  V30 588 H 50.7383 0.0407683 4.0588 0
M  V30 589 H 51.5043 2.5228 4.14222 0
M  V30 590 H 47.3833 1.32727 4.4148 0
M  V30 591 H 50.9273 4.69891 5.15605 0
M  V30 592 H 46.8243 3.49443 5.42734 0
M  V30 593 H 47.5923 5.4586 6.09901 0
M  V30 594 N 50.2554 -1.46986 0.568584 0
M  V30 595 C 51.5044 -2.01646 0.0465894 0
M  V30 596 C 51.8174 -1.44721 -1.31587 0
M  V30 597 O 53.0234 -1.91113 -1.92842 0
M  V30 598 C 51.4794 -3.59885 0.032752 0
M  V30 599 C 51.0874 -4.25804 1.39266 0
M  V30 600 C 52.8314 -4.22255 -0.436038 0
M  V30 601 C 50.7384 -5.76081 1.33732 0
M  V30 602 H 49.6684 -0.753876 0.013647 0
M  V30 603 H 52.3194 -1.68864 0.718131 0
M  V30 604 H 50.7014 -3.8968 -0.704669 0
M  V30 605 H 51.8754 -4.07637 2.1487 0
M  V30 606 H 50.1904 -3.7547 1.80032 0
M  V30 607 H 52.7874 -5.32394 -0.49602 0
M  V30 608 H 53.1304 -3.90212 -1.45053 0
M  V30 609 H 53.6634 -3.97033 0.246877 0
M  V30 610 H 50.4024 -6.12761 2.32817 0
M  V30 611 H 49.9224 -5.96553 0.623267 0
M  V30 612 H 51.6014 -6.38518 1.0442 0
M  V30 613 N 51.7335 -0.305618 -1.54608 0
M  V30 614 C 52.6665 0.610536 -2.19881 0
M  V30 615 C 53.6445 1.1294 -1.16976 0
M  V30 616 O 54.8285 1.19673 -1.45638 0
M  V30 617 C 51.9555 1.83583 -2.84631 0
M  V30 618 C 51.0015 1.4498 -4.01102 0
M  V30 619 S 51.8345 0.501793 -5.33144 0
M  V30 620 C 52.9905 1.73478 -6.01379 0
M  V30 621 H 53.2235 0.0560177 -2.97247 0
M  V30 622 H 50.7565 -0.0897434 -1.54139 0
M  V30 623 H 52.7145 2.53898 -3.22562 0
M  V30 624 H 51.3755 2.36152 -2.07102 0
M  V30 625 H 50.5685 2.36236 -4.45206 0
M  V30 626 H 50.1705 0.826553 -3.64752 0
M  V30 627 H 52.4625 2.67473 -6.22467 0
M  V30 628 H 53.4055 1.33622 -6.95378 0
M  V30 629 H 53.8135 1.9136 -5.31076 0
M  V30 630 N 53.2116 1.57565 -0.0334293 0
M  V30 631 C 54.1416 2.13511 0.945265 0
M  V30 632 C 55.1226 1.05231 1.33643 0
M  V30 633 O 56.3076 1.33084 1.41429 0
M  V30 634 C 53.4376 2.6657 2.22616 0
M  V30 635 C 52.3916 3.79676 1.97561 0
M  V30 636 C 51.7176 4.1918 3.31952 0
M  V30 637 C 53.0176 5.0557 1.31135 0
M  V30 638 H 54.7116 2.95538 0.479325 0
M  V30 639 H 52.2576 1.42166 0.229115 0
M  V30 640 H 54.2106 3.04344 2.91466 0
M  V30 641 H 52.9346 1.8171 2.71384 0
M  V30 642 H 51.5936 3.42347 1.31127 0
M  V30 643 H 51.2416 3.31296 3.78487 0
M  V30 644 H 50.9416 4.95402 3.15992 0
M  V30 645 H 52.4656 4.59541 4.02063 0
M  V30 646 H 53.8796 5.40903 1.89992 0
M  V30 647 H 52.2766 5.86818 1.25559 0
M  V30 648 H 53.3466 4.84062 0.284894 0
M  V30 649 N 54.6897 -0.239769 1.55765 0
M  V30 650 C 55.9387 -0.964754 1.77131 0
M  V30 651 C 56.2517 -1.86213 0.59868 0
M  V30 652 O 57.4577 -2.6244 0.695522 0
M  V30 653 C 55.9137 -1.76552 3.1362 0
M  V30 654 C 55.5217 -0.915185 4.38553 0
M  V30 655 C 57.2657 -2.48281 3.44321 0
M  V30 656 C 55.1727 -1.71225 5.66071 0
M  V30 657 H 54.1027 -0.363953 0.660344 0
M  V30 658 H 56.7537 -0.219181 1.82186 0
M  V30 659 H 55.1357 -2.55331 3.02691 0
M  V30 660 H 56.3097 -0.169217 4.60489 0
M  V30 661 H 54.6247 -0.310889 4.15238 0
M  V30 662 H 57.2217 -3.08382 4.36812 0
M  V30 663 H 57.5647 -3.20256 2.65973 0
M  V30 664 H 58.0977 -1.76507 3.56497 0
M  V30 665 H 54.8367 -1.03612 6.4726 0
M  V30 666 H 54.3567 -2.43331 5.48224 0
M  V30 667 H 56.0357 -2.27758 6.05587 0
M  V30 668 N 56.1678 -1.49265 -0.50573 0
M  V30 669 C 57.4078 -1.60128 -1.27038 0
M  V30 670 C 57.7718 -0.279557 -1.89954 0
M  V30 671 O 58.9728 -0.263329 -2.67507 0
M  V30 672 C 57.2438 -2.72507 -2.31246 0
M  V30 673 S 58.8028 -3.0329 -3.17113 0
M  V30 674 H 55.6208 -0.564863 -0.4318 0
M  V30 675 H 58.2228 -1.86902 -0.573397 0
M  V30 676 H 56.9268 -3.67068 -1.83546 0
M  V30 677 H 56.4578 -2.4771 -3.05619 0
M  V30 678 H 58.4728 -2.44448 -4.31809 0
M  V30 679 N 57.6459 0.756429 -1.3826 0
M  V30 680 C 58.5759 1.88374 -1.37976 0
M  V30 681 C 59.5569 1.68311 -0.246082 0
M  V30 682 O 60.7419 1.88944 -0.44874 0
M  V30 683 C 57.8719 3.25864 -1.20125 0
M  V30 684 C 56.8259 3.60523 -2.30666 0
M  V30 685 C 56.1519 4.9672 -1.97923 0
M  V30 686 C 57.4519 3.65692 -3.72916 0
M  V30 687 H 59.1459 1.88869 -2.32312 0
M  V30 688 H 56.6919 0.907272 -1.11824 0
M  V30 689 H 58.6449 4.0438 -1.18552 0
M  V30 690 H 57.3689 3.25841 -0.222498 0
M  V30 691 H 56.0279 2.84324 -2.3142 0
M  V30 692 H 55.6759 4.93253 -0.985393 0
M  V30 693 H 55.3759 5.20878 -2.71955 0
M  V30 694 H 56.8999 5.77618 -1.97964 0
M  V30 695 H 58.3139 4.34328 -3.74208 0
M  V30 696 H 56.7109 4.01358 -4.4613 0
M  V30 697 H 57.7809 2.65987 -4.05436 0
M  V30 698 N 59.124 1.23083 0.984299 0
M  V30 699 C 60.373 1.05466 1.71929 0
M  V30 700 C 60.686 -0.409211 1.91272 0
M  V30 701 O 61.892 -0.705226 2.62181 0
M  V30 702 C 60.348 1.83874 3.09384 0
M  V30 703 C 59.956 3.34566 2.97943 0
M  V30 704 C 61.7 1.74734 3.8687 0
M  V30 705 C 59.607 4.05381 4.30605 0
M  V30 706 H 58.537 0.391039 0.644674 0
M  V30 707 H 61.188 1.47013 1.09815 0
M  V30 708 H 59.57 1.35131 3.72231 0
M  V30 709 H 60.744 3.90767 2.44209 0
M  V30 710 H 59.059 3.44476 2.33934 0
M  V30 711 H 61.656 2.24957 4.85076 0
M  V30 712 H 61.999 0.709372 4.10212 0
M  V30 713 H 62.532 2.21067 3.30717 0
M  V30 714 H 59.271 5.09467 4.1246 0
M  V30 715 H 58.791 3.53967 4.84218 0
M  V30 716 H 60.47 4.11458 4.99311 0
M  V30 717 N 60.6021 -1.18246 1.0419 0
M  V30 718 C 61.8491 -1.88257 0.746017 0
M  V30 719 C 62.1771 -1.80429 -0.726331 0
M  V30 720 O 61.4321 -1.2 -1.54591 0
M  V30 721 C 61.7311 -3.38082 1.15911 0
M  V30 722 C 61.3971 -3.66114 2.63195 0
M  V30 723 C 60.0591 -3.73474 3.03432 0
M  V30 724 C 62.4111 -3.78398 3.5842 0
M  V30 725 C 59.7391 -3.90599 4.37778 0
M  V30 726 C 62.0911 -3.97039 4.92487 0
M  V30 727 C 60.7551 -4.02635 5.32392 0
M  V30 728 H 60.0251 -0.688883 0.272987 0
M  V30 729 H 62.6721 -1.3995 1.30715 0
M  V30 730 H 60.9771 -3.88377 0.516806 0
M  V30 731 H 62.6741 -3.90596 0.907516 0
M  V30 732 H 59.2641 -3.61003 2.3103 0
M  V30 733 H 63.4481 -3.72042 3.28479 0
M  V30 734 H 58.7041 -3.93175 4.68213 0
M  V30 735 H 62.8781 -4.05486 5.66175 0
M  V30 736 H 60.5051 -4.15657 6.36501 0
M  V30 737 N 62.0802 -0.821533 -1.34494 0
M  V30 738 C 63.3052 -0.420873 -2.03085 0
M  V30 739 C 63.7302 0.964915 -1.61465 0
M  V30 740 O 63.0882 1.62763 -0.798607 0
M  V30 741 C 63.1362 -0.529414 -3.56693 0
M  V30 742 O 62.2402 0.451302 -4.09923 0
M  V30 743 H 61.5812 -0.173489 -0.640935 0
M  V30 744 H 64.1112 -1.11157 -1.71771 0
M  V30 745 H 64.1212 -0.404671 -4.05988 0
M  V30 746 H 62.7962 -1.54014 -3.86332 0
M  V30 747 H 61.3732 0.285558 -3.71805 0
M  V30 748 N 63.5583 1.46682 -0.576371 0
M  V30 749 C 64.8073 2.01619 -0.0572825 0
M  V30 750 C 65.1203 1.45417 1.30818 0
M  V30 751 O 66.3263 1.92133 1.91825 0
M  V30 752 C 64.7823 3.59863 -0.0518371 0
M  V30 753 C 64.3903 4.25059 -1.41523 0
M  V30 754 C 66.1343 4.2248 0.413639 0
M  V30 755 C 64.0413 5.75364 -1.36785 0
M  V30 756 H 62.9713 0.753794 -0.0176448 0
M  V30 757 H 65.6223 1.68481 -0.727076 0
M  V30 758 H 64.0043 3.90048 0.683994 0
M  V30 759 H 65.1783 4.06491 -2.17029 0
M  V30 760 H 63.4933 3.7451 -1.8202 0
M  V30 761 H 66.0903 5.3265 0.467779 0
M  V30 762 H 66.4333 3.90976 1.42982 0
M  V30 763 H 66.9663 3.96897 -0.267929 0
M  V30 764 H 63.7053 6.11518 -2.36063 0
M  V30 765 H 63.2253 5.96214 -0.654895 0
M  V30 766 H 64.9043 6.37955 -1.07805 0
M  V30 767 N 65.0364 0.313813 1.54444 0
M  V30 768 C 65.9664 -0.549454 2.26943 0
M  V30 769 C 66.9474 -1.12741 1.27372 0
M  V30 770 O 68.1324 -1.15436 1.56167 0
M  V30 771 C 65.2624 -1.71523 3.01989 0
M  V30 772 C 64.2164 -1.26703 4.08816 0
M  V30 773 C 63.5424 -2.51898 4.71647 0
M  V30 774 C 64.8424 -0.388962 5.2085 0
M  V30 775 H 66.5364 0.0552661 2.99349 0
M  V30 776 H 64.0824 0.0280207 1.43973 0
M  V30 777 H 66.0354 -2.32535 3.51433 0
M  V30 778 H 64.7594 -2.34639 2.27183 0
M  V30 779 H 63.4184 -0.679896 3.6024 0
M  V30 780 H 63.0664 -3.13356 3.93468 0
M  V30 781 H 62.7664 -2.22605 5.43802 0
M  V30 782 H 64.2904 -3.1369 5.23861 0
M  V30 783 H 65.7044 -0.905107 5.6611 0
M  V30 784 H 64.1014 -0.18924 5.99802 0
M  V30 785 H 65.1714 0.582699 4.81386 0
M  V30 786 N 66.5145 -1.57545 0.0417849 0
M  V30 787 C 67.4465 -2.07904 -0.964799 0
M  V30 788 C 68.4595 -1.00497 -1.28079 0
M  V30 789 O 69.6485 -1.28087 -1.24322 0
M  V30 790 C 66.7485 -2.49928 -2.28887 0
M  V30 791 C 65.9215 -3.80562 -2.15619 0
M  V30 792 C 64.9805 -4.08999 -3.31069 0
M  V30 793 O 64.0065 -4.79061 -3.0739 0
M  V30 794 N 65.2085 -3.6017 -4.55256 0
M  V30 795 H 67.9735 -2.94886 -0.535029 0
M  V30 796 H 65.5345 -1.61252 -0.144681 0
M  V30 797 H 67.5265 -2.66034 -3.04972 0
M  V30 798 H 66.0965 -1.68245 -2.63463 0
M  V30 799 H 65.3165 -3.74129 -1.24183 0
M  V30 800 H 66.6045 -4.66126 -2.03971 0
M  V30 801 H 66.0025 -3.03512 -4.77386 0
M  V30 802 H 64.5595 -3.81532 -5.28466 0
M  V30 803 N 67.9926 0.231505 -1.5589 0
M  V30 804 C 69.2696 0.981096 -1.69215 0
M  V30 805 C 69.6496 2.02799 -0.586164 0
M  V30 806 O 68.9976 2.24823 0.408253 0
M  V30 807 C 69.2076 1.60054 -3.10135 0
M  V30 808 C 70.5556 2.09658 -3.69227 0
M  V30 809 O 71.5796 1.69967 -3.13033 0
M  V30 810 O 70.4386 2.8258 -4.67772 0
M  V30 811 H 67.5326 0.457653 -0.688827 0
M  V30 812 H 70.0786 0.224073 -1.68214 0
M  V30 813 H 68.8506 0.844105 -3.82087 0
M  V30 814 H 68.4736 2.42336 -3.15212 0
M  V30 815 N 69.4707 1.49531 0.497807 0
M  V30 816 C 70.7477 1.49682 1.25915 0
M  V30 817 C 71.1277 0.226339 2.09883 0
M  V30 818 O 70.4757 -0.791189 2.14365 0
M  V30 819 C 70.6857 2.77755 2.11313 0
M  V30 820 C 72.0337 3.27371 2.70395 0
M  V30 821 O 73.0577 2.78894 2.21578 0
M  V30 822 O 71.9167 4.11808 3.59272 0
M  V30 823 H 69.0107 0.599228 0.56996 0
M  V30 824 H 71.5567 1.61798 0.511816 0
M  V30 825 H 70.3287 3.61713 1.49264 0
M  V30 826 H 69.9517 2.68515 2.93233 0
M  V30 827 N 70.9488 -0.749086 1.3866 0
M  V30 828 C 72.1968 -1.50535 1.34847 0
M  V30 829 C 72.5178 -1.94909 -0.0595016 0
M  V30 830 O 71.7878 -1.67973 -1.00806 0
M  V30 831 H 70.3678 -0.558395 0.49619 0
M  V30 832 H 73.0298 -0.890165 1.73384 0
M  V30 833 H 72.1258 -2.39413 2.00219 0
M  V30 834 N 72.4269 -1.23603 -0.977757 0
M  V30 835 C 73.3749 -1.01704 -2.09187 0
M  V30 836 C 74.3689 0.0448214 -1.69341 0
M  V30 837 O 75.5749 -0.108902 -1.7967 0
M  V30 838 H 71.9499 -0.311803 -0.684312 0
M  V30 839 H 73.9209 -1.96207 -2.24823 0
M  V30 840 C 72.6699 -0.627746 -3.41986 0
M  V30 841 H 71.9929 -1.43656 -3.73099 0
M  V30 842 H 73.4329 -0.514053 -4.20872 0
M  V30 843 C 71.8919 0.664238 -3.30287 0
M  V30 844 O 72.4219 1.71268 -3.6336 0
M  V30 845 N 70.6279 0.641156 -2.83439 0
M  V30 846 H 70.1749 -0.212376 -2.56723 0
M  V30 847 H 70.1329 1.50583 -2.75993 0
M  V30 848 N 73.905 1.17692 -1.04816 0
M  V30 849 C 75.135 1.91508 -0.775128 0
M  V30 850 C 75.543 1.76844 0.67253 0
M  V30 851 O 74.886 1.10057 1.47082 0
M  V30 852 C 74.948 3.43167 -1.0713 0
M  V30 853 C 74.612 3.81612 -2.51438 0
M  V30 854 C 75.609 3.84772 -3.49638 0
M  V30 855 C 73.294 4.12687 -2.86348 0
M  V30 856 C 75.288 4.18469 -4.80794 0
M  V30 857 C 72.975 4.46053 -4.17708 0
M  V30 858 C 73.973 4.48921 -5.14741 0
M  V30 859 O 73.661 4.81504 -6.43746 0
M  V30 860 H 73.393 0.614575 -0.281555 0
M  V30 861 H 75.947 1.50206 -1.40098 0
M  V30 862 H 74.177 3.84745 -0.388342 0
M  V30 863 H 75.866 3.98239 -0.784883 0
M  V30 864 H 76.632 3.60893 -3.24008 0
M  V30 865 H 72.511 4.09627 -2.11486 0
M  V30 866 H 76.055 4.20623 -5.56527 0
M  V30 867 H 71.952 4.69393 -4.43103 0
M  V30 868 H 72.72 4.99377 -6.4851 0
M  V30 869 N 75.3831 0.828654 1.34056 0
M  V30 870 C 76.6601 0.341809 1.9259 0
M  V30 871 C 77.0401 -1.17158 1.75605 0
M  V30 872 O 76.3881 -1.98132 1.13824 0
M  V30 873 C 76.5981 0.777453 3.4023 0
M  V30 874 C 77.9461 0.779579 4.17382 0
M  V30 875 O 78.9701 0.7204 3.48839 0
M  V30 876 O 77.8291 0.857996 5.39723 0
M  V30 877 H 74.9231 0.0946085 0.821571 0
M  V30 878 H 77.4691 0.913827 1.42994 0
M  V30 879 H 76.2411 1.8196 3.46419 0
M  V30 880 H 75.8641 0.181444 3.97186 0
M  V30 881 N 76.8612 -1.46375 0.584142 0
M  V30 882 C 78.1382 -1.956 0.0033388 0
M  V30 883 C 78.5182 -1.52679 -1.45782 0
M  V30 884 O 77.8662 -0.77816 -2.14842 0
M  V30 885 C 78.0762 -3.48551 0.176891 0
M  V30 886 C 79.4242 -4.24576 0.0454609 0
M  V30 887 O 80.4482 -3.56043 0.105801 0
M  V30 888 O 79.3072 -5.46427 -0.0890376 0
M  V30 889 H 76.4012 -0.825547 -0.0490066 0
M  V30 890 H 78.9472 -1.56652 0.65256 0
M  V30 891 H 77.7192 -3.72683 1.1926 0
M  V30 892 H 77.3422 -3.94332 -0.508695 0
M  V30 893 N 78.3393 -0.321999 -1.54275 0
M  V30 894 C 79.5883 0.281931 -1.9972 0
M  V30 895 C 79.9013 1.53369 -1.21397 0
M  V30 896 O 81.1073 2.21352 -1.57211 0
M  V30 897 C 79.5633 0.5529 -3.55628 0
M  V30 898 C 79.1713 -0.681721 -4.42783 0
M  V30 899 C 80.9153 1.11687 -4.09544 0
M  V30 900 C 78.8223 -0.382742 -5.9016 0
M  V30 901 H 77.7523 0.109124 -0.746062 0
M  V30 902 H 80.4033 -0.43398 -1.78294 0
M  V30 903 H 78.7853 1.32896 -3.73035 0
M  V30 904 H 79.9593 -1.45723 -4.37151 0
M  V30 905 H 78.2743 -1.1658 -3.99748 0
M  V30 906 H 80.8713 1.35515 -5.17242 0
M  V30 907 H 81.2143 2.06575 -3.61431 0
M  V30 908 H 81.7473 0.402032 -3.95763 0
M  V30 909 H 78.4863 -1.30076 -6.42464 0
M  V30 910 H 78.0063 0.355094 -5.98748 0
M  V30 911 H 79.6853 0.00800157 -6.47 0
M  V30 912 N 79.8174 1.5752 -0.0501392 0
M  V30 913 C 80.7504 2.07026 0.959962 0
M  V30 914 C 81.7284 0.970539 1.30458 0
M  V30 915 O 82.9124 1.2424 1.41763 0
M  V30 916 C 80.0394 2.5099 2.27424 0
M  V30 917 C 79.0854 3.72188 2.08275 0
M  V30 918 S 79.9184 5.17888 1.36207 0
M  V30 919 C 81.0744 5.65165 2.6896 0
M  V30 920 H 81.3074 2.9238 0.538631 0
M  V30 921 H 78.8404 1.53547 0.162099 0
M  V30 922 H 80.7984 2.76982 3.02971 0
M  V30 923 H 79.4594 1.65944 2.66686 0
M  V30 924 H 78.6524 4.00866 3.05487 0
M  V30 925 H 78.2544 3.46457 1.40868 0
M  V30 926 H 80.5464 5.70687 3.65133 0
M  V30 927 H 81.4894 6.64394 2.4492 0
M  V30 928 H 81.8974 4.9289 2.75172 0
M  V30 929 N 81.2955 -0.223234 1.56011 0
M  V30 930 C 82.2425 -1.27664 1.92277 0
M  V30 931 C 83.2125 -1.46659 0.779763 0
M  V30 932 O 84.3975 -1.60256 1.03551 0
M  V30 933 C 81.5375 -2.62234 2.24338 0
M  V30 934 C 80.6505 -2.51051 3.51564 0
M  V30 935 C 79.7855 -3.78133 3.7308 0
M  V30 936 C 78.8245 -3.61665 4.93827 0
M  V30 937 N 77.9615 -4.80693 5.11741 0
M  V30 938 H 82.8015 -0.960358 2.82101 0
M  V30 939 H 80.3385 -0.462901 1.39627 0
M  V30 940 H 82.2965 -3.40596 2.40936 0
M  V30 941 H 80.9265 -2.91961 1.3769 0
M  V30 942 H 79.9785 -1.64132 3.43169 0
M  V30 943 H 81.2905 -2.34803 4.40079 0
M  V30 944 H 80.4445 -4.64938 3.89766 0
M  V30 945 H 79.1835 -3.97304 2.82844 0
M  V30 946 H 78.1885 -2.73244 4.77093 0
M  V30 947 H 79.4135 -3.43966 5.85546 0
M  V30 948 H 77.3595 -5.00181 4.24446 0
M  V30 949 H 77.2765 -4.67165 5.94384 0
M  V30 950 H 78.5445 -5.6893 5.3286 0
M  V30 951 N 82.7736 -1.49793 -0.48987 0
M  V30 952 C 84.0506 -1.50348 -1.25119 0
M  V30 953 C 84.4306 -0.237466 -2.0976 0
M  V30 954 O 83.7786 0.77981 -2.14782 0
M  V30 955 C 83.9886 -2.78872 -2.09837 0
M  V30 956 C 85.3366 -3.288 -2.68655 0
M  V30 957 O 86.3606 -2.80065 -2.20096 0
M  V30 958 O 85.2196 -4.13707 -3.57083 0
M  V30 959 H 82.3136 -0.602242 -0.566775 0
M  V30 960 H 84.8596 -1.62067 -0.503229 0
M  V30 961 H 83.6316 -3.62499 -1.47343 0
M  V30 962 H 83.2546 -2.70066 -2.91805 0
M  V30 963 N 84.2517 0.741722 -1.39055 0
M  V30 964 C 85.6627 1.31966 -1.32068 0
M  V30 965 C 86.0137 1.96192 0.0180797 0
M  V30 966 O 85.1387 1.95861 0.920196 0
M  V30 967 C 85.7337 2.39954 -2.39181 0
M  V30 968 C 84.2927 2.93438 -2.35735 0
M  V30 969 C 83.4397 1.66936 -2.21422 0
M  V30 970 H 86.3907 0.539721 -1.4924 0
M  V30 971 H 86.4117 3.20182 -2.05581 0
M  V30 972 H 85.9237 1.9318 -3.36605 0
M  V30 973 H 84.0247 3.4451 -1.41929 0
M  V30 974 H 84.1377 3.4701 -3.30335 0
M  V30 975 H 82.5017 1.91016 -1.68478 0
M  V30 976 H 83.2847 1.22224 -3.20806 0
M  V30 977 N 85.7298 1.2412 0.971189 0
M  V30 978 C 86.9788 1.07284 1.70801 0
M  V30 979 C 87.2918 -0.388902 1.91695 0
M  V30 980 O 88.4978 -0.677379 2.62914 0
M  V30 981 C 86.9538 1.87145 3.07416 0
M  V30 982 C 86.5618 3.37707 2.94377 0
M  V30 983 C 88.3058 1.78828 3.84995 0
M  V30 984 C 86.2128 4.09925 4.26281 0
M  V30 985 H 85.1428 0.397854 0.64049 0
M  V30 986 H 87.7938 1.4817 1.0825 0
M  V30 987 H 86.1758 1.39071 3.70777 0
M  V30 988 H 87.3498 3.93335 2.4005 0
M  V30 989 H 85.6648 3.46938 2.30267 0
M  V30 990 H 88.2618 2.30089 4.82662 0
M  V30 991 H 88.6048 0.75284 4.09436 0
M  V30 992 H 89.1378 2.24563 3.28354 0
M  V30 993 H 85.8768 5.13813 4.07033 0
M  V30 994 H 85.3968 3.59083 4.80437 0
M  V30 995 H 87.0758 4.1673 4.94919 0
M  V30 996 N 87.2079 -1.17134 1.05439 0
M  V30 997 C 88.4569 -1.86791 0.761049 0
M  V30 998 C 88.7699 -1.82072 -0.714795 0
M  V30 999 O 89.9759 -2.47223 -1.12218 0
M  V30 1000 C 88.4319 -3.35166 1.31117 0
M  V30 1001 C 88.0399 -3.48381 2.81664 0
M  V30 1002 C 89.7839 -4.10134 1.09499 0
M  V30 1003 C 87.6909 -4.90793 3.29964 0
M  V30 1004 H 86.6209 -0.699681 0.281002 0
M  V30 1005 H 89.2719 -1.3226 1.27199 0
M  V30 1006 H 87.6539 -3.8925 0.72803 0
M  V30 1007 H 88.8279 -3.04502 3.45855 0
M  V30 1008 H 87.1429 -2.86836 3.01851 0
M  V30 1009 H 89.7399 -5.152 1.43084 0
M  V30 1010 H 90.0829 -4.16287 0.0328772 0
M  V30 1011 H 90.6159 -3.62264 1.64346 0
M  V30 1012 H 87.3549 -4.89816 4.35616 0
M  V30 1013 H 86.8749 -5.35333 2.70516 0
M  V30 1014 H 88.5539 -5.59573 3.24787 0
M  V30 1015 N 88.686 -0.835752 -1.33615 0
M  V30 1016 C 89.933 -0.429959 -1.97883 0
M  V30 1017 C 90.261 1.01006 -1.66217 0
M  V30 1018 O 89.516 1.72047 -0.93265 0
M  V30 1019 C 89.815 -0.593925 -3.52431 0
M  V30 1020 C 89.481 -2.00158 -4.04039 0
M  V30 1021 C 88.143 -2.38662 -4.17844 0
M  V30 1022 C 90.495 -2.92117 -4.31644 0
M  V30 1023 C 87.823 -3.68435 -4.56588 0
M  V30 1024 C 90.175 -4.21368 -4.71838 0
M  V30 1025 C 88.839 -4.59833 -4.83849 0
M  V30 1026 H 88.109 -0.157333 -0.724104 0
M  V30 1027 H 90.756 -1.06217 -1.59343 0
M  V30 1028 H 89.061 0.121619 -3.91611 0
M  V30 1029 H 90.758 -0.260282 -4.00154 0
M  V30 1030 H 87.348 -1.69252 -3.93766 0
M  V30 1031 H 91.532 -2.63608 -4.20505 0
M  V30 1032 H 86.788 -3.98046 -4.64079 0
M  V30 1033 H 90.962 -4.92703 -4.92155 0
M  V30 1034 H 88.589 -5.60438 -5.13627 0
M  V30 1035 N 90.1641 1.46063 -0.591896 0
M  V30 1036 C 91.3921 2.06717 -0.0868936 0
M  V30 1037 C 91.8071 1.43916 1.22203 0
M  V30 1038 O 91.1641 0.547698 1.74088 0
M  V30 1039 C 91.2151 3.6142 0.0758725 0
M  V30 1040 O 90.9361 4.21874 -1.18126 0
M  V30 1041 C 92.4371 4.39025 0.61416 0
M  V30 1042 H 89.6571 0.668162 -0.0616518 0
M  V30 1043 H 92.2011 1.8755 -0.815175 0
M  V30 1044 H 90.3561 3.79983 0.754413 0
M  V30 1045 H 90.7701 5.14861 -1.00092 0
M  V30 1046 H 92.2441 5.4783 0.677193 0
M  V30 1047 H 92.7211 4.07708 1.63312 0
M  V30 1048 H 93.3271 4.2529 -0.0298142 0
M  V30 1049 N 91.6422 0.330177 1.54103 0
M  V30 1050 C 92.5922 -0.548456 2.21305 0
M  V30 1051 C 93.5762 -1.07651 1.19583 0
M  V30 1052 O 94.7682 -1.01243 1.45186 0
M  V30 1053 C 91.8972 -1.70559 2.97934 0
M  V30 1054 C 90.9832 -1.19212 4.07 0
M  V30 1055 N 91.3742 -0.398831 5.04225 0
M  V30 1056 C 89.6722 -1.47024 4.2107 0
M  V30 1057 C 90.3732 -0.121761 5.81573 0
M  V30 1058 N 89.3492 -0.709722 5.38947 0
M  V30 1059 H 93.1512 0.0648483 2.93828 0
M  V30 1060 H 90.6652 0.136363 1.61826 0
M  V30 1061 H 92.6622 -2.34688 3.44568 0
M  V30 1062 H 91.3222 -2.32231 2.26934 0
M  V30 1063 H 92.3332 -0.0410869 5.17884 0
M  V30 1064 H 89.0102 -2.09232 3.61287 0
M  V30 1065 H 90.4002 0.517298 6.69906 0
M  V30 1066 N 93.1203 -1.57491 0.0584922 0
M  V30 1067 C 94.0533 -2.07533 -0.948969 0
M  V30 1068 C 95.0313 -0.977444 -1.29942 0
M  V30 1069 O 96.2153 -1.2499 -1.41102 0
M  V30 1070 C 93.3423 -2.52192 -2.2609 0
M  V30 1071 C 92.3883 -3.73287 -2.06298 0
M  V30 1072 S 93.2213 -5.18603 -1.33459 0
M  V30 1073 C 94.3773 -5.66583 -2.65959 0
M  V30 1074 H 94.6103 -2.92662 -0.523118 0
M  V30 1075 H 92.1433 -1.53631 -0.153954 0
M  V30 1076 H 94.1013 -2.78585 -3.01498 0
M  V30 1077 H 92.7623 -1.67356 -2.65802 0
M  V30 1078 H 91.9553 -4.0248 -3.03357 0
M  V30 1079 H 91.5573 -3.47199 -1.39029 0
M  V30 1080 H 93.8493 -5.72616 -3.62101 0
M  V30 1081 H 94.7923 -6.65684 -2.41393 0
M  V30 1082 H 95.2003 -4.94342 -2.72554 0
M  V30 1083 N 94.5984 0.214957 -1.56127 0
M  V30 1084 C 95.5454 1.26642 -1.92952 0
M  V30 1085 C 96.5154 1.46244 -0.78753 0
M  V30 1086 O 97.7004 1.59704 -1.04399 0
M  V30 1087 C 94.8404 2.6104 -2.25726 0
M  V30 1088 C 93.9534 2.49183 -3.52891 0
M  V30 1089 C 93.0884 3.76149 -3.7508 0
M  V30 1090 C 92.1274 3.59041 -4.95738 0
M  V30 1091 N 91.2644 4.77972 -5.14283 0
M  V30 1092 H 96.1044 0.945384 -2.82607 0
M  V30 1093 H 93.6414 0.455489 -1.3987 0
M  V30 1094 H 95.5994 3.39313 -2.42739 0
M  V30 1095 H 94.2294 2.91227 -1.39236 0
M  V30 1096 H 93.2814 1.6231 -3.44034 0
M  V30 1097 H 94.5934 2.32466 -4.41318 0
M  V30 1098 H 93.7474 4.62865 -3.92226 0
M  V30 1099 H 92.4864 3.95799 -2.84947 0
M  V30 1100 H 91.4914 2.7071 -4.78535 0
M  V30 1101 H 92.7164 3.40856 -5.87362 0
M  V30 1102 H 90.6624 4.97923 -4.27093 0
M  V30 1103 H 90.5794 4.64006 -5.96853 0
M  V30 1104 H 91.8474 5.66096 -5.35869 0
M  V30 1105 N 96.0765 1.50051 0.48192 0
M  V30 1106 C 97.0235 1.68122 1.58125 0
M  V30 1107 C 97.9935 0.522545 1.57666 0
M  V30 1108 O 99.1785 0.751844 1.75362 0
M  V30 1109 C 96.3185 1.77142 2.96167 0
M  V30 1110 C 95.4315 3.0444 3.06497 0
M  V30 1111 C 94.5665 3.04321 4.35387 0
M  V30 1112 C 93.6055 4.26118 4.3942 0
M  V30 1113 N 92.7425 4.238 5.59766 0
M  V30 1114 H 97.5825 2.6198 1.42022 0
M  V30 1115 H 95.1195 1.29877 0.690687 0
M  V30 1116 H 97.0775 1.80352 3.76203 0
M  V30 1117 H 95.7075 0.867329 3.1093 0
M  V30 1118 H 94.7595 3.10752 2.19402 0
M  V30 1119 H 96.0715 3.94426 3.05336 0
M  V30 1120 H 95.2255 3.062 5.23762 0
M  V30 1121 H 93.9645 2.12147 4.39141 0
M  V30 1122 H 92.9695 4.24463 3.49444 0
M  V30 1123 H 94.1945 5.19507 4.37366 0
M  V30 1124 H 92.1405 3.34474 5.64326 0
M  V30 1125 H 92.0575 5.07542 5.60301 0
M  V30 1126 H 93.3255 4.2981 6.50295 0
M  V30 1127 N 97.5546 -0.734337 1.39446 0
M  V30 1128 C 98.7796 -1.52866 1.40167 0
M  V30 1129 C 99.2046 -1.881 -0.00171513 0
M  V30 1130 O 98.5626 -1.51957 -0.988879 0
M  V30 1131 C 98.6106 -2.79235 2.28167 0
M  V30 1132 O 97.7146 -3.75185 1.71201 0
M  V30 1133 H 97.0556 -0.461618 0.477289 0
M  V30 1134 H 99.5856 -0.905949 1.8345 0
M  V30 1135 H 99.5956 -3.27963 2.42702 0
M  V30 1136 H 98.2706 -2.52923 3.30156 0
M  V30 1137 H 96.8476 -3.33958 1.65912 0
M  V30 1138 N 99.0327 -1.24633 -0.964593 0
M  V30 1139 C 100.449 -1.01239 -1.2338 0
M  V30 1140 C 100.649 0.2769 -1.99588 0
M  V30 1141 O 99.7047 0.992241 -2.32187 0
M  V30 1142 C 101.018 -2.22937 -2.01791 0
M  V30 1143 C 102.566 -2.27594 -2.14872 0
M  V30 1144 C 103.041 -3.48921 -2.96678 0
M  V30 1145 N 104.532 -3.49257 -3.04259 0
M  V30 1146 C 105.267 -4.39795 -3.67924 0
M  V30 1147 N 104.763 -5.40591 -4.33281 0
M  V30 1148 N 106.556 -4.275 -3.64966 0
M  V30 1149 H 98.7067 -2.0748 -0.454502 0
M  V30 1150 H 100.97 -0.910647 -0.26349 0
M  V30 1151 H 100.676 -3.16587 -1.53184 0
M  V30 1152 H 100.55 -2.25306 -3.02518 0
M  V30 1153 H 102.937 -1.34473 -2.6268 0
M  V30 1154 H 103.018 -2.2925 -1.13482 0
M  V30 1155 H 102.662 -4.42359 -2.49562 0
M  V30 1156 H 102.592 -3.4451 -3.98272 0
M  V30 1157 H 105.083 -2.76337 -2.57771 0
M  V30 1158 H 105.396 -6.05904 -4.79687 0
M  V30 1159 H 103.741 -5.44475 -4.3194 0
M  V30 1160 H 106.932 -3.47987 -3.13086 0
M  V30 1161 H 107.105 -4.98258 -4.14298 0
M  V30 1162 N 100.511 1.16574 -1.06058 0
M  V30 1163 C 101.76 1.86385 -0.770944 0
M  V30 1164 C 102.073 1.82448 0.705129 0
M  V30 1165 O 103.279 2.47815 1.10905 0
M  V30 1166 C 101.735 3.34466 -1.32893 0
M  V30 1167 C 101.343 3.46883 -2.83507 0
M  V30 1168 C 103.087 4.09548 -1.11672 0
M  V30 1169 C 100.994 4.89036 -3.32562 0
M  V30 1170 H 99.9238 0.698181 -0.284709 0
M  V30 1171 H 102.575 1.31583 -1.27899 0
M  V30 1172 H 100.957 3.88859 -0.748662 0
M  V30 1173 H 102.131 3.02663 -3.47465 0
M  V30 1174 H 100.446 2.85232 -3.03368 0
M  V30 1175 H 103.043 5.14434 -1.45814 0
M  V30 1176 H 103.386 4.16264 -0.0549535 0
M  V30 1177 H 103.919 3.61387 -1.66265 0
M  V30 1178 H 100.658 4.87499 -4.38207 0
M  V30 1179 H 100.178 5.3389 -2.73351 0
M  V30 1180 H 101.857 5.57843 -3.2775 0
M  V30 1181 N 101.989 0.842826 1.3317 0
M  V30 1182 C 102.919 0.294028 2.31641 0
M  V30 1183 C 103.9 -0.600401 1.59151 0
M  V30 1184 O 105.085 -0.523124 1.87022 0
M  V30 1185 C 102.215 -0.528416 3.43257 0
M  V30 1186 C 101.169 0.27056 4.27144 0
M  V30 1187 C 100.495 -0.675881 5.30411 0
M  V30 1188 C 101.795 1.48981 5.00602 0
M  V30 1189 H 103.489 1.11681 2.77791 0
M  V30 1190 H 101.035 0.538478 1.33553 0
M  V30 1191 H 102.988 -0.922674 4.11175 0
M  V30 1192 H 101.712 -1.38445 2.95805 0
M  V30 1193 H 100.371 0.646427 3.60856 0
M  V30 1194 H 100.019 -1.52842 4.79216 0
M  V30 1195 H 99.7189 -0.145374 5.8742 0
M  V30 1196 H 101.243 -1.06757 6.01195 0
M  V30 1197 H 102.657 1.16849 5.61266 0
M  V30 1198 H 101.054 1.95739 5.6728 0
M  V30 1199 H 102.124 2.25746 4.29147 0
M  V30 1200 N 103.467 -1.45747 0.599634 0
M  V30 1201 C 104.692 -2.07178 0.0960198 0
M  V30 1202 C 105.117 -1.44268 -1.207 0
M  V30 1203 O 104.475 -0.532503 -1.73303 0
M  V30 1204 C 104.523 -3.60579 -0.0385348 0
M  V30 1205 O 103.627 -3.97713 -1.0908 0
M  V30 1206 H 102.968 -0.660251 0.0704593 0
M  V30 1207 H 105.498 -1.87124 0.827385 0
M  V30 1208 H 105.508 -4.07298 -0.239304 0
M  V30 1209 H 104.183 -4.05756 0.912947 0
M  V30 1210 H 102.76 -3.62678 -0.867135 0
M  V30 1211 N 104.945 -0.338344 -1.53925 0
M  V30 1212 C 105.855 0.529421 -2.28548 0
M  V30 1213 C 106.871 1.11645 -1.3346 0
M  V30 1214 O 108.047 1.13325 -1.66492 0
M  V30 1215 C 105.112 1.66713 -3.03987 0
M  V30 1216 C 104.173 1.11041 -4.14691 0
M  V30 1217 C 103.406 2.19389 -4.86522 0
M  V30 1218 O 103.629 3.40013 -4.57982 0
M  V30 1219 O 102.563 1.83976 -5.73094 0
M  V30 1220 H 106.389 -0.0770399 -3.03602 0
M  V30 1221 H 103.974 -0.103555 -1.49041 0
M  V30 1222 H 105.856 2.32918 -3.5118 0
M  V30 1223 H 104.531 2.25949 -2.31794 0
M  V30 1224 H 103.438 0.413024 -3.71813 0
M  V30 1225 H 104.771 0.562975 -4.8897 0
M  V30 1226 N 106.423 1.57458 -0.0668435 0
M  V30 1227 C 107.653 1.97337 0.611677 0
M  V30 1228 C 108.061 0.943744 1.63982 0
M  V30 1229 O 107.404 -0.0785584 1.83532 0
M  V30 1230 C 107.466 3.33511 1.34205 0
M  V30 1231 C 107.13 4.54598 0.467941 0
M  V30 1232 C 108.127 5.19186 -0.272439 0
M  V30 1233 C 105.812 5.0075 0.39427 0
M  V30 1234 C 107.806 6.28274 -1.07476 0
M  V30 1235 C 105.493 6.09711 -0.411729 0
M  V30 1236 C 106.491 6.73335 -1.14492 0
M  V30 1237 O 106.179 7.80199 -1.93763 0
M  V30 1238 H 105.911 0.654042 0.170893 0
M  V30 1239 H 108.465 2.04961 -0.134289 0
M  V30 1240 H 106.695 3.22487 2.13398 0
M  V30 1241 H 108.384 3.58029 1.91233 0
M  V30 1242 H 109.15 4.84477 -0.225086 0
M  V30 1243 H 105.029 4.51009 0.954569 0
M  V30 1244 H 108.573 6.77866 -1.64755 0
M  V30 1245 H 104.47 6.43854 -0.460664 0
M  V30 1246 H 105.238 7.97053 -1.86142 0
M  V30 1247 N 107.901 -0.206675 1.56239 0
M  V30 1248 C 108.833 -1.27997 1.9013 0
M  V30 1249 C 109.846 -1.42299 0.790883 0
M  V30 1250 O 111.035 -1.42931 1.06925 0
M  V30 1251 C 108.135 -2.65368 2.10792 0
M  V30 1252 C 107.308 -2.72824 3.41886 0
M  V30 1253 C 106.367 -3.9131 3.51799 0
M  V30 1254 O 105.393 -3.78953 4.24716 0
M  V30 1255 N 106.595 -5.06265 2.84035 0
M  V30 1256 H 109.36 -0.992444 2.82791 0
M  V30 1257 H 106.921 -0.396652 1.56966 0
M  V30 1258 H 108.913 -3.43039 2.14724 0
M  V30 1259 H 107.483 -2.86657 1.24685 0
M  V30 1260 H 106.703 -1.81515 3.49923 0
M  V30 1261 H 107.991 -2.74786 4.28217 0
M  V30 1262 H 107.389 -5.19203 2.246 0
M  V30 1263 H 105.946 -5.81925 2.93609 0
M  V30 1264 N 109.379 -1.50304 -0.473955 0
M  V30 1265 C 110.619 -1.62786 -1.23612 0
M  V30 1266 C 110.983 -0.319786 -1.89318 0
M  V30 1267 O 112.184 -0.320012 -2.66888 0
M  V30 1268 C 110.455 -2.77351 -2.25414 0
M  V30 1269 S 112.014 -3.09948 -3.10608 0
M  V30 1270 H 108.832 -0.573895 -0.419721 0
M  V30 1271 H 111.434 -1.88076 -0.533623 0
M  V30 1272 H 110.138 -3.70879 -1.75719 0
M  V30 1273 H 109.669 -2.54137 -3.00296 0
M  V30 1274 H 111.684 -2.53553 -4.26527 0
M  V30 1275 N 110.857 0.726932 -1.39834 0
M  V30 1276 C 112.106 1.48214 -1.36805 0
M  V30 1277 C 112.419 1.95576 0.0305291 0
M  V30 1278 O 113.625 2.7088 0.183417 0
M  V30 1279 C 112.081 2.67854 -2.40379 0
M  V30 1280 C 111.689 2.27408 -3.85992 0
M  V30 1281 C 113.433 3.45641 -2.46439 0
M  V30 1282 C 111.34 3.43819 -4.81189 0
M  V30 1283 H 110.27 0.556606 -0.508631 0
M  V30 1284 H 112.921 0.792216 -1.65518 0
M  V30 1285 H 111.303 3.3896 -2.04749 0
M  V30 1286 H 112.477 1.63795 -4.30706 0
M  V30 1287 H 110.792 1.62692 -3.83302 0
M  V30 1288 H 113.389 4.32244 -3.14753 0
M  V30 1289 H 113.732 3.88669 -1.49139 0
M  V30 1290 H 114.265 2.8157 -2.81004 0
M  V30 1291 H 111.004 3.05834 -5.79781 0
M  V30 1292 H 110.524 4.06385 -4.41148 0
M  V30 1293 H 112.203 4.10043 -5.00474 0
M  V30 1294 N 112.336 1.25143 0.95797 0
M  V30 1295 C 113.246 1.06968 2.08794 0
M  V30 1296 C 114.262 0.00773911 1.73998 0
M  V30 1297 O 115.438 0.207972 2.00323 0
M  V30 1298 C 112.503 0.68691 3.39827 0
M  V30 1299 C 111.564 1.82641 3.88511 0
M  V30 1300 C 110.797 1.46181 5.1329 0
M  V30 1301 O 111.02 0.355971 5.69288 0
M  V30 1302 O 109.954 2.29085 5.566 0
M  V30 1303 H 113.78 2.01723 2.27027 0
M  V30 1304 H 111.365 1.04051 1.07209 0
M  V30 1305 H 113.247 0.485417 4.18595 0
M  V30 1306 H 111.922 -0.231417 3.22872 0
M  V30 1307 H 110.829 2.08274 3.10762 0
M  V30 1308 H 112.162 2.72386 4.09959 0
M  V30 1309 N 113.814 -1.1601 1.06675 0
M  V30 1310 C 114.762 -2.22586 0.675157 0
M  V30 1311 C 115.756 -1.66525 -0.310766 0
M  V30 1312 O 116.962 -1.79145 -0.175215 0
M  V30 1313 H 113.337 -0.724855 0.200223 0
M  V30 1314 H 115.308 -2.52899 1.58381 0
M  V30 1315 C 114.057 -3.47604 0.0817162 0
M  V30 1316 H 113.38 -3.91058 0.831484 0
M  V30 1317 H 114.82 -4.23718 -0.154708 0
M  V30 1318 C 113.279 -3.15718 -1.17576 0
M  V30 1319 O 113.809 -3.31878 -2.26318 0
M  V30 1320 N 112.015 -2.69816 -1.07923 0
M  V30 1321 H 111.562 -2.56866 -0.194293 0
M  V30 1322 H 111.52 -2.48855 -1.92141 0
M  V30 1323 N 115.292 -0.849877 -1.32721 0
M  V30 1324 C 116.522 -0.46408 -2.0132 0
M  V30 1325 C 116.93 0.94246 -1.64056 0
M  V30 1326 O 116.273 1.6257 -0.855379 0
M  V30 1327 C 116.335 -0.517887 -3.5575 0
M  V30 1328 C 115.999 -1.88248 -4.16427 0
M  V30 1329 C 116.996 -2.84726 -4.35002 0
M  V30 1330 C 114.681 -2.17832 -4.52609 0
M  V30 1331 C 116.675 -4.08945 -4.8892 0
M  V30 1332 C 114.362 -3.42304 -5.06232 0
M  V30 1333 C 115.36 -4.37677 -5.24335 0
M  V30 1334 O 115.048 -5.59946 -5.76815 0
M  V30 1335 H 114.78 -0.181327 -0.651227 0
M  V30 1336 H 117.334 -1.14713 -1.70382 0
M  V30 1337 H 115.564 0.221997 -3.86062 0
M  V30 1338 H 117.253 -0.148366 -4.05629 0
M  V30 1339 H 118.019 -2.63174 -4.07388 0
M  V30 1340 H 113.898 -1.44385 -4.37806 0
M  V30 1341 H 117.442 -4.83396 -5.02966 0
M  V30 1342 H 113.339 -3.63709 -5.33278 0
M  V30 1343 H 114.107 -5.61838 -5.95214 0
M  V30 1344 N 116.77 1.45427 -0.607355 0
M  V30 1345 C 117.718 2.32269 0.12411 0
M  V30 1346 C 118.712 1.45955 0.859854 0
M  V30 1347 O 119.918 1.6244 0.775447 0
M  V30 1348 H 116.293 0.749691 0.0588839 0
M  V30 1349 H 118.264 2.91743 -0.626762 0
M  V30 1350 C 117.013 3.29567 1.1082 0
M  V30 1351 H 116.336 3.95978 0.551492 0
M  V30 1352 H 117.776 3.93061 1.58995 0
M  V30 1353 C 116.235 2.56722 2.18164 0
M  V30 1354 O 116.765 2.34842 3.25902 0
M  V30 1355 N 114.971 2.16861 1.93442 0
M  V30 1356 H 114.518 2.34855 1.05834 0
M  V30 1357 H 114.476 1.68444 2.65469 0
M  V30 1358 N 118.248 0.346503 1.53744 0
M  V30 1359 C 119.495 -0.249104 2.00962 0
M  V30 1360 C 119.823 -1.5032 1.23426 0
M  V30 1361 O 119.078 -1.93217 0.310761 0
M  V30 1362 C 119.377 -0.605809 3.52228 0
M  V30 1363 C 119.043 0.551747 4.47512 0
M  V30 1364 C 117.705 0.86941 4.73281 0
M  V30 1365 C 120.057 1.32818 5.03993 0
M  V30 1366 C 117.385 1.96582 5.52786 0
M  V30 1367 C 119.737 2.41486 5.84694 0
M  V30 1368 C 118.401 2.73808 6.08757 0
M  V30 1369 H 117.671 -0.0911538 0.735372 0
M  V30 1370 H 120.318 0.475027 1.85515 0
M  V30 1371 H 118.623 -1.4107 3.65522 0
M  V30 1372 H 120.32 -1.07858 3.86222 0
M  V30 1373 H 116.91 0.294102 4.2759 0
M  V30 1374 H 121.094 1.09602 4.84047 0
M  V30 1375 H 116.35 2.22045 5.69654 0
M  V30 1376 H 120.524 3.02078 6.27473 0
M  V30 1377 H 118.151 3.58892 6.7015 0
M  V30 1378 N 119.726 -1.57421 0.075193 0
M  V30 1379 C 120.636 -2.1642 -0.905511 0
M  V30 1380 C 121.652 -1.12828 -1.32461 0
M  V30 1381 O 122.828 -1.45109 -1.39661 0
M  V30 1382 C 119.893 -2.71693 -2.15369 0
M  V30 1383 C 118.954 -3.90171 -1.79068 0
M  V30 1384 C 118.187 -4.42798 -2.97936 0
M  V30 1385 O 118.41 -3.94416 -4.12058 0
M  V30 1386 O 117.344 -5.34085 -2.77555 0
M  V30 1387 H 121.17 -3.00588 -0.433626 0
M  V30 1388 H 118.755 -1.48664 -0.148067 0
M  V30 1389 H 120.637 -3.07104 -2.88557 0
M  V30 1390 H 119.312 -1.90582 -2.61649 0
M  V30 1391 H 118.219 -3.59606 -1.03122 0
M  V30 1392 H 119.552 -4.72584 -1.37569 0
M  V30 1393 N 121.204 0.198386 -1.56346 0
M  V30 1394 C 122.114 1.2664 -1.97483 0
M  V30 1395 C 123.13 1.49989 -0.882002 0
M  V30 1396 O 124.306 1.62668 -1.18748 0
M  V30 1397 C 121.371 2.59141 -2.30319 0
M  V30 1398 C 120.432 2.43892 -3.53292 0
M  V30 1399 C 119.665 3.70074 -3.84553 0
M  V30 1400 O 119.888 4.74101 -3.1715 0
M  V30 1401 O 118.822 3.658 -4.7799 0
M  V30 1402 H 122.648 0.947304 -2.88548 0
M  V30 1403 H 120.233 0.403123 -1.43859 0
M  V30 1404 H 122.115 3.37352 -2.5253 0
M  V30 1405 H 120.79 2.90684 -1.42423 0
M  V30 1406 H 119.697 1.63803 -3.36332 0
M  V30 1407 H 121.03 2.17282 -4.41644 0
M  V30 1408 N 122.682 1.50554 0.465978 0
M  V30 1409 C 123.629 1.6979 1.56333 0
M  V30 1410 C 124.599 0.539239 1.57103 0
M  V30 1411 O 125.784 0.770401 1.74555 0
M  V30 1412 C 122.924 1.80273 2.94271 0
M  V30 1413 C 122.037 3.07674 3.0325 0
M  V30 1414 C 121.172 3.08922 4.32135 0
M  V30 1415 C 120.211 4.30755 4.34875 0
M  V30 1416 N 119.348 4.29714 5.55239 0
M  V30 1417 H 124.188 2.63472 1.39235 0
M  V30 1418 H 121.725 1.30602 0.676873 0
M  V30 1419 H 123.683 1.84332 3.74269 0
M  V30 1420 H 122.313 0.900258 3.09992 0
M  V30 1421 H 121.365 3.13062 2.16094 0
M  V30 1422 H 122.677 3.97642 3.01135 0
M  V30 1423 H 121.831 3.11738 5.20485 0
M  V30 1424 H 120.57 2.16792 4.36866 0
M  V30 1425 H 119.575 4.28146 3.44922 0
M  V30 1426 H 120.8 5.24117 4.31831 0
M  V30 1427 H 118.746 3.4044 5.60746 0
M  V30 1428 H 118.663 5.13456 5.54886 0
M  V30 1429 H 119.931 4.36683 6.457 0
M  V30 1430 N 124.16 -0.719506 1.40217 0
M  V30 1431 C 125.437 -1.47221 1.28784 0
M  V30 1432 C 125.817 -2.10883 -0.0956067 0
M  V30 1433 O 125.165 -1.99833 -1.10811 0
M  V30 1434 C 125.375 -2.5111 2.42373 0
M  V30 1435 C 126.723 -3.17053 2.82423 0
M  V30 1436 O 127.747 -2.61429 2.41937 0
M  V30 1437 O 126.606 -4.17742 3.52355 0
M  V30 1438 H 123.7 -0.654491 0.50554 0
M  V30 1439 H 126.246 -0.752014 1.52128 0
M  V30 1440 H 125.018 -2.02556 3.34793 0
M  V30 1441 H 124.641 -3.3067 2.20778 0
M  V30 1442 N 125.638 -1.25649 -0.95132 0
M  V30 1443 C 126.548 -1.08073 -2.08224 0
M  V30 1444 C 127.564 -0.0169666 -1.73992 0
M  V30 1445 O 128.74 -0.218593 -2.0021 0
M  V30 1446 C 125.805 -0.704922 -3.39458 0
M  V30 1447 C 124.866 -1.84699 -3.87537 0
M  V30 1448 C 124.099 -1.48902 -5.12508 0
M  V30 1449 O 124.322 -0.386156 -5.69091 0
M  V30 1450 O 123.256 -2.32033 -5.55378 0
M  V30 1451 H 127.082 -2.02924 -2.25954 0
M  V30 1452 H 124.667 -1.04618 -1.06656 0
M  V30 1453 H 126.549 -0.507609 -4.18332 0
M  V30 1454 H 125.224 0.214291 -3.2299 0
M  V30 1455 H 124.131 -2.09919 -3.09653 0
M  V30 1456 H 125.464 -2.74557 -4.08509 0
M  V30 1457 N 127.117 1.15442 -1.07289 0
M  V30 1458 C 128.065 2.22225 -0.686952 0
M  V30 1459 C 129.059 1.66688 0.30193 0
M  V30 1460 O 130.265 1.79236 0.165712 0
M  V30 1461 H 126.64 0.723783 -0.204064 0
M  V30 1462 H 128.611 2.52056 -1.5972 0
M  V30 1463 C 127.36 3.47556 -0.100149 0
M  V30 1464 H 126.683 3.90612 -0.852211 0
M  V30 1465 H 128.123 4.23794 0.132235 0
M  V30 1466 C 126.582 3.16337 1.159 0
M  V30 1467 O 127.112 3.33074 2.24555 0
M  V30 1468 N 125.318 2.70385 1.06491 0
M  V30 1469 H 124.865 2.56966 0.180668 0
M  V30 1470 H 124.823 2.49871 1.90819 0
M  V30 1471 N 128.595 0.856903 1.32268 0
M  V30 1472 C 129.842 0.461386 1.97174 0
M  V30 1473 C 130.17 -0.983491 1.67803 0
M  V30 1474 O 129.425 -1.70541 0.959903 0
M  V30 1475 C 129.724 0.649919 3.51441 0
M  V30 1476 C 129.39 2.0656 4.00804 0
M  V30 1477 C 128.052 2.45279 4.13995 0
M  V30 1478 C 130.404 2.98947 4.26943 0
M  V30 1479 C 127.732 3.75653 4.50668 0
M  V30 1480 C 130.084 4.28822 4.65075 0
M  V30 1481 C 128.748 4.67472 4.76472 0
M  V30 1482 H 128.018 0.168833 0.72151 0
M  V30 1483 H 130.665 1.08739 1.57633 0
M  V30 1484 H 128.97 -0.0593018 3.91755 0
M  V30 1485 H 130.667 0.32391 3.9969 0
M  V30 1486 H 127.257 1.75495 3.91024 0
M  V30 1487 H 131.441 2.70265 4.16258 0
M  V30 1488 H 126.697 4.05379 4.57688 0
M  V30 1489 H 130.871 5.0047 4.84255 0
M  V30 1490 H 128.498 5.68539 5.04646 0
M  V30 1491 N 130.073 -1.45103 0.615059 0
M  V30 1492 C 131.298 -2.07064 0.117988 0
M  V30 1493 C 131.723 -1.4554 -1.19163 0
M  V30 1494 O 131.081 -0.550855 -1.72729 0
M  V30 1495 C 131.129 -3.606 -0.000288387 0
M  V30 1496 O 130.233 -3.98847 -1.04856 0
M  V30 1497 H 129.574 -0.659467 0.0774581 0
M  V30 1498 H 132.104 -1.86236 0.847186 0
M  V30 1499 H 132.114 -4.07529 -0.196091 0
M  V30 1500 H 130.789 -4.04765 0.955932 0
M  V30 1501 H 129.366 -3.63577 -0.828619 0
M  V30 1502 N 131.551 -0.354651 -1.53558 0
M  V30 1503 C 132.499 0.512195 -2.26891 0
M  V30 1504 C 133.493 1.09263 -1.29452 0
M  V30 1505 O 134.699 1.03709 -1.47121 0
M  V30 1506 H 131.074 0.183878 -0.729173 0
M  V30 1507 H 133.045 -0.128202 -2.98124 0
M  V30 1508 C 131.794 1.64563 -3.06291 0
M  V30 1509 H 131.117 1.20829 -3.81104 0
M  V30 1510 H 132.557 2.22711 -3.60799 0
M  V30 1511 C 131.016 2.58158 -2.16462 0
M  V30 1512 O 131.546 3.60695 -1.76811 0
M  V30 1513 N 129.752 2.27096 -1.81317 0
M  V30 1514 H 129.299 1.43751 -2.1376 0
M  V30 1515 H 129.257 2.89975 -1.21498 0
M  V30 1516 N 133.029 1.57378 -0.0835403 0
M  V30 1517 C 134.306 1.85363 0.624507 0
M  V30 1518 C 134.686 0.978239 1.87066 0
M  V30 1519 O 134.034 0.0475908 2.2845 0
M  V30 1520 C 134.244 3.35795 0.950947 0
M  V30 1521 C 135.592 4.03581 1.31939 0
M  V30 1522 O 136.616 3.40609 1.04232 0
M  V30 1523 O 135.475 5.14672 1.83779 0
M  V30 1524 H 132.569 0.766162 0.311329 0
M  V30 1525 H 135.115 1.69307 -0.115362 0
M  V30 1526 H 133.887 3.91244 0.0663899 0
M  V30 1527 H 133.51 3.57154 1.74719 0
M  V30 1528 N 134.507 -0.190092 1.56449 0
M  V30 1529 C 135.784 -0.935886 1.71757 0
M  V30 1530 C 136.164 -2.01173 0.639726 0
M  V30 1531 O 135.512 -2.25827 -0.348502 0
M  V30 1532 C 135.722 -1.51775 3.1427 0
M  V30 1533 C 137.07 -1.99794 3.74656 0
M  V30 1534 O 138.094 -1.61607 3.1743 0
M  V30 1535 O 136.953 -2.70079 4.751 0
M  V30 1536 H 134.047 -0.439229 0.700719 0
M  V30 1537 H 136.593 -0.179395 1.68749 0
M  V30 1538 H 135.365 -0.742505 3.84191 0
M  V30 1539 H 134.988 -2.33894 3.21527 0
M  V30 1540 N 135.985 -1.50799 -0.457987 0
M  V30 1541 C 137.234 -1.6168 -1.20593 0
M  V30 1542 C 137.547 -0.32888 -1.92815 0
M  V30 1543 O 138.753 -0.316773 -2.69646 0
M  V30 1544 C 137.209 -2.8545 -2.19195 0
M  V30 1545 C 136.817 -4.21168 -1.52715 0
M  V30 1546 C 138.561 -3.05681 -2.94549 0
M  V30 1547 C 136.468 -5.3611 -2.4968 0
M  V30 1548 H 135.398 -0.602134 -0.453818 0
M  V30 1549 H 138.049 -1.77245 -0.475031 0
M  V30 1550 H 136.431 -2.63472 -2.95632 0
M  V30 1551 H 137.605 -4.53449 -0.819775 0
M  V30 1552 H 135.92 -4.06648 -0.895922 0
M  V30 1553 H 138.517 -3.88727 -3.67145 0
M  V30 1554 H 138.86 -2.17929 -3.54701 0
M  V30 1555 H 139.393 -3.27901 -2.25223 0
M  V30 1556 H 136.132 -6.26057 -1.94249 0
M  V30 1557 H 135.652 -5.0823 -3.18532 0
M  V30 1558 H 137.331 -5.6722 -3.11241 0
M  V30 1559 N 137.463 0.71206 -1.40597 0
M  V30 1560 C 138.71 1.47197 -1.39065 0
M  V30 1561 C 139.038 1.94499 0.00583891 0
M  V30 1562 O 138.293 1.68752 0.99102 0
M  V30 1563 C 138.592 2.71039 -2.32965 0
M  V30 1564 C 138.258 2.42484 -3.80148 0
M  V30 1565 C 136.92 2.34406 -4.20247 0
M  V30 1566 C 139.272 2.18598 -4.73143 0
M  V30 1567 C 136.6 2.00516 -5.51371 0
M  V30 1568 C 138.952 1.8622 -6.0457 0
M  V30 1569 C 137.616 1.76626 -6.43708 0
M  V30 1570 H 136.886 0.538634 -0.508876 0
M  V30 1571 H 139.533 0.815325 -1.73276 0
M  V30 1572 H 137.838 3.41558 -1.91951 0
M  V30 1573 H 139.535 3.29138 -2.29061 0
M  V30 1574 H 136.125 2.49659 -3.4838 0
M  V30 1575 H 140.309 2.23793 -4.42979 0
M  V30 1576 H 135.565 1.91628 -5.80593 0
M  V30 1577 H 139.739 1.66752 -6.76141 0
M  V30 1578 H 137.366 1.50133 -7.45228 0
M  V30 1579 N 138.941 1.26152 0.944643 0
M  V30 1580 C 139.888 1.07408 2.04285 0
M  V30 1581 C 140.858 -0.0198413 1.66088 0
M  V30 1582 O 142.043 0.139264 1.90291 0
M  V30 1583 C 139.183 0.70945 3.37729 0
M  V30 1584 C 138.296 1.87926 3.88983 0
M  V30 1585 C 137.431 1.45807 5.10797 0
M  V30 1586 C 136.47 2.5964 5.54305 0
M  V30 1587 N 135.607 2.18226 6.67324 0
M  V30 1588 H 140.447 2.01389 2.1965 0
M  V30 1589 H 137.984 1.00275 1.07626 0
M  V30 1590 H 139.942 0.478948 4.14442 0
M  V30 1591 H 138.572 -0.193389 3.2222 0
M  V30 1592 H 137.624 2.22279 3.08701 0
M  V30 1593 H 138.936 2.73377 4.17213 0
M  V30 1594 H 138.09 1.18781 5.94959 0
M  V30 1595 H 136.829 0.574414 4.84305 0
M  V30 1596 H 135.834 2.87399 4.68702 0
M  V30 1597 H 137.059 3.48599 5.828 0
M  V30 1598 H 135.005 1.3229 6.42523 0
M  V30 1599 H 134.922 2.97221 6.95123 0
M  V30 1600 H 136.19 1.94403 7.54869 0
M  V30 1601 N 140.419 -1.14872 1.07899 0
M  V30 1602 C 141.367 -2.21857 0.698727 0
M  V30 1603 C 142.361 -1.66845 -0.293086 0
M  V30 1604 O 143.567 -1.79321 -0.156204 0
M  V30 1605 H 139.942 -0.722691 0.207899 0
M  V30 1606 H 141.913 -2.51205 1.61054 0
M  V30 1607 C 140.662 -3.47498 0.11858 0
M  V30 1608 H 139.985 -3.90154 0.872914 0
M  V30 1609 H 141.425 -4.23858 -0.109759 0
M  V30 1610 C 139.884 -3.16947 -1.1422 0
M  V30 1611 O 140.414 -3.3426 -2.22785 0
M  V30 1612 N 138.62 -2.70946 -1.05055 0
M  V30 1613 H 138.167 -2.57058 -0.167038 0
M  V30 1614 H 138.125 -2.50879 -1.89491 0
M  V30 1615 N 141.898 -0.863906 -1.31812 0
M  V30 1616 C 143.175 -0.39275 -1.91616 0
M  V30 1617 C 143.555 1.12461 -1.7865 0
M  V30 1618 O 142.903 1.95045 -1.19037 0
M  V30 1619 C 143.113 -0.867385 -3.38049 0
M  V30 1620 C 144.461 -0.889966 -4.15168 0
M  V30 1621 O 145.485 -0.812635 -3.46806 0
M  V30 1622 O 144.344 -1.00079 -5.37258 0
M  V30 1623 H 141.438 -0.116358 -0.818773 0
M  V30 1624 H 143.984 -0.951418 -1.40521 0
M  V30 1625 H 142.756 -1.91081 -3.41473 0
M  V30 1626 H 142.379 -0.286687 -3.96565 0
M  V30 1627 N 143.376 1.44774 -0.622745 0
M  V30 1628 C 144.286 2.34433 0.0886031 0
M  V30 1629 C 145.302 1.52131 0.844529 0
M  V30 1630 O 146.478 1.84886 0.798691 0
M  V30 1631 C 143.543 3.29986 1.0635 0
M  V30 1632 C 142.604 4.28195 0.307873 0
M  V30 1633 C 141.837 5.19183 1.23633 0
M  V30 1634 O 142.06 5.13918 2.47476 0
M  V30 1635 O 140.994 5.97515 0.725189 0
M  V30 1636 H 144.82 2.96693 -0.648599 0
M  V30 1637 H 142.405 1.44408 -0.382957 0
M  V30 1638 H 144.287 3.88825 1.6246 0
M  V30 1639 H 142.962 2.70269 1.78146 0
M  V30 1640 H 141.869 3.72927 -0.296064 0
M  V30 1641 H 143.202 4.90808 -0.3699 0
M  V30 1642 N 144.854 0.36279 1.53368 0
M  V30 1643 C 145.801 -0.485008 2.25646 0
M  V30 1644 C 146.771 -1.07982 1.2621 0
M  V30 1645 O 147.956 -1.11284 1.54986 0
M  V30 1646 C 145.096 -1.62023 3.04701 0
M  V30 1647 C 144.209 -1.05086 4.19024 0
M  V30 1648 C 143.344 -2.15496 4.85525 0
M  V30 1649 C 142.383 -1.5601 5.91884 0
M  V30 1650 N 141.52 -2.60241 6.52088 0
M  V30 1651 H 146.36 0.137864 2.97681 0
M  V30 1652 H 143.897 0.0798061 1.46883 0
M  V30 1653 H 145.855 -2.28887 3.48807 0
M  V30 1654 H 144.485 -2.2138 2.34927 0
M  V30 1655 H 143.537 -0.27259 3.79422 0
M  V30 1656 H 144.849 -0.575926 4.95464 0
M  V30 1657 H 144.003 -2.90186 5.32801 0
M  V30 1658 H 142.742 -2.66341 4.08551 0
M  V30 1659 H 141.747 -0.798338 5.43973 0
M  V30 1660 H 142.972 -1.05994 6.70777 0
M  V30 1661 H 140.918 -3.10304 5.77968 0
M  V30 1662 H 140.835 -2.17426 7.24059 0
M  V30 1663 H 142.103 -3.34641 7.04014 0
M  V30 1664 N 146.332 -1.57332 0.0918853 0
M  V30 1665 C 147.557 -1.98995 -0.584442 0
M  V30 1666 C 147.982 -0.970528 -1.61128 0
M  V30 1667 O 147.34 0.0613904 -1.81196 0
M  V30 1668 C 147.388 -3.39636 -1.21161 0
M  V30 1669 O 146.492 -3.40447 -2.32744 0
M  V30 1670 H 145.833 -0.647165 -0.148572 0
M  V30 1671 H 148.363 -2.03873 0.172347 0
M  V30 1672 H 148.373 -3.7726 -1.55367 0
M  V30 1673 H 147.048 -4.13356 -0.459313 0
M  V30 1674 H 145.625 -3.14614 -2.0018 0
M  V30 1675 N 147.81 0.181792 -1.56548 0
M  V30 1676 C 148.72 1.24538 -1.98815 0
M  V30 1677 C 149.736 1.49045 -0.897861 0
M  V30 1678 O 150.912 1.61399 -1.20467 0
M  V30 1679 C 147.977 2.56683 -2.33055 0
M  V30 1680 C 147.038 2.40131 -3.55859 0
M  V30 1681 C 146.271 3.65975 -3.88456 0
M  V30 1682 O 146.494 4.70711 -3.22161 0
M  V30 1683 O 145.428 3.6071 -4.81842 0
M  V30 1684 H 149.254 0.916647 -2.89536 0
M  V30 1685 H 146.839 0.387842 -1.44278 0
M  V30 1686 H 148.721 3.34655 -2.56094 0
M  V30 1687 H 147.396 2.89157 -1.45498 0
M  V30 1688 H 146.303 1.60226 -3.38051 0
M  V30 1689 H 147.636 2.12585 -4.43924 0
M  V30 1690 N 149.288 1.51039 0.449983 0
M  V30 1691 C 150.518 1.66627 1.22143 0
M  V30 1692 C 150.926 0.357776 1.85786 0
M  V30 1693 O 150.269 -0.672424 1.70951 0
M  V30 1694 C 150.331 2.71562 2.35573 0
M  V30 1695 C 149.995 4.14526 1.92399 0
M  V30 1696 C 150.992 4.99717 1.43453 0
M  V30 1697 C 148.677 4.60559 2.00475 0
M  V30 1698 C 150.671 6.28998 1.03155 0
M  V30 1699 C 148.358 5.8984 1.59788 0
M  V30 1700 C 149.356 6.73886 1.11208 0
M  V30 1701 O 149.044 8.0075 0.710935 0
M  V30 1702 H 148.776 0.562635 0.374724 0
M  V30 1703 H 151.33 1.98146 0.541036 0
M  V30 1704 H 149.56 2.3533 3.06849 0
M  V30 1705 H 151.249 2.76156 2.97478 0
M  V30 1706 H 152.015 4.65361 1.36618 0
M  V30 1707 H 147.894 3.95273 2.37235 0
M  V30 1708 H 151.438 6.9455 0.651663 0
M  V30 1709 H 147.335 6.23713 1.66289 0
M  V30 1710 H 148.103 8.142 0.837913 0
M  V30 1711 N 150.766 -0.704594 1.40972 0
M  V30 1712 C 151.714 -1.83994 1.42299 0
M  V30 1713 C 152.708 -1.66684 0.302111 0
M  V30 1714 O 153.914 -1.73655 0.473697 0
M  V30 1715 H 150.289 -0.606171 0.44504 0
M  V30 1716 H 152.26 -1.79992 2.38003 0
M  V30 1717 C 151.009 -3.21946 1.31323 0
M  V30 1718 H 150.332 -3.35878 2.16855 0
M  V30 1719 H 151.772 -4.01491 1.36311 0
M  V30 1720 C 150.231 -3.36891 0.0245977 0
M  V30 1721 O 150.761 -3.90687 -0.934153 0
M  V30 1722 N 148.967 -2.90559 -0.0485243 0
M  V30 1723 H 148.514 -2.46968 0.732419 0
M  V30 1724 H 148.472 -3.00937 -0.910171 0
M  V30 1725 N 152.244 -1.26651 -0.937939 0
M  V30 1726 C 153.474 -1.15006 -1.71631 0
M  V30 1727 C 153.882 0.297026 -1.86854 0
M  V30 1728 O 153.225 1.21493 -1.37786 0
M  V30 1729 C 153.287 -1.74984 -3.14039 0
M  V30 1730 C 152.951 -3.24103 -3.2219 0
M  V30 1731 C 153.948 -4.20877 -3.05219 0
M  V30 1732 C 151.633 -3.64625 -3.45476 0
M  V30 1733 C 153.627 -5.56151 -3.11408 0
M  V30 1734 C 151.314 -5.00032 -3.513 0
M  V30 1735 C 152.312 -5.95604 -3.34282 0
M  V30 1736 O 152 -7.28545 -3.3982 0
M  V30 1737 H 151.732 -0.401183 -0.544085 0
M  V30 1738 H 154.286 -1.67832 -1.18413 0
M  V30 1739 H 152.516 -1.16624 -3.68695 0
M  V30 1740 H 154.205 -1.58199 -3.73802 0
M  V30 1741 H 154.971 -3.90908 -2.87081 0
M  V30 1742 H 150.85 -2.90718 -3.57777 0
M  V30 1743 H 154.394 -6.30727 -2.98043 0
M  V30 1744 H 150.291 -5.29659 -3.68959 0
M  V30 1745 H 151.059 -7.3686 -3.56343 0
M  V30 1746 N 153.722 1.14298 -1.08507 0
M  V30 1747 C 154.947 1.8976 -0.837001 0
M  V30 1748 C 155.372 1.78097 0.605228 0
M  V30 1749 O 154.73 1.12188 1.4242 0
M  V30 1750 C 154.778 3.37685 -1.26495 0
M  V30 1751 O 153.882 4.10281 -0.417514 0
M  V30 1752 H 153.223 0.590365 -0.303917 0
M  V30 1753 H 155.753 1.44672 -1.44676 0
M  V30 1754 H 155.763 3.88501 -1.24625 0
M  V30 1755 H 154.438 3.45492 -2.31534 0
M  V30 1756 H 153.015 3.69536 -0.499722 0
M  V30 1757 N 155.201 0.870884 1.31352 0
M  V30 1758 C 156.449 0.48132 1.96285 0
M  V30 1759 C 156.77 -0.969813 1.69173 0
M  V30 1760 O 156.04 -1.67998 1.00764 0
M  V30 1761 H 154.62 0.175002 0.726212 0
M  V30 1762 H 157.282 1.11087 1.60143 0
M  V30 1763 H 156.378 0.639825 3.05471 0
M  V30 1764 N 156.679 -1.44442 0.630414 0
M  V30 1765 C 157.627 -2.32437 -0.0871428 0
M  V30 1766 C 158.621 -1.47304 -0.836525 0
M  V30 1767 O 159.827 -1.63653 -0.749506 0
M  V30 1768 H 156.202 -0.750533 -0.0469495 0
M  V30 1769 H 158.173 -2.90709 0.673096 0
M  V30 1770 C 156.922 -3.31288 -1.05563 0
M  V30 1771 H 156.245 -3.96805 -0.488426 0
M  V30 1772 H 157.685 -3.9554 -1.52721 0
M  V30 1773 C 156.144 -2.6016 -2.14052 0
M  V30 1774 O 156.674 -2.39997 -3.22124 0
M  V30 1775 N 154.88 -2.19911 -1.89967 0
M  V30 1776 H 154.427 -2.36509 -1.02085 0
M  V30 1777 H 154.385 -1.72646 -2.62756 0
M  V30 1778 N 158.157 -0.370918 -1.53173 0
M  V30 1779 C 159.403 0.217423 -2.01631 0
M  V30 1780 C 159.736 1.47983 -1.25756 0
M  V30 1781 O 159.011 1.91274 -0.352764 0
M  V30 1782 C 159.294 0.503982 -3.56556 0
M  V30 1783 C 159.147 -0.77243 -4.43118 0
M  V30 1784 C 160.466 1.30234 -4.20389 0
M  V30 1785 H 157.585 0.0775486 -0.732909 0
M  V30 1786 H 160.227 -0.496863 -1.83388 0
M  V30 1787 H 158.377 1.11248 -3.72231 0
M  V30 1788 H 160.049 -1.4098 -4.39229 0
M  V30 1789 H 158.292 -1.39167 -4.10871 0
M  V30 1790 H 158.963 -0.526815 -5.4948 0
M  V30 1791 H 161.439 0.787546 -4.08579 0
M  V30 1792 H 160.315 1.47158 -5.28806 0
M  V30 1793 H 160.576 2.31237 -3.76805 0
M  V30 1794 N 159.635 1.57281 -0.100228 0
M  V30 1795 C 160.881 1.94826 0.563101 0
M  V30 1796 C 161.214 0.982475 1.67514 0
M  V30 1797 O 160.489 0.0164069 1.94493 0
M  V30 1798 C 160.772 3.42453 1.11346 0
M  V30 1799 C 160.625 4.498 0.00612081 0
M  V30 1800 C 161.944 3.91506 2.01024 0
M  V30 1801 H 159.063 0.708428 0.203221 0
M  V30 1802 H 161.705 1.8922 -0.171979 0
M  V30 1803 H 159.855 3.47361 1.7399 0
M  V30 1804 H 161.527 4.57 -0.628357 0
M  V30 1805 H 159.77 4.28756 -0.659581 0
M  V30 1806 H 160.441 5.50306 0.432109 0
M  V30 1807 H 162.917 3.88784 1.48278 0
M  V30 1808 H 161.793 4.95358 2.36457 0
M  V30 1809 H 162.054 3.31099 2.92961 0
M  V30 1810 N 161.113 -0.173488 1.56642 0
M  V30 1811 C 162.023 -1.23482 1.99473 0
M  V30 1812 C 163.039 -1.48567 0.905752 0
M  V30 1813 O 164.215 -1.60758 1.21321 0
M  V30 1814 C 161.28 -2.55444 2.34413 0
M  V30 1815 C 160.341 -2.38241 3.57127 0
M  V30 1816 C 159.574 -3.63909 3.90392 0
M  V30 1817 O 159.797 -4.68996 3.24653 0
M  V30 1818 O 158.731 -3.58149 4.83749 0
M  V30 1819 H 162.557 -0.901279 2.90018 0
M  V30 1820 H 160.142 -0.380185 1.44482 0
M  V30 1821 H 162.024 -3.33292 2.57865 0
M  V30 1822 H 160.699 -2.88382 1.4703 0
M  V30 1823 H 159.606 -1.58431 3.38896 0
M  V30 1824 H 160.939 -2.10228 4.45045 0
M  V30 1825 N 162.591 -1.51276 -0.441967 0
M  V30 1826 C 163.868 -1.54252 -1.20273 0
M  V30 1827 C 164.248 -0.30408 -2.08898 0
M  V30 1828 O 163.596 0.711084 -2.17154 0
M  V30 1829 C 163.806 -2.85406 -2.00859 0
M  V30 1830 C 165.154 -3.37181 -2.58059 0
M  V30 1831 O 166.178 -2.86925 -2.11074 0
M  V30 1832 O 165.037 -4.24858 -3.43741 0
M  V30 1833 H 162.131 -0.619969 -0.547328 0
M  V30 1834 H 164.677 -1.63586 -0.451413 0
M  V30 1835 H 163.449 -3.67003 -1.35736 0
M  V30 1836 H 163.072 -2.79213 -2.83065 0
M  V30 1837 N 164.069 0.697108 -1.41344 0
M  V30 1838 C 165.316 1.45714 -1.40619 0
M  V30 1839 C 165.644 1.94494 -0.0147907 0
M  V30 1840 O 164.899 1.69794 0.973066 0
M  V30 1841 C 165.198 2.68553 -2.35826 0
M  V30 1842 C 164.864 2.38438 -3.82698 0
M  V30 1843 C 163.526 2.29936 -4.22709 0
M  V30 1844 C 165.878 2.13567 -4.75435 0
M  V30 1845 C 163.206 1.94656 -5.53467 0
M  V30 1846 C 165.558 1.79797 -6.06511 0
M  V30 1847 C 164.222 1.69789 -6.45545 0
M  V30 1848 H 163.492 0.533206 -0.51456 0
M  V30 1849 H 166.139 0.796901 -1.74131 0
M  V30 1850 H 164.444 3.39503 -1.95563 0
M  V30 1851 H 166.141 3.2669 -2.32539 0
M  V30 1852 H 162.731 2.4595 -3.51008 0
M  V30 1853 H 166.915 2.19082 -4.45328 0
M  V30 1854 H 162.171 1.8546 -5.82593 0
M  V30 1855 H 166.345 1.59572 -6.77872 0
M  V30 1856 H 163.972 1.4222 -7.46778 0
M  V30 1857 N 165.547 1.27147 0.931209 0
M  V30 1858 C 166.495 1.09398 2.05268 0
M  V30 1859 C 167.489 0.0180591 1.6939 0
M  V30 1860 O 168.695 0.17551 1.79142 0
M  V30 1861 H 165.07 0.336986 0.672268 0
M  V30 1862 H 167.041 2.04416 2.17386 0
M  V30 1863 C 165.79 0.75424 3.39421 0
M  V30 1864 H 165.113 1.57404 3.67511 0
M  V30 1865 H 166.553 0.669903 4.18674 0
M  V30 1866 C 165.012 -0.541197 3.32525 0
M  V30 1867 O 165.542 -1.57664 3.69466 0
M  V30 1868 N 163.748 -0.535517 2.85623 0
M  V30 1869 H 163.295 0.307511 2.55758 0
M  V30 1870 H 163.253 -1.40236 2.81392 0
M  V30 1871 N 167.025 -1.13721 1.09112 0
M  V30 1872 C 168.272 -1.84924 0.825192 0
M  V30 1873 C 168.6 -1.83347 -0.649151 0
M  V30 1874 O 167.855 -1.26449 -1.49362 0
M  V30 1875 C 168.154 -3.32861 1.30146 0
M  V30 1876 C 167.82 -3.54621 2.78486 0
M  V30 1877 C 166.482 -3.60268 3.18999 0
M  V30 1878 C 168.834 -3.62855 3.74146 0
M  V30 1879 C 166.162 -3.71679 4.53951 0
M  V30 1880 C 168.514 -3.75793 5.08883 0
M  V30 1881 C 167.178 -3.79692 5.4899 0
M  V30 1882 H 166.448 -0.676684 0.301959 0
M  V30 1883 H 169.095 -1.3428 1.36533 0
M  V30 1884 H 167.4 -3.85835 0.681064 0
M  V30 1885 H 169.097 -3.86395 1.07236 0
M  V30 1886 H 165.687 -3.50879 2.46134 0
M  V30 1887 H 169.871 -3.57775 3.43963 0
M  V30 1888 H 165.127 -3.72963 4.84467 0
M  V30 1889 H 169.301 -3.81107 5.82864 0
M  V30 1890 H 166.928 -3.88287 6.53558 0
M  V30 1891 N 168.503 -0.877838 -1.30888 0
M  V30 1892 C 169.733 -0.506678 -2.00291 0
M  V30 1893 C 170.141 0.907449 -1.66018 0
M  V30 1894 O 169.484 1.60719 -0.88967 0
M  V30 1895 C 169.546 -0.59323 -3.54572 0
M  V30 1896 C 169.21 -1.97038 -4.12341 0
M  V30 1897 C 170.207 -2.93889 -4.28865 0
M  V30 1898 C 167.892 -2.27383 -4.47886 0
M  V30 1899 C 169.886 -4.19224 -4.80136 0
M  V30 1900 C 167.573 -3.52965 -4.98857 0
M  V30 1901 C 168.571 -4.48701 -5.14934 0
M  V30 1902 O 168.259 -5.72056 -5.64808 0
M  V30 1903 H 167.991 -0.1951 -0.647234 0
M  V30 1904 H 170.545 -1.18301 -1.6791 0
M  V30 1905 H 168.775 0.140057 -3.86446 0
M  V30 1906 H 170.464 -0.234372 -4.05223 0
M  V30 1907 H 171.23 -2.71756 -4.01714 0
M  V30 1908 H 167.109 -1.53639 -4.34645 0
M  V30 1909 H 170.653 -4.93956 -4.92599 0
M  V30 1910 H 166.55 -3.74939 -5.25443 0
M  V30 1911 H 167.318 -5.74337 -5.83163 0
M  V30 1912 N 169.982 1.44106 -0.638065 0
M  V30 1913 C 170.915 2.27924 0.112161 0
M  V30 1914 C 171.893 1.38945 0.844574 0
M  V30 1915 O 173.077 1.68386 0.847248 0
M  V30 1916 C 170.204 3.18029 1.16512 0
M  V30 1917 C 169.25 4.23163 0.532458 0
M  V30 1918 S 170.083 5.31131 -0.682666 0
M  V30 1919 C 171.239 6.24805 0.37013 0
M  V30 1920 H 171.472 2.91205 -0.598887 0
M  V30 1921 H 169.005 1.48394 -0.426441 0
M  V30 1922 H 170.963 3.70492 1.76766 0
M  V30 1923 H 169.624 2.53955 1.8484 0
M  V30 1924 H 168.817 4.86252 1.32571 0
M  V30 1925 H 168.419 3.74 0.00437644 0
M  V30 1926 H 170.711 6.66042 1.24071 0
M  V30 1927 H 171.654 7.07741 -0.225349 0
M  V30 1928 H 172.062 5.60154 0.699141 0
M  V30 1929 N 171.46 0.379036 1.52974 0
M  V30 1930 C 172.737 -0.263479 1.93817 0
M  V30 1931 C 173.117 -1.65244 1.31368 0
M  V30 1932 O 172.465 -2.23448 0.477856 0
M  V30 1933 C 172.675 -0.300166 3.47707 0
M  V30 1934 C 174.023 -0.534061 4.21228 0
M  V30 1935 O 175.047 -0.38081 3.54159 0
M  V30 1936 O 173.906 -0.833501 5.40106 0
M  V30 1937 H 171 -0.161149 0.811147 0
M  V30 1938 H 173.546 0.432798 1.64088 0
M  V30 1939 H 172.318 0.673138 3.85467 0
M  V30 1940 H 171.941 -1.04179 3.83709 0
M  V30 1941 N 172.938 -1.57226 0.108567 0
M  V30 1942 C 173.885 -2.14756 -0.845481 0
M  V30 1943 C 174.855 -1.06971 -1.27068 0
M  V30 1944 O 176.04 -1.34827 -1.35005 0
M  V30 1945 C 173.18 -2.74298 -2.09415 0
M  V30 1946 C 172.293 -3.96358 -1.71826 0
M  V30 1947 C 171.428 -4.44021 -2.9158 0
M  V30 1948 C 170.467 -5.58637 -2.50181 0
M  V30 1949 N 169.604 -6.01091 -3.62814 0
M  V30 1950 H 174.444 -2.95961 -0.348035 0
M  V30 1951 H 171.981 -1.46226 -0.160106 0
M  V30 1952 H 173.939 -3.06945 -2.82561 0
M  V30 1953 H 172.569 -1.95801 -2.56636 0
M  V30 1954 H 171.621 -3.69939 -0.885947 0
M  V30 1955 H 172.933 -4.79504 -1.37394 0
M  V30 1956 H 172.087 -4.78522 -3.72963 0
M  V30 1957 H 170.826 -3.59803 -3.29231 0
M  V30 1958 H 169.831 -5.23751 -1.67228 0
M  V30 1959 H 171.056 -6.44613 -2.13659 0
M  V30 1960 H 169.002 -5.19817 -4.00158 0
M  V30 1961 H 168.919 -6.79066 -3.32273 0
M  V30 1962 H 170.187 -6.40227 -4.44668 0
M  V30 1963 N 174.416 0.165178 -1.56732 0
M  V30 1964 C 175.349 1.23336 -1.91998 0
M  V30 1965 C 176.327 1.42476 -0.783531 0
M  V30 1966 O 177.511 1.57384 -1.03743 0
M  V30 1967 C 174.638 2.59533 -2.17625 0
M  V30 1968 C 173.684 2.57093 -3.40302 0
M  V30 1969 S 174.517 2.05571 -4.9447 0
M  V30 1970 C 175.673 3.43532 -5.23198 0
M  V30 1971 H 175.906 0.932387 -2.82301 0
M  V30 1972 H 173.439 0.370013 -1.49901 0
M  V30 1973 H 175.397 3.37918 -2.3307 0
M  V30 1974 H 174.058 2.86827 -1.28019 0
M  V30 1975 H 173.251 3.57308 -3.55453 0
M  V30 1976 H 172.853 1.86806 -3.24005 0
M  V30 1977 H 175.145 4.39559 -5.15552 0
M  V30 1978 H 176.088 3.33251 -6.2478 0
M  V30 1979 H 176.496 3.39828 -4.50752 0
M  V30 1980 N 175.894 1.51508 0.433938 0
M  V30 1981 C 176.842 1.73646 1.54757 0
M  V30 1982 C 177.836 0.602854 1.5831 0
M  V30 1983 O 179.042 0.784318 1.62014 0
M  V30 1984 H 175.417 0.548718 0.51421 0
M  V30 1985 H 177.388 2.66991 1.33261 0
M  V30 1986 C 176.137 1.88172 2.92381 0
M  V30 1987 H 175.46 2.74808 2.90381 0
M  V30 1988 H 176.9 2.07672 3.6966 0
M  V30 1989 C 175.359 0.64239 3.30719 0
M  V30 1990 O 175.889 -0.201362 4.01195 0
M  V30 1991 N 174.095 0.485489 2.86516 0
M  V30 1992 H 173.642 1.17318 2.29334 0
M  V30 1993 H 173.6 -0.342482 3.12529 0
M  V30 1994 N 177.372 -0.689602 1.41712 0
M  V30 1995 C 178.282 -1.83314 1.46401 0
M  V30 1996 C 179.298 -1.7036 0.35405 0
M  V30 1997 O 180.474 -1.92171 0.602692 0
M  V30 1998 C 177.539 -3.19344 1.34982 0
M  V30 1999 C 176.6 -3.44363 2.56344 0
M  V30 2000 C 175.833 -4.73904 2.45461 0
M  V30 2001 O 176.056 -5.508 1.48241 0
M  V30 2002 O 174.99 -4.99839 3.35328 0
M  V30 2003 H 178.816 -1.82314 2.42889 0
M  V30 2004 H 176.401 -0.843438 1.23315 0
M  V30 2005 H 178.283 -4.00547 1.3092 0
M  V30 2006 H 176.958 -3.21014 0.41612 0
M  V30 2007 H 175.865 -2.63067 2.65982 0
M  V30 2008 H 177.198 -3.47512 3.48563 0
M  V30 2009 N 178.85 -1.27639 -0.924453 0
M  V30 2010 C 180.078 -1.16989 -1.70649 0
M  V30 2011 C 180.493 0.272869 -1.86818 0
M  V30 2012 O 179.85 1.18549 -1.38753 0
M  V30 2013 C 179.901 -1.85229 -3.10439 0
M  V30 2014 O 179.622 -3.23868 -2.95028 0
M  V30 2015 C 181.123 -1.80746 -4.04779 0
M  V30 2016 H 178.343 -0.406595 -0.53378 0
M  V30 2017 H 180.887 -1.68569 -1.15778 0
M  V30 2018 H 179.042 -1.37545 -3.6216 0
M  V30 2019 H 179.456 -3.57889 -3.83426 0
M  V30 2020 H 180.93 -2.33101 -5.00368 0
M  V30 2021 H 181.407 -0.777499 -4.32263 0
M  V30 2022 H 182.013 -2.28059 -3.58984 0
M  V30 2023 N 180.328 1.1314 -1.09713 0
M  V30 2024 C 181.605 1.80762 -0.747302 0
M  V30 2025 C 181.985 1.96663 0.767265 0
M  V30 2026 O 181.333 1.53706 1.69076 0
M  V30 2027 C 181.543 3.15606 -1.48975 0
M  V30 2028 C 182.891 3.90914 -1.65746 0
M  V30 2029 O 183.915 3.25239 -1.45251 0
M  V30 2030 O 182.774 5.08718 -1.9967 0
M  V30 2031 H 179.868 0.782103 -0.268782 0
M  V30 2032 H 182.414 1.20041 -1.19951 0
M  V30 2033 H 181.186 2.99278 -2.52088 0
M  V30 2034 H 180.809 3.84029 -1.02991 0
M  V30 2035 N 181.806 0.884767 1.30421 0
M  V30 2036 C 183.083 0.423185 1.90967 0
M  V30 2037 C 183.463 -1.09605 1.80416 0
M  V30 2038 O 182.811 -1.93126 1.22125 0
M  V30 2039 C 183.021 0.921056 3.36627 0
M  V30 2040 C 184.369 0.955903 4.137 0
M  V30 2041 O 185.393 0.867706 3.4547 0
M  V30 2042 O 184.252 1.08614 5.35598 0
M  V30 2043 H 181.346 0.129369 0.816819 0
M  V30 2044 H 183.892 0.973653 1.3899 0
M  V30 2045 H 182.664 1.96489 3.3839 0
M  V30 2046 H 182.287 0.349741 3.96059 0
M  V30 2047 N 183.284 -1.43765 0.645699 0
M  V30 2048 C 184.231 -2.30745 -0.0504648 0
M  V30 2049 C 185.201 -1.4432 -0.822241 0
M  V30 2050 O 186.386 -1.73202 -0.800358 0
M  V30 2051 C 183.526 -3.29802 -1.0161 0
M  V30 2052 C 182.639 -4.31326 -0.241219 0
M  V30 2053 C 181.774 -5.17469 -1.19998 0
M  V30 2054 C 180.813 -6.10691 -0.415094 0
M  V30 2055 N 179.95 -6.89483 -1.32506 0
M  V30 2056 H 184.79 -2.8973 0.697155 0
M  V30 2057 H 182.327 -1.42738 0.355563 0
M  V30 2058 H 184.285 -3.85734 -1.58949 0
M  V30 2059 H 182.915 -2.72483 -1.73069 0
M  V30 2060 H 181.967 -3.77749 0.448334 0
M  V30 2061 H 183.279 -4.9743 0.369437 0
M  V30 2062 H 182.433 -5.7799 -1.84424 0
M  V30 2063 H 181.172 -4.51473 -1.84455 0
M  V30 2064 H 180.177 -5.49265 0.242565 0
M  V30 2065 H 181.402 -6.78727 0.224966 0
M  V30 2066 H 179.348 -6.26142 -1.95657 0
M  V30 2067 H 179.265 -7.52081 -0.768783 0
M  V30 2068 H 180.533 -7.54516 -1.9577 0
M  V30 2069 N 184.763 -0.387143 -1.52771 0
M  V30 2070 C 186.009 0.188506 -2.02525 0
M  V30 2071 C 186.364 1.44649 -1.26864 0
M  V30 2072 O 185.657 1.88189 -0.359945 0
M  V30 2073 C 185.851 0.512209 -3.53711 0
M  V30 2074 C 185.68 -0.712855 -4.44014 0
M  V30 2075 C 184.45 -1.23147 -4.90064 0
M  V30 2076 C 186.648 -1.58453 -4.89282 0
M  V30 2077 N 184.63 -2.41431 -5.64433 0
M  V30 2078 C 186.001 -2.61381 -5.6221 0
M  V30 2079 C 188.056 -1.60488 -4.71326 0
M  V30 2080 C 186.759 -3.66227 -6.19088 0
M  V30 2081 C 188.785 -2.6424 -5.29085 0
M  V30 2082 C 188.147 -3.6589 -6.01917 0
M  V30 2083 H 184.246 0.0311236 -0.78138 0
M  V30 2084 H 186.83 -0.536548 -1.87161 0
M  V30 2085 H 185.001 1.20632 -3.69192 0
M  V30 2086 H 186.733 1.07482 -3.90166 0
M  V30 2087 H 183.488 -0.792795 -4.66917 0
M  V30 2088 H 183.912 -3.01274 -6.0627 0
M  V30 2089 H 188.554 -0.83247 -4.14524 0
M  V30 2090 H 186.272 -4.44337 -6.74974 0
M  V30 2091 H 189.858 -2.66695 -5.17074 0
M  V30 2092 H 188.738 -4.44855 -6.45813 0
M  V30 2093 N 186.241 1.57166 -0.116904 0
M  V30 2094 C 187.49 1.94298 0.541407 0
M  V30 2095 C 187.803 1.00236 1.67964 0
M  V30 2096 O 189.009 1.26826 2.40057 0
M  V30 2097 C 187.465 3.45306 1.01449 0
M  V30 2098 C 187.073 4.47899 -0.0951738 0
M  V30 2099 C 188.817 3.91361 1.6443 0
M  V30 2100 C 186.724 5.90083 0.394491 0
M  V30 2101 H 185.654 0.725308 0.206019 0
M  V30 2102 H 188.305 1.82446 -0.196419 0
M  V30 2103 H 186.687 3.52385 1.80667 0
M  V30 2104 H 187.861 4.52486 -0.871374 0
M  V30 2105 H 186.176 4.11583 -0.631505 0
M  V30 2106 H 188.773 4.95004 2.02176 0
M  V30 2107 H 189.116 3.3122 2.52189 0
M  V30 2108 H 189.649 3.87073 0.917559 0
M  V30 2109 H 186.388 6.53974 -0.447004 0
M  V30 2110 H 185.908 5.88921 1.13722 0
M  V30 2111 H 187.587 6.41307 0.856399 0
M  V30 2112 N 187.719 -0.156864 1.56817 0
M  V30 2113 C 188.968 -0.869504 1.81996 0
M  V30 2114 C 189.281 -1.82777 0.696545 0
M  V30 2115 O 190.487 -2.58384 0.833658 0
M  V30 2116 C 188.943 -1.59679 3.22538 0
M  V30 2117 C 188.551 -0.681431 4.42787 0
M  V30 2118 C 190.295 -2.2968 3.56997 0
M  V30 2119 C 188.202 -1.40978 5.74351 0
M  V30 2120 H 187.132 -0.328438 0.678708 0
M  V30 2121 H 189.783 -0.1223 1.83092 0
M  V30 2122 H 188.165 -2.38927 3.158 0
M  V30 2123 H 189.339 0.0751166 4.60739 0
M  V30 2124 H 187.654 -0.0903431 4.16302 0
M  V30 2125 H 190.251 -2.84794 4.52544 0
M  V30 2126 H 190.594 -3.05707 2.82576 0
M  V30 2127 H 191.127 -1.57361 3.65352 0
M  V30 2128 H 187.866 -0.691561 6.51842 0
M  V30 2129 H 187.386 -2.13929 5.60352 0
M  V30 2130 H 189.065 -1.95337 6.16808 0
M  V30 2131 N 189.197 -1.51736 -0.425897 0
M  V30 2132 C 190.107 -1.76738 -1.54275 0
M  V30 2133 C 191.123 -0.65211 -1.61318 0
M  V30 2134 O 192.299 -0.935654 -1.78346 0
M  V30 2135 C 189.364 -1.89755 -2.90162 0
M  V30 2136 C 188.425 -3.13633 -2.93143 0
M  V30 2137 C 187.658 -3.2602 -4.22548 0
M  V30 2138 O 187.881 -2.44067 -5.15546 0
M  V30 2139 O 186.815 -4.19071 -4.32046 0
M  V30 2140 H 190.641 -2.71502 -1.36089 0
M  V30 2141 H 188.226 -1.36376 -0.610069 0
M  V30 2142 H 190.108 -2.00236 -3.70788 0
M  V30 2143 H 188.783 -0.981785 -3.08452 0
M  V30 2144 H 187.69 -3.08622 -2.11431 0
M  V30 2145 H 189.023 -4.04936 -2.798 0
M  V30 2146 N 190.675 0.682077 -1.42076 0
M  V30 2147 C 191.622 1.79578 -1.44984 0
M  V30 2148 C 192.592 1.6332 -0.302614 0
M  V30 2149 O 193.777 1.83978 -0.505633 0
M  V30 2150 C 190.917 3.1756 -1.35091 0
M  V30 2151 C 190.03 3.45156 -2.59791 0
M  V30 2152 C 189.165 4.72826 -2.42093 0
M  V30 2153 C 188.204 4.93433 -3.62202 0
M  V30 2154 N 187.341 6.12338 -3.43491 0
M  V30 2155 H 192.181 1.76427 -2.40161 0
M  V30 2156 H 189.718 0.861376 -1.19242 0
M  V30 2157 H 191.676 3.97287 -1.27354 0
M  V30 2158 H 190.306 3.19854 -0.435133 0
M  V30 2159 H 189.358 2.59736 -2.77923 0
M  V30 2160 H 190.67 3.5628 -3.49094 0
M  V30 2161 H 189.824 5.60631 -2.319 0
M  V30 2162 H 188.563 4.63973 -1.50268 0
M  V30 2163 H 187.568 4.04073 -3.72834 0
M  V30 2164 H 188.793 5.04136 -4.54998 0
M  V30 2165 H 186.739 6.04672 -2.54377 0
M  V30 2166 H 186.656 6.2429 -4.26377 0
M  V30 2167 H 187.924 7.02841 -3.37097 0
M  V30 2168 N 192.153 1.28127 0.917671 0
M  V30 2169 C 193.1 1.11717 2.0196 0
M  V30 2170 C 194.07 0.0153929 1.66093 0
M  V30 2171 O 195.255 0.179596 1.89953 0
M  V30 2172 C 192.395 0.780927 3.36148 0
M  V30 2173 C 191.508 1.96135 3.84909 0
M  V30 2174 C 190.643 1.56609 5.0759 0
M  V30 2175 C 189.682 2.71339 5.48673 0
M  V30 2176 N 188.819 2.32332 6.62545 0
M  V30 2177 H 193.659 2.06003 2.15329 0
M  V30 2178 H 191.196 1.02535 1.05475 0
M  V30 2179 H 193.154 0.56675 4.13333 0
M  V30 2180 H 191.784 -0.124998 3.22558 0
M  V30 2181 H 190.836 2.28777 3.03916 0
M  V30 2182 H 192.148 2.82165 4.1132 0
M  V30 2183 H 191.302 1.31374 5.92305 0
M  V30 2184 H 190.041 0.677014 4.82978 0
M  V30 2185 H 189.046 2.97276 4.62501 0
M  V30 2186 H 190.271 3.60882 5.75274 0
M  V30 2187 H 188.217 1.45889 6.39572 0
M  V30 2188 H 188.134 3.11899 6.88662 0
M  V30 2189 H 189.402 2.10371 7.50576 0
M  V30 2190 N 193.631 -1.12557 1.10312 0
M  V30 2191 C 194.579 -2.20325 0.745629 0
M  V30 2192 C 195.573 -1.67429 -0.25763 0
M  V30 2193 O 196.779 -1.79612 -0.118132 0
M  V30 2194 H 193.154 -0.718118 0.223182 0
M  V30 2195 H 195.125 -2.47733 1.66346 0
M  V30 2196 C 193.874 -3.47168 0.192262 0
M  V30 2197 H 193.197 -3.88215 0.955475 0
M  V30 2198 H 194.637 -4.23995 -0.0198274 0
M  V30 2199 C 193.096 -3.19298 -1.07472 0
M  V30 2200 O 193.626 -3.3891 -2.15645 0
M  V30 2201 N 191.832 -2.73113 -0.992847 0
M  V30 2202 H 191.379 -2.57354 -0.112474 0
M  V30 2203 H 191.337 -2.54842 -1.84127 0
M  V30 2204 N 195.109 -0.891671 -1.2995 0
M  V30 2205 C 196.358 -0.509521 -1.95158 0
M  V30 2206 C 196.671 0.947388 -1.71125 0
M  V30 2207 O 197.877 1.43669 -2.30372 0
M  V30 2208 C 196.333 -0.860315 -3.49466 0
M  V30 2209 C 195.941 -2.33545 -3.8231 0
M  V30 2210 C 197.685 -0.547687 -4.20952 0
M  V30 2211 C 195.592 -2.62752 -5.29826 0
M  V30 2212 H 194.522 -0.18682 -0.730489 0
M  V30 2213 H 197.173 -1.08756 -1.47798 0
M  V30 2214 H 195.555 -0.211285 -3.95436 0
M  V30 2215 H 196.729 -3.02936 -3.47227 0
M  V30 2216 H 195.044 -2.61629 -3.23944 0
M  V30 2217 H 197.641 -0.742854 -5.29515 0
M  V30 2218 H 197.984 0.51332 -4.13123 0
M  V30 2219 H 198.517 -1.1542 -3.80688 0
M  V30 2220 H 195.256 -3.6762 -5.42712 0
M  V30 2221 H 194.776 -1.97977 -5.66185 0
M  V30 2222 H 196.455 -2.48601 -5.97333 0
M  V30 2223 N 196.587 1.43421 -0.653314 0
M  V30 2224 C 197.534 2.30768 0.0382271 0
M  V30 2225 C 198.504 1.44755 0.814576 0
M  V30 2226 O 199.689 1.73624 0.791162 0
M  V30 2227 C 196.829 3.30336 0.998599 0
M  V30 2228 C 195.942 4.31448 0.218342 0
M  V30 2229 C 195.077 5.18098 1.17252 0
M  V30 2230 C 194.116 6.10902 0.382702 0
M  V30 2231 N 193.253 6.90176 1.28848 0
M  V30 2232 H 198.093 2.89357 -0.712511 0
M  V30 2233 H 195.63 1.42548 -0.363128 0
M  V30 2234 H 197.588 3.86572 1.56901 0
M  V30 2235 H 196.218 2.73397 1.71621 0
M  V30 2236 H 195.27 3.77506 -0.46836 0
M  V30 2237 H 196.582 4.97227 -0.395812 0
M  V30 2238 H 195.736 5.7896 1.81356 0
M  V30 2239 H 194.475 4.52444 1.82058 0
M  V30 2240 H 193.48 5.49128 -0.27169 0
M  V30 2241 H 194.705 6.78598 -0.260957 0
M  V30 2242 H 192.651 6.27171 1.92334 0
M  V30 2243 H 192.568 7.52478 0.728887 0
M  V30 2244 H 193.836 7.55543 1.91766 0
M  V30 2245 N 198.065 0.39524 1.52563 0
M  V30 2246 C 199.013 -0.451859 2.28169 0
M  V30 2247 C 200.007 -1.05792 1.32304 0
M  V30 2248 O 201.213 -0.997718 1.49818 0
M  V30 2249 H 197.588 -0.164481 0.733792 0
M  V30 2250 H 199.559 0.207199 2.9768 0
M  V30 2251 C 198.308 -1.56385 3.10546 0
M  V30 2252 H 197.631 -1.10682 3.84174 0
M  V30 2253 H 199.071 -2.13067 3.66577 0
M  V30 2254 C 197.53 -2.52328 2.23231 0
M  V30 2255 O 198.06 -3.5588 1.86312 0
M  V30 2256 N 196.266 -2.22209 1.87274 0
M  V30 2257 H 195.813 -1.38033 2.17496 0
M  V30 2258 H 195.771 -2.86652 1.29143 0
M  V30 2259 N 199.544 -1.57102 0.125237 0
M  V30 2260 C 200.821 -1.86953 -0.575142 0
M  V30 2261 C 201.201 -1.02749 -1.84407 0
M  V30 2262 O 200.549 -0.108144 -2.28244 0
M  V30 2263 C 200.759 -3.38198 -0.861583 0
M  V30 2264 C 202.107 -4.06937 -1.21192 0
M  V30 2265 O 203.131 -3.43252 -0.951645 0
M  V30 2266 O 201.99 -5.19364 -1.70068 0
M  V30 2267 H 199.084 -0.774147 -0.290906 0
M  V30 2268 H 201.63 -1.68942 0.160211 0
M  V30 2269 H 200.402 -3.91282 0.0373647 0
M  V30 2270 H 200.025 -3.61661 -1.65188 0
M  V30 2271 N 201.022 0.148545 -1.56898 0
M  V30 2272 C 202.271 0.85984 -1.82454 0
M  V30 2273 C 202.584 1.82406 -0.706229 0
M  V30 2274 O 203.79 2.57938 -0.847349 0
M  V30 2275 C 202.246 1.57967 -3.2338 0
M  V30 2276 C 201.854 0.65794 -4.43142 0
M  V30 2277 C 203.598 2.27784 -3.58211 0
M  V30 2278 C 201.505 1.3793 -5.75091 0
M  V30 2279 H 200.435 0.324834 -0.68044 0
M  V30 2280 H 203.086 0.112588 -1.83154 0
M  V30 2281 H 201.468 2.37249 -3.17063 0
M  V30 2282 H 202.642 -0.0995497 -4.60692 0
M  V30 2283 H 200.957 0.0682643 -4.16344 0
M  V30 2284 H 203.554 2.8239 -4.54048 0
M  V30 2285 H 203.897 3.04204 -2.84193 0
M  V30 2286 H 204.43 1.55421 -3.66182 0
M  V30 2287 H 201.169 0.656982 -6.52199 0
M  V30 2288 H 200.689 2.10954 -5.61479 0
M  V30 2289 H 202.368 1.92063 -6.17835 0
M  V30 2290 N 202.5 1.5196 0.417844 0
M  V30 2291 C 203.74 1.67262 1.17486 0
M  V30 2292 C 204.104 0.38983 1.88001 0
M  V30 2293 O 205.305 0.418845 2.65517 0
M  V30 2294 C 203.576 2.85526 2.14965 0
M  V30 2295 S 205.135 3.21263 2.98891 0
M  V30 2296 H 201.953 0.589077 0.398132 0
M  V30 2297 H 204.555 1.89927 0.463452 0
M  V30 2298 H 203.259 3.77145 1.61833 0
M  V30 2299 H 202.79 2.65107 2.90657 0
M  V30 2300 H 204.805 2.69208 4.16823 0
M  V30 2301 N 203.978 -0.674533 1.42435 0
M  V30 2302 C 205.227 -1.43034 1.42212 0
M  V30 2303 C 205.54 -1.95555 0.0420788 0
M  V30 2304 O 206.746 -2.71374 -0.0827558 0
M  V30 2305 C 205.202 -2.58748 2.50155 0
M  V30 2306 C 204.81 -2.12925 3.94166 0
M  V30 2307 C 206.554 -3.36257 2.59098 0
M  V30 2308 C 204.461 -3.25723 4.93618 0
M  V30 2309 H 203.391 -0.537345 0.528939 0
M  V30 2310 H 206.042 -0.73024 1.68344 0
M  V30 2311 H 204.424 -3.31128 2.17188 0
M  V30 2312 H 205.598 -1.47697 4.36488 0
M  V30 2313 H 203.913 -1.48354 3.89076 0
M  V30 2314 H 206.51 -4.20264 3.30578 0
M  V30 2315 H 206.853 -3.82866 1.63461 0
M  V30 2316 H 207.386 -2.70947 2.9126 0
M  V30 2317 H 204.125 -2.84105 5.90732 0
M  V30 2318 H 203.645 -3.89732 4.55926 0
M  V30 2319 H 205.324 -3.91186 5.15347 0
M  V30 2320 N 205.456 -1.28612 -0.910864 0
M  V30 2321 C 206.403 -1.12786 -2.01365 0
M  V30 2322 C 207.373 -0.024201 -1.66082 0
M  V30 2323 O 208.558 -0.189667 -1.89855 0
M  V30 2324 C 205.698 -0.798743 -3.35729 0
M  V30 2325 C 204.811 -1.98173 -3.83864 0
M  V30 2326 C 203.946 -1.59298 -5.06752 0
M  V30 2327 C 202.985 -2.74245 -5.47226 0
M  V30 2328 N 202.122 -2.35842 -6.61304 0
M  V30 2329 H 206.962 -2.07142 -2.14234 0
M  V30 2330 H 204.499 -1.03093 -1.0493 0
M  V30 2331 H 206.457 -0.588662 -4.13026 0
M  V30 2332 H 205.087 0.10789 -3.2262 0
M  V30 2333 H 204.139 -2.30386 -3.02699 0
M  V30 2334 H 205.451 -2.84343 -4.09818 0
M  V30 2335 H 204.605 -1.34513 -5.916 0
M  V30 2336 H 203.344 -0.702618 -4.82612 0
M  V30 2337 H 202.349 -2.99725 -4.60918 0
M  V30 2338 H 203.574 -3.63928 -5.73353 0
M  V30 2339 H 201.52 -1.49279 -6.38789 0
M  V30 2340 H 201.437 -3.15546 -6.86998 0
M  V30 2341 H 202.705 -2.14348 -7.4945 0
M  V30 2342 N 206.934 1.1197 -1.10907 0
M  V30 2343 C 207.882 2.19927 -0.757303 0
M  V30 2344 C 208.876 1.67564 0.248747 0
M  V30 2345 O 210.082 1.79672 0.108605 0
M  V30 2346 H 206.457 0.716925 -0.226987 0
M  V30 2347 H 208.428 2.46847 -1.67658 0
M  V30 2348 C 207.177 3.47061 -0.210671 0
M  V30 2349 H 206.5 3.87703 -0.976049 0
M  V30 2350 H 207.94 4.24 -0.0026584 0
M  V30 2351 C 206.399 3.19864 1.05777 0
M  V30 2352 O 206.929 3.40049 2.13845 0
M  V30 2353 N 205.135 2.73636 0.978349 0
M  V30 2354 H 204.682 2.5741 0.0988246 0
M  V30 2355 H 204.64 2.55815 1.82773 0
M  V30 2356 N 208.412 0.89855 1.29475 0
M  V30 2357 C 209.689 0.443416 1.90508 0
M  V30 2358 C 210.069 -1.07685 1.81569 0
M  V30 2359 O 209.417 -1.9182 1.24166 0
M  V30 2360 C 209.627 0.956708 3.35631 0
M  V30 2361 C 210.975 0.999728 4.12663 0
M  V30 2362 O 211.999 0.904299 3.4453 0
M  V30 2363 O 210.858 1.14289 5.34416 0
M  V30 2364 H 207.952 0.138025 0.815401 0
M  V30 2365 H 210.498 0.98834 1.37949 0
M  V30 2366 H 209.27 2.00067 3.36287 0
M  V30 2367 H 208.893 0.391728 3.95666 0
M  V30 2368 N 209.89 -1.43072 0.660911 0
M  V30 2369 C 211.301 -1.84932 0.256348 0
M  V30 2370 C 211.652 -1.55325 -1.19868 0
M  V30 2371 O 210.777 -1.00607 -1.91591 0
M  V30 2372 C 211.372 -3.35684 0.458475 0
M  V30 2373 C 209.931 -3.76245 0.108161 0
M  V30 2374 C 209.078 -2.66749 0.757641 0
M  V30 2375 H 212.029 -1.33116 0.864051 0
M  V30 2376 H 212.05 -3.79365 -0.293683 0
M  V30 2377 H 211.562 -3.572 1.51755 0
M  V30 2378 H 209.663 -3.60338 -0.948014 0
M  V30 2379 H 209.776 -4.76058 0.538992 0
M  V30 2380 H 208.14 -2.53989 0.190185 0
M  V30 2381 H 208.923 -2.91092 1.81989 0
M  V30 2382 N 211.368 -0.403325 -1.52352 0
M  V30 2383 C 212.598 0.17376 -2.05868 0
M  V30 2384 C 213.006 1.39898 -1.27378 0
M  V30 2385 O 212.349 1.80939 -0.31729 0
M  V30 2386 C 212.411 0.594756 -3.54546 0
M  V30 2387 C 212.075 -0.518926 -4.54044 0
M  V30 2388 C 213.072 -1.3807 -5.01231 0
M  V30 2389 C 210.757 -0.689961 -4.97539 0
M  V30 2390 C 212.751 -2.39852 -5.90551 0
M  V30 2391 C 210.438 -1.71109 -5.86656 0
M  V30 2392 C 211.436 -2.56378 -6.33056 0
M  V30 2393 O 211.124 -3.56743 -7.20409 0
M  V30 2394 H 210.856 0.0264951 -0.675481 0
M  V30 2395 H 213.41 -0.571179 -1.97299 0
M  V30 2396 H 211.64 1.39189 -3.60782 0
M  V30 2397 H 213.329 1.0991 -3.90736 0
M  V30 2398 H 214.095 -1.25994 -4.68349 0
M  V30 2399 H 209.974 -0.035939 -4.60986 0
M  V30 2400 H 213.518 -3.06441 -6.26689 0
M  V30 2401 H 209.415 -1.83218 -6.18952 0
M  V30 2402 H 210.183 -3.52918 -7.38506 0
M  V30 2403 N 212.846 1.57033 -0.133567 0
M  V30 2404 C 213.794 2.17348 0.828412 0
M  V30 2405 C 214.788 1.12671 1.26498 0
M  V30 2406 O 215.994 1.30947 1.23502 0
M  V30 2407 H 212.369 0.695775 0.285309 0
M  V30 2408 H 214.34 2.96935 0.295372 0
M  V30 2409 C 213.089 2.79893 2.06289 0
M  V30 2410 H 212.412 3.60147 1.73592 0
M  V30 2411 H 213.852 3.25615 2.71572 0
M  V30 2412 C 212.311 1.77713 2.86216 0
M  V30 2413 O 212.841 1.23937 3.82103 0
M  V30 2414 N 211.047 1.47321 2.50489 0
M  V30 2415 H 210.594 1.91243 1.7258 0
M  V30 2416 H 210.552 0.79199 3.04261 0
M  V30 2417 N 214.325 -0.140222 1.56975 0
M  V30 2418 C 215.272 -1.17292 1.98774 0
M  V30 2419 C 216.242 -1.4232 0.856408 0
M  V30 2420 O 217.427 -1.54541 1.119 0
M  V30 2421 C 214.567 -2.49973 2.37923 0
M  V30 2422 C 213.68 -2.32062 3.64378 0
M  V30 2423 C 212.815 -3.57825 3.926 0
M  V30 2424 C 211.854 -3.3498 5.12303 0
M  V30 2425 N 210.991 -4.52891 5.36502 0
M  V30 2426 H 215.831 -0.809472 2.86795 0
M  V30 2427 H 213.368 -0.388237 1.41884 0
M  V30 2428 H 215.326 -3.27346 2.58652 0
M  V30 2429 H 213.956 -2.84252 1.52972 0
M  V30 2430 H 213.008 -1.45711 3.51387 0
M  V30 2431 H 214.32 -2.11145 4.51906 0
M  V30 2432 H 213.474 -4.43624 4.13863 0
M  V30 2433 H 212.213 -3.81753 3.03506 0
M  V30 2434 H 211.218 -2.4757 4.90906 0
M  V30 2435 H 212.443 -3.12444 6.02956 0
M  V30 2436 H 210.389 -4.76979 4.50363 0
M  V30 2437 H 210.306 -4.35001 6.18312 0
M  V30 2438 H 211.574 -5.39884 5.62268 0
M  V30 2439 N 215.803 -1.52179 -0.40978 0
M  V30 2440 C 216.733 -1.78435 -1.5061 0
M  V30 2441 C 217.714 -0.635295 -1.57791 0
M  V30 2442 O 218.899 -0.880823 -1.73076 0
M  V30 2443 C 216.029 -1.93444 -2.88439 0
M  V30 2444 C 214.983 -3.09038 -2.96108 0
M  V30 2445 C 214.309 -3.09268 -4.36185 0
M  V30 2446 C 215.609 -4.48508 -2.67652 0
M  V30 2447 H 217.303 -2.70237 -1.28889 0
M  V30 2448 H 214.849 -1.30036 -0.618605 0
M  V30 2449 H 216.802 -2.10394 -3.65119 0
M  V30 2450 H 215.526 -0.983129 -3.11452 0
M  V30 2451 H 214.185 -2.91837 -2.21872 0
M  V30 2452 H 213.833 -2.11861 -4.56206 0
M  V30 2453 H 213.533 -3.86907 -4.42241 0
M  V30 2454 H 215.057 -3.28348 -5.14801 0
M  V30 2455 H 216.471 -4.65918 -3.34056 0
M  V30 2456 H 214.868 -5.28059 -2.85085 0
M  V30 2457 H 215.938 -4.56649 -1.63095 0
M  V30 2458 N 217.281 0.66697 -1.42791 0
M  V30 2459 C 218.53 1.42278 -1.42968 0
M  V30 2460 C 218.843 1.9553 -0.0524489 0
M  V30 2461 O 220.049 2.71414 0.068363 0
M  V30 2462 C 218.505 2.57418 -2.51524 0
M  V30 2463 C 218.113 2.10832 -3.9529 0
M  V30 2464 C 219.857 3.34878 -2.60877 0
M  V30 2465 C 217.764 3.23101 -4.95338 0
M  V30 2466 H 216.694 0.534533 -0.531781 0
M  V30 2467 H 219.345 0.721302 -1.68729 0
M  V30 2468 H 217.727 3.29971 -2.18941 0
M  V30 2469 H 218.901 1.4538 -4.37266 0
M  V30 2470 H 217.216 1.46289 -3.89857 0
M  V30 2471 H 219.813 4.18505 -3.32802 0
M  V30 2472 H 220.156 3.81993 -1.6549 0
M  V30 2473 H 220.689 2.69398 -2.92693 0
M  V30 2474 H 217.428 2.80969 -5.9223 0
M  V30 2475 H 216.948 3.87309 -4.57987 0
M  V30 2476 H 218.627 3.88447 -5.17415 0
M  V30 2477 N 218.759 1.29093 0.90403 0
M  V30 2478 C 220.006 1.16813 1.65411 0
M  V30 2479 C 220.334 -0.28128 1.92455 0
M  V30 2480 O 219.589 -1.22006 1.53013 0
M  V30 2481 C 219.888 1.92224 3.01305 0
M  V30 2482 C 219.554 3.41968 2.93885 0
M  V30 2483 C 218.216 3.82807 2.91569 0
M  V30 2484 C 220.568 4.37409 2.83413 0
M  V30 2485 C 217.896 5.1741 2.76594 0
M  V30 2486 C 220.248 5.72097 2.69977 0
M  V30 2487 C 218.912 6.12199 2.66024 0
M  V30 2488 H 218.182 0.42745 0.605283 0
M  V30 2489 H 220.829 1.59981 1.05254 0
M  V30 2490 H 219.134 1.41635 3.65304 0
M  V30 2491 H 220.831 1.80131 3.58265 0
M  V30 2492 H 217.421 3.09504 2.96488 0
M  V30 2493 H 221.605 4.06813 2.84283 0
M  V30 2494 H 216.861 5.47596 2.71935 0
M  V30 2495 H 221.035 6.45704 2.60844 0
M  V30 2496 H 218.662 7.16448 2.54178 0
M  V30 2497 N 220.237 -1.11381 1.11499 0
M  V30 2498 C 221.485 -1.8277 0.862524 0
M  V30 2499 C 221.806 -1.85097 -0.613534 0
M  V30 2500 O 221.076 -1.32198 -1.4457 0
M  V30 2501 H 219.656 -0.676823 0.316101 0
M  V30 2502 H 222.318 -1.34816 1.4075 0
M  V30 2503 H 221.414 -2.86614 1.23527 0
M  V30 2504 N 221.715 -0.905404 -1.28997 0
M  V30 2505 C 222.992 -0.453513 -1.9027 0
M  V30 2506 C 223.372 1.06721 -1.82137 0
M  V30 2507 O 222.72 1.91159 -1.25182 0
M  V30 2508 C 222.93 -0.974494 -3.35119 0
M  V30 2509 C 224.278 -1.0216 -4.12127 0
M  V30 2510 O 225.302 -0.922557 -3.44046 0
M  V30 2511 O 224.161 -1.17121 -5.33802 0
M  V30 2512 H 221.255 -0.142347 -0.814657 0
M  V30 2513 H 223.801 -0.995642 -1.37423 0
M  V30 2514 H 222.573 -2.01848 -3.35221 0
M  V30 2515 H 222.196 -0.412706 -3.95452 0
M  V30 2516 N 223.193 1.4272 -0.668489 0
M  V30 2517 C 224.421 2.05966 -0.196348 0
M  V30 2518 C 224.836 1.50191 1.14403 0
M  V30 2519 O 224.193 0.639208 1.7094 0
M  V30 2520 C 224.244 3.61314 -0.115815 0
M  V30 2521 O 223.965 4.1502 -1.40322 0
M  V30 2522 C 225.466 4.41663 0.380579 0
M  V30 2523 H 222.686 0.663954 -0.0969829 0
M  V30 2524 H 225.23 1.82966 -0.913446 0
M  V30 2525 H 223.385 3.83448 0.551931 0
M  V30 2526 H 223.799 5.08832 -1.27243 0
M  V30 2527 H 225.273 5.5065 0.385848 0
M  V30 2528 H 225.75 4.15792 1.41471 0
M  V30 2529 H 226.356 4.24534 -0.255209 0
M  V30 2530 N 224.671 0.411399 1.52136 0
M  V30 2531 C 225.896 -0.165538 2.06738 0
M  V30 2532 C 226.321 -1.379 1.27926 0
M  V30 2533 O 225.679 -1.78628 0.310114 0
M  V30 2534 C 225.727 -0.492124 3.57226 0
M  V30 2535 O 224.831 -1.58276 3.80818 0
M  V30 2536 H 224.172 -0.0132132 0.663869 0
M  V30 2537 H 226.702 0.585253 1.96051 0
M  V30 2538 H 226.712 -0.750104 4.01045 0
M  V30 2539 H 225.387 0.394922 4.14021 0
M  V30 2540 H 223.964 -1.31677 3.48877 0
M  V30 2541 N 226.149 -1.5696 0.141893 0
M  V30 2542 C 227.56 -1.82797 -0.379776 0
M  V30 2543 C 227.911 -1.06033 -1.6508 0
M  V30 2544 O 227.036 -0.304011 -2.14254 0
M  V30 2545 C 227.631 -3.31578 -0.695802 0
M  V30 2546 C 226.19 -3.58014 -1.16201 0
M  V30 2547 C 225.337 -2.76699 -0.182455 0
M  V30 2548 H 228.288 -1.54406 0.366675 0
M  V30 2549 H 228.309 -3.47454 -1.55099 0
M  V30 2550 H 227.821 -3.87421 0.229449 0
M  V30 2551 H 225.922 -3.07553 -2.10338 0
M  V30 2552 H 226.035 -4.66501 -1.09151 0
M  V30 2553 H 224.399 -2.45618 -0.674072 0
M  V30 2554 H 225.182 -3.35311 0.736297 0
M  V30 2555 N 227.627 0.131896 -1.57047 0
M  V30 2556 C 228.904 0.871495 -1.75112 0
M  V30 2557 C 229.284 1.9866 -0.713949 0
M  V30 2558 O 228.632 2.26965 0.264447 0
M  V30 2559 C 228.842 1.40007 -3.19686 0
M  V30 2560 C 230.19 1.85752 -3.81813 0
M  V30 2561 O 231.214 1.49715 -3.23209 0
M  V30 2562 O 230.073 2.5226 -4.84796 0
M  V30 2563 H 227.167 0.412919 -0.716538 0
M  V30 2564 H 229.713 0.116641 -1.69299 0
M  V30 2565 H 228.485 0.599404 -3.86682 0
M  V30 2566 H 228.108 2.218 -3.29986 0
M  V30 2567 N 229.106 1.52395 0.401703 0
M  V30 2568 C 230.036 1.79231 1.49661 0
M  V30 2569 C 231.017 0.643654 1.57452 0
M  V30 2570 O 232.202 0.889989 1.72606 0
M  V30 2571 C 229.332 1.94971 2.87409 0
M  V30 2572 C 228.286 3.10604 2.94465 0
M  V30 2573 C 227.612 3.11577 4.34538 0
M  V30 2574 C 228.912 4.49921 2.6527 0
M  V30 2575 H 230.606 2.70917 1.27454 0
M  V30 2576 H 228.152 1.30362 0.6117 0
M  V30 2577 H 230.105 2.12328 3.63999 0
M  V30 2578 H 228.829 0.999632 3.10926 0
M  V30 2579 H 227.488 2.93009 2.20321 0
M  V30 2580 H 227.136 2.14277 4.55076 0
M  V30 2581 H 226.836 3.89247 4.40183 0
M  V30 2582 H 228.36 3.31073 5.13053 0
M  V30 2583 H 229.774 4.67683 3.31581 0
M  V30 2584 H 228.171 5.29564 2.82281 0
M  V30 2585 H 229.241 4.57507 1.60671 0
M  V30 2586 N 230.584 -0.659388 1.43143 0
M  V30 2587 C 231.809 -1.45221 1.48073 0
M  V30 2588 C 232.234 -1.87845 0.097995 0
M  V30 2589 O 231.592 -1.56985 -0.90694 0
M  V30 2590 C 231.64 -2.66748 2.42647 0
M  V30 2591 O 230.744 -3.65583 1.90848 0
M  V30 2592 H 230.085 -0.435669 0.501088 0
M  V30 2593 H 232.615 -0.807432 1.87994 0
M  V30 2594 H 232.625 -3.14637 2.59745 0
M  V30 2595 H 231.3 -2.35067 3.43098 0
M  V30 2596 H 229.877 -3.24693 1.83381 0
M  V30 2597 N 232.062 -1.29571 -0.897171 0
M  V30 2598 C 232.972 -1.16808 -2.03453 0
M  V30 2599 C 233.988 -0.0907471 -1.73763 0
M  V30 2600 O 235.164 -0.303312 -1.99103 0
M  V30 2601 C 232.229 -0.848264 -3.36163 0
M  V30 2602 C 231.29 -2.0097 -3.79354 0
M  V30 2603 C 230.523 -1.70505 -5.05731 0
M  V30 2604 O 230.746 -0.62718 -5.66941 0
M  V30 2605 O 229.68 -2.5538 -5.45036 0
M  V30 2606 H 233.506 -2.12325 -2.17144 0
M  V30 2607 H 231.091 -1.09047 -1.02123 0
M  V30 2608 H 232.973 -0.684581 -4.15802 0
M  V30 2609 H 231.648 0.0771071 -3.23608 0
M  V30 2610 H 230.555 -2.22863 -3.00471 0
M  V30 2611 H 231.888 -2.91636 -3.96496 0
M  V30 2612 N 233.54 1.10788 -1.12088 0
M  V30 2613 C 234.765 1.87002 -0.896949 0
M  V30 2614 C 235.19 1.79933 0.548261 0
M  V30 2615 O 234.548 1.16662 1.38779 0
M  V30 2616 C 234.596 3.3349 -1.37174 0
M  V30 2617 O 233.7 4.08745 -0.547831 0
M  V30 2618 H 233.041 0.580397 -0.322545 0
M  V30 2619 H 235.571 1.39996 -1.49206 0
M  V30 2620 H 235.581 3.84339 -1.36922 0
M  V30 2621 H 234.256 3.37951 -2.42408 0
M  V30 2622 H 232.833 3.6776 -0.617034 0
M  V30 2623 N 235.018 0.912232 1.28515 0
M  V30 2624 C 235.928 0.404506 2.31086 0
M  V30 2625 C 236.944 -0.50707 1.66448 0
M  V30 2626 O 238.12 -0.393624 1.97516 0
M  V30 2627 C 235.185 -0.348572 3.44943 0
M  V30 2628 C 234.246 0.59604 4.25142 0
M  V30 2629 C 233.479 -0.121194 5.33562 0
M  V30 2630 O 233.702 -1.34317 5.5436 0
M  V30 2631 O 232.636 0.542716 5.99448 0
M  V30 2632 H 236.462 1.25579 2.76521 0
M  V30 2633 H 234.047 0.676998 1.33181 0
M  V30 2634 H 235.929 -0.77395 4.14232 0
M  V30 2635 H 234.604 -1.17571 3.01594 0
M  V30 2636 H 233.511 1.07079 3.58448 0
M  V30 2637 H 234.844 1.38995 4.72167 0
M  V30 2638 N 236.496 -1.42363 0.676048 0
M  V30 2639 C 237.743 -2.01522 0.19883 0
M  V30 2640 C 238.071 -1.53456 -1.19505 0
M  V30 2641 O 237.326 -0.727967 -1.81657 0
M  V30 2642 C 237.625 -3.56929 0.183431 0
M  V30 2643 C 237.291 -4.24431 1.52215 0
M  V30 2644 C 235.953 -4.42585 1.8887 0
M  V30 2645 C 238.305 -4.62459 2.40377 0
M  V30 2646 C 235.633 -4.96039 3.13309 0
M  V30 2647 C 237.985 -5.17294 3.64129 0
M  V30 2648 C 236.649 -5.33661 4.00951 0
M  V30 2649 H 235.919 -0.737419 0.0727571 0
M  V30 2650 H 238.566 -1.70531 0.871281 0
M  V30 2651 H 236.871 -3.87594 -0.572532 0
M  V30 2652 H 238.568 -4.00486 -0.203035 0
M  V30 2653 H 235.158 -4.10661 1.22701 0
M  V30 2654 H 239.342 -4.48105 2.13343 0
M  V30 2655 H 234.598 -5.06896 3.41857 0
M  V30 2656 H 238.772 -5.45704 4.32644 0
M  V30 2657 H 236.399 -5.74845 4.9745 0
M  V30 2658 N 237.974 -0.419461 -1.51915 0
M  V30 2659 C 238.922 0.415502 -2.28859 0
M  V30 2660 C 239.916 1.03674 -1.3397 0
M  V30 2661 O 241.122 0.973757 -1.51387 0
M  V30 2662 H 237.497 0.152786 -0.736315 0
M  V30 2663 H 239.468 -0.254531 -2.97312 0
M  V30 2664 C 238.217 1.51425 -3.12995 0
M  V30 2665 H 237.54 1.04556 -3.85886 0
M  V30 2666 H 238.98 2.07208 -3.6992 0
M  V30 2667 C 237.439 2.48745 -2.27217 0
M  V30 2668 O 237.969 3.52871 -1.9195 0
M  V30 2669 N 236.175 2.19202 -1.90785 0
M  V30 2670 H 235.722 1.34556 -2.19664 0
M  V30 2671 H 235.68 2.84561 -1.33687 0
M  V30 2672 N 239.452 1.56882 -0.150215 0
M  V30 2673 C 240.362 2.20494 0.801222 0
M  V30 2674 C 241.378 1.19019 1.26927 0
M  V30 2675 O 242.554 1.51607 1.32579 0
M  V30 2676 C 239.619 2.81659 2.02161 0
M  V30 2677 C 238.68 3.9827 1.60249 0
M  V30 2678 C 237.913 4.56508 2.7647 0
M  V30 2679 O 238.136 4.13627 3.92771 0
M  V30 2680 O 237.07 5.46719 2.51757 0
M  V30 2681 H 240.896 3.02315 0.289717 0
M  V30 2682 H 238.481 1.49202 0.0769684 0
M  V30 2683 H 240.363 3.20522 2.73576 0
M  V30 2684 H 239.038 2.02849 2.52258 0
M  V30 2685 H 237.945 3.64117 0.858477 0
M  V30 2686 H 239.278 4.78609 1.14864 0
M  V30 2687 N 240.93 -0.123565 1.57115 0
M  V30 2688 C 242.177 -0.832153 1.84612 0
M  V30 2689 C 242.505 -1.80093 0.734627 0
M  V30 2690 O 241.76 -1.93766 -0.27442 0
M  V30 2691 C 242.059 -1.62016 3.18568 0
M  V30 2692 C 241.725 -0.796084 4.43817 0
M  V30 2693 C 240.387 -0.568816 4.77826 0
M  V30 2694 C 242.739 -0.221364 5.2073 0
M  V30 2695 C 240.067 0.243499 5.86194 0
M  V30 2696 C 242.419 0.578117 6.29953 0
M  V30 2697 C 241.083 0.815744 6.62497 0
M  V30 2698 H 240.353 -0.304507 0.675542 0
M  V30 2699 H 243 -0.0947248 1.91266 0
M  V30 2700 H 241.305 -2.42837 3.0747 0
M  V30 2701 H 243.002 -2.17231 3.37064 0
M  V30 2702 H 239.592 -0.983307 4.17168 0
M  V30 2703 H 243.776 -0.384173 4.94811 0
M  V30 2704 H 239.032 0.436871 6.09837 0
M  V30 2705 H 243.206 1.03046 6.88734 0
M  V30 2706 H 240.833 1.44701 7.46301 0
M  V30 2707 N 242.408 -1.52605 -0.393616 0
M  V30 2708 C 243.657 -1.66649 -1.13627 0
M  V30 2709 C 243.97 -0.410364 -1.91247 0
M  V30 2710 O 245.176 -0.430854 -2.68059 0
M  V30 2711 C 243.632 -2.9449 -2.06891 0
M  V30 2712 C 243.24 -4.27266 -1.34714 0
M  V30 2713 C 244.984 -3.17899 -2.81319 0
M  V30 2714 C 242.891 -5.46217 -2.26717 0
M  V30 2715 H 241.821 -0.62084 -0.427871 0
M  V30 2716 H 244.472 -1.791 -0.399428 0
M  V30 2717 H 242.854 -2.75774 -2.84191 0
M  V30 2718 H 244.028 -4.56518 -0.626714 0
M  V30 2719 H 242.343 -4.10081 -0.722643 0
M  V30 2720 H 244.94 -4.03949 -3.50328 0
M  V30 2721 H 245.283 -2.32777 -3.45139 0
M  V30 2722 H 245.816 -3.37159 -2.11113 0
M  V30 2723 H 242.555 -6.33733 -1.67521 0
M  V30 2724 H 242.075 -5.21283 -2.96689 0
M  V30 2725 H 243.754 -5.7991 -2.86903 0
M  V30 2726 N 243.887 0.651787 -1.4349 0
M  V30 2727 C 244.835 1.78586 -1.49029 0
M  V30 2728 C 245.829 1.65448 -0.363767 0
M  V30 2729 O 247.035 1.71777 -0.537821 0
M  V30 2730 H 243.41 0.589236 -0.467231 0
M  V30 2731 H 245.381 1.71035 -2.44519 0
M  V30 2732 C 244.13 3.16851 -1.43181 0
M  V30 2733 H 243.453 3.27598 -2.29171 0
M  V30 2734 H 244.893 3.96156 -1.51118 0
M  V30 2735 C 243.352 3.36568 -0.149616 0
M  V30 2736 O 243.882 3.93885 0.788509 0
M  V30 2737 N 242.088 2.90539 -0.0593484 0
M  V30 2738 H 241.635 2.4408 -0.823575 0
M  V30 2739 H 241.593 3.04108 0.797853 0
M  V30 2740 N 245.365 1.30045 0.890287 0
M  V30 2741 C 246.313 1.15873 2.01683 0
M  V30 2742 C 247.307 0.0719403 1.69247 0
M  V30 2743 O 248.513 0.232414 1.78493 0
M  V30 2744 H 244.888 0.358203 0.661207 0
M  V30 2745 H 246.859 2.11229 2.10772 0
M  V30 2746 C 245.608 0.861842 3.36849 0
M  V30 2747 H 244.931 1.69016 3.62317 0
M  V30 2748 H 246.371 0.802762 4.16331 0
M  V30 2749 C 244.83 -0.435132 3.34078 0
M  V30 2750 O 245.36 -1.4583 3.74295 0
M  V30 2751 N 243.566 -0.444377 2.87182 0
M  V30 2752 H 243.113 0.388723 2.5465 0
M  V30 2753 H 243.071 -1.31213 2.85711 0
M  V30 2754 N 246.843 -1.10192 1.12674 0
M  V30 2755 C 247.773 -2.18652 0.819362 0
M  V30 2756 C 248.754 -1.68698 -0.217915 0
M  V30 2757 O 249.939 -1.94041 -0.0785581 0
M  V30 2758 C 247.069 -3.46202 0.27594 0
M  V30 2759 C 246.023 -4.09444 1.24656 0
M  V30 2760 C 245.349 -5.31725 0.563258 0
M  V30 2761 C 246.649 -4.52863 2.60217 0
M  V30 2762 H 248.343 -2.44622 1.72628 0
M  V30 2763 H 245.889 -1.17571 0.831451 0
M  V30 2764 H 247.842 -4.21372 0.0486149 0
M  V30 2765 H 246.566 -3.1973 -0.666331 0
M  V30 2766 H 245.225 -3.36284 1.45974 0
M  V30 2767 H 244.873 -5.0153 -0.384235 0
M  V30 2768 H 244.573 -5.74991 1.21075 0
M  V30 2769 H 246.097 -6.09624 0.34503 0
M  V30 2770 H 247.511 -5.19294 2.42913 0
M  V30 2771 H 245.908 -5.06986 3.21068 0
M  V30 2772 H 246.978 -3.65656 3.18471 0
M  V30 2773 N 248.321 -0.919034 -1.28029 0
M  V30 2774 C 249.598 -0.473668 -1.89778 0
M  V30 2775 C 249.978 1.04783 -1.83259 0
M  V30 2776 O 249.326 1.8982 -1.27202 0
M  V30 2777 C 249.536 -1.00998 -3.34066 0
M  V30 2778 C 250.884 -1.06525 -4.1102 0
M  V30 2779 O 251.908 -0.958996 -3.43048 0
M  V30 2780 O 250.767 -1.22776 -5.3253 0
M  V30 2781 H 247.861 -0.15098 -0.813101 0
M  V30 2782 H 250.407 -1.01016 -1.36359 0
M  V30 2783 H 249.179 -2.05392 -3.33061 0
M  V30 2784 H 248.802 -0.454626 -3.94992 0
M  V30 2785 N 249.799 1.42003 -0.683588 0
M  V30 2786 C 251.076 1.95112 -0.138075 0
M  V30 2787 C 251.456 1.62359 1.34918 0
M  V30 2788 O 250.804 0.924311 2.08971 0
M  V30 2789 C 251.014 3.46505 -0.416581 0
M  V30 2790 C 252.362 4.23254 -0.337834 0
M  V30 2791 O 253.386 3.54468 -0.35082 0
M  V30 2792 O 252.245 5.45743 -0.287596 0
M  V30 2793 H 249.339 0.826961 -0.00797996 0
M  V30 2794 H 251.885 1.51784 -0.758924 0
M  V30 2795 H 250.657 3.63582 -1.4465 0
M  V30 2796 H 250.28 3.969 0.235839 0
M  V30 2797 N 251.277 0.427512 1.51691 0
M  V30 2798 C 252.507 -0.140986 2.06118 0
M  V30 2799 C 252.915 -1.37854 1.29588 0
M  V30 2800 O 252.258 -1.80411 0.346036 0
M  V30 2801 C 252.32 -0.538276 3.55447 0
M  V30 2802 C 251.984 0.591095 4.53161 0
M  V30 2803 C 252.981 1.46027 4.98971 0
M  V30 2804 C 250.666 0.769028 4.96378 0
M  V30 2805 C 252.66 2.49216 5.8666 0
M  V30 2806 C 250.347 1.80421 5.83859 0
M  V30 2807 C 251.345 2.66417 6.28897 0
M  V30 2808 O 251.033 3.68159 7.14643 0
M  V30 2809 H 250.765 -0.0157455 0.675817 0
M  V30 2810 H 253.319 0.602495 1.96365 0
M  V30 2811 H 251.549 -1.33432 3.6295 0
M  V30 2812 H 253.238 -1.0368 3.92435 0
M  V30 2813 H 254.004 1.33429 4.66285 0
M  V30 2814 H 249.883 0.109273 4.6087 0
M  V30 2815 H 253.427 3.16372 6.21735 0
M  V30 2816 H 249.324 1.93042 6.15959 0
M  V30 2817 H 250.092 3.64622 7.32798 0
M  V30 2818 N 252.755 -1.56801 0.158532 0
M  V30 2819 C 254.001 -1.96781 -0.490405 0
M  V30 2820 C 254.334 -1.04397 -1.63753 0
M  V30 2821 O 253.609 -0.0885805 -1.94298 0
M  V30 2822 C 253.892 -3.4635 -0.985594 0
M  V30 2823 C 253.745 -4.49512 0.160824 0
M  V30 2824 C 255.064 -3.98697 -1.86355 0
M  V30 2825 H 252.183 -0.715482 -0.176788 0
M  V30 2826 H 254.825 -1.88451 0.242088 0
M  V30 2827 H 252.975 -3.53579 -1.60978 0
M  V30 2828 H 254.647 -4.54353 0.797537 0
M  V30 2829 H 252.89 -4.26013 0.818256 0
M  V30 2830 H 253.561 -5.51531 -0.227569 0
M  V30 2831 H 256.037 -3.94019 -1.33746 0
M  V30 2832 H 254.913 -5.03792 -2.17909 0
M  V30 2833 H 255.174 -3.41744 -2.8047 0
M  V30 2834 N 254.233 0.115231 -1.57178 0
M  V30 2835 C 255.181 1.16014 -2.01602 0
M  V30 2836 C 256.175 1.42653 -0.913587 0
M  V30 2837 O 257.381 1.42571 -1.09879 0
M  V30 2838 H 253.756 0.391252 -0.642204 0
M  V30 2839 H 255.727 0.758998 -2.88586 0
M  V30 2840 C 254.476 2.47767 -2.4394 0
M  V30 2841 H 253.799 2.28108 -3.28339 0
M  V30 2842 H 255.239 3.19432 -2.78818 0
M  V30 2843 C 253.698 3.10617 -1.30455 0
M  V30 2844 O 254.228 3.96846 -0.622585 0
M  V30 2845 N 252.434 2.70553 -1.06064 0
M  V30 2846 H 251.981 2.00527 -1.61699 0
M  V30 2847 H 251.939 3.12934 -0.303284 0
M  V30 2848 N 255.711 1.52812 0.385517 0
M  V30 2849 C 256.658 1.77838 1.47113 0
M  V30 2850 C 257.628 0.621757 1.54024 0
M  V30 2851 O 258.813 0.861846 1.70226 0
M  V30 2852 C 255.953 1.95618 2.84302 0
M  V30 2853 C 255.066 3.23316 2.86515 0
M  V30 2854 C 254.201 3.31394 4.15152 0
M  V30 2855 C 253.24 4.53201 4.1143 0
M  V30 2856 N 252.377 4.58542 5.3168 0
M  V30 2857 H 257.217 2.70482 1.25073 0
M  V30 2858 H 254.754 1.34006 0.606692 0
M  V30 2859 H 256.712 2.03912 3.63972 0
M  V30 2860 H 255.342 1.06331 3.04784 0
M  V30 2861 H 254.394 3.24076 1.99195 0
M  V30 2862 H 255.706 4.13045 2.79634 0
M  V30 2863 H 254.86 3.3889 5.03228 0
M  V30 2864 H 253.599 2.39645 4.24761 0
M  V30 2865 H 252.604 4.45827 3.21742 0
M  V30 2866 H 253.829 5.46271 4.03442 0
M  V30 2867 H 251.775 3.69686 5.41912 0
M  V30 2868 H 251.692 5.42148 5.26889 0
M  V30 2869 H 252.96 4.70296 6.21644 0
M  V30 2870 N 257.189 -0.644168 1.43834 0
M  V30 2871 C 258.137 -1.77793 1.49974 0
M  V30 2872 C 259.131 -1.65253 0.372536 0
M  V30 2873 O 260.337 -1.7149 0.546924 0
M  V30 2874 H 256.712 -0.58675 0.47035 0
M  V30 2875 H 258.683 -1.69736 2.45423 0
M  V30 2876 C 257.432 -3.16087 1.4486 0
M  V30 2877 H 256.755 -3.26378 2.30905 0
M  V30 2878 H 258.195 -3.95349 1.53217 0
M  V30 2879 C 256.654 -3.36484 0.167463 0
M  V30 2880 O 257.184 -3.94298 -0.767609 0
M  V30 2881 N 255.39 -2.90504 0.0747556 0
M  V30 2882 H 254.937 -2.4364 0.836507 0
M  V30 2883 H 254.895 -3.04527 -0.781714 0
M  V30 2884 N 258.668 -1.30515 -0.883378 0
M  V30 2885 C 259.578 -1.18959 -2.02203 0
M  V30 2886 C 260.594 -0.109172 -1.73657 0
M  V30 2887 O 261.77 -0.324413 -1.9877 0
M  V30 2888 C 258.835 -0.883871 -3.35244 0
M  V30 2889 C 257.896 -2.04982 -3.77201 0
M  V30 2890 C 257.129 -1.75859 -5.03894 0
M  V30 2891 O 257.352 -0.687276 -5.66244 0
M  V30 2892 O 256.286 -2.61146 -5.42297 0
M  V30 2893 H 260.112 -2.14616 -2.1488 0
M  V30 2894 H 257.697 -1.10124 -1.0096 0
M  V30 2895 H 259.579 -0.728644 -4.15053 0
M  V30 2896 H 258.254 0.0427798 -3.23672 0
M  V30 2897 H 257.161 -2.26038 -2.9809 0
M  V30 2898 H 258.494 -2.95825 -3.93381 0
M  V30 2899 N 260.146 1.09593 -1.13257 0
M  V30 2900 C 261.079 2.15451 -0.752061 0
M  V30 2901 C 262.057 1.60493 0.260913 0
M  V30 2902 O 263.241 1.8788 0.152819 0
M  V30 2903 C 260.368 3.38506 -0.114594 0
M  V30 2904 C 259.414 4.12183 -1.09579 0
M  V30 2905 S 260.247 4.6661 -2.62745 0
M  V30 2906 C 261.403 5.92966 -2.00354 0
M  V30 2907 H 261.636 2.47395 -1.64872 0
M  V30 2908 H 259.169 1.21515 -0.952545 0
M  V30 2909 H 261.127 4.09757 0.246808 0
M  V30 2910 H 259.788 3.04784 0.759309 0
M  V30 2911 H 258.981 5.00445 -0.597545 0
M  V30 2912 H 258.583 3.46785 -1.40057 0
M  V30 2913 H 260.875 6.63882 -1.35156 0
M  V30 2914 H 261.818 6.47467 -2.86691 0
M  V30 2915 H 262.226 5.45405 -1.4558 0
M  V30 2916 N 261.624 0.925811 1.2754 0
M  V30 2917 C 262.854 0.580666 1.98272 0
M  V30 2918 C 263.262 -0.845207 1.69272 0
M  V30 2919 O 262.605 -1.57306 0.948707 0
M  V30 2920 C 262.667 0.724418 3.52126 0
M  V30 2921 C 262.331 2.12206 4.04744 0
M  V30 2922 C 263.328 3.09604 4.17662 0
M  V30 2923 C 261.013 2.4385 4.39138 0
M  V30 2924 C 263.007 4.36755 4.64246 0
M  V30 2925 C 260.694 3.71237 4.85414 0
M  V30 2926 C 261.692 4.67503 4.97926 0
M  V30 2927 O 261.38 5.92624 5.43187 0
M  V30 2928 H 261.112 0.218987 0.639547 0
M  V30 2929 H 263.666 1.24452 1.63404 0
M  V30 2930 H 261.896 0.0034663 3.867 0
M  V30 2931 H 263.585 0.384607 4.04074 0
M  V30 2932 H 264.351 2.86478 3.91351 0
M  V30 2933 H 260.23 1.69665 4.28643 0
M  V30 2934 H 263.774 5.11898 4.73927 0
M  V30 2935 H 259.671 3.94182 5.11166 0
M  V30 2936 H 260.439 5.95585 5.61445 0
M  V30 2937 N 263.102 -1.41638 0.69111 0
M  V30 2938 C 264.351 -2.00526 0.217318 0
M  V30 2939 C 264.664 -1.55353 -1.18848 0
M  V30 2940 O 265.87 -2.06769 -1.75951 0
M  V30 2941 C 264.326 -3.58313 0.337639 0
M  V30 2942 C 263.934 -4.12469 1.74852 0
M  V30 2943 C 265.678 -4.24431 -0.0766066 0
M  V30 2944 C 263.585 -5.62675 1.82074 0
M  V30 2945 H 262.515 -0.750008 0.0774893 0
M  V30 2946 H 265.166 -1.6217 0.858661 0
M  V30 2947 H 263.548 -3.9425 -0.371879 0
M  V30 2948 H 264.722 -3.8796 2.48644 0
M  V30 2949 H 263.037 -3.58861 2.11205 0
M  V30 2950 H 265.634 -5.34683 -0.0430284 0
M  V30 2951 H 265.977 -4.01101 -1.1146 0
M  V30 2952 H 266.51 -3.93512 0.582476 0
M  V30 2953 H 263.249 -5.90826 2.83911 0
M  V30 2954 H 262.769 -5.89124 1.12661 0
M  V30 2955 H 264.448 -6.27371 1.58159 0
M  V30 2956 N 264.58 -0.43555 -1.51462 0
M  V30 2957 C 265.829 0.133007 -2.01261 0
M  V30 2958 C 266.142 1.43942 -1.32439 0
M  V30 2959 O 267.348 2.09081 -1.73198 0
M  V30 2960 C 265.804 0.287581 -3.58749 0
M  V30 2961 C 265.412 -1.00829 -4.36506 0
M  V30 2962 C 267.156 0.810004 -4.167 0
M  V30 2963 C 265.063 -0.819454 -5.85695 0
M  V30 2964 H 263.993 0.0534822 -0.752101 0
M  V30 2965 H 266.644 -0.565038 -1.74584 0
M  V30 2966 H 265.026 1.04859 -3.81865 0
M  V30 2967 H 266.2 -1.77749 -4.25138 0
M  V30 2968 H 264.515 -1.45911 -3.89999 0
M  V30 2969 H 267.112 0.967743 -5.2587 0
M  V30 2970 H 267.455 1.79196 -3.75758 0
M  V30 2971 H 267.988 0.107357 -3.97655 0
M  V30 2972 H 264.727 -1.77374 -6.31046 0
M  V30 2973 H 264.247 -0.0900208 -5.99732 0
M  V30 2974 H 265.926 -0.471949 -6.45276 0
M  V30 2975 N 266.058 1.56714 -0.166846 0
M  V30 2976 C 267.304 1.97813 0.473473 0
M  V30 2977 C 267.659 1.05095 1.61161 0
M  V30 2978 O 266.952 0.0897541 1.9139 0
M  V30 2979 C 267.146 3.42889 1.00806 0
M  V30 2980 C 266.975 4.49635 -0.0767392 0
M  V30 2981 C 265.745 5.02566 -0.524894 0
M  V30 2982 C 267.943 5.06793 -0.875504 0
M  V30 2983 N 265.925 5.9294 -1.59047 0
M  V30 2984 C 267.296 5.93565 -1.79111 0
M  V30 2985 C 269.351 4.89306 -0.921083 0
M  V30 2986 C 268.054 6.64721 -2.74843 0
M  V30 2987 C 270.08 5.61179 -1.86633 0
M  V30 2988 C 269.442 6.47675 -2.76942 0
M  V30 2989 H 265.541 0.769093 0.141489 0
M  V30 2990 H 268.125 1.92874 -0.266031 0
M  V30 2991 H 266.296 3.48382 1.7171 0
M  V30 2992 H 268.028 3.71008 1.61664 0
M  V30 2993 H 264.783 4.73439 -0.123432 0
M  V30 2994 H 265.207 6.42831 -2.12361 0
M  V30 2995 H 269.849 4.22136 -0.23692 0
M  V30 2996 H 267.567 7.31107 -3.44249 0
M  V30 2997 H 271.153 5.49636 -1.90764 0
M  V30 2998 H 270.033 7.02313 -3.48893 0
M  V30 2999 N 267.536 -0.106894 1.57237 0
M  V30 3000 C 268.484 -1.14944 2.02215 0
M  V30 3001 C 269.478 -1.42167 0.92114 0
M  V30 3002 O 270.684 -1.41987 1.10634 0
M  V30 3003 H 267.059 -0.387841 0.64427 0
M  V30 3004 H 269.03 -0.743683 2.88984 0
M  V30 3005 C 267.779 -2.4647 2.4525 0
M  V30 3006 H 267.102 -2.26363 3.29545 0
M  V30 3007 H 268.542 -3.17948 2.80508 0
M  V30 3008 C 267.001 -3.09921 1.321 0
M  V30 3009 O 267.531 -3.9651 0.643622 0
M  V30 3010 N 265.737 -2.69986 1.07497 0
M  V30 3011 H 265.284 -1.99667 1.62761 0
M  V30 3012 H 265.242 -3.12769 0.319876 0
M  V30 3013 N 269.014 -1.53014 -0.377408 0
M  V30 3014 C 270.244 -1.72265 -1.14054 0
M  V30 3015 C 270.652 -0.44601 -1.83868 0
M  V30 3016 O 269.995 0.590095 -1.73964 0
M  V30 3017 C 270.057 -2.82492 -2.22348 0
M  V30 3018 C 269.721 -4.23233 -1.72402 0
M  V30 3019 C 270.718 -5.05992 -1.19448 0
M  V30 3020 C 268.403 -4.696 -1.78273 0
M  V30 3021 C 270.397 -6.33203 -0.730268 0
M  V30 3022 C 268.084 -5.96792 -1.31464 0
M  V30 3023 C 269.082 -6.78424 -0.789297 0
M  V30 3024 O 268.77 -8.0323 -0.328077 0
M  V30 3025 H 268.502 -0.579873 -0.347453 0
M  V30 3026 H 271.056 -2.00502 -0.445882 0
M  V30 3027 H 269.286 -2.49702 -2.95272 0
M  V30 3028 H 270.975 -2.90034 -2.83963 0
M  V30 3029 H 271.741 -4.71349 -1.14259 0
M  V30 3030 H 267.62 -4.06142 -2.18106 0
M  V30 3031 H 271.164 -6.96868 -0.319542 0
M  V30 3032 H 267.061 -6.30937 -1.36342 0
M  V30 3033 H 267.829 -8.1727 -0.448493 0
M  V30 3034 N 270.492 0.636531 -1.44174 0
M  V30 3035 C 271.738 1.39826 -1.4689 0
M  V30 3036 C 272.071 1.93947 -0.0990585 0
M  V30 3037 O 271.346 1.73325 0.882544 0
M  V30 3038 C 271.629 2.56751 -2.5249 0
M  V30 3039 C 271.482 2.08014 -3.98811 0
M  V30 3040 C 272.801 3.58946 -2.54649 0
M  V30 3041 H 269.92 0.507075 -0.53483 0
M  V30 3042 H 272.562 0.720188 -1.75822 0
M  V30 3043 H 270.712 3.14597 -2.2795 0
M  V30 3044 H 272.384 1.5504 -4.34466 0
M  V30 3045 H 270.627 1.39242 -4.10846 0
M  V30 3046 H 271.298 2.92169 -4.68339 0
M  V30 3047 H 273.774 3.1089 -2.76563 0
M  V30 3048 H 272.65 4.38286 -3.3045 0
M  V30 3049 H 272.911 4.12655 -1.58646 0
M  V30 3050 N 271.97 1.30982 0.876444 0
M  V30 3051 C 272.918 1.18006 2.00443 0
M  V30 3052 C 273.912 0.0898871 1.69161 0
M  V30 3053 O 275.118 0.251333 1.78237 0
M  V30 3054 H 271.493 0.365196 0.65737 0
M  V30 3055 H 273.464 2.13453 2.0852 0
M  V30 3056 C 272.213 0.897521 3.35916 0
M  V30 3057 H 271.536 1.7285 3.60504 0
M  V30 3058 H 272.976 0.846874 4.15456 0
M  V30 3059 C 271.435 -0.399674 3.34521 0
M  V30 3060 O 271.965 -1.41852 3.7582 0
M  V30 3061 N 270.171 -0.413893 2.87637 0
M  V30 3062 H 269.718 0.41571 2.54224 0
M  V30 3063 H 269.676 -1.28175 2.87086 0
M  V30 3064 N 273.449 -1.08991 1.13837 0
M  V30 3065 C 274.674 -1.85551 0.926585 0
M  V30 3066 C 275.099 -1.80782 -0.519566 0
M  V30 3067 O 274.457 -1.18855 -1.36906 0
M  V30 3068 C 274.505 -3.31266 1.42462 0
M  V30 3069 O 273.609 -4.07822 0.612789 0
M  V30 3070 H 272.95 -0.575192 0.331738 0
M  V30 3071 H 275.48 -1.37604 1.51414 0
M  V30 3072 H 275.49 -3.82112 1.43019 0
M  V30 3073 H 274.165 -3.34052 2.47754 0
M  V30 3074 H 272.742 -3.66731 0.675463 0
M  V30 3075 N 274.927 -0.932562 -1.27047 0
M  V30 3076 C 275.874 -0.434072 -2.26681 0
M  V30 3077 C 276.844 0.501639 -1.58344 0
M  V30 3078 O 278.029 0.419734 -1.86126 0
M  V30 3079 C 275.169 0.30261 -3.43771 0
M  V30 3080 C 274.282 -0.667774 -4.26808 0
M  V30 3081 C 273.417 0.0892393 -5.31125 0
M  V30 3082 C 272.456 -0.873532 -6.05835 0
M  V30 3083 N 271.593 -0.148832 -7.01942 0
M  V30 3084 H 276.433 -1.28868 -2.68695 0
M  V30 3085 H 273.97 -0.646713 -1.32121 0
M  V30 3086 H 275.928 0.746092 -4.10474 0
M  V30 3087 H 274.558 1.12142 -3.02695 0
M  V30 3088 H 273.61 -1.22978 -3.59973 0
M  V30 3089 H 274.922 -1.40337 -4.78651 0
M  V30 3090 H 274.076 0.592409 -6.03801 0
M  V30 3091 H 272.815 0.85777 -4.80097 0
M  V30 3092 H 271.82 -1.38791 -5.31994 0
M  V30 3093 H 273.045 -1.64193 -6.58952 0
M  V30 3094 H 270.991 0.601365 -6.53238 0
M  V30 3095 H 270.908 -0.82391 -7.51497 0
M  V30 3096 H 272.176 0.333527 -7.78786 0
M  V30 3097 N 276.405 1.4127 -0.698611 0
M  V30 3098 C 277.315 2.34573 -0.0357891 0
M  V30 3099 C 278.331 1.56393 0.762701 0
M  V30 3100 O 279.507 1.8886 0.699564 0
M  V30 3101 C 276.572 3.35159 0.887089 0
M  V30 3102 C 275.633 4.29225 0.0804634 0
M  V30 3103 C 274.866 5.25006 0.959387 0
M  V30 3104 O 275.089 5.26314 2.19886 0
M  V30 3105 O 274.023 6.00519 0.407439 0
M  V30 3106 H 277.849 2.92838 -0.804957 0
M  V30 3107 H 275.434 1.42175 -0.458966 0
M  V30 3108 H 277.316 3.9689 1.41621 0
M  V30 3109 H 275.991 2.79333 1.6357 0
M  V30 3110 H 274.898 3.70833 -0.493328 0
M  V30 3111 H 276.231 4.88157 -0.629547 0
M  V30 3112 N 277.883 0.443576 1.51229 0
M  V30 3113 C 278.83 -0.364716 2.279 0
M  V30 3114 C 279.8 -1.0114 1.31757 0
M  V30 3115 O 280.985 -1.02912 1.60667 0
M  V30 3116 C 278.125 -1.45644 3.12861 0
M  V30 3117 C 277.238 -0.827269 4.24005 0
M  V30 3118 C 276.373 -1.89456 4.96266 0
M  V30 3119 C 275.412 -1.24416 5.99322 0
M  V30 3120 N 274.549 -2.25309 6.64966 0
M  V30 3121 H 279.389 0.295464 2.96532 0
M  V30 3122 H 276.926 0.157554 1.46254 0
M  V30 3123 H 278.884 -2.10076 3.6045 0
M  V30 3124 H 277.514 -2.08616 2.46331 0
M  V30 3125 H 276.566 -0.0710839 3.80334 0
M  V30 3126 H 277.878 -0.312481 4.9782 0
M  V30 3127 H 277.032 -2.61535 5.47434 0
M  V30 3128 H 275.771 -2.4431 4.22095 0
M  V30 3129 H 274.776 -0.508868 5.4744 0
M  V30 3130 H 276.001 -0.702882 6.75453 0
M  V30 3131 H 273.947 -2.79231 5.93604 0
M  V30 3132 H 273.864 -1.78739 7.34567 0
M  V30 3133 H 275.132 -2.96853 7.20763 0
M  V30 3134 N 279.361 -1.56624 0.175154 0
M  V30 3135 C 280.608 -1.96999 -0.468811 0
M  V30 3136 C 280.936 -1.06129 -1.62994 0
M  V30 3137 O 280.191 -0.0961771 -1.95464 0
M  V30 3138 C 280.49 -3.43419 -0.989864 0
M  V30 3139 C 280.156 -4.50866 0.0557687 0
M  V30 3140 C 278.818 -4.79975 0.343134 0
M  V30 3141 C 281.17 -5.15551 0.765308 0
M  V30 3142 C 278.498 -5.71066 1.34536 0
M  V30 3143 C 280.85 -6.07724 1.75654 0
M  V30 3144 C 279.514 -6.35199 2.05132 0
M  V30 3145 H 278.784 -0.720869 -0.17155 0
M  V30 3146 H 281.431 -1.89616 0.267924 0
M  V30 3147 H 279.736 -3.47772 -1.80449 0
M  V30 3148 H 281.433 -3.72002 -1.49719 0
M  V30 3149 H 278.023 -4.28229 -0.178381 0
M  V30 3150 H 282.207 -4.9317 0.556513 0
M  V30 3151 H 277.463 -5.90635 1.57988 0
M  V30 3152 H 281.637 -6.56912 2.31169 0
M  V30 3153 H 279.264 -7.05584 2.8294 0
M  V30 3154 N 280.839 0.0985539 -1.57292 0
M  V30 3155 C 281.786 1.11981 -2.01814 0
M  V30 3156 C 282.756 1.39999 -0.89384 0
M  V30 3157 O 283.941 1.5152 -1.15958 0
M  V30 3158 C 281.081 2.43577 -2.44467 0
M  V30 3159 C 280.194 2.2232 -3.70402 0
M  V30 3160 C 279.329 3.4729 -4.01949 0
M  V30 3161 C 278.368 3.2128 -5.21005 0
M  V30 3162 N 277.505 4.38507 -5.48321 0
M  V30 3163 H 282.345 0.733149 -2.88841 0
M  V30 3164 H 279.882 0.350482 -1.42864 0
M  V30 3165 H 281.84 3.20373 -2.6724 0
M  V30 3166 H 280.47 2.80097 -1.60455 0
M  V30 3167 H 279.522 1.36343 -3.55126 0
M  V30 3168 H 280.834 1.99089 -4.57345 0
M  V30 3169 H 279.988 4.32495 -4.25479 0
M  V30 3170 H 278.727 3.73572 -3.13521 0
M  V30 3171 H 277.732 2.34468 -4.97298 0
M  V30 3172 H 278.957 2.96348 -6.11028 0
M  V30 3173 H 276.903 4.64871 -4.62851 0
M  V30 3174 H 276.82 4.18455 -6.29628 0
M  V30 3175 H 278.088 5.24787 -5.76385 0
M  V30 3176 N 282.317 1.53212 0.369288 0
M  V30 3177 C 283.547 1.72868 1.13139 0
M  V30 3178 C 283.955 0.455754 1.83629 0
M  V30 3179 O 283.298 -0.580861 1.74275 0
M  V30 3180 C 283.36 2.83667 2.20847 0
M  V30 3181 C 283.024 4.24142 1.70155 0
M  V30 3182 C 284.021 5.06619 1.16763 0
M  V30 3183 C 281.706 4.70539 1.7578 0
M  V30 3184 C 283.7 6.33581 0.696678 0
M  V30 3185 C 281.387 5.97481 1.28297 0
M  V30 3186 C 282.385 6.78833 0.753307 0
M  V30 3187 O 282.073 8.03393 0.285475 0
M  V30 3188 H 281.805 0.581707 0.344373 0
M  V30 3189 H 284.359 2.00736 0.435243 0
M  V30 3190 H 282.589 2.51265 2.93944 0
M  V30 3191 H 284.278 2.91536 2.82421 0
M  V30 3192 H 285.044 4.71948 1.11758 0
M  V30 3193 H 280.923 4.07293 2.15949 0
M  V30 3194 H 284.467 6.97027 0.282581 0
M  V30 3195 H 280.364 6.31651 1.32994 0
M  V30 3196 H 281.132 8.17497 0.405145 0
M  V30 3197 N 283.795 -0.628877 1.44509 0
M  V30 3198 C 284.725 -1.75187 1.54376 0
M  V30 3199 C 285.706 -1.65411 0.396618 0
M  V30 3200 O 286.891 -1.84137 0.617031 0
M  V30 3201 C 284.021 -3.13725 1.48976 0
M  V30 3202 C 282.975 -3.38291 2.62189 0
M  V30 3203 C 282.301 -4.76883 2.41841 0
M  V30 3204 C 283.601 -3.30632 4.04326 0
M  V30 3205 H 285.295 -1.67187 2.48373 0
M  V30 3206 H 282.841 -0.802909 1.19538 0
M  V30 3207 H 284.794 -3.92064 1.54478 0
M  V30 3208 H 283.518 -3.22515 0.514961 0
M  V30 3209 H 282.177 -2.62334 2.56079 0
M  V30 3210 H 281.825 -4.82378 1.42548 0
M  V30 3211 H 281.525 -4.94278 3.17747 0
M  V30 3212 H 283.049 -5.57449 2.49165 0
M  V30 3213 H 284.463 -3.98873 4.11793 0
M  V30 3214 H 282.86 -3.59561 4.80454 0
M  V30 3215 H 283.93 -2.28404 4.27738 0
M  V30 3216 N 285.273 -1.31445 -0.869486 0
M  V30 3217 C 286.221 -1.19067 -1.99814 0
M  V30 3218 C 287.215 -0.0988569 -1.69111 0
M  V30 3219 O 288.421 -0.260781 -1.78101 0
M  V30 3220 H 284.796 -0.368677 -0.655425 0
M  V30 3221 H 286.767 -2.14555 -2.07385 0
M  V30 3222 C 285.516 -0.915323 -3.35436 0
M  V30 3223 H 284.839 -1.74759 -3.59582 0
M  V30 3224 H 286.279 -0.868895 -4.15001 0
M  V30 3225 C 284.738 0.381928 -3.34728 0
M  V30 3226 O 285.268 1.39857 -3.76567 0
M  V30 3227 N 283.474 0.398633 -2.87853 0
M  V30 3228 H 283.021 -0.429186 -2.54 0
M  V30 3229 H 282.979 1.26651 -2.87762 0
M  V30 3230 N 286.751 1.08385 -1.14413 0
M  V30 3231 C 287.684 2.14642 -0.774871 0
M  V30 3232 C 288.662 1.60761 0.243876 0
M  V30 3233 O 289.846 1.88031 0.132883 0
M  V30 3234 C 286.973 3.38366 -0.150491 0
M  V30 3235 C 286.019 4.10997 -1.13945 0
M  V30 3236 S 286.852 4.63797 -2.67679 0
M  V30 3237 C 288.008 5.90808 -2.06631 0
M  V30 3238 H 288.241 2.45633 -1.67487 0
M  V30 3239 H 285.774 1.20498 -0.96538 0
M  V30 3240 H 287.732 4.09996 0.203334 0
M  V30 3241 H 286.393 3.05572 0.72694 0
M  V30 3242 H 285.586 4.99783 -0.65059 0
M  V30 3243 H 285.188 3.4528 -1.43727 0
M  V30 3244 H 287.48 6.62411 -1.4219 0
M  V30 3245 H 288.423 6.4439 -2.93542 0
M  V30 3246 H 288.831 5.4383 -1.51357 0
M  V30 3247 N 288.23 0.939286 1.26551 0
M  V30 3248 C 289.162 0.404704 2.25599 0
M  V30 3249 C 290.175 -0.470983 1.55838 0
M  V30 3250 O 291.364 -0.281734 1.76263 0
M  V30 3251 C 288.464 -0.43764 3.36062 0
M  V30 3252 C 287.637 0.421449 4.35365 0
M  V30 3253 C 286.696 -0.36015 5.24966 0
M  V30 3254 O 285.722 0.236167 5.6871 0
M  V30 3255 N 286.924 -1.65715 5.56344 0
M  V30 3256 H 289.689 1.25618 2.72103 0
M  V30 3257 H 287.25 0.807963 1.40298 0
M  V30 3258 H 289.242 -0.967866 3.92956 0
M  V30 3259 H 287.812 -1.18991 2.89067 0
M  V30 3260 H 287.032 1.1329 3.7757 0
M  V30 3261 H 288.32 1.00835 4.98708 0
M  V30 3262 H 287.718 -2.16378 5.22682 0
M  V30 3263 H 286.275 -2.13366 6.15888 0
M  V30 3264 N 289.708 -1.40897 0.706093 0
M  V30 3265 C 290.64 -2.29199 0.00815776 0
M  V30 3266 C 291.653 -1.45336 -0.733582 0
M  V30 3267 O 292.842 -1.68727 -0.582537 0
M  V30 3268 C 289.942 -3.23417 -1.01265 0
M  V30 3269 C 289.115 -4.36089 -0.338387 0
M  V30 3270 C 288.174 -5.10811 -1.26326 0
M  V30 3271 O 287.2 -5.64215 -0.751651 0
M  V30 3272 N 288.402 -5.19269 -2.595 0
M  V30 3273 H 291.167 -2.89738 0.766297 0
M  V30 3274 H 288.728 -1.52164 0.55296 0
M  V30 3275 H 290.72 -3.70276 -1.63334 0
M  V30 3276 H 289.29 -2.64112 -1.67223 0
M  V30 3277 H 288.51 -3.91479 0.462352 0
M  V30 3278 H 289.798 -5.08634 0.130031 0
M  V30 3279 H 289.196 -4.77347 -3.03573 0
M  V30 3280 H 287.753 -5.69667 -3.16737 0
M  V30 3281 N 291.186 -0.45159 -1.50991 0
M  V30 3282 C 292.134 0.366864 -2.29689 0
M  V30 3283 C 293.128 1.00809 -1.36139 0
M  V30 3284 O 294.334 0.941427 -1.53418 0
M  V30 3285 H 290.709 0.137133 -0.739391 0
M  V30 3286 H 292.68 -0.317538 -2.96706 0
M  V30 3287 C 291.429 1.44751 -3.16137 0
M  V30 3288 H 290.752 0.963473 -3.88017 0
M  V30 3289 H 292.192 1.99315 -3.74232 0
M  V30 3290 C 290.651 2.43869 -2.32442 0
M  V30 3291 O 291.181 3.4872 -1.99392 0
M  V30 3292 N 289.387 2.15105 -1.95392 0
M  V30 3293 H 288.934 1.29866 -2.22469 0
M  V30 3294 H 288.892 2.81661 -1.39693 0
M  V30 3295 N 292.664 1.56529 -0.183458 0
M  V30 3296 C 293.913 1.96419 0.458511 0
M  V30 3297 C 294.226 1.0727 1.63562 0
M  V30 3298 O 295.432 1.36893 2.34462 0
M  V30 3299 C 293.888 3.49298 0.867122 0
M  V30 3300 C 293.496 4.47092 -0.285057 0
M  V30 3301 C 295.24 3.97983 1.47683 0
M  V30 3302 C 293.147 5.91225 0.143862 0
M  V30 3303 H 292.077 0.733394 0.175071 0
M  V30 3304 H 294.728 1.81448 -0.273624 0
M  V30 3305 H 293.11 3.59731 1.65559 0
M  V30 3306 H 294.284 4.48383 -1.0625 0
M  V30 3307 H 292.599 4.08535 -0.805503 0
M  V30 3308 H 295.196 5.03134 1.80999 0
M  V30 3309 H 295.539 3.41618 2.37914 0
M  V30 3310 H 296.072 3.90617 0.752562 0
M  V30 3311 H 292.811 6.5149 -0.723974 0
M  V30 3312 H 292.331 5.93214 0.886413 0
M  V30 3313 H 294.01 6.44362 0.583628 0
M  V30 3314 N 294.142 -0.090211 1.57342 0
M  V30 3315 C 295.089 -1.10909 2.02405 0
M  V30 3316 C 296.059 -1.39523 0.901252 0
M  V30 3317 O 297.244 -1.50903 1.1676 0
M  V30 3318 C 294.384 -2.42277 2.45755 0
M  V30 3319 C 293.497 -2.20352 3.71576 0
M  V30 3320 C 292.632 -3.45154 4.03785 0
M  V30 3321 C 291.671 -3.18512 5.22701 0
M  V30 3322 N 290.808 -4.35593 5.50639 0
M  V30 3323 H 295.648 -0.71782 2.89225 0
M  V30 3324 H 293.185 -0.342901 1.43048 0
M  V30 3325 H 295.143 -3.18951 2.68935 0
M  V30 3326 H 293.773 -2.79242 1.61938 0
M  V30 3327 H 292.825 -1.34458 3.55844 0
M  V30 3328 H 294.137 -1.96661 4.58395 0
M  V30 3329 H 293.291 -4.30233 4.27767 0
M  V30 3330 H 292.03 -3.71904 3.15498 0
M  V30 3331 H 291.035 -2.31827 4.98534 0
M  V30 3332 H 292.26 -2.93103 6.12591 0
M  V30 3333 H 290.206 -4.6241 4.6531 0
M  V30 3334 H 290.123 -4.1511 6.31838 0
M  V30 3335 H 291.391 -5.21723 5.7916 0
M  V30 3336 N 295.62 -1.53406 -0.361157 0
M  V30 3337 C 296.845 -1.74024 -1.12829 0
M  V30 3338 C 297.27 -0.470069 -1.82132 0
M  V30 3339 O 296.628 0.57619 -1.719 0
M  V30 3340 C 296.676 -2.90903 -2.13091 0
M  V30 3341 O 295.78 -2.59821 -3.20261 0
M  V30 3342 H 295.121 -0.577804 -0.327168 0
M  V30 3343 H 297.651 -2.00307 -0.41693 0
M  V30 3344 H 297.661 -3.17194 -2.56616 0
M  V30 3345 H 296.336 -3.83034 -1.62042 0
M  V30 3346 H 294.913 -2.44362 -2.81677 0
M  V30 3347 N 297.098 0.621204 -1.44841 0
M  V30 3348 C 298.328 1.40548 -1.51426 0
M  V30 3349 C 298.736 1.88673 -0.141083 0
M  V30 3350 O 298.079 1.62053 0.865128 0
M  V30 3351 C 298.141 2.65325 -2.42576 0
M  V30 3352 C 297.805 2.3893 -3.89566 0
M  V30 3353 C 298.802 2.00138 -4.79834 0
M  V30 3354 C 296.487 2.52263 -4.3436 0
M  V30 3355 C 298.481 1.75021 -6.129 0
M  V30 3356 C 296.168 2.2676 -5.67471 0
M  V30 3357 C 297.166 1.88199 -6.56559 0
M  V30 3358 O 296.854 1.62986 -7.87204 0
M  V30 3359 H 296.586 0.437122 -0.515655 0
M  V30 3360 H 299.14 0.765987 -1.90583 0
M  V30 3361 H 297.37 3.31947 -1.98364 0
M  V30 3362 H 299.059 3.27347 -2.39998 0
M  V30 3363 H 299.825 1.89386 -4.46495 0
M  V30 3364 H 295.704 2.81246 -3.65269 0
M  V30 3365 H 299.248 1.44848 -6.82396 0
M  V30 3366 H 295.145 2.37125 -6.00368 0
M  V30 3367 H 295.913 1.7715 -7.991 0
M  V30 3368 N 298.576 1.31904 0.862503 0
M  V30 3369 C 299.816 1.23324 1.63004 0
M  V30 3370 C 300.18 -0.203724 1.90916 0
M  V30 3371 O 301.381 -0.413132 2.65606 0
M  V30 3372 C 299.652 2.06116 2.91978 0
M  V30 3373 S 301.211 2.14478 3.82812 0
M  V30 3374 H 298.029 0.439117 0.559193 0
M  V30 3375 H 300.631 1.66658 1.02202 0
M  V30 3376 H 299.335 3.09593 2.69407 0
M  V30 3377 H 298.866 1.6353 3.57801 0
M  V30 3378 H 300.881 1.28855 4.79177 0
M  V30 3379 N 300.054 -1.07777 1.14986 0
M  V30 3380 C 300.964 -2.18404 0.856546 0
M  V30 3381 C 301.98 -1.73211 -0.165485 0
M  V30 3382 O 303.156 -2.01399 0.00755219 0
M  V30 3383 C 300.221 -3.44977 0.34526 0
M  V30 3384 C 299.282 -4.0476 1.43065 0
M  V30 3385 C 298.515 -5.25291 0.943663 0
M  V30 3386 O 298.738 -5.70004 -0.212426 0
M  V30 3387 O 297.672 -5.76638 1.72547 0
M  V30 3388 H 301.498 -2.45978 1.78125 0
M  V30 3389 H 299.083 -1.17033 0.928631 0
M  V30 3390 H 300.965 -4.21348 0.0663671 0
M  V30 3391 H 299.64 -3.18965 -0.551631 0
M  V30 3392 H 298.547 -3.29949 1.76309 0
M  V30 3393 H 299.88 -4.35035 2.30229 0
M  V30 3394 N 301.532 -0.945985 -1.26051 0
M  V30 3395 C 302.48 -0.450259 -2.282 0
M  V30 3396 C 303.474 0.47497 -1.62605 0
M  V30 3397 O 304.68 0.352653 -1.76512 0
M  V30 3398 H 301.055 -0.127081 -0.741184 0
M  V30 3399 H 303.026 -1.32422 -2.67408 0
M  V30 3400 C 301.775 0.26467 -3.46691 0
M  V30 3401 H 301.098 -0.438123 -3.97392 0
M  V30 3402 H 302.538 0.575678 -4.20074 0
M  V30 3403 C 300.997 1.48416 -3.02447 0
M  V30 3404 O 301.527 2.58227 -3.07704 0
M  V30 3405 N 299.733 1.34243 -2.57735 0
M  V30 3406 H 299.28 0.448994 -2.53657 0
M  V30 3407 H 299.238 2.15957 -2.28495 0
M  V30 3408 N 303.011 1.40521 -0.713556 0
M  V30 3409 C 303.941 2.33381 -0.0743864 0
M  V30 3410 C 304.922 1.52784 0.747735 0
M  V30 3411 O 306.107 1.81258 0.697071 0
M  V30 3412 C 303.237 3.36748 0.849598 0
M  V30 3413 C 302.191 4.27793 0.133247 0
M  V30 3414 C 301.517 5.21679 1.17281 0
M  V30 3415 C 302.817 5.12415 -1.01134 0
M  V30 3416 H 304.511 2.87081 -0.850007 0
M  V30 3417 H 302.057 1.38034 -0.410201 0
M  V30 3418 H 304.01 4.00648 1.30612 0
M  V30 3419 H 302.734 2.81439 1.65709 0
M  V30 3420 H 301.393 3.65342 -0.303426 0
M  V30 3421 H 301.041 4.62677 1.9733 0
M  V30 3422 H 300.741 5.83435 0.698397 0
M  V30 3423 H 302.265 5.88456 1.62947 0
M  V30 3424 H 303.679 5.69781 -0.634274 0
M  V30 3425 H 302.076 5.83203 -1.41399 0
M  V30 3426 H 303.146 4.48514 -1.84292 0
M  V30 3427 N 304.489 0.459591 1.5075 0
M  V30 3428 C 305.452 -0.329093 2.26825 0
M  V30 3429 C 306.452 -0.930481 1.31144 0
M  V30 3430 O 307.642 -0.801453 1.54669 0
M  V30 3431 C 304.774 -1.46768 3.07688 0
M  V30 3432 H 305.967 0.337924 2.9799 0
M  V30 3433 H 303.52 0.213336 1.54837 0
M  V30 3434 H 304.255 -2.17009 2.40993 0
M  V30 3435 H 304.04 -1.04238 3.77991 0
M  V30 3436 H 305.53 -2.02433 3.65254 0
M  V30 3437 N 305.967 -1.56429 0.191757 0
M  V30 3438 C 307.197 -2.01574 -0.452928 0
M  V30 3439 C 307.605 -1.07107 -1.55964 0
M  V30 3440 O 306.948 -0.067534 -1.83576 0
M  V30 3441 C 307.01 -3.43121 -1.07278 0
M  V30 3442 C 306.674 -4.56879 -0.105214 0
M  V30 3443 C 307.671 -5.15379 0.684149 0
M  V30 3444 C 305.356 -5.023 0.00489824 0
M  V30 3445 C 307.35 -6.17746 1.57062 0
M  V30 3446 C 305.037 -6.04511 0.894935 0
M  V30 3447 C 306.035 -6.62108 1.67637 0
M  V30 3448 O 305.723 -7.62335 2.55149 0
M  V30 3449 H 305.455 -0.665554 -0.118379 0
M  V30 3450 H 308.009 -2.03245 0.296737 0
M  V30 3451 H 306.239 -3.38425 -1.87097 0
M  V30 3452 H 307.928 -3.72093 -1.62177 0
M  V30 3453 H 308.694 -4.81157 0.609365 0
M  V30 3454 H 304.573 -4.57168 -0.593156 0
M  V30 3455 H 308.117 -6.6263 2.181 0
M  V30 3456 H 304.014 -6.38157 0.970847 0
M  V30 3457 H 304.782 -7.79741 2.48892 0
M  V30 3458 N 307.445 0.0818655 -1.57387 0
M  V30 3459 C 308.393 1.11712 -2.04018 0
M  V30 3460 C 309.387 1.40683 -0.94364 0
M  V30 3461 O 310.593 1.40209 -1.12878 0
M  V30 3462 H 306.968 0.377542 -0.650358 0
M  V30 3463 H 308.939 0.697614 -2.90131 0
M  V30 3464 C 307.688 2.42537 -2.49141 0
M  V30 3465 H 307.011 2.21092 -3.33104 0
M  V30 3466 H 308.451 3.13446 -2.85531 0
M  V30 3467 C 306.91 3.0778 -1.37014 0
M  V30 3468 O 307.44 3.95436 -0.706621 0
M  V30 3469 N 305.646 2.68242 -1.11779 0
M  V30 3470 H 305.193 1.97052 -1.65917 0
M  V30 3471 H 305.151 3.1222 -0.369594 0
M  V30 3472 N 308.923 1.53595 0.353017 0
M  V30 3473 C 310.153 1.74058 1.11299 0
M  V30 3474 C 310.561 0.475205 1.83135 0
M  V30 3475 O 309.904 -0.562344 1.74881 0
M  V30 3476 C 309.966 2.85994 2.17825 0
M  V30 3477 C 309.63 4.25923 1.65647 0
M  V30 3478 C 310.627 5.07829 1.11383 0
M  V30 3479 C 308.312 4.72377 1.7078 0
M  V30 3480 C 310.306 6.34285 0.629439 0
M  V30 3481 C 307.993 5.98808 1.21953 0
M  V30 3482 C 308.991 6.79594 0.681265 0
M  V30 3483 O 308.679 8.03651 0.200248 0
M  V30 3484 H 308.411 0.585327 0.338183 0
M  V30 3485 H 310.965 2.01186 0.413927 0
M  V30 3486 H 309.195 2.54368 2.91262 0
M  V30 3487 H 310.884 2.94515 2.79313 0
M  V30 3488 H 311.65 4.73107 1.06746 0
M  V30 3489 H 307.529 4.0956 2.11617 0
M  V30 3490 H 311.073 6.97288 0.208636 0
M  V30 3491 H 306.97 6.33026 1.26287 0
M  V30 3492 H 307.738 8.1788 0.318416 0
M  V30 3493 N 310.401 -0.613514 1.45168 0
M  V30 3494 C 311.678 -1.37263 1.39349 0
M  V30 3495 C 312.058 -2.11012 0.0610848 0
M  V30 3496 O 311.406 -2.07502 -0.956825 0
M  V30 3497 C 311.616 -2.3244 2.60332 0
M  V30 3498 C 312.964 -2.9523 3.05163 0
M  V30 3499 O 313.988 -2.42762 2.60663 0
M  V30 3500 O 312.847 -3.90454 3.82372 0
M  V30 3501 H 309.941 -0.615188 0.552696 0
M  V30 3502 H 312.487 -0.637097 1.57287 0
M  V30 3503 H 311.259 -1.77164 3.48896 0
M  V30 3504 H 310.882 -3.13383 2.44698 0
M  V30 3505 N 311.879 -1.3236 -0.855495 0
M  V30 3506 C 313.128 -1.22226 -1.60448 0
M  V30 3507 C 313.441 0.214733 -1.94418 0
M  V30 3508 O 314.647 0.437917 -2.67945 0
M  V30 3509 C 313.103 -2.14063 -2.89318 0
M  V30 3510 C 312.711 -3.62839 -2.62777 0
M  V30 3511 C 314.455 -2.12764 -3.67331 0
M  V30 3512 C 312.362 -4.4664 -3.87643 0
M  V30 3513 H 311.292 -0.453904 -0.602069 0
M  V30 3514 H 313.943 -1.57314 -0.944698 0
M  V30 3515 H 312.325 -1.71889 -3.5675 0
M  V30 3516 H 313.499 -4.1335 -2.03662 0
M  V30 3517 H 311.814 -3.66261 -1.98096 0
M  V30 3518 H 314.411 -2.72611 -4.59987 0
M  V30 3519 H 314.754 -1.11841 -4.00995 0
M  V30 3520 H 315.287 -2.53214 -3.06802 0
M  V30 3521 H 312.026 -5.48373 -3.5912 0
M  V30 3522 H 311.546 -4.0088 -4.46156 0
M  V30 3523 H 313.225 -4.59597 -4.55389 0
M  V30 3524 N 313.357 1.07166 -1.15556 0
M  V30 3525 C 314.768 1.6127 -0.940693 0
M  V30 3526 C 315.119 1.89251 0.517551 0
M  V30 3527 O 314.244 1.65937 1.38903 0
M  V30 3528 C 314.839 2.92993 -1.7012 0
M  V30 3529 C 313.398 3.43832 -1.53156 0
M  V30 3530 C 312.545 2.1786 -1.71558 0
M  V30 3531 H 315.496 0.90229 -1.30554 0
M  V30 3532 H 315.517 3.62007 -1.17181 0
M  V30 3533 H 315.029 2.72596 -2.76248 0
M  V30 3534 H 313.13 3.69307 -0.494294 0
M  V30 3535 H 313.243 4.19747 -2.30975 0
M  V30 3536 H 311.607 2.2765 -1.14225 0
M  V30 3537 H 312.39 1.99956 -2.79056 0
M  V30 3538 N 314.835 0.952656 1.25548 0
M  V30 3539 C 315.782 0.47008 2.25962 0
M  V30 3540 C 316.752 -0.476384 1.59122 0
M  V30 3541 O 317.937 -0.39007 1.8677 0
M  V30 3542 C 315.077 -0.247881 3.44209 0
M  V30 3543 C 314.19 0.735591 4.25691 0
M  V30 3544 C 313.325 -0.0047306 5.312 0
M  V30 3545 C 312.364 0.969805 6.04368 0
M  V30 3546 N 311.501 0.260486 7.01617 0
M  V30 3547 H 316.341 1.33126 2.66611 0
M  V30 3548 H 313.878 0.66765 1.31076 0
M  V30 3549 H 315.836 -0.680695 4.1161 0
M  V30 3550 H 314.466 -1.07312 3.0444 0
M  V30 3551 H 313.518 1.28689 3.57971 0
M  V30 3552 H 314.83 1.47934 4.76358 0
M  V30 3553 H 313.984 -0.496275 6.04667 0
M  V30 3554 H 312.723 -0.781282 4.81401 0
M  V30 3555 H 311.728 1.47237 5.29718 0
M  V30 3556 H 312.953 1.74655 6.56256 0
M  V30 3557 H 310.899 -0.497364 6.54112 0
M  V30 3558 H 310.816 0.943362 7.50091 0
M  V30 3559 H 312.084 -0.209587 7.79218 0
M  V30 3560 N 316.313 -1.40141 0.720998 0
M  V30 3561 C 317.59 -1.94677 0.189757 0
M  V30 3562 C 317.97 -1.65879 -1.30566 0
M  V30 3563 O 317.318 -0.979391 -2.06447 0
M  V30 3564 C 317.528 -3.45279 0.508304 0
M  V30 3565 C 318.876 -4.22209 0.449934 0
M  V30 3566 O 319.9 -3.53413 0.444677 0
M  V30 3567 O 318.759 -5.44788 0.432189 0
M  V30 3568 H 315.853 -0.826459 0.0299026 0
M  V30 3569 H 318.399 -1.49719 0.7989 0
M  V30 3570 H 317.171 -3.59619 1.54239 0
M  V30 3571 H 316.794 -3.97386 -0.130525 0
M  V30 3572 N 317.792 -0.46758 -1.50504 0
M  V30 3573 C 319.041 0.0902868 -2.01498 0
M  V30 3574 C 319.354 1.411 -1.35463 0
M  V30 3575 O 320.56 2.0536 -1.77594 0
M  V30 3576 C 319.016 0.21142 -3.59278 0
M  V30 3577 C 318.624 -1.10065 -4.34269 0
M  V30 3578 C 320.368 0.721433 -4.18325 0
M  V30 3579 C 318.275 -0.943505 -5.83825 0
M  V30 3580 H 317.205 0.037517 -0.753066 0
M  V30 3581 H 319.856 -0.601943 -1.73346 0
M  V30 3582 H 318.238 0.967352 -3.84003 0
M  V30 3583 H 319.412 -1.86726 -4.21272 0
M  V30 3584 H 317.727 -1.5415 -3.86816 0
M  V30 3585 H 320.324 0.85598 -5.27804 0
M  V30 3586 H 320.667 1.71186 -3.79475 0
M  V30 3587 H 321.2 0.0229843 -3.97793 0
M  V30 3588 H 317.939 -1.90719 -6.27141 0
M  V30 3589 H 317.459 -0.217213 -5.99407 0
M  V30 3590 H 319.138 -0.608715 -6.4413 0
M  V30 3591 N 319.27 1.56325 -0.20005 0
M  V30 3592 C 320.18 2.22931 0.730668 0
M  V30 3593 C 321.196 1.22997 1.23076 0
M  V30 3594 O 322.372 1.55748 1.27689 0
M  V30 3595 C 319.437 2.87948 1.93098 0
M  V30 3596 C 318.498 4.03166 1.47497 0
M  V30 3597 C 317.731 4.65073 2.61807 0
M  V30 3598 O 317.954 4.25913 3.79413 0
M  V30 3599 O 316.888 5.54452 2.34237 0
M  V30 3600 H 320.714 3.03084 0.193391 0
M  V30 3601 H 318.299 1.49371 0.0294621 0
M  V30 3602 H 320.181 3.29063 2.6324 0
M  V30 3603 H 318.856 2.10771 2.45677 0
M  V30 3604 H 317.763 3.66664 0.742201 0
M  V30 3605 H 319.096 4.82022 0.995796 0
M  V30 3606 N 320.748 -0.0735177 1.57428 0
M  V30 3607 C 322.164 -0.428264 1.53747 0
M  V30 3608 C 322.364 -1.79272 0.91998 0
M  V30 3609 O 321.42 -2.47051 0.521745 0
M  V30 3610 C 322.733 -0.370914 2.98404 0
M  V30 3611 C 324.281 -0.451224 3.0973 0
M  V30 3612 C 324.756 -0.4238 4.56035 0
M  V30 3613 N 326.247 -0.483925 4.60665 0
M  V30 3614 C 326.982 -0.484891 5.71346 0
M  V30 3615 N 326.478 -0.440775 6.91396 0
M  V30 3616 N 328.271 -0.531319 5.59583 0
M  V30 3617 H 320.422 0.819949 1.95935 0
M  V30 3618 H 322.685 0.307493 0.896745 0
M  V30 3619 H 322.391 0.564956 3.47133 0
M  V30 3620 H 322.265 -1.18176 3.5821 0
M  V30 3621 H 324.652 -1.37752 2.60976 0
M  V30 3622 H 324.733 0.388167 2.52838 0
M  V30 3623 H 324.377 0.498638 5.05446 0
M  V30 3624 H 324.307 -1.2807 5.10789 0
M  V30 3625 H 326.798 -0.522338 3.74273 0
M  V30 3626 H 327.111 -0.44539 7.71515 0
M  V30 3627 H 325.456 -0.40749 6.93804 0
M  V30 3628 H 328.647 -0.563464 4.64696 0
M  V30 3629 H 328.82 -0.528603 6.4584 0
M  V30 3630 N 322.226 -1.5378 -0.344866 0
M  V30 3631 C 323.174 -1.82373 -1.4437 0
M  V30 3632 C 324.168 -0.694128 -1.54526 0
M  V30 3633 O 325.374 -0.877442 -1.57165 0
M  V30 3634 H 321.749 -0.577765 -0.481344 0
M  V30 3635 H 323.72 -2.74306 -1.17468 0
M  V30 3636 C 322.469 -2.04898 -2.80913 0
M  V30 3637 H 321.792 -2.9127 -2.73865 0
M  V30 3638 H 323.232 -2.28871 -3.56923 0
M  V30 3639 C 321.691 -0.834116 -3.26411 0
M  V30 3640 O 322.221 -0.0328885 -4.01687 0
M  V30 3641 N 320.427 -0.65171 -2.83198 0
M  V30 3642 H 319.974 -1.30489 -2.22104 0
M  V30 3643 H 319.932 0.159686 -3.13994 0
M  V30 3644 N 323.704 0.605807 -1.45491 0
M  V30 3645 C 324.614 1.74466 -1.56839 0
M  V30 3646 C 325.63 1.68006 -0.452772 0
M  V30 3647 O 326.806 1.8833 -0.713708 0
M  V30 3648 C 323.871 3.10931 -1.53371 0
M  V30 3649 C 322.932 3.28832 -2.75986 0
M  V30 3650 C 322.165 4.58787 -2.72673 0
M  V30 3651 O 322.388 5.4122 -1.80102 0
M  V30 3652 O 321.322 4.79438 -3.63899 0
M  V30 3653 H 325.148 1.67843 -2.53106 0
M  V30 3654 H 322.733 0.770108 -1.28022 0
M  V30 3655 H 324.615 3.92233 -1.54051 0
M  V30 3656 H 323.29 3.18042 -0.602572 0
M  V30 3657 H 322.197 2.47112 -2.80867 0
M  V30 3658 H 323.53 3.26599 -3.68231 0
M  V30 3659 N 325.182 1.32811 0.848464 0
M  V30 3660 C 326.428 1.24917 1.60522 0
M  V30 3661 C 326.783 -0.185761 1.91501 0
M  V30 3662 O 326.076 -1.12524 1.55077 0
M  V30 3663 C 326.27 2.04831 2.92881 0
M  V30 3664 C 326.099 3.55949 2.74828 0
M  V30 3665 C 324.869 4.25277 2.72887 0
M  V30 3666 C 327.067 4.50476 2.48145 0
M  V30 3667 N 325.049 5.62408 2.46111 0
M  V30 3668 C 326.42 5.75427 2.30832 0
M  V30 3669 C 328.475 4.39665 2.33664 0
M  V30 3670 C 327.178 6.90789 2.00508 0
M  V30 3671 C 329.204 5.54833 2.04731 0
M  V30 3672 C 328.566 6.78787 1.88223 0
M  V30 3673 H 324.665 0.512279 0.590842 0
M  V30 3674 H 327.249 1.67246 0.996839 0
M  V30 3675 H 325.42 1.64837 3.51686 0
M  V30 3676 H 327.152 1.88782 3.57971 0
M  V30 3677 H 323.907 3.77456 2.86049 0
M  V30 3678 H 324.331 6.3467 2.35634 0
M  V30 3679 H 328.973 3.44477 2.45144 0
M  V30 3680 H 326.691 7.85984 1.87765 0
M  V30 3681 H 330.277 5.48398 1.94295 0
M  V30 3682 H 329.157 7.66396 1.66155 0
M  V30 3683 N 326.66 -1.06551 1.16123 0
M  V30 3684 C 327.59 -2.15935 0.88851 0
M  V30 3685 C 328.571 -1.69306 -0.164135 0
M  V30 3686 O 329.756 -1.94193 -0.0167857 0
M  V30 3687 C 326.886 -3.45149 0.385942 0
M  V30 3688 C 325.84 -4.05271 1.3762 0
M  V30 3689 C 325.166 -5.29664 0.732137 0
M  V30 3690 C 326.466 -4.44355 2.74493 0
M  V30 3691 H 328.16 -2.39006 1.80323 0
M  V30 3692 H 325.706 -1.14866 0.868435 0
M  V30 3693 H 327.659 -4.21004 0.182647 0
M  V30 3694 H 326.383 -3.21689 -0.564274 0
M  V30 3695 H 325.042 -3.3147 1.56599 0
M  V30 3696 H 324.69 -5.02499 -0.224483 0
M  V30 3697 H 324.39 -5.70848 1.39307 0
M  V30 3698 H 325.914 -6.08218 0.538802 0
M  V30 3699 H 327.328 -5.11303 2.59311 0
M  V30 3700 H 325.725 -4.96515 3.37035 0
M  V30 3701 H 326.795 -3.55339 3.29943 0
M  V30 3702 N 328.138 -0.959301 -1.25041 0
M  V30 3703 C 329.085 -0.482057 -2.2571 0
M  V30 3704 C 330.055 0.467939 -1.59372 0
M  V30 3705 O 331.24 0.380159 -1.86974 0
M  V30 3706 C 328.38 0.229623 -3.44335 0
M  V30 3707 C 327.493 -0.758156 -4.25295 0
M  V30 3708 C 326.628 -0.0234403 -5.31195 0
M  V30 3709 C 325.667 -1.00184 -6.03846 0
M  V30 3710 N 324.804 -0.29769 -7.01469 0
M  V30 3711 H 329.644 -1.34538 -2.65901 0
M  V30 3712 H 327.181 -0.674592 -1.3072 0
M  V30 3713 H 329.139 0.658856 -4.11965 0
M  V30 3714 H 327.769 1.05696 -3.05005 0
M  V30 3715 H 326.821 -1.30586 -3.57284 0
M  V30 3716 H 328.133 -1.50458 -4.75567 0
M  V30 3717 H 327.287 0.464201 -6.04922 0
M  V30 3718 H 326.026 0.755741 -4.81809 0
M  V30 3719 H 325.031 -1.50044 -5.2893 0
M  V30 3720 H 326.256 -1.78133 -6.55321 0
M  V30 3721 H 324.202 0.462668 -6.54366 0
M  V30 3722 H 324.119 -0.983128 -7.4958 0
M  V30 3723 H 325.387 0.16826 -7.79318 0
M  V30 3724 N 329.616 1.39756 -0.72842 0
M  V30 3725 C 330.579 2.29012 -0.0927297 0
M  V30 3726 C 331.579 1.45992 0.674025 0
M  V30 3727 O 332.769 1.66749 0.50402 0
M  V30 3728 C 329.901 3.29396 0.878137 0
M  V30 3729 H 331.094 2.86729 -0.879011 0
M  V30 3730 H 328.647 1.48293 -0.493847 0
M  V30 3731 H 329.382 2.76722 1.69101 0
M  V30 3732 H 329.167 3.907 0.331051 0
M  V30 3733 H 330.657 3.96199 1.3197 0
M  V30 3734 N 331.094 0.475555 1.50254 0
M  V30 3735 C 332.324 -0.0753399 2.06463 0
M  V30 3736 C 332.732 -1.33661 1.33908 0
M  V30 3737 O 332.075 -1.79219 0.403257 0
M  V30 3738 C 332.137 -0.424921 3.5698 0
M  V30 3739 C 331.801 0.734965 4.51051 0
M  V30 3740 C 332.798 1.61827 4.94073 0
M  V30 3741 C 330.483 0.926557 4.9368 0
M  V30 3742 C 332.477 2.67754 5.78434 0
M  V30 3743 C 330.164 1.98904 5.77824 0
M  V30 3744 C 331.162 2.8629 6.20103 0
M  V30 3745 O 330.85 3.90708 7.02568 0
M  V30 3746 H 330.582 0.00576308 0.675975 0
M  V30 3747 H 333.136 0.664662 1.94349 0
M  V30 3748 H 331.366 -1.21817 3.67012 0
M  V30 3749 H 333.055 -0.911422 3.95535 0
M  V30 3750 H 333.821 1.48196 4.61804 0
M  V30 3751 H 329.7 0.25584 4.6029 0
M  V30 3752 H 333.244 3.35992 6.11355 0
M  V30 3753 H 329.141 2.12541 6.09505 0
M  V30 3754 H 329.909 3.87751 7.20827 0
M  V30 3755 N 332.573 -1.56217 0.208337 0
M  V30 3756 C 333.803 -2.02043 -0.431523 0
M  V30 3757 C 334.211 -1.08755 -1.54819 0
M  V30 3758 O 333.554 -0.0870009 -1.83494 0
M  V30 3759 C 333.616 -3.44239 -1.03633 0
M  V30 3760 C 333.28 -4.56965 -0.0567502 0
M  V30 3761 C 334.277 -5.14624 0.738773 0
M  V30 3762 C 331.962 -5.02266 0.0581736 0
M  V30 3763 C 333.956 -6.16045 1.63605 0
M  V30 3764 C 331.643 -6.03528 0.959001 0
M  V30 3765 C 332.641 -6.60293 1.7465 0
M  V30 3766 O 332.329 -7.59586 2.6322 0
M  V30 3767 H 332.061 -0.666772 -0.111313 0
M  V30 3768 H 334.615 -2.02919 0.318277 0
M  V30 3769 H 332.845 -3.40391 -1.83497 0
M  V30 3770 H 334.534 -3.73793 -1.58221 0
M  V30 3771 H 335.3 -4.80483 0.660364 0
M  V30 3772 H 331.179 -4.57771 -0.544633 0
M  V30 3773 H 334.723 -6.60279 2.25116 0
M  V30 3774 H 330.62 -6.37092 1.03848 0
M  V30 3775 H 331.388 -7.77057 2.57148 0
M  V30 3776 N 334.051 0.0651679 -1.57465 0
M  V30 3777 C 335.281 0.774683 -1.91526 0
M  V30 3778 C 335.689 1.71305 -0.803196 0
M  V30 3779 O 335.032 1.82231 0.231881 0
M  V30 3780 C 335.094 1.61645 -3.21109 0
M  V30 3781 C 334.758 0.846753 -4.49087 0
M  V30 3782 C 335.755 0.163024 -5.19644 0
M  V30 3783 C 333.44 0.811966 -4.95694 0
M  V30 3784 C 335.434 -0.54519 -6.35064 0
M  V30 3785 C 333.121 0.0999836 -6.11018 0
M  V30 3786 C 334.119 -0.577388 -6.80555 0
M  V30 3787 O 333.807 -1.27789 -7.93678 0
M  V30 3788 H 333.539 0.225031 -0.637446 0
M  V30 3789 H 336.093 0.0377134 -2.05365 0
M  V30 3790 H 334.323 2.39638 -3.03497 0
M  V30 3791 H 336.012 2.20525 -3.40769 0
M  V30 3792 H 336.778 0.181163 -4.84662 0
M  V30 3793 H 332.657 1.32867 -4.41438 0
M  V30 3794 H 336.201 -1.07446 -6.89276 0
M  V30 3795 H 332.098 0.0797945 -6.45451 0
M  V30 3796 H 332.866 -1.18784 -8.09835 0
M  V30 3797 N 335.529 1.53961 0.336706 0
M  V30 3798 C 336.462 1.77255 1.43722 0
M  V30 3799 C 337.44 0.62193 1.50236 0
M  V30 3800 O 338.624 0.857874 1.67847 0
M  V30 3801 C 335.751 1.87733 2.81912 0
M  V30 3802 C 334.797 3.09933 2.92991 0
M  V30 3803 S 335.63 4.68836 2.58753 0
M  V30 3804 C 336.786 4.82202 3.99039 0
M  V30 3805 H 337.019 2.70322 1.23748 0
M  V30 3806 H 334.552 1.44917 0.532777 0
M  V30 3807 H 336.51 1.94455 3.61521 0
M  V30 3808 H 335.171 0.956666 2.99177 0
M  V30 3809 H 334.364 3.1396 3.94265 0
M  V30 3810 H 333.966 3.01472 2.21338 0
M  V30 3811 H 336.258 4.64032 4.9364 0
M  V30 3812 H 337.201 5.84298 4.00002 0
M  V30 3813 H 337.609 4.10604 3.87382 0
M  V30 3814 N 337.007 -0.598083 1.45811 0
M  V30 3815 C 338.235 -1.38322 1.53866 0
M  V30 3816 C 338.65 -1.87992 0.174479 0
M  V30 3817 O 338.007 -1.62756 -0.825627 0
M  V30 3818 C 338.058 -2.58125 2.53089 0
M  V30 3819 O 337.779 -2.10516 3.84206 0
M  V30 3820 C 339.28 -3.50869 2.70935 0
M  V30 3821 H 336.5 -0.423093 0.520801 0
M  V30 3822 H 339.044 -0.728527 1.91083 0
M  V30 3823 H 337.199 -3.19615 2.18917 0
M  V30 3824 H 337.613 -2.88425 4.38077 0
M  V30 3825 H 339.087 -4.31451 3.44317 0
M  V30 3826 H 339.564 -4.01822 1.77301 0
M  V30 3827 H 340.17 -2.95225 3.06141 0
M  V30 3828 N 338.485 -1.33259 -0.841409 0
M  V30 3829 C 339.762 -1.15174 -1.58096 0
M  V30 3830 C 340.142 0.282858 -2.09196 0
M  V30 3831 O 339.49 1.28151 -1.89181 0
M  V30 3832 C 339.7 -2.1907 -2.71679 0
M  V30 3833 C 341.048 -2.53093 -3.40924 0
M  V30 3834 O 342.072 -2.17717 -2.81918 0
M  V30 3835 O 340.931 -3.1379 -4.47435 0
M  V30 3836 H 338.025 -0.445303 -0.696875 0
M  V30 3837 H 340.571 -1.44833 -0.884385 0
M  V30 3838 H 339.343 -3.15443 -2.31541 0
M  V30 3839 H 338.966 -1.90481 -3.49002 0
M  V30 3840 N 339.963 1.05934 -1.16686 0
M  V30 3841 C 341.212 1.78188 -0.945085 0
M  V30 3842 C 341.525 1.88338 0.528021 0
M  V30 3843 O 342.731 2.57258 0.867799 0
M  V30 3844 C 341.187 3.20277 -1.64167 0
M  V30 3845 C 340.795 3.18281 -3.15279 0
M  V30 3846 C 342.539 3.97039 -1.502 0
M  V30 3847 C 340.446 4.55112 -3.7766 0
M  V30 3848 H 339.376 0.667866 -0.349959 0
M  V30 3849 H 342.027 1.18794 -1.39858 0
M  V30 3850 H 340.409 3.79952 -1.11589 0
M  V30 3851 H 341.583 2.68167 -3.74731 0
M  V30 3852 H 339.898 2.55018 -3.29173 0
M  V30 3853 H 342.495 4.98194 -1.94183 0
M  V30 3854 H 342.838 4.13845 -0.451461 0
M  V30 3855 H 343.371 3.43894 -1.99954 0
M  V30 3856 H 340.11 4.43512 -4.82677 0
M  V30 3857 H 339.63 5.05406 -3.22994 0
M  V30 3858 H 341.309 5.24064 -3.79428 0
M  V30 3859 N 341.441 0.965919 1.2453 0
M  V30 3860 C 342.371 0.513476 2.27784 0
M  V30 3861 C 343.352 -0.445974 1.6415 0
M  V30 3862 O 344.537 -0.342485 1.91156 0
M  V30 3863 C 341.667 -0.198839 3.4673 0
M  V30 3864 C 340.621 0.676456 4.2262 0
M  V30 3865 C 339.947 -0.167248 5.34438 0
M  V30 3866 C 341.247 1.96017 4.84123 0
M  V30 3867 H 342.941 1.3765 2.65881 0
M  V30 3868 H 340.487 0.663321 1.27813 0
M  V30 3869 H 342.44 -0.526567 4.18097 0
M  V30 3870 H 341.164 -1.0962 3.07654 0
M  V30 3871 H 339.823 0.98743 3.53052 0
M  V30 3872 H 339.471 -1.0647 4.91603 0
M  V30 3873 H 339.171 0.415181 5.86131 0
M  V30 3874 H 340.695 -0.489688 6.08633 0
M  V30 3875 H 342.109 1.69814 5.47573 0
M  V30 3876 H 340.506 2.48918 5.4604 0
M  V30 3877 H 341.576 2.65622 4.05676 0
M  V30 3878 N 342.919 -1.39368 0.735821 0
M  V30 3879 C 343.849 -2.33234 0.111506 0
M  V30 3880 C 344.83 -1.53954 -0.723334 0
M  V30 3881 O 346.015 -1.82344 -0.668147 0
M  V30 3882 C 343.145 -3.38057 -0.795917 0
M  V30 3883 C 342.099 -4.2795 -0.065172 0
M  V30 3884 C 341.425 -5.23479 -1.08967 0
M  V30 3885 C 342.725 -5.10741 1.09273 0
M  V30 3886 H 344.419 -2.85692 0.895571 0
M  V30 3887 H 341.965 -1.37364 0.432109 0
M  V30 3888 H 343.918 -4.02675 -1.24221 0
M  V30 3889 H 342.642 -2.8404 -1.61211 0
M  V30 3890 H 341.301 -3.64813 0.361511 0
M  V30 3891 H 340.949 -4.65758 -1.89944 0
M  V30 3892 H 340.649 -5.84472 -0.605489 0
M  V30 3893 H 342.173 -5.90974 -1.53565 0
M  V30 3894 H 343.587 -5.68699 0.724841 0
M  V30 3895 H 341.984 -5.8088 1.50659 0
M  V30 3896 H 343.054 -4.45525 1.91404 0
M  V30 3897 N 344.397 -0.483516 -1.5 0
M  V30 3898 C 345.646 0.0689102 -2.01582 0
M  V30 3899 C 345.959 1.39655 -1.36952 0
M  V30 3900 O 347.165 2.03465 -1.79762 0
M  V30 3901 C 345.621 0.173302 -3.59483 0
M  V30 3902 C 345.229 -1.14665 -4.33077 0
M  V30 3903 C 346.973 0.677024 -4.19066 0
M  V30 3904 C 344.88 -1.00537 -5.82792 0
M  V30 3905 H 343.81 0.0295277 -0.753422 0
M  V30 3906 H 346.461 -0.620295 -1.72698 0
M  V30 3907 H 344.843 0.926569 -3.85007 0
M  V30 3908 H 346.017 -1.91184 -4.19268 0
M  V30 3909 H 344.332 -1.58244 -3.85159 0
M  V30 3910 H 346.929 0.799952 -5.28682 0
M  V30 3911 H 347.272 1.67151 -3.81269 0
M  V30 3912 H 347.805 -0.0192083 -3.97795 0
M  V30 3913 H 344.544 -1.9736 -6.25083 0
M  V30 3914 H 344.064 -0.280776 -5.99142 0
M  V30 3915 H 345.743 -0.677 -6.43448 0
M  V30 3916 N 345.875 1.56104 -0.216619 0
M  V30 3917 C 346.823 2.21434 0.712036 0
M  V30 3918 C 347.817 1.19218 1.20348 0
M  V30 3919 O 349.023 1.3731 1.16387 0
M  V30 3920 H 345.398 0.70992 0.248026 0
M  V30 3921 H 347.369 2.98083 0.137558 0
M  V30 3922 C 346.118 2.90434 1.91163 0
M  V30 3923 H 345.441 3.68842 1.54258 0
M  V30 3924 H 346.881 3.39552 2.5393 0
M  V30 3925 C 345.34 1.92635 2.76394 0
M  V30 3926 O 345.87 1.44017 3.74996 0
M  V30 3927 N 344.076 1.60392 2.42328 0
M  V30 3928 H 343.623 2.00122 1.622 0
M  V30 3929 H 343.581 0.952159 2.99635 0
M  V30 3930 N 347.353 -0.0568162 1.57498 0
M  V30 3931 C 348.263 -1.08346 2.08083 0
M  V30 3932 C 349.279 -1.41439 1.01346 0
M  V30 3933 O 350.455 -1.51316 1.32912 0
M  V30 3934 C 347.52 -2.37352 2.52715 0
M  V30 3935 C 346.581 -2.11093 3.73816 0
M  V30 3936 C 345.814 -3.33949 4.1631 0
M  V30 3937 O 346.037 -4.43622 3.58547 0
M  V30 3938 O 344.971 -3.21279 5.08983 0
M  V30 3939 H 348.797 -0.683667 2.95905 0
M  V30 3940 H 346.382 -0.271965 1.46904 0
M  V30 3941 H 348.264 -3.13246 2.81877 0
M  V30 3942 H 346.939 -2.76681 1.68016 0
M  V30 3943 H 345.846 -1.32856 3.49714 0
M  V30 3944 H 347.179 -1.76637 4.59413 0
M  V30 3945 N 348.832 -1.54138 -0.328536 0
M  V30 3946 C 349.78 -1.83894 -1.42428 0
M  V30 3947 C 350.774 -0.710478 -1.53781 0
M  V30 3948 O 351.98 -0.894062 -1.56226 0
M  V30 3949 H 348.355 -0.582837 -0.475189 0
M  V30 3950 H 350.326 -2.75537 -1.14552 0
M  V30 3951 C 349.075 -2.07866 -2.78724 0
M  V30 3952 H 348.398 -2.94158 -2.7076 0
M  V30 3953 H 349.838 -2.32644 -3.54476 0
M  V30 3954 C 348.297 -0.868689 -3.25508 0
M  V30 3955 O 348.827 -0.0754908 -4.01629 0
M  V30 3956 N 347.033 -0.681711 -2.82491 0
M  V30 3957 H 346.58 -1.32838 -2.20708 0
M  V30 3958 H 346.538 0.126374 -3.14146 0
M  V30 3959 N 350.31 0.590341 -1.46126 0
M  V30 3960 C 351.257 1.69994 -1.56111 0
M  V30 3961 C 352.227 1.61065 -0.405867 0
M  V30 3962 O 353.412 1.8039 -0.621613 0
M  V30 3963 C 350.552 3.08326 -1.55013 0
M  V30 3964 C 349.665 3.27936 -2.81215 0
M  V30 3965 C 348.8 4.56473 -2.71673 0
M  V30 3966 C 347.839 4.694 -3.92849 0
M  V30 3967 N 346.976 5.89254 -3.81738 0
M  V30 3968 H 351.816 1.60797 -2.50895 0
M  V30 3969 H 349.353 0.783799 -1.24479 0
M  V30 3970 H 351.311 3.88383 -1.52362 0
M  V30 3971 H 349.941 3.16439 -0.637667 0
M  V30 3972 H 348.993 2.41536 -2.93879 0
M  V30 3973 H 350.305 3.33357 -3.71045 0
M  V30 3974 H 349.459 5.44748 -2.67085 0
M  V30 3975 H 348.198 4.53477 -1.7947 0
M  V30 3976 H 347.203 3.79544 -3.97777 0
M  V30 3977 H 348.428 4.7418 -4.86138 0
M  V30 3978 H 346.374 5.87271 -2.92317 0
M  V30 3979 H 346.291 5.95911 -4.65217 0
M  V30 3980 H 347.559 6.79981 -3.81112 0
M  V30 3981 N 351.788 1.33704 0.83433 0
M  V30 3982 C 353.035 1.25417 1.58987 0
M  V30 3983 C 353.363 -0.178869 1.93676 0
M  V30 3984 O 352.618 -1.13723 1.59265 0
M  V30 3985 C 352.917 2.07926 2.90692 0
M  V30 3986 C 352.583 3.57066 2.75345 0
M  V30 3987 C 351.245 3.97724 2.70867 0
M  V30 3988 C 353.597 4.51817 2.59828 0
M  V30 3989 C 350.925 5.31344 2.48778 0
M  V30 3990 C 353.277 5.85604 2.39272 0
M  V30 3991 C 351.941 6.25439 2.33199 0
M  V30 3992 H 351.211 0.458934 0.581774 0
M  V30 3993 H 353.858 1.65335 0.966261 0
M  V30 3994 H 352.163 1.608 3.57282 0
M  V30 3995 H 353.86 1.98868 3.48213 0
M  V30 3996 H 350.45 3.24785 2.79665 0
M  V30 3997 H 354.634 4.21311 2.62319 0
M  V30 3998 H 349.89 5.61241 2.42526 0
M  V30 3999 H 354.064 6.58623 2.2625 0
M  V30 4000 H 351.691 7.28914 2.15843 0
M  V30 4001 N 353.266 -1.05314 1.17247 0
M  V30 4002 C 354.216 -2.11313 0.856196 0
M  V30 4003 C 355.2 -1.60013 -0.168694 0
M  V30 4004 O 356.392 -1.76968 0.0335624 0
M  V30 4005 C 353.521 -3.41301 0.369917 0
M  V30 4006 C 352.607 -3.99401 1.42616 0
M  V30 4007 N 352.998 -4.31481 2.63928 0
M  V30 4008 C 351.296 -4.27126 1.28373 0
M  V30 4009 C 351.997 -4.77799 3.31787 0
M  V30 4010 N 350.973 -4.77843 2.59166 0
M  V30 4011 H 354.775 -2.33976 1.77856 0
M  V30 4012 H 352.289 -1.2295 1.06099 0
M  V30 4013 H 354.286 -4.16713 0.124897 0
M  V30 4014 H 352.946 -3.20072 -0.546253 0
M  V30 4015 H 353.957 -4.21519 3.00902 0
M  V30 4016 H 350.634 -4.15289 0.429111 0
M  V30 4017 H 352.024 -5.11743 4.35395 0
M  V30 4018 N 354.744 -0.972509 -1.24016 0
M  V30 4019 C 355.692 -0.498562 -2.27194 0
M  V30 4020 C 356.686 0.440372 -1.63576 0
M  V30 4021 O 357.892 0.315133 -1.7722 0
M  V30 4022 H 354.267 -0.142775 -0.738322 0
M  V30 4023 H 356.238 -1.38065 -2.64539 0
M  V30 4024 C 354.987 0.191072 -3.47175 0
M  V30 4025 H 354.31 -0.522318 -3.96373 0
M  V30 4026 H 355.75 0.486445 -4.212 0
M  V30 4027 C 354.209 1.41967 -3.05527 0
M  V30 4028 O 354.739 2.51642 -3.13112 0
M  V30 4029 N 352.945 1.28746 -2.60524 0
M  V30 4030 H 352.492 0.395089 -2.54552 0
M  V30 4031 H 352.45 2.11061 -2.33025 0
M  V30 4032 N 356.222 1.38976 -0.743202 0
M  V30 4033 C 357.452 2.04339 -0.304807 0
M  V30 4034 C 357.86 1.56162 1.06819 0
M  V30 4035 O 357.203 0.725284 1.68776 0
M  V30 4036 C 357.265 3.58716 -0.237369 0
M  V30 4037 C 356.929 4.29905 -1.55018 0
M  V30 4038 C 357.926 4.55987 -2.49744 0
M  V30 4039 C 355.611 4.68294 -1.81675 0
M  V30 4040 C 357.605 5.19478 -3.69353 0
M  V30 4041 C 355.292 5.31512 -3.0156 0
M  V30 4042 C 356.29 5.57037 -3.9522 0
M  V30 4043 O 355.978 6.18941 -5.12998 0
M  V30 4044 H 355.71 0.663439 -0.12971 0
M  V30 4045 H 358.264 1.78852 -1.01001 0
M  V30 4046 H 356.494 3.83133 0.524003 0
M  V30 4047 H 358.183 4.05543 0.170121 0
M  V30 4048 H 358.949 4.26767 -2.30423 0
M  V30 4049 H 354.828 4.47779 -1.09615 0
M  V30 4050 H 358.372 5.39318 -4.42473 0
M  V30 4051 H 354.269 5.60153 -3.20778 0
M  V30 4052 H 355.037 6.37433 -5.13441 0
M  V30 4053 N 357.7 0.491464 1.49741 0
M  V30 4054 C 358.947 -0.0564256 2.02421 0
M  V30 4055 C 359.275 -1.37872 1.37192 0
M  V30 4056 O 358.53 -1.89375 0.493508 0
M  V30 4057 C 358.829 -0.267329 3.56399 0
M  V30 4058 C 358.495 0.975775 4.40215 0
M  V30 4059 C 357.157 1.31655 4.62839 0
M  V30 4060 C 359.509 1.80251 4.89039 0
M  V30 4061 C 356.837 2.48375 5.31532 0
M  V30 4062 C 359.189 2.96116 5.59015 0
M  V30 4063 C 357.853 3.30585 5.79888 0
M  V30 4064 H 357.123 -0.0206476 0.740712 0
M  V30 4065 H 359.77 0.649686 1.80143 0
M  V30 4066 H 358.075 -1.05588 3.77304 0
M  V30 4067 H 359.772 -0.705549 3.94744 0
M  V30 4068 H 356.362 0.700315 4.2284 0
M  V30 4069 H 360.546 1.55239 4.71396 0
M  V30 4070 H 355.802 2.7533 5.45897 0
M  V30 4071 H 359.976 3.60509 5.95824 0
M  V30 4072 H 357.603 4.21132 6.32892 0
M  V30 4073 N 359.178 -1.55987 0.224894 0
M  V30 4074 C 360.408 -2.02489 -0.41007 0
M  V30 4075 C 360.816 -1.10391 -1.53657 0
M  V30 4076 O 360.159 -0.106458 -1.83391 0
M  V30 4077 C 360.221 -3.45319 -0.999757 0
M  V30 4078 C 359.885 -4.56999 -0.00827976 0
M  V30 4079 C 360.882 -5.13812 0.793314 0
M  V30 4080 C 358.567 -5.02176 0.111442 0
M  V30 4081 C 360.561 -6.14276 1.7013 0
M  V30 4082 C 358.248 -6.02477 1.02296 0
M  V30 4083 C 359.246 -6.58403 1.81643 0
M  V30 4084 O 358.934 -7.56751 2.71262 0
M  V30 4085 H 358.666 -0.667915 -0.104235 0
M  V30 4086 H 361.22 -2.0257 0.339782 0
M  V30 4087 H 359.45 -3.42318 -1.79876 0
M  V30 4088 H 361.139 -3.7545 -1.54248 0
M  V30 4089 H 361.905 -4.79756 0.711288 0
M  V30 4090 H 357.784 -4.58323 -0.49605 0
M  V30 4091 H 361.328 -6.57854 2.32107 0
M  V30 4092 H 357.225 -6.35954 1.10599 0
M  V30 4093 H 357.993 -7.74286 2.65375 0
M  V30 4094 N 360.656 0.0484629 -1.57525 0
M  V30 4095 C 361.606 1.06246 -2.01732 0
M  V30 4096 C 362.59 1.33155 -0.903245 0
M  V30 4097 O 363.782 1.33065 -1.16717 0
M  V30 4098 C 360.911 2.36943 -2.48421 0
M  V30 4099 C 359.997 2.13208 -3.6661 0
M  V30 4100 N 360.388 1.5947 -4.80003 0
M  V30 4101 C 358.686 2.43581 -3.7361 0
M  V30 4102 C 359.387 1.51092 -5.61735 0
M  V30 4103 N 358.363 1.9797 -5.0627 0
M  V30 4104 H 362.165 0.640675 -2.86832 0
M  V30 4105 H 359.679 0.255134 -1.60383 0
M  V30 4106 H 361.676 3.10374 -2.78341 0
M  V30 4107 H 360.336 2.79818 -1.64718 0
M  V30 4108 H 361.347 1.28008 -5.01831 0
M  V30 4109 H 358.024 2.89662 -3.00669 0
M  V30 4110 H 359.414 1.10199 -6.62801 0
M  V30 4111 N 362.134 1.5431 0.320358 0
M  V30 4112 C 363.064 1.86912 1.3995 0
M  V30 4113 C 364.045 0.726211 1.53819 0
M  V30 4114 O 365.23 0.980233 1.67646 0
M  V30 4115 C 362.36 2.09932 2.7667 0
M  V30 4116 C 361.314 3.25776 2.77586 0
M  V30 4117 C 360.64 3.34173 4.17412 0
M  V30 4118 C 361.94 4.6335 2.41048 0
M  V30 4119 H 363.634 2.77292 1.12914 0
M  V30 4120 H 361.18 1.33421 0.541738 0
M  V30 4121 H 363.133 2.31324 3.52232 0
M  V30 4122 H 361.857 1.16304 3.0519 0
M  V30 4123 H 360.516 3.04276 2.04479 0
M  V30 4124 H 360.164 2.38098 4.43078 0
M  V30 4125 H 359.864 4.12033 4.18931 0
M  V30 4126 H 361.388 3.57803 4.94782 0
M  V30 4127 H 362.802 4.84602 3.06324 0
M  V30 4128 H 361.199 5.43782 2.53813 0
M  V30 4129 H 362.269 4.65381 1.36193 0
M  V30 4130 N 363.613 -0.582584 1.46437 0
M  V30 4131 C 364.862 -1.337 1.5102 0
M  V30 4132 C 365.175 -1.94891 0.166359 0
M  V30 4133 O 366.381 -2.71351 0.0899954 0
M  V30 4134 C 364.837 -2.42315 2.66104 0
M  V30 4135 C 364.445 -1.87427 4.06909 0
M  V30 4136 C 366.189 -3.19099 2.79958 0
M  V30 4137 C 364.096 -2.93672 5.13333 0
M  V30 4138 H 363.026 -0.502619 0.562041 0
M  V30 4139 H 365.677 -0.621701 1.72647 0
M  V30 4140 H 364.059 -3.16645 2.37807 0
M  V30 4141 H 365.233 -1.19639 4.44998 0
M  V30 4142 H 363.548 -1.2331 3.97723 0
M  V30 4143 H 366.145 -3.9839 3.56636 0
M  V30 4144 H 366.488 -3.71695 1.87479 0
M  V30 4145 H 367.021 -2.51875 3.07902 0
M  V30 4146 H 363.76 -2.45962 6.07604 0
M  V30 4147 H 363.28 -3.59948 4.79789 0
M  V30 4148 H 364.959 -3.5762 5.39182 0
M  V30 4149 N 365.091 -1.34144 -0.827227 0
M  V30 4150 C 366.316 -1.29476 -1.62021 0
M  V30 4151 C 366.741 0.129292 -1.87655 0
M  V30 4152 O 366.099 1.08967 -1.449 0
M  V30 4153 C 366.147 -2.08702 -2.94068 0
M  V30 4154 O 365.251 -1.45359 -3.85933 0
M  V30 4155 H 364.592 -0.444881 -0.492927 0
M  V30 4156 H 367.122 -1.76882 -1.02829 0
M  V30 4157 H 367.132 -2.19898 -3.43669 0
M  V30 4158 H 365.807 -3.12241 -2.74734 0
M  V30 4159 H 364.384 -1.42879 -3.44442 0
M  V30 4160 N 366.569 1.04691 -1.17803 0
M  V30 4161 C 367.799 1.81183 -0.992788 0
M  V30 4162 C 368.207 1.8347 0.462098 0
M  V30 4163 O 367.55 1.2643 1.33271 0
M  V30 4164 C 367.612 3.28363 -1.46349 0
M  V30 4165 C 367.276 3.49749 -2.94151 0
M  V30 4166 C 368.273 3.41456 -3.92051 0
M  V30 4167 C 365.958 3.76548 -3.32441 0
M  V30 4168 C 367.952 3.59656 -5.26238 0
M  V30 4169 C 365.639 3.94396 -4.66792 0
M  V30 4170 C 366.637 3.8595 -5.635 0
M  V30 4171 O 366.325 4.03294 -6.9542 0
M  V30 4172 H 366.057 0.577622 -0.351182 0
M  V30 4173 H 368.611 1.32876 -1.5663 0
M  V30 4174 H 366.841 3.77609 -0.833574 0
M  V30 4175 H 368.53 3.86395 -1.24313 0
M  V30 4176 H 369.296 3.20723 -3.63815 0
M  V30 4177 H 365.175 3.82224 -2.57732 0
M  V30 4178 H 368.719 3.52979 -6.01707 0
M  V30 4179 H 364.616 4.14622 -4.94731 0
M  V30 4180 H 365.384 4.2049 -7.02232 0
M  V30 4181 N 368.047 0.979072 1.23499 0
M  V30 4182 C 369.295 0.645941 1.91499 0
M  V30 4183 C 369.616 -0.822948 1.76784 0
M  V30 4184 O 368.886 -1.58854 1.14639 0
M  V30 4185 H 367.466 0.235919 0.708767 0
M  V30 4186 H 370.128 1.2426 1.50152 0
M  V30 4187 H 369.224 0.896411 2.9895 0
M  V30 4188 N 369.525 -1.3858 0.750561 0
M  V30 4189 C 370.472 -2.30483 0.120835 0
M  V30 4190 C 371.442 -1.50022 -0.712923 0
M  V30 4191 O 372.627 -1.78662 -0.669676 0
M  V30 4192 C 369.767 -3.36431 -0.768666 0
M  V30 4193 C 368.88 -4.31927 0.0793922 0
M  V30 4194 C 368.015 -5.24944 -0.81283 0
M  V30 4195 C 367.054 -6.12088 0.0390447 0
M  V30 4196 N 366.191 -6.97412 -0.809969 0
M  V30 4197 H 371.031 -2.83761 0.91015 0
M  V30 4198 H 368.568 -1.39707 0.460463 0
M  V30 4199 H 370.526 -3.96462 -1.29898 0
M  V30 4200 H 369.156 -2.8457 -1.5238 0
M  V30 4201 H 368.208 -3.73382 0.727303 0
M  V30 4202 H 369.52 -4.93319 0.737401 0
M  V30 4203 H 368.674 -5.90078 -1.41042 0
M  V30 4204 H 367.413 -4.63911 -1.50458 0
M  V30 4205 H 366.418 -5.45952 0.649328 0
M  V30 4206 H 367.643 -6.75189 0.727809 0
M  V30 4207 H 365.589 -6.38931 -1.48672 0
M  V30 4208 H 365.506 -7.55712 -0.208789 0
M  V30 4209 H 366.774 -7.66959 -1.39263 0
M  V30 4210 N 371.003 -0.499398 -1.49478 0
M  V30 4211 C 372.243 0.0440751 -2.04352 0
M  V30 4212 C 372.607 1.34423 -1.37093 0
M  V30 4213 O 373.808 1.97184 -1.82679 0
M  V30 4214 C 372.079 0.194918 -3.56868 0
M  V30 4215 S 373.638 0.69287 -4.33295 0
M  V30 4216 H 370.456 0.00253458 -0.710995 0
M  V30 4217 H 373.058 -0.673 -1.83551 0
M  V30 4218 H 371.762 -0.756672 -4.03364 0
M  V30 4219 H 371.293 0.93728 -3.82071 0
M  V30 4220 H 373.308 1.96226 -4.55752 0
M  V30 4221 N 372.481 1.55866 -0.233164 0
M  V30 4222 C 373.758 1.90471 0.444988 0
M  V30 4223 C 374.138 1.15209 1.7689 0
M  V30 4224 O 373.486 0.265119 2.26957 0
M  V30 4225 C 373.696 3.4333 0.626559 0
M  V30 4226 C 375.044 4.14319 0.92871 0
M  V30 4227 O 376.068 3.48993 0.712926 0
M  V30 4228 O 374.927 5.29846 1.33887 0
M  V30 4229 H 372.021 0.792347 0.236885 0
M  V30 4230 H 374.567 1.67437 -0.276211 0
M  V30 4231 H 373.339 3.90095 -0.306822 0
M  V30 4232 H 372.962 3.72181 1.39881 0
M  V30 4233 N 373.959 -0.0401083 1.57549 0
M  V30 4234 C 374.906 -1.04413 2.05831 0
M  V30 4235 C 375.876 -1.36585 0.945184 0
M  V30 4236 O 377.061 -1.47112 1.21502 0
M  V30 4237 C 374.201 -2.34336 2.53339 0
M  V30 4238 C 373.314 -2.08419 3.78398 0
M  V30 4239 C 372.449 -3.32133 4.14561 0
M  V30 4240 C 371.488 -3.01721 5.3257 0
M  V30 4241 N 370.625 -4.17855 5.64218 0
M  V30 4242 H 375.465 -0.625442 2.91363 0
M  V30 4243 H 373.002 -0.297218 1.44066 0
M  V30 4244 H 374.96 -3.10234 2.78946 0
M  V30 4245 H 373.59 -2.73948 1.7074 0
M  V30 4246 H 372.642 -1.23069 3.59942 0
M  V30 4247 H 373.954 -1.81978 4.64419 0
M  V30 4248 H 373.108 -4.16406 4.41238 0
M  V30 4249 H 371.847 -3.61678 3.2717 0
M  V30 4250 H 370.852 -2.15849 5.05657 0
M  V30 4251 H 372.077 -2.73466 6.21605 0
M  V30 4252 H 370.023 -4.47372 4.79786 0
M  V30 4253 H 369.94 -3.94798 6.44725 0
M  V30 4254 H 371.208 -5.03033 5.95465 0
M  V30 4255 N 375.437 -1.54477 -0.31217 0
M  V30 4256 C 376.385 -1.85395 -1.40469 0
M  V30 4257 C 377.379 -0.726749 -1.53019 0
M  V30 4258 O 378.585 -0.910582 -1.55269 0
M  V30 4259 H 374.96 -0.587845 -0.46898 0
M  V30 4260 H 376.931 -2.76736 -1.11623 0
M  V30 4261 C 375.68 -2.10811 -2.76503 0
M  V30 4262 H 375.003 -2.97014 -2.67625 0
M  V30 4263 H 376.443 -2.3639 -3.51988 0
M  V30 4264 C 374.902 -0.903165 -3.24568 0
M  V30 4265 O 375.432 -0.118085 -4.01526 0
M  V30 4266 N 373.638 -0.711634 -2.81752 0
M  V30 4267 H 373.185 -1.35171 -2.19286 0
M  V30 4268 H 373.143 0.0930473 -3.14262 0
M  V30 4269 N 376.915 0.57481 -1.46744 0
M  V30 4270 C 378.162 1.33272 -1.52462 0
M  V30 4271 C 378.49 1.93669 -0.179572 0
M  V30 4272 O 377.745 1.7743 0.825664 0
M  V30 4273 C 378.044 2.476 -2.57738 0
M  V30 4274 C 377.71 2.05146 -4.01529 0
M  V30 4275 C 376.372 1.93284 -4.40676 0
M  V30 4276 C 378.724 1.72506 -4.91824 0
M  V30 4277 C 376.052 1.47049 -5.67973 0
M  V30 4278 C 378.404 1.27748 -6.19567 0
M  V30 4279 C 377.068 1.14468 -6.57612 0
M  V30 4280 H 376.338 0.487678 -0.557899 0
M  V30 4281 H 378.985 0.646456 -1.80259 0
M  V30 4282 H 377.29 3.21708 -2.23632 0
M  V30 4283 H 378.987 3.05807 -2.5939 0
M  V30 4284 H 375.577 2.15316 -3.7059 0
M  V30 4285 H 379.761 1.80552 -4.62293 0
M  V30 4286 H 375.017 1.35417 -5.96215 0
M  V30 4287 H 379.191 1.01547 -6.88957 0
M  V30 4288 H 376.818 0.78419 -7.56145 0
M  V30 4289 N 378.394 1.34581 0.820102 0
M  V30 4290 C 379.641 1.27096 1.57648 0
M  V30 4291 C 379.969 -0.158317 1.93855 0
M  V30 4292 O 379.224 -1.12028 1.60463 0
M  V30 4293 C 379.523 2.10997 2.8847 0
M  V30 4294 C 379.189 3.59966 2.71543 0
M  V30 4295 C 377.851 4.00575 2.66634 0
M  V30 4296 C 380.203 4.54548 2.55021 0
M  V30 4297 C 377.531 5.33953 2.43128 0
M  V30 4298 C 379.883 5.88109 2.33047 0
M  V30 4299 C 378.547 6.27878 2.26552 0
M  V30 4300 H 377.817 0.465078 0.576874 0
M  V30 4301 H 380.464 1.6635 0.948671 0
M  V30 4302 H 378.769 1.6458 3.55557 0
M  V30 4303 H 380.466 2.0255 3.46084 0
M  V30 4304 H 377.056 3.27733 2.76205 0
M  V30 4305 H 381.24 4.24069 2.57835 0
M  V30 4306 H 376.496 5.63781 2.3656 0
M  V30 4307 H 380.67 6.60985 2.19251 0
M  V30 4308 H 378.297 7.31162 2.081 0
M  V30 4309 N 379.872 -1.04064 1.18357 0
M  V30 4310 C 380.802 -2.14001 0.934113 0
M  V30 4311 C 381.783 -1.69616 -0.128186 0
M  V30 4312 O 382.968 -1.94185 0.0244093 0
M  V30 4313 C 380.098 -3.44253 0.459066 0
M  V30 4314 C 379.052 -4.02261 1.46185 0
M  V30 4315 C 378.378 -5.27992 0.844322 0
M  V30 4316 C 379.678 -4.38432 2.83856 0
M  V30 4317 H 381.372 -2.35127 1.85352 0
M  V30 4318 H 378.918 -1.12998 0.892604 0
M  V30 4319 H 380.871 -4.20522 0.271907 0
M  V30 4320 H 379.595 -3.22813 -0.495912 0
M  V30 4321 H 378.254 -3.28074 1.63595 0
M  V30 4322 H 377.902 -5.02862 -0.117845 0
M  V30 4323 H 377.602 -5.67765 1.51384 0
M  V30 4324 H 379.126 -6.06938 0.667693 0
M  V30 4325 H 380.54 -5.05688 2.70098 0
M  V30 4326 H 378.937 -4.89254 3.47491 0
M  V30 4327 H 380.007 -3.4826 3.37406 0
M  V30 4328 N 381.35 -0.985608 -1.22978 0
M  V30 4329 C 382.26 -0.538548 -2.28335 0
M  V30 4330 C 383.276 0.409163 -1.69121 0
M  V30 4331 O 384.452 0.277797 -1.99475 0
M  V30 4332 C 381.517 0.146867 -3.46389 0
M  V30 4333 C 380.578 -0.842896 -4.20944 0
M  V30 4334 C 379.811 -0.190095 -5.33361 0
M  V30 4335 O 380.034 1.01767 -5.61248 0
M  V30 4336 O 378.968 -0.891289 -5.95264 0
M  V30 4337 H 382.794 -1.41487 -2.68729 0
M  V30 4338 H 380.379 -0.753495 -1.29007 0
M  V30 4339 H 382.261 0.531125 -4.1804 0
M  V30 4340 H 380.936 0.997871 -3.07935 0
M  V30 4341 H 379.843 -1.27795 -3.51595 0
M  V30 4342 H 381.176 -1.66287 -4.6326 0
M  V30 4343 N 382.828 1.3818 -0.7579 0
M  V30 4344 C 384.074 2.00316 -0.316453 0
M  V30 4345 C 384.407 1.60026 1.10025 0
M  V30 4346 O 383.682 0.839835 1.75434 0
M  V30 4347 C 383.965 3.57349 -0.444245 0
M  V30 4348 C 383.818 4.07591 -1.90236 0
M  V30 4349 C 385.137 4.3981 0.1598 0
M  V30 4350 H 382.256 0.727741 -0.116459 0
M  V30 4351 H 384.898 1.6406 -0.958352 0
M  V30 4352 H 383.048 3.88365 0.102233 0
M  V30 4353 H 384.72 3.87199 -2.50748 0
M  V30 4354 H 382.963 3.60297 -2.41595 0
M  V30 4355 H 383.634 5.16677 -1.94291 0
M  V30 4356 H 386.11 4.14971 -0.306314 0
M  V30 4357 H 384.986 5.48885 0.0401675 0
M  V30 4358 H 385.247 4.24102 1.24859 0
M  V30 4359 N 384.306 0.507319 1.49211 0
M  V30 4360 C 385.555 -0.0368315 2.01666 0
M  V30 4361 C 385.868 -1.37459 1.39156 0
M  V30 4362 O 387.074 -2.00579 1.82976 0
M  V30 4363 C 385.53 -0.116089 3.59713 0
M  V30 4364 C 385.138 1.2154 4.31198 0
M  V30 4365 C 386.882 -0.610268 4.2009 0
M  V30 4366 C 384.789 1.09796 5.81119 0
M  V30 4367 H 383.719 -0.0175376 0.753796 0
M  V30 4368 H 386.37 0.647691 1.71689 0
M  V30 4369 H 384.752 -0.8652 3.86433 0
M  V30 4370 H 385.926 1.9783 4.16173 0
M  V30 4371 H 384.241 1.64352 3.82593 0
M  V30 4372 H 386.838 -0.715742 5.29888 0
M  V30 4373 H 387.181 -1.61064 3.8388 0
M  V30 4374 H 387.714 0.0824916 3.97714 0
M  V30 4375 H 384.453 2.0728 6.21864 0
M  V30 4376 H 383.973 0.376058 5.9862 0
M  V30 4377 H 385.652 0.779281 6.4229 0
M  V30 4378 N 385.784 -1.5574 0.241426 0
M  V30 4379 C 387.061 -1.90704 -0.434881 0
M  V30 4380 C 387.441 -1.16145 -1.76277 0
M  V30 4381 O 386.789 -0.277152 -2.26813 0
M  V30 4382 C 386.999 -3.43657 -0.608343 0
M  V30 4383 C 388.347 -4.14806 -0.906725 0
M  V30 4384 O 389.371 -3.49366 -0.694408 0
M  V30 4385 O 388.23 -5.30548 -1.31075 0
M  V30 4386 H 385.324 -0.793592 -0.23268 0
M  V30 4387 H 387.87 -1.67288 0.285086 0
M  V30 4388 H 386.642 -3.89927 0.327505 0
M  V30 4389 H 386.265 -3.72918 -1.37906 0
M  V30 4390 N 387.262 0.0317525 -1.57568 0
M  V30 4391 C 388.511 0.722131 -1.8833 0
M  V30 4392 C 388.824 1.76664 -0.839587 0
M  V30 4393 O 390.03 2.50942 -1.03635 0
M  V30 4394 C 388.486 1.33544 -3.34207 0
M  V30 4395 C 388.094 0.327415 -4.46802 0
M  V30 4396 C 389.838 2.00585 -3.7412 0
M  V30 4397 C 387.745 0.948915 -5.83738 0
M  V30 4398 H 386.675 0.273466 -0.702661 0
M  V30 4399 H 389.326 -0.0235811 -1.83485 0
M  V30 4400 H 387.708 2.13077 -3.33788 0
M  V30 4401 H 388.882 -0.441006 -4.58685 0
M  V30 4402 H 387.197 -0.240758 -4.15703 0
M  V30 4403 H 389.794 2.47932 -4.73744 0
M  V30 4404 H 390.137 2.82285 -3.05975 0
M  V30 4405 H 390.67 1.27831 -3.76702 0
M  V30 4406 H 387.409 0.171387 -6.55276 0
M  V30 4407 H 386.929 1.68724 -5.7558 0
M  V30 4408 H 388.608 1.45705 -6.3038 0
M  V30 4409 N 388.74 1.54641 0.303973 0
M  V30 4410 C 389.69 1.8177 1.37636 0
M  V30 4411 C 390.674 0.674697 1.46071 0
M  V30 4412 O 391.866 0.935251 1.50273 0
M  V30 4413 C 388.995 2.06584 2.74186 0
M  V30 4414 C 388.081 3.2706 2.69986 0
M  V30 4415 N 388.472 4.47682 2.35402 0
M  V30 4416 C 386.77 3.29028 3.01092 0
M  V30 4417 C 387.471 5.29689 2.40426 0
M  V30 4418 N 386.447 4.67339 2.7766 0
M  V30 4419 H 390.249 2.72596 1.09857 0
M  V30 4420 H 387.763 1.541 0.51254 0
M  V30 4421 H 389.76 2.24166 3.51504 0
M  V30 4422 H 388.42 1.17024 3.02879 0
M  V30 4423 H 389.431 4.74336 2.07908 0
M  V30 4424 H 386.108 2.49565 3.34699 0
M  V30 4425 H 387.498 6.3606 2.16512 0
M  V30 4426 N 390.218 -0.567019 1.47046 0
M  V30 4427 C 391.467 -1.32091 1.5243 0
M  V30 4428 C 391.78 -1.94704 0.187021 0
M  V30 4429 O 392.986 -2.7124 0.118771 0
M  V30 4430 C 391.442 -2.39479 2.68659 0
M  V30 4431 C 391.05 -1.831 4.08874 0
M  V30 4432 C 392.794 -3.16111 2.83327 0
M  V30 4433 C 390.701 -2.8821 5.16419 0
M  V30 4434 H 389.631 -0.496629 0.56734 0
M  V30 4435 H 392.282 -0.603354 1.73297 0
M  V30 4436 H 390.664 -3.14105 2.41152 0
M  V30 4437 H 391.838 -1.14913 4.46242 0
M  V30 4438 H 390.153 -1.19085 3.99008 0
M  V30 4439 H 392.75 -3.94585 3.60842 0
M  V30 4440 H 393.093 -3.69686 1.91411 0
M  V30 4441 H 393.626 -2.48595 3.10556 0
M  V30 4442 H 390.365 -2.39504 6.10179 0
M  V30 4443 H 389.885 -3.54839 4.8358 0
M  V30 4444 H 391.564 -3.51881 5.42945 0
M  V30 4445 N 391.696 -1.35014 -0.812953 0
M  V30 4446 C 392.644 -1.27435 -1.94585 0
M  V30 4447 C 393.638 -0.170494 -1.6854 0
M  V30 4448 O 394.844 -0.336085 -1.76835 0
M  V30 4449 H 391.219 -0.396144 -0.639198 0
M  V30 4450 H 393.19 -2.23158 -1.98098 0
M  V30 4451 C 391.939 -1.05677 -3.31252 0
M  V30 4452 H 391.262 -1.89853 -3.51846 0
M  V30 4453 H 392.702 -1.04413 -4.10943 0
M  V30 4454 C 391.161 0.239615 -3.36047 0
M  V30 4455 O 391.691 1.23759 -3.8216 0
M  V30 4456 N 389.897 0.276186 -2.89285 0
M  V30 4457 H 389.444 -0.53653 -2.51951 0
M  V30 4458 H 389.402 1.14332 -2.92875 0
M  V30 4459 N 393.175 1.03435 -1.18907 0
M  V30 4460 C 394.4 1.80919 -1.01406 0
M  V30 4461 C 394.825 1.83055 0.432721 0
M  V30 4462 O 394.183 1.25252 1.31079 0
M  V30 4463 C 394.231 3.24091 -1.58105 0
M  V30 4464 O 393.335 4.04434 -0.806669 0
M  V30 4465 H 392.676 0.558709 -0.358803 0
M  V30 4466 H 395.206 1.30223 -1.57807 0
M  V30 4467 H 395.216 3.74853 -1.61087 0
M  V30 4468 H 393.891 3.21851 -2.6341 0
M  V30 4469 H 392.468 3.63091 -0.849666 0
M  V30 4470 N 394.653 0.992116 1.22453 0
M  V30 4471 C 395.899 0.678177 1.91761 0
M  V30 4472 C 396.254 -0.781141 1.75829 0
M  V30 4473 O 395.547 -1.55747 1.11595 0
M  V30 4474 C 395.741 1.01832 3.42586 0
M  V30 4475 C 395.57 2.50916 3.73191 0
M  V30 4476 C 394.34 3.17308 3.93248 0
M  V30 4477 C 396.538 3.49032 3.77732 0
M  V30 4478 N 394.52 4.55876 4.11157 0
M  V30 4479 C 395.891 4.73055 4.00773 0
M  V30 4480 C 397.946 3.43349 3.60577 0
M  V30 4481 C 396.649 5.92089 4.0844 0
M  V30 4482 C 398.675 4.61759 3.69503 0
M  V30 4483 C 398.037 5.84582 3.92993 0
M  V30 4484 H 394.136 0.299425 0.722405 0
M  V30 4485 H 396.72 1.27197 1.47408 0
M  V30 4486 H 394.891 0.453118 3.85748 0
M  V30 4487 H 396.623 0.660454 3.99274 0
M  V30 4488 H 393.378 2.67778 3.9063 0
M  V30 4489 H 393.802 5.27748 4.24042 0
M  V30 4490 H 398.444 2.49408 3.41402 0
M  V30 4491 H 396.162 6.86435 4.26418 0
M  V30 4492 H 399.748 4.58951 3.57569 0
M  V30 4493 H 398.628 6.74676 3.99728 0
M  V30 4494 N 396.131 -1.37776 0.765217 0
M  V30 4495 C 397.547 -1.53297 0.444108 0
M  V30 4496 C 397.747 -1.72515 -1.04119 0
M  V30 4497 O 396.803 -1.74278 -1.82711 0
M  V30 4498 C 398.116 -2.73328 1.25349 0
M  V30 4499 C 399.664 -2.87185 1.24473 0
M  V30 4500 C 400.139 -4.10191 2.03733 0
M  V30 4501 N 401.63 -4.17291 2.01053 0
M  V30 4502 C 402.365 -5.11488 2.59166 0
M  V30 4503 N 401.861 -6.11285 3.26041 0
M  V30 4504 N 403.654 -5.03924 2.49032 0
M  V30 4505 H 395.805 -1.23552 1.72768 0
M  V30 4506 H 398.068 -0.601103 0.733062 0
M  V30 4507 H 397.774 -2.6557 2.30577 0
M  V30 4508 H 397.648 -3.66834 0.87823 0
M  V30 4509 H 400.035 -2.94418 0.20047 0
M  V30 4510 H 400.116 -1.94657 1.65959 0
M  V30 4511 H 399.76 -4.0372 3.08176 0
M  V30 4512 H 399.69 -5.01821 1.59633 0
M  V30 4513 H 402.181 -3.45825 1.5236 0
M  V30 4514 H 402.494 -6.79678 3.67774 0
M  V30 4515 H 400.839 -6.11583 3.30138 0
M  V30 4516 H 404.03 -4.24902 1.96407 0
M  V30 4517 H 404.203 -5.77152 2.94617 0
M  V30 4518 N 397.609 -0.515225 -1.4894 0
M  V30 4519 C 398.557 0.269115 -2.31038 0
M  V30 4520 C 399.551 0.949443 -1.40292 0
M  V30 4521 O 400.757 0.87551 -1.57273 0
M  V30 4522 H 397.132 0.10565 -0.744542 0
M  V30 4523 H 399.103 -0.443096 -2.95092 0
M  V30 4524 C 397.852 1.31213 -3.21991 0
M  V30 4525 H 397.175 0.798034 -3.91754 0
M  V30 4526 H 398.615 1.83263 -3.82349 0
M  V30 4527 C 397.074 2.33791 -2.42576 0
M  V30 4528 O 397.604 3.3995 -2.14003 0
M  V30 4529 N 395.81 2.06625 -2.0434 0
M  V30 4530 H 395.357 1.20314 -2.27777 0
M  V30 4531 H 395.315 2.75483 -1.51514 0
M  V30 4532 N 399.087 1.5561 -0.249682 0
M  V30 4533 C 400.336 1.98187 0.37479 0
M  V30 4534 C 400.649 1.14111 1.58865 0
M  V30 4535 O 401.855 1.46714 2.28445 0
M  V30 4536 C 400.311 3.52661 0.718192 0
M  V30 4537 C 399.919 4.45481 -0.474428 0
M  V30 4538 C 401.663 4.03888 1.3067 0
M  V30 4539 C 399.57 5.91303 -0.107026 0
M  V30 4540 H 398.5 0.740159 0.143808 0
M  V30 4541 H 401.151 1.80125 -0.350336 0
M  V30 4542 H 399.533 3.66429 1.50152 0
M  V30 4543 H 400.707 4.43473 -1.25172 0
M  V30 4544 H 399.022 4.04751 -0.978052 0
M  V30 4545 H 401.619 5.10358 1.59496 0
M  V30 4546 H 401.962 3.51401 2.23211 0
M  V30 4547 H 402.495 3.93457 0.586211 0
M  V30 4548 H 399.234 6.47833 -0.999642 0
M  V30 4549 H 398.754 5.9644 0.634013 0
M  V30 4550 H 400.433 6.46258 0.309807 0
M  V30 4551 N 400.565 -0.0233959 1.57583 0
M  V30 4552 C 401.981 -0.379134 1.55031 0
M  V30 4553 C 402.181 -1.76255 0.976548 0
M  V30 4554 O 401.237 -2.45266 0.600078 0
M  V30 4555 C 402.55 -0.275792 2.99433 0
M  V30 4556 C 404.098 -0.352458 3.11009 0
M  V30 4557 C 404.573 -0.278501 4.57152 0
M  V30 4558 N 406.064 -0.337123 4.61972 0
M  V30 4559 C 406.799 -0.302876 5.726 0
M  V30 4560 N 406.295 -0.220589 6.92449 0
M  V30 4561 N 408.088 -0.353023 5.6099 0
M  V30 4562 H 400.239 0.881869 1.93227 0
M  V30 4563 H 402.502 0.335867 0.886509 0
M  V30 4564 H 402.208 0.675108 3.4516 0
M  V30 4565 H 402.082 -1.06721 3.61788 0
M  V30 4566 H 404.469 -1.29379 2.65226 0
M  V30 4567 H 404.55 0.468409 2.51475 0
M  V30 4568 H 404.194 0.659189 5.03604 0
M  V30 4569 H 404.124 -1.11755 5.14605 0
M  V30 4570 H 406.615 -0.403002 3.75745 0
M  V30 4571 H 406.928 -0.199713 7.72542 0
M  V30 4572 H 405.273 -0.186555 6.9475 0
M  V30 4573 H 408.464 -0.415339 4.66254 0
M  V30 4574 H 408.637 -0.322866 6.47195 0
M  V30 4575 N 402.043 -1.548 -0.295768 0
M  V30 4576 C 403.459 -1.4613 -0.641722 0
M  V30 4577 C 403.659 -0.656771 -1.90496 0
M  V30 4578 O 402.715 -0.166547 -2.5195 0
M  V30 4579 C 404.028 -2.90141 -0.789852 0
M  V30 4580 C 405.576 -3.00216 -0.885396 0
M  V30 4581 C 406.051 -4.45434 -1.06548 0
M  V30 4582 N 407.542 -4.49166 -1.13156 0
M  V30 4583 C 408.277 -5.58717 -1.28929 0
M  V30 4584 N 407.773 -6.78182 -1.41567 0
M  V30 4585 N 409.566 -5.46415 -1.31859 0
M  V30 4586 H 401.717 -2.05574 0.534147 0
M  V30 4587 H 403.98 -0.931259 0.177372 0
M  V30 4588 H 403.686 -3.51635 0.0675598 0
M  V30 4589 H 403.56 -3.37859 -1.67724 0
M  V30 4590 H 405.947 -2.38833 -1.73329 0
M  V30 4591 H 406.028 -2.55787 0.0261185 0
M  V30 4592 H 405.672 -5.07413 -0.222335 0
M  V30 4593 H 405.602 -4.87499 -1.9913 0
M  V30 4594 H 408.093 -3.631 -1.04721 0
M  V30 4595 H 408.406 -7.57428 -1.53372 0
M  V30 4596 H 406.751 -6.81037 -1.38613 0
M  V30 4597 H 409.942 -4.5203 -1.21601 0
M  V30 4598 H 410.115 -6.31841 -1.43808 0
M  V30 4599 N 403.521 0.559213 -1.47345 0
M  V30 4600 C 404.746 1.34676 -1.57725 0
M  V30 4601 C 405.171 1.86723 -0.227164 0
M  V30 4602 O 404.529 1.6286 0.796642 0
M  V30 4603 C 404.577 2.49399 -2.60447 0
M  V30 4604 O 403.681 3.51567 -2.15578 0
M  V30 4605 H 403.022 0.400115 -0.52991 0
M  V30 4606 H 405.552 0.676009 -1.93109 0
M  V30 4607 H 405.562 2.95996 -2.80803 0
M  V30 4608 H 404.237 2.10873 -3.58477 0
M  V30 4609 H 402.814 3.11289 -2.05313 0
M  V30 4610 N 404.999 1.35443 0.805782 0
M  V30 4611 C 405.932 1.22783 1.92353 0
M  V30 4612 C 406.91 0.115543 1.62189 0
M  V30 4613 O 408.094 0.283778 1.86352 0
M  V30 4614 C 405.221 0.890746 3.26777 0
M  V30 4615 C 404.267 2.01519 3.75889 0
M  V30 4616 S 405.1 3.63101 3.93596 0
M  V30 4617 C 406.256 3.31472 5.30921 0
M  V30 4618 H 406.489 2.17394 2.02798 0
M  V30 4619 H 404.022 1.20669 0.963245 0
M  V30 4620 H 405.98 0.703068 4.04434 0
M  V30 4621 H 404.641 -0.0373152 3.14078 0
M  V30 4622 H 403.834 1.7335 4.7325 0
M  V30 4623 H 403.436 2.16124 3.05231 0
M  V30 4624 H 405.728 2.8435 6.1494 0
M  V30 4625 H 406.671 4.28036 5.64084 0
M  V30 4626 H 407.079 2.67221 4.97246 0
M  V30 4627 N 406.477 -1.02803 1.19454 0
M  V30 4628 C 407.425 -2.13213 0.929673 0
M  V30 4629 C 408.419 -1.69011 -0.114806 0
M  V30 4630 O 409.625 -1.79967 0.0345147 0
M  V30 4631 H 406 -0.69662 0.28324 0
M  V30 4632 H 407.971 -2.32744 1.86743 0
M  V30 4633 C 406.72 -3.4429 0.485797 0
M  V30 4634 H 406.043 -3.7872 1.28105 0
M  V30 4635 H 407.483 -4.22638 0.339582 0
M  V30 4636 C 405.942 -3.27258 -0.800244 0
M  V30 4637 O 406.472 -3.55967 -1.86146 0
M  V30 4638 N 404.678 -2.80545 -0.75781 0
M  V30 4639 H 404.225 -2.57382 0.106039 0
M  V30 4640 H 404.183 -2.6953 -1.61867 0
M  V30 4641 N 407.956 -0.998596 -1.21925 0
M  V30 4642 C 408.904 -0.546641 -2.26085 0
M  V30 4643 C 409.898 0.405576 -1.64473 0
M  V30 4644 O 411.104 0.277471 -1.77849 0
M  V30 4645 H 407.479 -0.158403 -0.735127 0
M  V30 4646 H 409.45 -1.43645 -2.61551 0
M  V30 4647 C 408.199 0.117388 -3.47502 0
M  V30 4648 H 407.522 -0.606277 -3.95176 0
M  V30 4649 H 408.962 0.396993 -4.22137 0
M  V30 4650 C 407.421 1.35455 -3.0847 0
M  V30 4651 O 407.951 2.44944 -3.18379 0
M  V30 4652 N 406.157 1.23191 -2.63196 0
M  V30 4653 H 405.704 0.341006 -2.55333 0
M  V30 4654 H 405.662 2.06071 -2.37449 0
M  V30 4655 N 409.434 1.37368 -0.772513 0
M  V30 4656 C 410.364 2.32856 -0.173304 0
M  V30 4657 C 411.345 1.55818 0.682262 0
M  V30 4658 O 412.53 1.84052 0.619566 0
M  V30 4659 C 409.66 3.40048 0.706007 0
M  V30 4660 C 408.614 4.27973 -0.0483144 0
M  V30 4661 C 407.94 5.26184 0.950491 0
M  V30 4662 C 409.24 5.07665 -1.22776 0
M  V30 4663 H 410.934 2.83217 -0.971002 0
M  V30 4664 H 408.48 1.3617 -0.468377 0
M  V30 4665 H 410.433 4.05827 1.13501 0
M  V30 4666 H 409.157 2.88214 1.53623 0
M  V30 4667 H 407.816 3.63726 -0.458107 0
M  V30 4668 H 407.464 4.7063 1.77529 0
M  V30 4669 H 407.164 5.85872 0.450314 0
M  V30 4670 H 408.688 5.94838 1.37842 0
M  V30 4671 H 410.102 5.66578 -0.875366 0
M  V30 4672 H 408.499 5.76681 -1.66007 0
M  V30 4673 H 409.569 4.40294 -2.03149 0
M  V30 4674 N 410.912 0.523116 1.48665 0
M  V30 4675 C 412.158 -0.00540031 2.03399 0
M  V30 4676 C 412.513 -1.3264 1.39372 0
M  V30 4677 O 411.806 -1.84184 0.527916 0
M  V30 4678 C 412 -0.191671 3.56886 0
M  V30 4679 C 411.829 1.10972 4.35793 0
M  V30 4680 C 410.599 1.66769 4.76987 0
M  V30 4681 C 412.797 2.01861 4.73029 0
M  V30 4682 N 410.779 2.91268 5.40404 0
M  V30 4683 C 412.15 3.10937 5.36394 0
M  V30 4684 C 414.205 2.02271 4.54962 0
M  V30 4685 C 412.908 4.20478 5.83601 0
M  V30 4686 C 414.934 3.10802 5.03146 0
M  V30 4687 C 414.296 4.18597 5.6653 0
M  V30 4688 H 410.395 0.0393531 0.781009 0
M  V30 4689 H 412.979 0.702876 1.8157 0
M  V30 4690 H 411.15 -0.869025 3.78553 0
M  V30 4691 H 412.882 -0.719177 3.98259 0
M  V30 4692 H 409.637 1.20996 4.57883 0
M  V30 4693 H 410.061 3.54635 5.76683 0
M  V30 4694 H 414.703 1.2023 4.05345 0
M  V30 4695 H 412.421 5.03303 6.32228 0
M  V30 4696 H 416.007 3.12166 4.90962 0
M  V30 4697 H 414.887 5.01193 6.03138 0
M  V30 4698 N 412.39 -1.55475 0.257931 0
M  V30 4699 C 413.618 -2.03609 -0.367559 0
M  V30 4700 C 414.033 -1.13687 -1.50734 0
M  V30 4701 O 413.39 -0.153479 -1.81853 0
M  V30 4702 C 413.441 -3.51001 -0.864908 0
M  V30 4703 O 413.162 -4.37499 0.229465 0
M  V30 4704 C 414.663 -4.14946 -1.55997 0
M  V30 4705 H 411.883 -0.665459 -0.0860521 0
M  V30 4706 H 414.427 -2.00843 0.385014 0
M  V30 4707 H 412.582 -3.54266 -1.56762 0
M  V30 4708 H 412.996 -5.24286 -0.14998 0
M  V30 4709 H 414.47 -5.19735 -1.85956 0
M  V30 4710 H 414.947 -3.6209 -2.4857 0
M  V30 4711 H 415.553 -4.15635 -0.901543 0
M  V30 4712 N 413.868 0.0150385 -1.57593 0
M  V30 4713 C 414.815 1.01126 -2.07466 0
M  V30 4714 C 415.785 1.35064 -0.966794 0
M  V30 4715 O 416.97 1.4516 -1.23827 0
M  V30 4716 C 414.11 2.30276 -2.57035 0
M  V30 4717 C 413.223 2.02373 -3.81666 0
M  V30 4718 C 412.358 3.25496 -4.19793 0
M  V30 4719 C 411.397 2.93211 -5.37303 0
M  V30 4720 N 410.534 4.08826 -5.70794 0
M  V30 4721 H 415.374 0.57901 -2.92321 0
M  V30 4722 H 412.911 0.27426 -1.44521 0
M  V30 4723 H 414.869 3.05757 -2.83846 0
M  V30 4724 H 413.499 2.71197 -1.75077 0
M  V30 4725 H 412.551 1.17327 -3.61854 0
M  V30 4726 H 413.863 1.74567 -4.67256 0
M  V30 4727 H 413.017 4.09333 -4.47807 0
M  V30 4728 H 411.756 3.56428 -3.32882 0
M  V30 4729 H 410.761 2.07777 -5.09027 0
M  V30 4730 H 411.986 2.63542 -6.25877 0
M  V30 4731 H 409.932 4.39682 -4.86842 0
M  V30 4732 H 409.849 3.84491 -6.50924 0
M  V30 4733 H 411.117 4.93496 -6.03392 0
M  V30 4734 N 415.346 1.54954 0.287554 0
M  V30 4735 C 416.293 1.86834 1.35505 0
M  V30 4736 C 417.263 0.718452 1.49758 0
M  V30 4737 O 418.448 0.968358 1.644 0
M  V30 4738 C 415.588 2.13303 2.71286 0
M  V30 4739 C 414.701 3.40883 2.65373 0
M  V30 4740 C 413.836 3.57125 3.93236 0
M  V30 4741 C 412.875 4.78449 3.81776 0
M  V30 4742 N 412.012 4.91426 5.01443 0
M  V30 4743 H 416.852 2.77889 1.07619 0
M  V30 4744 H 414.389 1.37593 0.520241 0
M  V30 4745 H 416.347 2.26646 3.50267 0
M  V30 4746 H 414.977 1.25499 2.97405 0
M  V30 4747 H 414.029 3.36088 1.78182 0
M  V30 4748 H 415.341 4.29993 2.52799 0
M  V30 4749 H 414.495 3.70207 4.80658 0
M  V30 4750 H 413.234 2.66173 4.0866 0
M  V30 4751 H 412.239 4.65386 2.92738 0
M  V30 4752 H 413.464 5.70822 3.67884 0
M  V30 4753 H 411.41 4.03401 5.17304 0
M  V30 4754 H 411.327 5.74559 4.91343 0
M  V30 4755 H 412.595 5.08879 5.90477 0
M  V30 4756 N 416.824 -0.551391 1.4764 0
M  V30 4757 C 417.754 -1.66757 1.63445 0
M  V30 4758 C 418.735 -1.63077 0.483742 0
M  V30 4759 O 419.92 -1.80607 0.71377 0
M  V30 4760 C 417.05 -3.05387 1.65396 0
M  V30 4761 C 416.004 -3.23918 2.79752 0
M  V30 4762 C 415.33 -4.63393 2.66779 0
M  V30 4763 C 416.63 -3.08735 4.21284 0
M  V30 4764 H 418.324 -1.53786 2.56886 0
M  V30 4765 H 415.87 -0.738415 1.23626 0
M  V30 4766 H 417.823 -3.83325 1.75043 0
M  V30 4767 H 416.547 -3.19332 0.685195 0
M  V30 4768 H 415.206 -2.48391 2.69625 0
M  V30 4769 H 414.854 -4.74144 1.67918 0
M  V30 4770 H 414.554 -4.7674 3.43501 0
M  V30 4771 H 416.078 -5.43458 2.78364 0
M  V30 4772 H 417.492 -3.76484 4.32357 0
M  V30 4773 H 415.889 -3.33588 4.98838 0
M  V30 4774 H 416.959 -2.0541 4.39243 0
M  V30 4775 N 418.302 -1.35869 -0.798587 0
M  V30 4776 C 419.25 -1.29491 -1.93222 0
M  V30 4777 C 420.244 -0.18836 -1.6835 0
M  V30 4778 O 421.45 -0.354822 -1.76468 0
M  V30 4779 H 417.825 -0.402901 -0.63496 0
M  V30 4780 H 419.796 -2.25247 -1.9572 0
M  V30 4781 C 418.545 -1.09184 -3.30112 0
M  V30 4782 H 417.868 -1.93574 -3.49813 0
M  V30 4783 H 419.308 -1.08766 -4.09812 0
M  V30 4784 C 417.767 0.203959 -3.36282 0
M  V30 4785 O 418.297 1.19699 -3.83451 0
M  V30 4786 N 416.503 0.245488 -2.89561 0
M  V30 4787 H 416.05 -0.563223 -2.51367 0
M  V30 4788 H 416.008 1.11219 -2.94071 0
M  V30 4789 N 419.78 1.02168 -1.19998 0
M  V30 4790 C 421.057 1.72816 -0.916191 0
M  V30 4791 C 421.437 2.03081 0.576325 0
M  V30 4792 O 420.785 1.69122 1.53656 0
M  V30 4793 C 420.995 2.9997 -1.78378 0
M  V30 4794 C 422.343 3.73336 -2.02251 0
M  V30 4795 O 423.367 3.09914 -1.75589 0
M  V30 4796 O 422.226 4.87371 -2.47249 0
M  V30 4797 H 419.32 0.752924 -0.342103 0
M  V30 4798 H 421.866 1.08062 -1.30846 0
M  V30 4799 H 420.638 2.73888 -2.79466 0
M  V30 4800 H 420.261 3.72464 -1.39126 0
M  V30 4801 N 421.258 1.00505 1.21394 0
M  V30 4802 C 422.486 0.706609 1.9446 0
M  V30 4803 C 422.901 -0.73081 1.74082 0
M  V30 4804 O 422.258 -1.49446 1.04747 0
M  V30 4805 C 422.309 1.01824 3.46863 0
M  V30 4806 O 422.03 2.39919 3.66566 0
M  V30 4807 C 423.531 0.739216 4.37093 0
M  V30 4808 H 420.751 0.260394 0.618414 0
M  V30 4809 H 423.295 1.34311 1.54211 0
M  V30 4810 H 421.45 0.427343 3.85036 0
M  V30 4811 H 421.864 2.50784 4.6066 0
M  V30 4812 H 423.338 1.00744 5.42729 0
M  V30 4813 H 423.815 -0.326746 4.37983 0
M  V30 4814 H 424.421 1.31173 4.04566 0
M  V30 4815 N 422.737 -1.36956 0.779787 0
M  V30 4816 C 423.984 -1.99491 0.347766 0
M  V30 4817 C 424.312 -1.61898 -1.07793 0
M  V30 4818 O 423.567 -0.86071 -1.75756 0
M  V30 4819 C 423.866 -3.54585 0.447686 0
M  V30 4820 C 423.532 -4.1197 1.83279 0
M  V30 4821 C 422.194 -4.27356 2.2118 0
M  V30 4822 C 424.546 -4.43354 2.74019 0
M  V30 4823 C 421.874 -4.71432 3.4924 0
M  V30 4824 C 424.226 -4.88858 4.01497 0
M  V30 4825 C 422.89 -5.0245 4.39432 0
M  V30 4826 H 422.16 -0.729991 0.127257 0
M  V30 4827 H 424.807 -1.63599 0.995376 0
M  V30 4828 H 423.112 -3.90773 -0.283447 0
M  V30 4829 H 424.809 -4.00888 0.0945948 0
M  V30 4830 H 421.399 -4.00428 1.52825 0
M  V30 4831 H 425.583 -4.31045 2.45995 0
M  V30 4832 H 420.839 -4.80141 3.78516 0
M  V30 4833 H 425.013 -5.12108 4.71931 0
M  V30 4834 H 422.64 -5.36362 5.38721 0
M  V30 4835 N 424.215 -0.530993 -1.48385 0
M  V30 4836 C 425.162 0.231223 -2.29639 0
M  V30 4837 C 426.132 0.932864 -1.37429 0
M  V30 4838 O 427.317 0.933692 -1.66394 0
M  V30 4839 C 424.457 1.27155 -3.2082 0
M  V30 4840 C 423.57 0.578655 -4.28107 0
M  V30 4841 C 422.705 1.602 -5.06467 0
M  V30 4842 C 421.744 0.892625 -6.05556 0
M  V30 4843 N 420.881 1.86157 -6.76971 0
M  V30 4844 H 425.721 -0.467848 -2.94305 0
M  V30 4845 H 423.258 -0.242556 -1.45086 0
M  V30 4846 H 425.216 1.88703 -3.72085 0
M  V30 4847 H 423.846 1.939 -2.58075 0
M  V30 4848 H 422.898 -0.150782 -3.80101 0
M  V30 4849 H 424.21 0.0217065 -4.98795 0
M  V30 4850 H 423.364 2.29173 -5.61751 0
M  V30 4851 H 422.103 2.19285 -4.35621 0
M  V30 4852 H 421.108 0.188829 -5.49476 0
M  V30 4853 H 422.333 0.307878 -6.78402 0
M  V30 4854 H 420.279 2.44147 -6.08875 0
M  V30 4855 H 420.196 1.35608 -7.43738 0
M  V30 4856 H 421.464 2.54325 -7.36844 0
M  V30 4857 N 425.693 1.55336 -0.266172 0
M  V30 4858 C 426.641 2.23587 0.641228 0
M  V30 4859 C 427.635 1.22986 1.16494 0
M  V30 4860 O 428.841 1.40943 1.1196 0
M  V30 4861 H 425.216 0.717452 0.225315 0
M  V30 4862 H 427.187 2.9837 0.0426561 0
M  V30 4863 C 425.936 2.96369 1.81826 0
M  V30 4864 H 425.259 3.73563 1.42445 0
M  V30 4865 H 426.699 3.47459 2.42998 0
M  V30 4866 C 425.158 2.0133 2.70125 0
M  V30 4867 O 425.688 1.55875 3.70224 0
M  V30 4868 N 423.894 1.6802 2.37102 0
M  V30 4869 H 423.441 2.05181 1.55751 0
M  V30 4870 H 423.399 1.047 2.96454 0
M  V30 4871 N 427.171 -0.0066808 1.57599 0
M  V30 4872 C 428.121 -1.0086 2.04478 0
M  V30 4873 C 429.105 -1.30714 0.938231 0
M  V30 4874 O 430.297 -1.29924 1.20203 0
M  V30 4875 C 427.426 -2.30273 2.54615 0
M  V30 4876 C 426.512 -2.03413 3.72134 0
M  V30 4877 N 426.903 -1.46688 4.84062 0
M  V30 4878 C 425.201 -2.33589 3.79937 0
M  V30 4879 C 425.902 -1.36146 5.65543 0
M  V30 4880 N 424.878 -1.84477 5.1134 0
M  V30 4881 H 428.68 -0.564402 2.8843 0
M  V30 4882 H 426.194 -0.212521 1.61003 0
M  V30 4883 H 428.191 -3.02885 2.86472 0
M  V30 4884 H 426.851 -2.75352 1.72079 0
M  V30 4885 H 427.862 -1.14658 5.05049 0
M  V30 4886 H 424.539 -2.81589 3.08243 0
M  V30 4887 H 425.929 -0.925873 6.6549 0
M  V30 4888 N 428.649 -1.55105 -0.279332 0
M  V30 4889 C 430.06 -1.66186 -0.850832 0
M  V30 4890 C 430.411 -0.584707 -1.87285 0
M  V30 4891 O 429.536 0.274919 -2.14647 0
M  V30 4892 C 430.131 -3.01264 -1.55001 0
M  V30 4893 C 428.69 -3.14394 -2.06963 0
M  V30 4894 C 427.837 -2.61959 -0.909536 0
M  V30 4895 H 430.788 -1.58602 -0.0558235 0
M  V30 4896 H 430.809 -2.93899 -2.41669 0
M  V30 4897 H 430.321 -3.7964 -0.805931 0
M  V30 4898 H 428.422 -2.4078 -2.84352 0
M  V30 4899 H 428.535 -4.20867 -2.28928 0
M  V30 4900 H 426.899 -2.18957 -1.30116 0
M  V30 4901 H 427.682 -3.42833 -0.179062 0
M  V30 4902 N 430.127 0.543554 -1.4793 0
M  V30 4903 C 431.357 1.32324 -1.58663 0
M  V30 4904 C 431.765 1.8766 -0.240896 0
M  V30 4905 O 431.108 1.66411 0.778011 0
M  V30 4906 C 431.17 2.52094 -2.56299 0
M  V30 4907 C 430.834 2.17944 -4.01683 0
M  V30 4908 C 431.831 1.74422 -4.89768 0
M  V30 4909 C 429.516 2.28884 -4.47121 0
M  V30 4910 C 431.51 1.42287 -6.21316 0
M  V30 4911 C 429.197 1.96361 -5.78693 0
M  V30 4912 C 430.195 1.53132 -6.65612 0
M  V30 4913 O 429.883 1.21029 -7.94737 0
M  V30 4914 H 429.615 0.409174 -0.538101 0
M  V30 4915 H 432.169 0.663887 -1.94375 0
M  V30 4916 H 430.399 3.20965 -2.15681 0
M  V30 4917 H 432.088 3.14165 -2.57012 0
M  V30 4918 H 432.854 1.65452 -4.55907 0
M  V30 4919 H 428.733 2.61488 -3.79664 0
M  V30 4920 H 432.277 1.08472 -6.89115 0
M  V30 4921 H 428.174 2.04967 -6.12094 0
M  V30 4922 H 428.942 1.34543 -8.07366 0
M  V30 4923 N 431.605 1.3629 0.791371 0
M  V30 4924 C 432.851 1.30605 1.55146 0
M  V30 4925 C 433.184 -0.115042 1.93859 0
M  V30 4926 O 432.459 -1.06798 1.62556 0
M  V30 4927 C 432.742 2.22692 2.82985 0
M  V30 4928 C 432.595 3.73489 2.50651 0
M  V30 4929 C 433.914 2.13588 3.84796 0
M  V30 4930 H 431.033 0.475761 0.562868 0
M  V30 4931 H 433.675 1.66825 0.909358 0
M  V30 4932 H 431.825 1.91933 3.37778 0
M  V30 4933 H 433.497 4.14758 2.01924 0
M  V30 4934 H 431.74 3.93021 1.83622 0
M  V30 4935 H 432.411 4.3333 3.41949 0
M  V30 4936 H 434.887 2.40659 3.39445 0
M  V30 4937 H 433.763 2.80195 4.71998 0
M  V30 4938 H 434.024 1.12256 4.27611 0
M  V30 4939 N 433.083 -1.0153 1.20538 0
M  V30 4940 C 434.311 -1.78746 1.04199 0
M  V30 4941 C 434.726 -1.84323 -0.408733 0
M  V30 4942 O 434.083 -1.29714 -1.28377 0
M  V30 4943 C 434.134 -3.23152 1.62035 0
M  V30 4944 O 433.855 -3.17918 3.0143 0
M  V30 4945 C 435.356 -4.16911 1.50666 0
M  V30 4946 H 432.576 -0.56208 0.366479 0
M  V30 4947 H 435.12 -1.27794 1.59653 0
M  V30 4948 H 433.275 -3.71248 1.10697 0
M  V30 4949 H 433.689 -4.08567 3.28897 0
M  V30 4950 H 435.163 -5.16072 1.95892 0
M  V30 4951 H 435.64 -4.36791 0.459363 0
M  V30 4952 H 436.246 -3.74698 2.01201 0
M  V30 4953 N 434.561 -1.01147 -1.20859 0
M  V30 4954 C 435.508 -0.577354 -2.23462 0
M  V30 4955 C 436.478 0.399922 -1.61214 0
M  V30 4956 O 437.663 0.300515 -1.88419 0
M  V30 4957 C 434.803 0.083372 -3.44999 0
M  V30 4958 C 433.916 -0.937856 -4.21697 0
M  V30 4959 C 433.051 -0.248717 -5.30617 0
M  V30 4960 C 432.09 -1.25705 -5.99053 0
M  V30 4961 N 431.227 -0.594939 -6.99575 0
M  V30 4962 H 436.067 -1.45695 -2.59956 0
M  V30 4963 H 433.604 -0.729428 -1.27741 0
M  V30 4964 H 435.562 0.483535 -4.14388 0
M  V30 4965 H 434.192 0.926645 -3.09214 0
M  V30 4966 H 433.244 -1.45622 -3.51423 0
M  V30 4967 H 434.556 -1.70493 -4.68757 0
M  V30 4968 H 433.71 0.207215 -6.06346 0
M  V30 4969 H 432.449 0.55071 -4.84581 0
M  V30 4970 H 431.454 -1.72343 -5.2209 0
M  V30 4971 H 432.679 -2.05767 -6.47176 0
M  V30 4972 H 430.625 0.184713 -6.5574 0
M  V30 4973 H 430.542 -1.30017 -7.44736 0
M  V30 4974 H 431.81 -0.162427 -7.79331 0
M  V30 4975 N 436.039 1.36541 -0.78704 0
M  V30 4976 C 436.986 2.30082 -0.181901 0
M  V30 4977 C 437.956 1.5186 0.672896 0
M  V30 4978 O 439.141 1.80374 0.622072 0
M  V30 4979 C 436.281 3.3835 0.679197 0
M  V30 4980 C 435.394 4.31565 -0.193882 0
M  V30 4981 C 434.529 5.26915 0.673364 0
M  V30 4982 C 433.568 6.11769 -0.201315 0
M  V30 4983 N 432.705 6.99315 0.624777 0
M  V30 4984 H 437.545 2.81248 -0.985064 0
M  V30 4985 H 435.082 1.38437 -0.497342 0
M  V30 4986 H 437.04 3.99767 1.19341 0
M  V30 4987 H 435.67 2.8851 1.44781 0
M  V30 4988 H 434.722 3.71323 -0.826044 0
M  V30 4989 H 436.034 4.91191 -0.867937 0
M  V30 4990 H 435.188 5.9361 1.25348 0
M  V30 4991 H 433.927 4.67737 1.38105 0
M  V30 4992 H 432.932 5.44039 -0.793849 0
M  V30 4993 H 434.157 6.73022 -0.906568 0
M  V30 4994 H 432.103 6.42648 1.3168 0
M  V30 4995 H 432.02 7.56 0.00835237 0
M  V30 4996 H 433.288 7.70382 1.18879 0
M  V30 4997 O 437.556 0.680126 1.4648 0
M  V30 4998 H 438.247 0.213972 1.92515 0
M  V30 END ATOM
M  V30 BEGIN BOND
M  V30 END BOND
M  V30 END CTAB
M  END
$$$$
