drugbank_target|Q47066 Beta-lactamase Toho-1 (DB03450; DB08375)
 OpenBabel12092119593D

  0  0  0     0  0            999 V3000
M  V30 BEGIN CTAB
M  V30 COUNTS 4451 4484 0 0 0
M  V30 BEGIN ATOM
M  V30 1 H -0.908 1.98254 -0.117106 0
M  V30 2 N 0 1.576 0 0
M  V30 3 C 0.933 2.03868 1.02534 0
M  V30 4 C 1.911 0.928543 1.3348 0
M  V30 5 O 3.095 1.19667 1.45644 0
M  V30 6 C 0.222 2.43627 2.35294 0
M  V30 7 C -0.732 3.65373 2.2001 0
M  V30 8 S 0.101 5.13292 1.52614 0
M  V30 9 C 1.257 5.56322 2.86805 0
M  V30 10 H 1.49 2.90518 0.631377 0
M  V30 11 H -0.977 1.52953 0.210867 0
M  V30 12 H 0.981 2.67203 3.11629 0
M  V30 13 H -0.358 1.57376 2.7183 0
M  V30 14 H -1.165 3.90944 3.18086 0
M  V30 15 H -1.563 3.418 1.51819 0
M  V30 16 H 0.729 5.58782 3.83104 0
M  V30 17 H 1.672 6.56266 2.65933 0
M  V30 18 H 2.08 4.83886 2.90714 0
M  V30 19 N 1.4781 -0.272755 1.55222 0
M  V30 20 C 2.4111 -1.3627 1.83046 0
M  V30 21 C 3.3891 -1.47536 0.683521 0
M  V30 22 O 4.5731 -1.64157 0.926545 0
M  V30 23 C 1.7001 -2.73908 1.99229 0
M  V30 24 C 0.7461 -2.79925 3.21783 0
M  V30 25 S 1.5791 -2.39146 4.79134 0
M  V30 26 C 2.7351 -3.78758 4.9829 0
M  V30 27 H 2.9681 -1.12464 2.75207 0
M  V30 28 H 0.5011 -0.472398 1.46996 0
M  V30 29 H 2.4591 -3.53171 2.09238 0
M  V30 30 H 1.1201 -2.94965 1.07956 0
M  V30 31 H 0.3131 -3.80946 3.29994 0
M  V30 32 H -0.0849 -2.08683 3.10367 0
M  V30 33 H 2.2071 -4.7403 4.84047 0
M  V30 34 H 3.1501 -3.75499 6.00338 0
M  V30 35 H 3.5581 -3.70072 4.26271 0
M  V30 36 N 2.9562 -1.48159 -0.537278 0
M  V30 37 C 4.1842 -1.59454 -1.31841 0
M  V30 38 C 4.5992 -0.252065 -1.8711 0
M  V30 39 O 3.9562 0.757621 -1.66031 0
M  V30 40 C 4.0072 -2.63546 -2.47439 0
M  V30 41 O 3.7282 -3.92583 -1.94449 0
M  V30 42 C 5.2292 -2.85212 -3.39366 0
M  V30 43 H 2.4492 -0.53785 -0.401196 0
M  V30 44 H 4.9932 -1.93932 -0.648891 0
M  V30 45 H 3.1482 -2.31946 -3.1029 0
M  V30 46 H 3.5622 -4.49629 -2.70063 0
M  V30 47 H 5.0362 -3.61863 -4.16844 0
M  V30 48 H 5.5132 -1.93765 -3.94147 0
M  V30 49 H 6.1192 -3.18086 -2.82314 0
M  V30 50 N 4.4343 0.785586 -1.36625 0
M  V30 51 C 5.3663 1.90711 -1.2713 0
M  V30 52 C 6.3793 1.61688 -0.189986 0
M  V30 53 O 7.5683 1.72864 -0.445014 0
M  V30 54 C 4.6683 3.25611 -0.939713 0
M  V30 55 C 3.8413 3.82385 -2.12369 0
M  V30 56 C 2.9003 4.95732 -1.76456 0
M  V30 57 O 1.9263 5.12047 -2.48589 0
M  V30 58 N 3.1283 5.76258 -0.700492 0
M  V30 59 H 5.8933 1.99376 -2.23762 0
M  V30 60 H 3.4543 0.964041 -1.30069 0
M  V30 61 H 5.4463 3.98937 -0.680554 0
M  V30 62 H 4.0163 3.12538 -0.0624074 0
M  V30 63 H 3.2363 3.01001 -2.54543 0
M  V30 64 H 4.5243 4.17047 -2.9146 0
M  V30 65 H 3.9223 5.65609 -0.101624 0
M  V30 66 H 2.4793 6.4987 -0.501165 0
M  V30 67 N 5.9124 1.20967 1.01018 0
M  V30 68 C 7.1374 1.0503 1.78839 0
M  V30 69 C 7.5624 -0.395752 1.8389 0
M  V30 70 O 6.9204 -1.28529 1.27867 0
M  V30 71 C 6.9684 1.64602 3.2084 0
M  V30 72 O 6.0724 0.887988 4.02726 0
M  V30 73 H 5.4134 0.369987 0.551367 0
M  V30 74 H 7.9434 1.60399 1.27018 0
M  V30 75 H 7.9534 1.68607 3.71532 0
M  V30 76 H 6.6284 2.69841 3.16479 0
M  V30 77 H 5.2054 0.922648 3.61305 0
M  V30 78 N 7.3905 -1.2043 1.01659 0
M  V30 79 C 8.6395 -1.89118 0.701237 0
M  V30 80 C 8.9525 -1.79705 -0.772358 0
M  V30 81 O 10.1585 -2.43528 -1.20026 0
M  V30 82 C 8.6145 -3.39168 1.20388 0
M  V30 83 C 8.2225 -3.57166 2.70438 0
M  V30 84 C 9.9665 -4.1341 0.963953 0
M  V30 85 C 7.8735 -5.01042 3.14183 0
M  V30 86 H 6.8035 -0.708267 0.2586 0
M  V30 87 H 9.4545 -1.36239 1.22927 0
M  V30 88 H 7.8365 -3.91369 0.603824 0
M  V30 89 H 9.0105 -3.15351 3.35992 0
M  V30 90 H 7.3255 -2.96294 2.92572 0
M  V30 91 H 9.9225 -5.19491 1.26621 0
M  V30 92 H 10.2655 -4.16181 -0.099578 0
M  V30 93 H 10.7985 -3.67309 1.52738 0
M  V30 94 H 7.5375 -5.03426 4.19812 0
M  V30 95 H 7.0575 -5.43668 2.53348 0
M  V30 96 H 8.7365 -5.69623 3.0682 0
M  V30 97 N 8.8686 -0.792821 -1.36206 0
M  V30 98 C 10.2846 -0.474903 -1.52371 0
M  V30 99 C 10.4846 1.00622 -1.74578 0
M  V30 100 O 9.5406 1.79162 -1.77924 0
M  V30 101 C 10.8536 -1.3083 -2.70747 0
M  V30 102 C 12.4016 -1.30234 -2.84619 0
M  V30 103 C 12.8766 -2.11956 -4.06004 0
M  V30 104 N 14.3676 -2.09419 -4.13156 0
M  V30 105 C 15.1026 -2.69419 -5.06163 0
M  V30 106 N 14.5986 -3.3829 -6.04592 0
M  V30 107 N 16.3916 -2.59134 -4.98804 0
M  V30 108 H 8.5426 -1.75222 -1.20046 0
M  V30 109 H 10.8056 -0.745024 -0.586211 0
M  V30 110 H 10.5116 -2.35881 -2.6087 0
M  V30 111 H 10.3856 -0.95196 -3.6499 0
M  V30 112 H 12.7726 -0.259748 -2.93955 0
M  V30 113 H 12.8536 -1.69847 -1.91274 0
M  V30 114 H 12.4976 -3.16248 -3.97429 0
M  V30 115 H 12.4276 -1.69711 -4.98503 0
M  V30 116 H 14.9186 -1.59297 -3.42685 0
M  V30 117 H 15.2316 -3.81394 -6.7213 0
M  V30 118 H 13.5766 -3.42393 -6.04807 0
M  V30 119 H 16.7676 -2.04927 -4.20859 0
M  V30 120 H 16.9406 -3.06185 -5.711 0
M  V30 121 N 10.3467 1.47872 -0.545128 0
M  V30 122 C 11.7627 1.5829 -0.204032 0
M  V30 123 C 11.9627 1.54529 1.29317 0
M  V30 124 O 11.0187 1.44232 2.07252 0
M  V30 125 C 12.3317 2.89304 -0.819987 0
M  V30 126 C 13.8797 3.02864 -0.790105 0
M  V30 127 C 14.3547 4.3656 -1.38491 0
M  V30 128 N 15.8457 4.43165 -1.34755 0
M  V30 129 C 16.5807 5.45153 -1.77753 0
M  V30 130 N 16.0767 6.54016 -2.2855 0
M  V30 131 N 17.8697 5.36125 -1.68897 0
M  V30 132 H 10.0207 1.4856 -1.51802 0
M  V30 133 H 12.2837 0.706305 -0.632327 0
M  V30 134 H 11.9897 2.97757 -1.87173 0
M  V30 135 H 11.8637 3.75957 -0.305915 0
M  V30 136 H 14.2507 2.94014 0.252913 0
M  V30 137 H 14.3317 2.17782 -1.34181 0
M  V30 138 H 13.9757 4.46164 -2.42693 0
M  V30 139 H 13.9057 5.20353 -0.808754 0
M  V30 140 H 16.3967 3.65083 -0.975855 0
M  V30 141 H 16.7097 7.27994 -2.59314 0
M  V30 142 H 15.0547 6.54938 -2.32553 0
M  V30 143 H 18.2457 4.49975 -1.28998 0
M  V30 144 H 18.4187 6.15472 -2.02726 0
M  V30 145 N 11.8248 0.280983 1.55075 0
M  V30 146 C 13.0498 -0.340154 2.04592 0
M  V30 147 C 13.4748 -1.48246 1.15779 0
M  V30 148 O 12.8328 -1.80614 0.15761 0
M  V30 149 C 12.8808 -0.793104 3.5177 0
M  V30 150 O 11.9848 -1.89981 3.66034 0
M  V30 151 H 11.3258 -0.0694289 0.66036 0
M  V30 152 H 13.8558 0.416993 2.00306 0
M  V30 153 H 13.8658 -1.08729 3.93245 0
M  V30 154 H 12.5408 0.0426163 4.15878 0
M  V30 155 H 11.1178 -1.60771 3.36463 0
M  V30 156 N 13.3029 -1.57598 0.00835791 0
M  V30 157 C 14.2359 -2.04409 -1.01451 0
M  V30 158 C 15.2139 -0.935609 -1.32985 0
M  V30 159 O 16.3979 -1.20437 -1.45007 0
M  V30 160 C 13.5249 -2.44872 -2.33999 0
M  V30 161 C 12.5709 -3.66535 -2.18069 0
M  V30 162 S 13.4039 -5.14095 -1.4989 0
M  V30 163 C 14.5599 -5.57835 -2.8385 0
M  V30 164 H 14.7929 -2.90849 -0.615961 0
M  V30 165 H 12.3259 -1.53063 -0.202752 0
M  V30 166 H 14.2839 -2.68852 -3.10208 0
M  V30 167 H 12.9449 -1.58815 -2.70992 0
M  V30 168 H 12.1379 -3.92626 -3.16008 0
M  V30 169 H 11.7399 -3.426 -1.50004 0
M  V30 170 H 14.0319 -5.60806 -3.80136 0
M  V30 171 H 14.9749 -6.57667 -2.62449 0
M  V30 172 H 15.3829 -4.85421 -2.88144 0
M  V30 173 N 14.781 0.264519 -1.55364 0
M  V30 174 C 15.711 1.33121 -1.91836 0
M  V30 175 C 16.692 1.51101 -0.781192 0
M  V30 176 O 17.877 1.64003 -1.04003 0
M  V30 177 C 15.007 2.68921 -2.19769 0
M  V30 178 C 13.961 2.65661 -3.35571 0
M  V30 179 C 13.287 4.05093 -3.49004 0
M  V30 180 C 14.587 2.24187 -4.71739 0
M  V30 181 H 16.281 1.02844 -2.81182 0
M  V30 182 H 13.827 0.493286 -1.35287 0
M  V30 183 H 15.78 3.43663 -2.43872 0
M  V30 184 H 14.504 3.00799 -1.27231 0
M  V30 185 H 13.163 1.93377 -3.1145 0
M  V30 186 H 12.811 4.34206 -2.53917 0
M  V30 187 H 12.511 4.03804 -4.26868 0
M  V30 188 H 14.035 4.81561 -3.75408 0
M  V30 189 H 15.449 2.88654 -4.9533 0
M  V30 190 H 13.846 2.34044 -5.52579 0
M  V30 191 H 14.916 1.19327 -4.69988 0
M  V30 192 N 16.2591 1.48442 0.529413 0
M  V30 193 C 17.4871 1.60151 1.30994 0
M  V30 194 C 17.9021 0.261985 1.86973 0
M  V30 195 O 17.2591 -0.748805 1.66431 0
M  V30 196 C 17.3101 2.64854 2.46038 0
M  V30 197 O 17.0311 3.93608 1.92365 0
M  V30 198 C 18.5321 2.87007 3.37849 0
M  V30 199 H 15.7521 0.539971 0.398338 0
M  V30 200 H 18.2961 1.94273 0.638597 0
M  V30 201 H 16.4511 2.33589 3.09055 0
M  V30 202 H 16.8651 4.51055 2.67675 0
M  V30 203 H 18.3391 3.64068 4.14919 0
M  V30 204 H 18.8161 1.95852 3.93114 0
M  V30 205 H 19.4221 3.19579 2.80623 0
M  V30 206 N 17.7372 -0.778329 1.37039 0
M  V30 207 C 18.9832 -1.53892 1.32079 0
M  V30 208 C 19.3162 -1.9396 -0.0965386 0
M  V30 209 O 18.5912 -1.63568 -1.05242 0
M  V30 210 C 18.8742 -2.80847 2.25382 0
M  V30 211 C 18.7272 -2.47076 3.75864 0
M  V30 212 C 20.0462 -3.82741 2.1725 0
M  V30 213 H 17.1652 -0.558303 0.48111 0
M  V30 214 H 19.8072 -0.893397 1.67685 0
M  V30 215 H 17.9572 -3.35931 1.95148 0
M  V30 216 H 19.6292 -1.97957 4.16666 0
M  V30 217 H 17.8722 -1.79863 3.94755 0
M  V30 218 H 18.5432 -3.37798 4.36574 0
M  V30 219 H 21.0192 -3.37133 2.43887 0
M  V30 220 H 19.8952 -4.69303 2.84686 0
M  V30 221 H 20.1562 -4.2652 1.16331 0
M  V30 222 N 19.2153 -1.21501 -1.00376 0
M  V30 223 C 20.1483 -0.918669 -2.08892 0
M  V30 224 C 21.1263 0.134277 -1.62045 0
M  V30 225 O 22.3103 0.00504255 -1.88499 0
M  V30 226 C 19.4373 -0.379645 -3.36566 0
M  V30 227 C 18.4833 -1.41559 -4.02323 0
M  V30 228 S 19.3163 -2.98521 -4.44574 0
M  V30 229 C 20.4723 -2.46228 -5.75433 0
M  V30 230 H 20.7053 -1.83761 -2.33707 0
M  V30 231 H 18.2383 -1.04489 -1.13673 0
M  V30 232 H 20.1963 -0.0752195 -4.10431 0
M  V30 233 H 18.8573 0.518008 -3.09799 0
M  V30 234 H 18.0503 -0.988076 -4.9422 0
M  V30 235 H 17.6523 -1.66815 -3.34737 0
M  V30 236 H 19.9443 -1.86791 -6.51241 0
M  V30 237 H 20.8873 -3.36572 -6.22997 0
M  V30 238 H 21.2953 -1.87894 -5.32312 0
M  V30 239 N 20.6934 1.19889 -1.02296 0
M  V30 240 C 21.6564 2.21116 -0.603351 0
M  V30 241 C 22.6564 1.5738 0.329884 0
M  V30 242 O 23.8464 1.73802 0.117702 0
M  V30 243 C 20.9784 3.40696 0.117992 0
M  V30 244 H 22.1714 2.59754 -1.49893 0
M  V30 245 H 19.7244 1.33463 -0.813468 0
M  V30 246 H 20.4594 3.07569 1.0282 0
M  V30 247 H 20.2444 3.88188 -0.552511 0
M  V30 248 H 21.7344 4.15692 0.398696 0
M  V30 249 N 22.1715 0.800033 1.35784 0
M  V30 250 C 23.3995 0.389606 2.03199 0
M  V30 251 C 23.8145 -0.997375 1.60306 0
M  V30 252 O 23.1715 -1.64154 0.797481 0
M  V30 253 C 23.2225 0.455855 3.58614 0
M  V30 254 O 22.9435 1.78815 3.99946 0
M  V30 255 C 24.4445 0.0374032 4.43284 0
M  V30 256 H 21.6645 0.159132 0.651857 0
M  V30 257 H 24.2085 1.08183 1.73541 0
M  V30 258 H 22.3635 -0.188057 3.86943 0
M  V30 259 H 22.7775 1.74636 4.94573 0
M  V30 260 H 24.2515 0.134882 5.51835 0
M  V30 261 H 24.7285 -1.01651 4.27275 0
M  V30 262 H 25.3345 0.654215 4.20238 0
M  V30 263 N 23.6496 -1.47581 0.552962 0
M  V30 264 C 24.5796 -2.32762 -0.185451 0
M  V30 265 C 25.5606 -1.43527 -0.912905 0
M  V30 266 O 26.7456 -1.72388 -0.894201 0
M  V30 267 C 23.8756 -3.25219 -1.21859 0
M  V30 268 C 22.8296 -4.23661 -0.607864 0
M  V30 269 C 22.1556 -5.05413 -1.74533 0
M  V30 270 C 23.4556 -5.20481 0.435582 0
M  V30 271 H 25.1496 -2.94749 0.525684 0
M  V30 272 H 22.6956 -1.41738 0.254251 0
M  V30 273 H 24.6486 -3.8365 -1.7433 0
M  V30 274 H 23.3726 -2.61279 -1.95961 0
M  V30 275 H 22.0316 -3.66451 -0.104489 0
M  V30 276 H 21.6796 -4.3788 -2.47529 0
M  V30 277 H 21.3796 -5.72059 -1.34249 0
M  V30 278 H 22.9036 -5.66701 -2.27338 0
M  V30 279 H 24.3176 -5.733 -0.00290157 0
M  V30 280 H 22.7146 -5.95305 0.757067 0
M  V30 281 H 23.7846 -4.66217 1.33303 0
M  V30 282 N 25.1277 -0.289203 -1.54924 0
M  V30 283 C 26.5387 0.205791 -1.85562 0
M  V30 284 C 26.8897 1.54351 -1.2112 0
M  V30 285 O 26.0147 2.10435 -0.504601 0
M  V30 286 C 26.6097 0.380177 -3.3666 0
M  V30 287 C 25.1687 0.819395 -3.67373 0
M  V30 288 C 24.3157 -0.079159 -2.77187 0
M  V30 289 H 27.2667 -0.510577 -1.50262 0
M  V30 290 H 27.2877 1.21659 -3.60526 0
M  V30 291 H 26.7997 -0.593589 -3.83534 0
M  V30 292 H 24.9007 1.80413 -3.26009 0
M  V30 293 H 25.0137 0.646957 -4.74712 0
M  V30 294 H 23.3777 0.439565 -2.50878 0
M  V30 295 H 24.1607 -1.04906 -3.26878 0
M  V30 296 N 26.6058 1.57591 -0.0167156 0
M  V30 297 C 27.5358 2.12496 0.967858 0
M  V30 298 C 28.5168 1.03807 1.34752 0
M  V30 299 O 29.7018 1.31577 1.42833 0
M  V30 300 C 26.8318 2.64194 2.25431 0
M  V30 301 C 25.7858 3.77559 2.01576 0
M  V30 302 C 25.1118 4.15636 3.36379 0
M  V30 303 C 26.4118 5.04151 1.36489 0
M  V30 304 H 28.1058 2.95013 0.510643 0
M  V30 305 H 25.6518 1.41915 0.244181 0
M  V30 306 H 27.6048 3.01236 2.94678 0
M  V30 307 H 26.3288 1.78821 2.73296 0
M  V30 308 H 24.9878 3.40937 1.34751 0
M  V30 309 H 24.6358 3.27263 3.81979 0
M  V30 310 H 24.3358 4.92022 3.21229 0
M  V30 311 H 25.8598 4.5525 4.06915 0
M  V30 312 H 27.2738 5.38857 1.95718 0
M  V30 313 H 25.6708 5.85453 1.31776 0
M  V30 314 H 26.7408 4.83733 0.336219 0
M  V30 315 N 28.0839 -0.256276 1.55502 0
M  V30 316 C 29.0139 -1.32102 1.92539 0
M  V30 317 C 29.9949 -1.50684 0.789194 0
M  V30 318 O 31.1799 -1.63449 1.04872 0
M  V30 319 C 28.3099 -2.67752 2.21192 0
M  V30 320 C 27.2639 -2.63878 3.36975 0
M  V30 321 C 26.5899 -4.03236 3.51147 0
M  V30 322 C 27.8899 -2.21682 4.72921 0
M  V30 323 H 29.5839 -1.01351 2.81724 0
M  V30 324 H 27.1299 -0.486105 1.35547 0
M  V30 325 H 29.0829 -3.42365 2.45691 0
M  V30 326 H 27.8069 -3.0012 1.28824 0
M  V30 327 H 26.4659 -1.91722 3.12471 0
M  V30 328 H 26.1139 -4.32854 2.56216 0
M  V30 329 H 25.8139 -4.01535 4.29003 0
M  V30 330 H 27.3379 -4.79563 3.77957 0
M  V30 331 H 28.7519 -2.86023 4.96854 0
M  V30 332 H 27.1489 -2.3111 5.53812 0
M  V30 333 H 28.2189 -1.16833 4.70615 0
M  V30 334 N 29.562 -1.4872 -0.521534 0
M  V30 335 C 30.809 -1.57168 -1.27689 0
M  V30 336 C 31.137 -0.249275 -1.92896 0
M  V30 337 O 30.392 0.761162 -1.80291 0
M  V30 338 C 30.691 -2.66497 -2.38148 0
M  V30 339 C 30.357 -4.08664 -1.90538 0
M  V30 340 C 29.019 -4.47357 -1.77271 0
M  V30 341 C 31.371 -4.97724 -1.54663 0
M  V30 342 C 28.699 -5.72905 -1.26478 0
M  V30 343 C 31.051 -6.2377 -1.05329 0
M  V30 344 C 29.715 -6.61311 -0.906861 0
M  V30 345 H 28.985 -0.575117 -0.467249 0
M  V30 346 H 31.632 -1.82472 -0.581051 0
M  V30 347 H 29.937 -2.35085 -3.13437 0
M  V30 348 H 31.634 -2.70246 -2.96257 0
M  V30 349 H 28.224 -3.78111 -2.01816 0
M  V30 350 H 32.408 -4.68501 -1.63768 0
M  V30 351 H 27.664 -6.00709 -1.13835 0
M  V30 352 H 31.838 -6.9217 -0.76644 0
M  V30 353 H 29.465 -7.5848 -0.511083 0
M  V30 354 N 31.0401 0.771051 -1.3745 0
M  V30 355 C 32.2651 1.56529 -1.36065 0
M  V30 356 C 32.6901 1.88029 0.0515859 0
M  V30 357 O 32.0481 1.49282 1.02882 0
M  V30 358 C 32.0961 2.85187 -2.20683 0
M  V30 359 O 31.2001 3.79593 -1.61193 0
M  V30 360 H 30.5411 0.47411 -0.464883 0
M  V30 361 H 33.0711 0.954269 -1.80983 0
M  V30 362 H 33.0811 3.34283 -2.33921 0
M  V30 363 H 31.7561 2.61588 -3.23334 0
M  V30 364 H 30.3331 3.38239 -1.56999 0
M  V30 365 N 32.5182 1.22032 0.997298 0
M  V30 366 C 33.7432 1.06921 1.77715 0
M  V30 367 C 34.1682 -0.376226 1.84299 0
M  V30 368 O 33.5262 -1.27165 1.29223 0
M  V30 369 C 33.5742 1.67996 3.19076 0
M  V30 370 O 32.6782 0.930653 4.01762 0
M  V30 371 H 32.0192 0.375814 0.547412 0
M  V30 372 H 34.5492 1.61737 1.25309 0
M  V30 373 H 34.5592 1.72538 3.69723 0
M  V30 374 H 33.2342 2.73182 3.13599 0
M  V30 375 H 31.8112 0.960917 3.60307 0
M  V30 376 N 33.9963 -1.19345 1.0293 0
M  V30 377 C 34.9593 -2.20793 0.615069 0
M  V30 378 C 35.9593 -1.57553 -0.321533 0
M  V30 379 O 37.1493 -1.73862 -0.108483 0
M  V30 380 C 34.2813 -3.40754 -0.0999222 0
M  V30 381 H 35.4743 -2.58955 1.51269 0
M  V30 382 H 33.0273 -1.3303 0.820534 0
M  V30 383 H 33.7623 -3.0811 -1.01187 0
M  V30 384 H 33.5473 -3.87889 0.57309 0
M  V30 385 H 35.0373 -4.15898 -0.376645 0
M  V30 386 N 35.4744 -0.807222 -1.35358 0
M  V30 387 C 36.7024 -0.400377 -2.02989 0
M  V30 388 C 37.1174 0.988859 -1.60832 0
M  V30 389 O 36.4744 1.63729 -0.806175 0
M  V30 390 C 36.5254 -0.474867 -3.58368 0
M  V30 391 O 36.2464 -1.80933 -3.98992 0
M  V30 392 C 37.7474 -0.0609112 -4.43258 0
M  V30 393 H 34.9674 -0.162587 -0.651004 0
M  V30 394 H 37.5114 -1.09102 -1.72965 0
M  V30 395 H 35.6664 0.167534 -3.87038 0
M  V30 396 H 36.0804 -1.77256 -4.9364 0
M  V30 397 H 37.5544 -0.164145 -5.51756 0
M  V30 398 H 38.0314 0.993831 -4.27808 0
M  V30 399 H 38.6374 -0.676492 -4.19885 0
M  V30 400 N 36.9525 1.47285 -0.560781 0
M  V30 401 C 37.8825 2.32857 0.173105 0
M  V30 402 C 38.8635 1.44009 0.905281 0
M  V30 403 O 40.0485 1.7286 0.885046 0
M  V30 404 C 37.1785 3.25861 1.20133 0
M  V30 405 C 36.1325 4.23978 0.585388 0
M  V30 406 C 35.4585 5.06332 1.7185 0
M  V30 407 C 36.7585 5.20242 -0.463178 0
M  V30 408 H 38.4525 2.94466 -0.541307 0
M  V30 409 H 35.9985 1.41601 -0.261764 0
M  V30 410 H 37.9515 3.84569 1.72293 0
M  V30 411 H 36.6755 2.62315 1.94573 0
M  V30 412 H 35.3345 3.66501 0.085054 0
M  V30 413 H 34.9825 4.39186 2.45203 0
M  V30 414 H 34.6825 5.72762 1.31213 0
M  V30 415 H 36.2065 5.67899 2.24329 0
M  V30 416 H 37.6205 5.73293 -0.027502 0
M  V30 417 H 36.0175 5.94896 -0.788627 0
M  V30 418 H 37.0875 4.65504 -1.35773 0
M  V30 419 N 38.4306 0.297415 1.54768 0
M  V30 420 C 39.3806 -0.595275 2.20092 0
M  V30 421 C 40.3646 -1.10163 1.17273 0
M  V30 422 O 41.5566 -1.043 1.43006 0
M  V30 423 C 38.6856 -1.7684 2.94249 0
M  V30 424 C 37.7716 -1.27818 4.0438 0
M  V30 425 N 38.1626 -0.505695 5.03266 0
M  V30 426 C 36.4606 -1.55923 4.17857 0
M  V30 427 C 37.1616 -0.245094 5.81183 0
M  V30 428 N 36.1376 -0.823881 5.3732 0
M  V30 429 H 39.9396 0.00250837 2.939 0
M  V30 430 H 37.4536 0.102007 1.62079 0
M  V30 431 H 39.4506 -2.41944 3.39513 0
M  V30 432 H 38.1106 -2.36992 2.21957 0
M  V30 433 H 39.1216 -0.150928 5.1768 0
M  V30 434 H 35.7986 -2.16849 3.56767 0
M  V30 435 H 37.1886 0.375084 6.70852 0
M  V30 436 N 39.9087 -1.5758 0.0250728 0
M  V30 437 C 40.8717 -2.08896 -0.943139 0
M  V30 438 C 41.8717 -1.00321 -1.25668 0
M  V30 439 O 43.0617 -1.26495 -1.19769 0
M  V30 440 C 40.1937 -2.55143 -2.26086 0
M  V30 441 H 41.3867 -2.95723 -0.498775 0
M  V30 442 H 38.9397 -1.54703 -0.222888 0
M  V30 443 H 39.6747 -1.71633 -2.75159 0
M  V30 444 H 39.4597 -3.34461 -2.04641 0
M  V30 445 H 40.9497 -2.95083 -2.95492 0
M  V30 446 N 41.3868 0.248026 -1.55636 0
M  V30 447 C 42.3188 1.32993 -1.8667 0
M  V30 448 C 43.3318 1.44345 -0.752877 0
M  V30 449 O 44.5208 1.45715 -1.03098 0
M  V30 450 C 41.6208 2.70863 -2.03682 0
M  V30 451 C 40.7938 2.81792 -3.34532 0
M  V30 452 C 39.8528 4.005 -3.41301 0
M  V30 453 O 38.8788 3.9008 -4.14519 0
M  V30 454 N 40.0808 5.13618 -2.70512 0
M  V30 455 H 42.8458 1.06707 -2.8006 0
M  V30 456 H 40.4068 0.438129 -1.55859 0
M  V30 457 H 42.3988 3.48612 -2.05553 0
M  V30 458 H 40.9688 2.89862 -1.17041 0
M  V30 459 H 40.1888 1.90729 -3.44987 0
M  V30 460 H 41.4768 2.86043 -4.20781 0
M  V30 461 H 40.8748 5.24975 -2.10755 0
M  V30 462 H 39.4318 5.89505 -2.78077 0
M  V30 463 N 42.8649 1.48995 0.513639 0
M  V30 464 C 43.8279 1.64229 1.59879 0
M  V30 465 C 44.8279 0.514696 1.5234 0
M  V30 466 O 46.0179 0.78087 1.55718 0
M  V30 467 C 43.1499 1.62783 2.99524 0
M  V30 468 H 44.3429 2.61004 1.47705 0
M  V30 469 H 41.8959 1.37837 0.736936 0
M  V30 470 H 42.6309 0.675461 3.17188 0
M  V30 471 H 42.4159 2.4466 3.06404 0
M  V30 472 H 43.9059 1.76669 3.78388 0
M  V30 473 N 44.343 -0.763751 1.37857 0
M  V30 474 C 45.291 -1.89864 1.34367 0
M  V30 475 C 46.285 -1.67816 0.231143 0
M  V30 476 O 47.491 -1.75508 0.399617 0
M  V30 477 H 43.866 -0.624501 0.41893 0
M  V30 478 H 45.837 -1.89925 2.30155 0
M  V30 479 C 44.586 -3.27227 1.1755 0
M  V30 480 H 43.909 -3.44773 2.02414 0
M  V30 481 H 45.349 -4.06911 1.1916 0
M  V30 482 C 43.808 -3.36692 -0.118311 0
M  V30 483 O 44.338 -3.86374 -1.09902 0
M  V30 484 N 42.544 -2.90092 -0.171717 0
M  V30 485 H 42.091 -2.49853 0.627012 0
M  V30 486 H 42.049 -2.96806 -1.03699 0
M  V30 487 N 45.8211 -1.22559 -0.990812 0
M  V30 488 C 47.0461 -1.07862 -1.77145 0
M  V30 489 C 47.4711 0.366447 -1.84496 0
M  V30 490 O 46.8291 1.26478 -1.29896 0
M  V30 491 C 46.8771 -1.69686 -3.18181 0
M  V30 492 O 45.9811 -0.951946 -4.01263 0
M  V30 493 H 45.3221 -0.378712 -0.545411 0
M  V30 494 H 47.8521 -1.62399 -1.2445 0
M  V30 495 H 47.8621 -1.74496 -3.68802 0
M  V30 496 H 46.5371 -2.74841 -3.12146 0
M  V30 497 H 45.1141 -0.980011 -3.59792 0
M  V30 498 N 47.2992 1.18797 -1.03562 0
M  V30 499 C 48.5452 1.8893 -0.737113 0
M  V30 500 C 48.8782 1.79837 0.732956 0
M  V30 501 O 48.1532 1.19525 1.5344 0
M  V30 502 C 48.4362 3.39607 -1.19745 0
M  V30 503 C 48.2892 3.57537 -2.72924 0
M  V30 504 C 49.6082 4.33069 -0.783526 0
M  V30 505 H 46.7272 0.686057 -0.269249 0
M  V30 506 H 49.3692 1.39797 -1.28673 0
M  V30 507 H 47.5192 3.81583 -0.729855 0
M  V30 508 H 49.1912 3.24688 -3.27682 0
M  V30 509 H 47.4342 3.00363 -3.12993 0
M  V30 510 H 48.1052 4.63238 -3.00191 0
M  V30 511 H 50.5812 3.98846 -1.18581 0
M  V30 512 H 49.4572 5.3707 -1.13343 0
M  V30 513 H 49.7182 4.40986 0.313681 0
M  V30 514 N 48.7773 0.814389 1.34928 0
M  V30 515 C 49.7093 0.187834 2.28429 0
M  V30 516 C 50.7223 -0.617374 1.5064 0
M  V30 517 O 51.9113 -0.448454 1.72775 0
M  V30 518 C 49.0113 -0.755962 3.30361 0
M  V30 519 C 48.1843 0.00456686 4.374 0
M  V30 520 C 47.2433 -0.858876 5.19143 0
M  V30 521 O 46.2693 -0.306968 5.68372 0
M  V30 522 N 47.4713 -2.17988 5.38016 0
M  V30 523 H 50.2363 0.991105 2.82838 0
M  V30 524 H 47.7973 0.670561 1.4736 0
M  V30 525 H 49.7893 -1.338 3.81942 0
M  V30 526 H 48.3593 -1.46001 2.7641 0
M  V30 527 H 47.5793 0.767865 3.86649 0
M  V30 528 H 48.8673 0.528422 5.06049 0
M  V30 529 H 48.2653 -2.65212 4.99679 0
M  V30 530 H 46.8223 -2.71098 5.92747 0
M  V30 531 N 50.2554 -1.46986 0.568584 0
M  V30 532 C 51.1874 -2.28233 -0.210337 0
M  V30 533 C 52.2004 -1.37682 -0.868767 0
M  V30 534 O 53.3894 -1.62406 -0.740705 0
M  V30 535 C 50.4894 -3.12293 -1.3163 0
M  V30 536 C 49.6624 -4.30878 -0.7525 0
M  V30 537 C 48.7214 -4.96445 -1.74439 0
M  V30 538 O 47.7474 -5.54482 -1.286 0
M  V30 539 N 48.9494 -4.92171 -3.07812 0
M  V30 540 H 51.7144 -2.95723 0.486648 0
M  V30 541 H 49.2754 -1.56742 0.405409 0
M  V30 542 H 51.2674 -3.53022 -1.97883 0
M  V30 543 H 49.8374 -2.46971 -1.91636 0
M  V30 544 H 49.0574 -3.94104 0.0871128 0
M  V30 545 H 50.3454 -5.07558 -0.35536 0
M  V30 546 H 49.7434 -4.46239 -3.47688 0
M  V30 547 H 48.3004 -5.36884 -3.69592 0
M  V30 548 N 51.7335 -0.305618 -1.54608 0
M  V30 549 C 52.6655 0.602161 -2.21149 0
M  V30 550 C 53.6785 1.09394 -1.20569 0
M  V30 551 O 54.8675 1.0106 -1.47136 0
M  V30 552 C 51.9675 1.83692 -2.84799 0
M  V30 553 C 51.1405 1.48686 -4.11353 0
M  V30 554 C 50.1995 2.57725 -4.58764 0
M  V30 555 O 49.2255 2.22623 -5.23858 0
M  V30 556 N 50.4275 3.88346 -4.31471 0
M  V30 557 H 53.1925 0.0324966 -2.99682 0
M  V30 558 H 50.7535 -0.128021 -1.61393 0
M  V30 559 H 52.7455 2.55994 -3.13448 0
M  V30 560 H 51.3155 2.31486 -2.10078 0
M  V30 561 H 50.5355 0.596269 -3.89664 0
M  V30 562 H 51.8235 1.22842 -4.93748 0
M  V30 563 H 51.2215 4.19671 -3.79331 0
M  V30 564 H 49.7785 4.56932 -4.64818 0
M  V30 565 N 53.2116 1.57565 -0.0334293 0
M  V30 566 C 54.1416 2.13511 0.945265 0
M  V30 567 C 55.1226 1.05231 1.33643 0
M  V30 568 O 56.3076 1.33084 1.41429 0
M  V30 569 C 53.4376 2.6657 2.22616 0
M  V30 570 C 52.3916 3.79676 1.97561 0
M  V30 571 C 51.7176 4.1918 3.31952 0
M  V30 572 C 53.0176 5.0557 1.31135 0
M  V30 573 H 54.7116 2.95538 0.479325 0
M  V30 574 H 52.2576 1.42166 0.229115 0
M  V30 575 H 54.2106 3.04344 2.91466 0
M  V30 576 H 52.9346 1.8171 2.71384 0
M  V30 577 H 51.5936 3.42347 1.31127 0
M  V30 578 H 51.2416 3.31296 3.78487 0
M  V30 579 H 50.9416 4.95402 3.15992 0
M  V30 580 H 52.4656 4.59541 4.02063 0
M  V30 581 H 53.8796 5.40903 1.89992 0
M  V30 582 H 52.2766 5.86818 1.25559 0
M  V30 583 H 53.3466 4.84062 0.284894 0
M  V30 584 N 54.6897 -0.239769 1.55765 0
M  V30 585 C 55.5997 -1.31831 1.94056 0
M  V30 586 C 56.6157 -1.52275 0.841925 0
M  V30 587 O 57.7917 -1.65759 1.14394 0
M  V30 588 C 54.8567 -2.65156 2.23368 0
M  V30 589 C 53.9177 -2.53173 3.46701 0
M  V30 590 C 53.1507 -3.8014 3.74606 0
M  V30 591 O 53.3737 -4.82343 3.04469 0
M  V30 592 O 52.3077 -3.78344 4.68123 0
M  V30 593 H 56.1337 -1.02347 2.85935 0
M  V30 594 H 53.7187 -0.441123 1.42739 0
M  V30 595 H 55.6007 -3.43929 2.43497 0
M  V30 596 H 54.2757 -2.94358 1.34666 0
M  V30 597 H 53.1827 -1.72662 3.31871 0
M  V30 598 H 54.5157 -2.28915 4.35728 0
M  V30 599 N 56.1678 -1.49265 -0.50573 0
M  V30 600 C 57.1308 -1.65075 -1.59006 0
M  V30 601 C 58.1308 -0.522768 -1.52065 0
M  V30 602 O 59.3208 -0.789117 -1.55302 0
M  V30 603 C 56.4528 -1.64369 -2.98656 0
M  V30 604 H 57.6458 -2.61784 -1.46319 0
M  V30 605 H 55.1988 -1.38226 -0.729616 0
M  V30 606 H 55.9338 -0.692272 -3.16825 0
M  V30 607 H 55.7188 -2.46282 -3.05103 0
M  V30 608 H 57.2088 -1.78674 -3.77446 0
M  V30 609 N 57.6459 0.756429 -1.3826 0
M  V30 610 C 58.5759 1.88374 -1.37976 0
M  V30 611 C 59.5569 1.68311 -0.246082 0
M  V30 612 O 60.7419 1.88944 -0.44874 0
M  V30 613 C 57.8719 3.25864 -1.20125 0
M  V30 614 C 56.8259 3.60523 -2.30666 0
M  V30 615 C 56.1519 4.9672 -1.97923 0
M  V30 616 C 57.4519 3.65692 -3.72916 0
M  V30 617 H 59.1459 1.88869 -2.32312 0
M  V30 618 H 56.6919 0.907272 -1.11824 0
M  V30 619 H 58.6449 4.0438 -1.18552 0
M  V30 620 H 57.3689 3.25841 -0.222498 0
M  V30 621 H 56.0279 2.84324 -2.3142 0
M  V30 622 H 55.6759 4.93253 -0.985393 0
M  V30 623 H 55.3759 5.20878 -2.71955 0
M  V30 624 H 56.8999 5.77618 -1.97964 0
M  V30 625 H 58.3139 4.34328 -3.74208 0
M  V30 626 H 56.7109 4.01358 -4.4613 0
M  V30 627 H 57.7809 2.65987 -4.05436 0
M  V30 628 N 59.124 1.23083 0.984299 0
M  V30 629 C 60.034 1.02515 2.11016 0
M  V30 630 C 61.05 -0.0291702 1.73976 0
M  V30 631 O 62.226 0.165434 2.00719 0
M  V30 632 C 59.291 0.614673 3.41208 0
M  V30 633 C 58.352 1.74359 3.92297 0
M  V30 634 C 57.585 1.35261 5.16275 0
M  V30 635 O 57.808 0.235136 5.69915 0
M  V30 636 O 56.742 2.17227 5.61334 0
M  V30 637 H 60.568 1.96862 2.31255 0
M  V30 638 H 58.153 1.01753 1.09392 0
M  V30 639 H 60.035 0.396518 4.1953 0
M  V30 640 H 58.71 -0.299851 3.22308 0
M  V30 641 H 57.617 2.01635 3.1511 0
M  V30 642 H 58.95 2.63629 4.15645 0
M  V30 643 N 60.6021 -1.18246 1.0419 0
M  V30 644 C 61.5491 -2.2192 0.634037 0
M  V30 645 C 62.5191 -1.62179 -0.358765 0
M  V30 646 O 63.7041 -1.89122 -0.252466 0
M  V30 647 C 60.8441 -3.451 0.00445535 0
M  V30 648 C 59.9571 -4.19174 1.04487 0
M  V30 649 C 59.0921 -5.29813 0.383676 0
M  V30 650 C 58.1311 -5.9566 1.4091 0
M  V30 651 N 57.2681 -6.97834 0.772784 0
M  V30 652 H 62.1081 -2.56164 1.52263 0
M  V30 653 H 59.6451 -1.25843 0.761701 0
M  V30 654 H 61.6031 -4.15485 -0.377919 0
M  V30 655 H 60.2331 -3.11472 -0.847652 0
M  V30 656 H 59.2851 -3.47604 1.54518 0
M  V30 657 H 60.5971 -4.64267 1.82368 0
M  V30 658 H 59.7511 -6.06677 -0.0528366 0
M  V30 659 H 58.4901 -4.85825 -0.427208 0
M  V30 660 H 57.4951 -5.17535 1.85574 0
M  V30 661 H 58.7201 -6.4173 2.22171 0
M  V30 662 H 56.6661 -6.55998 -0.0177708 0
M  V30 663 H 56.5831 -7.41186 1.48928 0
M  V30 664 H 57.8511 -7.78665 0.36071 0
M  V30 665 N 62.0802 -0.821533 -1.34494 0
M  V30 666 C 63.3052 -0.420873 -2.03085 0
M  V30 667 C 63.7302 0.964915 -1.61465 0
M  V30 668 O 63.0882 1.62763 -0.798607 0
M  V30 669 C 63.1362 -0.529414 -3.56693 0
M  V30 670 O 62.2402 0.451302 -4.09923 0
M  V30 671 H 61.5812 -0.173489 -0.640935 0
M  V30 672 H 64.1112 -1.11157 -1.71771 0
M  V30 673 H 64.1212 -0.404671 -4.05988 0
M  V30 674 H 62.7962 -1.54014 -3.86332 0
M  V30 675 H 61.3732 0.285558 -3.71805 0
M  V30 676 N 63.5583 1.46682 -0.576371 0
M  V30 677 C 64.7833 2.07304 -0.0630475 0
M  V30 678 C 65.2083 1.42329 1.2298 0
M  V30 679 O 64.5663 0.504865 1.74129 0
M  V30 680 C 64.6143 3.60472 0.095895 0
M  V30 681 O 63.7183 3.95927 1.15394 0
M  V30 682 H 63.0593 0.661288 -0.0599463 0
M  V30 683 H 65.5893 1.88417 -0.797511 0
M  V30 684 H 65.5993 4.06865 0.304071 0
M  V30 685 H 64.2743 4.07157 -0.84828 0
M  V30 686 H 62.8513 3.61252 0.924724 0
M  V30 687 N 65.0364 0.313813 1.54444 0
M  V30 688 C 66.2844 -0.291099 1.99993 0
M  V30 689 C 66.6054 -1.53418 1.20366 0
M  V30 690 O 65.8754 -1.93544 0.302927 0
M  V30 691 H 64.4554 -0.110552 0.738774 0
M  V30 692 H 67.1174 0.428106 1.9014 0
M  V30 693 H 66.2134 -0.554268 3.07139 0
M  V30 694 N 66.5145 -1.57545 0.0417849 0
M  V30 695 C 67.7625 -1.91937 -0.632829 0
M  V30 696 C 68.0835 -0.919978 -1.71934 0
M  V30 697 O 67.3535 0.0366064 -1.95866 0
M  V30 698 H 65.9335 -0.708493 -0.236742 0
M  V30 699 H 68.5955 -1.9468 0.0925745 0
M  V30 700 H 67.6915 -2.92912 -1.07746 0
M  V30 701 N 67.9926 0.231505 -1.5589 0
M  V30 702 C 69.4086 0.580748 -1.48659 0
M  V30 703 C 69.6086 1.87617 -0.73498 0
M  V30 704 O 68.6646 2.51046 -0.270586 0
M  V30 705 C 69.9776 0.669202 -2.93159 0
M  V30 706 C 71.5256 0.760499 -3.03621 0
M  V30 707 C 72.0006 0.880383 -4.49459 0
M  V30 708 N 73.4916 0.944861 -4.53461 0
M  V30 709 C 74.2266 1.05716 -5.63571 0
M  V30 710 N 73.7226 1.13403 -6.83456 0
M  V30 711 N 75.5156 1.09152 -5.514 0
M  V30 712 H 67.6666 -0.618695 -2.03189 0
M  V30 713 H 69.9296 -0.215728 -0.923128 0
M  V30 714 H 69.6356 -0.212904 -3.51055 0
M  V30 715 H 69.5096 1.5361 -3.44505 0
M  V30 716 H 71.8966 1.63305 -2.45796 0
M  V30 717 H 71.9776 -0.131864 -2.5546 0
M  V30 718 H 71.6216 0.0123284 -5.07899 0
M  V30 719 H 71.5516 1.78802 -4.95316 0
M  V30 720 H 74.0426 0.896176 -3.6712 0
M  V30 721 H 74.3556 1.21921 -7.63122 0
M  V30 722 H 72.7006 1.10333 -6.86186 0
M  V30 723 H 75.8916 1.02805 -4.56671 0
M  V30 724 H 76.0646 1.17558 -6.37247 0
M  V30 725 N 69.4707 1.49531 0.497807 0
M  V30 726 C 70.4007 1.6935 1.60757 0
M  V30 727 C 71.3817 0.542218 1.61227 0
M  V30 728 O 72.5667 0.778417 1.77917 0
M  V30 729 C 69.6967 1.76298 2.99226 0
M  V30 730 C 68.6507 2.91248 3.13622 0
M  V30 731 C 67.9767 2.83312 4.53474 0
M  V30 732 C 69.2767 4.3214 2.93346 0
M  V30 733 H 70.9707 2.62263 1.44425 0
M  V30 734 H 68.5167 1.26208 0.693367 0
M  V30 735 H 70.4697 1.88749 3.76765 0
M  V30 736 H 69.1937 0.799871 3.16654 0
M  V30 737 H 67.8527 2.78404 2.38509 0
M  V30 738 H 67.5007 1.84902 4.67782 0
M  V30 739 H 67.2007 3.60465 4.64046 0
M  V30 740 H 68.7247 2.97775 5.33069 0
M  V30 741 H 70.1387 4.45649 3.60652 0
M  V30 742 H 68.5357 5.1054 3.15387 0
M  V30 743 H 69.6057 4.46363 1.89441 0
M  V30 744 N 70.9488 -0.749086 1.3866 0
M  V30 745 C 72.1968 -1.50535 1.34847 0
M  V30 746 C 72.5178 -1.94909 -0.0595016 0
M  V30 747 O 71.7878 -1.67973 -1.00806 0
M  V30 748 H 70.3678 -0.558395 0.49619 0
M  V30 749 H 73.0298 -0.890165 1.73384 0
M  V30 750 H 72.1258 -2.39413 2.00219 0
M  V30 751 N 72.4269 -1.23603 -0.977757 0
M  V30 752 C 73.6729 -1.07129 -1.72195 0
M  V30 753 C 74.0059 0.390501 -1.90233 0
M  V30 754 O 73.2809 1.28902 -1.45653 0
M  V30 755 C 73.5639 -1.80031 -3.11867 0
M  V30 756 C 73.4169 -3.33899 -3.01383 0
M  V30 757 C 74.7359 -1.56492 -4.11337 0
M  V30 758 H 71.8549 -0.390571 -0.624999 0
M  V30 759 H 74.4969 -1.52142 -1.13811 0
M  V30 760 H 72.6469 -1.41768 -3.6171 0
M  V30 761 H 74.3189 -3.81699 -2.59043 0
M  V30 762 H 72.5619 -3.62796 -2.37827 0
M  V30 763 H 73.2329 -3.801 -4.00285 0
M  V30 764 H 75.7089 -1.89757 -3.70313 0
M  V30 765 H 74.5849 -2.09973 -5.07151 0
M  V30 766 H 74.8459 -0.500874 -4.39254 0
M  V30 767 N 73.905 1.17692 -1.04816 0
M  V30 768 C 74.868 2.19787 -0.650117 0
M  V30 769 C 75.868 1.58044 0.296427 0
M  V30 770 O 77.058 1.74012 0.0808097 0
M  V30 771 C 74.19 3.40869 0.0456987 0
M  V30 772 H 75.383 2.56516 -1.5537 0
M  V30 773 H 72.936 1.31708 -0.841594 0
M  V30 774 H 73.671 3.09681 0.962726 0
M  V30 775 H 73.456 3.86928 -0.634727 0
M  V30 776 H 74.946 4.16445 0.310432 0
M  V30 777 N 75.3831 0.828654 1.34056 0
M  V30 778 C 76.3131 0.269443 2.3194 0
M  V30 779 C 77.2941 -0.617247 1.58506 0
M  V30 780 O 78.4791 -0.542931 1.86456 0
M  V30 781 C 75.6091 -0.564793 3.42677 0
M  V30 782 C 74.5631 0.225241 4.27407 0
M  V30 783 C 73.8891 -0.7321 5.29664 0
M  V30 784 C 75.1891 1.43663 5.02154 0
M  V30 785 H 76.8831 1.08728 2.7896 0
M  V30 786 H 74.4291 0.524283 1.34117 0
M  V30 787 H 76.3821 -0.966233 4.10173 0
M  V30 788 H 75.1061 -1.41574 2.9432 0
M  V30 789 H 73.7651 0.608117 3.61521 0
M  V30 790 H 73.4131 -1.57916 4.77568 0
M  V30 791 H 73.1131 -0.20767 5.87233 0
M  V30 792 H 74.6371 -1.13128 6.00029 0
M  V30 793 H 76.0511 1.1089 5.62473 0
M  V30 794 H 74.4481 1.89711 5.69324 0
M  V30 795 H 75.5181 2.21181 4.31517 0
M  V30 796 N 76.8612 -1.46375 0.584142 0
M  V30 797 C 78.1102 -2.01585 0.0679741 0
M  V30 798 C 78.4232 -1.46109 -1.30045 0
M  V30 799 O 79.6292 -1.93148 -1.90804 0
M  V30 800 C 78.0852 -3.5983 0.0709207 0
M  V30 801 C 77.6932 -4.24303 1.43775 0
M  V30 802 C 79.4372 -4.22693 -0.391228 0
M  V30 803 C 77.3442 -5.74631 1.39834 0
M  V30 804 H 76.2742 -0.753689 0.0216421 0
M  V30 805 H 78.9252 -1.68093 0.736001 0
M  V30 806 H 77.3072 -3.90405 -0.663299 0
M  V30 807 H 78.4812 -4.05335 2.19181 0
M  V30 808 H 76.7962 -3.73539 1.84004 0
M  V30 809 H 79.3932 -5.3289 -0.439524 0
M  V30 810 H 79.7362 -3.91728 -1.40906 0
M  V30 811 H 80.2692 -3.96749 0.288974 0
M  V30 812 H 77.0082 -6.10258 2.39303 0
M  V30 813 H 76.5282 -5.95858 0.686505 0
M  V30 814 H 78.2072 -6.37375 1.11187 0
M  V30 815 N 78.3393 -0.321999 -1.54275 0
M  V30 816 C 79.2873 0.560206 -2.25753 0
M  V30 817 C 80.2813 1.11984 -1.27106 0
M  V30 818 O 81.4873 1.06806 -1.44888 0
M  V30 819 H 77.8623 0.199304 -0.725108 0
M  V30 820 H 79.8333 -0.0649365 -2.98329 0
M  V30 821 C 78.5823 1.71023 -3.02731 0
M  V30 822 H 77.9053 1.28885 -3.78456 0
M  V30 823 H 79.3453 2.30314 -3.55993 0
M  V30 824 C 77.8043 2.62692 -2.10938 0
M  V30 825 O 78.3343 3.64364 -1.6912 0
M  V30 826 N 76.5403 2.30891 -1.76459 0
M  V30 827 H 76.0873 1.48253 -2.10663 0
M  V30 828 H 76.0453 2.92487 -1.1532 0
M  V30 829 N 79.8174 1.5752 -0.0501392 0
M  V30 830 C 81.0454 1.96963 0.633492 0
M  V30 831 C 81.4604 0.927631 1.6444 0
M  V30 832 O 80.8174 -0.0882665 1.82286 0
M  V30 833 C 80.8684 3.36487 1.32132 0
M  V30 834 O 80.5894 4.36693 0.350894 0
M  V30 835 C 82.0904 3.90682 2.09481 0
M  V30 836 H 79.3104 0.648244 0.173266 0
M  V30 837 H 81.8544 2.0417 -0.116134 0
M  V30 838 H 80.0094 3.30434 2.02218 0
M  V30 839 H 80.4234 5.17702 0.841735 0
M  V30 840 H 81.8974 4.90591 2.5303 0
M  V30 841 H 82.3744 3.26053 2.94255 0
M  V30 842 H 82.9804 4.00069 1.44307 0
M  V30 843 N 81.2955 -0.223234 1.56011 0
M  V30 844 C 82.2585 -1.26014 1.9145 0
M  V30 845 C 83.2585 -1.3989 0.792937 0
M  V30 846 O 84.4485 -1.38184 1.0607 0
M  V30 847 C 81.5805 -2.63422 2.16383 0
M  V30 848 H 82.7735 -0.95796 2.84189 0
M  V30 849 H 80.3265 -0.463576 1.49267 0
M  V30 850 H 81.0615 -2.98741 1.2619 0
M  V30 851 H 80.8465 -2.54728 2.98088 0
M  V30 852 H 82.3365 -3.38249 2.44903 0
M  V30 853 N 82.7736 -1.49793 -0.48987 0
M  V30 854 C 84.0506 -1.50348 -1.25119 0
M  V30 855 C 84.4306 -0.237466 -2.0976 0
M  V30 856 O 83.7786 0.77981 -2.14782 0
M  V30 857 C 83.9886 -2.78872 -2.09837 0
M  V30 858 C 85.3366 -3.288 -2.68655 0
M  V30 859 O 86.3606 -2.80065 -2.20096 0
M  V30 860 O 85.2196 -4.13707 -3.57083 0
M  V30 861 H 82.3136 -0.602242 -0.566775 0
M  V30 862 H 84.8596 -1.62067 -0.503229 0
M  V30 863 H 83.6316 -3.62499 -1.47343 0
M  V30 864 H 83.2546 -2.70066 -2.91805 0
M  V30 865 N 84.2517 0.741722 -1.39055 0
M  V30 866 C 85.1997 1.87702 -1.3737 0
M  V30 867 C 86.1937 1.67427 -0.257812 0
M  V30 868 O 87.3997 1.7485 -0.427489 0
M  V30 869 H 83.7747 0.617757 -0.428812 0
M  V30 870 H 85.7457 1.86239 -2.33147 0
M  V30 871 C 84.4947 3.25315 -1.22741 0
M  V30 872 H 83.8177 3.41509 -2.07873 0
M  V30 873 H 85.2577 4.04964 -1.25618 0
M  V30 874 C 83.7167 3.36838 0.0647316 0
M  V30 875 O 84.2467 3.88073 1.03741 0
M  V30 876 N 82.4527 2.90329 0.125544 0
M  V30 877 H 81.9997 2.48823 -0.666682 0
M  V30 878 H 81.9577 2.98418 0.989639 0
M  V30 879 N 85.7298 1.2412 0.971189 0
M  V30 880 C 86.9548 1.10667 1.75407 0
M  V30 881 C 87.3798 -0.337048 1.85056 0
M  V30 882 O 86.7378 -1.24396 1.31892 0
M  V30 883 C 86.7858 1.74726 3.15441 0
M  V30 884 O 85.8898 1.01566 3.99697 0
M  V30 885 H 85.2308 0.387341 0.539317 0
M  V30 886 H 87.7608 1.64358 1.2185 0
M  V30 887 H 87.7708 1.80341 3.6598 0
M  V30 888 H 86.4458 2.79773 3.07734 0
M  V30 889 H 85.0228 1.03713 3.58187 0
M  V30 890 N 87.2079 -1.17134 1.05439 0
M  V30 891 C 88.1399 -2.2078 0.615539 0
M  V30 892 C 89.1529 -1.59584 -0.322001 0
M  V30 893 O 90.3419 -1.78133 -0.114344 0
M  V30 894 C 87.4419 -3.38691 -0.118938 0
M  V30 895 C 86.6149 -4.29454 0.829924 0
M  V30 896 C 85.6739 -5.26024 0.136258 0
M  V30 897 O 84.6999 -5.63952 0.77115 0
M  V30 898 N 85.9019 -5.69487 -1.1254 0
M  V30 899 H 88.6669 -2.59052 1.50705 0
M  V30 900 H 86.2279 -1.32058 0.936603 0
M  V30 901 H 88.2199 -4.00329 -0.593179 0
M  V30 902 H 86.7899 -2.98996 -0.91215 0
M  V30 903 H 86.0099 -3.65211 1.48373 0
M  V30 904 H 87.2979 -4.86984 1.47392 0
M  V30 905 H 86.6959 -5.4075 -1.6615 0
M  V30 906 H 85.2529 -6.33257 -1.54366 0
M  V30 907 N 88.686 -0.835752 -1.33615 0
M  V30 908 C 89.935 -0.426289 -1.97144 0
M  V30 909 C 90.248 1.01912 -1.66953 0
M  V30 910 O 91.454 1.53311 -2.24072 0
M  V30 911 C 89.91 -0.711321 -3.52801 0
M  V30 912 C 89.518 -2.1712 -3.91871 0
M  V30 913 C 91.262 -0.368654 -4.22896 0
M  V30 914 C 89.169 -2.40044 -5.40493 0
M  V30 915 H 88.099 -0.15567 -0.737755 0
M  V30 916 H 90.75 -1.0239 -1.52278 0
M  V30 917 H 89.132 -0.0433766 -3.95976 0
M  V30 918 H 90.306 -2.87936 -3.59763 0
M  V30 919 H 88.621 -2.47654 -3.34749 0
M  V30 920 H 91.218 -0.517601 -5.32189 0
M  V30 921 H 91.561 0.688078 -4.10574 0
M  V30 922 H 92.094 -0.991702 -3.8524 0
M  V30 923 H 88.833 -3.44271 -5.57815 0
M  V30 924 H 88.353 -1.73785 -5.74072 0
M  V30 925 H 90.032 -2.23042 -6.0734 0
M  V30 926 N 90.1641 1.46063 -0.591896 0
M  V30 927 C 91.0941 2.33172 0.123673 0
M  V30 928 C 92.0751 1.45897 0.87453 0
M  V30 929 O 93.2601 1.74698 0.848181 0
M  V30 930 C 90.3901 3.28336 1.13194 0
M  V30 931 C 89.3441 4.25124 0.495324 0
M  V30 932 C 88.6701 5.09863 1.61071 0
M  V30 933 C 89.9701 5.19143 -0.573425 0
M  V30 934 H 91.6641 2.93252 -0.603646 0
M  V30 935 H 89.2101 1.41014 -0.291741 0
M  V30 936 H 91.1631 3.88137 1.64097 0
M  V30 937 H 89.8871 2.66383 1.88965 0
M  V30 938 H 88.5461 3.66599 0.00729452 0
M  V30 939 H 88.1941 4.44288 2.35832 0
M  V30 940 H 87.8941 5.75417 1.19035 0
M  V30 941 H 89.4181 5.72529 2.12233 0
M  V30 942 H 90.8321 5.73106 -0.1491 0
M  V30 943 H 89.2291 5.93089 -0.914636 0
M  V30 944 H 90.2991 4.62519 -1.45617 0
M  V30 945 N 91.6422 0.330177 1.54103 0
M  V30 946 C 92.8722 -0.271784 2.04805 0
M  V30 947 C 93.2802 -1.45816 1.20559 0
M  V30 948 O 92.6232 -1.82247 0.2306 0
M  V30 949 C 92.6852 -0.763238 3.51305 0
M  V30 950 C 92.3492 0.301705 4.56003 0
M  V30 951 C 93.3462 1.13999 5.07248 0
M  V30 952 C 91.0312 0.451793 5.00264 0
M  V30 953 C 93.0252 2.11402 6.01322 0
M  V30 954 C 90.7122 1.42924 5.94151 0
M  V30 955 C 91.7102 2.25882 6.44567 0
M  V30 956 O 91.3982 3.21965 7.3661 0
M  V30 957 H 91.1302 -0.058693 0.673447 0
M  V30 958 H 93.6842 0.476395 1.99799 0
M  V30 959 H 91.9142 -1.56244 3.5373 0
M  V30 960 H 93.6032 -1.28427 3.85047 0
M  V30 961 H 94.3692 1.03505 4.73827 0
M  V30 962 H 90.2482 -0.184044 4.60632 0
M  V30 963 H 93.7922 2.76192 6.40596 0
M  V30 964 H 89.6892 1.53479 6.26988 0
M  V30 965 H 90.4572 3.17281 7.54503 0
M  V30 966 N 93.1203 -1.57491 0.0584922 0
M  V30 967 C 94.5363 -1.56792 -0.298091 0
M  V30 968 C 94.7363 -1.06679 -1.70944 0
M  V30 969 O 93.7923 -0.726672 -2.41818 0
M  V30 970 C 95.1053 -3.00461 -0.119879 0
M  V30 971 C 96.6533 -3.1242 -0.190428 0
M  V30 972 C 97.1283 -4.57982 -0.0406567 0
M  V30 973 N 98.6193 -4.63099 -0.0966958 0
M  V30 974 C 99.3543 -5.734 -0.00502943 0
M  V30 975 N 98.8503 -6.9266 0.139402 0
M  V30 976 N 100.643 -5.62067 -0.0611391 0
M  V30 977 H 92.7943 -1.88386 0.98105 0
M  V30 978 H 95.0573 -0.867865 0.381463 0
M  V30 979 H 94.7633 -3.41187 0.85349 0
M  V30 980 H 94.6373 -3.66843 -0.877833 0
M  V30 981 H 97.0243 -2.71589 -1.15427 0
M  V30 982 H 97.1053 -2.48702 0.598405 0
M  V30 983 H 96.7493 -4.995 0.919897 0
M  V30 984 H 96.6793 -5.19715 -0.848727 0
M  V30 985 H 99.1703 -3.77331 -0.207277 0
M  V30 986 H 99.4833 -7.72536 0.201855 0
M  V30 987 H 97.8283 -6.94781 0.174586 0
M  V30 988 H 101.019 -4.67782 -0.172583 0
M  V30 989 H 101.192 -6.47999 0.0137562 0
M  V30 990 N 94.5984 0.214957 -1.56127 0
M  V30 991 C 95.5614 1.24997 -1.92116 0
M  V30 992 C 96.5614 1.39467 -0.800344 0
M  V30 993 O 97.7514 1.37619 -1.06802 0
M  V30 994 C 94.8834 2.62271 -2.17777 0
M  V30 995 H 96.0764 0.942875 -2.84693 0
M  V30 996 H 93.6294 0.455654 -1.49511 0
M  V30 997 H 94.3644 2.98068 -1.27773 0
M  V30 998 H 94.1494 2.53143 -2.99434 0
M  V30 999 H 95.6394 3.36946 -2.46693 0
M  V30 1000 N 96.0765 1.50051 0.48192 0
M  V30 1001 C 97.3535 1.51009 1.2432 0
M  V30 1002 C 97.7335 0.248587 2.09631 0
M  V30 1003 O 97.0815 -0.768409 2.15192 0
M  V30 1004 C 97.2915 2.79981 2.08355 0
M  V30 1005 C 98.6395 3.3022 2.66908 0
M  V30 1006 O 99.6635 2.81228 2.18607 0
M  V30 1007 O 98.5225 4.15595 3.54884 0
M  V30 1008 H 95.6165 0.605239 0.563573 0
M  V30 1009 H 98.1625 1.62332 0.494627 0
M  V30 1010 H 96.9345 3.63275 1.45419 0
M  V30 1011 H 96.5575 2.7161 2.90368 0
M  V30 1012 N 97.5546 -0.734337 1.39446 0
M  V30 1013 C 98.4646 -1.87879 1.40495 0
M  V30 1014 C 99.4806 -1.714 0.299672 0
M  V30 1015 O 100.657 -1.93991 0.541249 0
M  V30 1016 C 97.7216 -3.23477 1.24754 0
M  V30 1017 C 96.7826 -3.52344 2.45259 0
M  V30 1018 C 96.0156 -4.81473 2.30259 0
M  V30 1019 O 96.2386 -5.55237 1.30643 0
M  V30 1020 O 95.1726 -5.10254 3.19256 0
M  V30 1021 H 98.9986 -1.89949 2.36966 0
M  V30 1022 H 96.5836 -0.882243 1.20569 0
M  V30 1023 H 98.4656 -4.04509 1.18111 0
M  V30 1024 H 97.1406 -3.22176 0.313781 0
M  V30 1025 H 96.0476 -2.71396 2.57478 0
M  V30 1026 H 97.3806 -3.58426 3.37331 0
M  V30 1027 N 99.0327 -1.24633 -0.964593 0
M  V30 1028 C 100.449 -1.01239 -1.2338 0
M  V30 1029 C 100.649 0.2769 -1.99588 0
M  V30 1030 O 99.7047 0.992241 -2.32187 0
M  V30 1031 C 101.018 -2.22937 -2.01791 0
M  V30 1032 C 102.566 -2.27594 -2.14872 0
M  V30 1033 C 103.041 -3.48921 -2.96678 0
M  V30 1034 N 104.532 -3.49257 -3.04259 0
M  V30 1035 C 105.267 -4.39795 -3.67924 0
M  V30 1036 N 104.763 -5.40591 -4.33281 0
M  V30 1037 N 106.556 -4.275 -3.64966 0
M  V30 1038 H 98.7067 -2.0748 -0.454502 0
M  V30 1039 H 100.97 -0.910647 -0.26349 0
M  V30 1040 H 100.676 -3.16587 -1.53184 0
M  V30 1041 H 100.55 -2.25306 -3.02518 0
M  V30 1042 H 102.937 -1.34473 -2.6268 0
M  V30 1043 H 103.018 -2.2925 -1.13482 0
M  V30 1044 H 102.662 -4.42359 -2.49562 0
M  V30 1045 H 102.592 -3.4451 -3.98272 0
M  V30 1046 H 105.083 -2.76337 -2.57771 0
M  V30 1047 H 105.396 -6.05904 -4.79687 0
M  V30 1048 H 103.741 -5.44475 -4.3194 0
M  V30 1049 H 106.932 -3.47987 -3.13086 0
M  V30 1050 H 107.105 -4.98258 -4.14298 0
M  V30 1051 N 100.511 1.16574 -1.06058 0
M  V30 1052 C 101.758 1.87047 -0.775873 0
M  V30 1053 C 102.086 1.81562 0.697534 0
M  V30 1054 O 101.341 1.22445 1.52662 0
M  V30 1055 C 101.64 3.36195 -1.21275 0
M  V30 1056 C 101.306 3.6188 -2.68986 0
M  V30 1057 C 99.9678 3.68599 -3.09335 0
M  V30 1058 C 102.32 3.72648 -3.64394 0
M  V30 1059 C 99.6478 3.83584 -4.43937 0
M  V30 1060 C 102 3.89154 -4.98741 0
M  V30 1061 C 100.664 3.94114 -5.3873 0
M  V30 1062 H 99.9338 0.684452 -0.283912 0
M  V30 1063 H 102.581 1.37853 -1.32925 0
M  V30 1064 H 100.886 3.87505 -0.578528 0
M  V30 1065 H 102.583 3.89103 -0.969542 0
M  V30 1066 H 99.1728 3.57281 -2.36744 0
M  V30 1067 H 103.357 3.66769 -3.34356 0
M  V30 1068 H 98.6128 3.85677 -4.74409 0
M  V30 1069 H 102.787 3.96427 -5.72554 0
M  V30 1070 H 100.414 4.05478 -6.43033 0
M  V30 1071 N 101.989 0.842826 1.3317 0
M  V30 1072 C 102.952 0.284065 2.27433 0
M  V30 1073 C 103.952 -0.54948 1.5112 0
M  V30 1074 O 105.142 -0.362699 1.70382 0
M  V30 1075 C 102.274 -0.599384 3.35589 0
M  V30 1076 H 103.467 1.11589 2.78366 0
M  V30 1077 H 101.02 0.616221 1.4364 0
M  V30 1078 H 101.755 -1.45349 2.89904 0
M  V30 1079 H 101.54 -0.00291266 3.921 0
M  V30 1080 H 103.03 -0.983488 4.05854 0
M  V30 1081 N 103.467 -1.45747 0.599634 0
M  V30 1082 C 104.4 -2.27547 -0.172552 0
M  V30 1083 C 105.378 -1.36657 -0.881116 0
M  V30 1084 O 106.562 -1.66081 -0.891595 0
M  V30 1085 C 103.689 -3.14829 -1.24903 0
M  V30 1086 C 102.735 -4.21603 -0.644465 0
M  V30 1087 S 103.568 -5.32754 0.541606 0
M  V30 1088 C 104.724 -6.23604 -0.535656 0
M  V30 1089 H 104.957 -2.92691 0.521468 0
M  V30 1090 H 102.49 -1.49473 0.386947 0
M  V30 1091 H 104.448 -3.65675 -1.86527 0
M  V30 1092 H 103.109 -2.48965 -1.91508 0
M  V30 1093 H 102.302 -4.82566 -1.45417 0
M  V30 1094 H 101.904 -3.73857 -0.103534 0
M  V30 1095 H 104.196 -6.62519 -1.41686 0
M  V30 1096 H 105.139 -7.0809 0.0376246 0
M  V30 1097 H 105.547 -5.58103 -0.84741 0
M  V30 1098 N 104.945 -0.338344 -1.53925 0
M  V30 1099 C 106.185 0.260168 -2.02737 0
M  V30 1100 C 106.549 1.48181 -1.22092 0
M  V30 1101 O 107.75 2.15416 -1.60777 0
M  V30 1102 C 106.021 0.571627 -3.52799 0
M  V30 1103 S 107.58 1.14769 -4.23525 0
M  V30 1104 H 104.398 0.077791 -0.706732 0
M  V30 1105 H 107 -0.474899 -1.89644 0
M  V30 1106 H 105.704 -0.325392 -4.09108 0
M  V30 1107 H 105.235 1.3365 -3.70002 0
M  V30 1108 H 107.25 2.43372 -4.32417 0
M  V30 1109 N 106.423 1.57458 -0.0668435 0
M  V30 1110 C 107.648 1.9804 0.616027 0
M  V30 1111 C 108.073 0.944771 1.62652 0
M  V30 1112 O 107.431 -0.0902094 1.81075 0
M  V30 1113 C 107.479 3.37665 1.26549 0
M  V30 1114 O 106.583 3.36701 2.38131 0
M  V30 1115 H 105.924 0.644719 0.158849 0
M  V30 1116 H 108.454 2.04121 -0.139891 0
M  V30 1117 H 108.464 3.7474 1.6135 0
M  V30 1118 H 107.139 4.12573 0.525016 0
M  V30 1119 H 105.716 3.1139 2.0516 0
M  V30 1120 N 107.901 -0.206675 1.56239 0
M  V30 1121 C 109.129 -0.945345 1.8404 0
M  V30 1122 C 109.544 -1.77336 0.647885 0
M  V30 1123 O 108.901 -1.78425 -0.383511 0
M  V30 1124 C 108.952 -1.8509 3.10522 0
M  V30 1125 O 108.673 -1.05634 4.25174 0
M  V30 1126 C 110.174 -2.70222 3.51418 0
M  V30 1127 H 107.394 -0.276372 0.61144 0
M  V30 1128 H 109.938 -0.217417 2.03341 0
M  V30 1129 H 108.093 -2.53259 2.93153 0
M  V30 1130 H 108.507 -1.67238 4.97124 0
M  V30 1131 H 109.981 -3.29438 4.42916 0
M  V30 1132 H 110.458 -3.43358 2.73864 0
M  V30 1133 H 111.064 -2.07443 3.71278 0
M  V30 1134 N 109.379 -1.50304 -0.473955 0
M  V30 1135 C 110.604 -1.65175 -1.25427 0
M  V30 1136 C 111.029 -0.333673 -1.85117 0
M  V30 1137 O 110.387 0.702114 -1.67153 0
M  V30 1138 C 110.435 -2.74295 -2.34082 0
M  V30 1139 O 109.539 -2.35349 -3.38651 0
M  V30 1140 H 108.88 -0.551944 -0.369126 0
M  V30 1141 H 111.41 -1.96662 -0.564364 0
M  V30 1142 H 111.42 -2.97285 -2.79438 0
M  V30 1143 H 110.095 -3.69959 -1.90008 0
M  V30 1144 H 108.672 -2.22794 -2.99027 0
M  V30 1145 N 110.857 0.726932 -1.39834 0
M  V30 1146 C 111.804 1.841 -1.39197 0
M  V30 1147 C 112.774 1.642 -0.250502 0
M  V30 1148 O 113.959 1.85494 -0.446846 0
M  V30 1149 C 111.099 3.21697 -1.24919 0
M  V30 1150 C 110.212 3.53247 -2.48678 0
M  V30 1151 C 109.347 4.80289 -2.26928 0
M  V30 1152 C 108.386 5.04707 -3.4632 0
M  V30 1153 N 107.523 6.22956 -3.23836 0
M  V30 1154 H 112.363 1.83979 -2.34427 0
M  V30 1155 H 109.9 0.898876 -1.16442 0
M  V30 1156 H 111.858 4.01137 -1.1465 0
M  V30 1157 H 110.488 3.21076 -0.333153 0
M  V30 1158 H 109.54 2.68447 -2.69519 0
M  V30 1159 H 110.852 3.67205 -3.37582 0
M  V30 1160 H 110.006 5.67725 -2.13947 0
M  V30 1161 H 108.745 4.68519 -1.35431 0
M  V30 1162 H 107.75 4.1573 -3.5979 0
M  V30 1163 H 108.975 5.18357 -4.38729 0
M  V30 1164 H 106.921 6.12459 -2.35011 0
M  V30 1165 H 106.838 6.37539 -4.063 0
M  V30 1166 H 108.106 7.1321 -3.14566 0
M  V30 1167 N 112.336 1.25143 0.95797 0
M  V30 1168 C 113.582 1.09855 1.70469 0
M  V30 1169 C 113.915 -0.360187 1.90831 0
M  V30 1170 O 113.19 -1.26568 1.47685 0
M  V30 1171 C 113.473 1.8497 3.08963 0
M  V30 1172 C 113.326 3.38652 2.96032 0
M  V30 1173 C 114.645 1.63016 4.08795 0
M  V30 1174 H 111.764 0.400465 0.618706 0
M  V30 1175 H 114.406 1.53933 1.11376 0
M  V30 1176 H 112.556 1.47505 3.59409 0
M  V30 1177 H 114.228 3.85772 2.52938 0
M  V30 1178 H 112.471 3.66534 2.32025 0
M  V30 1179 H 113.142 3.8642 3.94187 0
M  V30 1180 H 115.618 1.95625 3.67247 0
M  V30 1181 H 114.494 2.18015 5.03747 0
M  V30 1182 H 114.755 0.570692 4.38401 0
M  V30 1183 N 113.814 -1.1601 1.06675 0
M  V30 1184 C 114.747 -2.1947 0.625168 0
M  V30 1185 C 115.725 -1.58699 -0.354041 0
M  V30 1186 O 116.909 -1.86669 -0.262098 0
M  V30 1187 C 114.036 -3.38598 -0.0829593 0
M  V30 1188 C 113.082 -4.1787 0.853611 0
M  V30 1189 S 113.915 -4.81135 2.35094 0
M  V30 1190 C 115.071 -6.03639 1.65441 0
M  V30 1191 H 115.304 -2.56587 1.50168 0
M  V30 1192 H 112.837 -1.26862 0.880078 0
M  V30 1193 H 114.795 -4.07621 -0.485288 0
M  V30 1194 H 113.456 -2.99839 -0.935716 0
M  V30 1195 H 112.649 -5.03078 0.304755 0
M  V30 1196 H 112.251 -3.54361 1.196 0
M  V30 1197 H 114.543 -6.70632 0.962201 0
M  V30 1198 H 115.486 -6.63081 2.48454 0
M  V30 1199 H 115.894 -5.52965 1.13534 0
M  V30 1200 N 115.292 -0.849877 -1.32721 0
M  V30 1201 C 116.255 -0.296122 -2.27279 0
M  V30 1202 C 117.255 0.541458 -1.5141 0
M  V30 1203 O 118.445 0.353658 -1.70572 0
M  V30 1204 C 115.577 0.581579 -3.35902 0
M  V30 1205 H 116.77 -1.13064 -2.77771 0
M  V30 1206 H 114.323 -0.62383 -1.43311 0
M  V30 1207 H 115.058 1.43809 -2.9067 0
M  V30 1208 H 114.843 -0.0178814 -3.92096 0
M  V30 1209 H 116.333 0.961951 -4.0637 0
M  V30 1210 N 116.77 1.45427 -0.607355 0
M  V30 1211 C 117.733 2.28974 0.101693 0
M  V30 1212 C 118.733 1.39754 0.795329 0
M  V30 1213 O 119.923 1.61878 0.643527 0
M  V30 1214 C 117.055 3.20768 1.15414 0
M  V30 1215 H 118.248 2.93147 -0.632844 0
M  V30 1216 H 115.801 1.51945 -0.366391 0
M  V30 1217 H 116.536 2.61395 1.91945 0
M  V30 1218 H 116.321 3.86489 0.66098 0
M  V30 1219 H 117.811 3.83589 1.65073 0
M  V30 1220 N 118.248 0.346503 1.53744 0
M  V30 1221 C 119.211 -0.496439 2.23759 0
M  V30 1222 C 120.211 -1.0252 1.2388 0
M  V30 1223 O 121.401 -0.913974 1.48297 0
M  V30 1224 C 118.533 -1.69187 2.95954 0
M  V30 1225 H 119.726 0.115952 2.99676 0
M  V30 1226 H 117.279 0.0978939 1.55993 0
M  V30 1227 H 118.014 -2.34288 2.24231 0
M  V30 1228 H 117.799 -1.31989 3.69217 0
M  V30 1229 H 119.289 -2.28969 3.49232 0
M  V30 1230 N 119.726 -1.57421 0.075193 0
M  V30 1231 C 120.689 -2.11791 -0.876203 0
M  V30 1232 C 121.689 -1.04268 -1.22412 0
M  V30 1233 O 122.879 -1.30242 -1.15684 0
M  V30 1234 C 120.011 -2.62207 -2.17854 0
M  V30 1235 H 121.204 -2.9716 -0.40444 0
M  V30 1236 H 118.757 -1.55333 -0.173557 0
M  V30 1237 H 119.492 -1.803 -2.6956 0
M  V30 1238 H 119.277 -3.40802 -1.93897 0
M  V30 1239 H 120.767 -3.04335 -2.85955 0
M  V30 1240 N 121.204 0.198386 -1.56346 0
M  V30 1241 C 122.45 0.920648 -1.80698 0
M  V30 1242 C 122.783 1.83045 -0.648697 0
M  V30 1243 O 122.058 1.91308 0.350925 0
M  V30 1244 C 122.341 1.73971 -3.15287 0
M  V30 1245 C 122.194 0.85485 -4.41602 0
M  V30 1246 C 123.513 2.71296 -3.46535 0
M  V30 1247 H 120.632 0.333261 -0.657348 0
M  V30 1248 H 123.274 0.188198 -1.89066 0
M  V30 1249 H 121.424 2.36416 -3.08285 0
M  V30 1250 H 123.096 0.245362 -4.60647 0
M  V30 1251 H 121.339 0.161398 -4.335 0
M  V30 1252 H 122.01 1.46286 -5.32264 0
M  V30 1253 H 124.486 2.18983 -3.53816 0
M  V30 1254 H 123.362 3.2569 -4.41834 0
M  V30 1255 H 123.623 3.5018 -2.69864 0
M  V30 1256 N 122.682 1.50554 0.465978 0
M  V30 1257 C 123.612 1.72722 1.57128 0
M  V30 1258 C 124.593 0.576294 1.6004 0
M  V30 1259 O 125.778 0.81598 1.76225 0
M  V30 1260 C 122.908 1.82605 2.95419 0
M  V30 1261 C 121.862 2.97835 3.07373 0
M  V30 1262 C 121.188 2.92867 4.47363 0
M  V30 1263 C 122.488 4.38265 2.84114 0
M  V30 1264 H 124.182 2.65267 1.38829 0
M  V30 1265 H 121.728 1.2765 0.666441 0
M  V30 1266 H 123.681 1.96698 3.72677 0
M  V30 1267 H 122.405 0.866858 3.14886 0
M  V30 1268 H 121.064 2.83401 2.3255 0
M  V30 1269 H 120.712 1.94783 4.63755 0
M  V30 1270 H 120.412 3.70227 4.56296 0
M  V30 1271 H 121.936 3.09015 5.26633 0
M  V30 1272 H 123.35 4.53198 3.51118 0
M  V30 1273 H 121.747 5.17115 3.04487 0
M  V30 1274 H 122.817 4.50281 1.7993 0
M  V30 1275 N 124.16 -0.719506 1.40217 0
M  V30 1276 C 125.107 -1.83359 1.40172 0
M  V30 1277 C 126.077 -1.64065 0.259206 0
M  V30 1278 O 127.262 -1.85254 0.456677 0
M  V30 1279 C 124.402 -3.2103 1.26624 0
M  V30 1280 C 123.515 -3.51923 2.50548 0
M  V30 1281 C 122.65 -4.79079 2.29471 0
M  V30 1282 C 121.689 -5.02863 3.48992 0
M  V30 1283 N 120.826 -6.2123 3.27135 0
M  V30 1284 H 125.666 -1.82733 2.35399 0
M  V30 1285 H 123.203 -0.892688 1.16917 0
M  V30 1286 H 125.161 -4.00524 1.16776 0
M  V30 1287 H 123.791 -3.20895 0.350176 0
M  V30 1288 H 122.843 -2.67014 2.70939 0
M  V30 1289 H 124.155 -3.6541 3.39525 0
M  V30 1290 H 123.309 -5.66582 2.16955 0
M  V30 1291 H 122.048 -4.67794 1.37913 0
M  V30 1292 H 121.053 -4.13816 3.6199 0
M  V30 1293 H 122.278 -5.16023 4.41472 0
M  V30 1294 H 120.224 -6.11204 2.38256 0
M  V30 1295 H 120.141 -6.35375 4.09675 0
M  V30 1296 H 121.409 -7.11532 3.18344 0
M  V30 1297 N 125.638 -1.25649 -0.95132 0
M  V30 1298 C 126.57 -1.02112 -2.05197 0
M  V30 1299 C 127.583 0.0150571 -1.62793 0
M  V30 1300 O 128.772 -0.223874 -1.77091 0
M  V30 1301 C 125.872 -0.522361 -3.3485 0
M  V30 1302 C 125.045 -1.62546 -4.06076 0
M  V30 1303 C 124.104 -1.12649 -5.14001 0
M  V30 1304 O 123.13 -1.82156 -5.39266 0
M  V30 1305 N 124.332 0.03047 -5.80492 0
M  V30 1306 H 127.097 -1.96885 -2.25957 0
M  V30 1307 H 124.658 -1.16899 -1.1201 0
M  V30 1308 H 126.65 -0.172961 -4.0433 0
M  V30 1309 H 125.22 0.33151 -3.10837 0
M  V30 1310 H 124.44 -2.14628 -3.30649 0
M  V30 1311 H 125.728 -2.36644 -4.50419 0
M  V30 1312 H 125.126 0.611169 -5.62389 0
M  V30 1313 H 123.683 0.320875 -6.5101 0
M  V30 1314 N 127.117 1.15442 -1.07289 0
M  V30 1315 C 128.342 1.90638 -0.816828 0
M  V30 1316 C 128.767 1.77445 0.624083 0
M  V30 1317 O 128.125 1.10671 1.43602 0
M  V30 1318 C 128.173 3.39008 -1.22906 0
M  V30 1319 O 127.277 4.10701 -0.373975 0
M  V30 1320 H 126.618 0.593555 -0.297638 0
M  V30 1321 H 129.148 1.46198 -1.43134 0
M  V30 1322 H 129.158 3.89801 -1.20497 0
M  V30 1323 H 127.833 3.47929 -2.27856 0
M  V30 1324 H 126.41 3.70046 -0.460499 0
M  V30 1325 N 128.595 0.856903 1.32268 0
M  V30 1326 C 129.505 0.306131 2.32594 0
M  V30 1327 C 130.521 -0.577209 1.64147 0
M  V30 1328 O 131.697 -0.477043 1.95669 0
M  V30 1329 C 128.762 -0.494561 3.43154 0
M  V30 1330 C 127.823 0.415186 4.27288 0
M  V30 1331 C 127.056 -0.347387 5.32568 0
M  V30 1332 O 127.279 -1.57708 5.48165 0
M  V30 1333 O 126.213 0.287982 6.01211 0
M  V30 1334 H 130.039 1.13737 2.81598 0
M  V30 1335 H 127.624 0.619902 1.35932 0
M  V30 1336 H 129.506 -0.948944 4.10576 0
M  V30 1337 H 128.181 -1.30257 2.96336 0
M  V30 1338 H 127.088 0.917793 3.62667 0
M  V30 1339 H 128.421 1.18844 4.77637 0
M  V30 1340 N 130.073 -1.45103 0.615059 0
M  V30 1341 C 131.298 -2.07064 0.117988 0
M  V30 1342 C 131.723 -1.4554 -1.19163 0
M  V30 1343 O 131.081 -0.550855 -1.72729 0
M  V30 1344 C 131.129 -3.606 -0.000288387 0
M  V30 1345 O 130.233 -3.98847 -1.04856 0
M  V30 1346 H 129.574 -0.659467 0.0774581 0
M  V30 1347 H 132.104 -1.86236 0.847186 0
M  V30 1348 H 132.114 -4.07529 -0.196091 0
M  V30 1349 H 130.789 -4.04765 0.955932 0
M  V30 1350 H 129.366 -3.63577 -0.828619 0
M  V30 1351 N 131.551 -0.354651 -1.53558 0
M  V30 1352 C 132.828 0.294281 -1.93374 0
M  V30 1353 C 133.208 1.67313 -1.28723 0
M  V30 1354 O 132.556 2.24179 -0.442247 0
M  V30 1355 C 132.766 0.355445 -3.47185 0
M  V30 1356 C 134.114 0.601007 -4.20325 0
M  V30 1357 O 135.138 0.437106 -3.53508 0
M  V30 1358 O 133.997 0.919322 -5.38712 0
M  V30 1359 H 131.091 0.174033 -0.808481 0
M  V30 1360 H 133.637 -0.406638 -1.64756 0
M  V30 1361 H 132.409 -0.611729 -3.86489 0
M  V30 1362 H 132.032 1.1027 -3.82003 0
M  V30 1363 N 133.029 1.57378 -0.0835403 0
M  V30 1364 C 133.976 2.13384 0.879539 0
M  V30 1365 C 134.946 1.04936 1.28754 0
M  V30 1366 O 136.131 1.32662 1.37133 0
M  V30 1367 C 133.271 2.70932 2.13752 0
M  V30 1368 C 132.384 3.93575 1.7811 0
M  V30 1369 C 131.519 4.39326 2.98607 0
M  V30 1370 C 130.558 5.54587 2.59037 0
M  V30 1371 N 129.695 5.95243 3.72331 0
M  V30 1372 H 134.535 2.9537 0.395076 0
M  V30 1373 H 132.072 1.45953 0.183349 0
M  V30 1374 H 134.03 3.02411 2.87408 0
M  V30 1375 H 132.66 1.91693 2.59718 0
M  V30 1376 H 131.712 3.68483 0.94469 0
M  V30 1377 H 133.024 4.77258 1.45005 0
M  V30 1378 H 132.178 4.72528 3.80529 0
M  V30 1379 H 130.917 3.5452 3.34913 0
M  V30 1380 H 129.922 5.21024 1.75539 0
M  V30 1381 H 131.147 6.41133 2.23887 0
M  V30 1382 H 129.093 5.13385 4.08378 0
M  V30 1383 H 129.01 6.73694 3.43034 0
M  V30 1384 H 130.278 6.33072 4.54797 0
M  V30 1385 N 134.507 -0.190092 1.56449 0
M  V30 1386 C 135.457 -1.23977 1.91347 0
M  V30 1387 C 136.441 -1.40747 0.779693 0
M  V30 1388 O 137.633 -1.43033 1.04262 0
M  V30 1389 C 134.762 -2.58347 2.26079 0
M  V30 1390 C 133.848 -2.4535 3.45925 0
M  V30 1391 N 134.239 -2.02039 4.63696 0
M  V30 1392 C 132.537 -2.76229 3.50162 0
M  V30 1393 C 133.238 -2.01053 5.4585 0
M  V30 1394 N 132.214 -2.42747 4.8639 0
M  V30 1395 H 136.016 -0.896318 2.79899 0
M  V30 1396 H 133.53 -0.398496 1.57435 0
M  V30 1397 H 135.527 -3.34173 2.49267 0
M  V30 1398 H 134.187 -2.93512 1.38856 0
M  V30 1399 H 135.198 -1.7267 4.88268 0
M  V30 1400 H 131.875 -3.15556 2.73369 0
M  V30 1401 H 133.265 -1.69426 6.50188 0
M  V30 1402 N 135.985 -1.50799 -0.457987 0
M  V30 1403 C 136.915 -1.73553 -1.5621 0
M  V30 1404 C 137.896 -0.584774 -1.59732 0
M  V30 1405 O 139.081 -0.825314 -1.7579 0
M  V30 1406 C 136.211 -1.84169 -2.94447 0
M  V30 1407 C 135.165 -2.99461 -3.0579 0
M  V30 1408 C 134.491 -2.95235 -4.45803 0
M  V30 1409 C 135.791 -4.39766 -2.81786 0
M  V30 1410 H 137.485 -2.66 -1.37421 0
M  V30 1411 H 135.031 -1.28002 -0.659662 0
M  V30 1412 H 136.984 -1.98672 -3.71628 0
M  V30 1413 H 135.708 -0.883545 -3.14422 0
M  V30 1414 H 134.367 -2.8463 -2.31044 0
M  V30 1415 H 134.015 -1.97239 -4.62715 0
M  V30 1416 H 133.715 -3.72642 -4.54326 0
M  V30 1417 H 135.239 -3.11803 -5.24987 0
M  V30 1418 H 136.653 -4.55054 -3.4871 0
M  V30 1419 H 135.05 -5.18722 -3.0174 0
M  V30 1420 H 136.12 -4.51229 -1.7754 0
M  V30 1421 N 137.463 0.71206 -1.40597 0
M  V30 1422 C 138.393 1.83889 -1.43899 0
M  V30 1423 C 139.374 1.67442 -0.299504 0
M  V30 1424 O 140.559 1.87421 -0.508624 0
M  V30 1425 C 137.689 3.21877 -1.30431 0
M  V30 1426 C 136.643 3.53002 -2.42019 0
M  V30 1427 C 135.969 4.90172 -2.13626 0
M  V30 1428 C 137.269 3.53643 -3.84362 0
M  V30 1429 H 138.963 1.81383 -2.38203 0
M  V30 1430 H 136.509 0.871237 -1.14654 0
M  V30 1431 H 138.462 4.00404 -1.31357 0
M  V30 1432 H 137.186 3.24968 -0.326049 0
M  V30 1433 H 135.845 2.76818 -2.40349 0
M  V30 1434 H 135.493 4.89869 -1.14182 0
M  V30 1435 H 135.193 5.11962 -2.88389 0
M  V30 1436 H 136.717 5.71028 -2.1624 0
M  V30 1437 H 138.131 4.22203 -3.87837 0
M  V30 1438 H 136.528 3.86961 -4.58673 0
M  V30 1439 H 137.598 2.52954 -4.13693 0
M  V30 1440 N 138.941 1.26152 0.944643 0
M  V30 1441 C 139.889 1.07215 2.06417 0
M  V30 1442 C 140.883 9.2007e-05 1.694 0
M  V30 1443 O 142.089 0.1565 1.79318 0
M  V30 1444 H 138.464 0.329837 0.675805 0
M  V30 1445 H 140.435 2.02099 2.19541 0
M  V30 1446 C 139.184 0.718197 3.40202 0
M  V30 1447 H 138.507 1.53497 3.69159 0
M  V30 1448 H 139.947 0.625459 4.19361 0
M  V30 1449 C 138.406 -0.576435 3.31932 0
M  V30 1450 O 138.936 -1.61574 3.67773 0
M  V30 1451 N 137.142 -0.565781 2.85039 0
M  V30 1452 H 136.689 0.280367 2.5607 0
M  V30 1453 H 136.647 -1.43213 2.79888 0
M  V30 1454 N 140.419 -1.14872 1.07899 0
M  V30 1455 C 141.351 -2.19425 0.662231 0
M  V30 1456 C 142.364 -1.60231 -0.288079 0
M  V30 1457 O 143.553 -1.78336 -0.076534 0
M  V30 1458 C 140.653 -3.38867 -0.0470695 0
M  V30 1459 C 139.826 -4.27597 0.920831 0
M  V30 1460 C 138.885 -5.25616 0.247805 0
M  V30 1461 O 137.911 -5.62189 0.890599 0
M  V30 1462 N 139.113 -5.71746 -1.00435 0
M  V30 1463 H 141.878 -2.55797 1.56166 0
M  V30 1464 H 139.439 -1.30042 0.964404 0
M  V30 1465 H 141.431 -4.01497 -0.50813 0
M  V30 1466 H 140.001 -3.00864 -0.848523 0
M  V30 1467 H 139.221 -3.61982 1.56087 0
M  V30 1468 H 140.509 -4.83748 1.57688 0
M  V30 1469 H 139.907 -5.44153 -1.54642 0
M  V30 1470 H 138.464 -6.36389 -1.40899 0
M  V30 1471 N 141.898 -0.863906 -1.31812 0
M  V30 1472 C 143.314 -0.555004 -1.49639 0
M  V30 1473 C 143.514 0.912266 -1.79666 0
M  V30 1474 O 142.57 1.69479 -1.87171 0
M  V30 1475 C 143.883 -1.44998 -2.63431 0
M  V30 1476 C 145.431 -1.45138 -2.77316 0
M  V30 1477 C 145.906 -2.33179 -3.94197 0
M  V30 1478 N 147.397 -2.31025 -4.01474 0
M  V30 1479 C 148.132 -2.95871 -4.9117 0
M  V30 1480 N 147.628 -3.69863 -5.8581 0
M  V30 1481 N 149.421 -2.85211 -4.84367 0
M  V30 1482 H 141.572 -1.81339 -1.10589 0
M  V30 1483 H 143.835 -0.77505 -0.545895 0
M  V30 1484 H 143.541 -2.49377 -2.48 0
M  V30 1485 H 143.415 -1.14409 -3.59431 0
M  V30 1486 H 145.802 -0.415201 -2.92164 0
M  V30 1487 H 145.883 -1.79747 -1.82001 0
M  V30 1488 H 145.527 -3.3687 -3.80107 0
M  V30 1489 H 145.457 -1.95897 -4.88807 0
M  V30 1490 H 147.948 -1.77238 -3.33759 0
M  V30 1491 H 148.261 -4.16486 -6.50968 0
M  V30 1492 H 146.606 -3.73971 -5.85808 0
M  V30 1493 H 149.797 -2.26948 -4.09405 0
M  V30 1494 H 149.97 -3.36027 -5.54066 0
M  V30 1495 N 143.376 1.44774 -0.622745 0
M  V30 1496 C 144.622 2.0242 -0.124083 0
M  V30 1497 C 144.955 1.4881 1.24777 0
M  V30 1498 O 144.23 0.668799 1.8264 0
M  V30 1499 C 144.513 3.59957 -0.101619 0
M  V30 1500 C 144.366 4.23867 -1.50521 0
M  V30 1501 C 145.685 4.36284 0.578272 0
M  V30 1502 H 142.804 0.735528 -0.0465645 0
M  V30 1503 H 145.446 1.72447 -0.797617 0
M  V30 1504 H 143.596 3.85623 0.471934 0
M  V30 1505 H 145.268 4.09336 -2.12701 0
M  V30 1506 H 143.511 3.81684 -2.06154 0
M  V30 1507 H 144.182 5.32843 -1.4416 0
M  V30 1508 H 146.658 4.16001 0.0906057 0
M  V30 1509 H 145.534 5.46004 0.563149 0
M  V30 1510 H 145.795 4.10271 1.64713 0
M  V30 1511 N 144.854 0.36279 1.53368 0
M  V30 1512 C 145.764 -0.492994 2.29362 0
M  V30 1513 C 146.78 -1.09507 1.35219 0
M  V30 1514 O 147.956 -1.10662 1.68273 0
M  V30 1515 C 145.021 -1.61855 3.066 0
M  V30 1516 C 144.082 -1.04429 4.16405 0
M  V30 1517 C 143.315 -2.11621 4.89951 0
M  V30 1518 O 143.538 -3.32684 4.63333 0
M  V30 1519 O 142.472 -1.74835 5.75948 0
M  V30 1520 H 146.298 0.125331 3.03441 0
M  V30 1521 H 143.883 0.127253 1.48857 0
M  V30 1522 H 145.765 -2.27302 3.54841 0
M  V30 1523 H 144.44 -2.22233 2.3536 0
M  V30 1524 H 143.347 -0.353819 3.72423 0
M  V30 1525 H 144.68 -0.485113 4.89804 0
M  V30 1526 N 146.332 -1.57332 0.0918853 0
M  V30 1527 C 147.581 -1.93412 -0.572249 0
M  V30 1528 C 147.894 -0.975515 -1.69538 0
M  V30 1529 O 149.1 -1.22991 -2.42045 0
M  V30 1530 C 147.556 -3.43648 -1.0693 0
M  V30 1531 C 147.164 -4.47994 0.0239049 0
M  V30 1532 C 148.908 -3.88695 -1.70635 0
M  V30 1533 C 146.815 -5.89381 -0.488319 0
M  V30 1534 H 145.745 -0.721939 -0.217532 0
M  V30 1535 H 148.396 -1.82735 0.167369 0
M  V30 1536 H 146.778 -3.49466 -1.8625 0
M  V30 1537 H 147.952 -4.53815 0.799277 0
M  V30 1538 H 146.267 -4.12536 0.565946 0
M  V30 1539 H 148.864 -4.91725 -2.10025 0
M  V30 1540 H 149.207 -3.27166 -2.57426 0
M  V30 1541 H 149.74 -3.85564 -0.979023 0
M  V30 1542 H 146.479 -6.54602 0.342906 0
M  V30 1543 H 145.999 -5.87037 -1.23077 0
M  V30 1544 H 147.678 -6.39863 -0.958317 0
M  V30 1545 N 147.81 0.181792 -1.56548 0
M  V30 1546 C 148.757 1.22521 -1.95595 0
M  V30 1547 C 149.727 1.4454 -0.818373 0
M  V30 1548 O 150.912 1.57454 -1.07763 0
M  V30 1549 C 148.052 2.56193 -2.31212 0
M  V30 1550 C 147.165 2.41641 -3.58097 0
M  V30 1551 C 146.3 3.68108 -3.82975 0
M  V30 1552 C 145.339 3.48445 -5.03242 0
M  V30 1553 N 144.476 4.66956 -5.24306 0
M  V30 1554 H 149.316 0.885226 -2.84548 0
M  V30 1555 H 146.853 0.425718 -1.40805 0
M  V30 1556 H 148.811 3.34088 -2.49882 0
M  V30 1557 H 147.441 2.88208 -1.45382 0
M  V30 1558 H 146.493 1.54976 -3.474 0
M  V30 1559 H 147.805 2.23052 -4.46149 0
M  V30 1560 H 146.959 4.54441 -4.01956 0
M  V30 1561 H 145.698 3.89666 -2.93278 0
M  V30 1562 H 144.703 2.60499 -4.8417 0
M  V30 1563 H 145.928 3.2832 -5.9446 0
M  V30 1564 H 143.874 4.88752 -4.37559 0
M  V30 1565 H 143.791 4.51242 -6.06561 0
M  V30 1566 H 145.059 5.54602 -5.47756 0
M  V30 1567 N 149.288 1.51039 0.449983 0
M  V30 1568 C 150.235 1.71439 1.54523 0
M  V30 1569 C 151.205 0.555871 1.56522 0
M  V30 1570 O 152.39 0.788871 1.73728 0
M  V30 1571 C 149.53 1.83384 2.92343 0
M  V30 1572 C 148.643 3.10873 2.9997 0
M  V30 1573 C 147.778 3.13488 4.28834 0
M  V30 1574 C 146.817 4.35343 4.30282 0
M  V30 1575 N 145.954 4.35579 5.5065 0
M  V30 1576 H 150.794 2.64934 1.36433 0
M  V30 1577 H 148.331 1.31312 0.662982 0
M  V30 1578 H 150.289 1.88291 3.72293 0
M  V30 1579 H 148.919 0.933086 3.0902 0
M  V30 1580 H 147.971 3.15336 2.12761 0
M  V30 1581 H 149.283 4.00814 2.96901 0
M  V30 1582 H 148.437 3.17241 5.17149 0
M  V30 1583 H 147.176 2.21414 4.34543 0
M  V30 1584 H 146.181 4.3178 3.40362 0
M  V30 1585 H 147.406 5.28668 4.26248 0
M  V30 1586 H 145.352 3.46369 5.57104 0
M  V30 1587 H 145.269 5.19313 5.49409 0
M  V30 1588 H 146.537 4.43507 6.41032 0
M  V30 1589 N 150.766 -0.704594 1.40972 0
M  V30 1590 C 151.991 -1.49858 1.43378 0
M  V30 1591 C 152.416 -1.88061 0.038184 0
M  V30 1592 O 151.774 -1.5402 -0.956425 0
M  V30 1593 C 151.822 -2.74333 2.34038 0
M  V30 1594 O 150.926 -3.7147 1.7912 0
M  V30 1595 H 150.267 -0.45139 0.486974 0
M  V30 1596 H 152.797 -0.866832 1.8533 0
M  V30 1597 H 152.807 -3.22741 2.49604 0
M  V30 1598 H 151.482 -2.45863 3.35446 0
M  V30 1599 H 150.059 -3.30363 1.72958 0
M  V30 1600 N 152.244 -1.26651 -0.937939 0
M  V30 1601 C 153.521 -1.0313 -1.66204 0
M  V30 1602 C 153.901 0.437256 -2.06522 0
M  V30 1603 O 153.249 1.41831 -1.79154 0
M  V30 1604 C 153.459 -1.98314 -2.87181 0
M  V30 1605 C 154.807 -2.27107 -3.58758 0
M  V30 1606 O 155.831 -1.96205 -2.97291 0
M  V30 1607 O 154.69 -2.79736 -4.69479 0
M  V30 1608 H 151.784 -0.392384 -0.727986 0
M  V30 1609 H 154.33 -1.37874 -0.989382 0
M  V30 1610 H 153.102 -2.97399 -2.54302 0
M  V30 1611 H 152.725 -1.64068 -3.6217 0
M  V30 1612 N 153.722 1.14298 -1.08507 0
M  V30 1613 C 154.652 2.21542 -0.737646 0
M  V30 1614 C 155.633 1.67773 0.280377 0
M  V30 1615 O 156.818 1.93616 0.150521 0
M  V30 1616 C 153.948 3.46988 -0.147259 0
M  V30 1617 C 152.902 4.13789 -1.09374 0
M  V30 1618 C 152.228 5.33449 -0.365524 0
M  V30 1619 C 153.528 4.62208 -2.4323 0
M  V30 1620 H 155.222 2.5086 -1.6343 0
M  V30 1621 H 152.768 1.20576 -0.787243 0
M  V30 1622 H 154.721 4.21262 0.107808 0
M  V30 1623 H 153.445 3.17037 0.784538 0
M  V30 1624 H 152.104 3.4147 -1.33393 0
M  V30 1625 H 151.752 4.99759 0.57011 0
M  V30 1626 H 151.452 5.79088 -0.996512 0
M  V30 1627 H 152.976 6.10485 -0.118534 0
M  V30 1628 H 154.39 5.27952 -2.23472 0
M  V30 1629 H 152.787 5.18553 -3.02031 0
M  V30 1630 H 153.857 3.77224 -3.04681 0
M  V30 1631 N 155.201 0.870884 1.31352 0
M  V30 1632 C 156.447 0.482987 1.96965 0
M  V30 1633 C 156.78 -0.962462 1.68672 0
M  V30 1634 O 156.055 -1.6779 0.98371 0
M  V30 1635 C 156.338 0.741752 3.52378 0
M  V30 1636 C 156.191 2.2368 3.9024 0
M  V30 1637 C 157.51 0.208838 4.39604 0
M  V30 1638 H 154.629 0.176955 0.715441 0
M  V30 1639 H 157.271 1.09229 1.55464 0
M  V30 1640 H 155.421 0.223149 3.87859 0
M  V30 1641 H 157.093 2.82273 3.64856 0
M  V30 1642 H 155.336 2.70901 3.38814 0
M  V30 1643 H 156.007 2.3685 4.98604 0
M  V30 1644 H 158.483 0.652529 4.10952 0
M  V30 1645 H 157.359 0.419336 5.47296 0
M  V30 1646 H 157.62 -0.889275 4.33064 0
M  V30 1647 N 156.679 -1.44442 0.630414 0
M  V30 1648 C 157.627 -2.32437 -0.0871428 0
M  V30 1649 C 158.621 -1.47304 -0.836525 0
M  V30 1650 O 159.827 -1.63653 -0.749506 0
M  V30 1651 H 156.202 -0.750533 -0.0469495 0
M  V30 1652 H 158.173 -2.90709 0.673096 0
M  V30 1653 C 156.922 -3.31288 -1.05563 0
M  V30 1654 H 156.245 -3.96805 -0.488426 0
M  V30 1655 H 157.685 -3.9554 -1.52721 0
M  V30 1656 C 156.144 -2.6016 -2.14052 0
M  V30 1657 O 156.674 -2.39997 -3.22124 0
M  V30 1658 N 154.88 -2.19911 -1.89967 0
M  V30 1659 H 154.427 -2.36509 -1.02085 0
M  V30 1660 H 154.385 -1.72646 -2.62756 0
M  V30 1661 N 158.157 -0.370918 -1.53173 0
M  V30 1662 C 159.387 0.217389 -2.05453 0
M  V30 1663 C 159.795 1.42568 -1.24382 0
M  V30 1664 O 159.138 1.81571 -0.278839 0
M  V30 1665 C 159.2 0.669827 -3.53205 0
M  V30 1666 C 158.864 -0.4225 -4.55043 0
M  V30 1667 C 159.861 -1.27407 -5.04047 0
M  V30 1668 C 157.546 -0.58427 -4.9889 0
M  V30 1669 C 159.54 -2.27271 -5.95505 0
M  V30 1670 C 157.227 -1.58627 -5.90153 0
M  V30 1671 C 158.225 -2.42892 -6.38351 0
M  V30 1672 O 157.913 -3.41382 -7.27814 0
M  V30 1673 H 157.645 0.0408171 -0.674767 0
M  V30 1674 H 160.199 -0.5292 -1.98466 0
M  V30 1675 H 158.429 1.4681 -3.57748 0
M  V30 1676 H 160.118 1.18173 -3.88317 0
M  V30 1677 H 160.884 -1.16031 -4.70916 0
M  V30 1678 H 156.763 0.061851 -4.60959 0
M  V30 1679 H 160.307 -2.93079 -6.33049 0
M  V30 1680 H 156.204 -1.70048 -6.22699 0
M  V30 1681 H 156.972 -3.37173 -7.45826 0
M  V30 1682 N 159.635 1.57281 -0.100228 0
M  V30 1683 C 160.583 2.15542 0.874328 0
M  V30 1684 C 161.577 1.09962 1.28859 0
M  V30 1685 O 162.783 1.28298 1.26252 0
M  V30 1686 H 159.158 0.689567 0.300003 0
M  V30 1687 H 161.129 2.96241 0.35829 0
M  V30 1688 C 159.878 2.75454 2.1218 0
M  V30 1689 H 159.201 3.56384 1.81193 0
M  V30 1690 H 160.641 3.19781 2.78417 0
M  V30 1691 C 159.1 1.71602 2.89921 0
M  V30 1692 O 159.63 1.15804 3.84646 0
M  V30 1693 N 157.836 1.41975 2.53558 0
M  V30 1694 H 157.383 1.87539 1.76598 0
M  V30 1695 H 157.341 0.727274 3.05873 0
M  V30 1696 N 161.113 -0.173488 1.56642 0
M  V30 1697 C 162.524 -0.736155 1.71574 0
M  V30 1698 C 162.875 -1.82888 0.710389 0
M  V30 1699 O 162 -2.16017 -0.1287 0
M  V30 1700 C 162.595 -1.34211 3.11083 0
M  V30 1701 C 161.154 -1.85162 3.27707 0
M  V30 1702 C 160.301 -0.729765 2.67525 0
M  V30 1703 H 163.252 0.0518786 1.58615 0
M  V30 1704 H 163.273 -2.21178 3.09613 0
M  V30 1705 H 162.785 -0.546579 3.84232 0
M  V30 1706 H 160.886 -2.67366 2.59512 0
M  V30 1707 H 160.999 -1.99855 4.35425 0
M  V30 1708 H 159.363 -1.14965 2.27278 0
M  V30 1709 H 160.146 0.0538806 3.43258 0
M  V30 1710 N 162.591 -1.51276 -0.441967 0
M  V30 1711 C 163.84 -1.6295 -1.18871 0
M  V30 1712 C 164.153 -0.349312 -1.92456 0
M  V30 1713 O 165.359 -0.345355 -2.69295 0
M  V30 1714 C 163.815 -2.87759 -2.16155 0
M  V30 1715 C 163.423 -4.22764 -1.48239 0
M  V30 1716 C 165.167 -3.08788 -2.91291 0
M  V30 1717 C 163.074 -5.38728 -2.4398 0
M  V30 1718 H 162.004 -0.606913 -0.447406 0
M  V30 1719 H 164.655 -1.77739 -0.456205 0
M  V30 1720 H 163.037 -2.66593 -2.92821 0
M  V30 1721 H 164.211 -4.54293 -0.771635 0
M  V30 1722 H 162.526 -4.07575 -0.852741 0
M  V30 1723 H 165.123 -3.92599 -3.63002 0
M  V30 1724 H 165.466 -2.21679 -3.5237 0
M  V30 1725 H 165.999 -3.30272 -2.21733 0
M  V30 1726 H 162.738 -6.28082 -1.87598 0
M  V30 1727 H 162.258 -5.1158 -3.13123 0
M  V30 1728 H 163.937 -5.70489 -3.05207 0
M  V30 1729 N 164.069 0.697108 -1.41344 0
M  V30 1730 C 165.032 1.79281 -1.42797 0
M  V30 1731 C 166.032 1.57607 -0.318837 0
M  V30 1732 O 167.222 1.64309 -0.578642 0
M  V30 1733 C 164.354 3.17632 -1.23785 0
M  V30 1734 H 165.547 1.79385 -2.40335 0
M  V30 1735 H 163.1 0.904582 -1.27464 0
M  V30 1736 H 163.835 3.23167 -0.270814 0
M  V30 1737 H 163.62 3.34765 -2.04144 0
M  V30 1738 H 165.11 3.97617 -1.27633 0
M  V30 1739 N 165.547 1.27147 0.931209 0
M  V30 1740 C 166.457 1.11372 2.06478 0
M  V30 1741 C 167.473 0.044645 1.73943 0
M  V30 1742 O 168.649 0.250417 1.99837 0
M  V30 1743 C 165.714 0.758838 3.38294 0
M  V30 1744 C 164.775 1.90841 3.84549 0
M  V30 1745 C 164.008 1.57036 5.10074 0
M  V30 1746 O 164.231 0.476645 5.68405 0
M  V30 1747 O 163.165 2.40839 5.51616 0
M  V30 1748 H 166.991 2.06493 2.22698 0
M  V30 1749 H 164.576 1.06301 1.04978 0
M  V30 1750 H 166.458 0.574098 4.17471 0
M  V30 1751 H 165.133 -0.162879 3.2329 0
M  V30 1752 H 164.04 2.14819 3.06274 0
M  V30 1753 H 165.373 2.81021 4.04089 0
M  V30 1754 N 167.025 -1.13721 1.09112 0
M  V30 1755 C 167.972 -2.19031 0.727591 0
M  V30 1756 C 168.942 -1.63555 -0.289656 0
M  V30 1757 O 170.127 -1.90023 -0.172026 0
M  V30 1758 C 167.267 -3.4477 0.15082 0
M  V30 1759 C 166.38 -4.14365 1.22172 0
M  V30 1760 C 165.515 -5.27709 0.608042 0
M  V30 1761 C 164.554 -5.89147 1.66047 0
M  V30 1762 N 163.691 -6.93929 1.06806 0
M  V30 1763 H 168.531 -2.49475 1.62991 0
M  V30 1764 H 166.068 -1.22499 0.81439 0
M  V30 1765 H 168.026 -4.16714 -0.201358 0
M  V30 1766 H 166.656 -3.14787 -0.714783 0
M  V30 1767 H 165.708 -3.40737 1.69122 0
M  V30 1768 H 167.02 -4.56114 2.01895 0
M  V30 1769 H 166.174 -6.06355 0.204523 0
M  V30 1770 H 164.913 -4.872 -0.220769 0
M  V30 1771 H 163.918 -5.09198 2.07357 0
M  V30 1772 H 165.143 -6.31729 2.49189 0
M  V30 1773 H 163.089 -6.55483 0.260476 0
M  V30 1774 H 163.006 -7.34202 1.8023 0
M  V30 1775 H 164.274 -7.76434 0.690644 0
M  V30 1776 N 168.503 -0.877838 -1.30888 0
M  V30 1777 C 169.453 -0.310872 -2.25871 0
M  V30 1778 C 170.437 0.556596 -1.50966 0
M  V30 1779 O 171.629 0.402187 -1.7237 0
M  V30 1780 C 168.758 0.479821 -3.3993 0
M  V30 1781 C 167.844 -0.401333 -4.22197 0
M  V30 1782 N 168.235 -1.49848 -4.83093 0
M  V30 1783 C 166.533 -0.195167 -4.45573 0
M  V30 1784 C 167.234 -2.0425 -5.44662 0
M  V30 1785 N 166.21 -1.33843 -5.26865 0
M  V30 1786 H 170.012 -1.1493 -2.70496 0
M  V30 1787 H 167.526 -0.726458 -1.45246 0
M  V30 1788 H 169.523 0.902582 -4.07012 0
M  V30 1789 H 168.183 1.31577 -2.96846 0
M  V30 1790 H 169.194 -1.88137 -4.82519 0
M  V30 1791 H 165.871 0.604192 -4.13105 0
M  V30 1792 H 167.261 -2.96345 -6.03017 0
M  V30 1793 N 169.982 1.44106 -0.638065 0
M  V30 1794 C 171.228 2.02277 -0.145546 0
M  V30 1795 C 171.561 1.50125 1.23191 0
M  V30 1796 O 170.836 0.688133 1.8192 0
M  V30 1797 C 171.119 3.59829 -0.139791 0
M  V30 1798 C 170.972 4.22247 -1.55008 0
M  V30 1799 C 172.291 4.36873 0.531966 0
M  V30 1800 H 169.41 0.734992 -0.0543632 0
M  V30 1801 H 172.052 1.71592 -0.815863 0
M  V30 1802 H 170.202 3.86102 0.431007 0
M  V30 1803 H 171.874 4.07057 -2.1703 0
M  V30 1804 H 170.117 3.79476 -2.10191 0
M  V30 1805 H 170.788 5.31284 -1.49804 0
M  V30 1806 H 173.264 4.16074 0.0464781 0
M  V30 1807 H 172.14 5.4657 0.505206 0
M  V30 1808 H 172.401 4.11995 1.60352 0
M  V30 1809 N 171.46 0.379036 1.52974 0
M  V30 1810 C 172.408 -0.476033 2.27677 0
M  V30 1811 C 173.402 -1.0719 1.31174 0
M  V30 1812 O 174.608 -1.01355 1.48752 0
M  V30 1813 H 170.983 -0.172255 0.732006 0
M  V30 1814 H 172.954 0.175615 2.97883 0
M  V30 1815 C 171.703 -1.5967 3.0887 0
M  V30 1816 H 171.026 -1.1475 3.82978 0
M  V30 1817 H 172.466 -2.16943 3.64296 0
M  V30 1818 C 170.925 -2.54682 2.20542 0
M  V30 1819 O 171.455 -3.57836 1.82527 0
M  V30 1820 N 169.661 -2.24183 1.84907 0
M  V30 1821 H 169.208 -1.40333 2.1602 0
M  V30 1822 H 169.166 -2.88006 1.26096 0
M  V30 1823 N 172.938 -1.57226 0.108567 0
M  V30 1824 C 174.186 -1.94448 -0.550853 0
M  V30 1825 C 174.507 -0.992074 -1.67878 0
M  V30 1826 O 173.777 -0.0465 -1.95845 0
M  V30 1827 H 172.357 -0.717897 -0.206479 0
M  V30 1828 H 175.019 -1.94112 0.175062 0
M  V30 1829 H 174.115 -2.97218 -0.952259 0
M  V30 1830 N 174.416 0.165178 -1.56732 0
M  V30 1831 C 175.644 0.896218 -1.86482 0
M  V30 1832 C 176.059 1.75555 -0.694675 0
M  V30 1833 O 175.416 1.79379 0.33607 0
M  V30 1834 C 175.467 1.76792 -3.1532 0
M  V30 1835 O 175.188 0.943239 -4.27825 0
M  V30 1836 C 176.689 2.6081 -3.58459 0
M  V30 1837 H 173.909 0.260064 -0.618553 0
M  V30 1838 H 176.453 0.163428 -2.03846 0
M  V30 1839 H 174.608 2.45398 -2.99764 0
M  V30 1840 H 175.022 1.53998 -5.01383 0
M  V30 1841 H 176.496 3.17579 -4.51495 0
M  V30 1842 H 176.973 3.35977 -2.82872 0
M  V30 1843 H 177.579 1.97526 -3.76648 0
M  V30 1844 N 175.894 1.51508 0.433938 0
M  V30 1845 C 176.827 1.67756 1.54704 0
M  V30 1846 C 177.805 0.525127 1.53887 0
M  V30 1847 O 178.989 0.749393 1.72963 0
M  V30 1848 C 176.116 1.69424 2.9328 0
M  V30 1849 C 175.162 2.90673 3.12108 0
M  V30 1850 S 175.995 4.51431 2.88046 0
M  V30 1851 C 177.151 4.55849 4.28897 0
M  V30 1852 H 177.384 2.61904 1.40689 0
M  V30 1853 H 174.917 1.41235 0.62386 0
M  V30 1854 H 176.875 1.7107 3.73156 0
M  V30 1855 H 175.536 0.764464 3.04655 0
M  V30 1856 H 174.729 2.88251 4.13434 0
M  V30 1857 H 174.331 2.86786 2.40062 0
M  V30 1858 H 176.623 4.31699 5.22152 0
M  V30 1859 H 177.566 5.57676 4.36351 0
M  V30 1860 H 177.974 3.85137 4.12711 0
M  V30 1861 N 177.372 -0.689602 1.41712 0
M  V30 1862 C 178.6 -1.47827 1.44758 0
M  V30 1863 C 179.015 -1.88721 0.0545703 0
M  V30 1864 O 178.372 -1.57176 -0.927463 0
M  V30 1865 C 178.423 -2.73698 2.3616 0
M  V30 1866 O 178.144 -2.34524 3.7004 0
M  V30 1867 C 179.645 -3.67389 2.48072 0
M  V30 1868 H 176.865 -0.455357 0.49284 0
M  V30 1869 H 179.409 -0.848574 1.86063 0
M  V30 1870 H 177.564 -3.32891 1.98148 0
M  V30 1871 H 177.978 -3.15701 4.18847 0
M  V30 1872 H 179.452 -4.52475 3.16181 0
M  V30 1873 H 179.929 -4.12284 1.51388 0
M  V30 1874 H 180.535 -3.14097 2.86746 0
M  V30 1875 N 178.85 -1.27639 -0.924453 0
M  V30 1876 C 179.78 -1.13166 -2.04244 0
M  V30 1877 C 180.761 -0.032256 -1.70069 0
M  V30 1878 O 181.946 -0.207328 -1.9309 0
M  V30 1879 C 179.076 -0.781496 -3.38393 0
M  V30 1880 C 178.03 -1.83449 -3.86692 0
M  V30 1881 C 177.356 -1.33822 -5.17683 0
M  V30 1882 C 178.656 -3.23917 -4.09726 0
M  V30 1883 H 180.35 -2.06689 -2.1661 0
M  V30 1884 H 177.896 -0.995136 -1.04082 0
M  V30 1885 H 179.849 -0.667057 -4.16087 0
M  V30 1886 H 178.573 0.189439 -3.2605 0
M  V30 1887 H 177.232 -1.93789 -3.11193 0
M  V30 1888 H 176.88 -0.35665 -5.01734 0
M  V30 1889 H 176.58 -2.04224 -5.50968 0
M  V30 1890 H 178.104 -1.23679 -5.97943 0
M  V30 1891 H 179.518 -3.16559 -4.77978 0
M  V30 1892 H 177.915 -3.92059 -4.54324 0
M  V30 1893 H 178.985 -3.68729 -3.14908 0
M  V30 1894 N 180.328 1.1314 -1.09713 0
M  V30 1895 C 181.291 2.16831 -0.742751 0
M  V30 1896 C 182.291 1.59159 0.229129 0
M  V30 1897 O 183.481 1.74199 0.00693237 0
M  V30 1898 C 180.613 3.40756 -0.0989168 0
M  V30 1899 H 181.806 2.49695 -1.66109 0
M  V30 1900 H 179.359 1.2802 -0.896699 0
M  V30 1901 H 180.094 3.13485 0.830514 0
M  V30 1902 H 179.879 3.83888 -0.798265 0
M  V30 1903 H 181.369 4.17386 0.133524 0
M  V30 1904 N 181.806 0.884767 1.30421 0
M  V30 1905 C 182.716 0.355398 2.31892 0
M  V30 1906 C 183.732 -0.542261 1.65335 0
M  V30 1907 O 184.908 -0.435432 1.96637 0
M  V30 1908 C 181.973 -0.421661 3.44126 0
M  V30 1909 C 181.034 0.505727 4.26311 0
M  V30 1910 C 180.267 -0.234343 5.33185 0
M  V30 1911 O 180.49 -1.46045 5.51386 0
M  V30 1912 O 179.424 0.415443 6.00465 0
M  V30 1913 H 183.25 1.19685 2.79122 0
M  V30 1914 H 180.835 0.648596 1.34587 0
M  V30 1915 H 182.717 -0.861641 4.12497 0
M  V30 1916 H 181.392 -1.23942 2.99032 0
M  V30 1917 H 180.299 0.994513 3.60639 0
M  V30 1918 H 181.632 1.28948 4.75009 0
M  V30 1919 N 183.284 -1.43765 0.645699 0
M  V30 1920 C 184.214 -2.33471 -0.0370477 0
M  V30 1921 C 185.195 -1.49042 -0.819779 0
M  V30 1922 O 186.38 -1.77726 -0.782758 0
M  V30 1923 C 183.51 -3.32311 -1.0093 0
M  V30 1924 C 182.464 -4.2667 -0.337201 0
M  V30 1925 C 181.79 -5.1549 -1.42037 0
M  V30 1926 C 183.09 -5.16657 0.765706 0
M  V30 1927 H 184.784 -2.90809 0.712069 0
M  V30 1928 H 182.33 -1.39834 0.343876 0
M  V30 1929 H 184.283 -3.9396 -1.49578 0
M  V30 1930 H 183.007 -2.73213 -1.78948 0
M  V30 1931 H 181.666 -3.66374 0.128771 0
M  V30 1932 H 181.314 -4.52735 -2.1918 0
M  V30 1933 H 181.014 -5.79438 -0.975966 0
M  V30 1934 H 182.538 -5.80012 -1.90838 0
M  V30 1935 H 183.952 -5.72158 0.361702 0
M  V30 1936 H 182.349 -5.89286 1.13413 0
M  V30 1937 H 183.419 -4.56796 1.62683 0
M  V30 1938 N 184.763 -0.387143 -1.52771 0
M  V30 1939 C 186.011 0.195349 -2.01154 0
M  V30 1940 C 186.332 1.475 -1.27549 0
M  V30 1941 O 185.602 1.91878 -0.394924 0
M  V30 1942 H 184.182 0.075178 -0.743207 0
M  V30 1943 H 186.844 -0.518337 -1.87881 0
M  V30 1944 H 185.94 0.407096 -3.09434 0
M  V30 1945 N 186.241 1.57166 -0.116904 0
M  V30 1946 C 187.204 2.14039 0.819742 0
M  V30 1947 C 188.204 1.07477 1.19605 0
M  V30 1948 O 189.394 1.33263 1.1219 0
M  V30 1949 C 186.526 2.67891 2.10826 0
M  V30 1950 H 187.719 2.98128 0.325511 0
M  V30 1951 H 185.272 1.55739 0.132312 0
M  V30 1952 H 186.007 1.87384 2.64685 0
M  V30 1953 H 185.792 3.45823 1.84793 0
M  V30 1954 H 187.282 3.11809 2.77785 0
M  V30 1955 N 187.719 -0.156864 1.56817 0
M  V30 1956 C 188.682 -1.17781 1.96622 0
M  V30 1957 C 189.682 -1.36401 0.851555 0
M  V30 1958 O 190.872 -1.33561 1.11836 0
M  V30 1959 C 188.004 -2.54008 2.27361 0
M  V30 1960 H 189.197 -0.836564 2.87996 0
M  V30 1961 H 186.75 -0.39985 1.51099 0
M  V30 1962 H 187.485 -2.9312 1.38748 0
M  V30 1963 H 187.27 -2.41856 3.08623 0
M  V30 1964 H 188.76 -3.27558 2.59029 0
M  V30 1965 N 189.197 -1.51736 -0.425897 0
M  V30 1966 C 190.16 -1.73271 -1.50032 0
M  V30 1967 C 191.16 -0.602639 -1.4908 0
M  V30 1968 O 192.35 -0.87033 -1.509 0
M  V30 1969 C 189.482 -1.79969 -2.89523 0
M  V30 1970 H 190.675 -2.69172 -1.32237 0
M  V30 1971 H 188.228 -1.41899 -0.65532 0
M  V30 1972 H 188.963 -0.859241 -3.1271 0
M  V30 1973 H 188.748 -2.62109 -2.91619 0
M  V30 1974 H 190.238 -1.9843 -3.67444 0
M  V30 1975 N 190.675 0.682077 -1.42076 0
M  V30 1976 C 191.605 1.80796 -1.47767 0
M  V30 1977 C 192.586 1.6677 -0.334954 0
M  V30 1978 O 193.771 1.863 -0.548264 0
M  V30 1979 C 190.901 3.19038 -1.37229 0
M  V30 1980 C 189.855 3.47789 -2.49453 0
M  V30 1981 C 189.181 4.8553 -2.23975 0
M  V30 1982 C 190.481 3.45411 -3.91776 0
M  V30 1983 H 192.175 1.7629 -2.41997 0
M  V30 1984 H 189.721 0.846721 -1.16476 0
M  V30 1985 H 191.674 3.97528 -1.39821 0
M  V30 1986 H 190.398 3.24204 -0.394907 0
M  V30 1987 H 189.057 2.71657 -2.46166 0
M  V30 1988 H 188.705 4.87337 -1.24547 0
M  V30 1989 H 188.405 5.0573 -2.99184 0
M  V30 1990 H 189.929 5.66312 -2.28304 0
M  V30 1991 H 191.343 4.13882 -3.96705 0
M  V30 1992 H 189.74 3.77145 -4.66778 0
M  V30 1993 H 190.81 2.44122 -4.18966 0
M  V30 1994 N 192.153 1.28127 0.917671 0
M  V30 1995 C 193.085 1.07517 2.02417 0
M  V30 1996 C 194.098 0.0281099 1.62776 0
M  V30 1997 O 195.287 0.270748 1.76435 0
M  V30 1998 C 192.387 0.610957 3.33347 0
M  V30 1999 C 191.56 1.73255 4.01624 0
M  V30 2000 C 190.619 1.26238 5.10833 0
M  V30 2001 O 189.645 1.96389 5.34247 0
M  V30 2002 N 190.847 0.123448 5.80369 0
M  V30 2003 H 193.612 2.02806 2.20658 0
M  V30 2004 H 191.173 1.19827 1.08871 0
M  V30 2005 H 193.165 0.280101 4.0373 0
M  V30 2006 H 191.735 -0.24898 3.11607 0
M  V30 2007 H 190.955 2.23319 3.24842 0
M  V30 2008 H 192.243 2.48503 4.43986 0
M  V30 2009 H 191.641 -0.461847 5.63812 0
M  V30 2010 H 190.198 -0.148158 6.51632 0
M  V30 2011 N 193.631 -1.12557 1.10312 0
M  V30 2012 C 194.861 -1.87592 0.865617 0
M  V30 2013 C 195.269 -1.79851 -0.587389 0
M  V30 2014 O 194.612 -1.16949 -1.41664 0
M  V30 2015 C 194.674 -3.37665 1.23381 0
M  V30 2016 C 194.338 -3.69181 2.69359 0
M  V30 2017 C 195.335 -3.67652 3.67597 0
M  V30 2018 C 193.02 -3.98555 3.05711 0
M  V30 2019 C 195.014 -3.95053 5.00212 0
M  V30 2020 C 192.701 -4.25616 4.38514 0
M  V30 2021 C 193.699 -4.23851 5.35574 0
M  V30 2022 O 193.387 -4.50242 6.65986 0
M  V30 2023 H 193.119 -0.600442 0.310557 0
M  V30 2024 H 195.673 -1.4335 1.47105 0
M  V30 2025 H 193.903 -3.82454 0.571467 0
M  V30 2026 H 195.592 -3.94041 0.973994 0
M  V30 2027 H 196.358 -3.45024 3.40857 0
M  V30 2028 H 192.237 -3.99071 2.30789 0
M  V30 2029 H 195.781 -3.93591 5.75962 0
M  V30 2030 H 191.678 -4.47718 4.64994 0
M  V30 2031 H 192.446 -4.67867 6.71597 0
M  V30 2032 N 195.109 -0.891671 -1.2995 0
M  V30 2033 C 196.334 -0.527932 -2.00568 0
M  V30 2034 C 196.759 0.877969 -1.66353 0
M  V30 2035 O 196.117 1.58301 -0.883762 0
M  V30 2036 C 196.165 -0.717745 -3.53385 0
M  V30 2037 O 195.269 0.233376 -4.11739 0
M  V30 2038 H 194.61 -0.20722 -0.630837 0
M  V30 2039 H 197.14 -1.20105 -1.65638 0
M  V30 2040 H 197.15 -0.619307 -4.03272 0
M  V30 2041 H 195.825 -1.74276 -3.77625 0
M  V30 2042 H 194.402 0.0880706 -3.72796 0
M  V30 2043 N 196.587 1.43421 -0.653314 0
M  V30 2044 C 197.864 1.95361 -0.0966581 0
M  V30 2045 C 198.244 1.59461 1.38331 0
M  V30 2046 O 197.592 0.879777 2.10884 0
M  V30 2047 C 197.802 3.47311 -0.342988 0
M  V30 2048 C 199.15 4.23875 -0.24798 0
M  V30 2049 O 200.174 3.55133 -0.275553 0
M  V30 2050 O 199.033 5.4623 -0.171771 0
M  V30 2051 H 196.127 0.826945 0.00956291 0
M  V30 2052 H 198.673 1.5336 -0.726558 0
M  V30 2053 H 197.445 3.66569 -1.36906 0
M  V30 2054 H 197.068 3.9631 0.319975 0
M  V30 2055 N 198.065 0.39524 1.52563 0
M  V30 2056 C 199.013 -0.451859 2.28169 0
M  V30 2057 C 200.007 -1.05792 1.32304 0
M  V30 2058 O 201.213 -0.997718 1.49818 0
M  V30 2059 H 197.588 -0.164481 0.733792 0
M  V30 2060 H 199.559 0.207199 2.9768 0
M  V30 2061 C 198.308 -1.56385 3.10546 0
M  V30 2062 H 197.631 -1.10682 3.84174 0
M  V30 2063 H 199.071 -2.13067 3.66577 0
M  V30 2064 C 197.53 -2.52328 2.23231 0
M  V30 2065 O 198.06 -3.5588 1.86312 0
M  V30 2066 N 196.266 -2.22209 1.87274 0
M  V30 2067 H 195.813 -1.38033 2.17496 0
M  V30 2068 H 195.771 -2.86652 1.29143 0
M  V30 2069 N 199.544 -1.57102 0.125237 0
M  V30 2070 C 200.772 -1.99761 -0.538797 0
M  V30 2071 C 201.187 -1.00503 -1.59827 0
M  V30 2072 O 200.544 0.00119474 -1.825 0
M  V30 2073 C 200.595 -3.42408 -1.15927 0
M  V30 2074 O 200.316 -4.37869 -0.142143 0
M  V30 2075 C 201.817 -4.00232 -1.90602 0
M  V30 2076 H 199.037 -0.655772 -0.14214 0
M  V30 2077 H 201.581 -2.03383 0.213413 0
M  V30 2078 H 199.736 -3.39706 -1.86223 0
M  V30 2079 H 200.15 -5.21128 -0.593775 0
M  V30 2080 H 201.624 -5.02105 -2.29335 0
M  V30 2081 H 202.101 -3.39721 -2.78363 0
M  V30 2082 H 202.707 -4.06499 -1.25055 0
M  V30 2083 N 201.022 0.148545 -1.56898 0
M  V30 2084 C 201.985 1.16736 -1.97244 0
M  V30 2085 C 202.985 1.35947 -0.858777 0
M  V30 2086 O 204.175 1.32966 -1.12542 0
M  V30 2087 C 201.307 2.52798 -2.28705 0
M  V30 2088 H 202.5 0.821279 -2.88435 0
M  V30 2089 H 200.053 0.391831 -1.51309 0
M  V30 2090 H 200.788 2.92381 -1.403 0
M  V30 2091 H 200.573 2.40216 -3.09901 0
M  V30 2092 H 202.063 3.26179 -2.60762 0
M  V30 2093 N 202.5 1.5196 0.417844 0
M  V30 2094 C 203.433 1.69387 1.52916 0
M  V30 2095 C 204.411 0.541419 1.53321 0
M  V30 2096 O 205.595 0.767695 1.72159 0
M  V30 2097 C 202.722 1.72525 2.91467 0
M  V30 2098 C 201.768 2.93967 3.09008 0
M  V30 2099 S 202.601 4.54461 2.83242 0
M  V30 2100 C 203.757 4.60372 4.24038 0
M  V30 2101 H 203.99 2.63382 1.37903 0
M  V30 2102 H 201.523 1.41889 0.608845 0
M  V30 2103 H 203.481 1.75018 3.7132 0
M  V30 2104 H 202.142 0.796733 3.03827 0
M  V30 2105 H 201.335 2.92619 4.10353 0
M  V30 2106 H 200.937 2.89316 2.37007 0
M  V30 2107 H 203.229 4.37213 5.17544 0
M  V30 2108 H 204.172 5.62273 4.30412 0
M  V30 2109 H 204.58 3.89492 4.08602 0
M  V30 2110 N 203.978 -0.674533 1.42435 0
M  V30 2111 C 204.926 -1.80934 1.46169 0
M  V30 2112 C 205.92 -1.66006 0.3374 0
M  V30 2113 O 207.126 -1.72611 0.510425 0
M  V30 2114 H 203.501 -0.596594 0.457798 0
M  V30 2115 H 205.472 -1.74903 2.41767 0
M  V30 2116 C 204.221 -3.19088 1.38123 0
M  V30 2117 H 203.544 -3.31203 2.23931 0
M  V30 2118 H 204.984 -3.9851 1.44797 0
M  V30 2119 C 203.443 -3.36763 0.0960517 0
M  V30 2120 O 203.973 -3.92581 -0.851073 0
M  V30 2121 N 202.179 -2.90597 0.0131186 0
M  V30 2122 H 201.726 -2.45359 0.784639 0
M  V30 2123 H 201.684 -3.028 -0.846133 0
M  V30 2124 N 205.456 -1.28612 -0.910864 0
M  V30 2125 C 206.403 -1.12786 -2.01365 0
M  V30 2126 C 207.373 -0.024201 -1.66082 0
M  V30 2127 O 208.558 -0.189667 -1.89855 0
M  V30 2128 C 205.698 -0.798743 -3.35729 0
M  V30 2129 C 204.811 -1.98173 -3.83864 0
M  V30 2130 C 203.946 -1.59298 -5.06752 0
M  V30 2131 C 202.985 -2.74245 -5.47226 0
M  V30 2132 N 202.122 -2.35842 -6.61304 0
M  V30 2133 H 206.962 -2.07142 -2.14234 0
M  V30 2134 H 204.499 -1.03093 -1.0493 0
M  V30 2135 H 206.457 -0.588662 -4.13026 0
M  V30 2136 H 205.087 0.10789 -3.2262 0
M  V30 2137 H 204.139 -2.30386 -3.02699 0
M  V30 2138 H 205.451 -2.84343 -4.09818 0
M  V30 2139 H 204.605 -1.34513 -5.916 0
M  V30 2140 H 203.344 -0.702618 -4.82612 0
M  V30 2141 H 202.349 -2.99725 -4.60918 0
M  V30 2142 H 203.574 -3.63928 -5.73353 0
M  V30 2143 H 201.52 -1.49279 -6.38789 0
M  V30 2144 H 201.437 -3.15546 -6.86998 0
M  V30 2145 H 202.705 -2.14348 -7.4945 0
M  V30 2146 N 206.934 1.1197 -1.10907 0
M  V30 2147 C 207.864 2.19928 -0.784473 0
M  V30 2148 C 208.845 1.6833 0.244726 0
M  V30 2149 O 210.03 1.93892 0.109418 0
M  V30 2150 C 207.16 3.46597 -0.220827 0
M  V30 2151 C 206.114 4.11376 -1.18127 0
M  V30 2152 C 205.44 5.32554 -0.478594 0
M  V30 2153 C 206.74 4.56945 -2.52979 0
M  V30 2154 H 208.434 2.47337 -1.68715 0
M  V30 2155 H 205.98 1.18879 -0.812642 0
M  V30 2156 H 207.933 4.21396 0.0184278 0
M  V30 2157 H 206.657 3.1863 0.717113 0
M  V30 2158 H 205.316 3.38564 -1.40606 0
M  V30 2159 H 204.964 5.00856 0.463976 0
M  V30 2160 H 204.664 5.76844 -1.11912 0
M  V30 2161 H 206.188 6.10096 -0.248 0
M  V30 2162 H 207.602 5.23093 -2.3462 0
M  V30 2163 H 205.999 5.1203 -3.12962 0
M  V30 2164 H 207.069 3.70676 -3.12614 0
M  V30 2165 N 208.412 0.89855 1.29475 0
M  V30 2166 C 209.661 0.519863 1.94885 0
M  V30 2167 C 209.974 -0.9383 1.71625 0
M  V30 2168 O 211.18 -1.42445 2.31131 0
M  V30 2169 C 209.636 0.878836 3.49005 0
M  V30 2170 C 209.244 2.35569 3.81066 0
M  V30 2171 C 210.988 0.570004 4.20656 0
M  V30 2172 C 208.895 2.65558 5.28425 0
M  V30 2173 H 207.825 0.190692 0.729488 0
M  V30 2174 H 210.476 1.09539 1.47219 0
M  V30 2175 H 208.858 0.232253 3.95318 0
M  V30 2176 H 210.032 3.04773 3.45616 0
M  V30 2177 H 208.347 2.63343 3.22552 0
M  V30 2178 H 210.944 0.770925 5.29113 0
M  V30 2179 H 211.287 -0.491404 4.1339 0
M  V30 2180 H 211.82 1.17438 3.8007 0
M  V30 2181 H 208.559 3.70493 5.40754 0
M  V30 2182 H 208.079 2.00977 5.65127 0
M  V30 2183 H 209.758 2.51765 5.96006 0
M  V30 2184 N 209.89 -1.43072 0.660911 0
M  V30 2185 C 210.853 -2.29194 -0.0166406 0
M  V30 2186 C 211.853 -1.42609 -0.742912 0
M  V30 2187 O 213.043 -1.64155 -0.583004 0
M  V30 2188 C 210.175 -3.24831 -1.0343 0
M  V30 2189 H 211.368 -2.90596 0.741208 0
M  V30 2190 H 208.921 -1.5048 0.422532 0
M  V30 2191 H 209.656 -2.68339 -1.82111 0
M  V30 2192 H 209.441 -3.88676 -0.517082 0
M  V30 2193 H 210.931 -3.89451 -1.50723 0
M  V30 2194 N 211.368 -0.403325 -1.52352 0
M  V30 2195 C 212.318 0.442244 -2.2367 0
M  V30 2196 C 213.302 1.01823 -1.24583 0
M  V30 2197 O 214.494 0.942005 -1.49851 0
M  V30 2198 C 211.623 1.5615 -3.05732 0
M  V30 2199 C 210.709 0.996575 -4.12225 0
M  V30 2200 N 211.1 0.157804 -5.05554 0
M  V30 2201 C 209.398 1.26767 -4.27605 0
M  V30 2202 C 210.099 -0.155853 -5.81491 0
M  V30 2203 N 209.075 0.451775 -5.41719 0
M  V30 2204 H 212.877 -0.204964 -2.93184 0
M  V30 2205 H 210.391 -0.213418 -1.60992 0
M  V30 2206 H 212.388 2.17981 -3.55373 0
M  V30 2207 H 211.048 2.21139 -2.37755 0
M  V30 2208 H 212.059 -0.206049 -5.1749 0
M  V30 2209 H 208.736 1.91757 -3.70858 0
M  V30 2210 H 210.126 -0.836329 -6.66675 0
M  V30 2211 N 212.846 1.57033 -0.133567 0
M  V30 2212 C 213.776 2.1909 0.807567 0
M  V30 2213 C 214.757 1.13517 1.26681 0
M  V30 2214 O 215.942 1.41809 1.32679 0
M  V30 2215 C 213.072 2.80188 2.05212 0
M  V30 2216 C 212.026 3.91471 1.73015 0
M  V30 2217 C 211.352 4.39443 3.04622 0
M  V30 2218 C 212.652 5.12886 0.987168 0
M  V30 2219 H 214.346 2.97988 0.290403 0
M  V30 2220 H 211.892 1.43335 0.138239 0
M  V30 2221 H 213.845 3.22264 2.71521 0
M  V30 2222 H 212.569 1.98601 2.59278 0
M  V30 2223 H 211.228 3.49993 1.0909 0
M  V30 2224 H 210.876 3.54695 3.56651 0
M  V30 2225 H 210.576 5.14495 2.83847 0
M  V30 2226 H 212.1 4.8418 3.72024 0
M  V30 2227 H 213.514 5.51891 1.55208 0
M  V30 2228 H 211.911 5.93615 0.87985 0
M  V30 2229 H 212.981 4.84894 -0.0235286 0
M  V30 2230 N 214.325 -0.140222 1.56975 0
M  V30 2231 C 215.573 -0.850005 1.83356 0
M  V30 2232 C 215.894 -1.81399 0.71551 0
M  V30 2233 O 215.164 -1.94136 -0.262294 0
M  V30 2234 H 213.744 -0.316886 0.676456 0
M  V30 2235 H 216.406 -0.132608 1.94448 0
M  V30 2236 H 215.502 -1.40814 2.78528 0
M  V30 2237 N 215.803 -1.52179 -0.40978 0
M  V30 2238 C 217.051 -1.65878 -1.15451 0
M  V30 2239 C 217.372 -0.390771 -1.91044 0
M  V30 2240 O 216.642 0.594323 -1.86667 0
M  V30 2241 H 215.222 -0.611405 -0.429177 0
M  V30 2242 H 217.884 -1.89219 -0.467134 0
M  V30 2243 H 216.98 -2.49954 -1.86894 0
M  V30 2244 N 217.281 0.66697 -1.42791 0
M  V30 2245 C 218.692 1.2478 -1.38877 0
M  V30 2246 C 219.043 1.96012 -0.0859426 0
M  V30 2247 O 218.168 2.00463 0.815081 0
M  V30 2248 C 218.763 2.26938 -2.51564 0
M  V30 2249 C 217.322 2.80529 -2.50959 0
M  V30 2250 C 216.469 1.54965 -2.29959 0
M  V30 2251 H 219.42 0.459853 -1.51892 0
M  V30 2252 H 219.441 3.08834 -2.22265 0
M  V30 2253 H 218.953 1.75065 -3.46372 0
M  V30 2254 H 217.054 3.36502 -1.59991 0
M  V30 2255 H 217.167 3.29012 -3.48265 0
M  V30 2256 H 215.531 1.81817 -1.78366 0
M  V30 2257 H 216.314 1.05047 -3.26833 0
M  V30 2258 N 218.759 1.29093 0.90403 0
M  V30 2259 C 220.036 1.075 1.63411 0
M  V30 2260 C 220.416 -0.382346 2.07609 0
M  V30 2261 O 219.764 -1.37031 1.82851 0
M  V30 2262 C 219.974 2.05858 2.81822 0
M  V30 2263 C 221.322 2.36539 3.52611 0
M  V30 2264 O 222.346 2.04019 2.91984 0
M  V30 2265 O 221.205 2.92085 4.61897 0
M  V30 2266 H 218.299 0.411547 0.717327 0
M  V30 2267 H 220.845 1.40449 0.952479 0
M  V30 2268 H 219.617 3.04037 2.46327 0
M  V30 2269 H 219.24 1.73613 3.57693 0
M  V30 2270 N 220.237 -1.11381 1.11499 0
M  V30 2271 C 221.184 -2.17439 0.773887 0
M  V30 2272 C 222.154 -1.64132 -0.254899 0
M  V30 2273 O 223.339 -1.90345 -0.13168 0
M  V30 2274 C 220.479 -3.44373 0.223917 0
M  V30 2275 C 219.592 -4.1168 1.30934 0
M  V30 2276 C 218.727 -5.263 0.71984 0
M  V30 2277 C 217.766 -5.85493 1.78507 0
M  V30 2278 N 216.903 -6.91507 1.21502 0
M  V30 2279 H 221.743 -2.45962 1.68246 0
M  V30 2280 H 219.28 -1.20744 0.840191 0
M  V30 2281 H 221.238 -4.17047 -0.112921 0
M  V30 2282 H 219.868 -3.16232 -0.647851 0
M  V30 2283 H 218.92 -3.37073 1.76312 0
M  V30 2284 H 220.232 -4.51729 2.11524 0
M  V30 2285 H 219.386 -6.05785 0.333094 0
M  V30 2286 H 218.125 -4.87559 -0.117377 0
M  V30 2287 H 217.13 -5.04686 2.18111 0
M  V30 2288 H 218.355 -6.26301 2.62533 0
M  V30 2289 H 216.301 -6.54783 0.399455 0
M  V30 2290 H 216.218 -7.30214 1.95763 0
M  V30 2291 H 217.486 -7.74795 0.855181 0
M  V30 2292 N 221.715 -0.905404 -1.28997 0
M  V30 2293 C 222.961 -0.535039 -1.95615 0
M  V30 2294 C 223.294 0.917404 -1.71165 0
M  V30 2295 O 222.569 1.65123 -1.02785 0
M  V30 2296 C 222.852 -0.834918 -3.50287 0
M  V30 2297 C 222.705 -2.33948 -3.84172 0
M  V30 2298 C 224.024 -0.325318 -4.38896 0
M  V30 2299 H 221.143 -0.195861 -0.710498 0
M  V30 2300 H 223.785 -1.13313 -1.52513 0
M  V30 2301 H 221.935 -0.325904 -3.87131 0
M  V30 2302 H 223.607 -2.91847 -3.57243 0
M  V30 2303 H 221.85 -2.79789 -3.31513 0
M  V30 2304 H 222.521 -2.49987 -4.92149 0
M  V30 2305 H 224.997 -0.761256 -4.09077 0
M  V30 2306 H 223.873 -0.564295 -5.45992 0
M  V30 2307 H 224.134 0.774144 -4.35269 0
M  V30 2308 N 223.193 1.4272 -0.668489 0
M  V30 2309 C 224.421 2.05966 -0.196348 0
M  V30 2310 C 224.836 1.50191 1.14403 0
M  V30 2311 O 224.193 0.639208 1.7094 0
M  V30 2312 C 224.244 3.61314 -0.115815 0
M  V30 2313 O 223.965 4.1502 -1.40322 0
M  V30 2314 C 225.466 4.41663 0.380579 0
M  V30 2315 H 222.686 0.663954 -0.0969829 0
M  V30 2316 H 225.23 1.82966 -0.913446 0
M  V30 2317 H 223.385 3.83448 0.551931 0
M  V30 2318 H 223.799 5.08832 -1.27243 0
M  V30 2319 H 225.273 5.5065 0.385848 0
M  V30 2320 H 225.75 4.15792 1.41471 0
M  V30 2321 H 226.356 4.24534 -0.255209 0
M  V30 2322 N 224.671 0.411399 1.52136 0
M  V30 2323 C 225.634 -0.401089 2.25663 0
M  V30 2324 C 226.634 -0.971732 1.28117 0
M  V30 2325 O 227.824 -0.850254 1.52041 0
M  V30 2326 C 224.956 -1.56483 3.02863 0
M  V30 2327 H 226.149 0.24295 2.98914 0
M  V30 2328 H 223.702 0.163968 1.55438 0
M  V30 2329 H 224.437 -2.24567 2.33967 0
M  V30 2330 H 224.222 -1.16211 3.74483 0
M  V30 2331 H 225.712 -2.13951 3.58629 0
M  V30 2332 N 226.149 -1.5696 0.141893 0
M  V30 2333 C 227.396 -1.9596 -0.510492 0
M  V30 2334 C 227.724 -1.02648 -1.65208 0
M  V30 2335 O 226.979 -0.0546947 -1.95624 0
M  V30 2336 C 227.278 -3.41242 -1.06249 0
M  V30 2337 C 226.944 -4.50882 -0.0398791 0
M  V30 2338 C 225.606 -4.80595 0.241247 0
M  V30 2339 C 227.958 -5.17058 0.65578 0
M  V30 2340 C 225.286 -5.73792 1.22393 0
M  V30 2341 C 227.638 -6.11313 1.62724 0
M  V30 2342 C 226.302 -6.39407 1.91612 0
M  V30 2343 H 225.572 -0.717068 -0.186802 0
M  V30 2344 H 228.219 -1.90142 0.227643 0
M  V30 2345 H 226.524 -3.43866 -1.87785 0
M  V30 2346 H 228.221 -3.68742 -1.57576 0
M  V30 2347 H 224.811 -4.27754 -0.269174 0
M  V30 2348 H 228.995 -4.94239 0.451779 0
M  V30 2349 H 224.251 -5.93853 1.45424 0
M  V30 2350 H 228.425 -6.61668 2.17183 0
M  V30 2351 H 226.052 -7.11427 2.6791 0
M  V30 2352 N 227.627 0.131896 -1.57047 0
M  V30 2353 C 228.59 1.14638 -1.98471 0
M  V30 2354 C 229.59 1.35029 -0.873148 0
M  V30 2355 O 230.78 1.31764 -1.13946 0
M  V30 2356 C 227.912 2.50358 -2.31373 0
M  V30 2357 H 229.105 0.79064 -2.8929 0
M  V30 2358 H 226.658 0.375761 -1.51716 0
M  V30 2359 H 227.393 2.90876 -1.43393 0
M  V30 2360 H 227.178 2.36915 -3.12432 0
M  V30 2361 H 228.668 3.23395 -2.64207 0
M  V30 2362 N 229.106 1.52395 0.401703 0
M  V30 2363 C 230.522 1.41363 0.740864 0
M  V30 2364 C 230.722 0.523982 1.94568 0
M  V30 2365 O 229.778 -0.00741204 2.52499 0
M  V30 2366 C 231.091 2.84011 0.987847 0
M  V30 2367 C 232.639 2.93404 1.09011 0
M  V30 2368 C 233.114 4.37036 1.3698 0
M  V30 2369 N 234.605 4.40304 1.43829 0
M  V30 2370 C 235.34 5.48508 1.67112 0
M  V30 2371 N 234.836 6.66819 1.87949 0
M  V30 2372 N 236.629 5.36034 1.69187 0
M  V30 2373 H 228.78 2.08765 -0.391262 0
M  V30 2374 H 231.043 0.941265 -0.112798 0
M  V30 2375 H 230.749 3.51265 0.174835 0
M  V30 2376 H 230.623 3.25502 1.906 0
M  V30 2377 H 233.01 2.26325 1.8937 0
M  V30 2378 H 233.091 2.55359 0.15015 0
M  V30 2379 H 232.735 5.04676 0.571353 0
M  V30 2380 H 232.665 4.72623 2.3224 0
M  V30 2381 H 235.156 3.55024 1.29486 0
M  V30 2382 H 235.469 7.45063 2.05185 0
M  V30 2383 H 233.814 6.6987 1.85199 0
M  V30 2384 H 237.005 4.42579 1.52451 0
M  V30 2385 H 237.178 6.20434 1.86993 0
M  V30 2386 N 230.584 -0.659388 1.43143 0
M  V30 2387 C 231.809 -1.45221 1.48073 0
M  V30 2388 C 232.234 -1.87845 0.097995 0
M  V30 2389 O 231.592 -1.56985 -0.90694 0
M  V30 2390 C 231.64 -2.66748 2.42647 0
M  V30 2391 O 230.744 -3.65583 1.90848 0
M  V30 2392 H 230.085 -0.435669 0.501088 0
M  V30 2393 H 232.615 -0.807432 1.87994 0
M  V30 2394 H 232.625 -3.14637 2.59745 0
M  V30 2395 H 231.3 -2.35067 3.43098 0
M  V30 2396 H 229.877 -3.24693 1.83381 0
M  V30 2397 N 232.062 -1.29571 -0.897171 0
M  V30 2398 C 232.992 -1.17473 -2.01798 0
M  V30 2399 C 233.973 -0.068323 -1.69963 0
M  V30 2400 O 235.158 -0.248239 -1.92607 0
M  V30 2401 C 232.288 -0.853099 -3.36659 0
M  V30 2402 C 231.242 -1.9161 -3.82713 0
M  V30 2403 C 230.568 -1.44773 -5.14728 0
M  V30 2404 C 231.868 -3.32535 -4.02763 0
M  V30 2405 H 233.562 -2.11237 -2.12177 0
M  V30 2406 H 231.108 -1.01699 -1.01948 0
M  V30 2407 H 233.061 -0.755165 -4.14578 0
M  V30 2408 H 231.785 0.120236 -3.26379 0
M  V30 2409 H 230.444 -2.00346 -3.07013 0
M  V30 2410 H 230.092 -0.462995 -5.00865 0
M  V30 2411 H 229.792 -2.15865 -5.46513 0
M  V30 2412 H 231.316 -1.36334 -5.95185 0
M  V30 2413 H 232.73 -3.26626 -4.71156 0
M  V30 2414 H 231.127 -4.01607 -4.45905 0
M  V30 2415 H 232.197 -3.75326 -3.07016 0
M  V30 2416 N 233.54 1.10788 -1.12088 0
M  V30 2417 C 234.788 1.8231 -0.872205 0
M  V30 2418 C 235.109 1.85419 0.603709 0
M  V30 2419 O 234.379 1.32963 1.43867 0
M  V30 2420 H 232.959 0.675137 -0.319686 0
M  V30 2421 H 235.621 1.34068 -1.41463 0
M  V30 2422 H 234.717 2.85955 -1.25045 0
M  V30 2423 N 235.018 0.912232 1.28515 0
M  V30 2424 C 236.295 0.463597 1.90027 0
M  V30 2425 C 236.675 -1.05753 1.82701 0
M  V30 2426 O 236.023 -1.90492 1.26194 0
M  V30 2427 C 236.233 0.992253 3.34597 0
M  V30 2428 C 237.581 1.04344 4.11579 0
M  V30 2429 O 238.605 0.94079 3.43551 0
M  V30 2430 O 237.464 1.1995 5.33174 0
M  V30 2431 H 234.558 0.146666 0.813891 0
M  V30 2432 H 237.104 1.00292 1.36893 0
M  V30 2433 H 235.876 2.03623 3.34146 0
M  V30 2434 H 235.499 0.433672 3.95228 0
M  V30 2435 N 236.496 -1.42363 0.676048 0
M  V30 2436 C 237.406 -2.346 -0.00153389 0
M  V30 2437 C 238.422 -1.5516 -0.787485 0
M  V30 2438 O 239.598 -1.87723 -0.729521 0
M  V30 2439 C 236.663 -3.33705 -0.940298 0
M  V30 2440 C 235.724 -4.29042 -0.148739 0
M  V30 2441 C 234.957 -5.23413 -1.04279 0
M  V30 2442 O 235.18 -5.22749 -2.28232 0
M  V30 2443 O 234.114 -5.99795 -0.502925 0
M  V30 2444 H 237.94 -2.94082 0.758268 0
M  V30 2445 H 235.525 -1.42888 0.436289 0
M  V30 2446 H 237.407 -3.94586 -1.47917 0
M  V30 2447 H 236.082 -2.76695 -1.67993 0
M  V30 2448 H 234.989 -3.71571 0.43427 0
M  V30 2449 H 236.322 -4.89097 0.551805 0
M  V30 2450 N 237.974 -0.419461 -1.51915 0
M  V30 2451 C 239.202 0.152136 -2.0634 0
M  V30 2452 C 239.617 1.37988 -1.28859 0
M  V30 2453 O 238.974 1.79243 -0.343232 0
M  V30 2454 C 239.025 0.492266 -3.58133 0
M  V30 2455 O 238.746 -0.686736 -4.32684 0
M  V30 2456 C 240.247 1.11648 -4.2901 0
M  V30 2457 H 237.467 0.0158325 -0.670813 0
M  V30 2458 H 240.011 -0.593394 -1.95702 0
M  V30 2459 H 238.166 1.18769 -3.68745 0
M  V30 2460 H 238.58 -0.400341 -5.2297 0
M  V30 2461 H 240.054 1.3046 -5.36362 0
M  V30 2462 H 240.531 2.09251 -3.86148 0
M  V30 2463 H 241.137 0.460958 -4.22795 0
M  V30 2464 N 239.452 1.56882 -0.150215 0
M  V30 2465 C 240.699 1.96228 0.500093 0
M  V30 2466 C 241.027 1.03522 1.64661 0
M  V30 2467 O 240.282 0.0650683 1.95592 0
M  V30 2468 C 240.581 3.41801 1.04437 0
M  V30 2469 C 240.247 4.50897 0.0159671 0
M  V30 2470 C 238.909 4.8046 -0.266731 0
M  V30 2471 C 241.261 5.16703 -0.683192 0
M  V30 2472 C 238.589 5.73135 -1.25434 0
M  V30 2473 C 240.941 6.10441 -1.65964 0
M  V30 2474 C 239.605 6.38382 -1.95 0
M  V30 2475 H 238.875 0.718048 0.182997 0
M  V30 2476 H 241.522 1.90019 -0.237724 0
M  V30 2477 H 239.827 3.44857 1.85959 0
M  V30 2478 H 241.524 3.69573 1.55618 0
M  V30 2479 H 238.114 4.27891 0.246485 0
M  V30 2480 H 242.298 4.93993 -0.477983 0
M  V30 2481 H 237.554 5.93074 -1.48571 0
M  V30 2482 H 241.728 6.60507 -2.20689 0
M  V30 2483 H 239.355 7.09996 -2.71679 0
M  V30 2484 N 240.93 -0.123565 1.57115 0
M  V30 2485 C 242.346 -0.476961 1.52306 0
M  V30 2486 C 242.546 -1.82109 0.86248 0
M  V30 2487 O 241.602 -2.48586 0.442884 0
M  V30 2488 C 242.915 -0.465661 2.97073 0
M  V30 2489 C 244.463 -0.549534 3.08138 0
M  V30 2490 C 244.938 -0.568669 4.54456 0
M  V30 2491 N 246.429 -0.630237 4.58892 0
M  V30 2492 C 247.164 -0.666415 5.69514 0
M  V30 2493 N 246.66 -0.660514 6.89644 0
M  V30 2494 N 248.453 -0.709077 5.5761 0
M  V30 2495 H 240.604 0.757198 1.98445 0
M  V30 2496 H 242.867 0.278808 0.906074 0
M  V30 2497 H 242.573 0.454232 3.48754 0
M  V30 2498 H 242.447 -1.29513 3.54269 0
M  V30 2499 H 244.834 -1.45985 2.56461 0
M  V30 2500 H 244.915 0.307532 2.53945 0
M  V30 2501 H 244.559 0.337581 5.06777 0
M  V30 2502 H 244.489 -1.44256 5.06456 0
M  V30 2503 H 246.98 -0.641146 3.72421 0
M  V30 2504 H 247.293 -0.690616 7.69708 0
M  V30 2505 H 245.638 -0.628012 6.92157 0
M  V30 2506 H 248.829 -0.711019 4.62668 0
M  V30 2507 H 249.002 -0.733804 6.43832 0
M  V30 2508 N 242.408 -1.52605 -0.393616 0
M  V30 2509 C 243.338 -1.80022 -1.48709 0
M  V30 2510 C 244.319 -0.651995 -1.57108 0
M  V30 2511 O 245.504 -0.89913 -1.72132 0
M  V30 2512 C 242.634 -1.96492 -2.86371 0
M  V30 2513 C 241.588 -3.12161 -2.92813 0
M  V30 2514 C 240.914 -3.13877 -4.3288 0
M  V30 2515 C 242.214 -4.51322 -2.6288 0
M  V30 2516 H 243.908 -2.71589 -1.26015 0
M  V30 2517 H 241.454 -1.30684 -0.604778 0
M  V30 2518 H 243.407 -2.14255 -3.62867 0
M  V30 2519 H 242.131 -1.01611 -3.10391 0
M  V30 2520 H 240.79 -2.94173 -2.18764 0
M  V30 2521 H 240.438 -2.16687 -4.53933 0
M  V30 2522 H 240.138 -3.91576 -4.38112 0
M  V30 2523 H 241.662 -3.33789 -5.1129 0
M  V30 2524 H 243.076 -4.69435 -3.29096 0
M  V30 2525 H 241.473 -5.31053 -2.79468 0
M  V30 2526 H 242.543 -4.58353 -1.58242 0
M  V30 2527 N 243.887 0.651787 -1.4349 0
M  V30 2528 C 245.164 1.40909 -1.35661 0
M  V30 2529 C 245.544 2.11099 -0.00511733 0
M  V30 2530 O 244.892 2.04892 1.0115 0
M  V30 2531 C 245.102 2.3926 -2.54078 0
M  V30 2532 C 246.45 3.03217 -2.97228 0
M  V30 2533 O 247.474 2.49588 -2.54135 0
M  V30 2534 O 246.333 4.00455 -3.71885 0
M  V30 2535 H 243.427 0.629625 -0.536191 0
M  V30 2536 H 245.973 0.678575 -1.55542 0
M  V30 2537 H 244.745 1.86352 -3.44076 0
M  V30 2538 H 244.368 3.1976 -2.36303 0
M  V30 2539 N 245.365 1.30045 0.890287 0
M  V30 2540 C 246.781 1.08261 1.17268 0
M  V30 2541 C 246.981 -0.160063 2.00863 0
M  V30 2542 O 246.037 -0.855181 2.37577 0
M  V30 2543 C 247.35 2.34323 1.8845 0
M  V30 2544 C 248.898 2.39735 2.01237 0
M  V30 2545 C 249.373 3.65625 2.7583 0
M  V30 2546 N 250.864 3.66402 2.83379 0
M  V30 2547 C 251.599 4.60498 3.41657 0
M  V30 2548 N 251.095 5.64933 4.01026 0
M  V30 2549 N 252.888 4.48051 3.39421 0
M  V30 2550 H 245.039 2.09777 0.332762 0
M  V30 2551 H 247.302 0.92446 0.209948 0
M  V30 2552 H 247.008 3.2498 1.34465 0
M  V30 2553 H 246.882 2.4256 2.88867 0
M  V30 2554 H 249.269 1.4956 2.54393 0
M  V30 2555 H 249.35 2.35476 0.999232 0
M  V30 2556 H 248.994 4.56156 2.23347 0
M  V30 2557 H 248.924 3.67144 3.77509 0
M  V30 2558 H 251.415 2.90896 2.41222 0
M  V30 2559 H 251.728 6.32841 4.43545 0
M  V30 2560 H 250.073 5.68732 3.99461 0
M  V30 2561 H 253.264 3.65649 2.92264 0
M  V30 2562 H 253.437 5.21565 3.84544 0
M  V30 2563 N 246.843 -1.10192 1.12674 0
M  V30 2564 C 248.071 -1.85983 0.906527 0
M  V30 2565 C 248.486 -1.80783 -0.544333 0
M  V30 2566 O 247.843 -1.19834 -1.37645 0
M  V30 2567 C 247.894 -3.34281 1.37618 0
M  V30 2568 O 247.615 -3.39401 2.77017 0
M  V30 2569 C 249.116 -4.26938 1.19325 0
M  V30 2570 H 246.336 -0.587716 0.323775 0
M  V30 2571 H 248.88 -1.39284 1.49734 0
M  V30 2572 H 247.035 -3.78436 0.828539 0
M  V30 2573 H 247.449 -4.31838 2.97684 0
M  V30 2574 H 248.923 -5.29181 1.57071 0
M  V30 2575 H 249.4 -4.38995 0.134097 0
M  V30 2576 H 250.006 -3.8859 1.72852 0
M  V30 2577 N 248.321 -0.919034 -1.28029 0
M  V30 2578 C 249.231 -0.416756 -2.30869 0
M  V30 2579 C 250.247 0.498235 -1.66714 0
M  V30 2580 O 251.423 0.383144 -1.97722 0
M  V30 2581 C 248.488 0.330274 -3.45123 0
M  V30 2582 C 247.549 -0.618578 -4.2482 0
M  V30 2583 C 246.782 0.0928959 -5.33619 0
M  V30 2584 O 247.005 1.31375 -5.55065 0
M  V30 2585 O 245.939 -0.574499 -5.99152 0
M  V30 2586 H 249.765 -1.27043 -2.75851 0
M  V30 2587 H 247.35 -0.684052 -1.3282 0
M  V30 2588 H 249.232 0.751972 -4.14636 0
M  V30 2589 H 247.907 1.1597 -3.02213 0
M  V30 2590 H 246.814 -1.08978 -3.57875 0
M  V30 2591 H 248.147 -1.41497 -4.71423 0
M  V30 2592 N 249.799 1.42003 -0.683588 0
M  V30 2593 C 251.21 1.84501 -0.285736 0
M  V30 2594 C 251.561 1.57213 1.17382 0
M  V30 2595 O 250.686 1.03642 1.89966 0
M  V30 2596 C 251.281 3.34912 -0.511821 0
M  V30 2597 C 249.84 3.76025 -0.168005 0
M  V30 2598 C 248.987 2.6551 -0.799983 0
M  V30 2599 H 251.938 1.31724 -0.885119 0
M  V30 2600 H 251.959 3.79784 0.233292 0
M  V30 2601 H 251.471 3.54741 -1.57418 0
M  V30 2602 H 249.572 3.61801 0.890567 0
M  V30 2603 H 249.685 4.75141 -0.614661 0
M  V30 2604 H 248.049 2.53654 -0.230568 0
M  V30 2605 H 248.832 2.8816 -1.86597 0
M  V30 2606 N 251.277 0.427512 1.51691 0
M  V30 2607 C 252.505 -0.141191 2.06418 0
M  V30 2608 C 252.92 -1.37303 1.29589 0
M  V30 2609 O 252.277 -1.79059 0.352732 0
M  V30 2610 C 252.328 -0.473266 3.58389 0
M  V30 2611 O 252.049 0.709673 4.32314 0
M  V30 2612 C 253.55 -1.09371 4.29596 0
M  V30 2613 H 250.77 -0.0122747 0.670888 0
M  V30 2614 H 253.314 0.603764 1.95384 0
M  V30 2615 H 251.469 -1.16812 3.69369 0
M  V30 2616 H 251.883 0.42807 5.2275 0
M  V30 2617 H 253.357 -1.27613 5.37046 0
M  V30 2618 H 253.834 -2.072 3.87253 0
M  V30 2619 H 254.44 -0.43853 4.23033 0
M  V30 2620 N 252.755 -1.56801 0.158532 0
M  V30 2621 C 253.685 -2.20347 -0.772609 0
M  V30 2622 C 254.666 -1.15518 -1.24859 0
M  V30 2623 O 255.851 -1.43902 -1.30406 0
M  V30 2624 C 252.981 -2.83417 -2.00729 0
M  V30 2625 C 251.935 -3.94174 -1.66765 0
M  V30 2626 C 251.261 -4.44233 -2.97592 0
M  V30 2627 C 252.561 -5.14392 -0.905447 0
M  V30 2628 H 254.255 -2.98413 -0.242959 0
M  V30 2629 H 251.801 -1.43537 -0.115419 0
M  V30 2630 H 253.754 -3.26543 -2.6636 0
M  V30 2631 H 252.478 -2.02701 -2.56086 0
M  V30 2632 H 251.137 -3.51684 -1.03508 0
M  V30 2633 H 250.785 -3.60325 -3.50963 0
M  V30 2634 H 250.485 -5.18945 -2.75626 0
M  V30 2635 H 252.009 -4.90037 -3.64274 0
M  V30 2636 H 253.423 -5.5429 -1.46408 0
M  V30 2637 H 251.82 -5.9494 -0.7853 0
M  V30 2638 H 252.89 -4.84795 0.100668 0
M  V30 2639 N 254.233 0.115231 -1.57178 0
M  V30 2640 C 255.181 1.16014 -2.01602 0
M  V30 2641 C 256.175 1.42653 -0.913587 0
M  V30 2642 O 257.381 1.42571 -1.09879 0
M  V30 2643 H 253.756 0.391252 -0.642204 0
M  V30 2644 H 255.727 0.758998 -2.88586 0
M  V30 2645 C 254.476 2.47767 -2.4394 0
M  V30 2646 H 253.799 2.28108 -3.28339 0
M  V30 2647 H 255.239 3.19432 -2.78818 0
M  V30 2648 C 253.698 3.10617 -1.30455 0
M  V30 2649 O 254.228 3.96846 -0.622585 0
M  V30 2650 N 252.434 2.70553 -1.06064 0
M  V30 2651 H 251.981 2.00527 -1.61699 0
M  V30 2652 H 251.939 3.12934 -0.303284 0
M  V30 2653 N 255.711 1.52812 0.385517 0
M  V30 2654 C 256.939 1.71907 1.15133 0
M  V30 2655 C 257.354 0.439004 1.83625 0
M  V30 2656 O 256.711 -0.586765 1.7281 0
M  V30 2657 C 256.762 2.87099 2.19673 0
M  V30 2658 O 256.483 4.10151 1.53973 0
M  V30 2659 C 257.984 3.17902 3.08955 0
M  V30 2660 H 255.204 0.575479 0.345057 0
M  V30 2661 H 257.748 1.99476 0.45052 0
M  V30 2662 H 255.903 2.61982 2.85384 0
M  V30 2663 H 256.317 4.74514 2.23465 0
M  V30 2664 H 257.791 4.01959 3.7833 0
M  V30 2665 H 258.268 2.3243 3.72657 0
M  V30 2666 H 258.874 3.44871 2.48885 0
M  V30 2667 N 257.189 -0.644168 1.43834 0
M  V30 2668 C 258.152 -1.73857 1.49353 0
M  V30 2669 C 259.152 -1.56315 0.377112 0
M  V30 2670 O 260.342 -1.62048 0.639226 0
M  V30 2671 C 257.474 -3.12819 1.35488 0
M  V30 2672 H 258.667 -1.70342 2.46827 0
M  V30 2673 H 256.22 -0.856652 1.30733 0
M  V30 2674 H 256.955 -3.2194 0.390569 0
M  V30 2675 H 256.74 -3.26958 2.16428 0
M  V30 2676 H 258.23 -3.92606 1.42302 0
M  V30 2677 N 258.668 -1.30515 -0.883378 0
M  V30 2678 C 259.917 -1.18795 -1.63005 0
M  V30 2679 C 260.23 0.255923 -1.93919 0
M  V30 2680 O 261.436 0.494654 -2.66956 0
M  V30 2681 C 259.892 -2.07878 -2.93794 0
M  V30 2682 C 259.5 -3.57184 -2.70414 0
M  V30 2683 C 261.244 -2.04924 -3.71761 0
M  V30 2684 C 259.151 -4.38317 -3.97029 0
M  V30 2685 H 258.081 -0.441031 -0.611562 0
M  V30 2686 H 260.732 -1.55275 -0.977854 0
M  V30 2687 H 259.114 -1.64283 -3.60315 0
M  V30 2688 H 260.288 -4.08937 -2.12384 0
M  V30 2689 H 258.603 -3.61976 -2.0582 0
M  V30 2690 H 261.2 -2.62792 -4.65665 0
M  V30 2691 H 261.543 -1.0331 -4.03277 0
M  V30 2692 H 262.076 -2.46649 -3.12104 0
M  V30 2693 H 258.815 -5.40632 -3.70671 0
M  V30 2694 H 258.335 -3.91326 -4.54559 0
M  V30 2695 H 260.014 -4.49834 -4.65036 0
M  V30 2696 N 260.146 1.09593 -1.13257 0
M  V30 2697 C 261.557 1.63229 -0.906274 0
M  V30 2698 C 261.908 1.8811 0.557578 0
M  V30 2699 O 261.033 1.62953 1.42391 0
M  V30 2700 C 261.628 2.96535 -1.63867 0
M  V30 2701 C 260.187 3.47003 -1.45828 0
M  V30 2702 C 259.334 2.2145 -1.66898 0
M  V30 2703 H 262.285 0.92978 -1.28611 0
M  V30 2704 H 262.306 3.64411 -1.09476 0
M  V30 2705 H 261.818 2.78394 -2.70404 0
M  V30 2706 H 259.919 3.70272 -0.415848 0
M  V30 2707 H 260.032 4.24551 -2.2202 0
M  V30 2708 H 258.396 2.30022 -1.09371 0
M  V30 2709 H 259.179 2.0583 -2.74752 0
M  V30 2710 N 261.624 0.925811 1.2754 0
M  V30 2711 C 262.872 0.564138 1.94067 0
M  V30 2712 C 263.193 -0.897188 1.73134 0
M  V30 2713 O 262.463 -1.63573 1.07799 0
M  V30 2714 H 261.043 0.205645 0.718136 0
M  V30 2715 H 263.705 1.1778 1.55287 0
M  V30 2716 H 262.801 0.76881 3.02483 0
M  V30 2717 N 263.102 -1.41638 0.69111 0
M  V30 2718 C 264.379 -1.95036 0.148421 0
M  V30 2719 C 264.759 -1.63072 -1.34055 0
M  V30 2720 O 264.107 -0.93538 -2.08478 0
M  V30 2721 C 264.317 -3.46279 0.434951 0
M  V30 2722 C 265.665 -4.23069 0.360275 0
M  V30 2723 O 266.689 -3.54277 0.369613 0
M  V30 2724 O 265.548 -5.45583 0.316534 0
M  V30 2725 H 262.642 -0.826908 0.0123654 0
M  V30 2726 H 265.188 -1.5138 0.766963 0
M  V30 2727 H 263.96 -3.6281 1.46576 0
M  V30 2728 H 263.583 -3.97019 -0.214787 0
M  V30 2729 N 264.58 -0.43555 -1.51462 0
M  V30 2730 C 265.991 0.0279871 -1.86679 0
M  V30 2731 C 266.342 1.42104 -1.35281 0
M  V30 2732 O 265.467 2.04667 -0.702878 0
M  V30 2733 C 266.062 0.0575626 -3.38751 0
M  V30 2734 C 264.621 0.465507 -3.7351 0
M  V30 2735 C 263.768 -0.342996 -2.75171 0
M  V30 2736 H 266.719 -0.651473 -1.44712 0
M  V30 2737 H 266.74 0.867421 -3.70481 0
M  V30 2738 H 266.252 -0.956448 -3.7613 0
M  V30 2739 H 264.353 1.48519 -3.41721 0
M  V30 2740 H 264.466 0.191546 -4.78717 0
M  V30 2741 H 262.83 0.198442 -2.53926 0
M  V30 2742 H 263.613 -1.35585 -3.15391 0
M  V30 2743 N 266.058 1.56714 -0.166846 0
M  V30 2744 C 267.474 1.58473 0.189372 0
M  V30 2745 C 267.674 1.18201 1.63189 0
M  V30 2746 O 266.73 0.891528 2.36237 0
M  V30 2747 C 268.043 3.00573 -0.0873872 0
M  V30 2748 C 269.591 3.1299 -0.0252443 0
M  V30 2749 C 270.066 4.57174 -0.274934 0
M  V30 2750 N 271.557 4.62665 -0.222553 0
M  V30 2751 C 272.292 5.72072 -0.389985 0
M  V30 2752 N 271.788 6.90054 -0.616229 0
M  V30 2753 N 273.581 5.61153 -0.326202 0
M  V30 2754 H 265.732 1.8118 -1.10849 0
M  V30 2755 H 267.995 0.839525 -0.440342 0
M  V30 2756 H 267.701 3.34497 -1.0865 0
M  V30 2757 H 267.575 3.72019 0.623037 0
M  V30 2758 H 269.962 2.78895 0.96444 0
M  V30 2759 H 270.043 2.43989 -0.768309 0
M  V30 2760 H 269.687 4.91976 -1.26181 0
M  V30 2761 H 269.617 5.24328 0.48869 0
M  V30 2762 H 272.108 3.77863 -0.0531512 0
M  V30 2763 H 272.421 7.69311 -0.733559 0
M  V30 2764 H 270.766 6.91927 -0.652791 0
M  V30 2765 H 273.957 4.67859 -0.150072 0
M  V30 2766 H 274.13 6.46364 -0.460116 0
M  V30 2767 N 267.536 -0.106894 1.57237 0
M  V30 2768 C 268.813 -0.843526 1.76477 0
M  V30 2769 C 269.193 -1.97499 0.745464 0
M  V30 2770 O 268.541 -2.27357 -0.228306 0
M  V30 2771 C 268.751 -1.34903 3.21873 0
M  V30 2772 C 270.099 -1.79654 3.8472 0
M  V30 2773 O 271.123 -1.44554 3.2555 0
M  V30 2774 O 269.982 -2.44515 4.88748 0
M  V30 2775 H 267.076 -0.401468 0.723016 0
M  V30 2776 H 269.622 -0.0896927 1.69463 0
M  V30 2777 H 268.394 -0.53781 3.87586 0
M  V30 2778 H 268.017 -2.16522 3.33473 0
M  V30 2779 N 269.014 -1.53014 -0.377408 0
M  V30 2780 C 270.242 -1.72515 -1.14219 0
M  V30 2781 C 270.657 -0.448735 -1.8339 0
M  V30 2782 O 270.014 0.577592 -1.73119 0
M  V30 2783 C 270.065 -2.8826 -2.18148 0
M  V30 2784 O 269.786 -4.10962 -1.51795 0
M  V30 2785 C 271.287 -3.19536 -3.07264 0
M  V30 2786 H 268.507 -0.577301 -0.342001 0
M  V30 2787 H 271.051 -1.99712 -0.439935 0
M  V30 2788 H 269.206 -2.63492 -2.83991 0
M  V30 2789 H 269.62 -4.75693 -2.20945 0
M  V30 2790 H 271.094 -4.03959 -3.76193 0
M  V30 2791 H 271.571 -2.34403 -3.71419 0
M  V30 2792 H 272.177 -3.46186 -2.47053 0
M  V30 2793 N 270.492 0.636531 -1.44174 0
M  V30 2794 C 271.72 1.42353 -1.50144 0
M  V30 2795 C 272.135 1.88389 -0.124575 0
M  V30 2796 O 271.492 1.6051 0.868489 0
M  V30 2797 C 271.543 2.64744 -2.46156 0
M  V30 2798 O 271.264 2.20629 -3.7849 0
M  V30 2799 C 272.765 3.57929 -2.61537 0
M  V30 2800 H 269.985 0.436752 -0.5094 0
M  V30 2801 H 272.529 0.778933 -1.89084 0
M  V30 2802 H 270.684 3.25307 -2.10366 0
M  V30 2803 H 271.098 2.99938 -4.30276 0
M  V30 2804 H 272.572 4.40428 -3.32757 0
M  V30 2805 H 273.049 4.06382 -1.66585 0
M  V30 2806 H 273.655 3.03238 -2.98206 0
M  V30 2807 N 271.97 1.30982 0.876444 0
M  V30 2808 C 273.198 1.23242 1.6619 0
M  V30 2809 C 273.613 -0.203345 1.87702 0
M  V30 2810 O 272.97 -1.13317 1.43057 0
M  V30 2811 C 273.021 1.96623 3.03351 0
M  V30 2812 O 272.742 3.34594 2.82804 0
M  V30 2813 C 274.243 1.95644 3.97792 0
M  V30 2814 H 271.463 0.426126 0.518322 0
M  V30 2815 H 274.007 1.7275 1.09442 0
M  V30 2816 H 272.162 1.50892 3.56806 0
M  V30 2817 H 272.576 3.71873 3.69879 0
M  V30 2818 H 274.05 2.51511 4.91372 0
M  V30 2819 H 274.527 0.937395 4.2908 0
M  V30 2820 H 275.133 2.41225 3.50272 0
M  V30 2821 N 273.449 -1.08991 1.13837 0
M  V30 2822 C 274.86 -1.62746 0.914917 0
M  V30 2823 C 275.211 -1.88403 -0.547594 0
M  V30 2824 O 274.336 -1.63706 -1.41525 0
M  V30 2825 C 274.931 -2.95662 1.65437 0
M  V30 2826 C 273.49 -3.46225 1.47666 0
M  V30 2827 C 272.637 -2.20562 1.6807 0
M  V30 2828 H 275.588 -0.922946 1.29102 0
M  V30 2829 H 275.609 -3.63825 1.11407 0
M  V30 2830 H 275.121 -2.76956 2.71877 0
M  V30 2831 H 273.222 -3.70046 0.435478 0
M  V30 2832 H 273.335 -4.23368 2.24268 0
M  V30 2833 H 271.699 -2.29439 1.10589 0
M  V30 2834 H 272.482 -2.0437 2.7584 0
M  V30 2835 N 274.927 -0.932562 -1.27047 0
M  V30 2836 C 275.857 -0.452902 -2.29066 0
M  V30 2837 C 276.838 0.489338 -1.62909 0
M  V30 2838 O 278.023 0.393046 -1.90181 0
M  V30 2839 C 275.153 0.290698 -3.46081 0
M  V30 2840 C 274.107 -0.564168 -4.24265 0
M  V30 2841 C 273.433 0.308886 -5.33807 0
M  V30 2842 C 274.733 -1.83112 -4.89149 0
M  V30 2843 H 276.427 -1.30552 -2.69437 0
M  V30 2844 H 273.973 -0.629201 -1.29526 0
M  V30 2845 H 275.926 0.637233 -4.16554 0
M  V30 2846 H 274.65 1.17738 -3.0464 0
M  V30 2847 H 273.309 -0.893477 -3.55545 0
M  V30 2848 H 272.957 1.19467 -4.88607 0
M  V30 2849 H 272.657 -0.259633 -5.87026 0
M  V30 2850 H 274.181 0.650884 -6.07121 0
M  V30 2851 H 275.595 -1.55236 -5.51883 0
M  V30 2852 H 273.992 -2.34353 -5.52448 0
M  V30 2853 H 275.062 -2.54772 -4.12576 0
M  V30 2854 N 276.405 1.4127 -0.698611 0
M  V30 2855 C 277.368 2.29158 -0.044132 0
M  V30 2856 C 278.368 1.44529 0.704841 0
M  V30 2857 O 279.558 1.65643 0.539276 0
M  V30 2858 C 276.69 3.27459 0.947809 0
M  V30 2859 H 277.883 2.88529 -0.817994 0
M  V30 2860 H 275.436 1.49307 -0.46228 0
M  V30 2861 H 276.171 2.73073 1.74933 0
M  V30 2862 H 275.956 3.8991 0.41385 0
M  V30 2863 H 277.446 3.93311 1.40344 0
M  V30 2864 N 277.883 0.443576 1.51229 0
M  V30 2865 C 278.816 -0.410089 2.24485 0
M  V30 2866 C 279.794 -1.01949 1.26669 0
M  V30 2867 O 280.978 -1.06075 1.55821 0
M  V30 2868 C 278.105 -1.57211 3.00004 0
M  V30 2869 C 277.151 -1.08279 4.12526 0
M  V30 2870 S 277.984 -0.0197476 5.35496 0
M  V30 2871 C 279.14 -1.18629 6.14555 0
M  V30 2872 H 279.373 0.211832 2.96544 0
M  V30 2873 H 276.906 0.228156 1.52705 0
M  V30 2874 H 278.864 -2.23825 3.44111 0
M  V30 2875 H 277.525 -2.16547 2.27522 0
M  V30 2876 H 276.718 -1.95193 4.64667 0
M  V30 2877 H 276.32 -0.494797 3.70713 0
M  V30 2878 H 278.612 -2.10344 6.4402 0
M  V30 2879 H 279.555 -0.70472 7.04584 0
M  V30 2880 H 279.963 -1.42768 5.46148 0
M  V30 2881 N 279.361 -1.56624 0.175154 0
M  V30 2882 C 280.324 -2.16934 -0.739738 0
M  V30 2883 C 281.324 -1.11842 -1.15533 0
M  V30 2884 O 282.514 -1.37335 -1.07167 0
M  V30 2885 C 279.646 -2.75531 -2.00738 0
M  V30 2886 H 280.839 -2.99131 -0.214639 0
M  V30 2887 H 278.392 -1.56123 -0.0744197 0
M  V30 2888 H 279.127 -1.97078 -2.57548 0
M  V30 2889 H 278.912 -3.52444 -1.71831 0
M  V30 2890 H 280.402 -3.21904 -2.66021 0
M  V30 2891 N 280.839 0.0985539 -1.57292 0
M  V30 2892 C 281.771 1.14595 -1.98496 0
M  V30 2893 C 282.784 1.36512 -0.887031 0
M  V30 2894 O 283.973 1.35225 -1.16518 0
M  V30 2895 C 281.073 2.50216 -2.28572 0
M  V30 2896 C 280.246 2.48624 -3.59868 0
M  V30 2897 C 279.305 3.66146 -3.7792 0
M  V30 2898 O 278.331 3.48795 -4.49812 0
M  V30 2899 N 279.533 4.85496 -3.18235 0
M  V30 2900 H 282.298 0.795277 -2.88956 0
M  V30 2901 H 279.859 0.287579 -1.59325 0
M  V30 2902 H 281.851 3.27432 -2.37845 0
M  V30 2903 H 280.421 2.77387 -1.44136 0
M  V30 2904 H 279.641 1.56978 -3.61596 0
M  V30 2905 H 280.929 2.44635 -4.46129 0
M  V30 2906 H 280.327 5.02497 -2.59833 0
M  V30 2907 H 278.884 5.60317 -3.32999 0
M  V30 2908 N 282.317 1.53212 0.369288 0
M  V30 2909 C 283.545 1.73119 1.13303 0
M  V30 2910 C 283.96 0.458455 1.83149 0
M  V30 2911 O 283.317 -0.568403 1.73423 0
M  V30 2912 C 283.368 2.89413 2.16616 0
M  V30 2913 O 283.089 4.11761 1.49614 0
M  V30 2914 C 284.59 3.21161 3.05566 0
M  V30 2915 H 281.81 0.579107 0.338934 0
M  V30 2916 H 284.354 1.99942 0.429338 0
M  V30 2917 H 282.509 2.64994 2.82589 0
M  V30 2918 H 282.923 4.76858 2.18419 0
M  V30 2919 H 284.397 4.05949 3.74045 0
M  V30 2920 H 284.874 2.36369 3.70171 0
M  V30 2921 H 285.48 3.47492 2.45213 0
M  V30 2922 N 283.795 -0.628877 1.44509 0
M  V30 2923 C 284.725 -1.75187 1.54376 0
M  V30 2924 C 285.706 -1.65411 0.396618 0
M  V30 2925 O 286.891 -1.84137 0.617031 0
M  V30 2926 C 284.021 -3.13725 1.48976 0
M  V30 2927 C 282.975 -3.38291 2.62189 0
M  V30 2928 C 282.301 -4.76883 2.41841 0
M  V30 2929 C 283.601 -3.30632 4.04326 0
M  V30 2930 H 285.295 -1.67187 2.48373 0
M  V30 2931 H 282.841 -0.802909 1.19538 0
M  V30 2932 H 284.794 -3.92064 1.54478 0
M  V30 2933 H 283.518 -3.22515 0.514961 0
M  V30 2934 H 282.177 -2.62334 2.56079 0
M  V30 2935 H 281.825 -4.82378 1.42548 0
M  V30 2936 H 281.525 -4.94278 3.17747 0
M  V30 2937 H 283.049 -5.57449 2.49165 0
M  V30 2938 H 284.463 -3.98873 4.11793 0
M  V30 2939 H 282.86 -3.59561 4.80454 0
M  V30 2940 H 283.93 -2.28404 4.27738 0
M  V30 2941 N 285.273 -1.31445 -0.869486 0
M  V30 2942 C 286.22 -1.19135 -1.97675 0
M  V30 2943 C 287.19 -0.0770266 -1.65921 0
M  V30 2944 O 288.375 -0.249972 -1.89155 0
M  V30 2945 C 285.515 -0.905149 -3.33018 0
M  V30 2946 C 284.628 -2.10285 -3.77365 0
M  V30 2947 C 283.763 -1.75339 -5.01427 0
M  V30 2948 C 282.802 -2.91515 -5.38224 0
M  V30 2949 N 281.939 -2.56762 -6.53466 0
M  V30 2950 H 286.779 -2.13853 -2.07535 0
M  V30 2951 H 284.316 -1.06379 -1.01597 0
M  V30 2952 H 286.274 -0.719765 -4.10944 0
M  V30 2953 H 284.904 0.00519624 -3.228 0
M  V30 2954 H 283.956 -2.39899 -2.95216 0
M  V30 2955 H 285.268 -2.97237 -4.00564 0
M  V30 2956 H 284.422 -1.53266 -5.87022 0
M  V30 2957 H 283.161 -0.855801 -4.80133 0
M  V30 2958 H 282.166 -3.14237 -4.51149 0
M  V30 2959 H 283.391 -3.81985 -5.61484 0
M  V30 2960 H 281.337 -1.69526 -6.33717 0
M  V30 2961 H 281.254 -3.37243 -6.76612 0
M  V30 2962 H 282.522 -2.38083 -7.42251 0
M  V30 2963 N 286.751 1.08385 -1.14413 0
M  V30 2964 C 287.699 2.17406 -0.826888 0
M  V30 2965 C 288.693 1.6827 0.195312 0
M  V30 2966 O 289.899 1.79927 0.0513892 0
M  V30 2967 H 286.274 0.70934 -0.249681 0
M  V30 2968 H 288.245 2.41388 -1.75426 0
M  V30 2969 C 286.994 3.46215 -0.320979 0
M  V30 2970 H 286.317 3.84401 -1.0989 0
M  V30 2971 H 287.757 4.23777 -0.137549 0
M  V30 2972 C 286.216 3.23067 0.955472 0
M  V30 2973 O 286.746 3.4668 2.02918 0
M  V30 2974 N 284.952 2.7661 0.890798 0
M  V30 2975 H 284.499 2.57594 0.0168815 0
M  V30 2976 H 284.457 2.61501 1.74542 0
M  V30 2977 N 288.23 0.939286 1.26551 0
M  V30 2978 C 289.16 0.465044 2.28822 0
M  V30 2979 C 290.141 -0.480692 1.63167 0
M  V30 2980 O 291.326 -0.382955 1.90387 0
M  V30 2981 C 288.456 -0.27234 3.46231 0
M  V30 2982 C 287.41 0.58666 4.2396 0
M  V30 2983 C 286.736 -0.280573 5.33963 0
M  V30 2984 C 288.036 1.85704 4.88171 0
M  V30 2985 H 289.73 1.31979 2.68741 0
M  V30 2986 H 287.276 0.636061 1.29191 0
M  V30 2987 H 289.229 -0.615133 4.16886 0
M  V30 2988 H 287.953 -1.16121 3.0526 0
M  V30 2989 H 286.612 0.91232 3.55067 0
M  V30 2990 H 286.26 -1.16874 4.89234 0
M  V30 2991 H 285.96 0.29076 5.8688 0
M  V30 2992 H 287.484 -0.618678 6.07458 0
M  V30 2993 H 288.898 1.58161 5.51052 0
M  V30 2994 H 287.295 2.37279 5.51197 0
M  V30 2995 H 288.365 2.56957 4.11219 0
M  V30 2996 N 289.708 -1.40897 0.706093 0
M  V30 2997 C 290.936 -2.05373 0.250887 0
M  V30 2998 C 291.351 -1.53172 -1.10381 0
M  V30 2999 O 290.708 -0.684305 -1.69185 0
M  V30 3000 C 290.759 -3.6088 0.211571 0
M  V30 3001 O 290.48 -4.11153 1.51276 0
M  V30 3002 C 291.981 -4.42517 -0.263346 0
M  V30 3003 H 289.201 -0.66115 0.114552 0
M  V30 3004 H 291.745 -1.80479 0.961635 0
M  V30 3005 H 289.9 -3.84777 -0.450073 0
M  V30 3006 H 290.314 -5.05279 1.40689 0
M  V30 3007 H 291.788 -5.51479 -0.239718 0
M  V30 3008 H 292.265 -4.19396 -1.30397 0
M  V30 3009 H 292.871 -4.23708 0.367677 0
M  V30 3010 N 291.186 -0.45159 -1.50991 0
M  V30 3011 C 292.116 0.342898 -2.30969 0
M  V30 3012 C 293.097 1.00815 -1.37005 0
M  V30 3013 O 294.282 1.00907 -1.65926 0
M  V30 3014 C 291.412 1.43637 -3.16205 0
M  V30 3015 C 290.366 0.893818 -4.18563 0
M  V30 3016 C 289.692 2.08411 -4.92411 0
M  V30 3017 C 290.992 -0.0815568 -5.22236 0
M  V30 3018 H 292.686 -0.324556 -2.97636 0
M  V30 3019 H 290.232 -0.157531 -1.43136 0
M  V30 3020 H 292.185 1.9995 -3.70942 0
M  V30 3021 H 290.909 2.13232 -2.47386 0
M  V30 3022 H 289.568 0.352798 -3.64898 0
M  V30 3023 H 289.216 2.76658 -4.20082 0
M  V30 3024 H 288.916 1.72741 -5.61636 0
M  V30 3025 H 290.44 2.65251 -5.49976 0
M  V30 3026 H 291.854 0.391742 -5.7196 0
M  V30 3027 H 290.251 -0.351551 -5.99069 0
M  V30 3028 H 291.321 -1.01374 -4.74185 0
M  V30 3029 N 292.664 1.56529 -0.183458 0
M  V30 3030 C 293.912 1.96855 0.457452 0
M  V30 3031 C 294.233 1.07104 1.62953 0
M  V30 3032 O 293.503 0.139887 1.954 0
M  V30 3033 H 292.083 0.72693 0.171992 0
M  V30 3034 H 294.745 1.93056 -0.267476 0
M  V30 3035 H 293.841 3.01423 0.809368 0
M  V30 3036 N 294.142 -0.090211 1.57342 0
M  V30 3037 C 295.089 -1.10909 2.02405 0
M  V30 3038 C 296.059 -1.39523 0.901252 0
M  V30 3039 O 297.244 -1.50903 1.1676 0
M  V30 3040 C 294.384 -2.42277 2.45755 0
M  V30 3041 C 293.497 -2.20352 3.71576 0
M  V30 3042 C 292.632 -3.45154 4.03785 0
M  V30 3043 C 291.671 -3.18512 5.22701 0
M  V30 3044 N 290.808 -4.35593 5.50639 0
M  V30 3045 H 295.648 -0.71782 2.89225 0
M  V30 3046 H 293.185 -0.342901 1.43048 0
M  V30 3047 H 295.143 -3.18951 2.68935 0
M  V30 3048 H 293.773 -2.79242 1.61938 0
M  V30 3049 H 292.825 -1.34458 3.55844 0
M  V30 3050 H 294.137 -1.96661 4.58395 0
M  V30 3051 H 293.291 -4.30233 4.27767 0
M  V30 3052 H 292.03 -3.71904 3.15498 0
M  V30 3053 H 291.035 -2.31827 4.98534 0
M  V30 3054 H 292.26 -2.93103 6.12591 0
M  V30 3055 H 290.206 -4.6241 4.6531 0
M  V30 3056 H 290.123 -4.1511 6.31838 0
M  V30 3057 H 291.391 -5.21723 5.7916 0
M  V30 3058 N 295.62 -1.53406 -0.361157 0
M  V30 3059 C 296.583 -1.79479 -1.42548 0
M  V30 3060 C 297.583 -0.665327 -1.4639 0
M  V30 3061 O 298.773 -0.933549 -1.47073 0
M  V30 3062 C 295.905 -1.92087 -2.8163 0
M  V30 3063 H 297.098 -2.74538 -1.20701 0
M  V30 3064 H 294.651 -1.4455 -0.594546 0
M  V30 3065 H 295.386 -0.991099 -3.08784 0
M  V30 3066 H 295.171 -2.74241 -2.80239 0
M  V30 3067 H 296.661 -2.13836 -3.58697 0
M  V30 3068 N 297.098 0.621204 -1.44841 0
M  V30 3069 C 298.028 1.74366 -1.55303 0
M  V30 3070 C 299.009 1.65199 -0.405385 0
M  V30 3071 O 300.194 1.83807 -0.626787 0
M  V30 3072 C 297.324 3.12931 -1.50637 0
M  V30 3073 C 296.278 3.36896 -2.63979 0
M  V30 3074 C 295.604 4.75594 -2.44366 0
M  V30 3075 C 296.904 3.28483 -4.06074 0
M  V30 3076 H 298.598 1.65867 -2.49256 0
M  V30 3077 H 296.144 0.796558 -1.19962 0
M  V30 3078 H 298.097 3.9124 -1.56555 0
M  V30 3079 H 296.821 3.22237 -0.532057 0
M  V30 3080 H 295.48 2.60972 -2.57467 0
M  V30 3081 H 295.128 4.81616 -1.45105 0
M  V30 3082 H 294.828 4.92586 -3.20364 0
M  V30 3083 H 296.352 5.5612 -2.52117 0
M  V30 3084 H 297.766 3.96684 -4.13902 0
M  V30 3085 H 296.163 3.57008 -4.82354 0
M  V30 3086 H 297.233 2.26133 -4.28943 0
M  V30 3087 N 298.576 1.31904 0.862503 0
M  V30 3088 C 299.539 1.20131 1.95195 0
M  V30 3089 C 300.539 0.126409 1.60302 0
M  V30 3090 O 301.729 0.376234 1.70089 0
M  V30 3091 C 298.861 0.845691 3.30244 0
M  V30 3092 H 300.054 2.16943 2.07064 0
M  V30 3093 H 297.607 1.15622 1.05172 0
M  V30 3094 H 298.342 -0.120957 3.24074 0
M  V30 3095 H 298.127 1.62276 3.56944 0
M  V30 3096 H 299.617 0.787418 4.10109 0
M  V30 3097 N 300.054 -1.07777 1.14986 0
M  V30 3098 C 300.964 -2.18404 0.856546 0
M  V30 3099 C 301.98 -1.73211 -0.165485 0
M  V30 3100 O 303.156 -2.01399 0.00755219 0
M  V30 3101 C 300.221 -3.44977 0.34526 0
M  V30 3102 C 299.282 -4.0476 1.43065 0
M  V30 3103 C 298.515 -5.25291 0.943663 0
M  V30 3104 O 298.738 -5.70004 -0.212426 0
M  V30 3105 O 297.672 -5.76638 1.72547 0
M  V30 3106 H 301.498 -2.45978 1.78125 0
M  V30 3107 H 299.083 -1.17033 0.928631 0
M  V30 3108 H 300.965 -4.21348 0.0663671 0
M  V30 3109 H 299.64 -3.18965 -0.551631 0
M  V30 3110 H 298.547 -3.29949 1.76309 0
M  V30 3111 H 299.88 -4.35035 2.30229 0
M  V30 3112 N 301.532 -0.945985 -1.26051 0
M  V30 3113 C 302.76 -0.613025 -1.9761 0
M  V30 3114 C 303.175 0.813035 -1.70397 0
M  V30 3115 O 302.532 1.54274 -0.974979 0
M  V30 3116 C 302.583 -0.85159 -3.51326 0
M  V30 3117 O 302.304 -2.22157 -3.77595 0
M  V30 3118 C 303.805 -0.529831 -4.40122 0
M  V30 3119 H 301.025 -0.230593 -0.630133 0
M  V30 3120 H 303.569 -1.268 -1.60443 0
M  V30 3121 H 301.724 -0.243151 -3.86636 0
M  V30 3122 H 302.138 -2.2852 -4.721 0
M  V30 3123 H 303.612 -0.747348 -5.46917 0
M  V30 3124 H 304.089 0.535341 -4.35925 0
M  V30 3125 H 304.695 -1.11721 -4.10364 0
M  V30 3126 N 303.011 1.40521 -0.713556 0
M  V30 3127 C 303.943 2.29191 -0.0203126 0
M  V30 3128 C 304.956 1.45723 0.725864 0
M  V30 3129 O 306.145 1.69033 0.573581 0
M  V30 3130 C 303.245 3.2395 0.995486 0
M  V30 3131 C 302.418 4.36262 0.315256 0
M  V30 3132 C 301.477 5.11474 1.23616 0
M  V30 3133 O 300.503 5.64606 0.721719 0
M  V30 3134 N 301.705 5.20638 2.56743 0
M  V30 3135 H 304.47 2.89327 -0.781652 0
M  V30 3136 H 302.031 1.51869 -0.561022 0
M  V30 3137 H 304.023 3.71137 1.61368 0
M  V30 3138 H 302.593 2.64995 1.6582 0
M  V30 3139 H 301.813 3.91228 -0.483106 0
M  V30 3140 H 303.101 5.08558 -0.157004 0
M  V30 3141 H 302.499 4.7895 3.01037 0
M  V30 3142 H 301.056 5.71339 3.13712 0
M  V30 3143 N 304.489 0.459591 1.5075 0
M  V30 3144 C 305.905 0.113092 1.59199 0
M  V30 3145 C 306.105 -1.37951 1.46874 0
M  V30 3146 O 305.161 -2.15168 1.32132 0
M  V30 3147 C 306.474 0.653043 2.93523 0
M  V30 3148 C 308.022 0.615449 3.0689 0
M  V30 3149 C 308.497 1.13275 4.43771 0
M  V30 3150 N 309.988 1.09167 4.50152 0
M  V30 3151 C 310.723 1.46256 5.54434 0
M  V30 3152 N 310.219 1.90739 6.66026 0
M  V30 3153 N 312.012 1.37932 5.44914 0
M  V30 3154 H 304.163 1.43049 1.57005 0
M  V30 3155 H 306.426 0.590861 0.741341 0
M  V30 3156 H 306.132 1.69822 3.07983 0
M  V30 3157 H 306.006 0.0902132 3.77092 0
M  V30 3158 H 308.393 -0.420793 2.92084 0
M  V30 3159 H 308.474 1.21495 2.25106 0
M  V30 3160 H 308.118 2.16757 4.59324 0
M  V30 3161 H 308.048 0.509576 5.24129 0
M  V30 3162 H 310.539 0.76528 3.7007 0
M  V30 3163 H 310.852 2.17218 7.41644 0
M  V30 3164 H 309.197 1.94683 6.67176 0
M  V30 3165 H 312.388 1.0303 4.56621 0
M  V30 3166 H 312.561 1.67164 6.26067 0
M  V30 3167 N 305.967 -1.56429 0.191757 0
M  V30 3168 C 306.93 -2.17707 -0.716688 0
M  V30 3169 C 307.93 -1.13061 -1.14341 0
M  V30 3170 O 309.12 -1.38464 -1.05704 0
M  V30 3171 C 306.252 -2.77644 -1.97804 0
M  V30 3172 H 307.445 -2.99342 -0.1829 0
M  V30 3173 H 304.998 -1.56193 -0.0578566 0
M  V30 3174 H 305.733 -1.99799 -2.55443 0
M  V30 3175 H 305.518 -3.54246 -1.68083 0
M  V30 3176 H 307.008 -3.24708 -2.62592 0
M  V30 3177 N 307.445 0.0818655 -1.57387 0
M  V30 3178 C 308.377 1.12484 -1.997 0
M  V30 3179 C 309.39 1.35564 -0.90146 0
M  V30 3180 O 310.579 1.33982 -1.17945 0
M  V30 3181 C 307.679 2.47778 -2.31213 0
M  V30 3182 C 306.852 2.44793 -3.62485 0
M  V30 3183 C 305.911 3.62117 -3.81782 0
M  V30 3184 O 304.937 3.44005 -4.53486 0
M  V30 3185 N 306.139 4.82094 -3.23367 0
M  V30 3186 H 308.904 0.764585 -2.89783 0
M  V30 3187 H 306.465 0.270664 -1.59621 0
M  V30 3188 H 308.457 3.24891 -2.41304 0
M  V30 3189 H 307.027 2.75843 -1.4707 0
M  V30 3190 H 306.247 1.53134 -3.6324 0
M  V30 3191 H 307.535 2.39889 -4.48699 0
M  V30 3192 H 306.933 4.99713 -2.65148 0
M  V30 3193 H 305.49 5.56753 -3.38923 0
M  V30 3194 N 308.923 1.53595 0.353017 0
M  V30 3195 C 309.853 1.83902 1.43883 0
M  V30 3196 C 310.834 0.693421 1.55324 0
M  V30 3197 O 312.019 0.944452 1.69687 0
M  V30 3198 C 309.149 2.04016 2.8106 0
M  V30 3199 C 308.103 3.19814 2.84434 0
M  V30 3200 C 307.429 3.25244 4.24406 0
M  V30 3201 C 308.729 4.58133 2.50822 0
M  V30 3202 H 310.423 2.74835 1.1877 0
M  V30 3203 H 307.969 1.32242 0.569917 0
M  V30 3204 H 309.922 2.238 3.57059 0
M  V30 3205 H 308.646 1.09804 3.07588 0
M  V30 3206 H 307.305 2.9987 2.10887 0
M  V30 3207 H 306.953 2.28646 4.48029 0
M  V30 3208 H 306.653 4.03054 4.27576 0
M  V30 3209 H 308.177 3.47228 5.0226 0
M  V30 3210 H 309.591 4.77995 3.16534 0
M  V30 3211 H 307.988 5.38276 2.6529 0
M  V30 3212 H 309.058 4.62387 1.46034 0
M  V30 3213 N 310.401 -0.613514 1.45168 0
M  V30 3214 C 311.647 -1.37471 1.49096 0
M  V30 3215 C 311.98 -1.93765 0.129901 0
M  V30 3216 O 311.255 -1.74707 -0.854858 0
M  V30 3217 C 311.538 -2.52701 2.56542 0
M  V30 3218 C 311.391 -2.01643 4.0207 0
M  V30 3219 C 312.71 -3.54849 2.60327 0
M  V30 3220 H 309.829 -0.498502 0.54283 0
M  V30 3221 H 312.471 -0.692125 1.76945 0
M  V30 3222 H 310.621 -3.10931 2.32926 0
M  V30 3223 H 312.293 -1.48108 4.36877 0
M  V30 3224 H 310.536 -1.32688 4.13009 0
M  V30 3225 H 311.207 -2.84681 4.72928 0
M  V30 3226 H 313.683 -3.0645 2.81474 0
M  V30 3227 H 312.559 -4.32973 3.37381 0
M  V30 3228 H 312.82 -4.10079 1.6519 0
M  V30 3229 N 311.879 -1.3236 -0.855495 0
M  V30 3230 C 313.107 -1.2587 -1.64208 0
M  V30 3231 C 313.522 0.173457 -1.88002 0
M  V30 3232 O 312.879 1.11027 -1.44842 0
M  V30 3233 C 312.93 -2.01424 -3.00184 0
M  V30 3234 O 312.651 -3.39051 -2.77445 0
M  V30 3235 C 314.152 -2.01948 -3.94629 0
M  V30 3236 H 311.372 -0.434318 -0.511477 0
M  V30 3237 H 313.916 -1.74469 -1.0668 0
M  V30 3238 H 312.071 -1.56549 -3.5436 0
M  V30 3239 H 312.485 -3.77711 -3.63916 0
M  V30 3240 H 313.959 -2.59297 -4.87308 0
M  V30 3241 H 314.436 -1.00554 -4.27534 0
M  V30 3242 H 315.042 -2.46767 -3.4639 0
M  V30 3243 N 313.357 1.07166 -1.15556 0
M  V30 3244 C 314.603 1.80222 -0.942961 0
M  V30 3245 C 314.958 1.85121 0.524209 0
M  V30 3246 O 314.251 1.32531 1.38369 0
M  V30 3247 C 314.445 3.24707 -1.49332 0
M  V30 3248 C 314.274 3.33887 -3.01247 0
M  V30 3249 C 313.044 3.44337 -3.69811 0
M  V30 3250 C 315.242 3.24484 -3.99017 0
M  V30 3251 N 313.224 3.42439 -5.09518 0
M  V30 3252 C 314.595 3.29726 -5.25053 0
M  V30 3253 C 316.65 3.08307 -3.90962 0
M  V30 3254 C 315.353 3.20455 -6.43973 0
M  V30 3255 C 317.379 3.00371 -5.09442 0
M  V30 3256 C 316.741 3.06227 -6.34354 0
M  V30 3257 H 312.84 0.672709 -0.398731 0
M  V30 3258 H 315.424 1.27905 -1.46794 0
M  V30 3259 H 313.595 3.7544 -0.994946 0
M  V30 3260 H 315.327 3.85894 -1.21935 0
M  V30 3261 H 312.082 3.48762 -3.20409 0
M  V30 3262 H 312.506 3.45013 -5.8249 0
M  V30 3263 H 317.148 3.02633 -2.95251 0
M  V30 3264 H 314.866 3.24888 -7.39914 0
M  V30 3265 H 318.452 2.88955 -5.04971 0
M  V30 3266 H 317.332 3.00132 -7.24493 0
M  V30 3267 N 314.835 0.952656 1.25548 0
M  V30 3268 C 315.765 0.489287 2.28316 0
M  V30 3269 C 316.746 -0.463359 1.63667 0
M  V30 3270 O 317.931 -0.36274 1.90782 0
M  V30 3271 C 315.061 -0.235603 3.465 0
M  V30 3272 C 314.015 0.631593 4.23314 0
M  V30 3273 C 313.341 -0.223923 5.34231 0
M  V30 3274 C 314.641 1.90871 4.86174 0
M  V30 3275 H 316.335 1.34822 2.67326 0
M  V30 3276 H 313.881 0.649728 1.28509 0
M  V30 3277 H 315.834 -0.570882 4.17515 0
M  V30 3278 H 314.558 -1.12877 3.06474 0
M  V30 3279 H 313.217 0.949929 3.54079 0
M  V30 3280 H 312.865 -1.11678 4.90446 0
M  V30 3281 H 312.565 0.35299 5.86539 0
M  V30 3282 H 314.089 -0.554214 6.0808 0
M  V30 3283 H 315.503 1.63997 5.49343 0
M  V30 3284 H 313.9 2.43112 5.4865 0
M  V30 3285 H 314.97 2.61304 4.08471 0
M  V30 3286 N 316.313 -1.40141 0.720998 0
M  V30 3287 C 317.26 -2.30688 0.071919 0
M  V30 3288 C 318.23 -1.48476 -0.744584 0
M  V30 3289 O 319.415 -1.77201 -0.707423 0
M  V30 3290 C 316.555 -3.34724 -0.839855 0
M  V30 3291 C 315.668 -4.31998 -0.0122438 0
M  V30 3292 C 314.803 -5.23102 -0.923995 0
M  V30 3293 C 313.842 -6.12033 -0.0907969 0
M  V30 3294 N 312.979 -6.95537 -0.957718 0
M  V30 3295 H 317.819 -2.85628 0.849755 0
M  V30 3296 H 315.356 -1.40653 0.430726 0
M  V30 3297 H 317.314 -3.93618 -1.38279 0
M  V30 3298 H 315.944 -2.81274 -1.58381 0
M  V30 3299 H 314.996 -3.74841 0.64794 0
M  V30 3300 H 316.308 -4.94772 0.632595 0
M  V30 3301 H 315.462 -5.86953 -1.53527 0
M  V30 3302 H 314.201 -4.60615 -1.60264 0
M  V30 3303 H 313.206 -5.47207 0.533377 0
M  V30 3304 H 314.431 -6.76581 0.584428 0
M  V30 3305 H 312.377 -6.35633 -1.62192 0
M  V30 3306 H 312.294 -7.55099 -0.36904 0
M  V30 3307 H 313.562 -7.63832 -1.555 0
M  V30 3308 N 317.792 -0.46758 -1.50504 0
M  V30 3309 C 319.04 0.0884469 -2.01906 0
M  V30 3310 C 319.361 1.40532 -1.35188 0
M  V30 3311 O 318.631 1.89515 -0.496079 0
M  V30 3312 H 317.211 0.0356765 -0.746148 0
M  V30 3313 H 319.873 -0.6172 -1.84869 0
M  V30 3314 H 318.969 0.2425 -3.11156 0
M  V30 3315 N 319.27 1.56325 -0.20005 0
M  V30 3316 C 320.218 2.20666 0.735482 0
M  V30 3317 C 321.212 1.17934 1.21605 0
M  V30 3318 O 322.418 1.36068 1.17837 0
M  V30 3319 H 318.793 0.70725 0.255542 0
M  V30 3320 H 320.764 2.9792 0.169166 0
M  V30 3321 C 319.513 2.88391 1.94232 0
M  V30 3322 H 318.836 3.67185 1.58161 0
M  V30 3323 H 320.276 3.3684 2.57517 0
M  V30 3324 C 318.735 1.89692 2.78421 0
M  V30 3325 O 319.265 1.40032 3.76502 0
M  V30 3326 N 317.471 1.57813 2.44015 0
M  V30 3327 H 317.018 1.9839 1.64314 0
M  V30 3328 H 316.976 0.920325 3.00628 0
M  V30 3329 N 320.748 -0.0735177 1.57428 0
M  V30 3330 C 321.976 -0.785969 1.9139 0
M  V30 3331 C 322.391 -1.71207 0.795847 0
M  V30 3332 O 321.748 -1.81033 -0.230915 0
M  V30 3333 C 321.799 -1.58107 3.25091 0
M  V30 3334 O 321.52 -0.6922 4.32597 0
M  V30 3335 C 323.021 -2.39467 3.73055 0
M  V30 3336 H 320.241 -0.223558 0.632663 0
M  V30 3337 H 322.785 -0.044302 2.04452 0
M  V30 3338 H 320.94 -2.27503 3.13562 0
M  V30 3339 H 321.354 -1.24504 5.09508 0
M  V30 3340 H 322.828 -2.90716 4.69242 0
M  V30 3341 H 323.305 -3.18913 3.01979 0
M  V30 3342 H 323.911 -1.7523 3.87523 0
M  V30 3343 N 322.226 -1.5378 -0.344866 0
M  V30 3344 C 323.454 -1.74899 -1.10534 0
M  V30 3345 C 323.869 -0.487534 -1.82397 0
M  V30 3346 O 323.226 0.540741 -1.74305 0
M  V30 3347 C 323.277 -2.92822 -2.11984 0
M  V30 3348 O 322.998 -4.14089 -1.43044 0
M  V30 3349 C 324.499 -3.25982 -3.00417 0
M  V30 3350 H 321.719 -0.584426 -0.329678 0
M  V30 3351 H 324.263 -2.006 -0.397474 0
M  V30 3352 H 322.418 -2.69457 -2.78338 0
M  V30 3353 H 322.832 -4.80272 -2.10805 0
M  V30 3354 H 324.306 -4.11848 -3.67539 0
M  V30 3355 H 324.783 -2.42228 -3.66363 0
M  V30 3356 H 325.389 -3.51349 -2.39654 0
M  V30 3357 N 323.704 0.605807 -1.45491 0
M  V30 3358 C 324.952 1.36207 -1.49305 0
M  V30 3359 C 325.273 1.94519 -0.136863 0
M  V30 3360 O 324.543 1.77261 0.833983 0
M  V30 3361 H 323.123 0.50565 -0.549843 0
M  V30 3362 H 325.785 0.711239 -1.81459 0
M  V30 3363 H 324.881 2.18058 -2.23287 0
M  V30 3364 N 325.182 1.32811 0.848464 0
M  V30 3365 C 326.407 1.26882 1.6406 0
M  V30 3366 C 326.832 -0.15913 1.87426 0
M  V30 3367 O 326.19 -1.11258 1.43148 0
M  V30 3368 C 326.238 2.03997 2.97351 0
M  V30 3369 O 325.342 1.39201 3.88197 0
M  V30 3370 H 324.683 0.436982 0.499943 0
M  V30 3371 H 327.213 1.75224 1.0563 0
M  V30 3372 H 327.223 2.14403 3.47124 0
M  V30 3373 H 325.898 3.0783 2.79666 0
M  V30 3374 H 324.475 1.37381 3.46671 0
M  V30 3375 N 326.66 -1.06551 1.16123 0
M  V30 3376 C 327.623 -2.12132 0.867906 0
M  V30 3377 C 328.623 -1.60224 -0.135944 0
M  V30 3378 O 329.813 -1.73943 0.0946422 0
M  V30 3379 C 326.945 -3.396 0.297419 0
M  V30 3380 H 328.138 -2.39586 1.80385 0
M  V30 3381 H 325.691 -1.22574 0.969812 0
M  V30 3382 H 326.426 -3.17794 -0.64633 0
M  V30 3383 H 326.211 -3.78581 1.02073 0
M  V30 3384 H 327.701 -4.17455 0.110052 0
M  V30 3385 N 328.138 -0.959301 -1.25041 0
M  V30 3386 C 329.363 -0.633507 -1.97488 0
M  V30 3387 C 329.788 0.788555 -1.70773 0
M  V30 3388 O 329.146 1.53394 -0.966431 0
M  V30 3389 C 329.194 -0.904057 -3.49083 0
M  V30 3390 O 328.298 0.0147939 -4.12397 0
M  V30 3391 H 327.639 -0.240368 -0.618966 0
M  V30 3392 H 330.169 -1.28717 -1.59038 0
M  V30 3393 H 330.179 -0.832203 -3.99423 0
M  V30 3394 H 328.854 -1.94048 -3.67856 0
M  V30 3395 H 327.431 -0.109664 -3.72739 0
M  V30 3396 N 329.616 1.39756 -0.72842 0
M  V30 3397 C 330.865 1.99879 -0.270407 0
M  V30 3398 C 331.178 1.58449 1.14688 0
M  V30 3399 O 332.384 2.11362 1.70407 0
M  V30 3400 C 330.84 3.57292 -0.43252 0
M  V30 3401 C 330.448 4.07688 -1.85727 0
M  V30 3402 C 332.192 4.24485 -0.0359507 0
M  V30 3403 C 330.099 5.5765 -1.96928 0
M  V30 3404 H 329.029 0.747689 -0.0973472 0
M  V30 3405 H 331.68 1.59837 -0.901355 0
M  V30 3406 H 330.062 3.95097 0.267219 0
M  V30 3407 H 331.236 3.81231 -2.58843 0
M  V30 3408 H 329.551 3.53135 -2.20646 0
M  V30 3409 H 332.148 5.34609 -0.0987484 0
M  V30 3410 H 332.491 4.03915 1.00787 0
M  V30 3411 H 333.024 3.9183 -0.686604 0
M  V30 3412 H 329.763 5.8309 -2.99476 0
M  V30 3413 H 329.283 5.8593 -1.28241 0
M  V30 3414 H 330.962 6.22957 -1.74737 0
M  V30 3415 N 331.094 0.475555 1.50254 0
M  V30 3416 C 332.51 0.12997 1.5907 0
M  V30 3417 C 332.71 -1.36385 1.48328 0
M  V30 3418 O 331.766 -2.13754 1.34407 0
M  V30 3419 C 333.079 0.684139 2.92814 0
M  V30 3420 C 334.627 0.647965 3.0622 0
M  V30 3421 C 335.102 1.17975 4.42545 0
M  V30 3422 N 336.593 1.13936 4.48969 0
M  V30 3423 C 337.328 1.52129 5.52851 0
M  V30 3424 N 336.824 1.97793 6.63965 0
M  V30 3425 N 338.617 1.43704 5.4342 0
M  V30 3426 H 330.768 1.44706 1.55479 0
M  V30 3427 H 333.031 0.598691 0.735033 0
M  V30 3428 H 332.737 1.73079 3.06164 0
M  V30 3429 H 332.611 0.130204 3.76975 0
M  V30 3430 H 334.998 -0.38979 2.92514 0
M  V30 3431 H 335.079 1.23876 2.23805 0
M  V30 3432 H 334.723 2.21616 4.57 0
M  V30 3433 H 334.653 0.565138 5.23559 0
M  V30 3434 H 337.144 0.804488 3.69238 0
M  V30 3435 H 337.457 2.25072 7.39299 0
M  V30 3436 H 335.802 2.01749 6.65073 0
M  V30 3437 H 338.993 1.07867 4.55502 0
M  V30 3438 H 339.166 1.73794 6.24259 0
M  V30 3439 N 332.573 -1.56217 0.208337 0
M  V30 3440 C 333.536 -2.18455 -0.693557 0
M  V30 3441 C 334.536 -1.14268 -1.13135 0
M  V30 3442 O 335.726 -1.39577 -1.0423 0
M  V30 3443 C 332.858 -2.79727 -1.94848 0
M  V30 3444 H 334.051 -2.99519 -0.15114 0
M  V30 3445 H 331.604 -1.56245 -0.041287 0
M  V30 3446 H 332.339 -2.02497 -2.53309 0
M  V30 3447 H 332.124 -3.56009 -1.64316 0
M  V30 3448 H 333.614 -3.27475 -2.59133 0
M  V30 3449 N 334.051 0.0651679 -1.57465 0
M  V30 3450 C 335.299 0.761555 -1.87202 0
M  V30 3451 C 335.62 1.77778 -0.801243 0
M  V30 3452 O 334.89 1.95166 0.16937 0
M  V30 3453 H 333.47 0.284251 -0.690804 0
M  V30 3454 H 336.132 0.0396827 -1.9486 0
M  V30 3455 H 335.228 1.27365 -2.84929 0
M  V30 3456 N 335.529 1.53961 0.336706 0
M  V30 3457 C 336.459 1.85417 1.41925 0
M  V30 3458 C 337.44 0.709856 1.5458 0
M  V30 3459 O 338.625 0.962396 1.68676 0
M  V30 3460 C 335.755 2.06985 2.78881 0
M  V30 3461 C 334.709 3.22813 2.81026 0
M  V30 3462 C 334.035 3.29727 4.20932 0
M  V30 3463 C 335.335 4.60767 2.45949 0
M  V30 3464 H 337.029 2.76079 1.15848 0
M  V30 3465 H 334.575 1.32839 0.555859 0
M  V30 3466 H 336.528 2.27575 3.54665 0
M  V30 3467 H 335.252 1.13061 3.06406 0
M  V30 3468 H 333.911 3.0209 2.07695 0
M  V30 3469 H 333.559 2.33385 4.45579 0
M  V30 3470 H 333.259 4.07566 4.23277 0
M  V30 3471 H 334.783 3.52536 4.98549 0
M  V30 3472 H 336.197 4.81325 3.11446 0
M  V30 3473 H 334.594 5.4106 2.59566 0
M  V30 3474 H 335.664 4.6391 1.41122 0
M  V30 3475 N 337.007 -0.598083 1.45811 0
M  V30 3476 C 338.418 -1.18011 1.44673 0
M  V30 3477 C 338.769 -1.95378 0.179364 0
M  V30 3478 O 337.894 -2.04124 -0.718509 0
M  V30 3479 C 338.489 -2.14677 2.62105 0
M  V30 3480 C 337.048 -2.68236 2.64057 0
M  V30 3481 C 336.195 -1.43816 2.37091 0
M  V30 3482 H 339.146 -0.38686 1.53913 0
M  V30 3483 H 339.167 -2.97878 2.36746 0
M  V30 3484 H 338.679 -1.5834 3.5433 0
M  V30 3485 H 336.78 -3.28486 1.75864 0
M  V30 3486 H 336.893 -3.12021 3.63566 0
M  V30 3487 H 335.257 -1.731 1.86838 0
M  V30 3488 H 336.04 -0.893333 3.31473 0
M  V30 3489 N 338.485 -1.33259 -0.841409 0
M  V30 3490 C 339.432 -1.23302 -1.95103 0
M  V30 3491 C 340.402 -0.112204 -1.65721 0
M  V30 3492 O 341.587 -0.290038 -1.88583 0
M  V30 3493 C 338.727 -0.975583 -3.31023 0
M  V30 3494 C 337.84 -2.18243 -3.72819 0
M  V30 3495 C 336.975 -1.85936 -4.97595 0
M  V30 3496 C 336.014 -3.02866 -5.3192 0
M  V30 3497 N 335.151 -2.70565 -6.47873 0
M  V30 3498 H 339.991 -2.18207 -2.02952 0
M  V30 3499 H 337.528 -1.0851 -0.993173 0
M  V30 3500 H 339.486 -0.80677 -4.09325 0
M  V30 3501 H 338.116 -0.0632755 -3.22738 0
M  V30 3502 H 337.168 -2.46107 -2.90061 0
M  V30 3503 H 338.48 -3.05666 -3.94169 0
M  V30 3504 H 337.634 -1.65684 -5.83638 0
M  V30 3505 H 336.373 -0.957452 -4.78209 0
M  V30 3506 H 335.378 -3.23736 -4.44382 0
M  V30 3507 H 336.603 -3.93809 -5.53255 0
M  V30 3508 H 334.549 -1.8293 -6.29978 0
M  V30 3509 H 334.466 -3.51519 -6.69306 0
M  V30 3510 H 335.734 -2.53774 -7.37034 0
M  V30 3511 N 339.963 1.05934 -1.16686 0
M  V30 3512 C 341.188 1.83029 -0.975455 0
M  V30 3513 C 341.613 1.82096 0.471452 0
M  V30 3514 O 340.971 1.22443 1.33706 0
M  V30 3515 C 341.019 3.27372 -1.51195 0
M  V30 3516 O 340.123 4.06054 -0.720701 0
M  V30 3517 H 339.464 0.566194 -0.346872 0
M  V30 3518 H 341.994 1.33541 -1.55009 0
M  V30 3519 H 342.004 3.78186 -1.53099 0
M  V30 3520 H 340.679 3.27366 -2.56523 0
M  V30 3521 H 339.256 3.64812 -0.772458 0
M  V30 3522 N 341.441 0.965919 1.2453 0
M  V30 3523 C 342.687 0.637349 1.93156 0
M  V30 3524 C 343.042 -0.818261 1.74133 0
M  V30 3525 O 342.335 -1.58079 1.08266 0
M  V30 3526 C 342.529 0.945428 3.44669 0
M  V30 3527 C 342.358 2.42944 3.78429 0
M  V30 3528 C 341.128 3.08895 3.9989 0
M  V30 3529 C 343.326 3.40941 3.8505 0
M  V30 3530 N 341.308 4.47052 4.20735 0
M  V30 3531 C 342.679 4.64448 4.10717 0
M  V30 3532 C 344.734 3.35624 3.67779 0
M  V30 3533 C 343.437 5.83292 4.20907 0
M  V30 3534 C 345.463 4.53818 3.79214 0
M  V30 3535 C 344.825 5.76114 4.05304 0
M  V30 3536 H 340.924 0.284034 0.728594 0
M  V30 3537 H 343.508 1.24041 1.50073 0
M  V30 3538 H 341.679 0.371193 3.86622 0
M  V30 3539 H 343.411 0.575613 4.00586 0
M  V30 3540 H 340.166 2.59432 3.96222 0
M  V30 3541 H 340.59 5.18634 4.35141 0
M  V30 3542 H 345.232 2.4211 3.46616 0
M  V30 3543 H 342.95 6.77236 4.40883 0
M  V30 3544 H 346.536 4.51263 3.67224 0
M  V30 3545 H 345.416 6.66045 4.13949 0
M  V30 3546 N 342.919 -1.39368 0.735821 0
M  V30 3547 C 344.165 -2.00794 0.284544 0
M  V30 3548 C 344.498 -1.58255 -1.12557 0
M  V30 3549 O 343.773 -0.811819 -1.76748 0
M  V30 3550 C 344.056 -3.58011 0.387337 0
M  V30 3551 C 343.909 -4.10566 1.83728 0
M  V30 3552 C 345.228 -4.395 -0.22975 0
M  V30 3553 H 342.347 -0.729501 0.104866 0
M  V30 3554 H 344.989 -1.65564 0.93213 0
M  V30 3555 H 343.139 -3.88154 -0.164006 0
M  V30 3556 H 344.811 -3.91139 2.44556 0
M  V30 3557 H 343.054 -3.64095 2.35833 0
M  V30 3558 H 343.725 -5.19702 1.86047 0
M  V30 3559 H 346.201 -4.15406 0.240257 0
M  V30 3560 H 345.077 -5.48752 -0.127485 0
M  V30 3561 H 345.338 -4.22062 -1.3159 0
M  V30 3562 N 344.397 -0.483516 -1.5 0
M  V30 3563 C 345.643 0.0672592 -2.02688 0
M  V30 3564 C 345.976 1.38247 -1.36387 0
M  V30 3565 O 345.251 1.88131 -0.493675 0
M  V30 3566 C 345.534 0.238109 -3.59312 0
M  V30 3567 C 345.387 -1.099 -4.36168 0
M  V30 3568 C 346.706 0.986916 -4.28892 0
M  V30 3569 H 343.825 0.0229696 -0.736642 0
M  V30 3570 H 346.467 -0.631527 -1.79197 0
M  V30 3571 H 344.617 0.8333 -3.79458 0
M  V30 3572 H 346.289 -1.73172 -4.27562 0
M  V30 3573 H 344.532 -1.69261 -3.99416 0
M  V30 3574 H 345.203 -0.932954 -5.44059 0
M  V30 3575 H 347.679 0.482302 -4.13295 0
M  V30 3576 H 346.555 1.07527 -5.38265 0
M  V30 3577 H 346.816 2.0265 -3.92919 0
M  V30 3578 N 345.875 1.56104 -0.216619 0
M  V30 3579 C 347.123 1.97781 0.415593 0
M  V30 3580 C 347.444 1.10536 1.60645 0
M  V30 3581 O 346.714 0.181303 1.95059 0
M  V30 3582 H 345.294 0.730415 0.156534 0
M  V30 3583 H 347.956 1.92445 -0.308366 0
M  V30 3584 H 347.052 3.03072 0.74525 0
M  V30 3585 N 347.353 -0.0568162 1.57498 0
M  V30 3586 C 348.63 -0.786954 1.79071 0
M  V30 3587 C 349.01 -1.95028 0.80792 0
M  V30 3588 O 348.358 -2.27968 -0.155858 0
M  V30 3589 C 348.568 -1.24594 3.26002 0
M  V30 3590 C 349.916 -1.67323 3.90241 0
M  V30 3591 O 350.94 -1.34124 3.29984 0
M  V30 3592 O 349.799 -2.28842 4.9628 0
M  V30 3593 H 346.893 -0.378262 0.735423 0
M  V30 3594 H 349.439 -0.035734 1.69662 0
M  V30 3595 H 348.211 -0.41423 3.89101 0
M  V30 3596 H 347.834 -2.05803 3.40192 0
M  V30 3597 N 348.832 -1.54138 -0.328536 0
M  V30 3598 C 349.779 -1.83176 -1.40411 0
M  V30 3599 C 350.749 -0.678494 -1.5161 0
M  V30 3600 O 351.934 -0.92443 -1.6691 0
M  V30 3601 C 349.074 -2.06035 -2.76846 0
M  V30 3602 C 348.187 -3.33727 -2.74318 0
M  V30 3603 C 347.322 -3.46574 -4.02567 0
M  V30 3604 C 346.361 -4.68159 -3.94327 0
M  V30 3605 N 345.498 -4.77959 -5.14296 0
M  V30 3606 H 350.338 -2.74938 -1.14948 0
M  V30 3607 H 347.875 -1.36166 -0.556538 0
M  V30 3608 H 349.833 -2.1728 -3.56153 0
M  V30 3609 H 348.463 -1.1757 -3.00628 0
M  V30 3610 H 347.515 -3.31246 -1.8703 0
M  V30 3611 H 348.827 -4.23139 -2.64111 0
M  V30 3612 H 347.981 -3.57333 -4.90304 0
M  V30 3613 H 346.72 -2.55245 -4.15574 0
M  V30 3614 H 345.725 -4.57461 -3.04974 0
M  V30 3615 H 346.95 -5.60868 -3.82889 0
M  V30 3616 H 344.896 -3.89544 -5.27818 0
M  V30 3617 H 344.813 -5.6133 -5.06404 0
M  V30 3618 H 346.081 -4.93044 -6.03761 0
M  V30 3619 N 350.31 0.590341 -1.46126 0
M  V30 3620 C 351.538 1.37504 -1.54597 0
M  V30 3621 C 351.953 1.87897 -0.184447 0
M  V30 3622 O 351.31 1.63192 0.816984 0
M  V30 3623 C 351.361 2.56779 -2.54454 0
M  V30 3624 O 351.082 2.08476 -3.85317 0
M  V30 3625 C 352.583 3.49427 -2.72792 0
M  V30 3626 H 349.803 0.420325 -0.523037 0
M  V30 3627 H 352.347 0.718383 -1.91467 0
M  V30 3628 H 350.502 3.1845 -2.20609 0
M  V30 3629 H 350.916 2.86097 -4.396 0
M  V30 3630 H 352.39 4.29619 -3.466 0
M  V30 3631 H 352.867 4.00876 -1.79429 0
M  V30 3632 H 353.473 2.93598 -3.07702 0
M  V30 3633 N 351.788 1.33704 0.83433 0
M  V30 3634 C 353.036 1.25169 1.58673 0
M  V30 3635 C 353.357 -0.18127 1.94156 0
M  V30 3636 O 352.627 -1.11113 1.6134 0
M  V30 3637 H 351.207 0.4603 0.58833 0
M  V30 3638 H 353.869 1.67478 0.996847 0
M  V30 3639 H 352.965 1.84856 2.51465 0
M  V30 3640 N 353.266 -1.05314 1.17247 0
M  V30 3641 C 354.491 -1.82509 0.985148 0
M  V30 3642 C 354.916 -1.82343 -0.461788 0
M  V30 3643 O 354.274 -1.23151 -1.33055 0
M  V30 3644 C 354.322 -3.26566 1.52929 0
M  V30 3645 O 353.426 -4.05666 0.742225 0
M  V30 3646 H 352.767 -0.564347 0.349869 0
M  V30 3647 H 355.297 -1.32718 1.55715 0
M  V30 3648 H 355.307 -3.77369 1.55103 0
M  V30 3649 H 353.982 -3.26001 2.58256 0
M  V30 3650 H 352.559 -3.64397 0.791794 0
M  V30 3651 N 354.744 -0.972509 -1.24016 0
M  V30 3652 C 355.992 -0.635776 -1.91839 0
M  V30 3653 C 356.313 0.832312 -1.76345 0
M  V30 3654 O 355.583 1.5946 -1.13795 0
M  V30 3655 H 354.163 -0.232157 -0.710009 0
M  V30 3656 H 356.825 -1.23462 -1.50809 0
M  V30 3657 H 355.921 -0.880545 -2.99421 0
M  V30 3658 N 356.222 1.38976 -0.743202 0
M  V30 3659 C 357.499 1.94351 -0.220705 0
M  V30 3660 C 357.879 1.67935 1.2791 0
M  V30 3661 O 357.227 1.01211 2.04862 0
M  V30 3662 C 357.437 3.44426 -0.563171 0
M  V30 3663 C 358.785 4.2144 -0.517046 0
M  V30 3664 O 359.809 3.52661 -0.500846 0
M  V30 3665 O 358.668 5.44032 -0.518806 0
M  V30 3666 H 355.762 0.825879 -0.043047 0
M  V30 3667 H 358.308 1.48429 -0.822618 0
M  V30 3668 H 357.08 3.5712 -1.59941 0
M  V30 3669 H 356.703 3.97543 0.0672883 0
M  V30 3670 N 357.7 0.491464 1.49741 0
M  V30 3671 C 358.93 -0.0534375 2.06531 0
M  V30 3672 C 359.338 -1.32233 1.35318 0
M  V30 3673 O 358.681 -1.78781 0.422243 0
M  V30 3674 C 358.743 -0.387034 3.57411 0
M  V30 3675 C 358.407 0.782764 4.50246 0
M  V30 3676 C 359.404 1.67059 4.92329 0
M  V30 3677 C 357.089 0.978866 4.9267 0
M  V30 3678 C 359.083 2.73874 5.75562 0
M  V30 3679 C 356.77 2.05022 5.75682 0
M  V30 3680 C 357.768 2.92851 6.17031 0
M  V30 3681 O 357.456 3.98138 6.98385 0
M  V30 3682 H 357.188 0.0129324 0.675876 0
M  V30 3683 H 359.742 0.685238 1.93633 0
M  V30 3684 H 357.972 -1.17918 3.68283 0
M  V30 3685 H 359.661 -0.869419 3.96479 0
M  V30 3686 H 360.427 1.53086 4.60206 0
M  V30 3687 H 356.306 0.304646 4.59992 0
M  V30 3688 H 359.85 3.42458 6.07757 0
M  V30 3689 H 355.747 2.18993 6.07217 0
M  V30 3690 H 356.515 3.95374 7.16674 0
M  V30 3691 N 359.178 -1.55987 0.224894 0
M  V30 3692 C 360.426 -1.97998 -0.405099 0
M  V30 3693 C 360.747 -1.11387 -1.60056 0
M  V30 3694 O 360.017 -0.191645 -1.9496 0
M  V30 3695 H 358.597 -0.731235 -0.152658 0
M  V30 3696 H 361.259 -1.92279 0.318567 0
M  V30 3697 H 360.355 -3.03463 -0.729167 0
M  V30 3698 N 360.656 0.0484629 -1.57525 0
M  V30 3699 C 361.884 0.755421 -1.92616 0
M  V30 3700 C 362.299 1.69919 -0.822984 0
M  V30 3701 O 361.656 1.81378 0.202085 0
M  V30 3702 C 361.707 1.52915 -3.27566 0
M  V30 3703 O 361.428 0.62329 -4.33644 0
M  V30 3704 C 362.929 2.33502 -3.76818 0
M  V30 3705 H 360.149 0.213465 -0.63614 0
M  V30 3706 H 362.693 0.0117698 -2.04497 0
M  V30 3707 H 360.848 2.22486 -3.17142 0
M  V30 3708 H 361.262 1.16383 -5.11425 0
M  V30 3709 H 362.736 2.83214 -4.73808 0
M  V30 3710 H 363.213 3.14068 -3.07014 0
M  V30 3711 H 363.819 1.69043 -3.90262 0
M  V30 3712 N 362.134 1.5431 0.320358 0
M  V30 3713 C 363.362 1.76636 1.07738 0
M  V30 3714 C 363.777 0.51649 1.81598 0
M  V30 3715 O 363.134 -0.512942 1.75143 0
M  V30 3716 C 363.185 2.96158 2.07299 0
M  V30 3717 O 362.906 4.16313 1.36438 0
M  V30 3718 C 364.407 3.3072 2.95193 0
M  V30 3719 H 361.627 0.589597 0.320339 0
M  V30 3720 H 364.171 2.01207 0.36551 0
M  V30 3721 H 362.326 2.73851 2.74016 0
M  V30 3722 H 362.74 4.83565 2.03138 0
M  V30 3723 H 364.214 4.17643 3.60941 0
M  V30 3724 H 364.691 2.48026 3.62463 0
M  V30 3725 H 365.297 3.55117 2.34034 0
M  V30 3726 N 363.613 -0.582584 1.46437 0
M  V30 3727 C 364.561 -1.71272 1.5738 0
M  V30 3728 C 365.555 -1.63524 0.44229 0
M  V30 3729 O 366.761 -1.69016 0.619166 0
M  V30 3730 H 363.136 -0.566273 0.494813 0
M  V30 3731 H 365.107 -1.59174 2.52401 0
M  V30 3732 C 363.856 -3.09658 1.58136 0
M  V30 3733 H 363.179 -3.16291 2.44541 0
M  V30 3734 H 364.619 -3.88494 1.69847 0
M  V30 3735 C 363.078 -3.3547 0.310026 0
M  V30 3736 O 363.608 -3.97199 -0.599683 0
M  V30 3737 N 361.814 -2.89925 0.197901 0
M  V30 3738 H 361.361 -2.39873 0.93909 0
M  V30 3739 H 361.319 -3.07568 -0.65185 0
M  V30 3740 N 365.091 -1.34144 -0.827227 0
M  V30 3741 C 366.368 -1.16844 -1.56865 0
M  V30 3742 C 366.748 0.260654 -2.09485 0
M  V30 3743 O 366.096 1.26138 -1.9053 0
M  V30 3744 C 366.306 -2.21939 -2.6934 0
M  V30 3745 C 367.654 -2.56695 -3.3822 0
M  V30 3746 O 368.678 -2.20695 -2.79593 0
M  V30 3747 O 367.537 -3.18518 -4.44082 0
M  V30 3748 H 364.631 -0.452669 -0.692112 0
M  V30 3749 H 367.177 -1.45763 -0.868973 0
M  V30 3750 H 365.949 -3.17882 -2.28182 0
M  V30 3751 H 365.572 -1.94172 -3.46962 0
M  V30 3752 N 366.569 1.04691 -1.17803 0
M  V30 3753 C 367.818 1.77176 -0.963931 0
M  V30 3754 C 368.131 1.88888 0.508015 0
M  V30 3755 O 369.337 2.58164 0.840465 0
M  V30 3756 C 367.793 3.18518 -1.67555 0
M  V30 3757 C 367.401 3.14919 -3.18637 0
M  V30 3758 C 369.145 3.95424 -1.54402 0
M  V30 3759 C 367.052 4.51081 -3.82466 0
M  V30 3760 H 365.982 0.664116 -0.357023 0
M  V30 3761 H 368.633 1.17303 -1.4111 0
M  V30 3762 H 367.015 3.78748 -1.15613 0
M  V30 3763 H 368.189 2.64178 -3.77554 0
M  V30 3764 H 366.504 2.51512 -3.31859 0
M  V30 3765 H 369.101 4.96106 -1.99456 0
M  V30 3766 H 369.444 4.13343 -0.495329 0
M  V30 3767 H 369.977 3.41754 -2.0359 0
M  V30 3768 H 366.716 4.38368 -4.87354 0
M  V30 3769 H 366.236 5.01951 -3.28337 0
M  V30 3770 H 367.915 5.2001 -3.84965 0
M  V30 3771 N 368.047 0.979072 1.23499 0
M  V30 3772 C 369.01 0.523244 2.23147 0
M  V30 3773 C 370.01 -0.386406 1.56088 0
M  V30 3774 O 371.2 -0.180283 1.73265 0
M  V30 3775 C 368.332 -0.240739 3.40049 0
M  V30 3776 H 369.525 1.40432 2.64989 0
M  V30 3777 H 367.078 0.764824 1.36309 0
M  V30 3778 H 367.813 -1.13841 3.03662 0
M  V30 3779 H 367.598 0.412207 3.89927 0
M  V30 3780 H 369.088 -0.548297 4.13985 0
M  V30 3781 N 369.525 -1.3858 0.750561 0
M  V30 3782 C 370.771 -2.00481 0.305825 0
M  V30 3783 C 371.104 -1.5944 -1.10872 0
M  V30 3784 O 370.379 -0.83052 -1.75877 0
M  V30 3785 C 370.662 -3.5758 0.425287 0
M  V30 3786 C 370.515 -4.08594 1.88072 0
M  V30 3787 C 371.834 -4.39719 -0.183122 0
M  V30 3788 H 368.953 -0.728348 0.112598 0
M  V30 3789 H 371.595 -1.64566 0.949638 0
M  V30 3790 H 369.745 -3.88306 -0.122828 0
M  V30 3791 H 371.417 -3.88523 2.48691 0
M  V30 3792 H 369.66 -3.61574 2.39681 0
M  V30 3793 H 370.331 -5.177 1.91548 0
M  V30 3794 H 372.807 -4.15128 0.284303 0
M  V30 3795 H 371.683 -5.48856 -0.0692757 0
M  V30 3796 H 371.944 -4.23434 -1.27106 0
M  V30 3797 N 371.003 -0.499398 -1.49478 0
M  V30 3798 C 372.252 0.0475259 -2.01644 0
M  V30 3799 C 372.565 1.38195 -1.38425 0
M  V30 3800 O 373.771 2.01547 -1.8191 0
M  V30 3801 C 372.227 0.135164 -3.59646 0
M  V30 3802 C 371.835 -1.19252 -4.31837 0
M  V30 3803 C 373.579 0.632538 -4.19761 0
M  V30 3804 C 371.486 -1.06713 -5.81693 0
M  V30 3805 H 370.416 0.0215349 -0.753692 0
M  V30 3806 H 373.067 -0.638577 -1.7203 0
M  V30 3807 H 371.449 0.885681 -3.85969 0
M  V30 3808 H 372.623 -1.9562 -4.17216 0
M  V30 3809 H 370.938 -1.62321 -3.83459 0
M  V30 3810 H 373.535 0.743833 -5.29501 0
M  V30 3811 H 373.878 1.63098 -3.83021 0
M  V30 3812 H 374.411 -0.0613987 -3.97753 0
M  V30 3813 H 371.15 -2.03979 -6.22955 0
M  V30 3814 H 370.67 -0.344307 -5.98811 0
M  V30 3815 H 372.349 -0.745208 -6.42694 0
M  V30 3816 N 372.481 1.55866 -0.233164 0
M  V30 3817 C 373.727 1.99643 0.389148 0
M  V30 3818 C 374.082 1.11836 1.56558 0
M  V30 3819 O 373.375 0.170848 1.90837 0
M  V30 3820 C 373.569 3.46856 0.861724 0
M  V30 3821 C 373.398 4.48904 -0.267376 0
M  V30 3822 C 372.168 4.99888 -0.737577 0
M  V30 3823 C 374.366 5.02624 -1.08966 0
M  V30 3824 N 372.348 5.8566 -1.84052 0
M  V30 3825 C 373.719 5.85434 -2.04125 0
M  V30 3826 C 375.774 4.84959 -1.12779 0
M  V30 3827 C 374.477 6.52466 -3.02789 0
M  V30 3828 C 376.503 5.52759 -2.10266 0
M  V30 3829 C 375.865 6.35346 -3.04162 0
M  V30 3830 H 371.964 0.774402 0.108742 0
M  V30 3831 H 374.548 1.91572 -0.347596 0
M  V30 3832 H 372.719 3.55352 1.5678 0
M  V30 3833 H 374.451 3.77531 1.45783 0
M  V30 3834 H 371.206 4.7249 -0.324122 0
M  V30 3835 H 371.63 6.33246 -2.39434 0
M  V30 3836 H 376.272 4.20751 -0.415749 0
M  V30 3837 H 373.99 7.15849 -3.74948 0
M  V30 3838 H 377.576 5.41051 -2.13905 0
M  V30 3839 H 376.456 6.86883 -3.78366 0
M  V30 3840 N 373.959 -0.0401083 1.57549 0
M  V30 3841 C 375.37 -0.588097 1.77196 0
M  V30 3842 C 375.721 -1.76209 0.862832 0
M  V30 3843 O 374.846 -2.16331 0.0548389 0
M  V30 3844 C 375.441 -1.07363 3.21339 0
M  V30 3845 C 374 -1.56723 3.42221 0
M  V30 3846 C 373.147 -0.50041 2.72747 0
M  V30 3847 H 376.098 0.186119 1.57605 0
M  V30 3848 H 376.119 -1.94143 3.27244 0
M  V30 3849 H 375.631 -0.218975 3.87482 0
M  V30 3850 H 373.732 -2.4441 2.81237 0
M  V30 3851 H 373.845 -1.62234 4.50796 0
M  V30 3852 H 372.209 -0.952894 2.36203 0
M  V30 3853 H 372.992 0.344599 3.41566 0
M  V30 3854 N 375.437 -1.54477 -0.31217 0
M  V30 3855 C 376.347 -1.87695 -1.4074 0
M  V30 3856 C 377.363 -0.769975 -1.56036 0
M  V30 3857 O 378.539 -1.06537 -1.70915 0
M  V30 3858 C 375.604 -2.10755 -2.75287 0
M  V30 3859 C 374.665 -3.34514 -2.69071 0
M  V30 3860 C 373.898 -3.56465 -3.97201 0
M  V30 3861 O 374.121 -2.81637 -4.96021 0
M  V30 3862 O 373.055 -4.49964 -3.9977 0
M  V30 3863 H 376.881 -2.80849 -1.15574 0
M  V30 3864 H 374.466 -1.40526 -0.507228 0
M  V30 3865 H 376.348 -2.27188 -3.54913 0
M  V30 3866 H 375.023 -1.20788 -3.0032 0
M  V30 3867 H 373.93 -3.23456 -1.87955 0
M  V30 3868 H 375.263 -4.24575 -2.48992 0
M  V30 3869 N 376.915 0.57481 -1.46744 0
M  V30 3870 C 377.863 1.70435 -1.58286 0
M  V30 3871 C 378.857 1.63287 -0.450956 0
M  V30 3872 O 380.063 1.68685 -0.628121 0
M  V30 3873 H 376.438 0.56364 -0.497809 0
M  V30 3874 H 378.409 1.57833 -2.53242 0
M  V30 3875 C 377.158 3.08815 -1.59776 0
M  V30 3876 H 376.481 3.1499 -2.46214 0
M  V30 3877 H 377.921 3.87588 -1.71905 0
M  V30 3878 C 376.38 3.35301 -0.327812 0
M  V30 3879 O 376.91 3.97511 0.57861 0
M  V30 3880 N 375.116 2.89816 -0.213274 0
M  V30 3881 H 374.663 2.39371 -0.951798 0
M  V30 3882 H 374.621 3.0791 0.63553 0
M  V30 3883 N 378.394 1.34581 0.820102 0
M  V30 3884 C 379.344 1.22943 1.92013 0
M  V30 3885 C 380.328 0.127802 1.60392 0
M  V30 3886 O 381.52 0.357737 1.73347 0
M  V30 3887 C 378.649 0.989938 3.28717 0
M  V30 3888 C 377.735 2.13486 3.66449 0
M  V30 3889 N 378.126 3.38625 3.75722 0
M  V30 3890 C 376.424 2.04573 3.96315 0
M  V30 3891 C 377.125 4.13832 4.08801 0
M  V30 3892 N 376.101 3.42451 4.22171 0
M  V30 3893 H 379.903 2.17771 1.97365 0
M  V30 3894 H 377.417 1.2686 1.01392 0
M  V30 3895 H 379.414 0.887462 4.07345 0
M  V30 3896 H 378.074 0.0503691 3.24661 0
M  V30 3897 H 379.085 3.73143 3.59144 0
M  V30 3898 H 375.762 1.1839 4.00362 0
M  V30 3899 H 377.152 5.21909 4.23156 0
M  V30 3900 N 379.872 -1.04064 1.18357 0
M  V30 3901 C 380.835 -2.10243 0.912707 0
M  V30 3902 C 381.835 -1.60477 -0.101928 0
M  V30 3903 O 383.025 -1.73703 0.131517 0
M  V30 3904 C 380.157 -3.38893 0.369387 0
M  V30 3905 H 381.35 -2.35706 1.85426 0
M  V30 3906 H 378.903 -1.20489 0.995594 0
M  V30 3907 H 379.638 -3.19094 -0.578776 0
M  V30 3908 H 379.423 -3.76331 1.1008 0
M  V30 3909 H 380.913 -4.17128 0.198575 0
M  V30 3910 N 381.35 -0.985608 -1.22978 0
M  V30 3911 C 382.761 -0.693593 -1.73338 0
M  V30 3912 C 383.112 0.789935 -1.79595 0
M  V30 3913 O 382.237 1.61771 -1.43733 0
M  V30 3914 C 382.832 -1.25235 -3.14804 0
M  V30 3915 C 381.391 -1.00987 -3.626 0
M  V30 3916 C 380.538 -1.37695 -2.40698 0
M  V30 3917 H 383.489 -1.15884 -1.08428 0
M  V30 3918 H 383.51 -0.627329 -3.75293 0
M  V30 3919 H 383.022 -2.33209 -3.10218 0
M  V30 3920 H 381.123 0.0535565 -3.72562 0
M  V30 3921 H 381.236 -1.66812 -4.49122 0
M  V30 3922 H 379.6 -0.795459 -2.4196 0
M  V30 3923 H 380.383 -2.46657 -2.38779 0
M  V30 3924 N 382.828 1.3818 -0.7579 0
M  V30 3925 C 383.758 2.33027 -0.148597 0
M  V30 3926 C 384.739 1.55085 0.69875 0
M  V30 3927 O 385.924 1.83384 0.639053 0
M  V30 3928 C 383.054 3.3928 0.742034 0
M  V30 3929 C 382.008 4.28 -0.00291946 0
M  V30 3930 C 381.334 5.25146 1.00625 0
M  V30 3931 C 382.634 5.08938 -1.17385 0
M  V30 3932 H 384.328 2.84231 -0.940909 0
M  V30 3933 H 381.874 1.36659 -0.453908 0
M  V30 3934 H 383.827 4.046 1.17799 0
M  V30 3935 H 382.551 2.86569 1.56671 0
M  V30 3936 H 381.21 3.64192 -0.419504 0
M  V30 3937 H 380.858 4.68721 1.8251 0
M  V30 3938 H 380.558 5.85361 0.512428 0
M  V30 3939 H 382.082 5.93342 1.44143 0
M  V30 3940 H 383.496 5.67474 -0.815224 0
M  V30 3941 H 381.893 5.7841 -1.59882 0
M  V30 3942 H 382.963 4.42424 -1.98468 0
M  V30 3943 N 384.306 0.507319 1.49211 0
M  V30 3944 C 385.552 -0.0350047 2.0277 0
M  V30 3945 C 385.885 -1.3606 1.38569 0
M  V30 3946 O 385.16 -1.87321 0.523542 0
M  V30 3947 C 385.443 -0.180916 3.59645 0
M  V30 3948 C 385.296 1.16825 4.34364 0
M  V30 3949 C 386.615 -0.918558 4.30407 0
M  V30 3950 H 383.734 -0.0112473 0.736914 0
M  V30 3951 H 386.376 0.659956 1.7817 0
M  V30 3952 H 384.526 -0.772826 3.80736 0
M  V30 3953 H 386.198 1.79952 4.24753 0
M  V30 3954 H 384.441 1.75594 3.96673 0
M  V30 3955 H 385.112 1.01939 5.42506 0
M  V30 3956 H 387.588 -0.41649 4.1401 0
M  V30 3957 H 386.464 -0.989505 5.39907 0
M  V30 3958 H 386.725 -1.96373 3.96093 0
M  V30 3959 N 385.784 -1.5574 0.241426 0
M  V30 3960 C 386.714 -2.24133 -0.654722 0
M  V30 3961 C 387.695 -1.21974 -1.1856 0
M  V30 3962 O 388.88 -1.50612 -1.22595 0
M  V30 3963 C 386.01 -2.93659 -1.85423 0
M  V30 3964 C 384.964 -4.0246 -1.45636 0
M  V30 3965 C 384.29 -4.59383 -2.73626 0
M  V30 3966 C 385.59 -5.18468 -0.631506 0
M  V30 3967 H 387.284 -2.99281 -0.0844353 0
M  V30 3968 H 384.83 -1.43947 -0.0391707 0
M  V30 3969 H 386.783 -3.40203 -2.48676 0
M  V30 3970 H 385.507 -2.15991 -2.44981 0
M  V30 3971 H 384.166 -3.56676 -0.847202 0
M  V30 3972 H 383.814 -3.78422 -3.3137 0
M  V30 3973 H 383.514 -5.32826 -2.4773 0
M  V30 3974 H 385.038 -5.08658 -3.37786 0
M  V30 3975 H 386.452 -5.61272 -1.1682 0
M  V30 3976 H 384.849 -5.98266 -0.468831 0
M  V30 3977 H 385.919 -4.8358 0.357506 0
M  V30 3978 N 387.262 0.0317525 -1.57568 0
M  V30 3979 C 388.508 0.724175 -1.8943 0
M  V30 3980 C 388.841 1.75149 -0.838836 0
M  V30 3981 O 388.116 1.93948 0.146422 0
M  V30 3982 C 388.399 1.39615 -3.31933 0
M  V30 3983 C 388.252 0.382537 -4.4817 0
M  V30 3984 C 389.571 2.33084 -3.73309 0
M  V30 3985 H 386.69 0.261797 -0.688935 0
M  V30 3986 H 389.332 -0.013017 -1.89996 0
M  V30 3987 H 387.482 2.02451 -3.31581 0
M  V30 3988 H 389.154 -0.243689 -4.60656 0
M  V30 3989 H 387.397 -0.29844 -4.32772 0
M  V30 3990 H 388.068 0.891145 -5.44759 0
M  V30 3991 H 390.544 1.80295 -3.7501 0
M  V30 3992 H 389.42 2.77084 -4.73831 0
M  V30 3993 H 389.681 3.19643 -3.05419 0
M  V30 3994 N 388.74 1.54641 0.303973 0
M  V30 3995 C 389.968 1.77768 1.05858 0
M  V30 3996 C 390.383 0.535722 1.8104 0
M  V30 3997 O 389.74 -0.494337 1.75677 0
M  V30 3998 C 389.791 2.9834 2.04146 0
M  V30 3999 O 389.512 4.17736 1.32015 0
M  V30 4000 C 391.013 3.33832 2.91669 0
M  V30 4001 H 388.233 0.592961 0.314067 0
M  V30 4002 H 390.777 2.01583 0.344149 0
M  V30 4003 H 388.932 2.76742 2.71096 0
M  V30 4004 H 389.346 4.85693 1.97998 0
M  V30 4005 H 390.82 4.21448 3.56491 0
M  V30 4006 H 391.297 2.51857 3.59812 0
M  V30 4007 H 391.903 3.57579 2.30254 0
M  V30 4008 N 390.218 -0.567019 1.47046 0
M  V30 4009 C 391.448 -1.34831 1.56538 0
M  V30 4010 C 391.856 -1.8802 0.21101 0
M  V30 4011 O 391.199 -1.65152 -0.804387 0
M  V30 4012 C 391.261 -2.56139 2.52256 0
M  V30 4013 C 390.925 -2.24307 3.98165 0
M  V30 4014 C 391.922 -1.82192 4.86931 0
M  V30 4015 C 389.607 -2.35968 4.43423 0
M  V30 4016 C 391.601 -1.52153 6.18973 0
M  V30 4017 C 389.288 -2.05542 5.75496 0
M  V30 4018 C 390.286 -1.63701 6.63092 0
M  V30 4019 O 389.974 -1.33657 7.92711 0
M  V30 4020 H 389.706 -0.417683 0.531523 0
M  V30 4021 H 392.26 -0.694726 1.93294 0
M  V30 4022 H 390.49 -3.24356 2.10548 0
M  V30 4023 H 392.179 -3.18214 2.51982 0
M  V30 4024 H 392.945 -1.72684 4.53217 0
M  V30 4025 H 388.824 -2.67495 3.75456 0
M  V30 4026 H 392.368 -1.19421 6.87302 0
M  V30 4027 H 388.265 -2.14679 6.08755 0
M  V30 4028 H 389.033 -1.4737 8.05124 0
M  V30 4029 N 391.696 -1.35014 -0.812953 0
M  V30 4030 C 392.943 -1.27931 -1.56971 0
M  V30 4031 C 393.271 0.148034 -1.93936 0
M  V30 4032 O 392.526 1.11175 -1.61054 0
M  V30 4033 C 392.825 -2.12524 -2.87347 0
M  V30 4034 C 392.491 -3.61401 -2.6963 0
M  V30 4035 C 391.153 -4.01983 -2.64506 0
M  V30 4036 C 393.505 -4.55894 -2.52607 0
M  V30 4037 C 390.833 -5.35235 -2.40293 0
M  V30 4038 C 393.185 -5.89336 -2.29925 0
M  V30 4039 C 391.849 -6.2907 -2.23219 0
M  V30 4040 H 391.119 -0.468131 -0.574399 0
M  V30 4041 H 393.766 -1.66851 -0.939836 0
M  V30 4042 H 392.071 -1.66463 -3.54679 0
M  V30 4043 H 393.768 -2.04383 -3.45005 0
M  V30 4044 H 390.358 -3.29193 -2.74463 0
M  V30 4045 H 394.542 -4.25431 -2.55583 0
M  V30 4046 H 389.798 -5.65028 -2.33566 0
M  V30 4047 H 393.972 -6.62139 -2.15743 0
M  V30 4048 H 391.599 -7.32256 -2.04219 0
M  V30 4049 N 393.175 1.03435 -1.18907 0
M  V30 4050 C 394.403 1.80381 -1.01342 0
M  V30 4051 C 394.818 1.83649 0.438005 0
M  V30 4052 O 394.175 1.27655 1.30424 0
M  V30 4053 C 394.226 3.25689 -1.56873 0
M  V30 4054 O 393.947 3.22673 -2.96334 0
M  V30 4055 C 395.448 4.19255 -1.44014 0
M  V30 4056 H 392.668 0.56784 -0.35749 0
M  V30 4057 H 395.212 1.30317 -1.576 0
M  V30 4058 H 393.367 3.72962 -1.04777 0
M  V30 4059 H 393.781 4.13748 -3.22355 0
M  V30 4060 H 395.255 5.19123 -1.87657 0
M  V30 4061 H 395.732 4.37467 -0.389815 0
M  V30 4062 H 396.338 3.77851 -1.95214 0
M  V30 4063 N 394.653 0.992116 1.22453 0
M  V30 4064 C 395.585 0.500024 2.23679 0
M  V30 4065 C 396.598 -0.404463 1.57696 0
M  V30 4066 O 397.787 -0.206722 1.77299 0
M  V30 4067 C 394.887 -0.294711 3.37616 0
M  V30 4068 C 394.06 0.605723 4.33186 0
M  V30 4069 C 393.119 -0.13717 5.26021 0
M  V30 4070 O 392.145 0.477164 5.67196 0
M  V30 4071 N 393.347 -1.4197 5.62872 0
M  V30 4072 H 396.112 1.37045 2.66531 0
M  V30 4073 H 393.673 0.866741 1.36745 0
M  V30 4074 H 395.665 -0.800329 3.96707 0
M  V30 4075 H 394.235 -1.06623 2.93854 0
M  V30 4076 H 393.455 1.29202 3.72425 0
M  V30 4077 H 394.743 1.21896 4.93983 0
M  V30 4078 H 394.141 -1.94015 5.31389 0
M  V30 4079 H 392.698 -1.87052 6.24383 0
M  V30 4080 N 396.131 -1.37776 0.765217 0
M  V30 4081 C 397.542 -1.82521 0.392819 0
M  V30 4082 C 397.893 -1.63789 -1.08017 0
M  V30 4083 O 397.018 -1.14542 -1.83601 0
M  V30 4084 C 397.613 -3.31358 0.706214 0
M  V30 4085 C 396.172 -3.74406 0.386952 0
M  V30 4086 C 395.319 -2.60394 0.953422 0
M  V30 4087 H 398.27 -1.2634 0.960412 0
M  V30 4088 H 398.291 -3.80498 -0.0114706 0
M  V30 4089 H 397.803 -3.44959 1.77833 0
M  V30 4090 H 395.904 -3.66377 -0.678112 0
M  V30 4091 H 396.017 -4.70749 0.890636 0
M  V30 4092 H 394.381 -2.51878 0.378064 0
M  V30 4093 H 395.164 -2.76791 2.03081 0
M  V30 4094 N 397.609 -0.515225 -1.4894 0
M  V30 4095 C 398.519 0.259774 -2.33157 0
M  V30 4096 C 399.535 0.953501 -1.45548 0
M  V30 4097 O 400.711 0.931735 -1.78552 0
M  V30 4098 C 397.776 1.30193 -3.21326 0
M  V30 4099 C 396.837 0.620129 -4.24797 0
M  V30 4100 C 396.07 1.61263 -5.08753 0
M  V30 4101 O 396.293 2.84389 -4.94448 0
M  V30 4102 O 395.227 1.16013 -5.90614 0
M  V30 4103 H 399.053 -0.429932 -3.00641 0
M  V30 4104 H 396.638 -0.276346 -1.46822 0
M  V30 4105 H 398.52 1.90455 -3.75905 0
M  V30 4106 H 397.195 1.97431 -2.56521 0
M  V30 4107 H 396.102 -0.0226019 -3.74093 0
M  V30 4108 H 397.435 -0.0100493 -4.92199 0
M  V30 4109 N 399.087 1.5561 -0.249682 0
M  V30 4110 C 400.019 2.18834 0.681496 0
M  V30 4111 C 401.032 1.16546 1.1367 0
M  V30 4112 O 402.221 1.43397 1.06299 0
M  V30 4113 C 399.321 2.77992 1.9384 0
M  V30 4114 C 398.494 4.05725 1.63419 0
M  V30 4115 C 397.553 4.49174 2.74096 0
M  V30 4116 O 396.579 5.15492 2.41364 0
M  V30 4117 N 397.781 4.17191 4.03649 0
M  V30 4118 H 400.546 2.9937 0.140514 0
M  V30 4119 H 398.107 1.6175 -0.0697541 0
M  V30 4120 H 400.099 3.04015 2.67127 0
M  V30 4121 H 398.669 2.01596 2.38909 0
M  V30 4122 H 397.889 3.87261 0.736358 0
M  V30 4123 H 399.177 4.88999 1.40562 0
M  V30 4124 H 398.575 3.63955 4.33074 0
M  V30 4125 H 397.132 4.48043 4.73393 0
M  V30 4126 N 400.565 -0.0233959 1.57583 0
M  V30 4127 C 401.512 -1.02224 2.06927 0
M  V30 4128 C 402.482 -1.35575 0.959617 0
M  V30 4129 O 403.667 -1.45815 1.23055 0
M  V30 4130 C 400.807 -2.31636 2.5581 0
M  V30 4131 C 399.92 -2.04394 3.80588 0
M  V30 4132 C 399.055 -3.27717 4.18061 0
M  V30 4133 C 398.094 -2.96056 5.3574 0
M  V30 4134 N 397.231 -4.11847 5.68618 0
M  V30 4135 H 402.071 -0.594504 2.9201 0
M  V30 4136 H 399.608 -0.281921 1.44373 0
M  V30 4137 H 401.566 -3.07258 2.82221 0
M  V30 4138 H 400.196 -2.72122 1.73636 0
M  V30 4139 H 399.248 -1.19244 3.61227 0
M  V30 4140 H 400.56 -1.77042 4.66323 0
M  V30 4141 H 399.714 -4.11702 4.4563 0
M  V30 4142 H 398.453 -3.58188 3.30988 0
M  V30 4143 H 397.458 -2.10474 5.07918 0
M  V30 4144 H 398.683 -2.66857 6.24471 0
M  V30 4145 H 396.629 -4.42258 4.84504 0
M  V30 4146 H 396.546 -3.87938 6.48876 0
M  V30 4147 H 397.814 -4.96689 6.00766 0
M  V30 4148 N 402.043 -1.548 -0.295768 0
M  V30 4149 C 403.006 -1.85363 -1.34808 0
M  V30 4150 C 404.006 -0.726817 -1.43436 0
M  V30 4151 O 405.196 -0.995088 -1.42981 0
M  V30 4152 C 402.328 -2.03859 -2.73229 0
M  V30 4153 H 403.521 -2.7941 -1.08949 0
M  V30 4154 H 401.074 -1.46942 -0.532702 0
M  V30 4155 H 401.809 -1.12117 -3.04303 0
M  V30 4156 H 401.594 -2.8588 -2.68356 0
M  V30 4157 H 403.084 -2.28857 -3.49305 0
M  V30 4158 N 403.521 0.559213 -1.47345 0
M  V30 4159 C 404.431 1.69388 -1.62311 0
M  V30 4160 C 405.447 1.6648 -0.505993 0
M  V30 4161 O 406.623 1.85964 -0.773262 0
M  V30 4162 C 403.688 3.05894 -1.63185 0
M  V30 4163 C 402.749 3.19885 -2.86307 0
M  V30 4164 C 401.982 4.49879 -2.87131 0
M  V30 4165 O 402.205 5.35217 -1.97229 0
M  V30 4166 O 401.139 4.67618 -3.78968 0
M  V30 4167 H 404.965 1.59706 -2.58317 0
M  V30 4168 H 402.55 0.728989 -1.30407 0
M  V30 4169 H 404.432 3.87133 -1.66451 0
M  V30 4170 H 403.107 3.15964 -0.70345 0
M  V30 4171 H 402.014 2.38052 -2.88587 0
M  V30 4172 H 403.347 3.14718 -3.78435 0
M  V30 4173 N 404.999 1.35443 0.805782 0
M  V30 4174 C 406.415 1.15499 1.10146 0
M  V30 4175 C 406.615 -0.0319975 2.01475 0
M  V30 4176 O 405.671 -0.70236 2.42535 0
M  V30 4177 C 406.984 2.45833 1.73166 0
M  V30 4178 C 408.532 2.52047 1.85583 0
M  V30 4179 C 409.007 3.82427 2.52019 0
M  V30 4180 N 410.498 3.83682 2.59504 0
M  V30 4181 C 411.233 4.81294 3.11679 0
M  V30 4182 N 410.729 5.89294 3.64287 0
M  V30 4183 N 412.522 4.6873 3.1024 0
M  V30 4184 H 404.673 2.11469 0.198678 0
M  V30 4185 H 406.936 0.93594 0.150731 0
M  V30 4186 H 406.642 3.32874 1.13526 0
M  V30 4187 H 406.516 2.6044 2.72857 0
M  V30 4188 H 408.903 1.65435 2.44367 0
M  V30 4189 H 408.984 2.41354 0.847455 0
M  V30 4190 H 408.628 4.69437 1.93885 0
M  V30 4191 H 408.558 3.90409 3.53395 0
M  V30 4192 H 411.049 3.05648 2.22234 0
M  V30 4193 H 411.362 6.59768 4.02401 0
M  V30 4194 H 409.707 5.92985 3.62483 0
M  V30 4195 H 412.898 3.83496 2.68419 0
M  V30 4196 H 413.071 5.44965 3.50596 0
M  V30 4197 N 406.477 -1.02803 1.19454 0
M  V30 4198 C 407.893 -1.28473 0.946937 0
M  V30 4199 C 408.093 -1.97881 -0.380202 0
M  V30 4200 O 407.149 -2.26719 -1.11151 0
M  V30 4201 C 408.462 -2.13099 2.12154 0
M  V30 4202 C 410.01 -2.26404 2.16126 0
M  V30 4203 C 410.485 -3.14402 3.33039 0
M  V30 4204 N 411.976 -3.21991 3.32981 0
M  V30 4205 C 412.711 -3.90272 4.20089 0
M  V30 4206 N 412.207 -4.60777 5.17355 0
M  V30 4207 N 414 -3.8668 4.07964 0
M  V30 4208 H 406.151 -0.561665 2.04839 0
M  V30 4209 H 408.414 -0.310438 0.89573 0
M  V30 4210 H 408.12 -1.69422 3.08203 0
M  V30 4211 H 407.994 -3.13813 2.09287 0
M  V30 4212 H 410.381 -2.69311 1.20647 0
M  V30 4213 H 410.462 -1.25237 2.23045 0
M  V30 4214 H 410.106 -2.72204 4.28798 0
M  V30 4215 H 410.036 -4.1563 3.23356 0
M  V30 4216 H 412.527 -2.71778 2.62574 0
M  V30 4217 H 412.84 -5.10513 5.80169 0
M  V30 4218 H 411.185 -4.5964 5.21302 0
M  V30 4219 H 414.376 -3.30739 3.31254 0
M  V30 4220 H 414.549 -4.39621 4.76064 0
M  V30 4221 N 407.956 -0.998596 -1.21925 0
M  V30 4222 C 409.372 -0.710303 -1.42923 0
M  V30 4223 C 409.572 0.716933 -1.88314 0
M  V30 4224 O 408.628 1.48712 -2.04062 0
M  V30 4225 C 409.941 -1.72072 -2.466 0
M  V30 4226 C 411.489 -1.73681 -2.60392 0
M  V30 4227 C 411.964 -2.73601 -3.67296 0
M  V30 4228 N 413.455 -2.7223 -3.7476 0
M  V30 4229 C 414.19 -3.46206 -4.57087 0
M  V30 4230 N 413.686 -4.29802 -5.43362 0
M  V30 4231 N 415.479 -3.34886 -4.51451 0
M  V30 4232 H 407.63 -1.92028 -0.9077 0
M  V30 4233 H 409.893 -0.828487 -0.460775 0
M  V30 4234 H 409.599 -2.74231 -2.20206 0
M  V30 4235 H 409.473 -1.51818 -3.45299 0
M  V30 4236 H 411.86 -0.722173 -2.86127 0
M  V30 4237 H 411.941 -1.98005 -1.61949 0
M  V30 4238 H 411.585 -3.75217 -3.42307 0
M  V30 4239 H 411.515 -2.46545 -4.65321 0
M  V30 4240 H 414.006 -2.11576 -3.1312 0
M  V30 4241 H 414.319 -4.83061 -6.03218 0
M  V30 4242 H 412.664 -4.33887 -5.42925 0
M  V30 4243 H 415.855 -2.69015 -3.83078 0
M  V30 4244 H 416.028 -3.92796 -5.15379 0
M  V30 4245 N 409.434 1.37368 -0.772513 0
M  V30 4246 C 410.711 1.93839 -0.26188 0
M  V30 4247 C 411.091 1.7061 1.24319 0
M  V30 4248 O 410.439 1.05534 2.02669 0
M  V30 4249 C 410.649 3.43154 -0.636102 0
M  V30 4250 C 411.997 4.20249 -0.606324 0
M  V30 4251 O 413.021 3.5152 -0.575538 0
M  V30 4252 O 411.88 5.42809 -0.634086 0
M  V30 4253 H 408.974 0.82478 -0.0605555 0
M  V30 4254 H 411.52 1.4665 -0.853917 0
M  V30 4255 H 410.292 3.53647 -1.6748 0
M  V30 4256 H 409.915 3.97596 -0.0170516 0
M  V30 4257 N 410.912 0.523116 1.48665 0
M  V30 4258 C 412.161 -0.01544 2.01694 0
M  V30 4259 C 412.474 -1.35975 1.40606 0
M  V30 4260 O 413.68 -1.98627 1.85093 0
M  V30 4261 C 412.136 -0.0779303 3.59816 0
M  V30 4262 C 411.744 1.26107 4.29885 0
M  V30 4263 C 413.488 -0.565678 4.20714 0
M  V30 4264 C 411.395 1.15954 5.79921 0
M  V30 4265 H 410.325 -0.00954163 0.75394 0
M  V30 4266 H 412.976 0.665865 1.70993 0
M  V30 4267 H 411.358 -0.824165 3.87329 0
M  V30 4268 H 412.532 2.02233 4.14051 0
M  V30 4269 H 410.847 1.68401 3.80828 0
M  V30 4270 H 413.444 -0.6595 5.30617 0
M  V30 4271 H 413.787 -1.56984 3.85567 0
M  V30 4272 H 414.32 0.12467 3.97605 0
M  V30 4273 H 411.059 2.13864 6.19631 0
M  V30 4274 H 410.579 0.439529 5.98187 0
M  V30 4275 H 412.258 0.847361 6.41427 0
M  V30 4276 N 412.39 -1.55475 0.257931 0
M  V30 4277 C 413.32 -2.24815 -0.630912 0
M  V30 4278 C 414.301 -1.23224 -1.17259 0
M  V30 4279 O 415.486 -1.51904 -1.20991 0
M  V30 4280 C 412.616 -2.95609 -1.82298 0
M  V30 4281 C 411.57 -4.03982 -1.41359 0
M  V30 4282 C 410.896 -4.6226 -2.68738 0
M  V30 4283 C 412.196 -5.19109 -0.57648 0
M  V30 4284 H 413.89 -2.99354 -0.0526878 0
M  V30 4285 H 411.436 -1.4398 -0.023901 0
M  V30 4286 H 413.389 -3.42822 -2.45054 0
M  V30 4287 H 412.113 -2.18577 -2.42676 0
M  V30 4288 H 410.772 -3.57555 -0.809324 0
M  V30 4289 H 410.42 -3.81915 -3.27338 0
M  V30 4290 H 410.12 -5.35424 -2.42065 0
M  V30 4291 H 411.644 -5.12212 -3.32372 0
M  V30 4292 H 413.058 -5.62479 -1.10861 0
M  V30 4293 H 411.455 -5.98729 -0.405351 0
M  V30 4294 H 412.525 -4.83174 0.408776 0
M  V30 4295 N 413.868 0.0150385 -1.57593 0
M  V30 4296 C 414.831 0.995996 -2.06428 0
M  V30 4297 C 415.831 1.2818 -0.970903 0
M  V30 4298 O 417.021 1.22949 -1.23406 0
M  V30 4299 C 414.153 2.32506 -2.49307 0
M  V30 4300 H 415.346 0.573873 -2.94358 0
M  V30 4301 H 412.899 0.262186 -1.54085 0
M  V30 4302 H 413.634 2.79438 -1.64575 0
M  V30 4303 H 413.419 2.13087 -3.29145 0
M  V30 4304 H 414.909 3.02906 -2.87468 0
M  V30 4305 N 415.346 1.54954 0.287554 0
M  V30 4306 C 416.309 1.86076 1.33823 0
M  V30 4307 C 417.309 0.734414 1.43049 0
M  V30 4308 O 418.499 1.00266 1.42452 0
M  V30 4309 C 415.631 2.05305 2.72144 0
M  V30 4310 H 416.824 2.79984 1.07465 0
M  V30 4311 H 414.377 1.47223 0.524902 0
M  V30 4312 H 415.112 1.1373 3.03704 0
M  V30 4313 H 414.897 2.873 2.66836 0
M  V30 4314 H 416.387 2.30706 3.48087 0
M  V30 4315 N 416.824 -0.551391 1.4764 0
M  V30 4316 C 417.787 -1.64007 1.60107 0
M  V30 4317 C 418.787 -1.53601 0.47576 0
M  V30 4318 O 419.977 -1.57655 0.740988 0
M  V30 4319 C 417.109 -3.03569 1.55108 0
M  V30 4320 H 418.302 -1.543 2.57161 0
M  V30 4321 H 415.855 -0.771776 1.35917 0
M  V30 4322 H 416.59 -3.18804 0.594519 0
M  V30 4323 H 416.375 -3.12532 2.36783 0
M  V30 4324 H 417.865 -3.82762 1.66982 0
M  V30 4325 N 418.302 -1.35869 -0.798587 0
M  V30 4326 C 419.265 -1.29307 -1.89242 0
M  V30 4327 C 420.265 -0.202747 -1.59517 0
M  V30 4328 O 421.455 -0.456957 -1.681 0
M  V30 4329 C 418.587 -1.00229 -3.25833 0
M  V30 4330 H 419.78 -2.26576 -1.96478 0
M  V30 4331 H 417.333 -1.20509 -0.995358 0
M  V30 4332 H 418.068 -0.033801 -3.24282 0
M  V30 4333 H 417.853 -1.79121 -3.48795 0
M  V30 4334 H 419.343 -0.98219 -4.05885 0
M  V30 4335 N 419.78 1.02168 -1.19998 0
M  V30 4336 C 420.727 2.10601 -0.944228 0
M  V30 4337 C 421.697 1.65639 0.123664 0
M  V30 4338 O 422.882 1.9079 -0.0199941 0
M  V30 4339 C 420.022 3.41504 -0.496865 0
M  V30 4340 C 419.135 3.99973 -1.63234 0
M  V30 4341 C 418.27 5.18915 -1.13579 0
M  V30 4342 C 417.309 5.69456 -2.24468 0
M  V30 4343 N 416.446 6.79665 -1.76068 0
M  V30 4344 H 421.286 2.31814 -1.8726 0
M  V30 4345 H 418.823 1.13686 -0.933483 0
M  V30 4346 H 420.781 4.16626 -0.218843 0
M  V30 4347 H 419.411 3.2038 0.394508 0
M  V30 4348 H 418.463 3.21997 -2.0254 0
M  V30 4349 H 419.775 4.33492 -2.46752 0
M  V30 4350 H 418.929 6.01222 -0.813429 0
M  V30 4351 H 417.668 4.8695 -0.270434 0
M  V30 4352 H 416.673 4.85757 -2.57526 0
M  V30 4353 H 417.898 6.03459 -3.11472 0
M  V30 4354 H 415.844 6.49538 -0.918516 0
M  V30 4355 H 415.761 7.12349 -2.5317 0
M  V30 4356 H 417.029 7.65549 -1.46817 0
M  V30 4357 N 421.258 1.00505 1.21394 0
M  V30 4358 C 422.507 0.683159 1.89778 0
M  V30 4359 C 422.82 -0.789471 1.7896 0
M  V30 4360 O 424.026 -1.22344 2.42372 0
M  V30 4361 C 422.482 1.17146 3.40301 0
M  V30 4362 C 422.09 2.67017 3.5973 0
M  V30 4363 C 423.834 0.924461 4.14311 0
M  V30 4364 C 421.741 3.09387 5.04017 0
M  V30 4365 H 420.671 0.25183 0.710702 0
M  V30 4366 H 423.322 1.21622 1.37406 0
M  V30 4367 H 421.704 0.566451 3.91928 0
M  V30 4368 H 422.878 3.32968 3.18542 0
M  V30 4369 H 421.193 2.89732 2.99073 0
M  V30 4370 H 423.79 1.21658 5.20676 0
M  V30 4371 H 424.133 -0.139286 4.16067 0
M  V30 4372 H 424.666 1.49226 3.6875 0
M  V30 4373 H 421.405 4.14989 5.07409 0
M  V30 4374 H 420.925 2.48149 5.46061 0
M  V30 4375 H 422.604 3.01371 5.72525 0
M  V30 4376 N 422.737 -1.36956 0.779787 0
M  V30 4377 C 423.983 -1.99787 0.348281 0
M  V30 4378 C 424.316 -1.61756 -1.07465 0
M  V30 4379 O 423.591 -0.867639 -1.74075 0
M  V30 4380 C 423.874 -3.56597 0.50104 0
M  V30 4381 C 423.727 -4.04513 1.96697 0
M  V30 4382 C 425.046 -4.40008 -0.0898097 0
M  V30 4383 H 422.165 -0.725796 0.128022 0
M  V30 4384 H 424.807 -1.62514 0.984331 0
M  V30 4385 H 422.957 -3.88479 -0.0404347 0
M  V30 4386 H 424.629 -3.83161 2.56876 0
M  V30 4387 H 422.872 -3.56408 2.47297 0
M  V30 4388 H 423.543 -5.1352 2.02486 0
M  V30 4389 H 426.019 -4.14431 0.372293 0
M  V30 4390 H 424.895 -5.4888 0.0471605 0
M  V30 4391 H 425.156 -4.26035 -1.18096 0
M  V30 4392 N 424.215 -0.530993 -1.48385 0
M  V30 4393 C 425.443 -0.00134122 -2.069 0
M  V30 4394 C 425.858 1.2805 -1.3874 0
M  V30 4395 O 425.215 1.76204 -0.475244 0
M  V30 4396 C 425.266 0.225256 -3.60798 0
M  V30 4397 O 424.987 -1.0058 -4.26398 0
M  V30 4398 C 426.488 0.795172 -4.3611 0
M  V30 4399 H 423.708 -0.0339704 -0.67014 0
M  V30 4400 H 426.252 -0.736926 -1.90761 0
M  V30 4401 H 424.407 0.910891 -3.76539 0
M  V30 4402 H 424.821 -0.787165 -5.1856 0
M  V30 4403 H 426.295 0.903143 -5.44562 0
M  V30 4404 H 426.772 1.80031 -4.00606 0
M  V30 4405 H 427.378 0.146069 -4.25049 0
M  V30 4406 N 425.693 1.55336 -0.266172 0
M  V30 4407 C 426.643 2.18848 0.639497 0
M  V30 4408 C 427.627 1.1503 1.12503 0
M  V30 4409 O 428.819 1.40875 1.0716 0
M  V30 4410 C 425.948 2.90626 1.82733 0
M  V30 4411 C 425.034 4.01723 1.35939 0
M  V30 4412 N 425.425 5.02145 0.606988 0
M  V30 4413 C 423.723 4.1463 1.6431 0
M  V30 4414 C 424.424 5.80572 0.362138 0
M  V30 4415 N 423.4 5.35551 0.931971 0
M  V30 4416 H 427.202 2.93845 0.0567057 0
M  V30 4417 H 424.716 1.62252 -0.0693312 0
M  V30 4418 H 426.713 3.34569 2.48735 0
M  V30 4419 H 425.373 2.17137 2.41416 0
M  V30 4420 H 426.384 5.17271 0.255198 0
M  V30 4421 H 423.061 3.52326 2.23993 0
M  V30 4422 H 424.451 6.71472 -0.239848 0
M  V30 4423 N 427.171 -0.0066808 1.57599 0
M  V30 4424 C 428.419 -0.691552 1.899 0
M  V30 4425 C 428.74 -1.74682 0.866672 0
M  V30 4426 O 428.01 -1.95661 -0.0968189 0
M  V30 4427 H 426.59 -0.258416 0.700878 0
M  V30 4428 H 429.252 0.0326655 1.94873 0
M  V30 4429 H 428.348 -1.16702 2.8946 0
M  V30 4430 N 428.649 -1.55105 -0.279332 0
M  V30 4431 C 429.896 -1.75412 -1.01177 0
M  V30 4432 C 430.224 -0.551728 -1.86511 0
M  V30 4433 O 429.479 0.465919 -1.90073 0
M  V30 4434 C 429.778 -3.0086 -1.92919 0
M  V30 4435 C 429.444 -4.33689 -1.23387 0
M  V30 4436 C 428.106 -4.69792 -1.04159 0
M  V30 4437 C 430.458 -5.15941 -0.738562 0
M  V30 4438 C 427.786 -5.85707 -0.341166 0
M  V30 4439 C 430.138 -6.32579 -0.0517636 0
M  V30 4440 C 428.802 -6.67326 0.152292 0
M  V30 4441 H 428.072 -0.641879 -0.370233 0
M  V30 4442 H 430.719 -1.89373 -0.284627 0
M  V30 4443 H 429.024 -2.81773 -2.72234 0
M  V30 4444 H 430.721 -3.13768 -2.49701 0
M  V30 4445 H 427.311 -4.05309 -1.39364 0
M  V30 4446 H 431.495 -4.8853 -0.874764 0
M  V30 4447 H 426.751 -6.11157 -0.172287 0
M  V30 4448 H 430.925 -6.9557 0.339828 0
M  V30 4449 H 428.552 -7.56998 0.697014 0
M  V30 4450 O 430.166 0.425144 -1.55804 0
M  V30 4451 H 430.857 1.07829 -1.60912 0
M  V30 END ATOM
M  V30 BEGIN BOND
M  V30 END BOND
M  V30 END CTAB
M  END
$$$$
