drugbank_target|P0A6I8 Phosphopantetheine adenylyltransferase (DB01992; DB03170; DB03912)
 OpenBabel12092119593D

  0  0  0     0  0            999 V3000
M  V30 BEGIN CTAB
M  V30 COUNTS 2507 2535 0 0 0
M  V30 BEGIN ATOM
M  V30 1 H -0.908 1.98254 -0.117106 0
M  V30 2 N 0 1.576 0 0
M  V30 3 C 0.933 2.03868 1.02534 0
M  V30 4 C 1.911 0.928543 1.3348 0
M  V30 5 O 3.095 1.19667 1.45644 0
M  V30 6 C 0.222 2.43627 2.35294 0
M  V30 7 C -0.732 3.65373 2.2001 0
M  V30 8 S 0.101 5.13292 1.52614 0
M  V30 9 C 1.257 5.56322 2.86805 0
M  V30 10 H 1.49 2.90518 0.631377 0
M  V30 11 H -0.977 1.52953 0.210867 0
M  V30 12 H 0.981 2.67203 3.11629 0
M  V30 13 H -0.358 1.57376 2.7183 0
M  V30 14 H -1.165 3.90944 3.18086 0
M  V30 15 H -1.563 3.418 1.51819 0
M  V30 16 H 0.729 5.58782 3.83104 0
M  V30 17 H 1.672 6.56266 2.65933 0
M  V30 18 H 2.08 4.83886 2.90714 0
M  V30 19 N 1.4781 -0.272755 1.55222 0
M  V30 20 C 2.4101 -1.35946 1.8453 0
M  V30 21 C 3.4231 -1.45525 0.729818 0
M  V30 22 O 4.6121 -1.47337 1.00767 0
M  V30 23 C 1.7121 -2.74069 1.99347 0
M  V30 24 C 0.8851 -2.87079 3.30007 0
M  V30 25 C -0.0559 -4.05879 3.34886 0
M  V30 26 O -1.0299 -3.96626 4.08261 0
M  V30 27 N 0.1721 -5.17857 2.62307 0
M  V30 28 H 2.9371 -1.11149 2.78327 0
M  V30 29 H 0.4981 -0.462869 1.55142 0
M  V30 30 H 2.4901 -3.51838 1.99981 0
M  V30 31 H 1.0601 -2.91688 1.12415 0
M  V30 32 H 0.2801 -1.96193 3.41909 0
M  V30 33 H 1.5681 -2.92701 4.16177 0
M  V30 34 H 0.9661 -5.28261 2.02377 0
M  V30 35 H -0.4769 -5.93855 2.68663 0
M  V30 36 N 2.9562 -1.48159 -0.537278 0
M  V30 37 C 3.9032 -1.62138 -1.64256 0
M  V30 38 C 4.8732 -0.463668 -1.59497 0
M  V30 39 O 6.0582 -0.686241 -1.78032 0
M  V30 40 C 3.1982 -1.66028 -3.02537 0
M  V30 41 C 2.3112 -2.92855 -3.17585 0
M  V30 42 C 1.4462 -2.87952 -4.46382 0
M  V30 43 C 0.4852 -4.09516 -4.54932 0
M  V30 44 N -0.3778 -4.02733 -5.75109 0
M  V30 45 H 4.4622 -2.56529 -1.51647 0
M  V30 46 H 1.9992 -1.27224 -0.738414 0
M  V30 47 H 3.9572 -1.66265 -3.82638 0
M  V30 48 H 2.5872 -0.751331 -3.13934 0
M  V30 49 H 1.6392 -3.02395 -2.30784 0
M  V30 50 H 2.9512 -3.82822 -3.19764 0
M  V30 51 H 2.1052 -2.8655 -5.34765 0
M  V30 52 H 0.8442 -1.95702 -4.46712 0
M  V30 53 H -0.1508 -4.11201 -3.64957 0
M  V30 54 H 1.0742 -5.02917 -4.56346 0
M  V30 55 H -0.9798 -3.13299 -5.76351 0
M  V30 56 H -1.0628 -4.86397 -5.78752 0
M  V30 57 H 0.2052 -4.05379 -6.65799 0
M  V30 58 N 4.4343 0.785586 -1.36625 0
M  V30 59 C 5.8503 1.08419 -1.17122 0
M  V30 60 C 6.0503 2.015 0.00208491 0
M  V30 61 O 5.1063 2.43551 0.666278 0
M  V30 62 C 6.4193 1.69498 -2.48377 0
M  V30 63 C 7.9673 1.81821 -2.54775 0
M  V30 64 C 8.4423 2.46315 -3.86126 0
M  V30 65 N 9.9333 2.53779 -3.87492 0
M  V30 66 C 10.6683 3.045 -4.85868 0
M  V30 67 N 10.1643 3.55499 -5.94637 0
M  V30 68 N 11.9573 3.03247 -4.73284 0
M  V30 69 H 4.1083 0.167264 -2.1174 0
M  V30 70 H 6.3713 0.13682 -0.938075 0
M  V30 71 H 6.0773 1.08571 -3.34522 0
M  V30 72 H 5.9513 2.6896 -2.64462 0
M  V30 73 H 8.3383 2.41884 -1.69045 0
M  V30 74 H 8.4193 0.811532 -2.42586 0
M  V30 75 H 8.0633 1.86895 -4.72263 0
M  V30 76 H 7.9933 3.47561 -3.95612 0
M  V30 77 H 10.4843 2.17672 -3.08913 0
M  V30 78 H 10.7973 3.92562 -6.65669 0
M  V30 79 H 9.1423 3.5364 -5.98301 0
M  V30 80 H 12.3333 2.62696 -3.87438 0
M  V30 81 H 12.5063 3.42467 -5.50109 0
M  V30 82 N 5.9124 1.20967 1.01018 0
M  V30 83 C 6.8754 0.965918 2.07853 0
M  V30 84 C 7.8754 -0.0610545 1.60684 0
M  V30 85 O 9.0654 0.175681 1.73312 0
M  V30 86 C 6.1974 0.455513 3.37843 0
M  V30 87 H 7.3904 1.91365 2.3091 0
M  V30 88 H 4.9434 1.02594 1.17916 0
M  V30 89 H 5.6784 -0.497381 3.20463 0
M  V30 90 H 5.4634 1.19622 3.73407 0
M  V30 91 H 6.9534 0.304667 4.16487 0
M  V30 92 N 7.3905 -1.2043 1.01659 0
M  V30 93 C 8.6395 -1.89118 0.701237 0
M  V30 94 C 8.9525 -1.79705 -0.772358 0
M  V30 95 O 10.1585 -2.43528 -1.20026 0
M  V30 96 C 8.6145 -3.39168 1.20388 0
M  V30 97 C 8.2225 -3.57166 2.70438 0
M  V30 98 C 9.9665 -4.1341 0.963953 0
M  V30 99 C 7.8735 -5.01042 3.14183 0
M  V30 100 H 6.8035 -0.708267 0.2586 0
M  V30 101 H 9.4545 -1.36239 1.22927 0
M  V30 102 H 7.8365 -3.91369 0.603824 0
M  V30 103 H 9.0105 -3.15351 3.35992 0
M  V30 104 H 7.3255 -2.96294 2.92572 0
M  V30 105 H 9.9225 -5.19491 1.26621 0
M  V30 106 H 10.2655 -4.16181 -0.099578 0
M  V30 107 H 10.7985 -3.67309 1.52738 0
M  V30 108 H 7.5375 -5.03426 4.19812 0
M  V30 109 H 7.0575 -5.43668 2.53348 0
M  V30 110 H 8.7365 -5.69623 3.0682 0
M  V30 111 N 8.8686 -0.792821 -1.36206 0
M  V30 112 C 10.0986 -0.378275 -2.03107 0
M  V30 113 C 10.5066 1.01119 -1.59911 0
M  V30 114 O 9.8496 1.66052 -0.785658 0
M  V30 115 C 9.9116 -0.366535 -3.57627 0
M  V30 116 C 9.5756 -1.70416 -4.24037 0
M  V30 117 C 10.5726 -2.6602 -4.46687 0
M  V30 118 C 8.2576 -1.98439 -4.6144 0
M  V30 119 C 10.2516 -3.8784 -5.05825 0
M  V30 120 C 7.9386 -3.20525 -5.20295 0
M  V30 121 C 8.9366 -4.15044 -5.42427 0
M  V30 122 O 8.6246 -5.34978 -6.00045 0
M  V30 123 H 8.3566 -0.153543 -0.658332 0
M  V30 124 H 10.9106 -1.07383 -1.75094 0
M  V30 125 H 9.1406 0.385539 -3.84773 0
M  V30 126 H 10.8296 0.0238088 -4.05893 0
M  V30 127 H 11.5956 -2.45658 -4.18183 0
M  V30 128 H 7.4746 -1.25686 -4.43536 0
M  V30 129 H 11.0186 -4.61628 -5.23015 0
M  V30 130 H 6.9156 -3.40764 -5.48225 0
M  V30 131 H 7.6836 -5.36088 -6.18508 0
M  V30 132 N 10.3467 1.47872 -0.545128 0
M  V30 133 C 11.7577 1.86384 -0.108581 0
M  V30 134 C 12.1087 1.45309 1.31832 0
M  V30 135 O 11.2337 0.850641 1.9898 0
M  V30 136 C 11.8287 3.38265 -0.190274 0
M  V30 137 C 10.3877 3.75914 0.191164 0
M  V30 138 C 9.5347 2.71926 -0.543273 0
M  V30 139 H 12.4857 1.39561 -0.755537 0
M  V30 140 H 12.5067 3.75831 0.594217 0
M  V30 141 H 12.0187 3.6813 -1.2289 0
M  V30 142 H 10.1197 3.51665 1.23136 0
M  V30 143 H 10.2327 4.78836 -0.158987 0
M  V30 144 H 8.5967 2.54697 0.0122495 0
M  V30 145 H 9.3797 3.04634 -1.58282 0
M  V30 146 N 11.8248 0.280983 1.55075 0
M  V30 147 C 13.0728 -0.333455 1.9933 0
M  V30 148 C 13.3938 -1.55937 1.17085 0
M  V30 149 O 12.6638 -1.94143 0.261805 0
M  V30 150 H 11.2438 -0.126197 0.736263 0
M  V30 151 H 13.9058 0.387678 1.91005 0
M  V30 152 H 13.0018 -0.619292 3.05894 0
M  V30 153 N 13.3029 -1.57598 0.00835791 0
M  V30 154 C 14.5309 -1.95214 -0.68549 0
M  V30 155 C 14.9459 -0.883706 -1.66841 0
M  V30 156 O 14.3029 0.136565 -1.81988 0
M  V30 157 C 14.3539 -3.32865 -1.41007 0
M  V30 158 O 14.0749 -4.35609 -0.466552 0
M  V30 159 C 15.5759 -3.84991 -2.19765 0
M  V30 160 H 12.7959 -0.643422 -0.190392 0
M  V30 161 H 15.3399 -2.04406 0.0619607 0
M  V30 162 H 13.4949 -3.24956 -2.10908 0
M  V30 163 H 13.9089 -5.15288 -0.978699 0
M  V30 164 H 15.3829 -4.8371 -2.65948 0
M  V30 165 H 15.8599 -3.18137 -3.02796 0
M  V30 166 H 16.4659 -3.96103 -1.54864 0
M  V30 167 N 14.781 0.264519 -1.55364 0
M  V30 168 C 16.028 0.994986 -1.7637 0
M  V30 169 C 16.356 1.85976 -0.5695 0
M  V30 170 O 15.611 1.90509 0.44776 0
M  V30 171 C 15.91 1.9004 -3.02687 0
M  V30 172 C 15.576 1.19243 -4.34847 0
M  V30 173 C 14.238 0.996709 -4.70764 0
M  V30 174 C 16.59 0.689296 -5.16622 0
M  V30 175 C 13.918 0.285261 -5.86006 0
M  V30 176 C 16.27 -0.00860079 -6.32599 0
M  V30 177 C 14.934 -0.215963 -6.67151 0
M  V30 178 H 14.204 0.364091 -0.645383 0
M  V30 179 H 16.851 0.266543 -1.89636 0
M  V30 180 H 15.156 2.69533 -2.84357 0
M  V30 181 H 16.853 2.46695 -3.16137 0
M  V30 182 H 13.443 1.3549 -4.06621 0
M  V30 183 H 17.627 0.828108 -4.89342 0
M  V30 184 H 12.883 0.113961 -6.11294 0
M  V30 185 H 17.057 -0.406186 -6.95214 0
M  V30 186 H 14.684 -0.769217 -7.56298 0
M  V30 187 N 16.2591 1.48442 0.529413 0
M  V30 188 C 17.5361 1.46978 1.29062 0
M  V30 189 C 17.9161 0.181769 2.10316 0
M  V30 190 O 17.2641 -0.836481 2.12639 0
M  V30 191 C 17.4741 2.7321 2.17157 0
M  V30 192 C 18.8221 3.21562 2.77278 0
M  V30 193 O 19.8461 2.74131 2.27444 0
M  V30 194 O 18.7051 4.04094 3.67927 0
M  V30 195 H 15.7991 0.587003 0.582543 0
M  V30 196 H 18.3451 1.60676 0.546021 0
M  V30 197 H 17.1171 3.58465 1.56903 0
M  V30 198 H 16.7401 2.62235 2.98862 0
M  V30 199 N 17.7372 -0.778329 1.37039 0
M  V30 200 C 19.1482 -1.35421 1.28523 0
M  V30 201 C 19.4992 -1.96075 -0.0700901 0
M  V30 202 O 18.6242 -1.93352 -0.971801 0
M  V30 203 C 19.2192 -2.46211 2.32735 0
M  V30 204 C 17.7782 -2.99585 2.27873 0
M  V30 205 C 16.9252 -1.72748 2.16918 0
M  V30 206 H 19.8762 -0.5791 1.47757 0
M  V30 207 H 19.8972 -3.2552 1.9702 0
M  V30 208 H 19.4092 -2.02036 3.31365 0
M  V30 209 H 17.5102 -3.48152 1.32745 0
M  V30 210 H 17.6232 -3.55646 3.21018 0
M  V30 211 H 15.9872 -1.95416 1.63354 0
M  V30 212 H 16.7702 -1.30686 3.17452 0
M  V30 213 N 19.2153 -1.21501 -1.00376 0
M  V30 214 C 20.4643 -1.02718 -1.73586 0
M  V30 215 C 20.7773 0.439589 -1.90596 0
M  V30 216 O 21.9833 0.746848 -2.61026 0
M  V30 217 C 20.4393 -1.78929 -3.1227 0
M  V30 218 C 20.0473 -3.29783 -3.03228 0
M  V30 219 C 21.7913 -1.68557 -3.89601 0
M  V30 220 C 19.6983 -3.98479 -4.36999 0
M  V30 221 H 18.6283 -0.380733 -0.650814 0
M  V30 222 H 21.2793 -1.45248 -1.1214 0
M  V30 223 H 19.6613 -1.29192 -3.74333 0
M  V30 224 H 20.8353 -3.86832 -2.50395 0
M  V30 225 H 19.1503 -3.40711 -2.39385 0
M  V30 226 H 21.7473 -2.17211 -4.88593 0
M  V30 227 H 22.0903 -0.644021 -4.11288 0
M  V30 228 H 22.6233 -2.15778 -3.34193 0
M  V30 229 H 19.3623 -5.02841 -4.20513 0
M  V30 230 H 18.8823 -3.46219 -4.89788 0
M  V30 231 H 20.5613 -4.03462 -5.05794 0
M  V30 232 N 20.6934 1.19889 -1.02296 0
M  V30 233 C 21.9214 1.9339 -0.735399 0
M  V30 234 C 22.3364 1.75148 0.704887 0
M  V30 235 O 21.6934 1.06954 1.47875 0
M  V30 236 C 21.7444 3.45313 -1.06962 0
M  V30 237 O 21.4654 3.62964 -2.45334 0
M  V30 238 C 22.9664 4.35948 -0.804021 0
M  V30 239 H 20.1864 0.61448 -0.269546 0
M  V30 240 H 22.7304 1.522 -1.36585 0
M  V30 241 H 20.8854 3.84359 -0.484455 0
M  V30 242 H 21.2994 4.56886 -2.57595 0
M  V30 243 H 22.7734 5.41174 -1.0879 0
M  V30 244 H 23.2504 4.3842 0.261691 0
M  V30 245 H 23.8564 4.02574 -1.37164 0
M  V30 246 N 22.1715 0.800033 1.35784 0
M  V30 247 C 23.1195 0.193851 2.31791 0
M  V30 248 C 24.1135 -0.652744 1.56319 0
M  V30 249 O 25.3195 -0.546641 1.71499 0
M  V30 250 H 21.6945 0.04392 0.750716 0
M  V30 251 H 23.6655 1.01883 2.80468 0
M  V30 252 C 22.4145 -0.648338 3.41602 0
M  V30 253 H 21.7375 -0.00624665 3.998 0
M  V30 254 H 23.1775 -1.03898 4.11073 0
M  V30 255 C 21.6365 -1.8111 2.84079 0
M  V30 256 O 22.1665 -2.90825 2.77099 0
M  V30 257 N 20.3725 -1.62056 2.41218 0
M  V30 258 H 19.9195 -0.728123 2.47095 0
M  V30 259 H 19.8775 -2.40013 2.03079 0
M  V30 260 N 23.6496 -1.47581 0.552962 0
M  V30 261 C 24.8976 -2.02082 0.0272703 0
M  V30 262 C 25.2186 -1.4301 -1.32563 0
M  V30 263 O 24.4886 -0.603745 -1.86365 0
M  V30 264 H 23.0686 -0.746966 0.00709182 0
M  V30 265 H 25.7306 -1.81033 0.722008 0
M  V30 266 H 24.8266 -3.12034 -0.0639951 0
M  V30 267 N 25.1277 -0.289203 -1.54924 0
M  V30 268 C 26.0777 0.606939 -2.19773 0
M  V30 269 C 27.0617 1.10783 -1.16687 0
M  V30 270 O 28.2537 1.05057 -1.4245 0
M  V30 271 C 25.3827 1.78398 -2.93307 0
M  V30 272 C 24.4687 1.29961 -4.03697 0
M  V30 273 N 24.8597 0.532377 -5.0299 0
M  V30 274 C 23.1577 1.58136 -4.17024 0
M  V30 275 C 23.8587 0.275912 -5.81045 0
M  V30 276 N 22.8347 0.852365 -5.36876 0
M  V30 277 H 26.6367 0.0130779 -2.93897 0
M  V30 278 H 24.1507 -0.09341 -1.62131 0
M  V30 279 H 26.1477 2.43741 -3.38225 0
M  V30 280 H 24.8077 2.38166 -2.20697 0
M  V30 281 H 25.8187 0.17838 -5.17593 0
M  V30 282 H 22.4957 2.18738 -3.55612 0
M  V30 283 H 23.8857 -0.339502 -6.71042 0
M  V30 284 N 26.6058 1.57591 -0.0167156 0
M  V30 285 C 27.8548 1.90461 0.663877 0
M  V30 286 C 28.1678 0.893515 1.73999 0
M  V30 287 O 29.3738 1.11302 2.47637 0
M  V30 288 C 27.8298 3.38155 1.23204 0
M  V30 289 C 27.4378 4.47597 0.189866 0
M  V30 290 C 29.1818 3.80111 1.88986 0
M  V30 291 C 27.0888 5.86379 0.768964 0
M  V30 292 H 26.0188 0.710738 0.251729 0
M  V30 293 H 28.6698 1.83326 -0.0799926 0
M  V30 294 H 27.0518 3.40182 2.02712 0
M  V30 295 H 28.2258 4.57112 -0.581846 0
M  V30 296 H 26.5408 4.14766 -0.368475 0
M  V30 297 H 29.1378 4.81145 2.33247 0
M  V30 298 H 29.4808 3.14511 2.72743 0
M  V30 299 H 30.0138 3.80454 1.16187 0
M  V30 300 H 26.7528 6.55493 -0.0301957 0
M  V30 301 H 26.2728 5.80496 1.50945 0
M  V30 302 H 27.9518 6.34563 1.26251 0
M  V30 303 N 28.0839 -0.256276 1.55502 0
M  V30 304 C 29.3609 -1.00789 1.67633 0
M  V30 305 C 29.7409 -2.03706 0.553826 0
M  V30 306 O 29.0889 -2.24145 -0.443969 0
M  V30 307 C 29.2989 -1.64968 3.07549 0
M  V30 308 C 30.6469 -2.15505 3.65845 0
M  V30 309 O 31.6709 -1.74925 3.1029 0
M  V30 310 O 30.5299 -2.89986 4.63217 0
M  V30 311 H 27.6239 -0.468553 0.681459 0
M  V30 312 H 30.1699 -0.250806 1.67836 0
M  V30 313 H 28.9419 -0.904785 3.80696 0
M  V30 314 H 28.5649 -2.47321 3.11317 0
M  V30 315 N 29.562 -1.4872 -0.521534 0
M  V30 316 C 30.811 -1.56419 -1.27341 0
M  V30 317 C 31.124 -0.246805 -1.94037 0
M  V30 318 O 32.33 -0.202122 -2.70747 0
M  V30 319 C 30.786 -2.75896 -2.31105 0
M  V30 320 C 30.394 -4.14311 -1.70441 0
M  V30 321 C 32.138 -2.92913 -3.07249 0
M  V30 322 C 30.045 -5.25038 -2.72194 0
M  V30 323 H 28.975 -0.582344 -0.478949 0
M  V30 324 H 31.626 -1.75071 -0.549779 0
M  V30 325 H 30.008 -2.50697 -3.06541 0
M  V30 326 H 31.182 -4.49564 -1.01136 0
M  V30 327 H 29.497 -4.02482 -1.06759 0
M  V30 328 H 32.094 -3.72805 -3.83302 0
M  V30 329 H 32.437 -2.02689 -3.63625 0
M  V30 330 H 32.97 -3.18054 -2.38928 0
M  V30 331 H 29.709 -6.17255 -2.20627 0
M  V30 332 H 29.229 -4.94263 -3.39801 0
M  V30 333 H 30.908 -5.53508 -3.35019 0
M  V30 334 N 31.0401 0.771051 -1.3745 0
M  V30 335 C 32.2861 1.5319 -1.32894 0
M  V30 336 C 32.6191 1.94008 0.0862511 0
M  V30 337 O 31.8941 1.64124 1.04373 0
M  V30 338 C 32.1771 2.79648 -2.26868 0
M  V30 339 C 32.0301 2.45079 -3.77169 0
M  V30 340 C 33.3491 3.81583 -2.19277 0
M  V30 341 H 30.4681 0.555744 -0.484064 0
M  V30 342 H 33.1101 0.884492 -1.68157 0
M  V30 343 H 31.2601 3.34891 -1.96926 0
M  V30 344 H 32.9321 1.95745 -4.1771 0
M  V30 345 H 31.1751 1.77767 -3.95704 0
M  V30 346 H 31.8461 3.35478 -4.38359 0
M  V30 347 H 34.3221 3.35835 -2.45671 0
M  V30 348 H 33.1981 4.67787 -2.87171 0
M  V30 349 H 33.4591 4.25897 -1.18592 0
M  V30 350 N 32.5182 1.22032 0.997298 0
M  V30 351 C 33.7462 1.06841 1.7718 0
M  V30 352 C 34.1612 -0.381325 1.84909 0
M  V30 353 O 33.5182 -1.26437 1.31605 0
M  V30 354 C 33.5692 1.66814 3.20711 0
M  V30 355 O 33.2902 3.06116 3.13408 0
M  V30 356 C 34.7912 1.56838 4.14628 0
M  V30 357 H 32.0112 0.374782 0.556578 0
M  V30 358 H 34.5552 1.61532 1.2541 0
M  V30 359 H 32.7102 1.16196 3.69564 0
M  V30 360 H 33.1242 3.34926 4.0364 0
M  V30 361 H 34.5982 2.03532 5.13107 0
M  V30 362 H 35.0752 0.524155 4.36061 0
M  V30 363 H 35.6812 2.06741 3.7167 0
M  V30 364 N 33.9963 -1.19345 1.0293 0
M  V30 365 C 35.4123 -1.41069 0.746446 0
M  V30 366 C 35.6123 -1.90078 -0.668776 0
M  V30 367 O 34.6683 -2.0778 -1.4347 0
M  V30 368 C 35.9813 -2.42141 1.78292 0
M  V30 369 C 37.5293 -2.55887 1.80252 0
M  V30 370 C 38.0043 -3.60214 2.8286 0
M  V30 371 N 39.4953 -3.67711 2.81679 0
M  V30 372 C 40.2303 -4.48128 3.57727 0
M  V30 373 N 39.7263 -5.32248 4.43491 0
M  V30 374 N 41.5193 -4.42782 3.46267 0
M  V30 375 H 33.6703 -0.858536 1.94275 0
M  V30 376 H 35.9333 -0.439541 0.839945 0
M  V30 377 H 35.6393 -2.13155 2.79746 0
M  V30 378 H 35.5133 -3.41323 1.60557 0
M  V30 379 H 37.9003 -2.84196 0.794757 0
M  V30 380 H 37.9813 -1.56858 2.02062 0
M  V30 381 H 37.6253 -3.32647 3.83807 0
M  V30 382 H 37.5553 -4.58895 2.58307 0
M  V30 383 H 40.0463 -3.07634 2.19476 0
M  V30 384 H 40.3593 -5.90729 4.98256 0
M  V30 385 H 38.7043 -5.31707 4.47564 0
M  V30 386 H 41.8953 -3.76107 2.78677 0
M  V30 387 H 42.0683 -5.05215 4.05785 0
M  V30 388 N 35.4744 -0.807222 -1.35358 0
M  V30 389 C 36.4374 -0.223665 -2.28106 0
M  V30 390 C 37.4374 0.589354 -1.4961 0
M  V30 391 O 38.6274 0.407745 -1.69361 0
M  V30 392 C 35.7594 0.688149 -3.33882 0
M  V30 393 H 36.9524 -1.04169 -2.81227 0
M  V30 394 H 34.5054 -0.577921 -1.45223 0
M  V30 395 H 35.2404 1.52984 -2.85948 0
M  V30 396 H 35.0254 0.10687 -3.91954 0
M  V30 397 H 36.5154 1.09075 -4.03104 0
M  V30 398 N 36.9525 1.47285 -0.560781 0
M  V30 399 C 38.1805 2.06855 -0.0430262 0
M  V30 400 C 38.5955 1.41291 1.25229 0
M  V30 401 O 37.9525 0.510648 1.7521 0
M  V30 402 C 38.0035 3.61178 0.152518 0
M  V30 403 O 37.7245 4.24285 -1.0915 0
M  V30 404 C 39.2255 4.37624 0.707145 0
M  V30 405 H 36.4455 0.669319 -0.0474652 0
M  V30 406 H 38.9895 1.89237 -0.77521 0
M  V30 407 H 37.1445 3.78298 0.834843 0
M  V30 408 H 37.5585 5.16868 -0.891482 0
M  V30 409 H 39.0325 5.46271 0.793244 0
M  V30 410 H 39.5095 4.04152 1.71923 0
M  V30 411 H 40.1155 4.25257 0.0604027 0
M  V30 412 N 38.4306 0.297415 1.54768 0
M  V30 413 C 39.3626 -0.613881 2.20826 0
M  V30 414 C 40.3756 -1.10032 1.19987 0
M  V30 415 O 41.5646 -1.01839 1.46598 0
M  V30 416 C 38.6646 -1.852 2.83821 0
M  V30 417 C 37.8376 -1.50865 4.10559 0
M  V30 418 C 36.8966 -2.60154 4.57391 0
M  V30 419 O 35.9226 -2.25398 5.2267 0
M  V30 420 N 37.1246 -3.90629 4.29406 0
M  V30 421 H 39.8896 -0.048389 2.99661 0
M  V30 422 H 37.4506 0.11946 1.61459 0
M  V30 423 H 39.4426 -2.57652 3.12086 0
M  V30 424 H 38.0126 -2.32597 2.08847 0
M  V30 425 H 37.2326 -0.616925 3.89343 0
M  V30 426 H 38.5206 -1.25458 4.9309 0
M  V30 427 H 37.9186 -4.21677 3.77101 0
M  V30 428 H 36.4756 -4.59391 4.62388 0
M  V30 429 N 39.9087 -1.5758 0.0250728 0
M  V30 430 C 40.8417 -2.05473 -0.992777 0
M  V30 431 C 41.8197 -0.949661 -1.31986 0
M  V30 432 O 43.0037 -1.21969 -1.43722 0
M  V30 433 C 40.1307 -2.4734 -2.31389 0
M  V30 434 C 39.1767 -3.68827 -2.1417 0
M  V30 435 S 40.0097 -5.15655 -1.44429 0
M  V30 436 C 41.1657 -5.60814 -2.77918 0
M  V30 437 H 41.3987 -2.91486 -0.585078 0
M  V30 438 H 38.9317 -1.53269 -0.186507 0
M  V30 439 H 40.8897 -2.72127 -3.07339 0
M  V30 440 H 39.5507 -1.6168 -2.69292 0
M  V30 441 H 38.7437 -3.95955 -3.11826 0
M  V30 442 H 38.3457 -3.44172 -1.46362 0
M  V30 443 H 40.6377 -5.64806 -3.74166 0
M  V30 444 H 41.5807 -6.60414 -2.55459 0
M  V30 445 H 41.9887 -4.8845 -2.82979 0
M  V30 446 N 41.3868 0.248026 -1.55636 0
M  V30 447 C 42.6338 0.976224 -1.77415 0
M  V30 448 C 42.9618 1.85361 -0.589193 0
M  V30 449 O 42.2168 1.90973 0.427529 0
M  V30 450 C 42.5158 1.86819 -3.04686 0
M  V30 451 C 42.1818 1.14625 -4.36087 0
M  V30 452 C 40.8438 0.946723 -4.71795 0
M  V30 453 C 43.1958 0.634463 -5.17324 0
M  V30 454 C 40.5238 0.223091 -5.86276 0
M  V30 455 C 42.8758 -0.0756959 -6.32555 0
M  V30 456 C 41.5398 -0.286711 -6.66884 0
M  V30 457 H 40.8098 0.357226 -0.649208 0
M  V30 458 H 43.4568 0.246415 -1.89908 0
M  V30 459 H 41.7618 2.66502 -2.872 0
M  V30 460 H 43.4588 2.43329 -3.18735 0
M  V30 461 H 40.0488 1.3117 -4.08035 0
M  V30 462 H 44.2328 0.77616 -4.90193 0
M  V30 463 H 39.4888 0.0491185 -6.1138 0
M  V30 464 H 43.6628 -0.479899 -6.94745 0
M  V30 465 H 41.2898 -0.849389 -7.5544 0
M  V30 466 N 42.8649 1.48995 0.513639 0
M  V30 467 C 44.1419 1.48338 1.27495 0
M  V30 468 C 44.5219 0.204065 2.10111 0
M  V30 469 O 43.8699 -0.813881 2.13514 0
M  V30 470 C 44.0799 2.75498 2.14247 0
M  V30 471 C 45.4279 3.24484 2.73852 0
M  V30 472 O 46.4519 2.76528 2.24523 0
M  V30 473 O 45.3109 4.07974 3.6362 0
M  V30 474 H 42.4049 0.593149 0.576284 0
M  V30 475 H 44.9509 1.61246 0.528948 0
M  V30 476 H 43.7229 3.60109 1.53092 0
M  V30 477 H 43.3459 2.6539 2.96064 0
M  V30 478 N 44.343 -0.763751 1.37857 0
M  V30 479 C 45.293 -1.86765 1.30777 0
M  V30 480 C 46.277 -1.59726 0.194015 0
M  V30 481 O 47.469 -1.7172 0.42911 0
M  V30 482 C 44.598 -3.24343 1.12502 0
M  V30 483 C 43.684 -3.57307 2.28456 0
M  V30 484 N 44.075 -3.61398 3.53871 0
M  V30 485 C 42.373 -3.87517 2.20786 0
M  V30 486 C 43.074 -3.91339 4.30382 0
M  V30 487 N 42.05 -4.07649 3.59615 0
M  V30 488 H 45.852 -1.88191 2.25746 0
M  V30 489 H 43.366 -0.9606 1.30944 0
M  V30 490 H 45.363 -4.03327 1.05514 0
M  V30 491 H 44.023 -3.24175 0.184574 0
M  V30 492 H 45.034 -3.43407 3.87675 0
M  V30 493 H 41.711 -3.95125 1.34844 0
M  V30 494 H 43.101 -4.01213 5.3896 0
M  V30 495 N 45.8211 -1.22559 -0.990812 0
M  V30 496 C 47.0671 -1.05297 -1.73322 0
M  V30 497 C 47.4001 0.410655 -1.89808 0
M  V30 498 O 46.6751 1.30439 -1.44277 0
M  V30 499 C 46.9581 -1.76713 -3.13759 0
M  V30 500 C 46.8111 -3.30684 -3.04907 0
M  V30 501 C 48.1301 -1.52121 -4.12974 0
M  V30 502 H 45.2491 -0.38392 -0.629106 0
M  V30 503 H 47.8911 -1.50926 -1.15418 0
M  V30 504 H 46.0411 -1.37924 -3.63193 0
M  V30 505 H 47.7131 -3.7893 -2.63077 0
M  V30 506 H 45.9561 -3.60253 -2.41661 0
M  V30 507 H 46.6271 -3.75833 -4.04294 0
M  V30 508 H 49.1031 -1.85819 -3.72304 0
M  V30 509 H 47.9791 -2.04582 -5.0935 0
M  V30 510 H 48.2401 -0.454257 -4.3976 0
M  V30 511 N 47.2992 1.18797 -1.03562 0
M  V30 512 C 48.5482 1.87978 -0.731235 0
M  V30 513 C 48.8612 1.80911 0.743671 0
M  V30 514 O 50.0672 2.45407 1.16137 0
M  V30 515 C 48.5232 3.3721 -1.25768 0
M  V30 516 C 48.1312 3.52818 -2.76085 0
M  V30 517 C 49.8752 4.11825 -1.0296 0
M  V30 518 C 47.7822 4.9598 -3.22114 0
M  V30 519 H 46.7122 0.704063 -0.269835 0
M  V30 520 H 49.3632 1.34266 -1.25079 0
M  V30 521 H 47.7452 3.90359 -0.666011 0
M  V30 522 H 48.9192 3.09965 -3.40966 0
M  V30 523 H 47.2342 2.91602 -2.97249 0
M  V30 524 H 49.8312 5.17411 -1.34869 0
M  V30 525 H 50.1742 4.16287 0.0333546 0
M  V30 526 H 50.7072 3.64833 -1.58562 0
M  V30 527 H 47.4462 4.96684 -4.27768 0
M  V30 528 H 46.9662 5.39569 -2.61965 0
M  V30 529 H 48.6452 5.6467 -3.15844 0
M  V30 530 N 48.7773 0.814389 1.34928 0
M  V30 531 C 49.7073 0.244827 2.32213 0
M  V30 532 C 50.6883 -0.634024 1.57842 0
M  V30 533 O 51.8733 -0.562676 1.8587 0
M  V30 534 C 49.0033 -0.601106 3.42058 0
M  V30 535 C 47.9573 0.179896 4.27622 0
M  V30 536 C 47.2833 -0.788237 5.28858 0
M  V30 537 C 48.5833 1.38329 5.03649 0
M  V30 538 H 50.2773 1.05763 2.80097 0
M  V30 539 H 47.8233 0.510029 1.34665 0
M  V30 540 H 49.7763 -1.00968 4.09125 0
M  V30 541 H 48.5003 -1.44688 2.92802 0
M  V30 542 H 47.1593 0.569739 3.62146 0
M  V30 543 H 46.8073 -1.62973 4.75866 0
M  V30 544 H 46.5073 -0.269942 5.8698 0
M  V30 545 H 48.0313 -1.19485 5.98795 0
M  V30 546 H 49.4453 1.04918 5.63618 0
M  V30 547 H 47.8423 1.83662 5.71304 0
M  V30 548 H 48.9123 2.16592 4.33839 0
M  V30 549 N 50.2554 -1.46986 0.568584 0
M  V30 550 C 51.2184 -2.28624 -0.162366 0
M  V30 551 C 52.2184 -1.37596 -0.832103 0
M  V30 552 O 53.4084 -1.60115 -0.68622 0
M  V30 553 C 50.5404 -3.17596 -1.23878 0
M  V30 554 H 51.7334 -2.94722 0.554899 0
M  V30 555 H 49.2864 -1.52863 0.325976 0
M  V30 556 H 50.0214 -2.56214 -1.98808 0
M  V30 557 H 49.8064 -3.846 -0.763219 0
M  V30 558 H 51.2964 -3.79078 -1.75185 0
M  V30 559 N 51.7335 -0.305618 -1.54608 0
M  V30 560 C 52.9825 0.303098 -1.9941 0
M  V30 561 C 53.2955 1.54648 -1.19764 0
M  V30 562 O 54.5015 2.23007 -1.54855 0
M  V30 563 C 52.9575 0.590588 -3.55021 0
M  V30 564 C 52.5655 -0.634719 -4.43481 0
M  V30 565 C 54.3095 1.16025 -4.08336 0
M  V30 566 C 52.2165 -0.320126 -5.90533 0
M  V30 567 H 51.1465 0.117031 -0.744862 0
M  V30 568 H 53.7975 -0.415045 -1.78745 0
M  V30 569 H 52.1795 1.36845 -3.71604 0
M  V30 570 H 53.3535 -1.41079 -4.38672 0
M  V30 571 H 51.6685 -1.12333 -4.00962 0
M  V30 572 H 54.2655 1.40994 -5.15776 0
M  V30 573 H 54.6085 2.10397 -3.5922 0
M  V30 574 H 55.1415 0.443985 -3.95315 0
M  V30 575 H 51.8805 -1.23254 -6.43808 0
M  V30 576 H 51.4005 0.418579 -5.98338 0
M  V30 577 H 53.0795 0.0766241 -6.46955 0
M  V30 578 N 53.2116 1.57565 -0.0334293 0
M  V30 579 C 54.1746 2.09393 0.932048 0
M  V30 580 C 55.1746 1.00986 1.25134 0
M  V30 581 O 56.3646 1.27129 1.19096 0
M  V30 582 C 53.4966 2.56338 2.2473 0
M  V30 583 H 54.6896 2.95984 0.483085 0
M  V30 584 H 52.2426 1.54819 0.21468 0
M  V30 585 H 52.9776 1.7309 2.74245 0
M  V30 586 H 52.7626 3.35542 2.02865 0
M  V30 587 H 54.2526 2.96646 2.93923 0
M  V30 588 N 54.6897 -0.239769 1.55765 0
M  V30 589 C 55.6527 -1.28038 1.90103 0
M  V30 590 C 56.6527 -1.40723 0.778055 0
M  V30 591 O 57.8427 -1.39301 1.04599 0
M  V30 592 C 54.9747 -2.65702 2.13577 0
M  V30 593 H 56.1677 -0.988048 2.83157 0
M  V30 594 H 53.7207 -0.479382 1.48767 0
M  V30 595 H 54.4557 -3.00063 1.23015 0
M  V30 596 H 54.2407 -2.57875 2.95369 0
M  V30 597 H 55.7307 -3.40828 2.41301 0
M  V30 598 N 56.1678 -1.49265 -0.50573 0
M  V30 599 C 57.3928 -1.62478 -1.28902 0
M  V30 600 C 57.8178 -0.294332 -1.85783 0
M  V30 601 O 57.1758 0.737412 -1.65626 0
M  V30 602 C 57.2238 -2.69268 -2.39848 0
M  V30 603 O 56.3278 -2.28113 -3.43567 0
M  V30 604 H 55.6688 -0.54399 -0.380751 0
M  V30 605 H 58.1988 -1.95421 -0.605952 0
M  V30 606 H 58.2088 -2.91291 -2.85681 0
M  V30 607 H 56.8838 -3.65846 -1.97812 0
M  V30 608 H 55.4608 -2.16401 -3.03685 0
M  V30 609 N 57.6459 0.756429 -1.3826 0
M  V30 610 C 59.0569 1.33359 -1.30661 0
M  V30 611 C 59.4079 1.96161 0.0388875 0
M  V30 612 O 58.5329 1.94874 0.940918 0
M  V30 613 C 59.1279 2.42477 -2.36622 0
M  V30 614 C 57.6869 2.95922 -2.3261 0
M  V30 615 C 56.8339 1.69275 -2.19639 0
M  V30 616 H 59.7849 0.55552 -1.4866 0
M  V30 617 H 59.8059 3.22345 -2.02174 0
M  V30 618 H 59.3179 1.96739 -3.34538 0
M  V30 619 H 57.4189 3.45996 -1.38267 0
M  V30 620 H 57.5319 3.50494 -3.26636 0
M  V30 621 H 55.8959 1.92793 -1.66442 0
M  V30 622 H 56.6789 1.25619 -3.19491 0
M  V30 623 N 59.124 1.23083 0.984299 0
M  V30 624 C 60.349 1.088 1.76571 0
M  V30 625 C 60.774 -0.356657 1.84688 0
M  V30 626 O 60.132 -1.25788 1.30565 0
M  V30 627 C 60.18 1.71371 3.17277 0
M  V30 628 O 59.284 0.973213 4.00752 0
M  V30 629 H 58.625 0.381599 0.543395 0
M  V30 630 H 61.155 1.63057 1.23587 0
M  V30 631 H 61.165 1.76449 3.67872 0
M  V30 632 H 59.84 2.76493 3.10684 0
M  V30 633 H 58.417 0.999078 3.59267 0
M  V30 634 N 60.6021 -1.18246 1.0419 0
M  V30 635 C 61.5491 -2.2192 0.634037 0
M  V30 636 C 62.5191 -1.62179 -0.358765 0
M  V30 637 O 63.7041 -1.89122 -0.252466 0
M  V30 638 C 60.8441 -3.451 0.00445535 0
M  V30 639 C 59.9571 -4.19174 1.04487 0
M  V30 640 C 59.0921 -5.29813 0.383676 0
M  V30 641 C 58.1311 -5.9566 1.4091 0
M  V30 642 N 57.2681 -6.97834 0.772784 0
M  V30 643 H 62.1081 -2.56164 1.52263 0
M  V30 644 H 59.6451 -1.25843 0.761701 0
M  V30 645 H 61.6031 -4.15485 -0.377919 0
M  V30 646 H 60.2331 -3.11472 -0.847652 0
M  V30 647 H 59.2851 -3.47604 1.54518 0
M  V30 648 H 60.5971 -4.64267 1.82368 0
M  V30 649 H 59.7511 -6.06677 -0.0528366 0
M  V30 650 H 58.4901 -4.85825 -0.427208 0
M  V30 651 H 57.4951 -5.17535 1.85574 0
M  V30 652 H 58.7201 -6.4173 2.22171 0
M  V30 653 H 56.6661 -6.55998 -0.0177708 0
M  V30 654 H 56.5831 -7.41186 1.48928 0
M  V30 655 H 57.8511 -7.78665 0.36071 0
M  V30 656 N 62.0802 -0.821533 -1.34494 0
M  V30 657 C 63.0272 -0.240397 -2.29545 0
M  V30 658 C 63.9972 0.634031 -1.53523 0
M  V30 659 O 65.1822 0.575966 -1.81899 0
M  V30 660 C 62.3222 0.592869 -3.39969 0
M  V30 661 C 61.4352 -0.30365 -4.30932 0
M  V30 662 C 60.5702 0.539049 -5.28458 0
M  V30 663 C 59.6092 -0.356942 -6.11058 0
M  V30 664 N 58.7462 0.446603 -7.00678 0
M  V30 665 H 63.5862 -1.05632 -2.7865 0
M  V30 666 H 61.1232 -0.532413 -1.37127 0
M  V30 667 H 63.0812 1.09129 -4.02675 0
M  V30 668 H 61.7112 1.37392 -2.92102 0
M  V30 669 H 60.7632 -0.920276 -3.691 0
M  V30 670 H 62.0752 -0.992661 -4.88823 0
M  V30 671 H 61.2292 1.102 -5.96608 0
M  V30 672 H 59.9682 1.26157 -4.71101 0
M  V30 673 H 58.9732 -0.932047 -5.41842 0
M  V30 674 H 60.1982 -1.07755 -6.70497 0
M  V30 675 H 58.1442 1.15282 -6.45791 0
M  V30 676 H 58.0612 -0.184048 -7.55776 0
M  V30 677 H 59.3292 0.992352 -7.73158 0
M  V30 678 N 63.5583 1.46682 -0.576371 0
M  V30 679 C 64.9693 1.86112 -0.148091 0
M  V30 680 C 65.3203 1.48073 1.2872 0
M  V30 681 O 64.4453 0.892656 1.97131 0
M  V30 682 C 65.0403 3.37786 -0.261982 0
M  V30 683 C 63.5993 3.76235 0.111384 0
M  V30 684 C 62.7463 2.70713 -0.60083 0
M  V30 685 H 65.6973 1.37927 -0.78497 0
M  V30 686 H 65.7183 3.77007 0.514364 0
M  V30 687 H 65.2303 3.6544 -1.30671 0
M  V30 688 H 63.3313 3.54198 1.15649 0
M  V30 689 H 63.4443 4.78391 -0.26052 0
M  V30 690 H 61.8083 2.54666 -0.0417783 0
M  V30 691 H 62.5913 3.01208 -1.64708 0
M  V30 692 N 65.0364 0.313813 1.54444 0
M  V30 693 C 65.9694 -0.598866 2.20202 0
M  V30 694 C 66.9474 -1.12318 1.17573 0
M  V30 695 O 68.1314 -1.18899 1.46271 0
M  V30 696 C 65.2584 -1.82071 2.85601 0
M  V30 697 C 64.3044 -1.42851 4.01865 0
M  V30 698 S 65.1374 -0.473512 5.33402 0
M  V30 699 C 66.2934 -1.70286 6.0229 0
M  V30 700 H 66.5264 -0.0402532 2.97273 0
M  V30 701 H 64.0594 0.0979165 1.54089 0
M  V30 702 H 66.0174 -2.52184 3.23904 0
M  V30 703 H 64.6784 -2.3505 2.08351 0
M  V30 704 H 63.8714 -2.33871 4.46453 0
M  V30 705 H 63.4734 -0.807198 3.65185 0
M  V30 706 H 65.7654 -2.64168 6.23876 0
M  V30 707 H 66.7084 -1.29932 6.96077 0
M  V30 708 H 67.1164 -1.88541 5.32083 0
M  V30 709 N 66.5145 -1.57545 0.0417849 0
M  V30 710 C 67.7615 -1.92317 -0.634082 0
M  V30 711 C 68.0895 -0.919334 -1.71402 0
M  V30 712 O 67.3445 0.0698253 -1.95575 0
M  V30 713 C 67.6435 -3.33794 -1.27735 0
M  V30 714 C 67.3095 -4.49716 -0.326543 0
M  V30 715 C 65.9715 -4.81156 -0.0648814 0
M  V30 716 C 68.3235 -5.20182 0.325623 0
M  V30 717 C 65.6515 -5.80414 0.856539 0
M  V30 718 C 68.0035 -6.20424 1.23518 0
M  V30 719 C 66.6675 -6.50298 1.5056 0
M  V30 720 H 65.9375 -0.703736 -0.232027 0
M  V30 721 H 68.5845 -1.91205 0.106259 0
M  V30 722 H 66.8895 -3.31228 -2.09274 0
M  V30 723 H 68.5865 -3.57975 -1.80707 0
M  V30 724 H 65.1765 -4.25176 -0.540665 0
M  V30 725 H 69.3605 -4.96112 0.136546 0
M  V30 726 H 64.6165 -6.019 1.07363 0
M  V30 727 H 68.7905 -6.74141 1.74664 0
M  V30 728 H 66.4175 -7.27025 2.22123 0
M  V30 729 N 67.9926 0.231505 -1.5589 0
M  V30 730 C 69.2206 0.974505 -1.82513 0
M  V30 731 C 69.6356 1.78344 -0.619591 0
M  V30 732 O 68.9926 1.77792 0.411848 0
M  V30 733 C 69.0436 1.90007 -3.07538 0
M  V30 734 O 68.7646 1.12385 -4.2344 0
M  V30 735 C 70.2656 2.75779 -3.47075 0
M  V30 736 H 67.4856 0.286065 -0.606966 0
M  V30 737 H 70.0296 0.249739 -2.02969 0
M  V30 738 H 68.1846 2.57891 -2.89086 0
M  V30 739 H 68.5986 1.75125 -4.944 0
M  V30 740 H 70.0726 3.36443 -4.37619 0
M  V30 741 H 70.5496 3.47672 -2.68367 0
M  V30 742 H 71.1556 2.13323 -3.67931 0
M  V30 743 N 69.4707 1.49531 0.497807 0
M  V30 744 C 70.4007 1.6935 1.60757 0
M  V30 745 C 71.3817 0.542218 1.61227 0
M  V30 746 O 72.5667 0.778417 1.77917 0
M  V30 747 C 69.6967 1.76298 2.99226 0
M  V30 748 C 68.6507 2.91248 3.13622 0
M  V30 749 C 67.9767 2.83312 4.53474 0
M  V30 750 C 69.2767 4.3214 2.93346 0
M  V30 751 H 70.9707 2.62263 1.44425 0
M  V30 752 H 68.5167 1.26208 0.693367 0
M  V30 753 H 70.4697 1.88749 3.76765 0
M  V30 754 H 69.1937 0.799871 3.16654 0
M  V30 755 H 67.8527 2.78404 2.38509 0
M  V30 756 H 67.5007 1.84902 4.67782 0
M  V30 757 H 67.2007 3.60465 4.64046 0
M  V30 758 H 68.7247 2.97775 5.33069 0
M  V30 759 H 70.1387 4.45649 3.60652 0
M  V30 760 H 68.5357 5.1054 3.15387 0
M  V30 761 H 69.6057 4.46363 1.89441 0
M  V30 762 N 70.9488 -0.749086 1.3866 0
M  V30 763 C 71.8588 -1.89358 1.38494 0
M  V30 764 C 72.8748 -1.71708 0.281476 0
M  V30 765 O 74.0508 -1.94554 0.520643 0
M  V30 766 C 71.1158 -3.24782 1.21316 0
M  V30 767 C 70.1768 -3.54926 2.41508 0
M  V30 768 C 69.4098 -4.83888 2.2514 0
M  V30 769 O 69.6328 -5.56592 1.24746 0
M  V30 770 O 68.5668 -5.13612 3.13826 0
M  V30 771 H 72.3928 -1.92452 2.34938 0
M  V30 772 H 69.9778 -0.894981 1.19626 0
M  V30 773 H 71.8598 -4.05739 1.13814 0
M  V30 774 H 70.5348 -3.2249 0.279592 0
M  V30 775 H 69.4418 -2.74112 2.54585 0
M  V30 776 H 70.7748 -3.61983 3.3351 0
M  V30 777 N 72.4269 -1.23603 -0.977757 0
M  V30 778 C 73.3369 -1.03632 -2.1047 0
M  V30 779 C 74.3529 0.0199435 -1.73989 0
M  V30 780 O 75.5289 -0.176076 -2.00629 0
M  V30 781 C 72.5939 -0.63276 -3.40877 0
M  V30 782 C 71.6549 -1.76437 -3.91367 0
M  V30 783 C 70.8879 -1.37997 -5.15551 0
M  V30 784 O 71.1109 -0.265357 -5.69782 0
M  V30 785 O 70.0449 -2.20201 -5.60174 0
M  V30 786 H 73.8709 -1.98086 -2.30208 0
M  V30 787 H 71.4559 -1.02332 -1.08851 0
M  V30 788 H 73.3379 -0.418761 -4.19314 0
M  V30 789 H 72.0129 0.282754 -3.22463 0
M  V30 790 H 70.9199 -2.03304 -3.14036 0
M  V30 791 H 72.2529 -2.6583 -4.14241 0
M  V30 792 N 73.905 1.17692 -1.04816 0
M  V30 793 C 75.321 1.39863 -0.768794 0
M  V30 794 C 75.521 1.91118 0.638451 0
M  V30 795 O 74.577 2.10036 1.40146 0
M  V30 796 C 75.89 2.39274 -1.82122 0
M  V30 797 C 77.438 2.52987 -1.843 0
M  V30 798 C 77.913 3.55669 -2.88555 0
M  V30 799 N 79.404 3.63183 -2.87493 0
M  V30 800 C 80.139 4.42381 -3.64811 0
M  V30 801 N 79.635 5.25125 -4.51903 0
M  V30 802 N 81.428 4.37217 -3.53267 0
M  V30 803 H 73.579 0.82752 -1.95617 0
M  V30 804 H 75.842 0.426123 -0.846831 0
M  V30 805 H 75.548 2.08678 -2.83102 0
M  V30 806 H 75.422 3.38725 -1.65967 0
M  V30 807 H 77.809 2.82896 -0.839869 0
M  V30 808 H 77.89 1.53623 -2.04532 0
M  V30 809 H 77.534 3.26499 -3.89051 0
M  V30 810 H 77.464 4.54728 -2.65575 0
M  V30 811 H 79.955 3.04103 -2.24343 0
M  V30 812 H 80.268 5.82728 -5.07591 0
M  V30 813 H 78.613 5.24519 -4.55966 0
M  V30 814 H 81.804 3.71626 -2.84625 0
M  V30 815 H 81.977 4.98696 -4.13771 0
M  V30 816 N 75.3831 0.828654 1.34056 0
M  V30 817 C 76.6291 0.42008 1.98402 0
M  V30 818 C 76.9621 -1.01564 1.65525 0
M  V30 819 O 76.2371 -1.70834 0.929831 0
M  V30 820 C 76.5201 0.62927 3.54559 0
M  V30 821 C 76.3731 2.11152 3.97159 0
M  V30 822 C 77.6921 0.0688756 4.40046 0
M  V30 823 H 74.8111 0.154104 0.720709 0
M  V30 824 H 77.4531 1.04228 1.5886 0
M  V30 825 H 75.6031 0.0996418 3.88372 0
M  V30 826 H 77.2751 2.70522 3.73651 0
M  V30 827 H 75.5181 2.59985 3.47261 0
M  V30 828 H 76.1891 2.20868 5.05887 0
M  V30 829 H 78.6651 0.521458 4.1282 0
M  V30 830 H 77.5411 0.245006 5.48353 0
M  V30 831 H 77.8021 -1.0266 4.30015 0
M  V30 832 N 76.8612 -1.46375 0.584142 0
M  V30 833 C 77.8242 -2.28784 -0.138108 0
M  V30 834 C 78.8242 -1.38471 -0.817462 0
M  V30 835 O 80.0142 -1.60833 -0.669199 0
M  V30 836 C 77.1462 -3.18892 -1.20503 0
M  V30 837 H 78.3392 -2.94117 0.586127 0
M  V30 838 H 75.8922 -1.52509 0.342171 0
M  V30 839 H 76.6272 -2.58309 -1.96079 0
M  V30 840 H 76.4122 -3.85388 -0.722384 0
M  V30 841 H 77.9022 -3.80914 -1.71155 0
M  V30 842 N 78.3393 -0.321999 -1.54275 0
M  V30 843 C 79.2693 0.537411 -2.27231 0
M  V30 844 C 80.2503 1.12064 -1.27968 0
M  V30 845 O 81.4353 1.14606 -1.56777 0
M  V30 846 C 78.5653 1.69919 -3.02894 0
M  V30 847 C 77.5193 1.24534 -4.09482 0
M  V30 848 C 76.8453 2.49394 -4.72977 0
M  V30 849 C 78.1453 0.361335 -5.21049 0
M  V30 850 H 79.8393 -0.0711406 -2.99315 0
M  V30 851 H 77.3853 -0.0356555 -1.43956 0
M  V30 852 H 79.3383 2.30668 -3.52662 0
M  V30 853 H 78.0623 2.33431 -2.28424 0
M  V30 854 H 76.7213 0.660782 -3.60596 0
M  V30 855 H 76.3693 3.11265 -3.95124 0
M  V30 856 H 76.0693 2.19718 -5.44975 0
M  V30 857 H 77.5933 3.10908 -5.25517 0
M  V30 858 H 79.0073 0.875072 -5.66582 0
M  V30 859 H 77.4043 0.157428 -5.99893 0
M  V30 860 H 78.4743 -0.60822 -4.8107 0
M  V30 861 N 79.8174 1.5752 -0.0501392 0
M  V30 862 C 80.7804 2.1037 0.909786 0
M  V30 863 C 81.7804 1.02308 1.24056 0
M  V30 864 O 82.9704 1.28385 1.17741 0
M  V30 865 C 80.1024 2.58708 2.21998 0
M  V30 866 H 81.2954 2.96479 0.451665 0
M  V30 867 H 78.8484 1.55038 0.198248 0
M  V30 868 H 79.5834 1.75989 2.72394 0
M  V30 869 H 79.3684 3.37675 1.99295 0
M  V30 870 H 80.8584 2.99747 2.9076 0
M  V30 871 N 81.2955 -0.223234 1.56011 0
M  V30 872 C 82.2275 -1.30006 1.88762 0
M  V30 873 C 83.2405 -1.43129 0.775746 0
M  V30 874 O 84.4295 -1.44057 1.05403 0
M  V30 875 C 81.5295 -2.67589 2.07965 0
M  V30 876 C 80.7025 -2.76434 3.38973 0
M  V30 877 C 79.7615 -3.95019 3.47629 0
M  V30 878 O 78.7875 -3.83436 4.20672 0
M  V30 879 N 79.9895 -5.09249 2.78649 0
M  V30 880 H 82.7545 -1.02238 2.81722 0
M  V30 881 H 80.3155 -0.413278 1.56536 0
M  V30 882 H 82.3075 -3.45297 2.11073 0
M  V30 883 H 80.8775 -2.87964 1.21638 0
M  V30 884 H 80.0975 -1.85216 3.47978 0
M  V30 885 H 81.3855 -2.79313 4.25278 0
M  V30 886 H 80.7835 -5.21556 2.19081 0
M  V30 887 H 79.3405 -5.85007 2.8742 0
M  V30 888 N 82.7736 -1.49793 -0.48987 0
M  V30 889 C 83.7056 -1.63413 -1.60713 0
M  V30 890 C 84.7186 -0.516329 -1.54395 0
M  V30 891 O 85.9076 -0.788812 -1.60125 0
M  V30 892 C 83.0076 -1.58516 -2.99543 0
M  V30 893 C 82.1806 -2.86016 -3.30928 0
M  V30 894 C 81.2396 -2.74018 -4.49222 0
M  V30 895 O 80.2656 -3.47964 -4.50455 0
M  V30 896 N 81.4676 -1.86309 -5.4979 0
M  V30 897 H 84.2326 -2.59777 -1.49452 0
M  V30 898 H 81.7936 -1.47022 -0.677955 0
M  V30 899 H 83.7856 -1.48128 -3.76617 0
M  V30 900 H 82.3556 -0.69965 -3.0467 0
M  V30 901 H 81.5756 -3.10672 -2.42645 0
M  V30 902 H 82.8636 -3.70521 -3.487 0
M  V30 903 H 82.2616 -1.2551 -5.51601 0
M  V30 904 H 80.8186 -1.81837 -6.25922 0
M  V30 905 N 84.2517 0.741722 -1.39055 0
M  V30 906 C 85.2147 1.83733 -1.37021 0
M  V30 907 C 86.2147 1.58542 -0.268534 0
M  V30 908 O 87.4047 1.66067 -0.526076 0
M  V30 909 C 84.5367 3.2141 -1.13617 0
M  V30 910 H 85.7297 1.86941 -2.34506 0
M  V30 911 H 83.2827 0.944676 -1.24521 0
M  V30 912 H 84.0177 3.23865 -0.167863 0
M  V30 913 H 83.8027 3.4109 -1.93391 0
M  V30 914 H 85.2927 4.01477 -1.14918 0
M  V30 915 N 85.7298 1.2412 0.971189 0
M  V30 916 C 86.9578 1.10575 1.74874 0
M  V30 917 C 87.3728 -0.342017 1.85676 0
M  V30 918 O 86.7298 -1.23617 1.34258 0
M  V30 919 C 86.7808 1.73579 3.171 0
M  V30 920 O 86.5018 3.12695 3.06844 0
M  V30 921 C 88.0028 1.65598 4.11208 0
M  V30 922 H 85.2228 0.386504 0.548503 0
M  V30 923 H 87.7668 1.64156 1.21955 0
M  V30 924 H 85.9218 1.24009 3.67016 0
M  V30 925 H 86.3358 3.43412 3.96445 0
M  V30 926 H 87.8098 2.1437 5.08674 0
M  V30 927 H 88.2868 0.616532 4.34851 0
M  V30 928 H 88.8928 2.14578 3.67201 0
M  V30 929 N 87.2079 -1.17134 1.05439 0
M  V30 930 C 88.1709 -2.19439 0.661764 0
M  V30 931 C 89.1709 -1.58199 -0.288042 0
M  V30 932 O 90.3609 -1.74053 -0.0715803 0
M  V30 933 C 87.4929 -3.40889 -0.0276209 0
M  V30 934 H 88.6859 -2.55688 1.56728 0
M  V30 935 H 86.2389 -1.31259 0.848567 0
M  V30 936 H 86.9739 -3.10187 -0.94629 0
M  V30 937 H 86.7589 -3.86586 0.655238 0
M  V30 938 H 88.2489 -4.16603 -0.288342 0
M  V30 939 N 88.686 -0.835752 -1.33615 0
M  V30 940 C 89.636 -0.238856 -2.26745 0
M  V30 941 C 90.62 0.604343 -1.49119 0
M  V30 942 O 91.812 0.456822 -1.71003 0
M  V30 943 C 88.941 0.587725 -3.38232 0
M  V30 944 C 88.027 -0.266811 -4.2326 0
M  V30 945 N 88.418 -1.34403 -4.87616 0
M  V30 946 C 86.716 -0.0533131 -4.45968 0
M  V30 947 C 87.417 -1.86819 -5.50884 0
M  V30 948 N 86.393 -1.17013 -5.30857 0
M  V30 949 H 90.195 -1.06266 -2.74016 0
M  V30 950 H 87.709 -0.679881 -1.47483 0
M  V30 951 H 89.706 1.03161 -4.03935 0
M  V30 952 H 88.366 1.40954 -2.9251 0
M  V30 953 H 89.377 -1.7269 -4.88261 0
M  V30 954 H 86.054 0.735312 -4.10974 0
M  V30 955 H 87.444 -2.7701 -6.1214 0
M  V30 956 N 90.1641 1.46063 -0.591896 0
M  V30 957 C 91.0941 2.33172 0.123673 0
M  V30 958 C 92.0751 1.45897 0.87453 0
M  V30 959 O 93.2601 1.74698 0.848181 0
M  V30 960 C 90.3901 3.28336 1.13194 0
M  V30 961 C 89.3441 4.25124 0.495324 0
M  V30 962 C 88.6701 5.09863 1.61071 0
M  V30 963 C 89.9701 5.19143 -0.573425 0
M  V30 964 H 91.6641 2.93252 -0.603646 0
M  V30 965 H 89.2101 1.41014 -0.291741 0
M  V30 966 H 91.1631 3.88137 1.64097 0
M  V30 967 H 89.8871 2.66383 1.88965 0
M  V30 968 H 88.5461 3.66599 0.00729452 0
M  V30 969 H 88.1941 4.44288 2.35832 0
M  V30 970 H 87.8941 5.75417 1.19035 0
M  V30 971 H 89.4181 5.72529 2.12233 0
M  V30 972 H 90.8321 5.73106 -0.1491 0
M  V30 973 H 89.2291 5.93089 -0.914636 0
M  V30 974 H 90.2991 4.62519 -1.45617 0
M  V30 975 N 91.6422 0.330177 1.54103 0
M  V30 976 C 92.8902 -0.269871 2.0029 0
M  V30 977 C 93.2112 -1.52133 1.21986 0
M  V30 978 O 92.4812 -1.93212 0.323438 0
M  V30 979 H 91.0612 -0.10271 0.739905 0
M  V30 980 H 93.7232 0.448249 1.89675 0
M  V30 981 H 92.8192 -0.52166 3.07709 0
M  V30 982 N 93.1203 -1.57491 0.0584922 0
M  V30 983 C 94.0683 -2.13148 -0.931168 0
M  V30 984 C 95.0623 -1.06507 -1.31729 0
M  V30 985 O 96.2683 -1.24906 -1.29609 0
M  V30 986 H 92.6433 -0.68137 -0.31818 0
M  V30 987 H 94.6143 -2.95187 -0.436707 0
M  V30 988 C 93.3633 -2.69732 -2.19408 0
M  V30 989 H 92.6863 -3.51454 -1.90578 0
M  V30 990 H 94.1263 -3.12287 -2.86798 0
M  V30 991 C 92.5853 -1.63855 -2.94369 0
M  V30 992 O 93.1153 -1.05565 -3.87581 0
M  V30 993 N 91.3213 -1.35202 -2.57233 0
M  V30 994 H 90.8683 -1.82791 -1.81508 0
M  V30 995 H 90.8263 -0.645922 -3.07693 0
M  V30 996 N 94.5984 0.214957 -1.56127 0
M  V30 997 C 95.8444 0.939762 -1.79712 0
M  V30 998 C 96.1774 1.83723 -0.629247 0
M  V30 999 O 95.4524 1.90925 0.371197 0
M  V30 1000 C 95.7354 1.77306 -3.13424 0
M  V30 1001 C 95.5884 0.90164 -4.40671 0
M  V30 1002 C 96.9074 2.74956 -3.43638 0
M  V30 1003 H 94.0264 0.340214 -0.653776 0
M  V30 1004 H 96.6684 0.20824 -1.88855 0
M  V30 1005 H 94.8184 2.39673 -3.0576 0
M  V30 1006 H 96.4904 0.294206 -4.60361 0
M  V30 1007 H 94.7334 0.207368 -4.33304 0
M  V30 1008 H 95.4044 1.51923 -5.30682 0
M  V30 1009 H 97.8804 2.22724 -3.51473 0
M  V30 1010 H 96.7564 3.30358 -4.38355 0
M  V30 1011 H 97.0174 3.53023 -2.66134 0
M  V30 1012 N 96.0765 1.50051 0.48192 0
M  V30 1013 C 96.9865 1.7089 1.60728 0
M  V30 1014 C 98.0025 0.591788 1.63627 0
M  V30 1015 O 99.1785 0.868817 1.81696 0
M  V30 1016 C 96.2435 1.78855 2.97005 0
M  V30 1017 C 95.3045 3.02537 3.04581 0
M  V30 1018 C 94.5375 3.10112 4.34357 0
M  V30 1019 O 94.7605 2.24765 5.24249 0
M  V30 1020 O 93.6945 4.02747 4.47301 0
M  V30 1021 H 97.5205 2.66264 1.46072 0
M  V30 1022 H 95.1055 1.34018 0.660264 0
M  V30 1023 H 96.9875 1.86336 3.77964 0
M  V30 1024 H 95.6625 0.866628 3.11883 0
M  V30 1025 H 94.5695 3.00563 2.22739 0
M  V30 1026 H 95.9025 3.94272 2.94636 0
M  V30 1027 N 97.5546 -0.734337 1.39446 0
M  V30 1028 C 98.8006 -1.49613 1.36908 0
M  V30 1029 C 99.1336 -1.94169 -0.0347829 0
M  V30 1030 O 98.4086 -1.66833 -0.999847 0
M  V30 1031 C 98.6916 -2.73534 2.34203 0
M  V30 1032 C 98.5446 -2.34993 3.83534 0
M  V30 1033 C 99.8636 -3.75635 2.29317 0
M  V30 1034 H 96.9826 -0.542714 0.498629 0
M  V30 1035 H 99.6246 -0.839597 1.70443 0
M  V30 1036 H 97.7746 -3.29553 2.05736 0
M  V30 1037 H 99.4466 -1.84601 4.22753 0
M  V30 1038 H 97.6896 -1.67213 4.00278 0
M  V30 1039 H 98.3606 -3.23738 4.47099 0
M  V30 1040 H 100.837 -3.29203 2.54489 0
M  V30 1041 H 99.7126 -4.60008 2.99472 0
M  V30 1042 H 99.9736 -4.22603 1.29842 0
M  V30 1043 N 99.0327 -1.24633 -0.964593 0
M  V30 1044 C 100.279 -1.08949 -1.71049 0
M  V30 1045 C 100.612 0.370302 -1.90637 0
M  V30 1046 O 99.8867 1.27349 -1.47011 0
M  V30 1047 C 100.17 -1.83329 -3.0994 0
M  V30 1048 C 100.023 -3.37077 -2.97824 0
M  V30 1049 C 101.342 -1.60846 -4.09654 0
M  V30 1050 H 98.4607 -0.397178 -0.620821 0
M  V30 1051 H 101.103 -1.5334 -1.12191 0
M  V30 1052 H 99.2527 -1.45597 -3.60186 0
M  V30 1053 H 100.925 -3.84425 -2.5498 0
M  V30 1054 H 99.1677 -3.65298 -2.33965 0
M  V30 1055 H 99.8387 -3.84324 -3.96231 0
M  V30 1056 H 102.315 -1.93674 -3.68279 0
M  V30 1057 H 101.191 -2.1534 -5.04896 0
M  V30 1058 H 101.452 -0.547434 -4.38698 0
M  V30 1059 N 100.511 1.16574 -1.06058 0
M  V30 1060 C 101.759 1.86677 -0.77434 0
M  V30 1061 C 102.08 1.81959 0.701147 0
M  V30 1062 O 101.35 1.2515 1.50713 0
M  V30 1063 H 99.9298 0.691134 -0.283449 0
M  V30 1064 H 102.592 1.41378 -1.34158 0
M  V30 1065 H 101.688 2.92181 -1.09711 0
M  V30 1066 N 101.989 0.842826 1.3317 0
M  V30 1067 C 103.236 0.440447 1.97652 0
M  V30 1068 C 103.564 -1.00123 1.6675 0
M  V30 1069 O 102.819 -1.7155 0.941761 0
M  V30 1070 C 103.118 0.612607 3.52111 0
M  V30 1071 C 102.784 2.02297 4.02972 0
M  V30 1072 C 101.446 2.40874 4.16573 0
M  V30 1073 C 103.798 2.94402 4.30089 0
M  V30 1074 C 101.126 3.70852 4.54627 0
M  V30 1075 C 103.478 4.23865 4.69597 0
M  V30 1076 C 102.142 4.62392 4.81404 0
M  V30 1077 H 101.412 0.161171 0.72326 0
M  V30 1078 H 104.059 1.07061 1.58777 0
M  V30 1079 H 102.364 -0.100849 3.9167 0
M  V30 1080 H 104.061 0.2815 4.00011 0
M  V30 1081 H 100.651 1.71338 3.92863 0
M  V30 1082 H 104.835 2.65835 4.19101 0
M  V30 1083 H 100.091 4.00501 4.61962 0
M  V30 1084 H 104.265 4.95306 4.89536 0
M  V30 1085 H 101.892 5.63154 5.10648 0
M  V30 1086 N 103.467 -1.45747 0.599634 0
M  V30 1087 C 104.692 -2.07178 0.0960198 0
M  V30 1088 C 105.117 -1.44268 -1.207 0
M  V30 1089 O 104.475 -0.532503 -1.73303 0
M  V30 1090 C 104.523 -3.60579 -0.0385348 0
M  V30 1091 O 103.627 -3.97713 -1.0908 0
M  V30 1092 H 102.968 -0.660251 0.0704593 0
M  V30 1093 H 105.498 -1.87124 0.827385 0
M  V30 1094 H 105.508 -4.07298 -0.239304 0
M  V30 1095 H 104.183 -4.05756 0.912947 0
M  V30 1096 H 102.76 -3.62678 -0.867135 0
M  V30 1097 N 104.945 -0.338344 -1.53925 0
M  V30 1098 C 106.222 0.314774 -1.93051 0
M  V30 1099 C 106.602 1.68669 -1.26941 0
M  V30 1100 O 105.95 2.24636 -0.418445 0
M  V30 1101 C 106.16 0.392249 -3.46789 0
M  V30 1102 C 107.508 0.645554 -4.19664 0
M  V30 1103 O 108.532 0.474575 -3.53024 0
M  V30 1104 O 107.391 0.976408 -5.37707 0
M  V30 1105 H 104.485 0.182598 -0.80659 0
M  V30 1106 H 107.031 -0.389141 -1.65178 0
M  V30 1107 H 105.803 -0.570702 -3.87116 0
M  V30 1108 H 105.426 1.14316 -3.80812 0
M  V30 1109 N 106.423 1.57458 -0.0668435 0
M  V30 1110 C 107.353 2.15468 0.899764 0
M  V30 1111 C 108.334 1.08042 1.31381 0
M  V30 1112 O 109.519 1.36054 1.38574 0
M  V30 1113 C 106.649 2.71232 2.16911 0
M  V30 1114 C 105.603 3.83781 1.89463 0
M  V30 1115 C 104.929 4.26127 3.22986 0
M  V30 1116 C 106.229 5.08238 1.20381 0
M  V30 1117 H 107.923 2.96488 0.416529 0
M  V30 1118 H 105.469 1.4262 0.198908 0
M  V30 1119 H 107.422 3.10458 2.84945 0
M  V30 1120 H 106.146 1.87426 2.67468 0
M  V30 1121 H 104.805 3.45051 1.23836 0
M  V30 1122 H 104.453 3.39249 3.71374 0
M  V30 1123 H 104.153 5.01993 3.05413 0
M  V30 1124 H 105.677 4.67966 3.92225 0
M  V30 1125 H 107.091 5.44811 1.78475 0
M  V30 1126 H 105.488 5.89349 1.13083 0
M  V30 1127 H 106.558 4.84558 0.182153 0
M  V30 1128 N 107.901 -0.206675 1.56239 0
M  V30 1129 C 108.834 -1.28383 1.88661 0
M  V30 1130 C 109.812 -1.44504 0.745481 0
M  V30 1131 O 110.996 -1.60079 0.995336 0
M  V30 1132 C 108.123 -2.65211 2.10667 0
M  V30 1133 C 107.169 -2.66025 3.33366 0
M  V30 1134 S 108.002 -2.18609 4.88846 0
M  V30 1135 C 109.158 -3.57283 5.13906 0
M  V30 1136 H 109.391 -1.00691 2.7973 0
M  V30 1137 H 106.924 -0.409627 1.48867 0
M  V30 1138 H 108.882 -3.43979 2.24029 0
M  V30 1139 H 107.543 -2.90121 1.20369 0
M  V30 1140 H 106.736 -3.66607 3.45855 0
M  V30 1141 H 106.338 -1.95331 3.18938 0
M  V30 1142 H 108.63 -4.53074 5.03717 0
M  V30 1143 H 109.573 -3.49699 6.15724 0
M  V30 1144 H 109.981 -3.51659 4.41583 0
M  V30 1145 N 109.379 -1.50304 -0.473955 0
M  V30 1146 C 110.342 -1.6841 -1.55469 0
M  V30 1147 C 111.342 -0.554905 -1.50922 0
M  V30 1148 O 112.532 -0.821882 -1.53593 0
M  V30 1149 C 109.664 -1.70667 -2.95102 0
M  V30 1150 H 110.857 -2.64828 -1.40733 0
M  V30 1151 H 108.41 -1.39742 -0.700132 0
M  V30 1152 H 109.145 -0.75932 -3.15285 0
M  V30 1153 H 108.93 -2.52698 -2.9981 0
M  V30 1154 H 110.42 -1.8664 -3.73571 0
M  V30 1155 N 110.857 0.726932 -1.39834 0
M  V30 1156 C 111.805 1.86235 -1.39353 0
M  V30 1157 C 112.799 1.67144 -0.275555 0
M  V30 1158 O 114.005 1.74387 -0.44601 0
M  V30 1159 H 110.38 0.613174 -0.43534 0
M  V30 1160 H 112.351 1.83756 -2.35109 0
M  V30 1161 C 111.1 3.23995 -1.26185 0
M  V30 1162 H 110.423 3.39285 -2.11484 0
M  V30 1163 H 111.863 4.03609 -1.29907 0
M  V30 1164 C 110.322 3.36888 0.0290018 0
M  V30 1165 O 110.852 3.89152 0.99619 0
M  V30 1166 N 109.058 2.90446 0.0947437 0
M  V30 1167 H 108.605 2.48102 -0.693035 0
M  V30 1168 H 108.563 2.99451 0.957932 0
M  V30 1169 N 112.336 1.25143 0.95797 0
M  V30 1170 C 113.583 1.09692 1.70217 0
M  V30 1171 C 113.911 -0.362654 1.91089 0
M  V30 1172 O 113.166 -1.28386 1.47701 0
M  V30 1173 C 113.465 1.79272 3.09187 0
M  V30 1174 C 113.131 3.29196 3.08125 0
M  V30 1175 C 111.793 3.70096 3.07543 0
M  V30 1176 C 114.145 4.24995 3.0171 0
M  V30 1177 C 111.473 5.05213 2.9829 0
M  V30 1178 C 113.825 5.60132 2.93999 0
M  V30 1179 C 112.489 6.00365 2.9175 0
M  V30 1180 H 111.759 0.401393 0.622868 0
M  V30 1181 H 114.406 1.55372 1.11945 0
M  V30 1182 H 112.711 1.26014 3.70982 0
M  V30 1183 H 114.408 1.64773 3.65583 0
M  V30 1184 H 110.998 2.96651 3.09348 0
M  V30 1185 H 115.182 3.9439 3.01281 0
M  V30 1186 H 110.438 5.35569 2.94916 0
M  V30 1187 H 114.612 6.3406 2.87996 0
M  V30 1188 H 112.239 7.05023 2.84336 0
M  V30 1189 N 113.814 -1.1601 1.06675 0
M  V30 1190 C 114.777 -2.18724 0.685001 0
M  V30 1191 C 115.777 -1.58496 -0.271246 0
M  V30 1192 O 116.967 -1.74119 -0.0531156 0
M  V30 1193 C 114.099 -3.40899 0.00853648 0
M  V30 1194 H 115.292 -2.54011 1.59431 0
M  V30 1195 H 112.845 -1.30352 0.862441 0
M  V30 1196 H 113.58 -3.11173 -0.913337 0
M  V30 1197 H 113.365 -3.8587 0.696204 0
M  V30 1198 H 114.855 -4.16886 -0.24414 0
M  V30 1199 N 115.292 -0.849877 -1.32721 0
M  V30 1200 C 116.708 -0.539102 -1.50219 0
M  V30 1201 C 116.908 0.931271 -1.78689 0
M  V30 1202 O 115.964 1.71455 -1.85363 0
M  V30 1203 C 117.277 -1.42196 -2.64954 0
M  V30 1204 C 118.825 -1.42189 -2.78839 0
M  V30 1205 C 119.3 -2.28985 -3.96648 0
M  V30 1206 N 120.791 -2.26754 -4.03902 0
M  V30 1207 C 121.526 -2.90644 -4.94281 0
M  V30 1208 N 121.022 -3.63629 -5.897 0
M  V30 1209 N 122.815 -2.80057 -4.87365 0
M  V30 1210 H 114.966 -1.80156 -1.12506 0
M  V30 1211 H 117.229 -0.769217 -0.554085 0
M  V30 1212 H 116.935 -2.46733 -2.50631 0
M  V30 1213 H 116.809 -1.10591 -3.60624 0
M  V30 1214 H 119.196 -0.38419 -2.92588 0
M  V30 1215 H 119.277 -1.77807 -1.83898 0
M  V30 1216 H 118.921 -3.32819 -3.83658 0
M  V30 1217 H 118.851 -1.90702 -4.90857 0
M  V30 1218 H 121.342 -1.73688 -3.3562 0
M  V30 1219 H 121.655 -4.09558 -6.55349 0
M  V30 1220 H 120 -3.67737 -5.89741 0
M  V30 1221 H 123.191 -2.22593 -4.11789 0
M  V30 1222 H 123.364 -3.30132 -5.57599 0
M  V30 1223 N 116.77 1.45427 -0.607355 0
M  V30 1224 C 117.718 2.32269 0.12411 0
M  V30 1225 C 118.712 1.45955 0.859854 0
M  V30 1226 O 119.918 1.6244 0.775447 0
M  V30 1227 H 116.293 0.749691 0.0588839 0
M  V30 1228 H 118.264 2.91743 -0.626762 0
M  V30 1229 C 117.013 3.29567 1.1082 0
M  V30 1230 H 116.336 3.95978 0.551492 0
M  V30 1231 H 117.776 3.93061 1.58995 0
M  V30 1232 C 116.235 2.56722 2.18164 0
M  V30 1233 O 116.765 2.34842 3.25902 0
M  V30 1234 N 114.971 2.16861 1.93442 0
M  V30 1235 H 114.518 2.34855 1.05834 0
M  V30 1236 H 114.476 1.68444 2.65469 0
M  V30 1237 N 118.248 0.346503 1.53744 0
M  V30 1238 C 119.18 -0.543316 2.22667 0
M  V30 1239 C 120.193 -1.06159 1.23427 0
M  V30 1240 O 121.382 -0.971235 1.49764 0
M  V30 1241 C 118.482 -1.76076 2.89569 0
M  V30 1242 C 117.655 -1.37727 4.15151 0
M  V30 1243 C 116.714 -2.45471 4.65436 0
M  V30 1244 O 115.74 -2.08655 5.29577 0
M  V30 1245 N 116.942 -3.7677 4.41616 0
M  V30 1246 H 119.707 0.0469703 2.99663 0
M  V30 1247 H 117.268 0.170766 1.60997 0
M  V30 1248 H 119.26 -2.47593 3.20125 0
M  V30 1249 H 117.83 -2.25835 2.16142 0
M  V30 1250 H 117.05 -0.492746 3.91108 0
M  V30 1251 H 118.338 -1.09708 4.96832 0
M  V30 1252 H 117.736 -4.09467 3.90325 0
M  V30 1253 H 116.293 -4.44448 4.7677 0
M  V30 1254 N 119.726 -1.57421 0.075193 0
M  V30 1255 C 120.676 -2.09441 -0.901025 0
M  V30 1256 C 121.66 -1.00486 -1.25663 0
M  V30 1257 O 122.852 -1.2679 -1.23504 0
M  V30 1258 C 119.981 -2.66233 -2.16737 0
M  V30 1259 C 119.067 -3.82198 -1.83808 0
M  V30 1260 N 119.458 -4.91028 -1.21345 0
M  V30 1261 C 117.756 -3.91558 -2.13538 0
M  V30 1262 C 118.457 -5.71852 -1.06585 0
M  V30 1263 N 117.433 -5.20233 -1.57667 0
M  V30 1264 H 121.235 -2.90972 -0.413815 0
M  V30 1265 H 118.749 -1.6189 -0.128601 0
M  V30 1266 H 120.746 -3.01819 -2.87595 0
M  V30 1267 H 119.406 -1.8615 -2.66042 0
M  V30 1268 H 120.417 -5.10323 -0.88268 0
M  V30 1269 H 117.094 -3.22454 -2.65197 0
M  V30 1270 H 118.484 -6.69401 -0.578933 0
M  V30 1271 N 121.204 0.198386 -1.56346 0
M  V30 1272 C 122.167 1.22952 -1.93431 0
M  V30 1273 C 123.167 1.38611 -0.815092 0
M  V30 1274 O 124.357 1.36479 -1.08255 0
M  V30 1275 C 121.489 2.59946 -2.20546 0
M  V30 1276 H 122.682 0.912626 -2.85677 0
M  V30 1277 H 120.235 0.43977 -1.49986 0
M  V30 1278 H 120.97 2.96696 -1.30927 0
M  V30 1279 H 120.755 2.49953 -3.02102 0
M  V30 1280 H 122.245 3.3431 -2.50253 0
M  V30 1281 N 122.682 1.50554 0.465978 0
M  V30 1282 C 123.91 1.65563 1.24083 0
M  V30 1283 C 124.325 0.341051 1.85694 0
M  V30 1284 O 123.682 -0.677543 1.69457 0
M  V30 1285 C 123.733 2.75051 2.34583 0
M  V30 1286 O 123.454 4.01413 1.75497 0
M  V30 1287 C 124.955 3.01078 3.25372 0
M  V30 1288 H 122.175 0.55638 0.375077 0
M  V30 1289 H 124.719 1.96807 0.555624 0
M  V30 1290 H 122.874 2.46486 2.9887 0
M  V30 1291 H 123.288 4.62002 2.48303 0
M  V30 1292 H 124.762 3.81339 3.99105 0
M  V30 1293 H 125.239 2.12349 3.84453 0
M  V30 1294 H 125.845 3.31194 2.66816 0
M  V30 1295 N 124.16 -0.719506 1.40217 0
M  V30 1296 C 125.406 -1.48152 1.38488 0
M  V30 1297 C 125.739 -1.94195 -0.0141867 0
M  V30 1298 O 125.014 -1.67884 -0.982096 0
M  V30 1299 C 125.297 -2.71035 2.37091 0
M  V30 1300 C 125.15 -2.30912 3.86005 0
M  V30 1301 C 126.469 -3.73182 2.33288 0
M  V30 1302 H 123.588 -0.537395 0.504357 0
M  V30 1303 H 126.23 -0.821472 1.71324 0
M  V30 1304 H 124.38 -3.27352 2.0922 0
M  V30 1305 H 126.052 -1.80107 4.24687 0
M  V30 1306 H 124.295 -1.62958 4.02029 0
M  V30 1307 H 124.966 -3.18978 4.50508 0
M  V30 1308 H 127.442 -3.26485 2.57966 0
M  V30 1309 H 126.318 -4.56806 3.04334 0
M  V30 1310 H 126.579 -4.21202 1.34317 0
M  V30 1311 N 125.638 -1.25649 -0.95132 0
M  V30 1312 C 126.568 -1.08808 -2.06599 0
M  V30 1313 C 127.549 0.00382547 -1.701 0
M  V30 1314 O 128.734 -0.166325 -1.93486 0
M  V30 1315 C 125.864 -0.709542 -3.39975 0
M  V30 1316 C 124.818 -1.75206 -3.90496 0
M  V30 1317 C 124.144 -1.22811 -5.20405 0
M  V30 1318 C 125.444 -3.15153 -4.16504 0
M  V30 1319 H 127.138 -2.02048 -2.20946 0
M  V30 1320 H 124.684 -0.972835 -1.06169 0
M  V30 1321 H 126.637 -0.578649 -4.17408 0
M  V30 1322 H 125.361 0.258556 -3.25575 0
M  V30 1323 H 124.02 -1.87145 -3.15234 0
M  V30 1324 H 123.668 -0.250145 -5.02378 0
M  V30 1325 H 123.368 -1.92492 -5.55176 0
M  V30 1326 H 124.892 -1.10968 -6.00432 0
M  V30 1327 H 126.306 -3.06349 -4.84586 0
M  V30 1328 H 124.703 -3.82333 -4.62538 0
M  V30 1329 H 125.773 -3.61966 -3.22658 0
M  V30 1330 N 127.117 1.15442 -1.07289 0
M  V30 1331 C 128.366 1.85557 -0.790669 0
M  V30 1332 C 128.679 1.83186 0.685739 0
M  V30 1333 O 129.885 2.48977 1.0827 0
M  V30 1334 C 128.341 3.33038 -1.36433 0
M  V30 1335 C 127.949 3.43856 -2.8717 0
M  V30 1336 C 129.693 4.0834 -1.1601 0
M  V30 1337 C 127.6 4.85482 -3.3773 0
M  V30 1338 H 126.53 0.695122 -0.292098 0
M  V30 1339 H 129.181 1.30219 -1.29287 0
M  V30 1340 H 127.563 3.88043 -0.789864 0
M  V30 1341 H 128.737 2.98961 -3.50655 0
M  V30 1342 H 127.052 2.81998 -3.06376 0
M  V30 1343 H 129.649 5.12859 -1.51262 0
M  V30 1344 H 129.992 4.16182 -0.0991007 0
M  V30 1345 H 130.525 3.59603 -1.70089 0
M  V30 1346 H 127.264 4.82823 -4.43353 0
M  V30 1347 H 126.784 5.30961 -2.78999 0
M  V30 1348 H 128.463 5.54335 -3.33648 0
M  V30 1349 N 128.595 0.856903 1.32268 0
M  V30 1350 C 130.011 0.547061 1.49931 0
M  V30 1351 C 130.211 -0.921781 1.7918 0
M  V30 1352 O 129.267 -1.70469 1.8627 0
M  V30 1353 C 130.58 1.43599 2.64196 0
M  V30 1354 C 132.128 1.43665 2.78081 0
M  V30 1355 C 132.603 2.31085 3.95428 0
M  V30 1356 N 134.094 2.28893 4.02694 0
M  V30 1357 C 134.829 2.93262 4.92732 0
M  V30 1358 N 134.325 3.66751 5.87763 0
M  V30 1359 N 136.118 2.82638 4.85873 0
M  V30 1360 H 128.269 1.8075 1.11549 0
M  V30 1361 H 130.532 0.772144 0.549997 0
M  V30 1362 H 130.238 2.48058 2.49319 0
M  V30 1363 H 130.112 1.12502 3.60032 0
M  V30 1364 H 132.499 0.399701 2.92381 0
M  V30 1365 H 132.58 1.7878 1.82952 0
M  V30 1366 H 132.224 3.34849 3.81888 0
M  V30 1367 H 132.154 1.93302 4.89839 0
M  V30 1368 H 134.645 1.75466 3.34694 0
M  V30 1369 H 134.958 4.13027 6.53168 0
M  V30 1370 H 133.303 3.70859 5.87783 0
M  V30 1371 H 136.494 2.24774 4.10602 0
M  V30 1372 H 136.667 3.33084 5.55841 0
M  V30 1373 N 130.073 -1.45103 0.615059 0
M  V30 1374 C 131.321 -2.01784 0.112955 0
M  V30 1375 C 131.642 -1.48504 -1.26378 0
M  V30 1376 O 130.912 -0.682245 -1.83636 0
M  V30 1377 H 129.492 -0.745993 0.0387668 0
M  V30 1378 H 132.154 -1.77808 0.798141 0
M  V30 1379 H 131.25 -3.12025 0.0684069 0
M  V30 1380 N 131.551 -0.354651 -1.53558 0
M  V30 1381 C 132.481 0.489091 -2.2832 0
M  V30 1382 C 133.462 1.09324 -1.30316 0
M  V30 1383 O 134.647 1.11255 -1.59173 0
M  V30 1384 C 131.777 1.63456 -3.0643 0
M  V30 1385 C 130.731 1.1582 -4.12031 0
M  V30 1386 C 130.057 2.39305 -4.7816 0
M  V30 1387 C 131.357 0.250731 -5.21698 0
M  V30 1388 H 133.051 -0.134614 -2.99097 0
M  V30 1389 H 130.597 -0.0661826 -1.43848 0
M  V30 1390 H 132.55 2.23136 -3.57475 0
M  V30 1391 H 131.274 2.28533 -2.33325 0
M  V30 1392 H 129.933 0.584146 -3.61916 0
M  V30 1393 H 129.581 3.02814 -4.01637 0
M  V30 1394 H 129.281 2.08109 -5.49513 0
M  V30 1395 H 130.805 2.99691 -5.31994 0
M  V30 1396 H 132.219 0.754695 -5.68311 0
M  V30 1397 H 130.616 0.0301468 -6.00092 0
M  V30 1398 H 131.686 -0.710125 -4.79672 0
M  V30 1399 N 133.029 1.57378 -0.0835403 0
M  V30 1400 C 134.445 1.57246 0.273109 0
M  V30 1401 C 134.645 1.09385 1.69225 0
M  V30 1402 O 133.701 0.765051 2.40631 0
M  V30 1403 C 135.014 3.00614 0.0720628 0
M  V30 1404 C 136.562 3.12684 0.1407 0
M  V30 1405 C 137.037 4.57989 -0.0322094 0
M  V30 1406 N 138.528 4.63194 0.0230085 0
M  V30 1407 C 139.263 5.73335 -0.0861941 0
M  V30 1408 N 138.759 6.9235 -0.24958 0
M  V30 1409 N 140.552 5.62093 -0.0282886 0
M  V30 1410 H 132.703 1.86801 -1.0109 0
M  V30 1411 H 134.966 0.861687 -0.395222 0
M  V30 1412 H 134.672 3.39786 -0.907662 0
M  V30 1413 H 134.546 3.68193 0.81936 0
M  V30 1414 H 136.933 2.73391 1.11092 0
M  V30 1415 H 137.014 2.47719 -0.637896 0
M  V30 1416 H 136.658 4.97973 -0.999247 0
M  V30 1417 H 136.588 5.21 0.765937 0
M  V30 1418 H 139.079 3.77613 0.14722 0
M  V30 1419 H 139.392 7.72117 -0.324733 0
M  V30 1420 H 137.737 6.94415 -0.285097 0
M  V30 1421 H 140.928 4.67997 0.0981408 0
M  V30 1422 H 141.101 6.47895 -0.116845 0
M  V30 1423 N 134.507 -0.190092 1.56449 0
M  V30 1424 C 135.47 -1.21925 1.9408 0
M  V30 1425 C 136.47 -1.38176 0.822431 0
M  V30 1426 O 137.66 -1.35903 1.08977 0
M  V30 1427 C 134.792 -2.58773 2.21922 0
M  V30 1428 H 135.985 -0.897464 2.86157 0
M  V30 1429 H 133.538 -0.43181 1.50217 0
M  V30 1430 H 134.273 -2.95998 1.32499 0
M  V30 1431 H 134.058 -2.48348 3.03424 0
M  V30 1432 H 135.548 -3.32978 2.52022 0
M  V30 1433 N 135.985 -1.50799 -0.457987 0
M  V30 1434 C 137.231 -1.62683 -1.21088 0
M  V30 1435 C 137.564 -0.332268 -1.91336 0
M  V30 1436 O 136.839 0.667043 -1.82704 0
M  V30 1437 C 137.122 -2.81615 -2.24422 0
M  V30 1438 C 136.975 -4.20989 -1.58392 0
M  V30 1439 C 138.294 -2.96085 -3.2561 0
M  V30 1440 H 135.413 -0.592087 -0.438864 0
M  V30 1441 H 138.055 -1.83225 -0.50286 0
M  V30 1442 H 136.205 -2.64231 -2.84806 0
M  V30 1443 H 137.877 -4.49994 -1.01504 0
M  V30 1444 H 136.12 -4.24641 -0.886704 0
M  V30 1445 H 136.791 -5.0016 -2.33547 0
M  V30 1446 H 139.267 -3.12042 -2.75262 0
M  V30 1447 H 138.143 -3.80902 -3.95228 0
M  V30 1448 H 138.404 -2.0726 -3.90507 0
M  V30 1449 N 137.463 0.71206 -1.40597 0
M  V30 1450 C 138.426 1.80785 -1.40888 0
M  V30 1451 C 139.426 1.57937 -0.302103 0
M  V30 1452 O 140.616 1.64913 -0.561182 0
M  V30 1453 C 137.748 3.18927 -1.20409 0
M  V30 1454 H 138.941 1.81924 -2.38419 0
M  V30 1455 H 136.494 0.91805 -1.26497 0
M  V30 1456 H 137.229 3.23436 -0.236522 0
M  V30 1457 H 137.014 3.36911 -2.00582 0
M  V30 1458 H 138.504 3.98949 -1.23408 0
M  V30 1459 N 138.941 1.26152 0.944643 0
M  V30 1460 C 140.218 1.02247 1.66748 0
M  V30 1461 C 140.598 -0.448202 2.06287 0
M  V30 1462 O 139.946 -1.42779 1.78399 0
M  V30 1463 C 140.156 1.96788 2.88228 0
M  V30 1464 C 141.504 2.25201 3.59958 0
M  V30 1465 O 142.528 1.94626 2.98327 0
M  V30 1466 O 141.387 2.77242 4.70956 0
M  V30 1467 H 138.481 0.388517 0.730057 0
M  V30 1468 H 141.027 1.37348 0.99668 0
M  V30 1469 H 139.799 2.96047 2.55875 0
M  V30 1470 H 139.422 1.62145 3.63035 0
M  V30 1471 N 140.419 -1.14872 1.07899 0
M  V30 1472 C 141.666 -1.85789 0.805532 0
M  V30 1473 C 141.994 -1.82649 -0.668561 0
M  V30 1474 O 141.249 -1.24858 -1.50695 0
M  V30 1475 C 141.548 -3.34223 1.26609 0
M  V30 1476 C 141.214 -3.57555 2.74709 0
M  V30 1477 C 139.876 -3.63631 3.1516 0
M  V30 1478 C 142.228 -3.66803 3.70277 0
M  V30 1479 C 139.556 -3.76473 4.49983 0
M  V30 1480 C 141.908 -3.8117 5.04869 0
M  V30 1481 C 140.572 -3.85494 5.44932 0
M  V30 1482 H 139.842 -0.679849 0.294765 0
M  V30 1483 H 142.489 -1.3572 1.35101 0
M  V30 1484 H 140.794 -3.86536 0.640103 0
M  V30 1485 H 142.491 -3.87511 1.03132 0
M  V30 1486 H 139.081 -3.5347 2.42398 0
M  V30 1487 H 143.265 -3.61404 3.40149 0
M  V30 1488 H 138.521 -3.7808 4.80484 0
M  V30 1489 H 142.695 -3.87268 5.78789 0
M  V30 1490 H 140.322 -3.95197 6.49403 0
M  V30 1491 N 141.898 -0.863906 -1.31812 0
M  V30 1492 C 142.808 -0.318461 -2.32428 0
M  V30 1493 C 143.824 0.568496 -1.64451 0
M  V30 1494 O 145 0.46666 -1.95919 0
M  V30 1495 C 142.065 0.476355 -3.43412 0
M  V30 1496 C 141.126 -0.43784 -4.27061 0
M  V30 1497 C 140.359 0.319138 -5.32745 0
M  V30 1498 O 140.582 1.54799 -5.48993 0
M  V30 1499 O 139.516 -0.319861 -6.01049 0
M  V30 1500 H 143.342 -1.15229 -2.80991 0
M  V30 1501 H 140.927 -0.627103 -1.35602 0
M  V30 1502 H 142.809 0.927156 -4.11074 0
M  V30 1503 H 141.484 1.28683 -2.97022 0
M  V30 1504 H 140.391 -0.937013 -3.62175 0
M  V30 1505 H 141.724 -1.21375 -4.77 0
M  V30 1506 N 143.376 1.44774 -0.622745 0
M  V30 1507 C 144.606 2.06187 -0.130532 0
M  V30 1508 C 145.014 1.46547 1.19669 0
M  V30 1509 O 144.357 0.579636 1.74316 0
M  V30 1510 C 144.419 3.59437 0.0674983 0
M  V30 1511 C 144.083 4.41496 -1.18026 0
M  V30 1512 C 145.08 4.75512 -2.102 0
M  V30 1513 C 142.765 4.82007 -1.41333 0
M  V30 1514 C 144.759 5.48912 -3.23998 0
M  V30 1515 C 142.446 5.55157 -2.55429 0
M  V30 1516 C 143.444 5.88528 -3.46589 0
M  V30 1517 O 143.132 6.60191 -4.58697 0
M  V30 1518 H 142.864 0.672045 -0.0730162 0
M  V30 1519 H 145.418 1.86768 -0.854802 0
M  V30 1520 H 143.648 3.77314 0.846825 0
M  V30 1521 H 145.337 4.02642 0.513209 0
M  V30 1522 H 146.103 4.4476 -1.93425 0
M  V30 1523 H 141.982 4.55457 -0.712709 0
M  V30 1524 H 145.526 5.74877 -3.95174 0
M  V30 1525 H 141.423 5.85324 -2.72151 0
M  V30 1526 H 142.191 6.78654 -4.57571 0
M  V30 1527 N 144.854 0.36279 1.53368 0
M  V30 1528 C 145.764 -0.492994 2.29362 0
M  V30 1529 C 146.78 -1.09507 1.35219 0
M  V30 1530 O 147.956 -1.10662 1.68273 0
M  V30 1531 C 145.021 -1.61855 3.066 0
M  V30 1532 C 144.082 -1.04429 4.16405 0
M  V30 1533 C 143.315 -2.11621 4.89951 0
M  V30 1534 O 143.538 -3.32684 4.63333 0
M  V30 1535 O 142.472 -1.74835 5.75948 0
M  V30 1536 H 146.298 0.125331 3.03441 0
M  V30 1537 H 143.883 0.127253 1.48857 0
M  V30 1538 H 145.765 -2.27302 3.54841 0
M  V30 1539 H 144.44 -2.22233 2.3536 0
M  V30 1540 H 143.347 -0.353819 3.72423 0
M  V30 1541 H 144.68 -0.485113 4.89804 0
M  V30 1542 N 146.332 -1.57332 0.0918853 0
M  V30 1543 C 147.265 -2.09499 -0.904735 0
M  V30 1544 C 148.243 -1.00479 -1.27839 0
M  V30 1545 O 149.427 -1.27954 -1.38419 0
M  V30 1546 C 146.554 -2.56931 -2.2069 0
M  V30 1547 C 145.6 -3.77579 -1.98334 0
M  V30 1548 S 146.433 -5.21317 -1.22428 0
M  V30 1549 C 147.589 -5.72097 -2.53882 0
M  V30 1550 H 147.822 -2.93705 -0.460922 0
M  V30 1551 H 145.355 -1.53923 -0.121332 0
M  V30 1552 H 147.313 -2.84917 -2.95521 0
M  V30 1553 H 145.974 -1.72956 -2.62192 0
M  V30 1554 H 145.167 -4.08824 -2.94752 0
M  V30 1555 H 144.769 -3.5007 -1.31633 0
M  V30 1556 H 147.061 -5.80168 -3.49874 0
M  V30 1557 H 148.004 -6.70654 -2.27219 0
M  V30 1558 H 148.412 -5.00012 -2.62007 0
M  V30 1559 N 147.81 0.181792 -1.56548 0
M  V30 1560 C 148.742 1.24956 -1.92142 0
M  V30 1561 C 149.755 1.41022 -0.813422 0
M  V30 1562 O 150.944 1.41212 -1.09186 0
M  V30 1563 C 148.044 2.61981 -2.14987 0
M  V30 1564 C 147.217 2.6735 -3.46183 0
M  V30 1565 C 146.276 3.85664 -3.5798 0
M  V30 1566 O 145.302 3.72148 -4.30691 0
M  V30 1567 N 146.504 5.01683 -2.92053 0
M  V30 1568 H 149.269 0.947329 -2.84334 0
M  V30 1569 H 146.83 0.371629 -1.57577 0
M  V30 1570 H 148.822 3.3958 -2.20154 0
M  V30 1571 H 147.392 2.84637 -1.2923 0
M  V30 1572 H 146.612 1.75925 -3.52766 0
M  V30 1573 H 147.9 2.67939 -4.32534 0
M  V30 1574 H 147.298 5.15564 -2.32832 0
M  V30 1575 H 145.855 5.77181 -3.0283 0
M  V30 1576 N 149.288 1.51039 0.449983 0
M  V30 1577 C 150.218 1.74379 1.55288 0
M  V30 1578 C 151.199 0.593236 1.5942 0
M  V30 1579 O 152.384 0.834625 1.7535 0
M  V30 1580 C 149.514 1.85728 2.93466 0
M  V30 1581 C 148.468 3.01078 3.04197 0
M  V30 1582 C 147.794 2.97595 4.44231 0
M  V30 1583 C 149.094 4.41254 2.7945 0
M  V30 1584 H 150.788 2.66725 1.36008 0
M  V30 1585 H 148.334 1.2835 0.652864 0
M  V30 1586 H 150.287 2.0064 3.70569 0
M  V30 1587 H 149.011 0.900207 3.13949 0
M  V30 1588 H 147.67 2.85851 2.29531 0
M  V30 1589 H 147.318 1.99691 4.61663 0
M  V30 1590 H 147.018 3.75046 4.52343 0
M  V30 1591 H 148.542 3.14583 5.23326 0
M  V30 1592 H 149.956 4.56897 3.46292 0
M  V30 1593 H 148.353 5.20315 2.98985 0
M  V30 1594 H 149.423 4.52164 1.75144 0
M  V30 1595 N 150.766 -0.704594 1.40972 0
M  V30 1596 C 151.729 -1.80035 1.41845 0
M  V30 1597 C 152.729 -1.57774 0.310474 0
M  V30 1598 O 153.919 -1.64613 0.56992 0
M  V30 1599 C 151.051 -3.18284 1.22098 0
M  V30 1600 H 152.244 -1.80658 2.3938 0
M  V30 1601 H 149.797 -0.911329 1.26982 0
M  V30 1602 H 150.532 -3.23306 0.253672 0
M  V30 1603 H 150.317 -3.35843 2.02366 0
M  V30 1604 H 151.807 -3.98289 1.25522 0
M  V30 1605 N 152.244 -1.26651 -0.937939 0
M  V30 1606 C 153.194 -1.05156 -2.02302 0
M  V30 1607 C 154.178 0.0171233 -1.60891 0
M  V30 1608 O 155.37 -0.200213 -1.75864 0
M  V30 1609 C 152.499 -0.689962 -3.36295 0
M  V30 1610 C 151.585 -1.79626 -3.84181 0
M  V30 1611 N 151.976 -3.03422 -4.04684 0
M  V30 1612 C 150.274 -1.6806 -4.13124 0
M  V30 1613 C 150.975 -3.75345 -4.444 0
M  V30 1614 N 149.951 -3.03051 -4.51288 0
M  V30 1615 H 153.753 -1.99117 -2.1617 0
M  V30 1616 H 151.267 -1.17216 -1.12402 0
M  V30 1617 H 153.264 -0.517112 -4.13681 0
M  V30 1618 H 151.924 0.242139 -3.23796 0
M  V30 1619 H 152.935 -3.39293 -3.91281 0
M  V30 1620 H 149.612 -0.818629 -4.09396 0
M  V30 1621 H 151.002 -4.81691 -4.68427 0
M  V30 1622 N 153.722 1.14298 -1.08507 0
M  V30 1623 C 154.655 2.18447 -0.660004 0
M  V30 1624 C 155.633 1.59242 0.328749 0
M  V30 1625 O 156.817 1.87062 0.232367 0
M  V30 1626 C 153.944 3.38688 0.0290807 0
M  V30 1627 C 152.99 4.1646 -0.919982 0
M  V30 1628 S 153.823 4.77334 -2.42718 0
M  V30 1629 C 154.979 6.00931 -1.75024 0
M  V30 1630 H 155.212 2.54166 -1.54231 0
M  V30 1631 H 152.745 1.25446 -0.900149 0
M  V30 1632 H 154.703 4.08342 0.420378 0
M  V30 1633 H 153.364 3.01289 0.887895 0
M  V30 1634 H 152.557 5.02529 -0.384751 0
M  V30 1635 H 152.159 3.52414 -1.25223 0
M  V30 1636 H 154.451 6.69017 -1.06877 0
M  V30 1637 H 155.394 6.59044 -2.58971 0
M  V30 1638 H 155.802 5.51089 -1.22317 0
M  V30 1639 N 155.201 0.870884 1.31352 0
M  V30 1640 C 156.149 0.316445 2.30437 0
M  V30 1641 C 157.143 -0.568965 1.59559 0
M  V30 1642 O 158.349 -0.454964 1.74155 0
M  V30 1643 H 154.724 0.0836521 0.747333 0
M  V30 1644 H 156.695 1.16606 2.74673 0
M  V30 1645 C 155.444 -0.46635 3.44558 0
M  V30 1646 H 154.767 0.205687 3.99271 0
M  V30 1647 H 156.207 -0.819614 4.16003 0
M  V30 1648 C 154.666 -1.65797 2.9328 0
M  V30 1649 O 155.196 -2.75728 2.92125 0
M  V30 1650 N 153.402 -1.49041 2.4947 0
M  V30 1651 H 152.949 -0.59612 2.50608 0
M  V30 1652 H 152.907 -2.28911 2.15516 0
M  V30 1653 N 156.679 -1.44442 0.630414 0
M  V30 1654 C 158.095 -1.56832 0.295973 0
M  V30 1655 C 158.295 -1.61806 -1.20088 0
M  V30 1656 O 157.351 -1.5607 -1.9849 0
M  V30 1657 C 158.664 -2.84031 0.987264 0
M  V30 1658 C 160.212 -2.97742 0.96534 0
M  V30 1659 C 160.687 -4.27743 1.63708 0
M  V30 1660 N 162.178 -4.34555 1.60364 0
M  V30 1661 C 162.913 -5.33862 2.09234 0
M  V30 1662 N 162.409 -6.39578 2.66292 0
M  V30 1663 N 164.202 -5.25366 1.99867 0
M  V30 1664 H 156.353 -1.39457 1.60205 0
M  V30 1665 H 158.616 -0.668237 0.672431 0
M  V30 1666 H 158.322 -2.86338 2.04215 0
M  V30 1667 H 158.196 -3.73534 0.524588 0
M  V30 1668 H 160.583 -2.94989 -0.0810639 0
M  V30 1669 H 160.664 -2.09589 1.4665 0
M  V30 1670 H 160.308 -4.31255 2.68293 0
M  V30 1671 H 160.238 -5.14752 1.11076 0
M  V30 1672 H 162.729 -3.58772 1.18705 0
M  V30 1673 H 163.042 -7.11637 3.01317 0
M  V30 1674 H 161.387 -6.40265 2.70343 0
M  V30 1675 H 164.578 -4.41688 1.55013 0
M  V30 1676 H 164.751 -6.02606 2.38265 0
M  V30 1677 N 158.157 -0.370918 -1.53173 0
M  V30 1678 C 159.107 0.489588 -2.22681 0
M  V30 1679 C 160.091 1.04442 -1.22395 0
M  V30 1680 O 161.283 0.973578 -1.47819 0
M  V30 1681 C 158.412 1.626 -3.02351 0
M  V30 1682 C 157.498 1.08379 -4.10018 0
M  V30 1683 N 157.889 0.265004 -5.05105 0
M  V30 1684 C 156.187 1.35809 -4.2482 0
M  V30 1685 C 156.888 -0.0324755 -5.81691 0
M  V30 1686 N 155.864 0.566581 -5.40639 0
M  V30 1687 H 159.666 -0.142729 -2.93553 0
M  V30 1688 H 157.18 -0.179221 -1.61408 0
M  V30 1689 H 159.177 2.2547 -3.50669 0
M  V30 1690 H 157.837 2.26132 -2.33011 0
M  V30 1691 H 158.848 -0.0962352 -5.17811 0
M  V30 1692 H 155.525 1.9958 -3.66707 0
M  V30 1693 H 156.915 -0.69473 -6.68299 0
M  V30 1694 N 159.635 1.57281 -0.100228 0
M  V30 1695 C 160.565 2.17328 0.853857 0
M  V30 1696 C 161.546 1.10804 1.2906 0
M  V30 1697 O 162.731 1.38963 1.35657 0
M  V30 1698 C 159.861 2.75772 2.11109 0
M  V30 1699 C 158.815 3.87713 1.81279 0
M  V30 1700 C 158.141 4.32882 3.13874 0
M  V30 1701 C 159.441 5.10677 1.09574 0
M  V30 1702 H 161.135 2.97305 0.353545 0
M  V30 1703 H 158.681 1.43009 0.168612 0
M  V30 1704 H 160.634 3.16433 2.78296 0
M  V30 1705 H 159.358 1.93057 2.63432 0
M  V30 1706 H 158.017 3.476 1.16489 0
M  V30 1707 H 157.665 3.47051 3.64095 0
M  V30 1708 H 157.365 5.08358 2.94696 0
M  V30 1709 H 158.889 4.7618 3.82211 0
M  V30 1710 H 160.303 5.48474 1.66879 0
M  V30 1711 H 158.7 5.91615 1.00557 0
M  V30 1712 H 159.77 4.84835 0.0793299 0
M  V30 1713 N 161.113 -0.173488 1.56642 0
M  V30 1714 C 162.046 -1.24353 1.91342 0
M  V30 1715 C 163.024 -1.4289 0.775965 0
M  V30 1716 O 164.208 -1.57932 1.02907 0
M  V30 1717 C 161.335 -2.60683 2.16245 0
M  V30 1718 C 160.381 -2.58894 3.38934 0
M  V30 1719 S 161.214 -2.0819 4.93373 0
M  V30 1720 C 162.37 -3.46302 5.21369 0
M  V30 1721 H 162.603 -0.947345 2.81803 0
M  V30 1722 H 160.136 -0.377958 1.49703 0
M  V30 1723 H 162.094 -3.39149 2.31275 0
M  V30 1724 H 160.755 -2.87502 1.26496 0
M  V30 1725 H 159.948 -3.59188 3.53553 0
M  V30 1726 H 159.55 -1.88522 3.2301 0
M  V30 1727 H 161.842 -4.42287 5.13214 0
M  V30 1728 H 162.785 -3.3656 6.23003 0
M  V30 1729 H 163.193 -3.42214 4.48943 0
M  V30 1730 N 162.591 -1.51276 -0.441967 0
M  V30 1731 C 164.002 -1.56244 -1.02199 0
M  V30 1732 C 164.353 -0.383149 -1.92422 0
M  V30 1733 O 163.478 0.500613 -2.1053 0
M  V30 1734 C 164.073 -2.83162 -1.86024 0
M  V30 1735 C 162.632 -2.90716 -2.39084 0
M  V30 1736 C 161.779 -2.50858 -1.18175 0
M  V30 1737 H 164.73 -1.5712 -0.223416 0
M  V30 1738 H 164.751 -2.66663 -2.71425 0
M  V30 1739 H 164.263 -3.68974 -1.20331 0
M  V30 1740 H 162.364 -2.09323 -3.08244 0
M  V30 1741 H 162.477 -3.94266 -2.72198 0
M  V30 1742 H 160.841 -2.03951 -1.52565 0
M  V30 1743 H 161.624 -3.3901 -0.541001 0
M  V30 1744 N 164.069 0.697108 -1.41344 0
M  V30 1745 C 164.979 1.84088 -1.45427 0
M  V30 1746 C 165.995 1.70545 -0.34501 0
M  V30 1747 O 167.171 1.92488 -0.592492 0
M  V30 1748 C 164.236 3.20056 -1.33286 0
M  V30 1749 C 163.297 3.45718 -2.54514 0
M  V30 1750 C 162.53 4.75199 -2.42944 0
M  V30 1751 O 162.753 5.51579 -1.45318 0
M  V30 1752 O 161.687 5.0161 -3.32672 0
M  V30 1753 H 165.513 1.836 -2.41919 0
M  V30 1754 H 163.098 0.849966 -1.22866 0
M  V30 1755 H 164.98 4.01236 -1.28794 0
M  V30 1756 H 163.655 3.2123 -0.39909 0
M  V30 1757 H 162.562 2.64474 -2.64583 0
M  V30 1758 H 163.895 3.49356 -3.46715 0
M  V30 1759 N 165.547 1.27147 0.931209 0
M  V30 1760 C 166.477 1.12081 2.04842 0
M  V30 1761 C 167.458 0.0232364 1.70084 0
M  V30 1762 O 168.643 0.197085 1.93197 0
M  V30 1763 C 165.773 0.76354 3.38803 0
M  V30 1764 C 164.727 1.81396 3.87659 0
M  V30 1765 C 164.053 1.31075 5.18385 0
M  V30 1766 C 165.353 3.21739 4.11438 0
M  V30 1767 H 167.047 2.05537 2.17703 0
M  V30 1768 H 164.593 0.989603 1.04608 0
M  V30 1769 H 166.546 0.644982 4.16435 0
M  V30 1770 H 165.27 -0.206727 3.25945 0
M  V30 1771 H 163.929 1.92136 3.12217 0
M  V30 1772 H 163.577 0.330037 5.01916 0
M  V30 1773 H 163.277 2.013 5.52044 0
M  V30 1774 H 164.801 1.20506 5.98591 0
M  V30 1775 H 166.215 3.14019 4.79651 0
M  V30 1776 H 164.612 3.89644 4.56397 0
M  V30 1777 H 165.682 3.67054 3.16859 0
M  V30 1778 N 167.025 -1.13721 1.09112 0
M  V30 1779 C 167.935 -2.22638 0.73957 0
M  V30 1780 C 168.951 -1.72091 -0.257068 0
M  V30 1781 O 170.127 -2.01155 -0.0992154 0
M  V30 1782 C 167.192 -3.46322 0.16191 0
M  V30 1783 C 166.253 -4.11775 1.21408 0
M  V30 1784 C 165.486 -5.29555 0.663891 0
M  V30 1785 O 165.709 -5.68077 -0.514274 0
M  V30 1786 O 164.643 -5.84973 1.41738 0
M  V30 1787 H 168.469 -2.55074 1.64836 0
M  V30 1788 H 166.054 -1.21791 0.865289 0
M  V30 1789 H 167.936 -4.21107 -0.157073 0
M  V30 1790 H 166.611 -3.15593 -0.719932 0
M  V30 1791 H 165.518 -3.3883 1.58571 0
M  V30 1792 H 166.851 -4.46627 2.06845 0
M  V30 1793 N 168.503 -0.877838 -1.30888 0
M  V30 1794 C 169.728 -0.506629 -2.01117 0
M  V30 1795 C 170.153 0.895564 -1.65412 0
M  V30 1796 O 169.511 1.5923 -0.866922 0
M  V30 1797 C 169.559 -0.680223 -3.54126 0
M  V30 1798 O 168.663 0.277033 -4.11468 0
M  V30 1799 H 168.004 -0.200518 -0.633 0
M  V30 1800 H 170.534 -1.18342 -1.66902 0
M  V30 1801 H 170.544 -0.5765 -4.03907 0
M  V30 1802 H 169.219 -1.70261 -3.79452 0
M  V30 1803 H 167.796 0.127606 -3.72682 0
M  V30 1804 N 169.982 1.44106 -0.638065 0
M  V30 1805 C 171.228 2.02277 -0.145546 0
M  V30 1806 C 171.561 1.50125 1.23191 0
M  V30 1807 O 170.836 0.688133 1.8192 0
M  V30 1808 C 171.119 3.59829 -0.139791 0
M  V30 1809 C 170.972 4.22247 -1.55008 0
M  V30 1810 C 172.291 4.36873 0.531966 0
M  V30 1811 H 169.41 0.734992 -0.0543632 0
M  V30 1812 H 172.052 1.71592 -0.815863 0
M  V30 1813 H 170.202 3.86102 0.431007 0
M  V30 1814 H 171.874 4.07057 -2.1703 0
M  V30 1815 H 170.117 3.79476 -2.10191 0
M  V30 1816 H 170.788 5.31284 -1.49804 0
M  V30 1817 H 173.264 4.16074 0.0464781 0
M  V30 1818 H 172.14 5.4657 0.505206 0
M  V30 1819 H 172.401 4.11995 1.60352 0
M  V30 1820 N 171.46 0.379036 1.52974 0
M  V30 1821 C 172.707 -0.206421 2.01445 0
M  V30 1822 C 173.035 -1.47668 1.26587 0
M  V30 1823 O 172.29 -1.92514 0.351675 0
M  V30 1824 C 172.589 -0.53096 3.53434 0
M  V30 1825 C 172.255 0.646546 4.46241 0
M  V30 1826 C 170.917 0.969604 4.7133 0
M  V30 1827 C 173.269 1.43479 5.01062 0
M  V30 1828 C 170.597 2.08263 5.48492 0
M  V30 1829 C 172.949 2.53834 5.7944 0
M  V30 1830 C 171.613 2.86659 6.02812 0
M  V30 1831 H 170.883 -0.0755349 0.73714 0
M  V30 1832 H 173.53 0.514271 1.84465 0
M  V30 1833 H 171.835 -1.33285 3.68432 0
M  V30 1834 H 173.532 -0.996417 3.88423 0
M  V30 1835 H 170.122 0.384734 4.2687 0
M  V30 1836 H 174.306 1.19844 4.81613 0
M  V30 1837 H 169.562 2.34078 5.64816 0
M  V30 1838 H 173.736 3.15319 6.20924 0
M  V30 1839 H 171.363 3.73026 6.62387 0
M  V30 1840 N 172.938 -1.57226 0.108567 0
M  V30 1841 C 173.868 -2.17778 -0.84232 0
M  V30 1842 C 174.849 -1.11487 -1.2847 0
M  V30 1843 O 176.034 -1.39681 -1.34918 0
M  V30 1844 C 173.164 -2.76888 -2.09644 0
M  V30 1845 C 172.118 -3.88669 -1.79221 0
M  V30 1846 C 171.444 -4.34541 -3.11574 0
M  V30 1847 C 172.744 -5.11251 -1.06864 0
M  V30 1848 H 174.438 -2.97489 -0.337774 0
M  V30 1849 H 171.984 -1.43097 -0.161025 0
M  V30 1850 H 173.937 -3.17904 -2.76614 0
M  V30 1851 H 172.661 -1.94451 -2.62405 0
M  V30 1852 H 171.32 -3.48213 -1.14644 0
M  V30 1853 H 170.968 -3.48977 -3.62249 0
M  V30 1854 H 170.668 -5.09914 -2.91996 0
M  V30 1855 H 172.192 -4.782 -3.7968 0
M  V30 1856 H 173.606 -5.49352 -1.63968 0
M  V30 1857 H 172.003 -5.9214 -0.974178 0
M  V30 1858 H 173.073 -4.8487 -0.0536168 0
M  V30 1859 N 174.416 0.165178 -1.56732 0
M  V30 1860 C 175.349 1.23336 -1.91998 0
M  V30 1861 C 176.327 1.42476 -0.783531 0
M  V30 1862 O 177.511 1.57384 -1.03743 0
M  V30 1863 C 174.638 2.59533 -2.17625 0
M  V30 1864 C 173.684 2.57093 -3.40302 0
M  V30 1865 S 174.517 2.05571 -4.9447 0
M  V30 1866 C 175.673 3.43532 -5.23198 0
M  V30 1867 H 175.906 0.932387 -2.82301 0
M  V30 1868 H 173.439 0.370013 -1.49901 0
M  V30 1869 H 175.397 3.37918 -2.3307 0
M  V30 1870 H 174.058 2.86827 -1.28019 0
M  V30 1871 H 173.251 3.57308 -3.55453 0
M  V30 1872 H 172.853 1.86806 -3.24005 0
M  V30 1873 H 175.145 4.39559 -5.15552 0
M  V30 1874 H 176.088 3.33251 -6.2478 0
M  V30 1875 H 176.496 3.39828 -4.50752 0
M  V30 1876 N 175.894 1.51508 0.433938 0
M  V30 1877 C 177.305 1.56784 1.01369 0
M  V30 1878 C 177.656 0.393349 1.92217 0
M  V30 1879 O 176.781 -0.489441 2.10792 0
M  V30 1880 C 177.376 2.84144 1.8452 0
M  V30 1881 C 175.935 2.9198 2.37539 0
M  V30 1882 C 175.082 2.51482 1.16843 0
M  V30 1883 H 178.033 1.57236 0.215081 0
M  V30 1884 H 178.054 2.68098 2.70007 0
M  V30 1885 H 177.566 3.69607 1.18373 0
M  V30 1886 H 175.667 2.10955 3.0713 0
M  V30 1887 H 175.78 3.95704 2.70103 0
M  V30 1888 H 174.144 2.04758 1.51481 0
M  V30 1889 H 174.927 3.39293 0.523015 0
M  V30 1890 N 177.372 -0.689602 1.41712 0
M  V30 1891 C 178.597 -1.48329 1.44959 0
M  V30 1892 C 179.022 -1.8801 0.0581283 0
M  V30 1893 O 178.38 -1.55026 -0.940035 0
M  V30 1894 C 178.428 -2.71835 2.36935 0
M  V30 1895 O 177.532 -3.69549 1.8305 0
M  V30 1896 H 176.873 -0.446199 0.491734 0
M  V30 1897 H 179.403 -0.847127 1.86239 0
M  V30 1898 H 179.413 -3.20076 2.53013 0
M  V30 1899 H 178.088 -2.42291 3.38035 0
M  V30 1900 H 176.665 -3.2851 1.76452 0
M  V30 1901 N 178.85 -1.27639 -0.924453 0
M  V30 1902 C 179.797 -1.10644 -2.0255 0
M  V30 1903 C 180.767 -0.00658438 -1.66099 0
M  V30 1904 O 181.952 -0.16952 -1.90045 0
M  V30 1905 C 179.092 -0.76309 -3.36557 0
M  V30 1906 C 178.205 -1.94091 -3.85944 0
M  V30 1907 C 177.34 -1.53914 -5.08413 0
M  V30 1908 C 176.379 -2.68425 -5.50104 0
M  V30 1909 N 175.516 -2.28815 -6.63768 0
M  V30 1910 H 180.356 -2.04858 -2.16419 0
M  V30 1911 H 177.893 -1.01974 -1.06017 0
M  V30 1912 H 179.851 -0.544822 -4.13627 0
M  V30 1913 H 178.481 0.142102 -3.22487 0
M  V30 1914 H 177.533 -2.27162 -3.05125 0
M  V30 1915 H 178.845 -2.7998 -4.12811 0
M  V30 1916 H 177.999 -1.28231 -5.92994 0
M  V30 1917 H 176.738 -0.651391 -4.8333 0
M  V30 1918 H 175.743 -2.94819 -4.64071 0
M  V30 1919 H 176.968 -3.57826 -5.7718 0
M  V30 1920 H 174.914 -1.42495 -6.40337 0
M  V30 1921 H 174.831 -3.08242 -6.90306 0
M  V30 1922 H 176.099 -2.06387 -7.51681 0
M  V30 1923 N 180.328 1.1314 -1.09713 0
M  V30 1924 C 181.238 2.22242 -0.751367 0
M  V30 1925 C 182.254 1.72224 0.247938 0
M  V30 1926 O 183.43 2.01205 0.0885463 0
M  V30 1927 C 180.495 3.46231 -0.180274 0
M  V30 1928 C 179.556 4.11125 -1.2359 0
M  V30 1929 C 178.789 5.29195 -0.691966 0
M  V30 1930 O 179.012 5.68342 0.48414 0
M  V30 1931 O 177.946 5.84214 -1.44838 0
M  V30 1932 H 181.772 2.54197 -1.66186 0
M  V30 1933 H 179.357 1.21331 -0.871735 0
M  V30 1934 H 181.239 4.21185 0.134739 0
M  V30 1935 H 179.914 3.1597 0.703185 0
M  V30 1936 H 178.821 3.37985 -1.60366 0
M  V30 1937 H 180.154 4.45524 -2.09211 0
M  V30 1938 N 181.806 0.884767 1.30421 0
M  V30 1939 C 183.052 0.513218 1.96819 0
M  V30 1940 C 183.407 -0.927347 1.68577 0
M  V30 1941 O 182.7 -1.64644 0.979941 0
M  V30 1942 C 182.894 0.724318 3.49983 0
M  V30 1943 C 182.723 2.18385 3.93113 0
M  V30 1944 C 181.493 2.82839 4.18725 0
M  V30 1945 C 183.691 3.15763 4.05953 0
M  V30 1946 N 181.673 4.1939 4.48314 0
M  V30 1947 C 183.044 4.37387 4.39423 0
M  V30 1948 C 185.099 3.11555 3.88379 0
M  V30 1949 C 183.802 5.55343 4.5715 0
M  V30 1950 C 185.828 4.28782 4.07308 0
M  V30 1951 C 185.19 5.49172 4.41123 0
M  V30 1952 H 181.289 0.237123 0.745182 0
M  V30 1953 H 183.873 1.14246 1.57658 0
M  V30 1954 H 182.044 0.124565 3.882 0
M  V30 1955 H 183.776 0.31969 4.03435 0
M  V30 1956 H 180.531 2.33708 4.11919 0
M  V30 1957 H 180.955 4.89911 4.67243 0
M  V30 1958 H 185.597 2.19576 3.61312 0
M  V30 1959 H 183.315 6.47826 4.8306 0
M  V30 1960 H 186.901 4.26995 3.95179 0
M  V30 1961 H 185.781 6.38371 4.55469 0
M  V30 1962 N 183.284 -1.43765 0.645699 0
M  V30 1963 C 184.509 -2.06767 0.161883 0
M  V30 1964 C 184.934 -1.48034 -1.16049 0
M  V30 1965 O 184.292 -0.587369 -1.71522 0
M  V30 1966 C 184.34 -3.60519 0.0762003 0
M  V30 1967 O 183.444 -4.00982 -0.963721 0
M  V30 1968 H 182.785 -0.657675 0.091429 0
M  V30 1969 H 185.315 -1.84397 0.886499 0
M  V30 1970 H 185.325 -4.07853 -0.109604 0
M  V30 1971 H 184 -4.02646 1.04157 0
M  V30 1972 H 182.577 -3.65253 -0.751312 0
M  V30 1973 N 184.763 -0.387143 -1.52771 0
M  V30 1974 C 186.01 0.195735 -2.01552 0
M  V30 1975 C 186.338 1.46995 -1.27369 0
M  V30 1976 O 185.593 1.92325 -0.361879 0
M  V30 1977 C 185.892 0.512209 -3.53711 0
M  V30 1978 C 185.558 -0.670202 -4.45891 0
M  V30 1979 C 184.22 -0.994586 -4.70809 0
M  V30 1980 C 186.572 -1.46134 -5.00294 0
M  V30 1981 C 183.9 -2.11169 -5.4738 0
M  V30 1982 C 186.252 -2.56903 -5.78086 0
M  V30 1983 C 184.916 -2.89852 -6.01284 0
M  V30 1984 H 184.186 0.0716246 -0.73753 0
M  V30 1985 H 186.833 -0.524046 -1.8419 0
M  V30 1986 H 185.138 1.31329 -3.69134 0
M  V30 1987 H 186.835 0.975804 -3.88946 0
M  V30 1988 H 183.425 -0.407366 -4.2666 0
M  V30 1989 H 187.609 -1.22397 -4.80971 0
M  V30 1990 H 182.865 -2.3707 -5.63567 0
M  V30 1991 H 187.039 -3.18608 -6.19243 0
M  V30 1992 H 184.666 -3.76533 -6.60399 0
M  V30 1993 N 186.241 1.57166 -0.116904 0
M  V30 1994 C 187.49 1.94298 0.541407 0
M  V30 1995 C 187.803 1.00236 1.67964 0
M  V30 1996 O 189.009 1.26826 2.40057 0
M  V30 1997 C 187.465 3.45306 1.01449 0
M  V30 1998 C 187.073 4.47899 -0.0951738 0
M  V30 1999 C 188.817 3.91361 1.6443 0
M  V30 2000 C 186.724 5.90083 0.394491 0
M  V30 2001 H 185.654 0.725308 0.206019 0
M  V30 2002 H 188.305 1.82446 -0.196419 0
M  V30 2003 H 186.687 3.52385 1.80667 0
M  V30 2004 H 187.861 4.52486 -0.871374 0
M  V30 2005 H 186.176 4.11583 -0.631505 0
M  V30 2006 H 188.773 4.95004 2.02176 0
M  V30 2007 H 189.116 3.3122 2.52189 0
M  V30 2008 H 189.649 3.87073 0.917559 0
M  V30 2009 H 186.388 6.53974 -0.447004 0
M  V30 2010 H 185.908 5.88921 1.13722 0
M  V30 2011 H 187.587 6.41307 0.856399 0
M  V30 2012 N 187.719 -0.156864 1.56817 0
M  V30 2013 C 188.944 -0.890331 1.87318 0
M  V30 2014 C 189.369 -1.74394 0.704855 0
M  V30 2015 O 188.727 -1.77972 -0.345786 0
M  V30 2016 C 188.775 -1.73102 3.16336 0
M  V30 2017 O 187.879 -2.83422 2.99576 0
M  V30 2018 H 187.22 -0.24857 0.615718 0
M  V30 2019 H 189.75 -0.150649 2.04045 0
M  V30 2020 H 189.76 -2.12803 3.48107 0
M  V30 2021 H 188.435 -1.10412 4.00976 0
M  V30 2022 H 187.012 -2.47199 2.7919 0
M  V30 2023 N 189.197 -1.51736 -0.425897 0
M  V30 2024 C 190.422 -1.69082 -1.20108 0
M  V30 2025 C 190.847 -0.392398 -1.83962 0
M  V30 2026 O 190.205 0.64858 -1.69302 0
M  V30 2027 C 190.253 -2.81604 -2.25237 0
M  V30 2028 O 189.357 -2.46004 -3.30992 0
M  V30 2029 H 188.698 -0.563408 -0.35138 0
M  V30 2030 H 191.228 -1.98358 -0.501512 0
M  V30 2031 H 191.238 -3.06025 -2.69838 0
M  V30 2032 H 189.913 -3.75817 -1.78142 0
M  V30 2033 H 188.49 -2.32195 -2.91787 0
M  V30 2034 N 190.675 0.682077 -1.42076 0
M  V30 2035 C 191.9 1.47558 -1.45744 0
M  V30 2036 C 192.325 1.87977 -0.0680981 0
M  V30 2037 O 191.683 1.55522 0.9318 0
M  V30 2038 C 191.731 2.70575 -2.38373 0
M  V30 2039 O 190.835 3.68573 -1.85007 0
M  V30 2040 H 190.176 0.443585 -0.494093 0
M  V30 2041 H 192.706 0.837238 -1.86686 0
M  V30 2042 H 192.716 3.18729 -2.54707 0
M  V30 2043 H 191.391 2.40495 -3.39315 0
M  V30 2044 H 189.968 3.2757 -1.78192 0
M  V30 2045 N 192.153 1.28127 0.917671 0
M  V30 2046 C 193.083 1.14248 2.03641 0
M  V30 2047 C 194.064 0.0412748 1.7005 0
M  V30 2048 O 195.249 0.217566 1.92977 0
M  V30 2049 C 192.379 0.799431 3.37974 0
M  V30 2050 C 191.333 1.85497 3.85713 0
M  V30 2051 C 190.659 1.36565 5.16966 0
M  V30 2052 C 191.959 3.26085 4.08002 0
M  V30 2053 H 193.653 2.07835 2.15511 0
M  V30 2054 H 191.199 1.00064 1.03553 0
M  V30 2055 H 193.152 0.689114 4.15727 0
M  V30 2056 H 191.876 -0.172145 3.26146 0
M  V30 2057 H 190.535 1.95437 3.10161 0
M  V30 2058 H 190.183 0.383253 5.01538 0
M  V30 2059 H 189.883 2.07143 5.49878 0
M  V30 2060 H 191.407 1.26848 5.97279 0
M  V30 2061 H 192.821 3.19089 4.76293 0
M  V30 2062 H 191.218 3.94462 4.52238 0
M  V30 2063 H 192.288 3.70394 3.12948 0
M  V30 2064 N 193.631 -1.12557 1.10312 0
M  V30 2065 C 194.877 -1.84311 0.846011 0
M  V30 2066 C 195.21 -1.83805 -0.626859 0
M  V30 2067 O 194.485 -1.28268 -1.46211 0
M  V30 2068 C 194.768 -3.32048 1.39341 0
M  V30 2069 C 194.621 -3.41016 2.93305 0
M  V30 2070 C 195.94 -4.27764 1.03468 0
M  V30 2071 H 193.059 -0.669192 0.30879 0
M  V30 2072 H 195.701 -1.32057 1.36605 0
M  V30 2073 H 193.851 -3.76678 0.951087 0
M  V30 2074 H 195.523 -3.05031 3.46055 0
M  V30 2075 H 193.766 -2.81603 3.29973 0
M  V30 2076 H 194.437 -4.44948 3.26689 0
M  V30 2077 H 196.913 -3.91253 1.41633 0
M  V30 2078 H 195.789 -5.29549 1.44463 0
M  V30 2079 H 196.05 -4.42064 -0.0560404 0
M  V30 2080 N 195.109 -0.891671 -1.2995 0
M  V30 2081 C 196.056 -0.361736 -2.27948 0
M  V30 2082 C 197.026 0.551761 -1.56668 0
M  V30 2083 O 198.211 0.478736 -1.84696 0
M  V30 2084 C 195.351 0.411825 -3.42634 0
M  V30 2085 C 194.464 -0.531651 -4.28716 0
M  V30 2086 C 193.599 0.258167 -5.30572 0
M  V30 2087 C 192.638 -0.680349 -6.08307 0
M  V30 2088 N 191.775 0.0745613 -7.0206 0
M  V30 2089 H 196.615 -1.20254 -2.72659 0
M  V30 2090 H 194.152 -0.604352 -1.34112 0
M  V30 2091 H 196.11 0.876304 -4.07893 0
M  V30 2092 H 194.74 1.21715 -2.98974 0
M  V30 2093 H 193.792 -1.11463 -3.63703 0
M  V30 2094 H 195.104 -1.25038 -4.82874 0
M  V30 2095 H 194.258 0.784204 -6.0161 0
M  V30 2096 H 192.997 1.01008 -4.77126 0
M  V30 2097 H 192.002 -1.21796 -5.3614 0
M  V30 2098 H 193.227 -1.43145 -6.63842 0
M  V30 2099 H 191.173 0.808883 -6.50994 0
M  V30 2100 H 191.09 -0.584409 -7.53738 0
M  V30 2101 H 192.358 0.581123 -7.77331 0
M  V30 2102 N 196.587 1.43421 -0.653314 0
M  V30 2103 C 197.497 2.34568 0.0388565 0
M  V30 2104 C 198.513 1.53888 0.81207 0
M  V30 2105 O 199.689 1.86539 0.759294 0
M  V30 2106 C 196.754 3.32167 0.993269 0
M  V30 2107 C 195.815 4.28751 0.216977 0
M  V30 2108 C 195.048 5.21688 1.12593 0
M  V30 2109 O 195.271 5.19052 2.36519 0
M  V30 2110 O 194.205 5.98919 0.598284 0
M  V30 2111 H 198.031 2.95251 -0.711386 0
M  V30 2112 H 195.616 1.43564 -0.413502 0
M  V30 2113 H 197.498 3.92183 1.54176 0
M  V30 2114 H 196.173 2.73987 1.72374 0
M  V30 2115 H 195.08 3.72215 -0.375101 0
M  V30 2116 H 196.413 4.89913 -0.473924 0
M  V30 2117 N 198.065 0.39524 1.52563 0
M  V30 2118 C 199.311 -0.185318 2.01952 0
M  V30 2119 C 199.644 -1.45964 1.28095 0
M  V30 2120 O 198.919 -1.90689 0.38315 0
M  V30 2121 C 199.202 -0.447193 3.57312 0
M  V30 2122 C 199.055 0.842828 4.41833 0
M  V30 2123 C 200.374 -1.23529 4.22408 0
M  V30 2124 H 197.493 -0.0658788 0.73405 0
M  V30 2125 H 200.135 0.525975 1.82575 0
M  V30 2126 H 198.285 -1.05312 3.73954 0
M  V30 2127 H 199.957 1.4795 4.36931 0
M  V30 2128 H 198.2 1.45686 4.08605 0
M  V30 2129 H 198.871 0.614165 5.48573 0
M  V30 2130 H 201.347 -0.722445 4.0978 0
M  V30 2131 H 200.223 -1.38727 5.3108 0
M  V30 2132 H 200.484 -2.25213 3.80436 0
M  V30 2133 N 199.544 -1.57102 0.125237 0
M  V30 2134 C 200.507 -2.14471 -0.80838 0
M  V30 2135 C 201.507 -1.0811 -1.19033 0
M  V30 2136 O 202.697 -1.33856 -1.11482 0
M  V30 2137 C 199.829 -2.69005 -2.09402 0
M  V30 2138 H 201.022 -2.98297 -0.309696 0
M  V30 2139 H 198.575 -1.55807 -0.124051 0
M  V30 2140 H 199.31 -1.88785 -2.63687 0
M  V30 2141 H 199.095 -3.46799 -1.82957 0
M  V30 2142 H 200.585 -3.13278 -2.76128 0
M  V30 2143 N 201.022 0.148545 -1.56898 0
M  V30 2144 C 202.438 0.501131 -1.51528 0
M  V30 2145 C 202.638 1.83458 -0.833399 0
M  V30 2146 O 201.694 2.49259 -0.40328 0
M  V30 2147 C 203.007 0.512864 -2.96294 0
M  V30 2148 C 204.555 0.598487 -3.07225 0
M  V30 2149 C 205.03 0.640897 -4.53494 0
M  V30 2150 N 206.521 0.703163 -4.57832 0
M  V30 2151 C 207.256 0.756935 -5.68382 0
M  V30 2152 N 206.752 0.770147 -6.88506 0
M  V30 2153 N 208.545 0.797698 -5.56411 0
M  V30 2154 H 200.696 -0.725532 -1.99624 0
M  V30 2155 H 202.959 -0.264358 -0.910395 0
M  V30 2156 H 202.665 -0.398691 -3.49433 0
M  V30 2157 H 202.539 1.35133 -3.52163 0
M  V30 2158 H 204.926 1.50046 -2.54106 0
M  V30 2159 H 205.007 -0.267093 -2.54402 0
M  V30 2160 H 204.651 -0.256915 -5.0725 0
M  V30 2161 H 204.581 1.52295 -5.04097 0
M  V30 2162 H 207.072 0.700314 -3.71354 0
M  V30 2163 H 207.385 0.812983 -7.68512 0
M  V30 2164 H 205.73 0.738049 -6.9107 0
M  V30 2165 H 208.921 0.784535 -4.61479 0
M  V30 2166 H 209.094 0.83614 -6.42583 0
M  V30 2167 N 202.5 1.5196 0.417844 0
M  V30 2168 C 203.45 1.7106 1.5074 0
M  V30 2169 C 204.434 0.564487 1.50673 0
M  V30 2170 O 205.626 0.821206 1.56797 0
M  V30 2171 C 202.755 1.85677 2.88754 0
M  V30 2172 C 201.841 3.06133 2.93502 0
M  V30 2173 N 202.232 4.28987 2.67962 0
M  V30 2174 C 200.53 3.05787 3.24669 0
M  V30 2175 C 201.231 5.10395 2.79055 0
M  V30 2176 N 200.207 4.45455 3.11561 0
M  V30 2177 H 204.009 2.63696 1.29775 0
M  V30 2178 H 201.523 1.49873 0.625436 0
M  V30 2179 H 203.52 1.97475 3.67164 0
M  V30 2180 H 202.18 0.942348 3.10725 0
M  V30 2181 H 203.191 4.57607 2.4252 0
M  V30 2182 H 199.868 2.2405 3.52289 0
M  V30 2183 H 201.258 6.18247 2.63097 0
M  V30 2184 N 203.978 -0.674533 1.42435 0
M  V30 2185 C 204.91 -1.80005 1.41883 0
M  V30 2186 C 205.923 -1.59667 0.31787 0
M  V30 2187 O 207.112 -1.68781 0.580973 0
M  V30 2188 C 204.212 -3.17114 1.19549 0
M  V30 2189 C 203.385 -3.64299 2.42084 0
M  V30 2190 C 202.444 -4.80142 2.15291 0
M  V30 2191 O 201.47 -4.90673 2.88493 0
M  V30 2192 N 202.672 -5.68869 1.1562 0
M  V30 2193 H 205.437 -1.80964 2.38898 0
M  V30 2194 H 202.998 -0.857633 1.37318 0
M  V30 2195 H 204.99 -3.92267 0.995417 0
M  V30 2196 H 203.56 -3.11053 0.310569 0
M  V30 2197 H 202.78 -2.79822 2.77657 0
M  V30 2198 H 204.068 -3.92567 3.23679 0
M  V30 2199 H 203.466 -5.63012 0.550765 0
M  V30 2200 H 202.023 -6.43833 1.016 0
M  V30 2201 N 205.456 -1.28612 -0.910864 0
M  V30 2202 C 206.704 -1.15705 -1.65701 0
M  V30 2203 C 207.025 0.29416 -1.92769 0
M  V30 2204 O 206.295 1.20331 -1.54588 0
M  V30 2205 H 204.875 -0.425216 -0.614167 0
M  V30 2206 H 207.537 -1.61381 -1.0928 0
M  V30 2207 H 206.633 -1.6988 -2.61815 0
M  V30 2208 N 206.934 1.1197 -1.10907 0
M  V30 2209 C 208.211 1.79959 -0.766432 0
M  V30 2210 C 208.591 1.97466 0.746363 0
M  V30 2211 O 207.939 1.55491 1.67436 0
M  V30 2212 C 208.149 3.14009 -1.52314 0
M  V30 2213 C 209.497 3.89134 -1.69883 0
M  V30 2214 O 210.521 3.2368 -1.48692 0
M  V30 2215 O 209.38 5.06572 -2.05054 0
M  V30 2216 H 206.474 0.779208 -0.277062 0
M  V30 2217 H 209.02 1.18762 -1.21217 0
M  V30 2218 H 207.792 2.96587 -2.55249 0
M  V30 2219 H 207.415 3.82915 -1.07059 0
M  V30 2220 N 208.412 0.89855 1.29475 0
M  V30 2221 C 209.658 0.524658 1.95896 0
M  V30 2222 C 209.991 -0.926468 1.70676 0
M  V30 2223 O 209.266 -1.65665 1.01908 0
M  V30 2224 C 209.549 0.81633 3.50725 0
M  V30 2225 C 209.402 2.31907 3.85408 0
M  V30 2226 C 210.721 0.302038 4.39062 0
M  V30 2227 H 207.84 0.19209 0.711527 0
M  V30 2228 H 210.482 1.12502 1.53112 0
M  V30 2229 H 208.632 0.305369 3.87298 0
M  V30 2230 H 210.304 2.89949 3.58786 0
M  V30 2231 H 208.547 2.78027 3.32992 0
M  V30 2232 H 209.218 2.47373 4.93468 0
M  V30 2233 H 211.694 0.739551 4.09475 0
M  V30 2234 H 210.57 0.535331 5.46283 0
M  V30 2235 H 210.831 -0.797216 4.34853 0
M  V30 2236 N 209.89 -1.43072 0.660911 0
M  V30 2237 C 211.118 -2.06067 0.185422 0
M  V30 2238 C 211.533 -1.49582 -1.15198 0
M  V30 2239 O 210.89 -0.630134 -1.71276 0
M  V30 2240 C 210.941 -3.61371 0.0966523 0
M  V30 2241 O 210.662 -4.15758 1.38119 0
M  V30 2242 C 212.163 -4.41455 -0.403996 0
M  V30 2243 H 209.383 -0.664459 0.0934604 0
M  V30 2244 H 211.927 -1.83447 0.90373 0
M  V30 2245 H 210.082 -3.8315 -0.572259 0
M  V30 2246 H 210.496 -5.09499 1.24542 0
M  V30 2247 H 211.97 -5.50437 -0.415045 0
M  V30 2248 H 212.447 -4.15036 -1.43674 0
M  V30 2249 H 213.053 -4.24663 0.232691 0
M  V30 2250 N 211.368 -0.403325 -1.52352 0
M  V30 2251 C 212.318 0.442244 -2.2367 0
M  V30 2252 C 213.302 1.01823 -1.24583 0
M  V30 2253 O 214.494 0.942005 -1.49851 0
M  V30 2254 C 211.623 1.5615 -3.05732 0
M  V30 2255 C 210.709 0.996575 -4.12225 0
M  V30 2256 N 211.1 0.157804 -5.05554 0
M  V30 2257 C 209.398 1.26767 -4.27605 0
M  V30 2258 C 210.099 -0.155853 -5.81491 0
M  V30 2259 N 209.075 0.451775 -5.41719 0
M  V30 2260 H 212.877 -0.204964 -2.93184 0
M  V30 2261 H 210.391 -0.213418 -1.60992 0
M  V30 2262 H 212.388 2.17981 -3.55373 0
M  V30 2263 H 211.048 2.21139 -2.37755 0
M  V30 2264 H 212.059 -0.206049 -5.1749 0
M  V30 2265 H 208.736 1.91757 -3.70858 0
M  V30 2266 H 210.126 -0.836329 -6.66675 0
M  V30 2267 N 212.846 1.57033 -0.133567 0
M  V30 2268 C 214.093 1.95686 0.520877 0
M  V30 2269 C 214.421 1.0177 1.6575 0
M  V30 2270 O 213.676 0.0443195 1.9565 0
M  V30 2271 C 213.975 3.40674 1.08057 0
M  V30 2272 C 213.641 4.50855 0.0637899 0
M  V30 2273 C 212.303 4.80716 -0.215757 0
M  V30 2274 C 214.655 5.17398 -0.62835 0
M  V30 2275 C 211.983 5.74433 -1.19348 0
M  V30 2276 C 214.335 6.12167 -1.5948 0
M  V30 2277 C 212.999 6.40414 -1.88218 0
M  V30 2278 H 212.269 0.716067 0.190602 0
M  V30 2279 H 214.916 1.9026 -0.217556 0
M  V30 2280 H 213.221 3.42865 1.89606 0
M  V30 2281 H 214.918 3.67902 1.59529 0
M  V30 2282 H 211.508 4.27605 0.291855 0
M  V30 2283 H 215.692 4.94472 -0.425562 0
M  V30 2284 H 210.948 5.94616 -1.42272 0
M  V30 2285 H 215.122 6.6281 -2.13671 0
M  V30 2286 H 212.749 7.12838 -2.64133 0
M  V30 2287 N 214.325 -0.140222 1.56975 0
M  V30 2288 C 215.255 -1.17456 2.01808 0
M  V30 2289 C 216.236 -1.44415 0.898794 0
M  V30 2290 O 217.421 -1.5522 1.16707 0
M  V30 2291 C 214.551 -2.50607 2.40444 0
M  V30 2292 C 213.505 -2.38155 3.55621 0
M  V30 2293 C 212.831 -3.76078 3.80091 0
M  V30 2294 C 214.131 -1.85991 4.88062 0
M  V30 2295 H 215.825 -0.801743 2.88466 0
M  V30 2296 H 213.371 -0.38422 1.38779 0
M  V30 2297 H 215.324 -3.23197 2.7041 0
M  V30 2298 H 214.048 -2.89737 1.50732 0
M  V30 2299 H 212.707 -1.68016 3.25832 0
M  V30 2300 H 212.355 -4.12656 2.87618 0
M  V30 2301 H 212.055 -3.68606 4.57606 0
M  V30 2302 H 213.579 -4.50206 4.12488 0
M  V30 2303 H 214.993 -2.4838 5.16701 0
M  V30 2304 H 213.39 -1.89393 5.6943 0
M  V30 2305 H 214.46 -0.816023 4.77984 0
M  V30 2306 N 215.803 -1.52179 -0.40978 0
M  V30 2307 C 217.214 -1.58377 -0.988615 0
M  V30 2308 C 217.565 -0.423879 -1.91566 0
M  V30 2309 O 216.69 0.455844 -2.11544 0
M  V30 2310 C 217.285 -2.87044 -1.79976 0
M  V30 2311 C 215.844 -2.95722 -2.32863 0
M  V30 2312 C 214.991 -2.53309 -1.12828 0
M  V30 2313 H 217.942 -1.57558 -0.190039 0
M  V30 2314 H 217.963 -2.7236 -2.65707 0
M  V30 2315 H 217.475 -3.71444 -1.12478 0
M  V30 2316 H 215.576 -2.15814 -3.03735 0
M  V30 2317 H 215.689 -3.99951 -2.63773 0
M  V30 2318 H 214.053 -2.07142 -1.48204 0
M  V30 2319 H 214.836 -3.40082 -0.46897 0
M  V30 2320 N 217.281 0.66697 -1.42791 0
M  V30 2321 C 218.191 1.80962 -1.49299 0
M  V30 2322 C 219.207 1.69775 -0.381108 0
M  V30 2323 O 220.383 1.91188 -0.633188 0
M  V30 2324 C 217.448 3.17156 -1.40045 0
M  V30 2325 C 216.509 3.40242 -2.6179 0
M  V30 2326 C 215.742 4.69939 -2.52969 0
M  V30 2327 O 215.965 5.48372 -1.56985 0
M  V30 2328 O 214.899 4.94441 -3.43237 0
M  V30 2329 H 218.725 1.78427 -2.45759 0
M  V30 2330 H 216.31 0.823713 -1.24641 0
M  V30 2331 H 218.192 3.98413 -1.37276 0
M  V30 2332 H 216.867 3.20312 -0.467138 0
M  V30 2333 H 215.774 2.58802 -2.70134 0
M  V30 2334 H 217.107 3.41923 -3.54047 0
M  V30 2335 N 218.759 1.29093 0.90403 0
M  V30 2336 C 219.707 1.13727 2.02901 0
M  V30 2337 C 220.701 0.0539853 1.69314 0
M  V30 2338 O 221.907 0.213469 1.7873 0
M  V30 2339 H 218.282 0.35117 0.664969 0
M  V30 2340 H 220.253 2.08982 2.13001 0
M  V30 2341 C 219.002 0.826066 3.37745 0
M  V30 2342 H 218.325 1.65164 3.64089 0
M  V30 2343 H 219.765 0.758559 4.17159 0
M  V30 2344 C 218.224 -0.470541 3.33598 0
M  V30 2345 O 218.754 -1.49792 3.72727 0
M  V30 2346 N 216.96 -0.474812 2.86695 0
M  V30 2347 H 216.507 0.361692 2.55048 0
M  V30 2348 H 216.465 -1.34236 2.84303 0
M  V30 2349 N 220.237 -1.11381 1.11499 0
M  V30 2350 C 221.483 -1.83403 0.865512 0
M  V30 2351 C 221.816 -1.84459 -0.607329 0
M  V30 2352 O 221.091 -1.29811 -1.44842 0
M  V30 2353 C 221.374 -3.30552 1.42855 0
M  V30 2354 C 221.227 -3.37886 2.96906 0
M  V30 2355 C 222.546 -4.26643 1.08 0
M  V30 2356 H 219.665 -0.665879 0.31587 0
M  V30 2357 H 222.307 -1.30601 1.37998 0
M  V30 2358 H 220.457 -3.75648 0.990985 0
M  V30 2359 H 222.129 -3.01343 3.49271 0
M  V30 2360 H 220.372 -2.78088 3.32941 0
M  V30 2361 H 221.043 -4.41458 3.31389 0
M  V30 2362 H 223.519 -3.89729 1.45775 0
M  V30 2363 H 222.395 -5.27986 1.50072 0
M  V30 2364 H 222.656 -4.42099 -0.00915037 0
M  V30 2365 N 221.715 -0.905404 -1.28997 0
M  V30 2366 C 222.665 -0.358713 -2.25161 0
M  V30 2367 C 223.649 0.524449 -1.52113 0
M  V30 2368 O 224.841 0.365534 -1.73184 0
M  V30 2369 C 221.97 0.407609 -3.40872 0
M  V30 2370 C 221.056 -0.490797 -4.21251 0
M  V30 2371 N 221.447 -1.60061 -4.79806 0
M  V30 2372 C 219.745 -0.289636 -4.45059 0
M  V30 2373 C 220.446 -2.15757 -5.40207 0
M  V30 2374 N 219.422 -1.44988 -5.23908 0
M  V30 2375 H 223.224 -1.20642 -2.67998 0
M  V30 2376 H 220.738 -0.757103 -1.43672 0
M  V30 2377 H 222.735 0.816046 -4.08835 0
M  V30 2378 H 221.395 1.25251 -2.9957 0
M  V30 2379 H 222.406 -1.98329 -4.7842 0
M  V30 2380 H 219.083 0.51643 -4.14294 0
M  V30 2381 H 220.473 -3.09069 -5.96595 0
M  V30 2382 N 223.193 1.4272 -0.668489 0
M  V30 2383 C 224.125 2.2914 0.052613 0
M  V30 2384 C 225.138 1.43339 0.771857 0
M  V30 2385 O 226.327 1.67123 0.627067 0
M  V30 2386 C 223.427 3.20618 1.09804 0
M  V30 2387 C 222.6 4.35039 0.45389 0
M  V30 2388 C 221.659 5.07282 1.39825 0
M  V30 2389 O 220.685 5.62024 0.900978 0
M  V30 2390 N 221.887 5.12206 2.73176 0
M  V30 2391 H 224.652 2.91668 -0.689209 0
M  V30 2392 H 222.213 1.53577 -0.512422 0
M  V30 2393 H 224.205 3.65815 1.73094 0
M  V30 2394 H 222.775 2.59585 1.74167 0
M  V30 2395 H 221.995 3.92567 -0.358396 0
M  V30 2396 H 223.283 5.088 0.00486972 0
M  V30 2397 H 222.681 4.6913 3.16122 0
M  V30 2398 H 221.238 5.61069 3.31729 0
M  V30 2399 N 224.671 0.411399 1.52136 0
M  V30 2400 C 225.634 -0.401089 2.25663 0
M  V30 2401 C 226.634 -0.971732 1.28117 0
M  V30 2402 O 227.824 -0.850254 1.52041 0
M  V30 2403 C 224.956 -1.56483 3.02863 0
M  V30 2404 H 226.149 0.24295 2.98914 0
M  V30 2405 H 223.702 0.163968 1.55438 0
M  V30 2406 H 224.437 -2.24567 2.33967 0
M  V30 2407 H 224.222 -1.16211 3.74483 0
M  V30 2408 H 225.712 -2.13951 3.58629 0
M  V30 2409 N 226.149 -1.5696 0.141893 0
M  V30 2410 C 227.079 -2.19516 -0.795936 0
M  V30 2411 C 228.06 -1.14187 -1.26077 0
M  V30 2412 O 229.245 -1.42511 -1.31925 0
M  V30 2413 C 226.375 -2.81272 -2.03723 0
M  V30 2414 C 225.329 -3.92384 -1.70936 0
M  V30 2415 C 224.655 -4.41052 -3.02287 0
M  V30 2416 C 225.955 -5.13403 -0.959954 0
M  V30 2417 H 227.649 -2.98138 -0.274596 0
M  V30 2418 H 225.195 -1.43406 -0.130636 0
M  V30 2419 H 227.148 -3.237 -2.69808 0
M  V30 2420 H 225.872 -1.99973 -2.58221 0
M  V30 2421 H 224.531 -3.50566 -1.07232 0
M  V30 2422 H 224.179 -3.56582 -3.54765 0
M  V30 2423 H 223.879 -5.15993 -2.81114 0
M  V30 2424 H 225.403 -4.86146 -3.69451 0
M  V30 2425 H 226.817 -5.52706 -1.52279 0
M  V30 2426 H 225.214 -5.94073 -0.848357 0
M  V30 2427 H 226.284 -4.84875 0.0492434 0
M  V30 2428 N 227.627 0.131896 -1.57047 0
M  V30 2429 C 228.56 1.19236 -1.94571 0
M  V30 2430 C 229.538 1.40782 -0.813576 0
M  V30 2431 O 230.722 1.55148 -1.07058 0
M  V30 2432 C 227.849 2.54858 -2.23081 0
M  V30 2433 C 226.895 2.49817 -3.45679 0
M  V30 2434 S 227.728 1.95036 -4.98719 0
M  V30 2435 C 228.884 3.32357 -5.30367 0
M  V30 2436 H 229.117 0.872297 -2.84215 0
M  V30 2437 H 226.65 0.338134 -1.50652 0
M  V30 2438 H 228.608 3.32898 -2.40185 0
M  V30 2439 H 227.269 2.84047 -1.34074 0
M  V30 2440 H 226.462 3.49688 -3.62952 0
M  V30 2441 H 226.064 1.79892 -3.27895 0
M  V30 2442 H 228.356 4.28525 -5.2476 0
M  V30 2443 H 229.299 3.19923 -6.31708 0
M  V30 2444 H 229.707 3.3019 -4.57859 0
M  V30 2445 N 229.106 1.52395 0.401703 0
M  V30 2446 C 230.069 1.75636 1.47257 0
M  V30 2447 C 231.069 0.62628 1.48103 0
M  V30 2448 O 232.259 0.894227 1.49497 0
M  V30 2449 C 229.391 1.84553 2.86624 0
M  V30 2450 H 230.584 2.71241 1.27938 0
M  V30 2451 H 228.137 1.42923 0.632662 0
M  V30 2452 H 228.872 0.908882 3.11303 0
M  V30 2453 H 228.657 2.66715 2.87412 0
M  V30 2454 H 230.147 2.04251 3.64241 0
M  V30 2455 N 230.584 -0.659388 1.43143 0
M  V30 2456 C 231.531 -1.77249 1.47822 0
M  V30 2457 C 232.501 -1.62818 0.328558 0
M  V30 2458 O 233.686 -1.83151 0.534838 0
M  V30 2459 C 230.826 -3.15371 1.40126 0
M  V30 2460 C 229.939 -3.4098 2.65249 0
M  V30 2461 C 229.074 -4.68915 2.49584 0
M  V30 2462 C 228.113 -4.87608 3.70006 0
M  V30 2463 N 227.25 -6.06796 3.53189 0
M  V30 2464 H 232.09 -1.72584 2.42938 0
M  V30 2465 H 229.627 -0.842297 1.20598 0
M  V30 2466 H 231.585 -3.9521 1.33659 0
M  V30 2467 H 230.215 -3.19121 0.485964 0
M  V30 2468 H 229.267 -2.55282 2.8202 0
M  V30 2469 H 230.579 -3.50681 3.54717 0
M  V30 2470 H 229.733 -5.56871 2.4079 0
M  V30 2471 H 228.472 -4.61524 1.5763 0
M  V30 2472 H 227.477 -3.9809 3.79215 0
M  V30 2473 H 228.702 -4.96834 4.62961 0
M  V30 2474 H 226.648 -6.00549 2.63965 0
M  V30 2475 H 226.565 -6.17428 4.36255 0
M  V30 2476 H 227.833 -6.9739 3.48236 0
M  V30 2477 N 232.062 -1.29571 -0.897171 0
M  V30 2478 C 232.992 -1.17473 -2.01798 0
M  V30 2479 C 233.973 -0.068323 -1.69963 0
M  V30 2480 O 235.158 -0.248239 -1.92607 0
M  V30 2481 C 232.288 -0.853099 -3.36659 0
M  V30 2482 C 231.242 -1.9161 -3.82713 0
M  V30 2483 C 230.568 -1.44773 -5.14728 0
M  V30 2484 C 231.868 -3.32535 -4.02763 0
M  V30 2485 H 233.562 -2.11237 -2.12177 0
M  V30 2486 H 231.108 -1.01699 -1.01948 0
M  V30 2487 H 233.061 -0.755165 -4.14578 0
M  V30 2488 H 231.785 0.120236 -3.26379 0
M  V30 2489 H 230.444 -2.00346 -3.07013 0
M  V30 2490 H 230.092 -0.462995 -5.00865 0
M  V30 2491 H 229.792 -2.15865 -5.46513 0
M  V30 2492 H 231.316 -1.36334 -5.95185 0
M  V30 2493 H 232.73 -3.26626 -4.71156 0
M  V30 2494 H 231.127 -4.01607 -4.45905 0
M  V30 2495 H 232.197 -3.75326 -3.07016 0
M  V30 2496 N 233.54 1.10788 -1.12088 0
M  V30 2497 C 234.503 2.15207 -0.788577 0
M  V30 2498 C 235.503 1.59609 0.195317 0
M  V30 2499 O 236.693 1.74174 -0.0300193 0
M  V30 2500 C 233.825 3.4047 -0.171174 0
M  V30 2501 H 235.018 2.46116 -1.71368 0
M  V30 2502 H 232.571 1.26089 -0.923652 0
M  V30 2503 H 233.306 3.15176 0.763832 0
M  V30 2504 H 233.091 3.82109 -0.879514 0
M  V30 2505 H 234.581 4.17576 0.04496 0
M  V30 2506 O 235.057 1.04415 1.23206 0
M  V30 2507 H 235.748 0.716727 1.79952 0
M  V30 END ATOM
M  V30 BEGIN BOND
M  V30 END BOND
M  V30 END CTAB
M  END
$$$$
