drugbank_target|Q9FCA6 Biflaviolin synthase CYP158A2 (DB02175; DB02521; DB03254; DB03814)
 OpenBabel12092120243D

  0  0  0     0  0            999 V3000
M  V30 BEGIN CTAB
M  V30 COUNTS 6236 6307 0 0 0
M  V30 BEGIN ATOM
M  V30 1 H -0.908 1.98254 -0.117106 0
M  V30 2 N 0 1.576 0 0
M  V30 3 C 0.933 2.03868 1.02534 0
M  V30 4 C 1.911 0.928543 1.3348 0
M  V30 5 O 3.095 1.19667 1.45644 0
M  V30 6 C 0.222 2.43627 2.35294 0
M  V30 7 C -0.732 3.65373 2.2001 0
M  V30 8 S 0.101 5.13292 1.52614 0
M  V30 9 C 1.257 5.56322 2.86805 0
M  V30 10 H 1.49 2.90518 0.631377 0
M  V30 11 H -0.977 1.52953 0.210867 0
M  V30 12 H 0.981 2.67203 3.11629 0
M  V30 13 H -0.358 1.57376 2.7183 0
M  V30 14 H -1.165 3.90944 3.18086 0
M  V30 15 H -1.563 3.418 1.51819 0
M  V30 16 H 0.729 5.58782 3.83104 0
M  V30 17 H 1.672 6.56266 2.65933 0
M  V30 18 H 2.08 4.83886 2.90714 0
M  V30 19 N 1.4781 -0.272755 1.55222 0
M  V30 20 C 2.7061 -1.02255 1.79865 0
M  V30 21 C 3.1211 -1.79924 0.572088 0
M  V30 22 O 2.4781 -1.76638 -0.458842 0
M  V30 23 C 2.5291 -1.98094 3.02392 0
M  V30 24 O 2.2501 -1.23572 4.20311 0
M  V30 25 C 3.7511 -2.84884 3.39641 0
M  V30 26 H 0.9711 -0.302057 0.599168 0
M  V30 27 H 3.5151 -0.303465 2.02236 0
M  V30 28 H 1.6701 -2.65465 2.82147 0
M  V30 29 H 2.0841 -1.88172 4.89583 0
M  V30 30 H 3.5581 -3.47927 4.28545 0
M  V30 31 H 4.0351 -3.54665 2.59055 0
M  V30 32 H 4.6411 -2.23003 3.62146 0
M  V30 33 N 2.9562 -1.48159 -0.537278 0
M  V30 34 C 3.8662 -1.64807 -1.6696 0
M  V30 35 C 4.8822 -0.530651 -1.65711 0
M  V30 36 O 6.0582 -0.800784 -1.84796 0
M  V30 37 C 3.1232 -1.67708 -3.03438 0
M  V30 38 C 2.1842 -2.91025 -3.156 0
M  V30 39 C 1.4172 -2.93778 -4.45567 0
M  V30 40 O 1.6402 -2.05153 -5.3223 0
M  V30 41 O 0.5742 -3.85868 -4.61941 0
M  V30 42 H 4.4002 -2.6066 -1.55853 0
M  V30 43 H 1.9852 -1.31475 -0.709549 0
M  V30 44 H 3.8672 -1.7218 -3.84619 0
M  V30 45 H 2.5422 -0.750278 -3.14885 0
M  V30 46 H 1.4492 -2.92089 -2.33741 0
M  V30 47 H 2.7822 -3.83065 -3.09066 0
M  V30 48 N 4.4343 0.785586 -1.36625 0
M  V30 49 C 5.3443 1.92964 -1.33425 0
M  V30 50 C 6.3603 1.72394 -0.235851 0
M  V30 51 O 7.5363 1.95866 -0.468878 0
M  V30 52 C 4.6013 3.27884 -1.12662 0
M  V30 53 C 3.6623 3.61204 -2.32013 0
M  V30 54 C 2.8953 4.89687 -2.12231 0
M  V30 55 O 3.1183 5.59704 -1.09945 0
M  V30 56 O 2.0523 5.21752 -3.00098 0
M  V30 57 H 5.8783 1.98613 -2.29753 0
M  V30 58 H 3.4633 0.926384 -1.17211 0
M  V30 59 H 5.3453 4.08614 -1.03016 0
M  V30 60 H 4.0203 3.23118 -0.193991 0
M  V30 61 H 2.9273 2.80765 -2.47228 0
M  V30 62 H 4.2603 3.70698 -3.23796 0
M  V30 63 N 5.9124 1.20967 1.01018 0
M  V30 64 C 7.1404 1.04956 1.78303 0
M  V30 65 C 7.5554 -0.400915 1.84494 0
M  V30 66 O 6.9124 -1.27826 1.30257 0
M  V30 67 C 6.9634 1.63403 3.22462 0
M  V30 68 O 6.6844 3.02775 3.16637 0
M  V30 69 C 8.1854 1.52432 4.16268 0
M  V30 70 H 5.4054 0.368858 0.560522 0
M  V30 71 H 7.9494 1.60193 1.27116 0
M  V30 72 H 6.1044 1.1227 3.70775 0
M  V30 73 H 6.5184 3.30626 4.07169 0
M  V30 74 H 7.9924 1.98078 5.15237 0
M  V30 75 H 8.4694 0.477875 4.36592 0
M  V30 76 H 9.0754 2.02787 3.73841 0
M  V30 77 N 7.3905 -1.2043 1.01659 0
M  V30 78 C 8.6395 -1.89118 0.701237 0
M  V30 79 C 8.9525 -1.79705 -0.772358 0
M  V30 80 O 10.1585 -2.43528 -1.20026 0
M  V30 81 C 8.6145 -3.39168 1.20388 0
M  V30 82 C 8.2225 -3.57166 2.70438 0
M  V30 83 C 9.9665 -4.1341 0.963953 0
M  V30 84 C 7.8735 -5.01042 3.14183 0
M  V30 85 H 6.8035 -0.708267 0.2586 0
M  V30 86 H 9.4545 -1.36239 1.22927 0
M  V30 87 H 7.8365 -3.91369 0.603824 0
M  V30 88 H 9.0105 -3.15351 3.35992 0
M  V30 89 H 7.3255 -2.96294 2.92572 0
M  V30 90 H 9.9225 -5.19491 1.26621 0
M  V30 91 H 10.2655 -4.16181 -0.099578 0
M  V30 92 H 10.7985 -3.67309 1.52738 0
M  V30 93 H 7.5375 -5.03426 4.19812 0
M  V30 94 H 7.0575 -5.43668 2.53348 0
M  V30 95 H 8.7365 -5.69623 3.0682 0
M  V30 96 N 8.8686 -0.792821 -1.36206 0
M  V30 97 C 10.0936 -0.377701 -2.03932 0
M  V30 98 C 10.5186 0.998947 -1.59382 0
M  V30 99 O 9.8766 1.64421 -0.763903 0
M  V30 100 C 9.9246 -0.453635 -3.57735 0
M  V30 101 O 9.0286 0.538151 -4.08874 0
M  V30 102 H 8.3696 -0.159855 -0.644471 0
M  V30 103 H 10.8996 -1.07488 -1.7409 0
M  V30 104 H 10.9096 -0.318464 -4.06755 0
M  V30 105 H 9.5846 -1.45784 -3.89512 0
M  V30 106 H 8.1616 0.364359 -3.71116 0
M  V30 107 N 10.3467 1.47872 -0.545128 0
M  V30 108 C 11.2787 2.27869 0.246621 0
M  V30 109 C 12.2917 1.36282 0.890561 0
M  V30 110 O 13.4807 1.61207 0.766449 0
M  V30 111 C 10.5807 3.10159 1.36582 0
M  V30 112 C 9.7537 4.29627 0.820954 0
M  V30 113 C 8.8127 4.93607 1.82314 0
M  V30 114 O 7.8387 5.52366 1.37406 0
M  V30 115 N 9.0407 4.87211 3.15603 0
M  V30 116 H 11.8057 2.96459 -0.439539 0
M  V30 117 H 9.3667 1.57367 -0.380421 0
M  V30 118 H 11.3587 3.49829 2.03474 0
M  V30 119 H 9.9287 2.43891 1.9554 0
M  V30 120 H 9.1487 3.94192 -0.0244032 0
M  V30 121 H 10.4367 5.06928 0.436063 0
M  V30 122 H 9.8347 4.40651 3.54744 0
M  V30 123 H 8.3917 5.30937 3.78087 0
M  V30 124 N 11.8248 0.280983 1.55075 0
M  V30 125 C 12.7878 -0.590896 2.21452 0
M  V30 126 C 13.7878 -1.07682 1.19421 0
M  V30 127 O 14.9778 -0.97605 1.44288 0
M  V30 128 C 12.1098 -1.81587 2.88511 0
M  V30 129 H 13.3028 -0.0112554 2.99898 0
M  V30 130 H 10.8558 0.0316438 1.56268 0
M  V30 131 H 11.5908 -2.43587 2.14093 0
M  V30 132 H 11.3758 -1.4753 3.63287 0
M  V30 133 H 12.8658 -2.43575 3.39206 0
M  V30 134 N 13.3029 -1.57598 0.00835791 0
M  V30 135 C 14.5489 -1.91211 -0.675732 0
M  V30 136 C 14.8819 -0.883139 -1.72958 0
M  V30 137 O 14.1569 0.097016 -1.94258 0
M  V30 138 C 14.4399 -3.35379 -1.31123 0
M  V30 139 C 14.2929 -4.48999 -0.268356 0
M  V30 140 C 15.6119 -3.7912 -2.23508 0
M  V30 141 H 12.7309 -0.695374 -0.244179 0
M  V30 142 H 15.3729 -1.89901 0.0613655 0
M  V30 143 H 13.5229 -3.36626 -1.93946 0
M  V30 144 H 15.1949 -4.59887 0.360844 0
M  V30 145 H 13.4379 -4.31873 0.408482 0
M  V30 146 H 14.1089 -5.46851 -0.752218 0
M  V30 147 H 16.5849 -3.79477 -1.70693 0
M  V30 148 H 15.4609 -4.80729 -2.64936 0
M  V30 149 H 15.7219 -3.13455 -3.11766 0
M  V30 150 N 14.781 0.264519 -1.55364 0
M  V30 151 C 16.192 0.834936 -1.6699 0
M  V30 152 C 16.543 1.86718 -0.602552 0
M  V30 153 O 15.668 2.14899 0.254425 0
M  V30 154 C 16.263 1.5212 -3.02729 0
M  V30 155 C 14.822 2.03954 -3.16354 0
M  V30 156 C 13.969 0.884498 -2.62815 0
M  V30 157 H 16.92 0.0406869 -1.58648 0
M  V30 158 H 16.941 2.38853 -2.96191 0
M  V30 159 H 16.453 0.769668 -3.80392 0
M  V30 160 H 14.554 2.82041 -2.43482 0
M  V30 161 H 14.667 2.24902 -4.23032 0
M  V30 162 H 13.031 1.2802 -2.20188 0
M  V30 163 H 13.814 0.14634 -3.42988 0
M  V30 164 N 16.2591 1.48442 0.529413 0
M  V30 165 C 17.6701 1.5002 1.11134 0
M  V30 166 C 18.0211 0.27031 1.94329 0
M  V30 167 O 17.1461 -0.622507 2.07253 0
M  V30 168 C 17.7411 2.71834 2.02217 0
M  V30 169 C 16.3001 2.76283 2.55627 0
M  V30 170 C 15.4471 2.43542 1.326 0
M  V30 171 H 18.3981 1.5555 0.314641 0
M  V30 172 H 18.4191 2.50384 2.8651 0
M  V30 173 H 17.9311 3.61331 1.41639 0
M  V30 174 H 16.0321 1.90995 3.19924 0
M  V30 175 H 16.1451 3.77725 2.94721 0
M  V30 176 H 14.5091 1.94709 1.64196 0
M  V30 177 H 15.2921 3.3528 0.737734 0
M  V30 178 N 17.7372 -0.778329 1.37039 0
M  V30 179 C 18.9832 -1.53892 1.32079 0
M  V30 180 C 19.3162 -1.9396 -0.0965386 0
M  V30 181 O 18.5912 -1.63568 -1.05242 0
M  V30 182 C 18.8742 -2.80847 2.25382 0
M  V30 183 C 18.7272 -2.47076 3.75864 0
M  V30 184 C 20.0462 -3.82741 2.1725 0
M  V30 185 H 17.1652 -0.558303 0.48111 0
M  V30 186 H 19.8072 -0.893397 1.67685 0
M  V30 187 H 17.9572 -3.35931 1.95148 0
M  V30 188 H 19.6292 -1.97957 4.16666 0
M  V30 189 H 17.8722 -1.79863 3.94755 0
M  V30 190 H 18.5432 -3.37798 4.36574 0
M  V30 191 H 21.0192 -3.37133 2.43887 0
M  V30 192 H 19.8952 -4.69303 2.84686 0
M  V30 193 H 20.1562 -4.2652 1.16331 0
M  V30 194 N 19.2153 -1.21501 -1.00376 0
M  V30 195 C 20.6313 -0.972629 -1.26539 0
M  V30 196 C 20.8313 0.340257 -1.98606 0
M  V30 197 O 19.8873 1.06561 -2.28913 0
M  V30 198 C 21.2003 -2.16404 -2.08781 0
M  V30 199 C 22.7483 -2.20643 -2.22004 0
M  V30 200 C 23.2233 -3.39306 -3.07629 0
M  V30 201 N 24.7143 -3.39401 -3.15217 0
M  V30 202 C 25.4493 -4.27867 -3.81729 0
M  V30 203 N 24.9453 -5.26533 -4.5026 0
M  V30 204 N 26.7383 -4.15672 -3.78382 0
M  V30 205 H 18.8893 -2.05929 -0.520281 0
M  V30 206 H 21.1523 -0.901803 -0.292328 0
M  V30 207 H 20.8583 -3.11554 -1.63178 0
M  V30 208 H 20.7323 -2.15567 -3.09533 0
M  V30 209 H 23.1193 -1.26048 -2.66825 0
M  V30 210 H 23.2003 -2.25523 -1.20718 0
M  V30 211 H 22.8443 -4.34195 -2.63509 0
M  V30 212 H 22.7743 -3.31665 -4.09031 0
M  V30 213 H 25.2653 -2.67997 -2.66432 0
M  V30 214 H 25.5783 -5.90337 -4.98721 0
M  V30 215 H 23.9233 -5.30457 -4.49044 0
M  V30 216 H 27.1143 -3.3785 -3.23998 0
M  V30 217 H 27.2873 -4.84825 -4.2994 0
M  V30 218 N 20.6934 1.19889 -1.02296 0
M  V30 219 C 21.9704 1.85148 -0.630832 0
M  V30 220 C 22.3504 1.91385 0.890782 0
M  V30 221 O 21.6984 1.42642 1.78509 0
M  V30 222 C 21.9084 3.24442 -1.28602 0
M  V30 223 C 23.2564 4.00663 -1.4055 0
M  V30 224 O 24.2804 3.33818 -1.24273 0
M  V30 225 O 23.1394 5.20387 -1.66913 0
M  V30 226 H 20.2334 0.797613 -0.218499 0
M  V30 227 H 22.7794 1.27427 -1.12074 0
M  V30 228 H 21.5514 3.14704 -2.32545 0
M  V30 229 H 21.1744 3.89802 -0.7836 0
M  V30 230 N 22.1715 0.800033 1.35784 0
M  V30 231 C 23.4175 0.38701 1.99684 0
M  V30 232 C 23.7725 -1.03268 1.62338 0
M  V30 233 O 23.0655 -1.70543 0.87325 0
M  V30 234 C 23.2595 0.500276 3.53881 0
M  V30 235 C 23.0885 1.92942 4.06206 0
M  V30 236 C 21.8585 2.55637 4.35865 0
M  V30 237 C 24.0565 2.89307 4.25213 0
M  V30 238 N 22.0385 3.9003 4.74078 0
M  V30 239 C 23.4095 4.08556 4.66349 0
M  V30 240 C 25.4645 2.86225 4.07406 0
M  V30 241 C 24.1675 5.25146 4.91543 0
M  V30 242 C 26.1935 4.02011 4.33752 0
M  V30 243 C 25.5555 5.20007 4.75155 0
M  V30 244 H 21.6545 0.189252 0.758754 0
M  V30 245 H 24.2385 1.03988 1.64604 0
M  V30 246 H 22.4095 -0.122568 3.88207 0
M  V30 247 H 24.1415 0.0624733 4.04652 0
M  V30 248 H 20.8965 2.07039 4.25948 0
M  V30 249 H 21.3205 4.59205 4.97454 0
M  V30 250 H 25.9625 1.96154 3.74544 0
M  V30 251 H 23.6805 6.15794 5.23281 0
M  V30 252 H 27.2665 4.00999 4.21534 0
M  V30 253 H 26.1465 6.08113 4.95145 0
M  V30 254 N 23.6496 -1.47581 0.552962 0
M  V30 255 C 25.0606 -1.86324 0.118463 0
M  V30 256 C 25.4116 -1.46006 -1.3106 0
M  V30 257 O 24.5366 -0.861182 -1.98526 0
M  V30 258 C 25.1316 -3.3816 0.20821 0
M  V30 259 C 23.6906 -3.7601 -0.171226 0
M  V30 260 C 22.8376 -2.71634 0.557686 0
M  V30 261 H 25.7886 -1.39159 0.762928 0
M  V30 262 H 25.8096 -3.76141 -0.574278 0
M  V30 263 H 25.3216 -3.67473 1.24841 0
M  V30 264 H 23.4226 -3.52313 -1.21269 0
M  V30 265 H 23.5356 -4.78745 0.184379 0
M  V30 266 H 21.8996 -2.547 0.00125792 0
M  V30 267 H 22.6826 -3.0379 1.59896 0
M  V30 268 N 25.1277 -0.289203 -1.54924 0
M  V30 269 C 26.0907 0.579144 -2.21762 0
M  V30 270 C 27.0907 1.07047 -1.1999 0
M  V30 271 O 28.2807 0.968384 -1.44803 0
M  V30 272 C 25.4127 1.80055 -2.8947 0
M  V30 273 H 26.6057 -0.00464908 -2.999 0
M  V30 274 H 24.1587 -0.0399306 -1.56249 0
M  V30 275 H 24.8937 2.42449 -2.15381 0
M  V30 276 H 24.6787 1.45602 -3.64064 0
M  V30 277 H 26.1687 2.41773 -3.40493 0
M  V30 278 N 26.6058 1.57591 -0.0167156 0
M  V30 279 C 27.8518 1.91567 0.665582 0
M  V30 280 C 28.1848 0.892298 1.72487 0
M  V30 281 O 27.4598 -0.0867127 1.94307 0
M  V30 282 C 27.7428 3.36069 1.29342 0
M  V30 283 C 27.5958 4.49135 0.244541 0
M  V30 284 C 28.9148 3.803 2.21495 0
M  V30 285 H 26.0338 0.69666 0.240488 0
M  V30 286 H 28.6758 1.89866 -0.0714356 0
M  V30 287 H 26.8258 3.3765 1.92158 0
M  V30 288 H 28.4978 4.59689 -0.385228 0
M  V30 289 H 26.7408 4.3165 -0.431379 0
M  V30 290 H 27.4118 5.47242 0.723207 0
M  V30 291 H 29.8878 3.80377 1.68678 0
M  V30 292 H 28.7638 4.82127 2.62382 0
M  V30 293 H 29.0248 3.15104 3.101 0
M  V30 294 N 28.0839 -0.256276 1.55502 0
M  V30 295 C 29.3609 -1.00789 1.67633 0
M  V30 296 C 29.7409 -2.03706 0.553826 0
M  V30 297 O 29.0889 -2.24145 -0.443969 0
M  V30 298 C 29.2989 -1.64968 3.07549 0
M  V30 299 C 30.6469 -2.15505 3.65845 0
M  V30 300 O 31.6709 -1.74925 3.1029 0
M  V30 301 O 30.5299 -2.89986 4.63217 0
M  V30 302 H 27.6239 -0.468553 0.681459 0
M  V30 303 H 30.1699 -0.250806 1.67836 0
M  V30 304 H 28.9419 -0.904785 3.80696 0
M  V30 305 H 28.5649 -2.47321 3.11317 0
M  V30 306 N 29.562 -1.4872 -0.521534 0
M  V30 307 C 30.492 -1.66771 -1.63431 0
M  V30 308 C 31.473 -0.516499 -1.62069 0
M  V30 309 O 32.658 -0.750013 -1.79132 0
M  V30 310 C 29.788 -1.71515 -3.01993 0
M  V30 311 C 28.742 -2.86222 -3.18216 0
M  V30 312 C 28.068 -2.76061 -4.57924 0
M  V30 313 C 29.368 -4.27419 -3.00184 0
M  V30 314 H 31.062 -2.59932 -1.48579 0
M  V30 315 H 28.608 -1.25089 -0.713358 0
M  V30 316 H 30.561 -1.82731 -3.7972 0
M  V30 317 H 29.285 -0.749393 -3.17886 0
M  V30 318 H 27.944 -2.74575 -2.42908 0
M  V30 319 H 27.592 -1.77437 -4.70665 0
M  V30 320 H 27.292 -3.53037 -4.69722 0
M  V30 321 H 28.816 -2.89256 -5.37739 0
M  V30 322 H 30.23 -4.39855 -3.67697 0
M  V30 323 H 28.627 -5.05458 -3.2347 0
M  V30 324 H 29.697 -4.43293 -1.96518 0
M  V30 325 N 31.0401 0.771051 -1.3745 0
M  V30 326 C 32.4511 1.34737 -1.29239 0
M  V30 327 C 32.8021 1.96109 0.0596908 0
M  V30 328 O 31.9271 1.93865 0.961534 0
M  V30 329 C 32.5221 2.44973 -2.34037 0
M  V30 330 C 31.0811 2.98372 -2.29458 0
M  V30 331 C 30.2281 1.71595 -2.17831 0
M  V30 332 H 33.1791 0.571256 -1.48062 0
M  V30 333 H 33.2001 3.24471 -1.98744 0
M  V30 334 H 32.7121 2.00276 -3.32432 0
M  V30 335 H 30.8131 3.47443 -1.34589 0
M  V30 336 H 30.9261 3.53939 -3.229 0
M  V30 337 H 29.2901 1.94547 -1.64388 0
M  V30 338 H 30.0731 1.29001 -3.18141 0
M  V30 339 N 32.5182 1.22032 0.997298 0
M  V30 340 C 33.7662 1.04016 1.73278 0
M  V30 341 C 34.0872 -0.426255 1.90284 0
M  V30 342 O 33.3572 -1.30694 1.45931 0
M  V30 343 H 31.9372 0.381897 0.642 0
M  V30 344 H 34.5992 1.5347 1.20137 0
M  V30 345 H 33.6952 1.51441 2.72896 0
M  V30 346 N 33.9963 -1.19345 1.0293 0
M  V30 347 C 35.2213 -1.93538 0.745511 0
M  V30 348 C 35.6463 -1.75007 -0.689511 0
M  V30 349 O 35.0043 -1.05265 -1.47611 0
M  V30 350 C 35.0523 -3.43336 1.10239 0
M  V30 351 O 34.1563 -4.11806 0.221289 0
M  V30 352 H 33.4973 -0.604193 0.275404 0
M  V30 353 H 36.0273 -1.5141 1.37609 0
M  V30 354 H 36.0373 -3.94004 1.05947 0
M  V30 355 H 34.7123 -3.56146 2.14786 0
M  V30 356 H 33.2893 -3.715 0.322842 0
M  V30 357 N 35.4744 -0.807222 -1.35358 0
M  V30 358 C 36.7514 -0.311126 -1.9311 0
M  V30 359 C 37.1314 1.19937 -1.73719 0
M  V30 360 O 36.4794 1.99918 -1.10657 0
M  V30 361 C 36.6894 -0.723226 -3.41424 0
M  V30 362 C 38.0374 -0.713078 -4.18569 0
M  V30 363 O 39.0614 -0.664811 -3.49941 0
M  V30 364 O 37.9204 -0.772022 -5.41019 0
M  V30 365 H 35.0144 -0.081526 -0.822972 0
M  V30 366 H 37.5604 -0.890962 -1.4443 0
M  V30 367 H 36.3324 -1.76426 -3.4927 0
M  V30 368 H 35.9554 -0.118232 -3.97424 0
M  V30 369 N 36.9525 1.47285 -0.560781 0
M  V30 370 C 38.1995 2.02464 -0.038062 0
M  V30 371 C 38.5275 1.43474 1.31322 0
M  V30 372 O 37.7825 0.581311 1.86867 0
M  V30 373 C 38.0815 3.57258 0.100784 0
M  V30 374 C 37.7475 4.35184 -1.18007 0
M  V30 375 C 36.4095 4.56194 -1.53103 0
M  V30 376 C 38.7615 4.80098 -2.02867 0
M  V30 377 C 36.0895 5.19367 -2.729 0
M  V30 378 C 38.4415 5.44593 -3.21871 0
M  V30 379 C 37.1055 5.63835 -3.57276 0
M  V30 380 H 36.3755 0.740869 -0.0139279 0
M  V30 381 H 39.0225 1.76916 -0.733012 0
M  V30 382 H 37.3275 3.81819 0.878724 0
M  V30 383 H 39.0245 3.97606 0.520639 0
M  V30 384 H 35.6145 4.19113 -0.8968 0
M  V30 385 H 39.7985 4.63642 -1.7706 0
M  V30 386 H 35.0545 5.32459 -3.00496 0
M  V30 387 H 39.2285 5.78358 -3.87911 0
M  V30 388 H 36.8555 6.12557 -4.50197 0
M  V30 389 N 38.4306 0.297415 1.54768 0
M  V30 390 C 39.7076 -0.365847 1.92148 0
M  V30 391 C 40.0876 -1.71975 1.22424 0
M  V30 392 O 39.4356 -2.25666 0.358739 0
M  V30 393 C 39.6456 -0.484056 3.45627 0
M  V30 394 C 40.9936 -0.756594 4.17805 0
M  V30 395 O 42.0176 -0.568007 3.51642 0
M  V30 396 O 40.8766 -1.11863 5.34929 0
M  V30 397 H 37.9706 -0.203919 0.801465 0
M  V30 398 H 40.5166 0.34521 1.66152 0
M  V30 399 H 39.2886 0.467865 3.88493 0
M  V30 400 H 38.9116 -1.24372 3.77647 0
M  V30 401 N 39.9087 -1.5758 0.0250728 0
M  V30 402 C 41.3197 -1.79476 -0.514323 0
M  V30 403 C 41.6707 -0.934956 -1.72491 0
M  V30 404 O 40.7957 -0.144245 -2.15919 0
M  V30 405 C 41.3907 -3.25503 -0.939842 0
M  V30 406 C 39.9497 -3.48408 -1.42438 0
M  V30 407 C 39.0967 -2.74583 -0.387201 0
M  V30 408 H 42.0477 -1.567 0.25113 0
M  V30 409 H 42.0687 -3.34992 -1.80445 0
M  V30 410 H 41.5807 -3.88056 -0.0585628 0
M  V30 411 H 39.6817 -2.91103 -2.32572 0
M  V30 412 H 39.7947 -4.57119 -1.43455 0
M  V30 413 H 38.1587 -2.39942 -0.854409 0
M  V30 414 H 38.9417 -3.39849 0.485543 0
M  V30 415 N 41.3868 0.248026 -1.55636 0
M  V30 416 C 42.6328 0.97767 -1.77678 0
M  V30 417 C 42.9658 1.85016 -0.590135 0
M  V30 418 O 42.2408 1.90095 0.411611 0
M  V30 419 C 42.5238 1.83914 -3.09593 0
M  V30 420 C 42.3768 0.99491 -4.38659 0
M  V30 421 C 43.6958 2.82183 -3.37729 0
M  V30 422 H 40.8148 0.354005 -0.646413 0
M  V30 423 H 43.4568 0.248253 -1.88371 0
M  V30 424 H 41.6068 2.46104 -3.00608 0
M  V30 425 H 43.2788 0.391789 -4.59633 0
M  V30 426 H 41.5218 0.299231 -4.32767 0
M  V30 427 H 42.1928 1.63145 -5.2734 0
M  V30 428 H 44.6688 2.30129 -3.4667 0
M  V30 429 H 43.5448 3.39582 -4.31249 0
M  V30 430 H 43.8058 3.58588 -2.58586 0
M  V30 431 N 42.8649 1.48995 0.513639 0
M  V30 432 C 43.7949 1.67636 1.62544 0
M  V30 433 C 44.7759 0.525087 1.61793 0
M  V30 434 O 45.9609 0.759502 1.78732 0
M  V30 435 C 43.0909 1.73114 3.01079 0
M  V30 436 C 42.0449 2.87905 3.16693 0
M  V30 437 C 41.3709 2.78486 4.56453 0
M  V30 438 C 42.6709 4.29005 2.97913 0
M  V30 439 H 44.3649 2.60716 1.47198 0
M  V30 440 H 41.9109 1.25465 0.706714 0
M  V30 441 H 43.8639 1.84742 3.78746 0
M  V30 442 H 42.5879 0.766241 3.17484 0
M  V30 443 H 41.2469 2.75859 2.41448 0
M  V30 444 H 40.8949 1.7993 4.69717 0
M  V30 445 H 40.5949 3.55523 4.67843 0
M  V30 446 H 42.1189 2.92104 5.36197 0
M  V30 447 H 43.5329 4.41798 3.65359 0
M  V30 448 H 41.9299 5.07166 3.20785 0
M  V30 449 H 42.9999 4.44329 1.94165 0
M  V30 450 N 44.343 -0.763751 1.37857 0
M  V30 451 C 45.571 -1.55293 1.36718 0
M  V30 452 C 45.986 -1.88745 -0.0455434 0
M  V30 453 O 45.343 -1.52039 -1.00947 0
M  V30 454 C 45.394 -2.85831 2.2132 0
M  V30 455 O 45.115 -2.5381 3.57089 0
M  V30 456 C 46.616 -3.80023 2.28249 0
M  V30 457 H 43.836 -0.480841 0.468009 0
M  V30 458 H 46.38 -0.946009 1.81303 0
M  V30 459 H 44.535 -3.42926 1.80223 0
M  V30 460 H 44.949 -3.37459 4.01524 0
M  V30 461 H 46.423 -4.68599 2.91752 0
M  V30 462 H 46.9 -4.1973 1.2932 0
M  V30 463 H 47.506 -3.28855 2.69693 0
M  V30 464 N 45.8211 -1.22559 -0.990812 0
M  V30 465 C 46.7311 -1.01394 -2.11557 0
M  V30 466 C 47.7471 0.0383962 -1.73958 0
M  V30 467 O 48.9231 -0.154787 -2.00804 0
M  V30 468 C 45.9881 -0.596569 -3.41529 0
M  V30 469 C 45.0491 -1.72276 -3.93217 0
M  V30 470 C 44.2821 -1.32521 -5.16985 0
M  V30 471 O 44.5051 -0.204909 -5.70032 0
M  V30 472 O 43.4391 -2.14247 -5.62478 0
M  V30 473 H 47.2651 -1.95633 -2.32296 0
M  V30 474 H 44.8501 -1.01172 -1.0993 0
M  V30 475 H 46.7321 -0.374263 -4.19735 0
M  V30 476 H 45.4071 0.316939 -3.22145 0
M  V30 477 H 44.3141 -1.99961 -3.16174 0
M  V30 478 H 45.6471 -2.61421 -4.17037 0
M  V30 479 N 47.2992 1.18797 -1.03562 0
M  V30 480 C 48.2292 2.24472 -0.643019 0
M  V30 481 C 49.2102 1.66433 0.351283 0
M  V30 482 O 50.3952 1.92803 0.232505 0
M  V30 483 C 47.5252 3.473 4.24935e-05 0
M  V30 484 C 46.4792 4.18055 -0.917257 0
M  V30 485 C 45.8052 5.34519 -0.138941 0
M  V30 486 C 47.1052 4.72109 -2.23407 0
M  V30 487 H 48.7992 2.57566 -1.52643 0
M  V30 488 H 46.3452 1.23806 -0.735394 0
M  V30 489 H 48.2982 4.20426 0.286383 0
M  V30 490 H 47.0222 3.13424 0.918299 0
M  V30 491 H 45.6812 3.46821 -1.1879 0
M  V30 492 H 45.3292 4.96891 0.781562 0
M  V30 493 H 45.0292 5.82794 -0.750005 0
M  V30 494 H 46.5532 6.10438 0.1405 0
M  V30 495 H 47.9672 5.36955 -2.00879 0
M  V30 496 H 46.3642 5.30897 -2.79765 0
M  V30 497 H 47.4342 3.89807 -2.88407 0
M  V30 498 N 48.7773 0.814389 1.34928 0
M  V30 499 C 49.7103 0.175641 2.27523 0
M  V30 500 C 50.6883 -0.662953 1.48471 0
M  V30 501 O 51.8723 -0.628545 1.77712 0
M  V30 502 C 48.9993 -0.755516 3.30166 0
M  V30 503 C 48.0453 0.00445305 4.265 0
M  V30 504 S 48.8783 1.34582 5.18313 0
M  V30 505 C 50.0343 0.419315 6.24494 0
M  V30 506 H 50.2673 0.960691 2.8135 0
M  V30 507 H 47.8003 0.609846 1.41846 0
M  V30 508 H 49.7583 -1.28723 3.89796 0
M  V30 509 H 48.4193 -1.51402 2.75202 0
M  V30 510 H 47.6123 -0.703077 4.99072 0
M  V30 511 H 47.2143 0.466447 3.7108 0
M  V30 512 H 49.5063 -0.392432 6.76362 0
M  V30 513 H 50.4493 1.11446 6.99275 0
M  V30 514 H 50.8573 0.0115389 5.64499 0
M  V30 515 N 50.2554 -1.46986 0.568584 0
M  V30 516 C 51.6714 -1.57946 0.229189 0
M  V30 517 C 51.8714 -1.56567 -1.26843 0
M  V30 518 O 50.9274 -1.47511 -2.04931 0
M  V30 519 C 52.2404 -2.87963 0.865909 0
M  V30 520 C 53.7884 -3.01568 0.838188 0
M  V30 521 C 54.2634 -4.34301 1.45419 0
M  V30 522 N 55.7544 -4.40965 1.41788 0
M  V30 523 C 56.4894 -5.42256 1.86403 0
M  V30 524 N 55.9854 -6.50297 2.38926 0
M  V30 525 N 57.7784 -5.3337 1.77405 0
M  V30 526 H 49.9294 -1.46126 1.54146 0
M  V30 527 H 52.1924 -0.696156 0.643484 0
M  V30 528 H 51.8984 -2.94742 1.91886 0
M  V30 529 H 51.7724 -3.75423 0.365687 0
M  V30 530 H 54.1594 -2.94379 -0.206106 0
M  V30 531 H 54.2404 -2.1562 1.37629 0
M  V30 532 H 53.8844 -4.42247 2.49761 0
M  V30 533 H 53.8144 -5.19 0.891435 0
M  V30 534 H 56.3054 -3.63484 1.03381 0
M  V30 535 H 56.6184 -7.23777 2.70863 0
M  V30 536 H 54.9634 -6.51155 2.42944 0
M  V30 537 H 58.1544 -4.47865 1.3614 0
M  V30 538 H 58.3274 -6.12169 2.12492 0
M  V30 539 N 51.7335 -0.305618 -1.54608 0
M  V30 540 C 52.6435 0.57778 -2.27374 0
M  V30 541 C 53.6595 1.14451 -1.31061 0
M  V30 542 O 54.8355 1.16831 -1.6405 0
M  V30 543 C 51.9005 1.73123 -3.00382 0
M  V30 544 C 50.9615 1.19812 -4.12242 0
M  V30 545 C 50.1945 2.2966 -4.81759 0
M  V30 546 O 50.4175 3.49651 -4.50666 0
M  V30 547 O 49.3515 1.96091 -5.69062 0
M  V30 548 H 53.1775 -0.012624 -3.03697 0
M  V30 549 H 50.7625 -0.0719184 -1.49227 0
M  V30 550 H 52.6445 2.40315 -3.4616 0
M  V30 551 H 51.3195 2.30815 -2.26949 0
M  V30 552 H 50.2265 0.491798 -3.70853 0
M  V30 553 H 51.5595 0.666566 -4.87666 0
M  V30 554 N 53.2116 1.57565 -0.0334293 0
M  V30 555 C 54.4596 1.91598 0.642999 0
M  V30 556 C 54.7806 0.910847 1.7242 0
M  V30 557 O 54.0506 -0.0469931 1.95844 0
M  V30 558 H 52.6306 0.707228 0.240496 0
M  V30 559 H 55.2926 1.94726 -0.0822488 0
M  V30 560 H 54.3886 2.92336 1.09298 0
M  V30 561 N 54.6897 -0.239769 1.55765 0
M  V30 562 C 56.1007 -0.808263 1.68297 0
M  V30 563 C 56.4517 -1.85736 0.632181 0
M  V30 564 O 55.5767 -2.15277 -0.220204 0
M  V30 565 C 56.1717 -1.47284 3.05111 0
M  V30 566 C 54.7307 -1.98895 3.19559 0
M  V30 567 C 53.8777 -0.842575 2.64189 0
M  V30 568 H 56.8287 -0.0154422 1.58692 0
M  V30 569 H 56.8497 -2.34111 2.99954 0
M  V30 570 H 56.3617 -0.709053 3.81568 0
M  V30 571 H 54.4627 -2.78132 2.47938 0
M  V30 572 H 54.5757 -2.18143 4.26556 0
M  V30 573 H 52.9397 -1.24501 2.22197 0
M  V30 574 H 53.7227 -0.0917552 3.43177 0
M  V30 575 N 56.1678 -1.49265 -0.50573 0
M  V30 576 C 57.4138 -1.58748 -1.26202 0
M  V30 577 C 57.7468 -0.271227 -1.92297 0
M  V30 578 O 57.0218 0.724831 -1.80489 0
M  V30 579 C 57.3048 -2.74332 -2.33268 0
M  V30 580 C 57.1578 -4.15737 -1.71705 0
M  V30 581 C 58.4768 -2.85576 -3.34865 0
M  V30 582 H 55.5958 -0.577826 -0.457478 0
M  V30 583 H 58.2378 -1.81532 -0.560897 0
M  V30 584 H 56.3878 -2.55036 -2.93068 0
M  V30 585 H 58.0598 -4.46537 -1.15769 0
M  V30 586 H 56.3028 -4.21605 -1.02135 0
M  V30 587 H 56.9738 -4.92477 -2.49341 0
M  V30 588 H 59.4498 -3.03127 -2.8505 0
M  V30 589 H 58.3258 -3.68135 -4.07146 0
M  V30 590 H 58.5868 -1.94732 -3.96903 0
M  V30 591 N 57.6459 0.756429 -1.3826 0
M  V30 592 C 58.8739 1.54565 -1.3754 0
M  V30 593 C 59.2889 1.88767 0.0355331 0
M  V30 594 O 58.6459 1.52572 1.0014 0
M  V30 595 C 58.6969 2.84654 -2.22833 0
M  V30 596 O 58.4179 2.51912 -3.5843 0
M  V30 597 C 59.9189 3.78807 -2.30261 0
M  V30 598 H 57.1389 0.478353 -0.470553 0
M  V30 599 H 59.6829 0.936381 -1.81803 0
M  V30 600 H 57.8379 3.41965 -1.8204 0
M  V30 601 H 58.2519 3.35325 -4.03308 0
M  V30 602 H 59.7259 4.67045 -2.94233 0
M  V30 603 H 60.2029 4.19038 -1.31545 0
M  V30 604 H 60.8089 3.2742 -2.71433 0
M  V30 605 N 59.124 1.23083 0.984299 0
M  V30 606 C 60.54 0.992637 1.24975 0
M  V30 607 C 60.74 -0.308618 1.99123 0
M  V30 608 O 59.796 -1.02905 2.30579 0
M  V30 609 C 61.109 2.19698 2.05312 0
M  V30 610 C 62.657 2.24147 2.18465 0
M  V30 611 C 63.132 3.44157 3.02192 0
M  V30 612 N 64.623 3.44372 3.09777 0
M  V30 613 C 65.358 4.33886 3.74874 0
M  V30 614 N 64.854 5.3363 4.41827 0
M  V30 615 N 66.647 4.21639 3.71721 0
M  V30 616 H 58.798 2.06731 0.487453 0
M  V30 617 H 61.061 0.906339 0.277944 0
M  V30 618 H 60.767 3.1411 1.58201 0
M  V30 619 H 60.641 2.20465 3.06064 0
M  V30 620 H 63.028 1.30277 2.64786 0
M  V30 621 H 63.109 2.27415 1.17115 0
M  V30 622 H 62.753 4.38332 2.56568 0
M  V30 623 H 62.683 3.3813 4.03702 0
M  V30 624 H 65.174 2.72201 2.62135 0
M  V30 625 H 65.487 5.98196 4.89266 0
M  V30 626 H 63.832 5.37534 4.40548 0
M  V30 627 H 67.023 3.42962 3.18582 0
M  V30 628 H 67.196 4.91604 4.22173 0
M  V30 629 N 60.6021 -1.18246 1.0419 0
M  V30 630 C 61.8511 -1.87588 0.741194 0
M  V30 631 C 62.1641 -1.81303 -0.734066 0
M  V30 632 O 63.3701 -2.46019 -1.14834 0
M  V30 633 C 61.8261 -3.36538 1.27555 0
M  V30 634 C 61.4341 -3.51349 2.77953 0
M  V30 635 C 63.1781 -4.11273 1.05143 0
M  V30 636 C 61.0851 -4.94265 3.2474 0
M  V30 637 H 60.0151 -0.702622 0.273565 0
M  V30 638 H 62.6661 -1.33601 1.25789 0
M  V30 639 H 61.0481 -3.9 0.686703 0
M  V30 640 H 62.2221 -3.08153 3.42605 0
M  V30 641 H 60.5371 -2.90022 2.98791 0
M  V30 642 H 63.1341 -5.16689 1.37611 0
M  V30 643 H 63.4771 -4.16298 -0.0112774 0
M  V30 644 H 64.0101 -3.63987 1.60495 0
M  V30 645 H 60.7491 -4.94408 4.30396 0
M  V30 646 H 60.2691 -5.38172 2.64823 0
M  V30 647 H 61.9481 -5.62987 3.18834 0
M  V30 648 N 62.0802 -0.821533 -1.34494 0
M  V30 649 C 63.3052 -0.420873 -2.03085 0
M  V30 650 C 63.7302 0.964915 -1.61465 0
M  V30 651 O 63.0882 1.62763 -0.798607 0
M  V30 652 C 63.1362 -0.529414 -3.56693 0
M  V30 653 O 62.2402 0.451302 -4.09923 0
M  V30 654 H 61.5812 -0.173489 -0.640935 0
M  V30 655 H 64.1112 -1.11157 -1.71771 0
M  V30 656 H 64.1212 -0.404671 -4.05988 0
M  V30 657 H 62.7962 -1.54014 -3.86332 0
M  V30 658 H 61.3732 0.285558 -3.71805 0
M  V30 659 N 63.5583 1.46682 -0.576371 0
M  V30 660 C 64.4883 2.33028 0.148397 0
M  V30 661 C 65.4693 1.44961 0.889956 0
M  V30 662 O 66.6543 1.73789 0.866662 0
M  V30 663 C 63.7843 3.27117 1.1667 0
M  V30 664 C 62.7383 4.24575 0.540386 0
M  V30 665 C 62.0643 5.08126 1.6647 0
M  V30 666 C 63.3643 5.19722 -0.518331 0
M  V30 667 H 65.0583 2.93875 -0.572509 0
M  V30 668 H 62.6043 1.41315 -0.276768 0
M  V30 669 H 64.5573 3.86374 1.68204 0
M  V30 670 H 63.2813 2.64364 1.9178 0
M  V30 671 H 61.9403 3.66571 0.0461769 0
M  V30 672 H 61.5883 4.41762 2.40531 0
M  V30 673 H 61.2883 5.74122 1.25131 0
M  V30 674 H 62.8123 5.70246 2.18293 0
M  V30 675 H 64.2263 5.73232 -0.0883058 0
M  V30 676 H 62.6233 5.94026 -0.851679 0
M  V30 677 H 63.6933 4.64037 -1.40703 0
M  V30 678 N 65.0364 0.313813 1.54444 0
M  V30 679 C 66.4474 -0.176243 1.85866 0
M  V30 680 C 66.7984 -1.52405 1.23561 0
M  V30 681 O 65.9234 -2.09605 0.538016 0
M  V30 682 C 66.5184 -0.32657 3.37222 0
M  V30 683 C 65.0774 -0.760846 3.6863 0
M  V30 684 C 64.2244 0.123247 2.77026 0
M  V30 685 H 67.1754 0.534418 1.49431 0
M  V30 686 H 67.1964 -1.15908 3.62416 0
M  V30 687 H 66.7084 0.654531 3.82541 0
M  V30 688 H 64.8094 -1.75204 3.28838 0
M  V30 689 H 64.9224 -0.571353 4.75681 0
M  V30 690 H 63.2864 -0.399597 2.51546 0
M  V30 691 H 64.0694 1.10094 3.25168 0
M  V30 692 N 66.5145 -1.57545 0.0417849 0
M  V30 693 C 67.4625 -2.12148 -0.953723 0
M  V30 694 C 68.4565 -1.05104 -1.32852 0
M  V30 695 O 69.6625 -1.23524 -1.30927 0
M  V30 696 H 66.0375 -0.677957 -0.325389 0
M  V30 697 H 68.0085 -2.94707 -0.467991 0
M  V30 698 C 66.7575 -2.6739 -2.22257 0
M  V30 699 H 66.0805 -3.49413 -1.94295 0
M  V30 700 H 67.5205 -3.09227 -2.90094 0
M  V30 701 C 65.9795 -1.60723 -2.96091 0
M  V30 702 O 66.5095 -1.01449 -3.88679 0
M  V30 703 N 64.7155 -1.32466 -2.58652 0
M  V30 704 H 64.2625 -1.80856 -1.83437 0
M  V30 705 H 64.2205 -0.61325 -3.08361 0
M  V30 706 N 67.9926 0.231505 -1.5589 0
M  V30 707 C 69.2406 0.955461 -1.78088 0
M  V30 708 C 69.5616 1.85262 -0.608533 0
M  V30 709 O 68.8316 1.92277 0.375035 0
M  V30 710 H 67.4116 0.355787 -0.656829 0
M  V30 711 H 70.0736 0.245751 -1.93344 0
M  V30 712 H 69.1696 1.56814 -2.69844 0
M  V30 713 N 69.4707 1.49531 0.497807 0
M  V30 714 C 70.3807 1.69176 1.62532 0
M  V30 715 C 71.3967 0.5744 1.64246 0
M  V30 716 O 72.5727 0.849497 1.82608 0
M  V30 717 C 69.6377 1.75695 2.98885 0
M  V30 718 C 68.6987 2.9929 3.07773 0
M  V30 719 C 67.9317 3.05488 4.37622 0
M  V30 720 O 68.1547 2.19192 5.26603 0
M  V30 721 O 67.0887 3.9798 4.51548 0
M  V30 722 H 70.9147 2.647 1.48887 0
M  V30 723 H 68.4997 1.3331 0.674441 0
M  V30 724 H 70.3817 1.82317 3.79919 0
M  V30 725 H 69.0567 0.8335 3.12785 0
M  V30 726 H 67.9637 2.98183 2.25915 0
M  V30 727 H 69.2967 3.91125 2.98801 0
M  V30 728 N 70.9488 -0.749086 1.3866 0
M  V30 729 C 72.1968 -1.50535 1.34847 0
M  V30 730 C 72.5178 -1.94909 -0.0595016 0
M  V30 731 O 71.7878 -1.67973 -1.00806 0
M  V30 732 H 70.3678 -0.558395 0.49619 0
M  V30 733 H 73.0298 -0.890165 1.73384 0
M  V30 734 H 72.1258 -2.39413 2.00219 0
M  V30 735 N 72.4269 -1.23603 -0.977757 0
M  V30 736 C 73.6729 -1.08136 -1.72274 0
M  V30 737 C 74.0279 0.377453 -1.88661 0
M  V30 738 O 73.3209 1.27552 -1.42972 0
M  V30 739 C 73.5149 -1.7433 -3.11999 0
M  V30 740 C 73.3439 -3.26498 -3.0924 0
M  V30 741 C 72.1139 -3.9567 -3.14282 0
M  V30 742 C 74.3119 -4.2323 -2.92201 0
M  V30 743 N 72.2939 -5.34799 -3.01436 0
M  V30 744 C 73.6649 -5.49289 -2.87544 0
M  V30 745 C 75.7199 -4.13931 -2.76705 0
M  V30 746 C 74.4229 -6.67116 -2.68978 0
M  V30 747 C 76.4489 -5.31424 -2.59504 0
M  V30 748 C 75.8109 -6.5641 -2.55548 0
M  V30 749 H 71.9099 -0.450247 -0.639376 0
M  V30 750 H 74.4939 -1.5637 -1.16002 0
M  V30 751 H 72.6649 -1.28624 -3.66484 0
M  V30 752 H 74.3969 -1.51815 -3.75146 0
M  V30 753 H 71.1519 -3.46767 -3.22567 0
M  V30 754 H 71.5759 -6.07748 -2.98281 0
M  V30 755 H 76.2179 -3.1807 -2.78552 0
M  V30 756 H 73.9359 -7.63109 -2.65876 0
M  V30 757 H 77.5219 -5.26072 -2.48474 0
M  V30 758 H 76.4019 -7.45795 -2.42405 0
M  V30 759 N 73.905 1.17692 -1.04816 0
M  V30 760 C 74.868 2.19787 -0.650117 0
M  V30 761 C 75.868 1.58044 0.296427 0
M  V30 762 O 77.058 1.74012 0.0808097 0
M  V30 763 C 74.19 3.40869 0.0456987 0
M  V30 764 H 75.383 2.56516 -1.5537 0
M  V30 765 H 72.936 1.31708 -0.841594 0
M  V30 766 H 73.671 3.09681 0.962726 0
M  V30 767 H 73.456 3.86928 -0.634727 0
M  V30 768 H 74.946 4.16445 0.310432 0
M  V30 769 N 75.3831 0.828654 1.34056 0
M  V30 770 C 76.6291 0.429279 1.98818 0
M  V30 771 C 76.9841 -0.998011 1.64492 0
M  V30 772 O 76.2771 -1.68652 0.909228 0
M  V30 773 C 76.4711 0.575226 3.52741 0
M  V30 774 C 76.3001 2.01515 4.02022 0
M  V30 775 C 75.0701 2.64825 4.30344 0
M  V30 776 C 77.2681 2.98261 4.18981 0
M  V30 777 N 75.2501 3.99998 4.65698 0
M  V30 778 C 76.6211 4.18356 4.57578 0
M  V30 779 C 78.6761 2.94802 4.01243 0
M  V30 780 C 77.3791 5.35454 4.80293 0
M  V30 781 C 79.4051 4.11121 4.25128 0
M  V30 782 C 78.7671 5.29969 4.64018 0
M  V30 783 H 74.8661 0.205304 0.754569 0
M  V30 784 H 77.4501 1.07457 1.62361 0
M  V30 785 H 75.6211 -0.0401962 3.88379 0
M  V30 786 H 77.3531 0.148292 4.04428 0
M  V30 787 H 74.1081 2.16027 4.21461 0
M  V30 788 H 74.5321 4.69653 4.87601 0
M  V30 789 H 79.1741 2.04054 3.70299 0
M  V30 790 H 76.8921 6.26755 5.10102 0
M  V30 791 H 80.4781 4.0985 4.12934 0
M  V30 792 H 79.3581 6.18479 4.82134 0
M  V30 793 N 76.8612 -1.46375 0.584142 0
M  V30 794 C 77.7912 -2.33103 -0.136037 0
M  V30 795 C 78.7722 -1.45431 -0.882255 0
M  V30 796 O 79.9572 -1.74246 -0.857434 0
M  V30 797 C 77.0872 -3.27731 -1.14933 0
M  V30 798 C 76.0412 -4.24855 -0.517862 0
M  V30 799 C 75.3672 -5.09001 -1.63773 0
M  V30 800 C 76.6672 -5.19439 0.545886 0
M  V30 801 H 78.3612 -2.93568 0.588086 0
M  V30 802 H 75.9072 -1.41166 0.284259 0
M  V30 803 H 77.8602 -3.87261 -1.66153 0
M  V30 804 H 76.5842 -2.65377 -1.90375 0
M  V30 805 H 75.2432 -3.6659 -0.0267361 0
M  V30 806 H 74.8912 -4.43031 -2.38185 0
M  V30 807 H 74.5912 -5.74777 -1.22085 0
M  V30 808 H 76.1152 -5.71396 -2.15266 0
M  V30 809 H 77.5292 -5.73177 0.118704 0
M  V30 810 H 75.9262 -5.93566 0.88317 0
M  V30 811 H 76.9962 -4.63285 1.43162 0
M  V30 812 N 78.3393 -0.321999 -1.54275 0
M  V30 813 C 79.5853 0.281461 -2.00837 0
M  V30 814 C 79.9183 1.51909 -1.20985 0
M  V30 815 O 79.1933 1.923 -0.291733 0
M  V30 816 C 79.4763 0.617162 -3.54772 0
M  V30 817 C 79.3293 -0.631064 -4.45351 0
M  V30 818 C 80.6483 1.43542 -4.16033 0
M  V30 819 H 77.7673 0.100826 -0.730071 0
M  V30 820 H 80.4093 -0.438268 -1.84876 0
M  V30 821 H 78.5593 1.23034 -3.68504 0
M  V30 822 H 80.2313 -1.26934 -4.43492 0
M  V30 823 H 78.4743 -1.26025 -4.15091 0
M  V30 824 H 79.1453 -0.351735 -5.50878 0
M  V30 825 H 81.6213 0.917134 -4.05867 0
M  V30 826 H 80.4973 1.63907 -5.23856 0
M  V30 827 H 80.7583 2.43108 -3.69257 0
M  V30 828 N 79.8174 1.5752 -0.0501392 0
M  V30 829 C 81.0454 1.96963 0.633492 0
M  V30 830 C 81.4604 0.927631 1.6444 0
M  V30 831 O 80.8174 -0.0882665 1.82286 0
M  V30 832 C 80.8684 3.36487 1.32132 0
M  V30 833 O 80.5894 4.36693 0.350894 0
M  V30 834 C 82.0904 3.90682 2.09481 0
M  V30 835 H 79.3104 0.648244 0.173266 0
M  V30 836 H 81.8544 2.0417 -0.116134 0
M  V30 837 H 80.0094 3.30434 2.02218 0
M  V30 838 H 80.4234 5.17702 0.841735 0
M  V30 839 H 81.8974 4.90591 2.5303 0
M  V30 840 H 82.3744 3.26053 2.94255 0
M  V30 841 H 82.9804 4.00069 1.44307 0
M  V30 842 N 81.2955 -0.223234 1.56011 0
M  V30 843 C 82.7115 -0.572856 1.48965 0
M  V30 844 C 82.9115 -1.87225 0.74492 0
M  V30 845 O 81.9675 -2.50899 0.283896 0
M  V30 846 C 83.2805 -0.653646 2.9351 0
M  V30 847 C 84.8285 -0.744386 3.0402 0
M  V30 848 C 85.3035 -0.856535 4.49919 0
M  V30 849 N 86.7945 -0.9208 4.53955 0
M  V30 850 C 87.5295 -1.02726 5.64123 0
M  V30 851 N 87.0255 -1.09777 6.84047 0
M  V30 852 N 88.8185 -1.06226 5.51971 0
M  V30 853 H 80.9695 0.629462 2.02858 0
M  V30 854 H 83.2325 0.220621 0.921971 0
M  V30 855 H 82.9385 0.231518 3.50937 0
M  V30 856 H 82.8125 -1.51781 3.45315 0
M  V30 857 H 85.1995 -1.61999 2.46658 0
M  V30 858 H 85.2805 0.14541 2.55386 0
M  V30 859 H 84.9245 0.0146069 5.07898 0
M  V30 860 H 84.8545 -1.76172 4.96257 0
M  V30 861 H 87.3455 -0.876694 3.6759 0
M  V30 862 H 87.6585 -1.17872 7.63758 0
M  V30 863 H 86.0035 -1.06693 6.86762 0
M  V30 864 H 89.1945 -1.00382 4.5721 0
M  V30 865 H 89.3675 -1.14177 6.37862 0
M  V30 866 N 82.7736 -1.49793 -0.48987 0
M  V30 867 C 83.7236 -1.63673 -1.5873 0
M  V30 868 C 84.7076 -0.491956 -1.53195 0
M  V30 869 O 85.8996 -0.745461 -1.60536 0
M  V30 870 C 83.0286 -1.71689 -2.97284 0
M  V30 871 C 82.1146 -2.91781 -3.07774 0
M  V30 872 N 82.5056 -4.15714 -2.88124 0
M  V30 873 C 80.8036 -2.89949 -3.38889 0
M  V30 874 C 81.5046 -4.965 -3.03088 0
M  V30 875 N 80.4806 -4.30083 -3.3246 0
M  V30 876 H 84.2826 -2.57204 -1.42208 0
M  V30 877 H 81.7966 -1.46719 -0.69623 0
M  V30 878 H 83.7936 -1.79732 -3.76168 0
M  V30 879 H 82.4536 -0.793024 -3.14867 0
M  V30 880 H 83.4646 -4.45515 -2.64077 0
M  V30 881 H 80.1416 -2.06987 -3.62578 0
M  V30 882 H 81.5316 -6.04991 -2.92294 0
M  V30 883 N 84.2517 0.741722 -1.39055 0
M  V30 884 C 85.5287 1.49252 -1.26425 0
M  V30 885 C 85.9087 2.10705 0.129144 0
M  V30 886 O 85.2567 1.98045 1.13976 0
M  V30 887 C 85.4667 2.54934 -2.38347 0
M  V30 888 C 86.8147 3.21506 -2.77343 0
M  V30 889 O 87.8387 2.65245 -2.37747 0
M  V30 890 O 86.6977 4.23294 -3.45665 0
M  V30 891 H 83.7917 0.662451 -0.495064 0
M  V30 892 H 86.3377 0.776121 -1.50912 0
M  V30 893 H 85.1097 2.07857 -3.31529 0
M  V30 894 H 84.7327 3.34141 -2.15489 0
M  V30 895 N 85.7298 1.2412 0.971189 0
M  V30 896 C 87.0068 0.986867 1.6888 0
M  V30 897 C 87.3868 -0.491857 2.0529 0
M  V30 898 O 86.7348 -1.46531 1.75331 0
M  V30 899 C 86.9448 1.9063 2.92338 0
M  V30 900 C 88.2928 2.17515 3.64654 0
M  V30 901 O 89.3168 1.88254 3.02388 0
M  V30 902 O 88.1758 2.6719 4.7673 0
M  V30 903 H 85.2698 0.372944 0.738134 0
M  V30 904 H 87.8158 1.35203 1.02559 0
M  V30 905 H 86.5878 2.90552 2.62097 0
M  V30 906 H 86.2108 1.54408 3.66393 0
M  V30 907 N 87.2079 -1.17134 1.05439 0
M  V30 908 C 88.4539 -1.87733 0.767077 0
M  V30 909 C 88.7869 -1.8098 -0.704253 0
M  V30 910 O 88.0619 -1.21951 -1.5152 0
M  V30 911 C 88.3449 -3.37659 1.25133 0
M  V30 912 C 88.1979 -3.53149 2.78578 0
M  V30 913 C 89.5169 -4.31768 0.852324 0
M  V30 914 H 86.6359 -0.681687 0.280129 0
M  V30 915 H 89.2779 -1.37732 1.30881 0
M  V30 916 H 87.4279 -3.80373 0.790469 0
M  V30 917 H 89.0999 -3.19434 3.32806 0
M  V30 918 H 87.3429 -2.95345 3.17732 0
M  V30 919 H 88.0139 -4.58403 3.07523 0
M  V30 920 H 90.4899 -3.96909 1.24911 0
M  V30 921 H 89.3659 -5.35199 1.21873 0
M  V30 922 H 89.6269 -4.41429 -0.243485 0
M  V30 923 N 88.686 -0.835752 -1.33615 0
M  V30 924 C 90.102 -0.523139 -1.50783 0
M  V30 925 C 90.302 0.950171 -1.77691 0
M  V30 926 O 89.358 1.73411 -1.83534 0
M  V30 927 C 90.671 -1.39378 -2.66448 0
M  V30 928 C 92.219 -1.39223 -2.80332 0
M  V30 929 C 92.694 -2.24765 -3.99055 0
M  V30 930 N 94.185 -2.22458 -4.06284 0
M  V30 931 C 94.92 -2.85386 -4.97336 0
M  V30 932 N 94.416 -3.57354 -5.93523 0
M  V30 933 N 96.209 -2.74872 -4.90308 0
M  V30 934 H 88.36 -1.78952 -1.14411 0
M  V30 935 H 90.623 -0.763297 -0.562212 0
M  V30 936 H 90.329 -2.44061 -2.53234 0
M  V30 937 H 90.203 -1.0676 -3.61776 0
M  V30 938 H 92.59 -0.353136 -2.92979 0
M  V30 939 H 92.671 -1.75846 -1.85773 0
M  V30 940 H 92.315 -3.28732 -3.87167 0
M  V30 941 H 92.245 -1.85485 -4.92852 0
M  V30 942 H 94.736 -1.70119 -3.37443 0
M  V30 943 H 95.049 -4.02584 -6.59656 0
M  V30 944 H 93.394 -3.61461 -5.93608 0
M  V30 945 H 96.585 -2.18213 -4.14126 0
M  V30 946 H 96.758 -3.24199 -5.61069 0
M  V30 947 N 90.1641 1.46063 -0.591896 0
M  V30 948 C 91.0941 2.33172 0.123673 0
M  V30 949 C 92.0751 1.45897 0.87453 0
M  V30 950 O 93.2601 1.74698 0.848181 0
M  V30 951 C 90.3901 3.28336 1.13194 0
M  V30 952 C 89.3441 4.25124 0.495324 0
M  V30 953 C 88.6701 5.09863 1.61071 0
M  V30 954 C 89.9701 5.19143 -0.573425 0
M  V30 955 H 91.6641 2.93252 -0.603646 0
M  V30 956 H 89.2101 1.41014 -0.291741 0
M  V30 957 H 91.1631 3.88137 1.64097 0
M  V30 958 H 89.8871 2.66383 1.88965 0
M  V30 959 H 88.5461 3.66599 0.00729452 0
M  V30 960 H 88.1941 4.44288 2.35832 0
M  V30 961 H 87.8941 5.75417 1.19035 0
M  V30 962 H 89.4181 5.72529 2.12233 0
M  V30 963 H 90.8321 5.73106 -0.1491 0
M  V30 964 H 89.2291 5.93089 -0.914636 0
M  V30 965 H 90.2991 4.62519 -1.45617 0
M  V30 966 N 91.6422 0.330177 1.54103 0
M  V30 967 C 92.8882 -0.270806 2.00984 0
M  V30 968 C 93.2212 -1.51265 1.21789 0
M  V30 969 O 92.4962 -1.92142 0.301927 0
M  V30 970 C 92.7792 -0.598339 3.55094 0
M  V30 971 C 92.6322 0.654674 4.4501 0
M  V30 972 C 93.9512 -1.41334 4.16789 0
M  V30 973 H 91.0702 -0.0969531 0.730595 0
M  V30 974 H 93.7122 0.448066 1.84641 0
M  V30 975 H 91.8622 -1.21078 3.69151 0
M  V30 976 H 93.5342 1.29285 4.42813 0
M  V30 977 H 91.7772 1.28224 4.14416 0
M  V30 978 H 92.4482 0.380944 5.50684 0
M  V30 979 H 94.9242 -0.895597 4.06347 0
M  V30 980 H 93.8002 -1.61127 5.24718 0
M  V30 981 H 94.0612 -2.41146 3.70541 0
M  V30 982 N 93.1203 -1.57491 0.0584922 0
M  V30 983 C 94.3483 -1.97296 -0.623037 0
M  V30 984 C 94.7633 -0.936338 -1.63946 0
M  V30 985 O 94.1203 0.0785981 -1.82331 0
M  V30 986 C 94.1713 -3.37183 -1.30345 0
M  V30 987 O 93.8923 -4.36872 -0.32773 0
M  V30 988 C 95.3933 -3.91788 -2.07406 0
M  V30 989 H 92.6133 -0.649153 -0.169826 0
M  V30 990 H 95.1573 -2.04106 0.12696 0
M  V30 991 H 93.3123 -3.31502 -2.00463 0
M  V30 992 H 93.7263 -5.18141 -0.814269 0
M  V30 993 H 95.2003 -4.91926 -2.50425 0
M  V30 994 H 95.6773 -3.27609 -2.92521 0
M  V30 995 H 96.2833 -4.00829 -1.42184 0
M  V30 996 N 94.5984 0.214957 -1.56127 0
M  V30 997 C 95.5464 1.28601 -1.93816 0
M  V30 998 C 96.5404 1.48175 -0.821016 0
M  V30 999 O 97.7464 1.49271 -1.0059 0
M  V30 1000 H 94.1214 0.431302 -0.616022 0
M  V30 1001 H 96.0924 0.940991 -2.83175 0
M  V30 1002 C 94.8414 2.62779 -2.27689 0
M  V30 1003 H 94.1644 2.48527 -3.13168 0
M  V30 1004 H 95.6044 3.36517 -2.57939 0
M  V30 1005 C 94.0634 3.18285 -1.10436 0
M  V30 1006 O 94.5934 4.00002 -0.368945 0
M  V30 1007 N 92.7994 2.7675 -0.886433 0
M  V30 1008 H 92.3464 2.10404 -1.48619 0
M  V30 1009 H 92.3044 3.14229 -0.103656 0
M  V30 1010 N 96.0765 1.50051 0.48192 0
M  V30 1011 C 97.3535 1.51009 1.2432 0
M  V30 1012 C 97.7335 0.248587 2.09631 0
M  V30 1013 O 97.0815 -0.768409 2.15192 0
M  V30 1014 C 97.2915 2.79981 2.08355 0
M  V30 1015 C 98.6395 3.3022 2.66908 0
M  V30 1016 O 99.6635 2.81228 2.18607 0
M  V30 1017 O 98.5225 4.15595 3.54884 0
M  V30 1018 H 95.6165 0.605239 0.563573 0
M  V30 1019 H 98.1625 1.62332 0.494627 0
M  V30 1020 H 96.9345 3.63275 1.45419 0
M  V30 1021 H 96.5575 2.7161 2.90368 0
M  V30 1022 N 97.5546 -0.734337 1.39446 0
M  V30 1023 C 98.9656 -1.31264 1.32766 0
M  V30 1024 C 99.3166 -1.96198 -0.00767497 0
M  V30 1025 O 98.4416 -1.96346 -0.909796 0
M  V30 1026 C 99.0366 -2.38682 2.4045 0
M  V30 1027 C 97.5956 -2.92184 2.37288 0
M  V30 1028 C 96.7426 -1.6576 2.22304 0
M  V30 1029 H 99.6936 -0.531799 1.49525 0
M  V30 1030 H 99.7146 -3.19087 2.07276 0
M  V30 1031 H 99.2266 -1.91392 3.37625 0
M  V30 1032 H 97.3276 -3.43752 1.43754 0
M  V30 1033 H 97.4406 -3.45253 3.3217 0
M  V30 1034 H 95.8046 -1.9012 1.69489 0
M  V30 1035 H 96.5876 -1.20521 3.21449 0
M  V30 1036 N 99.0327 -1.24633 -0.964593 0
M  V30 1037 C 100.449 -1.01239 -1.2338 0
M  V30 1038 C 100.649 0.2769 -1.99588 0
M  V30 1039 O 99.7047 0.992241 -2.32187 0
M  V30 1040 C 101.018 -2.22937 -2.01791 0
M  V30 1041 C 102.566 -2.27594 -2.14872 0
M  V30 1042 C 103.041 -3.48921 -2.96678 0
M  V30 1043 N 104.532 -3.49257 -3.04259 0
M  V30 1044 C 105.267 -4.39795 -3.67924 0
M  V30 1045 N 104.763 -5.40591 -4.33281 0
M  V30 1046 N 106.556 -4.275 -3.64966 0
M  V30 1047 H 98.7067 -2.0748 -0.454502 0
M  V30 1048 H 100.97 -0.910647 -0.26349 0
M  V30 1049 H 100.676 -3.16587 -1.53184 0
M  V30 1050 H 100.55 -2.25306 -3.02518 0
M  V30 1051 H 102.937 -1.34473 -2.6268 0
M  V30 1052 H 103.018 -2.2925 -1.13482 0
M  V30 1053 H 102.662 -4.42359 -2.49562 0
M  V30 1054 H 102.592 -3.4451 -3.98272 0
M  V30 1055 H 105.083 -2.76337 -2.57771 0
M  V30 1056 H 105.396 -6.05904 -4.79687 0
M  V30 1057 H 103.741 -5.44475 -4.3194 0
M  V30 1058 H 106.932 -3.47987 -3.13086 0
M  V30 1059 H 107.105 -4.98258 -4.14298 0
M  V30 1060 N 100.511 1.16574 -1.06058 0
M  V30 1061 C 101.758 1.87047 -0.775873 0
M  V30 1062 C 102.086 1.81562 0.697534 0
M  V30 1063 O 101.341 1.22445 1.52662 0
M  V30 1064 C 101.64 3.36195 -1.21275 0
M  V30 1065 C 101.306 3.6188 -2.68986 0
M  V30 1066 C 99.9678 3.68599 -3.09335 0
M  V30 1067 C 102.32 3.72648 -3.64394 0
M  V30 1068 C 99.6478 3.83584 -4.43937 0
M  V30 1069 C 102 3.89154 -4.98741 0
M  V30 1070 C 100.664 3.94114 -5.3873 0
M  V30 1071 H 99.9338 0.684452 -0.283912 0
M  V30 1072 H 102.581 1.37853 -1.32925 0
M  V30 1073 H 100.886 3.87505 -0.578528 0
M  V30 1074 H 102.583 3.89103 -0.969542 0
M  V30 1075 H 99.1728 3.57281 -2.36744 0
M  V30 1076 H 103.357 3.66769 -3.34356 0
M  V30 1077 H 98.6128 3.85677 -4.74409 0
M  V30 1078 H 102.787 3.96427 -5.72554 0
M  V30 1079 H 100.414 4.05478 -6.43033 0
M  V30 1080 N 101.989 0.842826 1.3317 0
M  V30 1081 C 103.237 0.439577 1.97262 0
M  V30 1082 C 103.558 -1.00548 1.67078 0
M  V30 1083 O 102.828 -1.70098 0.971779 0
M  V30 1084 H 101.408 0.159558 0.72976 0
M  V30 1085 H 104.07 1.07665 1.62463 0
M  V30 1086 H 103.166 0.574886 3.0676 0
M  V30 1087 N 103.467 -1.45747 0.599634 0
M  V30 1088 C 104.883 -1.57424 0.26264 0
M  V30 1089 C 105.083 -1.59222 -1.23493 0
M  V30 1090 O 104.139 -1.51825 -2.01756 0
M  V30 1091 C 105.452 -2.86061 0.926795 0
M  V30 1092 C 107 -2.99722 0.901967 0
M  V30 1093 C 107.475 -4.31119 1.54598 0
M  V30 1094 N 108.966 -4.37858 1.5111 0
M  V30 1095 C 109.701 -5.3818 1.97863 0
M  V30 1096 N 109.197 -6.45083 2.52666 0
M  V30 1097 N 110.99 -5.29487 1.88679 0
M  V30 1098 H 103.141 -1.42823 1.57211 0
M  V30 1099 H 105.404 -0.68235 0.658105 0
M  V30 1100 H 105.11 -2.90605 1.98095 0
M  V30 1101 H 104.984 -3.74563 0.445238 0
M  V30 1102 H 107.371 -2.9475 -0.143617 0
M  V30 1103 H 107.452 -2.12652 1.42171 0
M  V30 1104 H 107.096 -4.36849 2.59085 0
M  V30 1105 H 107.026 -5.16992 1.00132 0
M  V30 1106 H 109.517 -3.61209 1.11068 0
M  V30 1107 H 109.83 -7.17869 2.86155 0
M  V30 1108 H 108.175 -6.45856 2.56701 0
M  V30 1109 H 111.366 -4.44877 1.4561 0
M  V30 1110 H 111.539 -6.07524 2.25429 0
M  V30 1111 N 104.945 -0.338344 -1.53925 0
M  V30 1112 C 105.855 0.529421 -2.28548 0
M  V30 1113 C 106.871 1.11645 -1.3346 0
M  V30 1114 O 108.047 1.13325 -1.66492 0
M  V30 1115 C 105.112 1.66713 -3.03987 0
M  V30 1116 C 104.173 1.11041 -4.14691 0
M  V30 1117 C 103.406 2.19389 -4.86522 0
M  V30 1118 O 103.629 3.40013 -4.57982 0
M  V30 1119 O 102.563 1.83976 -5.73094 0
M  V30 1120 H 106.389 -0.0770399 -3.03602 0
M  V30 1121 H 103.974 -0.103555 -1.49041 0
M  V30 1122 H 105.856 2.32918 -3.5118 0
M  V30 1123 H 104.531 2.25949 -2.31794 0
M  V30 1124 H 103.438 0.413024 -3.71813 0
M  V30 1125 H 104.771 0.562975 -4.8897 0
M  V30 1126 N 106.423 1.57458 -0.0668435 0
M  V30 1127 C 107.386 2.11323 0.887422 0
M  V30 1128 C 108.386 1.03618 1.22964 0
M  V30 1129 O 109.576 1.29626 1.16373 0
M  V30 1130 C 106.708 2.61048 2.19242 0
M  V30 1131 H 107.901 2.96942 0.420194 0
M  V30 1132 H 105.454 1.55239 0.181793 0
M  V30 1133 H 106.189 1.78868 2.70512 0
M  V30 1134 H 105.974 3.39769 1.95702 0
M  V30 1135 H 107.464 3.02814 2.87565 0
M  V30 1136 N 107.901 -0.206675 1.56239 0
M  V30 1137 C 109.147 -0.930218 1.80208 0
M  V30 1138 C 109.48 -1.83387 0.638981 0
M  V30 1139 O 108.755 -1.91119 -0.361066 0
M  V30 1140 C 109.038 -1.75641 3.1436 0
M  V30 1141 C 108.891 -0.878257 4.41142 0
M  V30 1142 C 110.21 -2.73129 3.45092 0
M  V30 1143 H 107.329 -0.336742 0.655571 0
M  V30 1144 H 109.971 -0.198222 1.88963 0
M  V30 1145 H 108.121 -2.38048 3.07027 0
M  V30 1146 H 109.793 -0.269787 4.6051 0
M  V30 1147 H 108.036 -0.184385 4.33408 0
M  V30 1148 H 108.707 -1.49106 5.3148 0
M  V30 1149 H 111.183 -2.20856 3.52649 0
M  V30 1150 H 110.059 -3.28028 4.40101 0
M  V30 1151 H 110.32 -3.51606 2.68003 0
M  V30 1152 N 109.379 -1.50304 -0.473955 0
M  V30 1153 C 110.312 -1.63595 -1.59097 0
M  V30 1154 C 111.29 -0.484142 -1.55225 0
M  V30 1155 O 112.474 -0.703271 -1.7489 0
M  V30 1156 C 109.601 -1.61589 -2.97669 0
M  V30 1157 C 108.647 -2.82295 -3.19705 0
M  V30 1158 S 109.48 -4.43635 -2.99913 0
M  V30 1159 C 110.636 -4.44317 -4.40832 0
M  V30 1160 H 110.869 -2.58082 -1.47583 0
M  V30 1161 H 108.402 -1.39531 -0.661087 0
M  V30 1162 H 110.36 -1.61116 -3.7756 0
M  V30 1163 H 109.021 -0.683421 -3.06575 0
M  V30 1164 H 108.214 -2.77188 -4.20931 0
M  V30 1165 H 107.816 -2.8032 -2.47582 0
M  V30 1166 H 110.108 -4.17703 -5.33414 0
M  V30 1167 H 111.051 -5.45911 -4.50984 0
M  V30 1168 H 111.459 -3.74059 -4.22777 0
M  V30 1169 N 110.857 0.726932 -1.39834 0
M  V30 1170 C 112.134 1.47902 -1.28001 0
M  V30 1171 C 112.514 2.1083 0.106789 0
M  V30 1172 O 111.862 1.99242 1.11869 0
M  V30 1173 C 112.072 2.52392 -2.41038 0
M  V30 1174 C 113.42 3.18546 -2.80737 0
M  V30 1175 O 114.444 2.62708 -2.40547 0
M  V30 1176 O 113.303 4.19604 -3.50135 0
M  V30 1177 H 110.397 0.657163 -0.502062 0
M  V30 1178 H 112.943 0.760071 -1.51727 0
M  V30 1179 H 111.715 2.04329 -3.33715 0
M  V30 1180 H 111.338 3.31837 -2.19021 0
M  V30 1181 N 112.336 1.25143 0.95797 0
M  V30 1182 C 113.752 1.01892 1.22842 0
M  V30 1183 C 113.952 -0.266311 1.99732 0
M  V30 1184 O 113.008 -0.979913 2.3271 0
M  V30 1185 C 114.321 2.24004 2.00606 0
M  V30 1186 C 115.869 2.28731 2.13662 0
M  V30 1187 C 116.344 3.5049 2.94823 0
M  V30 1188 N 117.835 3.50866 3.02403 0
M  V30 1189 C 118.57 4.4174 3.65586 0
M  V30 1190 N 118.066 5.42882 4.30408 0
M  V30 1191 N 119.859 4.29429 3.62694 0
M  V30 1192 H 112.01 2.07718 0.443493 0
M  V30 1193 H 114.273 0.912031 0.258657 0
M  V30 1194 H 113.979 3.17395 1.51503 0
M  V30 1195 H 113.853 2.26907 3.01319 0
M  V30 1196 H 116.24 1.35865 2.61963 0
M  V30 1197 H 116.321 2.29848 1.12265 0
M  V30 1198 H 115.965 4.43676 2.47213 0
M  V30 1199 H 115.895 3.46617 3.96439 0
M  V30 1200 H 118.386 2.777 2.56302 0
M  V30 1201 H 118.699 6.0844 4.76467 0
M  V30 1202 H 117.044 5.46758 4.29047 0
M  V30 1203 H 120.235 3.49643 3.11236 0
M  V30 1204 H 120.408 5.00448 4.1165 0
M  V30 1205 N 113.814 -1.1601 1.06675 0
M  V30 1206 C 114.746 -2.20115 0.638921 0
M  V30 1207 C 115.759 -1.59916 -0.305057 0
M  V30 1208 O 116.948 -1.78245 -0.0954446 0
M  V30 1209 C 114.048 -3.38798 -0.0830083 0
M  V30 1210 C 113.221 -4.2855 0.875426 0
M  V30 1211 C 112.28 -5.25849 0.192042 0
M  V30 1212 O 111.306 -5.63102 0.830921 0
M  V30 1213 N 112.508 -5.70648 -1.06493 0
M  V30 1214 H 115.273 -2.57439 1.53444 0
M  V30 1215 H 112.834 -1.31057 0.950557 0
M  V30 1216 H 114.826 -4.00936 -0.550685 0
M  V30 1217 H 113.396 -2.99947 -0.880386 0
M  V30 1218 H 112.616 -3.63617 1.52238 0
M  V30 1219 H 113.904 -4.85393 1.52548 0
M  V30 1220 H 113.302 -5.42482 -1.60405 0
M  V30 1221 H 111.859 -6.34859 -1.47641 0
M  V30 1222 N 115.292 -0.849877 -1.32721 0
M  V30 1223 C 116.538 -0.451591 -1.97708 0
M  V30 1224 C 116.871 0.989175 -1.6712 0
M  V30 1225 O 116.146 1.69334 -0.956891 0
M  V30 1226 C 116.429 -0.685598 -3.53513 0
M  V30 1227 C 116.282 -2.17444 -3.93749 0
M  V30 1228 C 117.601 -0.138874 -4.39881 0
M  V30 1229 H 114.72 -0.16555 -0.718166 0
M  V30 1230 H 117.362 -1.06742 -1.57182 0
M  V30 1231 H 115.512 -0.161416 -3.88165 0
M  V30 1232 H 117.184 -2.76433 -3.693 0
M  V30 1233 H 115.427 -2.65476 -3.43081 0
M  V30 1234 H 116.098 -2.28888 -5.02309 0
M  V30 1235 H 118.574 -0.587068 -4.11938 0
M  V30 1236 H 117.45 -0.332213 -5.47894 0
M  V30 1237 H 117.711 0.95806 -4.31594 0
M  V30 1238 N 116.77 1.45427 -0.607355 0
M  V30 1239 C 117.998 2.06614 -0.108814 0
M  V30 1240 C 118.413 1.45204 1.2067 0
M  V30 1241 O 117.77 0.566132 1.73497 0
M  V30 1242 C 117.821 3.61481 0.0375347 0
M  V30 1243 O 117.542 4.20598 -1.22593 0
M  V30 1244 C 119.043 4.39652 0.567561 0
M  V30 1245 H 116.263 0.66747 -0.0687351 0
M  V30 1246 H 118.807 1.86675 -0.835022 0
M  V30 1247 H 116.962 3.80762 0.714068 0
M  V30 1248 H 117.376 5.1377 -1.05547 0
M  V30 1249 H 118.85 5.48518 0.61905 0
M  V30 1250 H 119.327 4.09417 1.58978 0
M  V30 1251 H 119.933 4.25234 -0.0749202 0
M  V30 1252 N 118.248 0.346503 1.53744 0
M  V30 1253 C 119.664 -0.00530975 1.59599 0
M  V30 1254 C 119.864 -1.48465 1.36236 0
M  V30 1255 O 118.92 -2.24376 1.15808 0
M  V30 1256 C 120.233 0.433516 2.97559 0
M  V30 1257 C 121.781 0.386111 3.10609 0
M  V30 1258 C 122.256 0.800451 4.50951 0
M  V30 1259 N 123.747 0.754753 4.5701 0
M  V30 1260 C 124.482 1.04727 5.63755 0
M  V30 1261 N 123.978 1.4081 6.7834 0
M  V30 1262 N 125.771 0.971316 5.53644 0
M  V30 1263 H 117.922 1.31009 1.67184 0
M  V30 1264 H 120.185 0.534242 0.783128 0
M  V30 1265 H 119.891 1.46509 3.19731 0
M  V30 1266 H 119.765 -0.189753 3.76722 0
M  V30 1267 H 122.152 -0.636295 2.88158 0
M  V30 1268 H 122.233 1.04462 2.33498 0
M  V30 1269 H 121.877 1.82088 4.74137 0
M  V30 1270 H 121.807 0.119386 5.26465 0
M  V30 1271 H 124.298 0.488662 3.74727 0
M  V30 1272 H 124.611 1.61607 7.55714 0
M  V30 1273 H 122.956 1.44657 6.79779 0
M  V30 1274 H 126.147 0.688748 4.63005 0
M  V30 1275 H 126.32 1.20263 6.36742 0
M  V30 1276 N 119.726 -1.57421 0.075193 0
M  V30 1277 C 120.656 -2.15942 -0.888324 0
M  V30 1278 C 121.637 -1.08737 -1.30806 0
M  V30 1279 O 122.822 -1.36787 -1.37851 0
M  V30 1280 C 119.952 -2.72379 -2.1547 0
M  V30 1281 C 118.906 -3.8478 -1.87425 0
M  V30 1282 C 118.232 -4.27834 -3.20721 0
M  V30 1283 C 119.532 -5.08869 -1.17684 0
M  V30 1284 H 121.226 -2.96705 -0.400799 0
M  V30 1285 H 118.772 -1.42723 -0.191342 0
M  V30 1286 H 120.725 -3.11965 -2.83295 0
M  V30 1287 H 119.449 -1.88841 -2.6647 0
M  V30 1288 H 118.108 -3.45703 -1.22004 0
M  V30 1289 H 117.756 -3.41214 -3.6957 0
M  V30 1290 H 117.456 -5.03605 -3.02746 0
M  V30 1291 H 118.98 -4.70039 -3.89738 0
M  V30 1292 H 120.394 -5.4575 -1.75584 0
M  V30 1293 H 118.791 -5.8994 -1.09956 0
M  V30 1294 H 119.861 -4.84648 -0.156453 0
M  V30 1295 N 121.204 0.198386 -1.56346 0
M  V30 1296 C 122.167 1.22952 -1.93431 0
M  V30 1297 C 123.167 1.38611 -0.815092 0
M  V30 1298 O 124.357 1.36479 -1.08255 0
M  V30 1299 C 121.489 2.59946 -2.20546 0
M  V30 1300 H 122.682 0.912626 -2.85677 0
M  V30 1301 H 120.235 0.43977 -1.49986 0
M  V30 1302 H 120.97 2.96696 -1.30927 0
M  V30 1303 H 120.755 2.49953 -3.02102 0
M  V30 1304 H 122.245 3.3431 -2.50253 0
M  V30 1305 N 122.682 1.50554 0.465978 0
M  V30 1306 C 124.093 1.54599 1.04671 0
M  V30 1307 C 124.444 0.352488 1.93008 0
M  V30 1308 O 123.569 -0.534044 2.09707 0
M  V30 1309 C 124.164 2.80166 1.90505 0
M  V30 1310 C 122.723 2.86876 2.43678 0
M  V30 1311 C 121.87 2.48947 1.22151 0
M  V30 1312 H 124.821 1.56744 0.248384 0
M  V30 1313 H 124.842 2.62311 2.75633 0
M  V30 1314 H 124.354 3.67013 1.26186 0
M  V30 1315 H 122.455 2.04393 3.11536 0
M  V30 1316 H 122.568 3.89885 2.78436 0
M  V30 1317 H 120.932 2.01498 1.5579 0
M  V30 1318 H 121.715 3.38107 0.594866 0
M  V30 1319 N 124.16 -0.719506 1.40217 0
M  V30 1320 C 125.11 -1.8251 1.36653 0
M  V30 1321 C 126.094 -1.59028 0.244732 0
M  V30 1322 O 127.286 -1.70268 0.483524 0
M  V30 1323 C 124.415 -3.20599 1.22763 0
M  V30 1324 C 123.501 -3.49858 2.39708 0
M  V30 1325 N 123.892 -3.49957 3.6519 0
M  V30 1326 C 122.19 -3.80297 2.33002 0
M  V30 1327 C 122.891 -3.77449 4.42614 0
M  V30 1328 N 121.867 -3.96002 3.72402 0
M  V30 1329 H 125.669 -1.80914 2.31619 0
M  V30 1330 H 123.183 -0.918455 1.33933 0
M  V30 1331 H 125.18 -3.99766 1.18292 0
M  V30 1332 H 123.84 -3.23424 0.287614 0
M  V30 1333 H 124.851 -3.309 3.98404 0
M  V30 1334 H 121.528 -3.90635 1.47346 0
M  V30 1335 H 122.918 -3.83863 5.51451 0
M  V30 1336 N 125.638 -1.25649 -0.95132 0
M  V30 1337 C 126.885 -1.10594 -1.69633 0
M  V30 1338 C 127.213 0.352515 -1.91279 0
M  V30 1339 O 126.468 1.27601 -1.4838 0
M  V30 1340 C 126.767 -1.80909 -3.08231 0
M  V30 1341 C 126.433 -3.30825 -3.06375 0
M  V30 1342 C 125.095 -3.71722 -3.05576 0
M  V30 1343 C 127.447 -4.26589 -2.99452 0
M  V30 1344 C 124.775 -5.06788 -2.95606 0
M  V30 1345 C 127.127 -5.61683 -2.91024 0
M  V30 1346 C 125.791 -6.01904 -2.88562 0
M  V30 1347 H 125.061 -0.404691 -0.620731 0
M  V30 1348 H 127.708 -1.55964 -1.11119 0
M  V30 1349 H 126.013 -1.27979 -3.70309 0
M  V30 1350 H 127.71 -1.6671 -3.64704 0
M  V30 1351 H 124.3 -2.98287 -3.07771 0
M  V30 1352 H 128.484 -3.95982 -2.99185 0
M  V30 1353 H 123.74 -5.37126 -2.92071 0
M  V30 1354 H 127.914 -6.35578 -2.84629 0
M  V30 1355 H 125.541 -7.06521 -2.80593 0
M  V30 1356 N 127.117 1.15442 -1.07289 0
M  V30 1357 C 128.366 1.85557 -0.790669 0
M  V30 1358 C 128.679 1.83186 0.685739 0
M  V30 1359 O 129.885 2.48977 1.0827 0
M  V30 1360 C 128.341 3.33038 -1.36433 0
M  V30 1361 C 127.949 3.43856 -2.8717 0
M  V30 1362 C 129.693 4.0834 -1.1601 0
M  V30 1363 C 127.6 4.85482 -3.3773 0
M  V30 1364 H 126.53 0.695122 -0.292098 0
M  V30 1365 H 129.181 1.30219 -1.29287 0
M  V30 1366 H 127.563 3.88043 -0.789864 0
M  V30 1367 H 128.737 2.98961 -3.50655 0
M  V30 1368 H 127.052 2.81998 -3.06376 0
M  V30 1369 H 129.649 5.12859 -1.51262 0
M  V30 1370 H 129.992 4.16182 -0.0991007 0
M  V30 1371 H 130.525 3.59603 -1.70089 0
M  V30 1372 H 127.264 4.82823 -4.43353 0
M  V30 1373 H 126.784 5.30961 -2.78999 0
M  V30 1374 H 128.463 5.54335 -3.33648 0
M  V30 1375 N 128.595 0.856903 1.32268 0
M  V30 1376 C 130.006 0.515711 1.79436 0
M  V30 1377 C 130.357 -0.966586 1.70738 0
M  V30 1378 O 129.482 -1.75409 1.26731 0
M  V30 1379 C 130.077 0.929335 3.25805 0
M  V30 1380 C 128.636 0.640006 3.70919 0
M  V30 1381 C 127.783 1.12784 2.53328 0
M  V30 1382 H 130.734 1.04389 1.19535 0
M  V30 1383 H 130.755 0.246633 3.797 0
M  V30 1384 H 130.267 2.00821 3.32103 0
M  V30 1385 H 128.368 -0.428051 3.70133 0
M  V30 1386 H 128.481 1.20788 4.63624 0
M  V30 1387 H 126.845 0.548033 2.48734 0
M  V30 1388 H 127.628 2.21387 2.62379 0
M  V30 1389 N 130.073 -1.45103 0.615059 0
M  V30 1390 C 131.036 -2.29025 -0.0895485 0
M  V30 1391 C 132.036 -1.40174 -0.787906 0
M  V30 1392 O 133.226 -1.62217 -0.634933 0
M  V30 1393 C 130.358 -3.21376 -1.13711 0
M  V30 1394 H 131.551 -2.92807 0.648382 0
M  V30 1395 H 129.104 -1.51749 0.374444 0
M  V30 1396 H 129.839 -2.6241 -1.90556 0
M  V30 1397 H 129.624 -3.86834 -0.640475 0
M  V30 1398 H 131.114 -3.84459 -1.63036 0
M  V30 1399 N 131.551 -0.354651 -1.53558 0
M  V30 1400 C 132.967 -0.00315426 -1.596 0
M  V30 1401 C 133.167 1.47741 -1.37021 0
M  V30 1402 O 132.223 2.23759 -1.16996 0
M  V30 1403 C 133.536 -0.44929 -2.97325 0
M  V30 1404 C 135.084 -0.402578 -3.104 0
M  V30 1405 C 135.559 -0.824355 -4.5052 0
M  V30 1406 N 137.05 -0.778979 -4.56603 0
M  V30 1407 C 137.785 -1.07715 -5.63192 0
M  V30 1408 N 137.281 -1.44405 -6.77583 0
M  V30 1409 N 139.074 -1.00066 -5.53121 0
M  V30 1410 H 131.225 -1.31893 -1.66487 0
M  V30 1411 H 133.488 -0.538388 -0.780284 0
M  V30 1412 H 133.194 -1.48202 -3.1895 0
M  V30 1413 H 133.068 0.169772 -3.76818 0
M  V30 1414 H 135.455 0.621004 -2.88492 0
M  V30 1415 H 135.536 -1.05699 -2.32941 0
M  V30 1416 H 135.18 -1.846 -4.73165 0
M  V30 1417 H 135.11 -0.147304 -5.26394 0
M  V30 1418 H 137.601 -0.508528 -3.74463 0
M  V30 1419 H 137.914 -1.65612 -7.54846 0
M  V30 1420 H 136.259 -1.4826 -6.79002 0
M  V30 1421 H 139.45 -0.713293 -4.62633 0
M  V30 1422 H 139.623 -1.23638 -6.36096 0
M  V30 1423 N 133.029 1.57378 -0.0835403 0
M  V30 1424 C 134.277 1.93547 0.581718 0
M  V30 1425 C 134.598 0.96524 1.69435 0
M  V30 1426 O 133.868 0.0153369 1.95894 0
M  V30 1427 H 132.448 0.714521 0.217874 0
M  V30 1428 H 135.11 1.94366 -0.144158 0
M  V30 1429 H 134.206 2.95665 0.999423 0
M  V30 1430 N 134.507 -0.190092 1.56449 0
M  V30 1431 C 135.47 -1.21925 1.9408 0
M  V30 1432 C 136.47 -1.38176 0.822431 0
M  V30 1433 O 137.66 -1.35903 1.08977 0
M  V30 1434 C 134.792 -2.58773 2.21922 0
M  V30 1435 H 135.985 -0.897464 2.86157 0
M  V30 1436 H 133.538 -0.43181 1.50217 0
M  V30 1437 H 134.273 -2.95998 1.32499 0
M  V30 1438 H 134.058 -2.48348 3.03424 0
M  V30 1439 H 135.548 -3.32978 2.52022 0
M  V30 1440 N 135.985 -1.50799 -0.457987 0
M  V30 1441 C 137.231 -1.62683 -1.21088 0
M  V30 1442 C 137.564 -0.332268 -1.91336 0
M  V30 1443 O 136.839 0.667043 -1.82704 0
M  V30 1444 C 137.122 -2.81615 -2.24422 0
M  V30 1445 C 136.975 -4.20989 -1.58392 0
M  V30 1446 C 138.294 -2.96085 -3.2561 0
M  V30 1447 H 135.413 -0.592087 -0.438864 0
M  V30 1448 H 138.055 -1.83225 -0.50286 0
M  V30 1449 H 136.205 -2.64231 -2.84806 0
M  V30 1450 H 137.877 -4.49994 -1.01504 0
M  V30 1451 H 136.12 -4.24641 -0.886704 0
M  V30 1452 H 136.791 -5.0016 -2.33547 0
M  V30 1453 H 139.267 -3.12042 -2.75262 0
M  V30 1454 H 138.143 -3.80902 -3.95228 0
M  V30 1455 H 138.404 -2.0726 -3.90507 0
M  V30 1456 N 137.463 0.71206 -1.40597 0
M  V30 1457 C 138.711 1.46907 -1.38791 0
M  V30 1458 C 139.032 1.94998 0.00780391 0
M  V30 1459 O 138.302 1.70587 0.963174 0
M  V30 1460 H 136.882 0.545043 -0.51082 0
M  V30 1461 H 139.544 0.843882 -1.75683 0
M  V30 1462 H 138.64 2.34021 -2.06496 0
M  V30 1463 N 138.941 1.26152 0.944643 0
M  V30 1464 C 140.188 1.11492 1.69044 0
M  V30 1465 C 140.516 -0.342366 1.91463 0
M  V30 1466 O 139.771 -1.26812 1.49054 0
M  V30 1467 C 140.07 1.82541 3.07268 0
M  V30 1468 C 139.736 3.32445 3.04616 0
M  V30 1469 C 138.398 3.73337 3.036 0
M  V30 1470 C 140.75 4.28171 2.97185 0
M  V30 1471 C 138.078 5.08348 2.92915 0
M  V30 1472 C 140.43 5.63218 2.88041 0
M  V30 1473 C 139.094 6.03426 2.85366 0
M  V30 1474 H 138.364 0.407977 0.618576 0
M  V30 1475 H 141.011 1.56551 1.10291 0
M  V30 1476 H 139.316 1.29941 3.69625 0
M  V30 1477 H 141.013 1.68642 3.63815 0
M  V30 1478 H 137.603 2.99915 3.06185 0
M  V30 1479 H 141.787 3.97563 2.97081 0
M  V30 1480 H 137.043 5.38667 2.89219 0
M  V30 1481 H 141.217 6.37078 2.81254 0
M  V30 1482 H 138.844 7.07999 2.76842 0
M  V30 1483 N 140.419 -1.14872 1.07899 0
M  V30 1484 C 141.349 -2.2193 0.725887 0
M  V30 1485 C 142.33 -1.67622 -0.28927 0
M  V30 1486 O 143.515 -1.93533 -0.160787 0
M  V30 1487 C 140.645 -3.47061 0.128856 0
M  V30 1488 C 139.599 -4.14363 1.07178 0
M  V30 1489 C 138.925 -5.33636 0.337229 0
M  V30 1490 C 140.225 -4.63492 2.40775 0
M  V30 1491 H 141.919 -2.51724 1.62097 0
M  V30 1492 H 139.465 -1.20991 0.780838 0
M  V30 1493 H 141.418 -4.21199 -0.130147 0
M  V30 1494 H 140.142 -3.16617 -0.80134 0
M  V30 1495 H 138.801 -3.42173 1.3158 0
M  V30 1496 H 138.449 -4.99449 -0.596606 0
M  V30 1497 H 138.149 -5.79609 0.965788 0
M  V30 1498 H 139.673 -6.10539 0.0861567 0
M  V30 1499 H 141.087 -5.2913 2.20669 0
M  V30 1500 H 139.484 -5.20148 2.99276 0
M  V30 1501 H 140.554 -3.78834 3.02676 0
M  V30 1502 N 141.898 -0.863906 -1.31812 0
M  V30 1503 C 143.175 -0.39275 -1.91616 0
M  V30 1504 C 143.555 1.12461 -1.7865 0
M  V30 1505 O 142.903 1.95045 -1.19037 0
M  V30 1506 C 143.113 -0.867385 -3.38049 0
M  V30 1507 C 144.461 -0.889966 -4.15168 0
M  V30 1508 O 145.485 -0.812635 -3.46806 0
M  V30 1509 O 144.344 -1.00079 -5.37258 0
M  V30 1510 H 141.438 -0.116358 -0.818773 0
M  V30 1511 H 143.984 -0.951418 -1.40521 0
M  V30 1512 H 142.756 -1.91081 -3.41473 0
M  V30 1513 H 142.379 -0.286687 -3.96565 0
M  V30 1514 N 143.376 1.44774 -0.622745 0
M  V30 1515 C 144.787 1.85546 -0.207226 0
M  V30 1516 C 145.138 1.52093 1.23944 0
M  V30 1517 O 144.263 0.95492 1.94191 0
M  V30 1518 C 144.858 3.36781 -0.369313 0
M  V30 1519 C 143.417 3.76399 -0.00836847 0
M  V30 1520 C 142.564 2.68664 -0.686651 0
M  V30 1521 H 145.515 1.3536 -0.828454 0
M  V30 1522 H 145.536 3.78453 0.394162 0
M  V30 1523 H 145.048 3.61098 -1.42231 0
M  V30 1524 H 143.149 3.57698 1.04322 0
M  V30 1525 H 143.262 4.7732 -0.412584 0
M  V30 1526 H 141.626 2.54404 -0.122777 0
M  V30 1527 H 142.409 2.95815 -1.74208 0
M  V30 1528 N 144.854 0.36279 1.53368 0
M  V30 1529 C 146.265 -0.117022 1.86333 0
M  V30 1530 C 146.616 -1.48397 1.28347 0
M  V30 1531 O 145.741 -2.07787 0.604428 0
M  V30 1532 C 146.336 -0.21912 3.38091 0
M  V30 1533 C 144.895 -0.643184 3.70864 0
M  V30 1534 C 144.042 0.211318 2.76494 0
M  V30 1535 H 146.993 0.581687 1.47655 0
M  V30 1536 H 147.014 -1.04319 3.6592 0
M  V30 1537 H 146.526 0.775902 3.80265 0
M  V30 1538 H 144.627 -1.64654 3.34245 0
M  V30 1539 H 144.74 -0.41973 4.77258 0
M  V30 1540 H 143.104 -0.319367 2.5269 0
M  V30 1541 H 143.887 1.20383 3.21501 0
M  V30 1542 N 146.332 -1.57332 0.0918853 0
M  V30 1543 C 147.609 -1.85691 -0.614668 0
M  V30 1544 C 147.989 -0.988146 -1.86545 0
M  V30 1545 O 147.337 -0.0597055 -2.28422 0
M  V30 1546 C 147.547 -3.36294 -0.933126 0
M  V30 1547 C 148.895 -4.04275 -1.29796 0
M  V30 1548 O 149.919 -3.41157 -1.02424 0
M  V30 1549 O 148.778 -5.1564 -1.81047 0
M  V30 1550 H 145.872 -0.767802 -0.307261 0
M  V30 1551 H 148.418 -1.69244 0.12434 0
M  V30 1552 H 147.19 -3.91273 -0.0456404 0
M  V30 1553 H 146.813 -3.58076 -1.72822 0
M  V30 1554 N 147.81 0.181792 -1.56548 0
M  V30 1555 C 148.76 1.22961 -1.92002 0
M  V30 1556 C 149.744 1.40331 -0.787146 0
M  V30 1557 O 150.936 1.42478 -1.05019 0
M  V30 1558 C 148.065 2.57144 -2.27446 0
M  V30 1559 C 147.151 2.43512 -3.47222 0
M  V30 1560 N 147.542 1.99577 -4.64761 0
M  V30 1561 C 145.84 2.74368 -3.51622 0
M  V30 1562 C 146.541 1.98156 -5.46909 0
M  V30 1563 N 145.517 2.40164 -4.8767 0
M  V30 1564 H 149.319 0.881462 -2.8037 0
M  V30 1565 H 146.833 0.390141 -1.57644 0
M  V30 1566 H 148.83 3.32847 -2.51035 0
M  V30 1567 H 147.49 2.92771 -1.40411 0
M  V30 1568 H 148.501 1.70078 -4.89177 0
M  V30 1569 H 145.178 3.14102 -2.75038 0
M  V30 1570 H 146.568 1.65975 -6.51077 0
M  V30 1571 N 149.288 1.51039 0.449983 0
M  V30 1572 C 150.516 1.66869 1.2232 0
M  V30 1573 C 150.931 0.360727 1.85322 0
M  V30 1574 O 150.288 -0.659531 1.70166 0
M  V30 1575 C 150.339 2.77524 2.31652 0
M  V30 1576 O 150.06 4.03252 1.7123 0
M  V30 1577 C 151.561 3.04512 3.2216 0
M  V30 1578 H 148.781 0.560326 0.369155 0
M  V30 1579 H 151.325 1.97385 0.534719 0
M  V30 1580 H 149.48 2.49642 2.96239 0
M  V30 1581 H 149.894 4.64609 2.43389 0
M  V30 1582 H 151.368 3.85551 3.95038 0
M  V30 1583 H 151.845 2.16415 3.8218 0
M  V30 1584 H 152.451 3.34005 2.63288 0
M  V30 1585 N 150.766 -0.704594 1.40972 0
M  V30 1586 C 152.182 -1.01406 1.23244 0
M  V30 1587 C 152.382 -2.01169 0.115399 0
M  V30 1588 O 151.438 -2.47021 -0.523147 0
M  V30 1589 C 152.751 -1.54728 2.57836 0
M  V30 1590 C 154.299 -1.66658 2.64942 0
M  V30 1591 C 154.774 -2.23383 3.9983 0
M  V30 1592 N 156.265 -2.30756 4.01629 0
M  V30 1593 C 157 -2.75655 5.02794 0
M  V30 1594 N 156.496 -3.20225 6.14352 0
M  V30 1595 N 158.289 -2.75138 4.90159 0
M  V30 1596 H 150.44 -0.0435285 2.12355 0
M  V30 1597 H 152.703 -0.0818951 0.944456 0
M  V30 1598 H 152.409 -0.888832 3.40283 0
M  V30 1599 H 152.283 -2.53084 2.79693 0
M  V30 1600 H 154.67 -2.31617 1.8286 0
M  V30 1601 H 154.751 -0.668717 2.46904 0
M  V30 1602 H 154.395 -1.59043 4.82357 0
M  V30 1603 H 154.325 -3.23904 4.15203 0
M  V30 1604 H 156.816 -1.99291 3.21079 0
M  V30 1605 H 157.129 -3.53084 6.87424 0
M  V30 1606 H 155.474 -3.18156 6.17901 0
M  V30 1607 H 158.665 -2.39661 4.02095 0
M  V30 1608 H 158.838 -3.09812 5.6914 0
M  V30 1609 N 152.244 -1.26651 -0.937939 0
M  V30 1610 C 153.174 -1.10993 -2.05433 0
M  V30 1611 C 154.155 -0.0142161 -1.70094 0
M  V30 1612 O 155.34 -0.186837 -1.93299 0
M  V30 1613 C 152.47 -0.745561 -3.39203 0
M  V30 1614 C 151.424 -1.79337 -3.88616 0
M  V30 1615 C 150.75 -1.28324 -5.19073 0
M  V30 1616 C 152.05 -3.19553 -4.13138 0
M  V30 1617 H 153.744 -2.0438 -2.1879 0
M  V30 1618 H 151.29 -0.984041 -1.05131 0
M  V30 1619 H 153.243 -0.622888 -4.16771 0
M  V30 1620 H 151.967 0.22401 -3.25831 0
M  V30 1621 H 150.626 -1.90477 -3.13231 0
M  V30 1622 H 150.274 -0.303414 -5.02084 0
M  V30 1623 H 149.974 -1.98369 -5.53103 0
M  V30 1624 H 151.498 -1.1733 -5.99221 0
M  V30 1625 H 152.912 -3.11471 -4.81309 0
M  V30 1626 H 151.309 -3.87218 -4.58457 0
M  V30 1627 H 152.379 -3.65368 -3.18801 0
M  V30 1628 N 153.722 1.14298 -1.08507 0
M  V30 1629 C 155.138 1.37347 -0.812901 0
M  V30 1630 C 155.338 1.93052 0.577325 0
M  V30 1631 O 154.394 2.14389 1.33393 0
M  V30 1632 C 155.707 2.33359 -1.89642 0
M  V30 1633 C 157.255 2.46996 -1.92255 0
M  V30 1634 C 157.73 3.46309 -2.99724 0
M  V30 1635 N 159.221 3.53853 -2.98902 0
M  V30 1636 C 159.956 4.3055 -3.787 0
M  V30 1637 N 159.452 5.10482 -4.6838 0
M  V30 1638 N 161.245 4.25757 -3.66998 0
M  V30 1639 H 153.396 0.764867 -1.9815 0
M  V30 1640 H 155.659 0.398966 -0.859959 0
M  V30 1641 H 155.365 1.99565 -2.89597 0
M  V30 1642 H 155.239 3.33274 -1.76659 0
M  V30 1643 H 157.626 2.80081 -0.929445 0
M  V30 1644 H 157.707 1.47039 -2.09316 0
M  V30 1645 H 157.351 3.13957 -3.99241 0
M  V30 1646 H 157.281 4.46049 -2.79907 0
M  V30 1647 H 159.772 2.96812 -2.33904 0
M  V30 1648 H 160.085 5.66284 -5.25873 0
M  V30 1649 H 158.43 5.09747 -4.72422 0
M  V30 1650 H 161.621 3.62383 -2.96304 0
M  V30 1651 H 161.794 4.85279 -4.29427 0
M  V30 1652 N 155.201 0.870884 1.31352 0
M  V30 1653 C 156.617 0.562932 1.49343 0
M  V30 1654 C 156.817 -0.902725 1.80148 0
M  V30 1655 O 155.873 -1.68484 1.88067 0
M  V30 1656 C 157.186 1.46393 2.62659 0
M  V30 1657 C 158.734 1.46607 2.76542 0
M  V30 1658 C 159.209 2.35266 3.92955 0
M  V30 1659 N 160.7 2.33151 4.00243 0
M  V30 1660 C 161.435 2.98471 4.89594 0
M  V30 1661 N 160.931 3.72964 5.8384 0
M  V30 1662 N 162.724 2.87775 4.82848 0
M  V30 1663 H 154.875 1.81923 1.09626 0
M  V30 1664 H 157.138 0.777934 0.541777 0
M  V30 1665 H 156.844 2.50689 2.46674 0
M  V30 1666 H 156.718 1.16314 3.58819 0
M  V30 1667 H 159.105 0.43069 2.9194 0
M  V30 1668 H 159.186 1.8071 1.81046 0
M  V30 1669 H 158.83 3.38881 3.78315 0
M  V30 1670 H 158.76 1.98487 4.87761 0
M  V30 1671 H 161.251 1.79006 3.32814 0
M  V30 1672 H 161.564 4.19932 6.4875 0
M  V30 1673 H 159.909 3.77073 5.83816 0
M  V30 1674 H 163.1 2.29116 4.08195 0
M  V30 1675 H 163.273 3.38961 5.52277 0
M  V30 1676 N 156.679 -1.44442 0.630414 0
M  V30 1677 C 157.904 -2.06927 0.139944 0
M  V30 1678 C 158.329 -1.46795 -1.17613 0
M  V30 1679 O 157.687 -0.569144 -1.72135 0
M  V30 1680 C 157.735 -3.6058 0.0379581 0
M  V30 1681 O 156.839 -3.99937 -1.0062 0
M  V30 1682 H 156.18 -0.658608 0.0844483 0
M  V30 1683 H 158.71 -1.85327 0.866891 0
M  V30 1684 H 158.72 -4.07714 -0.152856 0
M  V30 1685 H 157.395 -4.03728 0.998809 0
M  V30 1686 H 155.972 -3.64436 -0.79001 0
M  V30 1687 N 158.157 -0.370918 -1.53173 0
M  V30 1688 C 159.403 0.217423 -2.01631 0
M  V30 1689 C 159.736 1.47983 -1.25756 0
M  V30 1690 O 159.011 1.91274 -0.352764 0
M  V30 1691 C 159.294 0.503982 -3.56556 0
M  V30 1692 C 159.147 -0.77243 -4.43118 0
M  V30 1693 C 160.466 1.30234 -4.20389 0
M  V30 1694 H 157.585 0.0775486 -0.732909 0
M  V30 1695 H 160.227 -0.496863 -1.83388 0
M  V30 1696 H 158.377 1.11248 -3.72231 0
M  V30 1697 H 160.049 -1.4098 -4.39229 0
M  V30 1698 H 158.292 -1.39167 -4.10871 0
M  V30 1699 H 158.963 -0.526815 -5.4948 0
M  V30 1700 H 161.439 0.787546 -4.08579 0
M  V30 1701 H 160.315 1.47158 -5.28806 0
M  V30 1702 H 160.576 2.31237 -3.76805 0
M  V30 1703 N 159.635 1.57281 -0.100228 0
M  V30 1704 C 160.598 2.13158 0.842398 0
M  V30 1705 C 161.598 1.06202 1.20738 0
M  V30 1706 O 162.788 1.32066 1.13597 0
M  V30 1707 C 159.92 2.65639 2.13655 0
M  V30 1708 H 161.113 2.97766 0.357114 0
M  V30 1709 H 158.666 1.5559 0.148823 0
M  V30 1710 H 159.401 1.84566 2.66657 0
M  V30 1711 H 159.186 3.43844 1.88451 0
M  V30 1712 H 160.676 3.08846 2.81077 0
M  V30 1713 N 161.113 -0.173488 1.56642 0
M  V30 1714 C 162.076 -1.19859 1.95362 0
M  V30 1715 C 163.076 -1.37296 0.83704 0
M  V30 1716 O 164.266 -1.34739 1.10413 0
M  V30 1717 C 161.398 -2.56405 2.24654 0
M  V30 1718 H 162.591 -0.867062 2.87092 0
M  V30 1719 H 160.144 -0.415853 1.50666 0
M  V30 1720 H 160.879 -2.94576 1.35631 0
M  V30 1721 H 160.664 -2.45115 3.06041 0
M  V30 1722 H 162.154 -3.30287 2.5554 0
M  V30 1723 N 162.591 -1.51276 -0.441967 0
M  V30 1724 C 163.554 -1.7167 -1.51862 0
M  V30 1725 C 164.554 -0.586793 -1.49711 0
M  V30 1726 O 165.744 -0.854276 -1.51815 0
M  V30 1727 C 162.876 -1.76889 -2.91416 0
M  V30 1728 H 164.069 -2.67754 -1.35084 0
M  V30 1729 H 161.622 -1.41196 -0.670333 0
M  V30 1730 H 162.357 -0.826026 -3.13604 0
M  V30 1731 H 162.142 -2.59001 -2.94382 0
M  V30 1732 H 163.632 -1.94522 -3.69528 0
M  V30 1733 N 164.069 0.697108 -1.41344 0
M  V30 1734 C 165.316 1.45714 -1.40619 0
M  V30 1735 C 165.644 1.94494 -0.0147907 0
M  V30 1736 O 164.899 1.69794 0.973066 0
M  V30 1737 C 165.198 2.68553 -2.35826 0
M  V30 1738 C 164.864 2.38438 -3.82698 0
M  V30 1739 C 163.526 2.29936 -4.22709 0
M  V30 1740 C 165.878 2.13567 -4.75435 0
M  V30 1741 C 163.206 1.94656 -5.53467 0
M  V30 1742 C 165.558 1.79797 -6.06511 0
M  V30 1743 C 164.222 1.69789 -6.45545 0
M  V30 1744 H 163.492 0.533206 -0.51456 0
M  V30 1745 H 166.139 0.796901 -1.74131 0
M  V30 1746 H 164.444 3.39503 -1.95563 0
M  V30 1747 H 166.141 3.2669 -2.32539 0
M  V30 1748 H 162.731 2.4595 -3.51008 0
M  V30 1749 H 166.915 2.19082 -4.45328 0
M  V30 1750 H 162.171 1.8546 -5.82593 0
M  V30 1751 H 166.345 1.59572 -6.77872 0
M  V30 1752 H 163.972 1.4222 -7.46778 0
M  V30 1753 N 165.547 1.27147 0.931209 0
M  V30 1754 C 166.775 1.16082 1.71267 0
M  V30 1755 C 167.19 -0.282772 1.8667 0
M  V30 1756 O 166.547 -1.19283 1.38122 0
M  V30 1757 C 166.598 1.8358 3.11417 0
M  V30 1758 O 166.319 3.22299 2.96741 0
M  V30 1759 C 167.82 1.78597 4.05732 0
M  V30 1760 H 165.04 0.403758 0.535929 0
M  V30 1761 H 167.584 1.67953 1.16671 0
M  V30 1762 H 165.739 1.35623 3.62885 0
M  V30 1763 H 166.153 3.55851 3.85319 0
M  V30 1764 H 167.627 2.30444 5.01597 0
M  V30 1765 H 168.104 0.754564 4.3267 0
M  V30 1766 H 168.71 2.26152 3.60188 0
M  V30 1767 N 167.025 -1.13721 1.09112 0
M  V30 1768 C 167.988 -2.17222 0.731241 0
M  V30 1769 C 168.988 -1.59035 -0.237566 0
M  V30 1770 O 170.178 -1.74192 -0.0161704 0
M  V30 1771 C 167.31 -3.40804 0.0808443 0
M  V30 1772 H 168.503 -2.50573 1.64783 0
M  V30 1773 H 166.056 -1.28493 0.889897 0
M  V30 1774 H 166.791 -3.1304 -0.847127 0
M  V30 1775 H 166.576 -3.84306 0.777896 0
M  V30 1776 H 168.066 -4.1731 -0.155657 0
M  V30 1777 N 168.503 -0.877838 -1.30888 0
M  V30 1778 C 169.919 -0.570844 -1.49042 0
M  V30 1779 C 170.119 0.893159 -1.80624 0
M  V30 1780 O 169.175 1.67485 -1.88958 0
M  V30 1781 C 170.488 -1.47784 -2.61878 0
M  V30 1782 C 172.036 -1.48071 -2.75761 0
M  V30 1783 C 172.511 -2.37347 -3.91702 0
M  V30 1784 N 174.002 -2.35271 -3.99001 0
M  V30 1785 C 174.737 -3.01063 -4.88004 0
M  V30 1786 N 174.233 -3.76055 -5.81854 0
M  V30 1787 N 176.026 -2.90332 -4.81315 0
M  V30 1788 H 168.177 -1.82502 -1.0866 0
M  V30 1789 H 170.44 -0.780797 -0.537644 0
M  V30 1790 H 170.146 -2.51993 -2.45341 0
M  V30 1791 H 170.02 -1.18215 -3.58197 0
M  V30 1792 H 172.407 -0.446166 -2.91708 0
M  V30 1793 H 172.488 -1.81668 -1.80085 0
M  V30 1794 H 172.132 -3.40883 -3.76512 0
M  V30 1795 H 172.062 -2.01071 -4.86701 0
M  V30 1796 H 174.553 -1.80768 -3.3186 0
M  V30 1797 H 174.866 -4.23366 -6.46514 0
M  V30 1798 H 173.211 -3.80163 -5.81808 0
M  V30 1799 H 176.402 -2.31278 -4.06974 0
M  V30 1800 H 176.575 -3.41885 -5.50471 0
M  V30 1801 N 169.982 1.44106 -0.638065 0
M  V30 1802 C 171.23 2.01579 -0.145043 0
M  V30 1803 C 171.551 1.50496 1.24 0
M  V30 1804 O 170.821 0.711374 1.82527 0
M  V30 1805 H 169.401 0.745282 -0.05063 0
M  V30 1806 H 172.063 1.76516 -0.826327 0
M  V30 1807 H 171.159 3.11877 -0.118039 0
M  V30 1808 N 171.46 0.379036 1.52974 0
M  V30 1809 C 172.706 -0.206727 2.01744 0
M  V30 1810 C 173.039 -1.47314 1.26539 0
M  V30 1811 O 172.314 -1.91084 0.362903 0
M  V30 1812 C 172.597 -0.485066 3.56818 0
M  V30 1813 C 172.45 0.795919 4.42702 0
M  V30 1814 C 173.769 -1.28003 4.21074 0
M  V30 1815 H 170.888 -0.0736607 0.73331 0
M  V30 1816 H 173.53 0.506581 1.83122 0
M  V30 1817 H 171.68 -1.09272 3.72816 0
M  V30 1818 H 173.352 1.43307 4.38476 0
M  V30 1819 H 171.595 1.41344 4.10127 0
M  V30 1820 H 172.266 0.555947 5.49193 0
M  V30 1821 H 174.742 -0.765867 4.08991 0
M  V30 1822 H 173.618 -1.44352 5.29579 0
M  V30 1823 H 173.879 -2.29236 3.78026 0
M  V30 1824 N 172.938 -1.57226 0.108567 0
M  V30 1825 C 173.848 -2.18292 -0.859401 0
M  V30 1826 C 174.864 -1.15612 -1.30038 0
M  V30 1827 O 176.04 -1.48039 -1.36552 0
M  V30 1828 C 173.105 -2.762 -2.09558 0
M  V30 1829 C 172.166 -3.93881 -1.70752 0
M  V30 1830 C 171.399 -4.49018 -2.88477 0
M  V30 1831 O 171.622 -4.03068 -4.036 0
M  V30 1832 O 170.556 -5.39852 -2.66164 0
M  V30 1833 H 174.382 -3.01441 -0.369769 0
M  V30 1834 H 171.967 -1.48945 -0.1165 0
M  V30 1835 H 173.849 -3.13156 -2.81978 0
M  V30 1836 H 172.524 -1.96089 -2.57548 0
M  V30 1837 H 171.431 -3.61713 -0.954714 0
M  V30 1838 H 172.764 -4.75396 -1.27513 0
M  V30 1839 N 174.416 0.165178 -1.56732 0
M  V30 1840 C 175.832 0.517174 -1.50988 0
M  V30 1841 C 176.032 1.84331 -0.813894 0
M  V30 1842 O 175.088 2.49672 -0.37682 0
M  V30 1843 C 176.401 0.544261 -2.95733 0
M  V30 1844 C 177.949 0.631039 -3.06573 0
M  V30 1845 C 178.424 0.68896 -4.52788 0
M  V30 1846 N 179.915 0.751683 -4.5706 0
M  V30 1847 C 180.65 0.817177 -5.67547 0
M  V30 1848 N 180.146 0.843129 -6.8765 0
M  V30 1849 N 181.939 0.856668 -5.55534 0
M  V30 1850 H 174.09 -0.704318 -2.00382 0
M  V30 1851 H 176.353 -0.254687 -0.913148 0
M  V30 1852 H 176.059 -0.361607 -3.49836 0
M  V30 1853 H 175.933 1.3886 -3.5071 0
M  V30 1854 H 178.32 1.52733 -2.52501 0
M  V30 1855 H 178.401 -0.240095 -2.54671 0
M  V30 1856 H 178.045 -0.2031 -5.07494 0
M  V30 1857 H 177.975 1.57633 -5.02454 0
M  V30 1858 H 180.466 0.739661 -3.70591 0
M  V30 1859 H 180.779 0.894448 -7.67606 0
M  V30 1860 H 179.124 0.811304 -6.90248 0
M  V30 1861 H 182.315 0.833437 -4.60621 0
M  V30 1862 H 182.488 0.904247 -6.4166 0
M  V30 1863 N 175.894 1.51508 0.433938 0
M  V30 1864 C 177.14 1.64588 1.18484 0
M  V30 1865 C 177.473 0.362666 1.90784 0
M  V30 1866 O 176.748 -0.637892 1.83742 0
M  V30 1867 C 177.031 2.85149 2.19913 0
M  V30 1868 C 176.884 4.23456 1.51674 0
M  V30 1869 C 178.203 3.01227 3.20858 0
M  V30 1870 H 175.322 0.598994 0.429389 0
M  V30 1871 H 177.964 1.84002 0.473647 0
M  V30 1872 H 176.114 2.68729 2.80566 0
M  V30 1873 H 177.786 4.51552 0.943322 0
M  V30 1874 H 176.029 4.25998 0.819035 0
M  V30 1875 H 176.7 5.03812 2.2556 0
M  V30 1876 H 179.176 3.16382 2.70263 0
M  V30 1877 H 178.052 3.87141 3.89118 0
M  V30 1878 H 178.313 2.13447 3.8716 0
M  V30 1879 N 177.372 -0.689602 1.41712 0
M  V30 1880 C 178.788 -1.00093 1.24312 0
M  V30 1881 C 178.988 -2.01036 0.136729 0
M  V30 1882 O 178.044 -2.47562 -0.496918 0
M  V30 1883 C 179.357 -1.51985 2.59463 0
M  V30 1884 C 180.905 -1.63838 2.66695 0
M  V30 1885 C 181.38 -2.1913 4.02177 0
M  V30 1886 N 182.871 -2.26483 4.04054 0
M  V30 1887 C 183.606 -2.70306 5.0569 0
M  V30 1888 N 183.102 -3.13691 6.17713 0
M  V30 1889 N 184.895 -2.69923 4.9305 0
M  V30 1890 H 177.046 -0.0210029 2.1239 0
M  V30 1891 H 179.309 -0.0718733 0.945272 0
M  V30 1892 H 179.015 -0.85269 3.41207 0
M  V30 1893 H 178.889 -2.50103 2.82362 0
M  V30 1894 H 181.276 -2.29664 1.85306 0
M  V30 1895 H 181.357 -0.642492 2.476 0
M  V30 1896 H 181.001 -1.53918 4.84016 0
M  V30 1897 H 180.931 -3.19482 4.18615 0
M  V30 1898 H 183.422 -1.95874 3.23174 0
M  V30 1899 H 183.735 -3.45773 6.9113 0
M  V30 1900 H 182.08 -3.11585 6.21241 0
M  V30 1901 H 185.271 -2.35382 4.04614 0
M  V30 1902 H 185.444 -3.03758 5.72394 0
M  V30 1903 N 178.85 -1.27639 -0.924453 0
M  V30 1904 C 179.76 -1.12466 -2.05885 0
M  V30 1905 C 180.776 -0.053869 -1.73917 0
M  V30 1906 O 181.952 -0.261012 -1.99702 0
M  V30 1907 C 179.017 -0.776768 -3.37886 0
M  V30 1908 C 178.078 -1.92878 -3.83532 0
M  V30 1909 C 177.311 -1.59739 -5.09234 0
M  V30 1910 O 177.534 -0.506782 -5.68144 0
M  V30 1911 O 176.468 -2.43761 -5.50331 0
M  V30 1912 H 180.294 -2.07671 -2.21599 0
M  V30 1913 H 177.879 -1.06857 -1.04413 0
M  V30 1914 H 179.761 -0.596229 -4.17161 0
M  V30 1915 H 178.436 0.145732 -3.23372 0
M  V30 1916 H 177.343 -2.1644 -3.0513 0
M  V30 1917 H 178.676 -2.8316 -4.02593 0
M  V30 1918 N 180.328 1.1314 -1.09713 0
M  V30 1919 C 181.744 1.36477 -0.827423 0
M  V30 1920 C 181.944 1.93654 0.556817 0
M  V30 1921 O 181 2.15791 1.31112 0
M  V30 1922 C 182.313 2.31334 -1.92106 0
M  V30 1923 C 183.861 2.44943 -1.94864 0
M  V30 1924 C 184.336 3.4311 -3.0338 0
M  V30 1925 N 185.827 3.50662 -3.02639 0
M  V30 1926 C 186.562 4.2651 -3.83246 0
M  V30 1927 N 186.058 5.05485 -4.73768 0
M  V30 1928 N 187.851 4.2184 -3.71493 0
M  V30 1929 H 180.002 0.743807 -1.9895 0
M  V30 1930 H 182.265 0.389823 -0.864143 0
M  V30 1931 H 181.971 1.96483 -2.91698 0
M  V30 1932 H 181.845 3.31381 -1.80184 0
M  V30 1933 H 184.232 2.79079 -0.959099 0
M  V30 1934 H 184.313 1.4481 -2.10864 0
M  V30 1935 H 183.957 3.09704 -4.02549 0
M  V30 1936 H 183.887 4.43055 -2.84622 0
M  V30 1937 H 186.378 2.94315 -2.37039 0
M  V30 1938 H 186.691 5.60675 -5.3185 0
M  V30 1939 H 185.036 5.04708 -4.77802 0
M  V30 1940 H 188.227 3.5922 -3.00131 0
M  V30 1941 H 188.4 4.80697 -4.3455 0
M  V30 1942 N 181.806 0.884767 1.30421 0
M  V30 1943 C 183.031 0.517288 2.00845 0
M  V30 1944 C 183.456 -0.886779 1.65885 0
M  V30 1945 O 182.814 -1.58768 0.875354 0
M  V30 1946 C 182.862 0.698994 3.5376 0
M  V30 1947 O 181.966 -0.255208 4.1161 0
M  V30 1948 H 181.307 0.203872 0.631927 0
M  V30 1949 H 183.837 1.19225 1.66272 0
M  V30 1950 H 183.847 0.597912 4.03595 0
M  V30 1951 H 182.522 1.72271 3.78544 0
M  V30 1952 H 181.099 -0.10784 3.72744 0
M  V30 1953 N 183.284 -1.43765 0.645699 0
M  V30 1954 C 184.7 -1.56509 0.312591 0
M  V30 1955 C 184.9 -1.6307 -1.18365 0
M  V30 1956 O 183.956 -1.58167 -1.96824 0
M  V30 1957 C 185.269 -2.82968 1.01733 0
M  V30 1958 C 186.817 -2.96701 0.996865 0
M  V30 1959 C 187.292 -4.25982 1.68236 0
M  V30 1960 N 188.783 -4.32829 1.64964 0
M  V30 1961 C 189.518 -5.31613 2.14885 0
M  V30 1962 N 189.014 -6.36718 2.73061 0
M  V30 1963 N 190.807 -5.23217 2.05428 0
M  V30 1964 H 182.958 -1.3775 1.61675 0
M  V30 1965 H 185.221 -0.661067 0.679481 0
M  V30 1966 H 184.927 -2.84156 2.0724 0
M  V30 1967 H 184.801 -3.72957 0.564177 0
M  V30 1968 H 187.188 -2.95058 -0.0497719 0
M  V30 1969 H 187.269 -2.08022 1.48865 0
M  V30 1970 H 186.913 -4.28386 2.72852 0
M  V30 1971 H 186.843 -5.13545 1.16529 0
M  V30 1972 H 189.334 -3.57493 1.22503 0
M  V30 1973 H 189.647 -7.08401 3.08848 0
M  V30 1974 H 187.992 -6.37362 2.77118 0
M  V30 1975 H 191.183 -4.40019 1.59689 0
M  V30 1976 H 191.356 -6.00045 2.44643 0
M  V30 1977 N 184.763 -0.387143 -1.52771 0
M  V30 1978 C 186.011 0.195349 -2.01154 0
M  V30 1979 C 186.332 1.475 -1.27549 0
M  V30 1980 O 185.602 1.91878 -0.394924 0
M  V30 1981 H 184.182 0.075178 -0.743207 0
M  V30 1982 H 186.844 -0.518337 -1.87881 0
M  V30 1983 H 185.94 0.407096 -3.09434 0
M  V30 1984 N 186.241 1.57166 -0.116904 0
M  V30 1985 C 187.174 2.10912 0.871291 0
M  V30 1986 C 188.152 1.025 1.26224 0
M  V30 1987 O 189.336 1.3014 1.36366 0
M  V30 1988 C 186.463 2.6041 2.16574 0
M  V30 1989 C 185.509 3.80687 1.92302 0
M  V30 1990 S 186.342 5.23199 1.14119 0
M  V30 1991 C 187.498 5.76064 2.44748 0
M  V30 1992 H 187.731 2.94401 0.414138 0
M  V30 1993 H 185.264 1.54096 0.096829 0
M  V30 1994 H 187.222 2.89583 2.9095 0
M  V30 1995 H 185.883 1.77106 2.59408 0
M  V30 1996 H 185.076 4.13462 2.8821 0
M  V30 1997 H 184.678 3.5212 1.26047 0
M  V30 1998 H 186.97 5.8566 3.406 0
M  V30 1999 H 187.913 6.74184 2.16521 0
M  V30 2000 H 188.321 5.04117 2.54019 0
M  V30 2001 N 187.719 -0.156864 1.56817 0
M  V30 2002 C 188.649 -1.19589 2.00551 0
M  V30 2003 C 189.63 -1.4536 0.883426 0
M  V30 2004 O 190.815 -1.56449 1.15054 0
M  V30 2005 C 187.945 -2.53143 2.37773 0
M  V30 2006 C 186.899 -2.41913 3.53075 0
M  V30 2007 C 186.225 -3.80088 3.76081 0
M  V30 2008 C 187.525 -1.91157 4.86062 0
M  V30 2009 H 189.219 -0.832293 2.87599 0
M  V30 2010 H 186.765 -0.398918 1.38364 0
M  V30 2011 H 188.718 -3.26047 2.66967 0
M  V30 2012 H 187.442 -2.91319 1.4765 0
M  V30 2013 H 186.101 -1.71462 3.24031 0
M  V30 2014 H 185.749 -4.15683 2.83225 0
M  V30 2015 H 185.449 -3.73439 4.53671 0
M  V30 2016 H 186.973 -4.54556 4.0769 0
M  V30 2017 H 188.387 -2.53846 5.14038 0
M  V30 2018 H 186.784 -1.95422 5.67389 0
M  V30 2019 H 187.854 -0.866673 4.77092 0
M  V30 2020 N 189.197 -1.51736 -0.425897 0
M  V30 2021 C 190.474 -1.55519 -1.1863 0
M  V30 2022 C 190.854 -0.326219 -2.08564 0
M  V30 2023 O 190.202 0.688012 -2.17896 0
M  V30 2024 C 190.412 -2.87521 -1.9782 0
M  V30 2025 C 191.76 -3.39899 -2.54468 0
M  V30 2026 O 192.784 -2.89148 -2.08019 0
M  V30 2027 O 191.643 -4.2848 -3.39215 0
M  V30 2028 H 188.737 -0.625739 -0.540721 0
M  V30 2029 H 191.283 -1.64055 -0.434038 0
M  V30 2030 H 190.055 -3.68422 -1.31836 0
M  V30 2031 H 189.678 -2.822 -2.80088 0
M  V30 2032 N 190.675 0.682077 -1.42076 0
M  V30 2033 C 191.585 1.82535 -1.47371 0
M  V30 2034 C 192.601 1.7017 -0.363079 0
M  V30 2035 O 193.777 1.91848 -0.612875 0
M  V30 2036 C 190.842 3.18624 -1.36674 0
M  V30 2037 C 189.903 3.42999 -2.58167 0
M  V30 2038 C 189.136 4.72595 -2.4797 0
M  V30 2039 O 189.359 5.50006 -1.5116 0
M  V30 2040 O 188.293 4.98054 -3.37974 0
M  V30 2041 H 192.119 1.81023 -2.43853 0
M  V30 2042 H 189.704 0.836887 -1.2376 0
M  V30 2043 H 191.586 3.99847 -1.33043 0
M  V30 2044 H 190.261 3.20789 -0.433138 0
M  V30 2045 H 189.168 2.61653 -2.67373 0
M  V30 2046 H 190.501 3.45659 -3.50401 0
M  V30 2047 N 192.153 1.28127 0.917671 0
M  V30 2048 C 193.083 1.14248 2.03641 0
M  V30 2049 C 194.064 0.0412748 1.7005 0
M  V30 2050 O 195.249 0.217566 1.92977 0
M  V30 2051 C 192.379 0.799431 3.37974 0
M  V30 2052 C 191.333 1.85497 3.85713 0
M  V30 2053 C 190.659 1.36565 5.16966 0
M  V30 2054 C 191.959 3.26085 4.08002 0
M  V30 2055 H 193.653 2.07835 2.15511 0
M  V30 2056 H 191.199 1.00064 1.03553 0
M  V30 2057 H 193.152 0.689114 4.15727 0
M  V30 2058 H 191.876 -0.172145 3.26146 0
M  V30 2059 H 190.535 1.95437 3.10161 0
M  V30 2060 H 190.183 0.383253 5.01538 0
M  V30 2061 H 189.883 2.07143 5.49878 0
M  V30 2062 H 191.407 1.26848 5.97279 0
M  V30 2063 H 192.821 3.19089 4.76293 0
M  V30 2064 H 191.218 3.94462 4.52238 0
M  V30 2065 H 192.288 3.70394 3.12948 0
M  V30 2066 N 193.631 -1.12557 1.10312 0
M  V30 2067 C 194.877 -1.84311 0.846011 0
M  V30 2068 C 195.21 -1.83805 -0.626859 0
M  V30 2069 O 194.485 -1.28268 -1.46211 0
M  V30 2070 C 194.768 -3.32048 1.39341 0
M  V30 2071 C 194.621 -3.41016 2.93305 0
M  V30 2072 C 195.94 -4.27764 1.03468 0
M  V30 2073 H 193.059 -0.669192 0.30879 0
M  V30 2074 H 195.701 -1.32057 1.36605 0
M  V30 2075 H 193.851 -3.76678 0.951087 0
M  V30 2076 H 195.523 -3.05031 3.46055 0
M  V30 2077 H 193.766 -2.81603 3.29973 0
M  V30 2078 H 194.437 -4.44948 3.26689 0
M  V30 2079 H 196.913 -3.91253 1.41633 0
M  V30 2080 H 195.789 -5.29549 1.44463 0
M  V30 2081 H 196.05 -4.42064 -0.0560404 0
M  V30 2082 N 195.109 -0.891671 -1.2995 0
M  V30 2083 C 196.386 -0.433307 -1.9074 0
M  V30 2084 C 196.766 1.08646 -1.80995 0
M  V30 2085 O 196.114 1.92476 -1.23147 0
M  V30 2086 C 196.324 -0.938895 -3.36134 0
M  V30 2087 C 197.672 -0.977829 -4.13187 0
M  V30 2088 O 198.696 -0.886015 -3.45005 0
M  V30 2089 O 197.555 -1.11453 -5.35015 0
M  V30 2090 H 194.649 -0.133699 -0.816121 0
M  V30 2091 H 197.195 -0.981011 -1.38471 0
M  V30 2092 H 195.967 -1.98281 -3.37343 0
M  V30 2093 H 195.59 -0.37074 -3.95868 0
M  V30 2094 N 196.587 1.43421 -0.653314 0
M  V30 2095 C 197.55 2.29182 0.0287951 0
M  V30 2096 C 198.55 1.42213 0.750465 0
M  V30 2097 O 199.74 1.63843 0.591701 0
M  V30 2098 C 196.872 3.24278 1.05151 0
M  V30 2099 H 198.065 2.90985 -0.725786 0
M  V30 2100 H 195.618 1.50702 -0.414545 0
M  V30 2101 H 196.353 2.6737 1.83532 0
M  V30 2102 H 196.138 3.88396 0.537687 0
M  V30 2103 H 197.628 3.88647 1.52786 0
M  V30 2104 N 198.065 0.39524 1.52563 0
M  V30 2105 C 198.998 -0.4813 2.23067 0
M  V30 2106 C 199.976 -1.05927 1.23362 0
M  V30 2107 O 201.16 -1.10979 1.52368 0
M  V30 2108 C 198.287 -1.66676 2.9485 0
M  V30 2109 C 197.333 -1.21348 4.08873 0
M  V30 2110 S 198.166 -0.190102 5.35162 0
M  V30 2111 C 199.322 -1.38121 6.1047 0
M  V30 2112 H 199.555 0.117381 2.97068 0
M  V30 2113 H 197.088 0.179458 1.53354 0
M  V30 2114 H 199.046 -2.3466 3.36816 0
M  V30 2115 H 197.707 -2.23676 2.20518 0
M  V30 2116 H 196.9 -2.09877 4.58222 0
M  V30 2117 H 196.502 -0.612486 3.68951 0
M  V30 2118 H 198.794 -2.30726 6.37002 0
M  V30 2119 H 199.737 -0.928521 7.01986 0
M  V30 2120 H 200.145 -1.60071 5.41329 0
M  V30 2121 N 199.544 -1.57102 0.125237 0
M  V30 2122 C 200.474 -2.18659 -0.819174 0
M  V30 2123 C 201.455 -1.12843 -1.27281 0
M  V30 2124 O 202.64 -1.41104 -1.33429 0
M  V30 2125 C 199.77 -2.79096 -2.06695 0
M  V30 2126 C 198.724 -3.90548 -1.75088 0
M  V30 2127 C 198.05 -4.37821 -3.06948 0
M  V30 2128 C 199.35 -5.12356 -1.01435 0
M  V30 2129 H 201.044 -2.9783 -0.306202 0
M  V30 2130 H 198.59 -1.4326 -0.145839 0
M  V30 2131 H 200.543 -3.2082 -2.73226 0
M  V30 2132 H 199.267 -1.97223 -2.60328 0
M  V30 2133 H 197.926 -3.49409 -1.10944 0
M  V30 2134 H 197.574 -3.52799 -3.58527 0
M  V30 2135 H 197.274 -5.12982 -2.86571 0
M  V30 2136 H 198.798 -4.822 -3.74587 0
M  V30 2137 H 200.212 -5.5106 -1.58132 0
M  V30 2138 H 198.609 -5.9314 -0.911319 0
M  V30 2139 H 199.679 -4.849 -0.00218681 0
M  V30 2140 N 201.022 0.148545 -1.56898 0
M  V30 2141 C 202.438 0.501131 -1.51528 0
M  V30 2142 C 202.638 1.83458 -0.833399 0
M  V30 2143 O 201.694 2.49259 -0.40328 0
M  V30 2144 C 203.007 0.512864 -2.96294 0
M  V30 2145 C 204.555 0.598487 -3.07225 0
M  V30 2146 C 205.03 0.640897 -4.53494 0
M  V30 2147 N 206.521 0.703163 -4.57832 0
M  V30 2148 C 207.256 0.756935 -5.68382 0
M  V30 2149 N 206.752 0.770147 -6.88506 0
M  V30 2150 N 208.545 0.797698 -5.56411 0
M  V30 2151 H 200.696 -0.725532 -1.99624 0
M  V30 2152 H 202.959 -0.264358 -0.910395 0
M  V30 2153 H 202.665 -0.398691 -3.49433 0
M  V30 2154 H 202.539 1.35133 -3.52163 0
M  V30 2155 H 204.926 1.50046 -2.54106 0
M  V30 2156 H 205.007 -0.267093 -2.54402 0
M  V30 2157 H 204.651 -0.256915 -5.0725 0
M  V30 2158 H 204.581 1.52295 -5.04097 0
M  V30 2159 H 207.072 0.700314 -3.71354 0
M  V30 2160 H 207.385 0.812983 -7.68512 0
M  V30 2161 H 205.73 0.738049 -6.9107 0
M  V30 2162 H 208.921 0.784535 -4.61479 0
M  V30 2163 H 209.094 0.83614 -6.42583 0
M  V30 2164 N 202.5 1.5196 0.417844 0
M  V30 2165 C 203.463 1.74065 1.49111 0
M  V30 2166 C 204.463 0.610537 1.48758 0
M  V30 2167 O 205.653 0.87832 1.50437 0
M  V30 2168 C 202.785 1.81502 2.88565 0
M  V30 2169 H 203.978 2.69869 1.30807 0
M  V30 2170 H 201.531 1.42244 0.647785 0
M  V30 2171 H 202.266 0.875813 3.1225 0
M  V30 2172 H 202.051 2.63651 2.90225 0
M  V30 2173 H 203.541 2.00376 3.66387 0
M  V30 2174 N 203.978 -0.674533 1.42435 0
M  V30 2175 C 205.226 -1.43175 1.42637 0
M  V30 2176 C 205.547 -1.94951 0.0438992 0
M  V30 2177 O 204.817 -1.7308 -0.917607 0
M  V30 2178 H 203.397 -0.531307 0.525092 0
M  V30 2179 H 206.059 -0.797006 1.77859 0
M  V30 2180 H 205.155 -2.28463 2.12629 0
M  V30 2181 N 205.456 -1.28612 -0.910864 0
M  V30 2182 C 206.867 -1.14406 -1.47541 0
M  V30 2183 C 207.218 0.264901 -1.94403 0
M  V30 2184 O 206.343 1.15942 -1.82719 0
M  V30 2185 C 206.938 -2.07073 -2.68153 0
M  V30 2186 C 205.497 -1.96923 -3.20778 0
M  V30 2187 C 204.644 -1.98646 -1.93481 0
M  V30 2188 H 207.595 -1.41259 -0.723291 0
M  V30 2189 H 207.616 -1.63642 -3.43514 0
M  V30 2190 H 207.128 -3.09611 -2.34015 0
M  V30 2191 H 205.229 -0.97433 -3.59635 0
M  V30 2192 H 205.342 -2.84026 -3.85832 0
M  V30 2193 H 203.706 -1.43093 -2.10705 0
M  V30 2194 H 204.489 -3.02868 -1.61634 0
M  V30 2195 N 206.934 1.1197 -1.10907 0
M  V30 2196 C 208.345 1.65114 -0.871446 0
M  V30 2197 C 208.696 1.86885 0.597353 0
M  V30 2198 O 207.821 1.59896 1.45816 0
M  V30 2199 C 208.416 2.99944 -1.5754 0
M  V30 2200 C 206.975 3.50018 -1.38435 0
M  V30 2201 C 206.122 2.24941 -1.62164 0
M  V30 2202 H 209.073 0.956851 -1.2661 0
M  V30 2203 H 209.094 3.66651 -1.01721 0
M  V30 2204 H 208.606 2.84067 -2.64438 0
M  V30 2205 H 206.707 3.71071 -0.337214 0
M  V30 2206 H 206.82 4.29165 -2.12965 0
M  V30 2207 H 205.184 2.3229 -1.04467 0
M  V30 2208 H 205.967 2.11612 -2.70324 0
M  V30 2209 N 208.412 0.89855 1.29475 0
M  V30 2210 C 209.375 0.380272 2.26023 0
M  V30 2211 C 210.375 -0.484891 1.53315 0
M  V30 2212 O 211.565 -0.290108 1.71767 0
M  V30 2213 C 208.697 -0.45651 3.3783 0
M  V30 2214 H 209.89 1.23295 2.73383 0
M  V30 2215 H 207.443 0.676589 1.40897 0
M  V30 2216 H 208.178 -1.32922 2.95808 0
M  V30 2217 H 207.963 0.163393 3.91759 0
M  V30 2218 H 209.453 -0.810466 4.0966 0
M  V30 2219 N 209.89 -1.43072 0.660911 0
M  V30 2220 C 211.167 -1.95307 0.107017 0
M  V30 2221 C 211.547 -1.60192 -1.37484 0
M  V30 2222 O 210.895 -0.890949 -2.10415 0
M  V30 2223 C 211.105 -3.47124 0.361402 0
M  V30 2224 C 212.453 -4.23738 0.270455 0
M  V30 2225 O 213.477 -3.54981 0.294382 0
M  V30 2226 O 212.336 -5.46131 0.200737 0
M  V30 2227 H 209.43 -0.826984 -0.00517729 0
M  V30 2228 H 211.976 -1.52972 0.734681 0
M  V30 2229 H 210.748 -3.65837 1.38848 0
M  V30 2230 H 210.371 -3.96475 -0.298953 0
M  V30 2231 N 211.368 -0.403325 -1.52352 0
M  V30 2232 C 212.298 0.416205 -2.29761 0
M  V30 2233 C 213.279 1.05123 -1.33728 0
M  V30 2234 O 214.464 1.06134 -1.62632 0
M  V30 2235 C 211.594 1.53624 -3.11475 0
M  V30 2236 C 210.548 1.02653 -4.15507 0
M  V30 2237 C 209.874 2.23971 -4.85532 0
M  V30 2238 C 211.174 0.08463 -5.22231 0
M  V30 2239 H 212.868 -0.229701 -2.98518 0
M  V30 2240 H 210.414 -0.111913 -1.43564 0
M  V30 2241 H 212.367 2.1165 -3.64393 0
M  V30 2242 H 211.091 2.20994 -2.40477 0
M  V30 2243 H 209.75 0.46871 -3.63591 0
M  V30 2244 H 209.398 2.89883 -4.11068 0
M  V30 2245 H 209.098 1.90521 -5.55856 0
M  V30 2246 H 210.622 2.82614 -5.41259 0
M  V30 2247 H 212.036 0.573509 -5.70424 0
M  V30 2248 H 210.433 -0.160783 -5.99885 0
M  V30 2249 H 211.503 -0.86237 -4.7717 0
M  V30 2250 N 212.846 1.57033 -0.133567 0
M  V30 2251 C 214.074 2.00044 0.528195 0
M  V30 2252 C 214.489 1.01349 1.59291 0
M  V30 2253 O 213.846 0.00848369 1.82498 0
M  V30 2254 C 213.897 3.43018 1.1411 0
M  V30 2255 O 213.618 4.37939 0.11892 0
M  V30 2256 C 215.119 4.01237 1.88477 0
M  V30 2257 H 212.339 0.656517 0.138661 0
M  V30 2258 H 214.883 2.03267 -0.224196 0
M  V30 2259 H 213.038 3.40688 1.84418 0
M  V30 2260 H 213.452 5.21436 0.56613 0
M  V30 2261 H 214.926 5.03314 2.26669 0
M  V30 2262 H 215.403 3.41193 2.76558 0
M  V30 2263 H 216.009 4.07156 1.22898 0
M  V30 2264 N 214.325 -0.140222 1.56975 0
M  V30 2265 C 215.235 -1.19223 2.02047 0
M  V30 2266 C 216.251 -1.46612 0.937062 0
M  V30 2267 O 217.427 -1.58148 1.24704 0
M  V30 2268 C 214.492 -2.50414 2.39778 0
M  V30 2269 C 213.553 -2.30612 3.621 0
M  V30 2270 C 212.786 -3.55547 3.98023 0
M  V30 2271 O 213.009 -4.62004 3.34528 0
M  V30 2272 O 211.943 -3.47808 4.91237 0
M  V30 2273 H 215.769 -0.839559 2.91865 0
M  V30 2274 H 213.354 -0.349453 1.45256 0
M  V30 2275 H 215.236 -3.27747 2.64877 0
M  V30 2276 H 213.911 -2.85198 1.53114 0
M  V30 2277 H 212.818 -1.51207 3.4218 0
M  V30 2278 H 214.151 -2.00741 4.49404 0
M  V30 2279 N 215.803 -1.52179 -0.40978 0
M  V30 2280 C 216.766 -1.74853 -1.48186 0
M  V30 2281 C 217.766 -0.618417 -1.48433 0
M  V30 2282 O 218.956 -0.886286 -1.49969 0
M  V30 2283 C 216.088 -1.8303 -2.87598 0
M  V30 2284 H 217.281 -2.70559 -1.29374 0
M  V30 2285 H 214.834 -1.42586 -0.640233 0
M  V30 2286 H 215.569 -0.89236 -3.11781 0
M  V30 2287 H 215.354 -2.65187 -2.88822 0
M  V30 2288 H 216.844 -2.02316 -3.65319 0
M  V30 2289 N 217.281 0.66697 -1.42791 0
M  V30 2290 C 218.527 1.4291 -1.43891 0
M  V30 2291 C 218.86 1.94114 -0.0578972 0
M  V30 2292 O 218.135 1.71414 0.91911 0
M  V30 2293 C 218.418 2.62049 -2.46987 0
M  V30 2294 C 218.271 2.16426 -3.94309 0
M  V30 2295 C 219.59 3.64266 -2.46978 0
M  V30 2296 H 216.709 0.518306 -0.523954 0
M  V30 2297 H 219.351 0.757321 -1.74255 0
M  V30 2298 H 217.501 3.19361 -2.21225 0
M  V30 2299 H 219.173 1.64221 -4.31079 0
M  V30 2300 H 217.416 1.47925 -4.078 0
M  V30 2301 H 218.087 3.02038 -4.62036 0
M  V30 2302 H 220.563 3.16686 -2.69906 0
M  V30 2303 H 219.439 4.45196 -3.21079 0
M  V30 2304 H 219.7 4.15927 -1.49857 0
M  V30 2305 N 218.759 1.29093 0.90403 0
M  V30 2306 C 219.689 1.16401 2.02418 0
M  V30 2307 C 220.67 0.0593085 1.69997 0
M  V30 2308 O 221.855 0.238021 1.92736 0
M  V30 2309 C 218.985 0.835233 3.37107 0
M  V30 2310 C 217.939 1.89578 3.83724 0
M  V30 2311 C 217.265 1.42041 5.15489 0
M  V30 2312 C 218.565 3.30394 4.04521 0
M  V30 2313 H 220.259 2.10109 2.13295 0
M  V30 2314 H 217.805 1.01157 1.02486 0
M  V30 2315 H 219.758 0.733169 4.14973 0
M  V30 2316 H 218.482 -0.137543 3.2631 0
M  V30 2317 H 217.141 1.98715 3.08071 0
M  V30 2318 H 216.789 0.436426 5.01103 0
M  V30 2319 H 216.489 2.12964 5.4765 0
M  V30 2320 H 218.013 1.33176 5.959 0
M  V30 2321 H 219.427 3.24123 4.72882 0
M  V30 2322 H 217.824 3.99237 4.48029 0
M  V30 2323 H 218.894 3.73692 3.09002 0
M  V30 2324 N 220.237 -1.11381 1.11499 0
M  V30 2325 C 221.462 -1.87475 0.887019 0
M  V30 2326 C 221.887 -1.79639 -0.557796 0
M  V30 2327 O 221.245 -1.15924 -1.39396 0
M  V30 2328 C 221.293 -3.34213 1.35403 0
M  V30 2329 O 220.397 -4.0903 0.526146 0
M  V30 2330 H 219.738 -0.582099 0.319463 0
M  V30 2331 H 222.268 -1.40785 1.48461 0
M  V30 2332 H 222.278 -3.8506 1.34881 0
M  V30 2333 H 220.953 -3.39232 2.40612 0
M  V30 2334 H 219.53 -3.68082 0.597522 0
M  V30 2335 N 221.715 -0.905404 -1.28997 0
M  V30 2336 C 223.126 -0.581953 -1.77398 0
M  V30 2337 C 223.477 0.902552 -1.74208 0
M  V30 2338 O 222.602 1.70584 -1.33154 0
M  V30 2339 C 223.197 -1.04961 -3.22131 0
M  V30 2340 C 221.756 -0.777229 -3.68288 0
M  V30 2341 C 220.903 -1.22109 -2.48967 0
M  V30 2342 H 223.854 -1.08754 -1.15578 0
M  V30 2343 H 223.875 -0.387387 -3.78523 0
M  V30 2344 H 223.387 -2.13008 -3.24421 0
M  V30 2345 H 221.488 0.290383 -3.71467 0
M  V30 2346 H 221.601 -1.37911 -4.58822 0
M  V30 2347 H 219.965 -0.639971 -2.46529 0
M  V30 2348 H 220.748 -2.30972 -2.53982 0
M  V30 2349 N 223.193 1.4272 -0.668489 0
M  V30 2350 C 224.44 2.01624 -0.18814 0
M  V30 2351 C 224.768 1.5282 1.20317 0
M  V30 2352 O 224.023 0.718323 1.8204 0
M  V30 2353 C 224.322 3.57021 -0.164499 0
M  V30 2354 C 223.988 4.25232 -1.49962 0
M  V30 2355 C 222.65 4.4358 -1.8652 0
M  V30 2356 C 225.002 4.63727 -2.37921 0
M  V30 2357 C 222.33 4.97694 -3.10674 0
M  V30 2358 C 224.682 5.19218 -3.6138 0
M  V30 2359 C 223.346 5.3578 -3.98115 0
M  V30 2360 H 222.616 0.737795 -0.0688454 0
M  V30 2361 H 225.263 1.70991 -0.862225 0
M  V30 2362 H 223.568 3.87285 0.593079 0
M  V30 2363 H 225.265 4.00372 0.224271 0
M  V30 2364 H 221.855 4.11306 -1.20522 0
M  V30 2365 H 226.039 4.4923 -2.10964 0
M  V30 2366 H 221.295 5.08702 -3.39164 0
M  V30 2367 H 225.469 5.4799 -4.29743 0
M  V30 2368 H 223.096 5.77475 -4.94395 0
M  V30 2369 N 224.671 0.411399 1.52136 0
M  V30 2370 C 226.082 -0.0576826 1.86611 0
M  V30 2371 C 226.433 -1.44238 1.33003 0
M  V30 2372 O 225.558 -2.05759 0.670228 0
M  V30 2373 C 226.153 -0.111448 3.38617 0
M  V30 2374 C 224.712 -0.52487 3.72723 0
M  V30 2375 C 223.859 0.299176 2.75681 0
M  V30 2376 H 226.81 0.628368 1.4573 0
M  V30 2377 H 226.831 -0.926252 3.69054 0
M  V30 2378 H 226.343 0.896488 3.77604 0
M  V30 2379 H 224.444 -1.53936 3.39315 0
M  V30 2380 H 224.557 -0.267681 4.78352 0
M  V30 2381 H 222.921 -0.238814 2.53578 0
M  V30 2382 H 223.704 1.3055 3.17508 0
M  V30 2383 N 226.149 -1.5696 0.141893 0
M  V30 2384 C 227.398 -1.95135 -0.510427 0
M  V30 2385 C 227.711 -1.02896 -1.66348 0
M  V30 2386 O 228.917 -1.30629 -2.38009 0
M  V30 2387 C 227.373 -3.46876 -0.959427 0
M  V30 2388 C 226.981 -4.47691 0.166419 0
M  V30 2389 C 228.725 -3.93927 -1.58183 0
M  V30 2390 C 226.632 -5.90636 -0.300565 0
M  V30 2391 H 225.562 -0.728494 -0.194454 0
M  V30 2392 H 228.213 -1.8211 0.22542 0
M  V30 2393 H 226.595 -3.55215 -1.75038 0
M  V30 2394 H 227.769 -4.51043 0.94325 0
M  V30 2395 H 226.084 -4.10527 0.696905 0
M  V30 2396 H 228.681 -4.98158 -1.94275 0
M  V30 2397 H 229.024 -3.3519 -2.46888 0
M  V30 2398 H 229.557 -3.88484 -0.855863 0
M  V30 2399 H 226.296 -6.5318 0.550989 0
M  V30 2400 H 225.816 -5.90655 -1.04338 0
M  V30 2401 H 227.495 -6.42588 -0.754265 0
M  V30 2402 N 227.627 0.131896 -1.57047 0
M  V30 2403 C 228.59 1.14638 -1.98471 0
M  V30 2404 C 229.59 1.35029 -0.873148 0
M  V30 2405 O 230.78 1.31764 -1.13946 0
M  V30 2406 C 227.912 2.50358 -2.31373 0
M  V30 2407 H 229.105 0.79064 -2.8929 0
M  V30 2408 H 226.658 0.375761 -1.51716 0
M  V30 2409 H 227.393 2.90876 -1.43393 0
M  V30 2410 H 227.178 2.36915 -3.12432 0
M  V30 2411 H 228.668 3.23395 -2.64207 0
M  V30 2412 N 229.106 1.52395 0.401703 0
M  V30 2413 C 230.352 1.67065 1.14966 0
M  V30 2414 C 230.685 0.403052 1.89971 0
M  V30 2415 O 229.96 -0.598774 1.85054 0
M  V30 2416 C 230.243 2.8975 2.13815 0
M  V30 2417 C 230.096 4.26578 1.42658 0
M  V30 2418 C 231.415 3.07965 3.14397 0
M  V30 2419 H 228.534 0.607968 0.416587 0
M  V30 2420 H 231.176 1.84965 0.434511 0
M  V30 2421 H 229.326 2.74619 2.74803 0
M  V30 2422 H 230.998 4.53451 0.847329 0
M  V30 2423 H 229.241 4.27639 0.72849 0
M  V30 2424 H 229.912 5.08483 2.14823 0
M  V30 2425 H 232.388 3.22043 2.63491 0
M  V30 2426 H 231.264 3.95308 3.80819 0
M  V30 2427 H 231.525 2.21611 3.82545 0
M  V30 2428 N 230.584 -0.659388 1.43143 0
M  V30 2429 C 231.833 -1.41518 1.43721 0
M  V30 2430 C 232.146 -1.95499 0.0628176 0
M  V30 2431 O 233.352 -2.71446 -0.0539683 0
M  V30 2432 C 231.808 -2.5608 2.52885 0
M  V30 2433 C 231.416 -2.08733 3.96402 0
M  V30 2434 C 233.16 -3.3349 2.62649 0
M  V30 2435 C 231.067 -3.20469 4.97045 0
M  V30 2436 H 229.997 -0.531705 0.534608 0
M  V30 2437 H 232.648 -0.712343 1.69109 0
M  V30 2438 H 231.03 -3.28805 2.20688 0
M  V30 2439 H 232.204 -1.43059 4.3803 0
M  V30 2440 H 230.519 -1.44219 3.90627 0
M  V30 2441 H 233.116 -4.16734 3.35017 0
M  V30 2442 H 233.459 -3.8111 1.67513 0
M  V30 2443 H 233.992 -2.67842 2.94118 0
M  V30 2444 H 230.731 -2.77824 5.93712 0
M  V30 2445 H 230.251 -3.84874 4.60034 0
M  V30 2446 H 231.93 -3.85698 5.19467 0
M  V30 2447 N 232.062 -1.29571 -0.897171 0
M  V30 2448 C 233.302 -1.18959 -1.66217 0
M  V30 2449 C 233.666 0.254271 -1.90309 0
M  V30 2450 O 234.867 0.483407 -2.64417 0
M  V30 2451 C 233.138 -1.98302 -2.9734 0
M  V30 2452 S 234.697 -2.04253 -3.88364 0
M  V30 2453 H 231.515 -0.424137 -0.570639 0
M  V30 2454 H 234.117 -1.6389 -1.06585 0
M  V30 2455 H 232.821 -3.02342 -2.77521 0
M  V30 2456 H 232.352 -1.53986 -3.62011 0
M  V30 2457 H 234.367 -1.16105 -4.82425 0
M  V30 2458 N 233.54 1.10788 -1.12088 0
M  V30 2459 C 234.45 2.20599 -0.798338 0
M  V30 2460 C 235.466 1.72712 0.21135 0
M  V30 2461 O 236.642 2.01348 0.0458477 0
M  V30 2462 C 233.707 3.45771 -0.253674 0
M  V30 2463 C 232.768 4.08411 -1.32283 0
M  V30 2464 C 232.001 5.27608 -0.80406 0
M  V30 2465 O 232.224 5.69241 0.363478 0
M  V30 2466 O 231.158 5.8101 -1.57198 0
M  V30 2467 H 234.984 2.50614 -1.7154 0
M  V30 2468 H 232.569 1.19454 -0.897275 0
M  V30 2469 H 234.451 4.21376 0.0453691 0
M  V30 2470 H 233.126 3.1739 0.636005 0
M  V30 2471 H 232.033 3.34507 -1.67499 0
M  V30 2472 H 233.366 4.40986 -2.18614 0
M  V30 2473 N 235.018 0.912232 1.28515 0
M  V30 2474 C 235.948 0.416403 2.29757 0
M  V30 2475 C 236.929 -0.515194 1.6211 0
M  V30 2476 O 238.114 -0.423253 1.89532 0
M  V30 2477 C 235.244 -0.34572 3.45575 0
M  V30 2478 C 234.198 0.496599 4.25109 0
M  V30 2479 C 233.524 -0.393771 5.33248 0
M  V30 2480 C 234.824 1.75307 4.92001 0
M  V30 2481 H 236.518 1.26249 2.7148 0
M  V30 2482 H 234.064 0.608515 1.30511 0
M  V30 2483 H 236.017 -0.703422 4.15488 0
M  V30 2484 H 234.741 -1.2257 3.02728 0
M  V30 2485 H 233.4 0.8368 3.56922 0
M  V30 2486 H 233.048 -1.27225 4.86644 0
M  V30 2487 H 232.748 0.166209 5.87365 0
M  V30 2488 H 234.272 -0.747389 6.06009 0
M  V30 2489 H 235.686 1.46437 5.54283 0
M  V30 2490 H 234.083 2.25534 5.56106 0
M  V30 2491 H 235.153 2.48176 4.16577 0
M  V30 2492 N 236.496 -1.42363 0.676048 0
M  V30 2493 C 237.429 -2.28141 -0.0516916 0
M  V30 2494 C 238.407 -1.41135 -0.807439 0
M  V30 2495 O 239.591 -1.70573 -0.802305 0
M  V30 2496 C 236.718 -3.21007 -1.08039 0
M  V30 2497 C 235.764 -4.24426 -0.420076 0
M  V30 2498 S 236.597 -5.29134 0.823246 0
M  V30 2499 C 237.753 -6.25566 -0.204344 0
M  V30 2500 H 237.986 -2.89515 0.675884 0
M  V30 2501 H 235.519 -1.47211 0.465635 0
M  V30 2502 H 237.477 -3.75048 -1.66881 0
M  V30 2503 H 236.138 -2.58766 -1.78042 0
M  V30 2504 H 235.331 -4.89596 -1.19633 0
M  V30 2505 H 234.933 -3.7388 0.0947845 0
M  V30 2506 H 237.225 -6.69098 -1.06369 0
M  V30 2507 H 238.168 -7.06895 0.412915 0
M  V30 2508 H 238.576 -5.61811 -0.55038 0
M  V30 2509 N 237.974 -0.419461 -1.51915 0
M  V30 2510 C 239.222 0.152637 -2.01523 0
M  V30 2511 C 239.543 1.44762 -1.30649 0
M  V30 2512 O 238.813 1.90997 -0.435535 0
M  V30 2513 H 237.393 0.0593966 -0.744635 0
M  V30 2514 H 240.055 -0.558073 -1.86739 0
M  V30 2515 H 239.151 0.341369 -3.10227 0
M  V30 2516 N 239.452 1.56882 -0.150215 0
M  V30 2517 C 240.698 1.96518 0.500834 0
M  V30 2518 C 241.031 1.03527 1.64304 0
M  V30 2519 O 240.306 0.0782751 1.94342 0
M  V30 2520 C 240.589 3.45822 1.00395 0
M  V30 2521 C 240.442 4.49591 -0.136983 0
M  V30 2522 C 241.761 3.97704 1.88467 0
M  V30 2523 H 238.88 0.714535 0.18058 0
M  V30 2524 H 241.522 1.88577 -0.232091 0
M  V30 2525 H 239.672 3.5272 1.62851 0
M  V30 2526 H 241.344 4.5477 -0.77343 0
M  V30 2527 H 239.587 4.26441 -0.795652 0
M  V30 2528 H 240.258 5.51402 0.256815 0
M  V30 2529 H 242.734 3.93304 1.35834 0
M  V30 2530 H 241.61 5.0263 2.20578 0
M  V30 2531 H 241.871 3.40252 2.82279 0
M  V30 2532 N 240.93 -0.123565 1.57115 0
M  V30 2533 C 242.341 -0.681198 1.73829 0
M  V30 2534 C 242.692 -1.80535 0.768214 0
M  V30 2535 O 241.817 -2.16317 -0.0599103 0
M  V30 2536 C 242.412 -1.24246 3.15196 0
M  V30 2537 C 240.971 -1.74643 3.33432 0
M  V30 2538 C 240.118 -0.644284 2.69711 0
M  V30 2539 H 243.069 0.102315 1.5837 0
M  V30 2540 H 243.09 -2.11216 3.16493 0
M  V30 2541 H 242.602 -0.424062 3.85776 0
M  V30 2542 H 240.703 -2.58974 2.67886 0
M  V30 2543 H 240.816 -1.85902 4.41562 0
M  V30 2544 H 239.18 -1.07676 2.3082 0
M  V30 2545 H 239.963 0.163058 3.42913 0
M  V30 2546 N 242.408 -1.52605 -0.393616 0
M  V30 2547 C 243.371 -1.76415 -1.46323 0
M  V30 2548 C 244.371 -0.634126 -1.47768 0
M  V30 2549 O 245.561 -0.902142 -1.4902 0
M  V30 2550 C 242.693 -1.8607 -2.85641 0
M  V30 2551 H 243.886 -2.71916 -1.26498 0
M  V30 2552 H 241.439 -1.43257 -0.625073 0
M  V30 2553 H 242.174 -0.925378 -3.10817 0
M  V30 2554 H 241.959 -2.68235 -2.85993 0
M  V30 2555 H 243.449 -2.06179 -3.63153 0
M  V30 2556 N 243.887 0.651787 -1.4349 0
M  V30 2557 C 245.115 1.43937 -1.48626 0
M  V30 2558 C 245.53 1.8851 -0.104587 0
M  V30 2559 O 244.887 1.5958 0.885464 0
M  V30 2560 C 244.938 2.6734 -2.43334 0
M  V30 2561 O 244.659 2.24631 -3.76128 0
M  V30 2562 C 246.16 3.60683 -2.57726 0
M  V30 2563 H 243.38 0.44213 -0.504739 0
M  V30 2564 H 245.924 0.798944 -1.88248 0
M  V30 2565 H 244.079 3.2752 -2.06904 0
M  V30 2566 H 244.493 3.04485 -4.2707 0
M  V30 2567 H 245.967 4.43933 -3.28067 0
M  V30 2568 H 246.444 4.08126 -1.62265 0
M  V30 2569 H 247.05 3.06384 -2.94973 0
M  V30 2570 N 245.365 1.30045 0.890287 0
M  V30 2571 C 246.642 1.09227 1.62262 0
M  V30 2572 C 247.022 -0.360305 2.08002 0
M  V30 2573 O 246.37 -1.35084 1.84295 0
M  V30 2574 C 246.58 2.08835 2.79623 0
M  V30 2575 C 247.928 2.40266 3.50082 0
M  V30 2576 O 248.952 2.07104 2.89804 0
M  V30 2577 O 247.811 2.96967 4.58773 0
M  V30 2578 H 244.905 0.419132 0.712922 0
M  V30 2579 H 247.451 1.41451 0.937529 0
M  V30 2580 H 246.223 3.06633 2.43089 0
M  V30 2581 H 245.846 1.77397 3.55832 0
M  V30 2582 N 246.843 -1.10192 1.12674 0
M  V30 2583 C 248.259 -1.34235 0.863317 0
M  V30 2584 C 248.459 -1.95062 -0.505277 0
M  V30 2585 O 247.515 -2.19192 -1.25345 0
M  V30 2586 C 248.828 -2.2616 1.98172 0
M  V30 2587 C 250.376 -2.3969 2.0129 0
M  V30 2588 C 250.851 -3.34946 3.1237 0
M  V30 2589 N 252.342 -3.42515 3.11829 0
M  V30 2590 C 253.077 -4.16199 3.94419 0
M  V30 2591 N 252.573 -4.92747 4.87004 0
M  V30 2592 N 254.366 -4.11843 3.82547 0
M  V30 2593 H 246.517 -0.690798 2.00853 0
M  V30 2594 H 248.78 -0.366774 0.874174 0
M  V30 2595 H 248.486 -1.8868 2.96804 0
M  V30 2596 H 248.36 -3.26488 1.88906 0
M  V30 2597 H 250.747 -2.76438 1.03276 0
M  V30 2598 H 250.828 -1.39169 2.14629 0
M  V30 2599 H 250.472 -2.98923 4.10619 0
M  V30 2600 H 250.402 -4.35353 2.96269 0
M  V30 2601 H 252.893 -2.87926 2.44759 0
M  V30 2602 H 253.206 -5.46376 5.46528 0
M  V30 2603 H 251.551 -4.91862 4.91016 0
M  V30 2604 H 254.742 -3.51136 3.0955 0
M  V30 2605 H 254.915 -4.69007 4.47142 0
M  V30 2606 N 248.321 -0.919034 -1.28029 0
M  V30 2607 C 249.271 -0.382574 -2.24767 0
M  V30 2608 C 250.255 0.508286 -1.52661 0
M  V30 2609 O 251.447 0.347145 -1.73562 0
M  V30 2610 C 248.576 0.371432 -3.41285 0
M  V30 2611 C 247.662 -0.535449 -4.20706 0
M  V30 2612 N 248.053 -1.65141 -4.78082 0
M  V30 2613 C 246.351 -0.336824 -4.44726 0
M  V30 2614 C 247.052 -2.21475 -5.37888 0
M  V30 2615 N 246.028 -1.50537 -5.22341 0
M  V30 2616 H 249.83 -1.23477 -2.66703 0
M  V30 2617 H 247.344 -0.772299 -1.42861 0
M  V30 2618 H 249.341 0.772638 -4.09678 0
M  V30 2619 H 248.001 1.22066 -3.00882 0
M  V30 2620 H 249.012 -2.03392 -4.7629 0
M  V30 2621 H 245.689 0.47246 -4.14818 0
M  V30 2622 H 247.079 -3.15379 -5.93284 0
M  V30 2623 N 249.799 1.42003 -0.683588 0
M  V30 2624 C 251.024 2.06265 -0.216647 0
M  V30 2625 C 251.449 1.51059 1.12083 0
M  V30 2626 O 250.807 0.632638 1.69904 0
M  V30 2627 C 250.855 3.60191 -0.171759 0
M  V30 2628 O 249.959 4.03396 0.857069 0
M  V30 2629 H 249.3 0.65502 -0.108834 0
M  V30 2630 H 251.83 1.81982 -0.935077 0
M  V30 2631 H 251.84 4.08 0.0014303 0
M  V30 2632 H 250.515 3.99743 -1.14796 0
M  V30 2633 H 249.092 3.67117 0.654208 0
M  V30 2634 N 251.277 0.427512 1.51691 0
M  V30 2635 C 252.21 -0.433876 2.24037 0
M  V30 2636 C 253.188 -1.03287 1.25581 0
M  V30 2637 O 254.372 -1.07722 1.54688 0
M  V30 2638 C 251.499 -1.60385 2.98319 0
M  V30 2639 C 250.545 -1.12648 4.11355 0
M  V30 2640 S 251.378 -0.076543 5.35445 0
M  V30 2641 C 252.534 -1.25141 6.13262 0
M  V30 2642 H 252.767 0.180367 2.96752 0
M  V30 2643 H 250.3 0.211946 1.52938 0
M  V30 2644 H 252.258 -2.27462 3.41718 0
M  V30 2645 H 250.919 -2.18948 2.25213 0
M  V30 2646 H 250.112 -2.0011 4.62571 0
M  V30 2647 H 249.714 -0.534088 3.70167 0
M  V30 2648 H 252.006 -2.17162 6.41753 0
M  V30 2649 H 252.949 -0.779411 7.03797 0
M  V30 2650 H 253.357 -1.48553 5.44603 0
M  V30 2651 N 252.755 -1.56801 0.158532 0
M  V30 2652 C 253.705 -2.13923 -0.788738 0
M  V30 2653 C 254.689 -1.07006 -1.2016 0
M  V30 2654 O 255.881 -1.33159 -1.1661 0
M  V30 2655 C 253.01 -2.77348 -2.02319 0
M  V30 2656 C 252.096 -3.91404 -1.6329 0
M  V30 2657 N 252.487 -4.9677 -0.951463 0
M  V30 2658 C 250.785 -4.02326 -1.92482 0
M  V30 2659 C 251.486 -5.76698 -0.761221 0
M  V30 2660 N 250.462 -5.27859 -1.29869 0
M  V30 2661 H 254.264 -2.92757 -0.258995 0
M  V30 2662 H 251.778 -1.62344 -0.0426055 0
M  V30 2663 H 253.775 -3.16639 -2.71192 0
M  V30 2664 H 252.435 -1.99991 -2.558 0
M  V30 2665 H 253.446 -5.14284 -0.610928 0
M  V30 2666 H 250.123 -3.36059 -2.47732 0
M  V30 2667 H 251.513 -6.71529 -0.223284 0
M  V30 2668 N 254.233 0.115231 -1.57178 0
M  V30 2669 C 255.461 0.836437 -1.89239 0
M  V30 2670 C 255.876 1.73256 -0.750175 0
M  V30 2671 O 255.233 1.80357 0.278832 0
M  V30 2672 C 255.284 1.66671 -3.20785 0
M  V30 2673 O 255.005 0.806652 -4.3061 0
M  V30 2674 C 256.506 2.49274 -3.66575 0
M  V30 2675 H 253.726 0.240253 -0.626514 0
M  V30 2676 H 256.27 0.0984932 -2.04263 0
M  V30 2677 H 254.425 2.35737 -3.0742 0
M  V30 2678 H 254.839 1.37969 -5.06028 0
M  V30 2679 H 256.313 3.03055 -4.6137 0
M  V30 2680 H 256.79 3.26807 -2.93417 0
M  V30 2681 H 257.396 1.85443 -3.82741 0
M  V30 2682 N 255.711 1.52812 0.385517 0
M  V30 2683 C 256.957 1.69225 1.12847 0
M  V30 2684 C 257.312 0.42864 1.87564 0
M  V30 2685 O 256.605 -0.57779 1.8268 0
M  V30 2686 C 256.799 2.86856 2.13187 0
M  V30 2687 C 256.628 4.24535 1.48325 0
M  V30 2688 C 255.398 4.89701 1.24585 0
M  V30 2689 C 257.596 5.05794 0.931501 0
M  V30 2690 N 255.578 6.11353 0.558644 0
M  V30 2691 C 256.949 6.1888 0.372552 0
M  V30 2692 C 259.004 4.90963 0.828248 0
M  V30 2693 C 257.707 7.18757 -0.279556 0
M  V30 2694 C 259.733 5.91095 0.189956 0
M  V30 2695 C 259.095 7.03489 -0.358207 0
M  V30 2696 H 255.194 0.67268 0.39878 0
M  V30 2697 H 257.778 1.9017 0.417528 0
M  V30 2698 H 255.949 2.67484 2.81614 0
M  V30 2699 H 257.681 2.92188 2.80014 0
M  V30 2700 H 254.436 4.48485 1.52178 0
M  V30 2701 H 254.86 6.76606 0.230983 0
M  V30 2702 H 259.502 4.04274 1.23784 0
M  V30 2703 H 257.22 8.05052 -0.701152 0
M  V30 2704 H 260.806 5.81694 0.111264 0
M  V30 2705 H 259.686 7.79642 -0.844314 0
M  V30 2706 N 257.189 -0.644168 1.43834 0
M  V30 2707 C 258.417 -1.43147 1.49387 0
M  V30 2708 C 258.832 -1.88452 0.114583 0
M  V30 2709 O 258.189 -1.60047 -0.876989 0
M  V30 2710 C 258.24 -2.66046 2.44748 0
M  V30 2711 O 257.961 -2.22633 3.77314 0
M  V30 2712 C 259.462 -3.59311 2.59635 0
M  V30 2713 H 256.682 -0.439447 0.507077 0
M  V30 2714 H 259.226 -0.78895 1.88669 0
M  V30 2715 H 257.381 -3.26418 2.08638 0
M  V30 2716 H 257.795 -3.02216 4.28679 0
M  V30 2717 H 259.269 -4.42187 3.30416 0
M  V30 2718 H 259.746 -4.07259 1.64427 0
M  V30 2719 H 260.352 -3.04816 2.96593 0
M  V30 2720 N 258.668 -1.30515 -0.883378 0
M  V30 2721 C 259.6 -1.12846 -1.99496 0
M  V30 2722 C 260.613 -0.0712571 -1.62644 0
M  V30 2723 O 261.802 -0.317432 -1.75655 0
M  V30 2724 C 258.902 -0.699123 -3.3161 0
M  V30 2725 C 258.075 -1.83842 -3.96889 0
M  V30 2726 C 257.134 -1.39737 -5.07307 0
M  V30 2727 O 256.16 -2.10485 -5.28852 0
M  V30 2728 N 257.362 -0.277279 -5.79837 0
M  V30 2729 H 260.127 -2.08585 -2.15203 0
M  V30 2730 H 257.688 -1.22672 -1.05656 0
M  V30 2731 H 259.68 -0.387044 -4.02845 0
M  V30 2732 H 258.25 0.166276 -3.12157 0
M  V30 2733 H 257.47 -2.31853 -3.18807 0
M  V30 2734 H 258.758 -2.60187 -4.37241 0
M  V30 2735 H 258.156 0.3122 -5.64838 0
M  V30 2736 H 256.713 -0.0246623 -6.51795 0
M  V30 2737 N 260.146 1.09593 -1.13257 0
M  V30 2738 C 261.076 2.18214 -0.830946 0
M  V30 2739 C 262.057 1.68812 0.208966 0
M  V30 2740 O 263.242 1.9408 0.0682666 0
M  V30 2741 C 260.372 3.46051 -0.294296 0
M  V30 2742 C 259.326 4.08778 -1.26826 0
M  V30 2743 C 258.652 5.31419 -0.591449 0
M  V30 2744 C 259.952 4.51476 -2.62615 0
M  V30 2745 H 261.646 2.43703 -1.73923 0
M  V30 2746 H 259.192 1.17128 -0.837675 0
M  V30 2747 H 261.145 4.2134 -0.0709606 0
M  V30 2748 H 259.869 3.20079 0.649366 0
M  V30 2749 H 258.528 3.35505 -1.47756 0
M  V30 2750 H 258.176 5.01727 0.357633 0
M  V30 2751 H 257.876 5.74341 -1.24123 0
M  V30 2752 H 259.4 6.09433 -0.377355 0
M  V30 2753 H 260.814 5.17999 -2.45663 0
M  V30 2754 H 259.211 5.05277 -3.23752 0
M  V30 2755 H 260.281 3.63962 -3.20406 0
M  V30 2756 N 261.624 0.925811 1.2754 0
M  V30 2757 C 262.873 0.561084 1.93739 0
M  V30 2758 C 263.186 -0.901685 1.73577 0
M  V30 2759 O 264.392 -1.37511 2.34101 0
M  V30 2760 C 262.848 0.952668 3.47062 0
M  V30 2761 C 262.456 2.43599 3.75983 0
M  V30 2762 C 264.2 0.659103 4.19352 0
M  V30 2763 C 262.107 2.76707 5.22673 0
M  V30 2764 H 261.037 0.206122 0.725279 0
M  V30 2765 H 263.688 1.12637 1.44863 0
M  V30 2766 H 262.07 0.316053 3.94737 0
M  V30 2767 H 263.244 3.12035 3.39073 0
M  V30 2768 H 261.559 2.70125 3.16893 0
M  V30 2769 H 264.156 0.882985 5.27359 0
M  V30 2770 H 264.499 -0.403607 4.14339 0
M  V30 2771 H 265.032 1.25473 3.77494 0
M  V30 2772 H 261.771 3.8188 5.32774 0
M  V30 2773 H 261.291 2.12919 5.60737 0
M  V30 2774 H 262.97 2.6435 5.90532 0
M  V30 2775 N 263.102 -1.41638 0.69111 0
M  V30 2776 C 264.032 -2.3347 0.037248 0
M  V30 2777 C 265.013 -1.51575 -0.771947 0
M  V30 2778 O 266.198 -1.80126 -0.72582 0
M  V30 2779 C 263.328 -3.35354 -0.903064 0
M  V30 2780 C 262.282 -4.27526 -0.201288 0
M  V30 2781 C 261.608 -5.19747 -1.25565 0
M  V30 2782 C 262.908 -5.13959 0.929689 0
M  V30 2783 H 264.602 -2.88397 0.804227 0
M  V30 2784 H 262.148 -1.38669 0.388189 0
M  V30 2785 H 264.101 -3.98519 -1.36969 0
M  V30 2786 H 262.825 -2.78767 -1.70166 0
M  V30 2787 H 261.484 -3.65779 0.245265 0
M  V30 2788 H 261.132 -4.59479 -2.04666 0
M  V30 2789 H 260.832 -5.8225 -0.791128 0
M  V30 2790 H 262.356 -5.85789 -1.72288 0
M  V30 2791 H 263.77 -5.70718 0.543546 0
M  V30 2792 H 262.167 -5.85379 1.32103 0
M  V30 2793 H 263.237 -4.51389 1.77133 0
M  V30 2794 N 264.58 -0.43555 -1.51462 0
M  V30 2795 C 265.805 0.132627 -2.06976 0
M  V30 2796 C 266.23 1.35848 -1.30104 0
M  V30 2797 O 265.588 1.78112 -0.338493 0
M  V30 2798 C 265.636 0.43523 -3.57964 0
M  V30 2799 O 264.74 1.52198 -3.83288 0
M  V30 2800 H 264.081 0.00265 -0.663995 0
M  V30 2801 H 266.611 -0.616369 -1.95095 0
M  V30 2802 H 266.621 0.686206 -4.02188 0
M  V30 2803 H 265.296 -0.460739 -4.1334 0
M  V30 2804 H 263.873 1.2611 -3.50928 0
M  V30 2805 N 266.058 1.56714 -0.166846 0
M  V30 2806 C 267.283 2.01557 0.488833 0
M  V30 2807 C 267.708 1.0463 1.56314 0
M  V30 2808 O 267.066 0.0251304 1.81283 0
M  V30 2809 C 267.114 3.4503 1.04818 0
M  V30 2810 O 266.218 3.51163 2.16236 0
M  V30 2811 H 265.559 0.653516 0.117526 0
M  V30 2812 H 268.089 2.02818 -0.269421 0
M  V30 2813 H 268.099 3.84243 1.37191 0
M  V30 2814 H 266.774 4.15077 0.261572 0
M  V30 2815 H 265.351 3.23807 1.84942 0
M  V30 2816 N 267.536 -0.106894 1.57237 0
M  V30 2817 C 268.761 -0.830287 1.90055 0
M  V30 2818 C 269.186 -1.72064 0.75998 0
M  V30 2819 O 268.544 -1.78982 -0.288991 0
M  V30 2820 C 268.592 -1.6295 3.21683 0
M  V30 2821 O 267.696 -2.73748 3.08441 0
M  V30 2822 H 267.037 -0.228855 0.623315 0
M  V30 2823 H 269.567 -0.085658 2.04421 0
M  V30 2824 H 269.577 -2.01621 3.54701 0
M  V30 2825 H 268.252 -0.975989 4.04286 0
M  V30 2826 H 266.829 -2.38192 2.86913 0
M  V30 2827 N 269.014 -1.53014 -0.377408 0
M  V30 2828 C 269.964 -1.74996 -1.46152 0
M  V30 2829 C 270.948 -0.604236 -1.49123 0
M  V30 2830 O 272.14 -0.862489 -1.54564 0
M  V30 2831 C 269.269 -1.93267 -2.8373 0
M  V30 2832 C 268.355 -3.13807 -2.85283 0
M  V30 2833 N 268.746 -4.35941 -2.56493 0
M  V30 2834 C 267.044 -3.14288 -3.16448 0
M  V30 2835 C 267.745 -5.17615 -2.65424 0
M  V30 2836 N 266.721 -4.53559 -2.99641 0
M  V30 2837 H 270.523 -2.67044 -1.22738 0
M  V30 2838 H 268.037 -1.51479 -0.585479 0
M  V30 2839 H 270.034 -2.0714 -3.61799 0
M  V30 2840 H 268.694 -1.0244 -3.08117 0
M  V30 2841 H 269.705 -4.63876 -2.30302 0
M  V30 2842 H 266.382 -2.33312 -3.46225 0
M  V30 2843 H 267.772 -6.25006 -2.46612 0
M  V30 2844 N 270.492 0.636531 -1.44174 0
M  V30 2845 C 271.74 1.39343 -1.46383 0
M  V30 2846 C 272.061 1.94766 -0.0955715 0
M  V30 2847 O 271.331 1.75452 0.871395 0
M  V30 2848 H 269.911 0.517199 -0.538994 0
M  V30 2849 H 272.573 0.74957 -1.7991 0
M  V30 2850 H 271.669 2.22746 -2.18611 0
M  V30 2851 N 271.97 1.30982 0.876444 0
M  V30 2852 C 272.933 1.18054 1.96459 0
M  V30 2853 C 273.933 0.109399 1.60427 0
M  V30 2854 O 275.123 0.358173 1.70478 0
M  V30 2855 C 272.255 0.810616 3.31122 0
M  V30 2856 H 273.448 2.14735 2.09354 0
M  V30 2857 H 271.001 1.145 1.06392 0
M  V30 2858 H 271.736 -0.155322 3.23928 0
M  V30 2859 H 271.521 1.58481 3.58645 0
M  V30 2860 H 273.011 0.743876 4.10921 0
M  V30 2861 N 273.449 -1.08991 1.13837 0
M  V30 2862 C 274.359 -2.19301 0.833333 0
M  V30 2863 C 275.375 -1.73026 -0.183847 0
M  V30 2864 O 276.551 -2.01395 -0.0138092 0
M  V30 2865 C 273.616 -3.45323 0.308651 0
M  V30 2866 C 272.677 -4.06255 1.38764 0
M  V30 2867 C 271.91 -5.26262 0.887896 0
M  V30 2868 O 272.133 -5.69747 -0.27287 0
M  V30 2869 O 271.067 -5.78435 1.66421 0
M  V30 2870 H 274.893 -2.47854 1.75506 0
M  V30 2871 H 272.478 -1.18012 0.916166 0
M  V30 2872 H 274.36 -4.21394 0.0216739 0
M  V30 2873 H 273.035 -3.18362 -0.585431 0
M  V30 2874 H 271.942 -3.318 1.72799 0
M  V30 2875 H 273.275 -4.37452 2.25602 0
M  V30 2876 N 274.927 -0.932562 -1.27047 0
M  V30 2877 C 276.173 -0.576412 -1.94436 0
M  V30 2878 C 276.506 0.880891 -1.73072 0
M  V30 2879 O 275.781 1.62905 -1.06264 0
M  V30 2880 C 276.064 -0.909031 -3.48437 0
M  V30 2881 C 275.917 -2.42044 -3.79123 0
M  V30 2882 C 277.236 -0.418341 -4.38107 0
M  V30 2883 H 274.355 -0.210888 -0.706184 0
M  V30 2884 H 276.997 -1.16522 -1.50075 0
M  V30 2885 H 275.147 -0.407947 -3.86352 0
M  V30 2886 H 276.819 -2.99359 -3.50973 0
M  V30 2887 H 275.062 -2.86758 -3.25503 0
M  V30 2888 H 275.733 -2.6037 -4.86736 0
M  V30 2889 H 278.209 -0.847856 -4.0737 0
M  V30 2890 H 277.085 -0.679981 -5.44672 0
M  V30 2891 H 277.346 0.681642 -4.36814 0
M  V30 2892 N 276.405 1.4127 -0.698611 0
M  V30 2893 C 277.63 2.06024 -0.238512 0
M  V30 2894 C 278.055 1.5224 1.10475 0
M  V30 2895 O 277.413 0.650623 1.69223 0
M  V30 2896 C 277.461 3.59988 -0.209952 0
M  V30 2897 O 276.565 4.04282 0.814235 0
M  V30 2898 H 275.906 0.653829 -0.115775 0
M  V30 2899 H 278.436 1.8098 -0.954326 0
M  V30 2900 H 278.446 4.07979 -0.0418436 0
M  V30 2901 H 277.121 3.98503 -1.1903 0
M  V30 2902 H 275.698 3.6779 0.615234 0
M  V30 2903 N 277.883 0.443576 1.51229 0
M  V30 2904 C 278.793 -0.370721 2.31652 0
M  V30 2905 C 279.809 -1.02186 1.40833 0
M  V30 2906 O 280.985 -1.01586 1.73903 0
M  V30 2907 C 278.05 -1.45376 3.14749 0
M  V30 2908 C 277.111 -0.822099 4.21355 0
M  V30 2909 C 276.344 -1.85353 5.0048 0
M  V30 2910 O 276.567 -3.07656 4.80316 0
M  V30 2911 O 275.501 -1.4406 5.84406 0
M  V30 2912 H 279.327 0.286002 3.0235 0
M  V30 2913 H 276.912 0.20598 1.47973 0
M  V30 2914 H 278.794 -2.08173 3.66391 0
M  V30 2915 H 277.469 -2.09445 2.46809 0
M  V30 2916 H 276.376 -0.155909 3.73775 0
M  V30 2917 H 277.709 -0.224797 4.91686 0
M  V30 2918 N 279.361 -1.56624 0.175154 0
M  V30 2919 C 280.777 -1.58571 -0.180966 0
M  V30 2920 C 280.977 -1.19065 -1.6256 0
M  V30 2921 O 280.033 -0.904044 -2.35761 0
M  V30 2922 C 281.346 -3.00522 0.103326 0
M  V30 2923 C 282.894 -3.12972 0.0418426 0
M  V30 2924 C 283.369 -4.57022 0.299175 0
M  V30 2925 N 284.86 -4.62541 0.247086 0
M  V30 2926 C 285.595 -5.71857 0.420318 0
M  V30 2927 N 285.091 -6.89717 0.652816 0
M  V30 2928 N 286.884 -5.60972 0.355957 0
M  V30 2929 H 279.035 -1.80589 1.11809 0
M  V30 2930 H 281.298 -0.837178 0.444788 0
M  V30 2931 H 281.004 -3.33916 1.10422 0
M  V30 2932 H 280.878 -3.72344 -0.603299 0
M  V30 2933 H 283.265 -2.79403 -0.949636 0
M  V30 2934 H 283.346 -2.43578 0.781238 0
M  V30 2935 H 282.99 -4.913 1.28788 0
M  V30 2936 H 282.92 -5.24579 -0.460876 0
M  V30 2937 H 285.411 -3.77829 0.0731895 0
M  V30 2938 H 285.724 -7.68911 0.774347 0
M  V30 2939 H 284.069 -6.91572 0.689476 0
M  V30 2940 H 287.26 -4.67773 0.174882 0
M  V30 2941 H 287.433 -6.46111 0.494388 0
M  V30 2942 N 280.839 0.0985539 -1.57292 0
M  V30 2943 C 281.802 1.10402 -2.00858 0
M  V30 2944 C 282.802 1.33146 -0.901593 0
M  V30 2945 O 283.992 1.29318 -1.16716 0
M  V30 2946 C 281.124 2.45394 -2.36632 0
M  V30 2947 H 282.317 0.729099 -2.90902 0
M  V30 2948 H 279.87 0.343495 -1.52479 0
M  V30 2949 H 280.605 2.87769 -1.49531 0
M  V30 2950 H 280.39 2.30235 -3.17387 0
M  V30 2951 H 281.88 3.17718 -2.71007 0
M  V30 2952 N 282.317 1.53212 0.369288 0
M  V30 2953 C 283.264 1.79388 1.45219 0
M  V30 2954 C 284.234 0.638059 1.53356 0
M  V30 2955 O 285.419 0.879852 1.69302 0
M  V30 2956 C 282.559 1.98623 2.82211 0
M  V30 2957 C 281.672 3.26337 2.8307 0
M  V30 2958 C 280.807 3.35779 4.11614 0
M  V30 2959 C 279.846 4.5754 4.06601 0
M  V30 2960 N 278.983 4.64155 5.26787 0
M  V30 2961 H 283.823 2.71794 1.22198 0
M  V30 2962 H 281.36 1.34642 0.592444 0
M  V30 2963 H 283.318 2.07761 3.61789 0
M  V30 2964 H 281.948 1.09558 3.03639 0
M  V30 2965 H 281 3.26171 1.95747 0
M  V30 2966 H 282.312 4.15988 2.75237 0
M  V30 2967 H 281.466 3.44208 4.99606 0
M  V30 2968 H 280.205 2.44137 4.22195 0
M  V30 2969 H 279.21 4.49215 3.16996 0
M  V30 2970 H 280.435 5.50519 3.97625 0
M  V30 2971 H 278.381 3.75413 5.3796 0
M  V30 2972 H 278.298 5.47706 5.21109 0
M  V30 2973 H 279.566 4.76863 6.16621 0
M  V30 2974 N 283.795 -0.628877 1.44509 0
M  V30 2975 C 284.743 -1.76193 1.51852 0
M  V30 2976 C 285.737 -1.64849 0.390042 0
M  V30 2977 O 286.943 -1.709 0.565082 0
M  V30 2978 H 283.318 -0.581728 0.476547 0
M  V30 2979 H 285.289 -1.67123 2.47209 0
M  V30 2980 C 284.038 -3.14533 1.48204 0
M  V30 2981 H 283.361 -3.23911 2.34354 0
M  V30 2982 H 284.801 -3.93701 1.57402 0
M  V30 2983 C 283.26 -3.36287 0.203142 0
M  V30 2984 O 283.79 -3.9509 -0.725745 0
M  V30 2985 N 281.996 -2.90408 0.105563 0
M  V30 2986 H 281.543 -2.42739 0.862301 0
M  V30 2987 H 281.501 -3.05339 -0.749371 0
M  V30 2988 N 285.273 -1.31445 -0.869486 0
M  V30 2989 C 286.183 -1.21097 -2.0093 0
M  V30 2990 C 287.199 -0.127584 -1.73532 0
M  V30 2991 O 288.375 -0.345477 -1.98415 0
M  V30 2992 C 285.44 -0.919378 -3.34288 0
M  V30 2993 C 284.501 -2.08971 -3.75006 0
M  V30 2994 C 283.734 -1.81194 -5.02001 0
M  V30 2995 O 283.957 -0.747296 -5.65484 0
M  V30 2996 O 282.891 -2.66883 -5.39497 0
M  V30 2997 H 286.717 -2.16883 -2.12592 0
M  V30 2998 H 284.302 -1.11189 -0.997868 0
M  V30 2999 H 286.184 -0.772625 -4.14257 0
M  V30 3000 H 284.859 0.00844772 -3.23699 0
M  V30 3001 H 283.766 -2.29187 -2.95676 0
M  V30 3002 H 285.099 -2.9998 -3.90221 0
M  V30 3003 N 286.751 1.08385 -1.14413 0
M  V30 3004 C 287.684 2.14642 -0.774871 0
M  V30 3005 C 288.662 1.60761 0.243876 0
M  V30 3006 O 289.846 1.88031 0.132883 0
M  V30 3007 C 286.973 3.38366 -0.150491 0
M  V30 3008 C 286.019 4.10997 -1.13945 0
M  V30 3009 S 286.852 4.63797 -2.67679 0
M  V30 3010 C 288.008 5.90808 -2.06631 0
M  V30 3011 H 288.241 2.45633 -1.67487 0
M  V30 3012 H 285.774 1.20498 -0.96538 0
M  V30 3013 H 287.732 4.09996 0.203334 0
M  V30 3014 H 286.393 3.05572 0.72694 0
M  V30 3015 H 285.586 4.99783 -0.65059 0
M  V30 3016 H 285.188 3.4528 -1.43727 0
M  V30 3017 H 287.48 6.62411 -1.4219 0
M  V30 3018 H 288.423 6.4439 -2.93542 0
M  V30 3019 H 288.831 5.4383 -1.51357 0
M  V30 3020 N 288.23 0.939286 1.26551 0
M  V30 3021 C 289.178 0.43815 2.28436 0
M  V30 3022 C 290.172 -0.483587 1.62351 0
M  V30 3023 O 291.378 -0.362009 1.76322 0
M  V30 3024 H 287.753 0.123149 0.741848 0
M  V30 3025 H 289.724 1.31002 2.68106 0
M  V30 3026 C 288.473 -0.283052 3.46546 0
M  V30 3027 H 287.796 0.417043 3.97619 0
M  V30 3028 H 289.236 -0.597948 4.19763 0
M  V30 3029 C 287.695 -1.50018 3.01656 0
M  V30 3030 O 288.225 -2.59855 3.0633 0
M  V30 3031 N 286.431 -1.35608 2.57019 0
M  V30 3032 H 285.978 -0.46244 2.53415 0
M  V30 3033 H 285.936 -2.17165 2.27347 0
M  V30 3034 N 289.708 -1.40897 0.706093 0
M  V30 3035 C 290.671 -2.29131 0.0562841 0
M  V30 3036 C 291.671 -1.44901 -0.697166 0
M  V30 3037 O 292.861 -1.65926 -0.530484 0
M  V30 3038 C 289.993 -3.27957 -0.93043 0
M  V30 3039 H 291.186 -2.88091 0.833284 0
M  V30 3040 H 288.739 -1.4906 0.470192 0
M  V30 3041 H 289.474 -2.73997 -1.73482 0
M  V30 3042 H 289.259 -3.90124 -0.393166 0
M  V30 3043 H 290.749 -3.94049 -1.38256 0
M  V30 3044 N 291.186 -0.45159 -1.50991 0
M  V30 3045 C 292.416 0.108177 -2.06317 0
M  V30 3046 C 292.824 1.35774 -1.31765 0
M  V30 3047 O 292.167 1.79838 -0.374694 0
M  V30 3048 C 292.229 0.481659 -3.56259 0
M  V30 3049 C 291.893 -0.663114 -4.52163 0
M  V30 3050 C 292.89 -1.53947 -4.96585 0
M  V30 3051 C 290.575 -0.8479 -4.95092 0
M  V30 3052 C 292.569 -2.58518 -5.82621 0
M  V30 3053 C 290.256 -1.89686 -5.80915 0
M  V30 3054 C 291.254 -2.76388 -6.24579 0
M  V30 3055 O 290.942 -3.79482 -7.08695 0
M  V30 3056 H 290.674 0.00499183 -0.675982 0
M  V30 3057 H 293.228 -0.633659 -1.95381 0
M  V30 3058 H 291.458 1.27641 -3.65027 0
M  V30 3059 H 293.147 0.974233 -3.94035 0
M  V30 3060 H 293.913 -1.4083 -4.64103 0
M  V30 3061 H 289.792 -0.18258 -4.60638 0
M  V30 3062 H 293.336 -3.26224 -6.16623 0
M  V30 3063 H 289.233 -2.02817 -6.12809 0
M  V30 3064 H 290.001 -3.76234 -7.26905 0
M  V30 3065 N 292.664 1.56529 -0.183458 0
M  V30 3066 C 293.911 1.97244 0.458357 0
M  V30 3067 C 294.239 1.06992 1.62428 0
M  V30 3068 O 293.494 0.106542 1.9541 0
M  V30 3069 C 293.793 3.43939 0.971637 0
M  V30 3070 C 293.459 4.5083 -0.0796784 0
M  V30 3071 C 292.121 4.79786 -0.368584 0
M  V30 3072 C 294.473 5.15138 -0.792638 0
M  V30 3073 C 291.801 5.70345 -1.37563 0
M  V30 3074 C 294.153 6.06784 -1.78875 0
M  V30 3075 C 292.817 6.34102 -2.08497 0
M  V30 3076 H 292.087 0.721768 0.167725 0
M  V30 3077 H 294.734 1.89472 -0.277976 0
M  V30 3078 H 293.039 3.48724 1.78602 0
M  V30 3079 H 294.736 3.72791 1.47744 0
M  V30 3080 H 291.326 4.28317 0.155668 0
M  V30 3081 H 295.51 4.92868 -0.582659 0
M  V30 3082 H 290.766 5.89789 -1.61118 0
M  V30 3083 H 294.94 6.55677 -2.3465 0
M  V30 3084 H 292.567 7.04074 -2.86678 0
M  V30 3085 N 294.142 -0.090211 1.57342 0
M  V30 3086 C 295.367 -0.810082 1.90925 0
M  V30 3087 C 295.792 -1.71248 0.778187 0
M  V30 3088 O 295.15 -1.79278 -0.269991 0
M  V30 3089 C 295.198 -1.59529 3.23393 0
M  V30 3090 O 294.302 -2.70461 3.11327 0
M  V30 3091 H 293.643 -0.222231 0.625707 0
M  V30 3092 H 296.173 -0.0639716 2.045 0
M  V30 3093 H 296.183 -1.97847 3.5682 0
M  V30 3094 H 294.858 -0.933055 4.05299 0
M  V30 3095 H 293.435 -2.35135 2.89423 0
M  V30 3096 N 295.62 -1.53406 -0.361157 0
M  V30 3097 C 296.897 -1.60411 -1.11927 0
M  V30 3098 C 297.277 -0.414385 -2.06993 0
M  V30 3099 O 296.625 0.594976 -2.20618 0
M  V30 3100 C 296.835 -2.95652 -1.85448 0
M  V30 3101 C 298.183 -3.50386 -2.39823 0
M  V30 3102 O 299.207 -2.97711 -1.95568 0
M  V30 3103 O 298.066 -4.42482 -3.20737 0
M  V30 3104 H 295.16 -0.64811 -0.513695 0
M  V30 3105 H 297.706 -1.65749 -0.364065 0
M  V30 3106 H 296.478 -3.73682 -1.16091 0
M  V30 3107 H 296.101 -2.93825 -2.67866 0
M  V30 3108 N 297.098 0.621204 -1.44841 0
M  V30 3109 C 298.028 1.74366 -1.55303 0
M  V30 3110 C 299.009 1.65199 -0.405385 0
M  V30 3111 O 300.194 1.83807 -0.626787 0
M  V30 3112 C 297.324 3.12931 -1.50637 0
M  V30 3113 C 296.278 3.36896 -2.63979 0
M  V30 3114 C 295.604 4.75594 -2.44366 0
M  V30 3115 C 296.904 3.28483 -4.06074 0
M  V30 3116 H 298.598 1.65867 -2.49256 0
M  V30 3117 H 296.144 0.796558 -1.19962 0
M  V30 3118 H 298.097 3.9124 -1.56555 0
M  V30 3119 H 296.821 3.22237 -0.532057 0
M  V30 3120 H 295.48 2.60972 -2.57467 0
M  V30 3121 H 295.128 4.81616 -1.45105 0
M  V30 3122 H 294.828 4.92586 -3.20364 0
M  V30 3123 H 296.352 5.5612 -2.52117 0
M  V30 3124 H 297.766 3.96684 -4.13902 0
M  V30 3125 H 296.163 3.57008 -4.82354 0
M  V30 3126 H 297.233 2.26133 -4.28943 0
M  V30 3127 N 298.576 1.31904 0.862503 0
M  V30 3128 C 299.825 1.21373 1.61094 0
M  V30 3129 C 300.138 -0.22504 1.94301 0
M  V30 3130 O 301.344 -0.452121 2.67709 0
M  V30 3131 C 299.8 2.12525 2.9045 0
M  V30 3132 C 299.408 3.61441 2.64697 0
M  V30 3133 C 301.152 2.10813 3.68454 0
M  V30 3134 C 299.059 4.44578 3.90006 0
M  V30 3135 H 297.989 0.450705 0.604468 0
M  V30 3136 H 300.64 1.56811 0.953027 0
M  V30 3137 H 299.022 1.69994 3.57656 0
M  V30 3138 H 300.196 4.12264 2.05851 0
M  V30 3139 H 298.511 3.65205 2.00036 0
M  V30 3140 H 301.108 2.70167 4.61426 0
M  V30 3141 H 301.451 1.09713 4.01583 0
M  V30 3142 H 301.984 2.51583 3.08141 0
M  V30 3143 H 298.723 5.46461 3.62023 0
M  V30 3144 H 298.243 3.98508 4.48276 0
M  V30 3145 H 299.922 4.57176 4.5782 0
M  V30 3146 N 300.054 -1.07777 1.14986 0
M  V30 3147 C 301.302 -1.79934 0.920235 0
M  V30 3148 C 301.623 -1.86955 -0.554336 0
M  V30 3149 O 300.893 -1.36731 -1.40291 0
M  V30 3150 H 299.473 -0.666424 0.337473 0
M  V30 3151 H 302.135 -1.3027 1.44968 0
M  V30 3152 H 301.231 -2.82539 1.32583 0
M  V30 3153 N 301.532 -0.945985 -1.26051 0
M  V30 3154 C 302.462 -0.477172 -2.28572 0
M  V30 3155 C 303.443 0.472032 -1.63419 0
M  V30 3156 O 304.628 0.372853 -1.90587 0
M  V30 3157 C 301.758 0.253975 -3.4637 0
M  V30 3158 C 300.712 -0.609135 -4.23643 0
M  V30 3159 C 300.038 0.252252 -5.34105 0
M  V30 3160 C 301.338 -1.8829 -4.8718 0
M  V30 3161 H 303.032 -1.33402 -2.68038 0
M  V30 3162 H 300.578 -0.642904 -1.28852 0
M  V30 3163 H 302.531 0.593016 -4.17207 0
M  V30 3164 H 301.255 1.145 -3.05871 0
M  V30 3165 H 299.914 -0.931138 -3.54578 0
M  V30 3166 H 299.562 1.14278 -4.89846 0
M  V30 3167 H 299.262 -0.32188 -5.86718 0
M  V30 3168 H 300.786 0.586454 -6.07777 0
M  V30 3169 H 302.2 -1.61081 -5.50205 0
M  V30 3170 H 300.597 -2.40199 -5.49931 0
M  V30 3171 H 301.667 -2.59134 -4.09851 0
M  V30 3172 N 303.011 1.40521 -0.713556 0
M  V30 3173 C 304.427 1.54839 -0.386907 0
M  V30 3174 C 304.627 1.68532 1.1045 0
M  V30 3175 O 303.683 1.67377 1.89053 0
M  V30 3176 C 304.996 2.77792 -1.15118 0
M  V30 3177 C 306.544 2.91607 -1.13729 0
M  V30 3178 C 307.019 4.1747 -1.88368 0
M  V30 3179 N 308.51 4.24466 -1.85427 0
M  V30 3180 C 309.245 5.20755 -2.40004 0
M  V30 3181 N 308.741 6.22965 -3.03129 0
M  V30 3182 N 310.534 5.1282 -2.30158 0
M  V30 3183 H 302.685 1.29879 -1.68063 0
M  V30 3184 H 304.948 0.627896 -0.710247 0
M  V30 3185 H 304.654 2.73944 -2.20561 0
M  V30 3186 H 304.528 3.6984 -0.741477 0
M  V30 3187 H 306.915 2.94959 -0.0910608 0
M  V30 3188 H 306.996 2.00682 -1.5862 0
M  V30 3189 H 306.64 4.1488 -2.9298 0
M  V30 3190 H 306.57 5.074 -1.40898 0
M  V30 3191 H 309.061 3.51241 -1.3942 0
M  V30 3192 H 309.374 6.92859 -3.42295 0
M  V30 3193 H 307.719 6.23415 -3.07212 0
M  V30 3194 H 310.91 4.31899 -1.80501 0
M  V30 3195 H 311.083 5.87689 -2.72993 0
M  V30 3196 N 304.489 0.459591 1.5075 0
M  V30 3197 C 305.714 -0.0996819 2.0716 0
M  V30 3198 C 306.139 -1.33761 1.32249 0
M  V30 3199 O 305.497 -1.77551 0.366786 0
M  V30 3200 C 305.545 -0.378226 3.58611 0
M  V30 3201 O 304.649 -1.46081 3.85661 0
M  V30 3202 H 303.99 0.00791392 0.663953 0
M  V30 3203 H 306.52 0.647329 1.9409 0
M  V30 3204 H 306.53 -0.622135 4.03229 0
M  V30 3205 H 305.205 0.526439 4.12555 0
M  V30 3206 H 303.782 -1.20511 3.5289 0
M  V30 3207 N 305.967 -1.56429 0.191757 0
M  V30 3208 C 307.244 -1.89224 -0.495332 0
M  V30 3209 C 307.624 -1.10478 -1.79883 0
M  V30 3210 O 306.972 -0.204852 -2.2758 0
M  V30 3211 C 307.182 -3.41548 -0.717367 0
M  V30 3212 C 308.53 -4.11711 -1.03823 0
M  V30 3213 O 309.554 -3.4698 -0.805204 0
M  V30 3214 O 308.413 -5.2611 -1.47887 0
M  V30 3215 H 305.507 -0.785788 -0.25781 0
M  V30 3216 H 308.053 -1.68111 0.231721 0
M  V30 3217 H 306.825 -3.90772 0.203287 0
M  V30 3218 H 306.448 -3.68342 -1.497 0
M  V30 3219 N 307.445 0.0818655 -1.57387 0
M  V30 3220 C 308.67 0.799946 -1.91352 0
M  V30 3221 C 309.095 1.70833 -0.787258 0
M  V30 3222 O 308.453 1.79419 0.26048 0
M  V30 3223 C 308.501 1.57812 -3.24234 0
M  V30 3224 O 307.605 2.68806 -3.12757 0
M  V30 3225 H 306.946 0.21891 -0.626877 0
M  V30 3226 H 309.476 0.0531256 -2.04531 0
M  V30 3227 H 309.486 1.95952 -3.57864 0
M  V30 3228 H 308.161 0.911548 -4.05788 0
M  V30 3229 H 306.738 2.33597 -2.90666 0
M  V30 3230 N 308.923 1.53595 0.353017 0
M  V30 3231 C 309.886 1.80232 1.41594 0
M  V30 3232 C 310.886 0.673081 1.46035 0
M  V30 3233 O 312.076 0.941335 1.46576 0
M  V30 3234 C 309.208 1.93578 2.80607 0
M  V30 3235 H 310.401 2.75174 1.19244 0
M  V30 3236 H 307.954 1.44864 0.586872 0
M  V30 3237 H 308.689 1.00746 3.08254 0
M  V30 3238 H 308.474 2.75724 2.78781 0
M  V30 3239 H 309.964 2.15735 3.57558 0
M  V30 3240 N 310.401 -0.613514 1.45168 0
M  V30 3241 C 311.649 -1.36997 1.48581 0
M  V30 3242 C 311.97 -1.94589 0.126545 0
M  V30 3243 O 311.24 -1.76816 -0.843372 0
M  V30 3244 H 309.82 -0.508558 0.547154 0
M  V30 3245 H 312.482 -0.720853 1.81079 0
M  V30 3246 H 311.578 -2.1924 2.22127 0
M  V30 3247 N 311.879 -1.3236 -0.855495 0
M  V30 3248 C 312.789 -1.23221 -1.99634 0
M  V30 3249 C 313.805 -0.145983 -1.73387 0
M  V30 3250 O 314.981 -0.366502 -1.98037 0
M  V30 3251 C 312.046 -0.954782 -3.33294 0
M  V30 3252 C 311.107 -2.12937 -3.72769 0
M  V30 3253 C 310.34 -1.86508 -5.00051 0
M  V30 3254 O 310.563 -0.807231 -5.64659 0
M  V30 3255 O 309.497 -2.72591 -5.36636 0
M  V30 3256 H 313.323 -2.19126 -2.1028 0
M  V30 3257 H 310.908 -1.12241 -0.986018 0
M  V30 3258 H 312.79 -0.816519 -4.13414 0
M  V30 3259 H 311.465 -0.0258854 -3.2369 0
M  V30 3260 H 310.372 -2.3231 -2.93228 0
M  V30 3261 H 311.705 -3.04102 -3.87018 0
M  V30 3262 N 313.357 1.07166 -1.15556 0
M  V30 3263 C 314.634 1.76546 -0.842069 0
M  V30 3264 C 315.014 2.00453 0.661939 0
M  V30 3265 O 314.362 1.62452 1.60691 0
M  V30 3266 C 314.572 3.07266 -1.65495 0
M  V30 3267 C 315.92 3.81578 -1.86234 0
M  V30 3268 O 316.944 3.17083 -1.62287 0
M  V30 3269 O 315.803 4.97419 -2.26355 0
M  V30 3270 H 312.897 0.766756 -0.309862 0
M  V30 3271 H 315.443 1.13514 -1.26145 0
M  V30 3272 H 314.215 2.85494 -2.67598 0
M  V30 3273 H 313.838 3.7803 -1.23203 0
M  V30 3274 N 314.835 0.952656 1.25548 0
M  V30 3275 C 316.081 0.607272 1.93494 0
M  V30 3276 C 316.414 -0.853245 1.74452 0
M  V30 3277 O 315.689 -1.61194 1.08843 0
M  V30 3278 C 315.972 0.96435 3.46947 0
M  V30 3279 C 315.825 2.48045 3.75225 0
M  V30 3280 C 317.144 0.487987 4.37386 0
M  V30 3281 H 314.263 0.222096 0.702739 0
M  V30 3282 H 316.905 1.18895 1.48203 0
M  V30 3283 H 315.055 0.469361 3.85654 0
M  V30 3284 H 316.727 3.04905 3.46166 0
M  V30 3285 H 314.97 2.919 3.209 0
M  V30 3286 H 315.641 2.6808 4.82532 0
M  V30 3287 H 318.117 0.912558 4.0597 0
M  V30 3288 H 316.993 0.766547 5.43521 0
M  V30 3289 H 317.254 -0.612063 4.37843 0
M  V30 3290 N 316.313 -1.40141 0.720998 0
M  V30 3291 C 317.541 -2.05096 0.272656 0
M  V30 3292 C 317.956 -1.54334 -1.0875 0
M  V30 3293 O 317.313 -0.702211 -1.6845 0
M  V30 3294 C 317.364 -3.60636 0.249835 0
M  V30 3295 O 317.085 -4.09526 1.55629 0
M  V30 3296 C 318.586 -4.42772 -0.216396 0
M  V30 3297 H 315.806 -0.659897 0.121558 0
M  V30 3298 H 318.35 -1.79449 0.980723 0
M  V30 3299 H 316.505 -3.85232 -0.409237 0
M  V30 3300 H 316.919 -5.03758 1.4604 0
M  V30 3301 H 318.393 -5.51702 -0.181212 0
M  V30 3302 H 318.87 -4.20756 -1.25941 0
M  V30 3303 H 319.476 -4.23294 0.412596 0
M  V30 3304 N 317.792 -0.46758 -1.50504 0
M  V30 3305 C 319.017 0.0886943 -2.0721 0
M  V30 3306 C 319.442 1.33057 -1.32956 0
M  V30 3307 O 318.8 1.77354 -0.376197 0
M  V30 3308 C 318.848 0.359202 -3.58806 0
M  V30 3309 O 317.952 1.44034 -3.8643 0
M  V30 3310 H 317.293 -0.0114349 -0.663902 0
M  V30 3311 H 319.823 -0.657613 -1.93744 0
M  V30 3312 H 319.833 0.600742 -4.03553 0
M  V30 3313 H 318.508 -0.548311 -4.1227 0
M  V30 3314 H 317.085 1.18638 -3.53524 0
M  V30 3315 N 319.27 1.56325 -0.20005 0
M  V30 3316 C 320.2 2.22318 0.713916 0
M  V30 3317 C 321.181 1.18788 1.21752 0
M  V30 3318 O 322.366 1.47309 1.26545 0
M  V30 3319 C 319.496 2.88639 1.93144 0
M  V30 3320 C 318.45 3.98457 1.56255 0
M  V30 3321 C 317.776 4.51967 2.85709 0
M  V30 3322 C 319.076 5.16612 0.768747 0
M  V30 3323 H 320.77 2.98952 0.163755 0
M  V30 3324 H 318.316 1.43792 0.0773219 0
M  V30 3325 H 320.269 3.33491 2.57608 0
M  V30 3326 H 318.993 2.09419 2.50621 0
M  V30 3327 H 317.652 3.54305 0.941471 0
M  V30 3328 H 317.3 3.69503 3.41287 0
M  V30 3329 H 317 5.26071 2.6177 0
M  V30 3330 H 318.524 4.99523 3.51154 0
M  V30 3331 H 319.938 5.57977 1.3166 0
M  V30 3332 H 318.335 5.96812 0.627286 0
M  V30 3333 H 319.405 4.84358 -0.229168 0
M  V30 3334 N 320.748 -0.0735177 1.57428 0
M  V30 3335 C 321.678 -1.0879 2.06608 0
M  V30 3336 C 322.659 -1.40473 0.959237 0
M  V30 3337 O 323.844 -1.5013 1.23185 0
M  V30 3338 C 320.974 -2.40183 2.50857 0
M  V30 3339 C 319.928 -2.22858 3.65402 0
M  V30 3340 C 319.254 -3.59619 3.957 0
M  V30 3341 C 320.554 -1.65123 4.95511 0
M  V30 3342 H 322.248 -0.678673 2.91607 0
M  V30 3343 H 319.794 -0.325013 1.40284 0
M  V30 3344 H 321.747 -3.11437 2.83874 0
M  V30 3345 H 320.471 -2.83083 1.62885 0
M  V30 3346 H 319.13 -1.54045 3.32664 0
M  V30 3347 H 318.778 -4.00086 3.04861 0
M  V30 3348 H 318.478 -3.48866 4.72828 0
M  V30 3349 H 320.002 -4.32306 4.31212 0
M  V30 3350 H 321.416 -2.26241 5.26771 0
M  V30 3351 H 319.813 -1.65071 5.7695 0
M  V30 3352 H 320.883 -0.612559 4.81015 0
M  V30 3353 N 322.226 -1.5378 -0.344866 0
M  V30 3354 C 323.474 -1.70625 -1.08311 0
M  V30 3355 C 323.795 -0.471447 -1.89215 0
M  V30 3356 O 323.065 0.514616 -1.8902 0
M  V30 3357 H 321.645 -0.629058 -0.402859 0
M  V30 3358 H 324.307 -1.9103 -0.386459 0
M  V30 3359 H 323.403 -2.57656 -1.76124 0
M  V30 3360 N 323.704 0.605807 -1.45491 0
M  V30 3361 C 324.667 1.69836 -1.5391 0
M  V30 3362 C 325.667 1.55261 -0.418424 0
M  V30 3363 O 326.857 1.60296 -0.681965 0
M  V30 3364 C 323.989 3.09117 -1.43734 0
M  V30 3365 H 325.182 1.63738 -2.51257 0
M  V30 3366 H 322.735 0.821689 -1.32959 0
M  V30 3367 H 323.47 3.20791 -0.475788 0
M  V30 3368 H 323.255 3.21104 -2.25021 0
M  V30 3369 H 324.745 3.88696 -1.52661 0
M  V30 3370 N 325.182 1.32811 0.848464 0
M  V30 3371 C 326.145 1.22194 1.9391 0
M  V30 3372 C 327.145 0.143404 1.60159 0
M  V30 3373 O 328.335 0.394253 1.6968 0
M  V30 3374 C 325.467 0.88067 3.29328 0
M  V30 3375 H 326.66 2.19127 2.04752 0
M  V30 3376 H 324.213 1.16731 1.0394 0
M  V30 3377 H 324.948 -0.0865776 3.24184 0
M  V30 3378 H 324.733 1.66052 3.55203 0
M  V30 3379 H 326.223 0.830871 4.09251 0
M  V30 3380 N 326.66 -1.06551 1.16123 0
M  V30 3381 C 327.906 -1.79567 0.94252 0
M  V30 3382 C 328.239 -1.86869 -0.528547 0
M  V30 3383 O 327.514 -1.35838 -1.39206 0
M  V30 3384 C 327.797 -3.24195 1.56747 0
M  V30 3385 C 327.65 -3.24989 3.10969 0
M  V30 3386 C 328.969 -4.21678 1.25998 0
M  V30 3387 H 326.088 -0.651883 0.343828 0
M  V30 3388 H 328.73 -1.2463 1.43413 0
M  V30 3389 H 326.88 -3.71107 1.14942 0
M  V30 3390 H 328.552 -2.86258 3.61737 0
M  V30 3391 H 326.795 -2.63716 3.44436 0
M  V30 3392 H 327.466 -4.27005 3.49815 0
M  V30 3393 H 329.942 -3.83196 1.62174 0
M  V30 3394 H 328.818 -5.21146 1.7233 0
M  V30 3395 H 329.079 -4.4174 0.178367 0
M  V30 3396 N 328.138 -0.959301 -1.25041 0
M  V30 3397 C 329.386 -0.615393 -1.92503 0
M  V30 3398 C 329.707 0.850969 -1.75452 0
M  V30 3399 O 328.977 1.60658 -1.12098 0
M  V30 3400 H 327.557 -0.224613 -0.712431 0
M  V30 3401 H 330.219 -1.21855 -1.5211 0
M  V30 3402 H 329.315 -0.848738 -3.00338 0
M  V30 3403 N 329.616 1.39756 -0.72842 0
M  V30 3404 C 331.032 1.5442 -0.403308 0
M  V30 3405 C 331.232 1.69694 1.08656 0
M  V30 3406 O 330.288 1.69373 1.87267 0
M  V30 3407 C 331.601 2.76555 -1.18058 0
M  V30 3408 C 333.149 2.90384 -1.16815 0
M  V30 3409 C 333.624 4.15449 -1.92785 0
M  V30 3410 N 335.115 4.22475 -1.89918 0
M  V30 3411 C 335.85 5.1818 -2.45514 0
M  V30 3412 N 335.346 6.19714 -3.09719 0
M  V30 3413 N 337.139 5.1035 -2.35584 0
M  V30 3414 H 329.29 1.28089 -1.69431 0
M  V30 3415 H 331.553 0.620327 -0.716867 0
M  V30 3416 H 331.259 2.7159 -2.23455 0
M  V30 3417 H 331.133 3.69033 -0.780662 0
M  V30 3418 H 333.52 2.94846 -0.12234 0
M  V30 3419 H 333.601 1.98988 -1.6074 0
M  V30 3420 H 333.245 4.11749 -2.97364 0
M  V30 3421 H 333.175 5.05877 -1.46272 0
M  V30 3422 H 335.666 3.49743 -1.43138 0
M  V30 3423 H 335.979 6.8919 -3.49625 0
M  V30 3424 H 334.324 6.20121 -3.13807 0
M  V30 3425 H 337.515 4.2996 -1.85072 0
M  V30 3426 H 337.688 5.84761 -2.79211 0
M  V30 3427 N 331.094 0.475555 1.50254 0
M  V30 3428 C 332.371 -0.139685 1.95101 0
M  V30 3429 C 332.751 -1.56555 1.41611 0
M  V30 3430 O 332.099 -2.19956 0.618993 0
M  V30 3431 C 332.309 -0.0784298 3.48912 0
M  V30 3432 C 333.657 -0.265095 4.23772 0
M  V30 3433 O 334.681 -0.154808 3.55863 0
M  V30 3434 O 333.54 -0.488327 5.44314 0
M  V30 3435 H 330.634 -0.109236 0.819754 0
M  V30 3436 H 333.18 0.536276 1.61004 0
M  V30 3437 H 331.952 0.916918 3.80405 0
M  V30 3438 H 331.575 -0.795655 3.89558 0
M  V30 3439 N 332.573 -1.56217 0.208337 0
M  V30 3440 C 333.483 -2.23316 -0.718836 0
M  V30 3441 C 334.499 -1.23648 -1.22422 0
M  V30 3442 O 335.675 -1.56423 -1.26861 0
M  V30 3443 C 332.74 -2.88968 -1.91568 0
M  V30 3444 C 331.801 -4.03943 -1.45357 0
M  V30 3445 C 331.034 -4.66455 -2.59337 0
M  V30 3446 O 331.257 -4.27919 -3.77149 0
M  V30 3447 O 330.191 -5.55686 -2.31293 0
M  V30 3448 H 334.017 -3.03182 -0.177315 0
M  V30 3449 H 331.602 -1.49384 -0.0215402 0
M  V30 3450 H 333.484 -3.30455 -2.61491 0
M  V30 3451 H 332.159 -2.12071 -2.44556 0
M  V30 3452 H 331.066 -3.67052 -0.722746 0
M  V30 3453 H 332.399 -4.82543 -0.970219 0
M  V30 3454 N 334.051 0.0651679 -1.57465 0
M  V30 3455 C 335.3 0.761916 -1.86756 0
M  V30 3456 C 335.613 1.78406 -0.801925 0
M  V30 3457 O 336.819 2.53084 -0.982885 0
M  V30 3458 C 335.275 1.40603 -3.31299 0
M  V30 3459 C 334.883 0.422115 -4.46007 0
M  V30 3460 C 336.627 2.08476 -3.69781 0
M  V30 3461 C 334.534 1.07252 -5.81593 0
M  V30 3462 H 333.464 0.288308 -0.696702 0
M  V30 3463 H 336.115 0.015344 -1.83494 0
M  V30 3464 H 334.497 2.20109 -3.29193 0
M  V30 3465 H 335.671 -0.343613 -4.59517 0
M  V30 3466 H 333.986 -0.152527 -4.16121 0
M  V30 3467 H 336.583 2.57925 -4.68379 0
M  V30 3468 H 336.926 2.88712 -2.99919 0
M  V30 3469 H 337.459 1.35792 -3.73905 0
M  V30 3470 H 334.198 0.310342 -6.54765 0
M  V30 3471 H 333.718 1.80895 -5.71872 0
M  V30 3472 H 335.397 1.59043 -6.27148 0
M  V30 3473 N 335.529 1.53961 0.336706 0
M  V30 3474 C 336.757 1.75483 1.09605 0
M  V30 3475 C 337.172 0.4972 1.82136 0
M  V30 3476 O 336.529 -0.53149 1.74589 0
M  V30 3477 C 336.58 2.93943 2.10428 0
M  V30 3478 O 336.301 4.14842 1.40846 0
M  V30 3479 C 337.802 3.27571 2.98684 0
M  V30 3480 H 335.022 0.586166 0.326574 0
M  V30 3481 H 337.566 2.00808 0.38683 0
M  V30 3482 H 335.721 2.70929 2.76905 0
M  V30 3483 H 336.135 4.81383 2.08255 0
M  V30 3484 H 337.609 4.13791 3.6535 0
M  V30 3485 H 338.086 2.44168 3.65074 0
M  V30 3486 H 338.692 3.52615 2.37787 0
M  V30 3487 N 337.007 -0.598083 1.45811 0
M  V30 3488 C 337.937 -1.71873 1.58057 0
M  V30 3489 C 338.918 -1.64533 0.431615 0
M  V30 3490 O 340.103 -1.82787 0.65595 0
M  V30 3491 C 337.233 -3.10495 1.55597 0
M  V30 3492 C 336.187 -3.32654 2.69305 0
M  V30 3493 C 335.513 -4.71646 2.51902 0
M  V30 3494 C 336.813 -3.21981 4.11248 0
M  V30 3495 H 338.507 -1.61881 2.51863 0
M  V30 3496 H 336.053 -0.777372 1.21214 0
M  V30 3497 H 338.006 -3.88699 1.6276 0
M  V30 3498 H 336.73 -3.2135 0.583255 0
M  V30 3499 H 335.389 -2.56843 2.61586 0
M  V30 3500 H 335.037 -4.79246 1.52748 0
M  V30 3501 H 334.737 -4.87426 3.2816 0
M  V30 3502 H 336.261 -5.52038 2.60933 0
M  V30 3503 H 337.675 -3.90049 4.20161 0
M  V30 3504 H 336.072 -3.49289 4.87972 0
M  V30 3505 H 337.142 -2.1928 4.32486 0
M  V30 3506 N 338.485 -1.33259 -0.841409 0
M  V30 3507 C 339.71 -1.2775 -1.63385 0
M  V30 3508 C 340.135 0.149188 -1.87507 0
M  V30 3509 O 339.493 1.10498 -1.43736 0
M  V30 3510 C 339.541 -2.05571 -2.96265 0
M  V30 3511 O 338.645 -1.41257 -3.87453 0
M  V30 3512 H 337.986 -0.439627 -0.497618 0
M  V30 3513 H 340.516 -1.75782 -1.04699 0
M  V30 3514 H 340.526 -2.16241 -3.45982 0
M  V30 3515 H 339.201 -3.09309 -2.7803 0
M  V30 3516 H 337.778 -1.39217 -3.45938 0
M  V30 3517 N 339.963 1.05934 -1.16686 0
M  V30 3518 C 340.873 2.17014 -0.891183 0
M  V30 3519 C 341.889 1.73453 0.137907 0
M  V30 3520 O 343.065 2.01361 -0.039592 0
M  V30 3521 C 340.13 3.44384 -0.400099 0
M  V30 3522 C 339.191 4.02433 -1.49486 0
M  V30 3523 C 338.424 5.23723 -1.02711 0
M  V30 3524 O 338.647 5.7027 0.121716 0
M  V30 3525 O 337.581 5.7382 -1.81699 0
M  V30 3526 H 341.407 2.43113 -1.82015 0
M  V30 3527 H 338.992 1.15541 -0.947132 0
M  V30 3528 H 340.874 4.21189 -0.133392 0
M  V30 3529 H 339.549 3.19802 0.500817 0
M  V30 3530 H 338.456 3.27102 -1.81535 0
M  V30 3531 H 339.789 4.31317 -2.37121 0
M  V30 3532 N 341.441 0.965919 1.2453 0
M  V30 3533 C 342.404 0.499547 2.2369 0
M  V30 3534 C 343.404 -0.40294 1.5567 0
M  V30 3535 O 344.594 -0.19865 1.73064 0
M  V30 3536 C 341.726 -0.276792 3.39774 0
M  V30 3537 H 342.919 1.37613 2.66463 0
M  V30 3538 H 340.472 0.750324 1.37112 0
M  V30 3539 H 341.207 -1.17055 3.02438 0
M  V30 3540 H 340.992 0.370826 3.90343 0
M  V30 3541 H 342.482 -0.592175 4.1338 0
M  V30 3542 N 342.919 -1.39368 0.735821 0
M  V30 3543 C 344.165 -2.00794 0.284544 0
M  V30 3544 C 344.498 -1.58255 -1.12557 0
M  V30 3545 O 343.773 -0.811819 -1.76748 0
M  V30 3546 C 344.056 -3.58011 0.387337 0
M  V30 3547 C 343.909 -4.10566 1.83728 0
M  V30 3548 C 345.228 -4.395 -0.22975 0
M  V30 3549 H 342.347 -0.729501 0.104866 0
M  V30 3550 H 344.989 -1.65564 0.93213 0
M  V30 3551 H 343.139 -3.88154 -0.164006 0
M  V30 3552 H 344.811 -3.91139 2.44556 0
M  V30 3553 H 343.054 -3.64095 2.35833 0
M  V30 3554 H 343.725 -5.19702 1.86047 0
M  V30 3555 H 346.201 -4.15406 0.240257 0
M  V30 3556 H 345.077 -5.48752 -0.127485 0
M  V30 3557 H 345.338 -4.22062 -1.3159 0
M  V30 3558 N 344.397 -0.483516 -1.5 0
M  V30 3559 C 345.645 0.067027 -2.01989 0
M  V30 3560 C 345.966 1.3909 -1.36671 0
M  V30 3561 O 345.236 1.88978 -0.516152 0
M  V30 3562 H 343.816 0.0277606 -0.746484 0
M  V30 3563 H 346.478 -0.636773 -1.84204 0
M  V30 3564 H 345.574 0.209484 -3.11396 0
M  V30 3565 N 345.875 1.56104 -0.216619 0
M  V30 3566 C 346.805 2.23063 0.690296 0
M  V30 3567 C 347.786 1.20072 1.20485 0
M  V30 3568 O 348.971 1.48643 1.24976 0
M  V30 3569 C 346.101 2.90672 1.90072 0
M  V30 3570 C 345.055 4.00092 1.5202 0
M  V30 3571 C 344.381 4.54972 2.80899 0
M  V30 3572 C 345.681 5.17398 0.71391 0
M  V30 3573 H 347.375 2.99109 0.132038 0
M  V30 3574 H 344.921 1.43866 0.0620664 0
M  V30 3575 H 346.874 3.36204 2.54057 0
M  V30 3576 H 345.598 2.12066 2.48386 0
M  V30 3577 H 344.257 3.55283 0.903839 0
M  V30 3578 H 343.905 3.73102 3.37348 0
M  V30 3579 H 343.605 5.28817 2.56176 0
M  V30 3580 H 345.129 5.0322 3.45836 0
M  V30 3581 H 346.543 5.59342 1.25735 0
M  V30 3582 H 344.94 5.97444 0.563951 0
M  V30 3583 H 346.01 4.84088 -0.280527 0
M  V30 3584 N 347.353 -0.0568162 1.57498 0
M  V30 3585 C 348.316 -1.05038 2.03715 0
M  V30 3586 C 349.316 -1.30709 0.936577 0
M  V30 3587 O 350.506 -1.26178 1.20103 0
M  V30 3588 C 347.638 -2.39034 2.43055 0
M  V30 3589 H 348.831 -0.651715 2.92733 0
M  V30 3590 H 346.384 -0.302947 1.53336 0
M  V30 3591 H 347.119 -2.83703 1.57108 0
M  V30 3592 H 346.904 -2.21739 3.2338 0
M  V30 3593 H 348.394 -3.10421 2.79336 0
M  V30 3594 N 348.832 -1.54138 -0.328536 0
M  V30 3595 C 350.078 -1.7236 -1.06865 0
M  V30 3596 C 350.411 -0.493231 -1.87832 0
M  V30 3597 O 349.686 0.5098 -1.877 0
M  V30 3598 C 349.969 -2.99621 -1.99747 0
M  V30 3599 C 349.822 -4.32899 -1.22143 0
M  V30 3600 C 351.141 -3.22615 -2.99345 0
M  V30 3601 H 348.26 -0.627151 -0.387105 0
M  V30 3602 H 350.902 -1.86827 -0.345767 0
M  V30 3603 H 349.052 -2.87418 -2.61387 0
M  V30 3604 H 350.724 -4.56978 -0.630017 0
M  V30 3605 H 348.967 -4.30628 -0.523628 0
M  V30 3606 H 349.638 -5.18154 -1.90318 0
M  V30 3607 H 352.114 -3.34248 -2.47826 0
M  V30 3608 H 350.99 -4.13027 -3.61524 0
M  V30 3609 H 351.251 -2.3961 -3.71536 0
M  V30 3610 N 350.31 0.590341 -1.46126 0
M  V30 3611 C 351.24 1.71032 -1.58966 0
M  V30 3612 C 352.221 1.64302 -0.440335 0
M  V30 3613 O 353.406 1.82436 -0.665634 0
M  V30 3614 C 350.536 3.09665 -1.57241 0
M  V30 3615 C 349.49 3.31221 -2.71066 0
M  V30 3616 C 348.816 4.70303 -2.54399 0
M  V30 3617 C 350.116 3.19796 -4.1295 0
M  V30 3618 H 351.81 1.60543 -2.52718 0
M  V30 3619 H 349.356 0.770933 -1.21625 0
M  V30 3620 H 351.309 3.87831 -1.64819 0
M  V30 3621 H 350.033 3.21036 -0.600289 0
M  V30 3622 H 348.692 2.55452 -2.62944 0
M  V30 3623 H 348.34 4.78429 -1.55288 0
M  V30 3624 H 348.04 4.85679 -3.30741 0
M  V30 3625 H 349.564 5.50647 -2.63857 0
M  V30 3626 H 350.978 3.87815 -4.22223 0
M  V30 3627 H 349.375 3.46696 -4.89818 0
M  V30 3628 H 350.445 2.16983 -4.33643 0
M  V30 3629 N 351.788 1.33704 0.83433 0
M  V30 3630 C 352.718 1.26967 1.95963 0
M  V30 3631 C 353.699 0.149337 1.69443 0
M  V30 3632 O 354.884 0.339852 1.91203 0
M  V30 3633 C 352.014 1.01275 3.32206 0
M  V30 3634 C 350.968 2.09652 3.73136 0
M  V30 3635 C 350.294 1.69166 5.07235 0
M  V30 3636 C 351.594 3.51372 3.86439 0
M  V30 3637 H 353.288 2.2112 2.01857 0
M  V30 3638 H 350.834 1.06447 0.969793 0
M  V30 3639 H 352.787 0.952106 4.10503 0
M  V30 3640 H 351.511 0.0356203 3.26581 0
M  V30 3641 H 350.17 2.14766 2.97104 0
M  V30 3642 H 349.818 0.701437 4.98085 0
M  V30 3643 H 349.518 2.41694 5.35591 0
M  V30 3644 H 351.042 1.64576 5.88003 0
M  V30 3645 H 352.456 3.48734 4.55036 0
M  V30 3646 H 350.853 4.22425 4.26236 0
M  V30 3647 H 351.923 3.89546 2.88759 0
M  V30 3648 N 353.266 -1.05314 1.17247 0
M  V30 3649 C 354.198 -2.13023 0.845812 0
M  V30 3650 C 355.211 -1.62096 -0.151246 0
M  V30 3651 O 356.4 -1.78343 0.0748818 0
M  V30 3652 C 353.5 -3.38047 0.240292 0
M  V30 3653 C 352.673 -4.18255 1.27991 0
M  V30 3654 C 351.732 -5.21625 0.692375 0
M  V30 3655 O 350.758 -5.52619 1.36385 0
M  V30 3656 N 351.96 -5.78201 -0.516178 0
M  V30 3657 H 354.725 -2.41642 1.77283 0
M  V30 3658 H 352.286 -1.21401 1.07115 0
M  V30 3659 H 354.278 -4.04359 -0.16603 0
M  V30 3660 H 352.848 -3.06972 -0.590487 0
M  V30 3661 H 352.068 -3.47451 1.86203 0
M  V30 3662 H 353.356 -4.68643 1.98119 0
M  V30 3663 H 352.754 -5.55301 -1.07969 0
M  V30 3664 H 351.311 -6.4604 -0.86458 0
M  V30 3665 N 354.744 -0.972509 -1.24016 0
M  V30 3666 C 355.993 -0.632603 -1.91523 0
M  V30 3667 C 356.306 0.836641 -1.76804 0
M  V30 3668 O 357.512 1.28728 -2.39043 0
M  V30 3669 C 355.968 -1.08082 -3.43287 0
M  V30 3670 C 355.576 -2.57386 -3.66683 0
M  V30 3671 C 357.32 -0.814288 -4.16617 0
M  V30 3672 C 355.227 -2.95915 -5.12043 0
M  V30 3673 H 354.157 -0.232898 -0.717129 0
M  V30 3674 H 356.808 -1.17936 -1.40582 0
M  V30 3675 H 355.19 -0.462339 -3.93292 0
M  V30 3676 H 356.364 -3.24405 -3.27258 0
M  V30 3677 H 354.679 -2.81701 -3.06649 0
M  V30 3678 H 357.276 -1.0781 -5.23718 0
M  V30 3679 H 357.619 0.24955 -4.15551 0
M  V30 3680 H 358.152 -1.39397 -3.72577 0
M  V30 3681 H 354.891 -4.0139 -5.18234 0
M  V30 3682 H 354.411 -2.33584 -5.52448 0
M  V30 3683 H 356.09 -2.86086 -5.80314 0
M  V30 3684 N 356.222 1.38976 -0.743202 0
M  V30 3685 C 357.47 1.99948 -0.29417 0
M  V30 3686 C 357.791 1.59279 1.12495 0
M  V30 3687 O 357.061 0.844808 1.76748 0
M  V30 3688 H 355.641 0.739473 -0.105774 0
M  V30 3689 H 358.303 1.699 -0.954986 0
M  V30 3690 H 357.399 3.10142 -0.349056 0
M  V30 3691 N 357.7 0.491464 1.49741 0
M  V30 3692 C 358.948 -0.0563141 2.02022 0
M  V30 3693 C 359.269 -1.38363 1.37407 0
M  V30 3694 O 358.539 -1.88702 0.526166 0
M  V30 3695 H 357.119 -0.0238014 0.746621 0
M  V30 3696 H 359.781 0.646533 1.83864 0
M  V30 3697 H 358.877 -0.192967 3.11503 0
M  V30 3698 N 359.178 -1.55987 0.224894 0
M  V30 3699 C 360.088 -2.24066 -0.69511 0
M  V30 3700 C 361.104 -1.24939 -1.21104 0
M  V30 3701 O 362.28 -1.5776 -1.25195 0
M  V30 3702 C 359.345 -2.90983 -1.88493 0
M  V30 3703 C 358.406 -4.05462 -1.41064 0
M  V30 3704 C 357.639 -4.69179 -2.54375 0
M  V30 3705 O 357.862 -4.31895 -3.72589 0
M  V30 3706 O 356.796 -5.58108 -2.25386 0
M  V30 3707 H 360.622 -3.03353 -0.145149 0
M  V30 3708 H 358.207 -1.49399 -0.00569476 0
M  V30 3709 H 360.089 -3.33209 -2.57972 0
M  V30 3710 H 358.764 -2.14653 -2.42293 0
M  V30 3711 H 357.671 -3.67798 -0.683774 0
M  V30 3712 H 359.004 -4.83545 -0.918985 0
M  V30 3713 N 360.656 0.0484629 -1.57525 0
M  V30 3714 C 361.619 1.03956 -2.04269 0
M  V30 3715 C 362.619 1.30211 -0.943496 0
M  V30 3716 O 363.809 1.25539 -1.20771 0
M  V30 3717 C 360.941 2.37742 -2.44319 0
M  V30 3718 H 362.134 0.636182 -2.93075 0
M  V30 3719 H 359.687 0.294811 -1.53494 0
M  V30 3720 H 360.422 2.82866 -1.5861 0
M  V30 3721 H 360.207 2.20021 -3.24551 0
M  V30 3722 H 361.697 3.08936 -2.80978 0
M  V30 3723 N 362.134 1.5431 0.320358 0
M  V30 3724 C 363.38 1.72924 1.05949 0
M  V30 3725 C 363.713 0.503185 1.87568 0
M  V30 3726 O 362.988 -0.499839 1.87968 0
M  V30 3727 C 363.271 3.00676 1.98156 0
M  V30 3728 C 363.124 4.3354 1.19845 0
M  V30 3729 C 364.443 3.24198 2.9763 0
M  V30 3730 H 361.562 0.629195 0.383774 0
M  V30 3731 H 364.204 1.87008 0.335854 0
M  V30 3732 H 362.354 2.888 2.59859 0
M  V30 3733 H 364.026 4.57305 0.605773 0
M  V30 3734 H 362.269 4.309 0.500784 0
M  V30 3735 H 362.94 5.19156 1.87567 0
M  V30 3736 H 365.416 3.35557 2.4605 0
M  V30 3737 H 364.292 4.14938 3.59329 0
M  V30 3738 H 364.553 2.41577 3.7026 0
M  V30 3739 N 363.613 -0.582584 1.46437 0
M  V30 3740 C 364.841 -1.36682 1.55324 0
M  V30 3741 C 365.256 -1.87796 0.194409 0
M  V30 3742 O 364.613 -1.63623 -0.808318 0
M  V30 3743 C 364.664 -2.55426 2.55812 0
M  V30 3744 O 364.385 -2.0643 3.86417 0
M  V30 3745 C 365.886 -3.47976 2.74641 0
M  V30 3746 H 363.106 -0.417545 0.525259 0
M  V30 3747 H 365.65 -0.708219 1.91845 0
M  V30 3748 H 363.805 -3.17275 2.22295 0
M  V30 3749 H 364.219 -2.83762 4.41111 0
M  V30 3750 H 365.693 -4.27775 3.48874 0
M  V30 3751 H 366.17 -3.99919 1.81553 0
M  V30 3752 H 366.776 -2.91962 3.09255 0
M  V30 3753 N 365.091 -1.34144 -0.827227 0
M  V30 3754 C 366.039 -1.25364 -1.95925 0
M  V30 3755 C 367.033 -0.152608 -1.68711 0
M  V30 3756 O 368.239 -0.317311 -1.77181 0
M  V30 3757 H 364.614 -0.389342 -0.643364 0
M  V30 3758 H 366.585 -2.21045 -2.00454 0
M  V30 3759 C 365.334 -1.02158 -3.32354 0
M  V30 3760 H 364.657 -1.86111 -3.5384 0
M  V30 3761 H 366.097 -1.00048 -4.12027 0
M  V30 3762 C 364.556 0.275244 -3.35774 0
M  V30 3763 O 365.086 1.27806 -3.80826 0
M  V30 3764 N 363.292 0.306853 -2.88975 0
M  V30 3765 H 362.839 -0.509777 -2.52506 0
M  V30 3766 H 362.797 1.17432 -2.91646 0
M  V30 3767 N 366.569 1.04691 -1.17803 0
M  V30 3768 C 367.517 2.14665 -0.895635 0
M  V30 3769 C 368.511 1.68806 0.141679 0
M  V30 3770 O 369.717 1.79999 -0.00587914 0
M  V30 3771 H 366.092 0.701038 -0.272121 0
M  V30 3772 H 368.063 2.35685 -1.83017 0
M  V30 3773 C 366.812 3.45019 -0.430962 0
M  V30 3774 H 366.135 3.8071 -1.22064 0
M  V30 3775 H 367.575 4.23125 -0.272301 0
M  V30 3776 C 366.034 3.25943 0.852207 0
M  V30 3777 O 366.564 3.5296 1.91786 0
M  V30 3778 N 364.77 2.79304 0.802346 0
M  V30 3779 H 364.317 2.57518 -0.0650788 0
M  V30 3780 H 364.275 2.66921 1.66134 0
M  V30 3781 N 368.047 0.979072 1.23499 0
M  V30 3782 C 369.272 0.664845 1.96455 0
M  V30 3783 C 369.697 -0.761287 1.72006 0
M  V30 3784 O 369.055 -1.51837 0.990713 0
M  V30 3785 C 369.103 0.959479 3.47601 0
M  V30 3786 O 368.207 0.0508168 4.12369 0
M  V30 3787 H 367.548 0.250185 0.615064 0
M  V30 3788 H 370.078 1.31231 1.5697 0
M  V30 3789 H 370.088 0.895642 3.98048 0
M  V30 3790 H 368.763 1.99876 3.64723 0
M  V30 3791 H 367.34 0.16895 3.72517 0
M  V30 3792 N 369.525 -1.3858 0.750561 0
M  V30 3793 C 370.773 -1.99789 0.30477 0
M  V30 3794 C 371.094 -1.59874 -1.11649 0
M  V30 3795 O 370.364 -0.85417 -1.76297 0
M  V30 3796 H 368.944 -0.738902 0.109694 0
M  V30 3797 H 371.606 -1.69391 0.963983 0
M  V30 3798 H 370.702 -3.09952 0.365499 0
M  V30 3799 N 371.003 -0.499398 -1.49478 0
M  V30 3800 C 371.935 0.316575 -2.27003 0
M  V30 3801 C 372.948 0.932047 -1.33479 0
M  V30 3802 O 374.137 0.815658 -1.58774 0
M  V30 3803 C 371.237 1.46055 -3.05812 0
M  V30 3804 C 370.41 0.952679 -4.26899 0
M  V30 3805 C 369.469 1.97407 -4.87767 0
M  V30 3806 O 368.495 1.54326 -5.4788 0
M  V30 3807 N 369.697 3.30436 -4.77276 0
M  V30 3808 H 372.462 -0.348168 -2.97671 0
M  V30 3809 H 370.023 -0.33185 -1.58463 0
M  V30 3810 H 372.015 2.14135 -3.43407 0
M  V30 3811 H 370.585 2.02948 -2.37762 0
M  V30 3812 H 369.805 0.0968248 -3.94081 0
M  V30 3813 H 371.093 0.59174 -5.05347 0
M  V30 3814 H 370.491 3.68126 -4.29534 0
M  V30 3815 H 369.048 3.94235 -5.19059 0
M  V30 3816 N 372.481 1.55866 -0.233164 0
M  V30 3817 C 373.414 2.16794 0.712442 0
M  V30 3818 C 374.392 1.1158 1.18273 0
M  V30 3819 O 375.576 1.39897 1.26337 0
M  V30 3820 C 372.703 2.75757 1.96661 0
M  V30 3821 C 371.749 3.93902 1.63533 0
M  V30 3822 S 372.582 5.30223 0.74995 0
M  V30 3823 C 373.738 5.92631 2.01343 0
M  V30 3824 H 373.971 2.96662 0.194617 0
M  V30 3825 H 371.504 1.5439 -0.0177425 0
M  V30 3826 H 373.462 3.10367 2.68668 0
M  V30 3827 H 372.123 1.9586 2.45556 0
M  V30 3828 H 371.316 4.33702 2.56747 0
M  V30 3829 H 370.918 3.60499 0.995804 0
M  V30 3830 H 373.21 6.09312 2.96219 0
M  V30 3831 H 374.153 6.88388 1.65915 0
M  V30 3832 H 374.561 5.21571 2.15925 0
M  V30 3833 N 373.959 -0.0401083 1.57549 0
M  V30 3834 C 375.206 -0.733125 1.88763 0
M  V30 3835 C 375.534 -1.75946 0.829058 0
M  V30 3836 O 374.789 -1.94949 -0.171323 0
M  V30 3837 C 375.088 -1.44902 3.26708 0
M  V30 3838 C 374.754 -0.559707 4.47413 0
M  V30 3839 C 373.416 -0.314731 4.8017 0
M  V30 3840 C 375.768 0.0549743 5.21171 0
M  V30 3841 C 373.096 0.553886 5.8408 0
M  V30 3842 C 375.448 0.911229 6.26003 0
M  V30 3843 C 374.112 1.16577 6.57241 0
M  V30 3844 H 373.382 -0.268269 0.690733 0
M  V30 3845 H 376.029 0.00679408 1.91499 0
M  V30 3846 H 374.334 -2.26197 3.1991 0
M  V30 3847 H 376.031 -1.99058 3.48105 0
M  V30 3848 H 372.621 -0.760793 4.21794 0
M  V30 3849 H 376.805 -0.121344 4.96152 0
M  V30 3850 H 372.061 0.759518 6.06664 0
M  V30 3851 H 376.235 1.3941 6.82303 0
M  V30 3852 H 373.862 1.84058 7.37582 0
M  V30 3853 N 375.437 -1.54477 -0.31217 0
M  V30 3854 C 376.387 -1.81037 -1.38598 0
M  V30 3855 C 377.371 -0.666941 -1.46426 0
M  V30 3856 O 378.563 -0.927269 -1.50767 0
M  V30 3857 C 375.692 -2.05127 -2.75277 0
M  V30 3858 C 374.778 -3.25624 -2.71716 0
M  V30 3859 N 375.169 -4.46428 -2.37773 0
M  V30 3860 C 373.467 -3.27427 -3.02833 0
M  V30 3861 C 374.168 -5.28406 -2.43232 0
M  V30 3862 N 373.144 -4.6586 -2.80135 0
M  V30 3863 H 376.946 -2.7201 -1.11301 0
M  V30 3864 H 374.46 -1.53826 -0.520705 0
M  V30 3865 H 376.457 -2.22299 -3.52688 0
M  V30 3866 H 375.117 -1.15416 -3.03495 0
M  V30 3867 H 376.128 -4.73227 -2.1042 0
M  V30 3868 H 372.805 -2.47786 -3.36018 0
M  V30 3869 H 374.195 -6.34903 -2.19882 0
M  V30 3870 N 376.915 0.57481 -1.46744 0
M  V30 3871 C 377.845 1.69337 -1.60771 0
M  V30 3872 C 378.826 1.63825 -0.457736 0
M  V30 3873 O 380.011 1.8172 -0.684947 0
M  V30 3874 C 377.141 3.0798 -1.60517 0
M  V30 3875 C 376.095 3.28327 -2.74564 0
M  V30 3876 C 375.421 4.67578 -2.59373 0
M  V30 3877 C 376.721 3.15398 -4.16319 0
M  V30 3878 H 378.415 1.57853 -2.54407 0
M  V30 3879 H 375.961 0.75799 -1.22436 0
M  V30 3880 H 377.914 3.86061 -1.68923 0
M  V30 3881 H 376.638 3.20381 -0.634305 0
M  V30 3882 H 375.297 2.52649 -2.65639 0
M  V30 3883 H 374.945 4.76755 -1.60353 0
M  V30 3884 H 374.645 4.82144 -3.35873 0
M  V30 3885 H 376.169 5.47817 -2.69682 0
M  V30 3886 H 377.583 3.83315 -4.26313 0
M  V30 3887 H 375.98 3.41482 -4.93468 0
M  V30 3888 H 377.05 2.12372 -4.3592 0
M  V30 3889 N 378.394 1.34581 0.820102 0
M  V30 3890 C 379.324 1.29038 1.94606 0
M  V30 3891 C 380.305 0.1673 1.69275 0
M  V30 3892 O 381.49 0.360112 1.90832 0
M  V30 3893 C 378.62 1.04793 3.31113 0
M  V30 3894 C 377.574 2.13597 3.70891 0
M  V30 3895 C 376.9 1.74537 5.05412 0
M  V30 3896 C 378.2 3.55451 3.8269 0
M  V30 3897 H 379.894 2.23248 1.99501 0
M  V30 3898 H 377.44 1.0747 0.958449 0
M  V30 3899 H 379.393 0.995592 4.0947 0
M  V30 3900 H 378.117 0.0702565 3.26524 0
M  V30 3901 H 376.776 2.17905 2.9481 0
M  V30 3902 H 376.424 0.754226 4.97313 0
M  V30 3903 H 376.124 2.47361 5.32997 0
M  V30 3904 H 377.648 1.70803 5.86224 0
M  V30 3905 H 379.062 3.5354 4.51312 0
M  V30 3906 H 377.459 4.26922 4.21732 0
M  V30 3907 H 378.529 3.92587 2.84611 0
M  V30 3908 N 379.872 -1.04064 1.18357 0
M  V30 3909 C 380.802 -2.14001 0.934113 0
M  V30 3910 C 381.783 -1.69616 -0.128186 0
M  V30 3911 O 382.968 -1.94185 0.0244093 0
M  V30 3912 C 380.098 -3.44253 0.459066 0
M  V30 3913 C 379.052 -4.02261 1.46185 0
M  V30 3914 C 378.378 -5.27992 0.844322 0
M  V30 3915 C 379.678 -4.38432 2.83856 0
M  V30 3916 H 381.372 -2.35127 1.85352 0
M  V30 3917 H 378.918 -1.12998 0.892604 0
M  V30 3918 H 380.871 -4.20522 0.271907 0
M  V30 3919 H 379.595 -3.22813 -0.495912 0
M  V30 3920 H 378.254 -3.28074 1.63595 0
M  V30 3921 H 377.902 -5.02862 -0.117845 0
M  V30 3922 H 377.602 -5.67765 1.51384 0
M  V30 3923 H 379.126 -6.06938 0.667693 0
M  V30 3924 H 380.54 -5.05688 2.70098 0
M  V30 3925 H 378.937 -4.89254 3.47491 0
M  V30 3926 H 380.007 -3.4826 3.37406 0
M  V30 3927 N 381.35 -0.985608 -1.22978 0
M  V30 3928 C 382.575 -0.675254 -1.961 0
M  V30 3929 C 383 0.752154 -1.72407 0
M  V30 3930 O 382.358 1.5131 -0.998751 0
M  V30 3931 C 382.406 -0.977899 -3.47087 0
M  V30 3932 O 381.51 -0.072685 -4.12336 0
M  V30 3933 H 380.851 -0.253443 -0.613728 0
M  V30 3934 H 383.381 -1.32061 -1.56272 0
M  V30 3935 H 383.391 -0.916739 -3.97567 0
M  V30 3936 H 382.066 -2.01807 -3.63657 0
M  V30 3937 H 380.643 -0.188703 -3.72422 0
M  V30 3938 N 382.828 1.3818 -0.7579 0
M  V30 3939 C 384.244 1.5353 -0.435972 0
M  V30 3940 C 384.444 1.71961 1.05032 0
M  V30 3941 O 383.5 1.73307 1.83633 0
M  V30 3942 C 384.813 2.73989 -1.23898 0
M  V30 3943 C 386.361 2.87841 -1.22949 0
M  V30 3944 C 386.836 4.11266 -2.01554 0
M  V30 3945 N 388.327 4.18352 -1.98837 0
M  V30 3946 C 389.062 5.12856 -2.5645 0
M  V30 3947 N 388.558 6.13005 -3.22794 0
M  V30 3948 N 390.351 5.05238 -2.46356 0
M  V30 3949 H 382.502 1.24467 -1.7211 0
M  V30 3950 H 384.765 0.604982 -0.729864 0
M  V30 3951 H 384.471 2.66789 -2.29165 0
M  V30 3952 H 384.345 3.67294 -0.858764 0
M  V30 3953 H 386.732 2.9452 -0.184854 0
M  V30 3954 H 386.813 1.95534 -1.64924 0
M  V30 3955 H 386.457 4.05349 -3.06031 0
M  V30 3956 H 386.387 5.02661 -1.5697 0
M  V30 3957 H 388.878 3.46628 -1.50524 0
M  V30 3958 H 389.191 6.81619 -3.64165 0
M  V30 3959 H 387.536 6.13325 -3.2689 0
M  V30 3960 H 390.727 4.25938 -1.9415 0
M  V30 3961 H 390.9 5.78707 -2.91552 0
M  V30 3962 N 384.306 0.507319 1.49211 0
M  V30 3963 C 385.717 0.0611118 1.866 0
M  V30 3964 C 386.068 -1.35488 1.41907 0
M  V30 3965 O 385.193 -2.0108 0.799726 0
M  V30 3966 C 385.788 0.104125 3.3864 0
M  V30 3967 C 384.347 -0.28677 3.75306 0
M  V30 3968 C 383.494 0.473893 2.73221 0
M  V30 3969 H 386.445 0.719775 1.41439 0
M  V30 3970 H 386.466 -0.689672 3.74198 0
M  V30 3971 H 385.978 1.13482 3.71138 0
M  V30 3972 H 384.079 -1.32046 3.48417 0
M  V30 3973 H 384.192 0.0370745 4.79086 0
M  V30 3974 H 382.556 -0.0770644 2.54583 0
M  V30 3975 H 383.339 1.50478 3.08563 0
M  V30 3976 N 385.784 -1.5574 0.241426 0
M  V30 3977 C 386.694 -2.2479 -0.671305 0
M  V30 3978 C 387.71 -1.26217 -1.19772 0
M  V30 3979 O 388.886 -1.59079 -1.23514 0
M  V30 3980 C 385.951 -2.92966 -1.85396 0
M  V30 3981 C 385.012 -4.06935 -1.36756 0
M  V30 3982 C 384.245 -4.71851 -2.49384 0
M  V30 3983 O 384.468 -4.35823 -3.67987 0
M  V30 3984 O 383.402 -5.60467 -2.19454 0
M  V30 3985 H 387.228 -3.0349 -0.112966 0
M  V30 3986 H 384.813 -1.49397 0.0101513 0
M  V30 3987 H 386.695 -3.35927 -2.54423 0
M  V30 3988 H 385.37 -2.17211 -2.40002 0
M  V30 3989 H 384.277 -3.68503 -0.644726 0
M  V30 3990 H 385.61 -4.84492 -0.867647 0
M  V30 3991 N 387.262 0.0317525 -1.57568 0
M  V30 3992 C 388.192 1.03274 -2.0942 0
M  V30 3993 C 389.173 1.3788 -0.996143 0
M  V30 3994 O 390.358 1.46811 -1.27122 0
M  V30 3995 C 387.488 2.33448 -2.57137 0
M  V30 3996 C 386.442 2.13091 -3.71182 0
M  V30 3997 C 385.768 3.49001 -4.05095 0
M  V30 3998 C 387.068 1.51928 -4.99715 0
M  V30 3999 H 388.762 0.60112 -2.93303 0
M  V30 4000 H 386.308 0.287705 -1.41097 0
M  V30 4001 H 388.261 3.03802 -2.92032 0
M  V30 4002 H 386.985 2.78665 -1.70333 0
M  V30 4003 H 385.644 1.45171 -3.36632 0
M  V30 4004 H 385.292 3.91862 -3.15362 0
M  V30 4005 H 384.992 3.36207 -4.81911 0
M  V30 4006 H 386.516 4.20721 -4.42522 0
M  V30 4007 H 387.93 2.12196 -5.32584 0
M  V30 4008 H 386.327 1.49716 -5.81124 0
M  V30 4009 H 387.397 0.484811 -4.8247 0
M  V30 4010 N 388.74 1.54641 0.303973 0
M  V30 4011 C 389.703 1.84646 1.35789 0
M  V30 4012 C 390.703 0.7192 1.4382 0
M  V30 4013 O 391.893 0.987491 1.43507 0
M  V30 4014 C 389.025 2.02407 2.74307 0
M  V30 4015 H 390.218 2.78829 1.10429 0
M  V30 4016 H 387.771 1.46658 0.540487 0
M  V30 4017 H 388.506 1.10502 3.04893 0
M  V30 4018 H 388.291 2.84453 2.69868 0
M  V30 4019 H 389.781 2.27002 3.50514 0
M  V30 4020 N 390.218 -0.567019 1.47046 0
M  V30 4021 C 391.128 -1.70247 1.6141 0
M  V30 4022 C 392.144 -1.66746 0.497157 0
M  V30 4023 O 393.32 -1.86371 0.763389 0
M  V30 4024 C 390.385 -3.06756 1.61561 0
M  V30 4025 C 389.446 -3.21399 2.84607 0
M  V30 4026 C 388.679 -4.51396 2.84741 0
M  V30 4027 O 388.902 -5.36255 1.94388 0
M  V30 4028 O 387.836 -4.69621 3.76483 0
M  V30 4029 H 391.662 -1.61073 2.57467 0
M  V30 4030 H 389.247 -0.735894 1.30019 0
M  V30 4031 H 391.129 -3.8801 1.64396 0
M  V30 4032 H 389.804 -3.16333 0.686684 0
M  V30 4033 H 388.711 -2.39579 2.8732 0
M  V30 4034 H 390.044 -3.16721 3.76761 0
M  V30 4035 N 391.696 -1.35014 -0.812953 0
M  V30 4036 C 393.112 -1.14914 -1.10757 0
M  V30 4037 C 393.312 0.0426818 -2.01455 0
M  V30 4038 O 392.368 0.715212 -2.42159 0
M  V30 4039 C 393.681 -2.44911 -1.74468 0
M  V30 4040 C 395.229 -2.5106 -1.86917 0
M  V30 4041 C 395.704 -3.81085 -2.54044 0
M  V30 4042 N 397.195 -3.82301 -2.61535 0
M  V30 4043 C 397.93 -4.79634 -3.14227 0
M  V30 4044 N 397.426 -5.87353 -3.67407 0
M  V30 4045 N 399.219 -4.67078 -3.12721 0
M  V30 4046 H 391.37 -2.1136 -0.20989 0
M  V30 4047 H 393.633 -0.935128 -0.155692 0
M  V30 4048 H 393.339 -3.32267 -1.15289 0
M  V30 4049 H 393.213 -2.58989 -2.74234 0
M  V30 4050 H 395.6 -1.64137 -2.45241 0
M  V30 4051 H 395.681 -2.40901 -0.860242 0
M  V30 4052 H 395.325 -4.68402 -1.96372 0
M  V30 4053 H 395.255 -3.88529 -3.55461 0
M  V30 4054 H 397.746 -3.04465 -2.23851 0
M  V30 4055 H 398.059 -6.57624 -4.05894 0
M  V30 4056 H 396.404 -5.91054 -3.65623 0
M  V30 4057 H 399.595 -3.82067 -2.70449 0
M  V30 4058 H 399.768 -5.43098 -3.53481 0
M  V30 4059 N 393.175 1.03435 -1.18907 0
M  V30 4060 C 394.105 2.13503 -0.945448 0
M  V30 4061 C 395.086 1.69682 0.119189 0
M  V30 4062 O 396.271 1.94169 -0.034707 0
M  V30 4063 C 393.401 3.44004 -0.477316 0
M  V30 4064 C 392.355 4.0148 -1.48316 0
M  V30 4065 C 391.681 5.27537 -0.872311 0
M  V30 4066 C 392.981 4.36921 -2.86177 0
M  V30 4067 H 394.675 2.34141 -1.86597 0
M  V30 4068 H 392.221 1.12523 -0.898584 0
M  V30 4069 H 394.174 4.20372 -0.294204 0
M  V30 4070 H 392.898 3.23072 0.478786 0
M  V30 4071 H 391.557 3.27201 -1.65332 0
M  V30 4072 H 391.205 5.02917 0.0911752 0
M  V30 4073 H 390.905 5.66954 -1.54393 0
M  V30 4074 H 392.429 6.06576 -0.699871 0
M  V30 4075 H 393.843 5.04248 -2.72776 0
M  V30 4076 H 392.24 4.87405 -3.50081 0
M  V30 4077 H 393.31 3.46466 -3.39248 0
M  V30 4078 N 394.653 0.992116 1.22453 0
M  V30 4079 C 396.069 0.702713 1.43297 0
M  V30 4080 C 396.269 -0.726909 1.87932 0
M  V30 4081 O 395.325 -1.49792 2.0327 0
M  V30 4082 C 396.638 1.70762 2.47509 0
M  V30 4083 C 398.186 1.72298 2.61309 0
M  V30 4084 C 398.661 2.71649 3.68742 0
M  V30 4085 N 400.152 2.70239 3.76199 0
M  V30 4086 C 400.887 3.43778 4.58917 0
M  V30 4087 N 400.383 4.26914 5.45633 0
M  V30 4088 N 402.176 3.32487 4.5322 0
M  V30 4089 H 394.327 1.91543 0.917871 0
M  V30 4090 H 396.59 0.826031 0.465162 0
M  V30 4091 H 396.296 2.73059 2.21657 0
M  V30 4092 H 396.17 1.49985 3.46099 0
M  V30 4093 H 398.557 0.706989 2.86506 0
M  V30 4094 H 398.638 1.97143 1.62997 0
M  V30 4095 H 398.282 3.73397 3.44292 0
M  V30 4096 H 398.212 2.44074 4.66622 0
M  V30 4097 H 400.703 2.09912 3.14237 0
M  V30 4098 H 401.016 4.79855 6.05771 0
M  V30 4099 H 399.361 4.31002 5.45218 0
M  V30 4100 H 402.552 2.6698 3.84499 0
M  V30 4101 H 402.725 3.90058 5.17454 0
M  V30 4102 N 396.131 -1.37776 0.765217 0
M  V30 4103 C 397.356 -2.04651 0.336537 0
M  V30 4104 C 397.781 -1.57337 -1.03086 0
M  V30 4105 O 397.139 -0.730621 -1.65927 0
M  V30 4106 C 397.187 -3.58577 0.381468 0
M  V30 4107 O 396.291 -4.07706 -0.62042 0
M  V30 4108 H 395.632 -0.64756 0.146838 0
M  V30 4109 H 398.162 -1.76221 1.03959 0
M  V30 4110 H 398.172 -4.07314 0.236448 0
M  V30 4111 H 396.847 -3.9237 1.37907 0
M  V30 4112 H 395.424 -3.70306 -0.439056 0
M  V30 4113 N 397.609 -0.515225 -1.4894 0
M  V30 4114 C 398.519 0.259774 -2.33157 0
M  V30 4115 C 399.535 0.953501 -1.45548 0
M  V30 4116 O 400.711 0.931735 -1.78552 0
M  V30 4117 C 397.776 1.30193 -3.21326 0
M  V30 4118 C 396.837 0.620129 -4.24797 0
M  V30 4119 C 396.07 1.61263 -5.08753 0
M  V30 4120 O 396.293 2.84389 -4.94448 0
M  V30 4121 O 395.227 1.16013 -5.90614 0
M  V30 4122 H 399.053 -0.429932 -3.00641 0
M  V30 4123 H 396.638 -0.276346 -1.46822 0
M  V30 4124 H 398.52 1.90455 -3.75905 0
M  V30 4125 H 397.195 1.97431 -2.56521 0
M  V30 4126 H 396.102 -0.0226019 -3.74093 0
M  V30 4127 H 397.435 -0.0100493 -4.92199 0
M  V30 4128 N 399.087 1.5561 -0.249682 0
M  V30 4129 C 400.498 1.84979 0.252949 0
M  V30 4130 C 400.849 1.17153 1.57384 0
M  V30 4131 O 399.974 0.450884 2.11651 0
M  V30 4132 C 400.569 3.35584 0.465732 0
M  V30 4133 C 399.128 3.65169 0.912624 0
M  V30 4134 C 398.275 2.77299 -0.00859085 0
M  V30 4135 H 401.226 1.51513 -0.47217 0
M  V30 4136 H 401.247 3.57313 1.30795 0
M  V30 4137 H 400.759 3.8492 -0.49579 0
M  V30 4138 H 398.86 3.21312 1.88652 0
M  V30 4139 H 398.973 4.72912 0.767559 0
M  V30 4140 H 397.337 2.49678 0.50327 0
M  V30 4141 H 398.12 3.29442 -0.965537 0
M  V30 4142 N 400.565 -0.0233959 1.57583 0
M  V30 4143 C 401.475 -1.03907 2.10334 0
M  V30 4144 C 402.491 -1.39257 1.04323 0
M  V30 4145 O 403.667 -1.48462 1.36091 0
M  V30 4146 C 400.732 -2.31938 2.57693 0
M  V30 4147 C 399.793 -2.03117 3.78209 0
M  V30 4148 C 399.026 -3.25043 4.233 0
M  V30 4149 O 399.249 -4.35916 3.67876 0
M  V30 4150 O 398.183 -3.10411 5.15683 0
M  V30 4151 H 402.009 -0.620748 2.97288 0
M  V30 4152 H 399.594 -0.240743 1.47448 0
M  V30 4153 H 401.476 -3.07196 2.88458 0
M  V30 4154 H 400.151 -2.73055 1.73847 0
M  V30 4155 H 399.058 -1.25408 3.52454 0
M  V30 4156 H 400.391 -1.66852 4.63056 0
M  V30 4157 N 402.043 -1.548 -0.295768 0
M  V30 4158 C 403.292 -1.73538 -1.02798 0
M  V30 4159 C 403.605 -0.531159 -1.8825 0
M  V30 4160 O 404.811 -0.600458 -2.64777 0
M  V30 4161 C 403.267 -3.07051 -1.87744 0
M  V30 4162 C 402.875 -4.34968 -1.07269 0
M  V30 4163 C 404.619 -3.35146 -2.60533 0
M  V30 4164 C 402.526 -5.5953 -1.91521 0
M  V30 4165 H 401.456 -0.646794 -0.387522 0
M  V30 4166 H 404.107 -1.81278 -0.284718 0
M  V30 4167 H 402.489 -2.93289 -2.66078 0
M  V30 4168 H 403.663 -4.5958 -0.335117 0
M  V30 4169 H 401.978 -4.13847 -0.460384 0
M  V30 4170 H 404.575 -4.2541 -3.23929 0
M  V30 4171 H 404.918 -2.54255 -3.29636 0
M  V30 4172 H 405.451 -3.49902 -1.89244 0
M  V30 4173 H 402.19 -6.43103 -1.26878 0
M  V30 4174 H 401.71 -5.39096 -2.62937 0
M  V30 4175 H 403.389 -5.96982 -2.49442 0
M  V30 4176 N 403.521 0.559213 -1.47345 0
M  V30 4177 C 404.937 0.884943 -1.32819 0
M  V30 4178 C 405.137 1.98988 -0.317173 0
M  V30 4179 O 404.193 2.51031 0.272011 0
M  V30 4180 C 405.506 1.28007 -2.72093 0
M  V30 4181 C 407.054 1.39161 -2.80363 0
M  V30 4182 C 407.529 1.82031 -4.20272 0
M  V30 4183 N 409.02 1.89185 -4.22804 0
M  V30 4184 C 409.755 2.2368 -5.27973 0
M  V30 4185 N 409.251 2.56802 -6.43447 0
M  V30 4186 N 411.044 2.24436 -5.15349 0
M  V30 4187 H 403.195 -0.170304 -2.11716 0
M  V30 4188 H 405.458 -0.0135247 -0.947904 0
M  V30 4189 H 405.164 0.542027 -3.47498 0
M  V30 4190 H 405.038 2.23665 -3.03733 0
M  V30 4191 H 407.425 2.12048 -2.05231 0
M  V30 4192 H 407.506 0.41696 -2.52379 0
M  V30 4193 H 407.15 1.09715 -4.95908 0
M  V30 4194 H 407.08 2.80495 -4.45679 0
M  V30 4195 H 409.571 1.65982 -3.39497 0
M  V30 4196 H 409.884 2.82144 -7.19454 0
M  V30 4197 H 408.229 2.54387 -6.46771 0
M  V30 4198 H 411.42 1.97998 -4.24163 0
M  V30 4199 H 411.593 2.50989 -5.97418 0
M  V30 4200 N 404.999 1.35443 0.805782 0
M  V30 4201 C 406.41 1.25768 1.37983 0
M  V30 4202 C 406.761 -0.10958 1.95894 0
M  V30 4203 O 405.886 -1.01056 1.91355 0
M  V30 4204 C 406.481 2.27727 2.5085 0
M  V30 4205 C 405.04 2.2179 3.04115 0
M  V30 4206 C 404.187 2.13393 1.77084 0
M  V30 4207 H 407.138 1.4656 0.608752 0
M  V30 4208 H 407.159 1.90422 3.29424 0
M  V30 4209 H 406.671 3.27227 2.08671 0
M  V30 4210 H 404.772 1.25703 3.50756 0
M  V30 4211 H 404.885 3.13788 3.62042 0
M  V30 4212 H 403.249 1.59384 1.98668 0
M  V30 4213 H 404.032 3.14755 1.37056 0
M  V30 4214 N 406.477 -1.02803 1.19454 0
M  V30 4215 C 407.893 -1.28473 0.946937 0
M  V30 4216 C 408.093 -1.97881 -0.380202 0
M  V30 4217 O 407.149 -2.26719 -1.11151 0
M  V30 4218 C 408.462 -2.13099 2.12154 0
M  V30 4219 C 410.01 -2.26404 2.16126 0
M  V30 4220 C 410.485 -3.14402 3.33039 0
M  V30 4221 N 411.976 -3.21991 3.32981 0
M  V30 4222 C 412.711 -3.90272 4.20089 0
M  V30 4223 N 412.207 -4.60777 5.17355 0
M  V30 4224 N 414 -3.8668 4.07964 0
M  V30 4225 H 406.151 -0.561665 2.04839 0
M  V30 4226 H 408.414 -0.310438 0.89573 0
M  V30 4227 H 408.12 -1.69422 3.08203 0
M  V30 4228 H 407.994 -3.13813 2.09287 0
M  V30 4229 H 410.381 -2.69311 1.20647 0
M  V30 4230 H 410.462 -1.25237 2.23045 0
M  V30 4231 H 410.106 -2.72204 4.28798 0
M  V30 4232 H 410.036 -4.1563 3.23356 0
M  V30 4233 H 412.527 -2.71778 2.62574 0
M  V30 4234 H 412.84 -5.10513 5.80169 0
M  V30 4235 H 411.185 -4.5964 5.21302 0
M  V30 4236 H 414.376 -3.30739 3.31254 0
M  V30 4237 H 414.549 -4.39621 4.76064 0
M  V30 4238 N 407.956 -0.998596 -1.21925 0
M  V30 4239 C 408.919 -0.558679 -2.22287 0
M  V30 4240 C 409.919 0.361525 -1.56683 0
M  V30 4241 O 411.109 0.152695 -1.73529 0
M  V30 4242 C 408.241 0.18661 -3.40389 0
M  V30 4243 H 409.434 -1.4463 -2.62721 0
M  V30 4244 H 406.987 -0.786413 -1.35075 0
M  V30 4245 H 407.722 1.08996 -3.05435 0
M  V30 4246 H 407.507 -0.474188 -3.89222 0
M  V30 4247 H 408.997 0.482367 -4.14805 0
M  V30 4248 N 409.434 1.37368 -0.772513 0
M  V30 4249 C 410.683 1.98918 -0.333861 0
M  V30 4250 C 410.996 1.62017 1.09589 0
M  V30 4251 O 412.202 2.16676 1.63596 0
M  V30 4252 C 410.658 3.55735 -0.545971 0
M  V30 4253 C 410.266 4.01573 -1.98603 0
M  V30 4254 C 412.01 4.24156 -0.170979 0
M  V30 4255 C 409.917 5.51102 -2.1457 0
M  V30 4256 H 408.847 0.744214 -0.121085 0
M  V30 4257 H 411.498 1.56888 -0.95175 0
M  V30 4258 H 409.88 3.95748 0.141387 0
M  V30 4259 H 411.054 3.72803 -2.7084 0
M  V30 4260 H 409.369 3.45937 -2.31769 0
M  V30 4261 H 411.966 5.34024 -0.26878 0
M  V30 4262 H 412.309 4.06917 0.878855 0
M  V30 4263 H 412.842 3.89447 -0.810914 0
M  V30 4264 H 409.581 5.73268 -3.17875 0
M  V30 4265 H 409.101 5.81554 -1.46817 0
M  V30 4266 H 410.78 6.17083 -1.94468 0
M  V30 4267 N 410.912 0.523116 1.48665 0
M  V30 4268 C 412.189 -0.0775449 1.95446 0
M  V30 4269 C 412.569 -1.5197 1.4652 0
M  V30 4270 O 411.917 -2.17876 0.688657 0
M  V30 4271 C 412.127 0.0326135 3.48985 0
M  V30 4272 C 413.475 -0.130141 4.24401 0
M  V30 4273 O 414.499 -0.0415142 3.56176 0
M  V30 4274 O 413.358 -0.31491 5.45592 0
M  V30 4275 H 410.452 -0.0831012 0.822814 0
M  V30 4276 H 412.998 0.587227 1.59216 0
M  V30 4277 H 411.77 1.03748 3.77296 0
M  V30 4278 H 411.393 -0.671317 3.91892 0
M  V30 4279 N 412.39 -1.55475 0.257931 0
M  V30 4280 C 413.3 -2.2549 -0.647425 0
M  V30 4281 C 414.316 -1.2748 -1.18427 0
M  V30 4282 O 415.492 -1.6038 -1.2182 0
M  V30 4283 C 412.557 -2.94916 -1.82278 0
M  V30 4284 C 411.618 -4.08363 -1.32432 0
M  V30 4285 C 410.851 -4.74469 -2.44366 0
M  V30 4286 O 411.074 -4.39701 -3.63344 0
M  V30 4287 O 410.008 -5.62763 -2.13497 0
M  V30 4288 H 413.834 -3.03593 -0.0807707 0
M  V30 4289 H 411.419 -1.49377 0.0259962 0
M  V30 4290 H 413.301 -3.38606 -2.50846 0
M  V30 4291 H 411.976 -2.19744 -2.37685 0
M  V30 4292 H 410.883 -3.69166 -0.605605 0
M  V30 4293 H 412.216 -4.85385 -0.816211 0
M  V30 4294 N 413.868 0.0150385 -1.57593 0
M  V30 4295 C 414.798 1.01047 -2.10503 0
M  V30 4296 C 415.779 1.36816 -1.01071 0
M  V30 4297 O 416.964 1.45455 -1.28672 0
M  V30 4298 C 414.094 2.30708 -2.59598 0
M  V30 4299 C 413.048 2.09142 -3.73421 0
M  V30 4300 C 412.374 3.44685 -4.08774 0
M  V30 4301 C 413.674 1.46619 -5.01298 0
M  V30 4302 H 415.368 0.569978 -2.93925 0
M  V30 4303 H 412.914 0.272724 -1.41394 0
M  V30 4304 H 414.867 3.00687 -2.95238 0
M  V30 4305 H 413.591 2.76843 -1.73279 0
M  V30 4306 H 412.25 1.41592 -3.38153 0
M  V30 4307 H 411.898 3.88495 -3.195 0
M  V30 4308 H 411.598 3.31077 -4.8545 0
M  V30 4309 H 413.122 4.16004 -4.4696 0
M  V30 4310 H 414.536 2.06535 -5.34805 0
M  V30 4311 H 412.933 1.43544 -5.82679 0
M  V30 4312 H 414.003 0.433611 -4.82957 0
M  V30 4313 N 415.346 1.54954 0.287554 0
M  V30 4314 C 416.276 1.89839 1.35954 0
M  V30 4315 C 417.257 0.758675 1.52244 0
M  V30 4316 O 418.442 1.01557 1.65529 0
M  V30 4317 C 415.572 2.15753 2.72154 0
M  V30 4318 C 414.526 3.3159 2.70614 0
M  V30 4319 C 413.852 3.42952 4.10229 0
M  V30 4320 C 415.152 4.68359 2.31165 0
M  V30 4321 H 416.846 2.79625 1.07007 0
M  V30 4322 H 414.392 1.3454 0.513316 0
M  V30 4323 H 416.345 2.38743 3.47246 0
M  V30 4324 H 415.069 1.22752 3.02654 0
M  V30 4325 H 413.728 3.08545 1.97979 0
M  V30 4326 H 413.376 2.47443 4.37928 0
M  V30 4327 H 413.076 4.20826 4.10097 0
M  V30 4328 H 414.6 3.68218 4.87081 0
M  V30 4329 H 416.014 4.9099 2.95976 0
M  V30 4330 H 414.411 5.49044 2.42221 0
M  V30 4331 H 415.481 4.68165 1.26291 0
M  V30 4332 N 416.824 -0.551391 1.4764 0
M  V30 4333 C 418.24 -0.877887 1.33287 0
M  V30 4334 C 418.44 -1.98817 0.327721 0
M  V30 4335 O 417.496 -2.51171 -0.258695 0
M  V30 4336 C 418.809 -1.26563 2.72768 0
M  V30 4337 C 420.357 -1.37673 2.81097 0
M  V30 4338 C 420.832 -1.79799 4.21232 0
M  V30 4339 N 422.323 -1.8694 4.23802 0
M  V30 4340 C 423.058 -2.20876 5.29151 0
M  V30 4341 N 422.554 -2.53386 6.448 0
M  V30 4342 N 424.347 -2.217 5.16532 0
M  V30 4343 H 416.498 0.18153 2.11623 0
M  V30 4344 H 418.761 0.0185514 0.947818 0
M  V30 4345 H 418.467 -0.523591 3.47781 0
M  V30 4346 H 418.341 -2.22052 3.04915 0
M  V30 4347 H 420.728 -2.10956 2.06353 0
M  V30 4348 H 420.809 -0.40357 2.52596 0
M  V30 4349 H 420.453 -1.07083 4.96483 0
M  V30 4350 H 420.383 -2.78128 4.4716 0
M  V30 4351 H 422.874 -1.64179 3.40373 0
M  V30 4352 H 423.187 -2.78325 7.20941 0
M  V30 4353 H 421.532 -2.50953 6.48111 0
M  V30 4354 H 424.723 -1.95745 4.25207 0
M  V30 4355 H 424.896 -2.47818 5.98741 0
M  V30 4356 N 418.302 -1.35869 -0.798587 0
M  V30 4357 C 419.548 -1.30788 -1.55775 0
M  V30 4358 C 419.903 0.114558 -1.92059 0
M  V30 4359 O 419.196 1.06691 -1.59147 0
M  V30 4360 C 419.39 -2.1556 -2.85077 0
M  V30 4361 C 419.219 -3.65904 -2.61428 0
M  V30 4362 C 417.989 -4.35112 -2.56915 0
M  V30 4363 C 420.187 -4.59375 -2.31255 0
M  V30 4364 N 418.169 -5.71155 -2.25068 0
M  V30 4365 C 419.54 -5.83598 -2.09316 0
M  V30 4366 C 421.595 -4.48035 -2.17185 0
M  V30 4367 C 420.298 -6.97755 -1.74731 0
M  V30 4368 C 422.324 -5.62049 -1.83998 0
M  V30 4369 C 421.686 -6.85305 -1.629 0
M  V30 4370 H 417.785 -0.533855 -0.571422 0
M  V30 4371 H 420.369 -1.7083 -0.934079 0
M  V30 4372 H 418.54 -1.77776 -3.45326 0
M  V30 4373 H 420.272 -2.01938 -3.50718 0
M  V30 4374 H 417.027 -3.87812 -2.71843 0
M  V30 4375 H 417.451 -6.42978 -2.11916 0
M  V30 4376 H 422.093 -3.53338 -2.3219 0
M  V30 4377 H 419.811 -7.92411 -1.58464 0
M  V30 4378 H 423.397 -5.55232 -1.73808 0
M  V30 4379 H 422.277 -7.72034 -1.37596 0
M  V30 4380 N 419.78 1.02168 -1.19998 0
M  V30 4381 C 421.029 1.75091 -1.0013 0
M  V30 4382 C 421.342 1.89923 0.467835 0
M  V30 4383 O 422.548 2.59888 0.785515 0
M  V30 4384 C 421.004 3.14892 -1.74273 0
M  V30 4385 C 420.612 3.0809 -3.25245 0
M  V30 4386 C 422.356 3.9206 -1.62755 0
M  V30 4387 C 420.263 4.42867 -3.91948 0
M  V30 4388 H 419.193 0.656394 -0.37103 0
M  V30 4389 H 421.844 1.14284 -1.43567 0
M  V30 4390 H 420.226 3.7621 -1.2362 0
M  V30 4391 H 421.4 2.5611 -3.83072 0
M  V30 4392 H 419.715 2.44416 -3.3712 0
M  V30 4393 H 422.312 4.91764 -2.09934 0
M  V30 4394 H 422.655 4.12199 -0.582894 0
M  V30 4395 H 423.188 3.37359 -2.10793 0
M  V30 4396 H 419.927 4.27931 -4.96543 0
M  V30 4397 H 419.447 4.94874 -3.3891 0
M  V30 4398 H 421.126 5.11728 -3.95909 0
M  V30 4399 N 421.258 1.00505 1.21394 0
M  V30 4400 C 422.669 0.721082 1.72213 0
M  V30 4401 C 423.02 -0.761263 1.80829 0
M  V30 4402 O 422.145 -1.59464 1.46288 0
M  V30 4403 C 422.74 1.30228 3.12772 0
M  V30 4404 C 421.299 1.06743 3.60947 0
M  V30 4405 C 420.446 1.41507 2.38477 0
M  V30 4406 H 423.397 1.17594 1.06571 0
M  V30 4407 H 423.418 0.686955 3.74247 0
M  V30 4408 H 422.93 2.38115 3.06468 0
M  V30 4409 H 421.031 0.00572162 3.726 0
M  V30 4410 H 421.144 1.73936 4.46411 0
M  V30 4411 H 419.508 0.833852 2.40664 0
M  V30 4412 H 420.291 2.50424 2.34824 0
M  V30 4413 N 422.737 -1.36956 0.779787 0
M  V30 4414 C 423.687 -2.27539 0.144892 0
M  V30 4415 C 424.671 -1.46493 -0.665488 0
M  V30 4416 O 425.863 -1.68968 -0.527141 0
M  V30 4417 C 422.992 -3.35512 -0.727082 0
M  V30 4418 C 422.078 -4.24001 0.0915642 0
M  V30 4419 N 422.469 -4.92757 1.14125 0
M  V30 4420 C 420.767 -4.45807 -0.131141 0
M  V30 4421 C 421.468 -5.58138 1.6388 0
M  V30 4422 N 420.444 -5.35241 0.94962 0
M  V30 4423 H 424.246 -2.78176 0.948446 0
M  V30 4424 H 421.76 -1.50169 0.618315 0
M  V30 4425 H 423.757 -3.99324 -1.19776 0
M  V30 4426 H 422.417 -2.86431 -1.52929 0
M  V30 4427 H 423.428 -4.94984 1.52353 0
M  V30 4428 H 420.105 -4.07582 -0.904621 0
M  V30 4429 H 421.495 -6.23071 2.51461 0
M  V30 4430 N 424.215 -0.530993 -1.48385 0
M  V30 4431 C 425.631 -0.188919 -1.58478 0
M  V30 4432 C 425.831 1.30786 -1.53288 0
M  V30 4433 O 424.887 2.08619 -1.42248 0
M  V30 4434 C 426.2 -0.792343 -2.90073 0
M  V30 4435 C 427.748 -0.76117 -3.03604 0
M  V30 4436 C 428.223 -1.34319 -4.37861 0
M  V30 4437 N 429.714 -1.3052 -4.44431 0
M  V30 4438 C 430.449 -1.72543 -5.46824 0
M  V30 4439 N 429.945 -2.22299 -6.56167 0
M  V30 4440 N 431.738 -1.63773 -5.37712 0
M  V30 4441 H 423.889 -1.50377 -1.50002 0
M  V30 4442 H 426.152 -0.625559 -0.712306 0
M  V30 4443 H 425.858 -1.84323 -2.99529 0
M  V30 4444 H 425.732 -0.270026 -3.76232 0
M  V30 4445 H 428.119 0.280957 -2.93759 0
M  V30 4446 H 428.2 -1.32097 -2.19053 0
M  V30 4447 H 427.844 -2.38425 -4.4846 0
M  V30 4448 H 427.774 -0.759064 -5.21101 0
M  V30 4449 H 430.265 -0.940973 -3.65997 0
M  V30 4450 H 430.578 -2.52356 -7.30436 0
M  V30 4451 H 428.923 -2.26293 -6.57127 0
M  V30 4452 H 432.114 -1.24698 -4.51185 0
M  V30 4453 H 432.287 -1.96844 -6.17379 0
M  V30 4454 N 425.693 1.55336 -0.266172 0
M  V30 4455 C 426.641 2.23587 0.641228 0
M  V30 4456 C 427.635 1.22986 1.16494 0
M  V30 4457 O 428.841 1.40943 1.1196 0
M  V30 4458 H 425.216 0.717452 0.225315 0
M  V30 4459 H 427.187 2.9837 0.0426561 0
M  V30 4460 C 425.936 2.96369 1.81826 0
M  V30 4461 H 425.259 3.73563 1.42445 0
M  V30 4462 H 426.699 3.47459 2.42998 0
M  V30 4463 C 425.158 2.0133 2.70125 0
M  V30 4464 O 425.688 1.55875 3.70224 0
M  V30 4465 N 423.894 1.6802 2.37102 0
M  V30 4466 H 423.441 2.05181 1.55751 0
M  V30 4467 H 423.399 1.047 2.96454 0
M  V30 4468 N 427.171 -0.0066808 1.57599 0
M  V30 4469 C 428.134 -0.985035 2.06953 0
M  V30 4470 C 429.134 -1.27663 0.977687 0
M  V30 4471 O 430.324 -1.22293 1.24057 0
M  V30 4472 C 427.456 -2.3118 2.50536 0
M  V30 4473 H 428.649 -0.558255 2.94658 0
M  V30 4474 H 426.202 -0.254011 1.54222 0
M  V30 4475 H 426.937 -2.78561 1.66054 0
M  V30 4476 H 426.722 -2.11338 3.3027 0
M  V30 4477 H 428.212 -3.01377 2.8907 0
M  V30 4478 N 428.649 -1.55105 -0.279332 0
M  V30 4479 C 429.895 -1.75672 -1.01327 0
M  V30 4480 C 430.228 -0.552739 -1.86168 0
M  V30 4481 O 429.503 0.449827 -1.89227 0
M  V30 4482 C 429.786 -3.05825 -1.90114 0
M  V30 4483 C 429.639 -4.36565 -1.08309 0
M  V30 4484 C 430.958 -3.31975 -2.8893 0
M  V30 4485 H 428.077 -0.639149 -0.366957 0
M  V30 4486 H 430.719 -1.87833 -0.286154 0
M  V30 4487 H 428.869 -2.95588 -2.52111 0
M  V30 4488 H 430.541 -4.58751 -0.484314 0
M  V30 4489 H 428.784 -4.32076 -0.386362 0
M  V30 4490 H 429.455 -5.23946 -1.73737 0
M  V30 4491 H 431.931 -3.41963 -2.37067 0
M  V30 4492 H 430.807 -4.2432 -3.48201 0
M  V30 4493 H 431.068 -2.51309 -3.63725 0
M  V30 4494 N 430.127 0.543554 -1.4793 0
M  V30 4495 C 431.375 1.29752 -1.54948 0
M  V30 4496 C 431.696 1.93764 -0.219242 0
M  V30 4497 O 430.966 1.80639 0.75805 0
M  V30 4498 H 429.546 0.481874 -0.570795 0
M  V30 4499 H 432.208 0.633636 -1.84312 0
M  V30 4500 H 431.304 2.08392 -2.32334 0
M  V30 4501 N 431.605 1.3629 0.791371 0
M  V30 4502 C 432.535 1.33137 1.91825 0
M  V30 4503 C 433.516 0.203168 1.68882 0
M  V30 4504 O 434.701 0.400509 1.90025 0
M  V30 4505 C 431.831 1.11793 3.28816 0
M  V30 4506 C 430.785 2.21417 3.66277 0
M  V30 4507 C 430.111 1.85218 5.01596 0
M  V30 4508 C 431.411 3.63489 3.75064 0
M  V30 4509 H 433.105 2.2743 1.9472 0
M  V30 4510 H 430.651 1.09479 0.935437 0
M  V30 4511 H 432.604 1.08222 4.07266 0
M  V30 4512 H 431.328 0.139501 3.26302 0
M  V30 4513 H 429.987 2.2411 2.90121 0
M  V30 4514 H 429.635 0.859544 4.95602 0
M  V30 4515 H 429.335 2.58611 5.27631 0
M  V30 4516 H 430.859 1.832 5.82469 0
M  V30 4517 H 432.273 3.63034 4.43711 0
M  V30 4518 H 430.67 4.35771 4.12582 0
M  V30 4519 H 431.74 3.98536 2.76219 0
M  V30 4520 N 433.083 -1.0153 1.20538 0
M  V30 4521 C 434.308 -1.79283 1.04271 0
M  V30 4522 C 434.733 -1.8372 -0.403544 0
M  V30 4523 O 434.091 -1.27321 -1.2907 0
M  V30 4524 C 434.139 -3.21535 1.63241 0
M  V30 4525 O 433.243 -4.03099 0.870908 0
M  V30 4526 H 432.584 -0.55293 0.367647 0
M  V30 4527 H 435.114 -1.27696 1.59859 0
M  V30 4528 H 435.124 -3.72243 1.6703 0
M  V30 4529 H 433.799 -3.1762 2.68497 0
M  V30 4530 H 432.376 -3.61693 0.907323 0
M  V30 4531 N 434.561 -1.01147 -1.20859 0
M  V30 4532 C 435.977 -0.725422 -1.42161 0
M  V30 4533 C 436.177 0.696919 -1.89064 0
M  V30 4534 O 435.233 1.46539 -2.05627 0
M  V30 4535 C 436.546 -1.74678 -2.44761 0
M  V30 4536 C 438.094 -1.76433 -2.58535 0
M  V30 4537 C 438.569 -2.77481 -3.64374 0
M  V30 4538 N 440.06 -2.76189 -3.71852 0
M  V30 4539 C 440.795 -3.51035 -4.53389 0
M  V30 4540 N 440.291 -4.35541 -5.38773 0
M  V30 4541 N 442.084 -3.39655 -4.47873 0
M  V30 4542 H 434.235 -1.92979 -0.887282 0
M  V30 4543 H 436.498 -0.833327 -0.451962 0
M  V30 4544 H 436.204 -2.76551 -2.17285 0
M  V30 4545 H 436.078 -1.55472 -3.43669 0
M  V30 4546 H 438.465 -0.75248 -2.85345 0
M  V30 4547 H 438.546 -1.99712 -1.5984 0
M  V30 4548 H 438.19 -3.78827 -3.38308 0
M  V30 4549 H 438.12 -2.51466 -4.6268 0
M  V30 4550 H 440.611 -2.14885 -3.10858 0
M  V30 4551 H 440.924 -4.89432 -5.98061 0
M  V30 4552 H 439.269 -4.39621 -5.38292 0
M  V30 4553 H 442.46 -2.73063 -3.80203 0
M  V30 4554 H 442.633 -3.9824 -5.11184 0
M  V30 4555 N 436.039 1.36541 -0.78704 0
M  V30 4556 C 437.288 1.98552 -0.35494 0
M  V30 4557 C 437.601 1.63171 1.07864 0
M  V30 4558 O 438.807 2.18399 1.61289 0
M  V30 4559 C 437.263 3.55136 -0.583671 0
M  V30 4560 C 436.871 3.99444 -2.02851 0
M  V30 4561 C 438.615 4.2395 -0.215957 0
M  V30 4562 C 436.522 5.48796 -2.20403 0
M  V30 4563 H 435.452 0.742888 -0.128972 0
M  V30 4564 H 438.103 1.5587 -0.968337 0
M  V30 4565 H 436.485 3.95875 0.0994046 0
M  V30 4566 H 437.659 3.6991 -2.74779 0
M  V30 4567 H 435.974 3.43459 -2.35425 0
M  V30 4568 H 438.571 5.33709 -0.325405 0
M  V30 4569 H 438.914 4.07827 0.835646 0
M  V30 4570 H 439.447 3.88565 -0.852175 0
M  V30 4571 H 436.186 5.69864 -3.23937 0
M  V30 4572 H 435.706 5.79964 -1.52977 0
M  V30 4573 H 437.385 6.14986 -2.01002 0
M  V30 4574 N 437.518 0.538854 1.48102 0
M  V30 4575 C 438.481 -0.208395 2.28251 0
M  V30 4576 C 439.481 -0.859656 1.35892 0
M  V30 4577 O 440.671 -0.71834 1.58699 0
M  V30 4578 C 437.803 -1.30252 3.15035 0
M  V30 4579 H 438.996 0.495407 2.9578 0
M  V30 4580 H 436.549 0.295112 1.53489 0
M  V30 4581 H 437.284 -2.0393 2.52157 0
M  V30 4582 H 437.069 -0.840551 3.82985 0
M  V30 4583 H 438.559 -1.82787 3.75471 0
M  V30 4584 N 438.996 -1.55193 0.274407 0
M  V30 4585 C 439.926 -2.25471 -0.607032 0
M  V30 4586 C 440.907 -1.24461 -1.15946 0
M  V30 4587 O 442.092 -1.53179 -1.19373 0
M  V30 4588 C 439.222 -2.97526 -1.79153 0
M  V30 4589 C 438.176 -4.05459 -1.37067 0
M  V30 4590 C 437.502 -4.65084 -2.6382 0
M  V30 4591 C 438.802 -5.19691 -0.521389 0
M  V30 4592 H 440.496 -2.99393 -0.0209343 0
M  V30 4593 H 438.042 -1.43997 -0.00862866 0
M  V30 4594 H 439.995 -3.45402 -2.41404 0
M  V30 4595 H 438.719 -2.21138 -2.40344 0
M  V30 4596 H 437.378 -3.58393 -0.771355 0
M  V30 4597 H 437.026 -3.85365 -3.23268 0
M  V30 4598 H 436.726 -5.37961 -2.36372 0
M  V30 4599 H 438.25 -5.15708 -3.26921 0
M  V30 4600 H 439.664 -5.63623 -1.04889 0
M  V30 4601 H 438.061 -5.99126 -0.341825 0
M  V30 4602 H 439.131 -4.82713 0.46 0
M  V30 4603 N 440.474 -0.00167713 -1.576 0
M  V30 4604 C 441.384 1.00548 -2.1196 0
M  V30 4605 C 442.4 1.3758 -1.06526 0
M  V30 4606 O 443.576 1.46278 -1.38436 0
M  V30 4607 C 440.641 2.27809 -2.6135 0
M  V30 4608 C 439.702 1.97074 -3.81393 0
M  V30 4609 C 438.935 3.18267 -4.28417 0
M  V30 4610 O 439.158 4.30009 -3.74765 0
M  V30 4611 O 438.092 3.02167 -5.20556 0
M  V30 4612 H 441.918 0.573373 -2.98238 0
M  V30 4613 H 439.503 0.217255 -1.47812 0
M  V30 4614 H 441.385 3.02568 -2.93309 0
M  V30 4615 H 440.06 2.70254 -1.78169 0
M  V30 4616 H 438.967 1.19785 -3.54404 0
M  V30 4617 H 440.3 1.59464 -4.65652 0
M  V30 4618 N 441.952 1.55251 0.271103 0
M  V30 4619 C 443.229 1.66664 1.02384 0
M  V30 4620 C 443.609 0.534363 2.04225 0
M  V30 4621 O 442.957 -0.465337 2.23712 0
M  V30 4622 C 443.167 3.05961 1.67895 0
M  V30 4623 C 444.515 3.63772 2.18986 0
M  V30 4624 O 445.539 3.08606 1.77878 0
M  V30 4625 O 444.398 4.60429 2.94393 0
M  V30 4626 H 441.492 0.676957 0.475035 0
M  V30 4627 H 444.038 1.67589 0.26681 0
M  V30 4628 H 442.81 3.79815 0.941071 0
M  V30 4629 H 442.433 3.08943 2.5028 0
M  V30 4630 N 443.43 -0.535701 1.48216 0
M  V30 4631 C 444.676 -1.29375 1.56173 0
M  V30 4632 C 445.009 -1.92804 0.232429 0
M  V30 4633 O 444.284 -1.78992 -0.761048 0
M  V30 4634 C 444.567 -2.38747 2.69577 0
M  V30 4635 C 444.42 -1.80046 4.12193 0
M  V30 4636 C 445.739 -3.40551 2.78771 0
M  V30 4637 H 442.858 -0.469027 0.568491 0
M  V30 4638 H 445.5 -0.597358 1.80365 0
M  V30 4639 H 443.65 -2.98147 2.4908 0
M  V30 4640 H 445.322 -1.24742 4.44114 0
M  V30 4641 H 443.565 -1.10609 4.19462 0
M  V30 4642 H 444.236 -2.59212 4.87353 0
M  V30 4643 H 446.712 -2.91099 2.97322 0
M  V30 4644 H 445.588 -4.1448 3.59857 0
M  V30 4645 H 445.849 -4.00746 1.86696 0
M  V30 4646 N 444.908 -1.36708 -0.784132 0
M  V30 4647 C 445.818 -1.3363 -1.92822 0
M  V30 4648 C 446.834 -0.237686 -1.72369 0
M  V30 4649 O 448.01 -0.470962 -1.95816 0
M  V30 4650 C 445.075 -1.13011 -3.27764 0
M  V30 4651 C 444.136 -2.32397 -3.60957 0
M  V30 4652 C 443.369 -2.12752 -4.89461 0
M  V30 4653 O 443.592 -1.10541 -5.59586 0
M  V30 4654 O 442.526 -3.00653 -5.21432 0
M  V30 4655 H 446.352 -2.29964 -1.98369 0
M  V30 4656 H 443.937 -1.1731 -0.925136 0
M  V30 4657 H 445.819 -1.03451 -4.08504 0
M  V30 4658 H 444.494 -0.19743 -3.23097 0
M  V30 4659 H 443.401 -2.47527 -2.80502 0
M  V30 4660 H 444.734 -3.2419 -3.70354 0
M  V30 4661 N 446.386 1.0089 -1.21074 0
M  V30 4662 C 447.635 1.74019 -1.01981 0
M  V30 4663 C 447.948 1.90408 0.447665 0
M  V30 4664 O 449.154 2.60707 0.757906 0
M  V30 4665 C 447.61 3.13026 -1.77603 0
M  V30 4666 C 447.218 3.04623 -3.28495 0
M  V30 4667 C 448.962 3.90312 -1.66904 0
M  V30 4668 C 446.869 4.38685 -3.96623 0
M  V30 4669 H 445.799 0.652422 -0.377971 0
M  V30 4670 H 448.45 1.12755 -1.44771 0
M  V30 4671 H 446.832 3.74878 -1.27604 0
M  V30 4672 H 448.006 2.52032 -3.85767 0
M  V30 4673 H 446.321 2.40827 -3.39693 0
M  V30 4674 H 448.918 4.8951 -2.15138 0
M  V30 4675 H 449.261 4.11558 -0.62658 0
M  V30 4676 H 449.794 3.35104 -2.14359 0
M  V30 4677 H 446.533 4.22641 -5.01054 0
M  V30 4678 H 446.053 4.91252 -3.4414 0
M  V30 4679 H 447.732 5.075 -4.01314 0
M  V30 4680 N 447.864 1.01787 1.20321 0
M  V30 4681 C 448.811 0.589197 2.23153 0
M  V30 4682 C 449.781 -0.391367 1.61423 0
M  V30 4683 O 450.966 -0.290518 1.88575 0
M  V30 4684 C 448.106 -0.0650747 3.45039 0
M  V30 4685 C 447.219 0.960207 4.21194 0
M  V30 4686 C 446.354 0.276854 5.30478 0
M  V30 4687 C 445.393 1.2888 5.98378 0
M  V30 4688 N 444.53 0.632031 6.99249 0
M  V30 4689 H 449.37 1.47071 2.59179 0
M  V30 4690 H 446.907 0.736192 1.27352 0
M  V30 4691 H 448.865 -0.461552 4.14639 0
M  V30 4692 H 447.495 -0.910233 3.09701 0
M  V30 4693 H 446.547 1.47484 3.50646 0
M  V30 4694 H 447.859 1.72977 4.67847 0
M  V30 4695 H 447.013 -0.175056 6.06447 0
M  V30 4696 H 445.752 -0.525004 4.84866 0
M  V30 4697 H 444.757 1.75109 5.21169 0
M  V30 4698 H 445.982 2.09196 6.46076 0
M  V30 4699 H 443.928 -0.149935 6.55829 0
M  V30 4700 H 443.845 1.33964 7.44036 0
M  V30 4701 H 445.113 0.203755 7.79234 0
M  V30 4702 N 449.342 -1.36122 0.79427 0
M  V30 4703 C 450.59 -1.98718 0.368177 0
M  V30 4704 C 450.911 -1.63345 -1.06506 0
M  V30 4705 O 450.181 -0.909825 -1.73491 0
M  V30 4706 H 448.761 -0.735038 0.133146 0
M  V30 4707 H 451.423 -1.66239 1.01739 0
M  V30 4708 H 450.519 -3.08633 0.463923 0
M  V30 4709 N 450.82 -0.546701 -1.47814 0
M  V30 4710 C 452.066 -0.0187684 -2.02791 0
M  V30 4711 C 452.399 1.32338 -1.42128 0
M  V30 4712 O 451.674 1.85867 -0.573023 0
M  V30 4713 C 451.957 0.0854985 -3.59998 0
M  V30 4714 C 451.81 -1.283 -4.31114 0
M  V30 4715 C 453.129 0.80412 -4.32691 0
M  V30 4716 H 450.248 -0.0082946 -0.736953 0
M  V30 4717 H 452.89 -0.706962 -1.76358 0
M  V30 4718 H 451.04 0.671609 -3.82651 0
M  V30 4719 H 452.712 -1.91151 -4.19832 0
M  V30 4720 H 450.955 -1.86049 -3.91878 0
M  V30 4721 H 451.626 -1.16287 -5.39612 0
M  V30 4722 H 454.102 0.306576 -4.14969 0
M  V30 4723 H 452.978 0.846011 -5.42341 0
M  V30 4724 H 453.239 1.85802 -4.01161 0
M  V30 4725 N 452.299 1.55045 -0.282633 0
M  V30 4726 C 453.715 1.59441 0.0712997 0
M  V30 4727 C 453.915 1.2998 1.53972 0
M  V30 4728 O 452.971 1.06431 2.28973 0
M  V30 4729 C 454.284 2.99097 -0.310104 0
M  V30 4730 C 455.832 3.1194 -0.257343 0
M  V30 4731 C 456.307 4.53875 -0.613297 0
M  V30 4732 N 457.798 4.5974 -0.565134 0
M  V30 4733 C 458.533 5.67603 -0.81326 0
M  V30 4734 N 458.029 6.83582 -1.1264 0
M  V30 4735 N 459.822 5.57187 -0.741553 0
M  V30 4736 H 451.973 1.72458 -1.23984 0
M  V30 4737 H 454.236 0.804549 -0.501403 0
M  V30 4738 H 453.942 3.25516 -1.33163 0
M  V30 4739 H 453.816 3.75616 0.345366 0
M  V30 4740 H 456.203 2.85281 0.754905 0
M  V30 4741 H 456.284 2.37618 -0.947178 0
M  V30 4742 H 455.928 4.81261 -1.62327 0
M  V30 4743 H 455.858 5.26508 0.09841 0
M  V30 4744 H 458.349 3.76427 -0.333294 0
M  V30 4745 H 458.662 7.6175 -1.30219 0
M  V30 4746 H 457.007 6.85179 -1.16425 0
M  V30 4747 H 460.198 4.65457 -0.496705 0
M  V30 4748 H 460.371 6.41171 -0.938306 0
M  V30 4749 N 453.777 0.010035 1.57597 0
M  V30 4750 C 455.026 -0.671945 1.90178 0
M  V30 4751 C 455.339 -1.74376 0.886131 0
M  V30 4752 O 456.545 -2.48107 1.10252 0
M  V30 4753 C 455.001 -1.24636 3.3763 0
M  V30 4754 C 454.609 -0.208838 4.47513 0
M  V30 4755 C 456.353 -1.90595 3.79307 0
M  V30 4756 C 454.26 -0.793814 5.86048 0
M  V30 4757 H 453.19 -0.25474 0.709665 0
M  V30 4758 H 455.841 0.0722206 1.83358 0
M  V30 4759 H 454.223 -2.04152 3.3932 0
M  V30 4760 H 455.397 0.562463 4.57354 0
M  V30 4761 H 453.712 0.350889 4.14919 0
M  V30 4762 H 456.309 -2.35284 4.80151 0
M  V30 4763 H 456.652 -2.74074 3.13352 0
M  V30 4764 H 457.185 -1.17798 3.79958 0
M  V30 4765 H 453.924 0.00240855 6.555 0
M  V30 4766 H 453.444 -1.53404 5.79851 0
M  V30 4767 H 455.123 -1.2894 6.34022 0
M  V30 4768 N 455.255 -1.55392 -0.262866 0
M  V30 4769 C 456.671 -1.47459 -0.610582 0
M  V30 4770 C 456.871 -0.697031 -1.8906 0
M  V30 4771 O 455.927 -0.219952 -2.5154 0
M  V30 4772 C 457.24 -2.91751 -0.728131 0
M  V30 4773 C 458.788 -3.02027 -0.821517 0
M  V30 4774 C 459.263 -4.47594 -0.97076 0
M  V30 4775 N 460.754 -4.51465 -1.03603 0
M  V30 4776 C 461.489 -5.61326 -1.17049 0
M  V30 4777 N 460.985 -6.81032 -1.2715 0
M  V30 4778 N 462.778 -5.49089 -1.20239 0
M  V30 4779 H 454.929 -2.04395 0.577632 0
M  V30 4780 H 457.192 -0.927287 0.197086 0
M  V30 4781 H 456.898 -3.51413 0.142132 0
M  V30 4782 H 456.772 -3.4134 -1.6052 0
M  V30 4783 H 459.159 -2.42456 -1.68224 0
M  V30 4784 H 459.24 -2.55674 0.0803688 0
M  V30 4785 H 458.884 -5.07771 -0.114655 0
M  V30 4786 H 458.814 -4.91613 -1.88745 0
M  V30 4787 H 461.305 -3.6524 -0.96996 0
M  V30 4788 H 461.618 -7.60511 -1.37271 0
M  V30 4789 H 459.963 -6.83824 -1.24136 0
M  V30 4790 H 463.154 -4.54507 -1.11985 0
M  V30 4791 H 463.327 -6.34749 -1.30373 0
M  V30 4792 N 456.733 0.527833 -1.48498 0
M  V30 4793 C 457.696 1.61439 -1.62696 0
M  V30 4794 C 458.696 1.52824 -0.500136 0
M  V30 4795 O 459.886 1.56456 -0.765976 0
M  V30 4796 C 457.018 3.01063 -1.59918 0
M  V30 4797 H 458.211 1.50189 -2.59583 0
M  V30 4798 H 455.764 0.750055 -1.37127 0
M  V30 4799 H 456.499 3.17818 -0.645163 0
M  V30 4800 H 456.284 3.08725 -2.41726 0
M  V30 4801 H 457.774 3.80057 -1.73051 0
M  V30 4802 N 458.211 1.37122 0.776871 0
M  V30 4803 C 459.459 1.31787 1.53221 0
M  V30 4804 C 459.78 -0.0987589 1.9475 0
M  V30 4805 O 459.05 -1.0417 1.65908 0
M  V30 4806 H 457.63 0.484839 0.568278 0
M  V30 4807 H 460.292 1.71556 0.924917 0
M  V30 4808 H 459.388 1.95355 2.43398 0
M  V30 4809 N 459.689 -1.00246 1.21608 0
M  V30 4810 C 460.966 -1.71336 0.943568 0
M  V30 4811 C 461.346 -2.03972 -0.543943 0
M  V30 4812 O 460.694 -1.71545 -1.50946 0
M  V30 4813 C 460.904 -2.97094 1.83128 0
M  V30 4814 C 462.252 -3.70071 2.08165 0
M  V30 4815 O 463.276 -3.07081 1.80498 0
M  V30 4816 O 462.135 -4.83376 2.54971 0
M  V30 4817 H 459.229 -0.747386 0.354039 0
M  V30 4818 H 461.775 -1.05967 1.32549 0
M  V30 4819 H 460.547 -2.69407 2.83788 0
M  V30 4820 H 460.17 -3.70204 1.45034 0
M  V30 4821 N 461.167 -1.02423 -1.1978 0
M  V30 4822 C 462.13 -0.605703 -2.21052 0
M  V30 4823 C 463.13 0.328209 -1.57415 0
M  V30 4824 O 464.32 0.115853 -1.73814 0
M  V30 4825 C 461.452 0.114366 -3.40708 0
M  V30 4826 H 462.645 -1.5017 -2.59594 0
M  V30 4827 H 460.198 -0.814888 -1.33376 0
M  V30 4828 H 460.933 1.02492 -3.07678 0
M  V30 4829 H 460.718 -0.556641 -3.88129 0
M  V30 4830 H 462.208 0.394272 -4.15735 0
M  V30 4831 N 462.645 1.35699 -0.801477 0
M  V30 4832 C 463.891 1.99208 -0.380022 0
M  V30 4833 C 464.224 1.63445 1.04878 0
M  V30 4834 O 463.499 0.895223 1.72673 0
M  V30 4835 C 463.782 3.55755 -0.557708 0
M  V30 4836 C 463.635 4.01332 -2.03107 0
M  V30 4837 C 464.954 4.40096 0.0197968 0
M  V30 4838 H 462.073 0.723667 -0.139552 0
M  V30 4839 H 464.715 1.60928 -1.01006 0
M  V30 4840 H 462.865 3.88494 -0.0213741 0
M  V30 4841 H 464.537 3.79026 -2.62939 0
M  V30 4842 H 462.78 3.52429 -2.52936 0
M  V30 4843 H 463.451 5.10234 -2.1063 0
M  V30 4844 H 465.927 4.13786 -0.438179 0
M  V30 4845 H 464.803 5.48735 -0.134477 0
M  V30 4846 H 465.064 4.2786 1.11303 0
M  V30 4847 N 464.123 0.554532 1.47522 0
M  V30 4848 C 465.353 0.0342074 2.06572 0
M  V30 4849 C 465.761 -1.26375 1.40805 0
M  V30 4850 O 465.104 -1.7683 0.49769 0
M  V30 4851 C 465.166 -0.235096 3.5873 0
M  V30 4852 C 464.83 0.973024 4.46521 0
M  V30 4853 C 465.827 1.8779 4.848 0
M  V30 4854 C 463.512 1.18694 4.88075 0
M  V30 4855 C 465.506 2.98039 5.63428 0
M  V30 4856 C 463.193 2.29254 5.66468 0
M  V30 4857 C 464.191 3.18757 6.04055 0
M  V30 4858 O 463.879 4.27401 6.8087 0
M  V30 4859 H 463.611 0.041587 0.67472 0
M  V30 4860 H 466.165 0.766748 1.90552 0
M  V30 4861 H 464.395 -1.02191 3.72953 0
M  V30 4862 H 466.084 -0.700477 3.9981 0
M  V30 4863 H 466.85 1.72467 4.53299 0
M  V30 4864 H 462.729 0.49947 4.58286 0
M  V30 4865 H 466.273 3.67926 5.92685 0
M  V30 4866 H 462.17 2.4455 5.97382 0
M  V30 4867 H 462.938 4.25415 6.9926 0
M  V30 4868 N 465.601 -1.54893 0.290851 0
M  V30 4869 C 466.847 -2.0023 -0.321867 0
M  V30 4870 C 467.18 -1.179 -1.54316 0
M  V30 4871 O 466.455 -0.25293 -1.92848 0
M  V30 4872 C 466.738 -3.53456 -0.688515 0
M  V30 4873 C 466.591 -4.46532 0.541209 0
M  V30 4874 C 467.91 -4.13057 -1.51895 0
M  V30 4875 H 465.029 -0.727891 -0.115515 0
M  V30 4876 H 467.671 -1.85722 0.400931 0
M  V30 4877 H 465.821 -3.6595 -1.30433 0
M  V30 4878 H 467.493 -4.4596 1.17973 0
M  V30 4879 H 465.736 -4.17545 1.17636 0
M  V30 4880 H 466.407 -5.51475 0.240675 0
M  V30 4881 H 468.883 -4.03937 -0.99872 0
M  V30 4882 H 467.759 -5.20448 -1.74429 0
M  V30 4883 H 468.02 -3.64284 -2.50498 0
M  V30 4884 N 467.08 -0.0183926 -1.57589 0
M  V30 4885 C 468.305 0.676634 -1.96052 0
M  V30 4886 C 468.73 1.6548 -0.894307 0
M  V30 4887 O 468.088 1.80712 0.145849 0
M  V30 4888 C 468.136 1.36872 -3.33614 0
M  V30 4889 O 467.24 2.48372 -3.29219 0
M  V30 4890 H 466.581 0.1786 -0.63953 0
M  V30 4891 H 469.111 -0.077056 -2.04455 0
M  V30 4892 H 469.121 1.72797 -3.69601 0
M  V30 4893 H 467.796 0.651636 -4.10763 0
M  V30 4894 H 466.373 2.14639 -3.04934 0
M  V30 4895 N 468.558 1.5553 0.254621 0
M  V30 4896 C 469.788 1.80784 1.00004 0
M  V30 4897 C 470.196 0.59071 1.79742 0
M  V30 4898 O 469.539 -0.449988 1.78103 0
M  V30 4899 C 469.601 2.99268 1.99196 0
M  V30 4900 C 469.265 4.35595 1.38224 0
M  V30 4901 C 470.262 5.13884 0.788611 0
M  V30 4902 C 467.947 4.82281 1.40393 0
M  V30 4903 C 469.941 6.37004 0.224783 0
M  V30 4904 C 467.628 6.05351 0.836243 0
M  V30 4905 C 468.626 6.82551 0.24769 0
M  V30 4906 O 468.314 8.03297 -0.311249 0
M  V30 4907 H 468.046 0.60565 0.300274 0
M  V30 4908 H 470.6 2.03411 0.285143 0
M  V30 4909 H 468.83 2.72377 2.74496 0
M  V30 4910 H 470.519 3.11682 2.60018 0
M  V30 4911 H 471.285 4.78938 0.764423 0
M  V30 4912 H 467.164 4.22189 1.85142 0
M  V30 4913 H 470.708 6.97203 -0.235235 0
M  V30 4914 H 466.605 6.39776 0.857733 0
M  V30 4915 H 467.373 8.1825 -0.20237 0
M  V30 4916 N 470.036 -0.519951 1.48776 0
M  V30 4917 C 470.966 -1.63253 1.66945 0
M  V30 4918 C 471.947 -1.62014 0.518224 0
M  V30 4919 O 473.132 -1.79053 0.751919 0
M  V30 4920 C 470.262 -3.0181 1.71836 0
M  V30 4921 C 469.216 -3.17911 2.8656 0
M  V30 4922 C 468.542 -4.5763 2.76548 0
M  V30 4923 C 469.842 -2.99729 4.27738 0
M  V30 4924 H 471.536 -1.48302 2.6009 0
M  V30 4925 H 469.082 -0.712026 1.25165 0
M  V30 4926 H 471.035 -3.79525 1.83135 0
M  V30 4927 H 469.759 -3.17806 0.752775 0
M  V30 4928 H 468.418 -2.42616 2.74833 0
M  V30 4929 H 468.066 -4.70476 1.77937 0
M  V30 4930 H 467.766 -4.69346 3.53536 0
M  V30 4931 H 469.29 -5.37431 2.89828 0
M  V30 4932 H 470.704 -3.67228 4.40246 0
M  V30 4933 H 469.101 -3.22932 5.05801 0
M  V30 4934 H 470.171 -1.96047 4.43502 0
M  V30 4935 N 471.514 -1.37532 -0.769588 0
M  V30 4936 C 472.477 -1.33292 -1.86456 0
M  V30 4937 C 473.477 -0.236537 -1.59051 0
M  V30 4938 O 474.667 -0.492511 -1.67093 0
M  V30 4939 C 471.799 -1.07118 -3.23633 0
M  V30 4940 H 472.992 -2.30692 -1.91628 0
M  V30 4941 H 470.545 -1.22593 -0.969572 0
M  V30 4942 H 471.28 -0.102578 -3.24138 0
M  V30 4943 H 471.065 -1.86479 -3.44917 0
M  V30 4944 H 472.555 -1.06806 -4.03711 0
M  V30 4945 N 472.992 0.995999 -1.22138 0
M  V30 4946 C 473.955 2.06711 -0.990109 0
M  V30 4947 C 474.955 1.60744 0.0422978 0
M  V30 4948 O 476.145 1.73095 -0.195895 0
M  V30 4949 C 473.277 3.37288 -0.49491 0
M  V30 4950 H 474.47 2.28661 -1.94047 0
M  V30 4951 H 472.023 1.16711 -1.03963 0
M  V30 4952 H 472.758 3.21022 0.459948 0
M  V30 4953 H 472.543 3.71986 -1.23971 0
M  V30 4954 H 474.033 4.16103 -0.353253 0
M  V30 4955 N 474.47 1.03057 1.19235 0
M  V30 4956 C 475.418 0.606391 2.24557 0
M  V30 4957 C 476.412 -0.361826 1.65491 0
M  V30 4958 O 477.618 -0.23022 1.78522 0
M  V30 4959 H 473.993 0.177838 0.730669 0
M  V30 4960 H 475.964 1.50529 2.5765 0
M  V30 4961 C 474.713 -0.0252127 3.47691 0
M  V30 4962 H 474.036 0.710838 3.9343 0
M  V30 4963 H 475.476 -0.284931 4.23042 0
M  V30 4964 C 473.935 -1.27229 3.11953 0
M  V30 4965 O 474.465 -2.36416 3.24762 0
M  V30 4966 N 472.671 -1.16169 2.6637 0
M  V30 4967 H 472.218 -0.273189 2.56147 0
M  V30 4968 H 472.176 -1.99703 2.42829 0
M  V30 4969 N 475.948 -1.35272 0.808662 0
M  V30 4970 C 477.364 -1.51806 0.492653 0
M  V30 4971 C 477.564 -1.7574 -0.985778 0
M  V30 4972 O 476.62 -1.80003 -1.77074 0
M  V30 4973 C 477.933 -2.69202 1.33981 0
M  V30 4974 C 479.481 -2.8308 1.33547 0
M  V30 4975 C 479.956 -4.03502 2.16679 0
M  V30 4976 N 481.447 -4.10684 2.14227 0
M  V30 4977 C 482.182 -5.02984 2.75308 0
M  V30 4978 N 481.678 -6.00603 3.45323 0
M  V30 4979 N 483.471 -4.95746 2.64938 0
M  V30 4980 H 475.622 -1.17993 1.76611 0
M  V30 4981 H 477.885 -0.577476 0.751814 0
M  V30 4982 H 477.591 -2.581 2.38909 0
M  V30 4983 H 477.465 -3.63854 0.994491 0
M  V30 4984 H 479.852 -2.93631 0.294036 0
M  V30 4985 H 479.933 -1.89278 1.72068 0
M  V30 4986 H 479.577 -3.93711 3.20864 0
M  V30 4987 H 479.507 -4.96489 1.75517 0
M  V30 4988 H 481.998 -3.40802 1.63285 0
M  V30 4989 H 482.311 -6.67633 3.89212 0
M  V30 4990 H 480.656 -6.0077 3.49428 0
M  V30 4991 H 483.847 -4.18439 2.09825 0
M  V30 4992 H 484.02 -5.67487 3.12829 0
M  V30 4993 N 477.426 -0.562348 -1.47226 0
M  V30 4994 C 478.703 0.0256985 -1.95583 0
M  V30 4995 C 479.083 1.48032 -1.50498 0
M  V30 4996 O 478.431 2.15973 -0.746181 0
M  V30 4997 C 478.641 -0.125129 -3.48776 0
M  V30 4998 C 479.989 0.0175728 -4.24596 0
M  V30 4999 O 481.013 -0.0529341 -3.56161 0
M  V30 5000 O 479.872 0.170145 -5.46235 0
M  V30 5001 H 476.966 0.0612565 -0.824728 0
M  V30 5002 H 479.512 -0.629233 -1.57603 0
M  V30 5003 H 478.284 -1.13715 -3.74412 0
M  V30 5004 H 477.907 0.567178 -3.93534 0
M  V30 5005 N 478.904 1.54736 -0.299062 0
M  V30 5006 C 480.315 1.8569 0.193971 0
M  V30 5007 C 480.666 1.22101 1.53577 0
M  V30 5008 O 479.791 0.51799 2.10109 0
M  V30 5009 C 480.386 3.36895 0.358733 0
M  V30 5010 C 478.945 3.67887 0.795986 0
M  V30 5011 C 478.092 2.77131 -0.096807 0
M  V30 5012 H 481.043 1.49934 -0.520134 0
M  V30 5013 H 481.064 3.61294 1.19361 0
M  V30 5014 H 480.576 3.83148 -0.617998 0
M  V30 5015 H 478.677 3.27151 1.78334 0
M  V30 5016 H 478.79 4.75114 0.616718 0
M  V30 5017 H 477.154 2.51153 0.423581 0
M  V30 5018 H 477.937 3.26204 -1.06986 0
M  V30 5019 N 480.382 0.0267497 1.57577 0
M  V30 5020 C 481.292 -0.971633 2.13533 0
M  V30 5021 C 482.308 -1.35868 1.08701 0
M  V30 5022 O 483.484 -1.44058 1.40746 0
M  V30 5023 C 480.549 -2.23622 2.64941 0
M  V30 5024 C 479.61 -1.90982 3.8448 0
M  V30 5025 C 478.843 -3.11411 4.33427 0
M  V30 5026 O 479.066 -4.23992 3.81558 0
M  V30 5027 O 478 -2.93848 5.25297 0
M  V30 5028 H 481.826 -0.525853 2.99113 0
M  V30 5029 H 479.411 -0.193712 1.48139 0
M  V30 5030 H 481.293 -2.97864 2.98086 0
M  V30 5031 H 479.968 -2.67386 1.82446 0
M  V30 5032 H 478.875 -1.14132 3.56265 0
M  V30 5033 H 480.208 -1.52036 4.6813 0
M  V30 5034 N 481.861 -1.55662 -0.24637 0
M  V30 5035 C 483.107 -1.77782 -0.975779 0
M  V30 5036 C 483.44 -0.592103 -1.84953 0
M  V30 5037 O 482.715 0.409588 -1.90138 0
M  V30 5038 C 482.998 -3.09788 -1.83584 0
M  V30 5039 C 482.851 -4.38764 -0.990241 0
M  V30 5040 C 484.17 -3.38029 -2.81823 0
M  V30 5041 H 481.289 -0.646789 -0.353317 0
M  V30 5042 H 483.931 -1.88398 -0.246248 0
M  V30 5043 H 482.081 -3.00869 -2.45784 0
M  V30 5044 H 483.753 -4.59675 -0.386897 0
M  V30 5045 H 481.996 -4.32798 -0.294626 0
M  V30 5046 H 482.667 -5.27514 -1.62584 0
M  V30 5047 H 485.143 -3.46915 -2.2976 0
M  V30 5048 H 484.019 -4.3161 -3.39122 0
M  V30 5049 H 484.28 -2.58968 -3.58313 0
M  V30 5050 N 483.339 0.512053 -1.4905 0
M  V30 5051 C 484.586 1.26686 -1.57978 0
M  V30 5052 C 484.914 1.92733 -0.261553 0
M  V30 5053 O 484.169 1.80772 0.749667 0
M  V30 5054 C 484.468 2.36446 -2.68008 0
M  V30 5055 C 484.134 1.87932 -4.09869 0
M  V30 5056 C 482.796 1.74419 -4.48477 0
M  V30 5057 C 485.148 1.5149 -4.98698 0
M  V30 5058 C 482.476 1.22827 -5.73699 0
M  V30 5059 C 484.828 1.01355 -6.24428 0
M  V30 5060 C 483.492 0.864735 -6.61875 0
M  V30 5061 H 482.762 0.463577 -0.578081 0
M  V30 5062 H 485.409 0.569421 -1.82838 0
M  V30 5063 H 483.714 3.11933 -2.37076 0
M  V30 5064 H 485.411 2.9453 -2.72127 0
M  V30 5065 H 482.001 1.99405 -3.79389 0
M  V30 5066 H 486.185 1.60782 -4.69535 0
M  V30 5067 H 481.441 1.10008 -6.01422 0
M  V30 5068 H 485.615 0.722351 -6.92644 0
M  V30 5069 H 483.242 0.462777 -7.5879 0
M  V30 5070 N 484.817 1.37938 0.762283 0
M  V30 5071 C 486.228 1.30094 1.33912 0
M  V30 5072 C 486.579 -0.0472026 1.96143 0
M  V30 5073 O 485.704 -0.94917 1.94473 0
M  V30 5074 C 486.299 2.35592 2.43478 0
M  V30 5075 C 484.858 2.31353 2.96905 0
M  V30 5076 C 484.005 2.18919 1.70205 0
M  V30 5077 H 486.956 1.48423 0.561816 0
M  V30 5078 H 486.977 2.00806 3.23199 0
M  V30 5079 H 486.489 3.33701 1.98155 0
M  V30 5080 H 484.59 1.36799 3.46579 0
M  V30 5081 H 484.703 3.25147 3.51875 0
M  V30 5082 H 483.067 1.65624 1.93496 0
M  V30 5083 H 483.85 3.18956 1.26973 0
M  V30 5084 N 486.295 -0.989507 1.22664 0
M  V30 5085 C 487.572 -1.70326 0.961688 0
M  V30 5086 C 487.952 -2.04537 -0.522279 0
M  V30 5087 O 487.3 -1.73136 -1.49118 0
M  V30 5088 C 487.51 -2.95135 1.86269 0
M  V30 5089 C 488.858 -3.67842 2.12078 0
M  V30 5090 O 489.882 -3.0515 1.83745 0
M  V30 5091 O 488.741 -4.80644 2.60083 0
M  V30 5092 H 485.835 -0.743589 0.361946 0
M  V30 5093 H 488.381 -1.04555 1.33665 0
M  V30 5094 H 487.153 -2.66382 2.8663 0
M  V30 5095 H 486.776 -3.68645 1.48952 0
M  V30 5096 N 487.773 -1.03688 -1.18687 0
M  V30 5097 C 489.184 -0.766488 -1.70241 0
M  V30 5098 C 489.535 0.713052 -1.82784 0
M  V30 5099 O 488.66 1.55529 -1.50465 0
M  V30 5100 C 489.255 -1.38475 -3.09209 0
M  V30 5101 C 487.814 -1.16276 -3.5799 0
M  V30 5102 C 486.961 -1.4778 -2.34641 0
M  V30 5103 H 489.912 -1.20378 -1.03415 0
M  V30 5104 H 489.933 -0.785939 -3.72295 0
M  V30 5105 H 489.445 -2.46157 -3.00048 0
M  V30 5106 H 487.546 -0.104508 -3.72453 0
M  V30 5107 H 487.659 -1.8571 -4.41643 0
M  V30 5108 H 486.023 -0.897366 -2.38368 0
M  V30 5109 H 486.806 -2.56562 -2.28102 0
M  V30 5110 N 489.251 1.34841 -0.815825 0
M  V30 5111 C 490.528 1.92908 -0.323416 0
M  V30 5112 C 490.908 1.74479 1.18828 0
M  V30 5113 O 490.256 1.11928 1.99209 0
M  V30 5114 C 490.466 3.40957 -0.744952 0
M  V30 5115 C 491.814 4.18107 -0.739716 0
M  V30 5116 O 492.838 3.49511 -0.68708 0
M  V30 5117 O 491.697 5.40517 -0.806456 0
M  V30 5118 H 488.791 0.822436 -0.0867646 0
M  V30 5119 H 491.337 1.4386 -0.90014 0
M  V30 5120 H 490.109 3.4814 -1.78646 0
M  V30 5121 H 489.732 3.97341 -0.143535 0
M  V30 5122 N 490.729 0.570148 1.46925 0
M  V30 5123 C 492.145 0.23087 1.57921 0
M  V30 5124 C 492.345 -1.26676 1.56702 0
M  V30 5125 O 491.401 -2.04774 1.47729 0
M  V30 5126 C 492.714 0.868973 2.8787 0
M  V30 5127 C 494.262 0.841397 3.01479 0
M  V30 5128 C 494.737 1.45881 4.34146 0
M  V30 5129 N 496.228 1.42258 4.40814 0
M  V30 5130 C 496.963 1.8698 5.42057 0
M  V30 5131 N 496.459 2.39618 6.50042 0
M  V30 5132 N 498.252 1.77972 5.33181 0
M  V30 5133 H 490.403 1.54301 1.45962 0
M  V30 5134 H 492.666 0.644224 0.69547 0
M  V30 5135 H 492.372 1.922 2.94537 0
M  V30 5136 H 492.246 0.369682 3.75384 0
M  V30 5137 H 494.633 -0.202973 2.94401 0
M  V30 5138 H 494.714 1.37858 2.15474 0
M  V30 5139 H 494.358 2.50231 4.4198 0
M  V30 5140 H 494.288 0.896958 5.18905 0
M  V30 5141 H 496.779 1.03768 3.63374 0
M  V30 5142 H 497.092 2.71633 7.23488 0
M  V30 5143 H 495.437 2.43636 6.50897 0
M  V30 5144 H 498.628 1.36617 4.4772 0
M  V30 5145 H 498.801 2.13143 6.11943 0
M  V30 5146 N 492.207 -1.54576 0.307264 0
M  V30 5147 C 493.456 -1.99442 -0.300976 0
M  V30 5148 C 493.769 -1.19928 -1.5452 0
M  V30 5149 O 494.975 -1.55092 -2.22842 0
M  V30 5150 C 493.431 -3.55084 -0.586809 0
M  V30 5151 C 493.039 -4.43413 0.639438 0
M  V30 5152 C 494.783 -4.0846 -1.1559 0
M  V30 5153 C 492.69 -5.90499 0.326411 0
M  V30 5154 H 491.62 -0.744986 -0.116238 0
M  V30 5155 H 494.271 -1.787 0.416947 0
M  V30 5156 H 492.653 -3.71749 -1.36449 0
M  V30 5157 H 493.827 -4.38522 1.41545 0
M  V30 5158 H 492.142 -4.00842 1.1276 0
M  V30 5159 H 494.739 -5.15926 -1.40445 0
M  V30 5160 H 495.082 -3.59443 -2.10015 0
M  V30 5161 H 495.615 -3.95362 -0.439778 0
M  V30 5162 H 492.354 -6.43676 1.23939 0
M  V30 5163 H 491.874 -5.98382 -0.412212 0
M  V30 5164 H 493.553 -6.46962 -0.0697393 0
M  V30 5165 N 493.685 -0.035106 -1.57561 0
M  V30 5166 C 494.962 0.681212 -1.83354 0
M  V30 5167 C 495.342 1.89986 -0.920252 0
M  V30 5168 O 494.69 2.28489 0.0226815 0
M  V30 5169 C 494.9 1.05376 -3.32712 0
M  V30 5170 C 496.248 1.44286 -3.99333 0
M  V30 5171 O 497.272 1.14656 -3.37242 0
M  V30 5172 O 496.131 1.99518 -5.08778 0
M  V30 5173 H 493.225 0.334741 -0.756226 0
M  V30 5174 H 495.771 -0.0632448 -1.69582 0
M  V30 5175 H 494.543 0.186668 -3.90854 0
M  V30 5176 H 494.166 1.85619 -3.51613 0
M  V30 5177 N 495.163 1.55791 0.238111 0
M  V30 5178 C 496.41 1.78033 0.964907 0
M  V30 5179 C 496.738 0.600984 1.84982 0
M  V30 5180 O 495.993 -0.41536 1.91241 0
M  V30 5181 C 496.292 3.05869 1.84875 0
M  V30 5182 C 495.958 4.36808 1.11846 0
M  V30 5183 C 494.62 4.72388 0.916662 0
M  V30 5184 C 496.972 5.17717 0.60151 0
M  V30 5185 C 494.3 5.86406 0.185756 0
M  V30 5186 C 496.652 6.32494 -0.115972 0
M  V30 5187 C 495.316 6.66688 -0.329168 0
M  V30 5188 H 494.586 0.651469 0.353085 0
M  V30 5189 H 497.233 1.90061 0.234318 0
M  V30 5190 H 495.538 2.88891 2.64668 0
M  V30 5191 H 497.235 3.20278 2.41294 0
M  V30 5192 H 493.825 4.08862 1.28569 0
M  V30 5193 H 498.009 4.90678 0.744932 0
M  V30 5194 H 493.265 6.11399 0.0101886 0
M  V30 5195 H 497.439 6.94425 -0.524127 0
M  V30 5196 H 495.066 7.54884 -0.897474 0
M  V30 5197 N 496.642 -0.504142 1.49319 0
M  V30 5198 C 497.552 -1.63248 1.68486 0
M  V30 5199 C 498.568 -1.64488 0.567432 0
M  V30 5200 O 499.744 -1.82966 0.841749 0
M  V30 5201 C 496.809 -2.99627 1.74426 0
M  V30 5202 C 495.87 -3.09039 2.97982 0
M  V30 5203 C 495.103 -4.38913 3.0363 0
M  V30 5204 O 495.326 -5.27528 2.16958 0
M  V30 5205 O 494.26 -4.53231 3.96062 0
M  V30 5206 H 498.086 -1.50008 2.64067 0
M  V30 5207 H 495.671 -0.680086 1.33023 0
M  V30 5208 H 497.553 -3.80689 1.80705 0
M  V30 5209 H 496.228 -3.13136 0.820233 0
M  V30 5210 H 495.135 -2.27177 2.97223 0
M  V30 5211 H 496.468 -3.00456 3.89855 0
M  V30 5212 N 498.12 -1.38341 -0.754957 0
M  V30 5213 C 499.536 -1.19508 -1.05783 0
M  V30 5214 C 499.736 -0.0428005 -2.01455 0
M  V30 5215 O 498.792 0.611861 -2.44975 0
M  V30 5216 C 500.105 -2.52091 -1.63923 0
M  V30 5217 C 501.653 -2.58762 -1.76101 0
M  V30 5218 C 502.128 -3.91517 -2.37652 0
M  V30 5219 N 503.619 -3.93049 -2.45085 0
M  V30 5220 C 504.354 -4.9253 -2.93602 0
M  V30 5221 N 503.85 -6.02408 -3.42165 0
M  V30 5222 N 505.643 -4.79921 -2.92629 0
M  V30 5223 H 497.794 -2.1206 -0.120056 0
M  V30 5224 H 500.057 -0.94089 -0.11589 0
M  V30 5225 H 499.763 -3.36858 -1.01093 0
M  V30 5226 H 499.637 -2.70388 -2.63003 0
M  V30 5227 H 502.024 -1.74391 -2.38058 0
M  V30 5228 H 502.105 -2.44333 -0.757294 0
M  V30 5229 H 501.749 -4.76309 -1.76329 0
M  V30 5230 H 501.679 -4.03256 -3.38662 0
M  V30 5231 H 504.17 -3.13685 -2.10736 0
M  V30 5232 H 504.483 -6.74248 -3.77637 0
M  V30 5233 H 502.828 -6.0603 -3.40225 0
M  V30 5234 H 506.019 -3.93194 -2.54001 0
M  V30 5235 H 506.192 -5.57601 -3.30128 0
M  V30 5236 N 499.598 0.982988 -1.23187 0
M  V30 5237 C 500.823 1.76455 -1.08988 0
M  V30 5238 C 501.248 1.84726 0.354691 0
M  V30 5239 O 500.606 1.30699 1.25649 0
M  V30 5240 C 500.654 3.17094 -1.71708 0
M  V30 5241 O 499.758 4.00648 -0.977477 0
M  V30 5242 H 499.099 0.542988 -0.382177 0
M  V30 5243 H 501.629 1.23413 -1.63188 0
M  V30 5244 H 501.639 3.67684 -1.76841 0
M  V30 5245 H 500.314 3.10389 -2.76823 0
M  V30 5246 H 498.891 3.59161 -1.0029 0
M  V30 5247 N 501.076 1.04316 1.18135 0
M  V30 5248 C 502.487 0.775505 1.69832 0
M  V30 5249 C 502.838 -0.703348 1.8316 0
M  V30 5250 O 501.963 -1.54729 1.51287 0
M  V30 5251 C 502.558 1.40112 3.0847 0
M  V30 5252 C 501.117 1.18172 3.57368 0
M  V30 5253 C 500.264 1.49022 2.33854 0
M  V30 5254 H 503.215 1.20925 1.02775 0
M  V30 5255 H 503.236 0.805672 3.71873 0
M  V30 5256 H 502.748 2.47744 2.98738 0
M  V30 5257 H 500.849 0.124258 3.72393 0
M  V30 5258 H 500.962 1.8805 4.40652 0
M  V30 5259 H 499.326 0.909995 2.37889 0
M  V30 5260 H 500.109 2.57768 2.26738 0
M  V30 5261 N 502.554 -1.34406 0.822964 0
M  V30 5262 C 503.502 -2.31428 0.233165 0
M  V30 5263 C 504.496 -1.57404 -0.626118 0
M  V30 5264 O 505.702 -1.72402 -0.517453 0
M  V30 5265 H 502.077 -0.749863 0.0566557 0
M  V30 5266 H 504.048 -2.78699 1.06628 0
M  V30 5267 C 502.797 -3.42653 -0.590264 0
M  V30 5268 H 502.12 -3.99753 0.0616129 0
M  V30 5269 H 503.56 -4.12778 -0.969054 0
M  V30 5270 C 502.019 -2.87112 -1.76262 0
M  V30 5271 O 502.549 -2.81995 -2.8608 0
M  V30 5272 N 500.755 -2.43934 -1.57938 0
M  V30 5273 H 500.302 -2.48296 -0.686078 0
M  V30 5274 H 500.26 -2.07123 -2.36532 0
M  V30 5275 N 504.032 -0.577932 -1.46621 0
M  V30 5276 C 505.443 -0.150071 -1.86096 0
M  V30 5277 C 505.794 1.28563 -1.48209 0
M  V30 5278 O 504.919 1.97036 -0.894754 0
M  V30 5279 C 505.514 -0.265576 -3.37758 0
M  V30 5280 C 504.073 0.10738 -3.76247 0
M  V30 5281 C 503.22 -0.603711 -2.70649 0
M  V30 5282 H 506.171 -0.786438 -1.37844 0
M  V30 5283 H 506.192 0.510352 -3.77062 0
M  V30 5284 H 505.704 -1.3106 -3.65301 0
M  V30 5285 H 503.805 1.15272 -3.54321 0
M  V30 5286 H 503.918 -0.26561 -4.78363 0
M  V30 5287 H 502.282 -0.0444884 -2.54661 0
M  V30 5288 H 503.065 -1.65029 -3.01032 0
M  V30 5289 N 505.51 1.54411 -0.315457 0
M  V30 5290 C 506.46 2.20772 0.569549 0
M  V30 5291 C 507.444 1.18551 1.08787 0
M  V30 5292 O 508.636 1.44213 1.02624 0
M  V30 5293 C 505.765 2.96293 1.73394 0
M  V30 5294 C 504.851 4.05844 1.2309 0
M  V30 5295 N 505.242 5.03822 0.446927 0
M  V30 5296 C 503.54 4.19648 1.51035 0
M  V30 5297 C 504.241 5.8143 0.17725 0
M  V30 5298 N 503.217 5.38245 0.761118 0
M  V30 5299 H 507.019 2.93877 -0.0368076 0
M  V30 5300 H 504.533 1.61949 -0.120915 0
M  V30 5301 H 506.53 3.42313 2.37965 0
M  V30 5302 H 505.19 2.24708 2.34386 0
M  V30 5303 H 506.201 5.17821 0.0905027 0
M  V30 5304 H 502.878 3.59274 2.1267 0
M  V30 5305 H 504.268 6.70369 -0.45335 0
M  V30 5306 N 506.988 0.0434614 1.5754 0
M  V30 5307 C 508.234 -0.632971 1.92669 0
M  V30 5308 C 508.567 -1.70947 0.921446 0
M  V30 5309 O 507.842 -1.94426 -0.0537202 0
M  V30 5310 C 508.125 -1.23619 3.38216 0
M  V30 5311 C 507.978 -0.168274 4.49485 0
M  V30 5312 C 509.297 -2.15008 3.84005 0
M  V30 5313 H 506.416 -0.228629 0.700641 0
M  V30 5314 H 509.058 0.103651 1.89717 0
M  V30 5315 H 507.208 -1.864 3.40863 0
M  V30 5316 H 508.88 0.463196 4.58969 0
M  V30 5317 H 507.123 0.504581 4.30855 0
M  V30 5318 H 507.794 -0.630218 5.48391 0
M  V30 5319 H 510.27 -1.62198 3.83185 0
M  V30 5320 H 509.146 -2.54161 4.86511 0
M  V30 5321 H 509.407 -3.04707 3.20322 0
M  V30 5322 N 508.466 -1.55915 -0.229846 0
M  V30 5323 C 509.691 -1.8296 -0.976743 0
M  V30 5324 C 510.116 -0.622735 -1.77493 0
M  V30 5325 O 509.474 0.428431 -1.76165 0
M  V30 5326 C 509.522 -3.07916 -1.8767 0
M  V30 5327 O 508.626 -2.86028 -2.97088 0
M  V30 5328 H 507.967 -0.603453 -0.277021 0
M  V30 5329 H 510.497 -2.0312 -0.245669 0
M  V30 5330 H 510.507 -3.37802 -2.2881 0
M  V30 5331 H 509.182 -3.95389 -1.28996 0
M  V30 5332 H 507.759 -2.67355 -2.59954 0
M  V30 5333 N 509.944 0.496216 -1.49584 0
M  V30 5334 C 511.191 1.25003 -1.59312 0
M  V30 5335 C 511.519 1.92445 -0.28198 0
M  V30 5336 O 510.774 1.81557 0.730452 0
M  V30 5337 C 511.073 2.3359 -2.705 0
M  V30 5338 C 510.739 1.83574 -4.11839 0
M  V30 5339 C 509.401 1.69653 -4.50302 0
M  V30 5340 C 511.753 1.46193 -5.00277 0
M  V30 5341 C 509.081 1.16736 -5.74969 0
M  V30 5342 C 511.433 0.947265 -6.25468 0
M  V30 5343 C 510.097 0.794485 -6.62755 0
M  V30 5344 H 509.367 0.45742 -0.582965 0
M  V30 5345 H 512.014 0.549996 -1.83432 0
M  V30 5346 H 510.319 3.09401 -2.40371 0
M  V30 5347 H 512.016 2.91627 -2.75235 0
M  V30 5348 H 508.606 1.9537 -3.81482 0
M  V30 5349 H 512.79 1.55793 -4.71214 0
M  V30 5350 H 508.046 1.03623 -6.02555 0
M  V30 5351 H 512.22 0.648846 -6.93371 0
M  V30 5352 H 509.847 0.382271 -7.59238 0
M  V30 5353 N 511.423 1.38739 0.74761 0
M  V30 5354 C 512.671 1.35007 1.50391 0
M  V30 5355 C 512.992 -0.0574274 1.94915 0
M  V30 5356 O 512.262 -1.00628 1.6808 0
M  V30 5357 H 510.842 0.496784 0.557866 0
M  V30 5358 H 513.504 1.73479 0.888319 0
M  V30 5359 H 512.6 2.00474 2.392 0
M  V30 5360 N 512.901 -0.976442 1.23707 0
M  V30 5361 C 514.148 -1.71827 1.07153 0
M  V30 5362 C 514.476 -1.9053 -0.390982 0
M  V30 5363 O 513.731 -1.45779 -1.30564 0
M  V30 5364 C 514.03 -3.11814 1.74662 0
M  V30 5365 C 513.696 -3.12978 3.24585 0
M  V30 5366 C 512.358 -3.13003 3.6549 0
M  V30 5367 C 514.71 -3.07986 4.20469 0
M  V30 5368 C 512.038 -3.05757 5.00729 0
M  V30 5369 C 514.39 -3.02282 5.55705 0
M  V30 5370 C 513.054 -3.00631 5.95968 0
M  V30 5371 H 512.324 -0.628758 0.392102 0
M  V30 5372 H 514.971 -1.14239 1.53693 0
M  V30 5373 H 513.276 -3.72812 1.20492 0
M  V30 5374 H 514.973 -3.67989 1.59328 0
M  V30 5375 H 511.563 -3.13718 2.92026 0
M  V30 5376 H 515.747 -3.07103 3.89874 0
M  V30 5377 H 511.003 -3.02834 5.31132 0
M  V30 5378 H 515.177 -2.97376 6.29714 0
M  V30 5379 H 512.804 -2.94771 7.00724 0
M  V30 5380 N 514.379 -1.04941 -1.1758 0
M  V30 5381 C 515.627 -0.756492 -1.87408 0
M  V30 5382 C 515.948 0.718478 -1.81281 0
M  V30 5383 O 515.218 1.519 -1.23706 0
M  V30 5384 H 513.798 -0.276841 -0.693807 0
M  V30 5385 H 516.46 -1.32803 -1.42652 0
M  V30 5386 H 515.556 -1.06918 -2.93215 0
M  V30 5387 N 515.857 1.33968 -0.830081 0
M  V30 5388 C 517.268 1.80439 -0.479455 0
M  V30 5389 C 517.619 1.68756 1.00079 0
M  V30 5390 O 516.744 1.23171 1.77927 0
M  V30 5391 C 517.339 3.27611 -0.863505 0
M  V30 5392 C 515.898 3.72133 -0.565145 0
M  V30 5393 C 515.045 2.55549 -1.07657 0
M  V30 5394 H 517.996 1.21614 -1.0196 0
M  V30 5395 H 518.017 3.8012 -0.170083 0
M  V30 5396 H 517.529 3.36082 -1.94089 0
M  V30 5397 H 515.63 3.69196 0.502536 0
M  V30 5398 H 515.743 4.65963 -1.11422 0
M  V30 5399 H 514.107 2.49788 -0.497807 0
M  V30 5400 H 514.89 2.66786 -2.16055 0
M  V30 5401 N 517.335 0.585699 1.46312 0
M  V30 5402 C 518.285 -0.166813 2.27389 0
M  V30 5403 C 519.269 -0.859076 1.36047 0
M  V30 5404 O 520.461 -0.752678 1.60199 0
M  V30 5405 C 517.59 -1.17791 3.2246 0
M  V30 5406 C 516.676 -0.487605 4.21288 0
M  V30 5407 N 517.067 0.45849 5.03718 0
M  V30 5408 C 515.365 -0.737971 4.39852 0
M  V30 5409 C 516.066 0.862213 5.75275 0
M  V30 5410 N 515.042 0.210707 5.43191 0
M  V30 5411 H 518.844 0.560167 2.88512 0
M  V30 5412 H 516.358 0.407715 1.57199 0
M  V30 5413 H 518.355 -1.73122 3.79255 0
M  V30 5414 H 517.015 -1.90568 2.62896 0
M  V30 5415 H 518.026 0.834163 5.11138 0
M  V30 5416 H 514.703 -1.45209 3.91434 0
M  V30 5417 H 516.093 1.64128 6.51546 0
M  V30 5418 N 518.813 -1.54241 0.323641 0
M  V30 5419 C 520.043 -2.04687 -0.280464 0
M  V30 5420 C 520.451 -1.19939 -1.46326 0
M  V30 5421 O 519.794 -0.222872 -1.82343 0
M  V30 5422 C 519.856 -3.50978 -0.778123 0
M  V30 5423 C 519.52 -4.56127 0.282371 0
M  V30 5424 C 520.517 -5.07726 1.11847 0
M  V30 5425 C 518.202 -5.00451 0.430582 0
M  V30 5426 C 520.196 -6.02212 2.08851 0
M  V30 5427 C 517.883 -5.94752 1.40404 0
M  V30 5428 C 518.881 -6.45519 2.23147 0
M  V30 5429 O 518.569 -7.37968 3.1884 0
M  V30 5430 H 518.301 -0.673192 -0.0615473 0
M  V30 5431 H 520.855 -1.99999 0.467921 0
M  V30 5432 H 519.085 -3.53064 -1.57742 0
M  V30 5433 H 520.774 -3.84499 -1.30058 0
M  V30 5434 H 521.54 -4.74261 1.01496 0
M  V30 5435 H 517.419 -4.6055 -0.203569 0
M  V30 5436 H 520.963 -6.41761 2.73474 0
M  V30 5437 H 516.86 -6.27633 1.5082 0
M  V30 5438 H 517.628 -7.55841 3.14079 0
M  V30 5439 N 520.291 -0.0518155 -1.57515 0
M  V30 5440 C 521.531 0.625712 -1.94587 0
M  V30 5441 C 521.895 1.6797 -0.930053 0
M  V30 5442 O 523.096 2.41135 -1.18774 0
M  V30 5443 C 521.367 1.20574 -3.36447 0
M  V30 5444 S 522.926 1.90118 -3.95475 0
M  V30 5445 H 519.744 0.205434 -0.680675 0
M  V30 5446 H 522.346 -0.120906 -1.95126 0
M  V30 5447 H 521.05 0.426521 -4.08178 0
M  V30 5448 H 520.581 1.98916 -3.39405 0
M  V30 5449 H 522.596 3.18184 -3.80753 0
M  V30 5450 N 521.769 1.56035 0.221574 0
M  V30 5451 C 523.18 1.69229 0.788567 0
M  V30 5452 C 523.531 0.653814 1.84986 0
M  V30 5453 O 522.656 -0.195065 2.15519 0
M  V30 5454 C 523.251 3.06809 1.43713 0
M  V30 5455 C 521.81 3.21858 1.95152 0
M  V30 5456 C 520.957 2.65155 0.811685 0
M  V30 5457 H 523.908 1.587 -0.00307894 0
M  V30 5458 H 523.929 3.02666 2.30594 0
M  V30 5459 H 523.441 3.82369 0.664475 0
M  V30 5460 H 521.542 2.51167 2.7522 0
M  V30 5461 H 521.655 4.29073 2.1315 0
M  V30 5462 H 520.019 2.23635 1.21899 0
M  V30 5463 H 520.802 3.43261 0.0516987 0
M  V30 5464 N 523.247 -0.488276 1.49845 0
M  V30 5465 C 524.495 -1.23911 1.59657 0
M  V30 5466 C 524.816 -1.92816 0.291005 0
M  V30 5467 O 524.086 -1.83328 -0.690485 0
M  V30 5468 H 522.666 -0.460357 0.588286 0
M  V30 5469 H 525.328 -0.564794 1.86537 0
M  V30 5470 H 524.424 -1.99625 2.39909 0
M  V30 5471 N 524.725 -1.39134 -0.740242 0
M  V30 5472 C 525.973 -1.35803 -1.49673 0
M  V30 5473 C 526.294 0.0470897 -1.94943 0
M  V30 5474 O 525.564 0.997347 -1.68611 0
M  V30 5475 H 524.144 -0.499736 -0.555224 0
M  V30 5476 H 526.806 -1.73947 -0.879107 0
M  V30 5477 H 525.902 -2.0174 -2.38133 0
M  V30 5478 N 526.204 0.969867 -1.24223 0
M  V30 5479 C 527.137 2.06279 -0.975926 0
M  V30 5480 C 528.115 1.62353 0.0895385 0
M  V30 5481 O 529.299 1.88442 -0.0469418 0
M  V30 5482 C 526.426 3.35391 -0.472315 0
M  V30 5483 C 525.472 3.98266 -1.526 0
M  V30 5484 S 526.305 4.36172 -3.10667 0
M  V30 5485 C 527.461 5.68423 -2.62003 0
M  V30 5486 H 527.694 2.28551 -1.90137 0
M  V30 5487 H 525.227 1.10748 -1.07584 0
M  V30 5488 H 527.185 4.10068 -0.188376 0
M  V30 5489 H 525.846 3.1111 0.432378 0
M  V30 5490 H 525.039 4.91307 -1.12399 0
M  V30 5491 H 524.641 3.30009 -1.75983 0
M  V30 5492 H 526.933 6.45842 -2.0468 0
M  V30 5493 H 527.876 6.13478 -3.53625 0
M  V30 5494 H 528.284 5.26928 -2.02502 0
M  V30 5495 N 527.682 1.05563 1.17022 0
M  V30 5496 C 528.612 0.681026 2.23348 0
M  V30 5497 C 529.593 -0.322983 1.67005 0
M  V30 5498 O 530.778 -0.199746 1.9317 0
M  V30 5499 C 527.908 0.0589053 3.4725 0
M  V30 5500 C 526.862 0.988082 4.16438 0
M  V30 5501 C 526.188 0.229646 5.34207 0
M  V30 5502 C 527.488 2.31388 4.68249 0
M  V30 5503 H 529.182 1.56993 2.54938 0
M  V30 5504 H 526.728 0.756302 1.2254 0
M  V30 5505 H 528.681 -0.214982 4.20851 0
M  V30 5506 H 527.405 -0.864968 3.14938 0
M  V30 5507 H 526.064 1.24659 3.44754 0
M  V30 5508 H 525.712 -0.697111 4.98146 0
M  V30 5509 H 525.412 0.848815 5.81437 0
M  V30 5510 H 526.936 -0.0368694 6.10589 0
M  V30 5511 H 528.35 2.09964 5.33468 0
M  V30 5512 H 526.747 2.88736 5.26072 0
M  V30 5513 H 527.817 2.94982 3.84855 0
M  V30 5514 N 529.16 -1.33526 0.837174 0
M  V30 5515 C 530.123 -2.27551 0.274421 0
M  V30 5516 C 531.123 -1.50886 -0.555881 0
M  V30 5517 O 532.313 -1.70227 -0.369918 0
M  V30 5518 C 529.445 -3.35332 -0.613605 0
M  V30 5519 H 530.638 -2.78837 1.10408 0
M  V30 5520 H 528.191 -1.439 0.610126 0
M  V30 5521 H 528.926 -2.89285 -1.46577 0
M  V30 5522 H 528.711 -3.92095 -0.0195341 0
M  V30 5523 H 530.201 -4.05433 -1.00068 0
M  V30 5524 N 530.638 -0.59345 -1.46 0
M  V30 5525 C 532.054 -0.255965 -1.57534 0
M  V30 5526 C 532.254 1.24167 -1.58697 0
M  V30 5527 O 531.31 2.02398 -1.50968 0
M  V30 5528 C 532.623 -0.91466 -2.86451 0
M  V30 5529 C 534.171 -0.889253 -3.00102 0
M  V30 5530 C 534.646 -1.52769 -4.3177 0
M  V30 5531 N 536.137 -1.49253 -4.38495 0
M  V30 5532 C 536.872 -1.9558 -5.39014 0
M  V30 5533 N 536.368 -2.49929 -6.46148 0
M  V30 5534 N 538.161 -1.86432 -5.30282 0
M  V30 5535 H 530.312 -1.56604 -1.43489 0
M  V30 5536 H 532.575 -0.655207 -0.685133 0
M  V30 5537 H 532.281 -1.96861 -2.91442 0
M  V30 5538 H 532.155 -0.429356 -3.74748 0
M  V30 5539 H 534.542 0.156111 -2.94687 0
M  V30 5540 H 534.623 -1.41268 -2.13253 0
M  V30 5541 H 534.267 -2.57231 -4.37944 0
M  V30 5542 H 534.197 -0.979398 -5.17412 0
M  V30 5543 H 536.688 -1.09536 -3.61677 0
M  V30 5544 H 537.001 -2.83109 -7.19075 0
M  V30 5545 H 535.346 -2.53961 -6.46938 0
M  V30 5546 H 538.537 -1.43722 -4.4549 0
M  V30 5547 H 538.71 -2.22852 -6.08474 0
M  V30 5548 N 532.116 1.54067 -0.331816 0
M  V30 5549 C 533.046 2.27569 0.522932 0
M  V30 5550 C 534.027 1.28679 1.11247 0
M  V30 5551 O 535.212 1.57504 1.13605 0
M  V30 5552 C 532.342 3.0397 1.67987 0
M  V30 5553 C 531.296 4.10267 1.21924 0
M  V30 5554 C 530.622 4.74555 2.46377 0
M  V30 5555 C 531.922 5.21268 0.32815 0
M  V30 5556 H 533.616 2.99264 -0.0901977 0
M  V30 5557 H 531.162 1.4393 -0.044821 0
M  V30 5558 H 533.115 3.54123 2.28418 0
M  V30 5559 H 531.839 2.29906 2.31971 0
M  V30 5560 H 530.498 3.61009 0.637809 0
M  V30 5561 H 530.146 3.97098 3.08743 0
M  V30 5562 H 529.846 5.46363 2.16243 0
M  V30 5563 H 531.37 5.27487 3.07555 0
M  V30 5564 H 532.784 5.67128 0.838978 0
M  V30 5565 H 531.181 5.99982 0.119228 0
M  V30 5566 H 532.251 4.80673 -0.638839 0
M  V30 5567 N 533.594 0.0601682 1.57485 0
M  V30 5568 C 534.504 -0.926121 2.15546 0
M  V30 5569 C 535.52 -1.33532 1.11558 0
M  V30 5570 O 536.696 -1.4104 1.4377 0
M  V30 5571 C 533.761 -2.17952 2.69625 0
M  V30 5572 C 532.822 -1.82783 3.88444 0
M  V30 5573 C 532.055 -3.02148 4.39935 0
M  V30 5574 O 532.278 -4.15803 3.90466 0
M  V30 5575 O 531.212 -2.82639 5.31412 0
M  V30 5576 H 535.038 -0.462289 3.00161 0
M  V30 5577 H 532.623 -0.162246 1.48516 0
M  V30 5578 H 534.505 -2.91474 3.04337 0
M  V30 5579 H 533.18 -2.63456 1.88077 0
M  V30 5580 H 532.087 -1.06549 3.58606 0
M  V30 5581 H 533.42 -1.42072 4.7125 0
M  V30 5582 N 535.072 -1.5615 -0.213296 0
M  V30 5583 C 536.297 -1.83986 -0.957282 0
M  V30 5584 C 536.722 -0.641526 -1.76822 0
M  V30 5585 O 536.08 0.409722 -1.7661 0
M  V30 5586 C 536.128 -3.09889 -1.84393 0
M  V30 5587 O 535.232 -2.89163 -2.94038 0
M  V30 5588 H 534.573 -0.606357 -0.270605 0
M  V30 5589 H 537.103 -2.03369 -0.224111 0
M  V30 5590 H 537.113 -3.40209 -2.25215 0
M  V30 5591 H 535.788 -3.96735 -1.24795 0
M  V30 5592 H 534.365 -2.70097 -2.57103 0
M  V30 5593 N 536.55 0.480323 -1.50102 0
M  V30 5594 C 537.46 1.60547 -1.71061 0
M  V30 5595 C 538.476 1.63564 -0.593529 0
M  V30 5596 O 539.652 1.81604 -0.870751 0
M  V30 5597 C 536.717 2.96814 -1.79171 0
M  V30 5598 C 535.778 3.04259 -3.02861 0
M  V30 5599 C 535.011 4.34027 -3.10574 0
M  V30 5600 O 535.234 5.24009 -2.25323 0
M  V30 5601 O 534.168 4.46873 -4.03223 0
M  V30 5602 H 537.994 1.45788 -2.6642 0
M  V30 5603 H 535.579 0.658838 -1.34088 0
M  V30 5604 H 537.461 3.77765 -1.86738 0
M  V30 5605 H 536.136 3.11791 -0.869947 0
M  V30 5606 H 535.043 2.22419 -3.008 0
M  V30 5607 H 536.376 2.94216 -3.94586 0
M  V30 5608 N 538.028 1.39524 0.732853 0
M  V30 5609 C 538.958 1.41153 1.86005 0
M  V30 5610 C 539.939 0.274614 1.67869 0
M  V30 5611 O 541.124 0.480745 1.88155 0
M  V30 5612 C 538.254 1.25638 3.23778 0
M  V30 5613 C 537.208 2.36752 3.56556 0
M  V30 5614 C 536.534 2.06326 4.93289 0
M  V30 5615 C 537.834 3.79069 3.5931 0
M  V30 5616 H 539.528 2.35484 1.84899 0
M  V30 5617 H 537.074 1.13348 0.888162 0
M  V30 5618 H 539.027 1.25398 4.0231 0
M  V30 5619 H 537.751 0.277772 3.25417 0
M  V30 5620 H 536.41 2.36213 2.80355 0
M  V30 5621 H 536.058 1.06897 4.9151 0
M  V30 5622 H 535.758 2.80757 5.16187 0
M  V30 5623 H 537.282 2.07739 5.74175 0
M  V30 5624 H 538.696 3.81526 4.27914 0
M  V30 5625 H 537.093 4.52878 3.93728 0
M  V30 5626 H 538.163 4.09893 2.59068 0
M  V30 5627 N 539.506 -0.963266 1.24736 0
M  V30 5628 C 540.436 -2.07628 1.06832 0
M  V30 5629 C 541.417 -1.70088 -0.0200566 0
M  V30 5630 O 542.602 -1.93636 0.147854 0
M  V30 5631 C 539.732 -3.40636 0.677069 0
M  V30 5632 C 538.686 -3.9215 1.71471 0
M  V30 5633 C 538.012 -5.21553 1.1784 0
M  V30 5634 C 539.312 -4.19493 3.11164 0
M  V30 5635 H 541.006 -2.22864 1.9993 0
M  V30 5636 H 538.552 -1.07093 0.96266 0
M  V30 5637 H 540.505 -4.17941 0.538792 0
M  V30 5638 H 539.229 -3.25313 -0.289612 0
M  V30 5639 H 537.888 -3.17005 1.84128 0
M  V30 5640 H 537.536 -5.02593 0.202195 0
M  V30 5641 H 537.236 -5.56988 1.87185 0
M  V30 5642 H 538.76 -6.01463 1.05233 0
M  V30 5643 H 540.174 -4.87487 3.01711 0
M  V30 5644 H 538.571 -4.66165 3.77902 0
M  V30 5645 H 539.641 -3.26097 3.58871 0
M  V30 5646 N 540.985 -1.06182 -1.16461 0
M  V30 5647 C 542.231 -0.779015 -1.87241 0
M  V30 5648 C 542.564 0.692715 -1.81425 0
M  V30 5649 O 541.839 1.5074 -1.22913 0
M  V30 5650 C 542.122 -1.2728 -3.36856 0
M  V30 5651 C 541.975 -2.80821 -3.51368 0
M  V30 5652 C 543.294 -0.879799 -4.31216 0
M  V30 5653 H 540.413 -0.284464 -0.679889 0
M  V30 5654 H 543.055 -1.31755 -1.36896 0
M  V30 5655 H 541.205 -0.814673 -3.79862 0
M  V30 5656 H 542.877 -3.34833 -3.17308 0
M  V30 5657 H 541.12 -3.19606 -2.93316 0
M  V30 5658 H 541.791 -3.10435 -4.56436 0
M  V30 5659 H 544.267 -1.27436 -3.96105 0
M  V30 5660 H 543.143 -1.25278 -5.34412 0
M  V30 5661 H 543.404 0.215372 -4.41575 0
M  V30 5662 N 542.463 1.3308 -0.844243 0
M  V30 5663 C 543.74 1.92178 -0.364261 0
M  V30 5664 C 544.12 1.76961 1.15101 0
M  V30 5665 O 543.468 1.16128 1.9679 0
M  V30 5666 C 543.678 3.393 -0.817106 0
M  V30 5667 C 545.026 4.16444 -0.828236 0
M  V30 5668 O 546.05 3.47975 -0.761062 0
M  V30 5669 O 544.909 5.38685 -0.920926 0
M  V30 5670 H 542.003 0.820411 -0.10419 0
M  V30 5671 H 544.549 1.41918 -0.930453 0
M  V30 5672 H 543.321 3.44272 -1.85991 0
M  V30 5673 H 542.944 3.96947 -0.227785 0
M  V30 5674 N 543.941 0.601185 1.45683 0
M  V30 5675 C 544.904 -0.111398 2.28929 0
M  V30 5676 C 545.904 -0.801246 1.39416 0
M  V30 5677 O 547.094 -0.650383 1.61603 0
M  V30 5678 C 544.226 -1.16773 3.20276 0
M  V30 5679 H 545.419 0.620412 2.93413 0
M  V30 5680 H 542.972 0.359946 1.52099 0
M  V30 5681 H 543.707 -1.93051 2.60579 0
M  V30 5682 H 543.492 -0.677358 3.86205 0
M  V30 5683 H 544.982 -1.66698 3.82886 0
M  V30 5684 N 545.419 -1.53889 0.339982 0
M  V30 5685 C 546.665 -2.01152 -0.258003 0
M  V30 5686 C 546.998 -1.22749 -1.50487 0
M  V30 5687 O 546.273 -0.314156 -1.91946 0
M  V30 5688 C 546.556 -3.55468 -0.575717 0
M  V30 5689 C 546.409 -4.44584 0.682996 0
M  V30 5690 C 547.728 -4.1768 -1.38677 0
M  V30 5691 H 544.847 -0.731198 -0.0922992 0
M  V30 5692 H 547.489 -1.84352 0.459814 0
M  V30 5693 H 545.639 -3.69914 -1.18725 0
M  V30 5694 H 547.311 -4.41981 1.32102 0
M  V30 5695 H 545.554 -4.13592 1.3086 0
M  V30 5696 H 546.225 -5.5043 0.416001 0
M  V30 5697 H 548.701 -4.0691 -0.869705 0
M  V30 5698 H 547.577 -5.25734 -1.57783 0
M  V30 5699 H 547.838 -3.72069 -2.38782 0
M  V30 5700 N 546.897 -0.0685191 -1.57451 0
M  V30 5701 C 547.827 0.89747 -2.15564 0
M  V30 5702 C 548.808 1.31266 -1.08181 0
M  V30 5703 O 549.993 1.38429 -1.36202 0
M  V30 5704 C 547.123 2.16623 -2.71463 0
M  V30 5705 C 546.077 1.89054 -3.83982 0
M  V30 5706 C 545.403 3.22532 -4.26471 0
M  V30 5707 C 546.703 1.1984 -5.08366 0
M  V30 5708 H 548.397 0.413373 -2.96533 0
M  V30 5709 H 545.943 0.197391 -1.42641 0
M  V30 5710 H 547.896 2.84614 -3.10761 0
M  V30 5711 H 546.62 2.67269 -1.8771 0
M  V30 5712 H 545.279 1.23469 -3.45183 0
M  V30 5713 H 544.927 3.71013 -3.39644 0
M  V30 5714 H 544.627 3.04879 -5.02317 0
M  V30 5715 H 546.151 3.91727 -4.68383 0
M  V30 5716 H 547.565 1.77896 -5.45001 0
M  V30 5717 H 545.962 1.12456 -5.89469 0
M  V30 5718 H 547.032 0.176996 -4.84577 0
M  V30 5719 N 548.375 1.56261 0.205012 0
M  V30 5720 C 549.652 1.70856 0.952233 0
M  V30 5721 C 550.032 0.620501 2.01775 0
M  V30 5722 O 549.38 -0.370035 2.25484 0
M  V30 5723 C 549.59 3.12807 1.54767 0
M  V30 5724 C 550.938 3.72733 2.0336 0
M  V30 5725 O 551.962 3.15873 1.64629 0
M  V30 5726 O 550.821 4.72501 2.746 0
M  V30 5727 H 547.915 0.696496 0.445895 0
M  V30 5728 H 550.461 1.6857 0.195489 0
M  V30 5729 H 549.233 3.83465 0.779132 0
M  V30 5730 H 548.856 3.1928 2.36951 0
M  V30 5731 N 549.853 -0.472356 1.50355 0
M  V30 5732 C 551.269 -0.806001 1.37753 0
M  V30 5733 C 551.469 -1.968 0.432649 0
M  V30 5734 O 550.525 -2.52189 -0.12519 0
M  V30 5735 C 551.838 -1.11926 2.79093 0
M  V30 5736 C 553.386 -1.22579 2.87999 0
M  V30 5737 C 553.861 -1.57218 4.3017 0
M  V30 5738 N 555.352 -1.64212 4.33115 0
M  V30 5739 C 556.087 -1.92517 5.40116 0
M  V30 5740 N 555.583 -2.1885 6.57325 0
M  V30 5741 N 557.376 -1.94008 5.27558 0
M  V30 5742 H 549.527 0.293451 2.10363 0
M  V30 5743 H 551.79 0.0687672 0.945503 0
M  V30 5744 H 551.496 -0.338504 3.50067 0
M  V30 5745 H 551.37 -2.05577 3.16256 0
M  V30 5746 H 553.757 -1.99722 2.17245 0
M  V30 5747 H 553.838 -0.269107 2.54381 0
M  V30 5748 H 553.482 -0.806154 5.01461 0
M  V30 5749 H 553.412 -2.54034 4.61275 0
M  V30 5750 H 555.903 -1.45906 3.48597 0
M  V30 5751 H 556.216 -2.39718 7.3468 0
M  V30 5752 H 554.561 -2.16245 6.60502 0
M  V30 5753 H 557.752 -1.72931 4.34986 0
M  V30 5754 H 557.925 -2.15731 6.11035 0
M  V30 5755 N 551.331 -1.39911 -0.725443 0
M  V30 5756 C 552.577 -1.37858 -1.48738 0
M  V30 5757 C 552.91 0.0224187 -1.94187 0
M  V30 5758 O 552.185 0.989204 -1.67466 0
M  V30 5759 C 552.468 -2.3594 -2.72038 0
M  V30 5760 C 552.321 -3.85023 -2.32546 0
M  V30 5761 C 553.64 -2.31704 -3.74167 0
M  V30 5762 H 550.759 -0.502074 -0.539528 0
M  V30 5763 H 553.401 -1.70974 -0.828728 0
M  V30 5764 H 551.551 -2.0783 -3.28236 0
M  V30 5765 H 553.223 -4.2392 -1.81905 0
M  V30 5766 H 551.466 -4.01334 -1.64661 0
M  V30 5767 H 552.137 -4.49152 -3.20884 0
M  V30 5768 H 554.613 -2.5658 -3.27576 0
M  V30 5769 H 553.489 -3.02395 -4.58092 0
M  V30 5770 H 553.75 -1.3253 -4.21768 0
M  V30 5771 N 552.809 0.956637 -1.25245 0
M  V30 5772 C 554.22 1.51569 -1.09012 0
M  V30 5773 C 554.571 1.93322 0.334813 0
M  V30 5774 O 553.696 1.78421 1.22454 0
M  V30 5775 C 554.291 2.75444 -1.97271 0
M  V30 5776 C 552.85 3.27669 -1.8523 0
M  V30 5777 C 551.997 2.00517 -1.91542 0
M  V30 5778 H 554.948 0.773746 -1.3856 0
M  V30 5779 H 554.969 3.4919 -1.51151 0
M  V30 5780 H 554.481 2.45024 -3.00973 0
M  V30 5781 H 552.582 3.62914 -0.844045 0
M  V30 5782 H 552.695 3.9582 -2.69932 0
M  V30 5783 H 551.059 2.15727 -1.35404 0
M  V30 5784 H 551.842 1.72448 -2.96844 0
M  V30 5785 N 554.287 1.06798 1.15896 0
M  V30 5786 C 555.535 0.786211 1.8618 0
M  V30 5787 C 555.856 -0.689547 1.82401 0
M  V30 5788 O 555.126 -1.49913 1.26107 0
M  V30 5789 H 553.706 0.287843 0.689315 0
M  V30 5790 H 556.368 1.35055 1.40521 0
M  V30 5791 H 555.464 1.1157 2.91477 0
M  V30 5792 N 555.766 -1.3263 0.851289 0
M  V30 5793 C 556.696 -2.31449 0.308771 0
M  V30 5794 C 557.677 -1.59531 -0.590255 0
M  V30 5795 O 558.862 -1.87351 -0.511205 0
M  V30 5796 C 555.992 -3.43586 -0.506548 0
M  V30 5797 C 554.946 -4.26963 0.297753 0
M  V30 5798 C 554.272 -5.30831 -0.642094 0
M  V30 5799 C 555.572 -4.99643 1.52166 0
M  V30 5800 H 557.266 -2.77074 1.13447 0
M  V30 5801 H 554.812 -1.33207 0.546971 0
M  V30 5802 H 556.765 -4.11754 -0.896474 0
M  V30 5803 H 555.489 -2.96681 -1.36558 0
M  V30 5804 H 554.148 -3.60437 0.669391 0
M  V30 5805 H 553.796 -4.8018 -1.49788 0
M  V30 5806 H 553.496 -5.87501 -0.107968 0
M  V30 5807 H 555.02 -6.01862 -1.02927 0
M  V30 5808 H 556.434 -5.6051 1.20421 0
M  V30 5809 H 554.831 -5.66022 1.99347 0
M  V30 5810 H 555.901 -4.27701 2.28474 0
M  V30 5811 N 557.244 -0.608902 -1.45362 0
M  V30 5812 C 558.191 0.109172 -2.30542 0
M  V30 5813 C 559.161 0.858704 -1.42181 0
M  V30 5814 O 560.346 0.844178 -1.71109 0
M  V30 5815 C 557.486 1.09971 -3.27109 0
M  V30 5816 C 556.599 0.350911 -4.30572 0
M  V30 5817 C 555.734 1.33129 -5.14247 0
M  V30 5818 C 554.773 0.570377 -6.09437 0
M  V30 5819 N 553.91 1.5001 -6.85887 0
M  V30 5820 H 558.75 -0.623195 -2.91411 0
M  V30 5821 H 556.287 -0.319122 -1.43597 0
M  V30 5822 H 558.245 1.68714 -3.81564 0
M  V30 5823 H 556.875 1.79947 -2.67991 0
M  V30 5824 H 555.927 -0.352054 -3.78767 0
M  V30 5825 H 557.239 -0.242725 -4.98209 0
M  V30 5826 H 556.393 1.99074 -5.73109 0
M  V30 5827 H 555.132 1.95885 -4.46632 0
M  V30 5828 H 554.137 -0.102702 -5.49704 0
M  V30 5829 H 555.362 -0.0521607 -6.7908 0
M  V30 5830 H 553.308 2.11529 -6.2096 0
M  V30 5831 H 553.225 0.959934 -7.49881 0
M  V30 5832 H 554.493 2.14909 -7.49289 0
M  V30 5833 N 558.722 1.53707 -0.348139 0
M  V30 5834 C 559.652 2.28111 0.498766 0
M  V30 5835 C 560.633 1.29851 1.09876 0
M  V30 5836 O 561.818 1.587 1.11928 0
M  V30 5837 C 558.948 3.05735 1.64753 0
M  V30 5838 C 557.902 4.11537 1.17565 0
M  V30 5839 C 557.228 4.77142 2.4133 0
M  V30 5840 C 558.528 5.21587 0.272844 0
M  V30 5841 H 560.222 2.99152 -0.121934 0
M  V30 5842 H 557.768 1.43875 -0.0600842 0
M  V30 5843 H 559.721 3.56526 2.24649 0
M  V30 5844 H 558.445 2.32354 2.2952 0
M  V30 5845 H 557.104 3.61665 0.599483 0
M  V30 5846 H 556.752 4.0035 3.04514 0
M  V30 5847 H 556.452 5.48626 2.10436 0
M  V30 5848 H 557.976 5.30719 3.01943 0
M  V30 5849 H 559.39 5.67986 0.778779 0
M  V30 5850 H 557.787 6.00074 0.0555849 0
M  V30 5851 H 558.857 4.79969 -0.689785 0
M  V30 5852 N 560.2 0.0768682 1.57412 0
M  V30 5853 C 561.163 -0.873949 2.11884 0
M  V30 5854 C 562.163 -1.22301 1.04398 0
M  V30 5855 O 563.353 -1.15545 1.30365 0
M  V30 5856 C 560.485 -2.17575 2.62438 0
M  V30 5857 H 561.678 -0.401278 2.97203 0
M  V30 5858 H 559.231 -0.171904 1.55352 0
M  V30 5859 H 559.966 -2.69368 1.80587 0
M  V30 5860 H 559.751 -1.93534 3.41009 0
M  V30 5861 H 561.241 -2.85631 3.04639 0
M  V30 5862 N 561.678 -1.56367 -0.196722 0
M  V30 5863 C 562.924 -1.80796 -0.918725 0
M  V30 5864 C 563.257 -0.650645 -1.82976 0
M  V30 5865 O 562.532 0.348889 -1.91345 0
M  V30 5866 C 562.815 -3.15472 -1.73636 0
M  V30 5867 C 562.668 -4.41693 -0.85015 0
M  V30 5868 C 563.987 -3.46824 -2.70927 0
M  V30 5869 H 561.106 -0.657702 -0.332561 0
M  V30 5870 H 563.748 -1.89086 -0.186186 0
M  V30 5871 H 561.898 -3.08536 -2.36088 0
M  V30 5872 H 563.57 -4.60673 -0.240459 0
M  V30 5873 H 561.813 -4.33517 -0.156785 0
M  V30 5874 H 562.484 -5.32419 -1.45719 0
M  V30 5875 H 564.96 -3.54049 -2.18607 0
M  V30 5876 H 563.836 -4.4218 -3.25219 0
M  V30 5877 H 564.097 -2.70236 -3.49893 0
M  V30 5878 N 563.156 0.464375 -1.50603 0
M  V30 5879 C 564.119 1.54393 -1.69397 0
M  V30 5880 C 565.119 1.50566 -0.564504 0
M  V30 5881 O 566.309 1.53066 -0.831645 0
M  V30 5882 C 563.441 2.9401 -1.72543 0
M  V30 5883 H 564.634 1.39044 -2.65719 0
M  V30 5884 H 562.187 0.69122 -1.40185 0
M  V30 5885 H 562.922 3.14795 -0.77938 0
M  V30 5886 H 562.707 2.98195 -2.54602 0
M  V30 5887 H 564.197 3.72375 -1.89015 0
M  V30 5888 N 564.634 1.40294 0.718013 0
M  V30 5889 C 566.045 1.34289 1.29705 0
M  V30 5890 C 566.396 0.0152228 1.96194 0
M  V30 5891 O 565.521 -0.88682 1.97394 0
M  V30 5892 C 566.116 2.43219 2.3586 0
M  V30 5893 C 564.675 2.40682 2.89394 0
M  V30 5894 C 563.822 2.24223 1.63154 0
M  V30 5895 H 566.773 1.50135 0.514312 0
M  V30 5896 H 566.794 2.10986 3.16647 0
M  V30 5897 H 566.306 3.39836 1.87439 0
M  V30 5898 H 564.407 1.47756 3.42051 0
M  V30 5899 H 564.52 3.36177 3.41353 0
M  V30 5900 H 562.884 1.71696 1.88129 0
M  V30 5901 H 563.667 3.22834 1.16761 0
M  V30 5902 N 566.112 -0.949982 1.2575 0
M  V30 5903 C 567.022 -2.08109 1.08295 0
M  V30 5904 C 568.038 -1.7399 0.0188181 0
M  V30 5905 O 569.214 -2.00187 0.220724 0
M  V30 5906 C 566.279 -3.39383 0.708534 0
M  V30 5907 C 565.34 -3.8734 1.85111 0
M  V30 5908 C 564.573 -5.12349 1.49447 0
M  V30 5909 O 564.796 -5.6905 0.392212 0
M  V30 5910 O 563.73 -5.5513 2.32624 0
M  V30 5911 H 567.556 -2.25738 2.03165 0
M  V30 5912 H 565.141 -1.06545 1.04731 0
M  V30 5913 H 567.023 -4.18277 0.512061 0
M  V30 5914 H 565.698 -3.23013 -0.210854 0
M  V30 5915 H 564.605 -3.09429 2.10248 0
M  V30 5916 H 565.938 -4.08216 2.74991 0
M  V30 5917 N 567.59 -1.07411 -1.15328 0
M  V30 5918 C 568.867 -0.710732 -1.82231 0
M  V30 5919 C 569.247 0.806732 -1.95077 0
M  V30 5920 O 568.595 1.72139 -1.50268 0
M  V30 5921 C 568.805 -1.42586 -3.18544 0
M  V30 5922 C 570.153 -1.57836 -3.94174 0
M  V30 5923 O 571.177 -1.38669 -3.281 0
M  V30 5924 O 570.036 -1.8938 -5.12638 0
M  V30 5925 H 567.13 -0.25297 -0.78736 0
M  V30 5926 H 569.676 -1.17508 -1.22434 0
M  V30 5927 H 568.448 -2.46008 -3.04296 0
M  V30 5928 H 568.071 -0.952332 -3.86026 0
M  V30 5929 N 569.068 1.32177 -0.85831 0
M  V30 5930 C 570.314 1.97417 -0.46417 0
M  V30 5931 C 570.647 1.67746 0.978514 0
M  V30 5932 O 569.922 0.967654 1.68721 0
M  V30 5933 C 570.205 3.53069 -0.708094 0
M  V30 5934 C 570.058 3.92357 -2.19946 0
M  V30 5935 C 571.377 4.39783 -0.166881 0
M  V30 5936 H 568.496 0.717097 -0.17012 0
M  V30 5937 H 571.138 1.56499 -1.07741 0
M  V30 5938 H 569.288 3.88054 -0.186128 0
M  V30 5939 H 570.96 3.67533 -2.78779 0
M  V30 5940 H 569.203 3.41384 -2.67656 0
M  V30 5941 H 569.874 5.00841 -2.32082 0
M  V30 5942 H 572.35 4.11556 -0.613285 0
M  V30 5943 H 571.226 5.47671 -0.367093 0
M  V30 5944 H 571.487 4.32196 0.930559 0
M  V30 5945 N 570.547 0.616602 1.45037 0
M  V30 5946 C 571.958 0.199359 1.85633 0
M  V30 5947 C 572.309 -1.24588 1.51566 0
M  V30 5948 O 571.434 -1.94594 0.94668 0
M  V30 5949 C 572.029 0.355033 3.36935 0
M  V30 5950 C 570.588 -0.00758748 3.76399 0
M  V30 5951 C 569.735 0.675256 2.68953 0
M  V30 5952 H 572.686 0.822708 1.3571 0
M  V30 5953 H 572.707 -0.410201 3.78282 0
M  V30 5954 H 572.219 1.40699 3.61698 0
M  V30 5955 H 570.32 -1.05837 3.57252 0
M  V30 5956 H 570.433 0.392346 4.77491 0
M  V30 5957 H 568.797 0.111992 2.54454 0
M  V30 5958 H 569.58 1.72952 2.96551 0
M  V30 5959 N 572.025 -1.5352 0.356285 0
M  V30 5960 C 573.272 -2.01117 -0.236303 0
M  V30 5961 C 573.6 -1.24381 -1.49531 0
M  V30 5962 O 572.855 -0.323057 -1.93015 0
M  V30 5963 C 573.154 -3.52607 -0.583369 0
M  V30 5964 C 572.82 -4.47151 0.58023 0
M  V30 5965 C 571.482 -4.72718 0.899528 0
M  V30 5966 C 573.834 -5.03137 1.36024 0
M  V30 5967 C 571.162 -5.51523 2.00098 0
M  V30 5968 C 573.514 -5.83145 2.45204 0
M  V30 5969 C 572.178 -6.07001 2.77679 0
M  V30 5970 H 571.448 -0.735938 -0.0864695 0
M  V30 5971 H 574.095 -1.85209 0.48683 0
M  V30 5972 H 572.4 -3.66413 -1.38739 0
M  V30 5973 H 574.097 -3.86901 -1.05397 0
M  V30 5974 H 570.687 -4.27394 0.321322 0
M  V30 5975 H 574.871 -4.83339 1.12682 0
M  V30 5976 H 570.127 -5.68229 2.25668 0
M  V30 5977 H 574.301 -6.25537 3.06067 0
M  V30 5978 H 571.928 -6.67851 3.63151 0
M  V30 5979 N 573.503 -0.0852151 -1.57369 0
M  V30 5980 C 574.45 0.877268 -2.13478 0
M  V30 5981 C 575.42 1.28642 -1.05073 0
M  V30 5982 O 576.605 1.36992 -1.32808 0
M  V30 5983 C 573.745 2.13464 -2.71159 0
M  V30 5984 C 572.858 1.77691 -3.93764 0
M  V30 5985 C 571.993 2.98139 -4.39643 0
M  V30 5986 C 571.032 2.58447 -5.54862 0
M  V30 5987 N 570.169 3.71698 -5.95639 0
M  V30 5988 H 575.009 0.391933 -2.95411 0
M  V30 5989 H 572.546 0.181796 -1.45972 0
M  V30 5990 H 574.504 2.87086 -3.02717 0
M  V30 5991 H 573.134 2.59514 -1.91969 0
M  V30 5992 H 572.186 0.940768 -3.68583 0
M  V30 5993 H 573.498 1.44497 -4.77412 0
M  V30 5994 H 572.652 3.80026 -4.72933 0
M  V30 5995 H 571.391 3.34536 -3.54876 0
M  V30 5996 H 570.396 1.74984 -5.21211 0
M  V30 5997 H 571.621 2.23205 -6.41371 0
M  V30 5998 H 569.567 4.07831 -5.13819 0
M  V30 5999 H 569.484 3.42317 -6.74059 0
M  V30 6000 H 570.752 4.54123 -6.33555 0
M  V30 6001 N 574.981 1.5647 0.188427 0
M  V30 6002 C 575.928 1.95073 1.23349 0
M  V30 6003 C 576.898 0.812238 1.44886 0
M  V30 6004 O 578.083 1.07095 1.57909 0
M  V30 6005 C 575.223 2.30124 2.57171 0
M  V30 6006 C 574.336 3.57069 2.43157 0
M  V30 6007 C 573.471 3.81411 3.69729 0
M  V30 6008 C 572.51 5.0176 3.50575 0
M  V30 6009 N 571.647 5.22321 4.69175 0
M  V30 6010 H 576.487 2.84171 0.89728 0
M  V30 6011 H 574.024 1.40623 0.431683 0
M  V30 6012 H 575.982 2.48463 3.35145 0
M  V30 6013 H 574.612 1.44159 2.88822 0
M  V30 6014 H 573.664 3.4674 1.56447 0
M  V30 6015 H 574.976 4.452 2.24942 0
M  V30 6016 H 574.13 4.00026 4.56141 0
M  V30 6017 H 572.869 2.91624 3.90905 0
M  V30 6018 H 571.874 4.83061 2.62549 0
M  V30 6019 H 573.099 5.93063 3.30837 0
M  V30 6020 H 571.045 4.35483 4.90602 0
M  V30 6021 H 570.962 6.04643 4.53809 0
M  V30 6022 H 572.23 5.45401 5.56919 0
M  V30 6023 N 576.459 -0.456382 1.50847 0
M  V30 6024 C 577.707 -1.20497 1.62249 0
M  V30 6025 C 578.028 -1.92156 0.331839 0
M  V30 6026 O 577.298 -1.84751 -0.651443 0
M  V30 6027 H 575.878 -0.447775 0.597918 0
M  V30 6028 H 578.54 -0.525099 1.87693 0
M  V30 6029 H 577.636 -1.94492 2.44089 0
M  V30 6030 N 577.937 -1.40673 -0.710563 0
M  V30 6031 C 578.9 -1.4108 -1.80635 0
M  V30 6032 C 579.9 -0.303783 -1.57904 0
M  V30 6033 O 581.09 -0.562937 -1.64853 0
M  V30 6034 C 578.222 -1.20748 -3.18799 0
M  V30 6035 H 579.415 -2.38612 -1.81671 0
M  V30 6036 H 576.968 -1.26595 -0.916704 0
M  V30 6037 H 577.703 -0.239964 -3.23411 0
M  V30 6038 H 577.488 -2.00941 -3.36698 0
M  V30 6039 H 578.978 -1.23833 -3.98817 0
M  V30 6040 N 579.415 0.9433 -1.26252 0
M  V30 6041 C 580.345 2.05902 -1.10122 0
M  V30 6042 C 581.326 1.70099 -0.00700552 0
M  V30 6043 O 582.511 1.93377 -0.178641 0
M  V30 6044 C 579.641 3.39516 -0.731175 0
M  V30 6045 C 578.595 3.89372 -1.77688 0
M  V30 6046 C 577.921 5.19613 -1.26122 0
M  V30 6047 C 579.221 4.14489 -3.17799 0
M  V30 6048 H 580.915 2.19655 -2.03451 0
M  V30 6049 H 578.461 1.05548 -0.979576 0
M  V30 6050 H 580.414 4.17031 -0.605215 0
M  V30 6051 H 579.138 3.25733 0.23782 0
M  V30 6052 H 577.797 3.14036 -1.89148 0
M  V30 6053 H 577.445 5.02208 -0.282128 0
M  V30 6054 H 577.145 5.53939 -1.96023 0
M  V30 6055 H 578.669 5.99713 -1.14789 0
M  V30 6056 H 580.083 4.82625 -3.09428 0
M  V30 6057 H 578.48 4.60094 -3.85271 0
M  V30 6058 H 579.55 3.20347 -3.64014 0
M  V30 6059 N 580.893 1.08022 1.14757 0
M  V30 6060 C 582.142 0.802468 1.8505 0
M  V30 6061 C 582.455 -0.674061 1.83619 0
M  V30 6062 O 583.661 -1.06683 2.49662 0
M  V30 6063 C 582.117 1.38551 3.32162 0
M  V30 6064 C 581.725 2.89354 3.42021 0
M  V30 6065 C 583.469 1.18608 4.07594 0
M  V30 6066 C 581.376 3.40815 4.83321 0
M  V30 6067 H 580.306 0.296518 0.693248 0
M  V30 6068 H 582.957 1.30114 1.29393 0
M  V30 6069 H 581.339 0.814556 3.87532 0
M  V30 6070 H 582.513 3.52552 2.96722 0
M  V30 6071 H 580.828 3.08165 2.80041 0
M  V30 6072 H 583.425 1.54525 5.11885 0
M  V30 6073 H 583.768 0.125599 4.1611 0
M  V30 6074 H 584.301 1.72375 3.58513 0
M  V30 6075 H 581.04 4.46418 4.79991 0
M  V30 6076 H 580.56 2.82374 5.29174 0
M  V30 6077 H 582.239 3.37171 5.522 0
M  V30 6078 N 582.371 -1.3172 0.865308 0
M  V30 6079 C 583.787 -1.4958 0.556596 0
M  V30 6080 C 583.987 -1.79763 -0.910353 0
M  V30 6081 O 583.043 -1.87351 -1.6928 0
M  V30 6082 C 584.356 -2.63277 1.45279 0
M  V30 6083 C 585.904 -2.77161 1.45433 0
M  V30 6084 C 586.379 -3.93949 2.33598 0
M  V30 6085 N 587.87 -4.01228 2.31453 0
M  V30 6086 C 588.605 -4.90855 2.96393 0
M  V30 6087 N 588.101 -5.85416 3.70486 0
M  V30 6088 N 589.894 -4.84063 2.85726 0
M  V30 6089 H 582.045 -1.10396 1.81456 0
M  V30 6090 H 584.308 -0.54507 0.775631 0
M  V30 6091 H 584.014 -2.47734 2.49641 0
M  V30 6092 H 583.888 -3.59309 1.14792 0
M  V30 6093 H 586.275 -2.9212 0.41831 0
M  V30 6094 H 586.356 -1.8181 1.79941 0
M  V30 6095 H 586 -3.79748 3.37274 0
M  V30 6096 H 585.93 -4.88598 1.96417 0
M  V30 6097 H 588.421 -3.3357 1.77593 0
M  V30 6098 H 588.734 -6.50525 4.17178 0
M  V30 6099 H 587.079 -5.85409 3.74594 0
M  V30 6100 H 590.27 -4.09163 2.27384 0
M  V30 6101 H 590.443 -5.53708 3.36617 0
M  V30 6102 N 583.85 -0.624285 -1.44708 0
M  V30 6103 C 585.098 -0.125802 -2.01708 0
M  V30 6104 C 585.418 1.2543 -1.49306 0
M  V30 6105 O 584.689 1.83198 -0.693924 0
M  V30 6106 H 583.269 -0.0435161 -0.745731 0
M  V30 6107 H 585.931 -0.809446 -1.77296 0
M  V30 6108 H 585.027 -0.0882734 -3.11975 0
M  V30 6109 N 585.328 1.53329 -0.364422 0
M  V30 6110 C 586.739 1.86345 0.115039 0
M  V30 6111 C 587.09 1.28505 1.4826 0
M  V30 6112 O 586.215 0.606639 2.07723 0
M  V30 6113 C 586.81 3.38114 0.215522 0
M  V30 6114 C 585.369 3.70932 0.639237 0
M  V30 6115 C 584.516 2.76471 -0.214261 0
M  V30 6116 H 587.467 1.47593 -0.583258 0
M  V30 6117 H 587.488 3.66031 1.0393 0
M  V30 6118 H 587 3.80182 -0.779948 0
M  V30 6119 H 585.101 3.3442 1.64298 0
M  V30 6120 H 585.214 4.77302 0.41465 0
M  V30 6121 H 583.578 2.52724 0.316678 0
M  V30 6122 H 584.361 3.21373 -1.20725 0
M  V30 6123 N 586.806 0.0935595 1.57322 0
M  V30 6124 C 587.716 -0.880192 2.17462 0
M  V30 6125 C 588.732 -1.31135 1.14366 0
M  V30 6126 O 589.908 -1.37958 1.46729 0
M  V30 6127 C 586.973 -2.12184 2.74188 0
M  V30 6128 C 586.034 -1.74503 3.92234 0
M  V30 6129 C 585.267 -2.92748 4.46245 0
M  V30 6130 O 585.49 -4.07427 3.99198 0
M  V30 6131 O 584.424 -2.71303 5.37288 0
M  V30 6132 H 588.25 -0.398516 3.01074 0
M  V30 6133 H 585.835 -0.130707 1.48827 0
M  V30 6134 H 587.717 -2.84953 3.10451 0
M  V30 6135 H 586.392 -2.59407 1.93623 0
M  V30 6136 H 585.299 -0.989186 3.60785 0
M  V30 6137 H 586.632 -1.32044 4.74157 0
M  V30 6138 N 588.284 -1.56567 -0.180126 0
M  V30 6139 C 589.247 -1.94852 -1.20686 0
M  V30 6140 C 590.247 -0.831212 -1.3765 0
M  V30 6141 O 591.437 -1.09841 -1.35206 0
M  V30 6142 C 588.569 -2.23565 -2.57355 0
M  V30 6143 H 589.762 -2.86722 -0.879225 0
M  V30 6144 H 587.315 -1.50489 -0.422237 0
M  V30 6145 H 588.05 -1.34381 -2.95148 0
M  V30 6146 H 587.835 -3.04999 -2.46411 0
M  V30 6147 H 589.325 -2.54137 -3.31367 0
M  V30 6148 N 589.762 0.448376 -1.51087 0
M  V30 6149 C 590.692 1.55102 -1.74544 0
M  V30 6150 C 591.673 1.59357 -0.594932 0
M  V30 6151 O 592.858 1.75261 -0.836491 0
M  V30 6152 C 589.988 2.93268 -1.86041 0
M  V30 6153 C 588.942 3.03877 -3.01402 0
M  V30 6154 C 588.268 4.43914 -2.98068 0
M  V30 6155 C 589.568 2.7898 -4.41551 0
M  V30 6156 H 591.262 1.35724 -2.66869 0
M  V30 6157 H 588.808 0.651498 -1.28419 0
M  V30 6158 H 590.761 3.70356 -2.01034 0
M  V30 6159 H 589.485 3.13853 -0.903548 0
M  V30 6160 H 588.144 2.29227 -2.86096 0
M  V30 6161 H 587.792 4.6145 -2.00182 0
M  V30 6162 H 587.492 4.51944 -3.75527 0
M  V30 6163 H 589.016 5.22991 -3.1514 0
M  V30 6164 H 590.43 3.45805 -4.57265 0
M  V30 6165 H 588.827 2.98431 -5.20633 0
M  V30 6166 H 589.897 1.74663 -4.5235 0
M  V30 6167 N 591.24 1.41047 0.703093 0
M  V30 6168 C 592.651 1.35657 1.28274 0
M  V30 6169 C 593.002 0.0360309 1.96167 0
M  V30 6170 O 592.127 -0.865833 1.98324 0
M  V30 6171 C 592.722 2.45707 2.33267 0
M  V30 6172 C 591.281 2.43738 2.86825 0
M  V30 6173 C 590.428 2.25941 1.60767 0
M  V30 6174 H 593.379 1.50672 0.49836 0
M  V30 6175 H 593.4 2.14333 3.14391 0
M  V30 6176 H 592.912 3.41805 1.83824 0
M  V30 6177 H 591.013 1.51375 3.40465 0
M  V30 6178 H 591.126 3.39779 3.37768 0
M  V30 6179 H 589.49 1.73681 1.86298 0
M  V30 6180 H 590.273 3.24054 1.1333 0
M  V30 6181 N 592.718 -0.936591 1.26751 0
M  V30 6182 C 593.964 -1.6858 1.12733 0
M  V30 6183 C 594.297 -1.91414 -0.327745 0
M  V30 6184 O 593.572 -1.49812 -1.24043 0
M  V30 6185 C 593.855 -3.05779 1.90187 0
M  V30 6186 C 593.708 -2.90242 3.43627 0
M  V30 6187 C 595.027 -4.0597 1.69931 0
M  V30 6188 H 592.146 -0.61182 0.410908 0
M  V30 6189 H 594.788 -1.08747 1.55801 0
M  V30 6190 H 592.938 -3.56853 1.53584 0
M  V30 6191 H 594.61 -2.46354 3.9001 0
M  V30 6192 H 592.853 -2.2577 3.70419 0
M  V30 6193 H 593.524 -3.87572 3.93055 0
M  V30 6194 H 596 -3.63874 2.0183 0
M  V30 6195 H 594.876 -4.99974 2.26534 0
M  V30 6196 H 595.137 -4.37369 0.64502 0
M  V30 6197 N 594.196 -1.08629 -1.14182 0
M  V30 6198 C 595.424 -0.838889 -1.8913 0
M  V30 6199 C 595.839 0.609153 -1.78703 0
M  V30 6200 O 595.196 1.41876 -1.14794 0
M  V30 6201 C 595.247 -1.25477 -3.39025 0
M  V30 6202 O 594.968 -2.64601 -3.49167 0
M  V30 6203 C 596.469 -1.03856 -4.30963 0
M  V30 6204 H 593.689 -0.302377 -0.599007 0
M  V30 6205 H 596.233 -1.44615 -1.44592 0
M  V30 6206 H 594.388 -0.691571 -3.81177 0
M  V30 6207 H 594.802 -2.81922 -4.42289 0
M  V30 6208 H 596.276 -1.37892 -5.345 0
M  V30 6209 H 596.753 0.0242522 -4.39193 0
M  V30 6210 H 597.359 -1.58731 -3.94569 0
M  V30 6211 N 595.674 1.31259 -0.872281 0
M  V30 6212 C 596.92 1.973 -0.494414 0
M  V30 6213 C 597.275 1.67684 0.94339 0
M  V30 6214 O 596.568 0.964186 1.65572 0
M  V30 6215 C 596.762 3.50659 -0.690889 0
M  V30 6216 C 596.591 3.95179 -2.14624 0
M  V30 6217 C 595.361 4.21405 -2.7883 0
M  V30 6218 C 597.559 4.08948 -3.11875 0
M  V30 6219 N 595.541 4.52295 -4.15093 0
M  V30 6220 C 596.912 4.43576 -4.33174 0
M  V30 6221 C 598.967 3.91334 -3.07835 0
M  V30 6222 C 597.67 4.62429 -5.50956 0
M  V30 6223 C 599.696 4.11381 -4.24876 0
M  V30 6224 C 599.058 4.46343 -5.44938 0
M  V30 6225 H 595.157 0.747411 -0.230002 0
M  V30 6226 H 597.741 1.58741 -1.12736 0
M  V30 6227 H 595.912 3.88301 -0.0875162 0
M  V30 6228 H 597.644 4.03722 -0.281179 0
M  V30 6229 H 594.399 4.14131 -2.29767 0
M  V30 6230 H 594.823 4.71897 -4.8543 0
M  V30 6231 H 599.465 3.6339 -2.16119 0
M  V30 6232 H 597.183 4.8922 -6.43187 0
M  V30 6233 H 600.769 3.99235 -4.23205 0
M  V30 6234 H 599.649 4.6154 -6.33996 0
M  V30 6235 O 597.191 0.771905 1.41859 0
M  V30 6236 H 597.882 0.335971 1.90764 0
M  V30 END ATOM
M  V30 BEGIN BOND
M  V30 END BOND
M  V30 END CTAB
M  END
$$$$
