drugbank_target|O43617 Trafficking protein particle complex subunit 3 (DB03796; DB08231; DB08342)
 OpenBabel12092120283D

  0  0  0     0  0            999 V3000
M  V30 BEGIN CTAB
M  V30 COUNTS 2829 2850 0 0 0
M  V30 BEGIN ATOM
M  V30 1 H -0.908 1.98254 -0.117106 0
M  V30 2 N 0 1.576 0 0
M  V30 3 C 0.933 2.03868 1.02534 0
M  V30 4 C 1.911 0.928543 1.3348 0
M  V30 5 O 3.095 1.19667 1.45644 0
M  V30 6 C 0.222 2.43627 2.35294 0
M  V30 7 C -0.732 3.65373 2.2001 0
M  V30 8 S 0.101 5.13292 1.52614 0
M  V30 9 C 1.257 5.56322 2.86805 0
M  V30 10 H 1.49 2.90518 0.631377 0
M  V30 11 H -0.977 1.52953 0.210867 0
M  V30 12 H 0.981 2.67203 3.11629 0
M  V30 13 H -0.358 1.57376 2.7183 0
M  V30 14 H -1.165 3.90944 3.18086 0
M  V30 15 H -1.563 3.418 1.51819 0
M  V30 16 H 0.729 5.58782 3.83104 0
M  V30 17 H 1.672 6.56266 2.65933 0
M  V30 18 H 2.08 4.83886 2.90714 0
M  V30 19 N 1.4781 -0.272755 1.55222 0
M  V30 20 C 2.7031 -1.02683 1.80197 0
M  V30 21 C 3.1281 -1.79142 0.573551 0
M  V30 22 O 2.4861 -1.74917 -0.476849 0
M  V30 23 C 2.5341 -1.9609 3.02624 0
M  V30 24 O 1.6381 -3.04863 2.77727 0
M  V30 25 H 0.9791 -0.293557 0.595584 0
M  V30 26 H 3.5091 -0.30159 2.02365 0
M  V30 27 H 3.5191 -2.38039 3.31363 0
M  V30 28 H 2.1941 -1.39851 3.91682 0
M  V30 29 H 0.7711 -2.67228 2.60084 0
M  V30 30 N 2.9562 -1.48159 -0.537278 0
M  V30 31 C 4.3722 -1.34118 -0.865129 0
M  V30 32 C 4.5722 -0.346678 -1.98495 0
M  V30 33 O 3.6282 0.234715 -2.51407 0
M  V30 34 C 4.9412 -2.73963 -1.23954 0
M  V30 35 C 6.4892 -2.82397 -1.34984 0
M  V30 36 C 6.9642 -4.22928 -1.75772 0
M  V30 37 N 8.4552 -4.25566 -1.82887 0
M  V30 38 C 9.1902 -5.31235 -2.15817 0
M  V30 39 N 8.6862 -6.47189 -2.47222 0
M  V30 40 N 10.4792 -5.18624 -2.16761 0
M  V30 41 H 2.6302 -2.1144 0.201715 0
M  V30 42 H 4.8932 -0.947598 0.0275949 0
M  V30 43 H 4.5992 -3.48264 -0.490381 0
M  V30 44 H 4.4732 -3.0702 -2.19132 0
M  V30 45 H 6.8602 -2.08356 -2.08978 0
M  V30 46 H 6.9412 -2.5297 -0.379448 0
M  V30 47 H 6.5852 -4.97482 -1.02341 0
M  V30 48 H 6.5152 -4.49794 -2.73848 0
M  V30 49 H 9.0062 -3.41924 -1.60924 0
M  V30 50 H 9.3192 -7.23564 -2.71433 0
M  V30 51 H 7.6642 -6.50476 -2.44757 0
M  V30 52 H 10.8552 -4.27056 -1.91679 0
M  V30 53 H 11.0282 -6.01078 -2.42093 0
M  V30 54 N 4.4343 0.785586 -1.36625 0
M  V30 55 C 5.3663 1.90711 -1.2713 0
M  V30 56 C 6.3793 1.61688 -0.189986 0
M  V30 57 O 7.5683 1.72864 -0.445014 0
M  V30 58 C 4.6683 3.25611 -0.939713 0
M  V30 59 C 3.8413 3.82385 -2.12369 0
M  V30 60 C 2.9003 4.95732 -1.76456 0
M  V30 61 O 1.9263 5.12047 -2.48589 0
M  V30 62 N 3.1283 5.76258 -0.700492 0
M  V30 63 H 5.8933 1.99376 -2.23762 0
M  V30 64 H 3.4543 0.964041 -1.30069 0
M  V30 65 H 5.4463 3.98937 -0.680554 0
M  V30 66 H 4.0163 3.12538 -0.0624074 0
M  V30 67 H 3.2363 3.01001 -2.54543 0
M  V30 68 H 4.5243 4.17047 -2.9146 0
M  V30 69 H 3.9223 5.65609 -0.101624 0
M  V30 70 H 2.4793 6.4987 -0.501165 0
M  V30 71 N 5.9124 1.20967 1.01018 0
M  V30 72 C 6.8754 0.965918 2.07853 0
M  V30 73 C 7.8754 -0.0610545 1.60684 0
M  V30 74 O 9.0654 0.175681 1.73312 0
M  V30 75 C 6.1974 0.455513 3.37843 0
M  V30 76 H 7.3904 1.91365 2.3091 0
M  V30 77 H 4.9434 1.02594 1.17916 0
M  V30 78 H 5.6784 -0.497381 3.20463 0
M  V30 79 H 5.4634 1.19622 3.73407 0
M  V30 80 H 6.9534 0.304667 4.16487 0
M  V30 81 N 7.3905 -1.2043 1.01659 0
M  V30 82 C 8.3385 -2.25249 0.580143 0
M  V30 83 C 9.3325 -1.65057 -0.381115 0
M  V30 84 O 10.5385 -1.78241 -0.251039 0
M  V30 85 H 6.9135 -0.732695 0.169299 0
M  V30 86 H 8.8845 -2.59389 1.47512 0
M  V30 87 C 7.6335 -3.47638 -0.065788 0
M  V30 88 H 6.9565 -3.94233 0.664874 0
M  V30 89 H 8.3965 -4.2268 -0.334282 0
M  V30 90 C 6.8555 -3.10447 -1.3086 0
M  V30 91 O 7.3855 -3.21981 -2.4019 0
M  V30 92 N 5.5915 -2.64996 -1.1927 0
M  V30 93 H 5.1385 -2.55811 -0.303064 0
M  V30 94 H 5.0965 -2.40482 -2.02523 0
M  V30 95 N 8.8686 -0.792821 -1.36206 0
M  V30 96 C 10.2846 -0.474903 -1.52371 0
M  V30 97 C 10.4846 1.00622 -1.74578 0
M  V30 98 O 9.5406 1.79162 -1.77924 0
M  V30 99 C 10.8536 -1.3083 -2.70747 0
M  V30 100 C 12.4016 -1.30234 -2.84619 0
M  V30 101 C 12.8766 -2.11956 -4.06004 0
M  V30 102 N 14.3676 -2.09419 -4.13156 0
M  V30 103 C 15.1026 -2.69419 -5.06163 0
M  V30 104 N 14.5986 -3.3829 -6.04592 0
M  V30 105 N 16.3916 -2.59134 -4.98804 0
M  V30 106 H 8.5426 -1.75222 -1.20046 0
M  V30 107 H 10.8056 -0.745024 -0.586211 0
M  V30 108 H 10.5116 -2.35881 -2.6087 0
M  V30 109 H 10.3856 -0.95196 -3.6499 0
M  V30 110 H 12.7726 -0.259748 -2.93955 0
M  V30 111 H 12.8536 -1.69847 -1.91274 0
M  V30 112 H 12.4976 -3.16248 -3.97429 0
M  V30 113 H 12.4276 -1.69711 -4.98503 0
M  V30 114 H 14.9186 -1.59297 -3.42685 0
M  V30 115 H 15.2316 -3.81394 -6.7213 0
M  V30 116 H 13.5766 -3.42393 -6.04807 0
M  V30 117 H 16.7676 -2.04927 -4.20859 0
M  V30 118 H 16.9406 -3.06185 -5.711 0
M  V30 119 N 10.3467 1.47872 -0.545128 0
M  V30 120 C 11.5947 2.02093 -0.016553 0
M  V30 121 C 11.9157 1.42305 1.3332 0
M  V30 122 O 11.1857 0.593853 1.86682 0
M  V30 123 H 9.7657 0.746993 -0.00313038 0
M  V30 124 H 12.4277 1.81414 -0.712397 0
M  V30 125 H 11.5237 3.11996 0.0805422 0
M  V30 126 N 11.8248 0.280983 1.55075 0
M  V30 127 C 13.0528 -0.337293 2.04132 0
M  V30 128 C 13.4678 -1.4903 1.15912 0
M  V30 129 O 12.8248 -1.81606 0.180459 0
M  V30 130 C 12.8758 -0.812706 3.52246 0
M  V30 131 O 12.5968 0.294387 4.3711 0
M  V30 132 C 14.0978 -1.4982 4.17216 0
M  V30 133 H 11.3178 -0.0761638 0.666663 0
M  V30 134 H 13.8618 0.414787 2.00249 0
M  V30 135 H 12.0168 -1.51486 3.56554 0
M  V30 136 H 12.4308 -0.0721325 5.2445 0
M  V30 137 H 13.9048 -1.7822 5.22438 0
M  V30 138 H 14.3818 -2.43168 3.65741 0
M  V30 139 H 14.9878 -0.839742 4.16927 0
M  V30 140 N 13.3029 -1.57598 0.00835791 0
M  V30 141 C 14.2129 -2.12385 -0.996487 0
M  V30 142 C 15.2289 -1.07108 -1.37127 0
M  V30 143 O 16.4049 -1.39055 -1.4569 0
M  V30 144 C 13.4699 -2.62314 -2.26699 0
M  V30 145 C 12.5309 -3.82225 -1.95456 0
M  V30 146 C 11.7639 -4.29763 -3.16449 0
M  V30 147 O 11.9869 -3.76584 -4.28416 0
M  V30 148 O 10.9209 -5.21832 -2.99958 0
M  V30 149 H 14.7469 -2.98479 -0.560725 0
M  V30 150 H 12.3319 -1.47903 -0.210987 0
M  V30 151 H 14.2139 -2.94589 -3.01322 0
M  V30 152 H 12.8889 -1.79313 -2.69497 0
M  V30 153 H 11.7959 -3.54909 -1.18282 0
M  V30 154 H 13.1289 -4.66324 -1.57489 0
M  V30 155 N 14.781 0.264519 -1.55364 0
M  V30 156 C 16.006 1.01726 -1.80739 0
M  V30 157 C 16.431 1.78836 -0.583044 0
M  V30 158 O 15.789 1.75167 0.467566 0
M  V30 159 C 15.837 1.94482 -3.03659 0
M  V30 160 O 14.941 3.03386 -2.7934 0
M  V30 161 H 14.282 0.290395 -0.597132 0
M  V30 162 H 16.812 0.290854 -2.02522 0
M  V30 163 H 16.822 2.36278 -3.32621 0
M  V30 164 H 15.497 1.37772 -3.92418 0
M  V30 165 H 14.074 2.65844 -2.61498 0
M  V30 166 N 16.2591 1.48442 0.529413 0
M  V30 167 C 17.2061 1.63007 1.63394 0
M  V30 168 C 18.1761 0.47212 1.59249 0
M  V30 169 O 19.3611 0.695673 1.77666 0
M  V30 170 C 16.5011 1.6763 3.01653 0
M  V30 171 C 15.6141 2.94535 3.16027 0
M  V30 172 C 14.7491 2.90316 4.44849 0
M  V30 173 C 13.7881 4.11923 4.52754 0
M  V30 174 N 12.9251 4.05777 5.72965 0
M  V30 175 H 17.7651 2.5733 1.50285 0
M  V30 176 H 15.3021 1.27613 0.731656 0
M  V30 177 H 17.2601 1.68292 3.81751 0
M  V30 178 H 15.8901 0.76797 3.13532 0
M  V30 179 H 14.9421 3.03615 2.29177 0
M  V30 180 H 16.2541 3.84512 3.17729 0
M  V30 181 H 15.4081 2.89382 5.33238 0
M  V30 182 H 14.1471 1.98068 4.45668 0
M  V30 183 H 13.1521 4.13131 3.62771 0
M  V30 184 H 14.3771 5.0533 4.53672 0
M  V30 185 H 12.3231 3.16351 5.74681 0
M  V30 186 H 12.2401 4.8946 5.76164 0
M  V30 187 H 13.5081 4.08904 6.6364 0
M  V30 188 N 17.7372 -0.778329 1.37039 0
M  V30 189 C 18.6842 -1.89139 1.32269 0
M  V30 190 C 19.6542 -1.65017 0.189387 0
M  V30 191 O 20.8392 -1.87024 0.377693 0
M  V30 192 C 17.9792 -3.26112 1.12894 0
M  V30 193 C 17.0922 -3.62233 2.35396 0
M  V30 194 C 16.2272 -4.8838 2.08946 0
M  V30 195 C 15.2662 -5.17212 3.2735 0
M  V30 196 N 14.4032 -6.34546 3.00492 0
M  V30 197 H 19.2432 -1.92552 2.27437 0
M  V30 198 H 16.7802 -0.941473 1.13025 0
M  V30 199 H 18.7382 -4.05116 0.996835 0
M  V30 200 H 17.3682 -3.22091 0.213758 0
M  V30 201 H 16.4202 -2.78265 2.5937 0
M  V30 202 H 17.7322 -3.79481 3.23721 0
M  V30 203 H 16.8862 -5.75274 1.92729 0
M  V30 204 H 15.6252 -4.73222 1.17949 0
M  V30 205 H 14.6302 -4.28796 3.44113 0
M  V30 206 H 15.8552 -5.34283 4.19188 0
M  V30 207 H 13.8012 -6.20759 2.12118 0
M  V30 208 H 13.7182 -6.52179 3.82358 0
M  V30 209 H 14.9862 -7.24394 2.87879 0
M  V30 210 N 19.2153 -1.21501 -1.00376 0
M  V30 211 C 20.1483 -0.918669 -2.08892 0
M  V30 212 C 21.1263 0.134277 -1.62045 0
M  V30 213 O 22.3103 0.00504255 -1.88499 0
M  V30 214 C 19.4373 -0.379645 -3.36566 0
M  V30 215 C 18.4833 -1.41559 -4.02323 0
M  V30 216 S 19.3163 -2.98521 -4.44574 0
M  V30 217 C 20.4723 -2.46228 -5.75433 0
M  V30 218 H 20.7053 -1.83761 -2.33707 0
M  V30 219 H 18.2383 -1.04489 -1.13673 0
M  V30 220 H 20.1963 -0.0752195 -4.10431 0
M  V30 221 H 18.8573 0.518008 -3.09799 0
M  V30 222 H 18.0503 -0.988076 -4.9422 0
M  V30 223 H 17.6523 -1.66815 -3.34737 0
M  V30 224 H 19.9443 -1.86791 -6.51241 0
M  V30 225 H 20.8873 -3.36572 -6.22997 0
M  V30 226 H 21.2953 -1.87894 -5.32312 0
M  V30 227 N 20.6934 1.19889 -1.02296 0
M  V30 228 C 21.9184 1.9393 -0.735237 0
M  V30 229 C 22.3434 1.74639 0.698782 0
M  V30 230 O 21.7014 1.04481 1.48167 0
M  V30 231 C 21.7494 3.43916 -1.08417 0
M  V30 232 O 20.8534 4.11917 -0.199446 0
M  V30 233 H 20.1944 0.605645 -0.272196 0
M  V30 234 H 22.7244 1.52137 -1.36804 0
M  V30 235 H 22.7344 3.9456 -1.03856 0
M  V30 236 H 21.4094 3.5728 -2.12894 0
M  V30 237 H 19.9864 3.71666 -0.303136 0
M  V30 238 N 22.1715 0.800033 1.35784 0
M  V30 239 C 23.3965 0.388511 2.03729 0
M  V30 240 C 23.8215 -0.990481 1.5991 0
M  V30 241 O 23.1795 -1.64013 0.772612 0
M  V30 242 C 23.2275 0.4726 3.5749 0
M  V30 243 O 22.3315 -0.51646 4.09153 0
M  V30 244 H 21.6725 0.163271 0.643614 0
M  V30 245 H 24.2025 1.0841 1.73518 0
M  V30 246 H 24.2125 0.34003 4.06581 0
M  V30 247 H 22.8875 1.47848 3.88734 0
M  V30 248 H 21.4645 -0.344673 3.71304 0
M  V30 249 N 23.6496 -1.47581 0.552962 0
M  V30 250 C 24.5596 -2.33743 -0.200353 0
M  V30 251 C 25.5756 -1.47928 -0.916151 0
M  V30 252 O 26.7516 -1.80865 -0.885993 0
M  V30 253 C 23.8166 -3.24536 -1.21973 0
M  V30 254 C 22.8776 -4.26238 -0.511819 0
M  V30 255 C 22.1106 -5.12693 -1.48263 0
M  V30 256 O 22.3336 -5.01525 -2.71714 0
M  V30 257 O 21.2676 -5.93375 -1.00945 0
M  V30 258 H 25.0936 -2.9945 0.506304 0
M  V30 259 H 22.6786 -1.46071 0.313622 0
M  V30 260 H 24.5606 -3.80631 -1.80827 0
M  V30 261 H 23.2356 -2.61462 -1.90839 0
M  V30 262 H 22.1426 -3.73914 0.117799 0
M  V30 263 H 23.4756 -4.92014 0.135308 0
M  V30 264 N 25.1277 -0.289203 -1.54924 0
M  V30 265 C 26.0577 0.58549 -2.2604 0
M  V30 266 C 27.0387 1.14753 -1.25562 0
M  V30 267 O 28.2237 1.17906 -1.54311 0
M  V30 268 C 25.3537 1.76305 -2.99222 0
M  V30 269 C 24.3077 1.33191 -4.06748 0
M  V30 270 C 23.6337 2.5937 -4.6758 0
M  V30 271 C 24.9337 0.471775 -5.20165 0
M  V30 272 H 26.6277 -0.00763532 -2.99399 0
M  V30 273 H 24.1737 -0.00511229 -1.43999 0
M  V30 274 H 26.1267 2.38097 -3.47689 0
M  V30 275 H 24.8507 2.38223 -2.23422 0
M  V30 276 H 23.5097 0.737121 -3.59113 0
M  V30 277 H 23.1577 3.19576 -3.88433 0
M  V30 278 H 22.8577 2.31228 -5.40192 0
M  V30 279 H 24.3817 3.21985 -5.18804 0
M  V30 280 H 25.7957 0.995056 -5.64599 0
M  V30 281 H 24.1927 0.284639 -5.99425 0
M  V30 282 H 25.2627 -0.506041 -4.82252 0
M  V30 283 N 26.6058 1.57591 -0.0167156 0
M  V30 284 C 27.8528 1.91283 0.664597 0
M  V30 285 C 28.1808 0.891949 1.72842 0
M  V30 286 O 27.4358 -0.100931 1.9544 0
M  V30 287 C 27.7348 3.3172 1.33029 0
M  V30 288 C 27.4008 4.4914 0.398047 0
M  V30 289 C 26.0628 4.80992 0.141421 0
M  V30 290 C 28.4148 5.20634 -0.242825 0
M  V30 291 C 25.7428 5.81703 -0.764092 0
M  V30 292 C 28.0948 6.22311 -1.13632 0
M  V30 293 C 26.7588 6.52611 -1.40196 0
M  V30 294 H 26.0288 0.699956 0.243193 0
M  V30 295 H 28.6758 1.9135 -0.0758267 0
M  V30 296 H 26.9808 3.27856 2.14517 0
M  V30 297 H 28.6778 3.55055 1.86379 0
M  V30 298 H 25.2678 4.24262 0.608238 0
M  V30 299 H 29.4518 4.96267 -0.0576019 0
M  V30 300 H 24.7078 6.03532 -0.977732 0
M  V30 301 H 28.8818 6.76834 -1.63917 0
M  V30 302 H 26.5088 7.30467 -2.10529 0
M  V30 303 N 28.0839 -0.256276 1.55502 0
M  V30 304 C 29.3119 -1.00342 1.8094 0
M  V30 305 C 29.7269 -1.79307 0.59114 0
M  V30 306 O 29.0839 -1.77114 -0.440081 0
M  V30 307 C 29.1349 -1.94875 3.04476 0
M  V30 308 O 28.8559 -1.19107 4.21598 0
M  V30 309 C 30.3569 -2.81266 3.42644 0
M  V30 310 H 27.5769 -0.295685 0.602338 0
M  V30 311 H 30.1209 -0.281998 2.02546 0
M  V30 312 H 28.2759 -2.62457 2.84947 0
M  V30 313 H 28.6899 -1.82969 4.91551 0
M  V30 314 H 30.1639 -3.43362 4.32211 0
M  V30 315 H 30.6409 -3.51897 2.62802 0
M  V30 316 H 31.2469 -2.1915 3.64491 0
M  V30 317 N 29.562 -1.4872 -0.521534 0
M  V30 318 C 30.492 -1.66771 -1.63431 0
M  V30 319 C 31.473 -0.516499 -1.62069 0
M  V30 320 O 32.658 -0.750013 -1.79132 0
M  V30 321 C 29.788 -1.71515 -3.01993 0
M  V30 322 C 28.742 -2.86222 -3.18216 0
M  V30 323 C 28.068 -2.76061 -4.57924 0
M  V30 324 C 29.368 -4.27419 -3.00184 0
M  V30 325 H 31.062 -2.59932 -1.48579 0
M  V30 326 H 28.608 -1.25089 -0.713358 0
M  V30 327 H 30.561 -1.82731 -3.7972 0
M  V30 328 H 29.285 -0.749393 -3.17886 0
M  V30 329 H 27.944 -2.74575 -2.42908 0
M  V30 330 H 27.592 -1.77437 -4.70665 0
M  V30 331 H 27.292 -3.53037 -4.69722 0
M  V30 332 H 28.816 -2.89256 -5.37739 0
M  V30 333 H 30.23 -4.39855 -3.67697 0
M  V30 334 H 28.627 -5.05458 -3.2347 0
M  V30 335 H 29.697 -4.43293 -1.96518 0
M  V30 336 N 31.0401 0.771051 -1.3745 0
M  V30 337 C 32.2681 1.56015 -1.35893 0
M  V30 338 C 32.6831 1.88718 0.0555523 0
M  V30 339 O 32.0401 1.51502 1.01752 0
M  V30 340 C 32.0911 2.87001 -2.19801 0
M  V30 341 O 31.8121 2.557 -3.55738 0
M  V30 342 C 33.3131 3.81228 -2.26231 0
M  V30 343 H 30.5331 0.483317 -0.465453 0
M  V30 344 H 33.0771 0.955611 -1.80799 0
M  V30 345 H 31.2321 3.43877 -1.78402 0
M  V30 346 H 31.6461 3.39584 -3.99729 0
M  V30 347 H 33.1201 4.70139 -2.89263 0
M  V30 348 H 33.5971 4.20409 -1.27093 0
M  V30 349 H 34.2031 3.30281 -2.67945 0
M  V30 350 N 32.5182 1.22032 0.997298 0
M  V30 351 C 33.7482 1.06686 1.76923 0
M  V30 352 C 34.1562 -0.385838 1.85224 0
M  V30 353 O 33.4992 -1.27929 1.31833 0
M  V30 354 C 33.5612 1.59802 3.22031 0
M  V30 355 C 33.2252 3.08362 3.37286 0
M  V30 356 C 34.2222 4.05835 3.24952 0
M  V30 357 C 31.9072 3.47727 3.6248 0
M  V30 358 C 33.9012 5.4066 3.37588 0
M  V30 359 C 31.5882 4.82701 3.74757 0
M  V30 360 C 32.5862 5.78977 3.62319 0
M  V30 361 O 32.2742 7.11502 3.74193 0
M  V30 362 H 32.0062 0.374767 0.562606 0
M  V30 363 H 34.5602 1.61991 1.26286 0
M  V30 364 H 32.7902 0.989003 3.73839 0
M  V30 365 H 34.4792 1.40184 3.80924 0
M  V30 366 H 35.2452 3.76766 3.05405 0
M  V30 367 H 31.1242 2.73317 3.7124 0
M  V30 368 H 34.6682 6.15788 3.27796 0
M  V30 369 H 30.5652 5.11453 3.9381 0
M  V30 370 H 31.3332 7.19019 3.91093 0
M  V30 371 N 33.9963 -1.19345 1.0293 0
M  V30 372 C 35.2443 -1.88665 0.724574 0
M  V30 373 C 35.5653 -1.80036 -0.749144 0
M  V30 374 O 34.8353 -1.2111 -1.53978 0
M  V30 375 H 33.4153 -0.698406 0.265025 0
M  V30 376 H 36.0773 -1.44885 1.30362 0
M  V30 377 H 35.1733 -2.94987 1.01926 0
M  V30 378 N 35.4744 -0.807222 -1.35358 0
M  V30 379 C 36.4374 -0.223665 -2.28106 0
M  V30 380 C 37.4374 0.589354 -1.4961 0
M  V30 381 O 38.6274 0.407745 -1.69361 0
M  V30 382 C 35.7594 0.688149 -3.33882 0
M  V30 383 H 36.9524 -1.04169 -2.81227 0
M  V30 384 H 34.5054 -0.577921 -1.45223 0
M  V30 385 H 35.2404 1.52984 -2.85948 0
M  V30 386 H 35.0254 0.10687 -3.91954 0
M  V30 387 H 36.5154 1.09075 -4.03104 0
M  V30 388 N 36.9525 1.47285 -0.560781 0
M  V30 389 C 37.8825 2.32857 0.173105 0
M  V30 390 C 38.8635 1.44009 0.905281 0
M  V30 391 O 40.0485 1.7286 0.885046 0
M  V30 392 C 37.1785 3.25861 1.20133 0
M  V30 393 C 36.1325 4.23978 0.585388 0
M  V30 394 C 35.4585 5.06332 1.7185 0
M  V30 395 C 36.7585 5.20242 -0.463178 0
M  V30 396 H 38.4525 2.94466 -0.541307 0
M  V30 397 H 35.9985 1.41601 -0.261764 0
M  V30 398 H 37.9515 3.84569 1.72293 0
M  V30 399 H 36.6755 2.62315 1.94573 0
M  V30 400 H 35.3345 3.66501 0.085054 0
M  V30 401 H 34.9825 4.39186 2.45203 0
M  V30 402 H 34.6825 5.72762 1.31213 0
M  V30 403 H 36.2065 5.67899 2.24329 0
M  V30 404 H 37.6205 5.73293 -0.027502 0
M  V30 405 H 36.0175 5.94896 -0.788627 0
M  V30 406 H 37.0875 4.65504 -1.35773 0
M  V30 407 N 38.4306 0.297415 1.54768 0
M  V30 408 C 39.6766 -0.313376 2.00364 0
M  V30 409 C 40.0096 -1.53815 1.18553 0
M  V30 410 O 39.2846 -1.92739 0.261103 0
M  V30 411 C 39.5676 -0.673525 3.53745 0
M  V30 412 C 39.4206 0.560133 4.46299 0
M  V30 413 C 40.7396 -1.50143 4.13697 0
M  V30 414 H 37.8586 -0.112428 0.728374 0
M  V30 415 H 40.5006 0.4088 1.8555 0
M  V30 416 H 38.6506 -1.28881 3.665 0
M  V30 417 H 40.3226 1.19863 4.45455 0
M  V30 418 H 38.5656 1.19405 4.17043 0
M  V30 419 H 39.2366 0.26405 5.51368 0
M  V30 420 H 41.7126 -0.981588 4.04356 0
M  V30 421 H 40.5886 -1.72221 5.21182 0
M  V30 422 H 40.8496 -2.48952 3.65343 0
M  V30 423 N 39.9087 -1.5758 0.0250728 0
M  V30 424 C 41.1367 -1.9593 -0.664747 0
M  V30 425 C 41.5517 -0.901352 -1.65895 0
M  V30 426 O 40.9087 0.117255 -1.82123 0
M  V30 427 C 40.9597 -3.34342 -1.37468 0
M  V30 428 O 40.6807 -4.36079 -0.420324 0
M  V30 429 C 42.1817 -3.873 -2.1567 0
M  V30 430 H 39.4017 -0.645405 -0.183557 0
M  V30 431 H 41.9457 -2.04329 0.0836372 0
M  V30 432 H 40.1007 -3.27175 -2.0745 0
M  V30 433 H 40.5147 -5.16297 -0.923991 0
M  V30 434 H 41.9887 -4.86504 -2.60803 0
M  V30 435 H 42.4657 -3.21331 -2.99405 0
M  V30 436 H 43.0717 -3.97723 -1.50654 0
M  V30 437 N 41.3868 0.248026 -1.55636 0
M  V30 438 C 42.3188 1.32993 -1.8667 0
M  V30 439 C 43.3318 1.44345 -0.752877 0
M  V30 440 O 44.5208 1.45715 -1.03098 0
M  V30 441 C 41.6208 2.70863 -2.03682 0
M  V30 442 C 40.7938 2.81792 -3.34532 0
M  V30 443 C 39.8528 4.005 -3.41301 0
M  V30 444 O 38.8788 3.9008 -4.14519 0
M  V30 445 N 40.0808 5.13618 -2.70512 0
M  V30 446 H 42.8458 1.06707 -2.8006 0
M  V30 447 H 40.4068 0.438129 -1.55859 0
M  V30 448 H 42.3988 3.48612 -2.05553 0
M  V30 449 H 40.9688 2.89862 -1.17041 0
M  V30 450 H 40.1888 1.90729 -3.44987 0
M  V30 451 H 41.4768 2.86043 -4.20781 0
M  V30 452 H 40.8748 5.24975 -2.10755 0
M  V30 453 H 39.4318 5.89505 -2.78077 0
M  V30 454 N 42.8649 1.48995 0.513639 0
M  V30 455 C 43.7949 1.67636 1.62544 0
M  V30 456 C 44.7759 0.525087 1.61793 0
M  V30 457 O 45.9609 0.759502 1.78732 0
M  V30 458 C 43.0909 1.73114 3.01079 0
M  V30 459 C 42.0449 2.87905 3.16693 0
M  V30 460 C 41.3709 2.78486 4.56453 0
M  V30 461 C 42.6709 4.29005 2.97913 0
M  V30 462 H 44.3649 2.60716 1.47198 0
M  V30 463 H 41.9109 1.25465 0.706714 0
M  V30 464 H 43.8639 1.84742 3.78746 0
M  V30 465 H 42.5879 0.766241 3.17484 0
M  V30 466 H 41.2469 2.75859 2.41448 0
M  V30 467 H 40.8949 1.7993 4.69717 0
M  V30 468 H 40.5949 3.55523 4.67843 0
M  V30 469 H 42.1189 2.92104 5.36197 0
M  V30 470 H 43.5329 4.41798 3.65359 0
M  V30 471 H 41.9299 5.07166 3.20785 0
M  V30 472 H 42.9999 4.44329 1.94165 0
M  V30 473 N 44.343 -0.763751 1.37857 0
M  V30 474 C 45.583 -1.53551 1.34913 0
M  V30 475 C 45.947 -1.91895 -0.0635882 0
M  V30 476 O 47.148 -2.67916 -0.217825 0
M  V30 477 C 45.419 -2.76126 2.26912 0
M  V30 478 S 46.978 -3.66105 2.41893 0
M  V30 479 H 43.796 -0.52559 0.478828 0
M  V30 480 H 46.398 -0.897435 1.73685 0
M  V30 481 H 45.102 -2.4605 3.28463 0
M  V30 482 H 44.633 -3.44887 1.89253 0
M  V30 483 H 46.648 -4.68473 1.63545 0
M  V30 484 N 45.8211 -1.22559 -0.990812 0
M  V30 485 C 46.7681 -0.997519 -2.0813 0
M  V30 486 C 47.7381 0.0814702 -1.659 0
M  V30 487 O 48.9231 -0.0685424 -1.90677 0
M  V30 488 C 46.0631 -0.583615 -3.40129 0
M  V30 489 C 45.1761 -1.7336 -3.9569 0
M  V30 490 C 44.3111 -1.26748 -5.15857 0
M  V30 491 C 43.3501 -2.38888 -5.63559 0
M  V30 492 N 42.4871 -1.93308 -6.74964 0
M  V30 493 H 47.3271 -1.93099 -2.26973 0
M  V30 494 H 44.8641 -0.962114 -1.11273 0
M  V30 495 H 46.8221 -0.324801 -4.15934 0
M  V30 496 H 45.4521 0.312845 -3.2128 0
M  V30 497 H 44.5041 -2.10669 -3.16738 0
M  V30 498 H 45.8161 -2.57704 -4.27071 0
M  V30 499 H 44.9701 -0.966173 -5.98957 0
M  V30 500 H 43.7091 -0.394272 -4.86104 0
M  V30 501 H 42.7141 -2.69805 -4.79046 0
M  V30 502 H 43.9391 -3.26728 -5.95336 0
M  V30 503 H 41.8851 -1.08352 -6.4699 0
M  V30 504 H 41.8021 -2.71217 -7.05675 0
M  V30 505 H 43.0701 -1.66252 -7.61564 0
M  V30 506 N 47.2992 1.18797 -1.03562 0
M  V30 507 C 48.5762 1.84469 -0.650434 0
M  V30 508 C 48.9562 1.92319 0.870433 0
M  V30 509 O 48.3042 1.44528 1.76986 0
M  V30 510 C 48.5142 3.2306 -1.32036 0
M  V30 511 C 49.8622 3.9915 -1.44792 0
M  V30 512 O 50.8862 3.32481 -1.27806 0
M  V30 513 O 49.7452 5.18587 -1.72423 0
M  V30 514 H 46.8392 0.795251 -0.226946 0
M  V30 515 H 49.3852 1.26231 -1.13419 0
M  V30 516 H 48.1572 3.1222 -2.3587 0
M  V30 517 H 47.7802 3.88949 -0.8249 0
M  V30 518 N 48.7773 0.814389 1.34928 0
M  V30 519 C 50.0073 0.41054 2.0248 0
M  V30 520 C 50.4153 -0.985625 1.61499 0
M  V30 521 O 49.7583 -1.64781 0.811976 0
M  V30 522 C 49.8203 0.423384 3.56998 0
M  V30 523 C 49.4843 1.77141 4.21272 0
M  V30 524 C 50.4813 2.73093 4.42398 0
M  V30 525 C 48.1663 2.05755 4.58225 0
M  V30 526 C 50.1603 3.95838 4.9959 0
M  V30 527 C 47.8473 3.28762 5.1513 0
M  V30 528 C 48.8453 4.23621 5.35755 0
M  V30 529 O 48.5333 5.44456 5.91458 0
M  V30 530 H 48.2653 0.163997 0.655806 0
M  V30 531 H 50.8193 1.10155 1.73364 0
M  V30 532 H 49.0493 -0.324276 3.85338 0
M  V30 533 H 50.7383 0.0407683 4.0588 0
M  V30 534 H 51.5043 2.5228 4.14222 0
M  V30 535 H 47.3833 1.32727 4.4148 0
M  V30 536 H 50.9273 4.69891 5.15605 0
M  V30 537 H 46.8243 3.49443 5.42734 0
M  V30 538 H 47.5923 5.4586 6.09901 0
M  V30 539 N 50.2554 -1.46986 0.568584 0
M  V30 540 C 51.1654 -2.33942 -0.17555 0
M  V30 541 C 52.1814 -1.48891 -0.90041 0
M  V30 542 O 53.3574 -1.81794 -0.86676 0
M  V30 543 C 50.4224 -3.25811 -1.18524 0
M  V30 544 C 49.4834 -4.26757 -0.466582 0
M  V30 545 C 48.7164 -5.14236 -1.42817 0
M  V30 546 O 48.9394 -5.04379 -2.66379 0
M  V30 547 O 47.8734 -5.94412 -0.946453 0
M  V30 548 H 51.6994 -2.98896 0.538036 0
M  V30 549 H 49.2844 -1.4573 0.329097 0
M  V30 550 H 51.1664 -3.82527 -1.76779 0
M  V30 551 H 49.8414 -2.63471 -1.88055 0
M  V30 552 H 48.7484 -3.73769 0.157451 0
M  V30 553 H 50.0814 -4.91843 0.187485 0
M  V30 554 N 51.7335 -0.305618 -1.54608 0
M  V30 555 C 52.6815 0.584119 -2.25146 0
M  V30 556 C 53.6755 1.13326 -1.25911 0
M  V30 557 O 54.8815 1.08337 -1.43747 0
M  V30 558 H 51.2565 0.206983 -0.722954 0
M  V30 559 H 53.2275 -0.033291 -2.98381 0
M  V30 560 C 51.9765 1.74225 -3.009 0
M  V30 561 H 51.2995 1.32892 -3.77067 0
M  V30 562 H 52.7395 2.34077 -3.53531 0
M  V30 563 C 51.1985 2.64914 -2.0814 0
M  V30 564 O 51.7285 3.66137 -1.65246 0
M  V30 565 N 49.9345 2.3275 -1.74 0
M  V30 566 H 49.4815 1.50479 -2.09078 0
M  V30 567 H 49.4395 2.93694 -1.12211 0
M  V30 568 N 53.2116 1.57565 -0.0334293 0
M  V30 569 C 54.4886 1.83282 0.683163 0
M  V30 570 C 54.8686 0.91823 1.90084 0
M  V30 571 O 54.2166 -0.025113 2.28486 0
M  V30 572 C 54.4266 3.32599 1.0573 0
M  V30 573 C 55.7746 3.99179 1.44711 0
M  V30 574 O 56.7986 3.3712 1.15015 0
M  V30 575 O 55.6576 5.08565 2.0006 0
M  V30 576 H 52.7516 0.755869 0.335546 0
M  V30 577 H 55.2976 1.69589 -0.0614402 0
M  V30 578 H 54.0696 3.90834 0.190828 0
M  V30 579 H 53.6926 3.51415 1.85993 0
M  V30 580 N 54.6897 -0.239769 1.55765 0
M  V30 581 C 55.5997 -1.31831 1.94056 0
M  V30 582 C 56.6157 -1.52275 0.841925 0
M  V30 583 O 57.7917 -1.65759 1.14394 0
M  V30 584 C 54.8567 -2.65156 2.23368 0
M  V30 585 C 53.9177 -2.53173 3.46701 0
M  V30 586 C 53.1507 -3.8014 3.74606 0
M  V30 587 O 53.3737 -4.82343 3.04469 0
M  V30 588 O 52.3077 -3.78344 4.68123 0
M  V30 589 H 56.1337 -1.02347 2.85935 0
M  V30 590 H 53.7187 -0.441123 1.42739 0
M  V30 591 H 55.6007 -3.43929 2.43497 0
M  V30 592 H 54.2757 -2.94358 1.34666 0
M  V30 593 H 53.1827 -1.72662 3.31871 0
M  V30 594 H 54.5157 -2.28915 4.35728 0
M  V30 595 N 56.1678 -1.49265 -0.50573 0
M  V30 596 C 57.4448 -1.49012 -1.26707 0
M  V30 597 C 57.8248 -0.215205 -2.1 0
M  V30 598 O 57.1728 0.802547 -2.13943 0
M  V30 599 C 57.3828 -2.7663 -2.12783 0
M  V30 600 C 58.7308 -3.25932 -2.72127 0
M  V30 601 O 59.7548 -2.77715 -2.23054 0
M  V30 602 O 58.6138 -4.09897 -3.61451 0
M  V30 603 H 55.7078 -0.596197 -0.57313 0
M  V30 604 H 58.2538 -1.61524 -0.52039 0
M  V30 605 H 57.0258 -3.60916 -1.5118 0
M  V30 606 H 56.6488 -2.66956 -2.94653 0
M  V30 607 N 57.6459 0.756429 -1.3826 0
M  V30 608 C 58.8919 1.51772 -1.34511 0
M  V30 609 C 59.2249 1.94089 0.0656691 0
M  V30 610 O 58.4999 1.65221 1.02626 0
M  V30 611 C 58.7829 2.77226 -2.29821 0
M  V30 612 C 58.6359 2.41065 -3.79747 0
M  V30 613 C 59.9549 3.79236 -2.23312 0
M  V30 614 H 57.0739 0.550578 -0.489931 0
M  V30 615 H 59.7159 0.866607 -1.69086 0
M  V30 616 H 57.8659 3.32784 -2.00467 0
M  V30 617 H 59.5379 1.91303 -4.19763 0
M  V30 618 H 57.7809 1.7356 -3.97567 0
M  V30 619 H 58.4519 3.3081 -4.41892 0
M  V30 620 H 60.9279 3.3321 -2.49219 0
M  V30 621 H 59.8039 4.64714 -2.92116 0
M  V30 622 H 60.0649 4.24615 -1.23102 0
M  V30 623 N 59.124 1.23083 0.984299 0
M  V30 624 C 60.072 1.00593 2.09723 0
M  V30 625 C 61.066 -0.0538014 1.69315 0
M  V30 626 O 62.272 0.0993719 1.79725 0
M  V30 627 H 58.647 0.30817 0.685956 0
M  V30 628 H 60.618 1.95012 2.2586 0
M  V30 629 C 59.367 0.609601 3.42314 0
M  V30 630 H 58.69 1.41675 3.73856 0
M  V30 631 H 60.13 0.491726 4.21139 0
M  V30 632 C 58.589 -0.681745 3.2993 0
M  V30 633 O 59.119 -1.73192 3.62446 0
M  V30 634 N 57.325 -0.656178 2.83095 0
M  V30 635 H 56.872 0.198759 2.56832 0
M  V30 636 H 56.83 -1.52044 2.75191 0
M  V30 637 N 60.6021 -1.18246 1.0419 0
M  V30 638 C 61.5491 -2.2192 0.634037 0
M  V30 639 C 62.5191 -1.62179 -0.358765 0
M  V30 640 O 63.7041 -1.89122 -0.252466 0
M  V30 641 C 60.8441 -3.451 0.00445535 0
M  V30 642 C 59.9571 -4.19174 1.04487 0
M  V30 643 C 59.0921 -5.29813 0.383676 0
M  V30 644 C 58.1311 -5.9566 1.4091 0
M  V30 645 N 57.2681 -6.97834 0.772784 0
M  V30 646 H 62.1081 -2.56164 1.52263 0
M  V30 647 H 59.6451 -1.25843 0.761701 0
M  V30 648 H 61.6031 -4.15485 -0.377919 0
M  V30 649 H 60.2331 -3.11472 -0.847652 0
M  V30 650 H 59.2851 -3.47604 1.54518 0
M  V30 651 H 60.5971 -4.64267 1.82368 0
M  V30 652 H 59.7511 -6.06677 -0.0528366 0
M  V30 653 H 58.4901 -4.85825 -0.427208 0
M  V30 654 H 57.4951 -5.17535 1.85574 0
M  V30 655 H 58.7201 -6.4173 2.22171 0
M  V30 656 H 56.6661 -6.55998 -0.0177708 0
M  V30 657 H 56.5831 -7.41186 1.48928 0
M  V30 658 H 57.8511 -7.78665 0.36071 0
M  V30 659 N 62.0802 -0.821533 -1.34494 0
M  V30 660 C 63.0122 -0.199946 -2.28326 0
M  V30 661 C 64.0252 0.609377 -1.50965 0
M  V30 662 O 65.2142 0.439285 -1.7301 0
M  V30 663 C 62.3142 0.738431 -3.30757 0
M  V30 664 C 61.4872 -0.0277632 -4.37391 0
M  V30 665 C 60.5462 0.831332 -5.19591 0
M  V30 666 O 59.5722 0.276822 -5.68526 0
M  V30 667 N 60.7742 2.15132 -5.39165 0
M  V30 668 H 63.5392 -1.00609 -2.82308 0
M  V30 669 H 61.1002 -0.678366 -1.47003 0
M  V30 670 H 63.0922 1.31773 -3.82646 0
M  V30 671 H 61.6622 1.44533 -2.7718 0
M  V30 672 H 60.8822 -0.788359 -3.86236 0
M  V30 673 H 62.1702 -0.555251 -5.05761 0
M  V30 674 H 61.5682 2.62559 -5.01078 0
M  V30 675 H 60.1252 2.6795 -5.94177 0
M  V30 676 N 63.5583 1.46682 -0.576371 0
M  V30 677 C 64.4883 2.33028 0.148397 0
M  V30 678 C 65.4693 1.44961 0.889956 0
M  V30 679 O 66.6543 1.73789 0.866662 0
M  V30 680 C 63.7843 3.27117 1.1667 0
M  V30 681 C 62.7383 4.24575 0.540386 0
M  V30 682 C 62.0643 5.08126 1.6647 0
M  V30 683 C 63.3643 5.19722 -0.518331 0
M  V30 684 H 65.0583 2.93875 -0.572509 0
M  V30 685 H 62.6043 1.41315 -0.276768 0
M  V30 686 H 64.5573 3.86374 1.68204 0
M  V30 687 H 63.2813 2.64364 1.9178 0
M  V30 688 H 61.9403 3.66571 0.0461769 0
M  V30 689 H 61.5883 4.41762 2.40531 0
M  V30 690 H 61.2883 5.74122 1.25131 0
M  V30 691 H 62.8123 5.70246 2.18293 0
M  V30 692 H 64.2263 5.73232 -0.0883058 0
M  V30 693 H 62.6233 5.94026 -0.851679 0
M  V30 694 H 63.6933 4.64037 -1.40703 0
M  V30 695 N 65.0364 0.313813 1.54444 0
M  V30 696 C 66.3134 -0.345447 1.92525 0
M  V30 697 C 66.6934 -1.70667 1.24242 0
M  V30 698 O 66.0414 -2.25273 0.382654 0
M  V30 699 C 66.2514 -0.44737 3.46121 0
M  V30 700 C 67.5994 -0.712238 4.18584 0
M  V30 701 O 68.6234 -0.530678 3.52225 0
M  V30 702 O 67.4824 -1.06183 5.36085 0
M  V30 703 H 64.5764 -0.195407 0.803583 0
M  V30 704 H 67.1224 0.362813 1.65776 0
M  V30 705 H 65.8944 0.509043 3.87975 0
M  V30 706 H 65.5174 -1.20359 3.78945 0
M  V30 707 N 66.5145 -1.57545 0.0417849 0
M  V30 708 C 67.4615 -2.10977 -0.935805 0
M  V30 709 C 68.4315 -1.01486 -1.31491 0
M  V30 710 O 69.6165 -1.2898 -1.40602 0
M  V30 711 C 66.7565 -2.65169 -2.2086 0
M  V30 712 C 65.8695 -3.88714 -1.88482 0
M  V30 713 C 65.0045 -4.31254 -3.1015 0
M  V30 714 C 64.0435 -5.47524 -2.7365 0
M  V30 715 N 63.1805 -5.85162 -3.87982 0
M  V30 716 H 68.0205 -2.94218 -0.473249 0
M  V30 717 H 65.5575 -1.45415 -0.221981 0
M  V30 718 H 67.5155 -2.94685 -2.95325 0
M  V30 719 H 66.1455 -1.8474 -2.64709 0
M  V30 720 H 65.1975 -3.65849 -1.04205 0
M  V30 721 H 66.5095 -4.73245 -1.57608 0
M  V30 722 H 65.6635 -4.62273 -3.92923 0
M  V30 723 H 64.4025 -3.45516 -3.44195 0
M  V30 724 H 63.4075 -5.16187 -1.89291 0
M  V30 725 H 64.6325 -6.34971 -2.40807 0
M  V30 726 H 62.5785 -5.02377 -4.21846 0
M  V30 727 H 62.4955 -6.64362 -3.60775 0
M  V30 728 H 63.7635 -6.20791 -4.71422 0
M  V30 729 N 67.9926 0.231505 -1.5589 0
M  V30 730 C 68.9256 1.31369 -1.86595 0
M  V30 731 C 69.9036 1.45671 -0.722397 0
M  V30 732 O 71.0876 1.61642 -0.969743 0
M  V30 733 C 68.2146 2.68529 -2.06421 0
M  V30 734 C 67.2606 2.71295 -3.29092 0
M  V30 735 S 68.0936 2.26358 -4.85306 0
M  V30 736 C 69.2496 3.65414 -5.08157 0
M  V30 737 H 69.4826 1.05128 -2.78092 0
M  V30 738 H 67.0156 0.433259 -1.48197 0
M  V30 739 H 68.9736 3.47499 -2.18528 0
M  V30 740 H 67.6346 2.91999 -1.15738 0
M  V30 741 H 66.8276 3.72063 -3.39978 0
M  V30 742 H 66.4296 2.0038 -3.15791 0
M  V30 743 H 68.7216 4.6103 -4.96445 0
M  V30 744 H 69.6646 3.5945 -6.10083 0
M  V30 745 H 70.0726 3.5864 -4.35933 0
M  V30 746 N 69.4707 1.49531 0.497807 0
M  V30 747 C 70.7187 1.58865 1.24926 0
M  V30 748 C 71.0397 0.278721 1.92998 0
M  V30 749 O 70.3097 -0.702144 1.82885 0
M  V30 750 H 68.8897 0.585343 0.464094 0
M  V30 751 H 71.5517 1.86174 0.57666 0
M  V30 752 H 70.6477 2.38633 2.01149 0
M  V30 753 N 70.9488 -0.749086 1.3866 0
M  V30 754 C 72.1958 -1.50833 1.35114 0
M  V30 755 C 72.5238 -1.94415 -0.0574049 0
M  V30 756 O 71.7788 -1.66065 -1.03541 0
M  V30 757 C 72.0778 -2.7712 2.25697 0
M  V30 758 C 71.7438 -2.52477 3.73585 0
M  V30 759 C 70.4058 -2.45466 4.13884 0
M  V30 760 C 72.7578 -2.31066 4.67181 0
M  V30 761 C 70.0858 -2.15064 5.45861 0
M  V30 762 C 72.4378 -2.02183 5.9942 0
M  V30 763 C 71.1018 -1.93631 6.38798 0
M  V30 764 H 70.3718 -0.551936 0.494416 0
M  V30 765 H 73.0188 -0.860979 1.71054 0
M  V30 766 H 71.3238 -3.46528 1.82827 0
M  V30 767 H 73.0208 -3.35096 2.20254 0
M  V30 768 H 69.6108 -2.58807 3.41638 0
M  V30 769 H 73.7948 -2.35459 4.3689 0
M  V30 770 H 69.0508 -2.06954 5.75308 0
M  V30 771 H 73.2248 -1.8462 6.71482 0
M  V30 772 H 70.8518 -1.69839 7.40985 0
M  V30 773 N 72.4269 -1.23603 -0.977757 0
M  V30 774 C 73.3749 -1.01704 -2.09187 0
M  V30 775 C 74.3689 0.0448214 -1.69341 0
M  V30 776 O 75.5749 -0.108902 -1.7967 0
M  V30 777 H 71.9499 -0.311803 -0.684312 0
M  V30 778 H 73.9209 -1.96207 -2.24823 0
M  V30 779 C 72.6699 -0.627746 -3.41986 0
M  V30 780 H 71.9929 -1.43656 -3.73099 0
M  V30 781 H 73.4329 -0.514053 -4.20872 0
M  V30 782 C 71.8919 0.664238 -3.30287 0
M  V30 783 O 72.4219 1.71268 -3.6336 0
M  V30 784 N 70.6279 0.641156 -2.83439 0
M  V30 785 H 70.1749 -0.212376 -2.56723 0
M  V30 786 H 70.1329 1.50583 -2.75993 0
M  V30 787 N 73.905 1.17692 -1.04816 0
M  V30 788 C 75.154 1.87192 -0.751132 0
M  V30 789 C 75.467 1.8169 0.724441 0
M  V30 790 O 76.673 2.46625 1.13527 0
M  V30 791 C 75.129 3.35857 -1.29338 0
M  V30 792 C 74.737 3.4987 -2.79812 0
M  V30 793 C 76.481 4.10709 -1.07322 0
M  V30 794 C 74.388 4.92536 -3.27356 0
M  V30 795 H 73.318 0.701162 -0.277288 0
M  V30 796 H 75.969 1.32932 -1.26496 0
M  V30 797 H 74.351 3.89631 -0.707376 0
M  V30 798 H 75.525 3.06332 -3.44235 0
M  V30 799 H 73.84 2.88433 -3.00325 0
M  V30 800 H 76.437 5.15952 -1.4035 0
M  V30 801 H 76.78 4.16299 -0.0108001 0
M  V30 802 H 77.313 3.6313 -1.62423 0
M  V30 803 H 74.052 4.92119 -4.33012 0
M  V30 804 H 73.572 5.3676 -2.67673 0
M  V30 805 H 75.251 5.61288 -3.21815 0
M  V30 806 N 75.3831 0.828654 1.34056 0
M  V30 807 C 76.6311 0.41863 1.97717 0
M  V30 808 C 76.9521 -1.02314 1.66002 0
M  V30 809 O 76.2221 -1.71119 0.953683 0
M  V30 810 H 74.8021 0.151809 0.731412 0
M  V30 811 H 77.4641 1.05936 1.63596 0
M  V30 812 H 76.5601 0.542318 3.07352 0
M  V30 813 N 76.8612 -1.46375 0.584142 0
M  V30 814 C 78.1072 -2.02678 0.0703716 0
M  V30 815 C 78.4402 -1.4545 -1.28678 0
M  V30 816 O 77.7152 -0.62014 -1.84349 0
M  V30 817 C 77.9982 -3.60099 0.00614674 0
M  V30 818 C 77.8512 -4.27709 1.3923 0
M  V30 819 C 79.1702 -4.34598 -0.693742 0
M  V30 820 H 76.2892 -0.736504 0.027047 0
M  V30 821 H 78.9312 -1.74501 0.751615 0
M  V30 822 H 77.0812 -3.84236 -0.574009 0
M  V30 823 H 78.7532 -4.14832 2.01773 0
M  V30 824 H 76.9962 -3.87016 1.95962 0
M  V30 825 H 77.6672 -5.36478 1.29982 0
M  V30 826 H 80.1432 -4.15615 -0.200869 0
M  V30 827 H 79.0192 -5.44318 -0.707714 0
M  V30 828 H 79.2802 -4.05759 -1.75533 0
M  V30 829 N 78.3393 -0.321999 -1.54275 0
M  V30 830 C 79.7553 0.0306999 -1.5957 0
M  V30 831 C 79.9553 1.50614 -1.33857 0
M  V30 832 O 79.0113 2.2619 -1.12223 0
M  V30 833 C 80.3243 -0.386122 -2.98211 0
M  V30 834 C 81.8723 -0.336647 -3.11184 0
M  V30 835 C 82.3473 -0.728607 -4.52167 0
M  V30 836 N 83.8383 -0.681952 -4.58152 0
M  V30 837 C 84.5733 -0.957449 -5.6535 0
M  V30 838 N 84.0693 -1.3 -6.80494 0
M  V30 839 N 85.8623 -0.883113 -5.55119 0
M  V30 840 H 78.0133 -1.28332 -1.69247 0
M  V30 841 H 80.2763 -0.521716 -0.791528 0
M  V30 842 H 79.9823 -1.41404 -3.22022 0
M  V30 843 H 79.8563 0.249662 -3.76373 0
M  V30 844 H 82.2433 0.682058 -2.8711 0
M  V30 845 H 82.3243 -1.00734 -2.3513 0
M  V30 846 H 81.9683 -1.74522 -4.76974 0
M  V30 847 H 81.8983 -0.0356152 -5.26588 0
M  V30 848 H 84.3893 -0.428985 -3.75457 0
M  V30 849 H 84.7023 -1.49563 -7.58189 0
M  V30 850 H 83.0473 -1.33824 -6.81994 0
M  V30 851 H 86.2383 -0.615001 -4.64042 0
M  V30 852 H 86.4113 -1.10118 -6.38575 0
M  V30 853 N 79.8174 1.5752 -0.0501392 0
M  V30 854 C 80.7474 2.14502 0.922566 0
M  V30 855 C 81.7284 1.06642 1.3252 0
M  V30 856 O 82.9134 1.34577 1.4001 0
M  V30 857 C 80.0434 2.68916 2.19776 0
M  V30 858 C 78.9974 3.8175 1.93523 0
M  V30 859 C 78.3234 4.22677 3.27487 0
M  V30 860 C 79.6234 5.06932 1.25765 0
M  V30 861 H 81.3174 2.9603 0.447952 0
M  V30 862 H 78.8634 1.42401 0.214024 0
M  V30 863 H 80.8164 3.07419 2.88222 0
M  V30 864 H 79.5404 1.84578 2.69441 0
M  V30 865 H 78.1994 3.43718 1.27489 0
M  V30 866 H 77.8474 3.35291 3.74952 0
M  V30 867 H 77.5474 4.98725 3.1072 0
M  V30 868 H 79.0714 4.63779 3.97166 0
M  V30 869 H 80.4854 5.42888 1.84244 0
M  V30 870 H 78.8824 5.88116 1.19328 0
M  V30 871 H 79.9524 4.84337 0.233536 0
M  V30 872 N 81.2955 -0.223234 1.56011 0
M  V30 873 C 82.5445 -0.945912 1.78144 0
M  V30 874 C 82.8575 -1.85567 0.618396 0
M  V30 875 O 84.0635 -2.61688 0.723318 0
M  V30 876 C 82.5195 -1.73216 3.15475 0
M  V30 877 C 82.1275 -0.868619 4.39499 0
M  V30 878 C 83.8715 -2.44615 3.46935 0
M  V30 879 C 81.7785 -1.65212 5.67855 0
M  V30 880 H 80.7085 -0.356929 0.664167 0
M  V30 881 H 83.3595 -0.199845 1.82409 0
M  V30 882 H 81.7415 -2.52107 3.05382 0
M  V30 883 H 82.9155 -0.120366 4.60643 0
M  V30 884 H 81.2305 -0.26683 4.15544 0
M  V30 885 H 83.8275 -3.03732 4.40058 0
M  V30 886 H 84.1705 -3.17417 2.69355 0
M  V30 887 H 84.7035 -1.72715 3.58349 0
M  V30 888 H 81.4425 -0.967407 6.48322 0
M  V30 889 H 80.9625 -2.37503 5.50774 0
M  V30 890 H 82.6415 -2.21322 6.07968 0
M  V30 891 N 82.7736 -1.49793 -0.48987 0
M  V30 892 C 83.6836 -1.70036 -1.61632 0
M  V30 893 C 84.6996 -0.583102 -1.63939 0
M  V30 894 O 85.8756 -0.859169 -1.82154 0
M  V30 895 C 82.9406 -1.77277 -2.97949 0
M  V30 896 C 82.0016 -3.00918 -3.06181 0
M  V30 897 C 81.2346 -3.07804 -4.35996 0
M  V30 898 O 81.4576 -2.21982 -5.25433 0
M  V30 899 O 80.3916 -4.00369 -4.49431 0
M  V30 900 H 84.2176 -2.65486 -1.47482 0
M  V30 901 H 81.8026 -1.33666 -0.667362 0
M  V30 902 H 83.6846 -1.84329 -3.78947 0
M  V30 903 H 82.3596 -0.850076 -3.12339 0
M  V30 904 H 81.2666 -2.99377 -2.2433 0
M  V30 905 H 82.5996 -3.92704 -2.96723 0
M  V30 906 N 84.2517 0.741722 -1.39055 0
M  V30 907 C 85.5287 1.49252 -1.26425 0
M  V30 908 C 85.9087 2.10705 0.129144 0
M  V30 909 O 85.2567 1.98045 1.13976 0
M  V30 910 C 85.4667 2.54934 -2.38347 0
M  V30 911 C 86.8147 3.21506 -2.77343 0
M  V30 912 O 87.8387 2.65245 -2.37747 0
M  V30 913 O 86.6977 4.23294 -3.45665 0
M  V30 914 H 83.7917 0.662451 -0.495064 0
M  V30 915 H 86.3377 0.776121 -1.50912 0
M  V30 916 H 85.1097 2.07857 -3.31529 0
M  V30 917 H 84.7327 3.34141 -2.15489 0
M  V30 918 N 85.7298 1.2412 0.971189 0
M  V30 919 C 86.9768 1.07881 1.71371 0
M  V30 920 C 87.3048 -0.382901 1.90694 0
M  V30 921 O 86.5598 -1.29945 1.46331 0
M  V30 922 C 86.8588 1.75983 3.11071 0
M  V30 923 C 86.5248 3.25909 3.11599 0
M  V30 924 C 85.1868 3.66813 3.11451 0
M  V30 925 C 87.5388 4.21771 3.062 0
M  V30 926 C 84.8668 5.02021 3.03631 0
M  V30 927 C 87.2188 5.56982 2.99923 0
M  V30 928 C 85.8828 5.97237 2.98102 0
M  V30 929 H 85.1528 0.394764 0.62709 0
M  V30 930 H 87.7998 1.54176 1.13587 0
M  V30 931 H 86.1048 1.22072 3.72298 0
M  V30 932 H 87.8018 1.60887 3.6731 0
M  V30 933 H 84.3918 2.93353 3.12477 0
M  V30 934 H 88.5758 3.91172 3.05447 0
M  V30 935 H 83.8318 5.32411 3.0058 0
M  V30 936 H 88.0058 6.30969 2.94704 0
M  V30 937 H 85.6328 7.01967 2.91798 0
M  V30 938 N 87.2079 -1.17134 1.05439 0
M  V30 939 C 88.1379 -2.2342 0.678649 0
M  V30 940 C 89.1189 -1.66971 -0.32476 0
M  V30 941 O 90.3039 -1.93149 -0.201802 0
M  V30 942 C 87.4339 -3.47256 0.0552099 0
M  V30 943 C 86.3879 -4.16543 0.98365 0
M  V30 944 C 85.7139 -5.34231 0.223961 0
M  V30 945 C 87.0139 -4.68495 2.3089 0
M  V30 946 H 88.7079 -2.55105 1.56722 0
M  V30 947 H 86.2539 -1.2262 0.754998 0
M  V30 948 H 88.2069 -4.20828 -0.21946 0
M  V30 949 H 86.9309 -3.14846 -0.868319 0
M  V30 950 H 85.5899 -3.44887 1.24293 0
M  V30 951 H 85.2379 -4.98071 -0.702412 0
M  V30 952 H 84.9379 -5.81527 0.842627 0
M  V30 953 H 86.4619 -6.10585 -0.0433671 0
M  V30 954 H 87.8759 -5.33691 2.09396 0
M  V30 955 H 86.2729 -5.26379 2.88176 0
M  V30 956 H 87.3429 -3.85169 2.94572 0
M  V30 957 N 88.686 -0.835752 -1.33615 0
M  V30 958 C 89.649 -0.272 -2.2758 0
M  V30 959 C 90.649 0.557487 -1.50827 0
M  V30 960 O 91.839 0.37173 -1.70188 0
M  V30 961 C 88.971 0.617173 -3.35267 0
M  V30 962 H 90.164 -1.10111 -2.78954 0
M  V30 963 H 87.717 -0.608594 -1.43965 0
M  V30 964 H 88.452 1.46884 -2.89129 0
M  V30 965 H 88.237 0.0237066 -3.92093 0
M  V30 966 H 89.727 1.005 -4.05326 0
M  V30 967 N 90.1641 1.46063 -0.591896 0
M  V30 968 C 91.5801 1.57561 -0.254288 0
M  V30 969 C 91.7801 1.58565 1.24336 0
M  V30 970 O 90.8361 1.50753 2.02558 0
M  V30 971 C 92.1491 2.86549 -0.911611 0
M  V30 972 C 93.6971 3.00197 -0.886059 0
M  V30 973 C 94.1721 4.31933 -1.5231 0
M  V30 974 N 95.6631 4.38654 -1.48786 0
M  V30 975 C 96.3981 5.39222 -1.95006 0
M  V30 976 N 95.8941 6.46414 -2.49241 0
M  V30 977 N 97.6871 5.3048 -1.85868 0
M  V30 978 H 89.8381 1.43655 -1.56451 0
M  V30 979 H 92.1011 0.68583 -0.654478 0
M  V30 980 H 91.8071 2.91651 -1.96551 0
M  V30 981 H 91.6811 3.74794 -0.425368 0
M  V30 982 H 94.0681 2.9467 0.159246 0
M  V30 983 H 94.1491 2.13403 -1.41041 0
M  V30 984 H 93.7931 4.38217 -2.56765 0
M  V30 985 H 93.7231 5.17516 -0.973891 0
M  V30 986 H 96.2141 3.61793 -1.09151 0
M  V30 987 H 96.5271 7.19376 -2.82344 0
M  V30 988 H 94.8721 6.47208 -2.53272 0
M  V30 989 H 98.0631 4.45643 -1.43248 0
M  V30 990 H 98.2361 6.08711 -2.22204 0
M  V30 991 N 91.6422 0.330177 1.54103 0
M  V30 992 C 92.8672 -0.274893 2.0557 0
M  V30 993 C 93.2922 -1.44487 1.20437 0
M  V30 994 O 92.6502 -1.80021 0.214991 0
M  V30 995 C 92.6982 -0.68079 3.54115 0
M  V30 996 O 91.8022 -1.7824 3.71893 0
M  V30 997 H 91.1432 -0.0483849 0.662235 0
M  V30 998 H 93.6732 0.480508 1.98878 0
M  V30 999 H 93.6832 -0.961635 3.96505 0
M  V30 1000 H 92.3582 0.174903 4.15532 0
M  V30 1001 H 90.9352 -1.49985 3.41407 0
M  V30 1002 N 93.1203 -1.57491 0.0584922 0
M  V30 1003 C 94.0683 -2.13148 -0.931168 0
M  V30 1004 C 95.0623 -1.06507 -1.31729 0
M  V30 1005 O 96.2683 -1.24906 -1.29609 0
M  V30 1006 H 92.6433 -0.68137 -0.31818 0
M  V30 1007 H 94.6143 -2.95187 -0.436707 0
M  V30 1008 C 93.3633 -2.69732 -2.19408 0
M  V30 1009 H 92.6863 -3.51454 -1.90578 0
M  V30 1010 H 94.1263 -3.12287 -2.86798 0
M  V30 1011 C 92.5853 -1.63855 -2.94369 0
M  V30 1012 O 93.1153 -1.05565 -3.87581 0
M  V30 1013 N 91.3213 -1.35202 -2.57233 0
M  V30 1014 H 90.8683 -1.82791 -1.81508 0
M  V30 1015 H 90.8263 -0.645922 -3.07693 0
M  V30 1016 N 94.5984 0.214957 -1.56127 0
M  V30 1017 C 95.8444 0.939762 -1.79712 0
M  V30 1018 C 96.1774 1.83723 -0.629247 0
M  V30 1019 O 95.4524 1.90925 0.371197 0
M  V30 1020 C 95.7354 1.77306 -3.13424 0
M  V30 1021 C 95.5884 0.90164 -4.40671 0
M  V30 1022 C 96.9074 2.74956 -3.43638 0
M  V30 1023 H 94.0264 0.340214 -0.653776 0
M  V30 1024 H 96.6684 0.20824 -1.88855 0
M  V30 1025 H 94.8184 2.39673 -3.0576 0
M  V30 1026 H 96.4904 0.294206 -4.60361 0
M  V30 1027 H 94.7334 0.207368 -4.33304 0
M  V30 1028 H 95.4044 1.51923 -5.30682 0
M  V30 1029 H 97.8804 2.22724 -3.51473 0
M  V30 1030 H 96.7564 3.30358 -4.38355 0
M  V30 1031 H 97.0174 3.53023 -2.66134 0
M  V30 1032 N 96.0765 1.50051 0.48192 0
M  V30 1033 C 97.3245 1.60181 1.23234 0
M  V30 1034 C 97.6455 0.299176 1.92691 0
M  V30 1035 O 96.9155 -0.682708 1.83619 0
M  V30 1036 H 95.4955 0.590232 0.457859 0
M  V30 1037 H 98.1575 1.86775 0.556881 0
M  V30 1038 H 97.2535 2.40753 1.98607 0
M  V30 1039 N 97.5546 -0.734337 1.39446 0
M  V30 1040 C 98.9706 -1.03997 1.21065 0
M  V30 1041 C 99.1706 -2.01369 0.0727019 0
M  V30 1042 O 98.2266 -2.45856 -0.575426 0
M  V30 1043 C 99.5396 -1.60163 2.54496 0
M  V30 1044 C 101.088 -1.7224 2.61347 0
M  V30 1045 C 101.563 -2.31814 3.95002 0
M  V30 1046 N 103.054 -2.39223 3.96644 0
M  V30 1047 C 103.789 -2.86258 4.96834 0
M  V30 1048 N 103.285 -3.33184 6.07421 0
M  V30 1049 N 105.078 -2.85473 4.84213 0
M  V30 1050 H 97.2286 -0.0885624 2.12215 0
M  V30 1051 H 99.4916 -0.10191 0.942506 0
M  V30 1052 H 99.1976 -0.960811 3.38321 0
M  V30 1053 H 99.0716 -2.5896 2.74262 0
M  V30 1054 H 101.459 -2.35443 1.77906 0
M  V30 1055 H 101.54 -0.720939 2.4543 0
M  V30 1056 H 101.184 -1.69238 4.78875 0
M  V30 1057 H 101.114 -3.32638 4.08239 0
M  V30 1058 H 103.605 -2.06057 3.16779 0
M  V30 1059 H 103.918 -3.67586 6.7978 0
M  V30 1060 H 102.263 -3.31191 6.11013 0
M  V30 1061 H 105.454 -2.48136 3.96921 0
M  V30 1062 H 105.627 -3.21814 5.62441 0
M  V30 1063 N 99.0327 -1.24633 -0.964593 0
M  V30 1064 C 100.273 -1.09981 -1.72289 0
M  V30 1065 C 100.637 0.354792 -1.88693 0
M  V30 1066 O 101.838 0.62289 -2.61483 0
M  V30 1067 C 100.109 -1.82262 -3.07434 0
M  V30 1068 S 101.668 -1.83379 -3.98645 0
M  V30 1069 H 98.4857 -0.393292 -0.59232 0
M  V30 1070 H 101.088 -1.58009 -1.15123 0
M  V30 1071 H 99.7917 -2.87206 -2.93157 0
M  V30 1072 H 99.3227 -1.3458 -3.69664 0
M  V30 1073 H 101.338 -0.903691 -4.87901 0
M  V30 1074 N 100.511 1.16574 -1.06058 0
M  V30 1075 C 101.461 2.18854 -0.63929 0
M  V30 1076 C 102.445 1.57505 0.328798 0
M  V30 1077 O 103.637 1.76408 0.144623 0
M  V30 1078 C 100.766 3.43291 -0.0247203 0
M  V30 1079 C 99.8518 4.11722 -1.01716 0
M  V30 1080 N 100.243 4.55841 -2.19186 0
M  V30 1081 C 98.5408 4.37872 -0.847569 0
M  V30 1082 C 99.2418 5.08751 -2.82042 0
M  V30 1083 N 98.2178 5.01489 -2.09784 0
M  V30 1084 H 102.02 2.5068 -1.53417 0
M  V30 1085 H 99.5338 1.32999 -0.931935 0
M  V30 1086 H 101.531 4.15856 0.294915 0
M  V30 1087 H 100.191 3.12954 0.865448 0
M  V30 1088 H 101.202 4.49649 -2.56975 0
M  V30 1089 H 97.8788 4.17499 -0.00918848 0
M  V30 1090 H 99.2688 5.52944 -3.81709 0
M  V30 1091 N 101.989 0.842826 1.3317 0
M  V30 1092 C 103.266 0.362216 1.92217 0
M  V30 1093 C 103.646 -1.15289 1.76838 0
M  V30 1094 O 102.994 -1.96914 1.15919 0
M  V30 1095 C 103.204 0.813495 3.39387 0
M  V30 1096 C 104.552 0.823804 4.16532 0
M  V30 1097 O 105.576 0.757358 3.48055 0
M  V30 1098 O 104.435 0.915193 5.38782 0
M  V30 1099 H 101.529 0.103317 0.820521 0
M  V30 1100 H 104.075 0.928942 1.42017 0
M  V30 1101 H 102.847 1.85624 3.4447 0
M  V30 1102 H 102.47 0.223561 3.96971 0
M  V30 1103 N 103.467 -1.45747 0.599634 0
M  V30 1104 C 104.714 -2.02292 0.0917284 0
M  V30 1105 C 105.042 -1.46906 -1.27472 0
M  V30 1106 O 104.297 -0.630652 -1.8526 0
M  V30 1107 C 104.596 -3.57399 -0.00602758 0
M  V30 1108 C 104.262 -4.31902 1.29503 0
M  V30 1109 C 102.924 -4.51974 1.65144 0
M  V30 1110 C 105.276 -4.74551 2.15525 0
M  V30 1111 C 102.604 -5.11949 2.86574 0
M  V30 1112 C 104.956 -5.35868 3.36196 0
M  V30 1113 C 103.62 -5.54165 3.72099 0
M  V30 1114 H 102.89 -0.740239 0.0335658 0
M  V30 1115 H 105.537 -1.7491 0.779661 0
M  V30 1116 H 103.842 -3.84014 -0.777183 0
M  V30 1117 H 105.539 -3.98846 -0.415038 0
M  V30 1118 H 102.129 -4.16588 1.00761 0
M  V30 1119 H 106.313 -4.58784 1.8929 0
M  V30 1120 H 101.569 -5.24305 3.14507 0
M  V30 1121 H 105.743 -5.6787 4.03109 0
M  V30 1122 H 103.37 -6.00406 4.6628 0
M  V30 1123 N 104.945 -0.338344 -1.53925 0
M  V30 1124 C 106.361 0.0137736 -1.59594 0
M  V30 1125 C 106.561 1.49186 -1.35447 0
M  V30 1126 O 105.617 2.24987 -1.14616 0
M  V30 1127 C 106.93 -0.41773 -2.97784 0
M  V30 1128 C 108.478 -0.369633 -3.1081 0
M  V30 1129 C 108.953 -0.776524 -4.51369 0
M  V30 1130 N 110.444 -0.730506 -4.57403 0
M  V30 1131 C 111.179 -1.01736 -5.64303 0
M  V30 1132 N 110.675 -1.3721 -6.79077 0
M  V30 1133 N 112.468 -0.941942 -5.54151 0
M  V30 1134 H 104.619 -1.3012 -1.67876 0
M  V30 1135 H 106.882 -0.530082 -0.78595 0
M  V30 1136 H 106.588 -1.44811 -3.20504 0
M  V30 1137 H 106.462 0.209729 -3.76616 0
M  V30 1138 H 108.849 0.651568 -2.87817 0
M  V30 1139 H 108.93 -1.03223 -2.34049 0
M  V30 1140 H 108.574 -1.79571 -4.75096 0
M  V30 1141 H 108.504 -0.0914649 -5.26521 0
M  V30 1142 H 110.995 -0.468783 -3.74981 0
M  V30 1143 H 111.308 -1.57597 -7.5656 0
M  V30 1144 H 109.653 -1.4105 -6.80536 0
M  V30 1145 H 112.844 -0.664184 -4.63364 0
M  V30 1146 H 113.017 -1.16884 -6.37371 0
M  V30 1147 N 106.423 1.57458 -0.0668435 0
M  V30 1148 C 107.333 2.15937 0.916975 0
M  V30 1149 C 108.349 1.12123 1.33058 0
M  V30 1150 O 109.525 1.44366 1.40429 0
M  V30 1151 C 106.59 2.70547 2.16807 0
M  V30 1152 C 105.651 3.89215 1.81135 0
M  V30 1153 C 104.884 4.41211 3.0028 0
M  V30 1154 O 105.107 3.92225 4.14144 0
M  V30 1155 O 104.041 5.32605 2.80384 0
M  V30 1156 H 107.867 3.00354 0.449561 0
M  V30 1157 H 105.452 1.48584 0.155949 0
M  V30 1158 H 107.334 3.0557 2.90181 0
M  V30 1159 H 106.009 1.89192 2.62656 0
M  V30 1160 H 104.916 3.59054 1.05028 0
M  V30 1161 H 106.249 4.71848 1.40073 0
M  V30 1162 N 107.901 -0.206675 1.56239 0
M  V30 1163 C 109.129 -0.945345 1.8404 0
M  V30 1164 C 109.544 -1.77336 0.647885 0
M  V30 1165 O 108.901 -1.78425 -0.383511 0
M  V30 1166 C 108.952 -1.8509 3.10522 0
M  V30 1167 O 108.673 -1.05634 4.25174 0
M  V30 1168 C 110.174 -2.70222 3.51418 0
M  V30 1169 H 107.394 -0.276372 0.61144 0
M  V30 1170 H 109.938 -0.217417 2.03341 0
M  V30 1171 H 108.093 -2.53259 2.93153 0
M  V30 1172 H 108.507 -1.67238 4.97124 0
M  V30 1173 H 109.981 -3.29438 4.42916 0
M  V30 1174 H 110.458 -3.43358 2.73864 0
M  V30 1175 H 111.064 -2.07443 3.71278 0
M  V30 1176 N 109.379 -1.50304 -0.473955 0
M  V30 1177 C 110.342 -1.6841 -1.55469 0
M  V30 1178 C 111.342 -0.554905 -1.50922 0
M  V30 1179 O 112.532 -0.821882 -1.53593 0
M  V30 1180 C 109.664 -1.70667 -2.95102 0
M  V30 1181 H 110.857 -2.64828 -1.40733 0
M  V30 1182 H 108.41 -1.39742 -0.700132 0
M  V30 1183 H 109.145 -0.75932 -3.15285 0
M  V30 1184 H 108.93 -2.52698 -2.9981 0
M  V30 1185 H 110.42 -1.8664 -3.73571 0
M  V30 1186 N 110.857 0.726932 -1.39834 0
M  V30 1187 C 112.134 1.47902 -1.28001 0
M  V30 1188 C 112.514 2.1083 0.106789 0
M  V30 1189 O 111.862 1.99242 1.11869 0
M  V30 1190 C 112.072 2.52392 -2.41038 0
M  V30 1191 C 113.42 3.18546 -2.80737 0
M  V30 1192 O 114.444 2.62708 -2.40547 0
M  V30 1193 O 113.303 4.19604 -3.50135 0
M  V30 1194 H 110.397 0.657163 -0.502062 0
M  V30 1195 H 112.943 0.760071 -1.51727 0
M  V30 1196 H 111.715 2.04329 -3.33715 0
M  V30 1197 H 111.338 3.31837 -2.19021 0
M  V30 1198 N 112.336 1.25143 0.95797 0
M  V30 1199 C 113.582 1.09855 1.70469 0
M  V30 1200 C 113.915 -0.360187 1.90831 0
M  V30 1201 O 113.19 -1.26568 1.47685 0
M  V30 1202 C 113.473 1.8497 3.08963 0
M  V30 1203 C 113.326 3.38652 2.96032 0
M  V30 1204 C 114.645 1.63016 4.08795 0
M  V30 1205 H 111.764 0.400465 0.618706 0
M  V30 1206 H 114.406 1.53933 1.11376 0
M  V30 1207 H 112.556 1.47505 3.59409 0
M  V30 1208 H 114.228 3.85772 2.52938 0
M  V30 1209 H 112.471 3.66534 2.32025 0
M  V30 1210 H 113.142 3.8642 3.94187 0
M  V30 1211 H 115.618 1.95625 3.67247 0
M  V30 1212 H 114.494 2.18015 5.03747 0
M  V30 1213 H 114.755 0.570692 4.38401 0
M  V30 1214 N 113.814 -1.1601 1.06675 0
M  V30 1215 C 115.063 -1.85973 0.780818 0
M  V30 1216 C 115.376 -1.82819 -0.695444 0
M  V30 1217 O 116.582 -2.484 -1.09589 0
M  V30 1218 C 115.038 -3.33757 1.34665 0
M  V30 1219 C 114.646 -3.45374 2.85343 0
M  V30 1220 C 116.39 -4.0895 1.13843 0
M  V30 1221 C 114.297 -4.87266 3.35151 0
M  V30 1222 H 113.227 -0.696661 0.288407 0
M  V30 1223 H 115.878 -1.30903 1.28595 0
M  V30 1224 H 114.26 -3.88456 0.769274 0
M  V30 1225 H 115.434 -3.00816 3.49065 0
M  V30 1226 H 113.749 -2.83619 3.04876 0
M  V30 1227 H 116.346 -5.13654 1.4854 0
M  V30 1228 H 116.689 -4.16229 0.0770282 0
M  V30 1229 H 117.222 -3.605 1.68179 0
M  V30 1230 H 113.961 -4.85168 4.40786 0
M  V30 1231 H 113.481 -5.32433 2.76179 0
M  V30 1232 H 115.16 -5.56097 3.30704 0
M  V30 1233 N 115.292 -0.849877 -1.32721 0
M  V30 1234 C 116.255 -0.296122 -2.27279 0
M  V30 1235 C 117.255 0.541458 -1.5141 0
M  V30 1236 O 118.445 0.353658 -1.70572 0
M  V30 1237 C 115.577 0.581579 -3.35902 0
M  V30 1238 H 116.77 -1.13064 -2.77771 0
M  V30 1239 H 114.323 -0.62383 -1.43311 0
M  V30 1240 H 115.058 1.43809 -2.9067 0
M  V30 1241 H 114.843 -0.0178814 -3.92096 0
M  V30 1242 H 116.333 0.961951 -4.0637 0
M  V30 1243 N 116.77 1.45427 -0.607355 0
M  V30 1244 C 117.717 2.3053 0.111625 0
M  V30 1245 C 118.687 1.4209 0.860216 0
M  V30 1246 O 119.872 1.71019 0.845998 0
M  V30 1247 C 117.012 3.26992 1.10319 0
M  V30 1248 C 116.125 4.30535 0.355493 0
M  V30 1249 C 115.26 5.14105 1.33676 0
M  V30 1250 C 114.299 6.09376 0.576862 0
M  V30 1251 N 113.436 6.85727 1.5074 0
M  V30 1252 H 118.276 2.91477 -0.620093 0
M  V30 1253 H 115.813 1.43631 -0.317594 0
M  V30 1254 H 117.771 3.81385 1.6912 0
M  V30 1255 H 116.401 2.67799 1.80232 0
M  V30 1256 H 115.453 3.78805 -0.348023 0
M  V30 1257 H 116.765 4.98235 -0.237423 0
M  V30 1258 H 115.919 5.72897 1.99684 0
M  V30 1259 H 114.658 4.46423 1.9636 0
M  V30 1260 H 113.663 5.49715 -0.0968519 0
M  V30 1261 H 114.888 6.79085 -0.0449341 0
M  V30 1262 H 112.834 6.20735 2.12189 0
M  V30 1263 H 112.751 7.49778 0.967913 0
M  V30 1264 H 114.019 7.4906 2.15706 0
M  V30 1265 N 118.248 0.346503 1.53744 0
M  V30 1266 C 119.494 -0.249473 2.0126 0
M  V30 1267 C 119.827 -1.49965 1.23386 0
M  V30 1268 O 119.102 -1.91811 0.32229 0
M  V30 1269 C 119.385 -0.560643 3.55709 0
M  V30 1270 C 119.238 0.701836 4.44291 0
M  V30 1271 C 120.557 -1.36905 4.18264 0
M  V30 1272 H 117.676 -0.0891987 0.731582 0
M  V30 1273 H 120.318 0.467624 1.84156 0
M  V30 1274 H 118.468 -1.17156 3.70414 0
M  V30 1275 H 120.14 1.33974 4.41417 0
M  V30 1276 H 118.383 1.32612 4.13033 0
M  V30 1277 H 119.054 0.43933 5.50249 0
M  V30 1278 H 121.53 -0.852448 4.07275 0
M  V30 1279 H 120.406 -1.55553 5.26398 0
M  V30 1280 H 120.667 -2.37203 3.73078 0
M  V30 1281 N 119.726 -1.57421 0.075193 0
M  V30 1282 C 120.689 -2.11791 -0.876203 0
M  V30 1283 C 121.689 -1.04268 -1.22412 0
M  V30 1284 O 122.879 -1.30242 -1.15684 0
M  V30 1285 C 120.011 -2.62207 -2.17854 0
M  V30 1286 H 121.204 -2.9716 -0.40444 0
M  V30 1287 H 118.757 -1.55333 -0.173557 0
M  V30 1288 H 119.492 -1.803 -2.6956 0
M  V30 1289 H 119.277 -3.40802 -1.93897 0
M  V30 1290 H 120.767 -3.04335 -2.85955 0
M  V30 1291 N 121.204 0.198386 -1.56346 0
M  V30 1292 C 122.451 0.919286 -1.80431 0
M  V30 1293 C 122.779 1.83393 -0.647866 0
M  V30 1294 O 122.034 1.92236 0.366556 0
M  V30 1295 C 122.333 1.77031 -3.10475 0
M  V30 1296 C 121.999 1.00693 -4.39513 0
M  V30 1297 C 120.661 0.796145 -4.74568 0
M  V30 1298 C 123.013 0.469559 -5.19081 0
M  V30 1299 C 120.341 0.0364588 -5.86689 0
M  V30 1300 C 122.693 -0.2769 -6.31994 0
M  V30 1301 C 121.357 -0.49873 -6.65634 0
M  V30 1302 H 120.627 0.336391 -0.660244 0
M  V30 1303 H 123.274 0.185872 -1.90596 0
M  V30 1304 H 121.579 2.5723 -2.95533 0
M  V30 1305 H 123.276 2.33065 -3.26315 0
M  V30 1306 H 119.866 1.18122 -4.12001 0
M  V30 1307 H 124.05 0.619816 -4.92414 0
M  V30 1308 H 119.306 -0.145412 -6.11227 0
M  V30 1309 H 123.48 -0.700684 -6.92866 0
M  V30 1310 H 121.107 -1.0893 -7.52355 0
M  V30 1311 N 122.682 1.50554 0.465978 0
M  V30 1312 C 123.629 1.6979 1.56333 0
M  V30 1313 C 124.599 0.539239 1.57103 0
M  V30 1314 O 125.784 0.770401 1.74555 0
M  V30 1315 C 122.924 1.80273 2.94271 0
M  V30 1316 C 122.037 3.07674 3.0325 0
M  V30 1317 C 121.172 3.08922 4.32135 0
M  V30 1318 C 120.211 4.30755 4.34875 0
M  V30 1319 N 119.348 4.29714 5.55239 0
M  V30 1320 H 124.188 2.63472 1.39235 0
M  V30 1321 H 121.725 1.30602 0.676873 0
M  V30 1322 H 123.683 1.84332 3.74269 0
M  V30 1323 H 122.313 0.900258 3.09992 0
M  V30 1324 H 121.365 3.13062 2.16094 0
M  V30 1325 H 122.677 3.97642 3.01135 0
M  V30 1326 H 121.831 3.11738 5.20485 0
M  V30 1327 H 120.57 2.16792 4.36866 0
M  V30 1328 H 119.575 4.28146 3.44922 0
M  V30 1329 H 120.8 5.24117 4.31831 0
M  V30 1330 H 118.746 3.4044 5.60746 0
M  V30 1331 H 118.663 5.13456 5.54886 0
M  V30 1332 H 119.931 4.36683 6.457 0
M  V30 1333 N 124.16 -0.719506 1.40217 0
M  V30 1334 C 125.093 -1.84298 1.34571 0
M  V30 1335 C 126.071 -1.61149 0.216741 0
M  V30 1336 O 127.255 -1.84212 0.399756 0
M  V30 1337 C 124.382 -3.20568 1.09335 0
M  V30 1338 C 123.428 -3.62551 2.24631 0
M  V30 1339 S 124.261 -3.7012 3.87004 0
M  V30 1340 C 125.417 -5.09154 3.64024 0
M  V30 1341 H 125.65 -1.88807 2.2965 0
M  V30 1342 H 123.183 -0.885901 1.26456 0
M  V30 1343 H 125.141 -3.99246 0.954602 0
M  V30 1344 H 123.802 -3.13696 0.159164 0
M  V30 1345 H 122.995 -4.61483 2.02606 0
M  V30 1346 H 122.597 -2.91119 2.34789 0
M  V30 1347 H 124.889 -5.95955 3.22248 0
M  V30 1348 H 125.832 -5.36213 4.62473 0
M  V30 1349 H 126.24 -4.79562 2.97793 0
M  V30 1350 N 125.638 -1.25649 -0.95132 0
M  V30 1351 C 126.868 -1.13179 -1.72841 0
M  V30 1352 C 127.276 0.316827 -1.86528 0
M  V30 1353 O 126.619 1.22948 -1.3649 0
M  V30 1354 C 126.681 -1.71644 -3.15878 0
M  V30 1355 C 126.345 -3.20667 -3.25609 0
M  V30 1356 C 127.342 -4.17616 -3.09666 0
M  V30 1357 C 125.027 -3.6094 -3.49324 0
M  V30 1358 C 127.021 -5.52817 -3.17289 0
M  V30 1359 C 124.708 -4.96278 -3.56584 0
M  V30 1360 C 125.706 -5.92025 -3.40581 0
M  V30 1361 O 125.394 -7.24899 -3.47528 0
M  V30 1362 H 125.126 -0.395389 -0.54831 0
M  V30 1363 H 127.68 -1.66566 -1.20187 0
M  V30 1364 H 125.91 -1.12707 -3.69911 0
M  V30 1365 H 127.599 -1.54225 -3.75459 0
M  V30 1366 H 128.365 -3.87842 -2.91211 0
M  V30 1367 H 124.244 -2.86907 -3.6084 0
M  V30 1368 H 127.788 -6.2753 -3.04716 0
M  V30 1369 H 123.685 -5.25716 -3.74556 0
M  V30 1370 H 124.453 -7.33039 -3.64138 0
M  V30 1371 N 127.117 1.15442 -1.07289 0
M  V30 1372 C 128.047 2.22312 -0.714107 0
M  V30 1373 C 129.028 1.67467 0.298155 0
M  V30 1374 O 130.213 1.93445 0.171048 0
M  V30 1375 C 127.343 3.47124 -0.110448 0
M  V30 1376 C 126.297 4.14926 -1.04979 0
M  V30 1377 C 125.623 5.33807 -0.308924 0
M  V30 1378 C 126.923 4.64762 -2.38314 0
M  V30 1379 H 128.617 2.5258 -1.6076 0
M  V30 1380 H 126.163 1.21404 -0.77441 0
M  V30 1381 H 128.116 4.21124 0.152482 0
M  V30 1382 H 126.84 3.16187 0.81812 0
M  V30 1383 H 125.499 3.42866 -1.29764 0
M  V30 1384 H 125.147 4.99126 0.623084 0
M  V30 1385 H 124.847 5.80113 -0.935036 0
M  V30 1386 H 126.371 6.10576 -0.0537771 0
M  V30 1387 H 127.785 5.30292 -2.1786 0
M  V30 1388 H 126.182 5.21728 -2.96514 0
M  V30 1389 H 127.252 3.80434 -3.00663 0
M  V30 1390 N 128.595 0.856903 1.32268 0
M  V30 1391 C 129.843 0.460474 1.96784 0
M  V30 1392 C 130.164 -0.987701 1.68135 0
M  V30 1393 O 129.434 -1.69058 0.989765 0
M  V30 1394 H 128.014 0.167289 0.728027 0
M  V30 1395 H 130.676 1.09383 1.61312 0
M  V30 1396 H 129.772 0.60739 3.06133 0
M  V30 1397 N 130.073 -1.45103 0.615059 0
M  V30 1398 C 131.322 -2.01396 0.110718 0
M  V30 1399 C 131.635 -1.48834 -1.26916 0
M  V30 1400 O 132.841 -1.97152 -1.86664 0
M  V30 1401 C 131.297 -3.59599 0.14723 0
M  V30 1402 C 130.905 -4.21158 1.52743 0
M  V30 1403 C 132.649 -4.23428 -0.30148 0
M  V30 1404 C 130.556 -5.71535 1.51992 0
M  V30 1405 H 129.486 -0.753061 0.0376241 0
M  V30 1406 H 132.137 -1.66494 0.77149 0
M  V30 1407 H 130.519 -3.91724 -0.580339 0
M  V30 1408 H 131.693 -4.00594 2.2773 0
M  V30 1409 H 130.008 -3.69552 1.91886 0
M  V30 1410 H 132.605 -5.33703 -0.326392 0
M  V30 1411 H 132.948 -3.94629 -1.32565 0
M  V30 1412 H 133.481 -3.96047 0.373065 0
M  V30 1413 H 130.22 -6.05044 2.52193 0
M  V30 1414 H 129.74 -5.94268 0.81274 0
M  V30 1415 H 131.419 -6.34873 1.24681 0
M  V30 1416 N 131.551 -0.354651 -1.53558 0
M  V30 1417 C 132.779 0.239515 -2.05509 0
M  V30 1418 C 133.194 1.4333 -1.2289 0
M  V30 1419 O 132.551 1.80538 -0.266899 0
M  V30 1420 C 132.602 0.643719 -3.55723 0
M  V30 1421 O 132.323 -0.502602 -4.35207 0
M  V30 1422 C 133.824 1.29743 -4.23889 0
M  V30 1423 H 131.044 0.0442697 -0.669538 0
M  V30 1424 H 133.588 -0.509856 -1.98042 0
M  V30 1425 H 131.743 1.34302 -3.63376 0
M  V30 1426 H 132.157 -0.178172 -5.24197 0
M  V30 1427 H 133.631 1.53091 -5.30346 0
M  V30 1428 H 134.108 2.25441 -3.76926 0
M  V30 1429 H 134.714 0.639865 -4.20459 0
M  V30 1430 N 133.029 1.57378 -0.0835403 0
M  V30 1431 C 134.44 1.81261 0.447358 0
M  V30 1432 C 134.791 0.998331 1.68902 0
M  V30 1433 O 133.916 0.224282 2.15235 0
M  V30 1434 C 134.511 3.28767 0.818386 0
M  V30 1435 C 133.07 3.53455 1.29409 0
M  V30 1436 C 132.217 2.75831 0.285024 0
M  V30 1437 H 135.168 1.5566 -0.309115 0
M  V30 1438 H 135.189 3.41459 1.67887 0
M  V30 1439 H 134.701 3.88006 -0.0855019 0
M  V30 1440 H 132.802 2.99534 2.21608 0
M  V30 1441 H 132.915 4.62128 1.2639 0
M  V30 1442 H 131.279 2.42947 0.764767 0
M  V30 1443 H 132.062 3.37813 -0.611341 0
M  V30 1444 N 134.507 -0.190092 1.56449 0
M  V30 1445 C 135.732 -0.929864 1.85387 0
M  V30 1446 C 136.157 -1.7585 0.667704 0
M  V30 1447 O 135.515 -1.77198 -0.383459 0
M  V30 1448 C 135.563 -1.79773 3.12593 0
M  V30 1449 O 134.667 -2.89713 2.93496 0
M  V30 1450 H 134.008 -0.261574 0.610307 0
M  V30 1451 H 136.538 -0.193896 2.03679 0
M  V30 1452 H 136.548 -2.20139 3.43515 0
M  V30 1453 H 135.223 -1.18892 3.98544 0
M  V30 1454 H 133.8 -2.53065 2.73884 0
M  V30 1455 N 135.985 -1.50799 -0.457987 0
M  V30 1456 C 137.234 -1.6168 -1.20593 0
M  V30 1457 C 137.547 -0.32888 -1.92815 0
M  V30 1458 O 138.753 -0.316773 -2.69646 0
M  V30 1459 C 137.209 -2.8545 -2.19195 0
M  V30 1460 C 136.817 -4.21168 -1.52715 0
M  V30 1461 C 138.561 -3.05681 -2.94549 0
M  V30 1462 C 136.468 -5.3611 -2.4968 0
M  V30 1463 H 135.398 -0.602134 -0.453818 0
M  V30 1464 H 138.049 -1.77245 -0.475031 0
M  V30 1465 H 136.431 -2.63472 -2.95632 0
M  V30 1466 H 137.605 -4.53449 -0.819775 0
M  V30 1467 H 135.92 -4.06648 -0.895922 0
M  V30 1468 H 138.517 -3.88727 -3.67145 0
M  V30 1469 H 138.86 -2.17929 -3.54701 0
M  V30 1470 H 139.393 -3.27901 -2.25223 0
M  V30 1471 H 136.132 -6.26057 -1.94249 0
M  V30 1472 H 135.652 -5.0823 -3.18532 0
M  V30 1473 H 137.331 -5.6722 -3.11241 0
M  V30 1474 N 137.463 0.71206 -1.40597 0
M  V30 1475 C 138.691 1.50111 -1.42388 0
M  V30 1476 C 139.106 1.88784 -0.0245395 0
M  V30 1477 O 138.463 1.55681 0.952351 0
M  V30 1478 C 138.514 2.7742 -2.31776 0
M  V30 1479 O 138.235 2.40382 -3.66262 0
M  V30 1480 C 139.736 3.7129 -2.42196 0
M  V30 1481 H 136.956 0.46314 -0.485533 0
M  V30 1482 H 139.5 0.878068 -1.8469 0
M  V30 1483 H 137.655 3.36001 -1.92827 0
M  V30 1484 H 138.069 3.22324 -4.13772 0
M  V30 1485 H 139.543 4.57448 -3.08943 0
M  V30 1486 H 140.02 4.14641 -1.44809 0
M  V30 1487 H 140.626 3.18619 -2.81712 0
M  V30 1488 N 138.941 1.26152 0.944643 0
M  V30 1489 C 139.889 1.07215 2.06417 0
M  V30 1490 C 140.883 9.2007e-05 1.694 0
M  V30 1491 O 142.089 0.1565 1.79318 0
M  V30 1492 H 138.464 0.329837 0.675805 0
M  V30 1493 H 140.435 2.02099 2.19541 0
M  V30 1494 C 139.184 0.718197 3.40202 0
M  V30 1495 H 138.507 1.53497 3.69159 0
M  V30 1496 H 139.947 0.625459 4.19361 0
M  V30 1497 C 138.406 -0.576435 3.31932 0
M  V30 1498 O 138.936 -1.61574 3.67773 0
M  V30 1499 N 137.142 -0.565781 2.85039 0
M  V30 1500 H 136.689 0.280367 2.5607 0
M  V30 1501 H 136.647 -1.43213 2.79888 0
M  V30 1502 N 140.419 -1.14872 1.07899 0
M  V30 1503 C 141.665 -1.86289 0.81657 0
M  V30 1504 C 142.02 -1.8107 -0.65049 0
M  V30 1505 O 141.313 -1.22684 -1.47171 0
M  V30 1506 C 141.507 -3.34223 1.26609 0
M  V30 1507 C 141.336 -3.53846 2.77531 0
M  V30 1508 C 140.106 -3.68995 3.45212 0
M  V30 1509 C 142.304 -3.51201 3.75716 0
M  V30 1510 N 140.286 -3.76725 4.84718 0
M  V30 1511 C 141.657 -3.65112 5.01092 0
M  V30 1512 C 143.712 -3.34507 3.68794 0
M  V30 1513 C 142.415 -3.64056 6.20368 0
M  V30 1514 C 144.441 -3.34752 4.8754 0
M  V30 1515 C 143.803 -3.49199 6.11751 0
M  V30 1516 H 139.902 -0.698579 0.351443 0
M  V30 1517 H 142.486 -1.37713 1.37634 0
M  V30 1518 H 140.657 -3.81402 0.73395 0
M  V30 1519 H 142.389 -3.93377 0.95062 0
M  V30 1520 H 139.144 -3.70006 2.95622 0
M  V30 1521 H 139.568 -3.8432 5.5734 0
M  V30 1522 H 144.21 -3.22253 2.73702 0
M  V30 1523 H 141.928 -3.75087 7.15776 0
M  V30 1524 H 145.514 -3.23055 4.83866 0
M  V30 1525 H 144.394 -3.49328 7.02097 0
M  V30 1526 N 141.898 -0.863906 -1.31812 0
M  V30 1527 C 143.123 -0.48527 -2.01643 0
M  V30 1528 C 143.548 0.913058 -1.64453 0
M  V30 1529 O 142.906 1.6014 -0.849985 0
M  V30 1530 C 142.954 -0.642625 -3.54828 0
M  V30 1531 O 142.058 0.320659 -4.11151 0
M  V30 1532 H 141.399 -0.193793 -0.635091 0
M  V30 1533 H 143.929 -1.16565 -1.68148 0
M  V30 1534 H 143.939 -0.533628 -4.04495 0
M  V30 1535 H 142.614 -1.66227 -3.81237 0
M  V30 1536 H 141.191 0.167126 -3.72525 0
M  V30 1537 N 143.376 1.44774 -0.622745 0
M  V30 1538 C 144.787 1.85546 -0.207226 0
M  V30 1539 C 145.138 1.52093 1.23944 0
M  V30 1540 O 144.263 0.95492 1.94191 0
M  V30 1541 C 144.858 3.36781 -0.369313 0
M  V30 1542 C 143.417 3.76399 -0.00836847 0
M  V30 1543 C 142.564 2.68664 -0.686651 0
M  V30 1544 H 145.515 1.3536 -0.828454 0
M  V30 1545 H 145.536 3.78453 0.394162 0
M  V30 1546 H 145.048 3.61098 -1.42231 0
M  V30 1547 H 143.149 3.57698 1.04322 0
M  V30 1548 H 143.262 4.7732 -0.412584 0
M  V30 1549 H 141.626 2.54404 -0.122777 0
M  V30 1550 H 142.409 2.95815 -1.74208 0
M  V30 1551 N 144.854 0.36279 1.53368 0
M  V30 1552 C 145.817 -0.472679 2.24273 0
M  V30 1553 C 146.817 -1.012 1.24961 0
M  V30 1554 O 148.007 -0.898194 1.49259 0
M  V30 1555 C 145.139 -1.66039 2.97731 0
M  V30 1556 H 146.332 0.14773 2.99536 0
M  V30 1557 H 143.885 0.114434 1.55881 0
M  V30 1558 H 144.62 -2.31896 2.26704 0
M  V30 1559 H 144.405 -1.28066 3.70596 0
M  V30 1560 H 145.895 -2.25252 3.51641 0
M  V30 1561 N 146.332 -1.57332 0.0918853 0
M  V30 1562 C 147.58 -1.93853 -0.571446 0
M  V30 1563 C 147.901 -0.974212 -1.6892 0
M  V30 1564 O 147.171 -0.0257254 -1.95883 0
M  V30 1565 H 145.751 -0.715666 -0.214082 0
M  V30 1566 H 148.413 -1.94287 0.154464 0
M  V30 1567 H 147.509 -2.96191 -0.983729 0
M  V30 1568 N 147.81 0.181792 -1.56548 0
M  V30 1569 C 149.087 0.926765 -1.72251 0
M  V30 1570 C 149.467 2.00831 -0.650386 0
M  V30 1571 O 148.815 2.26008 0.336521 0
M  V30 1572 C 149.025 1.50106 -3.1507 0
M  V30 1573 C 150.373 1.97805 -3.75711 0
M  V30 1574 O 151.397 1.59922 -3.18282 0
M  V30 1575 O 150.256 2.67555 -4.76525 0
M  V30 1576 H 147.35 0.435506 -0.703039 0
M  V30 1577 H 149.896 0.170443 -1.68842 0
M  V30 1578 H 148.668 0.72212 -3.84579 0
M  V30 1579 H 148.291 2.32186 -3.22763 0
M  V30 1580 N 149.288 1.51039 0.449983 0
M  V30 1581 C 150.198 1.74261 1.57067 0
M  V30 1582 C 151.214 0.626363 1.62335 0
M  V30 1583 O 152.39 0.907162 1.79812 0
M  V30 1584 C 149.455 1.85114 2.93144 0
M  V30 1585 C 148.516 3.0893 2.98095 0
M  V30 1586 C 147.749 3.19256 4.27681 0
M  V30 1587 O 147.972 2.35835 5.19363 0
M  V30 1588 O 146.906 4.12144 4.38658 0
M  V30 1589 H 150.732 2.69303 1.40391 0
M  V30 1590 H 148.317 1.35389 0.631688 0
M  V30 1591 H 150.199 1.94311 3.73926 0
M  V30 1592 H 148.874 0.932588 3.09975 0
M  V30 1593 H 147.781 3.0522 2.16314 0
M  V30 1594 H 149.114 4.00433 2.86206 0
M  V30 1595 N 150.766 -0.704594 1.40972 0
M  V30 1596 C 152.013 -1.46458 1.39844 0
M  V30 1597 C 152.341 -1.94499 0.00447594 0
M  V30 1598 O 151.596 -1.69275 -0.982057 0
M  V30 1599 C 151.895 -2.698 2.34399 0
M  V30 1600 C 151.561 -2.40464 3.81429 0
M  V30 1601 C 150.223 -2.32174 4.21484 0
M  V30 1602 C 152.575 -2.16086 4.74296 0
M  V30 1603 C 149.903 -1.97589 5.52427 0
M  V30 1604 C 152.255 -1.83011 6.05549 0
M  V30 1605 C 150.919 -1.7321 6.44635 0
M  V30 1606 H 150.189 -0.535927 0.511725 0
M  V30 1607 H 152.836 -0.806124 1.73706 0
M  V30 1608 H 151.141 -3.40536 1.93759 0
M  V30 1609 H 152.838 -3.27919 2.30804 0
M  V30 1610 H 149.428 -2.47808 3.49699 0
M  V30 1611 H 153.612 -2.2144 4.4416 0
M  V30 1612 H 148.868 -1.88547 5.81601 0
M  V30 1613 H 153.042 -1.63164 6.77016 0
M  V30 1614 H 150.669 -1.46179 7.46013 0
M  V30 1615 N 152.244 -1.26651 -0.937939 0
M  V30 1616 C 153.469 -1.15279 -1.72411 0
M  V30 1617 C 153.894 0.287866 -1.85884 0
M  V30 1618 O 153.252 1.20855 -1.35143 0
M  V30 1619 C 153.3 -1.83028 -3.10698 0
M  V30 1620 O 152.404 -1.12128 -3.96864 0
M  V30 1621 H 151.745 -0.401504 -0.528858 0
M  V30 1622 H 154.275 -1.67531 -1.1745 0
M  V30 1623 H 154.285 -1.89981 -3.6107 0
M  V30 1624 H 152.96 -2.87833 -3.00208 0
M  V30 1625 H 151.537 -1.13173 -3.55312 0
M  V30 1626 N 153.722 1.14298 -1.08507 0
M  V30 1627 C 154.652 2.21542 -0.737646 0
M  V30 1628 C 155.633 1.67773 0.280377 0
M  V30 1629 O 156.818 1.93616 0.150521 0
M  V30 1630 C 153.948 3.46988 -0.147259 0
M  V30 1631 C 152.902 4.13789 -1.09374 0
M  V30 1632 C 152.228 5.33449 -0.365524 0
M  V30 1633 C 153.528 4.62208 -2.4323 0
M  V30 1634 H 155.222 2.5086 -1.6343 0
M  V30 1635 H 152.768 1.20576 -0.787243 0
M  V30 1636 H 154.721 4.21262 0.107808 0
M  V30 1637 H 153.445 3.17037 0.784538 0
M  V30 1638 H 152.104 3.4147 -1.33393 0
M  V30 1639 H 151.752 4.99759 0.57011 0
M  V30 1640 H 151.452 5.79088 -0.996512 0
M  V30 1641 H 152.976 6.10485 -0.118534 0
M  V30 1642 H 154.39 5.27952 -2.23472 0
M  V30 1643 H 152.787 5.18553 -3.02031 0
M  V30 1644 H 153.857 3.77224 -3.04681 0
M  V30 1645 N 155.201 0.870884 1.31352 0
M  V30 1646 C 156.45 0.478408 1.95944 0
M  V30 1647 C 156.763 -0.974493 1.69597 0
M  V30 1648 O 157.969 -1.47316 2.28058 0
M  V30 1649 C 156.425 0.804609 3.50791 0
M  V30 1650 C 156.033 2.27433 3.85977 0
M  V30 1651 C 157.777 0.480648 4.2177 0
M  V30 1652 C 155.684 2.5429 5.33939 0
M  V30 1653 H 154.614 0.175175 0.733369 0
M  V30 1654 H 157.265 1.06391 1.4951 0
M  V30 1655 H 155.647 0.148347 3.95722 0
M  V30 1656 H 156.821 2.97373 3.52002 0
M  V30 1657 H 155.136 2.56442 3.28065 0
M  V30 1658 H 157.733 0.658519 5.30629 0
M  V30 1659 H 158.076 -0.578979 4.12254 0
M  V30 1660 H 158.609 1.09349 3.82476 0
M  V30 1661 H 155.348 3.58939 5.48491 0
M  V30 1662 H 154.868 1.88945 5.69263 0
M  V30 1663 H 156.547 2.39066 6.01212 0
M  V30 1664 N 156.679 -1.44442 0.630414 0
M  V30 1665 C 157.609 -2.33418 -0.0618083 0
M  V30 1666 C 158.59 -1.48165 -0.835541 0
M  V30 1667 O 159.775 -1.76886 -0.801564 0
M  V30 1668 C 156.905 -3.31222 -1.04449 0
M  V30 1669 C 155.859 -4.26288 -0.382436 0
M  V30 1670 C 155.185 -5.13954 -1.47497 0
M  V30 1671 C 156.485 -5.1744 0.710865 0
M  V30 1672 H 158.179 -2.91548 0.681184 0
M  V30 1673 H 155.725 -1.40191 0.329026 0
M  V30 1674 H 157.678 -3.92351 -1.53748 0
M  V30 1675 H 156.402 -2.71299 -1.81836 0
M  V30 1676 H 155.061 -3.6649 0.0899054 0
M  V30 1677 H 154.709 -4.50385 -2.2397 0
M  V30 1678 H 154.409 -5.7837 -1.03737 0
M  V30 1679 H 155.933 -5.77955 -1.96979 0
M  V30 1680 H 157.347 -5.72509 0.300996 0
M  V30 1681 H 155.744 -5.90455 1.07156 0
M  V30 1682 H 156.814 -4.58496 1.57829 0
M  V30 1683 N 158.157 -0.370918 -1.53173 0
M  V30 1684 C 159.067 0.480823 -2.2962 0
M  V30 1685 C 160.083 1.08789 -1.35798 0
M  V30 1686 O 161.259 1.09768 -1.68858 0
M  V30 1687 C 158.324 1.60227 -3.07454 0
M  V30 1688 C 157.385 1.0222 -4.16953 0
M  V30 1689 C 156.618 2.0902 -4.91066 0
M  V30 1690 O 156.841 3.30222 -4.65091 0
M  V30 1691 O 155.775 1.71778 -5.76867 0
M  V30 1692 H 159.601 -0.141421 -3.03371 0
M  V30 1693 H 157.186 -0.135146 -1.48787 0
M  V30 1694 H 159.068 2.25417 -3.56041 0
M  V30 1695 H 157.743 2.20982 -2.36535 0
M  V30 1696 H 156.65 0.334064 -3.72605 0
M  V30 1697 H 157.983 0.459131 -4.90054 0
M  V30 1698 N 159.635 1.57281 -0.100228 0
M  V30 1699 C 160.583 2.15542 0.874328 0
M  V30 1700 C 161.577 1.09962 1.28859 0
M  V30 1701 O 162.783 1.28298 1.26252 0
M  V30 1702 H 159.158 0.689567 0.300003 0
M  V30 1703 H 161.129 2.96241 0.35829 0
M  V30 1704 C 159.878 2.75454 2.1218 0
M  V30 1705 H 159.201 3.56384 1.81193 0
M  V30 1706 H 160.641 3.19781 2.78417 0
M  V30 1707 C 159.1 1.71602 2.89921 0
M  V30 1708 O 159.63 1.15804 3.84646 0
M  V30 1709 N 157.836 1.41975 2.53558 0
M  V30 1710 H 157.383 1.87539 1.76598 0
M  V30 1711 H 157.341 0.727274 3.05873 0
M  V30 1712 N 161.113 -0.173488 1.56642 0
M  V30 1713 C 162.061 -1.23417 1.97157 0
M  V30 1714 C 163.055 -1.45946 0.860013 0
M  V30 1715 O 164.261 -1.46551 1.04512 0
M  V30 1716 H 160.636 -0.414818 0.62724 0
M  V30 1717 H 162.607 -0.865582 2.8557 0
M  V30 1718 C 161.356 -2.5665 2.34576 0
M  V30 1719 H 160.679 -2.40137 3.19647 0
M  V30 1720 H 162.119 -3.2956 2.6677 0
M  V30 1721 C 160.578 -3.15245 1.18836 0
M  V30 1722 O 161.108 -3.98883 0.474869 0
M  V30 1723 N 159.314 -2.74303 0.959497 0
M  V30 1724 H 158.861 -2.0639 1.54146 0
M  V30 1725 H 158.819 -3.13844 0.186932 0
M  V30 1726 N 162.591 -1.51276 -0.441967 0
M  V30 1727 C 164.002 -1.56244 -1.02199 0
M  V30 1728 C 164.353 -0.383149 -1.92422 0
M  V30 1729 O 163.478 0.500613 -2.1053 0
M  V30 1730 C 164.073 -2.83162 -1.86024 0
M  V30 1731 C 162.632 -2.90716 -2.39084 0
M  V30 1732 C 161.779 -2.50858 -1.18175 0
M  V30 1733 H 164.73 -1.5712 -0.223416 0
M  V30 1734 H 164.751 -2.66663 -2.71425 0
M  V30 1735 H 164.263 -3.68974 -1.20331 0
M  V30 1736 H 162.364 -2.09323 -3.08244 0
M  V30 1737 H 162.477 -3.94266 -2.72198 0
M  V30 1738 H 160.841 -2.03951 -1.52565 0
M  V30 1739 H 161.624 -3.3901 -0.541001 0
M  V30 1740 N 164.069 0.697108 -1.41344 0
M  V30 1741 C 164.999 1.82353 -1.45841 0
M  V30 1742 C 165.98 1.67115 -0.317247 0
M  V30 1743 O 167.165 1.86871 -0.528474 0
M  V30 1744 C 164.295 3.20476 -1.33838 0
M  V30 1745 C 163.249 3.50415 -2.4575 0
M  V30 1746 C 162.575 4.87878 -2.18813 0
M  V30 1747 C 163.875 3.49546 -3.88091 0
M  V30 1748 H 165.569 1.78846 -2.40113 0
M  V30 1749 H 163.115 0.859028 -1.15571 0
M  V30 1750 H 165.068 3.98988 -1.35596 0
M  V30 1751 H 163.792 3.24604 -0.360498 0
M  V30 1752 H 162.451 2.74253 -2.43271 0
M  V30 1753 H 162.099 4.8863 -1.19371 0
M  V30 1754 H 161.799 5.08875 -2.93803 0
M  V30 1755 H 163.323 5.68702 -2.22284 0
M  V30 1756 H 164.737 4.18066 -3.92293 0
M  V30 1757 H 163.134 3.82075 -4.62751 0
M  V30 1758 H 164.204 2.48552 -4.16353 0
M  V30 1759 N 165.547 1.27147 0.931209 0
M  V30 1760 C 166.793 1.13446 1.68101 0
M  V30 1761 C 167.126 -0.319628 1.91552 0
M  V30 1762 O 166.401 -1.23407 1.50336 0
M  V30 1763 C 166.684 1.91482 3.0497 0
M  V30 1764 C 166.537 3.44855 2.88782 0
M  V30 1765 C 167.856 1.71651 4.05246 0
M  V30 1766 H 164.975 0.413498 0.610072 0
M  V30 1767 H 167.617 1.56261 1.08086 0
M  V30 1768 H 165.767 1.55095 3.56199 0
M  V30 1769 H 167.439 3.9105 2.44698 0
M  V30 1770 H 165.682 3.71373 2.24198 0
M  V30 1771 H 166.353 3.94694 3.85902 0
M  V30 1772 H 168.829 2.0337 3.63015 0
M  V30 1773 H 167.705 2.28651 4.99009 0
M  V30 1774 H 167.966 0.663555 4.37092 0
M  V30 1775 N 167.025 -1.13721 1.09112 0
M  V30 1776 C 168.302 -1.81155 0.737706 0
M  V30 1777 C 168.682 -1.96253 -0.777683 0
M  V30 1778 O 168.03 -1.52807 -1.69889 0
M  V30 1779 C 168.24 -3.16392 1.47299 0
M  V30 1780 C 169.588 -3.91787 1.63671 0
M  V30 1781 O 170.612 -3.26005 1.43524 0
M  V30 1782 O 169.471 -5.0977 1.96969 0
M  V30 1783 H 166.565 -0.783518 0.26463 0
M  V30 1784 H 169.111 -1.20676 1.19312 0
M  V30 1785 H 167.883 -3.0061 2.50498 0
M  V30 1786 H 167.506 -3.8457 1.00953 0
M  V30 1787 N 168.503 -0.877838 -1.30888 0
M  V30 1788 C 169.75 -0.492696 -1.96415 0
M  V30 1789 C 170.078 0.956671 -1.69346 0
M  V30 1790 O 169.333 1.68993 -0.986913 0
M  V30 1791 C 169.632 -0.705748 -3.50363 0
M  V30 1792 C 169.298 -2.1291 -3.97467 0
M  V30 1793 C 167.96 -2.51834 -4.1004 0
M  V30 1794 C 170.312 -3.05702 -4.22132 0
M  V30 1795 C 167.64 -3.82775 -4.44635 0
M  V30 1796 C 169.992 -4.36166 -4.58194 0
M  V30 1797 C 168.656 -4.74993 -4.68975 0
M  V30 1798 H 167.926 -0.18029 -0.718733 0
M  V30 1799 H 170.573 -1.11233 -1.55883 0
M  V30 1800 H 168.878 -0.00303058 -3.918 0
M  V30 1801 H 170.575 -0.387456 -3.99124 0
M  V30 1802 H 167.165 -1.81694 -3.88182 0
M  V30 1803 H 171.349 -2.76853 -4.11906 0
M  V30 1804 H 166.605 -4.12609 -4.51181 0
M  V30 1805 H 170.779 -5.08111 -4.76231 0
M  V30 1806 H 168.406 -5.76495 -4.95537 0
M  V30 1807 N 169.982 1.44106 -0.638065 0
M  V30 1808 C 171.228 2.02277 -0.145546 0
M  V30 1809 C 171.561 1.50125 1.23191 0
M  V30 1810 O 170.836 0.688133 1.8192 0
M  V30 1811 C 171.119 3.59829 -0.139791 0
M  V30 1812 C 170.972 4.22247 -1.55008 0
M  V30 1813 C 172.291 4.36873 0.531966 0
M  V30 1814 H 169.41 0.734992 -0.0543632 0
M  V30 1815 H 172.052 1.71592 -0.815863 0
M  V30 1816 H 170.202 3.86102 0.431007 0
M  V30 1817 H 171.874 4.07057 -2.1703 0
M  V30 1818 H 170.117 3.79476 -2.10191 0
M  V30 1819 H 170.788 5.31284 -1.49804 0
M  V30 1820 H 173.264 4.16074 0.0464781 0
M  V30 1821 H 172.14 5.4657 0.505206 0
M  V30 1822 H 172.401 4.11995 1.60352 0
M  V30 1823 N 171.46 0.379036 1.52974 0
M  V30 1824 C 172.37 -0.468639 2.29872 0
M  V30 1825 C 173.386 -1.08067 1.36373 0
M  V30 1826 O 174.562 -1.08871 1.69438 0
M  V30 1827 C 171.627 -1.58594 3.083 0
M  V30 1828 C 170.688 -1.00007 4.17489 0
M  V30 1829 C 169.921 -2.06413 4.92168 0
M  V30 1830 O 170.144 -3.27751 4.66835 0
M  V30 1831 O 169.078 -1.68717 5.7777 0
M  V30 1832 H 172.904 0.157508 3.03291 0
M  V30 1833 H 170.489 0.143035 1.48714 0
M  V30 1834 H 172.371 -2.23525 3.57232 0
M  V30 1835 H 171.046 -2.19724 2.37703 0
M  V30 1836 H 169.953 -0.314299 3.72777 0
M  V30 1837 H 171.286 -0.433135 4.90291 0
M  V30 1838 N 172.938 -1.57226 0.108567 0
M  V30 1839 C 173.868 -2.17778 -0.84232 0
M  V30 1840 C 174.849 -1.11487 -1.2847 0
M  V30 1841 O 176.034 -1.39681 -1.34918 0
M  V30 1842 C 173.164 -2.76888 -2.09644 0
M  V30 1843 C 172.118 -3.88669 -1.79221 0
M  V30 1844 C 171.444 -4.34541 -3.11574 0
M  V30 1845 C 172.744 -5.11251 -1.06864 0
M  V30 1846 H 174.438 -2.97489 -0.337774 0
M  V30 1847 H 171.984 -1.43097 -0.161025 0
M  V30 1848 H 173.937 -3.17904 -2.76614 0
M  V30 1849 H 172.661 -1.94451 -2.62405 0
M  V30 1850 H 171.32 -3.48213 -1.14644 0
M  V30 1851 H 170.968 -3.48977 -3.62249 0
M  V30 1852 H 170.668 -5.09914 -2.91996 0
M  V30 1853 H 172.192 -4.782 -3.7968 0
M  V30 1854 H 173.606 -5.49352 -1.63968 0
M  V30 1855 H 172.003 -5.9214 -0.974178 0
M  V30 1856 H 173.073 -4.8487 -0.0536168 0
M  V30 1857 N 174.416 0.165178 -1.56732 0
M  V30 1858 C 175.827 0.727046 -1.71962 0
M  V30 1859 C 176.178 1.82508 -0.720078 0
M  V30 1860 O 175.303 2.16082 0.117242 0
M  V30 1861 C 175.898 1.32559 -3.11791 0
M  V30 1862 C 174.457 1.83422 -3.28684 0
M  V30 1863 C 173.604 0.715567 -2.67908 0
M  V30 1864 H 176.555 -0.0602896 -1.58585 0
M  V30 1865 H 176.576 2.19533 -3.10782 0
M  V30 1866 H 176.088 0.526195 -3.84516 0
M  V30 1867 H 174.189 2.65986 -2.60926 0
M  V30 1868 H 174.302 1.97543 -4.36478 0
M  V30 1869 H 172.666 1.13758 -2.27884 0
M  V30 1870 H 173.449 -0.0720836 -3.43224 0
M  V30 1871 N 175.894 1.51508 0.433938 0
M  V30 1872 C 177.171 1.54888 1.19453 0
M  V30 1873 C 177.551 0.315154 2.08734 0
M  V30 1874 O 176.899 -0.699558 2.17528 0
M  V30 1875 C 177.109 2.86467 1.99342 0
M  V30 1876 C 178.457 3.38545 2.56267 0
M  V30 1877 O 179.481 2.88041 2.0955 0
M  V30 1878 O 178.34 4.26675 3.41483 0
M  V30 1879 H 175.434 0.622863 0.544032 0
M  V30 1880 H 177.98 1.63823 0.442732 0
M  V30 1881 H 176.752 3.67718 1.33788 0
M  V30 1882 H 176.375 2.8071 2.8158 0
M  V30 1883 N 177.372 -0.689602 1.41712 0
M  V30 1884 C 178.32 -1.82475 1.44242 0
M  V30 1885 C 179.314 -1.66354 0.319774 0
M  V30 1886 O 180.52 -1.73143 0.492089 0
M  V30 1887 H 176.895 -0.601416 0.451445 0
M  V30 1888 H 178.866 -1.77458 2.39899 0
M  V30 1889 C 177.615 -3.20535 1.3473 0
M  V30 1890 H 176.938 -3.33559 2.20405 0
M  V30 1891 H 178.378 -4.00023 1.40562 0
M  V30 1892 C 176.837 -3.36846 0.0603281 0
M  V30 1893 O 177.367 -3.91656 -0.892663 0
M  V30 1894 N 175.573 -2.90595 -0.0177039 0
M  V30 1895 H 175.12 -2.46178 0.758572 0
M  V30 1896 H 175.078 -3.01886 -0.878201 0
M  V30 1897 N 178.85 -1.27639 -0.924453 0
M  V30 1898 C 179.8 -1.07295 -2.01176 0
M  V30 1899 C 180.784 5.77352e-05 -1.609 0
M  V30 1900 O 181.976 -0.218855 -1.75642 0
M  V30 1901 C 179.105 -0.725592 -3.35544 0
M  V30 1902 C 178.191 -1.83691 -3.82254 0
M  V30 1903 N 178.582 -3.07697 -4.01443 0
M  V30 1904 C 176.88 -1.72433 -4.11319 0
M  V30 1905 C 177.581 -3.80037 -4.40394 0
M  V30 1906 N 176.557 -3.0782 -4.48049 0
M  V30 1907 H 180.359 -2.01399 -2.14046 0
M  V30 1908 H 177.873 -1.18401 -1.11153 0
M  V30 1909 H 179.87 -0.560959 -4.13109 0
M  V30 1910 H 178.53 0.207782 -3.24034 0
M  V30 1911 H 179.541 -3.43424 -3.8766 0
M  V30 1912 H 176.218 -0.862005 -4.08504 0
M  V30 1913 H 177.608 -4.86632 -4.63291 0
M  V30 1914 N 180.328 1.1314 -1.09713 0
M  V30 1915 C 181.553 1.88862 -0.857081 0
M  V30 1916 C 181.978 1.78729 0.586304 0
M  V30 1917 O 181.336 1.13692 1.41222 0
M  V30 1918 C 181.384 3.36325 -1.30069 0
M  V30 1919 O 180.488 4.09815 -0.461007 0
M  V30 1920 H 179.829 0.587108 -0.310162 0
M  V30 1921 H 182.359 1.43129 -1.46203 0
M  V30 1922 H 182.369 3.87157 -1.28738 0
M  V30 1923 H 181.044 3.43017 -2.35185 0
M  V30 1924 H 179.621 3.68986 -0.538888 0
M  V30 1925 N 181.806 0.884767 1.30421 0
M  V30 1926 C 183.031 0.517288 2.00845 0
M  V30 1927 C 183.456 -0.886779 1.65885 0
M  V30 1928 O 182.814 -1.58768 0.875354 0
M  V30 1929 C 182.862 0.698994 3.5376 0
M  V30 1930 O 181.966 -0.255208 4.1161 0
M  V30 1931 H 181.307 0.203872 0.631927 0
M  V30 1932 H 183.837 1.19225 1.66272 0
M  V30 1933 H 183.847 0.597912 4.03595 0
M  V30 1934 H 182.522 1.72271 3.78544 0
M  V30 1935 H 181.099 -0.10784 3.72744 0
M  V30 1936 N 183.284 -1.43765 0.645699 0
M  V30 1937 C 184.214 -2.33471 -0.0370477 0
M  V30 1938 C 185.195 -1.49042 -0.819779 0
M  V30 1939 O 186.38 -1.77726 -0.782758 0
M  V30 1940 C 183.51 -3.32311 -1.0093 0
M  V30 1941 C 182.464 -4.2667 -0.337201 0
M  V30 1942 C 181.79 -5.1549 -1.42037 0
M  V30 1943 C 183.09 -5.16657 0.765706 0
M  V30 1944 H 184.784 -2.90809 0.712069 0
M  V30 1945 H 182.33 -1.39834 0.343876 0
M  V30 1946 H 184.283 -3.9396 -1.49578 0
M  V30 1947 H 183.007 -2.73213 -1.78948 0
M  V30 1948 H 181.666 -3.66374 0.128771 0
M  V30 1949 H 181.314 -4.52735 -2.1918 0
M  V30 1950 H 181.014 -5.79438 -0.975966 0
M  V30 1951 H 182.538 -5.80012 -1.90838 0
M  V30 1952 H 183.952 -5.72158 0.361702 0
M  V30 1953 H 182.349 -5.89286 1.13413 0
M  V30 1954 H 183.419 -4.56796 1.62683 0
M  V30 1955 N 184.763 -0.387143 -1.52771 0
M  V30 1956 C 186.012 0.19697 -2.00736 0
M  V30 1957 C 186.325 1.48082 -1.27793 0
M  V30 1958 O 187.531 2.14485 -1.66458 0
M  V30 1959 C 185.987 0.401568 -3.57653 0
M  V30 1960 C 185.595 -0.868907 -4.39493 0
M  V30 1961 C 187.339 0.942164 -4.13912 0
M  V30 1962 C 185.246 -0.632705 -5.88006 0
M  V30 1963 H 184.176 0.0773827 -0.750019 0
M  V30 1964 H 186.827 -0.50921 -1.76293 0
M  V30 1965 H 185.209 1.16954 -3.78335 0
M  V30 1966 H 186.383 -1.64133 -4.30577 0
M  V30 1967 H 184.698 -1.33429 -3.94443 0
M  V30 1968 H 187.295 1.13455 -5.22525 0
M  V30 1969 H 187.638 1.9106 -3.69867 0
M  V30 1970 H 188.171 0.233814 -3.97112 0
M  V30 1971 H 184.91 -1.57208 -6.36369 0
M  V30 1972 H 184.43 0.100825 -5.99715 0
M  V30 1973 H 186.109 -0.26642 -6.46451 0
M  V30 1974 N 186.241 1.57166 -0.116904 0
M  V30 1975 C 187.471 1.99184 0.548586 0
M  V30 1976 C 187.879 0.995436 1.60897 0
M  V30 1977 O 187.222 -0.0201293 1.83689 0
M  V30 1978 C 187.284 3.37611 1.23526 0
M  V30 1979 C 186.948 4.55857 0.323077 0
M  V30 1980 C 187.945 5.18056 -0.437476 0
M  V30 1981 C 185.63 5.01751 0.234761 0
M  V30 1982 C 187.624 6.24536 -1.2741 0
M  V30 1983 C 185.311 6.08093 -0.605496 0
M  V30 1984 C 186.309 6.69352 -1.35856 0
M  V30 1985 O 185.997 7.7364 -2.18487 0
M  V30 1986 H 185.729 0.659148 0.149999 0
M  V30 1987 H 188.283 2.0443 -0.199428 0
M  V30 1988 H 186.513 3.29113 2.0303 0
M  V30 1989 H 188.202 3.63932 1.79745 0
M  V30 1990 H 188.968 4.83516 -0.379105 0
M  V30 1991 H 184.847 4.53817 0.810601 0
M  V30 1992 H 188.391 6.72281 -1.86237 0
M  V30 1993 H 184.288 6.42063 -0.665268 0
M  V30 1994 H 185.056 7.90727 -2.11406 0
M  V30 1995 N 187.719 -0.156864 1.56817 0
M  V30 1996 C 188.944 -0.890331 1.87318 0
M  V30 1997 C 189.369 -1.74394 0.704855 0
M  V30 1998 O 188.727 -1.77972 -0.345786 0
M  V30 1999 C 188.775 -1.73102 3.16336 0
M  V30 2000 O 187.879 -2.83422 2.99576 0
M  V30 2001 H 187.22 -0.24857 0.615718 0
M  V30 2002 H 189.75 -0.150649 2.04045 0
M  V30 2003 H 189.76 -2.12803 3.48107 0
M  V30 2004 H 188.435 -1.10412 4.00976 0
M  V30 2005 H 187.012 -2.47199 2.7919 0
M  V30 2006 N 189.197 -1.51736 -0.425897 0
M  V30 2007 C 190.145 -1.74464 -1.53834 0
M  V30 2008 C 191.139 -0.611241 -1.57988 0
M  V30 2009 O 192.345 -0.792899 -1.61596 0
M  V30 2010 H 188.72 -0.551437 -0.511293 0
M  V30 2011 H 190.691 -2.67694 -1.31843 0
M  V30 2012 C 189.44 -1.8972 -2.91379 0
M  V30 2013 H 188.763 -2.76344 -2.88919 0
M  V30 2014 H 190.203 -2.09629 -3.68553 0
M  V30 2015 C 188.662 -0.65992 -3.30374 0
M  V30 2016 O 189.192 0.180083 -4.01296 0
M  V30 2017 N 187.398 -0.500677 -2.86254 0
M  V30 2018 H 186.945 -1.18532 -2.28709 0
M  V30 2019 H 186.903 0.325903 -3.12706 0
M  V30 2020 N 190.675 0.682077 -1.42076 0
M  V30 2021 C 191.605 1.80796 -1.47767 0
M  V30 2022 C 192.586 1.6677 -0.334954 0
M  V30 2023 O 193.771 1.863 -0.548264 0
M  V30 2024 C 190.901 3.19038 -1.37229 0
M  V30 2025 C 189.855 3.47789 -2.49453 0
M  V30 2026 C 189.181 4.8553 -2.23975 0
M  V30 2027 C 190.481 3.45411 -3.91776 0
M  V30 2028 H 192.175 1.7629 -2.41997 0
M  V30 2029 H 189.721 0.846721 -1.16476 0
M  V30 2030 H 191.674 3.97528 -1.39821 0
M  V30 2031 H 190.398 3.24204 -0.394907 0
M  V30 2032 H 189.057 2.71657 -2.46166 0
M  V30 2033 H 188.705 4.87337 -1.24547 0
M  V30 2034 H 188.405 5.0573 -2.99184 0
M  V30 2035 H 189.929 5.66312 -2.28304 0
M  V30 2036 H 191.343 4.13882 -3.96705 0
M  V30 2037 H 189.74 3.77145 -4.66778 0
M  V30 2038 H 190.81 2.44122 -4.18966 0
M  V30 2039 N 192.153 1.28127 0.917671 0
M  V30 2040 C 193.083 1.14248 2.03641 0
M  V30 2041 C 194.064 0.0412748 1.7005 0
M  V30 2042 O 195.249 0.217566 1.92977 0
M  V30 2043 C 192.379 0.799431 3.37974 0
M  V30 2044 C 191.333 1.85497 3.85713 0
M  V30 2045 C 190.659 1.36565 5.16966 0
M  V30 2046 C 191.959 3.26085 4.08002 0
M  V30 2047 H 193.653 2.07835 2.15511 0
M  V30 2048 H 191.199 1.00064 1.03553 0
M  V30 2049 H 193.152 0.689114 4.15727 0
M  V30 2050 H 191.876 -0.172145 3.26146 0
M  V30 2051 H 190.535 1.95437 3.10161 0
M  V30 2052 H 190.183 0.383253 5.01538 0
M  V30 2053 H 189.883 2.07143 5.49878 0
M  V30 2054 H 191.407 1.26848 5.97279 0
M  V30 2055 H 192.821 3.19089 4.76293 0
M  V30 2056 H 191.218 3.94462 4.52238 0
M  V30 2057 H 192.288 3.70394 3.12948 0
M  V30 2058 N 193.631 -1.12557 1.10312 0
M  V30 2059 C 194.871 -1.8568 0.854543 0
M  V30 2060 C 195.235 -1.82091 -0.608843 0
M  V30 2061 O 196.436 -2.50544 -0.973717 0
M  V30 2062 C 194.707 -3.2942 1.38626 0
M  V30 2063 S 196.266 -4.19931 1.27293 0
M  V30 2064 H 193.084 -0.640427 0.308827 0
M  V30 2065 H 195.686 -1.35599 1.40831 0
M  V30 2066 H 194.39 -3.2959 2.44537 0
M  V30 2067 H 193.921 -3.84566 0.82902 0
M  V30 2068 H 195.936 -4.95668 0.229776 0
M  V30 2069 N 195.109 -0.891671 -1.2995 0
M  V30 2070 C 196.357 -0.512486 -1.95494 0
M  V30 2071 C 196.678 0.942776 -1.70695 0
M  V30 2072 O 195.948 1.66374 -1.03424 0
M  V30 2073 H 194.528 -0.186533 -0.723336 0
M  V30 2074 H 197.19 -1.13621 -1.58355 0
M  V30 2075 H 196.286 -0.688342 -3.04415 0
M  V30 2076 N 196.587 1.43421 -0.653314 0
M  V30 2077 C 197.833 2.02111 -0.166992 0
M  V30 2078 C 198.166 1.51423 1.21592 0
M  V30 2079 O 197.441 0.707389 1.8118 0
M  V30 2080 C 197.724 3.5966 -0.177948 0
M  V30 2081 C 197.577 4.20579 -1.59478 0
M  V30 2082 C 198.896 4.37413 0.4856 0
M  V30 2083 H 196.015 0.734374 -0.0621557 0
M  V30 2084 H 198.657 1.70717 -0.834016 0
M  V30 2085 H 196.807 3.86537 0.390032 0
M  V30 2086 H 198.479 4.04732 -2.21336 0
M  V30 2087 H 196.722 3.77226 -2.14204 0
M  V30 2088 H 197.393 5.29665 -1.5543 0
M  V30 2089 H 199.869 4.161 0.00234528 0
M  V30 2090 H 198.745 5.47075 0.447207 0
M  V30 2091 H 199.006 4.13672 1.55974 0
M  V30 2092 N 198.065 0.39524 1.52563 0
M  V30 2093 C 198.995 -0.428384 2.29537 0
M  V30 2094 C 199.976 -1.05831 1.33169 0
M  V30 2095 O 201.161 -1.06995 1.62067 0
M  V30 2096 C 198.291 -1.55274 3.10656 0
M  V30 2097 C 197.245 -1.04855 4.14957 0
M  V30 2098 C 196.571 -2.26543 4.84337 0
M  V30 2099 C 197.871 -0.112324 5.22179 0
M  V30 2100 H 199.565 0.213867 2.98635 0
M  V30 2101 H 197.111 0.104298 1.43622 0
M  V30 2102 H 199.064 -2.1358 3.63265 0
M  V30 2103 H 197.788 -2.22266 2.39302 0
M  V30 2104 H 196.447 -0.487985 3.63338 0
M  V30 2105 H 196.095 -2.92059 4.09525 0
M  V30 2106 H 195.795 -1.93466 5.54837 0
M  V30 2107 H 197.319 -2.85481 5.39753 0
M  V30 2108 H 198.733 -0.603752 5.70112 0
M  V30 2109 H 197.13 0.128968 5.99961 0
M  V30 2110 H 198.2 0.837052 4.77621 0
M  V30 2111 N 199.544 -1.57102 0.125237 0
M  V30 2112 C 200.96 -1.57915 -0.231322 0
M  V30 2113 C 201.16 -1.13833 -1.66266 0
M  V30 2114 O 200.216 -0.828581 -2.38518 0
M  V30 2115 C 201.529 -3.00699 0.00766489 0
M  V30 2116 C 203.077 -3.12947 -0.0577483 0
M  V30 2117 C 203.552 -4.57742 0.153626 0
M  V30 2118 N 205.043 -4.63092 0.0998073 0
M  V30 2119 C 205.778 -5.72905 0.238174 0
M  V30 2120 N 205.274 -6.91445 0.433057 0
M  V30 2121 N 207.067 -5.6182 0.177308 0
M  V30 2122 H 199.218 -1.84055 1.06007 0
M  V30 2123 H 201.481 -0.850905 0.417929 0
M  V30 2124 H 201.187 -3.3726 0.997431 0
M  V30 2125 H 201.061 -3.70236 -0.721452 0
M  V30 2126 H 203.448 -2.7624 -1.03804 0
M  V30 2127 H 203.529 -2.4594 0.70335 0
M  V30 2128 H 203.173 -4.95149 1.13092 0
M  V30 2129 H 203.103 -5.22848 -0.627534 0
M  V30 2130 H 205.594 -3.77871 -0.047051 0
M  V30 2131 H 205.907 -7.70985 0.529332 0
M  V30 2132 H 204.252 -6.93415 0.469109 0
M  V30 2133 H 207.443 -4.68093 0.0259748 0
M  V30 2134 H 207.616 -6.47357 0.288582 0
M  V30 2135 N 201.022 0.148545 -1.56898 0
M  V30 2136 C 202.27 0.859717 -1.82902 0
M  V30 2137 C 202.591 1.81775 -0.70588 0
M  V30 2138 O 201.861 1.93994 0.272586 0
M  V30 2139 H 200.441 0.320469 -0.674766 0
M  V30 2140 H 203.103 0.142918 -1.94375 0
M  V30 2141 H 202.199 1.4229 -2.77777 0
M  V30 2142 N 202.5 1.5196 0.417844 0
M  V30 2143 C 203.463 1.74065 1.49111 0
M  V30 2144 C 204.463 0.610537 1.48758 0
M  V30 2145 O 205.653 0.87832 1.50437 0
M  V30 2146 C 202.785 1.81502 2.88565 0
M  V30 2147 H 203.978 2.69869 1.30807 0
M  V30 2148 H 201.531 1.42244 0.647785 0
M  V30 2149 H 202.266 0.875813 3.1225 0
M  V30 2150 H 202.051 2.63651 2.90225 0
M  V30 2151 H 203.541 2.00376 3.66387 0
M  V30 2152 N 203.978 -0.674533 1.42435 0
M  V30 2153 C 204.908 -1.80009 1.48724 0
M  V30 2154 C 205.889 -1.6659 0.343793 0
M  V30 2155 O 207.074 -1.86007 0.558137 0
M  V30 2156 C 204.204 -3.18306 1.38919 0
M  V30 2157 C 203.158 -3.46461 2.51294 0
M  V30 2158 C 202.484 -4.84335 2.26547 0
M  V30 2159 C 203.784 -3.43328 3.93603 0
M  V30 2160 H 205.478 -1.75004 2.42928 0
M  V30 2161 H 203.024 -0.840533 1.16923 0
M  V30 2162 H 204.977 -3.9678 1.41927 0
M  V30 2163 H 203.701 -3.2399 0.412094 0
M  V30 2164 H 202.36 -2.70348 2.47604 0
M  V30 2165 H 202.008 -4.86669 1.2713 0
M  V30 2166 H 201.708 -5.04136 3.01861 0
M  V30 2167 H 203.232 -5.65094 2.31304 0
M  V30 2168 H 204.646 -4.11772 3.98894 0
M  V30 2169 H 203.043 -3.74664 4.68771 0
M  V30 2170 H 204.113 -2.41897 4.20255 0
M  V30 2171 N 205.456 -1.28612 -0.910864 0
M  V30 2172 C 206.366 -1.14643 -2.0468 0
M  V30 2173 C 207.382 -0.0723121 -1.7385 0
M  V30 2174 O 208.558 -0.282178 -1.99413 0
M  V30 2175 C 205.623 -0.812561 -3.37044 0
M  V30 2176 C 204.684 -1.96935 -3.81465 0
M  V30 2177 C 203.917 -1.65131 -5.07511 0
M  V30 2178 O 204.14 -0.567013 -5.67575 0
M  V30 2179 O 203.074 -2.49585 -5.47714 0
M  V30 2180 H 206.9 -2.1001 -2.19384 0
M  V30 2181 H 204.485 -1.07958 -1.03274 0
M  V30 2182 H 206.367 -0.640441 -4.16505 0
M  V30 2183 H 205.042 0.111426 -3.23508 0
M  V30 2184 H 203.949 -2.19664 -3.02818 0
M  V30 2185 H 205.282 -2.87414 -3.99567 0
M  V30 2186 N 206.934 1.1197 -1.10907 0
M  V30 2187 C 207.867 2.16998 -0.706192 0
M  V30 2188 C 208.845 1.59903 0.294897 0
M  V30 2189 O 210.029 1.87513 0.192636 0
M  V30 2190 C 207.156 3.38673 -0.0427664 0
M  V30 2191 C 206.202 4.14414 -1.00811 0
M  V30 2192 S 207.035 4.72079 -2.52789 0
M  V30 2193 C 208.191 5.97083 -1.87731 0
M  V30 2194 H 208.424 2.50837 -1.59587 0
M  V30 2195 H 205.957 1.23508 -0.926555 0
M  V30 2196 H 207.915 4.09142 0.333668 0
M  V30 2197 H 206.576 3.03105 0.823788 0
M  V30 2198 H 205.769 5.016 -0.491259 0
M  V30 2199 H 205.371 3.49678 -1.3267 0
M  V30 2200 H 207.663 6.66599 -1.21044 0
M  V30 2201 H 208.606 6.53403 -2.72892 0
M  V30 2202 H 209.014 5.4837 -1.33979 0
M  V30 2203 N 208.412 0.89855 1.29475 0
M  V30 2204 C 209.658 0.524658 1.95896 0
M  V30 2205 C 209.991 -0.926468 1.70676 0
M  V30 2206 O 209.266 -1.65665 1.01908 0
M  V30 2207 C 209.549 0.81633 3.50725 0
M  V30 2208 C 209.402 2.31907 3.85408 0
M  V30 2209 C 210.721 0.302038 4.39062 0
M  V30 2210 H 207.84 0.19209 0.711527 0
M  V30 2211 H 210.482 1.12502 1.53112 0
M  V30 2212 H 208.632 0.305369 3.87298 0
M  V30 2213 H 210.304 2.89949 3.58786 0
M  V30 2214 H 208.547 2.78027 3.32992 0
M  V30 2215 H 209.218 2.47373 4.93468 0
M  V30 2216 H 211.694 0.739551 4.09475 0
M  V30 2217 H 210.57 0.535331 5.46283 0
M  V30 2218 H 210.831 -0.797216 4.34853 0
M  V30 2219 N 209.89 -1.43072 0.660911 0
M  V30 2220 C 210.822 -2.29108 -0.0647641 0
M  V30 2221 C 211.835 -1.42928 -0.779448 0
M  V30 2222 O 213.024 -1.66788 -0.635921 0
M  V30 2223 C 210.124 -3.20032 -1.11503 0
M  V30 2224 C 209.297 -4.34792 -0.476955 0
M  V30 2225 C 208.356 -5.06534 -1.42513 0
M  V30 2226 O 207.382 -5.61538 -0.930771 0
M  V30 2227 N 208.584 -5.1075 -2.75889 0
M  V30 2228 H 211.349 -2.92029 0.673731 0
M  V30 2229 H 208.91 -1.53846 0.50427 0
M  V30 2230 H 210.902 -3.64892 -1.75032 0
M  V30 2231 H 209.472 -2.58658 -1.75541 0
M  V30 2232 H 208.692 -3.92752 0.337572 0
M  V30 2233 H 209.98 -5.0879 -0.0318525 0
M  V30 2234 H 209.378 -4.67447 -3.18606 0
M  V30 2235 H 207.935 -5.59302 -3.347 0
M  V30 2236 N 211.368 -0.403325 -1.52352 0
M  V30 2237 C 212.301 0.469463 -2.23319 0
M  V30 2238 C 213.279 1.05272 -1.23922 0
M  V30 2239 O 214.463 1.10169 -1.52954 0
M  V30 2240 C 211.59 1.6511 -2.9573 0
M  V30 2241 C 210.636 1.19178 -4.0951 0
M  V30 2242 S 211.469 0.161718 -5.35256 0
M  V30 2243 C 212.625 1.34882 -6.11194 0
M  V30 2244 H 212.858 -0.133134 -2.97002 0
M  V30 2245 H 210.391 -0.187588 -1.53256 0
M  V30 2246 H 212.349 2.3287 -3.38056 0
M  V30 2247 H 211.01 2.22503 -2.21701 0
M  V30 2248 H 210.203 2.07444 -4.59329 0
M  V30 2249 H 209.805 0.592911 -3.6927 0
M  V30 2250 H 212.097 2.27345 -6.38217 0
M  V30 2251 H 213.04 0.89128 -7.02468 0
M  V30 2252 H 213.448 1.57198 -5.42171 0
M  V30 2253 N 212.846 1.57033 -0.133567 0
M  V30 2254 C 213.809 2.14897 0.796995 0
M  V30 2255 C 214.809 1.0874 1.18458 0
M  V30 2256 O 215.999 1.34446 1.1077 0
M  V30 2257 C 213.131 2.70112 2.07973 0
M  V30 2258 H 214.324 2.98457 0.293873 0
M  V30 2259 H 211.877 1.55871 0.115787 0
M  V30 2260 H 212.612 1.9018 2.62682 0
M  V30 2261 H 212.397 3.47764 1.81115 0
M  V30 2262 H 213.887 3.14738 2.74462 0
M  V30 2263 N 214.325 -0.140222 1.56975 0
M  V30 2264 C 215.571 -0.852949 1.83991 0
M  V30 2265 C 215.904 -1.80512 0.716187 0
M  V30 2266 O 215.179 -1.92479 -0.279681 0
M  V30 2267 C 215.462 -1.6215 3.21527 0
M  V30 2268 C 215.315 -0.690363 4.4447 0
M  V30 2269 C 216.634 -2.58247 3.56366 0
M  V30 2270 H 213.753 -0.308634 0.669264 0
M  V30 2271 H 216.395 -0.117898 1.89634 0
M  V30 2272 H 214.545 -2.24812 3.16847 0
M  V30 2273 H 216.217 -0.0742264 4.6124 0
M  V30 2274 H 214.46 -0.000396433 4.338 0
M  V30 2275 H 215.131 -1.2643 5.37326 0
M  V30 2276 H 217.607 -2.05701 3.61699 0
M  V30 2277 H 216.483 -3.09067 4.53617 0
M  V30 2278 H 216.744 -3.39923 2.82674 0
M  V30 2279 N 215.803 -1.52179 -0.40978 0
M  V30 2280 C 216.713 -1.78364 -1.52392 0
M  V30 2281 C 217.729 -0.669183 -1.60617 0
M  V30 2282 O 218.905 -0.954518 -1.77344 0
M  V30 2283 C 215.97 -1.92822 -2.88133 0
M  V30 2284 C 215.031 -3.16725 -2.898 0
M  V30 2285 C 214.264 -3.30483 -4.19067 0
M  V30 2286 O 214.487 -2.49522 -5.12928 0
M  V30 2287 O 213.421 -4.2363 -4.27576 0
M  V30 2288 H 217.247 -2.72931 -1.33201 0
M  V30 2289 H 214.832 -1.37016 -0.59557 0
M  V30 2290 H 216.714 -2.04157 -3.68643 0
M  V30 2291 H 215.389 -1.01444 -3.07393 0
M  V30 2292 H 214.296 -3.10848 -2.08146 0
M  V30 2293 H 215.629 -4.07881 -2.75489 0
M  V30 2294 N 217.281 0.66697 -1.42791 0
M  V30 2295 C 218.244 1.76211 -1.46568 0
M  V30 2296 C 219.244 1.56896 -0.352196 0
M  V30 2297 O 220.434 1.63044 -0.613364 0
M  V30 2298 C 217.566 3.14935 -1.30494 0
M  V30 2299 H 218.759 1.74247 -2.44086 0
M  V30 2300 H 216.312 0.877342 -1.29354 0
M  V30 2301 H 217.047 3.2252 -0.339301 0
M  V30 2302 H 216.832 3.30359 -2.11199 0
M  V30 2303 H 218.322 3.94821 -1.36038 0
M  V30 2304 N 218.759 1.29093 0.90403 0
M  V30 2305 C 219.706 1.13853 2.00764 0
M  V30 2306 C 220.676 0.0330084 1.66067 0
M  V30 2307 O 221.861 0.199733 1.89752 0
M  V30 2308 C 219.001 0.816537 3.35301 0
M  V30 2309 C 218.114 2.00206 3.82807 0
M  V30 2310 C 217.249 1.61983 5.059 0
M  V30 2311 C 216.288 2.77143 5.45764 0
M  V30 2312 N 215.425 2.39346 6.60044 0
M  V30 2313 H 220.265 2.08276 2.13132 0
M  V30 2314 H 217.802 1.03648 1.04381 0
M  V30 2315 H 219.76 0.610557 4.12708 0
M  V30 2316 H 218.39 -0.090779 3.22672 0
M  V30 2317 H 217.442 2.31988 3.01473 0
M  V30 2318 H 218.754 2.86512 4.08304 0
M  V30 2319 H 217.908 1.37649 5.90879 0
M  V30 2320 H 216.647 0.728202 4.82233 0
M  V30 2321 H 215.652 3.02165 4.59322 0
M  V30 2322 H 216.877 3.66964 5.71414 0
M  V30 2323 H 214.823 1.52665 6.37989 0
M  V30 2324 H 214.74 3.19185 6.85315 0
M  V30 2325 H 216.008 2.1832 7.48303 0
M  V30 2326 N 220.237 -1.11381 1.11499 0
M  V30 2327 C 221.484 -1.83132 0.864231 0
M  V30 2328 C 221.812 -1.84683 -0.610114 0
M  V30 2329 O 221.067 -1.29589 -1.46646 0
M  V30 2330 C 221.366 -3.30026 1.37177 0
M  V30 2331 C 221.032 -3.48634 2.85946 0
M  V30 2332 C 219.694 -3.53421 3.26569 0
M  V30 2333 C 222.046 -3.54837 3.81759 0
M  V30 2334 C 219.374 -3.61967 4.61733 0
M  V30 2335 C 221.726 -3.64915 5.1674 0
M  V30 2336 C 220.39 -3.67962 5.5692 0
M  V30 2337 H 219.66 -0.670127 0.316245 0
M  V30 2338 H 222.307 -1.31354 1.3935 0
M  V30 2339 H 220.612 -3.84304 0.762753 0
M  V30 2340 H 222.309 -3.84034 1.15408 0
M  V30 2341 H 218.899 -3.45579 2.53521 0
M  V30 2342 H 223.083 -3.50399 3.51474 0
M  V30 2343 H 218.339 -3.62603 4.92269 0
M  V30 2344 H 222.513 -3.68658 5.90816 0
M  V30 2345 H 220.14 -3.74336 6.61647 0
M  V30 2346 N 221.715 -0.905404 -1.28997 0
M  V30 2347 C 222.961 -0.535039 -1.95615 0
M  V30 2348 C 223.294 0.917404 -1.71165 0
M  V30 2349 O 222.569 1.65123 -1.02785 0
M  V30 2350 C 222.852 -0.834918 -3.50287 0
M  V30 2351 C 222.705 -2.33948 -3.84172 0
M  V30 2352 C 224.024 -0.325318 -4.38896 0
M  V30 2353 H 221.143 -0.195861 -0.710498 0
M  V30 2354 H 223.785 -1.13313 -1.52513 0
M  V30 2355 H 221.935 -0.325904 -3.87131 0
M  V30 2356 H 223.607 -2.91847 -3.57243 0
M  V30 2357 H 221.85 -2.79789 -3.31513 0
M  V30 2358 H 222.521 -2.49987 -4.92149 0
M  V30 2359 H 224.997 -0.761256 -4.09077 0
M  V30 2360 H 223.873 -0.564295 -5.45992 0
M  V30 2361 H 224.134 0.774144 -4.35269 0
M  V30 2362 N 223.193 1.4272 -0.668489 0
M  V30 2363 C 224.125 2.2914 0.052613 0
M  V30 2364 C 225.138 1.43339 0.771857 0
M  V30 2365 O 226.327 1.67123 0.627067 0
M  V30 2366 C 223.427 3.20618 1.09804 0
M  V30 2367 C 222.6 4.35039 0.45389 0
M  V30 2368 C 221.659 5.07282 1.39825 0
M  V30 2369 O 220.685 5.62024 0.900978 0
M  V30 2370 N 221.887 5.12206 2.73176 0
M  V30 2371 H 224.652 2.91668 -0.689209 0
M  V30 2372 H 222.213 1.53577 -0.512422 0
M  V30 2373 H 224.205 3.65815 1.73094 0
M  V30 2374 H 222.775 2.59585 1.74167 0
M  V30 2375 H 221.995 3.92567 -0.358396 0
M  V30 2376 H 223.283 5.088 0.00486972 0
M  V30 2377 H 222.681 4.6913 3.16122 0
M  V30 2378 H 221.238 5.61069 3.31729 0
M  V30 2379 N 224.671 0.411399 1.52136 0
M  V30 2380 C 225.948 -0.222308 1.94333 0
M  V30 2381 C 226.328 -1.6242 1.34844 0
M  V30 2382 O 225.676 -2.22384 0.525145 0
M  V30 2383 C 225.886 -0.226345 3.48265 0
M  V30 2384 C 227.234 -0.444592 4.22266 0
M  V30 2385 O 228.258 -0.305602 3.54887 0
M  V30 2386 O 227.117 -0.718749 5.41753 0
M  V30 2387 H 224.211 -0.143907 0.814383 0
M  V30 2388 H 226.757 0.467506 1.63133 0
M  V30 2389 H 225.529 0.75475 3.83952 0
M  V30 2390 H 225.152 -0.960163 3.85832 0
M  V30 2391 N 226.149 -1.5696 0.141893 0
M  V30 2392 C 227.377 -2.00322 -0.517579 0
M  V30 2393 C 227.792 -1.02193 -1.58752 0
M  V30 2394 O 227.149 -0.0181619 -1.82491 0
M  V30 2395 C 227.2 -3.43618 -1.12289 0
M  V30 2396 O 226.921 -4.37995 -0.0956929 0
M  V30 2397 C 228.422 -4.02231 -1.86347 0
M  V30 2398 H 225.642 -0.657243 -0.135177 0
M  V30 2399 H 228.186 -2.03146 0.234973 0
M  V30 2400 H 226.341 -3.41662 -1.82609 0
M  V30 2401 H 226.755 -5.21729 -0.538469 0
M  V30 2402 H 228.229 -5.04509 -2.23997 0
M  V30 2403 H 228.706 -3.42655 -2.74744 0
M  V30 2404 H 229.312 -4.07802 -1.20737 0
M  V30 2405 N 227.627 0.131896 -1.57047 0
M  V30 2406 C 228.557 1.16384 -2.02428 0
M  V30 2407 C 229.538 1.43936 -0.90644 0
M  V30 2408 O 230.723 1.54599 -1.17528 0
M  V30 2409 C 227.853 2.49328 -2.4177 0
M  V30 2410 C 226.807 2.36266 -3.56879 0
M  V30 2411 C 226.133 3.74057 -3.8208 0
M  V30 2412 C 227.433 1.834 -4.89042 0
M  V30 2413 H 229.127 0.786433 -2.88887 0
M  V30 2414 H 226.673 0.376855 -1.38981 0
M  V30 2415 H 228.626 3.21759 -2.7212 0
M  V30 2416 H 227.35 2.88934 -1.52266 0
M  V30 2417 H 226.009 1.66286 -3.26718 0
M  V30 2418 H 225.657 4.11125 -2.89803 0
M  V30 2419 H 225.357 3.66174 -4.59554 0
M  V30 2420 H 226.881 4.48012 -4.1487 0
M  V30 2421 H 228.295 2.45636 -5.18011 0
M  V30 2422 H 226.692 1.8637 -5.70426 0
M  V30 2423 H 227.762 0.790662 -4.7841 0
M  V30 2424 N 229.106 1.52395 0.401703 0
M  V30 2425 C 230.053 1.76268 1.48991 0
M  V30 2426 C 231.023 0.605386 1.54675 0
M  V30 2427 O 232.208 0.843742 1.7113 0
M  V30 2428 C 229.348 1.92592 2.86361 0
M  V30 2429 C 228.461 3.20259 2.89928 0
M  V30 2430 C 227.596 3.26972 4.18644 0
M  V30 2431 C 226.635 4.48812 4.16214 0
M  V30 2432 N 225.772 4.52877 5.36514 0
M  V30 2433 H 230.612 2.6914 1.27935 0
M  V30 2434 H 228.149 1.33355 0.620871 0
M  V30 2435 H 230.107 2.0004 3.66115 0
M  V30 2436 H 228.737 1.03093 3.05895 0
M  V30 2437 H 227.789 3.21945 2.02621 0
M  V30 2438 H 229.101 4.10056 2.83999 0
M  V30 2439 H 228.255 3.33533 5.06794 0
M  V30 2440 H 226.994 2.35126 4.27278 0
M  V30 2441 H 225.999 4.4239 3.26453 0
M  V30 2442 H 227.224 5.41961 4.09213 0
M  V30 2443 H 225.17 3.63917 5.45802 0
M  V30 2444 H 225.087 5.36529 5.32609 0
M  V30 2445 H 226.355 4.63676 6.26597 0
M  V30 2446 N 230.584 -0.659388 1.43143 0
M  V30 2447 C 231.832 -1.41654 1.44147 0
M  V30 2448 C 232.153 -1.94893 0.0645739 0
M  V30 2449 O 231.423 -1.74044 -0.899198 0
M  V30 2450 H 230.003 -0.525708 0.530697 0
M  V30 2451 H 232.665 -0.778097 1.78694 0
M  V30 2452 H 231.761 -2.26195 2.1504 0
M  V30 2453 N 232.062 -1.29571 -0.897171 0
M  V30 2454 C 233.339 -1.08365 -1.62839 0
M  V30 2455 C 233.719 0.371331 -2.07808 0
M  V30 2456 O 233.067 1.3606 -1.83576 0
M  V30 2457 C 233.277 -2.0735 -2.80726 0
M  V30 2458 C 234.625 -2.38406 -3.51351 0
M  V30 2459 O 235.649 -2.05564 -2.90898 0
M  V30 2460 O 234.508 -2.9453 -4.60341 0
M  V30 2461 H 231.602 -0.415345 -0.715134 0
M  V30 2462 H 234.148 -1.40952 -0.945018 0
M  V30 2463 H 232.92 -3.05339 -2.44711 0
M  V30 2464 H 232.543 -1.75507 -3.56767 0
M  V30 2465 N 233.54 1.10788 -1.12088 0
M  V30 2466 C 234.788 1.8231 -0.872205 0
M  V30 2467 C 235.109 1.85419 0.603709 0
M  V30 2468 O 234.379 1.32963 1.43867 0
M  V30 2469 H 232.959 0.675137 -0.319686 0
M  V30 2470 H 235.621 1.34068 -1.41463 0
M  V30 2471 H 234.717 2.85955 -1.25045 0
M  V30 2472 N 235.018 0.912232 1.28515 0
M  V30 2473 C 236.264 0.545405 1.95328 0
M  V30 2474 C 236.597 -0.908313 1.71649 0
M  V30 2475 O 235.872 -1.64575 1.03659 0
M  V30 2476 C 236.155 0.853483 3.4984 0
M  V30 2477 C 236.008 2.35982 3.82926 0
M  V30 2478 C 237.327 0.348589 4.38717 0
M  V30 2479 H 234.446 0.199626 0.709449 0
M  V30 2480 H 237.088 1.1412 1.5191 0
M  V30 2481 H 235.238 0.34643 3.86952 0
M  V30 2482 H 236.91 2.93738 3.55691 0
M  V30 2483 H 235.153 2.81543 3.30024 0
M  V30 2484 H 235.824 2.52593 4.90816 0
M  V30 2485 H 238.3 0.78294 4.08668 0
M  V30 2486 H 237.176 0.593242 5.45685 0
M  V30 2487 H 237.437 -0.751049 4.35674 0
M  V30 2488 N 236.496 -1.42363 0.676048 0
M  V30 2489 C 237.724 -2.05859 0.207268 0
M  V30 2490 C 238.139 -1.50796 -1.13605 0
M  V30 2491 O 237.496 -0.648265 -1.70598 0
M  V30 2492 C 237.547 -3.61248 0.134975 0
M  V30 2493 O 237.268 -4.1427 1.42521 0
M  V30 2494 C 238.769 -4.41859 -0.357151 0
M  V30 2495 H 235.989 -0.663431 0.100503 0
M  V30 2496 H 238.533 -1.82479 0.923136 0
M  V30 2497 H 236.688 -3.83735 -0.531588 0
M  V30 2498 H 237.102 -5.0815 1.29939 0
M  V30 2499 H 238.576 -5.50847 -0.356641 0
M  V30 2500 H 239.053 -4.16536 -1.39264 0
M  V30 2501 H 239.659 -4.24392 0.27772 0
M  V30 2502 N 237.974 -0.419461 -1.51915 0
M  V30 2503 C 238.884 0.407528 -2.31033 0
M  V30 2504 C 239.9 1.04413 -1.3919 0
M  V30 2505 O 241.076 1.0434 -1.72265 0
M  V30 2506 C 238.141 1.50365 -3.12396 0
M  V30 2507 C 237.202 0.889029 -4.19994 0
M  V30 2508 C 236.435 1.93291 -4.97468 0
M  V30 2509 O 236.658 3.15259 -4.75361 0
M  V30 2510 O 235.592 1.53339 -5.8204 0
M  V30 2511 H 239.418 -0.237865 -3.02767 0
M  V30 2512 H 237.003 -0.182413 -1.48282 0
M  V30 2513 H 238.885 2.13975 -3.63032 0
M  V30 2514 H 237.56 2.13345 -2.43445 0
M  V30 2515 H 236.467 0.215353 -3.7348 0
M  V30 2516 H 237.8 0.302991 -4.91267 0
M  V30 2517 N 239.452 1.56882 -0.150215 0
M  V30 2518 C 240.701 1.95403 0.500071 0
M  V30 2519 C 241.014 1.03777 1.658 0
M  V30 2520 O 242.22 1.31889 2.37313 0
M  V30 2521 C 240.676 3.4738 0.941018 0
M  V30 2522 C 240.284 4.47596 -0.190158 0
M  V30 2523 C 242.028 3.9476 1.56091 0
M  V30 2524 C 239.935 5.90787 0.269237 0
M  V30 2525 H 238.865 0.729515 0.190588 0
M  V30 2526 H 241.516 1.81988 -0.235074 0
M  V30 2527 H 239.898 3.56138 1.73152 0
M  V30 2528 H 241.072 4.50536 -0.967157 0
M  V30 2529 H 239.387 4.10151 -0.718666 0
M  V30 2530 H 241.984 4.99181 1.9163 0
M  V30 2531 H 242.327 3.36494 2.45107 0
M  V30 2532 H 242.86 3.88932 0.835249 0
M  V30 2533 H 239.599 6.52879 -0.585621 0
M  V30 2534 H 239.119 5.912 1.01204 0
M  V30 2535 H 240.798 6.42979 0.720176 0
M  V30 2536 N 240.93 -0.123565 1.57115 0
M  V30 2537 C 242.346 -0.476961 1.52306 0
M  V30 2538 C 242.546 -1.82109 0.86248 0
M  V30 2539 O 241.602 -2.48586 0.442884 0
M  V30 2540 C 242.915 -0.465661 2.97073 0
M  V30 2541 C 244.463 -0.549534 3.08138 0
M  V30 2542 C 244.938 -0.568669 4.54456 0
M  V30 2543 N 246.429 -0.630237 4.58892 0
M  V30 2544 C 247.164 -0.666415 5.69514 0
M  V30 2545 N 246.66 -0.660514 6.89644 0
M  V30 2546 N 248.453 -0.709077 5.5761 0
M  V30 2547 H 240.604 0.757198 1.98445 0
M  V30 2548 H 242.867 0.278808 0.906074 0
M  V30 2549 H 242.573 0.454232 3.48754 0
M  V30 2550 H 242.447 -1.29513 3.54269 0
M  V30 2551 H 244.834 -1.45985 2.56461 0
M  V30 2552 H 244.915 0.307532 2.53945 0
M  V30 2553 H 244.559 0.337581 5.06777 0
M  V30 2554 H 244.489 -1.44256 5.06456 0
M  V30 2555 H 246.98 -0.641146 3.72421 0
M  V30 2556 H 247.293 -0.690616 7.69708 0
M  V30 2557 H 245.638 -0.628012 6.92157 0
M  V30 2558 H 248.829 -0.711019 4.62668 0
M  V30 2559 H 249.002 -0.733804 6.43832 0
M  V30 2560 N 242.408 -1.52605 -0.393616 0
M  V30 2561 C 243.341 -1.71798 -1.50202 0
M  V30 2562 C 244.319 -0.565743 -1.52441 0
M  V30 2563 O 245.503 -0.794987 -1.70916 0
M  V30 2564 C 242.63 -1.7714 -2.88685 0
M  V30 2565 C 241.676 -2.98845 -3.04292 0
M  V30 2566 S 242.509 -4.58909 -2.75976 0
M  V30 2567 C 243.665 -4.6706 -4.1666 0
M  V30 2568 H 243.898 -2.65542 -1.33696 0
M  V30 2569 H 241.431 -1.42839 -0.586195 0
M  V30 2570 H 243.389 -1.80903 -3.68489 0
M  V30 2571 H 242.05 -0.844969 -3.02521 0
M  V30 2572 H 241.243 -2.99111 -4.05646 0
M  V30 2573 H 240.845 -2.9305 -2.32374 0
M  V30 2574 H 243.137 -4.45391 -5.10523 0
M  V30 2575 H 244.08 -5.6905 -4.21412 0
M  V30 2576 H 244.488 -3.95944 -4.02354 0
M  V30 2577 N 243.887 0.651787 -1.4349 0
M  V30 2578 C 245.303 0.96762 -1.26922 0
M  V30 2579 C 245.503 2.00602 -0.189982 0
M  V30 2580 O 244.559 2.48793 0.431107 0
M  V30 2581 C 245.872 1.45052 -2.63401 0
M  V30 2582 C 247.42 1.5671 -2.70945 0
M  V30 2583 C 247.895 2.0839 -4.07845 0
M  V30 2584 N 249.386 2.1569 -4.09917 0
M  V30 2585 C 250.121 2.56804 -5.12679 0
M  V30 2586 N 249.617 2.97203 -6.25813 0
M  V30 2587 N 251.41 2.56756 -5.00033 0
M  V30 2588 H 243.561 -0.0353158 -2.12371 0
M  V30 2589 H 245.824 0.0467858 -0.946845 0
M  V30 2590 H 245.53 0.761926 -3.43348 0
M  V30 2591 H 245.404 2.42529 -2.88894 0
M  V30 2592 H 247.791 2.2467 -1.9133 0
M  V30 2593 H 247.872 0.57662 -2.49216 0
M  V30 2594 H 247.516 1.41031 -4.87927 0
M  V30 2595 H 247.446 3.08271 -4.26938 0
M  V30 2596 H 249.937 1.87237 -3.28254 0
M  V30 2597 H 250.25 3.27328 -7.00055 0
M  V30 2598 H 248.595 2.95004 -6.29283 0
M  V30 2599 H 251.786 2.24572 -4.10713 0
M  V30 2600 H 251.959 2.88475 -5.80247 0
M  V30 2601 N 245.365 1.30045 0.890287 0
M  V30 2602 C 246.612 1.18561 1.64163 0
M  V30 2603 C 246.94 -0.260852 1.92743 0
M  V30 2604 O 246.195 -1.20376 1.54299 0
M  V30 2605 C 246.494 1.95409 2.99249 0
M  V30 2606 C 246.16 3.45066 2.90242 0
M  V30 2607 C 244.822 3.85878 2.87492 0
M  V30 2608 C 247.174 4.4039 2.78758 0
M  V30 2609 C 244.502 5.20314 2.7109 0
M  V30 2610 C 246.854 5.74928 2.63894 0
M  V30 2611 C 245.518 6.14986 2.59516 0
M  V30 2612 H 244.788 0.433846 0.600715 0
M  V30 2613 H 247.435 1.61088 1.03552 0
M  V30 2614 H 245.74 1.45501 3.63781 0
M  V30 2615 H 247.437 1.8392 3.56334 0
M  V30 2616 H 244.027 3.12631 2.93189 0
M  V30 2617 H 248.211 4.09806 2.79952 0
M  V30 2618 H 243.467 5.50449 2.66112 0
M  V30 2619 H 247.641 6.48434 2.53981 0
M  V30 2620 H 245.268 7.19104 2.46565 0
M  V30 2621 N 246.843 -1.10192 1.12674 0
M  V30 2622 C 248.092 -1.81573 0.8783 0
M  V30 2623 C 248.405 -1.86249 -0.597557 0
M  V30 2624 O 249.611 -2.5386 -0.962681 0
M  V30 2625 C 248.067 -3.26149 1.52167 0
M  V30 2626 C 247.675 -3.29763 3.03249 0
M  V30 2627 C 249.419 -4.0234 1.3536 0
M  V30 2628 C 247.326 -4.68815 3.60508 0
M  V30 2629 H 246.256 -0.680394 0.324931 0
M  V30 2630 H 248.907 -1.23902 1.35353 0
M  V30 2631 H 247.289 -3.83832 0.974104 0
M  V30 2632 H 248.463 -2.8189 3.6452 0
M  V30 2633 H 246.778 -2.67059 3.19481 0
M  V30 2634 H 249.375 -5.05058 1.75559 0
M  V30 2635 H 249.718 -4.15235 0.297554 0
M  V30 2636 H 250.251 -3.51079 1.87052 0
M  V30 2637 H 246.99 -4.61121 4.65884 0
M  V30 2638 H 246.51 -5.17045 3.04014 0
M  V30 2639 H 248.189 -5.37785 3.59717 0
M  V30 2640 N 248.321 -0.919034 -1.28029 0
M  V30 2641 C 249.737 -0.617972 -1.4715 0
M  V30 2642 C 249.937 0.835242 -1.83374 0
M  V30 2643 O 248.993 1.61388 -1.94191 0
M  V30 2644 C 250.306 -1.56041 -2.57044 0
M  V30 2645 C 251.854 -1.56769 -2.7091 0
M  V30 2646 C 252.329 -2.49688 -3.83953 0
M  V30 2647 N 253.82 -2.47845 -3.91314 0
M  V30 2648 C 254.555 -3.16437 -4.78179 0
M  V30 2649 N 254.051 -3.94376 -5.69596 0
M  V30 2650 N 255.844 -3.05498 -4.71834 0
M  V30 2651 H 247.995 -1.85866 -1.02798 0
M  V30 2652 H 250.258 -0.797506 -0.512531 0
M  V30 2653 H 249.964 -2.59671 -2.372 0
M  V30 2654 H 249.838 -1.29551 -3.54255 0
M  V30 2655 H 252.225 -0.538745 -2.90141 0
M  V30 2656 H 252.306 -1.87305 -1.74214 0
M  V30 2657 H 251.95 -3.52688 -3.65477 0
M  V30 2658 H 251.88 -2.16453 -4.80058 0
M  V30 2659 H 254.371 -1.91234 -3.25941 0
M  V30 2660 H 254.684 -4.43721 -6.32718 0
M  V30 2661 H 253.029 -3.98481 -5.69419 0
M  V30 2662 H 256.22 -2.44108 -3.99411 0
M  V30 2663 H 256.393 -3.59225 -5.39316 0
M  V30 2664 N 249.799 1.42003 -0.683588 0
M  V30 2665 C 251.215 1.55625 -0.353976 0
M  V30 2666 C 251.415 1.66151 1.14 0
M  V30 2667 O 250.471 1.63329 1.92561 0
M  V30 2668 C 251.784 2.80171 -1.092 0
M  V30 2669 C 253.332 2.93954 -1.07518 0
M  V30 2670 C 253.807 4.21372 -1.79471 0
M  V30 2671 N 255.298 4.28303 -1.76381 0
M  V30 2672 C 256.033 5.25729 -2.28904 0
M  V30 2673 N 255.529 6.29254 -2.89846 0
M  V30 2674 N 257.322 5.17586 -2.19228 0
M  V30 2675 H 249.473 1.33415 -1.6527 0
M  V30 2676 H 251.736 0.64282 -0.696769 0
M  V30 2677 H 251.442 2.78561 -2.14701 0
M  V30 2678 H 251.316 3.7133 -0.662862 0
M  V30 2679 H 253.703 2.95086 -0.028475 0
M  V30 2680 H 253.784 2.04002 -1.54328 0
M  V30 2681 H 253.428 4.21001 -2.84114 0
M  V30 2682 H 253.358 5.10275 -1.30104 0
M  V30 2683 H 255.849 3.54119 -1.31939 0
M  V30 2684 H 256.162 6.99964 -3.27522 0
M  V30 2685 H 254.507 6.29791 -2.93919 0
M  V30 2686 H 257.698 4.35631 -1.71299 0
M  V30 2687 H 257.871 5.93348 -2.60466 0
M  V30 2688 N 251.277 0.427512 1.51691 0
M  V30 2689 C 252.526 -0.143679 2.01188 0
M  V30 2690 C 252.839 -1.44642 1.31674 0
M  V30 2691 O 254.045 -2.09997 1.72086 0
M  V30 2692 C 252.501 -0.306602 3.58592 0
M  V30 2693 C 252.109 0.985125 4.37035 0
M  V30 2694 C 253.853 -0.832091 4.16265 0
M  V30 2695 C 251.76 0.788382 5.86122 0
M  V30 2696 H 250.69 -0.0574701 0.751807 0
M  V30 2697 H 253.341 0.555772 1.74881 0
M  V30 2698 H 251.723 -1.06882 3.81303 0
M  V30 2699 H 252.897 1.75492 4.26074 0
M  V30 2700 H 251.212 1.4384 3.90767 0
M  V30 2701 H 253.809 -0.995617 5.25349 0
M  V30 2702 H 254.152 -1.81186 3.74803 0
M  V30 2703 H 254.685 -0.128444 3.97593 0
M  V30 2704 H 251.424 1.74025 6.31978 0
M  V30 2705 H 250.944 0.0582143 5.99772 0
M  V30 2706 H 252.623 0.437722 6.45518 0
M  V30 2707 N 252.755 -1.56801 0.158532 0
M  V30 2708 C 253.665 -2.20916 -0.789518 0
M  V30 2709 C 254.681 -1.1969 -1.26294 0
M  V30 2710 O 255.857 -1.52308 -1.31773 0
M  V30 2711 C 252.922 -2.82727 -2.00665 0
M  V30 2712 C 251.983 -3.99114 -1.58134 0
M  V30 2713 C 251.216 -4.57968 -2.74045 0
M  V30 2714 O 251.439 -4.15704 -3.90572 0
M  V30 2715 O 250.373 -5.48047 -2.48855 0
M  V30 2716 H 254.199 -3.02464 -0.273681 0
M  V30 2717 H 251.784 -1.4924 -0.0690548 0
M  V30 2718 H 253.666 -3.21968 -2.71872 0
M  V30 2719 H 252.341 -2.04184 -2.51179 0
M  V30 2720 H 251.248 -3.64567 -0.839155 0
M  V30 2721 H 252.581 -4.79212 -1.12325 0
M  V30 2722 N 254.233 0.115231 -1.57178 0
M  V30 2723 C 255.51 0.852873 -1.76027 0
M  V30 2724 C 255.89 1.97892 -0.73498 0
M  V30 2725 O 255.238 2.27232 0.24036 0
M  V30 2726 C 255.448 1.36608 -3.21153 0
M  V30 2727 C 256.796 1.81692 -3.83762 0
M  V30 2728 O 257.82 1.46278 -3.24779 0
M  V30 2729 O 256.679 2.47104 -4.87444 0
M  V30 2730 H 253.773 0.405296 -0.720877 0
M  V30 2731 H 256.319 0.0986785 -1.69413 0
M  V30 2732 H 255.091 0.558357 -3.87296 0
M  V30 2733 H 254.714 2.18287 -3.3232 0
M  V30 2734 N 255.711 1.52812 0.385517 0
M  V30 2735 C 256.659 1.78482 1.49155 0
M  V30 2736 C 257.653 0.652914 1.56312 0
M  V30 2737 O 258.859 0.835464 1.59436 0
M  V30 2738 H 255.234 0.5648 0.496493 0
M  V30 2739 H 257.205 2.71095 1.24699 0
M  V30 2740 C 255.954 1.97378 2.86247 0
M  V30 2741 H 255.277 2.83907 2.81491 0
M  V30 2742 H 256.717 2.19327 3.62866 0
M  V30 2743 C 255.176 0.74728 3.28508 0
M  V30 2744 O 255.706 -0.0736232 4.01633 0
M  V30 2745 N 253.912 0.576396 2.84826 0
M  V30 2746 H 253.459 1.24555 2.25486 0
M  V30 2747 H 253.417 -0.24288 3.1346 0
M  V30 2748 N 257.189 -0.644168 1.43834 0
M  V30 2749 C 258.119 -1.76814 1.52509 0
M  V30 2750 C 259.1 -1.65823 0.379052 0
M  V30 2751 O 260.285 -1.84781 0.597466 0
M  V30 2752 C 257.415 -3.15288 1.4564 0
M  V30 2753 C 256.369 -3.41053 2.58586 0
M  V30 2754 C 255.695 -4.79421 2.36769 0
M  V30 2755 C 256.995 -3.34902 4.00797 0
M  V30 2756 H 258.689 -1.69812 2.46586 0
M  V30 2757 H 256.235 -0.815542 1.1868 0
M  V30 2758 H 258.188 -3.93681 1.50311 0
M  V30 2759 H 256.912 -3.23043 0.480725 0
M  V30 2760 H 255.571 -2.65035 2.53282 0
M  V30 2761 H 255.219 -4.83863 1.37424 0
M  V30 2762 H 254.919 -4.9762 3.12487 0
M  V30 2763 H 256.443 -5.6006 2.43238 0
M  V30 2764 H 257.857 -4.03218 4.07539 0
M  V30 2765 H 256.254 -3.64637 4.76613 0
M  V30 2766 H 257.324 -2.32928 4.25291 0
M  V30 2767 N 258.668 -1.30515 -0.883378 0
M  V30 2768 C 260.079 -1.17509 -1.45081 0
M  V30 2769 C 260.43 0.223605 -1.94922 0
M  V30 2770 O 259.555 1.12041 -1.85137 0
M  V30 2771 C 260.15 -2.12715 -2.63701 0
M  V30 2772 C 258.709 -2.03682 -3.16529 0
M  V30 2773 C 257.856 -2.02706 -1.89224 0
M  V30 2774 H 260.807 -1.42762 -0.693165 0
M  V30 2775 H 260.828 -1.70891 -3.39965 0
M  V30 2776 H 260.34 -3.14505 -2.27395 0
M  V30 2777 H 258.441 -1.05039 -3.57488 0
M  V30 2778 H 258.554 -2.92146 -3.7972 0
M  V30 2779 H 256.918 -1.4753 -2.07622 0
M  V30 2780 H 257.701 -3.06229 -1.55174 0
M  V30 2781 N 260.146 1.09593 -1.13257 0
M  V30 2782 C 261.109 2.14359 -0.811358 0
M  V30 2783 C 262.109 1.59808 0.178377 0
M  V30 2784 O 263.299 1.74132 -0.0484911 0
M  V30 2785 C 260.431 3.40269 -0.207276 0
M  V30 2786 H 261.624 2.44284 -1.73969 0
M  V30 2787 H 259.177 1.25102 -0.936973 0
M  V30 2788 H 259.912 3.15969 0.73036 0
M  V30 2789 H 259.697 3.81154 -0.919992 0
M  V30 2790 H 261.187 4.176 0.000667944 0
M  V30 2791 N 261.624 0.925811 1.2754 0
M  V30 2792 C 262.872 0.564138 1.94067 0
M  V30 2793 C 263.193 -0.897188 1.73134 0
M  V30 2794 O 262.463 -1.63573 1.07799 0
M  V30 2795 H 261.043 0.205645 0.718136 0
M  V30 2796 H 263.705 1.1778 1.55287 0
M  V30 2797 H 262.801 0.76881 3.02483 0
M  V30 2798 N 263.102 -1.41638 0.69111 0
M  V30 2799 C 264.012 -2.34588 0.0233487 0
M  V30 2800 C 265.028 -1.55987 -0.770984 0
M  V30 2801 O 266.204 -1.88486 -0.709569 0
M  V30 2802 C 263.269 -3.34684 -0.904851 0
M  V30 2803 C 262.33 -4.29176 -0.103225 0
M  V30 2804 C 261.563 -5.2449 -0.987216 0
M  V30 2805 O 261.786 -5.2514 -2.22674 0
M  V30 2806 O 260.72 -6.00295 -0.439281 0
M  V30 2807 H 264.546 -2.93261 0.789416 0
M  V30 2808 H 262.131 -1.42417 0.45142 0
M  V30 2809 H 264.013 -3.96133 -1.43724 0
M  V30 2810 H 262.688 -2.78461 -1.65049 0
M  V30 2811 H 261.595 -3.71089 0.473655 0
M  V30 2812 H 262.928 -4.88484 0.60365 0
M  V30 2813 N 264.58 -0.43555 -1.51462 0
M  V30 2814 C 265.49 0.383001 -2.31453 0
M  V30 2815 C 266.506 1.02931 -1.4029 0
M  V30 2816 O 267.682 1.02507 -1.73362 0
M  V30 2817 C 264.747 1.47043 -3.13973 0
M  V30 2818 C 263.808 0.844433 -4.20913 0
M  V30 2819 C 263.041 1.88004 -4.9949 0
M  V30 2820 O 263.264 3.10199 -4.78678 0
M  V30 2821 O 262.198 1.47157 -5.83634 0
M  V30 2822 H 266.024 -0.269964 -3.02498 0
M  V30 2823 H 263.609 -0.19813 -1.4808 0
M  V30 2824 H 265.491 2.10113 -3.65281 0
M  V30 2825 H 264.166 2.10751 -2.45695 0
M  V30 2826 H 263.073 0.175729 -3.73687 0
M  V30 2827 H 264.406 0.250869 -4.9156 0
M  V30 2828 O 266.097 1.58538 -0.30787 0
M  V30 2829 H 266.788 1.9201 0.255316 0
M  V30 END ATOM
M  V30 BEGIN BOND
M  V30 END BOND
M  V30 END CTAB
M  END
$$$$
