drugbank_drug|DB08885  Protein sequence for aflibercept
 OpenBabel12092119113D

  0  0  0     0  0            999 V3000
M  V30 BEGIN CTAB
M  V30 COUNTS 6816 6899 0 0 0
M  V30 BEGIN ATOM
M  V30 1 H -0.908 1.98254 -0.117106 0
M  V30 2 N 0 1.576 0 0
M  V30 3 C 1.225 1.95249 0.699468 0
M  V30 4 C 1.65 0.874934 1.66513 0
M  V30 5 O 1.008 -0.166929 1.8053 0
M  V30 6 C 1.056 3.31994 1.40756 0
M  V30 7 O 0.16 3.26298 2.52197 0
M  V30 8 H -0.499 0.637402 0.186051 0
M  V30 9 H 2.031 2.04531 -0.05319 0
M  V30 10 H 2.041 3.6756 1.77098 0
M  V30 11 H 0.716 4.09975 0.69953 0
M  V30 12 H -0.707 3.02408 2.18183 0
M  V30 13 N 1.4781 -0.272755 1.55222 0
M  V30 14 C 2.7551 -1.02562 1.66555 0
M  V30 15 C 3.1351 -2.04282 0.532189 0
M  V30 16 O 2.4831 -2.23662 -0.467717 0
M  V30 17 C 2.6931 -1.6822 3.05782 0
M  V30 18 C 4.0411 -2.19373 3.63539 0
M  V30 19 O 5.0651 -1.78206 3.08417 0
M  V30 20 O 3.9241 -2.94883 4.60115 0
M  V30 21 H 1.0181 -0.475755 0.676451 0
M  V30 22 H 3.5641 -0.268593 1.67561 0
M  V30 23 H 2.3361 -0.945112 3.79715 0
M  V30 24 H 1.9591 -2.50609 3.08676 0
M  V30 25 N 2.9562 -1.48159 -0.537278 0
M  V30 26 C 4.1842 -1.59454 -1.31841 0
M  V30 27 C 4.5992 -0.252065 -1.8711 0
M  V30 28 O 3.9562 0.757621 -1.66031 0
M  V30 29 C 4.0072 -2.63546 -2.47439 0
M  V30 30 O 3.7282 -3.92583 -1.94449 0
M  V30 31 C 5.2292 -2.85212 -3.39366 0
M  V30 32 H 2.4492 -0.53785 -0.401196 0
M  V30 33 H 4.9932 -1.93932 -0.648891 0
M  V30 34 H 3.1482 -2.31946 -3.1029 0
M  V30 35 H 3.5622 -4.49629 -2.70063 0
M  V30 36 H 5.0362 -3.61863 -4.16844 0
M  V30 37 H 5.5132 -1.93765 -3.94147 0
M  V30 38 H 6.1192 -3.18086 -2.82314 0
M  V30 39 N 4.4343 0.785586 -1.36625 0
M  V30 40 C 5.6823 1.54057 -1.30808 0
M  V30 41 C 6.0033 1.94683 0.111157 0
M  V30 42 O 5.2733 1.65241 1.05224 0
M  V30 43 H 3.8533 0.571354 -0.481211 0
M  V30 44 H 6.5153 0.935821 -1.70963 0
M  V30 45 H 5.6113 2.44637 -1.93801 0
M  V30 46 N 5.9124 1.20967 1.01018 0
M  V30 47 C 7.3284 0.965905 1.27053 0
M  V30 48 C 7.5284 -0.350785 1.98423 0
M  V30 49 O 6.5844 -1.07773 2.28344 0
M  V30 50 C 7.8974 2.15294 2.09926 0
M  V30 51 C 9.4454 2.19463 2.23171 0
M  V30 52 C 9.9204 3.3767 3.09424 0
M  V30 53 N 11.4114 3.37724 3.17012 0
M  V30 54 C 12.1464 4.25837 3.83993 0
M  V30 55 N 11.6424 5.24138 4.53047 0
M  V30 56 N 13.4354 4.1366 3.80581 0
M  V30 57 H 5.5864 2.0565 0.531194 0
M  V30 58 H 7.8494 0.90024 0.297106 0
M  V30 59 H 7.5554 3.10684 1.64828 0
M  V30 60 H 7.4294 2.13923 3.10672 0
M  V30 61 H 9.8164 1.24632 2.6749 0
M  V30 62 H 9.8974 2.2488 1.21912 0
M  V30 63 H 9.5414 4.32791 2.65808 0
M  V30 64 H 9.4714 3.29491 4.10784 0
M  V30 65 H 11.9624 2.6658 2.6785 0
M  V30 66 H 12.2754 5.87684 5.01844 0
M  V30 67 H 10.6204 5.28068 4.5185 0
M  V30 68 H 13.8114 3.36127 3.25785 0
M  V30 69 H 13.9844 4.82538 4.32505 0
M  V30 70 N 7.3905 -1.2043 1.01659 0
M  V30 71 C 8.8015 -1.71517 0.737482 0
M  V30 72 C 9.1525 -1.81547 -0.743973 0
M  V30 73 O 8.2775 -1.47803 -1.58061 0
M  V30 74 C 8.8725 -3.11515 1.33206 0
M  V30 75 C 7.4315 -3.59912 1.10183 0
M  V30 76 C 6.5785 -2.37116 1.43776 0
M  V30 77 H 9.5295 -1.05444 1.18606 0
M  V30 78 H 9.5505 -3.73575 0.722636 0
M  V30 79 H 9.0625 -3.04182 2.41028 0
M  V30 80 H 7.1635 -3.72577 0.0412756 0
M  V30 81 H 7.2765 -4.44731 1.78188 0
M  V30 82 H 5.6405 -2.39857 0.856778 0
M  V30 83 H 6.4235 -2.32424 2.52654 0
M  V30 84 N 8.8686 -0.792821 -1.36206 0
M  V30 85 C 10.1156 -0.366786 -1.99151 0
M  V30 86 C 10.4436 1.06243 -1.62919 0
M  V30 87 O 9.6986 1.74927 -0.877442 0
M  V30 88 C 9.9976 -0.481501 -3.54142 0
M  V30 89 C 9.6636 -1.87202 -4.10203 0
M  V30 90 C 8.3256 -2.25248 -4.25226 0
M  V30 91 C 10.6776 -2.78237 -4.40719 0
M  V30 92 C 8.0056 -3.53723 -4.68078 0
M  V30 93 C 10.3576 -4.06144 -4.85005 0
M  V30 94 C 9.0216 -4.44207 -4.98234 0
M  V30 95 H 8.2916 -0.134217 -0.728743 0
M  V30 96 H 10.9386 -1.01094 -1.62641 0
M  V30 97 H 9.2436 0.246146 -3.91026 0
M  V30 98 H 10.9406 -0.132844 -4.0078 0
M  V30 99 H 7.5306 -1.56639 -3.98951 0
M  V30 100 H 11.7146 -2.50097 -4.28679 0
M  V30 101 H 6.9706 -3.8308 -4.76508 0
M  V30 102 H 11.1446 -4.76796 -5.07581 0
M  V30 103 H 8.7716 -5.43814 -5.31197 0
M  V30 104 N 10.3467 1.47872 -0.545128 0
M  V30 105 C 11.5927 2.02793 -0.0166104 0
M  V30 106 C 11.9257 1.41987 1.32489 0
M  V30 107 O 11.2007 0.571045 1.85928 0
M  V30 108 C 11.4837 3.59989 0.0893294 0
M  V30 109 C 11.3367 4.3125 -1.27841 0
M  V30 110 C 12.6557 4.32606 0.808724 0
M  V30 111 H 9.7747 0.736962 -0.00751035 0
M  V30 112 H 12.4167 1.76433 -0.705085 0
M  V30 113 H 10.5667 3.82579 0.675681 0
M  V30 114 H 12.2387 4.20035 -1.90704 0
M  V30 115 H 10.4817 3.92076 -1.85632 0
M  V30 116 H 11.1527 5.39736 -1.15713 0
M  V30 117 H 13.6287 4.14936 0.310992 0
M  V30 118 H 12.5047 5.42251 0.851782 0
M  V30 119 H 12.7657 4.00963 1.86229 0
M  V30 120 N 11.8248 0.280983 1.55075 0
M  V30 121 C 12.7348 -0.61388 2.26426 0
M  V30 122 C 13.7508 -1.16521 1.29224 0
M  V30 123 O 14.9268 -1.19426 1.62171 0
M  V30 124 C 11.9918 -1.7788 2.9759 0
M  V30 125 C 11.0528 -1.26355 4.10284 0
M  V30 126 C 10.2858 -2.37295 4.78045 0
M  V30 127 O 10.5088 -3.56777 4.45047 0
M  V30 128 O 9.4428 -2.05119 5.65871 0
M  V30 129 H 13.2688 -0.0356932 3.03679 0
M  V30 130 H 10.8538 0.0481686 1.49322 0
M  V30 131 H 12.7358 -2.45791 3.42293 0
M  V30 132 H 11.4108 -2.34397 2.23249 0
M  V30 133 H 10.3178 -0.550735 3.70024 0
M  V30 134 H 11.6508 -0.744065 4.86543 0
M  V30 135 N 13.3029 -1.57598 0.00835791 0
M  V30 136 C 14.2359 -2.04409 -1.01451 0
M  V30 137 C 15.2139 -0.935609 -1.32985 0
M  V30 138 O 16.3979 -1.20437 -1.45007 0
M  V30 139 C 13.5249 -2.44872 -2.33999 0
M  V30 140 C 12.5709 -3.66535 -2.18069 0
M  V30 141 S 13.4039 -5.14095 -1.4989 0
M  V30 142 C 14.5599 -5.57835 -2.8385 0
M  V30 143 H 14.7929 -2.90849 -0.615961 0
M  V30 144 H 12.3259 -1.53063 -0.202752 0
M  V30 145 H 14.2839 -2.68852 -3.10208 0
M  V30 146 H 12.9449 -1.58815 -2.70992 0
M  V30 147 H 12.1379 -3.92626 -3.16008 0
M  V30 148 H 11.7399 -3.426 -1.50004 0
M  V30 149 H 14.0319 -5.60806 -3.80136 0
M  V30 150 H 14.9749 -6.57667 -2.62449 0
M  V30 151 H 15.3829 -4.85421 -2.88144 0
M  V30 152 N 14.781 0.264519 -1.55364 0
M  V30 153 C 16.011 1.01153 -1.80143 0
M  V30 154 C 16.419 1.80115 -0.579253 0
M  V30 155 O 15.762 1.77813 0.46132 0
M  V30 156 C 15.824 2.01098 -2.97993 0
M  V30 157 C 15.488 1.40995 -4.34706 0
M  V30 158 C 16.485 0.821316 -5.13372 0
M  V30 159 C 14.17 1.43461 -4.81378 0
M  V30 160 C 16.164 0.265339 -6.36847 0
M  V30 161 C 13.851 0.874771 -6.04807 0
M  V30 162 C 14.849 0.291146 -6.82379 0
M  V30 163 O 14.537 -0.260093 -8.03479 0
M  V30 164 H 14.269 0.304125 -0.603725 0
M  V30 165 H 16.823 0.298089 -2.03225 0
M  V30 166 H 15.053 2.76224 -2.70623 0
M  V30 167 H 16.742 2.61997 -3.1002 0
M  V30 168 H 17.508 0.794903 -4.78442 0
M  V30 169 H 13.387 1.87826 -4.21002 0
M  V30 170 H 16.931 -0.190837 -6.97339 0
M  V30 171 H 12.828 0.898452 -6.39217 0
M  V30 172 H 13.596 -0.150265 -8.18362 0
M  V30 173 N 16.2591 1.48442 0.529413 0
M  V30 174 C 17.4841 1.60406 1.31471 0
M  V30 175 C 17.9091 0.264738 1.86228 0
M  V30 176 O 17.2671 -0.763668 1.64432 0
M  V30 177 C 17.3151 2.65419 2.44101 0
M  V30 178 O 16.4191 2.22618 3.47153 0
M  V30 179 H 15.7601 0.537863 0.389357 0
M  V30 180 H 18.2901 1.94432 0.636965 0
M  V30 181 H 18.3001 2.86709 2.90279 0
M  V30 182 H 16.9751 3.62652 2.03608 0
M  V30 183 H 15.5521 2.11543 3.0709 0
M  V30 184 N 17.7372 -0.778329 1.37039 0
M  V30 185 C 18.6472 -1.92253 1.34446 0
M  V30 186 C 19.6632 -1.72267 0.244991 0
M  V30 187 O 20.8392 -1.95615 0.479258 0
M  V30 188 C 17.9042 -3.27282 1.144 0
M  V30 189 C 16.9652 -3.59969 2.33925 0
M  V30 190 C 16.1982 -4.88555 2.14825 0
M  V30 191 O 16.4212 -5.59113 1.12912 0
M  V30 192 O 15.3552 -5.20153 3.02861 0
M  V30 193 H 19.1812 -1.97392 2.30803 0
M  V30 194 H 16.7662 -0.920154 1.17701 0
M  V30 195 H 18.6482 -4.08062 1.05182 0
M  V30 196 H 17.3232 -3.23011 0.211124 0
M  V30 197 H 16.2302 -2.7945 2.48714 0
M  V30 198 H 17.5632 -3.68976 3.25757 0
M  V30 199 N 19.2153 -1.21501 -1.00376 0
M  V30 200 C 20.4643 -1.02718 -1.73586 0
M  V30 201 C 20.7773 0.439589 -1.90596 0
M  V30 202 O 21.9833 0.746848 -2.61026 0
M  V30 203 C 20.4393 -1.78929 -3.1227 0
M  V30 204 C 20.0473 -3.29783 -3.03228 0
M  V30 205 C 21.7913 -1.68557 -3.89601 0
M  V30 206 C 19.6983 -3.98479 -4.36999 0
M  V30 207 H 18.6283 -0.380733 -0.650814 0
M  V30 208 H 21.2793 -1.45248 -1.1214 0
M  V30 209 H 19.6613 -1.29192 -3.74333 0
M  V30 210 H 20.8353 -3.86832 -2.50395 0
M  V30 211 H 19.1503 -3.40711 -2.39385 0
M  V30 212 H 21.7473 -2.17211 -4.88593 0
M  V30 213 H 22.0903 -0.644021 -4.11288 0
M  V30 214 H 22.6233 -2.15778 -3.34193 0
M  V30 215 H 19.3623 -5.02841 -4.20513 0
M  V30 216 H 18.8823 -3.46219 -4.89788 0
M  V30 217 H 20.5613 -4.03462 -5.05794 0
M  V30 218 N 20.6934 1.19889 -1.02296 0
M  V30 219 C 22.1044 1.71124 -0.746568 0
M  V30 220 C 22.4554 1.81939 0.734335 0
M  V30 221 O 21.5804 1.48639 1.57275 0
M  V30 222 C 22.1754 3.10804 -1.34857 0
M  V30 223 C 20.7344 3.59323 -1.1209 0
M  V30 224 C 19.8814 2.3635 -1.45031 0
M  V30 225 H 22.8324 1.04813 -1.19163 0
M  V30 226 H 22.8534 3.73186 -0.742437 0
M  V30 227 H 22.3654 3.029 -2.42638 0
M  V30 228 H 20.4664 3.7255 -0.0610337 0
M  V30 229 H 20.5794 4.4378 -1.80544 0
M  V30 230 H 18.9434 2.39399 -0.869487 0
M  V30 231 H 19.7264 2.31081 -2.53883 0
M  V30 232 N 22.1715 0.800033 1.35784 0
M  V30 233 C 23.0815 0.207204 2.33683 0
M  V30 234 C 24.0975 -0.64631 1.61551 0
M  V30 235 O 25.2735 -0.559604 1.93469 0
M  V30 236 C 22.3385 -0.639659 3.40748 0
M  V30 237 C 21.3995 0.233585 4.28664 0
M  V30 238 C 20.6325 -0.572954 5.30616 0
M  V30 239 O 20.8555 -1.80816 5.40982 0
M  V30 240 O 19.7895 0.0327285 6.01891 0
M  V30 241 H 23.6155 1.01692 2.86169 0
M  V30 242 H 21.2005 0.561691 1.38439 0
M  V30 243 H 23.0825 -1.12223 4.06182 0
M  V30 244 H 21.7575 -1.42708 2.90544 0
M  V30 245 H 20.6645 0.763147 3.66233 0
M  V30 246 H 21.9975 0.984784 4.82248 0
M  V30 247 N 23.6496 -1.47581 0.552962 0
M  V30 248 C 24.8986 -2.01684 0.0251995 0
M  V30 249 C 25.2116 -1.43317 -1.33115 0
M  V30 250 O 26.4176 -1.89057 -1.94858 0
M  V30 251 C 24.8736 -3.599 -0.00542052 0
M  V30 252 C 24.4816 -4.27257 1.34742 0
M  V30 253 C 26.2256 -4.21768 -0.4808 0
M  V30 254 C 24.1326 -5.77467 1.27614 0
M  V30 255 H 23.0626 -0.753979 0.00565033 0
M  V30 256 H 25.7136 -1.69616 0.70018 0
M  V30 257 H 24.0956 -3.88911 -0.745961 0
M  V30 258 H 25.2696 -4.09893 2.10534 0
M  V30 259 H 23.5846 -3.77358 1.76039 0
M  V30 260 H 26.1816 -5.31838 -0.55246 0
M  V30 261 H 26.5246 -3.88651 -1.49184 0
M  V30 262 H 27.0576 -3.97273 0.204752 0
M  V30 263 H 23.7966 -6.15196 2.26304 0
M  V30 264 H 23.3166 -5.9718 0.55996 0
M  V30 265 H 24.9956 -6.3959 0.976421 0
M  V30 266 N 25.1277 -0.289203 -1.54924 0
M  V30 267 C 26.3767 0.324231 -1.99077 0
M  V30 268 C 26.6897 1.5591 -1.18117 0
M  V30 269 O 27.8957 2.24637 -1.52481 0
M  V30 270 C 26.3517 0.628209 -3.54375 0
M  V30 271 C 25.9597 -0.587647 -4.44129 0
M  V30 272 C 27.7037 1.20349 -4.07083 0
M  V30 273 C 25.6107 -0.257475 -5.90839 0
M  V30 274 H 24.5407 0.124924 -0.743579 0
M  V30 275 H 27.1917 -0.396063 -1.79175 0
M  V30 276 H 25.5737 1.40778 -3.70132 0
M  V30 277 H 26.7477 -1.36418 -4.40144 0
M  V30 278 H 25.0627 -1.08074 -4.0213 0
M  V30 279 H 27.6597 1.46456 -5.14252 0
M  V30 280 H 28.0027 2.14195 -3.56968 0
M  V30 281 H 28.5357 0.485889 -3.94821 0
M  V30 282 H 25.2747 -1.16419 -6.45079 0
M  V30 283 H 24.7947 0.482018 -5.9786 0
M  V30 284 H 26.4737 0.145238 -6.46837 0
M  V30 285 N 26.6058 1.57591 -0.0167156 0
M  V30 286 C 27.5558 2.05953 0.978137 0
M  V30 287 C 28.5398 0.957532 1.29306 0
M  V30 288 O 29.7318 1.22119 1.28125 0
M  V30 289 C 26.8608 2.58006 2.26468 0
M  V30 290 C 25.9468 3.75113 1.97867 0
M  V30 291 N 26.3378 4.86187 1.39486 0
M  V30 292 C 24.6358 3.83363 2.27924 0
M  V30 293 C 25.3368 5.67502 1.27735 0
M  V30 294 N 24.3128 5.14023 1.76866 0
M  V30 295 H 28.1148 2.89236 0.521522 0
M  V30 296 H 25.6288 1.61301 0.188596 0
M  V30 297 H 27.6258 2.90937 2.98599 0
M  V30 298 H 26.2858 1.76148 2.72767 0
M  V30 299 H 27.2968 5.06695 1.07147 0
M  V30 300 H 23.9738 3.1239 2.76982 0
M  V30 301 H 25.3638 6.66791 0.826978 0
M  V30 302 N 28.0839 -0.256276 1.55502 0
M  V30 303 C 29.0169 -1.34321 1.84481 0
M  V30 304 C 29.9949 -1.46802 0.699131 0
M  V30 305 O 31.1789 -1.63165 0.943904 0
M  V30 306 C 28.3059 -2.71779 2.02123 0
M  V30 307 C 27.3519 -2.76496 3.24734 0
M  V30 308 S 28.1849 -2.3405 4.81644 0
M  V30 309 C 29.3409 -3.73452 5.02279 0
M  V30 310 H 29.5739 -1.09539 2.76385 0
M  V30 311 H 27.1069 -0.45678 1.47489 0
M  V30 312 H 29.0649 -3.50932 2.12972 0
M  V30 313 H 27.7259 -2.93803 1.11078 0
M  V30 314 H 26.9189 -3.77424 3.34016 0
M  V30 315 H 26.5209 -2.05379 3.12563 0
M  V30 316 H 28.8129 -4.6887 4.89047 0
M  V30 317 H 29.7559 -3.6911 6.04287 0
M  V30 318 H 30.1639 -3.6553 4.30172 0
M  V30 319 N 29.562 -1.4872 -0.521534 0
M  V30 320 C 30.79 -1.60843 -1.30142 0
M  V30 321 C 31.205 -0.271897 -1.86832 0
M  V30 322 O 30.562 0.739969 -1.66825 0
M  V30 323 C 30.613 -2.66155 -2.4463 0
M  V30 324 O 30.334 -3.94623 -1.90275 0
M  V30 325 C 31.835 -2.88795 -3.36322 0
M  V30 326 H 29.055 -0.542075 -0.395468 0
M  V30 327 H 31.599 -1.94609 -0.628285 0
M  V30 328 H 29.754 -2.35224 -3.07812 0
M  V30 329 H 30.168 -4.52468 -2.65279 0
M  V30 330 H 31.642 -3.66264 -4.12983 0
M  V30 331 H 32.119 -1.97934 -3.9207 0
M  V30 332 H 32.725 -3.21063 -2.78924 0
M  V30 333 N 31.0401 0.771051 -1.3745 0
M  V30 334 C 31.9501 1.91538 -1.35464 0
M  V30 335 C 32.9661 1.72134 -0.254123 0
M  V30 336 O 34.1421 1.95358 -0.489626 0
M  V30 337 C 31.2071 3.26671 -1.16134 0
M  V30 338 C 30.2681 3.58723 -2.35831 0
M  V30 339 C 29.5011 4.87409 -2.17413 0
M  V30 340 O 29.7241 5.58506 -1.15876 0
M  V30 341 O 28.6581 5.18539 -3.05615 0
M  V30 342 H 32.4841 1.96165 -2.31847 0
M  V30 343 H 30.0691 0.9139 -1.18187 0
M  V30 344 H 31.9511 4.07499 -1.07345 0
M  V30 345 H 30.6261 3.22894 -0.228251 0
M  V30 346 H 29.5331 2.78127 -2.50192 0
M  V30 347 H 30.8661 3.67243 -3.27709 0
M  V30 348 N 32.5182 1.22032 0.997298 0
M  V30 349 C 33.7662 1.04016 1.73278 0
M  V30 350 C 34.0872 -0.426255 1.90284 0
M  V30 351 O 33.3572 -1.30694 1.45931 0
M  V30 352 H 31.9372 0.381897 0.642 0
M  V30 353 H 34.5992 1.5347 1.20137 0
M  V30 354 H 33.6952 1.51441 2.72896 0
M  V30 355 N 33.9963 -1.19345 1.0293 0
M  V30 356 C 35.4123 -1.41069 0.746446 0
M  V30 357 C 35.6123 -1.90078 -0.668776 0
M  V30 358 O 34.6683 -2.0778 -1.4347 0
M  V30 359 C 35.9813 -2.42141 1.78292 0
M  V30 360 C 37.5293 -2.55887 1.80252 0
M  V30 361 C 38.0043 -3.60214 2.8286 0
M  V30 362 N 39.4953 -3.67711 2.81679 0
M  V30 363 C 40.2303 -4.48128 3.57727 0
M  V30 364 N 39.7263 -5.32248 4.43491 0
M  V30 365 N 41.5193 -4.42782 3.46267 0
M  V30 366 H 33.6703 -0.858536 1.94275 0
M  V30 367 H 35.9333 -0.439541 0.839945 0
M  V30 368 H 35.6393 -2.13155 2.79746 0
M  V30 369 H 35.5133 -3.41323 1.60557 0
M  V30 370 H 37.9003 -2.84196 0.794757 0
M  V30 371 H 37.9813 -1.56858 2.02062 0
M  V30 372 H 37.6253 -3.32647 3.83807 0
M  V30 373 H 37.5553 -4.58895 2.58307 0
M  V30 374 H 40.0463 -3.07634 2.19476 0
M  V30 375 H 40.3593 -5.90729 4.98256 0
M  V30 376 H 38.7043 -5.31707 4.47564 0
M  V30 377 H 41.8953 -3.76107 2.78677 0
M  V30 378 H 42.0683 -5.05215 4.05785 0
M  V30 379 N 35.4744 -0.807222 -1.35358 0
M  V30 380 C 36.3844 -0.219594 -2.3357 0
M  V30 381 C 37.4004 0.637734 -1.61892 0
M  V30 382 O 38.5764 0.549336 -1.93763 0
M  V30 383 C 35.6414 0.62158 -3.41083 0
M  V30 384 C 34.7024 -0.256315 -4.28534 0
M  V30 385 C 33.9354 0.544807 -5.30912 0
M  V30 386 O 34.1584 1.77944 -5.41934 0
M  V30 387 O 33.0924 -0.0646478 -6.01865 0
M  V30 388 H 36.9184 -1.03208 -2.85625 0
M  V30 389 H 34.5034 -0.569025 -1.38139 0
M  V30 390 H 36.3854 1.10067 -4.06772 0
M  V30 391 H 35.0604 1.41165 -2.91297 0
M  V30 392 H 33.9674 -0.782559 -3.65823 0
M  V30 393 H 35.3004 -1.01034 -4.81719 0
M  V30 394 N 36.9525 1.47285 -0.560781 0
M  V30 395 C 37.8825 2.32857 0.173105 0
M  V30 396 C 38.8635 1.44009 0.905281 0
M  V30 397 O 40.0485 1.7286 0.885046 0
M  V30 398 C 37.1785 3.25861 1.20133 0
M  V30 399 C 36.1325 4.23978 0.585388 0
M  V30 400 C 35.4585 5.06332 1.7185 0
M  V30 401 C 36.7585 5.20242 -0.463178 0
M  V30 402 H 38.4525 2.94466 -0.541307 0
M  V30 403 H 35.9985 1.41601 -0.261764 0
M  V30 404 H 37.9515 3.84569 1.72293 0
M  V30 405 H 36.6755 2.62315 1.94573 0
M  V30 406 H 35.3345 3.66501 0.085054 0
M  V30 407 H 34.9825 4.39186 2.45203 0
M  V30 408 H 34.6825 5.72762 1.31213 0
M  V30 409 H 36.2065 5.67899 2.24329 0
M  V30 410 H 37.6205 5.73293 -0.027502 0
M  V30 411 H 36.0175 5.94896 -0.788627 0
M  V30 412 H 37.0875 4.65504 -1.35773 0
M  V30 413 N 38.4306 0.297415 1.54768 0
M  V30 414 C 39.6766 -0.313376 2.00364 0
M  V30 415 C 40.0096 -1.53815 1.18553 0
M  V30 416 O 39.2846 -1.92739 0.261103 0
M  V30 417 C 39.5676 -0.673525 3.53745 0
M  V30 418 C 39.4206 0.560133 4.46299 0
M  V30 419 C 40.7396 -1.50143 4.13697 0
M  V30 420 H 37.8586 -0.112428 0.728374 0
M  V30 421 H 40.5006 0.4088 1.8555 0
M  V30 422 H 38.6506 -1.28881 3.665 0
M  V30 423 H 40.3226 1.19863 4.45455 0
M  V30 424 H 38.5656 1.19405 4.17043 0
M  V30 425 H 39.2366 0.26405 5.51368 0
M  V30 426 H 41.7126 -0.981588 4.04356 0
M  V30 427 H 40.5886 -1.72221 5.21182 0
M  V30 428 H 40.8496 -2.48952 3.65343 0
M  V30 429 N 39.9087 -1.5758 0.0250728 0
M  V30 430 C 41.1577 -1.90811 -0.653767 0
M  V30 431 C 41.4707 -0.90273 -1.73523 0
M  V30 432 O 42.6767 -1.12614 -2.47043 0
M  V30 433 C 41.1327 -3.38804 -1.21409 0
M  V30 434 C 40.7407 -4.47692 -0.166126 0
M  V30 435 C 42.4847 -3.81108 -1.86967 0
M  V30 436 C 40.3917 -5.86779 -0.737856 0
M  V30 437 H 39.3217 -0.712063 -0.247956 0
M  V30 438 H 41.9727 -1.83281 0.0897137 0
M  V30 439 H 40.3547 -3.41252 -2.00905 0
M  V30 440 H 41.5287 -4.56797 0.606079 0
M  V30 441 H 39.8437 -4.14565 0.390466 0
M  V30 442 H 42.4407 -4.82375 -2.30692 0
M  V30 443 H 42.7837 -3.15953 -2.71071 0
M  V30 444 H 43.3167 -3.81065 -1.14167 0
M  V30 445 H 40.0557 -6.55468 0.0649577 0
M  V30 446 H 39.5757 -5.81288 -1.47864 0
M  V30 447 H 41.2547 -6.35223 -1.22884 0
M  V30 448 N 41.3868 0.248026 -1.55636 0
M  V30 449 C 42.7978 0.817177 -1.67866 0
M  V30 450 C 43.1488 1.86069 -0.622322 0
M  V30 451 O 42.2738 2.15157 0.231618 0
M  V30 452 C 42.8688 1.489 -3.04326 0
M  V30 453 C 41.4278 2.00587 -3.185 0
M  V30 454 C 40.5748 0.856573 -2.63739 0
M  V30 455 H 43.5258 0.0238579 -1.58682 0
M  V30 456 H 43.5468 2.35698 -2.98708 0
M  V30 457 H 43.0588 0.729279 -3.81186 0
M  V30 458 H 41.1598 2.79443 -2.4646 0
M  V30 459 H 41.2728 2.20402 -4.25393 0
M  V30 460 H 39.6368 1.25678 -2.21534 0
M  V30 461 H 40.4198 0.109953 -3.43124 0
M  V30 462 N 42.8649 1.48995 0.513639 0
M  V30 463 C 44.1049 1.59452 1.27885 0
M  V30 464 C 44.4689 0.269479 1.90099 0
M  V30 465 O 45.6699 0.249139 2.67643 0
M  V30 466 C 43.9409 2.71277 2.32688 0
M  V30 467 S 45.4999 3.01604 3.18717 0
M  V30 468 H 42.3179 0.562565 0.434789 0
M  V30 469 H 44.9199 1.86595 0.583301 0
M  V30 470 H 43.6239 3.66089 1.8549 0
M  V30 471 H 43.1549 2.46086 3.06929 0
M  V30 472 H 45.1699 2.42155 4.331 0
M  V30 473 N 44.343 -0.763751 1.37857 0
M  V30 474 C 45.759 -1.06542 1.18832 0
M  V30 475 C 45.959 -2.01478 0.0299722 0
M  V30 476 O 45.015 -2.4458 -0.627447 0
M  V30 477 C 46.328 -1.65525 2.51042 0
M  V30 478 C 47.876 -1.77745 2.57635 0
M  V30 479 C 48.351 -2.4014 3.89996 0
M  V30 480 N 49.842 -2.47582 3.91481 0
M  V30 481 C 50.577 -2.96732 4.9065 0
M  V30 482 N 50.073 -3.45993 6.00217 0
M  V30 483 N 51.866 -2.95679 4.78048 0
M  V30 484 H 44.017 -0.133556 2.1198 0
M  V30 485 H 46.28 -0.121879 0.940133 0
M  V30 486 H 45.986 -1.03236 3.36207 0
M  V30 487 H 45.86 -2.64719 2.68707 0
M  V30 488 H 48.247 -2.39164 1.72872 0
M  V30 489 H 48.328 -0.772836 2.43846 0
M  V30 490 H 47.972 -1.79358 4.75177 0
M  V30 491 H 47.902 -3.41223 4.01092 0
M  V30 492 H 50.393 -2.1273 3.12337 0
M  V30 493 H 50.706 -3.81922 6.7183 0
M  V30 494 H 49.051 -3.44077 6.03851 0
M  V30 495 H 52.242 -2.56499 3.91568 0
M  V30 496 H 52.415 -3.33672 5.55488 0
M  V30 497 N 45.8211 -1.22559 -0.990812 0
M  V30 498 C 47.0671 -1.05297 -1.73322 0
M  V30 499 C 47.4001 0.410655 -1.89808 0
M  V30 500 O 46.6751 1.30439 -1.44277 0
M  V30 501 C 46.9581 -1.76713 -3.13759 0
M  V30 502 C 46.8111 -3.30684 -3.04907 0
M  V30 503 C 48.1301 -1.52121 -4.12974 0
M  V30 504 H 45.2491 -0.38392 -0.629106 0
M  V30 505 H 47.8911 -1.50926 -1.15418 0
M  V30 506 H 46.0411 -1.37924 -3.63193 0
M  V30 507 H 47.7131 -3.7893 -2.63077 0
M  V30 508 H 45.9561 -3.60253 -2.41661 0
M  V30 509 H 46.6271 -3.75833 -4.04294 0
M  V30 510 H 49.1031 -1.85819 -3.72304 0
M  V30 511 H 47.9791 -2.04582 -5.0935 0
M  V30 512 H 48.2401 -0.454257 -4.3976 0
M  V30 513 N 47.2992 1.18797 -1.03562 0
M  V30 514 C 48.5272 1.92599 -0.755869 0
M  V30 515 C 48.9422 1.75886 0.686271 0
M  V30 516 O 48.2992 1.08517 1.46732 0
M  V30 517 C 48.3502 3.44159 -1.10619 0
M  V30 518 O 48.0712 3.60341 -2.4917 0
M  V30 519 C 49.5722 4.3507 -0.850214 0
M  V30 520 H 46.7922 0.611587 -0.276048 0
M  V30 521 H 49.3362 1.50742 -1.38192 0
M  V30 522 H 47.4912 3.83823 -0.525194 0
M  V30 523 H 47.9052 4.54128 -2.62427 0
M  V30 524 H 49.3792 5.39989 -1.14523 0
M  V30 525 H 49.8562 4.38673 0.215176 0
M  V30 526 H 50.4622 4.01097 -1.41426 0
M  V30 527 N 48.7773 0.814389 1.34928 0
M  V30 528 C 50.0023 0.410097 2.03305 0
M  V30 529 C 50.4273 -0.973464 1.60951 0
M  V30 530 O 49.7853 -1.63185 0.789964 0
M  V30 531 C 49.8333 0.51049 3.56968 0
M  V30 532 O 48.9373 -0.473035 4.09678 0
M  V30 533 H 48.2783 0.170088 0.641846 0
M  V30 534 H 50.8083 1.10244 1.72358 0
M  V30 535 H 50.8183 0.383135 4.06197 0
M  V30 536 H 49.4933 1.51963 3.87144 0
M  V30 537 H 48.0703 -0.305272 3.71648 0
M  V30 538 N 50.2554 -1.46986 0.568584 0
M  V30 539 C 51.6664 -1.86188 0.138219 0
M  V30 540 C 52.0174 -1.47388 -1.29504 0
M  V30 541 O 51.1424 -0.88219 -1.97602 0
M  V30 542 C 51.7374 -3.3792 0.244065 0
M  V30 543 C 50.2964 -3.76171 -0.131335 0
M  V30 544 C 49.4434 -2.71027 0.586465 0
M  V30 545 H 52.3944 -1.38342 0.777645 0
M  V30 546 H 52.4154 -3.76729 -0.534351 0
M  V30 547 H 51.9274 -3.66128 1.28731 0
M  V30 548 H 50.0284 -3.5358 -1.17526 0
M  V30 549 H 50.1414 -4.78523 0.235146 0
M  V30 550 H 48.5054 -2.54684 0.0282722 0
M  V30 551 H 49.2884 -3.02077 1.63109 0
M  V30 552 N 51.7335 -0.305618 -1.54608 0
M  V30 553 C 52.6815 0.584119 -2.25146 0
M  V30 554 C 53.6755 1.13326 -1.25911 0
M  V30 555 O 54.8815 1.08337 -1.43747 0
M  V30 556 H 51.2565 0.206983 -0.722954 0
M  V30 557 H 53.2275 -0.033291 -2.98381 0
M  V30 558 C 51.9765 1.74225 -3.009 0
M  V30 559 H 51.2995 1.32892 -3.77067 0
M  V30 560 H 52.7395 2.34077 -3.53531 0
M  V30 561 C 51.1985 2.64914 -2.0814 0
M  V30 562 O 51.7285 3.66137 -1.65246 0
M  V30 563 N 49.9345 2.3275 -1.74 0
M  V30 564 H 49.4815 1.50479 -2.09078 0
M  V30 565 H 49.4395 2.93694 -1.12211 0
M  V30 566 N 53.2116 1.57565 -0.0334293 0
M  V30 567 C 54.4606 1.91155 0.643639 0
M  V30 568 C 54.7736 0.91192 1.73042 0
M  V30 569 O 55.9796 1.13923 2.46442 0
M  V30 570 C 54.4356 3.39443 1.1961 0
M  V30 571 C 54.0436 4.47774 0.142381 0
M  V30 572 C 55.7876 3.82094 1.84944 0
M  V30 573 C 53.6946 5.87162 0.706727 0
M  V30 574 H 52.6246 0.713368 0.244176 0
M  V30 575 H 55.2756 1.8323 -0.0994323 0
M  V30 576 H 53.6576 3.42313 1.99092 0
M  V30 577 H 54.8316 4.56469 -0.630296 0
M  V30 578 H 53.1466 4.14352 -0.412446 0
M  V30 579 H 55.7436 4.83591 2.2813 0
M  V30 580 H 56.0866 3.17386 2.69392 0
M  V30 581 H 56.6196 3.81665 1.12145 0
M  V30 582 H 53.3586 6.55424 -0.0997178 0
M  V30 583 H 52.8786 5.82064 1.44779 0
M  V30 584 H 54.5576 6.35866 1.19514 0
M  V30 585 N 54.6897 -0.239769 1.55765 0
M  V30 586 C 55.9177 -0.98417 1.81994 0
M  V30 587 C 56.3327 -1.7867 0.610124 0
M  V30 588 O 55.6897 -1.77571 -0.421271 0
M  V30 589 C 55.7407 -1.91635 3.06526 0
M  V30 590 O 55.4617 -1.14629 4.22838 0
M  V30 591 C 56.9627 -2.77616 3.45607 0
M  V30 592 H 54.1827 -0.28928 0.605441 0
M  V30 593 H 56.7267 -0.260499 2.02834 0
M  V30 594 H 54.8817 -2.5942 2.87715 0
M  V30 595 H 55.2957 -1.77745 4.93464 0
M  V30 596 H 56.7697 -3.38759 4.35828 0
M  V30 597 H 57.2467 -3.4909 2.6652 0
M  V30 598 H 57.8527 -2.15271 3.66795 0
M  V30 599 N 56.1678 -1.49265 -0.50573 0
M  V30 600 C 57.4138 -1.58748 -1.26202 0
M  V30 601 C 57.7468 -0.271227 -1.92297 0
M  V30 602 O 57.0218 0.724831 -1.80489 0
M  V30 603 C 57.3048 -2.74332 -2.33268 0
M  V30 604 C 57.1578 -4.15737 -1.71705 0
M  V30 605 C 58.4768 -2.85576 -3.34865 0
M  V30 606 H 55.5958 -0.577826 -0.457478 0
M  V30 607 H 58.2378 -1.81532 -0.560897 0
M  V30 608 H 56.3878 -2.55036 -2.93068 0
M  V30 609 H 58.0598 -4.46537 -1.15769 0
M  V30 610 H 56.3028 -4.21605 -1.02135 0
M  V30 611 H 56.9738 -4.92477 -2.49341 0
M  V30 612 H 59.4498 -3.03127 -2.8505 0
M  V30 613 H 58.3258 -3.68135 -4.07146 0
M  V30 614 H 58.5868 -1.94732 -3.96903 0
M  V30 615 N 57.6459 0.756429 -1.3826 0
M  V30 616 C 58.8739 1.54565 -1.3754 0
M  V30 617 C 59.2889 1.88767 0.0355331 0
M  V30 618 O 58.6459 1.52572 1.0014 0
M  V30 619 C 58.6969 2.84654 -2.22833 0
M  V30 620 O 58.4179 2.51912 -3.5843 0
M  V30 621 C 59.9189 3.78807 -2.30261 0
M  V30 622 H 57.1389 0.478353 -0.470553 0
M  V30 623 H 59.6829 0.936381 -1.81803 0
M  V30 624 H 57.8379 3.41965 -1.8204 0
M  V30 625 H 58.2519 3.35325 -4.03308 0
M  V30 626 H 59.7259 4.67045 -2.94233 0
M  V30 627 H 60.2029 4.19038 -1.31545 0
M  V30 628 H 60.8089 3.2742 -2.71433 0
M  V30 629 N 59.124 1.23083 0.984299 0
M  V30 630 C 60.054 1.03292 2.09411 0
M  V30 631 C 61.035 -0.048923 1.7003 0
M  V30 632 O 62.22 0.114967 1.93859 0
M  V30 633 C 59.35 0.619155 3.41736 0
M  V30 634 C 58.304 1.64791 3.95004 0
M  V30 635 C 57.63 1.0897 5.23478 0
M  V30 636 C 58.93 3.03999 4.24714 0
M  V30 637 H 60.624 1.96119 2.26225 0
M  V30 638 H 58.17 0.944344 1.08711 0
M  V30 639 H 60.123 0.467777 4.18796 0
M  V30 640 H 58.847 -0.344786 3.24775 0
M  V30 641 H 57.506 1.78721 3.20085 0
M  V30 642 H 57.154 0.11686 5.02864 0
M  V30 643 H 56.854 1.77704 5.60085 0
M  V30 644 H 58.378 0.950093 6.03163 0
M  V30 645 H 59.792 2.93393 4.92538 0
M  V30 646 H 58.189 3.69936 4.72512 0
M  V30 647 H 59.259 3.53285 3.32142 0
M  V30 648 N 60.6021 -1.18246 1.0419 0
M  V30 649 C 61.5491 -2.2192 0.634037 0
M  V30 650 C 62.5191 -1.62179 -0.358765 0
M  V30 651 O 63.7041 -1.89122 -0.252466 0
M  V30 652 C 60.8441 -3.451 0.00445535 0
M  V30 653 C 59.9571 -4.19174 1.04487 0
M  V30 654 C 59.0921 -5.29813 0.383676 0
M  V30 655 C 58.1311 -5.9566 1.4091 0
M  V30 656 N 57.2681 -6.97834 0.772784 0
M  V30 657 H 62.1081 -2.56164 1.52263 0
M  V30 658 H 59.6451 -1.25843 0.761701 0
M  V30 659 H 61.6031 -4.15485 -0.377919 0
M  V30 660 H 60.2331 -3.11472 -0.847652 0
M  V30 661 H 59.2851 -3.47604 1.54518 0
M  V30 662 H 60.5971 -4.64267 1.82368 0
M  V30 663 H 59.7511 -6.06677 -0.0528366 0
M  V30 664 H 58.4901 -4.85825 -0.427208 0
M  V30 665 H 57.4951 -5.17535 1.85574 0
M  V30 666 H 58.7201 -6.4173 2.22171 0
M  V30 667 H 56.6661 -6.55998 -0.0177708 0
M  V30 668 H 56.5831 -7.41186 1.48928 0
M  V30 669 H 57.8511 -7.78665 0.36071 0
M  V30 670 N 62.0802 -0.821533 -1.34494 0
M  V30 671 C 63.0272 -0.240397 -2.29545 0
M  V30 672 C 63.9972 0.634031 -1.53523 0
M  V30 673 O 65.1822 0.575966 -1.81899 0
M  V30 674 C 62.3222 0.592869 -3.39969 0
M  V30 675 C 61.4352 -0.30365 -4.30932 0
M  V30 676 C 60.5702 0.539049 -5.28458 0
M  V30 677 C 59.6092 -0.356942 -6.11058 0
M  V30 678 N 58.7462 0.446603 -7.00678 0
M  V30 679 H 63.5862 -1.05632 -2.7865 0
M  V30 680 H 61.1232 -0.532413 -1.37127 0
M  V30 681 H 63.0812 1.09129 -4.02675 0
M  V30 682 H 61.7112 1.37392 -2.92102 0
M  V30 683 H 60.7632 -0.920276 -3.691 0
M  V30 684 H 62.0752 -0.992661 -4.88823 0
M  V30 685 H 61.2292 1.102 -5.96608 0
M  V30 686 H 59.9682 1.26157 -4.71101 0
M  V30 687 H 58.9732 -0.932047 -5.41842 0
M  V30 688 H 60.1982 -1.07755 -6.70497 0
M  V30 689 H 58.1442 1.15282 -6.45791 0
M  V30 690 H 58.0612 -0.184048 -7.55776 0
M  V30 691 H 59.3292 0.992352 -7.73158 0
M  V30 692 N 63.5583 1.46682 -0.576371 0
M  V30 693 C 64.8053 2.02412 -0.0595339 0
M  V30 694 C 65.1333 1.44859 1.29793 0
M  V30 695 O 64.3883 0.601099 1.8624 0
M  V30 696 C 64.6873 3.57345 0.062886 0
M  V30 697 C 64.3533 4.33908 -1.22616 0
M  V30 698 C 63.0153 4.54544 -1.57933 0
M  V30 699 C 65.3673 4.77919 -2.07948 0
M  V30 700 C 62.6953 5.16444 -2.78393 0
M  V30 701 C 65.0473 5.41149 -3.27629 0
M  V30 702 C 63.7113 5.60014 -3.63236 0
M  V30 703 H 62.9813 0.74068 -0.021785 0
M  V30 704 H 65.6283 1.76128 -0.751735 0
M  V30 705 H 63.9333 3.82729 0.838178 0
M  V30 706 H 65.6303 3.98136 0.478439 0
M  V30 707 H 62.2203 4.18138 -0.941202 0
M  V30 708 H 66.4043 4.61738 -1.81967 0
M  V30 709 H 61.6603 5.29242 -3.06126 0
M  V30 710 H 65.8343 5.74211 -3.94023 0
M  V30 711 H 63.4613 6.07748 -4.56669 0
M  V30 712 N 65.0364 0.313813 1.54444 0
M  V30 713 C 66.4474 -0.176243 1.85866 0
M  V30 714 C 66.7984 -1.52405 1.23561 0
M  V30 715 O 65.9234 -2.09605 0.538016 0
M  V30 716 C 66.5184 -0.32657 3.37222 0
M  V30 717 C 65.0774 -0.760846 3.6863 0
M  V30 718 C 64.2244 0.123247 2.77026 0
M  V30 719 H 67.1754 0.534418 1.49431 0
M  V30 720 H 67.1964 -1.15908 3.62416 0
M  V30 721 H 66.7084 0.654531 3.82541 0
M  V30 722 H 64.8094 -1.75204 3.28838 0
M  V30 723 H 64.9224 -0.571353 4.75681 0
M  V30 724 H 63.2864 -0.399597 2.51546 0
M  V30 725 H 64.0694 1.10094 3.25168 0
M  V30 726 N 66.5145 -1.57545 0.0417849 0
M  V30 727 C 67.4445 -2.14009 -0.933929 0
M  V30 728 C 68.4255 -1.05938 -1.33083 0
M  V30 729 O 69.6105 -1.33833 -1.40721 0
M  V30 730 C 66.7405 -2.67747 -2.21199 0
M  V30 731 C 65.6945 -3.80718 -1.95544 0
M  V30 732 C 65.0205 -4.20935 -3.29724 0
M  V30 733 C 66.3205 -5.06258 -1.28452 0
M  V30 734 H 68.0145 -2.95788 -0.463645 0
M  V30 735 H 65.5605 -1.42285 -0.221573 0
M  V30 736 H 67.5135 -3.05886 -2.89848 0
M  V30 737 H 66.2375 -1.83147 -2.70416 0
M  V30 738 H 64.8965 -3.43037 -1.2931 0
M  V30 739 H 64.5445 -3.33298 -3.76724 0
M  V30 740 H 64.2445 -4.9707 -3.13361 0
M  V30 741 H 65.7685 -4.61666 -3.9962 0
M  V30 742 H 67.1825 -5.41903 -1.8712 0
M  V30 743 H 65.5795 -5.87475 -1.22445 0
M  V30 744 H 66.6495 -4.84207 -0.259219 0
M  V30 745 N 67.9926 0.231505 -1.5589 0
M  V30 746 C 69.2696 0.981096 -1.69215 0
M  V30 747 C 69.6496 2.02799 -0.586164 0
M  V30 748 O 68.9976 2.24823 0.408253 0
M  V30 749 C 69.2076 1.60054 -3.10135 0
M  V30 750 C 70.5556 2.09658 -3.69227 0
M  V30 751 O 71.5796 1.69967 -3.13033 0
M  V30 752 O 70.4386 2.8258 -4.67772 0
M  V30 753 H 67.5326 0.457653 -0.688827 0
M  V30 754 H 70.0786 0.224073 -1.68214 0
M  V30 755 H 68.8506 0.844105 -3.82087 0
M  V30 756 H 68.4736 2.42336 -3.15212 0
M  V30 757 N 69.4707 1.49531 0.497807 0
M  V30 758 C 70.6987 1.62893 1.27567 0
M  V30 759 C 71.1137 0.301585 1.86376 0
M  V30 760 O 70.4707 -0.713335 1.67982 0
M  V30 761 C 70.5217 2.70013 2.40364 0
M  V30 762 O 70.2427 3.976 1.83972 0
M  V30 763 C 71.7437 2.94109 3.31685 0
M  V30 764 H 68.9637 0.548298 0.386794 0
M  V30 765 H 71.5077 1.95584 0.597245 0
M  V30 766 H 69.6627 2.40092 3.04031 0
M  V30 767 H 70.0767 4.56631 2.58047 0
M  V30 768 H 71.5507 3.72788 4.07104 0
M  V30 769 H 72.0277 2.04147 3.88871 0
M  V30 770 H 72.6337 3.2546 2.73781 0
M  V30 771 N 70.9488 -0.749086 1.3866 0
M  V30 772 C 71.8788 -1.8764 1.38973 0
M  V30 773 C 72.8598 -1.68178 0.255004 0
M  V30 774 O 74.0448 -1.88704 0.458754 0
M  V30 775 C 71.1748 -3.25222 1.21851 0
M  V30 776 C 70.1288 -3.59295 2.32575 0
M  V30 777 C 69.4548 -4.95663 2.00555 0
M  V30 778 C 70.7548 -3.63709 3.7485 0
M  V30 779 H 72.4488 -1.87635 2.3331 0
M  V30 780 H 69.9948 -0.901329 1.12303 0
M  V30 781 H 71.9478 -4.03746 1.20695 0
M  V30 782 H 70.6718 -3.25719 0.239775 0
M  V30 783 H 69.3308 -2.83093 2.32925 0
M  V30 784 H 68.9788 -4.92724 1.01154 0
M  V30 785 H 68.6788 -5.19429 2.74714 0
M  V30 786 H 70.2028 -5.7656 2.01024 0
M  V30 787 H 71.6168 -4.32338 3.76506 0
M  V30 788 H 70.0138 -3.98986 4.48252 0
M  V30 789 H 71.0838 -2.63834 4.06841 0
M  V30 790 N 72.4269 -1.23603 -0.977757 0
M  V30 791 C 73.6759 -1.06377 -1.71368 0
M  V30 792 C 73.9889 0.399062 -1.91486 0
M  V30 793 O 75.1949 0.691312 -2.62551 0
M  V30 794 C 73.6509 -1.85512 -3.08404 0
M  V30 795 C 73.2589 -3.36141 -2.96164 0
M  V30 796 C 75.0029 -1.76783 -3.85938 0
M  V30 797 C 72.9099 -4.07659 -4.28449 0
M  V30 798 H 71.8399 -0.394452 -0.642591 0
M  V30 799 H 74.4909 -1.47594 -1.09034 0
M  V30 800 H 72.8729 -1.37103 -3.71509 0
M  V30 801 H 74.0469 -3.92056 -2.42133 0
M  V30 802 H 72.3619 -3.45712 -2.32104 0
M  V30 803 H 74.9589 -2.27526 -4.83876 0
M  V30 804 H 75.3019 -0.731116 -4.0983 0
M  V30 805 H 75.8349 -2.22818 -3.2954 0
M  V30 806 H 72.5739 -5.11648 -4.09752 0
M  V30 807 H 72.0939 -3.5653 -4.82334 0
M  V30 808 H 73.7729 -4.141 -4.97122 0
M  V30 809 N 73.905 1.17692 -1.04816 0
M  V30 810 C 75.316 1.69501 -0.782698 0
M  V30 811 C 75.667 1.83456 0.695577 0
M  V30 812 O 74.792 1.51942 1.54086 0
M  V30 813 C 75.387 3.07874 -1.41419 0
M  V30 814 C 73.946 3.56864 -1.19686 0
M  V30 815 C 73.093 2.3322 -1.50012 0
M  V30 816 H 76.044 1.02262 -1.2136 0
M  V30 817 H 76.065 3.71528 -0.821428 0
M  V30 818 H 75.577 2.97685 -2.49009 0
M  V30 819 H 73.678 3.72337 -0.140043 0
M  V30 820 H 73.791 4.39851 -1.89916 0
M  V30 821 H 72.155 2.37501 -0.920071 0
M  V30 822 H 72.938 2.25644 -2.58727 0
M  V30 823 N 75.3831 0.828654 1.34056 0
M  V30 824 C 76.6601 0.341809 1.9259 0
M  V30 825 C 77.0401 -1.17158 1.75605 0
M  V30 826 O 76.3881 -1.98132 1.13824 0
M  V30 827 C 76.5981 0.777453 3.4023 0
M  V30 828 C 77.9461 0.779579 4.17382 0
M  V30 829 O 78.9701 0.7204 3.48839 0
M  V30 830 O 77.8291 0.857996 5.39723 0
M  V30 831 H 74.9231 0.0946085 0.821571 0
M  V30 832 H 77.4691 0.913827 1.42994 0
M  V30 833 H 76.2411 1.8196 3.46419 0
M  V30 834 H 75.8641 0.181444 3.97186 0
M  V30 835 N 76.8612 -1.46375 0.584142 0
M  V30 836 C 78.1092 -2.01978 0.0701287 0
M  V30 837 C 78.4302 -1.4579 -1.295 0
M  V30 838 O 77.7002 -0.64314 -1.85042 0
M  V30 839 H 76.2802 -0.746648 0.0229345 0
M  V30 840 H 78.9422 -1.79461 0.760245 0
M  V30 841 H 78.0382 -3.121 0.0022064 0
M  V30 842 N 78.3393 -0.321999 -1.54275 0
M  V30 843 C 79.2863 0.544664 -2.24281 0
M  V30 844 C 80.2563 1.1129 -1.23303 0
M  V30 845 O 81.4413 1.15354 -1.51981 0
M  V30 846 C 78.5813 1.70045 -3.00298 0
M  V30 847 C 77.6943 1.16159 -4.1609 0
M  V30 848 C 76.8293 2.28293 -4.79641 0
M  V30 849 C 75.8683 1.71648 -5.8754 0
M  V30 850 N 75.0053 2.77438 -6.44959 0
M  V30 851 H 79.8453 -0.0588907 -2.97942 0
M  V30 852 H 77.3823 -0.0408345 -1.47043 0
M  V30 853 H 79.3403 2.38054 -3.42616 0
M  V30 854 H 77.9703 2.27531 -2.28975 0
M  V30 855 H 77.0223 0.373092 -3.78566 0
M  V30 856 H 78.3343 0.707087 -4.93763 0
M  V30 857 H 77.4883 3.0421 -5.2492 0
M  V30 858 H 76.2273 2.77079 -4.01346 0
M  V30 859 H 75.2323 0.942282 -5.41665 0
M  V30 860 H 76.4573 1.23741 -6.67731 0
M  V30 861 H 74.4033 3.25519 -5.69538 0
M  V30 862 H 74.3203 2.36547 -7.1804 0
M  V30 863 H 75.5883 3.53189 -6.94894 0
M  V30 864 N 79.8174 1.5752 -0.0501392 0
M  V30 865 C 81.2334 1.56631 0.306402 0
M  V30 866 C 81.4334 1.0577 1.71508 0
M  V30 867 O 80.4894 0.713837 2.422 0
M  V30 868 C 81.8024 3.00393 0.135811 0
M  V30 869 C 83.3504 3.12315 0.206993 0
M  V30 870 C 83.8254 4.57954 0.064944 0
M  V30 871 N 85.3164 4.63041 0.121254 0
M  V30 872 C 86.0514 5.73389 0.0354381 0
M  V30 873 N 85.5474 6.92724 -0.102666 0
M  V30 874 N 87.3404 5.62026 0.090946 0
M  V30 875 H 79.4914 1.88903 -0.971046 0
M  V30 876 H 81.7544 0.869876 -0.376855 0
M  V30 877 H 81.4604 3.41635 -0.835384 0
M  V30 878 H 81.3344 3.66373 0.897275 0
M  V30 879 H 83.7214 2.70973 1.16866 0
M  V30 880 H 83.8024 2.49016 -0.585208 0
M  V30 881 H 83.4464 4.99981 -0.893394 0
M  V30 882 H 83.3764 5.19258 0.876277 0
M  V30 883 H 85.8674 3.77216 0.227284 0
M  V30 884 H 86.1804 7.72633 -0.160882 0
M  V30 885 H 84.5254 6.94864 -0.137737 0
M  V30 886 H 87.7164 4.67684 0.197388 0
M  V30 887 H 87.8894 6.47997 0.0206089 0
M  V30 888 N 81.2955 -0.223234 1.56011 0
M  V30 889 C 82.5445 -0.945912 1.78144 0
M  V30 890 C 82.8575 -1.85567 0.618396 0
M  V30 891 O 84.0635 -2.61688 0.723318 0
M  V30 892 C 82.5195 -1.73216 3.15475 0
M  V30 893 C 82.1275 -0.868619 4.39499 0
M  V30 894 C 83.8715 -2.44615 3.46935 0
M  V30 895 C 81.7785 -1.65212 5.67855 0
M  V30 896 H 80.7085 -0.356929 0.664167 0
M  V30 897 H 83.3595 -0.199845 1.82409 0
M  V30 898 H 81.7415 -2.52107 3.05382 0
M  V30 899 H 82.9155 -0.120366 4.60643 0
M  V30 900 H 81.2305 -0.26683 4.15544 0
M  V30 901 H 83.8275 -3.03732 4.40058 0
M  V30 902 H 84.1705 -3.17417 2.69355 0
M  V30 903 H 84.7035 -1.72715 3.58349 0
M  V30 904 H 81.4425 -0.967407 6.48322 0
M  V30 905 H 80.9625 -2.37503 5.50774 0
M  V30 906 H 82.6415 -2.21322 6.07968 0
M  V30 907 N 82.7736 -1.49793 -0.48987 0
M  V30 908 C 84.0226 -1.59085 -1.23995 0
M  V30 909 C 84.3356 -0.287907 -1.9347 0
M  V30 910 O 85.5416 -0.259506 -2.70257 0
M  V30 911 C 83.9976 -2.80736 -2.252 0
M  V30 912 C 83.6056 -4.17833 -1.61614 0
M  V30 913 C 85.3496 -2.99364 -3.00967 0
M  V30 914 C 83.2566 -5.30693 -2.60996 0
M  V30 915 H 82.1866 -0.592372 -0.466488 0
M  V30 916 H 84.8376 -1.76197 -0.51252 0
M  V30 917 H 83.2196 -2.57142 -3.01154 0
M  V30 918 H 84.3936 -4.51608 -0.915774 0
M  V30 919 H 82.7086 -4.04656 -0.981977 0
M  V30 920 H 85.3056 -3.80851 -3.75308 0
M  V30 921 H 85.6486 -2.10356 -3.59244 0
M  V30 922 H 86.1816 -3.2305 -2.32128 0
M  V30 923 H 82.9206 -6.21796 -2.07485 0
M  V30 924 H 82.4406 -5.01359 -3.2924 0
M  V30 925 H 84.1196 -5.6049 -3.23202 0
M  V30 926 N 84.2517 0.741722 -1.39055 0
M  V30 927 C 85.4977 1.50234 -1.37118 0
M  V30 928 C 85.8527 1.92368 0.0350439 0
M  V30 929 O 85.1457 1.63422 1.00019 0
M  V30 930 C 85.3397 2.7592 -2.27163 0
M  V30 931 C 85.1687 2.46074 -3.76401 0
M  V30 932 C 83.9387 2.38704 -4.45364 0
M  V30 933 C 86.1367 2.12062 -4.68545 0
M  V30 934 N 84.1187 2.01258 -5.79973 0
M  V30 935 C 85.4897 1.85005 -5.91754 0
M  V30 936 C 87.5447 1.98473 -4.56632 0
M  V30 937 C 86.2477 1.4573 -7.04383 0
M  V30 938 C 88.2737 1.60599 -5.69176 0
M  V30 939 C 87.6357 1.34423 -6.91455 0
M  V30 940 H 83.7347 0.548858 -0.557027 0
M  V30 941 H 86.3187 0.862642 -1.74547 0
M  V30 942 H 84.4897 3.3768 -1.91904 0
M  V30 943 H 86.2217 3.42068 -2.16267 0
M  V30 944 H 82.9767 2.55574 -3.98721 0
M  V30 945 H 83.4007 1.85147 -6.51191 0
M  V30 946 H 88.0427 2.17381 -3.62637 0
M  V30 947 H 85.7607 1.25562 -7.98286 0
M  V30 948 H 89.3467 1.507 -5.61944 0
M  V30 949 H 88.2267 1.05555 -7.77064 0
M  V30 950 N 85.7298 1.2412 0.971189 0
M  V30 951 C 87.0068 0.986867 1.6888 0
M  V30 952 C 87.3868 -0.491857 2.0529 0
M  V30 953 O 86.7348 -1.46531 1.75331 0
M  V30 954 C 86.9448 1.9063 2.92338 0
M  V30 955 C 88.2928 2.17515 3.64654 0
M  V30 956 O 89.3168 1.88254 3.02388 0
M  V30 957 O 88.1758 2.6719 4.7673 0
M  V30 958 H 85.2698 0.372944 0.738134 0
M  V30 959 H 87.8158 1.35203 1.02559 0
M  V30 960 H 86.5878 2.90552 2.62097 0
M  V30 961 H 86.2108 1.54408 3.66393 0
M  V30 962 N 87.2079 -1.17134 1.05439 0
M  V30 963 C 88.4329 -1.91913 0.786396 0
M  V30 964 C 88.8579 -1.7643 -0.652234 0
M  V30 965 O 88.2159 -1.08372 -1.45345 0
M  V30 966 C 88.2639 -3.40921 1.17497 0
M  V30 967 O 87.3679 -4.11244 0.308589 0
M  V30 968 H 86.7089 -0.598215 0.288158 0
M  V30 969 H 89.2389 -1.48457 1.4079 0
M  V30 970 H 89.2489 -3.91668 1.14281 0
M  V30 971 H 87.9239 -3.5151 2.22292 0
M  V30 972 H 86.5009 -3.70731 0.40157 0
M  V30 973 N 88.686 -0.835752 -1.33615 0
M  V30 974 C 90.102 -0.523139 -1.50783 0
M  V30 975 C 90.302 0.950171 -1.77691 0
M  V30 976 O 89.358 1.73411 -1.83534 0
M  V30 977 C 90.671 -1.39378 -2.66448 0
M  V30 978 C 92.219 -1.39223 -2.80332 0
M  V30 979 C 92.694 -2.24765 -3.99055 0
M  V30 980 N 94.185 -2.22458 -4.06284 0
M  V30 981 C 94.92 -2.85386 -4.97336 0
M  V30 982 N 94.416 -3.57354 -5.93523 0
M  V30 983 N 96.209 -2.74872 -4.90308 0
M  V30 984 H 88.36 -1.78952 -1.14411 0
M  V30 985 H 90.623 -0.763297 -0.562212 0
M  V30 986 H 90.329 -2.44061 -2.53234 0
M  V30 987 H 90.203 -1.0676 -3.61776 0
M  V30 988 H 92.59 -0.353136 -2.92979 0
M  V30 989 H 92.671 -1.75846 -1.85773 0
M  V30 990 H 92.315 -3.28732 -3.87167 0
M  V30 991 H 92.245 -1.85485 -4.92852 0
M  V30 992 H 94.736 -1.70119 -3.37443 0
M  V30 993 H 95.049 -4.02584 -6.59656 0
M  V30 994 H 93.394 -3.61461 -5.93608 0
M  V30 995 H 96.585 -2.18213 -4.14126 0
M  V30 996 H 96.758 -3.24199 -5.61069 0
M  V30 997 N 90.1641 1.46063 -0.591896 0
M  V30 998 C 91.1111 2.30399 0.136069 0
M  V30 999 C 92.0811 1.41169 0.875238 0
M  V30 1000 O 93.2661 1.70112 0.86409 0
M  V30 1001 C 90.4061 3.25804 1.13781 0
M  V30 1002 C 89.5191 4.30134 0.401137 0
M  V30 1003 C 88.6541 5.12659 1.39121 0
M  V30 1004 C 87.6931 6.0873 0.641462 0
M  V30 1005 N 86.8301 6.8409 1.58004 0
M  V30 1006 H 91.6701 2.92118 -0.589144 0
M  V30 1007 H 89.2071 1.43959 -0.302342 0
M  V30 1008 H 91.1651 3.79569 1.73156 0
M  V30 1009 H 89.7951 2.65872 1.83062 0
M  V30 1010 H 88.8471 3.79152 -0.307826 0
M  V30 1011 H 90.1591 4.98458 -0.184565 0
M  V30 1012 H 89.3131 5.70747 2.05749 0
M  V30 1013 H 88.0521 4.44316 2.01084 0
M  V30 1014 H 87.0571 5.49786 -0.0385419 0
M  V30 1015 H 88.2821 6.79095 0.0270945 0
M  V30 1016 H 86.2281 6.18449 2.18761 0
M  V30 1017 H 86.1451 7.48709 1.04738 0
M  V30 1018 H 87.4131 7.4673 2.23639 0
M  V30 1019 N 91.6422 0.330177 1.54103 0
M  V30 1020 C 92.8902 -0.269871 2.0029 0
M  V30 1021 C 93.2112 -1.52133 1.21986 0
M  V30 1022 O 92.4812 -1.93212 0.323438 0
M  V30 1023 H 91.0612 -0.10271 0.739905 0
M  V30 1024 H 93.7232 0.448249 1.89675 0
M  V30 1025 H 92.8192 -0.52166 3.07709 0
M  V30 1026 N 93.1203 -1.57491 0.0584922 0
M  V30 1027 C 94.3673 -1.92978 -0.613648 0
M  V30 1028 C 94.6953 -0.937461 -1.70417 0
M  V30 1029 O 93.9503 0.049078 -1.95638 0
M  V30 1030 C 94.2493 -3.3513 -1.24188 0
M  V30 1031 C 93.9153 -4.50037 -0.278826 0
M  V30 1032 C 92.5773 -4.81198 -0.0138447 0
M  V30 1033 C 94.9293 -5.19807 0.380777 0
M  V30 1034 C 92.2573 -5.79473 0.918052 0
M  V30 1035 C 94.6093 -6.19079 1.30091 0
M  V30 1036 C 93.2733 -6.48665 1.57449 0
M  V30 1037 H 92.5433 -0.706157 -0.22455 0
M  V30 1038 H 95.1903 -1.91082 0.126533 0
M  V30 1039 H 93.4953 -3.33429 -2.05749 0
M  V30 1040 H 95.1923 -3.59871 -1.769 0
M  V30 1041 H 91.7823 -4.25726 -0.495539 0
M  V30 1042 H 95.9663 -4.95939 0.189158 0
M  V30 1043 H 91.2223 -6.00727 1.1374 0
M  V30 1044 H 95.3963 -6.7225 1.81804 0
M  V30 1045 H 93.0233 -7.24628 2.29822 0
M  V30 1046 N 94.5984 0.214957 -1.56127 0
M  V30 1047 C 95.8474 0.936451 -1.78643 0
M  V30 1048 C 96.1604 1.85237 -0.628229 0
M  V30 1049 O 97.3664 2.613 -0.737186 0
M  V30 1050 C 95.8224 1.7154 -3.16389 0
M  V30 1051 C 95.4304 0.845299 -4.39953 0
M  V30 1052 C 97.1744 2.42772 -3.48227 0
M  V30 1053 C 95.0814 1.62198 -5.68723 0
M  V30 1054 H 94.0114 0.353401 -0.666051 0
M  V30 1055 H 96.6624 0.190169 -1.82512 0
M  V30 1056 H 95.0444 2.50484 -3.06715 0
M  V30 1057 H 96.2184 0.0959353 -4.607 0
M  V30 1058 H 94.5334 0.244789 -4.1568 0
M  V30 1059 H 97.1304 3.01394 -4.41663 0
M  V30 1060 H 97.4734 3.15984 -2.71035 0
M  V30 1061 H 98.0064 1.70813 -3.5926 0
M  V30 1062 H 94.7454 0.933011 -6.48826 0
M  V30 1063 H 94.2654 2.34579 -5.52026 0
M  V30 1064 H 95.9444 2.18095 -6.09133 0
M  V30 1065 N 96.0765 1.50051 0.48192 0
M  V30 1066 C 97.3255 1.59741 1.23149 0
M  V30 1067 C 97.6385 0.298163 1.93314 0
M  V30 1068 O 98.8445 0.273835 2.70116 0
M  V30 1069 C 97.3005 2.81926 2.23708 0
M  V30 1070 C 96.9085 4.18685 1.59396 0
M  V30 1071 C 98.6525 3.00956 2.99375 0
M  V30 1072 C 96.5595 5.3207 2.58178 0
M  V30 1073 H 95.4895 0.594838 0.46334 0
M  V30 1074 H 98.1405 1.76467 0.503169 0
M  V30 1075 H 96.5225 2.58736 2.99786 0
M  V30 1076 H 97.6965 4.52088 0.891811 0
M  V30 1077 H 96.0115 4.05171 0.960503 0
M  V30 1078 H 98.6085 3.82836 3.73283 0
M  V30 1079 H 98.9515 2.12258 3.58123 0
M  V30 1080 H 99.4845 3.24277 2.30411 0
M  V30 1081 H 96.2235 6.22888 2.04184 0
M  V30 1082 H 95.7435 5.03098 3.26577 0
M  V30 1083 H 97.4225 5.62196 3.20225 0
M  V30 1084 N 97.5546 -0.734337 1.39446 0
M  V30 1085 C 98.7796 -1.52866 1.40167 0
M  V30 1086 C 99.2046 -1.881 -0.00171513 0
M  V30 1087 O 98.5626 -1.51957 -0.988879 0
M  V30 1088 C 98.6106 -2.79235 2.28167 0
M  V30 1089 O 97.7146 -3.75185 1.71201 0
M  V30 1090 H 97.0556 -0.461618 0.477289 0
M  V30 1091 H 99.5856 -0.905949 1.8345 0
M  V30 1092 H 99.5956 -3.27963 2.42702 0
M  V30 1093 H 98.2706 -2.52923 3.30156 0
M  V30 1094 H 96.8476 -3.33958 1.65912 0
M  V30 1095 N 99.0327 -1.24633 -0.964593 0
M  V30 1096 C 99.9807 -1.03917 -2.08096 0
M  V30 1097 C 100.975 0.0268581 -1.69379 0
M  V30 1098 O 102.181 -0.127952 -1.79545 0
M  V30 1099 H 98.5557 -0.319044 -0.680966 0
M  V30 1100 H 100.527 -1.98581 -2.22729 0
M  V30 1101 C 99.2757 -0.663983 -3.41301 0
M  V30 1102 H 98.5987 -1.47605 -3.71555 0
M  V30 1103 H 100.039 -0.558663 -4.20303 0
M  V30 1104 C 98.4977 0.629169 -3.30973 0
M  V30 1105 O 99.0277 1.67404 -3.65156 0
M  V30 1106 N 97.2337 0.611057 -2.84103 0
M  V30 1107 H 96.7807 -0.239593 -2.56483 0
M  V30 1108 H 96.7387 1.47647 -2.77575 0
M  V30 1109 N 100.511 1.16574 -1.06058 0
M  V30 1110 C 101.474 2.19085 -0.673392 0
M  V30 1111 C 102.474 1.5835 0.279648 0
M  V30 1112 O 103.664 1.74088 0.0623488 0
M  V30 1113 C 100.796 3.40899 0.00954234 0
M  V30 1114 H 101.989 2.54853 -1.58081 0
M  V30 1115 H 99.5418 1.30808 -0.855516 0
M  V30 1116 H 100.277 3.10684 0.929826 0
M  V30 1117 H 100.062 3.86233 -0.67573 0
M  V30 1118 H 101.552 4.1675 0.266245 0
M  V30 1119 N 101.989 0.842826 1.3317 0
M  V30 1120 C 103.217 0.454055 2.01856 0
M  V30 1121 C 103.632 -0.94587 1.63397 0
M  V30 1122 O 102.989 -1.61534 0.849302 0
M  V30 1123 C 103.04 0.569715 3.56982 0
M  V30 1124 O 102.761 1.91448 3.94055 0
M  V30 1125 C 104.262 0.178412 4.42941 0
M  V30 1126 H 101.482 0.17979 0.646465 0
M  V30 1127 H 104.026 1.1365 1.70012 0
M  V30 1128 H 102.181 -0.0648587 3.87346 0
M  V30 1129 H 102.595 1.90282 4.88767 0
M  V30 1130 H 104.069 0.310376 5.51127 0
M  V30 1131 H 104.546 -0.880056 4.30293 0
M  V30 1132 H 105.152 0.787579 4.17944 0
M  V30 1133 N 103.467 -1.45747 0.599634 0
M  V30 1134 C 104.697 -2.06369 0.0977132 0
M  V30 1135 C 105.105 -1.44624 -1.21985 0
M  V30 1136 O 104.448 -0.551831 -1.75216 0
M  V30 1137 C 104.51 -3.59284 -0.124673 0
M  V30 1138 C 104.174 -4.43318 1.10987 0
M  V30 1139 C 105.171 -4.78796 2.02609 0
M  V30 1140 C 102.856 -4.84194 1.33647 0
M  V30 1141 C 104.85 -5.53997 3.15224 0
M  V30 1142 C 102.537 -5.5915 2.46565 0
M  V30 1143 C 103.535 -5.93968 3.37182 0
M  V30 1144 O 103.223 -6.67405 4.48136 0
M  V30 1145 H 102.955 -0.673122 0.0623153 0
M  V30 1146 H 105.509 -1.88104 0.824981 0
M  V30 1147 H 103.739 -3.75919 -0.906745 0
M  V30 1148 H 105.428 -4.01775 -0.577201 0
M  V30 1149 H 106.194 -4.47781 1.86325 0
M  V30 1150 H 102.073 -4.56534 0.64016 0
M  V30 1151 H 105.617 -5.81091 3.85978 0
M  V30 1152 H 101.514 -5.89579 2.62805 0
M  V30 1153 H 102.282 -6.85847 4.46717 0
M  V30 1154 N 104.945 -0.338344 -1.53925 0
M  V30 1155 C 105.892 0.520845 -2.24846 0
M  V30 1156 C 106.862 1.09976 -1.24477 0
M  V30 1157 O 108.047 1.13735 -1.53196 0
M  V30 1158 C 105.187 1.6685 -3.02084 0
M  V30 1159 C 104.3 1.11739 -4.17299 0
M  V30 1160 C 103.435 2.23193 -4.82036 0
M  V30 1161 C 102.474 1.65407 -5.89328 0
M  V30 1162 N 101.611 2.70582 -6.47866 0
M  V30 1163 H 106.451 -0.0904881 -2.97863 0
M  V30 1164 H 103.988 -0.0564282 -1.46992 0
M  V30 1165 H 105.946 2.34407 -3.45122 0
M  V30 1166 H 104.576 2.2509 -2.31375 0
M  V30 1167 H 103.628 0.332919 -3.7894 0
M  V30 1168 H 104.94 0.654677 -4.94485 0
M  V30 1169 H 104.094 2.98626 -5.28117 0
M  V30 1170 H 102.833 2.72807 -4.04262 0
M  V30 1171 H 101.838 0.884779 -5.42634 0
M  V30 1172 H 103.063 1.16652 -6.69006 0
M  V30 1173 H 101.009 3.1946 -5.72959 0
M  V30 1174 H 100.926 2.28917 -7.20509 0
M  V30 1175 H 102.194 3.45799 -6.98601 0
M  V30 1176 N 106.423 1.57458 -0.0668435 0
M  V30 1177 C 107.333 2.15937 0.916975 0
M  V30 1178 C 108.349 1.12123 1.33058 0
M  V30 1179 O 109.525 1.44366 1.40429 0
M  V30 1180 C 106.59 2.70547 2.16807 0
M  V30 1181 C 105.651 3.89215 1.81135 0
M  V30 1182 C 104.884 4.41211 3.0028 0
M  V30 1183 O 105.107 3.92225 4.14144 0
M  V30 1184 O 104.041 5.32605 2.80384 0
M  V30 1185 H 107.867 3.00354 0.449561 0
M  V30 1186 H 105.452 1.48584 0.155949 0
M  V30 1187 H 107.334 3.0557 2.90181 0
M  V30 1188 H 106.009 1.89192 2.62656 0
M  V30 1189 H 104.916 3.59054 1.05028 0
M  V30 1190 H 106.249 4.71848 1.40073 0
M  V30 1191 N 107.901 -0.206675 1.56239 0
M  V30 1192 C 109.15 -0.926964 1.79138 0
M  V30 1193 C 109.463 -1.84901 0.638043 0
M  V30 1194 O 110.669 -2.60906 0.751033 0
M  V30 1195 C 109.125 -1.6986 3.17294 0
M  V30 1196 C 108.733 -0.821956 4.40395 0
M  V30 1197 C 110.477 -2.40922 3.4951 0
M  V30 1198 C 108.384 -1.59179 5.69575 0
M  V30 1199 H 107.314 -0.349864 0.667915 0
M  V30 1200 H 109.965 -0.180487 1.8261 0
M  V30 1201 H 108.347 -2.48853 3.08039 0
M  V30 1202 H 109.521 -0.0715019 4.60745 0
M  V30 1203 H 107.836 -0.222741 4.15804 0
M  V30 1204 H 110.433 -2.99047 4.43255 0
M  V30 1205 H 110.776 -3.14542 2.72707 0
M  V30 1206 H 111.309 -1.68905 3.60161 0
M  V30 1207 H 108.048 -0.898589 6.49312 0
M  V30 1208 H 107.568 -2.31648 5.53262 0
M  V30 1209 H 109.247 -2.14862 6.10281 0
M  V30 1210 N 109.379 -1.50304 -0.473955 0
M  V30 1211 C 110.627 -1.60832 -1.22382 0
M  V30 1212 C 110.948 -0.30939 -1.9253 0
M  V30 1213 O 110.218 0.67296 -1.83978 0
M  V30 1214 H 108.798 -0.592652 -0.454723 0
M  V30 1215 H 111.46 -1.87068 -0.546968 0
M  V30 1216 H 110.556 -2.41803 -1.97327 0
M  V30 1217 N 110.857 0.726932 -1.39834 0
M  V30 1218 C 111.787 1.85405 -1.41941 0
M  V30 1219 C 112.768 1.67751 -0.281728 0
M  V30 1220 O 113.953 1.8795 -0.488717 0
M  V30 1221 C 111.083 3.23243 -1.2701 0
M  V30 1222 C 110.037 3.55549 -2.38262 0
M  V30 1223 C 109.363 4.9241 -2.08415 0
M  V30 1224 C 110.663 3.577 -3.80589 0
M  V30 1225 H 112.357 1.83899 -2.36266 0
M  V30 1226 H 109.903 0.883349 -1.13723 0
M  V30 1227 H 111.856 4.01775 -1.27103 0
M  V30 1228 H 110.58 3.25296 -0.291564 0
M  V30 1229 H 109.239 2.79351 -2.37399 0
M  V30 1230 H 108.887 4.91052 -1.0898 0
M  V30 1231 H 108.587 5.14992 -2.82943 0
M  V30 1232 H 110.111 5.73289 -2.10171 0
M  V30 1233 H 111.525 4.26293 -3.83337 0
M  V30 1234 H 109.922 3.91804 -4.54543 0
M  V30 1235 H 110.992 2.57328 -4.10987 0
M  V30 1236 N 112.336 1.25143 0.95797 0
M  V30 1237 C 113.266 1.07711 2.07173 0
M  V30 1238 C 114.247 -0.0128462 1.70095 0
M  V30 1239 O 115.432 0.156061 1.93572 0
M  V30 1240 C 112.562 0.691503 3.40346 0
M  V30 1241 C 111.516 1.73132 3.9142 0
M  V30 1242 C 110.842 1.20049 5.21049 0
M  V30 1243 C 112.142 3.1294 4.1817 0
M  V30 1244 H 113.836 2.00873 2.22014 0
M  V30 1245 H 111.382 0.967191 1.06684 0
M  V30 1246 H 113.335 0.556505 4.17709 0
M  V30 1247 H 112.059 -0.275819 3.25433 0
M  V30 1248 H 110.718 1.8547 3.16222 0
M  V30 1249 H 110.366 0.223499 5.02503 0
M  V30 1250 H 110.066 1.89545 5.56189 0
M  V30 1251 H 111.59 1.07782 6.01012 0
M  V30 1252 H 113.004 3.03775 4.86203 0
M  V30 1253 H 111.401 3.79875 4.64559 0
M  V30 1254 H 112.471 3.6025 3.24573 0
M  V30 1255 N 113.814 -1.1601 1.06675 0
M  V30 1256 C 115.042 -1.90527 0.806667 0
M  V30 1257 C 115.457 -1.77643 -0.639396 0
M  V30 1258 O 114.814 -1.12369 -1.43803 0
M  V30 1259 C 114.865 -3.41106 1.19705 0
M  V30 1260 O 114.586 -3.53608 2.58636 0
M  V30 1261 C 116.087 -4.32663 0.965266 0
M  V30 1262 H 113.307 -0.604053 0.292166 0
M  V30 1263 H 115.851 -1.47026 1.4214 0
M  V30 1264 H 114.006 -3.82296 0.626774 0
M  V30 1265 H 114.42 -4.47011 2.74375 0
M  V30 1266 H 115.894 -5.36763 1.288 0
M  V30 1267 H 116.371 -4.39089 -0.0987936 0
M  V30 1268 H 116.977 -3.97206 1.52011 0
M  V30 1269 N 115.292 -0.849877 -1.32721 0
M  V30 1270 C 116.532 -0.457146 -1.99222 0
M  V30 1271 C 116.896 0.968038 -1.6581 0
M  V30 1272 O 118.097 1.46507 -2.25364 0
M  V30 1273 C 116.368 -0.683966 -3.50794 0
M  V30 1274 S 117.927 -0.388095 -4.3708 0
M  V30 1275 H 114.745 -0.171464 -0.690015 0
M  V30 1276 H 117.347 -1.10155 -1.61512 0
M  V30 1277 H 116.051 -1.72038 -3.726 0
M  V30 1278 H 115.582 -0.0258086 -3.93392 0
M  V30 1279 H 117.597 0.787791 -4.89906 0
M  V30 1280 N 116.77 1.45427 -0.607355 0
M  V30 1281 C 117.68 2.34325 0.113463 0
M  V30 1282 C 118.696 1.51226 0.860617 0
M  V30 1283 O 119.872 1.84029 0.818255 0
M  V30 1284 C 116.937 3.28839 1.09844 0
M  V30 1285 C 115.998 4.27844 0.353271 0
M  V30 1286 C 115.231 5.17842 1.29133 0
M  V30 1287 O 115.454 5.11264 2.52913 0
M  V30 1288 O 114.388 5.96713 0.788523 0
M  V30 1289 H 118.214 2.97364 -0.617094 0
M  V30 1290 H 115.799 1.44807 -0.367619 0
M  V30 1291 H 117.681 3.8708 1.66575 0
M  V30 1292 H 116.356 2.68365 1.81003 0
M  V30 1293 H 115.263 3.7322 -0.256494 0
M  V30 1294 H 116.596 4.91173 -0.317822 0
M  V30 1295 N 118.248 0.346503 1.53744 0
M  V30 1296 C 119.211 -0.496439 2.23759 0
M  V30 1297 C 120.211 -1.0252 1.2388 0
M  V30 1298 O 121.401 -0.913974 1.48297 0
M  V30 1299 C 118.533 -1.69187 2.95954 0
M  V30 1300 H 119.726 0.115952 2.99676 0
M  V30 1301 H 117.279 0.0978939 1.55993 0
M  V30 1302 H 118.014 -2.34288 2.24231 0
M  V30 1303 H 117.799 -1.31989 3.69217 0
M  V30 1304 H 119.289 -2.28969 3.49232 0
M  V30 1305 N 119.726 -1.57421 0.075193 0
M  V30 1306 C 120.954 -1.97946 -0.602076 0
M  V30 1307 C 121.369 -0.953674 -1.62943 0
M  V30 1308 O 120.726 0.0592551 -1.82404 0
M  V30 1309 C 120.777 -3.38546 -1.26762 0
M  V30 1310 O 120.498 -4.37195 -0.281376 0
M  V30 1311 C 121.999 -3.93966 -2.03239 0
M  V30 1312 H 119.219 -0.650918 -0.162931 0
M  V30 1313 H 121.763 -2.03959 0.148601 0
M  V30 1314 H 119.918 -3.33609 -1.96936 0
M  V30 1315 H 120.332 -5.18975 -0.759267 0
M  V30 1316 H 121.806 -4.94555 -2.45193 0
M  V30 1317 H 122.283 -3.30693 -2.8903 0
M  V30 1318 H 122.889 -4.02315 -1.37924 0
M  V30 1319 N 121.204 0.198386 -1.56346 0
M  V30 1320 C 122.45 0.920648 -1.80698 0
M  V30 1321 C 122.783 1.83045 -0.648697 0
M  V30 1322 O 122.058 1.91308 0.350925 0
M  V30 1323 C 122.341 1.73971 -3.15287 0
M  V30 1324 C 122.194 0.85485 -4.41602 0
M  V30 1325 C 123.513 2.71296 -3.46535 0
M  V30 1326 H 120.632 0.333261 -0.657348 0
M  V30 1327 H 123.274 0.188198 -1.89066 0
M  V30 1328 H 121.424 2.36416 -3.08285 0
M  V30 1329 H 123.096 0.245362 -4.60647 0
M  V30 1330 H 121.339 0.161398 -4.335 0
M  V30 1331 H 122.01 1.46286 -5.32264 0
M  V30 1332 H 124.486 2.18983 -3.53816 0
M  V30 1333 H 123.362 3.2569 -4.41834 0
M  V30 1334 H 123.623 3.5018 -2.69864 0
M  V30 1335 N 122.682 1.50554 0.465978 0
M  V30 1336 C 123.63 1.70324 1.58406 0
M  V30 1337 C 124.624 0.569139 1.59553 0
M  V30 1338 O 125.83 0.749776 1.63641 0
M  V30 1339 H 122.205 0.537688 0.525734 0
M  V30 1340 H 124.176 2.64104 1.38894 0
M  V30 1341 C 122.925 1.81928 2.96307 0
M  V30 1342 H 122.248 2.68586 2.96144 0
M  V30 1343 H 123.688 1.99784 3.73982 0
M  V30 1344 C 122.147 0.572095 3.32007 0
M  V30 1345 O 122.677 -0.286416 4.00678 0
M  V30 1346 N 120.883 0.424606 2.87481 0
M  V30 1347 H 120.43 1.12427 2.31771 0
M  V30 1348 H 120.388 -0.408697 3.11732 0
M  V30 1349 N 124.16 -0.719506 1.40217 0
M  V30 1350 C 125.408 -1.47641 1.3801 0
M  V30 1351 C 125.729 -1.94992 -0.018145 0
M  V30 1352 O 124.999 -1.70073 -0.972207 0
M  V30 1353 H 123.579 -0.547744 0.507923 0
M  V30 1354 H 126.241 -0.853187 1.75233 0
M  V30 1355 H 125.337 -2.35112 2.05253 0
M  V30 1356 N 125.638 -1.25649 -0.95132 0
M  V30 1357 C 126.588 -1.03004 -2.03406 0
M  V30 1358 C 127.572 0.034187 -1.60864 0
M  V30 1359 O 128.764 -0.181549 -1.76066 0
M  V30 1360 C 125.893 -0.654255 -3.37008 0
M  V30 1361 C 124.979 -1.75542 -3.86065 0
M  V30 1362 N 125.37 -2.99113 -4.07879 0
M  V30 1363 C 123.668 -1.63669 -4.14884 0
M  V30 1364 C 124.369 -3.70611 -4.48356 0
M  V30 1365 N 123.345 -2.98247 -4.54477 0
M  V30 1366 H 127.147 -1.96813 -2.1827 0
M  V30 1367 H 124.661 -1.16017 -1.13639 0
M  V30 1368 H 126.658 -0.473206 -4.14206 0
M  V30 1369 H 125.318 0.276468 -3.23521 0
M  V30 1370 H 126.329 -3.35124 -3.94857 0
M  V30 1371 H 123.006 -0.775161 -4.10241 0
M  V30 1372 H 124.396 -4.76695 -4.73509 0
M  V30 1373 N 127.117 1.15442 -1.07289 0
M  V30 1374 C 128.047 2.22312 -0.714107 0
M  V30 1375 C 129.028 1.67467 0.298155 0
M  V30 1376 O 130.213 1.93445 0.171048 0
M  V30 1377 C 127.343 3.47124 -0.110448 0
M  V30 1378 C 126.297 4.14926 -1.04979 0
M  V30 1379 C 125.623 5.33807 -0.308924 0
M  V30 1380 C 126.923 4.64762 -2.38314 0
M  V30 1381 H 128.617 2.5258 -1.6076 0
M  V30 1382 H 126.163 1.21404 -0.77441 0
M  V30 1383 H 128.116 4.21124 0.152482 0
M  V30 1384 H 126.84 3.16187 0.81812 0
M  V30 1385 H 125.499 3.42866 -1.29764 0
M  V30 1386 H 125.147 4.99126 0.623084 0
M  V30 1387 H 124.847 5.80113 -0.935036 0
M  V30 1388 H 126.371 6.10576 -0.0537771 0
M  V30 1389 H 127.785 5.30292 -2.1786 0
M  V30 1390 H 126.182 5.21728 -2.96514 0
M  V30 1391 H 127.252 3.80434 -3.00663 0
M  V30 1392 N 128.595 0.856903 1.32268 0
M  V30 1393 C 129.825 0.47475 2.01071 0
M  V30 1394 C 130.233 -0.933746 1.64553 0
M  V30 1395 O 129.576 -1.62114 0.863989 0
M  V30 1396 C 129.638 0.536746 3.55471 0
M  V30 1397 C 129.302 1.90453 4.15423 0
M  V30 1398 C 130.299 2.87029 4.33486 0
M  V30 1399 C 127.984 2.20229 4.51447 0
M  V30 1400 C 129.978 4.11532 4.86744 0
M  V30 1401 C 127.665 3.44984 5.0441 0
M  V30 1402 C 128.663 4.40452 5.22007 0
M  V30 1403 O 128.351 5.62998 5.73837 0
M  V30 1404 H 128.083 0.184778 0.650256 0
M  V30 1405 H 130.637 1.15615 1.69771 0
M  V30 1406 H 128.867 -0.20152 3.86175 0
M  V30 1407 H 130.556 0.169875 4.05544 0
M  V30 1408 H 131.322 2.6533 4.05986 0
M  V30 1409 H 127.201 1.46705 4.37034 0
M  V30 1410 H 130.745 4.86056 5.00395 0
M  V30 1411 H 126.642 3.66532 5.31342 0
M  V30 1412 H 127.41 5.64987 5.92226 0
M  V30 1413 N 130.073 -1.45103 0.615059 0
M  V30 1414 C 131.02 -2.30586 -0.0993978 0
M  V30 1415 C 131.99 -1.42544 -0.852669 0
M  V30 1416 O 133.175 -1.71465 -0.836917 0
M  V30 1417 C 130.315 -3.27572 -1.08583 0
M  V30 1418 C 129.428 -4.30717 -0.332656 0
M  V30 1419 C 128.563 -5.14807 -1.30947 0
M  V30 1420 C 127.602 -6.09673 -0.544538 0
M  V30 1421 N 126.739 -6.86517 -1.47101 0
M  V30 1422 H 131.579 -2.91144 0.635542 0
M  V30 1423 H 129.116 -1.4346 0.325206 0
M  V30 1424 H 131.074 -3.82276 -1.67095 0
M  V30 1425 H 129.704 -2.68751 -1.78809 0
M  V30 1426 H 128.756 -3.78615 0.368107 0
M  V30 1427 H 130.068 -4.98102 0.263842 0
M  V30 1428 H 129.222 -5.73948 -1.96643 0
M  V30 1429 H 127.961 -4.47458 -1.9399 0
M  V30 1430 H 126.966 -5.49656 0.126003 0
M  V30 1431 H 128.191 -6.79052 0.080947 0
M  V30 1432 H 126.137 -6.21851 -2.08895 0
M  V30 1433 H 126.054 -7.50281 -0.928137 0
M  V30 1434 H 127.322 -7.50194 -2.11731 0
M  V30 1435 N 131.551 -0.354651 -1.53558 0
M  V30 1436 C 132.779 0.239515 -2.05509 0
M  V30 1437 C 133.194 1.4333 -1.2289 0
M  V30 1438 O 132.551 1.80538 -0.266899 0
M  V30 1439 C 132.602 0.643719 -3.55723 0
M  V30 1440 O 132.323 -0.502602 -4.35207 0
M  V30 1441 C 133.824 1.29743 -4.23889 0
M  V30 1442 H 131.044 0.0442697 -0.669538 0
M  V30 1443 H 133.588 -0.509856 -1.98042 0
M  V30 1444 H 131.743 1.34302 -3.63376 0
M  V30 1445 H 132.157 -0.178172 -5.24197 0
M  V30 1446 H 133.631 1.53091 -5.30346 0
M  V30 1447 H 134.108 2.25441 -3.76926 0
M  V30 1448 H 134.714 0.639865 -4.20459 0
M  V30 1449 N 133.029 1.57378 -0.0835403 0
M  V30 1450 C 133.977 2.14602 0.89714 0
M  V30 1451 C 134.971 1.08589 1.30018 0
M  V30 1452 O 136.177 1.26952 1.27606 0
M  V30 1453 H 132.552 0.686346 0.3073 0
M  V30 1454 H 134.523 2.95845 0.38969 0
M  V30 1455 C 133.272 2.73188 2.15089 0
M  V30 1456 H 132.595 3.54442 1.84962 0
M  V30 1457 H 134.035 3.1681 2.81793 0
M  V30 1458 C 132.494 1.68517 2.91725 0
M  V30 1459 O 133.024 1.11718 3.85852 0
M  V30 1460 N 131.23 1.39277 2.55049 0
M  V30 1461 H 130.777 1.85655 1.78577 0
M  V30 1462 H 130.735 0.694791 3.06627 0
M  V30 1463 N 134.507 -0.190092 1.56449 0
M  V30 1464 C 135.737 -0.92443 1.84764 0
M  V30 1465 C 136.145 -1.77146 0.664529 0
M  V30 1466 O 135.488 -1.79812 -0.375957 0
M  V30 1467 C 135.55 -1.86651 3.07248 0
M  V30 1468 C 135.214 -1.20094 4.40938 0
M  V30 1469 C 136.211 -0.575445 5.16706 0
M  V30 1470 C 133.896 -1.2033 4.87674 0
M  V30 1471 C 135.89 0.0388111 6.37388 0
M  V30 1472 C 133.577 -0.585214 6.08291 0
M  V30 1473 C 134.575 0.0347578 6.82991 0
M  V30 1474 O 134.263 0.643147 8.01323 0
M  V30 1475 H 133.995 -0.274974 0.617548 0
M  V30 1476 H 136.549 -0.200788 2.04416 0
M  V30 1477 H 134.779 -2.62998 2.83494 0
M  V30 1478 H 136.468 -2.46907 3.22167 0
M  V30 1479 H 137.234 -0.565728 4.81689 0
M  V30 1480 H 133.113 -1.67526 4.29484 0
M  V30 1481 H 136.657 0.523329 6.95634 0
M  V30 1482 H 132.554 -0.592451 6.42775 0
M  V30 1483 H 133.322 0.540545 8.16713 0
M  V30 1484 N 135.985 -1.50799 -0.457987 0
M  V30 1485 C 136.915 -1.73553 -1.5621 0
M  V30 1486 C 137.896 -0.584774 -1.59732 0
M  V30 1487 O 139.081 -0.825314 -1.7579 0
M  V30 1488 C 136.211 -1.84169 -2.94447 0
M  V30 1489 C 135.165 -2.99461 -3.0579 0
M  V30 1490 C 134.491 -2.95235 -4.45803 0
M  V30 1491 C 135.791 -4.39766 -2.81786 0
M  V30 1492 H 137.485 -2.66 -1.37421 0
M  V30 1493 H 135.031 -1.28002 -0.659662 0
M  V30 1494 H 136.984 -1.98672 -3.71628 0
M  V30 1495 H 135.708 -0.883545 -3.14422 0
M  V30 1496 H 134.367 -2.8463 -2.31044 0
M  V30 1497 H 134.015 -1.97239 -4.62715 0
M  V30 1498 H 133.715 -3.72642 -4.54326 0
M  V30 1499 H 135.239 -3.11803 -5.24987 0
M  V30 1500 H 136.653 -4.55054 -3.4871 0
M  V30 1501 H 135.05 -5.18722 -3.0174 0
M  V30 1502 H 136.12 -4.51229 -1.7754 0
M  V30 1503 N 137.463 0.71206 -1.40597 0
M  V30 1504 C 138.691 1.50111 -1.42388 0
M  V30 1505 C 139.106 1.88784 -0.0245395 0
M  V30 1506 O 138.463 1.55681 0.952351 0
M  V30 1507 C 138.514 2.7742 -2.31776 0
M  V30 1508 O 138.235 2.40382 -3.66262 0
M  V30 1509 C 139.736 3.7129 -2.42196 0
M  V30 1510 H 136.956 0.46314 -0.485533 0
M  V30 1511 H 139.5 0.878068 -1.8469 0
M  V30 1512 H 137.655 3.36001 -1.92827 0
M  V30 1513 H 138.069 3.22324 -4.13772 0
M  V30 1514 H 139.543 4.57448 -3.08943 0
M  V30 1515 H 140.02 4.14641 -1.44809 0
M  V30 1516 H 140.626 3.18619 -2.81712 0
M  V30 1517 N 138.941 1.26152 0.944643 0
M  V30 1518 C 139.891 1.04081 2.02857 0
M  V30 1519 C 140.875 -0.0256555 1.6088 0
M  V30 1520 O 142.067 0.190884 1.75968 0
M  V30 1521 C 139.196 0.672118 3.36656 0
M  V30 1522 C 138.282 1.77586 3.85128 0
M  V30 1523 N 138.673 3.01272 4.06287 0
M  V30 1524 C 136.971 1.65867 4.1401 0
M  V30 1525 C 137.672 3.72983 4.46384 0
M  V30 1526 N 136.648 3.00653 4.52889 0
M  V30 1527 H 140.45 1.97968 2.17223 0
M  V30 1528 H 137.964 1.16618 1.13022 0
M  V30 1529 H 139.961 0.495166 4.13949 0
M  V30 1530 H 138.621 -0.259307 3.23663 0
M  V30 1531 H 139.632 3.37213 3.93075 0
M  V30 1532 H 136.309 0.796907 4.09824 0
M  V30 1533 H 137.699 4.792 4.70975 0
M  V30 1534 N 140.419 -1.14872 1.07899 0
M  V30 1535 C 141.835 -1.37776 0.805606 0
M  V30 1536 C 142.035 -1.92743 -0.587555 0
M  V30 1537 O 141.091 -2.13678 -1.34528 0
M  V30 1538 C 142.404 -2.34361 1.88402 0
M  V30 1539 C 143.952 -2.48012 1.90942 0
M  V30 1540 C 144.427 -3.47893 2.97883 0
M  V30 1541 N 145.918 -3.55433 2.97021 0
M  V30 1542 C 146.653 -4.32553 3.76412 0
M  V30 1543 N 146.149 -5.12959 4.65666 0
M  V30 1544 N 147.942 -4.27697 3.64735 0
M  V30 1545 H 140.093 -0.775365 1.97742 0
M  V30 1546 H 142.356 -0.403521 0.857831 0
M  V30 1547 H 142.062 -2.01098 2.88535 0
M  V30 1548 H 141.936 -3.34206 1.74889 0
M  V30 1549 H 144.323 -2.8057 0.914579 0
M  V30 1550 H 144.404 -1.48147 2.08534 0
M  V30 1551 H 144.048 -3.16069 3.97571 0
M  V30 1552 H 143.978 -4.47527 2.77538 0
M  V30 1553 H 146.469 -2.98048 2.32326 0
M  V30 1554 H 146.782 -5.69065 5.22862 0
M  V30 1555 H 145.127 -5.12245 4.69712 0
M  V30 1556 H 148.318 -3.63949 2.94378 0
M  V30 1557 H 148.491 -4.8755 4.26848 0
M  V30 1558 N 141.898 -0.863906 -1.31812 0
M  V30 1559 C 142.83 -0.272485 -2.27575 0
M  V30 1560 C 143.843 0.56104 -1.52827 0
M  V30 1561 O 145.032 0.384021 -1.7432 0
M  V30 1562 C 142.132 0.63283 -3.32939 0
M  V30 1563 C 141.305 -0.166902 -4.37081 0
M  V30 1564 C 140.364 0.665608 -5.21973 0
M  V30 1565 O 139.39 0.0958091 -5.69119 0
M  V30 1566 N 140.592 1.9787 -5.45736 0
M  V30 1567 H 143.357 -1.0954 -2.78964 0
M  V30 1568 H 140.918 -0.724791 -1.4477 0
M  V30 1569 H 142.91 1.19532 -3.86645 0
M  V30 1570 H 141.48 1.35642 -2.81638 0
M  V30 1571 H 140.7 -0.910838 -3.83533 0
M  V30 1572 H 141.988 -0.715874 -5.03739 0
M  V30 1573 H 141.386 2.46484 -5.09178 0
M  V30 1574 H 139.943 2.48911 -6.024 0
M  V30 1575 N 143.376 1.44774 -0.622745 0
M  V30 1576 C 144.604 2.06487 -0.130722 0
M  V30 1577 C 145.019 1.46476 1.19123 0
M  V30 1578 O 144.376 0.584502 1.72887 0
M  V30 1579 C 144.427 3.615 -0.000807207 0
M  V30 1580 O 144.148 4.19274 -1.27048 0
M  V30 1581 C 145.649 4.40229 0.520898 0
M  V30 1582 H 142.869 0.666704 -0.0758106 0
M  V30 1583 H 145.413 1.85779 -0.854774 0
M  V30 1584 H 143.568 3.81498 0.673643 0
M  V30 1585 H 143.982 5.12622 -1.1099 0
M  V30 1586 H 145.456 5.49144 0.560838 0
M  V30 1587 H 145.933 4.1108 1.54627 0
M  V30 1588 H 146.539 4.25131 -0.120018 0
M  V30 1589 N 144.854 0.36279 1.53368 0
M  V30 1590 C 145.802 -0.500155 2.27159 0
M  V30 1591 C 146.796 -1.08575 1.3003 0
M  V30 1592 O 148.002 -1.02927 1.47668 0
M  V30 1593 H 144.377 -0.180009 0.730138 0
M  V30 1594 H 146.348 0.14401 2.98052 0
M  V30 1595 C 145.097 -1.62937 3.07159 0
M  V30 1596 H 144.42 -1.18806 3.8174 0
M  V30 1597 H 145.86 -2.20795 3.61975 0
M  V30 1598 C 144.319 -2.57007 2.17829 0
M  V30 1599 O 144.849 -3.59752 1.78721 0
M  V30 1600 N 143.055 -2.26131 1.82518 0
M  V30 1601 H 142.602 -1.42616 2.14519 0
M  V30 1602 H 142.56 -2.89327 1.23034 0
M  V30 1603 N 146.332 -1.57332 0.0918853 0
M  V30 1604 C 147.56 -1.98574 -0.581048 0
M  V30 1605 C 147.975 -0.970903 -1.61923 0
M  V30 1606 O 147.332 0.0399054 -1.82456 0
M  V30 1607 C 147.383 -3.39872 -1.23164 0
M  V30 1608 O 147.104 -4.37469 -0.234989 0
M  V30 1609 C 148.605 -3.96099 -1.99049 0
M  V30 1610 H 145.825 -0.65261 -0.156018 0
M  V30 1611 H 148.369 -2.0379 0.170225 0
M  V30 1612 H 146.524 -3.35679 -1.93386 0
M  V30 1613 H 146.938 -5.19751 -0.70418 0
M  V30 1614 H 148.412 -4.97127 -2.39934 0
M  V30 1615 H 148.889 -3.3374 -2.85507 0
M  V30 1616 H 149.495 -4.03755 -1.3365 0
M  V30 1617 N 147.81 0.181792 -1.56548 0
M  V30 1618 C 149.059 0.898348 -1.8059 0
M  V30 1619 C 149.372 1.83862 -0.667379 0
M  V30 1620 O 150.578 2.59678 -0.792446 0
M  V30 1621 C 149.034 1.64791 -3.19956 0
M  V30 1622 C 148.642 0.751789 -4.41647 0
M  V30 1623 C 150.386 2.35331 -3.53298 0
M  V30 1624 C 148.293 1.50098 -5.72035 0
M  V30 1625 H 147.223 0.339194 -0.673397 0
M  V30 1626 H 149.874 0.151413 -1.82874 0
M  V30 1627 H 148.256 2.43921 -3.11959 0
M  V30 1628 H 149.43 -0.0018076 -4.608 0
M  V30 1629 H 147.745 0.156562 -4.16106 0
M  V30 1630 H 150.342 2.91958 -4.47956 0
M  V30 1631 H 150.685 3.10164 -2.77676 0
M  V30 1632 H 151.218 1.63154 -3.62803 0
M  V30 1633 H 147.957 0.795175 -6.50659 0
M  V30 1634 H 147.477 2.22817 -5.56878 0
M  V30 1635 H 149.156 2.05125 -6.13622 0
M  V30 1636 N 149.288 1.51039 0.449983 0
M  V30 1637 C 150.537 1.62317 1.19733 0
M  V30 1638 C 150.85 0.339101 1.92638 0
M  V30 1639 O 152.056 0.331069 2.69474 0
M  V30 1640 C 150.512 2.86608 2.17678 0
M  V30 1641 C 150.12 4.21972 1.50479 0
M  V30 1642 C 151.864 3.07239 2.92924 0
M  V30 1643 C 149.771 5.37426 2.46834 0
M  V30 1644 H 148.701 0.604532 0.450619 0
M  V30 1645 H 151.352 1.77494 0.465625 0
M  V30 1646 H 149.734 2.65037 2.94231 0
M  V30 1647 H 150.908 4.53878 0.795716 0
M  V30 1648 H 149.223 4.07117 0.874344 0
M  V30 1649 H 151.82 3.90668 3.65079 0
M  V30 1650 H 152.163 2.19807 3.5354 0
M  V30 1651 H 152.696 3.29091 2.23481 0
M  V30 1652 H 149.435 6.27079 1.90926 0
M  V30 1653 H 148.955 5.09912 3.15832 0
M  V30 1654 H 150.634 5.68862 3.08228 0
M  V30 1655 N 150.766 -0.704594 1.40972 0
M  V30 1656 C 152.043 -1.45847 1.30338 0
M  V30 1657 C 152.423 -2.10973 -0.0732344 0
M  V30 1658 O 151.771 -2.00997 -1.08685 0
M  V30 1659 C 151.981 -2.48525 2.45023 0
M  V30 1660 C 153.329 -3.1404 2.8577 0
M  V30 1661 O 154.353 -2.58848 2.44696 0
M  V30 1662 O 153.212 -4.13981 3.56766 0
M  V30 1663 H 150.306 -0.649092 0.512454 0
M  V30 1664 H 152.852 -0.735836 1.52917 0
M  V30 1665 H 151.624 -1.98994 3.36923 0
M  V30 1666 H 151.247 -3.2831 2.24272 0
M  V30 1667 N 152.244 -1.26651 -0.937939 0
M  V30 1668 C 153.49 -1.12553 -1.687 0
M  V30 1669 C 153.823 0.329782 -1.91379 0
M  V30 1670 O 153.098 1.24202 -1.4968 0
M  V30 1671 C 153.381 -1.89862 -3.05981 0
M  V30 1672 C 153.234 -3.43318 -2.90607 0
M  V30 1673 C 154.553 -1.69499 -4.0615 0
M  V30 1674 H 151.672 -0.410257 -0.612257 0
M  V30 1675 H 154.314 -1.55685 -1.08913 0
M  V30 1676 H 152.464 -1.53204 -3.57017 0
M  V30 1677 H 154.136 -3.89747 -2.46769 0
M  V30 1678 H 152.379 -3.70179 -2.26164 0
M  V30 1679 H 153.05 -3.92642 -3.8799 0
M  V30 1680 H 155.526 -2.01442 -3.64088 0
M  V30 1681 H 154.402 -2.26002 -5.00214 0
M  V30 1682 H 154.663 -0.640365 -4.37438 0
M  V30 1683 N 153.722 1.14298 -1.08507 0
M  V30 1684 C 154.968 1.85633 -0.816581 0
M  V30 1685 C 155.301 1.82784 0.656021 0
M  V30 1686 O 154.576 1.25926 1.48233 0
M  V30 1687 C 154.859 3.34223 -1.34041 0
M  V30 1688 C 154.712 3.45639 -2.87843 0
M  V30 1689 C 156.031 4.29356 -0.9665 0
M  V30 1690 H 153.15 0.67402 -0.298104 0
M  V30 1691 H 155.792 1.34214 -1.34487 0
M  V30 1692 H 153.942 3.78144 -0.89104 0
M  V30 1693 H 155.614 3.10498 -3.41158 0
M  V30 1694 H 153.857 2.86817 -3.25451 0
M  V30 1695 H 154.528 4.50089 -3.19569 0
M  V30 1696 H 157.004 3.93457 -1.35391 0
M  V30 1697 H 155.88 5.3178 -1.3602 0
M  V30 1698 H 156.141 4.41919 0.126362 0
M  V30 1699 N 155.201 0.870884 1.31352 0
M  V30 1700 C 156.131 0.343096 2.30966 0
M  V30 1701 C 157.112 -0.566507 1.60389 0
M  V30 1702 O 158.297 -0.483336 1.88089 0
M  V30 1703 C 155.427 -0.455487 3.443 0
M  V30 1704 C 154.381 0.361103 4.26474 0
M  V30 1705 C 153.707 -0.563221 5.31725 0
M  V30 1706 C 155.007 1.59566 4.97329 0
M  V30 1707 H 156.701 1.17548 2.75359 0
M  V30 1708 H 154.247 0.566686 1.32381 0
M  V30 1709 H 156.2 -0.83525 4.13039 0
M  V30 1710 H 154.924 -1.32139 2.98675 0
M  V30 1711 H 153.583 0.722825 3.59403 0
M  V30 1712 H 153.231 -1.42643 4.82351 0
M  V30 1713 H 152.931 -0.0207409 5.87596 0
M  V30 1714 H 154.455 -0.939808 6.03324 0
M  V30 1715 H 155.869 1.28728 5.58661 0
M  V30 1716 H 154.266 2.07728 5.63 0
M  V30 1717 H 155.336 2.34798 4.24262 0
M  V30 1718 N 156.679 -1.44442 0.630414 0
M  V30 1719 C 157.904 -2.06927 0.139944 0
M  V30 1720 C 158.329 -1.46795 -1.17613 0
M  V30 1721 O 157.687 -0.569144 -1.72135 0
M  V30 1722 C 157.735 -3.6058 0.0379581 0
M  V30 1723 O 156.839 -3.99937 -1.0062 0
M  V30 1724 H 156.18 -0.658608 0.0844483 0
M  V30 1725 H 158.71 -1.85327 0.866891 0
M  V30 1726 H 158.72 -4.07714 -0.152856 0
M  V30 1727 H 157.395 -4.03728 0.998809 0
M  V30 1728 H 155.972 -3.64436 -0.79001 0
M  V30 1729 N 158.157 -0.370918 -1.53173 0
M  V30 1730 C 159.568 0.107139 -1.86392 0
M  V30 1731 C 159.919 1.47714 -1.29132 0
M  V30 1732 O 159.044 2.07464 -0.615439 0
M  V30 1733 C 159.639 0.201187 -3.38202 0
M  V30 1734 C 158.198 0.623507 -3.712 0
M  V30 1735 C 157.345 -0.225978 -2.76378 0
M  V30 1736 H 160.296 -0.58951 -1.47345 0
M  V30 1737 H 160.317 1.02377 -3.66468 0
M  V30 1738 H 159.829 -0.796058 -3.79848 0
M  V30 1739 H 157.93 1.62879 -3.35114 0
M  V30 1740 H 158.043 0.394414 -4.77474 0
M  V30 1741 H 156.407 0.305962 -2.52856 0
M  V30 1742 H 157.19 -1.22086 -3.20858 0
M  V30 1743 N 159.635 1.57281 -0.100228 0
M  V30 1744 C 160.86 1.99302 0.573881 0
M  V30 1745 C 161.285 0.979059 1.60611 0
M  V30 1746 O 160.643 -0.0517803 1.81226 0
M  V30 1747 C 160.691 3.40274 1.19358 0
M  V30 1748 O 159.795 3.41676 2.30935 0
M  V30 1749 H 159.136 0.647944 0.145138 0
M  V30 1750 H 161.666 2.03779 -0.183156 0
M  V30 1751 H 161.676 3.78078 1.53365 0
M  V30 1752 H 160.351 4.13594 0.437385 0
M  V30 1753 H 158.928 3.15672 1.98509 0
M  V30 1754 N 161.113 -0.173488 1.56642 0
M  V30 1755 C 162.063 -1.21941 1.92651 0
M  V30 1756 C 163.047 -1.39912 0.794577 0
M  V30 1757 O 164.239 -1.41919 1.05773 0
M  V30 1758 C 161.368 -2.55935 2.28806 0
M  V30 1759 C 160.454 -2.41667 3.48508 0
M  V30 1760 N 160.845 -1.9711 4.65813 0
M  V30 1761 C 159.143 -2.72499 3.53072 0
M  V30 1762 C 159.844 -1.95253 5.47952 0
M  V30 1763 N 158.82 -2.37575 4.88937 0
M  V30 1764 H 162.622 -0.866581 2.80834 0
M  V30 1765 H 160.136 -0.381776 1.57849 0
M  V30 1766 H 162.133 -3.31511 2.52797 0
M  V30 1767 H 160.793 -2.92022 1.41961 0
M  V30 1768 H 161.804 -1.67481 4.90072 0
M  V30 1769 H 158.481 -3.12639 2.767 0
M  V30 1770 H 159.871 -1.6252 6.51948 0
M  V30 1771 N 162.591 -1.51276 -0.441967 0
M  V30 1772 C 163.839 -1.63392 -1.18943 0
M  V30 1773 C 164.16 -0.350159 -1.9183 0
M  V30 1774 O 163.43 0.633784 -1.85364 0
M  V30 1775 H 162.01 -0.602164 -0.442049 0
M  V30 1776 H 164.672 -1.88186 -0.507165 0
M  V30 1777 H 163.768 -2.45934 -1.92154 0
M  V30 1778 N 164.069 0.697108 -1.41344 0
M  V30 1779 C 165.318 1.45279 -1.39918 0
M  V30 1780 C 165.631 1.95597 -0.0109624 0
M  V30 1781 O 166.837 2.71208 0.125919 0
M  V30 1782 C 165.293 2.62695 -2.46007 0
M  V30 1783 C 164.901 2.19169 -3.90729 0
M  V30 1784 C 166.645 3.40336 -2.53715 0
M  V30 1785 C 164.552 3.33535 -4.88373 0
M  V30 1786 H 163.482 0.545692 -0.520323 0
M  V30 1787 H 166.133 0.756929 -1.67161 0
M  V30 1788 H 164.515 3.34541 -2.11892 0
M  V30 1789 H 165.689 1.54623 -4.34083 0
M  V30 1790 H 164.004 1.54525 -3.86666 0
M  V30 1791 H 166.601 4.2547 -3.2385 0
M  V30 1792 H 166.944 3.85418 -1.5735 0
M  V30 1793 H 167.477 2.75546 -2.86913 0
M  V30 1794 H 164.216 2.93468 -5.86137 0
M  V30 1795 H 163.736 3.96936 -4.49668 0
M  V30 1796 H 165.415 3.99335 -5.09059 0
M  V30 1797 N 165.547 1.27147 0.931209 0
M  V30 1798 C 166.457 1.11372 2.06478 0
M  V30 1799 C 167.473 0.044645 1.73943 0
M  V30 1800 O 168.649 0.250417 1.99837 0
M  V30 1801 C 165.714 0.758838 3.38294 0
M  V30 1802 C 164.775 1.90841 3.84549 0
M  V30 1803 C 164.008 1.57036 5.10074 0
M  V30 1804 O 164.231 0.476645 5.68405 0
M  V30 1805 O 163.165 2.40839 5.51616 0
M  V30 1806 H 166.991 2.06493 2.22698 0
M  V30 1807 H 164.576 1.06301 1.04978 0
M  V30 1808 H 166.458 0.574098 4.17471 0
M  V30 1809 H 165.133 -0.162879 3.2329 0
M  V30 1810 H 164.04 2.14819 3.06274 0
M  V30 1811 H 165.373 2.81021 4.04089 0
M  V30 1812 N 167.025 -1.13721 1.09112 0
M  V30 1813 C 167.955 -2.21148 0.749385 0
M  V30 1814 C 168.936 -1.6792 -0.271475 0
M  V30 1815 O 170.121 -1.93693 -0.140251 0
M  V30 1816 C 167.251 -3.46905 0.165659 0
M  V30 1817 C 166.205 -4.13203 1.11567 0
M  V30 1818 C 165.531 -5.33248 0.393809 0
M  V30 1819 C 166.831 -4.60912 2.45678 0
M  V30 1820 H 168.525 -2.4999 1.64758 0
M  V30 1821 H 166.071 -1.20156 0.793626 0
M  V30 1822 H 168.024 -4.21313 -0.085466 0
M  V30 1823 H 166.748 -3.17449 -0.767714 0
M  V30 1824 H 165.407 -3.40758 1.35202 0
M  V30 1825 H 165.055 -5.00054 -0.543599 0
M  V30 1826 H 164.755 -5.78552 1.02721 0
M  V30 1827 H 166.279 -6.10413 0.150908 0
M  V30 1828 H 167.693 -5.26759 2.26269 0
M  V30 1829 H 166.09 -5.16944 3.04776 0
M  V30 1830 H 167.16 -3.75603 3.06677 0
M  V30 1831 N 168.503 -0.877838 -1.30888 0
M  V30 1832 C 169.728 -0.506629 -2.01117 0
M  V30 1833 C 170.153 0.895564 -1.65412 0
M  V30 1834 O 169.511 1.5923 -0.866922 0
M  V30 1835 C 169.559 -0.680223 -3.54126 0
M  V30 1836 O 168.663 0.277033 -4.11468 0
M  V30 1837 H 168.004 -0.200518 -0.633 0
M  V30 1838 H 170.534 -1.18342 -1.66902 0
M  V30 1839 H 170.544 -0.5765 -4.03907 0
M  V30 1840 H 169.219 -1.70261 -3.79452 0
M  V30 1841 H 167.796 0.127606 -3.72682 0
M  V30 1842 N 169.982 1.44106 -0.638065 0
M  V30 1843 C 171.228 2.02277 -0.145546 0
M  V30 1844 C 171.561 1.50125 1.23191 0
M  V30 1845 O 170.836 0.688133 1.8192 0
M  V30 1846 C 171.119 3.59829 -0.139791 0
M  V30 1847 C 170.972 4.22247 -1.55008 0
M  V30 1848 C 172.291 4.36873 0.531966 0
M  V30 1849 H 169.41 0.734992 -0.0543632 0
M  V30 1850 H 172.052 1.71592 -0.815863 0
M  V30 1851 H 170.202 3.86102 0.431007 0
M  V30 1852 H 171.874 4.07057 -2.1703 0
M  V30 1853 H 170.117 3.79476 -2.10191 0
M  V30 1854 H 170.788 5.31284 -1.49804 0
M  V30 1855 H 173.264 4.16074 0.0464781 0
M  V30 1856 H 172.14 5.4657 0.505206 0
M  V30 1857 H 172.401 4.11995 1.60352 0
M  V30 1858 N 171.46 0.379036 1.52974 0
M  V30 1859 C 172.708 -0.206014 2.01047 0
M  V30 1860 C 173.029 -1.48175 1.26765 0
M  V30 1861 O 172.299 -1.92085 0.384743 0
M  V30 1862 H 170.879 -0.0791184 0.742798 0
M  V30 1863 H 173.541 0.508366 1.88153 0
M  V30 1864 H 172.637 -0.423501 3.09213 0
M  V30 1865 N 172.938 -1.57226 0.108567 0
M  V30 1866 C 173.848 -2.18292 -0.859401 0
M  V30 1867 C 174.864 -1.15612 -1.30038 0
M  V30 1868 O 176.04 -1.48039 -1.36552 0
M  V30 1869 C 173.105 -2.762 -2.09558 0
M  V30 1870 C 172.166 -3.93881 -1.70752 0
M  V30 1871 C 171.399 -4.49018 -2.88477 0
M  V30 1872 O 171.622 -4.03068 -4.036 0
M  V30 1873 O 170.556 -5.39852 -2.66164 0
M  V30 1874 H 174.382 -3.01441 -0.369769 0
M  V30 1875 H 171.967 -1.48945 -0.1165 0
M  V30 1876 H 173.849 -3.13156 -2.81978 0
M  V30 1877 H 172.524 -1.96089 -2.57548 0
M  V30 1878 H 171.431 -3.61713 -0.954714 0
M  V30 1879 H 172.764 -4.75396 -1.27513 0
M  V30 1880 N 174.416 0.165178 -1.56732 0
M  V30 1881 C 175.363 1.2044 -1.96883 0
M  V30 1882 C 176.333 1.43664 -0.833657 0
M  V30 1883 O 177.518 1.56302 -1.09427 0
M  V30 1884 C 174.658 2.53727 -2.33916 0
M  V30 1885 C 173.771 2.3783 -3.6064 0
M  V30 1886 C 172.906 3.64026 -3.86857 0
M  V30 1887 C 171.945 3.43088 -5.06909 0
M  V30 1888 N 171.082 4.61369 -5.29229 0
M  V30 1889 H 175.922 0.854996 -2.85471 0
M  V30 1890 H 173.459 0.41076 -1.41249 0
M  V30 1891 H 175.417 3.31419 -2.53411 0
M  V30 1892 H 174.047 2.8665 -1.48431 0
M  V30 1893 H 173.099 1.51282 -3.49024 0
M  V30 1894 H 174.411 2.18308 -4.4849 0
M  V30 1895 H 173.565 4.50152 -4.06753 0
M  V30 1896 H 172.304 3.86533 -2.97394 0
M  V30 1897 H 171.309 2.55349 -4.86906 0
M  V30 1898 H 172.534 3.21997 -5.97909 0
M  V30 1899 H 170.48 4.84084 -4.42718 0
M  V30 1900 H 170.397 4.44783 -6.11313 0
M  V30 1901 H 171.665 5.48761 -5.53608 0
M  V30 1902 N 175.894 1.51508 0.433938 0
M  V30 1903 C 176.824 1.76016 1.53429 0
M  V30 1904 C 177.805 0.610112 1.58782 0
M  V30 1905 O 178.99 0.853177 1.74455 0
M  V30 1906 C 176.12 1.88831 2.9148 0
M  V30 1907 C 175.074 3.04288 3.00987 0
M  V30 1908 C 174.4 3.0229 4.4105 0
M  V30 1909 C 175.7 4.44193 2.74754 0
M  V30 1910 H 177.394 2.68152 1.33171 0
M  V30 1911 H 174.94 1.29035 0.639214 0
M  V30 1912 H 176.893 2.04559 3.6842 0
M  V30 1913 H 175.617 0.933455 3.12976 0
M  V30 1914 H 174.276 2.8827 2.26486 0
M  V30 1915 H 173.924 2.04576 4.59519 0
M  V30 1916 H 173.624 3.79822 4.4834 0
M  V30 1917 H 175.148 3.20116 5.1996 0
M  V30 1918 H 176.562 4.60544 3.41426 0
M  V30 1919 H 174.959 5.23457 2.9345 0
M  V30 1920 H 176.029 4.53996 1.70339 0
M  V30 1921 N 177.372 -0.689602 1.41712 0
M  V30 1922 C 178.618 -1.45181 1.41599 0
M  V30 1923 C 178.951 -1.94181 0.0270081 0
M  V30 1924 O 178.226 -1.6993 -0.946265 0
M  V30 1925 C 178.509 -2.65945 2.42787 0
M  V30 1926 C 178.362 -2.22672 3.90816 0
M  V30 1927 C 179.681 -3.68149 2.41151 0
M  V30 1928 H 176.8 -0.526576 0.515642 0
M  V30 1929 H 179.442 -0.784947 1.73028 0
M  V30 1930 H 177.592 -3.2284 2.16116 0
M  V30 1931 H 179.264 -1.71058 4.28412 0
M  V30 1932 H 177.507 -1.54394 4.05395 0
M  V30 1933 H 178.178 -3.0935 4.57172 0
M  V30 1934 H 180.654 -3.2094 2.64834 0
M  V30 1935 H 179.53 -4.50248 3.13955 0
M  V30 1936 H 179.791 -4.18259 1.43221 0
M  V30 1937 N 178.85 -1.27639 -0.924453 0
M  V30 1938 C 179.78 -1.13166 -2.04244 0
M  V30 1939 C 180.761 -0.032256 -1.70069 0
M  V30 1940 O 181.946 -0.207328 -1.9309 0
M  V30 1941 C 179.076 -0.781496 -3.38393 0
M  V30 1942 C 178.03 -1.83449 -3.86692 0
M  V30 1943 C 177.356 -1.33822 -5.17683 0
M  V30 1944 C 178.656 -3.23917 -4.09726 0
M  V30 1945 H 180.35 -2.06689 -2.1661 0
M  V30 1946 H 177.896 -0.995136 -1.04082 0
M  V30 1947 H 179.849 -0.667057 -4.16087 0
M  V30 1948 H 178.573 0.189439 -3.2605 0
M  V30 1949 H 177.232 -1.93789 -3.11193 0
M  V30 1950 H 176.88 -0.35665 -5.01734 0
M  V30 1951 H 176.58 -2.04224 -5.50968 0
M  V30 1952 H 178.104 -1.23679 -5.97943 0
M  V30 1953 H 179.518 -3.16559 -4.77978 0
M  V30 1954 H 177.915 -3.92059 -4.54324 0
M  V30 1955 H 178.985 -3.68729 -3.14908 0
M  V30 1956 N 180.328 1.1314 -1.09713 0
M  V30 1957 C 181.276 2.20717 -0.733934 0
M  V30 1958 C 182.27 1.6729 0.266506 0
M  V30 1959 O 183.476 1.79547 0.127656 0
M  V30 1960 H 179.851 0.719292 -0.21937 0
M  V30 1961 H 181.822 2.48611 -1.6503 0
M  V30 1962 C 180.571 3.47265 -0.173849 0
M  V30 1963 H 179.894 3.88716 -0.934873 0
M  V30 1964 H 181.334 4.23979 0.0423126 0
M  V30 1965 C 179.793 3.18724 1.09164 0
M  V30 1966 O 180.323 3.37762 2.17439 0
M  V30 1967 N 178.529 2.72583 1.00732 0
M  V30 1968 H 178.076 2.57291 0.126121 0
M  V30 1969 H 178.034 2.53862 1.85476 0
M  V30 1970 N 181.806 0.884767 1.30421 0
M  V30 1971 C 183.046 0.509806 1.9794 0
M  V30 1972 C 183.41 -0.923736 1.68319 0
M  V30 1973 O 184.611 -1.40481 2.29169 0
M  V30 1974 C 182.882 0.776732 3.48858 0
M  V30 1975 S 184.441 0.503843 4.35898 0
M  V30 1976 H 181.259 0.189699 0.685227 0
M  V30 1977 H 183.861 1.14399 1.58535 0
M  V30 1978 H 182.565 1.81857 3.67908 0
M  V30 1979 H 182.096 0.1301 3.93185 0
M  V30 1980 H 184.111 -0.657625 4.91823 0
M  V30 1981 N 183.284 -1.43765 0.645699 0
M  V30 1982 C 184.512 -2.06253 0.163556 0
M  V30 1983 C 184.927 -1.48352 -1.16778 0
M  V30 1984 O 184.284 -0.611932 -1.71935 0
M  V30 1985 C 184.335 -3.61453 0.0583186 0
M  V30 1986 O 184.056 -4.172 1.33702 0
M  V30 1987 C 185.557 -4.41002 -0.450795 0
M  V30 1988 H 182.777 -0.665413 0.0864077 0
M  V30 1989 H 185.321 -1.84396 0.884222 0
M  V30 1990 H 183.476 -3.82522 -0.612865 0
M  V30 1991 H 183.89 -5.10791 1.19131 0
M  V30 1992 H 185.364 -5.49966 -0.473403 0
M  V30 1993 H 185.841 -4.13488 -1.48068 0
M  V30 1994 H 186.447 -4.24886 0.187637 0
M  V30 1995 N 184.763 -0.387143 -1.52771 0
M  V30 1996 C 185.726 0.436939 -2.24997 0
M  V30 1997 C 186.726 0.991991 -1.26555 0
M  V30 1998 O 187.916 0.874335 -1.50669 0
M  V30 1999 C 185.048 1.61281 -3.00335 0
M  V30 2000 H 186.241 -0.195365 -2.99263 0
M  V30 2001 H 183.794 -0.139218 -1.55679 0
M  V30 2002 H 184.529 2.2826 -2.30364 0
M  V30 2003 H 184.314 1.22154 -3.72587 0
M  V30 2004 H 185.804 2.19629 -3.5518 0
M  V30 2005 N 186.241 1.57166 -0.116904 0
M  V30 2006 C 187.657 1.5779 0.239693 0
M  V30 2007 C 187.857 1.1295 1.66867 0
M  V30 2008 O 186.913 0.81592 2.38954 0
M  V30 2009 C 188.226 3.00699 0.00828202 0
M  V30 2010 C 189.774 3.12912 0.0743438 0
M  V30 2011 C 190.249 4.57817 -0.129348 0
M  V30 2012 N 191.74 4.63139 -0.075247 0
M  V30 2013 C 192.475 5.73023 -0.207788 0
M  V30 2014 N 191.971 6.91665 -0.396382 0
M  V30 2015 N 193.764 5.61906 -0.14751 0
M  V30 2016 H 185.915 1.84615 -1.05029 0
M  V30 2017 H 188.178 0.85311 -0.41341 0
M  V30 2018 H 187.884 3.37784 -0.979531 0
M  V30 2019 H 187.758 3.69848 0.741077 0
M  V30 2020 H 190.145 2.75686 1.05268 0
M  V30 2021 H 190.226 2.4631 -0.690297 0
M  V30 2022 H 189.87 4.95742 -1.10465 0
M  V30 2023 H 189.8 5.22507 0.655253 0
M  V30 2024 H 192.291 3.7784 0.0670898 0
M  V30 2025 H 192.604 7.71255 -0.488437 0
M  V30 2026 H 190.949 6.93654 -0.432329 0
M  V30 2027 H 194.14 4.681 -0.00115036 0
M  V30 2028 H 194.313 6.47501 -0.254247 0
M  V30 2029 N 187.719 -0.156864 1.56817 0
M  V30 2030 C 188.947 -0.886316 1.86955 0
M  V30 2031 C 189.362 -1.75185 0.703975 0
M  V30 2032 O 188.719 -1.79555 -0.326552 0
M  V30 2033 C 188.77 -1.75117 3.16253 0
M  V30 2034 O 188.491 -0.920537 4.2832 0
M  V30 2035 C 189.992 -2.58905 3.59837 0
M  V30 2036 H 187.212 -0.25678 0.619923 0
M  V30 2037 H 189.756 -0.152615 2.0393 0
M  V30 2038 H 187.911 -2.43805 3.01062 0
M  V30 2039 H 188.325 -1.51337 5.02192 0
M  V30 2040 H 189.799 -3.1518 4.53172 0
M  V30 2041 H 190.276 -3.34472 2.84649 0
M  V30 2042 H 190.882 -1.95526 3.7769 0
M  V30 2043 N 189.197 -1.51736 -0.425897 0
M  V30 2044 C 190.107 -1.76738 -1.54275 0
M  V30 2045 C 191.123 -0.65211 -1.61318 0
M  V30 2046 O 192.299 -0.935654 -1.78346 0
M  V30 2047 C 189.364 -1.89755 -2.90162 0
M  V30 2048 C 188.425 -3.13633 -2.93143 0
M  V30 2049 C 187.658 -3.2602 -4.22548 0
M  V30 2050 O 187.881 -2.44067 -5.15546 0
M  V30 2051 O 186.815 -4.19071 -4.32046 0
M  V30 2052 H 190.641 -2.71502 -1.36089 0
M  V30 2053 H 188.226 -1.36376 -0.610069 0
M  V30 2054 H 190.108 -2.00236 -3.70788 0
M  V30 2055 H 188.783 -0.981785 -3.08452 0
M  V30 2056 H 187.69 -3.08622 -2.11431 0
M  V30 2057 H 189.023 -4.04936 -2.798 0
M  V30 2058 N 190.675 0.682077 -1.42076 0
M  V30 2059 C 191.605 1.80796 -1.47767 0
M  V30 2060 C 192.586 1.6677 -0.334954 0
M  V30 2061 O 193.771 1.863 -0.548264 0
M  V30 2062 C 190.901 3.19038 -1.37229 0
M  V30 2063 C 189.855 3.47789 -2.49453 0
M  V30 2064 C 189.181 4.8553 -2.23975 0
M  V30 2065 C 190.481 3.45411 -3.91776 0
M  V30 2066 H 192.175 1.7629 -2.41997 0
M  V30 2067 H 189.721 0.846721 -1.16476 0
M  V30 2068 H 191.674 3.97528 -1.39821 0
M  V30 2069 H 190.398 3.24204 -0.394907 0
M  V30 2070 H 189.057 2.71657 -2.46166 0
M  V30 2071 H 188.705 4.87337 -1.24547 0
M  V30 2072 H 188.405 5.0573 -2.99184 0
M  V30 2073 H 189.929 5.66312 -2.28304 0
M  V30 2074 H 191.343 4.13882 -3.96705 0
M  V30 2075 H 189.74 3.77145 -4.66778 0
M  V30 2076 H 190.81 2.44122 -4.18966 0
M  V30 2077 N 192.153 1.28127 0.917671 0
M  V30 2078 C 193.101 1.11569 2.04096 0
M  V30 2079 C 194.095 0.0360242 1.69362 0
M  V30 2080 O 195.301 0.194501 1.78946 0
M  V30 2081 H 191.676 0.344097 0.668656 0
M  V30 2082 H 193.647 2.06711 2.15205 0
M  V30 2083 C 192.396 0.790197 3.38602 0
M  V30 2084 H 191.719 1.61293 3.6582 0
M  V30 2085 H 193.159 0.714271 4.1794 0
M  V30 2086 C 191.618 -0.505897 3.3308 0
M  V30 2087 O 192.148 -1.53736 3.71117 0
M  V30 2088 N 190.354 -0.505193 2.86175 0
M  V30 2089 H 189.901 0.334621 2.55417 0
M  V30 2090 H 189.859 -1.37243 2.82863 0
M  V30 2091 N 193.631 -1.12557 1.10312 0
M  V30 2092 C 194.877 -1.84311 0.846011 0
M  V30 2093 C 195.21 -1.83805 -0.626859 0
M  V30 2094 O 194.485 -1.28268 -1.46211 0
M  V30 2095 C 194.768 -3.32048 1.39341 0
M  V30 2096 C 194.621 -3.41016 2.93305 0
M  V30 2097 C 195.94 -4.27764 1.03468 0
M  V30 2098 H 193.059 -0.669192 0.30879 0
M  V30 2099 H 195.701 -1.32057 1.36605 0
M  V30 2100 H 193.851 -3.76678 0.951087 0
M  V30 2101 H 195.523 -3.05031 3.46055 0
M  V30 2102 H 193.766 -2.81603 3.29973 0
M  V30 2103 H 194.437 -4.44948 3.26689 0
M  V30 2104 H 196.913 -3.91253 1.41633 0
M  V30 2105 H 195.789 -5.29549 1.44463 0
M  V30 2106 H 196.05 -4.42064 -0.0560404 0
M  V30 2107 N 195.109 -0.891671 -1.2995 0
M  V30 2108 C 196.357 -0.512486 -1.95494 0
M  V30 2109 C 196.678 0.942776 -1.70695 0
M  V30 2110 O 195.948 1.66374 -1.03424 0
M  V30 2111 H 194.528 -0.186533 -0.723336 0
M  V30 2112 H 197.19 -1.13621 -1.58355 0
M  V30 2113 H 196.286 -0.688342 -3.04415 0
M  V30 2114 N 196.587 1.43421 -0.653314 0
M  V30 2115 C 197.836 2.01032 -0.164076 0
M  V30 2116 C 198.149 1.52147 1.22926 0
M  V30 2117 O 199.355 2.02031 1.81371 0
M  V30 2118 C 197.811 3.59082 -0.24252 0
M  V30 2119 C 197.419 4.1696 -1.63855 0
M  V30 2120 C 199.163 4.24079 0.18911 0
M  V30 2121 C 197.07 5.67304 -1.67092 0
M  V30 2122 H 196 0.751798 -0.0575769 0
M  V30 2123 H 198.651 1.6439 -0.815362 0
M  V30 2124 H 197.033 3.93125 0.476276 0
M  V30 2125 H 198.207 3.94416 -2.38271 0
M  V30 2126 H 196.522 3.64335 -2.01616 0
M  V30 2127 H 199.119 5.34381 0.184775 0
M  V30 2128 H 199.462 3.98005 1.22056 0
M  V30 2129 H 199.995 3.94918 -0.477938 0
M  V30 2130 H 196.734 5.98145 -2.68146 0
M  V30 2131 H 196.254 5.91904 -0.970014 0
M  V30 2132 H 197.933 6.31344 -1.4147 0
M  V30 2133 N 198.065 0.39524 1.52563 0
M  V30 2134 C 199.342 -0.242908 1.94086 0
M  V30 2135 C 199.722 -1.63841 1.33114 0
M  V30 2136 O 199.07 -2.22928 0.501529 0
M  V30 2137 C 199.28 -0.26327 3.48006 0
M  V30 2138 C 200.628 -0.489354 4.21771 0
M  V30 2139 O 201.652 -0.343226 3.54543 0
M  V30 2140 O 200.511 -0.776169 5.4096 0
M  V30 2141 H 197.605 -0.152536 0.812811 0
M  V30 2142 H 200.151 0.450178 1.6362 0
M  V30 2143 H 198.923 0.713985 3.84731 0
M  V30 2144 H 198.546 -1.00103 3.84792 0
M  V30 2145 N 199.544 -1.57102 0.125237 0
M  V30 2146 C 200.791 -1.95407 -0.531248 0
M  V30 2147 C 201.119 -1.0089 -1.66287 0
M  V30 2148 O 200.374 -0.0339431 -1.95671 0
M  V30 2149 C 200.673 -3.40096 -1.09862 0
M  V30 2150 C 200.339 -4.50815 -0.0876989 0
M  V30 2151 C 199.001 -4.80824 0.19026 0
M  V30 2152 C 201.353 -5.17724 0.600902 0
M  V30 2153 C 198.681 -5.75058 1.163 0
M  V30 2154 C 201.033 -6.13005 1.56231 0
M  V30 2155 C 199.697 -6.41403 1.8482 0
M  V30 2156 H 198.967 -0.715046 -0.194397 0
M  V30 2157 H 201.614 -1.90373 0.207463 0
M  V30 2158 H 199.919 -3.41855 -1.91422 0
M  V30 2159 H 201.616 -3.6705 -1.61478 0
M  V30 2160 H 198.206 -4.27444 -0.314528 0
M  V30 2161 H 202.39 -4.94691 0.399333 0
M  V30 2162 H 197.646 -5.95362 1.39117 0
M  V30 2163 H 201.82 -6.63934 2.10153 0
M  V30 2164 H 199.447 -7.14229 2.60349 0
M  V30 2165 N 201.022 0.148545 -1.56898 0
M  V30 2166 C 201.97 1.20265 -1.99096 0
M  V30 2167 C 202.964 1.44559 -0.883123 0
M  V30 2168 O 204.17 1.4487 -1.0683 0
M  V30 2169 H 200.545 0.404786 -0.63376 0
M  V30 2170 H 202.516 0.82004 -2.86911 0
M  V30 2171 C 201.265 2.52886 -2.3863 0
M  V30 2172 H 200.588 2.35021 -3.23427 0
M  V30 2173 H 202.028 3.25274 -2.7198 0
M  V30 2174 C 200.487 3.13315 -1.23837 0
M  V30 2175 O 201.017 3.98077 -0.538268 0
M  V30 2176 N 199.223 2.72742 -1.00301 0
M  V30 2177 H 198.77 2.03912 -1.5741 0
M  V30 2178 H 198.728 3.13507 -0.236838 0
M  V30 2179 N 202.5 1.5196 0.417844 0
M  V30 2180 C 203.746 1.66793 1.16411 0
M  V30 2181 C 204.101 0.388758 1.88432 0
M  V30 2182 O 203.394 -0.616409 1.81414 0
M  V30 2183 C 203.588 2.82269 2.19223 0
M  V30 2184 C 203.417 4.21293 1.57297 0
M  V30 2185 C 202.187 4.86948 1.34944 0
M  V30 2186 C 204.385 5.03704 1.03858 0
M  V30 2187 N 202.367 6.1003 0.688195 0
M  V30 2188 C 203.738 6.1795 0.503742 0
M  V30 2189 C 205.793 4.89095 0.932203 0
M  V30 2190 C 204.496 7.19188 -0.127034 0
M  V30 2191 C 206.522 5.90559 0.315293 0
M  V30 2192 C 205.884 7.0409 -0.208906 0
M  V30 2193 H 201.983 0.66407 0.412959 0
M  V30 2194 H 204.567 1.89242 0.457772 0
M  V30 2195 H 202.738 2.61451 2.87225 0
M  V30 2196 H 204.47 2.86183 2.86149 0
M  V30 2197 H 201.225 4.45156 1.61657 0
M  V30 2198 H 201.649 6.75964 0.374449 0
M  V30 2199 H 206.291 4.01557 1.32332 0
M  V30 2200 H 204.009 8.06359 -0.530231 0
M  V30 2201 H 207.595 5.81327 0.234625 0
M  V30 2202 H 206.475 7.81257 -0.67875 0
M  V30 2203 N 203.978 -0.674533 1.42435 0
M  V30 2204 C 204.888 -1.81751 1.48337 0
M  V30 2205 C 205.904 -1.69975 0.372099 0
M  V30 2206 O 207.08 -1.91521 0.62304 0
M  V30 2207 C 204.145 -3.17895 1.38361 0
M  V30 2208 C 203.206 -3.41625 2.59982 0
M  V30 2209 C 202.439 -4.71274 2.50473 0
M  V30 2210 O 202.662 -5.49197 1.54075 0
M  V30 2211 O 201.596 -4.96254 3.4061 0
M  V30 2212 H 205.422 -1.79728 2.44809 0
M  V30 2213 H 203.007 -0.830312 1.24202 0
M  V30 2214 H 204.889 -3.99136 1.35161 0
M  V30 2215 H 203.564 -3.20555 0.450144 0
M  V30 2216 H 202.471 -2.60231 2.68757 0
M  V30 2217 H 203.804 -3.43796 3.52229 0
M  V30 2218 N 205.456 -1.28612 -0.910864 0
M  V30 2219 C 206.686 -1.1862 -1.69153 0
M  V30 2220 C 207.094 0.257324 -1.87442 0
M  V30 2221 O 206.437 1.18543 -1.40332 0
M  V30 2222 C 206.499 -1.81606 -3.10257 0
M  V30 2223 C 206.163 -3.30864 -3.15243 0
M  V30 2224 C 207.16 -4.27256 -2.96223 0
M  V30 2225 C 204.845 -3.71871 -3.37664 0
M  V30 2226 C 206.839 -5.62631 -2.99541 0
M  V30 2227 C 204.526 -5.07371 -3.40614 0
M  V30 2228 C 205.524 -6.02561 -3.21573 0
M  V30 2229 O 205.212 -7.35589 -3.2429 0
M  V30 2230 H 204.944 -0.412633 -0.535453 0
M  V30 2231 H 207.498 -1.70306 -1.14827 0
M  V30 2232 H 205.728 -1.24418 -3.66138 0
M  V30 2233 H 207.417 -1.66092 -3.70362 0
M  V30 2234 H 208.183 -3.9691 -2.78725 0
M  V30 2235 H 204.062 -2.98241 -3.5153 0
M  V30 2236 H 207.606 -6.36907 -2.84597 0
M  V30 2237 H 203.503 -5.37366 -3.57642 0
M  V30 2238 H 204.271 -7.44252 -3.40633 0
M  V30 2239 N 206.934 1.1197 -1.10907 0
M  V30 2240 C 208.345 1.65114 -0.871446 0
M  V30 2241 C 208.696 1.86885 0.597353 0
M  V30 2242 O 207.821 1.59896 1.45816 0
M  V30 2243 C 208.416 2.99944 -1.5754 0
M  V30 2244 C 206.975 3.50018 -1.38435 0
M  V30 2245 C 206.122 2.24941 -1.62164 0
M  V30 2246 H 209.073 0.956851 -1.2661 0
M  V30 2247 H 209.094 3.66651 -1.01721 0
M  V30 2248 H 208.606 2.84067 -2.64438 0
M  V30 2249 H 206.707 3.71071 -0.337214 0
M  V30 2250 H 206.82 4.29165 -2.12965 0
M  V30 2251 H 205.184 2.3229 -1.04467 0
M  V30 2252 H 205.967 2.11612 -2.70324 0
M  V30 2253 N 208.412 0.89855 1.29475 0
M  V30 2254 C 209.637 0.538561 2.00285 0
M  V30 2255 C 210.062 -0.869135 1.66816 0
M  V30 2256 O 209.42 -1.57831 0.892145 0
M  V30 2257 C 209.468 0.736475 3.52999 0
M  V30 2258 O 208.572 -0.211537 4.11857 0
M  V30 2259 H 207.913 0.210563 0.62973 0
M  V30 2260 H 210.443 1.20982 1.64998 0
M  V30 2261 H 210.453 0.640685 4.02938 0
M  V30 2262 H 209.128 1.76276 3.76696 0
M  V30 2263 H 207.705 -0.0682991 3.72837 0
M  V30 2264 N 209.89 -1.43072 0.660911 0
M  V30 2265 C 211.115 -2.06584 0.183805 0
M  V30 2266 C 211.54 -1.49257 -1.14472 0
M  V30 2267 O 210.898 -0.605528 -1.70889 0
M  V30 2268 C 210.946 -3.60418 0.114434 0
M  V30 2269 O 210.05 -4.01981 -0.921137 0
M  V30 2270 H 209.391 -0.656669 0.0983994 0
M  V30 2271 H 211.921 -1.83447 0.906006 0
M  V30 2272 H 211.931 -4.07946 -0.0663394 0
M  V30 2273 H 210.606 -4.01519 1.08422 0
M  V30 2274 H 209.183 -3.66029 -0.71253 0
M  V30 2275 N 211.368 -0.403325 -1.52352 0
M  V30 2276 C 212.315 0.425011 -2.26853 0
M  V30 2277 C 213.285 1.04598 -1.29029 0
M  V30 2278 O 214.47 1.07135 -1.57882 0
M  V30 2279 C 211.61 1.53888 -3.08889 0
M  V30 2280 C 210.723 0.939396 -4.21663 0
M  V30 2281 C 209.858 2.02547 -4.91068 0
M  V30 2282 C 208.897 1.40263 -5.95813 0
M  V30 2283 N 208.034 2.4286 -6.58759 0
M  V30 2284 H 212.874 -0.21674 -2.97211 0
M  V30 2285 H 210.411 -0.118722 -1.4662 0
M  V30 2286 H 212.369 2.19558 -3.54753 0
M  V30 2287 H 210.999 2.15074 -2.40714 0
M  V30 2288 H 210.051 0.171898 -3.80011 0
M  V30 2289 H 211.363 0.44436 -4.96817 0
M  V30 2290 H 210.517 2.75958 -5.40308 0
M  V30 2291 H 209.256 2.55415 -4.15469 0
M  V30 2292 H 208.261 0.653833 -5.45898 0
M  V30 2293 H 209.486 0.881719 -6.73352 0
M  V30 2294 H 207.432 2.94871 -5.85992 0
M  V30 2295 H 207.349 1.98152 -7.2957 0
M  V30 2296 H 208.617 3.15858 -7.12639 0
M  V30 2297 N 212.846 1.57033 -0.133567 0
M  V30 2298 C 213.796 2.12641 0.822671 0
M  V30 2299 C 214.78 1.05081 1.21847 0
M  V30 2300 O 215.972 1.31287 1.18713 0
M  V30 2301 C 213.101 2.74094 2.06706 0
M  V30 2302 C 212.187 3.88757 1.69497 0
M  V30 2303 N 212.578 4.95194 1.03037 0
M  V30 2304 C 210.876 3.99213 1.98859 0
M  V30 2305 C 211.577 5.75414 0.852873 0
M  V30 2306 N 210.553 5.25726 1.3825 0
M  V30 2307 H 214.355 2.92308 0.305537 0
M  V30 2308 H 211.869 1.62256 0.0684276 0
M  V30 2309 H 213.866 3.12285 2.76195 0
M  V30 2310 H 212.526 1.95896 2.5895 0
M  V30 2311 H 213.537 5.13247 0.692669 0
M  V30 2312 H 210.214 3.32075 2.53047 0
M  V30 2313 H 211.604 6.71089 0.330091 0
M  V30 2314 N 214.325 -0.140222 1.56975 0
M  V30 2315 C 215.257 -1.19818 1.95388 0
M  V30 2316 C 216.27 -1.38816 0.850525 0
M  V30 2317 O 217.459 -1.38267 1.12891 0
M  V30 2318 C 214.559 -2.56189 2.21857 0
M  V30 2319 C 213.732 -2.58077 3.5315 0
M  V30 2320 C 212.791 -3.76037 3.6808 0
M  V30 2321 O 211.817 -3.60598 4.40406 0
M  V30 2322 N 213.019 -4.93763 3.05251 0
M  V30 2323 H 215.784 -0.871609 2.86746 0
M  V30 2324 H 213.345 -0.32972 1.58507 0
M  V30 2325 H 215.337 -3.33623 2.2908 0
M  V30 2326 H 213.907 -2.81111 1.36731 0
M  V30 2327 H 213.127 -1.6651 3.57307 0
M  V30 2328 H 214.415 -2.56377 4.39486 0
M  V30 2329 H 213.813 -5.09209 2.46419 0
M  V30 2330 H 212.37 -5.68949 3.18026 0
M  V30 2331 N 215.803 -1.52179 -0.40978 0
M  V30 2332 C 216.753 -1.71857 -1.49831 0
M  V30 2333 C 217.737 -0.572469 -1.50372 0
M  V30 2334 O 218.929 -0.829509 -1.56359 0
M  V30 2335 C 216.058 -1.87206 -2.87765 0
M  V30 2336 C 215.144 -3.07685 -2.91875 0
M  V30 2337 N 215.535 -4.30403 -2.65683 0
M  V30 2338 C 213.833 -3.07505 -3.23043 0
M  V30 2339 C 214.534 -5.11868 -2.76344 0
M  V30 2340 N 213.51 -4.47101 -3.09195 0
M  V30 2341 H 217.312 -2.64381 -1.28375 0
M  V30 2342 H 214.826 -1.50203 -0.617479 0
M  V30 2343 H 216.823 -1.99419 -3.66111 0
M  V30 2344 H 215.483 -0.958814 -3.10221 0
M  V30 2345 H 216.494 -4.58887 -2.4009 0
M  V30 2346 H 213.171 -2.25915 -3.51096 0
M  V30 2347 H 214.561 -6.19634 -2.59814 0
M  V30 2348 N 217.281 0.66697 -1.42791 0
M  V30 2349 C 218.228 1.7803 -1.4688 0
M  V30 2350 C 219.198 1.6299 -0.319919 0
M  V30 2351 O 220.383 1.83432 -0.525118 0
M  V30 2352 C 217.523 3.1611 -1.38451 0
M  V30 2353 C 216.636 3.42381 -2.63437 0
M  V30 2354 C 215.771 4.70232 -2.47094 0
M  V30 2355 C 214.81 4.89564 -3.67415 0
M  V30 2356 N 213.947 6.08661 -3.49966 0
M  V30 2357 H 218.787 1.7387 -2.42019 0
M  V30 2358 H 216.324 0.84868 -1.20149 0
M  V30 2359 H 218.282 3.95914 -1.31561 0
M  V30 2360 H 216.912 3.19374 -0.469033 0
M  V30 2361 H 215.964 2.56774 -2.80662 0
M  V30 2362 H 217.276 3.52557 -3.52853 0
M  V30 2363 H 216.43 5.5814 -2.37834 0
M  V30 2364 H 215.169 4.62353 -1.5518 0
M  V30 2365 H 214.174 4.00096 -3.77099 0
M  V30 2366 H 215.399 4.99282 -4.6032 0
M  V30 2367 H 213.345 6.0194 -2.60776 0
M  V30 2368 H 213.262 6.19733 -4.32975 0
M  V30 2369 H 214.53 6.99226 -3.44532 0
M  V30 2370 N 218.759 1.29093 0.90403 0
M  V30 2371 C 219.706 1.13853 2.00764 0
M  V30 2372 C 220.676 0.0330084 1.66067 0
M  V30 2373 O 221.861 0.199733 1.89752 0
M  V30 2374 C 219.001 0.816537 3.35301 0
M  V30 2375 C 218.114 2.00206 3.82807 0
M  V30 2376 C 217.249 1.61983 5.059 0
M  V30 2377 C 216.288 2.77143 5.45764 0
M  V30 2378 N 215.425 2.39346 6.60044 0
M  V30 2379 H 220.265 2.08276 2.13132 0
M  V30 2380 H 217.802 1.03648 1.04381 0
M  V30 2381 H 219.76 0.610557 4.12708 0
M  V30 2382 H 218.39 -0.090779 3.22672 0
M  V30 2383 H 217.442 2.31988 3.01473 0
M  V30 2384 H 218.754 2.86512 4.08304 0
M  V30 2385 H 217.908 1.37649 5.90879 0
M  V30 2386 H 216.647 0.728202 4.82233 0
M  V30 2387 H 215.652 3.02165 4.59322 0
M  V30 2388 H 216.877 3.66964 5.71414 0
M  V30 2389 H 214.823 1.52665 6.37989 0
M  V30 2390 H 214.74 3.19185 6.85315 0
M  V30 2391 H 216.008 2.1832 7.48303 0
M  V30 2392 N 220.237 -1.11381 1.11499 0
M  V30 2393 C 221.167 -2.19509 0.796125 0
M  V30 2394 C 222.148 -1.68458 -0.235796 0
M  V30 2395 O 223.333 -1.93947 -0.0991344 0
M  V30 2396 C 220.463 -3.46475 0.239205 0
M  V30 2397 C 219.417 -4.10744 1.20307 0
M  V30 2398 C 218.743 -5.32293 0.50683 0
M  V30 2399 C 220.043 -4.55597 2.55399 0
M  V30 2400 H 221.737 -2.46439 1.70024 0
M  V30 2401 H 219.283 -1.18446 0.818935 0
M  V30 2402 H 221.236 -4.214 0.00392006 0
M  V30 2403 H 219.96 -3.19006 -0.700206 0
M  V30 2404 H 218.619 -3.37813 1.42399 0
M  V30 2405 H 218.267 -5.01095 -0.437408 0
M  V30 2406 H 217.967 -5.76243 1.1497 0
M  V30 2407 H 219.491 -6.09956 0.280351 0
M  V30 2408 H 220.905 -5.21841 2.37391 0
M  V30 2409 H 219.302 -5.10363 3.15673 0
M  V30 2410 H 220.372 -3.69013 3.14575 0
M  V30 2411 N 221.715 -0.905404 -1.28997 0
M  V30 2412 C 222.961 -0.535039 -1.95615 0
M  V30 2413 C 223.294 0.917404 -1.71165 0
M  V30 2414 O 222.569 1.65123 -1.02785 0
M  V30 2415 C 222.852 -0.834918 -3.50287 0
M  V30 2416 C 222.705 -2.33948 -3.84172 0
M  V30 2417 C 224.024 -0.325318 -4.38896 0
M  V30 2418 H 221.143 -0.195861 -0.710498 0
M  V30 2419 H 223.785 -1.13313 -1.52513 0
M  V30 2420 H 221.935 -0.325904 -3.87131 0
M  V30 2421 H 223.607 -2.91847 -3.57243 0
M  V30 2422 H 221.85 -2.79789 -3.31513 0
M  V30 2423 H 222.521 -2.49987 -4.92149 0
M  V30 2424 H 224.997 -0.761256 -4.09077 0
M  V30 2425 H 223.873 -0.564295 -5.45992 0
M  V30 2426 H 224.134 0.774144 -4.35269 0
M  V30 2427 N 223.193 1.4272 -0.668489 0
M  V30 2428 C 224.141 2.32586 0.0254857 0
M  V30 2429 C 225.135 1.49471 0.797176 0
M  V30 2430 O 226.341 1.65583 0.705853 0
M  V30 2431 H 222.716 0.751514 0.0270339 0
M  V30 2432 H 224.687 2.88823 -0.749936 0
M  V30 2433 C 223.436 3.3397 0.967427 0
M  V30 2434 H 222.759 3.97961 0.383048 0
M  V30 2435 H 224.199 3.9945 1.42181 0
M  V30 2436 C 222.658 2.65744 2.0708 0
M  V30 2437 O 223.188 2.48454 3.15648 0
M  V30 2438 N 221.394 2.2487 1.8407 0
M  V30 2439 H 220.941 2.39132 0.95778 0
M  V30 2440 H 220.899 1.79552 2.58086 0
M  V30 2441 N 224.671 0.411399 1.52136 0
M  V30 2442 C 226.087 0.0623865 1.59478 0
M  V30 2443 C 226.287 -1.42554 1.4241 0
M  V30 2444 O 225.343 -2.19263 1.2522 0
M  V30 2445 C 226.656 0.559331 2.95452 0
M  V30 2446 C 228.204 0.517503 3.08692 0
M  V30 2447 C 228.679 0.990994 4.4715 0
M  V30 2448 N 230.17 0.947908 4.53397 0
M  V30 2449 C 230.905 1.28544 5.58806 0
M  V30 2450 N 230.401 1.69454 6.71757 0
M  V30 2451 N 232.194 1.20526 5.49026 0
M  V30 2452 H 224.345 1.37982 1.61477 0
M  V30 2453 H 226.608 0.566977 0.759764 0
M  V30 2454 H 226.314 1.59938 3.1323 0
M  V30 2455 H 226.188 -0.0298014 3.77188 0
M  V30 2456 H 228.575 -0.513505 2.90598 0
M  V30 2457 H 228.656 1.14272 2.28857 0
M  V30 2458 H 228.3 2.02034 4.65988 0
M  V30 2459 H 228.23 0.34257 5.25485 0
M  V30 2460 H 230.721 0.647157 3.72317 0
M  V30 2461 H 231.034 1.93513 7.48179 0
M  V30 2462 H 229.379 1.73359 6.73032 0
M  V30 2463 H 232.57 0.884505 4.59667 0
M  V30 2464 H 232.743 1.47161 6.31069 0
M  V30 2465 N 226.149 -1.5696 0.141893 0
M  V30 2466 C 227.426 -1.87553 -0.555281 0
M  V30 2467 C 227.806 -1.04699 -1.83306 0
M  V30 2468 O 227.154 -0.132346 -2.28116 0
M  V30 2469 C 227.364 -3.39093 -0.825664 0
M  V30 2470 C 228.712 -4.08199 -1.16869 0
M  V30 2471 O 229.736 -3.44242 -0.915185 0
M  V30 2472 O 228.595 -5.21139 -1.6455 0
M  V30 2473 H 225.689 -0.777188 -0.282679 0
M  V30 2474 H 228.235 -1.68763 0.17812 0
M  V30 2475 H 227.007 -3.91221 0.0788633 0
M  V30 2476 H 226.63 -3.63393 -1.61343 0
M  V30 2477 N 227.627 0.131896 -1.57047 0
M  V30 2478 C 228.557 1.16384 -2.02428 0
M  V30 2479 C 229.538 1.43936 -0.90644 0
M  V30 2480 O 230.723 1.54599 -1.17528 0
M  V30 2481 C 227.853 2.49328 -2.4177 0
M  V30 2482 C 226.807 2.36266 -3.56879 0
M  V30 2483 C 226.133 3.74057 -3.8208 0
M  V30 2484 C 227.433 1.834 -4.89042 0
M  V30 2485 H 229.127 0.786433 -2.88887 0
M  V30 2486 H 226.673 0.376855 -1.38981 0
M  V30 2487 H 228.626 3.21759 -2.7212 0
M  V30 2488 H 227.35 2.88934 -1.52266 0
M  V30 2489 H 226.009 1.66286 -3.26718 0
M  V30 2490 H 225.657 4.11125 -2.89803 0
M  V30 2491 H 225.357 3.66174 -4.59554 0
M  V30 2492 H 226.881 4.48012 -4.1487 0
M  V30 2493 H 228.295 2.45636 -5.18011 0
M  V30 2494 H 226.692 1.8637 -5.70426 0
M  V30 2495 H 227.762 0.790662 -4.7841 0
M  V30 2496 N 229.106 1.52395 0.401703 0
M  V30 2497 C 230.053 1.76268 1.48991 0
M  V30 2498 C 231.023 0.605386 1.54675 0
M  V30 2499 O 232.208 0.843742 1.7113 0
M  V30 2500 C 229.348 1.92592 2.86361 0
M  V30 2501 C 228.461 3.20259 2.89928 0
M  V30 2502 C 227.596 3.26972 4.18644 0
M  V30 2503 C 226.635 4.48812 4.16214 0
M  V30 2504 N 225.772 4.52877 5.36514 0
M  V30 2505 H 230.612 2.6914 1.27935 0
M  V30 2506 H 228.149 1.33355 0.620871 0
M  V30 2507 H 230.107 2.0004 3.66115 0
M  V30 2508 H 228.737 1.03093 3.05895 0
M  V30 2509 H 227.789 3.21945 2.02621 0
M  V30 2510 H 229.101 4.10056 2.83999 0
M  V30 2511 H 228.255 3.33533 5.06794 0
M  V30 2512 H 226.994 2.35126 4.27278 0
M  V30 2513 H 225.999 4.4239 3.26453 0
M  V30 2514 H 227.224 5.41961 4.09213 0
M  V30 2515 H 225.17 3.63917 5.45802 0
M  V30 2516 H 225.087 5.36529 5.32609 0
M  V30 2517 H 226.355 4.63676 6.26597 0
M  V30 2518 N 230.584 -0.659388 1.43143 0
M  V30 2519 C 231.812 -1.44723 1.47861 0
M  V30 2520 C 232.227 -1.88563 0.0945886 0
M  V30 2521 O 231.584 -1.59108 -0.893915 0
M  V30 2522 C 231.635 -2.68627 2.41913 0
M  V30 2523 O 231.356 -2.26623 3.74932 0
M  V30 2524 C 232.857 -3.62045 2.55809 0
M  V30 2525 H 230.077 -0.444801 0.502387 0
M  V30 2526 H 232.621 -0.808916 1.87821 0
M  V30 2527 H 230.776 -3.28613 2.05164 0
M  V30 2528 H 231.19 -3.06745 4.2545 0
M  V30 2529 H 232.664 -4.45666 3.25708 0
M  V30 2530 H 233.141 -4.08981 1.60099 0
M  V30 2531 H 233.747 -3.07944 2.93344 0
M  V30 2532 N 232.062 -1.29571 -0.897171 0
M  V30 2533 C 232.994 -1.10724 -2.00681 0
M  V30 2534 C 234.007 -0.0540026 -1.6271 0
M  V30 2535 O 235.196 -0.298783 -1.75982 0
M  V30 2536 C 232.296 -0.663912 -3.32333 0
M  V30 2537 C 231.469 -1.79622 -3.98816 0
M  V30 2538 C 230.528 -1.34349 -5.0876 0
M  V30 2539 O 229.554 -2.04864 -5.31055 0
M  V30 2540 N 230.756 -0.215764 -5.80099 0
M  V30 2541 H 233.521 -2.06291 -2.17403 0
M  V30 2542 H 231.082 -1.21544 -1.06951 0
M  V30 2543 H 233.074 -0.344295 -4.03233 0
M  V30 2544 H 231.644 0.199375 -3.11964 0
M  V30 2545 H 230.864 -2.28459 -3.21248 0
M  V30 2546 H 232.152 -2.55535 -4.39976 0
M  V30 2547 H 231.55 0.372091 -5.64475 0
M  V30 2548 H 230.107 0.0444707 -6.51785 0
M  V30 2549 N 233.54 1.10788 -1.12088 0
M  V30 2550 C 234.765 1.87002 -0.896949 0
M  V30 2551 C 235.19 1.79933 0.548261 0
M  V30 2552 O 234.548 1.16662 1.38779 0
M  V30 2553 C 234.596 3.3349 -1.37174 0
M  V30 2554 O 233.7 4.08745 -0.547831 0
M  V30 2555 H 233.041 0.580397 -0.322545 0
M  V30 2556 H 235.571 1.39996 -1.49206 0
M  V30 2557 H 235.581 3.84339 -1.36922 0
M  V30 2558 H 234.256 3.37951 -2.42408 0
M  V30 2559 H 232.833 3.6776 -0.617034 0
M  V30 2560 N 235.018 0.912232 1.28515 0
M  V30 2561 C 236.266 0.543523 1.94654 0
M  V30 2562 C 236.587 -0.9155 1.72173 0
M  V30 2563 O 235.857 -1.64708 1.06058 0
M  V30 2564 H 234.437 0.198017 0.720277 0
M  V30 2565 H 237.099 1.16126 1.56527 0
M  V30 2566 H 236.195 0.736684 3.03281 0
M  V30 2567 N 236.496 -1.42363 0.676048 0
M  V30 2568 C 237.721 -2.06377 0.205705 0
M  V30 2569 C 238.146 -1.50463 -1.12883 0
M  V30 2570 O 237.504 -0.623619 -1.70237 0
M  V30 2571 C 237.552 -3.60277 0.152655 0
M  V30 2572 O 236.656 -4.02935 -0.87845 0
M  V30 2573 H 235.997 -0.655588 0.105359 0
M  V30 2574 H 238.527 -1.82475 0.925412 0
M  V30 2575 H 238.537 -4.07993 -0.0230675 0
M  V30 2576 H 237.212 -4.00346 1.12675 0
M  V30 2577 H 235.789 -3.66764 -0.673668 0
M  V30 2578 N 237.974 -0.419461 -1.51915 0
M  V30 2579 C 238.884 0.407528 -2.31033 0
M  V30 2580 C 239.9 1.04413 -1.3919 0
M  V30 2581 O 241.076 1.0434 -1.72265 0
M  V30 2582 C 238.141 1.50365 -3.12396 0
M  V30 2583 C 237.202 0.889029 -4.19994 0
M  V30 2584 C 236.435 1.93291 -4.97468 0
M  V30 2585 O 236.658 3.15259 -4.75361 0
M  V30 2586 O 235.592 1.53339 -5.8204 0
M  V30 2587 H 239.418 -0.237865 -3.02767 0
M  V30 2588 H 237.003 -0.182413 -1.48282 0
M  V30 2589 H 238.885 2.13975 -3.63032 0
M  V30 2590 H 237.56 2.13345 -2.43445 0
M  V30 2591 H 236.467 0.215353 -3.7348 0
M  V30 2592 H 237.8 0.302991 -4.91267 0
M  V30 2593 N 239.452 1.56882 -0.150215 0
M  V30 2594 C 240.385 2.12712 0.826358 0
M  V30 2595 C 241.363 1.05154 1.24022 0
M  V30 2596 O 242.547 1.33004 1.33575 0
M  V30 2597 C 239.674 2.64945 2.11002 0
M  V30 2598 C 238.72 3.8468 1.84183 0
M  V30 2599 S 239.553 5.25502 1.02995 0
M  V30 2600 C 240.709 5.81125 2.32474 0
M  V30 2601 H 240.942 2.95214 0.351598 0
M  V30 2602 H 238.475 1.54267 0.0641211 0
M  V30 2603 H 240.433 2.95689 2.84742 0
M  V30 2604 H 239.094 1.82568 2.55593 0
M  V30 2605 H 238.287 4.19482 2.79375 0
M  V30 2606 H 237.889 3.54714 1.1855 0
M  V30 2607 H 240.181 5.92753 3.281 0
M  V30 2608 H 241.124 6.78625 2.02171 0
M  V30 2609 H 241.532 5.09392 2.43269 0
M  V30 2610 N 240.93 -0.123565 1.57115 0
M  V30 2611 C 241.877 -1.15177 2.00007 0
M  V30 2612 C 242.847 -1.41403 0.871454 0
M  V30 2613 O 244.032 -1.53346 1.13533 0
M  V30 2614 C 241.172 -2.47436 2.40561 0
M  V30 2615 C 240.285 -2.28184 3.66819 0
M  V30 2616 C 239.42 -3.53641 3.96373 0
M  V30 2617 C 238.459 -3.29528 5.15827 0
M  V30 2618 N 237.596 -4.47175 5.41275 0
M  V30 2619 H 242.436 -0.779008 2.87638 0
M  V30 2620 H 239.973 -0.373166 1.42288 0
M  V30 2621 H 241.931 -3.24584 2.62109 0
M  V30 2622 H 240.561 -2.82614 1.55978 0
M  V30 2623 H 239.613 -1.41976 3.52912 0
M  V30 2624 H 240.925 -2.0634 4.5412 0
M  V30 2625 H 240.079 -4.39209 4.18545 0
M  V30 2626 H 238.818 -3.78512 3.07538 0
M  V30 2627 H 237.823 -2.42349 4.93505 0
M  V30 2628 H 239.048 -3.06031 6.06236 0
M  V30 2629 H 236.994 -4.72175 4.55397 0
M  V30 2630 H 236.911 -4.28419 6.22891 0
M  V30 2631 H 238.179 -5.3389 5.67963 0
M  V30 2632 N 242.408 -1.52605 -0.393616 0
M  V30 2633 C 243.355 -1.77055 -1.48054 0
M  V30 2634 C 244.325 -0.61358 -1.54352 0
M  V30 2635 O 245.51 -0.852806 -1.70681 0
M  V30 2636 C 242.65 -1.94108 -2.85335 0
M  V30 2637 C 241.763 -3.21792 -2.88226 0
M  V30 2638 C 240.898 -3.29188 -4.16904 0
M  V30 2639 C 239.937 -4.51013 -4.13828 0
M  V30 2640 N 239.074 -4.55716 -5.34105 0
M  V30 2641 H 243.914 -2.69815 -1.26506 0
M  V30 2642 H 241.451 -1.33683 -0.61379 0
M  V30 2643 H 243.409 -2.01979 -3.65049 0
M  V30 2644 H 242.039 -1.04713 -3.05344 0
M  V30 2645 H 241.091 -3.23015 -2.00911 0
M  V30 2646 H 242.403 -4.11557 -2.8182 0
M  V30 2647 H 241.557 -3.36216 -5.05018 0
M  V30 2648 H 240.296 -2.37389 -4.26026 0
M  V30 2649 H 239.301 -4.44115 -3.24102 0
M  V30 2650 H 240.526 -5.44123 -4.06333 0
M  V30 2651 H 238.472 -3.66807 -5.43865 0
M  V30 2652 H 238.389 -5.39346 -5.29756 0
M  V30 2653 H 239.657 -4.66993 -6.2413 0
M  V30 2654 N 243.887 0.651787 -1.4349 0
M  V30 2655 C 245.134 1.41167 -1.45183 0
M  V30 2656 C 245.462 1.94349 -0.0766601 0
M  V30 2657 O 244.717 1.72804 0.918555 0
M  V30 2658 C 245.016 2.60914 -2.44251 0
M  V30 2659 C 244.682 2.26142 -3.9009 0
M  V30 2660 C 243.344 2.16371 -4.2981 0
M  V30 2661 C 245.696 1.98334 -4.81989 0
M  V30 2662 C 243.024 1.7695 -5.5938 0
M  V30 2663 C 245.376 1.6041 -6.11924 0
M  V30 2664 C 244.04 1.49166 -6.5062 0
M  V30 2665 H 243.31 0.516566 -0.531263 0
M  V30 2666 H 245.957 0.741099 -1.76579 0
M  V30 2667 H 244.262 3.3311 -2.06265 0
M  V30 2668 H 245.959 3.19127 -2.42815 0
M  V30 2669 H 242.549 2.34658 -3.58655 0
M  V30 2670 H 246.733 2.04803 -4.52072 0
M  V30 2671 H 241.989 1.66831 -5.88198 0
M  V30 2672 H 246.163 1.37925 -6.82605 0
M  V30 2673 H 243.79 1.1839 -7.50925 0
M  V30 2674 N 245.365 1.30045 0.890287 0
M  V30 2675 C 246.295 1.18541 2.01172 0
M  V30 2676 C 247.276 0.0773356 1.69924 0
M  V30 2677 O 248.461 0.25845 1.92473 0
M  V30 2678 C 245.591 0.870941 3.36202 0
M  V30 2679 C 244.545 1.93637 3.81692 0
M  V30 2680 C 243.871 1.475 5.13953 0
M  V30 2681 C 245.171 3.34666 4.00994 0
M  V30 2682 H 246.865 2.12359 2.11054 0
M  V30 2683 H 244.411 1.02238 1.01407 0
M  V30 2684 H 246.364 0.777141 4.14172 0
M  V30 2685 H 245.088 -0.102926 3.26438 0
M  V30 2686 H 243.747 2.01972 3.05946 0
M  V30 2687 H 243.395 0.489551 5.00612 0
M  V30 2688 H 243.095 2.1876 5.4536 0
M  V30 2689 H 244.619 1.39489 5.94454 0
M  V30 2690 H 246.033 3.2912 4.69417 0
M  V30 2691 H 244.43 4.03966 4.43769 0
M  V30 2692 H 245.5 3.76949 3.05021 0
M  V30 2693 N 246.843 -1.10192 1.12674 0
M  V30 2694 C 248.068 -1.86523 0.906853 0
M  V30 2695 C 248.493 -1.80221 -0.538711 0
M  V30 2696 O 247.851 -1.17396 -1.38158 0
M  V30 2697 C 247.899 -3.32758 1.3894 0
M  V30 2698 O 247.003 -4.08449 0.5695 0
M  V30 2699 H 246.344 -0.578678 0.325619 0
M  V30 2700 H 248.874 -1.39203 1.49946 0
M  V30 2701 H 248.884 -3.83608 1.38958 0
M  V30 2702 H 247.559 -3.36661 2.44197 0
M  V30 2703 H 246.136 -3.67427 0.636528 0
M  V30 2704 N 248.321 -0.919034 -1.28029 0
M  V30 2705 C 249.549 -0.570971 -1.98866 0
M  V30 2706 C 249.964 0.848996 -1.68634 0
M  V30 2707 O 249.321 1.56307 -0.942036 0
M  V30 2708 C 249.372 -0.776876 -3.53054 0
M  V30 2709 O 249.093 -2.14097 -3.82222 0
M  V30 2710 C 250.594 -0.436356 -4.41147 0
M  V30 2711 H 247.814 -0.217175 -0.634883 0
M  V30 2712 H 250.358 -1.23368 -1.63097 0
M  V30 2713 H 248.513 -0.161085 -3.87065 0
M  V30 2714 H 248.927 -2.18455 -4.76841 0
M  V30 2715 H 250.401 -0.63117 -5.4838 0
M  V30 2716 H 250.878 0.627686 -4.34692 0
M  V30 2717 H 251.484 -1.02991 -4.12641 0
M  V30 2718 N 249.799 1.42003 -0.683588 0
M  V30 2719 C 250.729 2.33487 -0.024866 0
M  V30 2720 C 251.71 1.51163 0.779975 0
M  V30 2721 O 252.895 1.79739 0.735362 0
M  V30 2722 C 250.025 3.3487 0.920836 0
M  V30 2723 C 248.979 4.27414 0.223958 0
M  V30 2724 C 248.305 5.19074 1.2832 0
M  V30 2725 C 249.605 5.14445 -0.90242 0
M  V30 2726 H 251.299 2.88819 -0.788921 0
M  V30 2727 H 248.845 1.38873 -0.38083 0
M  V30 2728 H 250.798 3.97787 1.39081 0
M  V30 2729 H 249.522 2.77861 1.71642 0
M  V30 2730 H 248.181 3.65904 -0.225864 0
M  V30 2731 H 247.829 4.58387 2.071 0
M  V30 2732 H 247.529 5.81822 0.821995 0
M  V30 2733 H 249.053 5.84867 1.75392 0
M  V30 2734 H 250.467 5.70998 -0.513272 0
M  V30 2735 H 248.864 5.86072 -1.28997 0
M  V30 2736 H 249.934 4.52322 -1.74737 0
M  V30 2737 N 251.277 0.427512 1.51691 0
M  V30 2738 C 252.505 -0.141191 2.06418 0
M  V30 2739 C 252.92 -1.37303 1.29589 0
M  V30 2740 O 252.277 -1.79059 0.352732 0
M  V30 2741 C 252.328 -0.473266 3.58389 0
M  V30 2742 O 252.049 0.709673 4.32314 0
M  V30 2743 C 253.55 -1.09371 4.29596 0
M  V30 2744 H 250.77 -0.0122747 0.670888 0
M  V30 2745 H 253.314 0.603764 1.95384 0
M  V30 2746 H 251.469 -1.16812 3.69369 0
M  V30 2747 H 251.883 0.42807 5.2275 0
M  V30 2748 H 253.357 -1.27613 5.37046 0
M  V30 2749 H 253.834 -2.072 3.87253 0
M  V30 2750 H 254.44 -0.43853 4.23033 0
M  V30 2751 N 252.755 -1.56801 0.158532 0
M  V30 2752 C 254.004 -1.95665 -0.489702 0
M  V30 2753 C 254.317 -1.04654 -1.65248 0
M  V30 2754 O 255.523 -1.33146 -2.3661 0
M  V30 2755 C 253.979 -3.47874 -0.922582 0
M  V30 2756 C 253.587 -4.47489 0.213893 0
M  V30 2757 C 255.331 -3.95583 -1.53996 0
M  V30 2758 C 253.238 -5.90921 -0.237903 0
M  V30 2759 H 252.168 -0.730516 -0.186716 0
M  V30 2760 H 254.819 -1.81861 0.244722 0
M  V30 2761 H 253.201 -3.57051 -1.71261 0
M  V30 2762 H 254.375 -4.50017 0.991036 0
M  V30 2763 H 252.69 -4.09764 0.740407 0
M  V30 2764 H 255.287 -5.0019 -1.8898 0
M  V30 2765 H 255.63 -3.37789 -2.43319 0
M  V30 2766 H 256.163 -3.8937 -0.814611 0
M  V30 2767 H 252.902 -6.52559 0.620236 0
M  V30 2768 H 252.422 -5.91729 -0.980676 0
M  V30 2769 H 254.101 -6.43352 -0.686067 0
M  V30 2770 N 254.233 0.115231 -1.57178 0
M  V30 2771 C 255.51 0.852873 -1.76027 0
M  V30 2772 C 255.89 1.97892 -0.73498 0
M  V30 2773 O 255.238 2.27232 0.24036 0
M  V30 2774 C 255.448 1.36608 -3.21153 0
M  V30 2775 C 256.796 1.81692 -3.83762 0
M  V30 2776 O 257.82 1.46278 -3.24779 0
M  V30 2777 O 256.679 2.47104 -4.87444 0
M  V30 2778 H 253.773 0.405296 -0.720877 0
M  V30 2779 H 256.319 0.0986785 -1.69413 0
M  V30 2780 H 255.091 0.558357 -3.87296 0
M  V30 2781 H 254.714 2.18287 -3.3232 0
M  V30 2782 N 255.711 1.52812 0.385517 0
M  V30 2783 C 256.959 1.67694 1.12797 0
M  V30 2784 C 257.28 0.421115 1.90399 0
M  V30 2785 O 256.55 -0.564551 1.87589 0
M  V30 2786 H 255.13 0.618155 0.419396 0
M  V30 2787 H 257.792 1.89938 0.436972 0
M  V30 2788 H 256.888 2.52896 1.82894 0
M  V30 2789 N 257.189 -0.644168 1.43834 0
M  V30 2790 C 258.435 -1.40603 1.46146 0
M  V30 2791 C 258.768 -1.93997 0.0887717 0
M  V30 2792 O 258.043 -1.72854 -0.891724 0
M  V30 2793 C 258.326 -2.58086 2.51124 0
M  V30 2794 C 258.179 -2.10126 3.97702 0
M  V30 2795 C 259.498 -3.60291 2.52742 0
M  V30 2796 H 256.617 -0.509905 0.532134 0
M  V30 2797 H 259.259 -0.729502 1.75437 0
M  V30 2798 H 257.409 -3.15801 2.26278 0
M  V30 2799 H 259.081 -1.57342 4.33637 0
M  V30 2800 H 257.324 -1.41419 4.10101 0
M  V30 2801 H 257.995 -2.94649 4.66783 0
M  V30 2802 H 260.471 -3.12352 2.7491 0
M  V30 2803 H 259.347 -4.40032 3.28121 0
M  V30 2804 H 259.608 -4.1349 1.56455 0
M  V30 2805 N 258.668 -1.30515 -0.883378 0
M  V30 2806 C 259.896 -1.22359 -1.66841 0
M  V30 2807 C 260.311 0.213296 -1.87591 0
M  V30 2808 O 259.668 1.14075 -1.42454 0
M  V30 2809 C 259.719 -1.95011 -3.04389 0
M  V30 2810 O 259.44 -3.3309 -2.84575 0
M  V30 2811 C 260.941 -1.93532 -3.98824 0
M  V30 2812 H 258.161 -0.423371 -0.520575 0
M  V30 2813 H 260.705 -1.72167 -1.10357 0
M  V30 2814 H 258.86 -1.48997 -3.57601 0
M  V30 2815 H 259.274 -3.69907 -3.71846 0
M  V30 2816 H 260.748 -2.48902 -4.92699 0
M  V30 2817 H 261.225 -0.914627 -4.29571 0
M  V30 2818 H 261.831 -2.39364 -3.51547 0
M  V30 2819 N 260.146 1.09593 -1.13257 0
M  V30 2820 C 261.562 1.33775 -0.870423 0
M  V30 2821 C 261.762 1.95327 0.494926 0
M  V30 2822 O 260.818 2.19853 1.2418 0
M  V30 2823 C 262.131 2.25106 -1.99369 0
M  V30 2824 C 263.679 2.3862 -2.02558 0
M  V30 2825 C 264.154 3.33285 -3.14142 0
M  V30 2826 N 265.645 3.40857 -3.13641 0
M  V30 2827 C 266.38 4.14101 -3.96621 0
M  V30 2828 N 265.876 4.90157 -4.8961 0
M  V30 2829 N 267.669 4.09808 -3.84726 0
M  V30 2830 H 259.82 0.680136 -2.01216 0
M  V30 2831 H 262.083 0.362133 -0.876107 0
M  V30 2832 H 261.789 1.87103 -2.97801 0
M  V30 2833 H 261.663 3.25481 -1.90635 0
M  V30 2834 H 264.05 2.75887 -1.0474 0
M  V30 2835 H 264.131 1.38028 -2.15364 0
M  V30 2836 H 263.775 2.96741 -4.12198 0
M  V30 2837 H 263.705 4.33776 -2.98574 0
M  V30 2838 H 266.196 2.86624 -2.46282 0
M  V30 2839 H 266.509 5.4347 -5.49418 0
M  V30 2840 H 264.854 4.89251 -4.93617 0
M  V30 2841 H 268.045 3.4949 -3.11408 0
M  V30 2842 H 268.218 4.66629 -4.49623 0
M  V30 2843 N 261.624 0.925811 1.2754 0
M  V30 2844 C 262.849 0.580924 1.99098 0
M  V30 2845 C 263.274 -0.833555 1.68622 0
M  V30 2846 O 262.632 -1.55903 0.925422 0
M  V30 2847 C 262.68 0.811186 3.51358 0
M  V30 2848 O 261.784 -0.124129 4.12213 0
M  V30 2849 H 261.125 0.223873 0.625122 0
M  V30 2850 H 263.655 1.24455 1.62395 0
M  V30 2851 H 263.665 0.72601 4.01489 0
M  V30 2852 H 262.34 1.84227 3.72872 0
M  V30 2853 H 260.917 0.0108006 3.72898 0
M  V30 2854 N 263.102 -1.41638 0.69111 0
M  V30 2855 C 264.379 -1.95036 0.148421 0
M  V30 2856 C 264.759 -1.63072 -1.34055 0
M  V30 2857 O 264.107 -0.93538 -2.08478 0
M  V30 2858 C 264.317 -3.46279 0.434951 0
M  V30 2859 C 265.665 -4.23069 0.360275 0
M  V30 2860 O 266.689 -3.54277 0.369613 0
M  V30 2861 O 265.548 -5.45583 0.316534 0
M  V30 2862 H 262.642 -0.826908 0.0123654 0
M  V30 2863 H 265.188 -1.5138 0.766963 0
M  V30 2864 H 263.96 -3.6281 1.46576 0
M  V30 2865 H 263.583 -3.97019 -0.214787 0
M  V30 2866 N 264.58 -0.43555 -1.51462 0
M  V30 2867 C 265.512 0.41257 -2.25456 0
M  V30 2868 C 266.525 0.987822 -1.29406 0
M  V30 2869 O 267.714 0.882266 -1.55172 0
M  V30 2870 C 264.814 1.58894 -2.99342 0
M  V30 2871 C 263.987 1.13288 -4.22474 0
M  V30 2872 C 263.046 2.17917 -4.78956 0
M  V30 2873 O 262.072 1.77425 -5.40841 0
M  V30 2874 N 263.274 3.50382 -4.62832 0
M  V30 2875 H 266.039 -0.221603 -2.9888 0
M  V30 2876 H 263.6 -0.264342 -1.59727 0
M  V30 2877 H 265.592 2.28508 -3.34015 0
M  V30 2878 H 264.162 2.12849 -2.28941 0
M  V30 2879 H 263.382 0.263881 -3.93316 0
M  V30 2880 H 264.67 0.805542 -5.02383 0
M  V30 2881 H 264.068 3.86013 -4.13534 0
M  V30 2882 H 262.625 4.15895 -5.01871 0
M  V30 2883 N 266.058 1.56714 -0.166846 0
M  V30 2884 C 267.306 1.96358 0.478305 0
M  V30 2885 C 267.627 1.0537 1.6408 0
M  V30 2886 O 266.897 0.119154 1.95537 0
M  V30 2887 H 265.477 0.725065 0.179692 0
M  V30 2888 H 268.139 1.93329 -0.246985 0
M  V30 2889 H 267.235 3.00547 0.841292 0
M  V30 2890 N 267.536 -0.106894 1.57237 0
M  V30 2891 C 268.466 -1.13148 2.04254 0
M  V30 2892 C 269.447 -1.42476 0.929224 0
M  V30 2893 O 270.632 -1.52709 1.19973 0
M  V30 2894 C 267.762 -2.4545 2.45706 0
M  V30 2895 C 266.716 -2.30558 3.60592 0
M  V30 2896 C 266.042 -3.67931 3.87983 0
M  V30 2897 C 267.342 -1.75597 4.91897 0
M  V30 2898 H 269.036 -0.740374 2.90101 0
M  V30 2899 H 266.582 -0.354696 1.39563 0
M  V30 2900 H 268.535 -3.17389 2.77205 0
M  V30 2901 H 267.259 -2.86475 1.56843 0
M  V30 2902 H 265.918 -1.61067 3.29322 0
M  V30 2903 H 265.566 -4.06462 2.96306 0
M  V30 2904 H 265.266 -3.58817 4.65322 0
M  V30 2905 H 266.79 -4.41356 4.21945 0
M  V30 2906 H 268.204 -2.37364 5.21854 0
M  V30 2907 H 266.601 -1.77272 5.73319 0
M  V30 2908 H 267.671 -0.714451 4.79608 0
M  V30 2909 N 269.014 -1.53014 -0.377408 0
M  V30 2910 C 270.244 -1.72265 -1.14054 0
M  V30 2911 C 270.652 -0.44601 -1.83868 0
M  V30 2912 O 269.995 0.590095 -1.73964 0
M  V30 2913 C 270.057 -2.82492 -2.22348 0
M  V30 2914 C 269.721 -4.23233 -1.72402 0
M  V30 2915 C 270.718 -5.05992 -1.19448 0
M  V30 2916 C 268.403 -4.696 -1.78273 0
M  V30 2917 C 270.397 -6.33203 -0.730268 0
M  V30 2918 C 268.084 -5.96792 -1.31464 0
M  V30 2919 C 269.082 -6.78424 -0.789297 0
M  V30 2920 O 268.77 -8.0323 -0.328077 0
M  V30 2921 H 268.502 -0.579873 -0.347453 0
M  V30 2922 H 271.056 -2.00502 -0.445882 0
M  V30 2923 H 269.286 -2.49702 -2.95272 0
M  V30 2924 H 270.975 -2.90034 -2.83963 0
M  V30 2925 H 271.741 -4.71349 -1.14259 0
M  V30 2926 H 267.62 -4.06142 -2.18106 0
M  V30 2927 H 271.164 -6.96868 -0.319542 0
M  V30 2928 H 267.061 -6.30937 -1.36342 0
M  V30 2929 H 267.829 -8.1727 -0.448493 0
M  V30 2930 N 270.492 0.636531 -1.44174 0
M  V30 2931 C 271.72 1.42353 -1.50144 0
M  V30 2932 C 272.135 1.88389 -0.124575 0
M  V30 2933 O 271.492 1.6051 0.868489 0
M  V30 2934 C 271.543 2.64744 -2.46156 0
M  V30 2935 O 271.264 2.20629 -3.7849 0
M  V30 2936 C 272.765 3.57929 -2.61537 0
M  V30 2937 H 269.985 0.436752 -0.5094 0
M  V30 2938 H 272.529 0.778933 -1.89084 0
M  V30 2939 H 270.684 3.25307 -2.10366 0
M  V30 2940 H 271.098 2.99938 -4.30276 0
M  V30 2941 H 272.572 4.40428 -3.32757 0
M  V30 2942 H 273.049 4.06382 -1.66585 0
M  V30 2943 H 273.655 3.03238 -2.98206 0
M  V30 2944 N 271.97 1.30982 0.876444 0
M  V30 2945 C 273.21 1.21589 1.64303 0
M  V30 2946 C 273.574 -0.223962 1.90689 0
M  V30 2947 O 274.775 -0.44128 2.65153 0
M  V30 2948 C 273.046 2.03007 2.94148 0
M  V30 2949 S 274.605 2.10405 3.85065 0
M  V30 2950 H 271.423 0.433161 0.563819 0
M  V30 2951 H 274.025 1.65565 1.03964 0
M  V30 2952 H 272.729 3.06719 2.72675 0
M  V30 2953 H 272.26 1.59725 3.59515 0
M  V30 2954 H 274.275 1.23765 4.80517 0
M  V30 2955 N 273.449 -1.08991 1.13837 0
M  V30 2956 C 274.412 -2.13925 0.822715 0
M  V30 2957 C 275.412 -1.599 -0.1699 0
M  V30 2958 O 276.602 -1.74104 0.0577251 0
M  V30 2959 C 273.734 -3.40155 0.225318 0
M  V30 2960 H 274.927 -2.43358 1.75262 0
M  V30 2961 H 272.48 -1.24603 0.943594 0
M  V30 2962 H 273.215 -3.16352 -0.713594 0
M  V30 2963 H 273 -3.80661 0.940193 0
M  V30 2964 H 274.49 -4.17594 0.0214784 0
M  V30 2965 N 274.927 -0.932562 -1.27047 0
M  V30 2966 C 275.89 -0.440064 -2.24936 0
M  V30 2967 C 276.89 0.444071 -1.54547 0
M  V30 2968 O 278.08 0.244465 -1.72476 0
M  V30 2969 C 275.212 0.36678 -3.38921 0
M  V30 2970 H 276.405 -1.305 -2.70018 0
M  V30 2971 H 273.958 -0.713707 -1.39054 0
M  V30 2972 H 274.693 1.25033 -2.99228 0
M  V30 2973 H 274.478 -0.267204 -3.91188 0
M  V30 2974 H 275.968 0.701567 -4.11665 0
M  V30 2975 N 276.405 1.4127 -0.698611 0
M  V30 2976 C 277.63 2.06024 -0.238512 0
M  V30 2977 C 278.055 1.5224 1.10475 0
M  V30 2978 O 277.413 0.650623 1.69223 0
M  V30 2979 C 277.461 3.59988 -0.209952 0
M  V30 2980 O 276.565 4.04282 0.814235 0
M  V30 2981 H 275.906 0.653829 -0.115775 0
M  V30 2982 H 278.436 1.8098 -0.954326 0
M  V30 2983 H 278.446 4.07979 -0.0418436 0
M  V30 2984 H 277.121 3.98503 -1.1903 0
M  V30 2985 H 275.698 3.6779 0.615234 0
M  V30 2986 N 277.883 0.443576 1.51229 0
M  V30 2987 C 279.108 -0.121648 2.07043 0
M  V30 2988 C 279.533 -1.35156 1.30823 0
M  V30 2989 O 278.891 -1.7793 0.347934 0
M  V30 2990 C 278.939 -0.41624 3.5819 0
M  V30 2991 O 278.043 -1.50163 3.8409 0
M  V30 2992 H 277.384 0.000871367 0.663999 0
M  V30 2993 H 279.914 0.626706 1.94765 0
M  V30 2994 H 279.924 -0.664867 4.02546 0
M  V30 2995 H 278.599 0.482653 4.1309 0
M  V30 2996 H 277.176 -1.24248 3.51592 0
M  V30 2997 N 279.361 -1.56624 0.175154 0
M  V30 2998 C 280.609 -1.96609 -0.467885 0
M  V30 2999 C 280.93 -1.06238 -1.63519 0
M  V30 3000 O 280.2 -0.129523 -1.95471 0
M  V30 3001 H 278.78 -0.726008 -0.175845 0
M  V30 3002 H 281.442 -1.93195 0.257234 0
M  V30 3003 H 280.538 -3.00989 -0.825342 0
M  V30 3004 N 280.839 0.0985539 -1.57292 0
M  V30 3005 C 281.769 1.12064 -2.04851 0
M  V30 3006 C 282.75 1.41981 -0.936767 0
M  V30 3007 O 283.935 1.52071 -1.20781 0
M  V30 3008 C 281.065 2.44144 -2.47004 0
M  V30 3009 C 280.019 2.28643 -3.6181 0
M  V30 3010 C 279.345 3.65869 -3.89929 0
M  V30 3011 C 280.645 1.72986 -4.92822 0
M  V30 3012 H 282.339 0.724979 -2.9049 0
M  V30 3013 H 279.885 0.34729 -1.39749 0
M  V30 3014 H 281.838 3.15914 -2.78884 0
M  V30 3015 H 280.562 2.85639 -1.5836 0
M  V30 3016 H 279.221 1.59318 -3.30172 0
M  V30 3017 H 278.869 4.04885 -2.98458 0
M  V30 3018 H 278.569 3.56344 -4.67218 0
M  V30 3019 H 280.093 4.39112 -4.2428 0
M  V30 3020 H 281.507 2.34593 -5.23105 0
M  V30 3021 H 279.904 1.74229 -5.74251 0
M  V30 3022 H 280.974 0.689007 -4.7998 0
M  V30 3023 N 282.317 1.53212 0.369288 0
M  V30 3024 C 283.25 1.74166 1.4745 0
M  V30 3025 C 284.228 0.589923 1.51521 0
M  V30 3026 O 285.412 0.822078 1.69629 0
M  V30 3027 C 282.539 1.81711 2.8583 0
M  V30 3028 C 281.585 3.03649 2.99499 0
M  V30 3029 S 282.418 4.63242 2.6864 0
M  V30 3030 C 283.574 4.7363 4.09177 0
M  V30 3031 H 283.807 2.67636 1.29454 0
M  V30 3032 H 281.34 1.43754 0.563396 0
M  V30 3033 H 283.298 1.86743 3.65564 0
M  V30 3034 H 281.959 0.89299 3.01139 0
M  V30 3035 H 281.152 3.05526 4.00836 0
M  V30 3036 H 280.754 2.9671 2.27683 0
M  V30 3037 H 283.046 4.53456 5.03372 0
M  V30 3038 H 283.989 5.75682 4.12306 0
M  V30 3039 H 284.397 4.02295 3.96004 0
M  V30 3040 N 283.795 -0.628877 1.44509 0
M  V30 3041 C 285.023 -1.41554 1.50897 0
M  V30 3042 C 285.438 -1.8832 0.134564 0
M  V30 3043 O 284.795 -1.60969 -0.859965 0
M  V30 3044 C 284.846 -2.63435 2.47556 0
M  V30 3045 O 284.567 -2.18619 3.79654 0
M  V30 3046 C 286.068 -3.56537 2.63431 0
M  V30 3047 H 283.288 -0.434044 0.511709 0
M  V30 3048 H 285.832 -0.768895 1.89495 0
M  V30 3049 H 283.987 -3.24187 2.12089 0
M  V30 3050 H 284.401 -2.97652 4.31861 0
M  V30 3051 H 285.875 -4.38657 3.35088 0
M  V30 3052 H 286.352 -4.05493 1.68738 0
M  V30 3053 H 286.958 -3.01653 2.9981 0
M  V30 3054 N 285.273 -1.31445 -0.869486 0
M  V30 3055 C 286.22 -1.19135 -1.97675 0
M  V30 3056 C 287.19 -0.0770266 -1.65921 0
M  V30 3057 O 288.375 -0.249972 -1.89155 0
M  V30 3058 C 285.515 -0.905149 -3.33018 0
M  V30 3059 C 284.628 -2.10285 -3.77365 0
M  V30 3060 C 283.763 -1.75339 -5.01427 0
M  V30 3061 C 282.802 -2.91515 -5.38224 0
M  V30 3062 N 281.939 -2.56762 -6.53466 0
M  V30 3063 H 286.779 -2.13853 -2.07535 0
M  V30 3064 H 284.316 -1.06379 -1.01597 0
M  V30 3065 H 286.274 -0.719765 -4.10944 0
M  V30 3066 H 284.904 0.00519624 -3.228 0
M  V30 3067 H 283.956 -2.39899 -2.95216 0
M  V30 3068 H 285.268 -2.97237 -4.00564 0
M  V30 3069 H 284.422 -1.53266 -5.87022 0
M  V30 3070 H 283.161 -0.855801 -4.80133 0
M  V30 3071 H 282.166 -3.14237 -4.51149 0
M  V30 3072 H 283.391 -3.81985 -5.61484 0
M  V30 3073 H 281.337 -1.69526 -6.33717 0
M  V30 3074 H 281.254 -3.37243 -6.76612 0
M  V30 3075 H 282.522 -2.38083 -7.42251 0
M  V30 3076 N 286.751 1.08385 -1.14413 0
M  V30 3077 C 287.698 2.15311 -0.831265 0
M  V30 3078 C 288.668 1.64751 0.211292 0
M  V30 3079 O 289.853 1.90627 0.0811674 0
M  V30 3080 C 286.993 3.43658 -0.315143 0
M  V30 3081 C 286.106 4.08064 -1.41802 0
M  V30 3082 C 285.241 5.24207 -0.859126 0
M  V30 3083 C 284.28 5.80554 -1.93967 0
M  V30 3084 N 283.417 6.88042 -1.39793 0
M  V30 3085 H 288.257 2.41415 -1.74708 0
M  V30 3086 H 285.794 1.18474 -0.871909 0
M  V30 3087 H 287.752 4.172 0.00230884 0
M  V30 3088 H 286.382 3.17839 0.56378 0
M  V30 3089 H 285.434 3.3228 -1.85187 0
M  V30 3090 H 286.746 4.45962 -2.23427 0
M  V30 3091 H 285.9 6.04689 -0.49359 0
M  V30 3092 H 284.639 4.87699 -0.011932 0
M  V30 3093 H 283.644 4.98725 -2.31415 0
M  V30 3094 H 284.869 6.19121 -2.79046 0
M  V30 3095 H 282.815 6.53493 -0.572919 0
M  V30 3096 H 282.732 7.24767 -2.15054 0
M  V30 3097 H 284 7.72255 -1.0603 0
M  V30 3098 N 288.23 0.939286 1.26551 0
M  V30 3099 C 289.178 0.43815 2.28436 0
M  V30 3100 C 290.172 -0.483587 1.62351 0
M  V30 3101 O 291.378 -0.362009 1.76322 0
M  V30 3102 H 287.753 0.123149 0.741848 0
M  V30 3103 H 289.724 1.31002 2.68106 0
M  V30 3104 C 288.473 -0.283052 3.46546 0
M  V30 3105 H 287.796 0.417043 3.97619 0
M  V30 3106 H 289.236 -0.597948 4.19763 0
M  V30 3107 C 287.695 -1.50018 3.01656 0
M  V30 3108 O 288.225 -2.59855 3.0633 0
M  V30 3109 N 286.431 -1.35608 2.57019 0
M  V30 3110 H 285.978 -0.46244 2.53415 0
M  V30 3111 H 285.936 -2.17165 2.27347 0
M  V30 3112 N 289.708 -1.40897 0.706093 0
M  V30 3113 C 290.933 -2.05895 0.249435 0
M  V30 3114 C 291.358 -1.52823 -1.09666 0
M  V30 3115 O 290.716 -0.659589 -1.68876 0
M  V30 3116 C 290.764 -3.59872 0.22904 0
M  V30 3117 O 289.868 -4.04708 -0.792784 0
M  V30 3118 H 289.209 -0.653206 0.119241 0
M  V30 3119 H 291.739 -1.80471 0.96391 0
M  V30 3120 H 291.749 -4.07951 0.0634791 0
M  V30 3121 H 290.424 -3.97866 1.21141 0
M  V30 3122 H 289.001 -3.68111 -0.59572 0
M  V30 3123 N 291.186 -0.45159 -1.50991 0
M  V30 3124 C 292.414 0.108334 -2.06616 0
M  V30 3125 C 292.829 1.35224 -1.31757 0
M  V30 3126 O 292.186 1.78475 -0.381174 0
M  V30 3127 C 292.237 0.41619 -3.59096 0
M  V30 3128 O 291.958 -0.778361 -4.3113 0
M  V30 3129 C 293.459 1.02523 -4.31282 0
M  V30 3130 H 290.679 0.00159995 -0.670998 0
M  V30 3131 H 293.223 -0.634771 -1.94399 0
M  V30 3132 H 291.378 1.10921 -3.71181 0
M  V30 3133 H 291.792 -0.511181 -5.22003 0
M  V30 3134 H 293.266 1.19053 -5.39009 0
M  V30 3135 H 293.743 2.01013 -3.905 0
M  V30 3136 H 294.349 0.371173 -4.23677 0
M  V30 3137 N 292.664 1.56529 -0.183458 0
M  V30 3138 C 293.911 1.97244 0.458357 0
M  V30 3139 C 294.239 1.06992 1.62428 0
M  V30 3140 O 293.494 0.106542 1.9541 0
M  V30 3141 C 293.793 3.43939 0.971637 0
M  V30 3142 C 293.459 4.5083 -0.0796784 0
M  V30 3143 C 292.121 4.79786 -0.368584 0
M  V30 3144 C 294.473 5.15138 -0.792638 0
M  V30 3145 C 291.801 5.70345 -1.37563 0
M  V30 3146 C 294.153 6.06784 -1.78875 0
M  V30 3147 C 292.817 6.34102 -2.08497 0
M  V30 3148 H 292.087 0.721768 0.167725 0
M  V30 3149 H 294.734 1.89472 -0.277976 0
M  V30 3150 H 293.039 3.48724 1.78602 0
M  V30 3151 H 294.736 3.72791 1.47744 0
M  V30 3152 H 291.326 4.28317 0.155668 0
M  V30 3153 H 295.51 4.92868 -0.582659 0
M  V30 3154 H 290.766 5.89789 -1.61118 0
M  V30 3155 H 294.94 6.55677 -2.3465 0
M  V30 3156 H 292.567 7.04074 -2.86678 0
M  V30 3157 N 294.142 -0.090211 1.57342 0
M  V30 3158 C 295.388 -0.793982 1.86611 0
M  V30 3159 C 295.721 -1.78142 0.773252 0
M  V30 3160 O 294.996 -1.93271 -0.218304 0
M  V30 3161 C 295.279 -1.51839 3.26523 0
M  V30 3162 C 295.132 -0.548609 4.46442 0
M  V30 3163 C 296.451 -2.46779 3.64401 0
M  V30 3164 H 293.57 -0.287186 0.678744 0
M  V30 3165 H 296.212 -0.0575076 1.89913 0
M  V30 3166 H 294.362 -2.14617 3.23839 0
M  V30 3167 H 296.034 0.0725513 4.61243 0
M  V30 3168 H 294.277 0.137614 4.33582 0
M  V30 3169 H 294.948 -1.09271 5.41076 0
M  V30 3170 H 297.424 -1.94089 3.68061 0
M  V30 3171 H 296.3 -2.94479 4.63221 0
M  V30 3172 H 296.561 -3.30758 2.93346 0
M  V30 3173 N 295.62 -1.53406 -0.361157 0
M  V30 3174 C 297.036 -1.43277 -0.703124 0
M  V30 3175 C 297.236 -0.575384 -1.9311 0
M  V30 3176 O 296.292 -0.0595362 -2.5243 0
M  V30 3177 C 297.605 -2.8653 -0.9122 0
M  V30 3178 C 299.153 -2.96191 -1.01193 0
M  V30 3179 C 299.628 -4.40514 -1.25345 0
M  V30 3180 N 301.119 -4.43962 -1.32105 0
M  V30 3181 C 301.854 -5.52746 -1.5251 0
M  V30 3182 N 301.35 -6.71567 -1.70203 0
M  V30 3183 N 303.143 -5.40331 -1.54916 0
M  V30 3184 H 295.294 -2.07654 0.446475 0
M  V30 3185 H 297.557 -0.937944 0.137715 0
M  V30 3186 H 297.263 -3.51605 -0.0816414 0
M  V30 3187 H 297.137 -3.30441 -1.81903 0
M  V30 3188 H 299.524 -2.31266 -1.83303 0
M  V30 3189 H 299.605 -2.55667 -0.0823929 0
M  V30 3190 H 299.249 -5.06014 -0.437346 0
M  V30 3191 H 299.179 -4.78614 -2.19627 0
M  V30 3192 H 301.67 -3.58332 -1.20028 0
M  V30 3193 H 301.983 -7.50241 -1.85359 0
M  V30 3194 H 300.328 -6.74545 -1.67373 0
M  V30 3195 H 303.519 -4.46465 -1.40663 0
M  V30 3196 H 303.692 -6.25173 -1.70477 0
M  V30 3197 N 297.098 0.621204 -1.44841 0
M  V30 3198 C 298.344 1.3826 -1.48365 0
M  V30 3199 C 298.677 1.93831 -0.119624 0
M  V30 3200 O 297.952 1.74251 0.864111 0
M  V30 3201 C 298.235 2.54058 -2.55199 0
M  V30 3202 C 298.088 2.03772 -4.00995 0
M  V30 3203 C 299.407 3.56225 -2.58442 0
M  V30 3204 H 296.526 0.501374 -0.540179 0
M  V30 3205 H 299.168 0.7015 -1.76576 0
M  V30 3206 H 297.318 3.12162 -2.31274 0
M  V30 3207 H 298.99 1.50423 -4.36086 0
M  V30 3208 H 297.233 1.34876 -4.12299 0
M  V30 3209 H 297.904 2.87185 -4.71411 0
M  V30 3210 H 300.38 3.07939 -2.79844 0
M  V30 3211 H 299.256 4.34756 -3.3508 0
M  V30 3212 H 299.517 4.10949 -1.63013 0
M  V30 3213 N 298.576 1.31904 0.862503 0
M  V30 3214 C 299.526 1.16772 1.95827 0
M  V30 3215 C 300.51 0.0767098 1.60717 0
M  V30 3216 O 301.702 0.302407 1.74398 0
M  V30 3217 C 298.831 0.884858 3.317 0
M  V30 3218 C 297.917 2.0172 3.73055 0
M  V30 3219 N 298.308 3.265 3.86305 0
M  V30 3220 C 296.606 1.91861 4.02623 0
M  V30 3221 C 297.307 4.00616 4.2176 0
M  V30 3222 N 296.283 3.28847 4.32852 0
M  V30 3223 H 300.085 2.11382 2.04193 0
M  V30 3224 H 297.599 1.2357 1.05377 0
M  V30 3225 H 299.596 0.757419 4.09962 0
M  V30 3226 H 298.256 -0.0529448 3.24657 0
M  V30 3227 H 299.267 3.61529 3.70833 0
M  V30 3228 H 295.944 1.05593 4.03926 0
M  V30 3229 H 297.334 5.08182 4.39546 0
M  V30 3230 N 300.054 -1.07777 1.14986 0
M  V30 3231 C 300.964 -2.18404 0.856546 0
M  V30 3232 C 301.98 -1.73211 -0.165485 0
M  V30 3233 O 303.156 -2.01399 0.00755219 0
M  V30 3234 C 300.221 -3.44977 0.34526 0
M  V30 3235 C 299.282 -4.0476 1.43065 0
M  V30 3236 C 298.515 -5.25291 0.943663 0
M  V30 3237 O 298.738 -5.70004 -0.212426 0
M  V30 3238 O 297.672 -5.76638 1.72547 0
M  V30 3239 H 301.498 -2.45978 1.78125 0
M  V30 3240 H 299.083 -1.17033 0.928631 0
M  V30 3241 H 300.965 -4.21348 0.0663671 0
M  V30 3242 H 299.64 -3.18965 -0.551631 0
M  V30 3243 H 298.547 -3.29949 1.76309 0
M  V30 3244 H 299.88 -4.35035 2.30229 0
M  V30 3245 N 301.532 -0.945985 -1.26051 0
M  V30 3246 C 302.479 -0.45809 -2.26208 0
M  V30 3247 C 303.449 0.484816 -1.58867 0
M  V30 3248 O 304.634 0.399969 -1.86561 0
M  V30 3249 C 301.774 0.266131 -3.44072 0
M  V30 3250 C 300.887 -0.713005 -4.26075 0
M  V30 3251 C 300.022 0.0329013 -5.3119 0
M  V30 3252 C 299.061 -0.93774 -6.04874 0
M  V30 3253 N 298.198 -0.223274 -7.01745 0
M  V30 3254 H 303.038 -1.3171 -2.67313 0
M  V30 3255 H 300.575 -0.66069 -1.31428 0
M  V30 3256 H 302.533 0.702514 -4.11243 0
M  V30 3257 H 301.163 1.08925 -3.03867 0
M  V30 3258 H 300.215 -1.26789 -3.58648 0
M  V30 3259 H 301.527 -1.45406 -4.77136 0
M  V30 3260 H 300.681 0.528335 -6.04395 0
M  V30 3261 H 299.42 0.806801 -4.8098 0
M  V30 3262 H 298.425 -1.44425 -5.30492 0
M  V30 3263 H 299.65 -1.71172 -6.57173 0
M  V30 3264 H 297.596 0.532046 -6.53839 0
M  V30 3265 H 297.513 -0.90357 -7.50581 0
M  V30 3266 H 298.781 0.250907 -7.79096 0
M  V30 3267 N 303.011 1.40521 -0.713556 0
M  V30 3268 C 304.288 1.94775 -0.17943 0
M  V30 3269 C 304.668 1.65184 1.31444 0
M  V30 3270 O 304.016 0.968429 2.06963 0
M  V30 3271 C 304.226 3.45543 -0.489986 0
M  V30 3272 C 305.574 4.22442 -0.427536 0
M  V30 3273 O 306.598 3.53644 -0.425929 0
M  V30 3274 O 305.457 5.4501 -0.403292 0
M  V30 3275 H 302.551 0.826606 -0.0255192 0
M  V30 3276 H 305.097 1.5014 -0.790949 0
M  V30 3277 H 303.869 3.60432 -1.5233 0
M  V30 3278 H 303.492 3.97311 0.151598 0
M  V30 3279 N 304.489 0.459591 1.5075 0
M  V30 3280 C 305.436 -0.340524 2.28274 0
M  V30 3281 C 306.406 -0.997371 1.32822 0
M  V30 3282 O 307.591 -1.01202 1.61749 0
M  V30 3283 C 304.731 -1.42317 3.14388 0
M  V30 3284 C 303.844 -0.782251 4.24859 0
M  V30 3285 C 302.979 -1.84182 4.98247 0
M  V30 3286 C 302.018 -1.18053 6.00608 0
M  V30 3287 N 301.155 -2.18244 6.67319 0
M  V30 3288 H 305.995 0.326899 2.96202 0
M  V30 3289 H 303.532 0.173057 1.46078 0
M  V30 3290 H 305.49 -2.06241 3.62658 0
M  V30 3291 H 304.12 -2.05992 2.4853 0
M  V30 3292 H 303.172 -0.0307404 3.80388 0
M  V30 3293 H 304.484 -0.259663 4.98124 0
M  V30 3294 H 303.638 -2.55714 5.50177 0
M  V30 3295 H 302.377 -2.39819 4.24662 0
M  V30 3296 H 301.382 -0.450776 5.47949 0
M  V30 3297 H 302.607 -0.631202 6.7616 0
M  V30 3298 H 300.553 -2.72919 5.96533 0
M  V30 3299 H 300.47 -1.70938 7.36421 0
M  V30 3300 H 301.738 -2.89191 7.23871 0
M  V30 3301 N 305.967 -1.56429 0.191757 0
M  V30 3302 C 307.195 -2.01867 -0.453586 0
M  V30 3303 C 307.61 -1.07191 -1.5542 0
M  V30 3304 O 306.967 -0.0762108 -1.82341 0
M  V30 3305 C 307.018 -3.47017 -1.013 0
M  V30 3306 O 306.739 -4.38078 0.0437005 0
M  V30 3307 C 308.24 -4.07956 -1.73456 0
M  V30 3308 H 305.46 -0.661211 -0.114199 0
M  V30 3309 H 308.004 -2.02295 0.299483 0
M  V30 3310 H 306.159 -3.47298 -1.71647 0
M  V30 3311 H 306.573 -5.23178 -0.372212 0
M  V30 3312 H 308.047 -5.1138 -2.07833 0
M  V30 3313 H 308.524 -3.51222 -2.63704 0
M  V30 3314 H 309.13 -4.11437 -1.07702 0
M  V30 3315 N 307.445 0.0818655 -1.57387 0
M  V30 3316 C 308.395 1.10501 -1.99433 0
M  V30 3317 C 309.379 1.35041 -0.874798 0
M  V30 3318 O 310.571 1.35511 -1.13868 0
M  V30 3319 C 307.7 2.42159 -2.43339 0
M  V30 3320 C 306.786 2.20937 -3.62005 0
M  V30 3321 N 307.177 1.69616 -4.76512 0
M  V30 3322 C 305.475 2.51451 -3.68359 0
M  V30 3323 C 306.176 1.62973 -5.58404 0
M  V30 3324 N 305.152 2.08664 -5.01956 0
M  V30 3325 H 308.954 0.701373 -2.85408 0
M  V30 3326 H 306.468 0.289096 -1.59806 0
M  V30 3327 H 308.465 3.16208 -2.71695 0
M  V30 3328 H 307.125 2.83249 -1.58746 0
M  V30 3329 H 308.136 1.38624 -4.99003 0
M  V30 3330 H 304.813 2.95975 -2.94457 0
M  V30 3331 H 306.203 1.24233 -6.60315 0
M  V30 3332 N 308.923 1.53595 0.353017 0
M  V30 3333 C 310.151 1.74311 1.1146 0
M  V30 3334 C 310.566 0.477854 1.82653 0
M  V30 3335 O 309.923 -0.549977 1.74016 0
M  V30 3336 C 309.974 2.91694 2.13534 0
M  V30 3337 O 309.695 4.13325 1.45238 0
M  V30 3338 C 311.196 3.24384 3.02142 0
M  V30 3339 H 308.416 0.582669 0.332773 0
M  V30 3340 H 310.96 2.00386 0.408107 0
M  V30 3341 H 309.115 2.67977 2.79763 0
M  V30 3342 H 309.529 4.79148 2.13349 0
M  V30 3343 H 311.003 4.09893 3.69718 0
M  V30 3344 H 311.48 2.40282 3.67643 0
M  V30 3345 H 312.086 3.50073 2.41514 0
M  V30 3346 N 310.401 -0.613514 1.45168 0
M  V30 3347 C 311.641 -1.38405 1.5041 0
M  V30 3348 C 312.005 -1.91489 0.139922 0
M  V30 3349 O 313.206 -2.68716 0.067033 0
M  V30 3350 C 311.477 -2.50552 2.5487 0
M  V30 3351 S 313.036 -3.38439 2.79292 0
M  V30 3352 H 309.854 -0.471945 0.531779 0
M  V30 3353 H 312.456 -0.708518 1.82209 0
M  V30 3354 H 311.16 -2.09894 3.52665 0
M  V30 3355 H 310.691 -3.22913 2.24701 0
M  V30 3356 H 312.706 -4.48527 2.12222 0
M  V30 3357 N 311.879 -1.3236 -0.855495 0
M  V30 3358 C 313.29 -1.2056 -1.42556 0
M  V30 3359 C 313.641 0.182209 -1.95352 0
M  V30 3360 O 312.766 1.08088 -1.87472 0
M  V30 3361 C 313.361 -2.1826 -2.59129 0
M  V30 3362 C 311.92 -2.10351 -3.12137 0
M  V30 3363 C 311.067 -2.06674 -1.84882 0
M  V30 3364 H 314.018 -1.442 -0.662727 0
M  V30 3365 H 314.039 -1.78064 -3.36264 0
M  V30 3366 H 313.551 -3.19257 -2.20673 0
M  V30 3367 H 311.652 -1.12599 -3.55179 0
M  V30 3368 H 311.765 -3.00135 -3.73438 0
M  V30 3369 H 310.129 -1.51901 -2.04446 0
M  V30 3370 H 310.912 -3.09451 -1.48643 0
M  V30 3371 N 313.357 1.07166 -1.15556 0
M  V30 3372 C 314.768 1.6127 -0.940693 0
M  V30 3373 C 315.119 1.89251 0.517551 0
M  V30 3374 O 314.244 1.65937 1.38903 0
M  V30 3375 C 314.839 2.92993 -1.7012 0
M  V30 3376 C 313.398 3.43832 -1.53156 0
M  V30 3377 C 312.545 2.1786 -1.71558 0
M  V30 3378 H 315.496 0.90229 -1.30554 0
M  V30 3379 H 315.517 3.62007 -1.17181 0
M  V30 3380 H 315.029 2.72596 -2.76248 0
M  V30 3381 H 313.13 3.69307 -0.494294 0
M  V30 3382 H 313.243 4.19747 -2.30975 0
M  V30 3383 H 311.607 2.2765 -1.14225 0
M  V30 3384 H 312.39 1.99956 -2.79056 0
M  V30 3385 N 314.835 0.952656 1.25548 0
M  V30 3386 C 316.075 0.614013 1.9496 0
M  V30 3387 C 316.439 -0.833215 1.72978 0
M  V30 3388 O 317.64 -1.28135 2.36294 0
M  V30 3389 C 315.911 0.960562 3.4425 0
M  V30 3390 S 317.47 0.734195 4.32614 0
M  V30 3391 H 314.288 0.225754 0.674208 0
M  V30 3392 H 316.89 1.22641 1.52248 0
M  V30 3393 H 315.594 2.01103 3.57751 0
M  V30 3394 H 315.125 0.338336 3.91942 0
M  V30 3395 H 317.14 -0.395995 4.94617 0
M  V30 3396 N 316.313 -1.40141 0.720998 0
M  V30 3397 C 317.724 -1.83678 0.334553 0
M  V30 3398 C 318.075 -1.6027 -1.13173 0
M  V30 3399 O 317.2 -1.08643 -1.87152 0
M  V30 3400 C 317.795 -3.33437 0.600437 0
M  V30 3401 C 316.354 -3.75447 0.267642 0
M  V30 3402 C 315.501 -2.63296 0.870097 0
M  V30 3403 H 318.452 -1.29331 0.919732 0
M  V30 3404 H 318.473 -3.80269 -0.132517 0
M  V30 3405 H 317.985 -3.50442 1.66768 0
M  V30 3406 H 316.086 -3.64035 -0.794329 0
M  V30 3407 H 316.199 -4.73344 0.74042 0
M  V30 3408 H 314.563 -2.52954 0.297739 0
M  V30 3409 H 315.346 -2.83112 1.94172 0
M  V30 3410 N 317.792 -0.46758 -1.50504 0
M  V30 3411 C 318.755 0.317059 -2.26996 0
M  V30 3412 C 319.755 0.923513 -1.31635 0
M  V30 3413 O 320.945 0.793239 -1.55091 0
M  V30 3414 C 318.077 1.45134 -3.08462 0
M  V30 3415 H 319.27 -0.353723 -2.97807 0
M  V30 3416 H 316.823 -0.221545 -1.54722 0
M  V30 3417 H 317.558 2.15728 -2.4214 0
M  V30 3418 H 317.343 1.02232 -3.78538 0
M  V30 3419 H 318.833 2.00493 -3.66323 0
M  V30 3420 N 319.27 1.56325 -0.20005 0
M  V30 3421 C 320.681 1.8408 0.31167 0
M  V30 3422 C 321.032 1.12087 1.61031 0
M  V30 3423 O 320.157 0.38332 2.12978 0
M  V30 3424 C 320.752 3.33932 0.57226 0
M  V30 3425 C 319.311 3.6208 1.02834 0
M  V30 3426 C 318.458 2.77186 0.079634 0
M  V30 3427 H 321.409 1.52939 -0.423729 0
M  V30 3428 H 321.43 3.52971 1.42096 0
M  V30 3429 H 320.942 3.86303 -0.37308 0
M  V30 3430 H 319.043 3.15147 1.98778 0
M  V30 3431 H 319.156 4.7023 0.917624 0
M  V30 3432 H 317.52 2.47951 0.582448 0
M  V30 3433 H 318.303 3.32347 -0.860238 0
M  V30 3434 N 320.748 -0.0735177 1.57428 0
M  V30 3435 C 321.658 -1.10547 2.06922 0
M  V30 3436 C 322.674 -1.42506 0.998402 0
M  V30 3437 O 323.85 -1.52717 1.31299 0
M  V30 3438 C 320.915 -2.40019 2.50184 0
M  V30 3439 C 319.976 -2.15046 3.71556 0
M  V30 3440 C 319.209 -3.38345 4.12745 0
M  V30 3441 O 319.432 -4.47399 3.53822 0
M  V30 3442 O 318.366 -3.2666 5.05546 0
M  V30 3443 H 322.192 -0.715013 2.95163 0
M  V30 3444 H 319.777 -0.287531 1.46607 0
M  V30 3445 H 321.659 -3.16218 2.78539 0
M  V30 3446 H 320.334 -2.78447 1.65072 0
M  V30 3447 H 319.241 -1.36558 3.48285 0
M  V30 3448 H 320.574 -1.81499 4.57514 0
M  V30 3449 N 322.226 -1.5378 -0.344866 0
M  V30 3450 C 323.156 -1.84662 -1.42906 0
M  V30 3451 C 324.137 -0.701648 -1.54955 0
M  V30 3452 O 325.322 -0.953438 -1.69184 0
M  V30 3453 C 322.452 -2.05503 -2.79974 0
M  V30 3454 C 321.406 -3.21318 -2.82734 0
M  V30 3455 C 320.732 -3.2749 -4.22675 0
M  V30 3456 C 322.032 -4.59456 -2.48389 0
M  V30 3457 H 323.726 -2.75461 -1.17311 0
M  V30 3458 H 321.272 -1.32542 -0.562896 0
M  V30 3459 H 323.225 -2.25691 -3.55867 0
M  V30 3460 H 321.949 -1.11434 -3.07002 0
M  V30 3461 H 320.608 -3.00984 -2.09294 0
M  V30 3462 H 320.256 -2.31019 -4.4681 0
M  V30 3463 H 319.956 -4.05316 -4.25433 0
M  V30 3464 H 321.48 -3.49887 -5.00412 0
M  V30 3465 H 322.894 -4.79667 -3.13995 0
M  V30 3466 H 321.291 -5.39675 -2.62432 0
M  V30 3467 H 322.361 -4.63155 -1.4358 0
M  V30 3468 N 323.704 0.605807 -1.45491 0
M  V30 3469 C 324.634 1.72709 -1.57143 0
M  V30 3470 C 325.615 1.6476 -0.422884 0
M  V30 3471 O 326.8 1.83132 -0.646247 0
M  V30 3472 C 323.93 3.11316 -1.53948 0
M  V30 3473 C 322.884 3.34077 -2.67537 0
M  V30 3474 C 322.21 4.72975 -2.49397 0
M  V30 3475 C 323.51 3.24158 -4.09535 0
M  V30 3476 H 325.204 1.63214 -2.51001 0
M  V30 3477 H 322.75 0.78379 -1.208 0
M  V30 3478 H 324.703 3.89557 -1.60696 0
M  V30 3479 H 323.427 3.21655 -0.566205 0
M  V30 3480 H 322.086 2.58227 -2.6022 0
M  V30 3481 H 321.734 4.8005 -1.50205 0
M  V30 3482 H 321.434 4.8916 -3.25571 0
M  V30 3483 H 322.958 5.53414 -2.58002 0
M  V30 3484 H 324.372 3.92271 -4.18086 0
M  V30 3485 H 322.769 3.51872 -4.86113 0
M  V30 3486 H 323.839 2.2157 -4.31317 0
M  V30 3487 N 325.182 1.32811 0.848464 0
M  V30 3488 C 326.43 1.23479 1.59991 0
M  V30 3489 C 326.751 -0.201853 1.93952 0
M  V30 3490 O 326.021 -1.12818 1.60153 0
M  V30 3491 H 324.601 0.454034 0.593179 0
M  V30 3492 H 327.263 1.66412 1.01455 0
M  V30 3493 H 326.359 1.82178 2.53412 0
M  V30 3494 N 326.66 -1.06551 1.16123 0
M  V30 3495 C 327.908 -1.78947 0.939267 0
M  V30 3496 C 328.229 -1.87532 -0.534476 0
M  V30 3497 O 327.499 -1.38211 -1.38833 0
M  V30 3498 H 326.079 -0.662807 0.344523 0
M  V30 3499 H 328.741 -1.28725 1.46342 0
M  V30 3500 H 327.837 -2.81117 1.35572 0
M  V30 3501 N 328.138 -0.959301 -1.25041 0
M  V30 3502 C 329.549 -0.65667 -1.74771 0
M  V30 3503 C 329.9 0.827852 -1.77879 0
M  V30 3504 O 329.025 1.64783 -1.40269 0
M  V30 3505 C 329.62 -1.1853 -3.1739 0
M  V30 3506 C 328.179 -0.932734 -3.6466 0
M  V30 3507 C 327.326 -1.32558 -2.43564 0
M  V30 3508 H 330.277 -1.13558 -1.10862 0
M  V30 3509 H 330.298 -0.547582 -3.76539 0
M  V30 3510 H 329.81 -2.26576 -3.15095 0
M  V30 3511 H 327.911 0.13257 -3.72364 0
M  V30 3512 H 328.024 -1.57248 -4.52559 0
M  V30 3513 H 326.388 -0.743956 -2.43593 0
M  V30 3514 H 327.171 -2.41537 -2.43957 0
M  V30 3515 N 329.616 1.39756 -0.72842 0
M  V30 3516 C 330.841 2.05472 -0.282159 0
M  V30 3517 C 331.266 1.54549 1.07221 0
M  V30 3518 O 330.624 0.686372 1.67805 0
M  V30 3519 C 330.672 3.59462 -0.286264 0
M  V30 3520 O 329.776 4.05918 0.728298 0
M  V30 3521 H 329.117 0.651226 -0.129618 0
M  V30 3522 H 331.647 1.78915 -0.992499 0
M  V30 3523 H 331.657 4.07798 -0.128373 0
M  V30 3524 H 330.332 3.95889 -1.27456 0
M  V30 3525 H 328.909 3.69012 0.537081 0
M  V30 3526 N 331.094 0.475555 1.50254 0
M  V30 3527 C 332.34 -0.0780073 2.0265 0
M  V30 3528 C 332.673 -1.38968 1.35652 0
M  V30 3529 O 331.948 -1.8839 0.483691 0
M  V30 3530 C 332.231 -0.257161 3.59181 0
M  V30 3531 C 332.084 1.07585 4.36744 0
M  V30 3532 C 333.403 -1.00965 4.28362 0
M  V30 3533 H 330.522 -0.0268758 0.73651 0
M  V30 3534 H 333.164 0.622015 1.7953 0
M  V30 3535 H 331.314 -0.853412 3.79011 0
M  V30 3536 H 332.986 1.70902 4.28474 0
M  V30 3537 H 331.229 1.6714 4.00308 0
M  V30 3538 H 331.9 0.904088 5.44546 0
M  V30 3539 H 334.376 -0.504214 4.13034 0
M  V30 3540 H 333.252 -1.10381 5.37687 0
M  V30 3541 H 333.513 -2.04731 3.91839 0
M  V30 3542 N 332.573 -1.56217 0.208337 0
M  V30 3543 C 333.82 -1.97949 -0.42692 0
M  V30 3544 C 334.148 -1.09562 -1.60706 0
M  V30 3545 O 333.403 -0.137616 -1.95216 0
M  V30 3546 C 333.702 -3.45441 -0.916797 0
M  V30 3547 C 333.368 -4.50646 0.151391 0
M  V30 3548 C 332.03 -4.79139 0.444867 0
M  V30 3549 C 334.382 -5.13811 0.874492 0
M  V30 3550 C 331.71 -5.68084 1.46619 0
M  V30 3551 C 334.062 -6.03861 1.88506 0
M  V30 3552 C 332.726 -6.30704 2.18559 0
M  V30 3553 H 331.996 -0.724345 -0.156221 0
M  V30 3554 H 334.643 -1.89006 0.308084 0
M  V30 3555 H 332.948 -3.51521 -1.73032 0
M  V30 3556 H 334.645 -3.75094 -1.41794 0
M  V30 3557 H 331.235 -4.28511 -0.0875068 0
M  V30 3558 H 335.419 -4.91879 0.660996 0
M  V30 3559 H 330.675 -5.87151 1.7048 0
M  V30 3560 H 334.849 -6.51861 2.45051 0
M  V30 3561 H 332.476 -6.99424 2.97843 0
M  V30 3562 N 334.051 0.0651679 -1.57465 0
M  V30 3563 C 334.981 1.07693 -2.07182 0
M  V30 3564 C 335.962 1.39962 -0.966673 0
M  V30 3565 O 337.147 1.49475 -1.2398 0
M  V30 3566 C 334.277 2.3885 -2.52127 0
M  V30 3567 C 333.231 2.20917 -3.66579 0
M  V30 3568 C 332.557 3.57515 -3.97601 0
M  V30 3569 C 333.857 1.62493 -4.9638 0
M  V30 3570 H 335.551 0.663199 -2.91962 0
M  V30 3571 H 333.097 0.317569 -1.40455 0
M  V30 3572 H 335.05 3.09928 -2.85522 0
M  V30 3573 H 333.774 2.82215 -1.64384 0
M  V30 3574 H 332.433 1.52279 -3.33477 0
M  V30 3575 H 332.081 3.98463 -3.06979 0
M  V30 3576 H 331.781 3.46353 -4.74672 0
M  V30 3577 H 333.305 4.30013 -4.33499 0
M  V30 3578 H 334.719 2.23445 -5.27963 0
M  V30 3579 H 333.116 1.62009 -5.77818 0
M  V30 3580 H 334.186 0.587041 -4.81333 0
M  V30 3581 N 335.529 1.53961 0.336706 0
M  V30 3582 C 336.776 1.71536 1.07618 0
M  V30 3583 C 337.104 0.482125 1.8843 0
M  V30 3584 O 336.359 -0.536142 1.88213 0
M  V30 3585 C 336.658 2.93493 2.03953 0
M  V30 3586 C 336.324 4.28811 1.39399 0
M  V30 3587 C 334.986 4.65602 1.21523 0
M  V30 3588 C 337.338 5.12844 0.929541 0
M  V30 3589 C 334.666 5.84037 0.558312 0
M  V30 3590 C 337.018 6.31951 0.286505 0
M  V30 3591 C 335.682 6.67432 0.0954869 0
M  V30 3592 H 334.952 0.627696 0.393801 0
M  V30 3593 H 337.599 1.88186 0.354715 0
M  V30 3594 H 335.904 2.71475 2.82504 0
M  V30 3595 H 337.601 3.04285 2.61174 0
M  V30 3596 H 334.191 3.99858 1.54311 0
M  V30 3597 H 338.375 4.84947 1.05548 0
M  V30 3598 H 333.631 6.10097 0.398995 0
M  V30 3599 H 337.805 6.96352 -0.0814376 0
M  V30 3600 H 335.432 7.59063 -0.415579 0
M  V30 3601 N 337.007 -0.598083 1.45811 0
M  V30 3602 C 338.418 -1.18011 1.44673 0
M  V30 3603 C 338.769 -1.95378 0.179364 0
M  V30 3604 O 337.894 -2.04124 -0.718509 0
M  V30 3605 C 338.489 -2.14677 2.62105 0
M  V30 3606 C 337.048 -2.68236 2.64057 0
M  V30 3607 C 336.195 -1.43816 2.37091 0
M  V30 3608 H 339.146 -0.38686 1.53913 0
M  V30 3609 H 339.167 -2.97878 2.36746 0
M  V30 3610 H 338.679 -1.5834 3.5433 0
M  V30 3611 H 336.78 -3.28486 1.75864 0
M  V30 3612 H 336.893 -3.12021 3.63566 0
M  V30 3613 H 335.257 -1.731 1.86838 0
M  V30 3614 H 336.04 -0.893333 3.31473 0
M  V30 3615 N 338.485 -1.33259 -0.841409 0
M  V30 3616 C 339.896 -1.22066 -1.41269 0
M  V30 3617 C 340.247 0.161479 -1.95534 0
M  V30 3618 O 339.372 1.06094 -1.88608 0
M  V30 3619 C 339.967 -2.20996 -2.568 0
M  V30 3620 C 338.526 -2.13649 -3.09888 0
M  V30 3621 C 337.673 -2.08623 -1.82679 0
M  V30 3622 H 340.624 -1.44895 -0.647395 0
M  V30 3623 H 340.645 -1.81621 -3.34356 0
M  V30 3624 H 340.157 -3.2158 -2.17274 0
M  V30 3625 H 338.258 -1.16359 -3.53965 0
M  V30 3626 H 338.371 -3.04079 -3.70234 0
M  V30 3627 H 336.735 -1.54061 -2.02824 0
M  V30 3628 H 337.518 -3.1101 -1.45353 0
M  V30 3629 N 339.963 1.05934 -1.16686 0
M  V30 3630 C 340.91 2.13499 -0.876748 0
M  V30 3631 C 341.88 1.65162 0.176299 0
M  V30 3632 O 343.065 1.90757 0.0407143 0
M  V30 3633 C 340.205 3.42912 -0.387967 0
M  V30 3634 C 339.318 4.04964 -1.50426 0
M  V30 3635 C 338.453 5.22266 -0.970125 0
M  V30 3636 C 337.492 5.76309 -2.06238 0
M  V30 3637 N 336.629 6.84922 -1.54356 0
M  V30 3638 H 341.469 2.37654 -1.7979 0
M  V30 3639 H 339.006 1.16598 -0.896843 0
M  V30 3640 H 340.964 4.17111 -0.086186 0
M  V30 3641 H 339.594 3.18963 0.496235 0
M  V30 3642 H 338.646 3.28277 -1.92193 0
M  V30 3643 H 339.958 4.41122 -2.32836 0
M  V30 3644 H 339.112 6.03506 -0.621743 0
M  V30 3645 H 337.851 4.87564 -0.115377 0
M  V30 3646 H 336.856 4.93704 -2.41942 0
M  V30 3647 H 338.081 6.13062 -2.92115 0
M  V30 3648 H 336.027 6.52131 -0.711406 0
M  V30 3649 H 335.944 7.20043 -2.30379 0
M  V30 3650 H 337.212 7.69832 -1.22387 0
M  V30 3651 N 341.441 0.965919 1.2453 0
M  V30 3652 C 342.852 0.665929 1.7442 0
M  V30 3653 C 343.203 -0.818407 1.78316 0
M  V30 3654 O 342.328 -1.64037 1.41141 0
M  V30 3655 C 342.923 1.20211 3.16757 0
M  V30 3656 C 341.482 0.952059 3.6416 0
M  V30 3657 C 340.629 1.33848 2.42858 0
M  V30 3658 H 343.58 1.14144 1.10258 0
M  V30 3659 H 343.601 0.567544 3.76244 0
M  V30 3660 H 343.113 2.28244 3.13889 0
M  V30 3661 H 341.214 -0.112821 3.72429 0
M  V30 3662 H 341.327 1.59645 4.51719 0
M  V30 3663 H 339.691 0.756864 2.43195 0
M  V30 3664 H 340.474 2.42827 2.42673 0
M  V30 3665 N 342.919 -1.39368 0.735821 0
M  V30 3666 C 343.866 -2.30599 0.0963825 0
M  V30 3667 C 344.836 -1.49257 -0.728794 0
M  V30 3668 O 346.021 -1.77941 -0.688588 0
M  V30 3669 C 343.161 -3.35596 -0.804305 0
M  V30 3670 C 342.274 -4.31987 0.0335761 0
M  V30 3671 C 341.409 -5.24053 -0.868461 0
M  V30 3672 C 340.448 -6.12095 -0.0258776 0
M  V30 3673 N 339.585 -6.96514 -0.883893 0
M  V30 3674 H 344.425 -2.8471 0.880002 0
M  V30 3675 H 341.962 -1.40188 0.445619 0
M  V30 3676 H 343.92 -3.95062 -1.34096 0
M  V30 3677 H 342.55 -2.82938 -1.55389 0
M  V30 3678 H 341.602 -3.74133 0.68766 0
M  V30 3679 H 342.914 -4.94074 0.685036 0
M  V30 3680 H 342.068 -5.88549 -1.47293 0
M  V30 3681 H 340.807 -4.62289 -1.5537 0
M  V30 3682 H 339.812 -5.4661 0.591386 0
M  V30 3683 H 341.037 -6.75923 0.656156 0
M  V30 3684 H 338.983 -6.37318 -1.55441 0
M  V30 3685 H 338.9 -7.55448 -0.288931 0
M  V30 3686 H 340.168 -7.65439 -1.4739 0
M  V30 3687 N 344.397 -0.483516 -1.5 0
M  V30 3688 C 345.674 0.129337 -1.95172 0
M  V30 3689 C 346.054 1.55802 -1.4244 0
M  V30 3690 O 345.402 2.19625 -0.630649 0
M  V30 3691 C 345.612 0.0599251 -3.48949 0
M  V30 3692 C 346.96 0.242617 -4.23906 0
M  V30 3693 O 347.984 0.135933 -3.55941 0
M  V30 3694 O 346.843 0.459454 -5.44565 0
M  V30 3695 H 343.937 0.104887 -0.820322 0
M  V30 3696 H 346.483 -0.544807 -1.60717 0
M  V30 3697 H 345.255 -0.937079 -3.79914 0
M  V30 3698 H 344.878 0.774984 -3.89974 0
M  V30 3699 N 345.875 1.56104 -0.216619 0
M  V30 3700 C 347.103 2.02563 0.421413 0
M  V30 3701 C 347.518 1.0965 1.53695 0
M  V30 3702 O 346.875 0.10521 1.82196 0
M  V30 3703 C 346.926 3.48584 0.957665 0
M  V30 3704 O 346.647 4.37953 -0.113389 0
M  V30 3705 C 348.148 4.10664 1.66943 0
M  V30 3706 H 345.368 0.662944 0.103665 0
M  V30 3707 H 347.912 2.01793 -0.331629 0
M  V30 3708 H 346.067 3.49985 1.661 0
M  V30 3709 H 346.481 5.23704 0.288932 0
M  V30 3710 H 347.955 5.14622 1.99671 0
M  V30 3711 H 348.432 3.55373 2.58083 0
M  V30 3712 H 349.038 4.13098 1.01142 0
M  V30 3713 N 347.353 -0.0568162 1.57498 0
M  V30 3714 C 348.283 -1.06593 2.0775 0
M  V30 3715 C 349.264 -1.39448 0.974082 0
M  V30 3716 O 350.449 -1.48815 1.24771 0
M  V30 3717 C 347.579 -2.37509 2.5339 0
M  V30 3718 C 346.533 -2.1897 3.67745 0
M  V30 3719 C 345.859 -3.55402 3.99492 0
M  V30 3720 C 347.159 -1.59859 4.97235 0
M  V30 3721 H 348.853 -0.647706 2.9231 0
M  V30 3722 H 346.399 -0.310116 1.40621 0
M  V30 3723 H 348.352 -3.08409 2.87162 0
M  V30 3724 H 347.076 -2.8134 1.65878 0
M  V30 3725 H 345.735 -1.50508 3.3428 0
M  V30 3726 H 345.383 -3.9683 3.09088 0
M  V30 3727 H 345.083 -3.43831 4.76502 0
M  V30 3728 H 346.607 -4.27708 4.35773 0
M  V30 3729 H 348.021 -2.20642 5.29141 0
M  V30 3730 H 346.418 -1.58942 5.78669 0
M  V30 3731 H 347.488 -0.561506 4.81638 0
M  V30 3732 N 348.832 -1.54138 -0.328536 0
M  V30 3733 C 349.765 -1.78014 -1.4278 0
M  V30 3734 C 350.743 -0.629889 -1.49904 0
M  V30 3735 O 351.927 -0.866763 -1.6739 0
M  V30 3736 C 349.054 -1.89225 -2.80912 0
M  V30 3737 C 348.1 -3.11483 -2.91343 0
M  V30 3738 S 348.933 -4.70201 -2.56263 0
M  V30 3739 C 350.089 -4.84312 -3.96476 0
M  V30 3740 H 350.322 -2.70974 -1.22313 0
M  V30 3741 H 347.855 -1.45197 -0.525084 0
M  V30 3742 H 349.813 -1.9637 -3.60485 0
M  V30 3743 H 348.474 -0.972518 -2.98665 0
M  V30 3744 H 347.667 -3.16046 -3.92595 0
M  V30 3745 H 347.269 -3.02642 -2.19736 0
M  V30 3746 H 349.561 -4.66643 -4.91173 0
M  V30 3747 H 350.504 -5.86411 -3.96898 0
M  V30 3748 H 350.912 -4.12652 -3.85199 0
M  V30 3749 N 350.31 0.590341 -1.46126 0
M  V30 3750 C 351.559 1.34499 -1.50309 0
M  V30 3751 C 351.872 1.94977 -0.156021 0
M  V30 3752 O 353.078 2.71395 -0.0756037 0
M  V30 3753 C 351.534 2.43723 -2.64815 0
M  V30 3754 C 351.142 1.89582 -4.0591 0
M  V30 3755 C 352.886 3.20579 -2.78262 0
M  V30 3756 C 350.793 2.9639 -5.11769 0
M  V30 3757 H 349.723 0.505593 -0.559368 0
M  V30 3758 H 352.374 0.630848 -1.72315 0
M  V30 3759 H 350.756 3.17902 -2.36124 0
M  V30 3760 H 351.93 1.21997 -4.44357 0
M  V30 3761 H 350.245 1.25418 -3.97063 0
M  V30 3762 H 352.842 4.00276 -3.54519 0
M  V30 3763 H 353.185 3.72684 -1.85505 0
M  V30 3764 H 353.718 2.53505 -3.06562 0
M  V30 3765 H 350.457 2.49181 -6.06291 0
M  V30 3766 H 349.977 3.62487 -4.77873 0
M  V30 3767 H 351.656 3.60474 -5.37278 0
M  V30 3768 N 351.788 1.33704 0.83433 0
M  V30 3769 C 353.013 1.28615 1.62705 0
M  V30 3770 C 353.438 -0.139242 1.87584 0
M  V30 3771 O 352.796 -1.09734 1.4432 0
M  V30 3772 C 352.844 2.07139 2.95171 0
M  V30 3773 O 351.948 1.4331 3.86699 0
M  V30 3774 H 351.289 0.44226 0.49528 0
M  V30 3775 H 353.819 1.76335 1.03766 0
M  V30 3776 H 353.829 2.18073 3.44831 0
M  V30 3777 H 352.504 3.10779 2.76386 0
M  V30 3778 H 351.081 1.4105 3.45195 0
M  V30 3779 N 353.266 -1.05314 1.17247 0
M  V30 3780 C 354.682 -1.30452 0.919473 0
M  V30 3781 C 354.882 -1.9703 -0.42209 0
M  V30 3782 O 353.938 -2.24311 -1.15935 0
M  V30 3783 C 355.251 -2.17551 2.07586 0
M  V30 3784 C 356.799 -2.30937 2.11275 0
M  V30 3785 C 357.274 -3.21396 3.26296 0
M  V30 3786 N 358.765 -3.28981 3.26076 0
M  V30 3787 C 359.5 -3.99095 4.11716 0
M  V30 3788 N 358.996 -4.71648 5.07465 0
M  V30 3789 N 360.789 -3.95247 3.9967 0
M  V30 3790 H 352.94 -0.604988 2.03602 0
M  V30 3791 H 355.203 -0.329368 0.888944 0
M  V30 3792 H 354.909 -1.75921 3.0454 0
M  V30 3793 H 354.783 -3.18182 2.02584 0
M  V30 3794 H 357.17 -2.71809 1.14907 0
M  V30 3795 H 357.251 -1.2994 2.20339 0
M  V30 3796 H 356.895 -2.81238 4.22927 0
M  V30 3797 H 356.825 -4.22395 3.14467 0
M  V30 3798 H 359.316 -2.77286 2.5675 0
M  V30 3799 H 359.629 -5.22705 5.6921 0
M  V30 3800 H 357.974 -4.70594 5.11435 0
M  V30 3801 H 361.165 -3.37691 3.24164 0
M  V30 3802 H 361.338 -4.4962 4.66632 0
M  V30 3803 N 354.744 -0.972509 -1.24016 0
M  V30 3804 C 355.972 -0.654803 -1.96265 0
M  V30 3805 C 356.387 0.776708 -1.72083 0
M  V30 3806 O 355.744 1.52171 -1.00748 0
M  V30 3807 C 355.795 -0.92592 -3.49441 0
M  V30 3808 O 355.516 -2.30116 -3.72798 0
M  V30 3809 C 357.017 -0.623068 -4.38899 0
M  V30 3810 H 354.237 -0.243907 -0.6251 0
M  V30 3811 H 356.781 -1.30175 -1.57717 0
M  V30 3812 H 354.936 -0.325108 -3.86033 0
M  V30 3813 H 355.35 -2.38483 -4.67147 0
M  V30 3814 H 356.824 -0.863189 -5.45209 0
M  V30 3815 H 357.301 0.442754 -4.36963 0
M  V30 3816 H 357.907 -1.204 -4.07902 0
M  V30 3817 N 356.222 1.38976 -0.743202 0
M  V30 3818 C 357.633 1.83123 -0.363732 0
M  V30 3819 C 357.984 1.6205 1.10609 0
M  V30 3820 O 357.109 1.11606 1.854 0
M  V30 3821 C 357.704 3.32439 -0.653408 0
M  V30 3822 C 356.263 3.74974 -0.327338 0
M  V30 3823 C 355.41 2.61878 -0.911875 0
M  V30 3824 H 358.361 1.27852 -0.940191 0
M  V30 3825 H 358.382 3.80432 0.0720031 0
M  V30 3826 H 357.894 3.47745 -1.72323 0
M  V30 3827 H 355.995 3.65252 0.736314 0
M  V30 3828 H 356.108 4.72106 -0.815631 0
M  V30 3829 H 354.472 2.52448 -0.337944 0
M  V30 3830 H 355.255 2.79987 -1.98651 0
M  V30 3831 N 357.7 0.491464 1.49741 0
M  V30 3832 C 358.61 -0.296835 2.32715 0
M  V30 3833 C 359.626 -0.976536 1.44013 0
M  V30 3834 O 360.802 -0.960023 1.77047 0
M  V30 3835 C 357.867 -1.35288 3.19215 0
M  V30 3836 C 356.928 -0.687632 4.23757 0
M  V30 3837 C 356.161 -1.69336 5.06123 0
M  V30 3838 O 356.384 -2.92219 4.89861 0
M  V30 3839 O 355.318 -1.25394 5.88693 0
M  V30 3840 H 359.144 0.382048 3.01287 0
M  V30 3841 H 356.729 0.252953 1.47243 0
M  V30 3842 H 358.611 -1.96411 3.72828 0
M  V30 3843 H 357.286 -2.01487 2.53347 0
M  V30 3844 H 356.193 -0.0369159 3.74082 0
M  V30 3845 H 357.526 -0.0682566 4.92153 0
M  V30 3846 N 359.178 -1.55987 0.224894 0
M  V30 3847 C 360.424 -1.98684 -0.406502 0
M  V30 3848 C 360.757 -1.11248 -1.59177 0
M  V30 3849 O 360.032 -0.170909 -1.93748 0
M  V30 3850 C 360.315 -3.50218 -0.837808 0
M  V30 3851 C 360.168 -4.48426 0.351332 0
M  V30 3852 C 361.487 -4.06243 -1.69278 0
M  V30 3853 H 358.606 -0.722337 -0.146283 0
M  V30 3854 H 361.248 -1.87255 0.321799 0
M  V30 3855 H 359.398 -3.60089 -1.45837 0
M  V30 3856 H 361.07 -4.50562 0.989526 0
M  V30 3857 H 359.313 -4.22159 0.998207 0
M  V30 3858 H 359.984 -5.52 0.00655905 0
M  V30 3859 H 362.46 -3.99337 -1.16914 0
M  V30 3860 H 361.336 -5.12581 -1.96346 0
M  V30 3861 H 361.597 -3.53332 -2.65723 0
M  V30 3862 N 360.656 0.0484629 -1.57525 0
M  V30 3863 C 361.884 0.755421 -1.92616 0
M  V30 3864 C 362.299 1.69919 -0.822984 0
M  V30 3865 O 361.656 1.81378 0.202085 0
M  V30 3866 C 361.707 1.52915 -3.27566 0
M  V30 3867 O 361.428 0.62329 -4.33644 0
M  V30 3868 C 362.929 2.33502 -3.76818 0
M  V30 3869 H 360.149 0.213465 -0.63614 0
M  V30 3870 H 362.693 0.0117698 -2.04497 0
M  V30 3871 H 360.848 2.22486 -3.17142 0
M  V30 3872 H 361.262 1.16383 -5.11425 0
M  V30 3873 H 362.736 2.83214 -4.73808 0
M  V30 3874 H 363.213 3.14068 -3.07014 0
M  V30 3875 H 363.819 1.69043 -3.90262 0
M  V30 3876 N 362.134 1.5431 0.320358 0
M  V30 3877 C 363.374 1.74395 1.0661 0
M  V30 3878 C 363.738 0.508602 1.85141 0
M  V30 3879 O 364.939 0.586856 2.62316 0
M  V30 3880 C 363.21 2.98619 1.96371 0
M  V30 3881 S 364.769 3.39621 2.77854 0
M  V30 3882 H 361.587 0.613204 0.359863 0
M  V30 3883 H 364.189 1.9249 0.341727 0
M  V30 3884 H 362.893 3.86673 1.3752 0
M  V30 3885 H 362.424 2.83055 2.73209 0
M  V30 3886 H 364.439 2.95172 3.98858 0
M  V30 3887 N 363.613 -0.582584 1.46437 0
M  V30 3888 C 364.859 -1.34278 1.51978 0
M  V30 3889 C 365.192 -1.93446 0.170973 0
M  V30 3890 O 364.467 -1.76481 -0.817608 0
M  V30 3891 C 364.75 -2.47203 2.61845 0
M  V30 3892 C 364.603 -1.93069 4.06257 0
M  V30 3893 C 365.922 -3.49247 2.67795 0
M  V30 3894 H 363.041 -0.486876 0.553282 0
M  V30 3895 H 365.683 -0.654437 1.78374 0
M  V30 3896 H 363.833 -3.0592 2.39469 0
M  V30 3897 H 365.505 -1.38808 4.3992 0
M  V30 3898 H 363.748 -1.23898 4.1573 0
M  V30 3899 H 364.419 -2.74586 4.7886 0
M  V30 3900 H 366.895 -3.00411 2.8791 0
M  V30 3901 H 365.771 -4.25719 3.46489 0
M  V30 3902 H 366.032 -4.06482 1.73852 0
M  V30 3903 N 365.091 -1.34144 -0.827227 0
M  V30 3904 C 366.337 -1.26446 -1.58554 0
M  V30 3905 C 366.67 0.1664 -1.93486 0
M  V30 3906 O 365.945 1.1107 -1.59667 0
M  V30 3907 C 366.228 -2.15111 -2.8879 0
M  V30 3908 C 366.081 -3.66712 -2.60465 0
M  V30 3909 C 367.4 -2.03311 -3.90324 0
M  V30 3910 H 364.519 -0.46067 -0.575284 0
M  V30 3911 H 367.161 -1.64356 -0.953269 0
M  V30 3912 H 365.311 -1.8291 -3.42748 0
M  V30 3913 H 366.983 -4.09259 -2.1285 0
M  V30 3914 H 365.226 -3.88014 -1.93978 0
M  V30 3915 H 365.897 -4.24112 -3.53317 0
M  V30 3916 H 368.373 -2.31574 -3.45706 0
M  V30 3917 H 367.249 -2.67582 -4.79261 0
M  V30 3918 H 367.51 -1.00879 -4.30437 0
M  V30 3919 N 366.569 1.04691 -1.17803 0
M  V30 3920 C 367.815 1.78045 -0.970969 0
M  V30 3921 C 368.148 1.87686 0.498751 0
M  V30 3922 O 367.423 1.38035 1.37027 0
M  V30 3923 C 367.706 3.2166 -1.61884 0
M  V30 3924 C 367.559 3.20001 -3.161 0
M  V30 3925 C 368.878 4.1962 -1.3269 0
M  V30 3926 H 365.997 0.64633 -0.354155 0
M  V30 3927 H 368.639 1.22333 -1.45378 0
M  V30 3928 H 366.789 3.69232 -1.20831 0
M  V30 3929 H 368.461 2.80467 -3.66246 0
M  V30 3930 H 366.704 2.58203 -3.48588 0
M  V30 3931 H 367.375 4.21386 -3.56564 0
M  V30 3932 H 369.851 3.80567 -1.68249 0
M  V30 3933 H 368.727 5.18339 -1.80599 0
M  V30 3934 H 368.988 4.414 -0.248622 0
M  V30 3935 N 368.047 0.979072 1.23499 0
M  V30 3936 C 369.324 0.563674 1.87302 0
M  V30 3937 C 369.704 -0.959199 1.88049 0
M  V30 3938 O 369.052 -1.83535 1.36114 0
M  V30 3939 C 369.262 1.16822 3.28867 0
M  V30 3940 C 370.61 1.26014 4.0547 0
M  V30 3941 O 371.634 1.12158 3.38082 0
M  V30 3942 O 370.493 1.48044 5.26066 0
M  V30 3943 H 367.587 0.189602 0.804972 0
M  V30 3944 H 370.133 1.07407 1.31384 0
M  V30 3945 H 368.905 2.21049 3.22883 0
M  V30 3946 H 368.528 0.642564 3.92373 0
M  V30 3947 N 369.525 -1.3858 0.750561 0
M  V30 3948 C 370.771 -2.00481 0.305825 0
M  V30 3949 C 371.104 -1.5944 -1.10872 0
M  V30 3950 O 370.379 -0.83052 -1.75877 0
M  V30 3951 C 370.662 -3.5758 0.425287 0
M  V30 3952 C 370.515 -4.08594 1.88072 0
M  V30 3953 C 371.834 -4.39719 -0.183122 0
M  V30 3954 H 368.953 -0.728348 0.112598 0
M  V30 3955 H 371.595 -1.64566 0.949638 0
M  V30 3956 H 369.745 -3.88306 -0.122828 0
M  V30 3957 H 371.417 -3.88523 2.48691 0
M  V30 3958 H 369.66 -3.61574 2.39681 0
M  V30 3959 H 370.331 -5.177 1.91548 0
M  V30 3960 H 372.807 -4.15128 0.284303 0
M  V30 3961 H 371.683 -5.48856 -0.0692757 0
M  V30 3962 H 371.944 -4.23434 -1.27106 0
M  V30 3963 N 371.003 -0.499398 -1.49478 0
M  V30 3964 C 372.228 0.044722 -2.07352 0
M  V30 3965 C 372.653 1.30207 -1.35749 0
M  V30 3966 O 372.011 1.76516 -0.413732 0
M  V30 3967 C 372.059 0.283013 -3.59488 0
M  V30 3968 O 371.163 1.35804 -3.89398 0
M  V30 3969 H 370.504 -0.0255147 -0.66351 0
M  V30 3970 H 373.034 -0.698561 -1.92305 0
M  V30 3971 H 373.044 0.515007 -4.04737 0
M  V30 3972 H 371.719 -0.635636 -4.11014 0
M  V30 3973 H 370.296 1.11113 -3.55961 0
M  V30 3974 N 372.481 1.55866 -0.233164 0
M  V30 3975 C 373.431 2.17442 0.685774 0
M  V30 3976 C 374.415 1.12617 1.14918 0
M  V30 3977 O 375.607 1.3857 1.10124 0
M  V30 3978 C 372.736 2.86685 1.88856 0
M  V30 3979 C 371.822 3.98749 1.4443 0
M  V30 3980 N 372.213 5.00744 0.713364 0
M  V30 3981 C 370.511 4.11052 1.73068 0
M  V30 3982 C 371.212 5.79673 0.485205 0
M  V30 3983 N 370.188 5.33454 1.04536 0
M  V30 3984 H 373.99 2.93659 0.119022 0
M  V30 3985 H 371.504 1.62362 -0.0348995 0
M  V30 3986 H 373.501 3.29218 2.55776 0
M  V30 3987 H 372.161 2.11967 2.45967 0
M  V30 3988 H 373.172 5.16613 0.364861 0
M  V30 3989 H 369.849 3.47495 2.31416 0
M  V30 3990 H 371.239 6.71829 -0.097365 0
M  V30 3991 N 373.959 -0.0401083 1.57549 0
M  V30 3992 C 374.869 -1.06133 2.0922 0
M  V30 3993 C 375.885 -1.40356 1.0284 0
M  V30 3994 O 377.061 -1.49897 1.34509 0
M  V30 3995 C 374.126 -2.34658 2.55218 0
M  V30 3996 C 373.187 -2.07117 3.76033 0
M  V30 3997 C 372.42 -3.29514 4.19829 0
M  V30 3998 O 372.643 -4.39794 3.63232 0
M  V30 3999 O 371.577 -3.15863 5.12362 0
M  V30 4000 H 375.403 -0.652244 2.96613 0
M  V30 4001 H 372.988 -0.256368 1.47184 0
M  V30 4002 H 374.87 -3.10239 2.85184 0
M  V30 4003 H 373.545 -2.74883 1.70941 0
M  V30 4004 H 372.452 -1.29139 3.51104 0
M  V30 4005 H 373.785 -1.71754 4.61261 0
M  V30 4006 N 375.437 -1.54477 -0.31217 0
M  V30 4007 C 376.714 -1.63891 -1.06767 0
M  V30 4008 C 377.094 -0.480028 -2.0557 0
M  V30 4009 O 376.442 0.524487 -2.22399 0
M  V30 4010 C 376.652 -3.01402 -1.75948 0
M  V30 4011 C 378 -3.57838 -2.28554 0
M  V30 4012 O 379.024 -3.03782 -1.85998 0
M  V30 4013 O 377.883 -4.52462 -3.06497 0
M  V30 4014 H 374.977 -0.664125 -0.492816 0
M  V30 4015 H 377.523 -1.66823 -0.311149 0
M  V30 4016 H 376.295 -3.77187 -1.04144 0
M  V30 4017 H 375.918 -3.02199 -2.58383 0
M  V30 4018 N 376.915 0.57481 -1.46744 0
M  V30 4019 C 378.326 1.15695 -1.46532 0
M  V30 4020 C 378.677 1.95068 -0.210425 0
M  V30 4021 O 377.802 2.05241 0.685944 0
M  V30 4022 C 378.397 2.1048 -2.65487 0
M  V30 4023 C 376.956 2.64002 -2.68291 0
M  V30 4024 C 376.103 1.40026 -2.39349 0
M  V30 4025 H 379.054 0.362325 -1.54509 0
M  V30 4026 H 379.075 2.94074 -2.41455 0
M  V30 4027 H 378.587 1.52683 -3.56805 0
M  V30 4028 H 376.688 3.25646 -1.81067 0
M  V30 4029 H 376.801 3.06197 -3.68483 0
M  V30 4030 H 375.165 1.70106 -1.89568 0
M  V30 4031 H 375.948 0.840485 -3.32852 0
M  V30 4032 N 378.394 1.34581 0.820102 0
M  V30 4033 C 379.304 1.28471 1.96297 0
M  V30 4034 C 380.32 0.191902 1.72939 0
M  V30 4035 O 381.496 0.418879 1.96996 0
M  V30 4036 C 378.561 1.04281 3.30645 0
M  V30 4037 C 377.622 2.22745 3.66992 0
M  V30 4038 C 376.855 1.997 4.9493 0
M  V30 4039 O 377.078 0.956656 5.6232 0
M  V30 4040 O 376.012 2.86723 5.2922 0
M  V30 4041 H 379.838 2.24624 2.04396 0
M  V30 4042 H 377.423 1.14816 0.955913 0
M  V30 4043 H 379.305 0.925841 4.11104 0
M  V30 4044 H 377.98 0.111697 3.23507 0
M  V30 4045 H 376.887 2.40003 2.86966 0
M  V30 4046 H 378.22 3.14257 3.78819 0
M  V30 4047 N 379.872 -1.04064 1.18357 0
M  V30 4048 C 381.118 -1.77528 0.980397 0
M  V30 4049 C 381.451 -1.87948 -0.48879 0
M  V30 4050 O 380.726 -1.3876 -1.36293 0
M  V30 4051 C 381.009 -3.20797 1.63588 0
M  V30 4052 C 380.862 -3.1832 3.17793 0
M  V30 4053 C 382.181 -4.18911 1.34914 0
M  V30 4054 H 379.3 -0.644443 0.357578 0
M  V30 4055 H 381.942 -1.2156 1.46024 0
M  V30 4056 H 380.092 -3.68586 1.22788 0
M  V30 4057 H 381.764 -2.78521 3.67728 0
M  V30 4058 H 380.007 -2.56351 3.49952 0
M  V30 4059 H 380.678 -4.19489 3.58794 0
M  V30 4060 H 383.154 -3.7967 1.70265 0
M  V30 4061 H 382.03 -5.17374 1.83346 0
M  V30 4062 H 382.291 -4.41262 0.272027 0
M  V30 4063 N 381.35 -0.985608 -1.22978 0
M  V30 4064 C 382.297 -0.529825 -2.24636 0
M  V30 4065 C 383.267 0.434028 -1.60329 0
M  V30 4066 O 384.452 0.340414 -1.87739 0
M  V30 4067 C 381.592 0.156533 -3.44745 0
M  V30 4068 C 380.705 -0.848197 -4.23591 0
M  V30 4069 C 379.84 -0.136109 -5.31026 0
M  V30 4070 C 378.879 -1.1297 -6.01585 0
M  V30 4071 N 378.016 -0.446415 -7.00679 0
M  V30 4072 H 382.856 -1.40148 -2.62988 0
M  V30 4073 H 380.393 -0.702168 -1.29259 0
M  V30 4074 H 382.351 0.571324 -4.1327 0
M  V30 4075 H 380.981 0.992025 -3.07179 0
M  V30 4076 H 380.033 -1.38135 -3.54433 0
M  V30 4077 H 381.345 -1.60512 -4.72268 0
M  V30 4078 H 380.499 0.335784 -6.0577 0
M  V30 4079 H 379.238 0.653373 -4.83304 0
M  V30 4080 H 378.243 -1.6123 -5.25628 0
M  V30 4081 H 379.468 -1.91993 -6.51395 0
M  V30 4082 H 377.414 0.323763 -6.55201 0
M  V30 4083 H 377.331 -1.1419 -7.47326 0
M  V30 4084 H 378.599 0.00291697 -7.795 0
M  V30 4085 N 382.828 1.3818 -0.7579 0
M  V30 4086 C 384.075 2.00019 -0.315985 0
M  V30 4087 C 384.403 1.60163 1.10355 0
M  V30 4088 O 383.658 0.83264 1.77103 0
M  V30 4089 C 383.957 3.55252 -0.391218 0
M  V30 4090 C 383.623 4.14834 -1.76702 0
M  V30 4091 C 382.285 4.30821 -2.14353 0
M  V30 4092 C 384.637 4.47658 -2.66931 0
M  V30 4093 C 381.965 4.76928 -3.41696 0
M  V30 4094 C 384.317 4.95184 -3.93669 0
M  V30 4095 C 382.981 5.09377 -4.31383 0
M  V30 4096 H 382.251 0.731923 -0.115627 0
M  V30 4097 H 384.898 1.65161 -0.969223 0
M  V30 4098 H 383.203 3.90273 0.34558 0
M  V30 4099 H 384.9 4.00988 -0.030805 0
M  V30 4100 H 381.49 4.02808 -1.46435 0
M  V30 4101 H 385.674 4.34904 -2.39106 0
M  V30 4102 H 380.93 4.86103 -3.70829 0
M  V30 4103 H 385.104 5.19551 -4.63724 0
M  V30 4104 H 382.731 5.44865 -5.30119 0
M  V30 4105 N 384.306 0.507319 1.49211 0
M  V30 4106 C 385.254 -0.281364 2.30892 0
M  V30 4107 C 386.248 -0.95687 1.39787 0
M  V30 4108 O 387.454 -0.883838 1.56807 0
M  V30 4109 H 383.829 -0.109597 0.743971 0
M  V30 4110 H 385.8 0.42744 2.95323 0
M  V30 4111 C 384.549 -1.32918 3.21291 0
M  V30 4112 H 383.872 -0.818799 3.91326 0
M  V30 4113 H 385.312 -1.85288 3.81372 0
M  V30 4114 C 383.771 -2.35074 2.41333 0
M  V30 4115 O 384.301 -3.4108 2.12197 0
M  V30 4116 N 382.507 -2.07705 2.03241 0
M  V30 4117 H 382.054 -1.2152 2.27136 0
M  V30 4118 H 382.012 -2.76283 1.50051 0
M  V30 4119 N 385.784 -1.5574 0.241426 0
M  V30 4120 C 387.03 -1.99846 -0.378555 0
M  V30 4121 C 387.385 -1.12665 -1.55963 0
M  V30 4122 O 386.678 -0.180966 -1.90743 0
M  V30 4123 C 386.872 -3.47308 -0.843317 0
M  V30 4124 C 386.701 -4.48756 0.291178 0
M  V30 4125 C 385.471 -4.9949 0.764077 0
M  V30 4126 C 387.669 -5.02039 1.11631 0
M  V30 4127 N 385.651 -5.84676 1.87156 0
M  V30 4128 C 387.022 -5.84343 2.07226 0
M  V30 4129 C 389.077 -4.84354 1.15349 0
M  V30 4130 C 387.78 -6.50851 3.06245 0
M  V30 4131 C 389.806 -5.51636 2.13195 0
M  V30 4132 C 389.168 -6.33724 3.07528 0
M  V30 4133 H 385.267 -0.774968 -0.104634 0
M  V30 4134 H 387.851 -1.91385 0.357751 0
M  V30 4135 H 386.022 -3.56178 -1.54893 0
M  V30 4136 H 387.754 -3.78299 -1.43779 0
M  V30 4137 H 384.509 -4.72311 0.349175 0
M  V30 4138 H 384.933 -6.31967 2.42789 0
M  V30 4139 H 389.575 -4.20525 0.438057 0
M  V30 4140 H 387.293 -7.1385 3.78739 0
M  V30 4141 H 390.879 -5.39909 2.16771 0
M  V30 4142 H 389.759 -6.84867 3.82003 0
M  V30 4143 N 387.262 0.0317525 -1.57568 0
M  V30 4144 C 388.492 0.733884 -1.93126 0
M  V30 4145 C 388.9 1.69563 -0.839352 0
M  V30 4146 O 388.243 1.82681 0.193175 0
M  V30 4147 C 388.305 1.54798 -3.24465 0
M  V30 4148 C 387.969 0.751304 -4.50782 0
M  V30 4149 C 388.966 0.0527632 -5.19873 0
M  V30 4150 C 386.651 0.706639 -4.97305 0
M  V30 4151 C 388.645 -0.679774 -6.33765 0
M  V30 4152 C 386.332 -0.0296449 -6.11093 0
M  V30 4153 C 387.33 -0.721614 -6.79177 0
M  V30 4154 O 387.018 -1.44595 -7.90789 0
M  V30 4155 H 386.75 0.211459 -0.642076 0
M  V30 4156 H 389.304 -0.00585615 -2.05399 0
M  V30 4157 H 387.534 2.33147 -3.08512 0
M  V30 4158 H 389.223 2.13247 -3.4537 0
M  V30 4159 H 389.989 0.0783188 -4.84937 0
M  V30 4160 H 385.868 1.23474 -4.44157 0
M  V30 4161 H 389.412 -1.22042 -6.86842 0
M  V30 4162 H 385.309 -0.0571331 -6.45475 0
M  V30 4163 H 386.077 -1.35935 -8.07133 0
M  V30 4164 N 388.74 1.54641 0.303973 0
M  V30 4165 C 389.986 1.74038 1.04109 0
M  V30 4166 C 390.319 0.523051 1.87024 0
M  V30 4167 O 389.594 -0.479874 1.88487 0
M  V30 4168 C 389.877 3.02761 1.94955 0
M  V30 4169 C 389.73 4.34787 1.1524 0
M  V30 4170 C 391.049 3.27336 2.94175 0
M  V30 4171 H 388.168 0.63323 0.377079 0
M  V30 4172 H 390.81 1.87354 0.316001 0
M  V30 4173 H 388.96 2.9154 2.56782 0
M  V30 4174 H 390.632 4.57922 0.557236 0
M  V30 4175 H 388.875 4.31407 0.455053 0
M  V30 4176 H 389.546 5.21116 1.8205 0
M  V30 4177 H 392.022 3.38148 2.42477 0
M  V30 4178 H 390.898 4.18726 3.54908 0
M  V30 4179 H 391.159 2.45491 3.67677 0
M  V30 4180 N 390.218 -0.567019 1.47046 0
M  V30 4181 C 391.495 -1.3276 1.43646 0
M  V30 4182 C 391.875 -2.1071 0.128186 0
M  V30 4183 O 391.223 -2.10441 -0.890326 0
M  V30 4184 C 391.433 -2.2404 2.67595 0
M  V30 4185 C 392.781 -2.85372 3.14401 0
M  V30 4186 O 393.805 -2.34346 2.68254 0
M  V30 4187 O 392.664 -3.78091 3.946 0
M  V30 4188 H 389.758 -0.597293 0.571988 0
M  V30 4189 H 392.304 -0.586735 1.59234 0
M  V30 4190 H 391.076 -1.65975 3.54356 0
M  V30 4191 H 390.699 -3.05439 2.54544 0
M  V30 4192 N 391.696 -1.35014 -0.812953 0
M  V30 4193 C 392.944 -1.27678 -1.56661 0
M  V30 4194 C 393.265 0.150359 -1.94419 0
M  V30 4195 O 392.535 1.08532 -1.63088 0
M  V30 4196 H 391.115 -0.469602 -0.580933 0
M  V30 4197 H 393.777 -1.69043 -0.970076 0
M  V30 4198 H 392.873 -1.88833 -2.48492 0
M  V30 4199 N 393.175 1.03435 -1.18907 0
M  V30 4200 C 394.421 1.77005 -0.989798 0
M  V30 4201 C 394.754 1.88205 0.478816 0
M  V30 4202 O 394.029 1.39481 1.35556 0
M  V30 4203 C 394.312 3.19925 -1.65287 0
M  V30 4204 C 394.165 3.1663 -3.19477 0
M  V30 4205 C 395.484 4.18189 -1.37134 0
M  V30 4206 H 392.603 0.642538 -0.360991 0
M  V30 4207 H 395.245 1.20784 -1.46667 0
M  V30 4208 H 393.395 3.67929 -1.24741 0
M  V30 4209 H 395.067 2.76567 -3.692 0
M  V30 4210 H 393.31 2.54491 -3.51307 0
M  V30 4211 H 393.981 4.1758 -3.61013 0
M  V30 4212 H 396.457 3.78761 -1.72276 0
M  V30 4213 H 395.333 5.16394 -1.86087 0
M  V30 4214 H 395.594 4.41112 -0.295424 0
M  V30 4215 N 394.653 0.992116 1.22453 0
M  V30 4216 C 395.563 0.55065 2.28046 0
M  V30 4217 C 396.579 -0.400189 1.69335 0
M  V30 4218 O 397.755 -0.267215 1.99619 0
M  V30 4219 C 394.82 -0.128496 3.46462 0
M  V30 4220 C 393.881 0.865208 4.20491 0
M  V30 4221 C 393.114 0.218377 5.33253 0
M  V30 4222 O 393.337 -0.987894 5.6178 0
M  V30 4223 O 392.271 0.922845 5.94783 0
M  V30 4224 H 396.097 1.4291 2.67975 0
M  V30 4225 H 393.682 0.760326 1.28606 0
M  V30 4226 H 395.564 -0.508947 4.18315 0
M  V30 4227 H 394.239 -0.981526 3.0846 0
M  V30 4228 H 393.146 1.29658 3.50913 0
M  V30 4229 H 394.479 1.68741 4.62371 0
M  V30 4230 N 396.131 -1.37776 0.765217 0
M  V30 4231 C 397.377 -2.00145 0.327072 0
M  V30 4232 C 397.71 -1.60607 -1.09175 0
M  V30 4233 O 396.985 -0.849127 -1.74986 0
M  V30 4234 C 397.268 -3.57109 0.46319 0
M  V30 4235 C 397.121 -4.06576 1.92395 0
M  V30 4236 C 398.44 -4.39888 -0.136473 0
M  V30 4237 H 395.559 -0.727113 0.120316 0
M  V30 4238 H 398.201 -1.63549 0.967039 0
M  V30 4239 H 396.351 -3.88414 -0.0816358 0
M  V30 4240 H 398.023 -3.85864 2.52798 0
M  V30 4241 H 396.266 -3.59011 2.43503 0
M  V30 4242 H 396.937 -5.15639 1.97028 0
M  V30 4243 H 399.413 -4.14803 0.328317 0
M  V30 4244 H 398.289 -5.48899 -0.0110582 0
M  V30 4245 H 398.55 -4.24758 -1.22608 0
M  V30 4246 N 397.609 -0.515225 -1.4894 0
M  V30 4247 C 398.559 0.275113 -2.26334 0
M  V30 4248 C 399.543 0.923007 -1.31793 0
M  V30 4249 O 400.735 0.828254 -1.56426 0
M  V30 4250 C 397.864 1.33041 -3.16473 0
M  V30 4251 C 396.95 0.688051 -4.18481 0
M  V30 4252 N 397.341 -0.217638 -5.05332 0
M  V30 4253 C 395.639 0.94699 -4.3583 0
M  V30 4254 C 396.34 -0.58676 -5.78733 0
M  V30 4255 N 395.316 0.0486966 -5.43578 0
M  V30 4256 H 399.118 -0.421876 -2.90856 0
M  V30 4257 H 396.632 -0.332249 -1.58965 0
M  V30 4258 H 398.629 1.9102 -3.70563 0
M  V30 4259 H 397.289 2.02894 -2.53504 0
M  V30 4260 H 398.3 -0.589343 -5.14536 0
M  V30 4261 H 394.977 1.63719 -3.8406 0
M  V30 4262 H 396.367 -1.32855 -6.58634 0
M  V30 4263 N 399.087 1.5561 -0.249682 0
M  V30 4264 C 400.035 2.22894 0.664906 0
M  V30 4265 C 401.029 1.21743 1.17792 0
M  V30 4266 O 402.235 1.39748 1.13449 0
M  V30 4267 H 398.61 0.715022 0.232912 0
M  V30 4268 H 400.581 2.98307 0.0742998 0
M  V30 4269 C 399.33 2.94424 1.84959 0
M  V30 4270 H 398.653 3.72031 1.46399 0
M  V30 4271 H 400.093 3.44862 2.4667 0
M  V30 4272 C 398.552 1.98454 2.72245 0
M  V30 4273 O 399.082 1.51939 3.71857 0
M  V30 4274 N 397.288 1.65496 2.38871 0
M  V30 4275 H 396.835 2.03517 1.57919 0
M  V30 4276 H 396.793 1.0155 2.97548 0
M  V30 4277 N 400.565 -0.0233959 1.57583 0
M  V30 4278 C 401.528 -1.00693 2.05897 0
M  V30 4279 C 402.528 -1.28693 0.964092 0
M  V30 4280 O 403.718 -1.23602 1.22753 0
M  V30 4281 C 400.85 -2.33825 2.4807 0
M  V30 4282 H 402.043 -0.589476 2.9405 0
M  V30 4283 H 399.596 -0.270354 1.53944 0
M  V30 4284 H 400.331 -2.80307 1.6309 0
M  V30 4285 H 400.116 -2.1483 3.2801 0
M  V30 4286 H 401.606 -3.04426 2.85857 0
M  V30 4287 N 402.043 -1.548 -0.295768 0
M  V30 4288 C 402.99 -1.86113 -1.36494 0
M  V30 4289 C 403.96 -0.7105 -1.50137 0
M  V30 4290 O 405.145 -0.959626 -1.64912 0
M  V30 4291 C 402.285 -2.11861 -2.72413 0
M  V30 4292 C 401.398 -3.39471 -2.67177 0
M  V30 4293 C 400.533 -3.55035 -3.95125 0
M  V30 4294 C 399.572 -4.76418 -3.84308 0
M  V30 4295 N 398.709 -4.8876 -5.04042 0
M  V30 4296 H 403.549 -2.77314 -1.09091 0
M  V30 4297 H 401.086 -1.37315 -0.52753 0
M  V30 4298 H 403.044 -2.24786 -3.51464 0
M  V30 4299 H 401.674 -1.2392 -2.98066 0
M  V30 4300 H 400.726 -3.35139 -1.79962 0
M  V30 4301 H 402.038 -4.28646 -2.55076 0
M  V30 4302 H 401.192 -3.67653 -4.82614 0
M  V30 4303 H 399.931 -2.64002 -4.10066 0
M  V30 4304 H 398.936 -4.63827 -2.95202 0
M  V30 4305 H 400.161 -5.68863 -3.70906 0
M  V30 4306 H 398.107 -4.00652 -5.19436 0
M  V30 4307 H 398.024 -5.71945 -4.94384 0
M  V30 4308 H 399.292 -5.0574 -5.93167 0
M  V30 4309 N 403.521 0.559213 -1.47345 0
M  V30 4310 C 404.749 1.34194 -1.57479 0
M  V30 4311 C 405.164 1.87463 -0.224261 0
M  V30 4312 O 404.521 1.64888 0.782185 0
M  V30 4313 C 404.572 2.51324 -2.59843 0
M  V30 4314 O 404.293 2.00256 -3.89653 0
M  V30 4315 C 405.794 3.43563 -2.80142 0
M  V30 4316 H 403.014 0.409136 -0.531835 0
M  V30 4317 H 405.558 0.677609 -1.92947 0
M  V30 4318 H 403.713 3.13699 -2.27314 0
M  V30 4319 H 404.127 2.76708 -4.4557 0
M  V30 4320 H 405.601 4.2217 -3.55635 0
M  V30 4321 H 406.078 3.9698 -1.87892 0
M  V30 4322 H 406.684 2.87005 -3.1386 0
M  V30 4323 N 404.999 1.35443 0.805782 0
M  V30 4324 C 405.946 1.28431 1.91766 0
M  V30 4325 C 406.916 0.156102 1.65365 0
M  V30 4326 O 408.101 0.339936 1.87747 0
M  V30 4327 C 405.241 1.06301 3.2832 0
M  V30 4328 C 404.354 2.2805 3.66902 0
M  V30 4329 C 403.489 1.99064 4.92491 0
M  V30 4330 C 402.528 3.16863 5.23703 0
M  V30 4331 N 401.665 2.87647 6.40471 0
M  V30 4332 H 406.505 2.23511 1.97096 0
M  V30 4333 H 404.042 1.11105 0.964054 0
M  V30 4334 H 406 0.915012 4.07042 0
M  V30 4335 H 404.63 0.148822 3.22457 0
M  V30 4336 H 403.682 2.53711 2.83434 0
M  V30 4337 H 404.994 3.1601 3.85927 0
M  V30 4338 H 404.148 1.81099 5.7904 0
M  V30 4339 H 402.887 1.0839 4.75503 0
M  V30 4340 H 401.892 3.35404 4.35642 0
M  V30 4341 H 403.117 4.08339 5.4262 0
M  V30 4342 H 401.063 1.99568 6.24907 0
M  V30 4343 H 400.98 3.69141 6.59751 0
M  V30 4344 H 402.248 2.73226 7.30047 0
M  V30 4345 N 406.477 -1.02803 1.19454 0
M  V30 4346 C 407.888 -1.57667 0.999899 0
M  V30 4347 C 408.239 -1.91041 -0.446956 0
M  V30 4348 O 407.364 -1.70978 -1.32648 0
M  V30 4349 C 407.959 -2.86477 1.80877 0
M  V30 4350 C 406.518 -3.37911 1.65811 0
M  V30 4351 C 405.665 -2.11343 1.79526 0
M  V30 4352 H 408.616 -0.853214 1.33813 0
M  V30 4353 H 408.637 -3.57408 1.30536 0
M  V30 4354 H 408.149 -2.62155 2.86175 0
M  V30 4355 H 406.25 -3.67218 0.63102 0
M  V30 4356 H 406.363 -4.10885 2.46395 0
M  V30 4357 H 404.727 -2.23254 1.22596 0
M  V30 4358 H 405.51 -1.89461 2.86285 0
M  V30 4359 N 407.956 -0.998596 -1.21925 0
M  V30 4360 C 409.372 -0.710303 -1.42923 0
M  V30 4361 C 409.572 0.716933 -1.88314 0
M  V30 4362 O 408.628 1.48712 -2.04062 0
M  V30 4363 C 409.941 -1.72072 -2.466 0
M  V30 4364 C 411.489 -1.73681 -2.60392 0
M  V30 4365 C 411.964 -2.73601 -3.67296 0
M  V30 4366 N 413.455 -2.7223 -3.7476 0
M  V30 4367 C 414.19 -3.46206 -4.57087 0
M  V30 4368 N 413.686 -4.29802 -5.43362 0
M  V30 4369 N 415.479 -3.34886 -4.51451 0
M  V30 4370 H 407.63 -1.92028 -0.9077 0
M  V30 4371 H 409.893 -0.828487 -0.460775 0
M  V30 4372 H 409.599 -2.74231 -2.20206 0
M  V30 4373 H 409.473 -1.51818 -3.45299 0
M  V30 4374 H 411.86 -0.722173 -2.86127 0
M  V30 4375 H 411.941 -1.98005 -1.61949 0
M  V30 4376 H 411.585 -3.75217 -3.42307 0
M  V30 4377 H 411.515 -2.46545 -4.65321 0
M  V30 4378 H 414.006 -2.11576 -3.1312 0
M  V30 4379 H 414.319 -4.83061 -6.03218 0
M  V30 4380 H 412.664 -4.33887 -5.42925 0
M  V30 4381 H 415.855 -2.69015 -3.83078 0
M  V30 4382 H 416.028 -3.92796 -5.15379 0
M  V30 4383 N 409.434 1.37368 -0.772513 0
M  V30 4384 C 410.344 2.34053 -0.160081 0
M  V30 4385 C 411.36 1.60216 0.678728 0
M  V30 4386 O 412.536 1.92303 0.59847 0
M  V30 4387 C 409.601 3.3939 0.708182 0
M  V30 4388 C 408.662 4.29048 -0.147172 0
M  V30 4389 C 407.895 5.29354 0.679744 0
M  V30 4390 O 408.118 5.3723 1.91678 0
M  V30 4391 O 407.052 6.01835 0.0885444 0
M  V30 4392 H 410.878 2.88159 -0.959053 0
M  V30 4393 H 408.463 1.39543 -0.533685 0
M  V30 4394 H 410.345 4.03839 1.20384 0
M  V30 4395 H 409.02 2.8761 1.48533 0
M  V30 4396 H 407.927 3.67697 -0.689205 0
M  V30 4397 H 409.26 4.84134 -0.887423 0
M  V30 4398 N 410.912 0.523116 1.48665 0
M  V30 4399 C 411.822 -0.247406 2.33292 0
M  V30 4400 C 412.838 -0.945769 1.46052 0
M  V30 4401 O 414.014 -0.922253 1.79043 0
M  V30 4402 C 411.079 -1.28487 3.22012 0
M  V30 4403 C 410.14 -0.597592 4.2512 0
M  V30 4404 C 409.373 -1.58563 5.09601 0
M  V30 4405 O 409.596 -2.81763 4.95949 0
M  V30 4406 O 408.53 -1.12879 5.91221 0
M  V30 4407 H 412.356 0.445869 3.00409 0
M  V30 4408 H 409.941 0.284128 1.46673 0
M  V30 4409 H 411.823 -1.88459 3.7691 0
M  V30 4410 H 410.498 -1.96068 2.57564 0
M  V30 4411 H 409.405 0.0424407 3.74076 0
M  V30 4412 H 410.738 0.0361517 4.92187 0
M  V30 4413 N 412.39 -1.55475 0.257931 0
M  V30 4414 C 413.322 -2.19192 -0.669881 0
M  V30 4415 C 414.335 -1.17148 -1.1305 0
M  V30 4416 O 415.524 -1.43959 -1.05537 0
M  V30 4417 C 412.624 -2.79016 -1.92363 0
M  V30 4418 C 411.797 -4.06586 -1.61265 0
M  V30 4419 C 410.856 -4.50622 -2.7171 0
M  V30 4420 O 409.882 -5.16765 -2.38627 0
M  V30 4421 N 411.084 -4.19325 -4.01431 0
M  V30 4422 H 413.849 -2.99441 -0.124635 0
M  V30 4423 H 411.41 -1.6171 0.0783311 0
M  V30 4424 H 413.402 -3.05427 -2.65511 0
M  V30 4425 H 411.972 -2.0286 -2.37837 0
M  V30 4426 H 411.192 -3.87646 -0.715811 0
M  V30 4427 H 412.48 -4.89737 -1.37967 0
M  V30 4428 H 411.878 -3.66247 -4.31138 0
M  V30 4429 H 410.435 -4.50547 -4.7101 0
M  V30 4430 N 413.868 0.0150385 -1.57593 0
M  V30 4431 C 415.098 0.713359 -1.93894 0
M  V30 4432 C 415.506 1.68663 -0.857289 0
M  V30 4433 O 414.849 1.82876 0.173788 0
M  V30 4434 C 414.911 1.51348 -3.26089 0
M  V30 4435 C 414.575 0.703451 -4.51554 0
M  V30 4436 C 415.572 -0.00237924 -5.199 0
M  V30 4437 C 413.257 0.653854 -4.98026 0
M  V30 4438 C 415.251 -0.746955 -6.33008 0
M  V30 4439 C 412.938 -0.0944578 -6.11027 0
M  V30 4440 C 413.936 -0.793609 -6.78374 0
M  V30 4441 O 413.624 -1.52974 -7.89211 0
M  V30 4442 H 413.356 0.204637 -0.644282 0
M  V30 4443 H 415.91 -0.0276411 -2.05381 0
M  V30 4444 H 414.14 2.29862 -3.10967 0
M  V30 4445 H 415.829 2.09572 -3.47612 0
M  V30 4446 H 416.595 0.0268803 -4.84993 0
M  V30 4447 H 412.474 1.18756 -4.45441 0
M  V30 4448 H 416.018 -1.2932 -6.85509 0
M  V30 4449 H 411.915 -0.125591 -6.45378 0
M  V30 4450 H 412.683 -1.44488 -8.05646 0
M  V30 4451 N 415.346 1.54954 0.287554 0
M  V30 4452 C 416.294 1.87606 1.37502 0
M  V30 4453 C 417.288 0.751001 1.51843 0
M  V30 4454 O 418.494 0.935169 1.53801 0
M  V30 4455 H 414.869 0.595231 0.459569 0
M  V30 4456 H 416.84 2.78477 1.07206 0
M  V30 4457 C 415.589 2.15183 2.73115 0
M  V30 4458 H 414.912 3.01234 2.62866 0
M  V30 4459 H 416.352 2.4196 3.48183 0
M  V30 4460 C 414.811 0.954686 3.2309 0
M  V30 4461 O 415.341 0.181949 4.01288 0
M  V30 4462 N 413.547 0.756368 2.80584 0
M  V30 4463 H 413.094 1.38643 2.17108 0
M  V30 4464 H 413.052 -0.0430391 3.14371 0
M  V30 4465 N 416.824 -0.551391 1.4764 0
M  V30 4466 C 418.049 -1.33837 1.58437 0
M  V30 4467 C 418.474 -1.866 0.237063 0
M  V30 4468 O 417.832 -1.6328 -0.787994 0
M  V30 4469 C 417.88 -2.48014 2.61766 0
M  V30 4470 O 416.984 -3.50419 2.1744 0
M  V30 4471 H 416.325 -0.397299 0.532024 0
M  V30 4472 H 418.855 -0.665759 1.93465 0
M  V30 4473 H 418.865 -2.94503 2.82369 0
M  V30 4474 H 417.54 -2.08969 3.5959 0
M  V30 4475 H 416.117 -3.10196 2.06961 0
M  V30 4476 N 418.302 -1.35869 -0.798587 0
M  V30 4477 C 419.53 -1.32722 -1.58722 0
M  V30 4478 C 419.945 0.0935631 -1.88568 0
M  V30 4479 O 419.302 1.04784 -1.49421 0
M  V30 4480 C 419.353 -2.13974 -2.91371 0
M  V30 4481 O 419.074 -3.50514 -2.62815 0
M  V30 4482 C 420.575 -2.18504 -3.85708 0
M  V30 4483 H 417.795 -0.45562 -0.492596 0
M  V30 4484 H 420.339 -1.78837 -0.991843 0
M  V30 4485 H 418.494 -1.71438 -3.47402 0
M  V30 4486 H 418.908 -3.92806 -3.47568 0
M  V30 4487 H 420.382 -2.79732 -4.75872 0
M  V30 4488 H 420.859 -1.18597 -4.22885 0
M  V30 4489 H 421.465 -2.61236 -3.35612 0
M  V30 4490 N 419.78 1.02168 -1.19998 0
M  V30 4491 C 421.01 1.79036 -1.031 0
M  V30 4492 C 421.418 1.84409 0.423078 0
M  V30 4493 O 420.761 1.29228 1.30559 0
M  V30 4494 C 420.823 3.25185 -1.53281 0
M  V30 4495 C 420.487 3.43431 -3.01503 0
M  V30 4496 C 421.484 3.33063 -3.99206 0
M  V30 4497 C 419.169 3.69412 -3.40353 0
M  V30 4498 C 421.163 3.48413 -5.33748 0
M  V30 4499 C 418.85 3.84406 -4.75053 0
M  V30 4500 C 419.848 3.7391 -5.71559 0
M  V30 4501 O 419.536 3.88452 -7.03818 0
M  V30 4502 H 419.268 0.570043 -0.363355 0
M  V30 4503 H 421.822 1.29524 -1.59414 0
M  V30 4504 H 420.052 3.75756 -0.913483 0
M  V30 4505 H 421.741 3.83671 -1.32481 0
M  V30 4506 H 422.507 3.12934 -3.70537 0
M  V30 4507 H 418.386 3.76671 -2.65782 0
M  V30 4508 H 421.93 3.40137 -6.09059 0
M  V30 4509 H 417.827 4.04035 -5.03415 0
M  V30 4510 H 418.595 4.055 -7.10993 0
M  V30 4511 N 421.258 1.00505 1.21394 0
M  V30 4512 C 422.674 0.717873 1.42544 0
M  V30 4513 C 422.874 -0.706936 1.88692 0
M  V30 4514 O 421.93 -1.47627 2.04847 0
M  V30 4515 C 423.243 1.73377 2.45684 0
M  V30 4516 C 424.791 1.75059 2.59467 0
M  V30 4517 C 425.266 2.75545 3.6584 0
M  V30 4518 N 426.757 2.74213 3.73311 0
M  V30 4519 C 427.492 3.48626 4.55245 0
M  V30 4520 N 426.988 4.32678 5.41075 0
M  V30 4521 N 428.781 3.37276 4.49668 0
M  V30 4522 H 420.932 1.92506 0.897503 0
M  V30 4523 H 423.195 0.830919 0.456375 0
M  V30 4524 H 422.901 2.75395 2.18748 0
M  V30 4525 H 422.775 1.53647 3.44489 0
M  V30 4526 H 425.162 0.737337 2.8574 0
M  V30 4527 H 425.243 1.98861 1.60897 0
M  V30 4528 H 424.887 3.77028 3.40313 0
M  V30 4529 H 424.817 2.49009 4.64007 0
M  V30 4530 H 427.308 2.13234 3.11993 0
M  V30 4531 H 427.621 4.86253 6.00648 0
M  V30 4532 H 425.966 4.3676 5.40616 0
M  V30 4533 H 429.157 2.71043 3.81646 0
M  V30 4534 H 429.33 3.95524 5.13288 0
M  V30 4535 N 422.737 -1.36956 0.779787 0
M  V30 4536 C 423.983 -1.99787 0.348281 0
M  V30 4537 C 424.316 -1.61756 -1.07465 0
M  V30 4538 O 423.591 -0.867639 -1.74075 0
M  V30 4539 C 423.874 -3.56597 0.50104 0
M  V30 4540 C 423.727 -4.04513 1.96697 0
M  V30 4541 C 425.046 -4.40008 -0.0898097 0
M  V30 4542 H 422.165 -0.725796 0.128022 0
M  V30 4543 H 424.807 -1.62514 0.984331 0
M  V30 4544 H 422.957 -3.88479 -0.0404347 0
M  V30 4545 H 424.629 -3.83161 2.56876 0
M  V30 4546 H 422.872 -3.56408 2.47297 0
M  V30 4547 H 423.543 -5.1352 2.02486 0
M  V30 4548 H 426.019 -4.14431 0.372293 0
M  V30 4549 H 424.895 -5.4888 0.0471605 0
M  V30 4550 H 425.156 -4.26035 -1.18096 0
M  V30 4551 N 424.215 -0.530993 -1.48385 0
M  V30 4552 C 425.461 0.00274135 -2.028 0
M  V30 4553 C 425.794 1.33838 -1.40716 0
M  V30 4554 O 425.069 1.86465 -0.553277 0
M  V30 4555 C 425.352 0.123676 -3.59888 0
M  V30 4556 C 425.205 -1.2372 -4.3245 0
M  V30 4557 C 426.524 0.849967 -4.31814 0
M  V30 4558 H 423.643 -0.000477758 -0.737 0
M  V30 4559 H 426.285 -0.688217 -1.77098 0
M  V30 4560 H 424.435 0.712157 -3.81917 0
M  V30 4561 H 426.107 -1.86687 -4.21836 0
M  V30 4562 H 424.35 -1.81882 -3.93829 0
M  V30 4563 H 425.021 -1.10557 -5.40815 0
M  V30 4564 H 427.497 0.350572 -4.14621 0
M  V30 4565 H 426.373 0.903486 -5.41413 0
M  V30 4566 H 426.634 1.90047 -3.99167 0
M  V30 4567 N 425.693 1.55336 -0.266172 0
M  V30 4568 C 426.918 2.04258 0.359661 0
M  V30 4569 C 427.343 1.14359 1.49344 0
M  V30 4570 O 426.701 0.140369 1.80756 0
M  V30 4571 C 426.749 3.50997 0.826635 0
M  V30 4572 O 425.853 3.64204 1.93466 0
M  V30 4573 H 425.194 0.659668 0.075727 0
M  V30 4574 H 427.724 2.00694 -0.39786 0
M  V30 4575 H 427.734 3.9219 1.12477 0
M  V30 4576 H 426.409 4.159 -0.00293032 0
M  V30 4577 H 424.986 3.34913 1.63974 0
M  V30 4578 N 427.171 -0.0066808 1.57599 0
M  V30 4579 C 428.417 -0.693947 1.90558 0
M  V30 4580 C 428.75 -1.73792 0.866594 0
M  V30 4581 O 428.025 -1.94156 -0.115548 0
M  V30 4582 C 428.308 -1.34317 3.34112 0
M  V30 4583 C 428.161 -0.311189 4.48722 0
M  V30 4584 C 429.48 -2.27116 3.7697 0
M  V30 4585 H 426.599 -0.250803 0.693013 0
M  V30 4586 H 429.241 0.043242 1.89951 0
M  V30 4587 H 427.391 -1.9715 3.3476 0
M  V30 4588 H 429.063 0.316944 4.6021 0
M  V30 4589 H 427.306 0.367253 4.32243 0
M  V30 4590 H 427.977 -0.804366 5.46108 0
M  V30 4591 H 430.453 -1.74306 3.77831 0
M  V30 4592 H 429.329 -2.69511 4.78179 0
M  V30 4593 H 429.59 -3.14743 3.10466 0
M  V30 4594 N 428.649 -1.55105 -0.279332 0
M  V30 4595 C 429.579 -1.90557 -1.34945 0
M  V30 4596 C 430.56 -0.766738 -1.51839 0
M  V30 4597 O 431.745 -1.02434 -1.64988 0
M  V30 4598 C 428.875 -2.17193 -2.71006 0
M  V30 4599 C 427.829 -3.33021 -2.68851 0
M  V30 4600 C 427.155 -3.45123 -4.08405 0
M  V30 4601 C 428.455 -4.69578 -2.28678 0
M  V30 4602 H 430.149 -2.80188 -1.05522 0
M  V30 4603 H 427.695 -1.34811 -0.506173 0
M  V30 4604 H 429.648 -2.40581 -3.45975 0
M  V30 4605 H 428.372 -1.24355 -3.01999 0
M  V30 4606 H 427.031 -3.0959 -1.9634 0
M  V30 4607 H 426.679 -2.49762 -4.3661 0
M  V30 4608 H 426.379 -4.22995 -4.07859 0
M  V30 4609 H 427.903 -3.70796 -4.85121 0
M  V30 4610 H 429.317 -4.92553 -2.93368 0
M  V30 4611 H 427.714 -5.5032 -2.39306 0
M  V30 4612 H 428.784 -4.68828 -1.23807 0
M  V30 4613 N 430.127 0.543554 -1.4793 0
M  V30 4614 C 431.355 1.32516 -1.58894 0
M  V30 4615 C 431.77 1.87215 -0.244131 0
M  V30 4616 O 431.127 1.65709 0.764652 0
M  V30 4617 C 431.178 2.48554 -2.62494 0
M  V30 4618 O 430.899 1.96112 -3.91755 0
M  V30 4619 C 432.4 3.40572 -2.8377 0
M  V30 4620 H 429.62 0.403472 -0.536145 0
M  V30 4621 H 432.164 0.657106 -1.93655 0
M  V30 4622 H 430.319 3.1127 -2.30629 0
M  V30 4623 H 430.733 2.71967 -4.4848 0
M  V30 4624 H 432.207 4.18375 -3.60093 0
M  V30 4625 H 432.684 3.94965 -1.92092 0
M  V30 4626 H 433.29 2.8366 -3.16887 0
M  V30 4627 N 431.605 1.3629 0.791371 0
M  V30 4628 C 432.851 1.30605 1.55146 0
M  V30 4629 C 433.184 -0.115042 1.93859 0
M  V30 4630 O 432.459 -1.06798 1.62556 0
M  V30 4631 C 432.742 2.22692 2.82985 0
M  V30 4632 C 432.595 3.73489 2.50651 0
M  V30 4633 C 433.914 2.13588 3.84796 0
M  V30 4634 H 431.033 0.475761 0.562868 0
M  V30 4635 H 433.675 1.66825 0.909358 0
M  V30 4636 H 431.825 1.91933 3.37778 0
M  V30 4637 H 433.497 4.14758 2.01924 0
M  V30 4638 H 431.74 3.93021 1.83622 0
M  V30 4639 H 432.411 4.3333 3.41949 0
M  V30 4640 H 434.887 2.40659 3.39445 0
M  V30 4641 H 433.763 2.80195 4.71998 0
M  V30 4642 H 434.024 1.12256 4.27611 0
M  V30 4643 N 433.083 -1.0153 1.20538 0
M  V30 4644 C 434.013 -2.11972 0.979295 0
M  V30 4645 C 434.994 -1.6985 -0.0921787 0
M  V30 4646 O 436.179 -1.94089 0.0655932 0
M  V30 4647 C 433.309 -3.43201 0.531984 0
M  V30 4648 C 432.263 -3.9907 1.54685 0
M  V30 4649 C 431.589 -5.26082 0.956127 0
M  V30 4650 C 432.889 -4.32313 2.93092 0
M  V30 4651 H 434.583 -2.31143 1.90298 0
M  V30 4652 H 432.129 -1.11079 0.916372 0
M  V30 4653 H 434.082 -4.1985 0.361044 0
M  V30 4654 H 432.806 -3.23792 -0.427327 0
M  V30 4655 H 431.465 -3.2453 1.70517 0
M  V30 4656 H 431.113 -5.02999 -0.0111538 0
M  V30 4657 H 430.813 -5.64426 1.63393 0
M  V30 4658 H 432.337 -6.05386 0.796284 0
M  V30 4659 H 433.751 -4.99845 2.80763 0
M  V30 4660 H 432.148 -4.81774 3.57791 0
M  V30 4661 H 433.218 -3.41025 3.44717 0
M  V30 4662 N 434.561 -1.01147 -1.20859 0
M  V30 4663 C 435.511 -0.548247 -2.2131 0
M  V30 4664 C 436.495 0.393646 -1.5601 0
M  V30 4665 O 437.687 0.217445 -1.75659 0
M  V30 4666 C 434.816 0.117252 -3.431 0
M  V30 4667 C 433.902 -0.846043 -4.15575 0
M  V30 4668 N 434.293 -2.00149 -4.64515 0
M  V30 4669 C 432.591 -0.665783 -4.41003 0
M  V30 4670 C 433.292 -2.60764 -5.19978 0
M  V30 4671 N 432.268 -1.88868 -5.09735 0
M  V30 4672 H 436.07 -1.42921 -2.56809 0
M  V30 4673 H 433.584 -0.876142 -1.36739 0
M  V30 4674 H 435.581 0.46662 -4.1428 0
M  V30 4675 H 434.241 0.994115 -3.09107 0
M  V30 4676 H 435.252 -2.38162 -4.5989 0
M  V30 4677 H 431.929 0.163456 -4.1718 0
M  V30 4678 H 433.319 -3.58519 -5.68255 0
M  V30 4679 N 436.039 1.36541 -0.78704 0
M  V30 4680 C 436.971 2.28761 -0.141773 0
M  V30 4681 C 437.984 1.49365 0.647599 0
M  V30 4682 O 439.173 1.71836 0.483173 0
M  V30 4683 C 436.273 3.28771 0.822368 0
M  V30 4684 C 435.446 4.3732 0.0835594 0
M  V30 4685 C 434.505 5.17307 0.963296 0
M  V30 4686 O 433.531 5.67638 0.421419 0
M  V30 4687 N 434.733 5.33515 2.28784 0
M  V30 4688 H 437.498 2.84777 -0.933919 0
M  V30 4689 H 435.059 1.48682 -0.640735 0
M  V30 4690 H 437.051 3.79169 1.41468 0
M  V30 4691 H 435.621 2.73412 1.5154 0
M  V30 4692 H 434.841 3.88118 -0.689809 0
M  V30 4693 H 436.129 5.0701 -0.426358 0
M  V30 4694 H 435.527 4.94234 2.75226 0
M  V30 4695 H 434.084 5.87165 2.82985 0
M  V30 4696 N 437.518 0.538854 1.48102 0
M  V30 4697 C 438.795 -0.0568108 1.95517 0
M  V30 4698 C 439.175 -1.50408 1.48124 0
M  V30 4699 O 438.523 -2.17133 0.711727 0
M  V30 4700 C 438.733 0.0696262 3.48931 0
M  V30 4701 C 440.081 -0.0851202 4.24515 0
M  V30 4702 O 441.105 -0.0037347 3.562 0
M  V30 4703 O 439.964 -0.257025 5.45895 0
M  V30 4704 H 437.058 -0.0743695 0.823649 0
M  V30 4705 H 439.604 0.604081 1.58584 0
M  V30 4706 H 438.376 1.07744 3.76174 0
M  V30 4707 H 437.999 -0.629714 3.92582 0
M  V30 4708 N 438.996 -1.55193 0.274407 0
M  V30 4709 C 440.242 -2.00604 -0.33608 0
M  V30 4710 C 440.597 -1.15948 -1.53538 0
M  V30 4711 O 439.89 -0.221385 -1.90317 0
M  V30 4712 C 440.084 -3.49019 -0.769458 0
M  V30 4713 C 439.913 -4.48038 0.386301 0
M  V30 4714 C 438.683 -4.97757 0.869854 0
M  V30 4715 C 440.881 -4.99558 1.22254 0
M  V30 4716 N 438.863 -5.80575 1.99515 0
M  V30 4717 C 440.234 -5.79816 2.19575 0
M  V30 4718 C 442.289 -4.81799 1.25597 0
M  V30 4719 C 440.992 -6.44208 3.19981 0
M  V30 4720 C 443.018 -5.46989 2.24848 0
M  V30 4721 C 442.38 -6.27058 3.20901 0
M  V30 4722 H 438.479 -0.777013 -0.088172 0
M  V30 4723 H 441.063 -1.90583 0.398266 0
M  V30 4724 H 439.234 -3.59383 -1.47303 0
M  V30 4725 H 440.966 -3.81263 -1.35722 0
M  V30 4726 H 437.721 -4.71464 0.449281 0
M  V30 4727 H 438.145 -6.26675 2.5614 0
M  V30 4728 H 442.787 -4.19501 0.527158 0
M  V30 4729 H 440.505 -7.05656 3.93796 0
M  V30 4730 H 444.091 -5.35189 2.28174 0
M  V30 4731 H 442.971 -6.7661 3.96445 0
M  V30 4732 N 440.474 -0.00167713 -1.576 0
M  V30 4733 C 441.404 0.988091 -2.11563 0
M  V30 4734 C 442.385 1.35736 -1.02517 0
M  V30 4735 O 443.57 1.44082 -1.30208 0
M  V30 4736 C 440.7 2.27941 -2.62031 0
M  V30 4737 C 439.654 2.0517 -3.75619 0
M  V30 4738 C 438.98 3.4033 -4.12407 0
M  V30 4739 C 440.28 1.41294 -5.02825 0
M  V30 4740 H 441.974 0.538771 -2.94513 0
M  V30 4741 H 439.52 0.257712 -1.41675 0
M  V30 4742 H 441.473 2.97539 -2.9841 0
M  V30 4743 H 440.197 2.74989 -1.76205 0
M  V30 4744 H 438.856 1.37998 -3.39635 0
M  V30 4745 H 438.504 3.85085 -3.23603 0
M  V30 4746 H 438.204 3.25909 -4.88935 0
M  V30 4747 H 439.728 4.1124 -4.51347 0
M  V30 4748 H 441.142 2.00851 -5.36965 0
M  V30 4749 H 439.539 1.37356 -5.84169 0
M  V30 4750 H 440.609 0.382362 -4.8339 0
M  V30 4751 N 441.952 1.55251 0.271103 0
M  V30 4752 C 442.9 1.89054 1.35504 0
M  V30 4753 C 443.894 0.767064 1.51038 0
M  V30 4754 O 445.1 0.951429 1.528 0
M  V30 4755 H 441.475 0.600072 0.45323 0
M  V30 4756 H 443.446 2.79598 1.04247 0
M  V30 4757 C 442.195 2.18068 2.70817 0
M  V30 4758 H 441.518 3.04005 2.59656 0
M  V30 4759 H 442.958 2.4564 3.45597 0
M  V30 4760 C 441.417 0.988901 3.2206 0
M  V30 4761 O 441.947 0.224501 4.01072 0
M  V30 4762 N 440.153 0.786085 2.79766 0
M  V30 4763 H 439.7 1.40937 2.15626 0
M  V30 4764 H 439.658 -0.00969349 3.14399 0
M  V30 4765 N 443.43 -0.535701 1.48216 0
M  V30 4766 C 444.678 -1.28928 1.55634 0
M  V30 4767 C 444.999 -1.93645 0.229514 0
M  V30 4768 O 444.269 -1.81038 -0.74846 0
M  V30 4769 H 442.849 -0.47884 0.573342 0
M  V30 4770 H 445.511 -0.623853 1.84646 0
M  V30 4771 H 444.607 -2.07157 2.33436 0
M  V30 4772 N 444.908 -1.36708 -0.784132 0
M  V30 4773 C 445.855 -1.31466 -1.89698 0
M  V30 4774 C 446.825 -0.18239 -1.65096 0
M  V30 4775 O 448.01 -0.369762 -1.87183 0
M  V30 4776 C 445.15 -1.1151 -3.26588 0
M  V30 4777 C 444.263 -2.33859 -3.63227 0
M  V30 4778 C 443.398 -2.06873 -4.89262 0
M  V30 4779 C 442.437 -3.25154 -5.18595 0
M  V30 4780 N 441.574 -2.978 -6.35814 0
M  V30 4781 H 446.414 -2.26619 -1.93515 0
M  V30 4782 H 443.951 -1.12625 -0.946256 0
M  V30 4783 H 445.909 -0.979653 -4.05535 0
M  V30 4784 H 444.539 -0.200103 -3.22179 0
M  V30 4785 H 443.591 -2.58188 -2.79362 0
M  V30 4786 H 444.903 -3.22109 -3.8085 0
M  V30 4787 H 444.057 -1.90289 -5.76086 0
M  V30 4788 H 442.796 -1.15942 -4.73718 0
M  V30 4789 H 441.801 -3.42292 -4.30251 0
M  V30 4790 H 443.026 -4.1692 -5.36055 0
M  V30 4791 H 440.972 -2.09485 -6.21653 0
M  V30 4792 H 440.889 -3.7959 -6.53794 0
M  V30 4793 H 442.157 -2.84805 -7.25607 0
M  V30 4794 N 446.386 1.0089 -1.21074 0
M  V30 4795 C 447.296 2.13039 -0.982425 0
M  V30 4796 C 448.312 1.73881 0.0642161 0
M  V30 4797 O 449.488 2.01012 -0.12496 0
M  V30 4798 C 446.553 3.42377 -0.545803 0
M  V30 4799 C 445.614 3.95731 -1.6642 0
M  V30 4800 C 444.847 5.18896 -1.24832 0
M  V30 4801 O 445.07 5.70273 -0.120265 0
M  V30 4802 O 444.004 5.65597 -2.05873 0
M  V30 4803 H 447.83 2.35175 -1.92163 0
M  V30 4804 H 445.415 1.1142 -0.995285 0
M  V30 4805 H 447.297 4.20244 -0.311912 0
M  V30 4806 H 445.972 3.21639 0.364727 0
M  V30 4807 H 444.879 3.19108 -1.95246 0
M  V30 4808 H 446.212 4.20872 -2.55201 0
M  V30 4809 N 447.864 1.01787 1.20321 0
M  V30 4810 C 449.094 0.72614 1.93419 0
M  V30 4811 C 449.502 -0.717317 1.75075 0
M  V30 4812 O 448.845 -1.49836 1.06278 0
M  V30 4813 C 448.907 0.983621 3.45782 0
M  V30 4814 C 448.571 2.41645 3.87888 0
M  V30 4815 C 449.568 3.39732 3.93545 0
M  V30 4816 C 447.253 2.75752 4.19841 0
M  V30 4817 C 449.247 4.69988 4.30569 0
M  V30 4818 C 446.934 4.06221 4.56539 0
M  V30 4819 C 447.932 5.0315 4.61876 0
M  V30 4820 O 447.62 6.31284 4.97731 0
M  V30 4821 H 447.352 0.265824 0.621541 0
M  V30 4822 H 449.906 1.3623 1.53722 0
M  V30 4823 H 448.136 0.290301 3.85609 0
M  V30 4824 H 449.825 0.683279 4.00108 0
M  V30 4825 H 450.591 3.14718 3.69022 0
M  V30 4826 H 446.47 2.00993 4.14877 0
M  V30 4827 H 450.014 5.45642 4.3465 0
M  V30 4828 H 445.911 4.31013 4.80518 0
M  V30 4829 H 446.679 6.35591 5.15719 0
M  V30 4830 N 449.342 -1.36122 0.79427 0
M  V30 4831 C 450.289 -2.29982 0.194101 0
M  V30 4832 C 451.259 -1.52214 -0.664833 0
M  V30 4833 O 452.444 -1.80702 -0.612498 0
M  V30 4834 C 449.584 -3.38706 -0.661244 0
M  V30 4835 C 448.697 -4.31456 0.216766 0
M  V30 4836 C 447.832 -5.27265 -0.645411 0
M  V30 4837 C 446.871 -6.11653 0.233756 0
M  V30 4838 N 446.008 -6.99636 -0.587682 0
M  V30 4839 H 450.848 -2.80722 0.999965 0
M  V30 4840 H 448.385 -1.38172 0.504677 0
M  V30 4841 H 450.343 -4.00394 -1.17219 0
M  V30 4842 H 448.973 -2.89274 -1.43249 0
M  V30 4843 H 448.025 -3.7088 0.845724 0
M  V30 4844 H 449.337 -4.90724 0.893973 0
M  V30 4845 H 448.491 -5.94266 -1.22198 0
M  V30 4846 H 447.23 -4.68463 -1.35623 0
M  V30 4847 H 446.235 -5.4361 0.82269 0
M  V30 4848 H 447.46 -6.72531 0.942247 0
M  V30 4849 H 445.406 -6.43337 -1.2827 0
M  V30 4850 H 445.323 -7.55993 0.0317402 0
M  V30 4851 H 446.591 -7.71001 -1.14792 0
M  V30 4852 N 450.82 -0.546701 -1.47814 0
M  V30 4853 C 452.06 -0.0209604 -2.04389 0
M  V30 4854 C 452.424 1.29993 -1.413 0
M  V30 4855 O 453.625 1.91273 -1.8886 0
M  V30 4856 C 451.896 0.0812844 -3.57308 0
M  V30 4857 S 453.455 0.55467 -4.3528 0
M  V30 4858 H 450.273 -0.0200865 -0.710716 0
M  V30 4859 H 452.875 -0.731055 -1.81317 0
M  V30 4860 H 451.579 -0.884616 -4.00753 0
M  V30 4861 H 451.11 0.815253 -3.8486 0
M  V30 4862 H 453.125 1.81627 -4.61764 0
M  V30 4863 N 452.299 1.55045 -0.282633 0
M  V30 4864 C 453.246 2.22822 0.601566 0
M  V30 4865 C 454.216 1.20431 1.14392 0
M  V30 4866 O 455.401 1.48996 1.19184 0
M  V30 4867 C 452.541 2.95873 1.77632 0
M  V30 4868 C 451.654 4.12999 1.26711 0
M  V30 4869 C 450.789 4.73676 2.40426 0
M  V30 4870 C 449.828 5.82981 1.86545 0
M  V30 4871 N 448.965 6.3769 2.93762 0
M  V30 4872 H 453.805 2.97995 0.0169528 0
M  V30 4873 H 451.342 1.471 -0.00339964 0
M  V30 4874 H 453.3 3.36447 2.46697 0
M  V30 4875 H 451.93 2.2311 2.33285 0
M  V30 4876 H 450.982 3.77494 0.469314 0
M  V30 4877 H 452.294 4.91803 0.832518 0
M  V30 4878 H 451.448 5.17008 3.17471 0
M  V30 4879 H 450.187 3.94164 2.87203 0
M  V30 4880 H 449.192 5.39092 1.07983 0
M  V30 4881 H 450.417 6.64366 1.40694 0
M  V30 4882 H 448.363 5.61069 3.39908 0
M  V30 4883 H 448.28 7.11788 2.54744 0
M  V30 4884 H 449.548 6.8568 3.7076 0
M  V30 4885 N 453.777 0.010035 1.57597 0
M  V30 4886 C 455.023 -0.673697 1.91283 0
M  V30 4887 C 455.356 -1.72863 0.884979 0
M  V30 4888 O 454.631 -1.94268 -0.0949487 0
M  V30 4889 C 454.914 -1.30766 3.35518 0
M  V30 4890 C 454.767 -0.263578 4.49027 0
M  V30 4891 C 456.086 -2.23105 3.79358 0
M  V30 4892 H 453.205 -0.243439 0.695634 0
M  V30 4893 H 455.847 0.0633864 1.89894 0
M  V30 4894 H 453.997 -1.93588 3.36832 0
M  V30 4895 H 455.669 0.365738 4.59848 0
M  V30 4896 H 453.912 0.413077 4.31829 0
M  V30 4897 H 454.583 -0.746398 5.4693 0
M  V30 4898 H 457.059 -1.70289 3.79659 0
M  V30 4899 H 455.935 -2.64424 4.81011 0
M  V30 4900 H 456.196 -3.11433 3.13787 0
M  V30 4901 N 455.255 -1.55392 -0.262866 0
M  V30 4902 C 456.48 -1.80847 -1.01533 0
M  V30 4903 C 456.905 -0.584946 -1.78774 0
M  V30 4904 O 456.263 0.465701 -1.75217 0
M  V30 4905 C 456.311 -3.03866 -1.94159 0
M  V30 4906 O 455.415 -2.79662 -3.03089 0
M  V30 4907 H 454.756 -0.597441 -0.289759 0
M  V30 4908 H 457.286 -2.02553 -0.288698 0
M  V30 4909 H 457.296 -3.32872 -2.35924 0
M  V30 4910 H 455.971 -3.92564 -1.37354 0
M  V30 4911 H 454.548 -2.61781 -2.65566 0
M  V30 4912 N 456.733 0.527833 -1.48498 0
M  V30 4913 C 457.681 1.65313 -1.63628 0
M  V30 4914 C 458.675 1.6177 -0.502676 0
M  V30 4915 O 459.881 1.66601 -0.681469 0
M  V30 4916 H 456.256 0.547518 -0.515488 0
M  V30 4917 H 458.227 1.49696 -2.58135 0
M  V30 4918 C 456.976 3.03576 -1.6952 0
M  V30 4919 H 456.299 3.06997 -2.56111 0
M  V30 4920 H 457.739 3.81923 -1.84149 0
M  V30 4921 C 456.198 3.34089 -0.43432 0
M  V30 4922 O 456.728 3.99151 0.451852 0
M  V30 4923 N 454.934 2.88991 -0.305368 0
M  V30 4924 H 454.481 2.36222 -1.02747 0
M  V30 4925 H 454.439 3.09776 0.537249 0
M  V30 4926 N 458.211 1.37122 0.776871 0
M  V30 4927 C 459.158 1.3247 1.88998 0
M  V30 4928 C 460.128 0.191143 1.64997 0
M  V30 4929 O 461.313 0.379683 1.86984 0
M  V30 4930 C 458.453 1.13241 3.25992 0
M  V30 4931 C 457.566 2.35782 3.61982 0
M  V30 4932 C 456.701 2.09465 4.88158 0
M  V30 4933 C 455.74 3.279 5.16864 0
M  V30 4934 N 454.877 3.01167 6.34226 0
M  V30 4935 H 459.717 2.27642 1.9231 0
M  V30 4936 H 457.254 1.13125 0.94027 0
M  V30 4937 H 459.212 1.00115 4.0501 0
M  V30 4938 H 457.842 0.217186 3.22069 0
M  V30 4939 H 456.894 2.59666 2.77989 0
M  V30 4940 H 458.206 3.24125 3.79137 0
M  V30 4941 H 457.36 1.93341 5.75069 0
M  V30 4942 H 456.099 1.18452 4.73097 0
M  V30 4943 H 455.104 3.44569 4.2843 0
M  V30 4944 H 456.329 4.19757 5.33836 0
M  V30 4945 H 454.275 2.12779 6.20533 0
M  V30 4946 H 454.192 3.83052 6.51772 0
M  V30 4947 H 455.46 2.88649 7.24087 0
M  V30 4948 N 459.689 -1.00246 1.21608 0
M  V30 4949 C 460.652 -2.07233 0.979133 0
M  V30 4950 C 461.652 -1.6072 -0.0508219 0
M  V30 4951 O 462.842 -1.73196 0.186712 0
M  V30 4952 C 459.974 -3.37546 0.477016 0
M  V30 4953 H 461.167 -2.29687 1.92831 0
M  V30 4954 H 458.72 -1.17261 1.03342 0
M  V30 4955 H 459.455 -3.20773 -0.476966 0
M  V30 4956 H 459.24 -3.72638 1.21997 0
M  V30 4957 H 460.73 -4.16285 0.331181 0
M  V30 4958 N 461.167 -1.02423 -1.1978 0
M  V30 4959 C 462.097 -0.62157 -2.25075 0
M  V30 4960 C 463.078 0.367148 -1.6609 0
M  V30 4961 O 464.263 0.250892 -1.92573 0
M  V30 4962 C 461.393 0.0331826 -3.47284 0
M  V30 4963 C 460.347 -0.877323 -4.18912 0
M  V30 4964 C 459.673 -0.0879296 -5.34628 0
M  V30 4965 C 460.973 -2.18892 -4.74219 0
M  V30 4966 H 462.667 -1.50179 -2.59011 0
M  V30 4967 H 460.213 -0.723547 -1.24502 0
M  V30 4968 H 462.166 0.326488 -4.20133 0
M  V30 4969 H 460.89 0.948164 -3.12534 0
M  V30 4970 H 459.549 -1.15475 -3.47938 0
M  V30 4971 H 459.197 0.828941 -4.96123 0
M  V30 4972 H 458.897 -0.694359 -5.83483 0
M  V30 4973 H 460.421 0.198743 -6.10276 0
M  V30 4974 H 461.835 -1.95746 -5.38847 0
M  V30 4975 H 460.232 -2.74686 -5.33542 0
M  V30 4976 H 461.302 -2.84674 -3.92541 0
M  V30 4977 N 462.645 1.35699 -0.801477 0
M  V30 4978 C 464.056 1.81415 -0.441073 0
M  V30 4979 C 464.407 1.66595 1.03636 0
M  V30 4980 O 463.532 1.19369 1.80499 0
M  V30 4981 C 464.127 3.29369 -0.793819 0
M  V30 4982 C 462.686 3.73248 -0.486083 0
M  V30 4983 C 461.833 2.57775 -1.02213 0
M  V30 4984 H 464.784 1.23749 -0.993572 0
M  V30 4985 H 464.805 3.80395 -0.0894158 0
M  V30 4986 H 464.317 3.40123 -1.86917 0
M  V30 4987 H 462.418 3.68046 0.580735 0
M  V30 4988 H 462.531 4.68222 -1.01513 0
M  V30 4989 H 460.895 2.50788 -0.444712 0
M  V30 4990 H 461.678 2.71309 -2.10348 0
M  V30 4991 N 464.123 0.554532 1.47522 0
M  V30 4992 C 465.086 -0.184174 2.28459 0
M  V30 4993 C 466.086 -0.845195 1.36796 0
M  V30 4994 O 467.276 -0.701467 1.59452 0
M  V30 4995 C 464.408 -1.26903 3.16399 0
M  V30 4996 H 465.601 0.526751 2.95238 0
M  V30 4997 H 463.154 0.311375 1.53167 0
M  V30 4998 H 463.889 -2.01244 2.54306 0
M  V30 4999 H 463.674 -0.799883 3.83854 0
M  V30 5000 H 465.164 -1.78794 3.77389 0
M  V30 5001 N 465.601 -1.54893 0.290851 0
M  V30 5002 C 467.012 -1.85584 -0.203816 0
M  V30 5003 C 467.363 -1.21285 -1.54222 0
M  V30 5004 O 466.488 -0.506841 -2.10381 0
M  V30 5005 C 467.083 -3.367 -0.376595 0
M  V30 5006 C 465.642 -3.6746 -0.815485 0
M  V30 5007 C 464.789 -2.77178 0.0821087 0
M  V30 5008 H 467.74 -1.50208 0.512175 0
M  V30 5009 H 467.761 -3.60656 -1.21275 0
M  V30 5010 H 467.273 -3.8347 0.59767 0
M  V30 5011 H 465.374 -3.26201 -1.80066 0
M  V30 5012 H 465.487 -4.7478 -0.641905 0
M  V30 5013 H 463.851 -2.50925 -0.436895 0
M  V30 5014 H 464.634 -3.26767 1.05254 0
M  V30 5015 N 467.08 -0.0183926 -1.57589 0
M  V30 5016 C 468.329 0.66185 -1.90532 0
M  V30 5017 C 468.642 1.73904 -0.895366 0
M  V30 5018 O 469.848 2.47518 -1.11566 0
M  V30 5019 C 468.304 1.22844 -3.38286 0
M  V30 5020 C 467.912 0.185103 -4.47617 0
M  V30 5021 C 469.656 1.88581 -3.80312 0
M  V30 5022 C 467.563 0.762723 -5.86461 0
M  V30 5023 H 466.493 0.250972 -0.711006 0
M  V30 5024 H 469.144 -0.0819435 -1.83317 0
M  V30 5025 H 467.526 2.0235 -3.40398 0
M  V30 5026 H 468.7 -0.58671 -4.5705 0
M  V30 5027 H 467.015 -0.372889 -4.14727 0
M  V30 5028 H 469.612 2.32735 -4.81392 0
M  V30 5029 H 469.955 2.72408 -3.14801 0
M  V30 5030 H 470.488 1.15782 -3.80578 0
M  V30 5031 H 467.227 -0.0371713 -6.55489 0
M  V30 5032 H 466.747 1.50327 -5.80656 0
M  V30 5033 H 468.426 1.25576 -6.34697 0
M  V30 5034 N 468.558 1.5553 0.254621 0
M  V30 5035 C 469.468 1.92789 1.33677 0
M  V30 5036 C 470.484 0.827356 1.53071 0
M  V30 5037 O 471.66 1.12807 1.66843 0
M  V30 5038 C 468.725 2.20827 2.67275 0
M  V30 5039 C 467.786 3.4427 2.5647 0
M  V30 5040 C 467.019 3.70961 3.83697 0
M  V30 5041 O 467.242 2.99852 4.85227 0
M  V30 5042 O 466.176 4.64491 3.82794 0
M  V30 5043 H 470.002 2.84945 1.05071 0
M  V30 5044 H 467.587 1.42312 0.454723 0
M  V30 5045 H 469.469 2.40204 3.46237 0
M  V30 5046 H 468.144 1.31851 2.9563 0
M  V30 5047 H 467.051 3.30209 1.75821 0
M  V30 5048 H 468.384 4.33524 2.33062 0
M  V30 5049 N 470.036 -0.519951 1.48776 0
M  V30 5050 C 470.983 -1.62352 1.64044 0
M  V30 5051 C 471.953 -1.58945 0.482251 0
M  V30 5052 O 473.138 -1.77219 0.706971 0
M  V30 5053 C 470.278 -3.00579 1.69547 0
M  V30 5054 C 469.391 -3.14145 2.96541 0
M  V30 5055 C 468.526 -4.42991 2.93142 0
M  V30 5056 C 467.565 -4.50122 4.14797 0
M  V30 5057 N 466.702 -5.7037 4.09418 0
M  V30 5058 H 471.542 -1.48643 2.58281 0
M  V30 5059 H 469.079 -0.723516 1.28077 0
M  V30 5060 H 471.037 -3.80671 1.70719 0
M  V30 5061 H 469.667 -3.13036 0.787918 0
M  V30 5062 H 468.719 -2.27239 3.05068 0
M  V30 5063 H 470.031 -3.15275 3.86527 0
M  V30 5064 H 469.185 -5.31385 2.92772 0
M  V30 5065 H 467.924 -4.44398 2.00902 0
M  V30 5066 H 466.929 -3.60133 4.15433 0
M  V30 5067 H 468.154 -4.50445 5.08208 0
M  V30 5068 H 466.1 -5.72655 3.20004 0
M  V30 5069 H 466.017 -5.73036 4.93119 0
M  V30 5070 H 467.285 -6.61023 4.13121 0
M  V30 5071 N 471.514 -1.37532 -0.769588 0
M  V30 5072 C 472.742 -1.36059 -1.55871 0
M  V30 5073 C 473.157 0.053544 -1.88724 0
M  V30 5074 O 472.514 1.01591 -1.5161 0
M  V30 5075 C 472.565 -2.20107 -2.86767 0
M  V30 5076 O 472.286 -3.56009 -2.55321 0
M  V30 5077 C 473.787 -2.26636 -3.80987 0
M  V30 5078 H 471.007 -0.465967 -0.482821 0
M  V30 5079 H 473.551 -1.80901 -0.953686 0
M  V30 5080 H 471.706 -1.78768 -3.43687 0
M  V30 5081 H 472.12 -4.0009 -3.39158 0
M  V30 5082 H 473.594 -2.89763 -4.69831 0
M  V30 5083 H 474.071 -1.2754 -4.20274 0
M  V30 5084 H 474.677 -2.68296 -3.29996 0
M  V30 5085 N 472.992 0.995999 -1.22138 0
M  V30 5086 C 474.241 1.72928 -1.03821 0
M  V30 5087 C 474.554 1.90872 0.427444 0
M  V30 5088 O 475.76 2.61496 0.730212 0
M  V30 5089 C 474.216 3.11124 -1.80913 0
M  V30 5090 C 473.824 3.01122 -3.31707 0
M  V30 5091 C 475.568 3.8852 -1.71035 0
M  V30 5092 C 473.475 4.34453 -4.01253 0
M  V30 5093 H 472.405 0.648376 -0.384869 0
M  V30 5094 H 475.056 1.11213 -1.45959 0
M  V30 5095 H 473.438 3.73503 -1.31573 0
M  V30 5096 H 474.612 2.47926 -3.88419 0
M  V30 5097 H 472.927 2.3721 -3.42228 0
M  V30 5098 H 475.524 4.872 -2.20318 0
M  V30 5099 H 475.867 4.1087 -0.670196 0
M  V30 5100 H 476.4 3.32812 -2.17902 0
M  V30 5101 H 473.139 4.17303 -5.05508 0
M  V30 5102 H 472.659 4.87574 -3.49331 0
M  V30 5103 H 474.338 5.03215 -4.06674 0
M  V30 5104 N 474.47 1.03057 1.19235 0
M  V30 5105 C 475.695 0.74757 1.93458 0
M  V30 5106 C 476.12 -0.687648 1.7508 0
M  V30 5107 O 475.478 -1.47499 1.05422 0
M  V30 5108 C 475.526 1.10604 3.43219 0
M  V30 5109 O 474.63 0.225671 4.11782 0
M  V30 5110 H 473.971 0.276047 0.603899 0
M  V30 5111 H 476.501 1.3777 1.51263 0
M  V30 5112 H 476.511 1.06366 3.93891 0
M  V30 5113 H 475.186 2.15165 3.55917 0
M  V30 5114 H 473.763 0.326795 3.71465 0
M  V30 5115 N 475.948 -1.35272 0.808662 0
M  V30 5116 C 476.895 -2.29764 0.218482 0
M  V30 5117 C 477.865 -1.52911 -0.648652 0
M  V30 5118 O 479.05 -1.81341 -0.593297 0
M  V30 5119 C 476.19 -3.39388 -0.625282 0
M  V30 5120 C 475.303 -4.31202 0.262516 0
M  V30 5121 C 474.438 -5.27919 -0.589451 0
M  V30 5122 C 473.477 -6.11371 0.298617 0
M  V30 5123 N 472.614 -7.0022 -0.513443 0
M  V30 5124 H 477.454 -2.79645 1.02968 0
M  V30 5125 H 474.991 -1.37629 0.519303 0
M  V30 5126 H 476.949 -4.01615 -1.12966 0
M  V30 5127 H 475.579 -2.90777 -1.40173 0
M  V30 5128 H 474.631 -3.69962 0.885013 0
M  V30 5129 H 475.943 -4.89748 0.945971 0
M  V30 5130 H 475.097 -5.95529 -1.15888 0
M  V30 5131 H 473.836 -4.69875 -1.30647 0
M  V30 5132 H 472.841 -5.42707 0.880301 0
M  V30 5133 H 474.066 -6.71494 1.01352 0
M  V30 5134 H 472.012 -6.44662 -1.21439 0
M  V30 5135 H 471.929 -7.55917 0.111922 0
M  V30 5136 H 473.197 -7.72175 -1.06608 0
M  V30 5137 N 477.426 -0.562348 -1.47226 0
M  V30 5138 C 478.389 0.172056 -2.28553 0
M  V30 5139 C 479.389 0.837928 -1.37242 0
M  V30 5140 O 480.579 0.693001 -1.59822 0
M  V30 5141 C 477.711 1.25223 -3.17068 0
M  V30 5142 H 478.904 -0.542401 -2.94954 0
M  V30 5143 H 476.457 -0.319493 -1.53 0
M  V30 5144 H 477.192 1.99892 -2.55369 0
M  V30 5145 H 476.977 0.779515 -3.84273 0
M  V30 5146 H 478.467 1.76791 -3.78332 0
M  V30 5147 N 478.904 1.54736 -0.299062 0
M  V30 5148 C 479.851 2.23448 0.577899 0
M  V30 5149 C 480.821 1.21637 1.13109 0
M  V30 5150 O 482.006 1.50252 1.17597 0
M  V30 5151 C 479.146 2.9774 1.74484 0
M  V30 5152 C 478.259 4.1432 1.22323 0
M  V30 5153 C 477.394 4.76199 2.35388 0
M  V30 5154 C 476.433 5.84927 1.80351 0
M  V30 5155 N 475.57 6.4077 2.86982 0
M  V30 5156 H 480.41 2.97996 -0.0146545 0
M  V30 5157 H 477.947 1.47088 -0.0190013 0
M  V30 5158 H 479.905 3.39045 2.43114 0
M  V30 5159 H 478.535 2.25572 2.30905 0
M  V30 5160 H 477.587 3.7797 0.429249 0
M  V30 5161 H 478.899 4.92659 0.780309 0
M  V30 5162 H 478.053 5.20346 3.11969 0
M  V30 5163 H 476.792 3.97188 2.83006 0
M  V30 5164 H 475.797 5.40207 1.02259 0
M  V30 5165 H 477.022 6.65821 1.3364 0
M  V30 5166 H 474.968 5.64643 3.33938 0
M  V30 5167 H 474.885 7.1445 2.4718 0
M  V30 5168 H 476.153 6.89574 3.63466 0
M  V30 5169 N 480.382 0.0267497 1.57577 0
M  V30 5170 C 481.63 -0.651116 1.91324 0
M  V30 5171 C 481.951 -1.72804 0.90353 0
M  V30 5172 O 481.221 -1.95822 -0.0552946 0
M  V30 5173 H 479.801 -0.243491 0.706202 0
M  V30 5174 H 482.463 0.0739935 1.94759 0
M  V30 5175 H 481.559 -1.10536 2.9187 0
M  V30 5176 N 481.861 -1.55662 -0.24637 0
M  V30 5177 C 482.793 -1.86811 -1.32794 0
M  V30 5178 C 483.806 -0.754413 -1.44265 0
M  V30 5179 O 484.995 -1.03253 -1.45606 0
M  V30 5180 C 482.095 -2.0397 -2.70646 0
M  V30 5181 C 481.268 -3.34832 -2.81436 0
M  V30 5182 C 480.327 -3.41727 -4.00136 0
M  V30 5183 O 479.353 -4.14934 -3.89639 0
M  V30 5184 N 480.555 -2.71058 -5.1333 0
M  V30 5185 H 483.32 -2.80174 -1.06409 0
M  V30 5186 H 480.881 -1.55906 -0.43647 0
M  V30 5187 H 482.873 -2.05924 -3.48393 0
M  V30 5188 H 481.443 -1.1735 -2.89738 0
M  V30 5189 H 480.663 -3.4519 -1.90361 0
M  V30 5190 H 481.951 -4.21085 -2.85595 0
M  V30 5191 H 481.349 -2.11314 -5.2475 0
M  V30 5192 H 479.906 -2.78704 -5.89209 0
M  V30 5193 N 483.339 0.512053 -1.4905 0
M  V30 5194 C 484.75 1.09376 -1.51307 0
M  V30 5195 C 485.101 1.94 -0.292971 0
M  V30 5196 O 484.226 2.07965 0.598277 0
M  V30 5197 C 484.821 1.99031 -2.74176 0
M  V30 5198 C 483.38 2.52385 -2.79247 0
M  V30 5199 C 482.527 1.29749 -2.45073 0
M  V30 5200 H 485.478 0.296467 -1.55906 0
M  V30 5201 H 485.499 2.83569 -2.53711 0
M  V30 5202 H 485.011 1.37412 -3.62959 0
M  V30 5203 H 483.112 3.17673 -1.94716 0
M  V30 5204 H 483.225 2.90293 -3.81139 0
M  V30 5205 H 481.589 1.61912 -1.96612 0
M  V30 5206 H 482.372 0.698555 -3.36118 0
M  V30 5207 N 484.817 1.37938 0.762283 0
M  V30 5208 C 486.233 1.18945 1.06415 0
M  V30 5209 C 486.433 0.0321163 2.01474 0
M  V30 5210 O 485.489 -0.624844 2.44647 0
M  V30 5211 C 486.802 2.51218 1.65258 0
M  V30 5212 C 488.35 2.57824 1.7747 0
M  V30 5213 C 488.825 3.90251 2.39725 0
M  V30 5214 N 490.316 3.91744 2.47166 0
M  V30 5215 C 491.051 4.90966 2.96209 0
M  V30 5216 N 490.547 6.00585 3.45354 0
M  V30 5217 N 492.34 4.78363 2.9517 0
M  V30 5218 H 484.491 2.11994 0.131301 0
M  V30 5219 H 486.754 0.940262 0.120879 0
M  V30 5220 H 486.46 3.36317 1.02878 0
M  V30 5221 H 486.334 2.68989 2.64433 0
M  V30 5222 H 488.721 1.73126 2.3898 0
M  V30 5223 H 488.802 2.43928 0.770241 0
M  V30 5224 H 488.446 4.75368 1.78852 0
M  V30 5225 H 488.376 4.01454 3.40796 0
M  V30 5226 H 490.867 3.12563 2.12397 0
M  V30 5227 H 491.18 6.72236 3.81207 0
M  V30 5228 H 489.525 6.04217 3.43434 0
M  V30 5229 H 492.716 3.91841 2.56082 0
M  V30 5230 H 492.889 5.55843 3.33081 0
M  V30 5231 N 486.295 -0.989507 1.22664 0
M  V30 5232 C 487.205 -2.11449 1.01619 0
M  V30 5233 C 488.221 -1.73962 -0.036545 0
M  V30 5234 O 489.397 -2.00788 0.156924 0
M  V30 5235 C 486.462 -3.41465 0.600204 0
M  V30 5236 C 485.523 -3.93033 1.72695 0
M  V30 5237 C 484.756 -5.16844 1.33071 0
M  V30 5238 O 484.979 -5.7001 0.210975 0
M  V30 5239 O 483.913 -5.6225 2.14845 0
M  V30 5240 H 487.739 -2.32088 1.9588 0
M  V30 5241 H 485.324 -1.09823 1.01289 0
M  V30 5242 H 487.206 -4.19695 0.37873 0
M  V30 5243 H 485.881 -3.22178 -0.313511 0
M  V30 5244 H 484.788 -3.15961 2.00298 0
M  V30 5245 H 486.121 -4.16758 2.61865 0
M  V30 5246 N 487.773 -1.03688 -1.18687 0
M  V30 5247 C 489.184 -0.766488 -1.70241 0
M  V30 5248 C 489.535 0.713052 -1.82784 0
M  V30 5249 O 488.66 1.55529 -1.50465 0
M  V30 5250 C 489.255 -1.38475 -3.09209 0
M  V30 5251 C 487.814 -1.16276 -3.5799 0
M  V30 5252 C 486.961 -1.4778 -2.34641 0
M  V30 5253 H 489.912 -1.20378 -1.03415 0
M  V30 5254 H 489.933 -0.785939 -3.72295 0
M  V30 5255 H 489.445 -2.46157 -3.00048 0
M  V30 5256 H 487.546 -0.104508 -3.72453 0
M  V30 5257 H 487.659 -1.8571 -4.41643 0
M  V30 5258 H 486.023 -0.897366 -2.38368 0
M  V30 5259 H 486.806 -2.56562 -2.28102 0
M  V30 5260 N 489.251 1.34841 -0.815825 0
M  V30 5261 C 490.183 2.28409 -0.190265 0
M  V30 5262 C 491.196 1.50705 0.615771 0
M  V30 5263 O 492.385 1.72822 0.446616 0
M  V30 5264 C 489.485 3.30441 0.752446 0
M  V30 5265 C 488.658 4.37399 -0.00922152 0
M  V30 5266 C 487.717 5.19234 0.853351 0
M  V30 5267 O 486.743 5.68404 0.300919 0
M  V30 5268 N 487.945 5.38248 2.17416 0
M  V30 5269 H 490.71 2.82732 -0.994114 0
M  V30 5270 H 488.271 1.47289 -0.672129 0
M  V30 5271 H 490.263 3.82084 1.33394 0
M  V30 5272 H 488.833 2.76565 1.45707 0
M  V30 5273 H 488.053 3.86567 -0.771979 0
M  V30 5274 H 489.341 5.05992 -0.533807 0
M  V30 5275 H 488.739 4.99961 2.6468 0
M  V30 5276 H 487.296 5.93035 2.70467 0
M  V30 5277 N 490.729 0.570148 1.46925 0
M  V30 5278 C 491.975 0.0510284 2.02736 0
M  V30 5279 C 492.308 -1.3006 1.44215 0
M  V30 5280 O 491.583 -1.84932 0.602521 0
M  V30 5281 C 491.866 -0.028215 3.60089 0
M  V30 5282 C 491.719 1.35142 4.29018 0
M  V30 5283 C 493.038 -0.735181 4.33916 0
M  V30 5284 H 490.157 0.0200178 0.736728 0
M  V30 5285 H 492.799 0.73493 1.75211 0
M  V30 5286 H 490.949 -0.610648 3.83671 0
M  V30 5287 H 492.621 1.97806 4.16738 0
M  V30 5288 H 490.864 1.9226 3.88868 0
M  V30 5289 H 491.535 1.24857 5.37694 0
M  V30 5290 H 494.011 -0.240519 4.15404 0
M  V30 5291 H 492.887 -0.759622 5.43618 0
M  V30 5292 H 493.148 -1.79397 4.04066 0
M  V30 5293 N 492.207 -1.54576 0.307264 0
M  V30 5294 C 493.437 -2.04378 -0.302158 0
M  V30 5295 C 493.845 -1.18381 -1.47589 0
M  V30 5296 O 493.188 -0.20352 -1.82569 0
M  V30 5297 C 493.25 -3.50133 -0.815305 0
M  V30 5298 C 492.914 -4.56401 0.233977 0
M  V30 5299 C 493.911 -5.08884 1.06456 0
M  V30 5300 C 491.596 -5.0088 0.377478 0
M  V30 5301 C 493.59 -6.04394 2.02452 0
M  V30 5302 C 491.277 -5.96208 1.34088 0
M  V30 5303 C 492.275 -6.47849 2.16288 0
M  V30 5304 O 491.963 -7.41308 3.10994 0
M  V30 5305 H 491.695 -0.672502 -0.0686839 0
M  V30 5306 H 494.249 -2.00484 0.446682 0
M  V30 5307 H 492.479 -3.51371 -1.61478 0
M  V30 5308 H 494.168 -3.83098 -1.34129 0
M  V30 5309 H 494.934 -4.75311 0.964596 0
M  V30 5310 H 490.813 -4.60309 -0.252405 0
M  V30 5311 H 494.357 -6.44626 2.66652 0
M  V30 5312 H 490.254 -6.29198 1.44154 0
M  V30 5313 H 491.022 -7.5913 3.06045 0
M  V30 5314 N 493.685 -0.035106 -1.57561 0
M  V30 5315 C 494.913 0.652258 -1.9635 0
M  V30 5316 C 495.328 1.65317 -0.911897 0
M  V30 5317 O 494.685 1.82194 0.105657 0
M  V30 5318 C 494.736 1.35337 -3.35211 0
M  V30 5319 O 494.457 0.392548 -4.36338 0
M  V30 5320 C 495.958 2.13199 -3.88666 0
M  V30 5321 H 493.178 0.179444 -0.646561 0
M  V30 5322 H 495.722 -0.0966459 -2.04271 0
M  V30 5323 H 493.877 2.05362 -3.28489 0
M  V30 5324 H 494.291 0.891097 -5.16875 0
M  V30 5325 H 495.765 2.577 -4.88154 0
M  V30 5326 H 496.242 2.97353 -3.23231 0
M  V30 5327 H 496.848 1.48118 -3.98674 0
M  V30 5328 N 495.163 1.55791 0.238111 0
M  V30 5329 C 496.093 1.94068 1.29846 0
M  V30 5330 C 497.074 0.806726 1.49753 0
M  V30 5331 O 498.259 1.06772 1.62214 0
M  V30 5332 C 495.389 2.24302 2.65153 0
M  V30 5333 C 494.343 3.40032 2.59927 0
M  V30 5334 C 493.669 3.55829 3.99111 0
M  V30 5335 C 494.969 4.75476 2.16148 0
M  V30 5336 H 496.663 2.82887 0.980563 0
M  V30 5337 H 494.209 1.36105 0.470253 0
M  V30 5338 H 496.162 2.4967 3.39475 0
M  V30 5339 H 494.886 1.32318 2.98596 0
M  V30 5340 H 493.545 3.14687 1.88063 0
M  V30 5341 H 493.193 2.6125 4.29834 0
M  V30 5342 H 492.893 4.3366 3.96501 0
M  V30 5343 H 494.417 3.83528 4.7512 0
M  V30 5344 H 495.831 5.00158 2.80205 0
M  V30 5345 H 494.228 5.56472 2.24631 0
M  V30 5346 H 495.298 4.71946 1.11333 0
M  V30 5347 N 496.642 -0.504142 1.49319 0
M  V30 5348 C 498.053 -1.08572 1.51885 0
M  V30 5349 C 498.404 -1.93842 0.303255 0
M  V30 5350 O 497.529 -2.0828 -0.58724 0
M  V30 5351 C 498.124 -1.97574 2.75227 0
M  V30 5352 C 496.683 -2.509 2.80581 0
M  V30 5353 C 495.83 -1.28447 2.45757 0
M  V30 5354 H 498.781 -0.288194 1.56061 0
M  V30 5355 H 498.802 -2.82219 2.55211 0
M  V30 5356 H 498.314 -1.35486 3.63683 0
M  V30 5357 H 496.415 -3.16636 1.96398 0
M  V30 5358 H 496.528 -2.88268 3.82673 0
M  V30 5359 H 494.892 -1.60868 1.97468 0
M  V30 5360 H 495.675 -0.68072 3.36483 0
M  V30 5361 N 498.12 -1.38341 -0.754957 0
M  V30 5362 C 499.531 -1.30803 -1.3322 0
M  V30 5363 C 499.882 0.0368 -1.96165 0
M  V30 5364 O 499.007 0.938844 -1.94974 0
M  V30 5365 C 499.602 -2.3688 -2.42225 0
M  V30 5366 C 498.161 -2.32925 -2.95674 0
M  V30 5367 C 497.308 -2.19819 -1.69042 0
M  V30 5368 H 500.259 -1.48719 -0.553937 0
M  V30 5369 H 500.28 -2.02517 -3.22129 0
M  V30 5370 H 499.792 -3.34747 -1.96383 0
M  V30 5371 H 497.893 -1.38635 -3.45848 0
M  V30 5372 H 498.006 -3.27008 -3.50146 0
M  V30 5373 H 496.37 -1.66648 -1.92615 0
M  V30 5374 H 497.153 -3.19625 -1.25279 0
M  V30 5375 N 499.598 0.982988 -1.23187 0
M  V30 5376 C 500.823 1.76455 -1.08988 0
M  V30 5377 C 501.248 1.84726 0.354691 0
M  V30 5378 O 500.606 1.30699 1.25649 0
M  V30 5379 C 500.654 3.17094 -1.71708 0
M  V30 5380 O 499.758 4.00648 -0.977477 0
M  V30 5381 H 499.099 0.542988 -0.382177 0
M  V30 5382 H 501.629 1.23413 -1.63188 0
M  V30 5383 H 501.639 3.67684 -1.76841 0
M  V30 5384 H 500.314 3.10389 -2.76823 0
M  V30 5385 H 498.891 3.59161 -1.0029 0
M  V30 5386 N 501.076 1.04316 1.18135 0
M  V30 5387 C 502.492 0.762858 1.40188 0
M  V30 5388 C 502.692 -0.646547 1.90846 0
M  V30 5389 O 501.748 -1.41036 2.0944 0
M  V30 5390 C 503.061 1.81106 2.40044 0
M  V30 5391 C 504.609 1.83226 2.53766 0
M  V30 5392 C 505.084 2.87044 3.56889 0
M  V30 5393 N 506.575 2.85951 3.64398 0
M  V30 5394 C 507.31 3.62932 4.43923 0
M  V30 5395 N 506.806 4.49672 5.27036 0
M  V30 5396 N 508.599 3.51411 4.38711 0
M  V30 5397 H 500.75 1.95264 0.835805 0
M  V30 5398 H 503.013 0.845017 0.429709 0
M  V30 5399 H 502.719 2.82214 2.09876 0
M  V30 5400 H 502.593 1.64529 3.39426 0
M  V30 5401 H 504.98 0.827869 2.8325 0
M  V30 5402 H 505.061 2.03879 1.54489 0
M  V30 5403 H 504.705 3.87663 3.28145 0
M  V30 5404 H 504.635 2.63645 4.5585 0
M  V30 5405 H 507.126 2.23051 3.05052 0
M  V30 5406 H 507.439 5.05116 5.84874 0
M  V30 5407 H 505.784 4.53738 5.26447 0
M  V30 5408 H 508.975 2.83047 3.72829 0
M  V30 5409 H 509.148 4.11654 5.00445 0
M  V30 5410 N 502.554 -1.34406 0.822964 0
M  V30 5411 C 503.831 -1.92733 0.333641 0
M  V30 5412 C 504.211 -1.75107 -1.17901 0
M  V30 5413 O 503.559 -1.12983 -1.98613 0
M  V30 5414 C 503.769 -3.40557 0.763023 0
M  V30 5415 C 505.117 -4.17709 0.761879 0
M  V30 5416 O 506.141 -3.49141 0.705606 0
M  V30 5417 O 505 -5.40082 0.835109 0
M  V30 5418 H 502.094 -0.821964 0.0911249 0
M  V30 5419 H 504.64 -1.4338 0.907757 0
M  V30 5420 H 503.412 -3.47187 1.8049 0
M  V30 5421 H 503.035 -3.97259 0.164605 0
M  V30 5422 N 504.032 -0.577932 -1.46621 0
M  V30 5423 C 504.942 0.160651 -2.34049 0
M  V30 5424 C 505.958 0.890911 -1.49462 0
M  V30 5425 O 507.134 0.855166 -1.82343 0
M  V30 5426 C 504.199 1.16447 -3.26559 0
M  V30 5427 C 503.26 0.4394 -4.27045 0
M  V30 5428 C 502.493 1.3954 -5.15135 0
M  V30 5429 O 502.716 2.63162 -5.06065 0
M  V30 5430 O 501.65 0.908585 -5.95003 0
M  V30 5431 H 505.476 -0.557057 -2.98547 0
M  V30 5432 H 503.061 -0.338369 -1.45518 0
M  V30 5433 H 504.943 1.7434 -3.83645 0
M  V30 5434 H 503.618 1.86373 -2.64663 0
M  V30 5435 H 502.525 -0.181247 -3.73661 0
M  V30 5436 H 503.858 -0.218799 -4.91713 0
M  V30 5437 N 505.51 1.54411 -0.315457 0
M  V30 5438 C 506.44 2.27002 0.547039 0
M  V30 5439 C 507.421 1.27492 1.12605 0
M  V30 5440 O 508.606 1.5629 1.15269 0
M  V30 5441 C 505.736 3.02171 1.71201 0
M  V30 5442 C 504.69 4.0895 1.26268 0
M  V30 5443 C 504.016 4.71915 2.51396 0
M  V30 5444 C 505.316 5.20891 0.383419 0
M  V30 5445 H 507.01 2.99343 -0.0584517 0
M  V30 5446 H 504.556 1.4397 -0.0295527 0
M  V30 5447 H 506.509 3.51681 2.32161 0
M  V30 5448 H 505.233 2.27433 2.34397 0
M  V30 5449 H 503.892 3.60312 0.676062 0
M  V30 5450 H 503.54 3.93801 3.12937 0
M  V30 5451 H 503.24 5.44039 2.22026 0
M  V30 5452 H 504.764 5.24195 3.13133 0
M  V30 5453 H 506.178 5.66206 0.899082 0
M  V30 5454 H 504.575 5.99821 0.182857 0
M  V30 5455 H 505.645 4.81324 -0.587821 0
M  V30 5456 N 506.988 0.0434614 1.5754 0
M  V30 5457 C 508.216 -0.641835 1.96693 0
M  V30 5458 C 508.631 -1.64832 0.920652 0
M  V30 5459 O 507.988 -1.82247 -0.095993 0
M  V30 5460 C 508.039 -1.33557 3.35924 0
M  V30 5461 O 507.76 -0.369403 4.3654 0
M  V30 5462 C 509.261 -2.11135 3.89791 0
M  V30 5463 H 506.481 -0.176013 0.647503 0
M  V30 5464 H 509.025 0.107478 2.04217 0
M  V30 5465 H 507.18 -2.03617 3.29574 0
M  V30 5466 H 507.594 -0.863674 5.1734 0
M  V30 5467 H 509.068 -2.55107 4.89514 0
M  V30 5468 H 509.545 -2.95634 3.24803 0
M  V30 5469 H 510.151 -1.46002 3.99454 0
M  V30 5470 N 508.466 -1.55915 -0.229846 0
M  V30 5471 C 509.413 -1.91734 -1.28478 0
M  V30 5472 C 510.383 -0.773539 -1.46988 0
M  V30 5473 O 511.568 -1.02871 -1.60693 0
M  V30 5474 C 508.708 -2.23224 -2.63182 0
M  V30 5475 C 507.821 -3.50497 -2.52539 0
M  V30 5476 C 506.956 -3.71474 -3.79711 0
M  V30 5477 C 505.995 -4.92289 -3.63755 0
M  V30 5478 N 505.132 -5.09698 -4.82858 0
M  V30 5479 H 509.972 -2.81692 -0.972308 0
M  V30 5480 H 507.509 -1.39429 -0.468815 0
M  V30 5481 H 509.467 -2.3949 -3.41614 0
M  V30 5482 H 508.097 -1.36451 -2.92542 0
M  V30 5483 H 507.149 -3.4247 -1.65585 0
M  V30 5484 H 508.461 -4.39079 -2.36666 0
M  V30 5485 H 507.615 -3.87791 -4.66586 0
M  V30 5486 H 506.354 -2.81157 -3.985 0
M  V30 5487 H 505.359 -4.7593 -2.75264 0
M  V30 5488 H 506.584 -5.84083 -3.46445 0
M  V30 5489 H 504.53 -4.22322 -5.01976 0
M  V30 5490 H 504.447 -5.92399 -4.69681 0
M  V30 5491 H 505.715 -5.30443 -5.71183 0
M  V30 5492 N 509.944 0.496216 -1.49584 0
M  V30 5493 C 510.892 1.61805 -1.67098 0
M  V30 5494 C 511.886 1.60667 -0.536877 0
M  V30 5495 O 513.092 1.65118 -0.716654 0
M  V30 5496 H 509.467 0.53646 -0.526986 0
M  V30 5497 H 511.438 1.44187 -2.61252 0
M  V30 5498 C 510.187 2.99912 -1.75921 0
M  V30 5499 H 509.51 3.01496 -2.62565 0
M  V30 5500 H 510.95 3.77931 -1.92209 0
M  V30 5501 C 509.409 3.33092 -0.505088 0
M  V30 5502 O 509.939 4.00019 0.367085 0
M  V30 5503 N 508.145 2.88278 -0.366599 0
M  V30 5504 H 507.692 2.33989 -1.07735 0
M  V30 5505 H 507.65 3.10846 0.47142 0
M  V30 5506 N 511.423 1.38739 0.74761 0
M  V30 5507 C 512.355 1.32341 1.87132 0
M  V30 5508 C 513.368 0.234502 1.61102 0
M  V30 5509 O 514.557 0.492516 1.71571 0
M  V30 5510 C 511.657 1.02915 3.22896 0
M  V30 5511 C 510.83 2.22834 3.76383 0
M  V30 5512 C 509.889 1.90059 4.90677 0
M  V30 5513 O 508.915 2.62615 5.04997 0
M  V30 5514 N 510.117 0.859141 5.74107 0
M  V30 5515 H 512.882 2.29175 1.93129 0
M  V30 5516 H 510.443 1.32678 0.927805 0
M  V30 5517 H 512.435 0.79031 3.96908 0
M  V30 5518 H 511.005 0.148572 3.12247 0
M  V30 5519 H 510.225 2.62747 2.93867 0
M  V30 5520 H 511.513 3.02851 4.08851 0
M  V30 5521 H 510.911 0.257564 5.65113 0
M  V30 5522 H 509.468 0.680189 6.48241 0
M  V30 5523 N 512.901 -0.976442 1.23707 0
M  V30 5524 C 514.147 -1.72081 1.07312 0
M  V30 5525 C 514.48 -1.90275 -0.388476 0
M  V30 5526 O 513.755 -1.4579 -1.28746 0
M  V30 5527 C 514.038 -3.11675 1.80363 0
M  V30 5528 C 513.891 -3.01027 3.3422 0
M  V30 5529 C 515.21 -4.1117 1.5693 0
M  V30 5530 H 512.329 -0.624583 0.391236 0
M  V30 5531 H 514.971 -1.13649 1.52263 0
M  V30 5532 H 513.121 -3.61559 1.42153 0
M  V30 5533 H 514.793 -2.58637 3.81975 0
M  V30 5534 H 513.036 -2.3744 3.63049 0
M  V30 5535 H 513.707 -3.9988 3.80525 0
M  V30 5536 H 516.183 -3.7011 1.90151 0
M  V30 5537 H 515.059 -5.06928 2.10513 0
M  V30 5538 H 515.32 -4.392 0.505548 0
M  V30 5539 N 514.379 -1.04941 -1.1758 0
M  V30 5540 C 515.604 -0.778253 -1.92245 0
M  V30 5541 C 516.029 0.659707 -1.76152 0
M  V30 5542 O 515.387 1.45803 -1.07755 0
M  V30 5543 C 515.435 -1.16051 -3.41416 0
M  V30 5544 O 514.539 -0.291153 -4.11371 0
M  V30 5545 H 513.88 -0.285619 -0.599431 0
M  V30 5546 H 516.41 -1.40159 -1.49052 0
M  V30 5547 H 516.42 -1.12619 -3.92149 0
M  V30 5548 H 515.095 -2.208 -3.52449 0
M  V30 5549 H 513.672 -0.385851 -3.70898 0
M  V30 5550 N 515.857 1.33968 -0.830081 0
M  V30 5551 C 516.787 2.31911 -0.271911 0
M  V30 5552 C 517.768 1.58571 0.61556 0
M  V30 5553 O 518.953 1.86514 0.540946 0
M  V30 5554 C 516.083 3.42737 0.561146 0
M  V30 5555 C 515.037 4.27383 -0.229789 0
M  V30 5556 C 514.363 5.29742 0.726463 0
M  V30 5557 C 515.663 5.02 -1.44197 0
M  V30 5558 H 517.357 2.78844 -1.09025 0
M  V30 5559 H 514.903 1.34061 -0.52571 0
M  V30 5560 H 516.856 4.10276 0.961867 0
M  V30 5561 H 515.58 2.94471 1.41261 0
M  V30 5562 H 514.239 3.61456 -0.611964 0
M  V30 5563 H 513.887 4.77736 1.57408 0
M  V30 5564 H 513.587 5.87255 0.20142 0
M  V30 5565 H 515.111 6.00149 1.12489 0
M  V30 5566 H 516.525 5.62355 -1.11488 0
M  V30 5567 H 514.922 5.69122 -1.90317 0
M  V30 5568 H 515.992 4.31281 -2.2164 0
M  V30 5569 N 517.335 0.585699 1.46312 0
M  V30 5570 C 518.563 0.0781299 2.06752 0
M  V30 5571 C 518.978 -1.22812 1.43396 0
M  V30 5572 O 518.335 -1.74318 0.540314 0
M  V30 5573 C 518.386 -0.0911927 3.61385 0
M  V30 5574 O 518.107 1.16336 4.22371 0
M  V30 5575 C 519.608 -0.632765 4.38761 0
M  V30 5576 H 516.828 0.0588188 0.668417 0
M  V30 5577 H 519.372 0.807218 1.87894 0
M  V30 5578 H 517.527 -0.770514 3.7966 0
M  V30 5579 H 517.941 0.979082 5.15281 0
M  V30 5580 H 519.415 -0.70041 5.47538 0
M  V30 5581 H 519.892 -1.65039 4.07012 0
M  V30 5582 H 520.498 0.0117856 4.25298 0
M  V30 5583 N 518.813 -1.54241 0.323641 0
M  V30 5584 C 520.053 -2.0248 -0.279502 0
M  V30 5585 C 520.417 -1.20672 -1.49339 0
M  V30 5586 O 521.618 -1.58715 -2.1694 0
M  V30 5587 C 519.889 -3.52238 -0.605266 0
M  V30 5588 S 521.448 -4.22411 -1.18805 0
M  V30 5589 H 518.266 -0.705957 -0.0845313 0
M  V30 5590 H 520.868 -1.90089 0.456781 0
M  V30 5591 H 519.572 -4.094 0.286339 0
M  V30 5592 H 519.103 -3.6871 -1.37174 0
M  V30 5593 H 521.118 -4.30075 -2.47487 0
M  V30 5594 N 520.291 -0.0518155 -1.57515 0
M  V30 5595 C 521.221 0.920283 -2.146 0
M  V30 5596 C 522.202 1.32406 -1.06783 0
M  V30 5597 O 523.387 1.39866 -1.34726 0
M  V30 5598 C 520.517 2.1949 -2.6915 0
M  V30 5599 C 519.471 1.93116 -3.81956 0
M  V30 5600 C 518.797 3.27037 -4.23026 0
M  V30 5601 C 520.097 1.25225 -5.07066 0
M  V30 5602 H 521.791 0.444801 -2.96077 0
M  V30 5603 H 519.337 0.212508 -1.42423 0
M  V30 5604 H 521.29 2.87894 -3.07725 0
M  V30 5605 H 520.014 2.69244 -1.84865 0
M  V30 5606 H 518.673 1.27123 -3.43854 0
M  V30 5607 H 518.321 3.74595 -3.3569 0
M  V30 5608 H 518.021 3.10189 -4.99056 0
M  V30 5609 H 519.545 3.96673 -4.64202 0
M  V30 5610 H 520.959 1.83666 -5.43083 0
M  V30 5611 H 519.356 1.18702 -5.88243 0
M  V30 5612 H 520.426 0.228382 -4.84362 0
M  V30 5613 N 521.769 1.56035 0.221574 0
M  V30 5614 C 523.015 1.79312 0.947372 0
M  V30 5615 C 523.348 0.621453 1.83988 0
M  V30 5616 O 522.623 -0.379287 1.90766 0
M  V30 5617 C 522.906 3.1267 1.78633 0
M  V30 5618 C 522.759 4.40284 0.920312 0
M  V30 5619 C 524.078 3.4247 2.7641 0
M  V30 5620 H 521.197 0.652328 0.342982 0
M  V30 5621 H 523.839 1.88765 0.216244 0
M  V30 5622 H 521.989 3.04741 2.40967 0
M  V30 5623 H 523.661 4.60232 0.313718 0
M  V30 5624 H 521.904 4.33212 0.225734 0
M  V30 5625 H 522.575 5.30033 1.54171 0
M  V30 5626 H 525.051 3.50526 2.24211 0
M  V30 5627 H 523.927 4.3695 3.32213 0
M  V30 5628 H 524.188 2.64635 3.54148 0
M  V30 5629 N 523.247 -0.488276 1.49845 0
M  V30 5630 C 524.194 -1.58836 1.67451 0
M  V30 5631 C 525.164 -1.57886 0.515857 0
M  V30 5632 O 526.349 -1.75679 0.744403 0
M  V30 5633 C 523.489 -2.96915 1.75885 0
M  V30 5634 C 522.602 -3.07784 3.03138 0
M  V30 5635 C 521.737 -4.36673 3.02473 0
M  V30 5636 C 520.776 -4.41222 4.24252 0
M  V30 5637 N 519.913 -5.61557 4.21424 0
M  V30 5638 H 524.753 -1.43131 2.61376 0
M  V30 5639 H 522.29 -0.696186 1.29583 0
M  V30 5640 H 524.248 -3.76965 1.78755 0
M  V30 5641 H 522.878 -3.11295 0.85414 0
M  V30 5642 H 521.93 -2.20717 3.09819 0
M  V30 5643 H 523.242 -3.07005 3.93128 0
M  V30 5644 H 522.396 -5.25055 3.03977 0
M  V30 5645 H 521.135 -4.40037 2.10283 0
M  V30 5646 H 520.14 -3.5124 4.22978 0
M  V30 5647 H 521.365 -4.39564 5.17649 0
M  V30 5648 H 519.311 -5.65738 3.32078 0
M  V30 5649 H 519.228 -5.62447 5.05163 0
M  V30 5650 H 520.496 -6.52111 4.2705 0
M  V30 5651 N 524.725 -1.39134 -0.740242 0
M  V30 5652 C 525.973 -1.35803 -1.49673 0
M  V30 5653 C 526.294 0.0470897 -1.94943 0
M  V30 5654 O 525.564 0.997347 -1.68611 0
M  V30 5655 H 524.144 -0.499736 -0.555224 0
M  V30 5656 H 526.806 -1.73947 -0.879107 0
M  V30 5657 H 525.902 -2.0174 -2.38133 0
M  V30 5658 N 526.204 0.969867 -1.24223 0
M  V30 5659 C 527.451 1.71256 -1.08063 0
M  V30 5660 C 527.779 1.90734 0.380872 0
M  V30 5661 O 527.034 1.46469 1.29789 0
M  V30 5662 C 527.333 3.10883 -1.76314 0
M  V30 5663 C 526.999 3.11252 -3.26241 0
M  V30 5664 C 525.661 3.1106 -3.67144 0
M  V30 5665 C 528.013 3.05751 -4.22097 0
M  V30 5666 C 525.341 3.03097 -5.02344 0
M  V30 5667 C 527.693 2.9933 -5.57301 0
M  V30 5668 C 526.357 2.97466 -5.97554 0
M  V30 5669 H 525.627 0.62667 -0.395431 0
M  V30 5670 H 528.274 1.13422 -1.54297 0
M  V30 5671 H 526.579 3.72168 -1.22468 0
M  V30 5672 H 528.276 3.67138 -1.61277 0
M  V30 5673 H 524.866 3.12165 -2.93685 0
M  V30 5674 H 529.05 3.05031 -3.91497 0
M  V30 5675 H 524.306 3.00013 -5.32731 0
M  V30 5676 H 528.48 2.94033 -6.31283 0
M  V30 5677 H 526.107 2.91051 -7.02277 0
M  V30 5678 N 527.682 1.05563 1.17022 0
M  V30 5679 C 528.912 0.787307 1.91011 0
M  V30 5680 C 529.32 -0.661256 1.77268 0
M  V30 5681 O 528.663 -1.46379 1.10991 0
M  V30 5682 C 528.725 1.09313 3.42478 0
M  V30 5683 C 528.389 2.53863 3.80004 0
M  V30 5684 C 529.386 3.52081 3.82538 0
M  V30 5685 C 527.071 2.88969 4.10855 0
M  V30 5686 C 529.065 4.83449 4.15399 0
M  V30 5687 C 526.752 4.2054 4.43384 0
M  V30 5688 C 527.75 5.17589 4.45635 0
M  V30 5689 O 527.438 6.46799 4.77395 0
M  V30 5690 H 527.17 0.285463 0.61277 0
M  V30 5691 H 529.724 1.41051 1.49311 0
M  V30 5692 H 527.954 0.412833 3.8449 0
M  V30 5693 H 529.643 0.810224 3.97731 0
M  V30 5694 H 530.409 3.26299 3.58823 0
M  V30 5695 H 526.288 2.1409 4.08272 0
M  V30 5696 H 529.832 5.59194 4.1707 0
M  V30 5697 H 525.729 4.46083 4.66563 0
M  V30 5698 H 526.497 6.51677 4.95237 0
M  V30 5699 N 529.16 -1.33526 0.837174 0
M  V30 5700 C 530.571 -1.80182 0.489017 0
M  V30 5701 C 530.922 -1.69285 -0.991826 0
M  V30 5702 O 530.047 -1.24113 -1.77271 0
M  V30 5703 C 530.642 -3.27149 0.880866 0
M  V30 5704 C 529.201 -3.71828 0.584872 0
M  V30 5705 C 528.348 -2.54974 1.09011 0
M  V30 5706 H 531.299 -1.21071 1.02603 0
M  V30 5707 H 531.32 -3.80024 0.190239 0
M  V30 5708 H 530.832 -3.35048 1.95869 0
M  V30 5709 H 528.933 -3.69457 -0.48295 0
M  V30 5710 H 529.046 -4.65366 1.13892 0
M  V30 5711 H 527.41 -2.4952 0.511047 0
M  V30 5712 H 528.193 -2.65637 2.17467 0
M  V30 5713 N 530.638 -0.59345 -1.46 0
M  V30 5714 C 531.863 -0.0872365 -2.07216 0
M  V30 5715 C 532.288 1.2131 -1.43755 0
M  V30 5716 O 531.646 1.73528 -0.525152 0
M  V30 5717 C 531.694 0.0538197 -3.6056 0
M  V30 5718 O 530.798 1.10765 -3.97247 0
M  V30 5719 H 530.139 -0.0676598 -0.660544 0
M  V30 5720 H 532.669 -0.819445 -1.87473 0
M  V30 5721 H 532.679 0.256567 -4.07193 0
M  V30 5722 H 531.354 -0.895739 -4.0614 0
M  V30 5723 H 529.931 0.882501 -3.62307 0
M  V30 5724 N 532.116 1.54067 -0.331816 0
M  V30 5725 C 533.393 1.92915 0.322955 0
M  V30 5726 C 533.773 1.26225 1.69205 0
M  V30 5727 O 533.121 0.408919 2.24811 0
M  V30 5728 C 533.331 3.46619 0.406946 0
M  V30 5729 C 534.679 4.19386 0.663339 0
M  V30 5730 O 535.703 3.5282 0.489536 0
M  V30 5731 O 534.562 5.37288 0.999193 0
M  V30 5732 H 531.656 0.805808 0.186016 0
M  V30 5733 H 534.202 1.65342 -0.382135 0
M  V30 5734 H 532.974 3.87354 -0.554287 0
M  V30 5735 H 532.597 3.80324 1.15929 0
M  V30 5736 N 533.594 0.0601682 1.57485 0
M  V30 5737 C 534.843 -0.611101 1.9222 0
M  V30 5738 C 535.156 -1.71469 0.941159 0
M  V30 5739 O 536.362 -2.44473 1.18089 0
M  V30 5740 C 534.818 -1.13832 3.41424 0
M  V30 5741 C 534.426 -0.0663596 4.47951 0
M  V30 5742 C 536.17 -1.78432 3.85178 0
M  V30 5743 C 534.077 -0.606965 5.88277 0
M  V30 5744 H 533.007 -0.232033 0.71741 0
M  V30 5745 H 535.658 0.130518 1.83035 0
M  V30 5746 H 534.04 -1.93254 3.45643 0
M  V30 5747 H 535.214 0.707682 4.55333 0
M  V30 5748 H 533.529 0.482715 4.13593 0
M  V30 5749 H 536.126 -2.1989 4.87394 0
M  V30 5750 H 536.469 -2.63966 3.21913 0
M  V30 5751 H 537.002 -1.05651 3.83514 0
M  V30 5752 H 533.741 0.21095 6.5516 0
M  V30 5753 H 533.261 -1.34879 5.84438 0
M  V30 5754 H 534.94 -1.08704 6.37803 0
M  V30 5755 N 535.072 -1.5615 -0.213296 0
M  V30 5756 C 536.035 -1.92249 -1.24792 0
M  V30 5757 C 537.035 -0.801828 -1.39382 0
M  V30 5758 O 538.225 -1.06948 -1.37506 0
M  V30 5759 C 535.357 -2.18056 -2.62039 0
M  V30 5760 H 536.55 -2.84793 -0.939845 0
M  V30 5761 H 534.103 -1.49559 -0.454062 0
M  V30 5762 H 534.838 -1.2809 -2.97932 0
M  V30 5763 H 534.623 -2.99703 -2.52825 0
M  V30 5764 H 536.113 -2.47051 -3.36683 0
M  V30 5765 N 536.55 0.480323 -1.50102 0
M  V30 5766 C 537.796 1.23489 -1.60867 0
M  V30 5767 C 538.129 1.91809 -0.303827 0
M  V30 5768 O 537.404 1.81694 0.694092 0
M  V30 5769 C 537.687 2.28578 -2.78252 0
M  V30 5770 C 537.54 1.64624 -4.18592 0
M  V30 5771 C 538.859 3.2997 -2.91218 0
M  V30 5772 H 535.978 0.447605 -0.585507 0
M  V30 5773 H 538.62 0.530005 -1.82458 0
M  V30 5774 H 536.77 2.88697 -2.59974 0
M  V30 5775 H 538.442 1.08173 -4.48438 0
M  V30 5776 H 536.685 0.949645 -4.23278 0
M  V30 5777 H 537.356 2.40946 -4.96638 0
M  V30 5778 H 539.832 2.79864 -3.07921 0
M  V30 5779 H 538.708 4.00839 -3.74993 0
M  V30 5780 H 538.969 3.93541 -2.0144 0
M  V30 5781 N 538.028 1.39524 0.732853 0
M  V30 5782 C 538.938 1.40695 1.87729 0
M  V30 5783 C 539.954 0.301496 1.71368 0
M  V30 5784 O 541.13 0.543313 1.93933 0
M  V30 5785 C 538.195 1.25098 3.23344 0
M  V30 5786 C 537.256 2.45634 3.52083 0
M  V30 5787 C 536.489 2.30772 4.81228 0
M  V30 5788 O 536.712 1.31233 5.55098 0
M  V30 5789 O 535.646 3.19799 5.09914 0
M  V30 5790 H 539.472 2.37168 1.89697 0
M  V30 5791 H 537.057 1.20663 0.880959 0
M  V30 5792 H 538.939 1.18541 4.04383 0
M  V30 5793 H 537.614 0.317209 3.22142 0
M  V30 5794 H 536.521 2.57767 2.71122 0
M  V30 5795 H 537.854 3.37712 3.58066 0
M  V30 5796 N 539.506 -0.963266 1.24736 0
M  V30 5797 C 540.752 -1.71 1.10139 0
M  V30 5798 C 541.107 -1.89089 -0.35541 0
M  V30 5799 O 540.4 -1.44451 -1.25875 0
M  V30 5800 C 540.594 -3.09944 1.7796 0
M  V30 5801 C 540.423 -3.05408 3.30085 0
M  V30 5802 C 539.193 -3.09643 3.99311 0
M  V30 5803 C 541.391 -2.87241 4.26611 0
M  V30 5804 N 539.373 -2.95174 5.3828 0
M  V30 5805 C 540.744 -2.81114 5.52607 0
M  V30 5806 C 542.799 -2.71856 4.17132 0
M  V30 5807 C 541.502 -2.61174 6.70209 0
M  V30 5808 C 543.528 -2.53284 5.34417 0
M  V30 5809 C 542.89 -2.4787 6.59348 0
M  V30 5810 H 538.989 -0.634078 0.457678 0
M  V30 5811 H 541.573 -1.14169 1.57713 0
M  V30 5812 H 539.744 -3.64958 1.32893 0
M  V30 5813 H 541.476 -3.73348 1.56183 0
M  V30 5814 H 538.231 -3.18498 3.50508 0
M  V30 5815 H 538.655 -2.91168 6.11188 0
M  V30 5816 H 543.297 -2.74821 3.21299 0
M  V30 5817 H 541.015 -2.56952 7.6616 0
M  V30 5818 H 544.601 -2.42317 5.28936 0
M  V30 5819 H 543.481 -2.33685 7.48573 0
M  V30 5820 N 540.985 -1.06182 -1.16461 0
M  V30 5821 C 541.895 -0.682671 -2.24448 0
M  V30 5822 C 542.911 0.30078 -1.71381 0
M  V30 5823 O 544.087 0.150376 -2.00838 0
M  V30 5824 C 541.152 -0.0737202 -3.46622 0
M  V30 5825 C 540.213 -1.10889 -4.14731 0
M  V30 5826 C 539.446 -0.528908 -5.31073 0
M  V30 5827 O 539.669 0.65868 -5.66584 0
M  V30 5828 O 538.603 -1.26805 -5.88391 0
M  V30 5829 H 542.429 -1.58291 -2.59187 0
M  V30 5830 H 540.014 -0.834013 -1.23954 0
M  V30 5831 H 541.896 0.264192 -4.20571 0
M  V30 5832 H 540.571 0.800015 -3.13658 0
M  V30 5833 H 539.478 -1.49896 -3.42756 0
M  V30 5834 H 540.811 -1.95412 -4.51747 0
M  V30 5835 N 542.463 1.3308 -0.844243 0
M  V30 5836 C 543.688 2.02341 -0.455282 0
M  V30 5837 C 544.113 1.6308 0.93737 0
M  V30 5838 O 543.471 0.826118 1.61385 0
M  V30 5839 C 543.519 3.55743 -0.58988 0
M  V30 5840 O 542.623 4.1063 0.38166 0
M  V30 5841 H 541.964 0.637898 -0.184343 0
M  V30 5842 H 544.494 1.6986 -1.14056 0
M  V30 5843 H 544.504 4.05243 -0.473522 0
M  V30 5844 H 543.179 3.83662 -1.60549 0
M  V30 5845 H 541.756 3.72236 0.22241 0
M  V30 5846 N 543.941 0.601185 1.45683 0
M  V30 5847 C 544.889 -0.133955 2.32214 0
M  V30 5848 C 545.883 -0.866034 1.45589 0
M  V30 5849 O 547.089 -0.782326 1.6211 0
M  V30 5850 H 543.464 -0.0620613 0.749435 0
M  V30 5851 H 545.435 0.614389 2.92007 0
M  V30 5852 C 544.184 -1.12216 3.29094 0
M  V30 5853 H 543.507 -0.568273 3.95741 0
M  V30 5854 H 544.947 -1.60659 3.92383 0
M  V30 5855 C 543.406 -2.19251 2.55794 0
M  V30 5856 O 543.936 -3.26894 2.33459 0
M  V30 5857 N 542.142 -1.9436 2.16039 0
M  V30 5858 H 541.689 -1.06829 2.34404 0
M  V30 5859 H 541.647 -2.66181 1.67318 0
M  V30 5860 N 545.419 -1.53889 0.339982 0
M  V30 5861 C 546.667 -2.00458 -0.257112 0
M  V30 5862 C 546.988 -1.22953 -1.51353 0
M  V30 5863 O 546.258 -0.335734 -1.93002 0
M  V30 5864 H 544.838 -0.740544 -0.0979965 0
M  V30 5865 H 547.5 -1.89386 0.460317 0
M  V30 5866 H 546.596 -3.08035 -0.502057 0
M  V30 5867 N 546.897 -0.0685191 -1.57451 0
M  V30 5868 C 547.829 0.929372 -2.09512 0
M  V30 5869 C 548.842 1.26354 -1.02657 0
M  V30 5870 O 550.031 1.2213 -1.30179 0
M  V30 5871 C 547.131 2.24612 -2.53777 0
M  V30 5872 C 546.304 2.09128 -3.84167 0
M  V30 5873 C 545.363 3.24079 -4.14559 0
M  V30 5874 O 544.389 2.99215 -4.8421 0
M  V30 5875 N 545.591 4.49077 -3.67845 0
M  V30 5876 H 548.356 0.484901 -2.95751 0
M  V30 5877 H 545.917 0.11729 -1.61475 0
M  V30 5878 H 547.909 3.00412 -2.71172 0
M  V30 5879 H 546.479 2.60569 -1.72692 0
M  V30 5880 H 545.699 1.17815 -3.76182 0
M  V30 5881 H 546.987 1.9603 -4.69521 0
M  V30 5882 H 546.385 4.72165 -3.11571 0
M  V30 5883 H 544.942 5.21915 -3.90446 0
M  V30 5884 N 548.375 1.56261 0.205012 0
M  V30 5885 C 549.786 1.70056 0.770574 0
M  V30 5886 C 550.137 0.673398 1.84282 0
M  V30 5887 O 549.262 -0.172196 2.15714 0
M  V30 5888 C 549.857 3.08316 1.40451 0
M  V30 5889 C 548.416 3.2391 1.91727 0
M  V30 5890 C 547.563 2.66001 0.783516 0
M  V30 5891 H 550.514 1.58688 -0.019911 0
M  V30 5892 H 550.535 3.05094 2.27371 0
M  V30 5893 H 550.047 3.83053 0.623882 0
M  V30 5894 H 548.148 2.54072 2.7254 0
M  V30 5895 H 548.261 4.3131 2.08588 0
M  V30 5896 H 546.625 2.24915 1.19521 0
M  V30 5897 H 547.408 3.43297 0.0152883 0
M  V30 5898 N 549.853 -0.472356 1.50355 0
M  V30 5899 C 550.763 -1.59637 1.7191 0
M  V30 5900 C 551.779 -1.63247 0.602195 0
M  V30 5901 O 552.955 -1.81139 0.880369 0
M  V30 5902 C 550.02 -2.9586 1.80742 0
M  V30 5903 C 549.081 -3.02649 3.04471 0
M  V30 5904 C 548.314 -4.32374 3.12872 0
M  V30 5905 O 548.537 -5.22807 2.28099 0
M  V30 5906 O 547.471 -4.44728 4.05587 0
M  V30 5907 H 551.297 -1.44373 2.67189 0
M  V30 5908 H 548.882 -0.651717 1.34436 0
M  V30 5909 H 550.764 -3.7677 1.88739 0
M  V30 5910 H 549.439 -3.11325 0.88647 0
M  V30 5911 H 548.346 -2.20821 3.01975 0
M  V30 5912 H 549.679 -2.92119 3.9614 0
M  V30 5913 N 551.331 -1.39911 -0.725443 0
M  V30 5914 C 552.279 -1.39552 -1.86086 0
M  V30 5915 C 553.273 -0.277334 -1.67114 0
M  V30 5916 O 554.479 -0.447865 -1.74339 0
M  V30 5917 H 550.854 -0.435993 -0.612711 0
M  V30 5918 H 552.825 -2.35305 -1.83505 0
M  V30 5919 C 551.574 -1.26529 -3.2386 0
M  V30 5920 H 550.897 -2.11845 -3.3906 0
M  V30 5921 H 552.337 -1.30336 -4.03471 0
M  V30 5922 C 550.796 0.0254168 -3.3689 0
M  V30 5923 O 551.326 0.992048 -3.89257 0
M  V30 5924 N 549.532 0.0916528 -2.90455 0
M  V30 5925 H 549.079 -0.695675 -2.48028 0
M  V30 5926 H 549.037 0.954745 -2.99553 0
M  V30 5927 N 552.809 0.956637 -1.25245 0
M  V30 5928 C 553.757 2.0743 -1.0524 0
M  V30 5929 C 554.751 1.69392 0.0160725 0
M  V30 5930 O 555.957 1.7946 -0.139382 0
M  V30 5931 H 552.332 0.678921 -0.323373 0
M  V30 5932 H 554.303 2.2146 -1.99995 0
M  V30 5933 C 553.052 3.40872 -0.685702 0
M  V30 5934 H 552.375 3.70607 -1.49968 0
M  V30 5935 H 553.815 4.19939 -0.585415 0
M  V30 5936 C 552.274 3.31367 0.608082 0
M  V30 5937 O 552.804 3.66214 1.65076 0
M  V30 5938 N 551.01 2.84486 0.592955 0
M  V30 5939 H 550.557 2.56326 -0.25592 0
M  V30 5940 H 550.515 2.78509 1.45877 0
M  V30 5941 N 554.287 1.06798 1.15896 0
M  V30 5942 C 555.517 0.807522 1.90165 0
M  V30 5943 C 555.925 -0.642417 1.7796 0
M  V30 5944 O 555.268 -1.45193 1.12537 0
M  V30 5945 C 555.33 1.12939 3.41299 0
M  V30 5946 C 554.994 2.57879 3.7729 0
M  V30 5947 C 555.991 3.56118 3.78782 0
M  V30 5948 C 553.676 2.93311 4.07767 0
M  V30 5949 C 555.67 4.87827 4.10248 0
M  V30 5950 C 553.357 4.25219 4.38899 0
M  V30 5951 C 554.355 5.22287 4.4012 0
M  V30 5952 O 554.043 6.51826 4.70508 0
M  V30 5953 H 553.775 0.291946 0.609708 0
M  V30 5954 H 556.329 1.42627 1.47806 0
M  V30 5955 H 554.559 0.45359 3.84031 0
M  V30 5956 H 556.248 0.852363 3.9685 0
M  V30 5957 H 557.014 3.30086 3.55342 0
M  V30 5958 H 552.893 2.18409 4.05979 0
M  V30 5959 H 556.437 5.63586 4.11116 0
M  V30 5960 H 552.334 4.51006 4.61805 0
M  V30 5961 H 553.102 6.56893 4.88298 0
M  V30 5962 N 555.766 -1.3263 0.851289 0
M  V30 5963 C 556.713 -2.28952 0.291469 0
M  V30 5964 C 557.683 -1.54897 -0.599676 0
M  V30 5965 O 558.868 -1.83137 -0.535305 0
M  V30 5966 C 556.008 -3.41206 -0.516992 0
M  V30 5967 C 555.121 -4.30148 0.399566 0
M  V30 5968 C 554.256 -5.29527 -0.4212 0
M  V30 5969 C 553.295 -6.10112 0.492969 0
M  V30 5970 N 552.432 -7.01499 -0.290414 0
M  V30 5971 H 557.272 -2.76228 1.11813 0
M  V30 5972 H 554.809 -1.35907 0.562826 0
M  V30 5973 H 556.767 -4.05005 -1.00132 0
M  V30 5974 H 555.397 -2.9509 -1.30851 0
M  V30 5975 H 554.449 -3.66959 1.00227 0
M  V30 5976 H 555.761 -4.8649 1.1013 0
M  V30 5977 H 554.915 -5.98914 -0.968832 0
M  V30 5978 H 553.654 -4.73794 -1.15632 0
M  V30 5979 H 552.659 -5.39632 1.05251 0
M  V30 5980 H 553.884 -6.6793 1.22664 0
M  V30 5981 H 551.83 -6.48199 -1.00868 0
M  V30 5982 H 551.747 -7.55178 0.352354 0
M  V30 5983 H 553.015 -7.75176 -0.819882 0
M  V30 5984 N 557.244 -0.608902 -1.45362 0
M  V30 5985 C 558.472 -0.111013 -2.06602 0
M  V30 5986 C 558.887 1.20516 -1.45332 0
M  V30 5987 O 558.244 1.73437 -0.567978 0
M  V30 5988 C 558.295 0.033688 -3.61484 0
M  V30 5989 O 558.016 -1.23041 -4.20467 0
M  V30 5990 C 559.517 0.562882 -4.39712 0
M  V30 5991 H 556.737 -0.0694453 -0.667397 0
M  V30 5992 H 559.281 -0.837008 -1.86586 0
M  V30 5993 H 557.436 0.710016 -3.80838 0
M  V30 5994 H 557.85 -1.06094 -5.13658 0
M  V30 5995 H 559.324 0.613213 -5.48583 0
M  V30 5996 H 559.801 1.58543 -4.09586 0
M  V30 5997 H 560.407 -0.0794454 -4.25226 0
M  V30 5998 N 558.722 1.53707 -0.348139 0
M  V30 5999 C 559.95 2.05406 0.248224 0
M  V30 6000 C 560.365 1.22282 1.43849 0
M  V30 6001 O 559.722 0.259244 1.80649 0
M  V30 6002 C 559.773 3.55446 0.658793 0
M  V30 6003 O 559.494 4.35417 -0.484149 0
M  V30 6004 C 560.995 4.23335 1.31539 0
M  V30 6005 H 558.215 0.669344 0.0471075 0
M  V30 6006 H 560.759 1.98257 -0.501456 0
M  V30 6007 H 558.914 3.62803 1.35841 0
M  V30 6008 H 559.328 5.24268 -0.155949 0
M  V30 6009 H 560.802 5.29692 1.55338 0
M  V30 6010 H 561.279 3.75967 2.27036 0
M  V30 6011 H 561.885 4.20184 0.657683 0
M  V30 6012 N 560.2 0.0768682 1.57412 0
M  V30 6013 C 561.611 -0.455037 1.8107 0
M  V30 6014 C 561.962 -1.69323 0.991162 0
M  V30 6015 O 561.087 -2.15328 0.215156 0
M  V30 6016 C 561.682 -0.832316 3.28417 0
M  V30 6017 C 560.241 -1.30906 3.52903 0
M  V30 6018 C 559.388 -0.296714 2.75708 0
M  V30 6019 H 562.339 0.302514 1.5579 0
M  V30 6020 H 562.36 -1.69333 3.40744 0
M  V30 6021 H 561.872 0.0690532 3.88039 0
M  V30 6022 H 559.973 -2.22875 2.98592 0
M  V30 6023 H 560.086 -1.28348 4.61588 0
M  V30 6024 H 558.45 -0.775059 2.42621 0
M  V30 6025 H 559.233 0.597015 3.38069 0
M  V30 6026 N 561.678 -1.56367 -0.196722 0
M  V30 6027 C 563.089 -1.70462 -0.761545 0
M  V30 6028 C 563.44 -0.683161 -1.83922 0
M  V30 6029 O 562.565 0.160753 -2.15802 0
M  V30 6030 C 563.16 -3.09057 -1.38814 0
M  V30 6031 C 561.719 -3.24922 -1.90007 0
M  V30 6032 C 560.866 -2.66412 -0.769399 0
M  V30 6033 H 563.817 -1.58675 0.0283263 0
M  V30 6034 H 563.838 -3.06296 -2.2575 0
M  V30 6035 H 563.35 -3.83378 -0.603559 0
M  V30 6036 H 561.451 -2.55514 -2.71189 0
M  V30 6037 H 561.564 -4.3241 -2.06297 0
M  V30 6038 H 559.928 -2.25546 -1.18326 0
M  V30 6039 H 560.711 -3.433 0.00291773 0
M  V30 6040 N 563.156 0.464375 -1.50603 0
M  V30 6041 C 564.402 1.21776 -1.62168 0
M  V30 6042 C 564.735 1.91476 -0.324154 0
M  V30 6043 O 564.01 1.8242 0.674782 0
M  V30 6044 C 564.293 2.25614 -2.80661 0
M  V30 6045 C 564.146 1.60175 -4.20314 0
M  V30 6046 C 565.465 3.26862 -2.94702 0
M  V30 6047 H 562.584 0.44137 -0.590222 0
M  V30 6048 H 565.226 0.510623 -1.8301 0
M  V30 6049 H 563.376 2.85923 -2.63021 0
M  V30 6050 H 565.048 1.03411 -4.4956 0
M  V30 6051 H 563.291 0.904697 -4.24261 0
M  V30 6052 H 563.962 2.35665 -4.99165 0
M  V30 6053 H 566.438 2.76582 -3.10872 0
M  V30 6054 H 565.314 3.96839 -3.79223 0
M  V30 6055 H 565.575 3.91382 -2.05603 0
M  V30 6056 N 564.634 1.40294 0.718013 0
M  V30 6057 C 565.564 1.43118 1.84498 0
M  V30 6058 C 566.545 0.292403 1.67568 0
M  V30 6059 O 567.73 0.500675 1.87635 0
M  V30 6060 C 564.86 1.29065 3.22427 0
M  V30 6061 C 563.814 2.40521 3.54025 0
M  V30 6062 C 563.14 2.11546 4.91073 0
M  V30 6063 C 564.44 3.82859 3.55269 0
M  V30 6064 H 566.134 2.37432 1.82391 0
M  V30 6065 H 563.68 1.14283 0.87609 0
M  V30 6066 H 565.633 1.29658 4.00957 0
M  V30 6067 H 564.357 0.312271 3.25104 0
M  V30 6068 H 563.016 2.39173 2.77834 0
M  V30 6069 H 562.664 1.12104 4.90348 0
M  V30 6070 H 562.364 2.86216 5.1318 0
M  V30 6071 H 563.888 2.13817 5.71939 0
M  V30 6072 H 565.302 3.86044 4.23843 0
M  V30 6073 H 563.699 4.57029 3.88902 0
M  V30 6074 H 564.769 4.12617 2.54706 0
M  V30 6075 N 566.112 -0.949982 1.2575 0
M  V30 6076 C 567.389 -1.6718 1.01539 0
M  V30 6077 C 567.769 -2.06095 -0.456942 0
M  V30 6078 O 567.117 -1.77792 -1.43534 0
M  V30 6079 C 567.327 -2.8906 1.95564 0
M  V30 6080 C 568.675 -3.60909 2.23673 0
M  V30 6081 O 569.699 -2.9915 1.9336 0
M  V30 6082 O 568.558 -4.72127 2.75243 0
M  V30 6083 H 565.652 -0.731697 0.385419 0
M  V30 6084 H 568.198 -1.00249 1.36924 0
M  V30 6085 H 566.97 -2.57128 2.94959 0
M  V30 6086 H 566.593 -3.63719 1.60605 0
M  V30 6087 N 567.59 -1.07411 -1.15328 0
M  V30 6088 C 568.815 -0.818856 -1.90551 0
M  V30 6089 C 569.24 0.622194 -1.77512 0
M  V30 6090 O 568.598 1.43484 -1.10824 0
M  V30 6091 C 568.646 -1.23267 -3.38877 0
M  V30 6092 O 567.75 -0.378345 -4.10661 0
M  V30 6093 H 567.091 -0.29827 -0.593238 0
M  V30 6094 H 569.621 -1.43289 -1.46046 0
M  V30 6095 H 569.631 -1.20912 -3.89672 0
M  V30 6096 H 568.306 -2.28226 -3.47686 0
M  V30 6097 H 566.883 -0.464437 -3.69996 0
M  V30 6098 N 569.068 1.32177 -0.85831 0
M  V30 6099 C 570.345 1.91781 -0.384624 0
M  V30 6100 C 570.725 1.78171 1.13217 0
M  V30 6101 O 570.073 1.18209 1.95548 0
M  V30 6102 C 570.283 3.38414 -0.853047 0
M  V30 6103 C 571.631 4.15542 -0.872359 0
M  V30 6104 O 572.655 3.47148 -0.797926 0
M  V30 6105 O 571.514 5.37678 -0.978009 0
M  V30 6106 H 568.608 0.819259 -0.112886 0
M  V30 6107 H 571.154 1.40923 -0.945453 0
M  V30 6108 H 569.926 3.4228 -1.89632 0
M  V30 6109 H 569.549 3.96683 -0.269874 0
M  V30 6110 N 570.547 0.616602 1.45037 0
M  V30 6111 C 571.795 0.115103 2.01772 0
M  V30 6112 C 572.116 -1.2622 1.48639 0
M  V30 6113 O 571.386 -1.83563 0.684199 0
M  V30 6114 H 569.966 0.0395607 0.745952 0
M  V30 6115 H 572.628 0.800032 1.77723 0
M  V30 6116 H 571.724 0.0717274 3.12018 0
M  V30 6117 N 572.025 -1.5352 0.356285 0
M  V30 6118 C 573.25 -2.06007 -0.239961 0
M  V30 6119 C 573.675 -1.22872 -1.42422 0
M  V30 6120 O 573.033 -0.245516 -1.7963 0
M  V30 6121 C 573.081 -3.5522 -0.620587 0
M  V30 6122 O 572.185 -3.74864 -1.71902 0
M  V30 6123 H 571.526 -0.662961 -0.0371377 0
M  V30 6124 H 574.056 -1.98033 0.514194 0
M  V30 6125 H 574.066 -3.98081 -0.894197 0
M  V30 6126 H 572.741 -4.15175 0.245407 0
M  V30 6127 H 571.318 -3.43904 -1.44169 0
M  V30 6128 N 573.503 -0.0852151 -1.57369 0
M  V30 6129 C 574.75 0.580806 -1.93992 0
M  V30 6130 C 575.078 1.68801 -0.966252 0
M  V30 6131 O 574.333 1.95694 0.0158649 0
M  V30 6132 C 574.632 1.18482 -3.3719 0
M  V30 6133 C 574.298 0.2024 -4.50446 0
M  V30 6134 C 572.96 -0.0678318 -4.81152 0
M  V30 6135 C 575.312 -0.46895 -5.19086 0
M  V30 6136 C 572.64 -1.01627 -5.77831 0
M  V30 6137 C 574.992 -1.4058 -6.16782 0
M  V30 6138 C 573.656 -1.68436 -6.45899 0
M  V30 6139 H 572.926 0.212532 -0.709867 0
M  V30 6140 H 575.573 -0.158947 -1.90839 0
M  V30 6141 H 573.878 2.0006 -3.36873 0
M  V30 6142 H 575.575 1.70767 -3.62822 0
M  V30 6143 H 572.165 0.423208 -4.26505 0
M  V30 6144 H 576.349 -0.273307 -4.95547 0
M  V30 6145 H 571.605 -1.2392 -5.9871 0
M  V30 6146 H 575.779 -1.93188 -6.69068 0
M  V30 6147 H 573.406 -2.42088 -7.20623 0
M  V30 6148 N 574.981 1.5647 0.188427 0
M  V30 6149 C 576.228 1.81013 0.907779 0
M  V30 6150 C 576.556 0.65953 1.82977 0
M  V30 6151 O 575.811 -0.354308 1.92466 0
M  V30 6152 C 576.11 3.11596 1.7505 0
M  V30 6153 C 575.776 4.40145 0.978922 0
M  V30 6154 C 574.438 4.75066 0.765912 0
M  V30 6155 C 576.79 5.19369 0.436498 0
M  V30 6156 C 574.118 5.867 -0.00089868 0
M  V30 6157 C 576.47 6.31805 -0.317136 0
M  V30 6158 C 575.134 6.65303 -0.541103 0
M  V30 6159 H 574.404 0.662373 0.33218 0
M  V30 6160 H 577.051 1.9071 0.173732 0
M  V30 6161 H 575.356 2.97165 2.55343 0
M  V30 6162 H 577.053 3.27793 2.30983 0
M  V30 6163 H 573.643 4.12745 1.15497 0
M  V30 6164 H 577.827 4.92799 0.588449 0
M  V30 6165 H 573.083 6.11122 -0.184329 0
M  V30 6166 H 577.257 6.92406 -0.744788 0
M  V30 6167 H 574.884 7.51646 -1.13718 0
M  V30 6168 N 576.459 -0.456382 1.50847 0
M  V30 6169 C 577.389 -1.56025 1.73719 0
M  V30 6170 C 578.37 -1.5967 0.586473 0
M  V30 6171 O 579.555 -1.75702 0.827185 0
M  V30 6172 C 576.685 -2.94251 1.84483 0
M  V30 6173 C 575.639 -3.05471 2.99786 0
M  V30 6174 C 574.965 -4.45489 2.95709 0
M  V30 6175 C 576.265 -2.81318 4.40065 0
M  V30 6176 H 577.959 -1.37138 2.66146 0
M  V30 6177 H 575.505 -0.658299 1.28072 0
M  V30 6178 H 577.458 -3.71417 1.99067 0
M  V30 6179 H 576.182 -3.14328 0.886891 0
M  V30 6180 H 574.841 -2.30741 2.84876 0
M  V30 6181 H 574.489 -4.62505 1.97732 0
M  V30 6182 H 574.189 -4.53929 3.73125 0
M  V30 6183 H 575.713 -5.24655 3.12362 0
M  V30 6184 H 577.127 -3.48226 4.55425 0
M  V30 6185 H 575.524 -3.01188 5.19043 0
M  V30 6186 H 576.594 -1.7706 4.51418 0
M  V30 6187 N 577.937 -1.40673 -0.710563 0
M  V30 6188 C 579.167 -1.4234 -1.49742 0
M  V30 6189 C 579.575 -0.022821 -1.89186 0
M  V30 6190 O 578.918 0.964773 -1.56326 0
M  V30 6191 C 578.98 -2.25509 -2.79975 0
M  V30 6192 C 578.644 -3.73862 -2.62824 0
M  V30 6193 C 579.641 -4.66379 -2.29752 0
M  V30 6194 C 577.326 -4.17735 -2.78932 0
M  V30 6195 C 579.32 -6.00756 -2.13006 0
M  V30 6196 C 577.007 -5.5218 -2.61802 0
M  V30 6197 C 578.005 -6.43505 -2.28888 0
M  V30 6198 O 577.693 -7.75472 -2.11894 0
M  V30 6199 H 577.425 -0.487311 -0.468513 0
M  V30 6200 H 579.979 -1.8542 -0.883668 0
M  V30 6201 H 578.209 -1.77218 -3.43701 0
M  V30 6202 H 579.898 -2.19058 -3.41714 0
M  V30 6203 H 580.664 -4.33778 -2.16936 0
M  V30 6204 H 576.543 -3.46967 -3.03537 0
M  V30 6205 H 580.087 -6.72003 -1.87237 0
M  V30 6206 H 575.984 -5.84365 -2.74204 0
M  V30 6207 H 576.752 -7.86458 -2.26775 0
M  V30 6208 N 579.415 0.9433 -1.26252 0
M  V30 6209 C 580.64 1.72898 -1.14547 0
M  V30 6210 C 581.065 1.85761 0.295743 0
M  V30 6211 O 580.423 1.3463 1.21427 0
M  V30 6212 C 580.471 3.11471 -1.8171 0
M  V30 6213 O 579.575 3.97336 -1.10445 0
M  V30 6214 H 578.916 0.530555 -0.399259 0
M  V30 6215 H 581.446 1.18159 -1.67032 0
M  V30 6216 H 581.456 3.61872 -1.88449 0
M  V30 6217 H 580.131 3.01425 -2.86558 0
M  V30 6218 H 578.708 3.55788 -1.11666 0
M  V30 6219 N 580.893 1.08022 1.14757 0
M  V30 6220 C 581.84 0.706657 2.19716 0
M  V30 6221 C 582.81 -0.30525 1.63271 0
M  V30 6222 O 583.995 -0.19015 1.8985 0
M  V30 6223 C 581.135 0.117914 3.44898 0
M  V30 6224 C 580.248 1.18212 4.15512 0
M  V30 6225 C 579.383 0.557659 5.28265 0
M  V30 6226 C 578.422 1.60418 5.90705 0
M  V30 6227 N 577.559 1.0018 6.94916 0
M  V30 6228 H 582.399 1.60603 2.51019 0
M  V30 6229 H 579.936 0.802664 1.23271 0
M  V30 6230 H 581.894 -0.241112 4.16503 0
M  V30 6231 H 580.524 -0.744788 3.1409 0
M  V30 6232 H 579.576 1.65863 3.42335 0
M  V30 6233 H 580.888 1.97533 4.5802 0
M  V30 6234 H 580.042 0.146654 6.06523 0
M  V30 6235 H 578.781 -0.267249 4.86967 0
M  V30 6236 H 577.786 2.02489 5.11154 0
M  V30 6237 H 579.011 2.43149 6.34078 0
M  V30 6238 H 576.957 0.197917 6.55701 0
M  V30 6239 H 576.874 1.73216 7.35889 0
M  V30 6240 H 578.142 0.616523 7.77058 0
M  V30 6241 N 582.371 -1.3172 0.865308 0
M  V30 6242 C 583.301 -2.31109 0.333302 0
M  V30 6243 C 584.282 -1.60148 -0.573301 0
M  V30 6244 O 585.467 -1.87882 -0.491305 0
M  V30 6245 C 582.597 -3.44104 -0.470078 0
M  V30 6246 C 581.551 -4.26623 0.343021 0
M  V30 6247 C 580.877 -5.31482 -0.585756 0
M  V30 6248 C 582.177 -4.98001 1.57456 0
M  V30 6249 H 583.871 -2.75855 1.1638 0
M  V30 6250 H 581.417 -1.3262 0.561069 0
M  V30 6251 H 583.37 -4.12682 -0.852752 0
M  V30 6252 H 582.094 -2.98112 -1.33404 0
M  V30 6253 H 580.753 -3.59707 0.707583 0
M  V30 6254 H 580.401 -4.81741 -1.44686 0
M  V30 6255 H 580.101 -5.87582 -0.0456494 0
M  V30 6256 H 581.625 -6.0292 -0.965375 0
M  V30 6257 H 583.039 -5.59201 1.26359 0
M  V30 6258 H 581.436 -5.63876 2.05339 0
M  V30 6259 H 582.506 -4.25253 2.32997 0
M  V30 6260 N 583.85 -0.624285 -1.44708 0
M  V30 6261 C 585.077 -0.132919 -2.06473 0
M  V30 6262 C 585.493 1.18967 -1.46602 0
M  V30 6263 O 584.85 1.72824 -0.586341 0
M  V30 6264 C 584.901 -0.00465418 -3.615 0
M  V30 6265 O 584.622 -1.27494 -4.19138 0
M  V30 6266 C 586.123 0.516213 -4.40284 0
M  V30 6267 H 583.343 -0.0765201 -0.666623 0
M  V30 6268 H 585.887 -0.856751 -1.85688 0
M  V30 6269 H 584.042 0.669583 -3.8157 0
M  V30 6270 H 584.456 -1.11536 -5.12504 0
M  V30 6271 H 585.93 0.554994 -5.49203 0
M  V30 6272 H 586.407 1.5419 -4.11245 0
M  V30 6273 H 587.013 -0.124542 -4.25118 0
M  V30 6274 N 585.328 1.53329 -0.364422 0
M  V30 6275 C 586.574 2.01537 0.225969 0
M  V30 6276 C 586.907 1.25128 1.48515 0
M  V30 6277 O 586.182 0.344653 1.91422 0
M  V30 6278 C 586.465 3.56339 0.519092 0
M  V30 6279 C 586.318 4.43441 -0.753639 0
M  V30 6280 C 587.637 4.19833 1.32015 0
M  V30 6281 H 584.756 0.732573 0.0806548 0
M  V30 6282 H 587.398 1.83597 -0.489084 0
M  V30 6283 H 585.548 3.71756 1.12825 0
M  V30 6284 H 587.22 4.39823 -1.39116 0
M  V30 6285 H 585.463 4.11457 -1.37424 0
M  V30 6286 H 586.134 5.49699 -0.503517 0
M  V30 6287 H 588.61 4.08242 0.804859 0
M  V30 6288 H 587.486 5.28177 1.49399 0
M  V30 6289 H 587.747 3.75821 2.32832 0
M  V30 6290 N 586.806 0.0935595 1.57322 0
M  V30 6291 C 588.083 -0.612692 1.85756 0
M  V30 6292 C 588.463 -1.86439 0.99013 0
M  V30 6293 O 587.811 -2.28416 0.0621362 0
M  V30 6294 C 588.021 -0.929547 3.36393 0
M  V30 6295 C 589.369 -1.29366 4.04413 0
M  V30 6296 O 590.393 -1.02061 3.41265 0
M  V30 6297 O 589.252 -1.80498 5.15832 0
M  V30 6298 H 586.346 -0.306444 0.768128 0
M  V30 6299 H 588.892 0.126141 1.69231 0
M  V30 6300 H 587.664 -0.0414766 3.91278 0
M  V30 6301 H 587.287 -1.72441 3.5826 0
M  V30 6302 N 588.284 -1.56567 -0.180126 0
M  V30 6303 C 589.231 -1.95725 -1.22313 0
M  V30 6304 C 590.201 -0.819911 -1.44453 0
M  V30 6305 O 591.386 -1.07931 -1.57339 0
M  V30 6306 C 588.526 -2.31484 -2.55947 0
M  V30 6307 C 587.639 -3.58354 -2.4126 0
M  V30 6308 C 586.774 -3.83366 -3.67701 0
M  V30 6309 C 585.813 -5.03612 -3.47909 0
M  V30 6310 N 584.95 -5.24802 -4.66398 0
M  V30 6311 H 589.79 -2.84642 -0.882198 0
M  V30 6312 H 587.327 -1.4085 -0.42422 0
M  V30 6313 H 589.285 -2.50237 -3.33822 0
M  V30 6314 H 587.915 -1.45689 -2.88053 0
M  V30 6315 H 586.967 -3.47565 -1.54606 0
M  V30 6316 H 588.279 -4.46386 -2.22577 0
M  V30 6317 H 587.433 -4.02439 -4.54013 0
M  V30 6318 H 586.172 -2.93692 -3.89353 0
M  V30 6319 H 585.177 -4.84447 -2.59983 0
M  V30 6320 H 586.402 -5.94809 -3.27688 0
M  V30 6321 H 584.348 -4.38079 -4.88286 0
M  V30 6322 H 584.265 -6.07041 -4.50596 0
M  V30 6323 H 585.533 -5.48346 -5.54019 0
M  V30 6324 N 589.762 0.448376 -1.51087 0
M  V30 6325 C 590.987 1.22605 -1.6728 0
M  V30 6326 C 591.412 1.84524 -0.365045 0
M  V30 6327 O 590.77 1.6832 0.673642 0
M  V30 6328 C 590.818 2.29393 -2.78229 0
M  V30 6329 O 589.922 3.34608 -2.41063 0
M  V30 6330 H 589.263 0.359705 -0.558129 0
M  V30 6331 H 591.793 0.530903 -1.97592 0
M  V30 6332 H 591.803 2.74352 -3.01986 0
M  V30 6333 H 590.478 1.83701 -3.73131 0
M  V30 6334 H 589.055 2.95202 -2.27838 0
M  V30 6335 N 591.24 1.41047 0.703093 0
M  V30 6336 C 592.656 1.23351 1.01275 0
M  V30 6337 C 592.856 0.11754 2.01157 0
M  V30 6338 O 591.912 -0.520518 2.47077 0
M  V30 6339 C 593.225 2.58001 1.54454 0
M  V30 6340 C 594.773 2.65119 1.66376 0
M  V30 6341 C 595.248 4.00067 2.22958 0
M  V30 6342 N 596.739 4.01875 2.30328 0
M  V30 6343 C 597.474 5.03087 2.75119 0
M  V30 6344 N 596.97 6.14692 3.19571 0
M  V30 6345 N 598.763 4.90451 2.74616 0
M  V30 6346 H 590.914 2.1236 0.0412686 0
M  V30 6347 H 593.177 0.944543 0.08089 0
M  V30 6348 H 592.883 3.40378 0.88521 0
M  V30 6349 H 592.757 2.79962 2.52786 0
M  V30 6350 H 595.144 1.83106 2.31422 0
M  V30 6351 H 595.225 2.46975 0.666089 0
M  V30 6352 H 594.869 4.82526 1.58529 0
M  V30 6353 H 594.799 4.15547 3.23462 0
M  V30 6354 H 597.29 3.21291 1.98949 0
M  V30 6355 H 597.603 6.87799 3.52352 0
M  V30 6356 H 595.948 6.18239 3.17498 0
M  V30 6357 H 599.139 4.0235 2.39233 0
M  V30 6358 H 599.312 5.6947 3.09206 0
M  V30 6359 N 592.718 -0.936591 1.26751 0
M  V30 6360 C 593.964 -1.68625 1.13741 0
M  V30 6361 C 594.319 -1.898 -0.315221 0
M  V30 6362 O 593.612 -1.47088 -1.22783 0
M  V30 6363 C 593.806 -3.06099 1.84494 0
M  V30 6364 C 593.635 -2.98338 3.36488 0
M  V30 6365 C 592.405 -3.01104 4.05789 0
M  V30 6366 C 594.603 -2.78128 4.32608 0
M  V30 6367 N 592.585 -2.8369 5.4442 0
M  V30 6368 C 593.956 -2.69329 5.58446 0
M  V30 6369 C 596.011 -2.62946 4.22804 0
M  V30 6370 C 594.714 -2.46899 6.75598 0
M  V30 6371 C 596.74 -2.41892 5.39669 0
M  V30 6372 C 596.102 -2.33829 6.64457 0
M  V30 6373 H 592.201 -0.624227 0.471025 0
M  V30 6374 H 594.785 -1.10798 1.601 0
M  V30 6375 H 592.956 -3.62057 1.40604 0
M  V30 6376 H 594.688 -3.69951 1.64067 0
M  V30 6377 H 591.443 -3.10992 3.57185 0
M  V30 6378 H 591.867 -2.78138 6.17226 0
M  V30 6379 H 596.509 -2.67944 3.27056 0
M  V30 6380 H 594.227 -2.40642 7.71438 0
M  V30 6381 H 597.813 -2.31043 5.33957 0
M  V30 6382 H 596.693 -2.17754 7.53361 0
M  V30 6383 N 594.196 -1.08629 -1.14182 0
M  V30 6384 C 595.128 -0.676189 -2.18998 0
M  V30 6385 C 596.141 0.277871 -1.60411 0
M  V30 6386 O 597.33 0.0651771 -1.78381 0
M  V30 6387 C 594.43 0.0254916 -3.3889 0
M  V30 6388 C 593.603 -0.948039 -4.27002 0
M  V30 6389 C 592.662 -0.281268 -5.25448 0
M  V30 6390 O 591.688 -0.926378 -5.61611 0
M  V30 6391 N 592.89 0.967923 -5.72374 0
M  V30 6392 H 595.655 -1.57792 -2.54798 0
M  V30 6393 H 593.216 -0.972665 -1.29425 0
M  V30 6394 H 595.208 0.482554 -4.01813 0
M  V30 6395 H 593.778 0.829348 -3.01398 0
M  V30 6396 H 592.998 -1.58388 -3.6098 0
M  V30 6397 H 594.286 -1.60765 -4.82734 0
M  V30 6398 H 593.684 1.51175 -5.45126 0
M  V30 6399 H 592.241 1.36844 -6.37273 0
M  V30 6400 N 595.674 1.31259 -0.872281 0
M  V30 6401 C 596.606 2.27396 -0.28697 0
M  V30 6402 C 597.619 1.53181 0.551297 0
M  V30 6403 O 598.808 1.74561 0.372914 0
M  V30 6404 C 595.908 3.33335 0.611617 0
M  V30 6405 C 595.081 4.36966 -0.194729 0
M  V30 6406 C 594.14 5.22387 0.632358 0
M  V30 6407 O 593.166 5.69169 0.0595691 0
M  V30 6408 N 594.368 5.46985 1.94391 0
M  V30 6409 H 597.133 2.78261 -1.11314 0
M  V30 6410 H 594.694 1.44306 -0.733994 0
M  V30 6411 H 596.686 3.87398 1.17068 0
M  V30 6412 H 595.256 2.82496 1.33846 0
M  V30 6413 H 594.476 3.82945 -0.935241 0
M  V30 6414 H 595.764 5.03273 -0.747935 0
M  V30 6415 H 595.162 5.10737 2.43237 0
M  V30 6416 H 593.719 6.03973 2.45071 0
M  V30 6417 N 597.152 0.631951 1.44375 0
M  V30 6418 C 598.4 0.136497 2.01639 0
M  V30 6419 C 598.721 -1.24637 1.49969 0
M  V30 6420 O 597.991 -1.82827 0.70363 0
M  V30 6421 H 596.571 0.0474703 0.74549 0
M  V30 6422 H 599.233 0.818837 1.76865 0
M  V30 6423 H 598.329 0.104817 3.11924 0
M  V30 6424 N 598.631 -1.53133 0.372548 0
M  V30 6425 C 599.579 -2.27473 -0.485681 0
M  V30 6426 C 600.573 -1.30719 -1.07745 0
M  V30 6427 O 601.779 -1.48321 -1.01985 0
M  V30 6428 H 598.154 -0.731269 -0.175356 0
M  V30 6429 H 600.125 -2.97955 0.162986 0
M  V30 6430 C 598.874 -3.08191 -1.60978 0
M  V30 6431 H 598.197 -3.82488 -1.16373 0
M  V30 6432 H 599.637 -3.63373 -2.18485 0
M  V30 6433 C 598.096 -2.19461 -2.55614 0
M  V30 6434 O 598.626 -1.81008 -3.58607 0
M  V30 6435 N 596.832 -1.83955 -2.24965 0
M  V30 6436 H 596.379 -2.15423 -1.41247 0
M  V30 6437 H 596.337 -1.24874 -2.88538 0
M  V30 6438 N 600.109 -0.101901 -1.5727 0
M  V30 6439 C 601.355 0.561027 -1.94885 0
M  V30 6440 C 601.688 1.6741 -0.984258 0
M  V30 6441 O 600.963 1.94491 -0.0184767 0
M  V30 6442 C 601.246 1.10982 -3.42571 0
M  V30 6443 C 601.099 0.00133418 -4.498 0
M  V30 6444 C 602.418 2.00608 -3.9172 0
M  V30 6445 H 599.537 0.202467 -0.708644 0
M  V30 6446 H 602.179 -0.173992 -1.89202 0
M  V30 6447 H 600.329 1.73621 -3.47546 0
M  V30 6448 H 602.001 -0.63322 -4.56933 0
M  V30 6449 H 600.244 -0.664143 -4.28686 0
M  V30 6450 H 600.915 0.426253 -5.50352 0
M  V30 6451 H 603.391 1.47864 -3.88941 0
M  V30 6452 H 602.267 2.3593 -4.95609 0
M  V30 6453 H 602.528 2.92608 -3.3141 0
M  V30 6454 N 601.587 1.56661 0.17182 0
M  V30 6455 C 602.834 1.81965 0.888529 0
M  V30 6456 C 603.162 0.6789 1.82267 0
M  V30 6457 O 602.417 -0.333875 1.92831 0
M  V30 6458 C 602.716 3.13435 1.71736 0
M  V30 6459 C 602.382 4.41159 0.932184 0
M  V30 6460 C 601.044 4.75851 0.715481 0
M  V30 6461 C 603.396 5.19803 0.381387 0
M  V30 6462 C 600.724 5.86666 -0.063126 0
M  V30 6463 C 603.076 6.31433 -0.384129 0
M  V30 6464 C 601.74 6.64692 -0.611637 0
M  V30 6465 H 601.01 0.665859 0.325136 0
M  V30 6466 H 603.657 1.90884 0.153495 0
M  V30 6467 H 601.962 2.99857 2.52177 0
M  V30 6468 H 603.659 3.30224 2.27493 0
M  V30 6469 H 600.249 4.13947 1.11112 0
M  V30 6470 H 604.433 4.93396 0.536148 0
M  V30 6471 H 599.689 6.10892 -0.249136 0
M  V30 6472 H 603.863 6.91577 -0.818185 0
M  V30 6473 H 601.49 7.50398 -1.21684 0
M  V30 6474 N 603.065 -0.440357 1.51323 0
M  V30 6475 C 604.29 -1.21716 1.67928 0
M  V30 6476 C 604.715 -1.84328 0.374826 0
M  V30 6477 O 604.073 -1.68675 -0.664706 0
M  V30 6478 C 604.121 -2.27914 2.79442 0
M  V30 6479 O 603.225 -3.33325 2.42834 0
M  V30 6480 H 602.566 -0.35674 0.560029 0
M  V30 6481 H 605.096 -0.520417 1.97871 0
M  V30 6482 H 605.106 -2.72746 3.03436 0
M  V30 6483 H 603.781 -1.8172 3.741 0
M  V30 6484 H 602.358 -2.9399 2.294 0
M  V30 6485 N 604.543 -1.41418 -0.695603 0
M  V30 6486 C 605.783 -1.42241 -1.46788 0
M  V30 6487 C 606.147 -0.0300827 -1.91976 0
M  V30 6488 O 607.348 0.0868914 -2.6866 0
M  V30 6489 C 605.619 -2.4011 -2.6473 0
M  V30 6490 S 607.178 -2.59462 -3.53871 0
M  V30 6491 H 603.996 -0.503893 -0.50161 0
M  V30 6492 H 606.598 -1.77855 -0.811654 0
M  V30 6493 H 605.302 -3.40073 -2.29736 0
M  V30 6494 H 604.833 -2.05849 -3.35246 0
M  V30 6495 H 606.848 -1.862 -4.59939 0
M  V30 6496 N 606.021 0.929856 -1.27246 0
M  V30 6497 C 607.246 1.71674 -1.16374 0
M  V30 6498 C 607.671 1.86064 0.276024 0
M  V30 6499 O 607.029 1.3591 1.19992 0
M  V30 6500 C 607.077 3.09526 -1.85003 0
M  V30 6501 O 606.181 3.96142 -1.14653 0
M  V30 6502 H 605.522 0.52629 -0.404863 0
M  V30 6503 H 608.052 1.16381 -1.68276 0
M  V30 6504 H 608.062 3.59852 -1.92276 0
M  V30 6505 H 606.737 2.98369 -2.89739 0
M  V30 6506 H 605.314 3.54584 -1.15433 0
M  V30 6507 N 607.499 1.09233 1.13605 0
M  V30 6508 C 608.745 0.828385 1.8511 0
M  V30 6509 C 609.078 -0.64437 1.83198 0
M  V30 6510 O 608.353 -1.47428 1.26867 0
M  V30 6511 C 608.636 1.36167 3.33363 0
M  V30 6512 C 608.489 2.90038 3.438 0
M  V30 6513 C 609.808 0.993819 4.28732 0
M  V30 6514 H 606.927 0.30239 0.672108 0
M  V30 6515 H 609.569 1.35339 1.33355 0
M  V30 6516 H 607.719 0.9151 3.77569 0
M  V30 6517 H 609.391 3.43128 3.08319 0
M  V30 6518 H 607.634 3.27271 2.84739 0
M  V30 6519 H 608.305 3.22428 4.48045 0
M  V30 6520 H 610.781 1.37893 3.92587 0
M  V30 6521 H 609.657 1.39403 5.30903 0
M  V30 6522 H 609.918 -0.0982206 4.41991 0
M  V30 6523 N 608.977 -1.30795 0.87923 0
M  V30 6524 C 609.91 -2.26396 0.286404 0
M  V30 6525 C 610.888 -1.51528 -0.589748 0
M  V30 6526 O 612.072 -1.80566 -0.541119 0
M  V30 6527 C 609.199 -3.33458 -0.593581 0
M  V30 6528 C 608.245 -4.2597 0.21247 0
M  V30 6529 S 609.078 -5.11132 1.59702 0
M  V30 6530 C 610.234 -6.21705 0.723408 0
M  V30 6531 H 610.467 -2.7633 1.09677 0
M  V30 6532 H 608 -1.38703 0.678305 0
M  V30 6533 H 609.958 -3.9561 -1.09557 0
M  V30 6534 H 608.619 -2.82259 -1.37799 0
M  V30 6535 H 607.812 -5.01907 -0.458822 0
M  V30 6536 H 607.414 -3.68363 0.646883 0
M  V30 6537 H 609.706 -6.77472 -0.0620739 0
M  V30 6538 H 610.649 -6.93007 1.4542 0
M  V30 6539 H 611.057 -5.63771 0.286855 0
M  V30 6540 N 610.455 -0.639598 -1.44038 0
M  V30 6541 C 611.405 0.0823038 -2.27851 0
M  V30 6542 C 612.389 0.807991 -1.39141 0
M  V30 6543 O 613.581 0.692702 -1.62882 0
M  V30 6544 C 610.71 1.05742 -3.26609 0
M  V30 6545 C 609.796 0.330911 -4.22807 0
M  V30 6546 N 610.187 -0.645126 -5.01669 0
M  V30 6547 C 608.485 0.574214 -4.42288 0
M  V30 6548 C 609.186 -1.07513 -5.71678 0
M  V30 6549 N 608.162 -0.412164 -5.42035 0
M  V30 6550 H 611.964 -0.666861 -2.86234 0
M  V30 6551 H 609.478 -0.465777 -1.55577 0
M  V30 6552 H 611.475 1.58927 -3.85419 0
M  V30 6553 H 610.135 1.80679 -2.69787 0
M  V30 6554 H 611.146 -1.02329 -5.0769 0
M  V30 6555 H 607.823 1.30581 -3.96554 0
M  V30 6556 H 609.213 -1.88196 -6.45005 0
M  V30 6557 N 611.933 1.52934 -0.380664 0
M  V30 6558 C 612.843 2.29921 0.466192 0
M  V30 6559 C 613.859 1.36488 1.07922 0
M  V30 6560 O 615.035 1.69553 1.0869 0
M  V30 6561 C 612.1 3.08468 1.58266 0
M  V30 6562 C 611.161 4.17595 0.995627 0
M  V30 6563 C 610.394 4.92387 2.05889 0
M  V30 6564 O 610.617 4.67184 3.27254 0
M  V30 6565 O 609.551 5.77949 1.68102 0
M  V30 6566 H 613.377 3.03274 -0.160735 0
M  V30 6567 H 610.962 1.48698 -0.144617 0
M  V30 6568 H 612.844 3.57469 2.23145 0
M  V30 6569 H 611.519 2.37937 2.19471 0
M  V30 6570 H 610.426 3.72811 0.310332 0
M  V30 6571 H 611.759 4.90336 0.427918 0
M  V30 6572 N 613.412 0.11024 1.57214 0
M  V30 6573 C 614.375 -0.828808 2.1369 0
M  V30 6574 C 615.375 -1.20059 1.06969 0
M  V30 6575 O 616.565 -1.12754 1.32786 0
M  V30 6576 C 613.697 -2.11959 2.66994 0
M  V30 6577 H 614.89 -0.338146 2.97988 0
M  V30 6578 H 612.443 -0.138913 1.55681 0
M  V30 6579 H 613.178 -2.65476 1.8626 0
M  V30 6580 H 612.963 -1.86258 3.45037 0
M  V30 6581 H 614.453 -2.79105 3.10629 0
M  V30 6582 N 614.89 -1.56749 -0.16351 0
M  V30 6583 C 615.82 -2.00042 -1.20438 0
M  V30 6584 C 616.801 -0.877256 -1.45733 0
M  V30 6585 O 617.986 -1.1439 -1.56935 0
M  V30 6586 C 615.116 -2.36697 -2.54149 0
M  V30 6587 C 614.07 -3.52046 -2.43408 0
M  V30 6588 C 613.396 -3.74466 -3.81679 0
M  V30 6589 C 614.696 -4.85247 -1.93216 0
M  V30 6590 H 616.39 -2.87244 -0.844477 0
M  V30 6591 H 613.936 -1.38194 -0.40478 0
M  V30 6592 H 615.889 -2.65582 -3.27176 0
M  V30 6593 H 614.613 -1.46414 -2.91943 0
M  V30 6594 H 613.272 -3.23301 -1.72834 0
M  V30 6595 H 612.92 -2.81461 -4.1688 0
M  V30 6596 H 612.62 -4.52084 -3.75359 0
M  V30 6597 H 614.144 -4.0576 -4.5628 0
M  V30 6598 H 615.558 -5.12957 -2.56023 0
M  V30 6599 H 613.955 -5.66556 -1.97825 0
M  V30 6600 H 615.025 -4.7672 -0.88689 0
M  V30 6601 N 616.368 0.432326 -1.51554 0
M  V30 6602 C 617.318 1.52366 -1.69614 0
M  V30 6603 C 618.302 1.51205 -0.550083 0
M  V30 6604 O 619.494 1.57573 -0.806206 0
M  V30 6605 C 616.623 2.90513 -1.82913 0
M  V30 6606 C 615.709 2.9641 -3.03318 0
M  V30 6607 N 616.1 2.72043 -4.26411 0
M  V30 6608 C 614.398 3.27572 -3.02675 0
M  V30 6609 C 615.099 2.83912 -5.07709 0
M  V30 6610 N 614.075 3.15798 -4.42462 0
M  V30 6611 H 617.877 1.32285 -2.62446 0
M  V30 6612 H 615.391 0.639708 -1.4927 0
M  V30 6613 H 617.388 3.69032 -1.93962 0
M  V30 6614 H 616.048 3.1161 -0.912655 0
M  V30 6615 H 617.059 2.46876 -4.55272 0
M  V30 6616 H 613.736 3.54411 -2.20678 0
M  V30 6617 H 615.126 2.68984 -6.15709 0
M  V30 6618 N 617.846 1.41785 0.688094 0
M  V30 6619 C 618.794 1.44436 1.82321 0
M  V30 6620 C 619.788 0.321544 1.6632 0
M  V30 6621 O 620.994 0.493931 1.73091 0
M  V30 6622 H 617.369 0.452084 0.600936 0
M  V30 6623 H 619.34 2.40087 1.77202 0
M  V30 6624 C 618.089 1.35071 3.20392 0
M  V30 6625 H 617.412 2.2076 3.33324 0
M  V30 6626 H 618.852 1.40988 3.99873 0
M  V30 6627 C 617.311 0.0639127 3.36839 0
M  V30 6628 O 617.841 -0.888495 3.91751 0
M  V30 6629 N 616.047 -0.0146114 2.90596 0
M  V30 6630 H 615.594 0.761191 2.46097 0
M  V30 6631 H 615.552 -0.874988 3.01979 0
M  V30 6632 N 619.324 -0.923095 1.27737 0
M  V30 6633 C 620.274 -2.01061 1.0751 0
M  V30 6634 C 621.258 -1.609 0.00165451 0
M  V30 6635 O 622.45 -1.75618 0.220724 0
M  V30 6636 C 619.579 -3.35467 0.729162 0
M  V30 6637 C 618.665 -3.82059 1.84098 0
M  V30 6638 N 619.056 -4.01115 3.08124 0
M  V30 6639 C 617.354 -4.11135 1.7287 0
M  V30 6640 C 618.055 -4.39989 3.80506 0
M  V30 6641 N 617.031 -4.47721 3.08297 0
M  V30 6642 H 620.833 -2.13832 2.01626 0
M  V30 6643 H 618.347 -1.11027 1.18519 0
M  V30 6644 H 620.344 -4.13049 0.565355 0
M  V30 6645 H 619.004 -3.24056 -0.204334 0
M  V30 6646 H 620.015 -3.87294 3.43836 0
M  V30 6647 H 616.692 -4.08412 0.866352 0
M  V30 6648 H 618.082 -4.62773 4.87125 0
M  V30 6649 N 620.802 -1.09834 -1.13024 0
M  V30 6650 C 622.032 -0.857657 -1.87957 0
M  V30 6651 C 622.44 0.595008 -1.796 0
M  V30 6652 O 621.783 1.42158 -1.16347 0
M  V30 6653 C 621.845 -1.21949 -3.38185 0
M  V30 6654 C 621.509 -2.67791 -3.7032 0
M  V30 6655 C 622.506 -3.66036 -3.69207 0
M  V30 6656 C 620.191 -3.04019 -3.99847 0
M  V30 6657 C 622.185 -4.98533 -3.9717 0
M  V30 6658 C 619.872 -4.36706 -4.27471 0
M  V30 6659 C 620.87 -5.33772 -4.26118 0
M  V30 6660 O 620.558 -6.64072 -4.53061 0
M  V30 6661 H 620.29 -0.308009 -0.601753 0
M  V30 6662 H 622.844 -1.46496 -1.43973 0
M  V30 6663 H 621.074 -0.555249 -3.82693 0
M  V30 6664 H 622.763 -0.957281 -3.9445 0
M  V30 6665 H 623.529 -3.39392 -3.46465 0
M  V30 6666 H 619.408 -2.29096 -4.00045 0
M  V30 6667 H 622.952 -5.74288 -3.96029 0
M  V30 6668 H 618.849 -4.63091 -4.49685 0
M  V30 6669 H 619.617 -6.69608 -4.7071 0
M  V30 6670 N 622.28 1.30327 -0.886154 0
M  V30 6671 C 623.508 2.00254 -0.520176 0
M  V30 6672 C 623.923 1.66419 0.891637 0
M  V30 6673 O 623.28 0.901951 1.58654 0
M  V30 6674 C 623.331 3.54916 -0.686775 0
M  V30 6675 O 623.052 3.87547 -2.04301 0
M  V30 6676 C 624.553 4.42115 -0.323945 0
M  V30 6677 H 621.773 0.640204 -0.200947 0
M  V30 6678 H 624.317 1.66183 -1.19178 0
M  V30 6679 H 622.472 3.8735 -0.0625273 0
M  V30 6680 H 622.886 4.82247 -2.06249 0
M  V30 6681 H 624.36 5.49808 -0.491407 0
M  V30 6682 H 624.837 4.32953 0.73811 0
M  V30 6683 H 625.443 4.15129 -0.924565 0
M  V30 6684 N 623.758 0.647228 1.43697 0
M  V30 6685 C 624.69 -0.0866232 2.29036 0
M  V30 6686 C 625.703 -0.793051 1.42178 0
M  V30 6687 O 626.892 -0.651807 1.66174 0
M  V30 6688 C 623.992 -1.14552 3.18953 0
M  V30 6689 C 623.165 -0.518422 4.34317 0
M  V30 6690 C 622.224 -1.4734 5.05151 0
M  V30 6691 O 621.25 -0.984312 5.60625 0
M  V30 6692 N 622.452 -2.8075 5.08094 0
M  V30 6693 H 625.217 0.645834 2.92659 0
M  V30 6694 H 622.778 0.489567 1.54321 0
M  V30 6695 H 624.77 -1.78505 3.63205 0
M  V30 6696 H 623.34 -1.78001 2.56971 0
M  V30 6697 H 622.56 0.300079 3.93056 0
M  V30 6698 H 623.848 -0.080401 5.08736 0
M  V30 6699 H 623.246 -3.23052 4.64386 0
M  V30 6700 H 621.803 -3.40022 5.56083 0
M  V30 6701 N 625.236 -1.5273 0.388769 0
M  V30 6702 C 626.183 -2.26437 -0.446639 0
M  V30 6703 C 627.153 -1.28025 -1.05824 0
M  V30 6704 O 628.338 -1.56852 -1.08637 0
M  V30 6705 C 625.478 -3.07407 -1.56828 0
M  V30 6706 C 624.591 -4.20747 -0.979589 0
M  V30 6707 C 623.726 -4.89113 -2.07224 0
M  V30 6708 C 622.765 -5.94447 -1.45942 0
M  V30 6709 N 621.902 -6.56411 -2.49135 0
M  V30 6710 H 626.742 -2.97404 0.18837 0
M  V30 6711 H 624.279 -1.46727 0.104725 0
M  V30 6712 H 626.237 -3.52642 -2.22934 0
M  V30 6713 H 624.867 -2.3865 -2.17361 0
M  V30 6714 H 623.919 -3.7983 -0.208151 0
M  V30 6715 H 625.231 -4.9637 -0.491747 0
M  V30 6716 H 624.385 -5.3765 -2.81101 0
M  V30 6717 H 623.124 -4.13013 -2.59368 0
M  V30 6718 H 622.129 -5.4525 -0.705894 0
M  V30 6719 H 623.354 -6.7248 -0.945932 0
M  V30 6720 H 621.3 -5.83152 -3.00449 0
M  V30 6721 H 621.217 -7.27645 -2.05105 0
M  V30 6722 H 622.485 -7.09592 -3.22644 0
M  V30 6723 N 626.714 -0.118576 -1.57153 0
M  V30 6724 C 627.939 0.550582 -1.99958 0
M  V30 6725 C 628.364 1.59458 -0.997736 0
M  V30 6726 O 627.722 1.81274 0.0306269 0
M  V30 6727 C 627.77 1.15379 -3.41643 0
M  V30 6728 O 626.874 2.26932 -3.44348 0
M  V30 6729 H 626.215 0.137567 -0.649593 0
M  V30 6730 H 628.745 -0.206926 -2.03551 0
M  V30 6731 H 628.755 1.48942 -3.79843 0
M  V30 6732 H 627.43 0.389087 -4.14076 0
M  V30 6733 H 626.007 1.94812 -3.17967 0
M  V30 6734 N 628.193 1.56834 0.155195 0
M  V30 6735 C 629.123 2.00678 1.19376 0
M  V30 6736 C 630.104 0.884973 1.45266 0
M  V30 6737 O 631.289 1.1522 1.56326 0
M  V30 6738 C 628.419 2.38042 2.5289 0
M  V30 6739 C 627.373 3.53332 2.41538 0
M  V30 6740 C 626.699 3.76485 3.79688 0
M  V30 6741 C 627.999 4.86265 1.9064 0
M  V30 6742 H 629.693 2.87688 0.829232 0
M  V30 6743 H 627.239 1.38407 0.397445 0
M  V30 6744 H 629.192 2.67314 3.25763 0
M  V30 6745 H 627.916 1.4796 2.91162 0
M  V30 6746 H 626.575 3.24213 1.71117 0
M  V30 6747 H 626.223 2.83667 4.15382 0
M  V30 6748 H 625.923 4.54068 3.72956 0
M  V30 6749 H 627.447 4.08174 4.54122 0
M  V30 6750 H 628.861 5.14308 2.53299 0
M  V30 6751 H 627.258 5.67597 1.94818 0
M  V30 6752 H 628.328 4.77184 0.861596 0
M  V30 6753 N 629.671 -0.424282 1.51781 0
M  V30 6754 C 630.896 -1.19928 1.6921 0
M  V30 6755 C 631.321 -1.8392 0.394355 0
M  V30 6756 O 630.679 -1.69371 -0.646778 0
M  V30 6757 C 630.727 -2.24937 2.81843 0
M  V30 6758 O 629.831 -3.3073 2.46356 0
M  V30 6759 H 629.172 -0.35078 0.563781 0
M  V30 6760 H 631.702 -0.499401 1.98412 0
M  V30 6761 H 631.712 -2.69512 3.06312 0
M  V30 6762 H 630.387 -1.77742 3.76006 0
M  V30 6763 H 628.964 -2.9154 2.32505 0
M  V30 6764 N 631.149 -1.42148 -0.680565 0
M  V30 6765 C 632.079 -1.4796 -1.80638 0
M  V30 6766 C 633.06 -0.336728 -1.66734 0
M  V30 6767 O 634.245 -0.550247 -1.86242 0
M  V30 6768 C 631.375 -1.37569 -3.18892 0
M  V30 6769 C 630.329 -2.49823 -3.47524 0
M  V30 6770 C 629.655 -2.24491 -4.85291 0
M  V30 6771 C 630.955 -3.92144 -3.44994 0
M  V30 6772 H 632.649 -2.42184 -1.76032 0
M  V30 6773 H 630.195 -1.16566 -0.845481 0
M  V30 6774 H 632.148 -1.40243 -3.97379 0
M  V30 6775 H 630.872 -0.398357 -3.24162 0
M  V30 6776 H 629.531 -2.46455 -2.71395 0
M  V30 6777 H 629.179 -1.25066 -4.87204 0
M  V30 6778 H 628.879 -2.99722 -5.05411 0
M  V30 6779 H 630.403 -2.28906 -5.66069 0
M  V30 6780 H 631.817 -3.97145 -4.13459 0
M  V30 6781 H 630.214 -4.67179 -3.76648 0
M  V30 6782 H 631.284 -4.19225 -2.43676 0
M  V30 6783 N 632.627 0.916307 -1.28225 0
M  V30 6784 C 633.852 1.7043 -1.18188 0
M  V30 6785 C 634.277 1.86346 0.256274 0
M  V30 6786 O 633.635 1.37175 1.18544 0
M  V30 6787 C 633.683 3.07546 -1.88275 0
M  V30 6788 O 632.787 3.94904 -1.18848 0
M  V30 6789 H 632.128 0.521967 -0.410423 0
M  V30 6790 H 634.658 1.14589 -1.69501 0
M  V30 6791 H 634.668 3.57793 -1.96082 0
M  V30 6792 H 633.343 2.95279 -2.92887 0
M  V30 6793 H 631.92 3.53339 -1.19187 0
M  V30 6794 N 634.105 1.10431 1.1244 0
M  V30 6795 C 635.516 0.864439 1.65482 0
M  V30 6796 C 635.867 -0.60527 1.8663 0
M  V30 6797 O 634.992 -1.46492 1.59276 0
M  V30 6798 C 635.587 1.56267 3.0061 0
M  V30 6799 C 634.146 1.3695 3.50602 0
M  V30 6800 C 633.293 1.61209 2.25626 0
M  V30 6801 H 636.244 1.26203 0.962209 0
M  V30 6802 H 636.265 1.00166 3.67079 0
M  V30 6803 H 635.777 2.63231 2.85186 0
M  V30 6804 H 633.878 0.321481 3.71211 0
M  V30 6805 H 633.991 2.11143 4.30064 0
M  V30 6806 H 632.355 1.03482 2.32731 0
M  V30 6807 H 633.138 2.69425 2.12756 0
M  V30 6808 N 635.583 -1.29855 0.893053 0
M  V30 6809 C 636.831 -1.9544 0.514566 0
M  V30 6810 C 637.152 -1.70795 -0.940959 0
M  V30 6811 O 636.422 -1.03601 -1.66264 0
M  V30 6812 H 635.002 -0.723137 0.187302 0
M  V30 6813 H 637.664 -1.58234 1.13789 0
M  V30 6814 H 636.76 -3.04341 0.691581 0
M  V30 6815 O 637.1 -0.794376 -1.40613 0
M  V30 6816 H 637.791 -0.366277 -1.90205 0
M  V30 END ATOM
M  V30 BEGIN BOND
M  V30 END BOND
M  V30 END CTAB
M  END
$$$$
