drugbank_target|P49763 Placenta growth factor (DB08885)
 OpenBabel12092120283D

  0  0  0     0  0            999 V3000
M  V30 BEGIN CTAB
M  V30 COUNTS 3447 3495 0 0 0
M  V30 BEGIN ATOM
M  V30 1 H -0.908 1.98254 -0.117106 0
M  V30 2 N 0 1.576 0 0
M  V30 3 C 0.933 2.03868 1.02534 0
M  V30 4 C 1.911 0.928543 1.3348 0
M  V30 5 O 3.095 1.19667 1.45644 0
M  V30 6 C 0.222 2.43627 2.35294 0
M  V30 7 C -0.732 3.65373 2.2001 0
M  V30 8 S 0.101 5.13292 1.52614 0
M  V30 9 C 1.257 5.56322 2.86805 0
M  V30 10 H 1.49 2.90518 0.631377 0
M  V30 11 H -0.977 1.52953 0.210867 0
M  V30 12 H 0.981 2.67203 3.11629 0
M  V30 13 H -0.358 1.57376 2.7183 0
M  V30 14 H -1.165 3.90944 3.18086 0
M  V30 15 H -1.563 3.418 1.51819 0
M  V30 16 H 0.729 5.58782 3.83104 0
M  V30 17 H 1.672 6.56266 2.65933 0
M  V30 18 H 2.08 4.83886 2.90714 0
M  V30 19 N 1.4781 -0.272755 1.55222 0
M  V30 20 C 2.8891 -0.84378 1.66545 0
M  V30 21 C 3.2401 -1.87035 0.592641 0
M  V30 22 O 2.3651 -2.14761 -0.265818 0
M  V30 23 C 2.9601 -1.53723 3.01918 0
M  V30 24 C 1.5191 -2.05628 3.15268 0
M  V30 25 C 0.6661 -0.898424 2.62343 0
M  V30 26 H 3.6171 -0.0490998 1.58624 0
M  V30 27 H 3.6381 -2.40421 2.94921 0
M  V30 28 H 3.1501 -0.78983 3.79978 0
M  V30 29 H 1.2511 -2.83329 2.41983 0
M  V30 30 H 1.3641 -2.27142 4.21833 0
M  V30 31 H -0.2719 -1.29186 2.19506 0
M  V30 32 H 0.5111 -0.164528 3.42906 0
M  V30 33 N 2.9562 -1.48159 -0.537278 0
M  V30 34 C 4.2022 -1.56035 -1.29541 0
M  V30 35 C 4.5352 -0.230377 -1.92829 0
M  V30 36 O 3.8102 0.762952 -1.78911 0
M  V30 37 C 4.0932 -2.69323 -2.39034 0
M  V30 38 C 3.9462 -4.12002 -1.80485 0
M  V30 39 C 5.2652 -2.78408 -3.40847 0
M  V30 40 H 2.3842 -0.567992 -0.469632 0
M  V30 41 H 5.0262 -1.80302 -0.599277 0
M  V30 42 H 3.1762 -2.48763 -2.98412 0
M  V30 43 H 4.8482 -4.43981 -1.25215 0
M  V30 44 H 3.0912 -4.19344 -1.11055 0
M  V30 45 H 3.7622 -4.87077 -2.59731 0
M  V30 46 H 6.2382 -2.97012 -2.91416 0
M  V30 47 H 5.1142 -3.59416 -4.14863 0
M  V30 48 H 5.3752 -1.86269 -4.00944 0
M  V30 49 N 4.4343 0.785586 -1.36625 0
M  V30 50 C 5.3673 1.90509 -1.25625 0
M  V30 51 C 6.3453 1.62 -0.139607 0
M  V30 52 O 7.5293 1.8591 -0.31141 0
M  V30 53 C 4.6563 3.25419 -0.939158 0
M  V30 54 C 3.7023 3.72856 -2.07077 0
M  V30 55 S 4.5353 3.88162 -3.68904 0
M  V30 56 C 5.6913 5.25942 -3.39317 0
M  V30 57 H 5.9243 1.99549 -2.20381 0
M  V30 58 H 3.4573 0.945226 -1.22085 0
M  V30 59 H 5.4153 4.03346 -0.763029 0
M  V30 60 H 4.0763 3.14099 -0.00931402 0
M  V30 61 H 3.2693 4.70624 -1.80357 0
M  V30 62 H 2.8713 3.01989 -2.20632 0
M  V30 63 H 5.1633 6.10651 -2.93447 0
M  V30 64 H 6.1063 5.57668 -4.36363 0
M  V30 65 H 6.5143 4.93224 -2.74573 0
M  V30 66 N 5.9124 1.20967 1.01018 0
M  V30 67 C 7.3284 0.965905 1.27053 0
M  V30 68 C 7.5284 -0.350785 1.98423 0
M  V30 69 O 6.5844 -1.07773 2.28344 0
M  V30 70 C 7.8974 2.15294 2.09926 0
M  V30 71 C 9.4454 2.19463 2.23171 0
M  V30 72 C 9.9204 3.3767 3.09424 0
M  V30 73 N 11.4114 3.37724 3.17012 0
M  V30 74 C 12.1464 4.25837 3.83993 0
M  V30 75 N 11.6424 5.24138 4.53047 0
M  V30 76 N 13.4354 4.1366 3.80581 0
M  V30 77 H 5.5864 2.0565 0.531194 0
M  V30 78 H 7.8494 0.90024 0.297106 0
M  V30 79 H 7.5554 3.10684 1.64828 0
M  V30 80 H 7.4294 2.13923 3.10672 0
M  V30 81 H 9.8164 1.24632 2.6749 0
M  V30 82 H 9.8974 2.2488 1.21912 0
M  V30 83 H 9.5414 4.32791 2.65808 0
M  V30 84 H 9.4714 3.29491 4.10784 0
M  V30 85 H 11.9624 2.6658 2.6785 0
M  V30 86 H 12.2754 5.87684 5.01844 0
M  V30 87 H 10.6204 5.28068 4.5185 0
M  V30 88 H 13.8114 3.36127 3.25785 0
M  V30 89 H 13.9844 4.82538 4.32505 0
M  V30 90 N 7.3905 -1.2043 1.01659 0
M  V30 91 C 8.3205 -2.25466 0.607226 0
M  V30 92 C 9.3015 -1.65853 -0.377716 0
M  V30 93 O 10.4865 -1.92409 -0.263149 0
M  V30 94 C 7.6165 -3.47256 -0.0552949 0
M  V30 95 C 6.5705 -4.19462 0.850632 0
M  V30 96 C 5.8965 -5.34673 0.0538859 0
M  V30 97 C 7.1965 -4.75603 2.15868 0
M  V30 98 H 8.8905 -2.59962 1.48526 0
M  V30 99 H 6.4365 -1.2496 0.715605 0
M  V30 100 H 8.3895 -4.19917 -0.353233 0
M  V30 101 H 7.1135 -3.11924 -0.968045 0
M  V30 102 H 5.7725 -3.48667 1.13257 0
M  V30 103 H 5.4205 -4.95585 -0.860514 0
M  V30 104 H 5.1205 -5.83913 0.657192 0
M  V30 105 H 6.6445 -6.10138 -0.237598 0
M  V30 106 H 8.0585 -5.40083 1.92311 0
M  V30 107 H 6.4555 -5.3528 2.71284 0
M  V30 108 H 7.5255 -3.94346 2.82169 0
M  V30 109 N 8.8686 -0.792821 -1.36206 0
M  V30 110 C 10.1156 -0.366786 -1.99151 0
M  V30 111 C 10.4436 1.06243 -1.62919 0
M  V30 112 O 9.6986 1.74927 -0.877442 0
M  V30 113 C 9.9976 -0.481501 -3.54142 0
M  V30 114 C 9.6636 -1.87202 -4.10203 0
M  V30 115 C 8.3256 -2.25248 -4.25226 0
M  V30 116 C 10.6776 -2.78237 -4.40719 0
M  V30 117 C 8.0056 -3.53723 -4.68078 0
M  V30 118 C 10.3576 -4.06144 -4.85005 0
M  V30 119 C 9.0216 -4.44207 -4.98234 0
M  V30 120 H 8.2916 -0.134217 -0.728743 0
M  V30 121 H 10.9386 -1.01094 -1.62641 0
M  V30 122 H 9.2436 0.246146 -3.91026 0
M  V30 123 H 10.9406 -0.132844 -4.0078 0
M  V30 124 H 7.5306 -1.56639 -3.98951 0
M  V30 125 H 11.7146 -2.50097 -4.28679 0
M  V30 126 H 6.9706 -3.8308 -4.76508 0
M  V30 127 H 11.1446 -4.76796 -5.07581 0
M  V30 128 H 8.7716 -5.43814 -5.31197 0
M  V30 129 N 10.3467 1.47872 -0.545128 0
M  V30 130 C 11.7577 1.86384 -0.108581 0
M  V30 131 C 12.1087 1.45309 1.31832 0
M  V30 132 O 11.2337 0.850641 1.9898 0
M  V30 133 C 11.8287 3.38265 -0.190274 0
M  V30 134 C 10.3877 3.75914 0.191164 0
M  V30 135 C 9.5347 2.71926 -0.543273 0
M  V30 136 H 12.4857 1.39561 -0.755537 0
M  V30 137 H 12.5067 3.75831 0.594217 0
M  V30 138 H 12.0187 3.6813 -1.2289 0
M  V30 139 H 10.1197 3.51665 1.23136 0
M  V30 140 H 10.2327 4.78836 -0.158987 0
M  V30 141 H 8.5967 2.54697 0.0122495 0
M  V30 142 H 9.3797 3.04634 -1.58282 0
M  V30 143 N 11.8248 0.280983 1.55075 0
M  V30 144 C 13.0648 -0.335234 2.01632 0
M  V30 145 C 13.4288 -1.5261 1.16508 0
M  V30 146 O 14.6298 -2.21235 1.52672 0
M  V30 147 C 12.9008 -0.702172 3.50434 0
M  V30 148 S 14.4598 -1.30409 4.18974 0
M  V30 149 H 11.2778 -0.103967 0.703358 0
M  V30 150 H 13.8798 0.404187 1.91276 0
M  V30 151 H 12.5838 0.17333 4.10034 0
M  V30 152 H 12.1148 -1.4729 3.64786 0
M  V30 153 H 14.1298 -2.59253 4.23087 0
M  V30 154 N 13.3029 -1.57598 0.00835791 0
M  V30 155 C 14.5499 -1.90928 -0.674732 0
M  V30 156 C 14.8779 -0.88277 -1.73313 0
M  V30 157 O 14.1329 0.111294 -1.95383 0
M  V30 158 C 14.4319 -3.3101 -1.34787 0
M  V30 159 C 14.0979 -4.48922 -0.421861 0
M  V30 160 C 12.7599 -4.8091 -0.166927 0
M  V30 161 C 15.1119 -5.20755 0.215211 0
M  V30 162 C 12.4399 -5.821 0.733232 0
M  V30 163 C 14.7919 -6.22905 1.1033 0
M  V30 164 C 13.4559 -6.53346 1.36733 0
M  V30 165 H 12.7259 -0.698656 -0.246902 0
M  V30 166 H 15.3729 -1.91387 0.0656779 0
M  V30 167 H 13.6779 -3.26714 -2.16253 0
M  V30 168 H 15.3749 -3.54061 -1.8826 0
M  V30 169 H 11.9649 -4.23934 -0.630729 0
M  V30 170 H 16.1489 -4.9629 0.0312829 0
M  V30 171 H 11.4049 -6.04042 0.945712 0
M  V30 172 H 15.5789 -6.77694 1.60325 0
M  V30 173 H 13.2059 -7.31573 2.06652 0
M  V30 174 N 14.781 0.264519 -1.55364 0
M  V30 175 C 15.711 1.33121 -1.91836 0
M  V30 176 C 16.692 1.51101 -0.781192 0
M  V30 177 O 17.877 1.64003 -1.04003 0
M  V30 178 C 15.007 2.68921 -2.19769 0
M  V30 179 C 13.961 2.65661 -3.35571 0
M  V30 180 C 13.287 4.05093 -3.49004 0
M  V30 181 C 14.587 2.24187 -4.71739 0
M  V30 182 H 16.281 1.02844 -2.81182 0
M  V30 183 H 13.827 0.493286 -1.35287 0
M  V30 184 H 15.78 3.43663 -2.43872 0
M  V30 185 H 14.504 3.00799 -1.27231 0
M  V30 186 H 13.163 1.93377 -3.1145 0
M  V30 187 H 12.811 4.34206 -2.53917 0
M  V30 188 H 12.511 4.03804 -4.26868 0
M  V30 189 H 14.035 4.81561 -3.75408 0
M  V30 190 H 15.449 2.88654 -4.9533 0
M  V30 191 H 13.846 2.34044 -5.52579 0
M  V30 192 H 14.916 1.19327 -4.69988 0
M  V30 193 N 16.2591 1.48442 0.529413 0
M  V30 194 C 17.1911 1.59095 1.64989 0
M  V30 195 C 18.2041 0.475212 1.5571 0
M  V30 196 O 19.3931 0.746081 1.6216 0
M  V30 197 C 16.4931 1.50518 3.0364 0
M  V30 198 C 15.6661 2.77142 3.38395 0
M  V30 199 C 14.7251 2.62012 4.56329 0
M  V30 200 O 13.7511 3.35898 4.59522 0
M  V30 201 N 14.9531 1.71667 5.54536 0
M  V30 202 H 17.7181 2.55723 1.56287 0
M  V30 203 H 15.2791 1.45173 0.716697 0
M  V30 204 H 17.2711 1.38091 3.80412 0
M  V30 205 H 15.8411 0.618627 3.06418 0
M  V30 206 H 15.0611 3.0413 2.50796 0
M  V30 207 H 16.3491 3.61146 3.58401 0
M  V30 208 H 15.7471 1.10841 5.54735 0
M  V30 209 H 14.3041 1.65178 6.30523 0
M  V30 210 N 17.7372 -0.778329 1.37039 0
M  V30 211 C 18.6672 -1.90546 1.34962 0
M  V30 212 C 19.6482 -1.68681 0.219274 0
M  V30 213 O 20.8332 -1.89634 0.418624 0
M  V30 214 C 17.9632 -3.27734 1.14925 0
M  V30 215 C 16.9172 -3.64147 2.24902 0
M  V30 216 C 16.2432 -4.99806 1.89996 0
M  V30 217 C 17.5432 -3.71579 3.67051 0
M  V30 218 H 19.2372 -1.92541 2.29277 0
M  V30 219 H 16.7832 -0.924948 1.10366 0
M  V30 220 H 18.7362 -4.06215 1.12104 0
M  V30 221 H 17.4602 -3.26154 0.170631 0
M  V30 222 H 16.1192 -2.8797 2.26868 0
M  V30 223 H 15.7672 -4.94759 0.906796 0
M  V30 224 H 15.4672 -5.25139 2.63634 0
M  V30 225 H 16.9912 -5.80694 1.88749 0
M  V30 226 H 18.4052 -4.40227 3.67251 0
M  V30 227 H 16.8022 -4.08405 4.39688 0
M  V30 228 H 17.8722 -2.72404 4.01154 0
M  V30 229 N 19.2153 -1.21501 -1.00376 0
M  V30 230 C 20.1453 -0.999478 -2.11028 0
M  V30 231 C 21.1263 0.0759671 -1.6993 0
M  V30 232 O 22.3113 -0.0841106 -1.94018 0
M  V30 233 C 19.4413 -0.564709 -3.42678 0
M  V30 234 C 18.3953 -1.58486 -3.97576 0
M  V30 235 C 17.7213 -1.00628 -5.25146 0
M  V30 236 C 19.0213 -2.97204 -4.29496 0
M  V30 237 H 20.7153 -1.92495 -2.29317 0
M  V30 238 H 18.2613 -0.92693 -1.102 0
M  V30 239 H 20.2143 -0.401091 -4.19487 0
M  V30 240 H 18.9383 0.396411 -3.24185 0
M  V30 241 H 17.5973 -1.73606 -3.22888 0
M  V30 242 H 17.2453 -0.0368439 -5.02987 0
M  V30 243 H 16.9453 -1.68771 -5.62841 0
M  V30 244 H 18.4693 -0.854015 -6.04598 0
M  V30 245 H 19.8833 -2.8552 -4.97143 0
M  V30 246 H 18.2803 -3.62372 -4.78338 0
M  V30 247 H 19.3503 -3.47956 -3.3772 0
M  V30 248 N 20.6934 1.19889 -1.02296 0
M  V30 249 C 21.6564 2.21116 -0.603351 0
M  V30 250 C 22.6564 1.5738 0.329884 0
M  V30 251 O 23.8464 1.73802 0.117702 0
M  V30 252 C 20.9784 3.40696 0.117992 0
M  V30 253 H 22.1714 2.59754 -1.49893 0
M  V30 254 H 19.7244 1.33463 -0.813468 0
M  V30 255 H 20.4594 3.07569 1.0282 0
M  V30 256 H 20.2444 3.88188 -0.552511 0
M  V30 257 H 21.7344 4.15692 0.398696 0
M  V30 258 N 22.1715 0.800033 1.35784 0
M  V30 259 C 23.4195 0.376597 1.9856 0
M  V30 260 C 23.7405 -1.05812 1.63795 0
M  V30 261 O 23.0105 -1.73103 0.917171 0
M  V30 262 H 21.5905 0.136261 0.734467 0
M  V30 263 H 24.2525 1.02442 1.65806 0
M  V30 264 H 23.3485 0.477002 3.08433 0
M  V30 265 N 23.6496 -1.47581 0.552962 0
M  V30 266 C 24.5796 -2.32762 -0.185451 0
M  V30 267 C 25.5606 -1.43527 -0.912905 0
M  V30 268 O 26.7456 -1.72388 -0.894201 0
M  V30 269 C 23.8756 -3.25219 -1.21859 0
M  V30 270 C 22.8296 -4.23661 -0.607864 0
M  V30 271 C 22.1556 -5.05413 -1.74533 0
M  V30 272 C 23.4556 -5.20481 0.435582 0
M  V30 273 H 25.1496 -2.94749 0.525684 0
M  V30 274 H 22.6956 -1.41738 0.254251 0
M  V30 275 H 24.6486 -3.8365 -1.7433 0
M  V30 276 H 23.3726 -2.61279 -1.95961 0
M  V30 277 H 22.0316 -3.66451 -0.104489 0
M  V30 278 H 21.6796 -4.3788 -2.47529 0
M  V30 279 H 21.3796 -5.72059 -1.34249 0
M  V30 280 H 22.9036 -5.66701 -2.27338 0
M  V30 281 H 24.3176 -5.733 -0.00290157 0
M  V30 282 H 22.7146 -5.95305 0.757067 0
M  V30 283 H 23.7846 -4.66217 1.33303 0
M  V30 284 N 25.1277 -0.289203 -1.54924 0
M  V30 285 C 26.0907 0.579144 -2.21762 0
M  V30 286 C 27.0907 1.07047 -1.1999 0
M  V30 287 O 28.2807 0.968384 -1.44803 0
M  V30 288 C 25.4127 1.80055 -2.8947 0
M  V30 289 H 26.6057 -0.00464908 -2.999 0
M  V30 290 H 24.1587 -0.0399306 -1.56249 0
M  V30 291 H 24.8937 2.42449 -2.15381 0
M  V30 292 H 24.6787 1.45602 -3.64064 0
M  V30 293 H 26.1687 2.41773 -3.40493 0
M  V30 294 N 26.6058 1.57591 -0.0167156 0
M  V30 295 C 27.5358 2.12496 0.967858 0
M  V30 296 C 28.5168 1.03807 1.34752 0
M  V30 297 O 29.7018 1.31577 1.42833 0
M  V30 298 C 26.8318 2.64194 2.25431 0
M  V30 299 C 25.7858 3.77559 2.01576 0
M  V30 300 C 25.1118 4.15636 3.36379 0
M  V30 301 C 26.4118 5.04151 1.36489 0
M  V30 302 H 28.1058 2.95013 0.510643 0
M  V30 303 H 25.6518 1.41915 0.244181 0
M  V30 304 H 27.6048 3.01236 2.94678 0
M  V30 305 H 26.3288 1.78821 2.73296 0
M  V30 306 H 24.9878 3.40937 1.34751 0
M  V30 307 H 24.6358 3.27263 3.81979 0
M  V30 308 H 24.3358 4.92022 3.21229 0
M  V30 309 H 25.8598 4.5525 4.06915 0
M  V30 310 H 27.2738 5.38857 1.95718 0
M  V30 311 H 25.6708 5.85453 1.31776 0
M  V30 312 H 26.7408 4.83733 0.336219 0
M  V30 313 N 28.0839 -0.256276 1.55502 0
M  V30 314 C 29.4949 -0.826068 1.67431 0
M  V30 315 C 29.8459 -1.86396 0.612446 0
M  V30 316 O 28.9709 -2.15031 -0.243025 0
M  V30 317 C 29.5659 -1.50512 3.03532 0
M  V30 318 C 28.1249 -2.02273 3.17431 0
M  V30 319 C 27.2719 -0.870548 2.63281 0
M  V30 320 H 30.2229 -0.0322728 1.58667 0
M  V30 321 H 30.2439 -2.37279 2.97454 0
M  V30 322 H 29.7559 -0.749484 3.80794 0
M  V30 323 H 27.8569 -2.80746 2.44974 0
M  V30 324 H 27.9699 -2.22655 4.24219 0
M  V30 325 H 26.3339 -1.26851 2.20864 0
M  V30 326 H 27.1169 -0.128149 3.43061 0
M  V30 327 N 29.562 -1.4872 -0.521534 0
M  V30 328 C 30.525 -1.63379 -1.60748 0
M  V30 329 C 31.525 -0.50661 -1.52611 0
M  V30 330 O 32.715 -0.772601 -1.5613 0
M  V30 331 C 29.847 -1.61192 -3.00383 0
M  V30 332 H 31.04 -2.60217 -1.49087 0
M  V30 333 H 28.593 -1.37444 -0.744235 0
M  V30 334 H 29.328 -0.65863 -3.17541 0
M  V30 335 H 29.113 -2.43032 -3.07698 0
M  V30 336 H 30.603 -1.7466 -3.7932 0
M  V30 337 N 31.0401 0.771051 -1.3745 0
M  V30 338 C 32.2861 1.5319 -1.32894 0
M  V30 339 C 32.6191 1.94008 0.0862511 0
M  V30 340 O 31.8941 1.64124 1.04373 0
M  V30 341 C 32.1771 2.79648 -2.26868 0
M  V30 342 C 32.0301 2.45079 -3.77169 0
M  V30 343 C 33.3491 3.81583 -2.19277 0
M  V30 344 H 30.4681 0.555744 -0.484064 0
M  V30 345 H 33.1101 0.884492 -1.68157 0
M  V30 346 H 31.2601 3.34891 -1.96926 0
M  V30 347 H 32.9321 1.95745 -4.1771 0
M  V30 348 H 31.1751 1.77767 -3.95704 0
M  V30 349 H 31.8461 3.35478 -4.38359 0
M  V30 350 H 34.3221 3.35835 -2.45671 0
M  V30 351 H 33.1981 4.67787 -2.87171 0
M  V30 352 H 33.4591 4.25897 -1.18592 0
M  V30 353 N 32.5182 1.22032 0.997298 0
M  V30 354 C 33.9292 1.0397 1.55071 0
M  V30 355 C 34.2802 -0.398192 1.92117 0
M  V30 356 O 33.4052 -1.28254 1.74298 0
M  V30 357 C 34.0002 1.88109 2.81781 0
M  V30 358 C 32.5592 1.74357 3.33581 0
M  V30 359 C 31.7062 1.84846 2.06706 0
M  V30 360 H 34.6572 1.35941 0.818883 0
M  V30 361 H 34.6782 1.39589 3.53971 0
M  V30 362 H 34.1902 2.92754 2.54787 0
M  V30 363 H 32.2912 0.72427 3.65493 0
M  V30 364 H 32.4042 2.56772 4.04481 0
M  V30 365 H 30.7682 1.28238 2.20062 0
M  V30 366 H 31.5512 2.91014 1.82114 0
M  V30 367 N 33.9963 -1.19345 1.0293 0
M  V30 368 C 35.4073 -1.70725 0.755633 0
M  V30 369 C 35.7583 -1.82326 -0.724676 0
M  V30 370 O 34.8833 -1.49471 -1.56484 0
M  V30 371 C 35.4783 -3.10084 1.36503 0
M  V30 372 C 34.0373 -3.58723 1.13994 0
M  V30 373 C 33.1843 -2.35577 1.46283 0
M  V30 374 H 36.1353 -1.0418 1.19718 0
M  V30 375 H 36.1563 -3.72787 0.762217 0
M  V30 376 H 35.6683 -3.01609 2.44241 0
M  V30 377 H 33.7693 -3.72512 0.0807901 0
M  V30 378 H 33.8823 -4.42816 1.82894 0
M  V30 379 H 32.2463 -2.38935 0.88217 0
M  V30 380 H 33.0293 -2.29731 2.55105 0
M  V30 381 N 35.4744 -0.807222 -1.35358 0
M  V30 382 C 36.4064 -0.175717 -2.28525 0
M  V30 383 C 37.4194 0.625354 -1.5031 0
M  V30 384 O 38.6084 0.457611 -1.72535 0
M  V30 385 C 35.7084 0.773471 -3.29956 0
M  V30 386 C 34.8814 0.0186296 -4.37396 0
M  V30 387 C 33.9404 0.886395 -5.18681 0
M  V30 388 O 32.9664 0.337106 -5.68201 0
M  V30 389 N 34.1684 2.20839 -5.36852 0
M  V30 390 H 36.9334 -0.976091 -2.83359 0
M  V30 391 H 34.4944 -0.662737 -1.47714 0
M  V30 392 H 36.4864 1.35824 -3.81227 0
M  V30 393 H 35.0564 1.47465 -2.75632 0
M  V30 394 H 34.2764 -0.747349 -3.87051 0
M  V30 395 H 35.5644 -0.501577 -5.06322 0
M  V30 396 H 34.9624 2.67858 -4.98265 0
M  V30 397 H 33.5194 2.74237 -5.91301 0
M  V30 398 N 36.9525 1.47285 -0.560781 0
M  V30 399 C 37.8845 2.28118 0.222438 0
M  V30 400 C 38.8975 1.37219 0.876056 0
M  V30 401 O 40.0865 1.62011 0.749307 0
M  V30 402 C 37.1865 3.1159 1.33285 0
M  V30 403 C 36.3595 4.30473 0.77534 0
M  V30 404 C 35.4185 4.95513 1.77069 0
M  V30 405 O 34.4445 5.53792 1.31539 0
M  V30 406 N 35.6465 4.90531 3.10418 0
M  V30 407 H 38.4115 2.95976 -0.470958 0
M  V30 408 H 35.9725 1.56955 -0.39709 0
M  V30 409 H 37.9645 3.51967 1.99752 0
M  V30 410 H 36.5345 2.45951 1.92943 0
M  V30 411 H 35.7545 3.94144 -0.0662113 0
M  V30 412 H 37.0425 5.07362 0.382272 0
M  V30 413 H 36.4405 4.44389 3.5005 0
M  V30 414 H 34.9975 5.34917 3.72434 0
M  V30 415 N 38.4306 0.297415 1.54768 0
M  V30 416 C 39.6766 -0.306263 2.01081 0
M  V30 417 C 40.0316 -1.518 1.18214 0
M  V30 418 O 39.3246 -1.89967 0.249613 0
M  V30 419 C 39.5186 -0.717561 3.50123 0
M  V30 420 C 39.3476 0.45277 4.47415 0
M  V30 421 C 38.1176 0.943651 4.9641 0
M  V30 422 C 40.3156 1.29657 4.97688 0
M  V30 423 N 38.2976 2.08112 5.77549 0
M  V30 424 C 39.6686 2.28158 5.76493 0
M  V30 425 C 41.7236 1.32735 4.79881 0
M  V30 426 C 40.4266 3.29509 6.39387 0
M  V30 427 C 42.4526 2.32943 5.43591 0
M  V30 428 C 41.8146 3.30174 6.22225 0
M  V30 429 H 37.9136 -0.0766274 0.778237 0
M  V30 430 H 40.4976 0.426515 1.89971 0
M  V30 431 H 38.6686 -1.41952 3.6153 0
M  V30 432 H 40.4006 -1.30047 3.83236 0
M  V30 433 H 37.1556 0.51922 4.70745 0
M  V30 434 H 37.5796 2.65414 6.22803 0
M  V30 435 H 42.2216 0.589375 4.18672 0
M  V30 436 H 39.9396 4.04228 6.99732 0
M  V30 437 H 43.5256 2.36094 5.31743 0
M  V30 438 H 42.4056 4.06445 6.7065 0
M  V30 439 N 39.9087 -1.5758 0.0250728 0
M  V30 440 C 40.8717 -2.08896 -0.943139 0
M  V30 441 C 41.8717 -1.00321 -1.25668 0
M  V30 442 O 43.0617 -1.26495 -1.19769 0
M  V30 443 C 40.1937 -2.55143 -2.26086 0
M  V30 444 H 41.3867 -2.95723 -0.498775 0
M  V30 445 H 38.9397 -1.54703 -0.222888 0
M  V30 446 H 39.6747 -1.71633 -2.75159 0
M  V30 447 H 39.4597 -3.34461 -2.04641 0
M  V30 448 H 40.9497 -2.95083 -2.95492 0
M  V30 449 N 41.3868 0.248026 -1.55636 0
M  V30 450 C 42.3168 1.31079 -1.93237 0
M  V30 451 C 43.2978 1.50264 -0.797174 0
M  V30 452 O 44.4828 1.62891 -1.05737 0
M  V30 453 C 41.6128 2.66575 -2.22609 0
M  V30 454 C 40.5668 2.62087 -3.3837 0
M  V30 455 C 39.8928 4.01369 -3.53281 0
M  V30 456 C 41.1928 2.19171 -4.7409 0
M  V30 457 H 42.8868 0.998556 -2.82257 0
M  V30 458 H 40.4328 0.47891 -1.35803 0
M  V30 459 H 42.3858 3.41057 -2.47503 0
M  V30 460 H 41.1098 2.99432 -1.30414 0
M  V30 461 H 39.7688 1.90063 -3.13483 0
M  V30 462 H 39.4168 4.31489 -2.58508 0
M  V30 463 H 39.1168 3.99254 -4.31127 0
M  V30 464 H 40.6408 4.77552 -3.80495 0
M  V30 465 H 42.0548 2.83384 -4.98363 0
M  V30 466 H 40.4518 2.2817 -5.5503 0
M  V30 467 H 41.5218 1.14336 -4.71227 0
M  V30 468 N 42.8649 1.48995 0.513639 0
M  V30 469 C 44.0899 1.61792 1.29762 0
M  V30 470 C 44.5149 0.284475 1.85936 0
M  V30 471 O 43.8729 -0.746185 1.65232 0
M  V30 472 C 43.9209 2.67993 2.41272 0
M  V30 473 O 43.0249 2.26287 3.44772 0
M  V30 474 H 42.3659 0.541963 0.38363 0
M  V30 475 H 44.8959 1.95097 0.616307 0
M  V30 476 H 44.9059 2.89772 2.87221 0
M  V30 477 H 43.5809 3.64791 1.9975 0
M  V30 478 H 42.1579 2.14788 3.04829 0
M  V30 479 N 44.343 -0.763751 1.37857 0
M  V30 480 C 45.306 -1.85889 1.34081 0
M  V30 481 C 46.306 -1.58949 0.243277 0
M  V30 482 O 47.496 -1.66882 0.499589 0
M  V30 483 C 44.628 -3.23176 1.08489 0
M  V30 484 H 45.821 -1.90648 2.31502 0
M  V30 485 H 43.374 -0.964367 1.23003 0
M  V30 486 H 44.109 -3.24091 0.116318 0
M  V30 487 H 43.894 -3.44124 1.8794 0
M  V30 488 H 45.384 -4.03254 1.08517 0
M  V30 489 N 45.8211 -1.22559 -0.990812 0
M  V30 490 C 47.0691 -1.04933 -1.72724 0
M  V30 491 C 47.3901 0.416158 -1.90508 0
M  V30 492 O 46.6601 1.29918 -1.46622 0
M  V30 493 H 45.2401 -0.385296 -0.639965 0
M  V30 494 H 47.9021 -1.54105 -1.19322 0
M  V30 495 H 46.9981 -1.52886 -2.72089 0
M  V30 496 N 47.2992 1.18797 -1.03562 0
M  V30 497 C 48.2472 2.24297 -0.615905 0
M  V30 498 C 49.2412 1.65643 0.354808 0
M  V30 499 O 50.4472 1.78618 0.22265 0
M  V30 500 H 46.8222 0.729909 -0.180934 0
M  V30 501 H 48.7932 2.5701 -1.5162 0
M  V30 502 C 47.5422 3.47698 0.0104735 0
M  V30 503 H 46.8652 3.93125 -0.727509 0
M  V30 504 H 48.3052 4.23159 0.266995 0
M  V30 505 C 46.7642 3.12489 1.25905 0
M  V30 506 O 47.2942 3.25761 2.35038 0
M  V30 507 N 45.5002 2.6686 1.15039 0
M  V30 508 H 45.0472 2.56261 0.262328 0
M  V30 509 H 45.0052 2.43674 1.98672 0
M  V30 510 N 48.7773 0.814389 1.34928 0
M  V30 511 C 50.0253 0.397636 1.9815 0
M  V30 512 C 50.3463 -1.04069 1.64908 0
M  V30 513 O 49.6163 -1.72121 0.93548 0
M  V30 514 H 48.1963 0.144043 0.732981 0
M  V30 515 H 50.8583 1.04195 1.6471 0
M  V30 516 H 49.9543 0.509688 3.0791 0
M  V30 517 N 50.2554 -1.46986 0.568584 0
M  V30 518 C 51.4804 -2.07335 0.0520528 0
M  V30 519 C 51.9054 -1.41675 -1.23733 0
M  V30 520 O 51.2634 -0.495623 -1.74394 0
M  V30 521 C 51.3114 -3.60417 -0.11501 0
M  V30 522 O 50.4154 -3.95309 -1.17492 0
M  V30 523 H 49.7564 -0.661597 0.0564385 0
M  V30 524 H 52.2864 -1.88837 0.787507 0
M  V30 525 H 52.2964 -4.06698 -0.325644 0
M  V30 526 H 50.9714 -4.07601 0.826675 0
M  V30 527 H 49.5484 -3.60757 -0.943869 0
M  V30 528 N 51.7335 -0.305618 -1.54608 0
M  V30 529 C 52.9585 0.307562 -2.05107 0
M  V30 530 C 53.3835 1.46385 -1.18123 0
M  V30 531 O 52.7415 1.8034 -0.186324 0
M  V30 532 C 52.7895 0.73704 -3.52987 0
M  V30 533 O 51.8935 1.84134 -3.6901 0
M  V30 534 H 51.2345 0.0589143 -0.661381 0
M  V30 535 H 53.7645 -0.448807 -1.99617 0
M  V30 536 H 53.7745 1.02459 -3.94925 0
M  V30 537 H 52.4495 -0.108773 -4.15758 0
M  V30 538 H 51.0265 1.55398 -3.38978 0
M  V30 539 N 53.2116 1.57565 -0.0334293 0
M  V30 540 C 54.1216 2.13943 0.962572 0
M  V30 541 C 55.1376 1.09276 1.35406 0
M  V30 542 O 56.3136 1.41355 1.4346 0
M  V30 543 C 53.3786 2.65887 2.22497 0
M  V30 544 C 52.4396 3.85286 1.8935 0
M  V30 545 C 51.6726 4.34743 3.09571 0
M  V30 546 O 51.8956 3.83352 4.22371 0
M  V30 547 O 50.8296 5.26538 2.91618 0
M  V30 548 H 54.6556 2.99333 0.513169 0
M  V30 549 H 52.2406 1.4822 0.18743 0
M  V30 550 H 54.1226 2.99346 2.96598 0
M  V30 551 H 52.7976 1.83578 2.6661 0
M  V30 552 H 51.7046 3.56746 1.1262 0
M  V30 553 H 53.0376 4.68771 1.5005 0
M  V30 554 N 54.6897 -0.239769 1.55765 0
M  V30 555 C 55.9357 -0.968234 1.78194 0
M  V30 556 C 56.2687 -1.84701 0.599938 0
M  V30 557 O 55.5437 -1.9031 -0.401524 0
M  V30 558 C 55.8267 -1.8227 3.10564 0
M  V30 559 C 55.6797 -0.971633 4.3918 0
M  V30 560 C 56.9987 -2.80388 3.39221 0
M  V30 561 H 54.1177 -0.350572 0.648281 0
M  V30 562 H 56.7597 -0.238259 1.885 0
M  V30 563 H 54.9097 -2.44507 3.01908 0
M  V30 564 H 56.5817 -0.367408 4.59835 0
M  V30 565 H 54.8247 -0.276276 4.32919 0
M  V30 566 H 55.4957 -1.60346 5.28198 0
M  V30 567 H 57.9717 -2.28287 3.47885 0
M  V30 568 H 56.8477 -3.3729 4.33044 0
M  V30 569 H 57.1087 -3.57212 2.60484 0
M  V30 570 N 56.1678 -1.49265 -0.50573 0
M  V30 571 C 57.0778 -1.68312 -1.63427 0
M  V30 572 C 58.0938 -0.565682 -1.64548 0
M  V30 573 O 59.2698 -0.839801 -1.83055 0
M  V30 574 C 56.3348 -1.74107 -2.99813 0
M  V30 575 C 55.3958 -2.97653 -3.09356 0
M  V30 576 C 54.6288 -3.03163 -4.39236 0
M  V30 577 O 54.8518 -2.16396 -5.27758 0
M  V30 578 O 53.7858 -3.9558 -4.53652 0
M  V30 579 H 57.6118 -2.63907 -1.50289 0
M  V30 580 H 55.1968 -1.32951 -0.681502 0
M  V30 581 H 57.0788 -1.803 -3.80881 0
M  V30 582 H 55.7538 -0.816901 -3.13223 0
M  V30 583 H 54.6608 -2.96981 -2.27493 0
M  V30 584 H 55.9938 -3.89535 -3.00871 0
M  V30 585 N 57.6459 0.756429 -1.3826 0
M  V30 586 C 58.8919 1.51772 -1.34511 0
M  V30 587 C 59.2249 1.94089 0.0656691 0
M  V30 588 O 58.4999 1.65221 1.02626 0
M  V30 589 C 58.7829 2.77226 -2.29821 0
M  V30 590 C 58.6359 2.41065 -3.79747 0
M  V30 591 C 59.9549 3.79236 -2.23312 0
M  V30 592 H 57.0739 0.550578 -0.489931 0
M  V30 593 H 59.7159 0.866607 -1.69086 0
M  V30 594 H 57.8659 3.32784 -2.00467 0
M  V30 595 H 59.5379 1.91303 -4.19763 0
M  V30 596 H 57.7809 1.7356 -3.97567 0
M  V30 597 H 58.4519 3.3081 -4.41892 0
M  V30 598 H 60.9279 3.3321 -2.49219 0
M  V30 599 H 59.8039 4.64714 -2.92116 0
M  V30 600 H 60.0649 4.24615 -1.23102 0
M  V30 601 N 59.124 1.23083 0.984299 0
M  V30 602 C 60.37 1.06214 1.72761 0
M  V30 603 C 60.703 -0.400584 1.90024 0
M  V30 604 O 59.978 -1.29672 1.44967 0
M  V30 605 C 60.261 1.78375 3.12817 0
M  V30 606 C 60.114 3.32296 3.03149 0
M  V30 607 C 61.433 1.54309 4.12161 0
M  V30 608 H 58.552 0.387251 0.627061 0
M  V30 609 H 61.194 1.51536 1.14616 0
M  V30 610 H 59.344 1.39848 3.62457 0
M  V30 611 H 61.016 3.8032 2.61064 0
M  V30 612 H 59.259 3.6153 2.39747 0
M  V30 613 H 59.93 3.77972 4.02295 0
M  V30 614 H 62.406 1.87791 3.71314 0
M  V30 615 H 61.282 2.07281 5.08258 0
M  V30 616 H 61.543 0.477572 4.39513 0
M  V30 617 N 60.6021 -1.18246 1.0419 0
M  V30 618 C 62.0131 -1.69914 0.773698 0
M  V30 619 C 62.3641 -1.83085 -0.705297 0
M  V30 620 O 61.4891 -1.51123 -1.5489 0
M  V30 621 C 62.0841 -3.08619 1.39784 0
M  V30 622 C 60.6431 -3.57494 1.17792 0
M  V30 623 C 59.7901 -2.34013 1.48773 0
M  V30 624 H 62.7411 -1.02904 1.20816 0
M  V30 625 H 62.7621 -3.71958 0.801714 0
M  V30 626 H 62.2741 -2.99001 2.47426 0
M  V30 627 H 60.3751 -3.72406 0.120295 0
M  V30 628 H 60.4881 -4.40852 1.87581 0
M  V30 629 H 58.8521 -2.37986 0.907463 0
M  V30 630 H 59.6351 -2.27013 2.57527 0
M  V30 631 N 62.0802 -0.821533 -1.34494 0
M  V30 632 C 63.3272 -0.408946 -1.98328 0
M  V30 633 C 63.6552 1.02764 -1.65136 0
M  V30 634 O 62.9102 1.73026 -0.914349 0
M  V30 635 C 63.2092 -0.556512 -3.53041 0
M  V30 636 C 62.8752 -1.95861 -4.0614 0
M  V30 637 C 61.5372 -2.34217 -4.20352 0
M  V30 638 C 63.8892 -2.87523 -4.34718 0
M  V30 639 C 61.2172 -3.63572 -4.6047 0
M  V30 640 C 63.5692 -4.1634 -4.76281 0
M  V30 641 C 62.2332 -4.54675 -4.88699 0
M  V30 642 H 61.5032 -0.149644 -0.725732 0
M  V30 643 H 64.1502 -1.04521 -1.6046 0
M  V30 644 H 62.4552 0.163148 -3.9146 0
M  V30 645 H 64.1522 -0.217826 -4.00408 0
M  V30 646 H 60.7422 -1.65066 -3.95539 0
M  V30 647 H 64.9262 -2.59133 -4.23277 0
M  V30 648 H 60.1822 -3.93101 -4.68275 0
M  V30 649 H 64.3562 -4.87455 -4.97354 0
M  V30 650 H 61.9832 -5.54959 -5.19542 0
M  V30 651 N 63.5583 1.46682 -0.576371 0
M  V30 652 C 64.4903 2.28341 0.198231 0
M  V30 653 C 65.5033 1.38141 0.861453 0
M  V30 654 O 66.6923 1.62797 0.732082 0
M  V30 655 C 63.7923 3.12986 1.29972 0
M  V30 656 C 62.9653 4.31271 0.729639 0
M  V30 657 C 62.0243 4.97363 1.71803 0
M  V30 658 O 61.0503 5.55156 1.25658 0
M  V30 659 N 62.2523 4.93796 3.05198 0
M  V30 660 H 65.0173 2.9546 -0.502324 0
M  V30 661 H 62.5783 1.56525 -0.413715 0
M  V30 662 H 64.5703 3.54066 1.96008 0
M  V30 663 H 63.1403 2.47984 1.90323 0
M  V30 664 H 62.3603 3.94052 -0.108012 0
M  V30 665 H 63.6483 5.07739 0.328438 0
M  V30 666 H 63.0463 4.48077 3.45317 0
M  V30 667 H 61.6033 5.38837 3.6674 0
M  V30 668 N 65.0364 0.313813 1.54444 0
M  V30 669 C 65.9464 -0.565714 2.27677 0
M  V30 670 C 66.9624 -1.13754 1.31666 0
M  V30 671 O 68.1384 -1.15959 1.64668 0
M  V30 672 C 65.2034 -1.71528 3.01296 0
M  V30 673 C 64.2644 -1.17624 4.12872 0
M  V30 674 C 63.4974 -2.27102 4.8297 0
M  V30 675 O 63.7204 -3.47256 4.52514 0
M  V30 676 O 62.6544 -1.9307 5.70094 0
M  V30 677 H 66.4804 0.0287296 3.03686 0
M  V30 678 H 64.0654 0.0798312 1.49187 0
M  V30 679 H 65.9474 -2.38476 3.4743 0
M  V30 680 H 64.6224 -2.29608 2.2817 0
M  V30 681 H 63.5294 -0.472124 3.71109 0
M  V30 682 H 64.8624 -0.640695 4.88012 0
M  V30 683 N 66.5145 -1.57545 0.0417849 0
M  V30 684 C 67.7605 -1.92601 -0.635021 0
M  V30 685 C 68.0935 -0.919627 -1.71045 0
M  V30 686 O 67.3685 0.0557892 -1.9442 0
M  V30 687 C 67.6515 -3.38085 -1.23979 0
M  V30 688 C 67.5045 -4.49467 -0.173057 0
M  V30 689 C 68.8235 -3.83776 -2.15416 0
M  V30 690 H 65.9425 -0.700397 -0.229374 0
M  V30 691 H 68.5845 -1.89728 0.101633 0
M  V30 692 H 66.7345 -3.40664 -1.86762 0
M  V30 693 H 68.4065 -4.59018 0.458312 0
M  V30 694 H 66.6495 -4.30909 0.499996 0
M  V30 695 H 67.3205 -5.48323 -0.636054 0
M  V30 696 H 69.7965 -3.83013 -1.62605 0
M  V30 697 H 68.6725 -4.8624 -2.54679 0
M  V30 698 H 68.9335 -3.19998 -3.05047 0
M  V30 699 N 67.9926 0.231505 -1.5589 0
M  V30 700 C 69.2386 0.954429 -1.79617 0
M  V30 701 C 69.5936 1.82367 -0.613199 0
M  V30 702 O 68.8866 1.87524 0.393094 0
M  V30 703 C 69.0806 1.83577 -3.0665 0
M  V30 704 C 68.9096 1.05334 -4.3719 0
M  V30 705 C 67.6796 0.75225 -4.99669 0
M  V30 706 C 69.8776 0.423444 -5.12554 0
M  V30 707 N 67.8596 -0.052627 -6.13877 0
M  V30 708 C 69.2306 -0.245287 -6.19515 0
M  V30 709 C 71.2856 0.335466 -4.96769 0
M  V30 710 C 69.9886 -0.993566 -7.12405 0
M  V30 711 C 72.0146 -0.399321 -5.9005 0
M  V30 712 C 71.3766 -1.05663 -6.9643 0
M  V30 713 H 67.4756 0.329846 -0.709031 0
M  V30 714 H 70.0596 0.226172 -1.93382 0
M  V30 715 H 68.2306 2.53592 -2.94186 0
M  V30 716 H 69.9626 2.49541 -3.18608 0
M  V30 717 H 66.7176 1.06783 -4.61405 0
M  V30 718 H 67.1416 -0.443609 -6.75545 0
M  V30 719 H 71.7836 0.829311 -4.14587 0
M  V30 720 H 69.5016 -1.49896 -7.94076 0
M  V30 721 H 73.0876 -0.468265 -5.79913 0
M  V30 722 H 71.9676 -1.61612 -7.67366 0
M  V30 723 N 69.4707 1.49531 0.497807 0
M  V30 724 C 70.7187 1.58865 1.24926 0
M  V30 725 C 71.0397 0.278721 1.92998 0
M  V30 726 O 70.3097 -0.702144 1.82885 0
M  V30 727 H 68.8897 0.585343 0.464094 0
M  V30 728 H 71.5517 1.86174 0.57666 0
M  V30 729 H 70.6477 2.38633 2.01149 0
M  V30 730 N 70.9488 -0.749086 1.3866 0
M  V30 731 C 72.3648 -1.05276 1.19955 0
M  V30 732 C 72.5648 -2.01435 0.05134 0
M  V30 733 O 71.6208 -2.45232 -0.60147 0
M  V30 734 C 72.9338 -1.62853 2.52783 0
M  V30 735 C 74.4818 -1.75002 2.59506 0
M  V30 736 C 74.9568 -2.35991 3.92521 0
M  V30 737 N 76.4478 -2.43416 3.94085 0
M  V30 738 C 77.1828 -2.91511 4.9377 0
M  V30 739 N 76.6788 -3.39608 6.03853 0
M  V30 740 N 78.4718 -2.90592 4.81157 0
M  V30 741 H 70.6228 -0.111066 2.12109 0
M  V30 742 H 72.8858 -0.111901 0.941373 0
M  V30 743 H 72.5918 -0.99664 3.37283 0
M  V30 744 H 72.4658 -2.61854 2.715 0
M  V30 745 H 74.8528 -2.37317 1.75398 0
M  V30 746 H 74.9338 -0.74693 2.44652 0
M  V30 747 H 74.5778 -1.74308 4.77053 0
M  V30 748 H 74.5078 -3.3695 4.04688 0
M  V30 749 H 76.9988 -2.09405 3.14576 0
M  V30 750 H 77.3118 -3.74775 6.75843 0
M  V30 751 H 75.6568 -3.37653 6.07466 0
M  V30 752 H 78.8478 -2.52332 3.94267 0
M  V30 753 H 79.0208 -3.27762 5.58996 0
M  V30 754 N 72.4269 -1.23603 -0.977757 0
M  V30 755 C 73.6519 -1.09735 -1.75991 0
M  V30 756 C 74.0769 0.346858 -1.84874 0
M  V30 757 O 73.4349 1.25093 -1.3123 0
M  V30 758 C 73.4829 -1.73051 -3.16363 0
M  V30 759 O 72.5869 -0.994452 -4.0023 0
M  V30 760 H 71.9279 -0.384476 -0.541364 0
M  V30 761 H 74.4579 -1.6371 -1.2272 0
M  V30 762 H 74.4679 -1.78398 -3.66931 0
M  V30 763 H 73.1429 -2.78137 -3.09213 0
M  V30 764 H 71.7199 -1.01812 -3.58732 0
M  V30 765 N 73.905 1.17692 -1.04816 0
M  V30 766 C 75.135 1.91508 -0.775128 0
M  V30 767 C 75.543 1.76844 0.67253 0
M  V30 768 O 74.886 1.10057 1.47082 0
M  V30 769 C 74.948 3.43167 -1.0713 0
M  V30 770 C 74.612 3.81612 -2.51438 0
M  V30 771 C 75.609 3.84772 -3.49638 0
M  V30 772 C 73.294 4.12687 -2.86348 0
M  V30 773 C 75.288 4.18469 -4.80794 0
M  V30 774 C 72.975 4.46053 -4.17708 0
M  V30 775 C 73.973 4.48921 -5.14741 0
M  V30 776 O 73.661 4.81504 -6.43746 0
M  V30 777 H 73.393 0.614575 -0.281555 0
M  V30 778 H 75.947 1.50206 -1.40098 0
M  V30 779 H 74.177 3.84745 -0.388342 0
M  V30 780 H 75.866 3.98239 -0.784883 0
M  V30 781 H 76.632 3.60893 -3.24008 0
M  V30 782 H 72.511 4.09627 -2.11486 0
M  V30 783 H 76.055 4.20623 -5.56527 0
M  V30 784 H 71.952 4.69393 -4.43103 0
M  V30 785 H 72.72 4.99377 -6.4851 0
M  V30 786 N 75.3831 0.828654 1.34056 0
M  V30 787 C 76.6231 0.425394 1.99924 0
M  V30 788 C 76.9871 -0.994294 1.64249 0
M  V30 789 O 78.1881 -1.50074 2.23005 0
M  V30 790 C 76.4591 0.628071 3.51838 0
M  V30 791 S 78.0181 0.318511 4.37642 0
M  V30 792 H 74.8361 0.160465 0.692656 0
M  V30 793 H 77.4381 1.07572 1.63244 0
M  V30 794 H 76.1421 1.66089 3.7529 0
M  V30 795 H 75.6731 -0.0367799 3.93383 0
M  V30 796 H 77.6881 -0.865632 4.88591 0
M  V30 797 N 76.8612 -1.46375 0.584142 0
M  V30 798 C 78.2772 -1.57694 0.245929 0
M  V30 799 C 78.4772 -1.57903 -1.25175 0
M  V30 800 O 77.5332 -1.49676 -2.03355 0
M  V30 801 C 78.8462 -2.87028 0.896402 0
M  V30 802 C 80.3942 -3.00662 0.870127 0
M  V30 803 C 80.8692 -4.32734 1.50017 0
M  V30 804 N 82.3602 -4.39436 1.46458 0
M  V30 805 C 83.0952 -5.40248 1.92144 0
M  V30 806 N 82.5912 -6.47726 2.4581 0
M  V30 807 N 84.3842 -5.31459 1.83052 0
M  V30 808 H 76.5352 -1.44483 1.55687 0
M  V30 809 H 78.7982 -0.689291 0.650831 0
M  V30 810 H 78.5042 -2.9269 1.95002 0
M  V30 811 H 78.3782 -3.75014 0.405486 0
M  V30 812 H 80.7652 -2.94581 -0.174871 0
M  V30 813 H 80.8462 -2.14148 1.39908 0
M  V30 814 H 80.4902 -4.39573 2.54437 0
M  V30 815 H 80.4202 -5.18025 0.946432 0
M  V30 816 H 82.9112 -3.62367 1.07231 0
M  V30 817 H 83.2242 -7.20863 2.78525 0
M  V30 818 H 81.5692 -6.48542 2.49836 0
M  V30 819 H 84.7602 -4.46396 1.40883 0
M  V30 820 H 84.9332 -6.09881 2.18973 0
M  V30 821 N 78.3393 -0.321999 -1.54275 0
M  V30 822 C 79.3023 0.531975 -2.22941 0
M  V30 823 C 80.3023 1.04478 -1.22234 0
M  V30 824 O 81.4923 0.937452 -1.46825 0
M  V30 825 C 78.6243 1.73874 -2.93224 0
M  V30 826 H 79.8173 -0.0682612 -2.99822 0
M  V30 827 H 77.3703 -0.0730644 -1.56129 0
M  V30 828 H 78.1053 2.37825 -2.20476 0
M  V30 829 H 77.8903 1.37847 -3.6707 0
M  V30 830 H 79.3803 2.34496 -3.45545 0
M  V30 831 N 79.8174 1.5752 -0.0501392 0
M  V30 832 C 80.7474 2.14502 0.922566 0
M  V30 833 C 81.7284 1.06642 1.3252 0
M  V30 834 O 82.9134 1.34577 1.4001 0
M  V30 835 C 80.0434 2.68916 2.19776 0
M  V30 836 C 78.9974 3.8175 1.93523 0
M  V30 837 C 78.3234 4.22677 3.27487 0
M  V30 838 C 79.6234 5.06932 1.25765 0
M  V30 839 H 81.3174 2.9603 0.447952 0
M  V30 840 H 78.8634 1.42401 0.214024 0
M  V30 841 H 80.8164 3.07419 2.88222 0
M  V30 842 H 79.5404 1.84578 2.69441 0
M  V30 843 H 78.1994 3.43718 1.27489 0
M  V30 844 H 77.8474 3.35291 3.74952 0
M  V30 845 H 77.5474 4.98725 3.1072 0
M  V30 846 H 79.0714 4.63779 3.97166 0
M  V30 847 H 80.4854 5.42888 1.84244 0
M  V30 848 H 78.8824 5.88116 1.19328 0
M  V30 849 H 79.9524 4.84337 0.233536 0
M  V30 850 N 81.2955 -0.223234 1.56011 0
M  V30 851 C 82.2055 -1.29766 1.95443 0
M  V30 852 C 83.2215 -1.51373 0.858028 0
M  V30 853 O 84.3975 -1.64536 1.16146 0
M  V30 854 C 81.4625 -2.62772 2.26167 0
M  V30 855 C 80.5235 -2.49482 3.49367 0
M  V30 856 C 79.7565 -3.76145 3.78616 0
M  V30 857 O 79.9795 -4.79087 3.09568 0
M  V30 858 O 78.9135 -3.73358 4.72109 0
M  V30 859 H 82.7395 -0.99309 2.87004 0
M  V30 860 H 80.3245 -0.425958 1.43199 0
M  V30 861 H 82.2065 -3.41327 2.47131 0
M  V30 862 H 80.8815 -2.92913 1.37781 0
M  V30 863 H 79.7885 -1.69133 3.33684 0
M  V30 864 H 81.1215 -2.2428 4.38131 0
M  V30 865 N 82.7736 -1.49793 -0.48987 0
M  V30 866 C 84.1896 -1.36803 -0.822022 0
M  V30 867 C 84.3896 -0.409652 -1.97292 0
M  V30 868 O 83.4456 0.154614 -2.52026 0
M  V30 869 C 84.7586 -2.77768 -1.15175 0
M  V30 870 C 86.3066 -2.86549 -1.25931 0
M  V30 871 C 86.7816 -4.28306 -1.62228 0
M  V30 872 N 88.2726 -4.31169 -1.69256 0
M  V30 873 C 89.0076 -5.37832 -1.98807 0
M  V30 874 N 88.5036 -6.54726 -2.26507 0
M  V30 875 N 90.2966 -5.25258 -2.00152 0
M  V30 876 H 82.4476 -2.10691 0.268881 0
M  V30 877 H 84.7106 -0.946241 0.057728 0
M  V30 878 H 84.4166 -3.49648 -0.379335 0
M  V30 879 H 84.2906 -3.13836 -2.09253 0
M  V30 880 H 86.6776 -2.14899 -2.02243 0
M  V30 881 H 86.7586 -2.54049 -0.298776 0
M  V30 882 H 86.4026 -5.00486 -0.864622 0
M  V30 883 H 86.3326 -4.58279 -2.594 0
M  V30 884 H 88.8236 -3.4687 -1.49965 0
M  V30 885 H 89.1366 -7.31833 -2.48276 0
M  V30 886 H 87.4816 -6.57933 -2.23939 0
M  V30 887 H 90.6726 -4.32938 -1.77996 0
M  V30 888 H 90.8456 -6.08476 -2.22848 0
M  V30 889 N 84.2517 0.741722 -1.39055 0
M  V30 890 C 85.1817 1.869 -1.39966 0
M  V30 891 C 86.1627 1.6804 -0.26392 0
M  V30 892 O 87.3477 1.88458 -0.468755 0
M  V30 893 C 84.4777 3.24572 -1.23574 0
M  V30 894 C 83.4317 3.58056 -2.34477 0
M  V30 895 C 82.7577 4.94593 -2.0318 0
M  V30 896 C 84.0577 3.61716 -3.76774 0
M  V30 897 H 85.7517 1.86395 -2.34302 0
M  V30 898 H 83.2977 0.895361 -1.1278 0
M  V30 899 H 85.2507 4.031 -1.22834 0
M  V30 900 H 83.9747 3.25587 -0.257045 0
M  V30 901 H 82.6337 2.81854 -2.34423 0
M  V30 902 H 82.2817 4.92181 -1.03765 0
M  V30 903 H 81.9817 5.17964 -2.77465 0
M  V30 904 H 83.5057 5.75486 -2.04079 0
M  V30 905 H 84.9197 4.30335 -3.78794 0
M  V30 906 H 83.3167 3.96603 -4.50362 0
M  V30 907 H 84.3867 2.61672 -4.08235 0
M  V30 908 N 85.7298 1.2412 0.971189 0
M  V30 909 C 86.9758 1.08041 1.71625 0
M  V30 910 C 87.3088 -0.380407 1.90438 0
M  V30 911 O 86.5838 -1.28127 1.46334 0
M  V30 912 C 86.8668 1.81682 3.10908 0
M  V30 913 C 86.7198 3.35493 2.99608 0
M  V30 914 C 88.0388 1.58671 4.10501 0
M  V30 915 H 85.1578 0.39388 0.622919 0
M  V30 916 H 87.7998 1.52743 1.13003 0
M  V30 917 H 85.9498 1.43684 3.60953 0
M  V30 918 H 87.6218 3.83068 2.57015 0
M  V30 919 H 85.8648 3.64052 2.35899 0
M  V30 920 H 86.5358 3.82217 3.98264 0
M  V30 921 H 89.0118 1.91719 3.69301 0
M  V30 922 H 87.8878 2.1266 5.06031 0
M  V30 923 H 88.1488 0.524161 4.38982 0
M  V30 924 N 87.2079 -1.17134 1.05439 0
M  V30 925 C 88.4849 -1.83411 0.679699 0
M  V30 926 C 88.8649 -1.9368 -0.839726 0
M  V30 927 O 88.2129 -1.47325 -1.74664 0
M  V30 928 C 88.4229 -3.20918 1.37159 0
M  V30 929 C 89.7709 -3.96796 1.51123 0
M  V30 930 O 90.7949 -3.30406 1.3308 0
M  V30 931 O 89.6539 -5.15778 1.80651 0
M  V30 932 H 86.7479 -0.79154 0.239569 0
M  V30 933 H 89.2939 -1.24411 1.15413 0
M  V30 934 H 88.0659 -3.08428 2.40807 0
M  V30 935 H 87.6889 -3.87587 0.886674 0
M  V30 936 N 88.686 -0.835752 -1.33615 0
M  V30 937 C 89.932 -0.430596 -1.98176 0
M  V30 938 C 90.265 1.00684 -1.66061 0
M  V30 939 O 89.54 1.70339 -0.938877 0
M  V30 940 C 89.823 -0.648065 -3.5422 0
M  V30 941 C 89.676 -2.13255 -3.96033 0
M  V30 942 C 90.995 -0.0922113 -4.40003 0
M  V30 943 H 88.114 -0.157924 -0.719881 0
M  V30 944 H 90.756 -1.05069 -1.58305 0
M  V30 945 H 88.906 -0.120237 -3.88314 0
M  V30 946 H 90.578 -2.725 -3.72211 0
M  V30 947 H 88.821 -2.61823 -3.45878 0
M  V30 948 H 89.492 -2.23547 -5.04708 0
M  V30 949 H 91.968 -0.543343 -4.12537 0
M  V30 950 H 90.844 -0.274083 -5.48215 0
M  V30 951 H 91.105 1.00378 -4.30554 0
M  V30 952 N 90.1641 1.46063 -0.591896 0
M  V30 953 C 91.4101 2.02638 -0.0811191 0
M  V30 954 C 91.7431 1.4613 1.27905 0
M  V30 955 O 91.0181 0.629908 1.84017 0
M  V30 956 C 91.3011 3.60091 -0.0252436 0
M  V30 957 C 91.1541 4.26965 -1.41496 0
M  V30 958 C 92.4731 4.3496 0.670685 0
M  V30 959 H 89.5921 0.73635 -0.0309524 0
M  V30 960 H 92.2341 1.741 -0.760859 0
M  V30 961 H 90.3841 3.84535 0.553624 0
M  V30 962 H 92.0561 4.13756 -2.0397 0
M  V30 963 H 90.2991 3.85971 -1.98011 0
M  V30 964 H 90.9701 5.35781 -1.32825 0
M  V30 965 H 93.4461 4.15716 0.178825 0
M  V30 966 H 92.3221 5.44686 0.678837 0
M  V30 967 H 92.5831 4.06685 1.73379 0
M  V30 968 N 91.6422 0.330177 1.54103 0
M  V30 969 C 92.8672 -0.274893 2.0557 0
M  V30 970 C 93.2922 -1.44487 1.20437 0
M  V30 971 O 92.6502 -1.80021 0.214991 0
M  V30 972 C 92.6982 -0.68079 3.54115 0
M  V30 973 O 91.8022 -1.7824 3.71893 0
M  V30 974 H 91.1432 -0.0483849 0.662235 0
M  V30 975 H 93.6732 0.480508 1.98878 0
M  V30 976 H 93.6832 -0.961635 3.96505 0
M  V30 977 H 92.3582 0.174903 4.15532 0
M  V30 978 H 90.9352 -1.49985 3.41407 0
M  V30 979 N 93.1203 -1.57491 0.0584922 0
M  V30 980 C 94.0303 -2.15448 -0.928414 0
M  V30 981 C 95.0463 -1.11416 -1.3365 0
M  V30 982 O 96.2223 -1.4362 -1.41193 0
M  V30 983 C 93.2873 -2.69393 -2.18239 0
M  V30 984 C 92.3483 -3.88249 -1.83196 0
M  V30 985 C 91.5813 -4.39613 -3.02616 0
M  V30 986 O 91.8043 -3.90023 -4.16219 0
M  V30 987 O 90.7383 -5.31111 -2.83204 0
M  V30 988 H 94.5643 -3.00112 -0.465483 0
M  V30 989 H 92.1493 -1.48499 -0.163826 0
M  V30 990 H 94.0313 -3.04026 -2.91798 0
M  V30 991 H 92.7063 -1.87796 -2.63656 0
M  V30 992 H 91.6133 -3.58492 -1.06931 0
M  V30 993 H 92.9463 -4.71098 -1.42573 0
M  V30 994 N 94.5984 0.214957 -1.56127 0
M  V30 995 C 95.8284 0.953707 -1.8327 0
M  V30 996 C 96.2364 1.78181 -0.636262 0
M  V30 997 O 95.5794 1.79191 0.404516 0
M  V30 998 C 95.6414 1.91516 -3.0424 0
M  V30 999 C 95.3054 1.27094 -4.38972 0
M  V30 1000 C 96.3024 0.657575 -5.15725 0
M  V30 1001 C 93.9874 1.28073 -4.85698 0
M  V30 1002 C 95.9814 0.0625968 -6.37369 0
M  V30 1003 C 93.6684 0.681914 -6.07283 0
M  V30 1004 C 94.6664 0.0739046 -6.8296 0
M  V30 1005 O 94.3544 -0.515582 -8.02245 0
M  V30 1006 H 94.0864 0.284764 -0.613095 0
M  V30 1007 H 96.6404 0.233283 -2.04071 0
M  V30 1008 H 94.8704 2.67475 -2.79274 0
M  V30 1009 H 96.5594 2.52001 -3.18198 0
M  V30 1010 H 97.3254 0.642288 -4.80728 0
M  V30 1011 H 93.2044 1.74337 -4.26764 0
M  V30 1012 H 96.7484 -0.412593 -6.96379 0
M  V30 1013 H 92.6454 0.694636 -6.41752 0
M  V30 1014 H 93.4134 -0.410544 -8.1747 0
M  V30 1015 N 96.0765 1.50051 0.48192 0
M  V30 1016 C 97.4875 1.5348 1.06305 0
M  V30 1017 C 97.8385 0.331997 1.93371 0
M  V30 1018 O 96.9635 -0.556256 2.09129 0
M  V30 1019 C 97.5585 2.7813 1.93466 0
M  V30 1020 C 96.1175 2.84275 2.46707 0
M  V30 1021 C 95.2645 2.47637 1.24785 0
M  V30 1022 H 98.2155 1.56472 0.264995 0
M  V30 1023 H 98.2365 2.59372 2.78399 0
M  V30 1024 H 97.7485 3.65654 1.30072 0
M  V30 1025 H 95.8495 2.01077 3.13686 0
M  V30 1026 H 95.9625 3.8691 2.82555 0
M  V30 1027 H 94.3265 1.99835 1.57918 0
M  V30 1028 H 95.1095 3.37457 0.630694 0
M  V30 1029 N 97.5546 -0.734337 1.39446 0
M  V30 1030 C 98.7796 -1.52866 1.40167 0
M  V30 1031 C 99.2046 -1.881 -0.00171513 0
M  V30 1032 O 98.5626 -1.51957 -0.988879 0
M  V30 1033 C 98.6106 -2.79235 2.28167 0
M  V30 1034 O 97.7146 -3.75185 1.71201 0
M  V30 1035 H 97.0556 -0.461618 0.477289 0
M  V30 1036 H 99.5856 -0.905949 1.8345 0
M  V30 1037 H 99.5956 -3.27963 2.42702 0
M  V30 1038 H 98.2706 -2.52923 3.30156 0
M  V30 1039 H 96.8476 -3.33958 1.65912 0
M  V30 1040 N 99.0327 -1.24633 -0.964593 0
M  V30 1041 C 99.9427 -1.05859 -2.09359 0
M  V30 1042 C 100.959 0.00148855 -1.74 0
M  V30 1043 O 102.135 -0.197346 -2.00431 0
M  V30 1044 C 99.1997 -0.668879 -3.40187 0
M  V30 1045 C 98.2607 -1.80578 -3.89474 0
M  V30 1046 C 97.4937 -1.43457 -5.14058 0
M  V30 1047 O 97.7167 -0.325775 -5.69469 0
M  V30 1048 O 96.6507 -2.2613 -5.57807 0
M  V30 1049 H 100.477 -2.00516 -2.28094 0
M  V30 1050 H 98.0617 -1.03481 -1.0776 0
M  V30 1051 H 99.9437 -0.463211 -4.18846 0
M  V30 1052 H 98.6187 0.248536 -3.22744 0
M  V30 1053 H 97.5257 -2.06623 -3.11862 0
M  V30 1054 H 98.8587 -2.70208 -4.11398 0
M  V30 1055 N 100.511 1.16574 -1.06058 0
M  V30 1056 C 101.757 1.87324 -0.777022 0
M  V30 1057 C 102.09 1.81351 0.694645 0
M  V30 1058 O 101.365 1.22753 1.50871 0
M  V30 1059 C 101.648 3.36991 -1.26922 0
M  V30 1060 C 101.501 3.51667 -2.80447 0
M  V30 1061 C 102.82 4.3131 -0.87521 0
M  V30 1062 H 99.9388 0.680191 -0.28374 0
M  V30 1063 H 102.581 1.37036 -1.3161 0
M  V30 1064 H 100.731 3.79949 -0.81063 0
M  V30 1065 H 102.403 3.17664 -3.34495 0
M  V30 1066 H 100.646 2.93656 -3.19294 0
M  V30 1067 H 101.317 4.56766 -3.0995 0
M  V30 1068 H 103.793 3.9624 -1.27014 0
M  V30 1069 H 102.669 5.34545 -1.2471 0
M  V30 1070 H 102.93 4.41552 0.220071 0
M  V30 1071 N 101.989 0.842826 1.3317 0
M  V30 1072 C 102.899 0.281444 2.32906 0
M  V30 1073 C 103.915 -0.594587 1.63526 0
M  V30 1074 O 105.091 -0.49777 1.95152 0
M  V30 1075 C 102.156 -0.530929 3.42611 0
M  V30 1076 C 101.217 0.369843 4.27704 0
M  V30 1077 C 100.45 -0.403853 5.3217 0
M  V30 1078 O 100.673 -1.63513 5.46461 0
M  V30 1079 O 99.6069 0.224199 6.01482 0
M  V30 1080 H 103.433 1.10744 2.82789 0
M  V30 1081 H 101.018 0.60545 1.36582 0
M  V30 1082 H 102.9 -0.992437 4.09547 0
M  V30 1083 H 101.575 -1.33392 2.94938 0
M  V30 1084 H 100.482 0.879275 3.6362 0
M  V30 1085 H 101.815 1.13771 4.78871 0
M  V30 1086 N 103.467 -1.45747 0.599634 0
M  V30 1087 C 104.417 -2.27538 -0.145107 0
M  V30 1088 C 105.401 -1.3686 -0.846055 0
M  V30 1089 O 106.593 -1.6091 -0.737357 0
M  V30 1090 C 103.722 -3.23569 -1.14708 0
M  V30 1091 C 102.808 -4.21734 -0.447383 0
M  V30 1092 N 103.199 -5.03257 0.506535 0
M  V30 1093 C 101.497 -4.40536 -0.695966 0
M  V30 1094 C 102.198 -5.74426 0.917068 0
M  V30 1095 N 101.174 -5.42966 0.26253 0
M  V30 1096 H 104.976 -2.87965 0.587672 0
M  V30 1097 H 102.49 -1.56803 0.422697 0
M  V30 1098 H 104.487 -3.8089 -1.69495 0
M  V30 1099 H 103.147 -2.64702 -1.8805 0
M  V30 1100 H 104.158 -5.10319 0.882899 0
M  V30 1101 H 100.835 -3.92802 -1.41467 0
M  V30 1102 H 102.225 -6.4995 1.70338 0
M  V30 1103 N 104.945 -0.338344 -1.53925 0
M  V30 1104 C 105.878 0.563758 -2.21127 0
M  V30 1105 C 106.856 1.10433 -1.19345 0
M  V30 1106 O 108.04 1.16557 -1.48144 0
M  V30 1107 C 105.167 1.77505 -2.88461 0
M  V30 1108 C 104.213 1.3644 -4.04087 0
M  V30 1109 S 105.046 0.388593 -5.34088 0
M  V30 1110 C 106.202 1.60683 -6.04923 0
M  V30 1111 H 106.435 -0.00704546 -2.97299 0
M  V30 1112 H 103.968 -0.122418 -1.53914 0
M  V30 1113 H 105.926 2.46999 -3.27875 0
M  V30 1114 H 104.587 2.31706 -2.12064 0
M  V30 1115 H 103.78 2.26739 -4.50117 0
M  V30 1116 H 103.382 0.748998 -3.66423 0
M  V30 1117 H 105.674 2.54209 -6.28 0
M  V30 1118 H 106.617 1.18842 -6.98056 0
M  V30 1119 H 107.025 1.80052 -5.35015 0
M  V30 1120 N 106.423 1.57458 -0.0668435 0
M  V30 1121 C 107.67 1.93301 0.603406 0
M  V30 1122 C 107.998 0.946486 1.69917 0
M  V30 1123 O 107.253 -0.0387021 1.95662 0
M  V30 1124 C 107.552 3.35784 1.22409 0
M  V30 1125 C 107.218 4.50179 0.254955 0
M  V30 1126 C 105.88 4.81199 -0.0116746 0
M  V30 1127 C 108.232 5.19598 -0.408338 0
M  V30 1128 C 105.56 5.78978 -0.94877 0
M  V30 1129 C 107.912 6.18381 -1.33372 0
M  V30 1130 C 106.576 6.47821 -1.60887 0
M  V30 1131 H 105.846 0.707338 0.220802 0
M  V30 1132 H 108.493 1.91012 -0.136665 0
M  V30 1133 H 106.798 3.34515 2.03978 0
M  V30 1134 H 108.495 3.60804 1.74989 0
M  V30 1135 H 105.085 4.25983 0.472954 0
M  V30 1136 H 109.269 4.95832 -0.215456 0
M  V30 1137 H 104.525 6.00115 -1.16925 0
M  V30 1138 H 108.699 6.71277 -1.85367 0
M  V30 1139 H 106.326 7.23399 -2.33661 0
M  V30 1140 N 107.901 -0.206675 1.56239 0
M  V30 1141 C 109.126 -0.949474 1.8439 0
M  V30 1142 C 109.551 -1.76549 0.649016 0
M  V30 1143 O 108.909 -1.76782 -0.402231 0
M  V30 1144 C 108.957 -1.83078 3.10668 0
M  V30 1145 O 108.061 -2.9281 2.90407 0
M  V30 1146 H 107.402 -0.268033 0.607499 0
M  V30 1147 H 109.932 -0.215488 2.03462 0
M  V30 1148 H 109.942 -2.2377 3.41161 0
M  V30 1149 H 108.617 -1.23112 3.97261 0
M  V30 1150 H 107.194 -2.55956 2.71184 0
M  V30 1151 N 109.379 -1.50304 -0.473955 0
M  V30 1152 C 110.79 -1.54042 -1.0549 0
M  V30 1153 C 111.141 -0.342248 -1.93192 0
M  V30 1154 O 110.266 0.545157 -2.09421 0
M  V30 1155 C 110.861 -2.79152 -1.91989 0
M  V30 1156 C 109.42 -2.8558 -2.45196 0
M  V30 1157 C 108.567 -2.48295 -1.2347 0
M  V30 1158 H 111.518 -1.5661 -0.256693 0
M  V30 1159 H 111.539 -2.60845 -2.7702 0
M  V30 1160 H 111.051 -3.66339 -1.28131 0
M  V30 1161 H 109.152 -2.02738 -3.12615 0
M  V30 1162 H 109.265 -3.88403 -2.80499 0
M  V30 1163 H 107.629 -2.00669 -1.56856 0
M  V30 1164 H 108.412 -3.37787 -0.612789 0
M  V30 1165 N 110.857 0.726932 -1.39834 0
M  V30 1166 C 112.082 1.52121 -1.40976 0
M  V30 1167 C 112.507 1.88098 -0.00826029 0
M  V30 1168 O 111.865 1.52479 0.980807 0
M  V30 1169 C 111.913 2.78021 -2.29644 0
M  V30 1170 O 111.017 3.74272 -1.73188 0
M  V30 1171 H 110.358 0.45908 -0.479731 0
M  V30 1172 H 112.888 0.896207 -1.83927 0
M  V30 1173 H 112.898 3.26671 -2.44438 0
M  V30 1174 H 111.573 2.51169 -3.31492 0
M  V30 1175 H 110.15 3.33073 -1.6768 0
M  V30 1176 N 112.336 1.25143 0.95797 0
M  V30 1177 C 113.576 1.10893 1.71703 0
M  V30 1178 C 113.94 -0.34478 1.88879 0
M  V30 1179 O 115.141 -0.609014 2.6181 0
M  V30 1180 C 113.412 1.83889 3.06463 0
M  V30 1181 S 114.971 1.85491 3.97666 0
M  V30 1182 H 111.789 0.396428 0.590226 0
M  V30 1183 H 114.391 1.58618 1.14283 0
M  V30 1184 H 113.095 2.88756 2.9163 0
M  V30 1185 H 112.626 1.36538 3.68946 0
M  V30 1186 H 114.641 0.929553 4.87415 0
M  V30 1187 N 113.814 -1.1601 1.06675 0
M  V30 1188 C 115.06 -1.86909 0.786945 0
M  V30 1189 C 115.393 -1.81717 -0.685018 0
M  V30 1190 O 114.668 -1.23551 -1.50218 0
M  V30 1191 C 114.951 -3.36313 1.28707 0
M  V30 1192 C 114.804 -3.50175 2.82308 0
M  V30 1193 C 116.123 -4.3084 0.898071 0
M  V30 1194 H 113.242 -0.678677 0.287343 0
M  V30 1195 H 115.884 -1.36336 1.32334 0
M  V30 1196 H 114.034 -3.79513 0.830768 0
M  V30 1197 H 115.706 -3.15886 3.36175 0
M  V30 1198 H 113.949 -2.91959 3.20847 0
M  V30 1199 H 114.62 -4.55116 3.12368 0
M  V30 1200 H 117.096 -3.95561 1.29114 0
M  V30 1201 H 115.972 -5.33876 1.27543 0
M  V30 1202 H 116.233 -4.41662 -0.196651 0
M  V30 1203 N 115.292 -0.849877 -1.32721 0
M  V30 1204 C 116.517 -0.463856 -2.02146 0
M  V30 1205 C 116.942 0.930449 -1.63476 0
M  V30 1206 O 116.3 1.61033 -0.832952 0
M  V30 1207 C 116.348 -0.604955 -3.55489 0
M  V30 1208 O 115.452 0.36425 -4.10788 0
M  V30 1209 H 114.793 -0.187046 -0.637111 0
M  V30 1210 H 117.323 -1.14775 -1.69375 0
M  V30 1211 H 117.333 -0.490696 -4.05038 0
M  V30 1212 H 116.008 -1.62174 -3.82978 0
M  V30 1213 H 114.585 0.206628 -3.72327 0
M  V30 1214 N 116.77 1.45427 -0.607355 0
M  V30 1215 C 117.7 2.3329 0.0989352 0
M  V30 1216 C 118.681 1.46816 0.859007 0
M  V30 1217 O 119.866 1.75588 0.829604 0
M  V30 1218 C 116.996 3.29518 1.09705 0
M  V30 1219 C 115.95 4.25626 0.450206 0
M  V30 1220 C 115.276 5.11542 1.55655 0
M  V30 1221 C 116.576 5.18505 -0.628455 0
M  V30 1222 H 118.27 2.92595 -0.634716 0
M  V30 1223 H 115.816 1.40696 -0.306681 0
M  V30 1224 H 117.769 3.89855 1.59971 0
M  V30 1225 H 116.493 2.68372 1.86129 0
M  V30 1226 H 115.152 3.66586 -0.0315886 0
M  V30 1227 H 114.8 4.46765 2.31107 0
M  V30 1228 H 114.5 5.76647 1.12925 0
M  V30 1229 H 116.024 5.74748 2.06148 0
M  V30 1230 H 117.438 5.72916 -0.209877 0
M  V30 1231 H 115.835 5.92085 -0.977489 0
M  V30 1232 H 116.905 4.60948 -1.50514 0
M  V30 1233 N 118.248 0.346503 1.53744 0
M  V30 1234 C 119.178 -0.501193 2.28058 0
M  V30 1235 C 120.159 -1.10014 1.29734 0
M  V30 1236 O 121.344 -1.12097 1.58581 0
M  V30 1237 C 118.474 -1.65078 3.05559 0
M  V30 1238 C 117.428 -1.18003 4.11411 0
M  V30 1239 C 116.754 -2.41837 4.76884 0
M  V30 1240 C 118.054 -0.278394 5.21558 0
M  V30 1241 H 119.748 0.11875 2.99164 0
M  V30 1242 H 117.294 0.0585531 1.43881 0
M  V30 1243 H 119.247 -2.25028 3.56287 0
M  V30 1244 H 117.971 -2.29767 2.32109 0
M  V30 1245 H 116.63 -0.603331 3.61601 0
M  V30 1246 H 116.278 -3.0494 4.00026 0
M  V30 1247 H 115.978 -2.1102 5.48402 0
M  V30 1248 H 117.502 -3.02508 5.30397 0
M  V30 1249 H 118.916 -0.784823 5.67903 0
M  V30 1250 H 117.313 -0.0619707 6.00068 0
M  V30 1251 H 118.383 0.684677 4.80042 0
M  V30 1252 N 119.726 -1.57421 0.075193 0
M  V30 1253 C 121.142 -1.57099 -0.281444 0
M  V30 1254 C 121.342 -1.08486 -1.69803 0
M  V30 1255 O 120.398 -0.752279 -2.41033 0
M  V30 1256 C 121.711 -3.00571 -0.0880041 0
M  V30 1257 C 123.259 -3.12605 -0.157281 0
M  V30 1258 C 123.734 -4.57999 0.0079207 0
M  V30 1259 N 125.225 -4.63176 -0.0475725 0
M  V30 1260 C 125.96 -5.73373 0.0557876 0
M  V30 1261 N 125.456 -6.92473 0.21286 0
M  V30 1262 N 127.249 -5.621 -0.00152098 0
M  V30 1263 H 119.4 -1.87335 1.00098 0
M  V30 1264 H 121.663 -0.86377 0.390646 0
M  V30 1265 H 121.369 -3.40262 0.889629 0
M  V30 1266 H 121.243 -3.67754 -0.838875 0
M  V30 1267 H 123.63 -2.72798 -1.1254 0
M  V30 1268 H 123.711 -2.48053 0.62475 0
M  V30 1269 H 123.355 -4.98496 0.972824 0
M  V30 1270 H 123.285 -5.20586 -0.793556 0
M  V30 1271 H 125.776 -3.7753 -0.167244 0
M  V30 1272 H 126.089 -7.72279 0.283781 0
M  V30 1273 H 124.434 -6.94556 0.248267 0
M  V30 1274 H 127.625 -4.67938 -0.122958 0
M  V30 1275 H 127.798 -6.47948 0.0824844 0
M  V30 1276 N 121.204 0.198386 -1.56346 0
M  V30 1277 C 122.444 0.92609 -1.82217 0
M  V30 1278 C 122.808 1.80584 -0.652195 0
M  V30 1279 O 124.009 2.56907 -0.790716 0
M  V30 1280 C 122.28 1.72354 -3.13096 0
M  V30 1281 S 123.839 2.50371 -3.6036 0
M  V30 1282 H 120.657 0.310677 -0.639532 0
M  V30 1283 H 123.259 0.189755 -1.94577 0
M  V30 1284 H 121.963 1.0678 -3.96265 0
M  V30 1285 H 121.494 2.50175 -3.03605 0
M  V30 1286 H 123.509 3.74488 -3.25535 0
M  V30 1287 N 122.682 1.50554 0.465978 0
M  V30 1288 C 123.91 1.65563 1.24083 0
M  V30 1289 C 124.325 0.341051 1.85694 0
M  V30 1290 O 123.682 -0.677543 1.69457 0
M  V30 1291 C 123.733 2.75051 2.34583 0
M  V30 1292 O 123.454 4.01413 1.75497 0
M  V30 1293 C 124.955 3.01078 3.25372 0
M  V30 1294 H 122.175 0.55638 0.375077 0
M  V30 1295 H 124.719 1.96807 0.555624 0
M  V30 1296 H 122.874 2.46486 2.9887 0
M  V30 1297 H 123.288 4.62002 2.48303 0
M  V30 1298 H 124.762 3.81339 3.99105 0
M  V30 1299 H 125.239 2.12349 3.84453 0
M  V30 1300 H 125.845 3.31194 2.66816 0
M  V30 1301 N 124.16 -0.719506 1.40217 0
M  V30 1302 C 125.408 -1.47641 1.3801 0
M  V30 1303 C 125.729 -1.94992 -0.018145 0
M  V30 1304 O 124.999 -1.70073 -0.972207 0
M  V30 1305 H 123.579 -0.547744 0.507923 0
M  V30 1306 H 126.241 -0.853187 1.75233 0
M  V30 1307 H 125.337 -2.35112 2.05253 0
M  V30 1308 N 125.638 -1.25649 -0.95132 0
M  V30 1309 C 126.878 -1.11802 -1.71113 0
M  V30 1310 C 127.242 0.334758 -1.89059 0
M  V30 1311 O 128.443 0.595121 -2.62129 0
M  V30 1312 C 126.714 -1.85512 -3.05483 0
M  V30 1313 S 128.273 -1.87597 -3.96677 0
M  V30 1314 H 125.091 -0.399552 -0.588115 0
M  V30 1315 H 127.693 -1.59222 -1.1344 0
M  V30 1316 H 126.397 -2.90299 -2.90094 0
M  V30 1317 H 125.928 -1.38493 -3.68216 0
M  V30 1318 H 127.943 -0.955389 -4.86916 0
M  V30 1319 N 127.117 1.15442 -1.07289 0
M  V30 1320 C 128.357 1.8788 -0.805012 0
M  V30 1321 C 128.721 1.80413 0.656907 0
M  V30 1322 O 129.922 2.47874 1.0398 0
M  V30 1323 C 128.193 3.3298 -1.29843 0
M  V30 1324 S 129.752 4.23158 -1.16114 0
M  V30 1325 H 126.57 0.64839 -0.291739 0
M  V30 1326 H 129.172 1.39285 -1.37186 0
M  V30 1327 H 127.876 3.35958 -2.35712 0
M  V30 1328 H 127.407 3.86629 -0.726767 0
M  V30 1329 H 129.422 4.96103 -0.0982778 0
M  V30 1330 N 128.595 0.856903 1.32268 0
M  V30 1331 C 129.843 0.460474 1.96784 0
M  V30 1332 C 130.164 -0.987701 1.68135 0
M  V30 1333 O 129.434 -1.69058 0.989765 0
M  V30 1334 H 128.014 0.167289 0.728027 0
M  V30 1335 H 130.676 1.09383 1.61312 0
M  V30 1336 H 129.772 0.60739 3.06133 0
M  V30 1337 N 130.073 -1.45103 0.615059 0
M  V30 1338 C 131.35 -1.95549 0.0448276 0
M  V30 1339 C 131.73 -1.55737 -1.4251 0
M  V30 1340 O 131.078 -0.823556 -2.13143 0
M  V30 1341 C 131.288 -3.48098 0.250785 0
M  V30 1342 C 132.636 -4.24384 0.135509 0
M  V30 1343 O 133.66 -3.55738 0.181299 0
M  V30 1344 O 132.519 -5.46493 0.0268878 0
M  V30 1345 H 129.613 -0.8264 -0.0314845 0
M  V30 1346 H 132.159 -1.55232 0.685642 0
M  V30 1347 H 130.931 -3.7007 1.27139 0
M  V30 1348 H 130.554 -3.95323 -0.424937 0
M  V30 1349 N 131.551 -0.354651 -1.53558 0
M  V30 1350 C 132.461 0.50515 -2.29097 0
M  V30 1351 C 133.477 1.10223 -1.34636 0
M  V30 1352 O 134.653 1.11553 -1.67684 0
M  V30 1353 C 131.718 1.63479 -3.05738 0
M  V30 1354 C 130.779 1.06636 -4.15845 0
M  V30 1355 C 130.012 2.14217 -4.88822 0
M  V30 1356 O 130.235 3.35137 -4.61562 0
M  V30 1357 O 129.169 1.77887 -5.75013 0
M  V30 1358 H 132.995 -0.109237 -3.03503 0
M  V30 1359 H 130.58 -0.119357 -1.48922 0
M  V30 1360 H 132.462 2.2918 -3.5363 0
M  V30 1361 H 131.137 2.23478 -2.34178 0
M  V30 1362 H 130.044 0.373565 -3.7223 0
M  V30 1363 H 131.377 0.511081 -4.89539 0
M  V30 1364 N 133.029 1.57378 -0.0835403 0
M  V30 1365 C 133.977 2.14602 0.89714 0
M  V30 1366 C 134.971 1.08589 1.30018 0
M  V30 1367 O 136.177 1.26952 1.27606 0
M  V30 1368 H 132.552 0.686346 0.3073 0
M  V30 1369 H 134.523 2.95845 0.38969 0
M  V30 1370 C 133.272 2.73188 2.15089 0
M  V30 1371 H 132.595 3.54442 1.84962 0
M  V30 1372 H 134.035 3.1681 2.81793 0
M  V30 1373 C 132.494 1.68517 2.91725 0
M  V30 1374 O 133.024 1.11718 3.85852 0
M  V30 1375 N 131.23 1.39277 2.55049 0
M  V30 1376 H 130.777 1.85655 1.78577 0
M  V30 1377 H 130.735 0.694791 3.06627 0
M  V30 1378 N 134.507 -0.190092 1.56449 0
M  V30 1379 C 135.437 -1.23816 1.97969 0
M  V30 1380 C 136.418 -1.47201 0.852395 0
M  V30 1381 O 137.603 -1.58854 1.1171 0
M  V30 1382 C 134.733 -2.5813 2.3235 0
M  V30 1383 C 133.687 -2.49348 3.47864 0
M  V30 1384 C 133.013 -3.8798 3.67934 0
M  V30 1385 C 134.313 -2.01424 4.81898 0
M  V30 1386 H 136.007 -0.89311 2.85769 0
M  V30 1387 H 133.553 -0.428177 1.37487 0
M  V30 1388 H 135.506 -3.31637 2.59991 0
M  V30 1389 H 134.23 -2.94386 1.41438 0
M  V30 1390 H 132.889 -1.78297 3.20321 0
M  V30 1391 H 132.537 -4.21597 2.74344 0
M  V30 1392 H 132.237 -3.82978 4.45648 0
M  V30 1393 H 133.761 -4.63101 3.97957 0
M  V30 1394 H 135.175 -2.64693 5.08538 0
M  V30 1395 H 133.572 -2.07413 5.63116 0
M  V30 1396 H 134.642 -0.967677 4.75146 0
M  V30 1397 N 135.985 -1.50799 -0.457987 0
M  V30 1398 C 136.935 -1.67003 -1.55222 0
M  V30 1399 C 137.919 -0.52434 -1.52117 0
M  V30 1400 O 139.111 -0.779345 -1.58919 0
M  V30 1401 C 136.24 -1.77956 -2.93576 0
M  V30 1402 C 135.326 -2.98243 -3.01516 0
M  V30 1403 N 135.717 -4.21732 -2.79241 0
M  V30 1404 C 134.015 -2.97072 -3.32662 0
M  V30 1405 C 134.716 -5.02817 -2.92489 0
M  V30 1406 N 133.692 -4.37038 -3.23262 0
M  V30 1407 H 137.494 -2.60163 -1.36721 0
M  V30 1408 H 135.008 -1.48163 -0.664952 0
M  V30 1409 H 137.005 -1.87671 -3.72271 0
M  V30 1410 H 135.665 -0.859634 -3.13114 0
M  V30 1411 H 136.676 -4.51016 -2.54567 0
M  V30 1412 H 133.353 -2.14631 -3.58106 0
M  V30 1413 H 134.743 -6.11054 -2.79396 0
M  V30 1414 N 137.463 0.71206 -1.40597 0
M  V30 1415 C 138.703 1.48438 -1.40519 0
M  V30 1416 C 139.067 1.91998 -0.00767611 0
M  V30 1417 O 140.268 2.6854 0.118239 0
M  V30 1418 C 138.539 2.67514 -2.37004 0
M  V30 1419 S 140.098 3.56875 -2.55315 0
M  V30 1420 H 136.916 0.507457 -0.498005 0
M  V30 1421 H 139.518 0.832355 -1.76896 0
M  V30 1422 H 138.222 2.33689 -3.37368 0
M  V30 1423 H 137.753 3.37625 -2.01923 0
M  V30 1424 H 139.768 4.62081 -1.8082 0
M  V30 1425 N 138.941 1.26152 0.944643 0
M  V30 1426 C 140.187 1.11657 1.69294 0
M  V30 1427 C 140.52 -0.339926 1.91202 0
M  V30 1428 O 139.795 -1.24994 1.49019 0
M  V30 1429 C 140.078 1.88236 3.06984 0
M  V30 1430 C 139.931 3.41772 2.92424 0
M  V30 1431 C 141.25 1.67343 4.07043 0
M  V30 1432 H 138.369 0.407004 0.614424 0
M  V30 1433 H 141.011 1.55106 1.09737 0
M  V30 1434 H 139.161 1.51308 3.57824 0
M  V30 1435 H 140.833 3.88433 2.48832 0
M  V30 1436 H 139.076 3.68974 2.28124 0
M  V30 1437 H 139.747 3.90579 3.90067 0
M  V30 1438 H 142.223 1.99509 3.65151 0
M  V30 1439 H 141.099 2.23346 5.01406 0
M  V30 1440 H 141.36 0.617158 4.37771 0
M  V30 1441 N 140.419 -1.14872 1.07899 0
M  V30 1442 C 141.83 -1.67367 0.827363 0
M  V30 1443 C 142.181 -1.85236 -0.646693 0
M  V30 1444 O 141.306 -1.55974 -1.50004 0
M  V30 1445 C 141.901 -3.04016 1.49532 0
M  V30 1446 C 140.46 -3.53566 1.29106 0
M  V30 1447 C 139.607 -2.29161 1.56143 0
M  V30 1448 H 142.558 -0.990083 1.24028 0
M  V30 1449 H 142.579 -3.69219 0.919643 0
M  V30 1450 H 142.091 -2.90978 2.56814 0
M  V30 1451 H 140.192 -3.71835 0.238713 0
M  V30 1452 H 140.305 -4.34661 2.01511 0
M  V30 1453 H 138.669 -2.34978 0.982717 0
M  V30 1454 H 139.452 -2.18705 2.64619 0
M  V30 1455 N 141.898 -0.863906 -1.31812 0
M  V30 1456 C 143.144 -0.472535 -1.97218 0
M  V30 1457 C 143.477 0.971394 -1.68159 0
M  V30 1458 O 142.752 1.68309 -0.974798 0
M  V30 1459 C 143.035 -0.723054 -3.52766 0
M  V30 1460 C 142.888 -2.21608 -3.91421 0
M  V30 1461 C 144.207 -0.185522 -4.39709 0
M  V30 1462 H 141.326 -0.173158 -0.71637 0
M  V30 1463 H 143.968 -1.08403 -1.56041 0
M  V30 1464 H 142.118 -0.202577 -3.87971 0
M  V30 1465 H 143.79 -2.80334 -3.66347 0
M  V30 1466 H 142.033 -2.691 -3.40246 0
M  V30 1467 H 142.704 -2.34203 -4.99853 0
M  V30 1468 H 145.18 -0.630726 -4.11292 0
M  V30 1469 H 144.056 -0.390306 -5.47511 0
M  V30 1470 H 144.317 0.912229 -4.32586 0
M  V30 1471 N 143.376 1.44774 -0.622745 0
M  V30 1472 C 144.286 2.34433 0.0886031 0
M  V30 1473 C 145.302 1.52131 0.844529 0
M  V30 1474 O 146.478 1.84886 0.798691 0
M  V30 1475 C 143.543 3.29986 1.0635 0
M  V30 1476 C 142.604 4.28195 0.307873 0
M  V30 1477 C 141.837 5.19183 1.23633 0
M  V30 1478 O 142.06 5.13918 2.47476 0
M  V30 1479 O 140.994 5.97515 0.725189 0
M  V30 1480 H 144.82 2.96693 -0.648599 0
M  V30 1481 H 142.405 1.44408 -0.382957 0
M  V30 1482 H 144.287 3.88825 1.6246 0
M  V30 1483 H 142.962 2.70269 1.78146 0
M  V30 1484 H 141.869 3.72927 -0.296064 0
M  V30 1485 H 143.202 4.90808 -0.3699 0
M  V30 1486 N 144.854 0.36279 1.53368 0
M  V30 1487 C 146.082 -0.228613 2.05633 0
M  V30 1488 C 146.497 -1.42676 1.23649 0
M  V30 1489 O 145.854 -1.80394 0.27647 0
M  V30 1490 C 145.905 -0.624845 3.56059 0
M  V30 1491 O 145.626 0.525675 4.34935 0
M  V30 1492 C 147.127 -1.27493 4.24571 0
M  V30 1493 H 144.347 -0.0407183 0.669763 0
M  V30 1494 H 146.891 0.520352 1.97769 0
M  V30 1495 H 145.046 -1.32373 3.64083 0
M  V30 1496 H 145.46 0.205969 5.24095 0
M  V30 1497 H 146.934 -1.50277 5.31151 0
M  V30 1498 H 147.411 -2.23439 3.78116 0
M  V30 1499 H 148.017 -0.617558 4.20792 0
M  V30 1500 N 146.332 -1.57332 0.0918853 0
M  V30 1501 C 147.295 -2.12708 -0.85369 0
M  V30 1502 C 148.295 -1.05561 -1.213 0
M  V30 1503 O 149.485 -1.31461 -1.14296 0
M  V30 1504 C 146.617 -2.64503 -2.15061 0
M  V30 1505 H 147.81 -2.97573 -0.3729 0
M  V30 1506 H 145.363 -1.55509 -0.157072 0
M  V30 1507 H 146.098 -1.83149 -2.67632 0
M  V30 1508 H 145.883 -3.4284 -1.90272 0
M  V30 1509 H 147.373 -3.07351 -2.82711 0
M  V30 1510 N 147.81 0.181792 -1.56548 0
M  V30 1511 C 148.758 1.24461 -1.965 0
M  V30 1512 C 149.752 1.464 -0.852261 0
M  V30 1513 O 150.958 1.47103 -1.03733 0
M  V30 1514 H 147.333 0.418138 -0.625031 0
M  V30 1515 H 149.304 0.880714 -2.85107 0
M  V30 1516 C 148.053 2.57891 -2.33212 0
M  V30 1517 H 147.376 2.41829 -3.18369 0
M  V30 1518 H 148.816 3.3097 -2.65019 0
M  V30 1519 C 147.275 3.15871 -1.17163 0
M  V30 1520 O 147.805 3.9913 -0.453708 0
M  V30 1521 N 146.011 2.74808 -0.944936 0
M  V30 1522 H 145.558 2.07205 -1.53049 0
M  V30 1523 H 145.516 3.13939 -0.170286 0
M  V30 1524 N 149.288 1.51039 0.449983 0
M  V30 1525 C 150.534 1.63322 1.20223 0
M  V30 1526 C 150.867 0.34241 1.91158 0
M  V30 1527 O 150.142 -0.657344 1.83055 0
M  V30 1528 C 150.425 2.82801 2.22925 0
M  V30 1529 C 150.278 4.21823 1.56157 0
M  V30 1530 C 151.597 2.97807 3.24035 0
M  V30 1531 H 148.716 0.594407 0.435718 0
M  V30 1532 H 151.358 1.83489 0.493136 0
M  V30 1533 H 149.508 2.65738 2.834 0
M  V30 1534 H 151.18 4.50526 0.991162 0
M  V30 1535 H 149.423 4.25105 0.864172 0
M  V30 1536 H 150.094 5.01391 2.30891 0
M  V30 1537 H 152.57 3.13497 2.73603 0
M  V30 1538 H 151.446 3.82992 3.93202 0
M  V30 1539 H 151.707 2.09328 3.89402 0
M  V30 1540 N 150.766 -0.704594 1.40972 0
M  V30 1541 C 151.994 -1.49354 1.43182 0
M  V30 1542 C 152.409 -1.88768 0.0345508 0
M  V30 1543 O 151.766 -1.56184 -0.944081 0
M  V30 1544 C 151.817 -2.76187 2.33244 0
M  V30 1545 O 151.538 -2.38436 3.67532 0
M  V30 1546 C 153.039 -3.7 2.44162 0
M  V30 1547 H 150.259 -0.460559 0.487982 0
M  V30 1548 H 152.803 -0.868261 1.85153 0
M  V30 1549 H 150.958 -3.34974 1.94606 0
M  V30 1550 H 151.372 -3.20126 4.15475 0
M  V30 1551 H 152.846 -4.55803 3.11364 0
M  V30 1552 H 153.323 -4.13867 1.47006 0
M  V30 1553 H 153.929 -3.17121 2.83398 0
M  V30 1554 N 152.244 -1.26651 -0.937939 0
M  V30 1555 C 153.177 -1.02811 -2.03728 0
M  V30 1556 C 154.155 0.0481915 -1.62529 0
M  V30 1557 O 155.339 -0.0948839 -1.88261 0
M  V30 1558 C 152.466 -0.557517 -3.3408 0
M  V30 1559 C 151.512 -1.62686 -3.94253 0
M  V30 1560 S 152.345 -3.21667 -4.28125 0
M  V30 1561 C 153.501 -2.76384 -5.61572 0
M  V30 1562 H 153.734 -1.95891 -2.23638 0
M  V30 1563 H 151.267 -1.10367 -1.07974 0
M  V30 1564 H 153.225 -0.292674 -4.09455 0
M  V30 1565 H 151.886 0.353062 -3.12109 0
M  V30 1566 H 151.079 -1.24866 -4.88287 0
M  V30 1567 H 150.681 -1.84324 -3.25424 0
M  V30 1568 H 152.973 -2.2105 -6.40424 0
M  V30 1569 H 153.916 -3.69123 -6.0428 0
M  V30 1570 H 154.324 -2.15847 -5.21604 0
M  V30 1571 N 153.722 1.14298 -1.08507 0
M  V30 1572 C 154.654 2.1907 -0.673859 0
M  V30 1573 C 155.667 1.60381 0.279577 0
M  V30 1574 O 156.856 1.78374 0.0670754 0
M  V30 1575 C 153.956 3.38888 0.0290979 0
M  V30 1576 C 153.129 4.27103 -0.943494 0
M  V30 1577 C 152.188 5.25477 -0.275676 0
M  V30 1578 O 151.214 5.61709 -0.920401 0
M  V30 1579 N 152.416 5.7227 0.974013 0
M  V30 1580 H 155.181 2.54965 -1.57521 0
M  V30 1581 H 152.742 1.29528 -0.971287 0
M  V30 1582 H 154.734 4.01761 0.48683 0
M  V30 1583 H 153.304 3.01309 0.832555 0
M  V30 1584 H 152.524 3.61149 -1.58004 0
M  V30 1585 H 153.812 4.82905 -1.60251 0
M  V30 1586 H 153.21 5.44965 1.51755 0
M  V30 1587 H 151.767 6.37127 1.37522 0
M  V30 1588 N 155.201 0.870884 1.31352 0
M  V30 1589 C 156.131 0.343096 2.30966 0
M  V30 1590 C 157.112 -0.566507 1.60389 0
M  V30 1591 O 158.297 -0.483336 1.88089 0
M  V30 1592 C 155.427 -0.455487 3.443 0
M  V30 1593 C 154.381 0.361103 4.26474 0
M  V30 1594 C 153.707 -0.563221 5.31725 0
M  V30 1595 C 155.007 1.59566 4.97329 0
M  V30 1596 H 156.701 1.17548 2.75359 0
M  V30 1597 H 154.247 0.566686 1.32381 0
M  V30 1598 H 156.2 -0.83525 4.13039 0
M  V30 1599 H 154.924 -1.32139 2.98675 0
M  V30 1600 H 153.583 0.722825 3.59403 0
M  V30 1601 H 153.231 -1.42643 4.82351 0
M  V30 1602 H 152.931 -0.0207409 5.87596 0
M  V30 1603 H 154.455 -0.939808 6.03324 0
M  V30 1604 H 155.869 1.28728 5.58661 0
M  V30 1605 H 154.266 2.07728 5.63 0
M  V30 1606 H 155.336 2.34798 4.24262 0
M  V30 1607 N 156.679 -1.44442 0.630414 0
M  V30 1608 C 157.609 -2.33418 -0.0618083 0
M  V30 1609 C 158.59 -1.48165 -0.835541 0
M  V30 1610 O 159.775 -1.76886 -0.801564 0
M  V30 1611 C 156.905 -3.31222 -1.04449 0
M  V30 1612 C 155.859 -4.26288 -0.382436 0
M  V30 1613 C 155.185 -5.13954 -1.47497 0
M  V30 1614 C 156.485 -5.1744 0.710865 0
M  V30 1615 H 158.179 -2.91548 0.681184 0
M  V30 1616 H 155.725 -1.40191 0.329026 0
M  V30 1617 H 157.678 -3.92351 -1.53748 0
M  V30 1618 H 156.402 -2.71299 -1.81836 0
M  V30 1619 H 155.061 -3.6649 0.0899054 0
M  V30 1620 H 154.709 -4.50385 -2.2397 0
M  V30 1621 H 154.409 -5.7837 -1.03737 0
M  V30 1622 H 155.933 -5.77955 -1.96979 0
M  V30 1623 H 157.347 -5.72509 0.300996 0
M  V30 1624 H 155.744 -5.90455 1.07156 0
M  V30 1625 H 156.814 -4.58496 1.57829 0
M  V30 1626 N 158.157 -0.370918 -1.53173 0
M  V30 1627 C 159.104 0.473035 -2.259 0
M  V30 1628 C 160.074 1.07311 -1.26781 0
M  V30 1629 O 161.259 1.1046 -1.55574 0
M  V30 1630 C 158.399 1.60405 -3.05556 0
M  V30 1631 C 157.512 1.02863 -4.19575 0
M  V30 1632 C 156.647 2.12918 -4.86661 0
M  V30 1633 C 155.686 1.52869 -5.92704 0
M  V30 1634 N 154.823 2.56779 -6.53459 0
M  V30 1635 H 159.663 -0.153649 -2.97604 0
M  V30 1636 H 157.2 -0.0875946 -1.46839 0
M  V30 1637 H 159.158 2.27034 -3.50016 0
M  V30 1638 H 157.788 2.20131 -2.36097 0
M  V30 1639 H 156.84 0.252465 -3.79561 0
M  V30 1640 H 158.152 0.549642 -4.95762 0
M  V30 1641 H 157.306 2.87356 -5.34333 0
M  V30 1642 H 156.045 2.6417 -4.09958 0
M  V30 1643 H 155.05 0.769479 -5.44389 0
M  V30 1644 H 156.275 1.02435 -6.7133 0
M  V30 1645 H 154.221 3.07235 -5.79606 0
M  V30 1646 H 154.138 2.13583 -7.25202 0
M  V30 1647 H 155.406 3.30903 -7.05779 0
M  V30 1648 N 159.635 1.57281 -0.100228 0
M  V30 1649 C 160.884 1.93713 0.561984 0
M  V30 1650 C 161.197 0.984492 1.69018 0
M  V30 1651 O 162.403 1.24273 2.41389 0
M  V30 1652 C 160.859 3.4421 1.05106 0
M  V30 1653 C 160.467 4.47975 -0.0476628 0
M  V30 1654 C 162.211 3.89595 1.68571 0
M  V30 1655 C 160.118 5.89631 0.457055 0
M  V30 1656 H 159.048 0.723082 0.2137 0
M  V30 1657 H 161.699 1.82644 -0.177057 0
M  V30 1658 H 160.081 3.50449 1.84395 0
M  V30 1659 H 161.255 4.53385 -0.823333 0
M  V30 1660 H 159.57 4.1223 -0.587816 0
M  V30 1661 H 162.167 4.92832 2.07414 0
M  V30 1662 H 162.51 3.28526 2.55688 0
M  V30 1663 H 163.043 3.86078 0.958562 0
M  V30 1664 H 159.782 6.54411 -0.377616 0
M  V30 1665 H 159.302 5.87681 1.19962 0
M  V30 1666 H 160.981 6.40363 0.92437 0
M  V30 1667 N 161.113 -0.173488 1.56642 0
M  V30 1668 C 162.529 -0.525174 1.50712 0
M  V30 1669 C 162.729 -1.8476 0.804107 0
M  V30 1670 O 161.785 -2.49869 0.363574 0
M  V30 1671 C 163.098 -0.559937 2.95441 0
M  V30 1672 C 164.646 -0.647288 3.06234 0
M  V30 1673 C 165.121 -0.712963 4.52417 0
M  V30 1674 N 166.612 -0.775911 4.56655 0
M  V30 1675 C 167.347 -0.847264 5.67106 0
M  V30 1676 N 166.843 -0.879585 6.87194 0
M  V30 1677 N 168.636 -0.886117 5.55071 0
M  V30 1678 H 160.787 0.693681 2.00753 0
M  V30 1679 H 163.05 0.249841 0.914485 0
M  V30 1680 H 162.756 0.343049 3.50023 0
M  V30 1681 H 162.63 -1.40718 3.49969 0
M  V30 1682 H 165.017 -1.5407 2.51687 0
M  V30 1683 H 165.098 0.226586 2.54794 0
M  V30 1684 H 164.742 0.176183 5.07594 0
M  V30 1685 H 164.672 -1.60295 5.0161 0
M  V30 1686 H 167.163 -0.759304 3.70193 0
M  V30 1687 H 167.476 -0.935144 7.67121 0
M  V30 1688 H 165.821 -0.847898 6.89808 0
M  V30 1689 H 169.012 -0.857853 4.60172 0
M  V30 1690 H 169.185 -0.938263 6.41171 0
M  V30 1691 N 162.591 -1.51276 -0.441967 0
M  V30 1692 C 163.816 -1.67799 -1.21895 0
M  V30 1693 C 164.241 -0.372864 -1.84367 0
M  V30 1694 O 163.599 0.666501 -1.68604 0
M  V30 1695 C 163.647 -2.79199 -2.28211 0
M  V30 1696 O 162.751 -2.42479 -3.33583 0
M  V30 1697 H 162.092 -0.559649 -0.357336 0
M  V30 1698 H 164.622 -1.97815 -0.522522 0
M  V30 1699 H 164.632 -3.03146 -2.73069 0
M  V30 1700 H 163.307 -3.73906 -1.82118 0
M  V30 1701 H 161.884 -2.29087 -2.94234 0
M  V30 1702 N 164.069 0.697108 -1.41344 0
M  V30 1703 C 165.317 1.45426 -1.40341 0
M  V30 1704 C 165.638 1.94996 -0.0128787 0
M  V30 1705 O 164.908 1.71599 0.945027 0
M  V30 1706 H 163.488 0.539594 -0.516573 0
M  V30 1707 H 166.15 0.825201 -1.76569 0
M  V30 1708 H 165.246 2.31817 -2.08967 0
M  V30 1709 N 165.547 1.27147 0.931209 0
M  V30 1710 C 166.824 1.0401 1.65654 0
M  V30 1711 C 167.204 -0.426297 2.06751 0
M  V30 1712 O 166.552 -1.40879 1.79904 0
M  V30 1713 C 166.762 1.99834 2.86125 0
M  V30 1714 C 168.11 2.29007 3.57549 0
M  V30 1715 O 169.134 1.97779 2.96246 0
M  V30 1716 O 167.993 2.82222 4.67989 0
M  V30 1717 H 165.087 0.396239 0.725895 0
M  V30 1718 H 167.633 1.38397 0.982056 0
M  V30 1719 H 166.405 2.98744 2.52721 0
M  V30 1720 H 166.028 1.65987 3.61295 0
M  V30 1721 N 167.025 -1.13721 1.09112 0
M  V30 1722 C 168.441 -1.36914 0.820174 0
M  V30 1723 C 168.641 -1.93356 -0.567079 0
M  V30 1724 O 167.697 -2.15093 -1.32255 0
M  V30 1725 C 169.01 -2.3235 1.90877 0
M  V30 1726 C 170.558 -2.45973 1.93562 0
M  V30 1727 C 171.033 -3.44714 3.01556 0
M  V30 1728 N 172.524 -3.52263 3.00775 0
M  V30 1729 C 173.259 -4.28536 3.80978 0
M  V30 1730 N 172.755 -5.07991 4.71081 0
M  V30 1731 N 174.548 -4.23804 3.69251 0
M  V30 1732 H 166.699 -0.754348 1.98553 0
M  V30 1733 H 168.962 -0.3944 0.862063 0
M  V30 1734 H 168.668 -1.98027 2.90651 0
M  V30 1735 H 168.542 -3.32332 1.78424 0
M  V30 1736 H 170.929 -2.79584 0.944286 0
M  V30 1737 H 171.01 -1.45926 2.10093 0
M  V30 1738 H 170.654 -3.11835 4.00901 0
M  V30 1739 H 170.584 -4.44558 2.82269 0
M  V30 1740 H 173.075 -2.95567 2.35475 0
M  V30 1741 H 173.388 -5.63487 5.28869 0
M  V30 1742 H 171.733 -5.07235 4.75119 0
M  V30 1743 H 174.924 -3.60806 2.98222 0
M  V30 1744 H 175.097 -4.82995 4.31995 0
M  V30 1745 N 168.503 -0.877838 -1.30888 0
M  V30 1746 C 169.914 -0.544193 -1.78593 0
M  V30 1747 C 170.265 0.939301 -1.72254 0
M  V30 1748 O 169.39 1.7337 -1.29505 0
M  V30 1749 C 169.985 -0.98105 -3.24285 0
M  V30 1750 C 168.544 -0.698935 -3.69854 0
M  V30 1751 C 167.691 -1.168 -2.51502 0
M  V30 1752 H 170.642 -1.06278 -1.17859 0
M  V30 1753 H 170.663 -0.307009 -3.79259 0
M  V30 1754 H 170.175 -2.06079 -3.28866 0
M  V30 1755 H 168.276 0.369112 -3.70767 0
M  V30 1756 H 168.389 -1.28148 -4.61644 0
M  V30 1757 H 166.753 -0.587535 -2.47831 0
M  V30 1758 H 167.536 -2.25533 -2.58824 0
M  V30 1759 N 169.982 1.44106 -0.638065 0
M  V30 1760 C 171.207 2.0685 -0.150916 0
M  V30 1761 C 171.632 1.47417 1.16833 0
M  V30 1762 O 170.99 0.578264 1.71831 0
M  V30 1763 C 171.038 3.60555 -0.05708 0
M  V30 1764 O 170.142 4.00465 0.984972 0
M  V30 1765 H 169.483 0.658151 -0.0879399 0
M  V30 1766 H 172.013 1.84865 -0.876707 0
M  V30 1767 H 172.023 4.07789 0.131232 0
M  V30 1768 H 170.698 4.03193 -1.02021 0
M  V30 1769 H 169.275 3.64849 0.770672 0
M  V30 1770 N 171.46 0.379036 1.52974 0
M  V30 1771 C 172.69 -0.20649 2.05566 0
M  V30 1772 C 173.098 -1.41906 1.25137 0
M  V30 1773 O 172.441 -1.81421 0.288464 0
M  V30 1774 C 172.503 -0.651086 3.53555 0
M  V30 1775 C 172.167 0.446626 4.54812 0
M  V30 1776 C 173.164 1.30079 5.03364 0
M  V30 1777 C 170.849 0.610719 4.98573 0
M  V30 1778 C 172.843 2.30426 5.94292 0
M  V30 1779 C 170.53 1.61754 5.89304 0
M  V30 1780 C 171.528 2.46274 6.37054 0
M  V30 1781 O 171.216 3.45237 7.25994 0
M  V30 1782 H 170.948 -0.0372381 0.674974 0
M  V30 1783 H 173.502 0.539718 1.98182 0
M  V30 1784 H 171.732 -1.44911 3.58522 0
M  V30 1785 H 173.421 -1.16112 3.88938 0
M  V30 1786 H 174.187 1.18527 4.70294 0
M  V30 1787 H 170.066 -0.0374044 4.60985 0
M  V30 1788 H 173.61 2.96432 6.31485 0
M  V30 1789 H 169.507 1.73348 6.21788 0
M  V30 1790 H 170.275 3.41124 7.44027 0
M  V30 1791 N 172.938 -1.57226 0.108567 0
M  V30 1792 C 174.184 -1.95121 -0.552761 0
M  V30 1793 C 174.517 -0.991345 -1.66991 0
M  V30 1794 O 173.792 -0.0267211 -1.94482 0
M  V30 1795 C 174.075 -3.43039 -1.09528 0
M  V30 1796 C 173.928 -4.49797 0.0177332 0
M  V30 1797 C 175.247 -3.92567 -1.98945 0
M  V30 1798 H 172.366 -0.709496 -0.199461 0
M  V30 1799 H 175.008 -1.89126 0.182011 0
M  V30 1800 H 173.158 -3.48279 -1.72146 0
M  V30 1801 H 174.83 -4.56661 0.652584 0
M  V30 1802 H 173.073 -4.284 0.682309 0
M  V30 1803 H 173.744 -5.50528 -0.402919 0
M  V30 1804 H 176.22 -3.89565 -1.46214 0
M  V30 1805 H 175.096 -4.96605 -2.33827 0
M  V30 1806 H 175.357 -3.32648 -2.91201 0
M  V30 1807 N 174.416 0.165178 -1.56732 0
M  V30 1808 C 175.326 1.22423 -2.00125 0
M  V30 1809 C 176.342 1.48084 -0.913619 0
M  V30 1810 O 177.518 1.60112 -1.22172 0
M  V30 1811 C 174.583 2.54197 -2.35764 0
M  V30 1812 C 173.644 2.36343 -3.58386 0
M  V30 1813 C 172.877 3.61834 -3.92316 0
M  V30 1814 O 173.1 4.67267 -3.27135 0
M  V30 1815 O 172.034 3.55579 -4.85641 0
M  V30 1816 H 175.86 0.885886 -2.90492 0
M  V30 1817 H 173.445 0.372518 -1.44681 0
M  V30 1818 H 175.327 3.3192 -2.59629 0
M  V30 1819 H 174.002 2.87598 -1.48557 0
M  V30 1820 H 172.909 1.56632 -3.39731 0
M  V30 1821 H 174.242 2.07865 -4.46154 0
M  V30 1822 N 175.894 1.51508 0.433938 0
M  V30 1823 C 176.824 1.76016 1.53429 0
M  V30 1824 C 177.805 0.610112 1.58782 0
M  V30 1825 O 178.99 0.853177 1.74455 0
M  V30 1826 C 176.12 1.88831 2.9148 0
M  V30 1827 C 175.074 3.04288 3.00987 0
M  V30 1828 C 174.4 3.0229 4.4105 0
M  V30 1829 C 175.7 4.44193 2.74754 0
M  V30 1830 H 177.394 2.68152 1.33171 0
M  V30 1831 H 174.94 1.29035 0.639214 0
M  V30 1832 H 176.893 2.04559 3.6842 0
M  V30 1833 H 175.617 0.933455 3.12976 0
M  V30 1834 H 174.276 2.8827 2.26486 0
M  V30 1835 H 173.924 2.04576 4.59519 0
M  V30 1836 H 173.624 3.79822 4.4834 0
M  V30 1837 H 175.148 3.20116 5.1996 0
M  V30 1838 H 176.562 4.60544 3.41426 0
M  V30 1839 H 174.959 5.23457 2.9345 0
M  V30 1840 H 176.029 4.53996 1.70339 0
M  V30 1841 N 177.372 -0.689602 1.41712 0
M  V30 1842 C 178.6 -1.47827 1.44758 0
M  V30 1843 C 179.015 -1.88721 0.0545703 0
M  V30 1844 O 178.372 -1.57176 -0.927463 0
M  V30 1845 C 178.423 -2.73698 2.3616 0
M  V30 1846 O 178.144 -2.34524 3.7004 0
M  V30 1847 C 179.645 -3.67389 2.48072 0
M  V30 1848 H 176.865 -0.455357 0.49284 0
M  V30 1849 H 179.409 -0.848574 1.86063 0
M  V30 1850 H 177.564 -3.32891 1.98148 0
M  V30 1851 H 177.978 -3.15701 4.18847 0
M  V30 1852 H 179.452 -4.52475 3.16181 0
M  V30 1853 H 179.929 -4.12284 1.51388 0
M  V30 1854 H 180.535 -3.14097 2.86746 0
M  V30 1855 N 178.85 -1.27639 -0.924453 0
M  V30 1856 C 180.097 -1.14167 -1.67249 0
M  V30 1857 C 180.425 0.311863 -1.91984 0
M  V30 1858 O 179.68 1.24425 -1.51053 0
M  V30 1859 C 179.979 -1.87407 -3.04325 0
M  V30 1860 C 179.645 -3.37249 -2.99289 0
M  V30 1861 C 178.307 -3.7812 -2.97622 0
M  V30 1862 C 180.659 -4.32845 -2.90336 0
M  V30 1863 C 177.987 -5.12944 -2.8479 0
M  V30 1864 C 180.339 -5.6773 -2.79045 0
M  V30 1865 C 179.003 -6.07889 -2.7573 0
M  V30 1866 H 178.273 -0.417766 -0.612007 0
M  V30 1867 H 180.92 -1.58286 -1.07786 0
M  V30 1868 H 179.225 -1.35805 -3.67511 0
M  V30 1869 H 180.922 -1.74408 -3.61086 0
M  V30 1870 H 177.512 -3.04748 -3.01374 0
M  V30 1871 H 181.696 -4.02239 -2.90719 0
M  V30 1872 H 176.952 -5.432 -2.80612 0
M  V30 1873 H 181.126 -6.41472 -2.71083 0
M  V30 1874 H 178.753 -7.12314 -2.65544 0
M  V30 1875 N 180.328 1.1314 -1.09713 0
M  V30 1876 C 181.553 1.88862 -0.857081 0
M  V30 1877 C 181.978 1.78729 0.586304 0
M  V30 1878 O 181.336 1.13692 1.41222 0
M  V30 1879 C 181.384 3.36325 -1.30069 0
M  V30 1880 O 180.488 4.09815 -0.461007 0
M  V30 1881 H 179.829 0.587108 -0.310162 0
M  V30 1882 H 182.359 1.43129 -1.46203 0
M  V30 1883 H 182.369 3.87157 -1.28738 0
M  V30 1884 H 181.044 3.43017 -2.35185 0
M  V30 1885 H 179.621 3.68986 -0.538888 0
M  V30 1886 N 181.806 0.884767 1.30421 0
M  V30 1887 C 182.738 0.308655 2.27112 0
M  V30 1888 C 183.751 -0.536655 1.53701 0
M  V30 1889 O 184.94 -0.35624 1.74909 0
M  V30 1890 C 182.04 -0.579782 3.33904 0
M  V30 1891 C 181.213 0.236417 4.36761 0
M  V30 1892 C 180.272 -0.582482 5.22966 0
M  V30 1893 O 179.298 -0.00525502 5.692 0
M  V30 1894 N 180.5 -1.89163 5.48815 0
M  V30 1895 H 183.265 1.13964 2.77186 0
M  V30 1896 H 180.826 0.747731 1.43599 0
M  V30 1897 H 182.818 -1.13366 3.88497 0
M  V30 1898 H 181.388 -1.31144 2.83761 0
M  V30 1899 H 180.608 0.97174 3.82035 0
M  V30 1900 H 181.896 0.795924 5.02536 0
M  V30 1901 H 181.294 -2.38352 5.13035 0
M  V30 1902 H 179.851 -2.39296 6.06284 0
M  V30 1903 N 183.284 -1.43765 0.645699 0
M  V30 1904 C 184.234 -2.27884 -0.0726442 0
M  V30 1905 C 185.218 -1.39483 -0.802086 0
M  V30 1906 O 186.41 -1.63174 -0.685791 0
M  V30 1907 C 183.539 -3.27055 -1.04356 0
M  V30 1908 C 182.625 -4.22944 -0.312985 0
M  V30 1909 N 183.016 -5.01391 0.666386 0
M  V30 1910 C 181.314 -4.42528 -0.55546 0
M  V30 1911 C 182.015 -5.71217 1.09935 0
M  V30 1912 N 180.991 -5.41856 0.435137 0
M  V30 1913 H 184.793 -2.85949 0.678988 0
M  V30 1914 H 182.307 -1.55378 0.472368 0
M  V30 1915 H 184.304 -3.86089 -1.57292 0
M  V30 1916 H 182.964 -2.70551 -1.79534 0
M  V30 1917 H 183.975 -5.07252 1.04481 0
M  V30 1918 H 180.652 -3.97104 -1.28899 0
M  V30 1919 H 182.042 -6.44202 1.90929 0
M  V30 1920 N 184.763 -0.387143 -1.52771 0
M  V30 1921 C 186.009 0.196025 -2.0185 0
M  V30 1922 C 186.342 1.46641 -1.27319 0
M  V30 1923 O 185.617 1.90889 -0.373032 0
M  V30 1924 C 185.9 0.466136 -3.5707 0
M  V30 1925 C 185.753 -0.819385 -4.42274 0
M  V30 1926 C 187.072 1.25768 -4.21747 0
M  V30 1927 H 184.191 0.0697708 -0.73369 0
M  V30 1928 H 186.833 -0.516286 -1.82851 0
M  V30 1929 H 184.983 1.07293 -3.7339 0
M  V30 1930 H 186.655 -1.4563 -4.37709 0
M  V30 1931 H 184.898 -1.43517 -4.09372 0
M  V30 1932 H 185.569 -0.585065 -5.48891 0
M  V30 1933 H 188.045 0.744167 -4.09391 0
M  V30 1934 H 186.921 1.41541 -5.30337 0
M  V30 1935 H 187.182 2.27228 -3.79236 0
M  V30 1936 N 186.241 1.57166 -0.116904 0
M  V30 1937 C 187.657 1.5779 0.239693 0
M  V30 1938 C 187.857 1.1295 1.66867 0
M  V30 1939 O 186.913 0.81592 2.38954 0
M  V30 1940 C 188.226 3.00699 0.00828202 0
M  V30 1941 C 189.774 3.12912 0.0743438 0
M  V30 1942 C 190.249 4.57817 -0.129348 0
M  V30 1943 N 191.74 4.63139 -0.075247 0
M  V30 1944 C 192.475 5.73023 -0.207788 0
M  V30 1945 N 191.971 6.91665 -0.396382 0
M  V30 1946 N 193.764 5.61906 -0.14751 0
M  V30 1947 H 185.915 1.84615 -1.05029 0
M  V30 1948 H 188.178 0.85311 -0.41341 0
M  V30 1949 H 187.884 3.37784 -0.979531 0
M  V30 1950 H 187.758 3.69848 0.741077 0
M  V30 1951 H 190.145 2.75686 1.05268 0
M  V30 1952 H 190.226 2.4631 -0.690297 0
M  V30 1953 H 189.87 4.95742 -1.10465 0
M  V30 1954 H 189.8 5.22507 0.655253 0
M  V30 1955 H 192.291 3.7784 0.0670898 0
M  V30 1956 H 192.604 7.71255 -0.488437 0
M  V30 1957 H 190.949 6.93654 -0.432329 0
M  V30 1958 H 194.14 4.681 -0.00115036 0
M  V30 1959 H 194.313 6.47501 -0.254247 0
M  V30 1960 N 187.719 -0.156864 1.56817 0
M  V30 1961 C 188.959 -0.877453 1.84608 0
M  V30 1962 C 189.323 -1.78791 0.699845 0
M  V30 1963 O 190.524 -2.5472 0.858553 0
M  V30 1964 C 188.795 -1.63992 3.17555 0
M  V30 1965 S 190.354 -2.40729 3.66872 0
M  V30 1966 H 187.172 -0.293612 0.647544 0
M  V30 1967 H 189.774 -0.138099 1.95012 0
M  V30 1968 H 188.478 -0.962363 3.98957 0
M  V30 1969 H 188.009 -2.42038 3.10131 0
M  V30 1970 H 190.024 -3.65725 3.3535 0
M  V30 1971 N 189.197 -1.51736 -0.425897 0
M  V30 1972 C 190.107 -1.76738 -1.54275 0
M  V30 1973 C 191.123 -0.65211 -1.61318 0
M  V30 1974 O 192.299 -0.935654 -1.78346 0
M  V30 1975 C 189.364 -1.89755 -2.90162 0
M  V30 1976 C 188.425 -3.13633 -2.93143 0
M  V30 1977 C 187.658 -3.2602 -4.22548 0
M  V30 1978 O 187.881 -2.44067 -5.15546 0
M  V30 1979 O 186.815 -4.19071 -4.32046 0
M  V30 1980 H 190.641 -2.71502 -1.36089 0
M  V30 1981 H 188.226 -1.36376 -0.610069 0
M  V30 1982 H 190.108 -2.00236 -3.70788 0
M  V30 1983 H 188.783 -0.981785 -3.08452 0
M  V30 1984 H 187.69 -3.08622 -2.11431 0
M  V30 1985 H 189.023 -4.04936 -2.798 0
M  V30 1986 N 190.675 0.682077 -1.42076 0
M  V30 1987 C 191.915 1.45424 -1.43636 0
M  V30 1988 C 192.279 1.91939 -0.0484001 0
M  V30 1989 O 193.48 2.6873 0.0612514 0
M  V30 1990 C 191.751 2.62427 -2.42625 0
M  V30 1991 S 193.31 3.51379 -2.62827 0
M  V30 1992 H 190.128 0.496779 -0.508657 0
M  V30 1993 H 192.73 0.794645 -1.78621 0
M  V30 1994 H 191.434 2.26481 -3.42249 0
M  V30 1995 H 190.965 3.33266 -2.09039 0
M  V30 1996 H 192.98 4.58141 -1.9058 0
M  V30 1997 N 192.153 1.28127 0.917671 0
M  V30 1998 C 193.569 1.05749 1.19538 0
M  V30 1999 C 193.769 -0.202633 2.00479 0
M  V30 2000 O 192.825 -0.905382 2.3571 0
M  V30 2001 C 194.138 2.30273 1.93378 0
M  V30 2002 C 195.686 2.35412 2.06277 0
M  V30 2003 C 196.161 3.59692 2.83524 0
M  V30 2004 N 197.652 3.60309 2.91087 0
M  V30 2005 C 198.387 4.53147 3.51348 0
M  V30 2006 N 197.883 5.563 4.12919 0
M  V30 2007 N 199.676 4.40751 3.48849 0
M  V30 2008 H 191.827 2.09024 0.377184 0
M  V30 2009 H 194.09 0.919798 0.22951 0
M  V30 2010 H 193.796 3.22055 1.41328 0
M  V30 2011 H 193.67 2.36378 2.93947 0
M  V30 2012 H 196.057 1.4413 2.57508 0
M  V30 2013 H 196.138 2.33304 1.04895 0
M  V30 2014 H 195.782 4.51316 2.32973 0
M  V30 2015 H 195.712 3.59054 3.85211 0
M  V30 2016 H 198.203 2.85714 2.47338 0
M  V30 2017 H 198.516 6.2329 4.56869 0
M  V30 2018 H 196.861 5.60131 4.11435 0
M  V30 2019 H 200.052 3.59367 2.99955 0
M  V30 2020 H 200.225 5.13291 3.9552 0
M  V30 2021 N 193.631 -1.12557 1.10312 0
M  V30 2022 C 194.581 -2.16331 0.720076 0
M  V30 2023 C 195.565 -1.58616 -0.270115 0
M  V30 2024 O 196.757 -1.76823 -0.0790507 0
M  V30 2025 C 193.886 -3.42963 0.152113 0
M  V30 2026 C 192.972 -4.07663 1.16927 0
M  V30 2027 N 193.363 -4.47392 2.35953 0
M  V30 2028 C 191.661 -4.34425 1.0095 0
M  V30 2029 C 192.362 -4.97932 3.0073 0
M  V30 2030 N 191.338 -4.93358 2.28252 0
M  V30 2031 H 195.14 -2.44813 1.62616 0
M  V30 2032 H 192.654 -1.29449 0.980654 0
M  V30 2033 H 194.651 -4.16664 -0.14037 0
M  V30 2034 H 193.311 -3.1595 -0.748701 0
M  V30 2035 H 194.322 -4.39802 2.73486 0
M  V30 2036 H 190.999 -4.17177 0.164134 0
M  V30 2037 H 192.389 -5.38397 4.01969 0
M  V30 2038 N 195.109 -0.891671 -1.2995 0
M  V30 2039 C 196.334 -0.527932 -2.00568 0
M  V30 2040 C 196.759 0.877969 -1.66353 0
M  V30 2041 O 196.117 1.58301 -0.883762 0
M  V30 2042 C 196.165 -0.717745 -3.53385 0
M  V30 2043 O 195.269 0.233376 -4.11739 0
M  V30 2044 H 194.61 -0.20722 -0.630837 0
M  V30 2045 H 197.14 -1.20105 -1.65638 0
M  V30 2046 H 197.15 -0.619307 -4.03272 0
M  V30 2047 H 195.825 -1.74276 -3.77625 0
M  V30 2048 H 194.402 0.0880706 -3.72796 0
M  V30 2049 N 196.587 1.43421 -0.653314 0
M  V30 2050 C 197.998 1.85065 -0.246537 0
M  V30 2051 C 198.349 1.54688 1.2069 0
M  V30 2052 O 197.474 0.995896 1.92122 0
M  V30 2053 C 198.069 3.35922 -0.440666 0
M  V30 2054 C 196.628 3.76297 -0.0882064 0
M  V30 2055 C 195.775 2.67147 -0.743484 0
M  V30 2056 H 198.726 1.33572 -0.856979 0
M  V30 2057 H 198.747 3.79204 0.313798 0
M  V30 2058 H 198.259 3.58 -1.49858 0
M  V30 2059 H 196.36 3.5983 0.96711 0
M  V30 2060 H 196.473 4.76338 -0.513738 0
M  V30 2061 H 194.837 2.54086 -0.176712 0
M  V30 2062 H 195.62 2.92053 -1.80443 0
M  V30 2063 N 198.065 0.39524 1.52563 0
M  V30 2064 C 199.313 -0.184678 2.01254 0
M  V30 2065 C 199.634 -1.46822 1.28329 0
M  V30 2066 O 198.904 -1.91666 0.405094 0
M  V30 2067 H 197.484 -0.0712355 0.743596 0
M  V30 2068 H 200.146 0.528293 1.87603 0
M  V30 2069 H 199.242 -0.390681 3.09645 0
M  V30 2070 N 199.544 -1.57102 0.125237 0
M  V30 2071 C 200.96 -1.57915 -0.231322 0
M  V30 2072 C 201.16 -1.13833 -1.66266 0
M  V30 2073 O 200.216 -0.828581 -2.38518 0
M  V30 2074 C 201.529 -3.00699 0.00766489 0
M  V30 2075 C 203.077 -3.12947 -0.0577483 0
M  V30 2076 C 203.552 -4.57742 0.153626 0
M  V30 2077 N 205.043 -4.63092 0.0998073 0
M  V30 2078 C 205.778 -5.72905 0.238174 0
M  V30 2079 N 205.274 -6.91445 0.433057 0
M  V30 2080 N 207.067 -5.6182 0.177308 0
M  V30 2081 H 199.218 -1.84055 1.06007 0
M  V30 2082 H 201.481 -0.850905 0.417929 0
M  V30 2083 H 201.187 -3.3726 0.997431 0
M  V30 2084 H 201.061 -3.70236 -0.721452 0
M  V30 2085 H 203.448 -2.7624 -1.03804 0
M  V30 2086 H 203.529 -2.4594 0.70335 0
M  V30 2087 H 203.173 -4.95149 1.13092 0
M  V30 2088 H 203.103 -5.22848 -0.627534 0
M  V30 2089 H 205.594 -3.77871 -0.047051 0
M  V30 2090 H 205.907 -7.70985 0.529332 0
M  V30 2091 H 204.252 -6.93415 0.469109 0
M  V30 2092 H 207.443 -4.68093 0.0259748 0
M  V30 2093 H 207.616 -6.47357 0.288582 0
M  V30 2094 N 201.022 0.148545 -1.56898 0
M  V30 2095 C 201.954 1.20852 -1.9475 0
M  V30 2096 C 202.967 1.39265 -0.843152 0
M  V30 2097 O 204.156 1.38864 -1.12156 0
M  V30 2098 C 201.256 2.57362 -2.20495 0
M  V30 2099 C 200.429 2.59947 -3.51776 0
M  V30 2100 C 199.488 3.77984 -3.6608 0
M  V30 2101 O 198.514 3.62929 -4.38487 0
M  V30 2102 N 199.716 4.95375 -3.02629 0
M  V30 2103 H 202.481 0.886804 -2.86279 0
M  V30 2104 H 200.042 0.338121 -1.5833 0
M  V30 2105 H 202.034 3.34833 -2.27307 0
M  V30 2106 H 200.604 2.81832 -1.35238 0
M  V30 2107 H 199.824 1.68403 -3.56419 0
M  V30 2108 H 201.112 2.58704 -4.38121 0
M  V30 2109 H 200.51 5.10509 -2.43715 0
M  V30 2110 H 199.067 5.70627 -3.15004 0
M  V30 2111 N 202.5 1.5196 0.417844 0
M  V30 2112 C 203.725 1.69717 1.1921 0
M  V30 2113 C 204.15 0.402148 1.83751 0
M  V30 2114 O 203.508 -0.639593 1.69643 0
M  V30 2115 C 203.556 2.82794 2.2374 0
M  V30 2116 O 202.66 2.47756 3.29683 0
M  V30 2117 H 202.001 0.565263 0.348387 0
M  V30 2118 H 204.531 1.98621 0.490985 0
M  V30 2119 H 204.541 3.07452 2.68212 0
M  V30 2120 H 203.216 3.76756 1.76146 0
M  V30 2121 H 201.793 2.33739 2.90552 0
M  V30 2122 N 203.978 -0.674533 1.42435 0
M  V30 2123 C 205.389 -1.25514 1.38214 0
M  V30 2124 C 205.74 -1.96055 0.0755464 0
M  V30 2125 O 204.865 -2.00028 -0.8257 0
M  V30 2126 C 205.46 -2.28269 2.50357 0
M  V30 2127 C 204.019 -2.81856 2.49467 0
M  V30 2128 C 203.166 -1.56182 2.29134 0
M  V30 2129 H 206.117 -0.467902 1.51646 0
M  V30 2130 H 206.138 -3.10009 2.20624 0
M  V30 2131 H 205.65 -1.769 3.45439 0
M  V30 2132 H 203.751 -3.37346 1.58204 0
M  V30 2133 H 203.864 -3.30854 3.46515 0
M  V30 2134 H 202.228 -1.82761 1.774 0
M  V30 2135 H 203.011 -1.06778 3.26272 0
M  V30 2136 N 205.456 -1.28612 -0.910864 0
M  V30 2137 C 206.733 -1.06632 -1.63979 0
M  V30 2138 C 207.113 0.393351 -2.07403 0
M  V30 2139 O 206.461 1.37999 -1.82122 0
M  V30 2140 C 206.671 -2.0436 -2.8291 0
M  V30 2141 C 208.019 -2.34666 -3.5386 0
M  V30 2142 O 209.043 -2.02467 -2.93062 0
M  V30 2143 O 207.902 -2.89631 -4.63439 0
M  V30 2144 H 204.996 -0.407737 -0.7195 0
M  V30 2145 H 207.542 -1.39942 -0.959914 0
M  V30 2146 H 206.314 -3.02727 -2.47936 0
M  V30 2147 H 205.937 -1.71714 -3.58609 0
M  V30 2148 N 206.934 1.1197 -1.10907 0
M  V30 2149 C 207.867 2.16998 -0.706192 0
M  V30 2150 C 208.845 1.59903 0.294897 0
M  V30 2151 O 210.029 1.87513 0.192636 0
M  V30 2152 C 207.156 3.38673 -0.0427664 0
M  V30 2153 C 206.202 4.14414 -1.00811 0
M  V30 2154 S 207.035 4.72079 -2.52789 0
M  V30 2155 C 208.191 5.97083 -1.87731 0
M  V30 2156 H 208.424 2.50837 -1.59587 0
M  V30 2157 H 205.957 1.23508 -0.926555 0
M  V30 2158 H 207.915 4.09142 0.333668 0
M  V30 2159 H 206.576 3.03105 0.823788 0
M  V30 2160 H 205.769 5.016 -0.491259 0
M  V30 2161 H 205.371 3.49678 -1.3267 0
M  V30 2162 H 207.663 6.66599 -1.21044 0
M  V30 2163 H 208.606 6.53403 -2.72892 0
M  V30 2164 H 209.014 5.4837 -1.33979 0
M  V30 2165 N 208.412 0.89855 1.29475 0
M  V30 2166 C 209.823 0.572537 1.77705 0
M  V30 2167 C 210.174 -0.911778 1.73727 0
M  V30 2168 O 209.299 -1.71288 1.32247 0
M  V30 2169 C 209.894 1.03252 3.22683 0
M  V30 2170 C 208.453 0.757687 3.68695 0
M  V30 2171 C 207.6 1.20787 2.49612 0
M  V30 2172 H 210.551 1.08139 1.16153 0
M  V30 2173 H 210.572 0.367307 3.78723 0
M  V30 2174 H 210.084 2.11285 3.25546 0
M  V30 2175 H 208.185 -0.310079 3.71308 0
M  V30 2176 H 208.298 1.35476 4.59547 0
M  V30 2177 H 206.662 0.626888 2.46865 0
M  V30 2178 H 207.445 2.29622 2.55203 0
M  V30 2179 N 209.89 -1.43072 0.660911 0
M  V30 2180 C 211.138 -2.01323 0.177094 0
M  V30 2181 C 211.459 -1.5245 -1.2159 0
M  V30 2182 O 210.729 -0.740322 -1.81373 0
M  V30 2183 H 209.309 -0.744382 0.0624804 0
M  V30 2184 H 211.971 -1.75179 0.854305 0
M  V30 2185 H 211.067 -3.11649 0.167641 0
M  V30 2186 N 211.368 -0.403325 -1.52352 0
M  V30 2187 C 212.645 0.232611 -1.94212 0
M  V30 2188 C 213.025 1.63133 -1.33981 0
M  V30 2189 O 212.373 2.22659 -0.513344 0
M  V30 2190 C 212.583 0.244811 -3.4814 0
M  V30 2191 C 213.931 0.46698 -4.22024 0
M  V30 2192 O 214.955 0.324419 -3.5472 0
M  V30 2193 O 213.814 0.74747 -5.41364 0
M  V30 2194 H 210.908 0.148223 -0.813609 0
M  V30 2195 H 213.454 -0.458848 -1.63379 0
M  V30 2196 H 212.226 -0.734378 -3.84347 0
M  V30 2197 H 211.849 0.980611 -3.85318 0
M  V30 2198 N 212.846 1.57033 -0.133567 0
M  V30 2199 C 214.093 1.95686 0.520877 0
M  V30 2200 C 214.421 1.0177 1.6575 0
M  V30 2201 O 213.676 0.0443195 1.9565 0
M  V30 2202 C 213.975 3.40674 1.08057 0
M  V30 2203 C 213.641 4.50855 0.0637899 0
M  V30 2204 C 212.303 4.80716 -0.215757 0
M  V30 2205 C 214.655 5.17398 -0.62835 0
M  V30 2206 C 211.983 5.74433 -1.19348 0
M  V30 2207 C 214.335 6.12167 -1.5948 0
M  V30 2208 C 212.999 6.40414 -1.88218 0
M  V30 2209 H 212.269 0.716067 0.190602 0
M  V30 2210 H 214.916 1.9026 -0.217556 0
M  V30 2211 H 213.221 3.42865 1.89606 0
M  V30 2212 H 214.918 3.67902 1.59529 0
M  V30 2213 H 211.508 4.27605 0.291855 0
M  V30 2214 H 215.692 4.94472 -0.425562 0
M  V30 2215 H 210.948 5.94616 -1.42272 0
M  V30 2216 H 215.122 6.6281 -2.13671 0
M  V30 2217 H 212.749 7.12838 -2.64133 0
M  V30 2218 N 214.325 -0.140222 1.56975 0
M  V30 2219 C 215.741 -0.493088 1.51792 0
M  V30 2220 C 215.941 -1.83013 0.843116 0
M  V30 2221 O 214.997 -2.49041 0.416493 0
M  V30 2222 C 216.31 -0.497144 2.96562 0
M  V30 2223 C 217.858 -0.582186 3.07538 0
M  V30 2224 C 218.333 -0.616838 4.53827 0
M  V30 2225 N 219.824 -0.678873 4.58198 0
M  V30 2226 C 220.559 -0.726782 5.68775 0
M  V30 2227 N 220.055 -0.733623 6.88905 0
M  V30 2228 N 221.848 -0.768179 5.56826 0
M  V30 2229 H 213.999 0.736108 1.99237 0
M  V30 2230 H 216.262 0.269182 0.90898 0
M  V30 2231 H 215.968 0.417217 3.49217 0
M  V30 2232 H 215.842 -1.33263 3.52875 0
M  V30 2233 H 218.229 -1.48697 2.54899 0
M  V30 2234 H 218.31 0.280581 2.54257 0
M  V30 2235 H 217.954 0.283812 5.07106 0
M  V30 2236 H 217.884 -1.49619 5.04898 0
M  V30 2237 H 220.375 -0.68061 3.7172 0
M  V30 2238 H 220.688 -0.772215 7.68932 0
M  V30 2239 H 219.033 -0.701389 6.91452 0
M  V30 2240 H 222.224 -0.760051 4.61888 0
M  V30 2241 H 222.397 -0.80205 6.43017 0
M  V30 2242 N 215.803 -1.52179 -0.40978 0
M  V30 2243 C 216.766 -1.74853 -1.48186 0
M  V30 2244 C 217.766 -0.618417 -1.48433 0
M  V30 2245 O 218.956 -0.886286 -1.49969 0
M  V30 2246 C 216.088 -1.8303 -2.87598 0
M  V30 2247 H 217.281 -2.70559 -1.29374 0
M  V30 2248 H 214.834 -1.42586 -0.640233 0
M  V30 2249 H 215.569 -0.89236 -3.11781 0
M  V30 2250 H 215.354 -2.65187 -2.88822 0
M  V30 2251 H 216.844 -2.02316 -3.65319 0
M  V30 2252 N 217.281 0.66697 -1.42791 0
M  V30 2253 C 218.558 1.4234 -1.34159 0
M  V30 2254 C 218.938 2.11093 0.0172729 0
M  V30 2255 O 218.286 2.03808 1.03318 0
M  V30 2256 C 218.496 2.41942 -2.51526 0
M  V30 2257 C 219.844 3.06353 -2.93995 0
M  V30 2258 O 220.868 2.52269 -2.51473 0
M  V30 2259 O 219.727 4.04376 -3.67617 0
M  V30 2260 H 216.821 0.635277 -0.529483 0
M  V30 2261 H 219.367 0.695034 -1.54814 0
M  V30 2262 H 218.139 1.89991 -3.42081 0
M  V30 2263 H 217.762 3.22249 -2.32898 0
M  V30 2264 N 218.759 1.29093 0.90403 0
M  V30 2265 C 219.722 1.1386 1.98919 0
M  V30 2266 C 220.722 0.0753457 1.60623 0
M  V30 2267 O 221.912 0.321931 1.71199 0
M  V30 2268 C 219.044 0.740198 3.32767 0
M  V30 2269 H 220.237 2.10246 2.13861 0
M  V30 2270 H 217.79 1.12218 1.08797 0
M  V30 2271 H 218.525 -0.223997 3.23525 0
M  V30 2272 H 218.31 1.50838 3.61926 0
M  V30 2273 H 219.8 0.656546 4.12407 0
M  V30 2274 N 220.237 -1.11381 1.11499 0
M  V30 2275 C 221.648 -1.6465 0.880191 0
M  V30 2276 C 221.999 -1.87199 -0.587434 0
M  V30 2277 O 221.124 -1.60667 -1.44966 0
M  V30 2278 C 221.719 -2.99105 1.59128 0
M  V30 2279 C 220.278 -3.49279 1.40289 0
M  V30 2280 C 219.425 -2.24077 1.63354 0
M  V30 2281 H 222.376 -0.950123 1.27116 0
M  V30 2282 H 222.397 -3.66107 1.03664 0
M  V30 2283 H 221.909 -2.82661 2.65941 0
M  V30 2284 H 220.01 -3.70887 0.356888 0
M  V30 2285 H 220.123 -4.2803 2.15238 0
M  V30 2286 H 218.487 -2.31733 1.05698 0
M  V30 2287 H 219.27 -2.10175 2.71443 0
M  V30 2288 N 221.715 -0.905404 -1.28997 0
M  V30 2289 C 222.94 -0.549175 -1.99997 0
M  V30 2290 C 223.365 0.860276 -1.67275 0
M  V30 2291 O 222.723 1.57355 -0.900502 0
M  V30 2292 C 222.771 -0.755185 -3.52604 0
M  V30 2293 O 221.875 0.189692 -4.11964 0
M  V30 2294 H 221.216 -0.213899 -0.628604 0
M  V30 2295 H 223.746 -1.21856 -1.64354 0
M  V30 2296 H 223.756 -0.662045 -4.02593 0
M  V30 2297 H 222.431 -1.78271 -3.75755 0
M  V30 2298 H 221.008 0.0485257 -3.72868 0
M  V30 2299 N 223.193 1.4272 -0.668489 0
M  V30 2300 C 224.44 2.01624 -0.18814 0
M  V30 2301 C 224.768 1.5282 1.20317 0
M  V30 2302 O 224.023 0.718323 1.8204 0
M  V30 2303 C 224.322 3.57021 -0.164499 0
M  V30 2304 C 223.988 4.25232 -1.49962 0
M  V30 2305 C 222.65 4.4358 -1.8652 0
M  V30 2306 C 225.002 4.63727 -2.37921 0
M  V30 2307 C 222.33 4.97694 -3.10674 0
M  V30 2308 C 224.682 5.19218 -3.6138 0
M  V30 2309 C 223.346 5.3578 -3.98115 0
M  V30 2310 H 222.616 0.737795 -0.0688454 0
M  V30 2311 H 225.263 1.70991 -0.862225 0
M  V30 2312 H 223.568 3.87285 0.593079 0
M  V30 2313 H 225.265 4.00372 0.224271 0
M  V30 2314 H 221.855 4.11306 -1.20522 0
M  V30 2315 H 226.039 4.4923 -2.10964 0
M  V30 2316 H 221.295 5.08702 -3.39164 0
M  V30 2317 H 225.469 5.4799 -4.29743 0
M  V30 2318 H 223.096 5.77475 -4.94395 0
M  V30 2319 N 224.671 0.411399 1.52136 0
M  V30 2320 C 225.601 -0.404015 2.29978 0
M  V30 2321 C 226.582 -1.04412 1.34284 0
M  V30 2322 O 227.767 -1.0527 1.63192 0
M  V30 2323 C 224.897 -1.5197 3.12286 0
M  V30 2324 C 223.851 -1.00448 4.16046 0
M  V30 2325 C 223.177 -2.21393 4.86712 0
M  V30 2326 C 224.477 -0.0569336 5.22269 0
M  V30 2327 H 226.171 0.245529 2.98392 0
M  V30 2328 H 223.717 0.119525 1.43503 0
M  V30 2329 H 225.67 -2.09715 3.6551 0
M  V30 2330 H 224.394 -2.19716 2.41646 0
M  V30 2331 H 223.053 -0.449421 3.63835 0
M  V30 2332 H 222.701 -2.87699 4.12599 0
M  V30 2333 H 222.401 -1.87571 5.56858 0
M  V30 2334 H 223.925 -2.7974 5.4275 0
M  V30 2335 H 225.339 -0.54325 5.7072 0
M  V30 2336 H 223.736 0.192594 5.99791 0
M  V30 2337 H 224.806 0.887663 4.76706 0
M  V30 2338 N 226.149 -1.5696 0.141893 0
M  V30 2339 C 227.56 -1.82797 -0.379776 0
M  V30 2340 C 227.911 -1.06033 -1.6508 0
M  V30 2341 O 227.036 -0.304011 -2.14254 0
M  V30 2342 C 227.631 -3.31578 -0.695802 0
M  V30 2343 C 226.19 -3.58014 -1.16201 0
M  V30 2344 C 225.337 -2.76699 -0.182455 0
M  V30 2345 H 228.288 -1.54406 0.366675 0
M  V30 2346 H 228.309 -3.47454 -1.55099 0
M  V30 2347 H 227.821 -3.87421 0.229449 0
M  V30 2348 H 225.922 -3.07553 -2.10338 0
M  V30 2349 H 226.035 -4.66501 -1.09151 0
M  V30 2350 H 224.399 -2.45618 -0.674072 0
M  V30 2351 H 225.182 -3.35311 0.736297 0
M  V30 2352 N 227.627 0.131896 -1.57047 0
M  V30 2353 C 229.038 0.690407 -1.73465 0
M  V30 2354 C 229.389 1.8094 -0.758629 0
M  V30 2355 O 228.514 2.16282 0.0713813 0
M  V30 2356 C 229.109 1.25916 -3.14532 0
M  V30 2357 C 227.668 1.76409 -3.32501 0
M  V30 2358 C 226.815 0.658579 -2.69366 0
M  V30 2359 H 229.766 -0.0939144 -1.58422 0
M  V30 2360 H 229.787 2.12892 -3.15369 0
M  V30 2361 H 229.299 0.444515 -3.85546 0
M  V30 2362 H 227.4 2.60391 -2.66509 0
M  V30 2363 H 227.513 1.88241 -4.4057 0
M  V30 2364 H 225.877 1.08899 -2.30246 0
M  V30 2365 H 226.66 -0.14487 -3.42994 0
M  V30 2366 N 229.106 1.52395 0.401703 0
M  V30 2367 C 230.522 1.41363 0.740864 0
M  V30 2368 C 230.722 0.523982 1.94568 0
M  V30 2369 O 229.778 -0.00741204 2.52499 0
M  V30 2370 C 231.091 2.84011 0.987847 0
M  V30 2371 C 232.639 2.93404 1.09011 0
M  V30 2372 C 233.114 4.37036 1.3698 0
M  V30 2373 N 234.605 4.40304 1.43829 0
M  V30 2374 C 235.34 5.48508 1.67112 0
M  V30 2375 N 234.836 6.66819 1.87949 0
M  V30 2376 N 236.629 5.36034 1.69187 0
M  V30 2377 H 228.78 2.08765 -0.391262 0
M  V30 2378 H 231.043 0.941265 -0.112798 0
M  V30 2379 H 230.749 3.51265 0.174835 0
M  V30 2380 H 230.623 3.25502 1.906 0
M  V30 2381 H 233.01 2.26325 1.8937 0
M  V30 2382 H 233.091 2.55359 0.15015 0
M  V30 2383 H 232.735 5.04676 0.571353 0
M  V30 2384 H 232.665 4.72623 2.3224 0
M  V30 2385 H 235.156 3.55024 1.29486 0
M  V30 2386 H 235.469 7.45063 2.05185 0
M  V30 2387 H 233.814 6.6987 1.85199 0
M  V30 2388 H 237.005 4.42579 1.52451 0
M  V30 2389 H 237.178 6.20434 1.86993 0
M  V30 2390 N 230.584 -0.659388 1.43143 0
M  V30 2391 C 232 -0.974337 1.26407 0
M  V30 2392 C 232.2 -2.007 0.179341 0
M  V30 2393 O 231.256 -2.4856 -0.444295 0
M  V30 2394 C 232.569 -1.46447 2.62628 0
M  V30 2395 C 234.117 -1.58144 2.7011 0
M  V30 2396 C 234.592 -2.1055 4.06734 0
M  V30 2397 N 236.083 -2.17861 4.08767 0
M  V30 2398 C 236.818 -2.59519 5.1131 0
M  V30 2399 N 236.314 -3.00518 6.24228 0
M  V30 2400 N 238.107 -2.59404 4.98664 0
M  V30 2401 H 230.258 0.0240528 2.12386 0
M  V30 2402 H 232.521 -0.0518065 0.946583 0
M  V30 2403 H 232.227 -0.780123 3.42939 0
M  V30 2404 H 232.101 -2.44058 2.87603 0
M  V30 2405 H 234.488 -2.25682 1.90136 0
M  V30 2406 H 234.569 -0.589828 2.48907 0
M  V30 2407 H 234.213 -1.43616 4.87172 0
M  V30 2408 H 234.143 -3.10531 4.25298 0
M  V30 2409 H 236.634 -1.88975 3.27257 0
M  V30 2410 H 236.947 -3.31036 6.98309 0
M  V30 2411 H 235.292 -2.98337 6.2771 0
M  V30 2412 H 238.483 -2.26747 4.09516 0
M  V30 2413 H 238.656 -2.91548 5.78709 0
M  V30 2414 N 232.062 -1.29571 -0.897171 0
M  V30 2415 C 233.287 -1.20705 -1.68656 0
M  V30 2416 C 233.712 0.228582 -1.86706 0
M  V30 2417 O 233.07 1.16494 -1.3892 0
M  V30 2418 C 233.118 -1.9282 -3.04717 0
M  V30 2419 O 232.222 -1.24697 -3.93096 0
M  V30 2420 H 231.563 -0.418126 -0.515816 0
M  V30 2421 H 234.093 -1.71183 -1.12061 0
M  V30 2422 H 234.103 -2.01372 -3.54843 0
M  V30 2423 H 232.778 -2.97239 -2.90899 0
M  V30 2424 H 231.355 -1.2442 -3.51531 0
M  V30 2425 N 233.54 1.10788 -1.12088 0
M  V30 2426 C 234.47 2.19083 -0.807755 0
M  V30 2427 C 235.451 1.6858 0.226859 0
M  V30 2428 O 236.636 1.93997 0.0888475 0
M  V30 2429 C 233.766 3.46344 -0.257576 0
M  V30 2430 C 232.72 4.101 -1.22483 0
M  V30 2431 C 232.046 5.32016 -0.535052 0
M  V30 2432 C 233.346 4.54236 -2.57811 0
M  V30 2433 H 235.04 2.45534 -1.71328 0
M  V30 2434 H 232.586 1.1801 -0.825205 0
M  V30 2435 H 234.539 4.21392 -0.0262679 0
M  V30 2436 H 233.263 3.19373 0.683278 0
M  V30 2437 H 231.922 3.37054 -1.44189 0
M  V30 2438 H 231.57 5.01319 0.410827 0
M  V30 2439 H 231.27 5.75625 -1.18024 0
M  V30 2440 H 232.794 6.09799 -0.312695 0
M  V30 2441 H 234.208 5.20575 -2.40155 0
M  V30 2442 H 232.605 5.08682 -3.18375 0
M  V30 2443 H 233.675 3.6734 -3.16528 0
M  V30 2444 N 235.018 0.912232 1.28515 0
M  V30 2445 C 236.429 0.591352 1.77087 0
M  V30 2446 C 236.78 -0.8933 1.74684 0
M  V30 2447 O 235.905 -1.69876 1.34056 0
M  V30 2448 C 236.5 1.06668 3.2157 0
M  V30 2449 C 235.059 0.79675 3.67871 0
M  V30 2450 C 234.206 1.23427 2.48316 0
M  V30 2451 H 237.157 1.09365 1.15 0
M  V30 2452 H 237.178 0.407455 3.78312 0
M  V30 2453 H 236.69 2.14726 3.23287 0
M  V30 2454 H 234.791 -0.270679 3.71616 0
M  V30 2455 H 234.904 1.40343 4.58084 0
M  V30 2456 H 233.268 0.653036 2.46186 0
M  V30 2457 H 234.051 2.32316 2.52753 0
M  V30 2458 N 236.496 -1.42363 0.676048 0
M  V30 2459 C 237.429 -2.28141 -0.0516916 0
M  V30 2460 C 238.407 -1.41135 -0.807439 0
M  V30 2461 O 239.591 -1.70573 -0.802305 0
M  V30 2462 C 236.718 -3.21007 -1.08039 0
M  V30 2463 C 235.764 -4.24426 -0.420076 0
M  V30 2464 S 236.597 -5.29134 0.823246 0
M  V30 2465 C 237.753 -6.25566 -0.204344 0
M  V30 2466 H 237.986 -2.89515 0.675884 0
M  V30 2467 H 235.519 -1.47211 0.465635 0
M  V30 2468 H 237.477 -3.75048 -1.66881 0
M  V30 2469 H 236.138 -2.58766 -1.78042 0
M  V30 2470 H 235.331 -4.89596 -1.19633 0
M  V30 2471 H 234.933 -3.7388 0.0947845 0
M  V30 2472 H 237.225 -6.69098 -1.06369 0
M  V30 2473 H 238.168 -7.06895 0.412915 0
M  V30 2474 H 238.576 -5.61811 -0.55038 0
M  V30 2475 N 237.974 -0.419461 -1.51915 0
M  V30 2476 C 238.904 0.391813 -2.30189 0
M  V30 2477 C 239.885 1.03699 -1.34836 0
M  V30 2478 O 241.07 1.04403 -1.63748 0
M  V30 2479 C 238.2 1.50312 -3.13087 0
M  V30 2480 C 237.154 0.9824 -4.16573 0
M  V30 2481 C 236.48 2.18809 -4.8788 0
M  V30 2482 C 237.78 0.0292356 -5.22292 0
M  V30 2483 H 239.474 -0.26135 -2.98257 0
M  V30 2484 H 237.02 -0.127134 -1.43438 0
M  V30 2485 H 238.973 2.07773 -3.66617 0
M  V30 2486 H 237.697 2.18431 -2.42807 0
M  V30 2487 H 236.356 0.430119 -3.64068 0
M  V30 2488 H 236.004 2.85507 -4.14119 0
M  V30 2489 H 235.704 1.84615 -5.57845 0
M  V30 2490 H 237.228 2.76858 -5.44226 0
M  V30 2491 H 238.642 0.512976 -5.71 0
M  V30 2492 H 237.039 -0.2244 -5.9968 0
M  V30 2493 H 238.109 -0.912931 -4.76228 0
M  V30 2494 N 239.452 1.56882 -0.150215 0
M  V30 2495 C 240.699 1.96228 0.500093 0
M  V30 2496 C 241.027 1.03522 1.64661 0
M  V30 2497 O 240.282 0.0650683 1.95592 0
M  V30 2498 C 240.581 3.41801 1.04437 0
M  V30 2499 C 240.247 4.50897 0.0159671 0
M  V30 2500 C 238.909 4.8046 -0.266731 0
M  V30 2501 C 241.261 5.16703 -0.683192 0
M  V30 2502 C 238.589 5.73135 -1.25434 0
M  V30 2503 C 240.941 6.10441 -1.65964 0
M  V30 2504 C 239.605 6.38382 -1.95 0
M  V30 2505 H 238.875 0.718048 0.182997 0
M  V30 2506 H 241.522 1.90019 -0.237724 0
M  V30 2507 H 239.827 3.44857 1.85959 0
M  V30 2508 H 241.524 3.69573 1.55618 0
M  V30 2509 H 238.114 4.27891 0.246485 0
M  V30 2510 H 242.298 4.93993 -0.477983 0
M  V30 2511 H 237.554 5.93074 -1.48571 0
M  V30 2512 H 241.728 6.60507 -2.20689 0
M  V30 2513 H 239.355 7.09996 -2.71679 0
M  V30 2514 N 240.93 -0.123565 1.57115 0
M  V30 2515 C 242.346 -0.476961 1.52306 0
M  V30 2516 C 242.546 -1.82109 0.86248 0
M  V30 2517 O 241.602 -2.48586 0.442884 0
M  V30 2518 C 242.915 -0.465661 2.97073 0
M  V30 2519 C 244.463 -0.549534 3.08138 0
M  V30 2520 C 244.938 -0.568669 4.54456 0
M  V30 2521 N 246.429 -0.630237 4.58892 0
M  V30 2522 C 247.164 -0.666415 5.69514 0
M  V30 2523 N 246.66 -0.660514 6.89644 0
M  V30 2524 N 248.453 -0.709077 5.5761 0
M  V30 2525 H 240.604 0.757198 1.98445 0
M  V30 2526 H 242.867 0.278808 0.906074 0
M  V30 2527 H 242.573 0.454232 3.48754 0
M  V30 2528 H 242.447 -1.29513 3.54269 0
M  V30 2529 H 244.834 -1.45985 2.56461 0
M  V30 2530 H 244.915 0.307532 2.53945 0
M  V30 2531 H 244.559 0.337581 5.06777 0
M  V30 2532 H 244.489 -1.44256 5.06456 0
M  V30 2533 H 246.98 -0.641146 3.72421 0
M  V30 2534 H 247.293 -0.690616 7.69708 0
M  V30 2535 H 245.638 -0.628012 6.92157 0
M  V30 2536 H 248.829 -0.711019 4.62668 0
M  V30 2537 H 249.002 -0.733804 6.43832 0
M  V30 2538 N 242.408 -1.52605 -0.393616 0
M  V30 2539 C 243.341 -1.71798 -1.50202 0
M  V30 2540 C 244.319 -0.565743 -1.52441 0
M  V30 2541 O 245.503 -0.794987 -1.70916 0
M  V30 2542 C 242.63 -1.7714 -2.88685 0
M  V30 2543 C 241.676 -2.98845 -3.04292 0
M  V30 2544 S 242.509 -4.58909 -2.75976 0
M  V30 2545 C 243.665 -4.6706 -4.1666 0
M  V30 2546 H 243.898 -2.65542 -1.33696 0
M  V30 2547 H 241.431 -1.42839 -0.586195 0
M  V30 2548 H 243.389 -1.80903 -3.68489 0
M  V30 2549 H 242.05 -0.844969 -3.02521 0
M  V30 2550 H 241.243 -2.99111 -4.05646 0
M  V30 2551 H 240.845 -2.9305 -2.32374 0
M  V30 2552 H 243.137 -4.45391 -5.10523 0
M  V30 2553 H 244.08 -5.6905 -4.21412 0
M  V30 2554 H 244.488 -3.95944 -4.02354 0
M  V30 2555 N 243.887 0.651787 -1.4349 0
M  V30 2556 C 244.797 1.79368 -1.5121 0
M  V30 2557 C 245.813 1.69361 -0.399093 0
M  V30 2558 O 246.989 1.90505 -0.653431 0
M  V30 2559 C 244.054 3.15653 -1.43401 0
M  V30 2560 C 243.115 3.37446 -2.65384 0
M  V30 2561 C 242.348 4.67229 -2.57939 0
M  V30 2562 O 242.571 5.46676 -1.62792 0
M  V30 2563 O 241.505 4.90773 -3.48462 0
M  V30 2564 H 245.331 1.7581 -2.47638 0
M  V30 2565 H 242.916 0.810447 -1.25507 0
M  V30 2566 H 244.798 3.96935 -1.41494 0
M  V30 2567 H 243.473 3.19798 -0.501085 0
M  V30 2568 H 242.38 2.55923 -2.72863 0
M  V30 2569 H 243.713 3.38148 -3.57654 0
M  V30 2570 N 245.365 1.30045 0.890287 0
M  V30 2571 C 246.611 1.19747 1.64415 0
M  V30 2572 C 246.966 -0.246591 1.90813 0
M  V30 2573 O 246.259 -1.174 1.51419 0
M  V30 2574 C 246.453 1.95409 2.99249 0
M  V30 2575 C 246.282 3.47025 2.86013 0
M  V30 2576 C 245.052 4.1638 2.86279 0
M  V30 2577 C 247.25 4.42353 2.62351 0
M  V30 2578 N 245.232 5.54293 2.63879 0
M  V30 2579 C 246.603 5.67792 2.49022 0
M  V30 2580 C 248.658 4.32009 2.47533 0
M  V30 2581 C 247.361 6.8406 2.22383 0
M  V30 2582 C 249.387 5.48038 2.22279 0
M  V30 2583 C 248.749 6.72455 2.09722 0
M  V30 2584 H 244.848 0.493223 0.60684 0
M  V30 2585 H 247.432 1.6399 1.04954 0
M  V30 2586 H 245.603 1.53565 3.56752 0
M  V30 2587 H 247.335 1.77298 3.63796 0
M  V30 2588 H 244.09 3.68164 2.97913 0
M  V30 2589 H 244.514 6.26852 2.55706 0
M  V30 2590 H 249.156 3.36503 2.55979 0
M  V30 2591 H 246.874 7.79612 2.12675 0
M  V30 2592 H 250.46 5.41939 2.11643 0
M  V30 2593 H 249.34 7.60722 1.90453 0
M  V30 2594 N 246.843 -1.10192 1.12674 0
M  V30 2595 C 248.091 -1.81845 0.881861 0
M  V30 2596 C 248.412 -1.85737 -0.593867 0
M  V30 2597 O 247.682 -1.33724 -1.4316 0
M  V30 2598 H 246.262 -0.673432 0.323261 0
M  V30 2599 H 248.924 -1.33316 1.42172 0
M  V30 2600 H 248.02 -2.85288 1.2656 0
M  V30 2601 N 248.321 -0.919034 -1.28029 0
M  V30 2602 C 249.561 -0.562107 -1.96519 0
M  V30 2603 C 249.925 0.878784 -1.70708 0
M  V30 2604 O 251.126 1.34355 -2.32813 0
M  V30 2605 C 249.397 -0.868953 -3.46676 0
M  V30 2606 S 250.956 -0.619237 -4.34409 0
M  V30 2607 H 247.774 -0.2078 -0.679956 0
M  V30 2608 H 250.376 -1.18562 -1.55446 0
M  V30 2609 H 249.08 -1.91547 -3.62957 0
M  V30 2610 H 248.611 -0.234301 -3.92702 0
M  V30 2611 H 250.626 0.526995 -4.93394 0
M  V30 2612 N 249.799 1.42003 -0.683588 0
M  V30 2613 C 250.762 2.29191 -0.0198243 0
M  V30 2614 C 251.762 1.43773 0.72013 0
M  V30 2615 O 252.952 1.65061 0.556815 0
M  V30 2616 C 250.084 3.26435 0.982487 0
M  V30 2617 H 251.277 2.8938 -0.787345 0
M  V30 2618 H 248.83 1.49789 -0.446418 0
M  V30 2619 H 249.565 2.71203 1.77819 0
M  V30 2620 H 249.35 3.89449 0.455182 0
M  V30 2621 H 250.84 3.918 1.44508 0
M  V30 2622 N 251.277 0.427512 1.51691 0
M  V30 2623 C 252.207 -0.3796 2.30394 0
M  V30 2624 C 253.188 -1.02982 1.35384 0
M  V30 2625 O 254.373 -1.03534 1.643 0
M  V30 2626 C 251.503 -1.48649 3.1388 0
M  V30 2627 C 250.457 -0.960294 4.17088 0
M  V30 2628 C 249.783 -2.16219 4.89033 0
M  V30 2629 C 251.083 -0.00153679 5.223 0
M  V30 2630 H 252.777 0.277164 2.98114 0
M  V30 2631 H 250.323 0.134739 1.43368 0
M  V30 2632 H 252.276 -2.05826 3.67714 0
M  V30 2633 H 251 -2.1714 2.43962 0
M  V30 2634 H 249.659 -0.410806 3.64291 0
M  V30 2635 H 249.307 -2.83307 4.15628 0
M  V30 2636 H 249.007 -1.81654 5.58816 0
M  V30 2637 H 250.531 -2.73968 5.45687 0
M  V30 2638 H 251.945 -0.482687 5.71264 0
M  V30 2639 H 250.342 0.256199 5.99553 0
M  V30 2640 H 251.412 0.938174 4.75738 0
M  V30 2641 N 252.755 -1.56801 0.158532 0
M  V30 2642 C 253.983 -2.00859 -0.496303 0
M  V30 2643 C 254.398 -1.03871 -1.57659 0
M  V30 2644 O 253.755 -0.0375165 -1.82461 0
M  V30 2645 C 253.806 -3.4479 -1.08638 0
M  V30 2646 O 253.527 -4.38072 -0.0492322 0
M  V30 2647 C 255.028 -4.04185 -1.8207 0
M  V30 2648 H 252.248 -0.65864 -0.128199 0
M  V30 2649 H 254.792 -2.02885 0.256506 0
M  V30 2650 H 252.947 -3.43579 -1.78975 0
M  V30 2651 H 253.361 -5.2227 -0.483102 0
M  V30 2652 H 254.835 -5.06857 -2.18633 0
M  V30 2653 H 255.312 -3.45549 -2.71095 0
M  V30 2654 H 255.918 -4.0906 -1.16405 0
M  V30 2655 N 254.233 0.115231 -1.57178 0
M  V30 2656 C 255.481 0.820727 -1.84685 0
M  V30 2657 C 255.802 1.80237 -0.744279 0
M  V30 2658 O 255.072 1.94529 0.231375 0
M  V30 2659 H 253.652 0.306084 -0.681411 0
M  V30 2660 H 256.314 0.101656 -1.94635 0
M  V30 2661 H 255.41 1.36366 -2.80733 0
M  V30 2662 N 255.711 1.52812 0.385517 0
M  V30 2663 C 256.936 1.72207 1.15583 0
M  V30 2664 C 257.361 0.441034 1.82857 0
M  V30 2665 O 256.719 -0.603465 1.70962 0
M  V30 2666 C 256.767 2.87476 2.17692 0
M  V30 2667 O 255.871 2.54693 3.24354 0
M  V30 2668 H 255.212 0.572526 0.336319 0
M  V30 2669 H 257.742 1.99618 0.448744 0
M  V30 2670 H 257.752 3.13072 2.6163 0
M  V30 2671 H 256.427 3.80408 1.68115 0
M  V30 2672 H 255.004 2.3985 2.85529 0
M  V30 2673 N 257.189 -0.644168 1.43834 0
M  V30 2674 C 258.121 -1.76955 1.45669 0
M  V30 2675 C 259.134 -1.58956 0.351666 0
M  V30 2676 O 260.323 -1.6751 0.616644 0
M  V30 2677 C 257.423 -3.14507 1.26248 0
M  V30 2678 C 256.596 -3.59083 2.49757 0
M  V30 2679 C 255.655 -4.75467 2.25427 0
M  V30 2680 O 254.681 -4.84444 2.98836 0
M  V30 2681 N 255.883 -5.66289 1.27661 0
M  V30 2682 H 258.648 -1.75856 2.42682 0
M  V30 2683 H 256.209 -0.828312 1.39106 0
M  V30 2684 H 258.201 -3.90067 1.0784 0
M  V30 2685 H 256.771 -3.10325 0.376478 0
M  V30 2686 H 255.991 -2.7387 2.8353 0
M  V30 2687 H 257.279 -3.85613 3.31934 0
M  V30 2688 H 256.677 -5.61718 0.670064 0
M  V30 2689 H 255.234 -6.41533 1.15234 0
M  V30 2690 N 258.668 -1.30515 -0.883378 0
M  V30 2691 C 259.893 -1.22487 -1.67367 0
M  V30 2692 C 260.318 0.208767 -1.86938 0
M  V30 2693 O 259.676 1.15015 -1.40148 0
M  V30 2694 C 259.724 -1.96041 -3.02655 0
M  V30 2695 O 258.828 -1.28859 -3.91751 0
M  V30 2696 H 258.169 -0.423573 -0.511353 0
M  V30 2697 H 260.699 -1.72362 -1.10239 0
M  V30 2698 H 260.709 -2.05124 -3.52687 0
M  V30 2699 H 259.384 -3.00307 -2.8773 0
M  V30 2700 H 257.961 -1.28141 -3.50192 0
M  V30 2701 N 260.146 1.09593 -1.13257 0
M  V30 2702 C 261.109 2.14359 -0.811358 0
M  V30 2703 C 262.109 1.59808 0.178377 0
M  V30 2704 O 263.299 1.74132 -0.0484911 0
M  V30 2705 C 260.431 3.40269 -0.207276 0
M  V30 2706 H 261.624 2.44284 -1.73969 0
M  V30 2707 H 259.177 1.25102 -0.936973 0
M  V30 2708 H 259.912 3.15969 0.73036 0
M  V30 2709 H 259.697 3.81154 -0.919992 0
M  V30 2710 H 261.187 4.176 0.000667944 0
M  V30 2711 N 261.624 0.925811 1.2754 0
M  V30 2712 C 262.87 0.566092 1.94739 0
M  V30 2713 C 263.203 -0.890057 1.72603 0
M  V30 2714 O 262.478 -1.63467 1.05399 0
M  V30 2715 C 262.761 0.89054 3.48915 0
M  V30 2716 C 262.614 2.4003 3.80402 0
M  V30 2717 C 263.933 0.395101 4.38323 0
M  V30 2718 H 261.052 0.20714 0.707292 0
M  V30 2719 H 263.694 1.15725 1.50691 0
M  V30 2720 H 261.844 0.387452 3.86563 0
M  V30 2721 H 263.516 2.97494 3.52555 0
M  V30 2722 H 261.759 2.85028 3.2702 0
M  V30 2723 H 262.43 2.57785 4.8811 0
M  V30 2724 H 264.906 0.826241 4.07814 0
M  V30 2725 H 263.782 0.651086 5.45025 0
M  V30 2726 H 264.043 -0.704798 4.36446 0
M  V30 2727 N 263.102 -1.41638 0.69111 0
M  V30 2728 C 264.348 -2.02104 0.229258 0
M  V30 2729 C 264.703 -1.53741 -1.15678 0
M  V30 2730 O 263.996 -0.736849 -1.76865 0
M  V30 2731 C 264.19 -3.56714 0.221277 0
M  V30 2732 C 264.019 -4.20083 1.605 0
M  V30 2733 C 262.789 -4.54566 2.20676 0
M  V30 2734 C 264.987 -4.46587 2.55078 0
M  V30 2735 N 262.969 -5.03199 3.5166 0
M  V30 2736 C 264.34 -4.96946 3.70735 0
M  V30 2737 C 266.395 -4.28593 2.53401 0
M  V30 2738 C 265.098 -5.31203 4.8499 0
M  V30 2739 C 267.124 -4.63936 3.66765 0
M  V30 2740 C 266.486 -5.14463 4.81152 0
M  V30 2741 H 262.585 -0.771256 0.12918 0
M  V30 2742 H 265.169 -1.72251 0.907626 0
M  V30 2743 H 263.34 -3.86051 -0.426562 0
M  V30 2744 H 265.072 -4.03896 -0.254983 0
M  V30 2745 H 261.827 -4.4087 1.73005 0
M  V30 2746 H 262.251 -5.31926 4.18789 0
M  V30 2747 H 266.893 -3.88771 1.66184 0
M  V30 2748 H 264.611 -5.69951 5.72871 0
M  V30 2749 H 268.197 -4.51677 3.66714 0
M  V30 2750 H 267.077 -5.41299 5.67419 0
M  V30 2751 N 264.58 -0.43555 -1.51462 0
M  V30 2752 C 265.991 0.0279871 -1.86679 0
M  V30 2753 C 266.342 1.42104 -1.35281 0
M  V30 2754 O 265.467 2.04667 -0.702878 0
M  V30 2755 C 266.062 0.0575626 -3.38751 0
M  V30 2756 C 264.621 0.465507 -3.7351 0
M  V30 2757 C 263.768 -0.342996 -2.75171 0
M  V30 2758 H 266.719 -0.651473 -1.44712 0
M  V30 2759 H 266.74 0.867421 -3.70481 0
M  V30 2760 H 266.252 -0.956448 -3.7613 0
M  V30 2761 H 264.353 1.48519 -3.41721 0
M  V30 2762 H 264.466 0.191546 -4.78717 0
M  V30 2763 H 262.83 0.198442 -2.53926 0
M  V30 2764 H 263.613 -1.35585 -3.15391 0
M  V30 2765 N 266.058 1.56714 -0.166846 0
M  V30 2766 C 267.283 2.01557 0.488833 0
M  V30 2767 C 267.708 1.0463 1.56314 0
M  V30 2768 O 267.066 0.0251304 1.81283 0
M  V30 2769 C 267.114 3.4503 1.04818 0
M  V30 2770 O 266.218 3.51163 2.16236 0
M  V30 2771 H 265.559 0.653516 0.117526 0
M  V30 2772 H 268.089 2.02818 -0.269421 0
M  V30 2773 H 268.099 3.84243 1.37191 0
M  V30 2774 H 266.774 4.15077 0.261572 0
M  V30 2775 H 265.351 3.23807 1.84942 0
M  V30 2776 N 267.536 -0.106894 1.57237 0
M  V30 2777 C 268.761 -0.830287 1.90055 0
M  V30 2778 C 269.186 -1.72064 0.75998 0
M  V30 2779 O 268.544 -1.78982 -0.288991 0
M  V30 2780 C 268.592 -1.6295 3.21683 0
M  V30 2781 O 267.696 -2.73748 3.08441 0
M  V30 2782 H 267.037 -0.228855 0.623315 0
M  V30 2783 H 269.567 -0.085658 2.04421 0
M  V30 2784 H 269.577 -2.01621 3.54701 0
M  V30 2785 H 268.252 -0.975989 4.04286 0
M  V30 2786 H 266.829 -2.38192 2.86913 0
M  V30 2787 N 269.014 -1.53014 -0.377408 0
M  V30 2788 C 270.425 -1.60438 -0.954798 0
M  V30 2789 C 270.776 -0.464418 -1.90624 0
M  V30 2790 O 269.901 0.41087 -2.12464 0
M  V30 2791 C 270.496 -2.90797 -1.73847 0
M  V30 2792 C 269.055 -3.00595 -2.26538 0
M  V30 2793 C 268.202 -2.55645 -1.07429 0
M  V30 2794 H 271.153 -1.57926 -0.156575 0
M  V30 2795 H 271.174 -2.77935 -2.5987 0
M  V30 2796 H 270.686 -3.73746 -1.04574 0
M  V30 2797 H 268.787 -2.22208 -2.99089 0
M  V30 2798 H 268.9 -4.05456 -2.5523 0
M  V30 2799 H 267.264 -2.10239 -1.43777 0
M  V30 2800 H 268.047 -3.41 -0.396728 0
M  V30 2801 N 270.492 0.636531 -1.44174 0
M  V30 2802 C 271.738 1.39826 -1.4689 0
M  V30 2803 C 272.071 1.93947 -0.0990585 0
M  V30 2804 O 271.346 1.73325 0.882544 0
M  V30 2805 C 271.629 2.56751 -2.5249 0
M  V30 2806 C 271.482 2.08014 -3.98811 0
M  V30 2807 C 272.801 3.58946 -2.54649 0
M  V30 2808 H 269.92 0.507075 -0.53483 0
M  V30 2809 H 272.562 0.720188 -1.75822 0
M  V30 2810 H 270.712 3.14597 -2.2795 0
M  V30 2811 H 272.384 1.5504 -4.34466 0
M  V30 2812 H 270.627 1.39242 -4.10846 0
M  V30 2813 H 271.298 2.92169 -4.68339 0
M  V30 2814 H 273.774 3.1089 -2.76563 0
M  V30 2815 H 272.65 4.38286 -3.3045 0
M  V30 2816 H 272.911 4.12655 -1.58646 0
M  V30 2817 N 271.97 1.30982 0.876444 0
M  V30 2818 C 273.381 1.18277 1.44456 0
M  V30 2819 C 273.732 -0.213265 1.95037 0
M  V30 2820 O 272.857 -1.11057 1.85729 0
M  V30 2821 C 273.452 2.1411 2.62569 0
M  V30 2822 C 272.011 2.05358 3.15444 0
M  V30 2823 C 271.158 2.03706 1.88146 0
M  V30 2824 H 274.109 1.43127 0.685584 0
M  V30 2825 H 274.13 1.72692 3.39054 0
M  V30 2826 H 273.642 3.15706 2.25724 0
M  V30 2827 H 271.743 1.06934 3.56926 0
M  V30 2828 H 271.856 2.94156 3.78166 0
M  V30 2829 H 270.22 1.48629 2.06837 0
M  V30 2830 H 271.003 3.07047 1.53547 0
M  V30 2831 N 273.449 -1.08991 1.13837 0
M  V30 2832 C 274.359 -2.19301 0.833333 0
M  V30 2833 C 275.375 -1.73026 -0.183847 0
M  V30 2834 O 276.551 -2.01395 -0.0138092 0
M  V30 2835 C 273.616 -3.45323 0.308651 0
M  V30 2836 C 272.677 -4.06255 1.38764 0
M  V30 2837 C 271.91 -5.26262 0.887896 0
M  V30 2838 O 272.133 -5.69747 -0.27287 0
M  V30 2839 O 271.067 -5.78435 1.66421 0
M  V30 2840 H 274.893 -2.47854 1.75506 0
M  V30 2841 H 272.478 -1.18012 0.916166 0
M  V30 2842 H 274.36 -4.21394 0.0216739 0
M  V30 2843 H 273.035 -3.18362 -0.585431 0
M  V30 2844 H 271.942 -3.318 1.72799 0
M  V30 2845 H 273.275 -4.37452 2.25602 0
M  V30 2846 N 274.927 -0.932562 -1.27047 0
M  V30 2847 C 275.837 -0.441219 -2.30414 0
M  V30 2848 C 276.853 0.480525 -1.67233 0
M  V30 2849 O 278.029 0.362151 -1.98117 0
M  V30 2850 C 275.094 0.293651 -3.45454 0
M  V30 2851 C 274.155 -0.663601 -4.2414 0
M  V30 2852 C 273.388 0.0362932 -5.33688 0
M  V30 2853 O 273.611 1.2548 -5.56427 0
M  V30 2854 O 272.545 -0.638015 -5.98509 0
M  V30 2855 H 276.371 -1.29962 -2.74488 0
M  V30 2856 H 273.956 -0.6981 -1.32087 0
M  V30 2857 H 275.838 0.707951 -4.15411 0
M  V30 2858 H 274.513 1.12758 -3.03426 0
M  V30 2859 H 273.42 -1.12768 -3.56699 0
M  V30 2860 H 274.753 -1.46489 -4.69896 0
M  V30 2861 N 276.405 1.4127 -0.698611 0
M  V30 2862 C 277.654 2.00408 -0.227949 0
M  V30 2863 C 277.967 1.55981 1.18023 0
M  V30 2864 O 279.173 2.07699 1.74852 0
M  V30 2865 C 277.629 3.58129 -0.356636 0
M  V30 2866 C 277.237 4.11536 -1.77037 0
M  V30 2867 C 278.981 4.24466 0.0540969 0
M  V30 2868 C 276.888 5.61701 -1.85055 0
M  V30 2869 H 275.818 0.749586 -0.0814657 0
M  V30 2870 H 278.469 1.61713 -0.867249 0
M  V30 2871 H 276.851 3.94442 0.350965 0
M  V30 2872 H 278.025 3.86636 -2.50698 0
M  V30 2873 H 276.34 3.57736 -2.13105 0
M  V30 2874 H 278.937 5.34698 0.0146723 0
M  V30 2875 H 279.28 4.01687 1.09332 0
M  V30 2876 H 279.813 3.93198 -0.603337 0
M  V30 2877 H 276.552 5.89312 -2.8704 0
M  V30 2878 H 276.072 5.88519 -1.15783 0
M  V30 2879 H 277.751 6.26524 -1.61484 0
M  V30 2880 N 277.883 0.443576 1.51229 0
M  V30 2881 C 279.294 -0.0180867 1.86691 0
M  V30 2882 C 279.645 -1.41384 1.36033 0
M  V30 2883 O 278.77 -2.04291 0.713722 0
M  V30 2884 C 279.365 -0.039597 3.38777 0
M  V30 2885 C 277.924 -0.445692 3.73752 0
M  V30 2886 C 277.071 0.357584 2.74985 0
M  V30 2887 H 280.022 0.659138 1.44364 0
M  V30 2888 H 280.043 -0.847761 3.70936 0
M  V30 2889 H 279.555 0.976382 3.75617 0
M  V30 2890 H 277.656 -1.46704 3.42503 0
M  V30 2891 H 277.769 -0.166155 4.78812 0
M  V30 2892 H 276.133 -0.184973 2.54027 0
M  V30 2893 H 276.916 1.37256 3.14668 0
M  V30 2894 N 279.361 -1.56624 0.175154 0
M  V30 2895 C 280.777 -1.58571 -0.180966 0
M  V30 2896 C 280.977 -1.19065 -1.6256 0
M  V30 2897 O 280.033 -0.904044 -2.35761 0
M  V30 2898 C 281.346 -3.00522 0.103326 0
M  V30 2899 C 282.894 -3.12972 0.0418426 0
M  V30 2900 C 283.369 -4.57022 0.299175 0
M  V30 2901 N 284.86 -4.62541 0.247086 0
M  V30 2902 C 285.595 -5.71857 0.420318 0
M  V30 2903 N 285.091 -6.89717 0.652816 0
M  V30 2904 N 286.884 -5.60972 0.355957 0
M  V30 2905 H 279.035 -1.80589 1.11809 0
M  V30 2906 H 281.298 -0.837178 0.444788 0
M  V30 2907 H 281.004 -3.33916 1.10422 0
M  V30 2908 H 280.878 -3.72344 -0.603299 0
M  V30 2909 H 283.265 -2.79403 -0.949636 0
M  V30 2910 H 283.346 -2.43578 0.781238 0
M  V30 2911 H 282.99 -4.913 1.28788 0
M  V30 2912 H 282.92 -5.24579 -0.460876 0
M  V30 2913 H 285.411 -3.77829 0.0731895 0
M  V30 2914 H 285.724 -7.68911 0.774347 0
M  V30 2915 H 284.069 -6.91572 0.689476 0
M  V30 2916 H 287.26 -4.67773 0.174882 0
M  V30 2917 H 287.433 -6.46111 0.494388 0
M  V30 2918 N 280.839 0.0985539 -1.57292 0
M  V30 2919 C 281.772 1.15082 -1.97057 0
M  V30 2920 C 282.75 1.39025 -0.843255 0
M  V30 2921 O 283.934 1.52842 -1.10325 0
M  V30 2922 C 281.061 2.50069 -2.28437 0
M  V30 2923 C 280.107 2.42428 -3.509 0
M  V30 2924 S 280.94 1.84414 -5.02744 0
M  V30 2925 C 282.096 3.21032 -5.37298 0
M  V30 2926 H 282.329 0.811815 -2.86002 0
M  V30 2927 H 279.862 0.306102 -1.51335 0
M  V30 2928 H 281.82 3.27729 -2.47192 0
M  V30 2929 H 280.481 2.8114 -1.40069 0
M  V30 2930 H 279.674 3.41911 -3.70288 0
M  V30 2931 H 279.276 1.72896 -3.31637 0
M  V30 2932 H 281.568 4.17297 -5.33731 0
M  V30 2933 H 282.511 3.06452 -6.38352 0
M  V30 2934 H 282.919 3.20404 -4.64759 0
M  V30 2935 N 282.317 1.53212 0.369288 0
M  V30 2936 C 283.267 1.75769 1.45222 0
M  V30 2937 C 284.251 0.612136 1.48801 0
M  V30 2938 O 285.443 0.870674 1.54105 0
M  V30 2939 C 282.572 1.94769 2.82701 0
M  V30 2940 C 281.658 3.15315 2.83615 0
M  V30 2941 N 282.049 4.37295 2.54178 0
M  V30 2942 C 280.347 3.15962 3.14776 0
M  V30 2943 C 281.048 5.19015 2.62675 0
M  V30 2944 N 280.024 4.55142 2.97232 0
M  V30 2945 H 283.826 2.67691 1.2132 0
M  V30 2946 H 281.34 1.51787 0.577438 0
M  V30 2947 H 283.337 2.09056 3.60696 0
M  V30 2948 H 281.997 1.04073 3.07569 0
M  V30 2949 H 283.008 4.65091 2.27839 0
M  V30 2950 H 279.685 2.35144 3.44983 0
M  V30 2951 H 281.075 6.26305 2.43294 0
M  V30 2952 N 283.795 -0.628877 1.44509 0
M  V30 2953 C 285.206 -1.21054 1.42137 0
M  V30 2954 C 285.557 -1.95715 0.137881 0
M  V30 2955 O 284.682 -2.02554 -0.761645 0
M  V30 2956 C 285.277 -2.20189 2.57493 0
M  V30 2957 C 283.836 -2.73777 2.58308 0
M  V30 2958 C 282.983 -1.48813 2.33987 0
M  V30 2959 H 285.934 -0.41942 1.53057 0
M  V30 2960 H 285.955 -3.02833 2.30375 0
M  V30 2961 H 285.467 -1.6582 3.50892 0
M  V30 2962 H 283.568 -3.32142 1.68856 0
M  V30 2963 H 283.681 -3.19662 3.56865 0
M  V30 2964 H 282.045 -1.77024 1.83124 0
M  V30 2965 H 282.828 -0.963442 3.29504 0
M  V30 2966 N 285.273 -1.31445 -0.869486 0
M  V30 2967 C 286.521 -1.20918 -1.61936 0
M  V30 2968 C 286.842 0.232683 -1.93607 0
M  V30 2969 O 286.112 1.15352 -1.58338 0
M  V30 2970 H 284.692 -0.44454 -0.600328 0
M  V30 2971 H 287.354 -1.64776 -1.0409 0
M  V30 2972 H 286.45 -1.78124 -2.56278 0
M  V30 2973 N 286.751 1.08385 -1.14413 0
M  V30 2974 C 288.167 1.32844 -0.884563 0
M  V30 2975 C 288.367 1.95841 0.474181 0
M  V30 2976 O 287.423 2.21158 1.21842 0
M  V30 2977 C 288.736 2.22978 -2.01745 0
M  V30 2978 C 290.284 2.36458 -2.05077 0
M  V30 2979 C 290.759 3.29934 -3.1766 0
M  V30 2980 N 292.25 3.37511 -3.17239 0
M  V30 2981 C 292.985 4.09871 -4.0099 0
M  V30 2982 N 292.481 4.84936 -4.94781 0
M  V30 2983 N 294.274 4.05704 -3.89051 0
M  V30 2984 H 286.425 0.658756 -2.01926 0
M  V30 2985 H 288.688 0.352821 -0.879899 0
M  V30 2986 H 288.394 1.83934 -2.99769 0
M  V30 2987 H 288.268 3.23441 -1.94077 0
M  V30 2988 H 290.655 2.7476 -1.0766 0
M  V30 2989 H 290.736 1.35736 -2.16816 0
M  V30 2990 H 290.38 2.92352 -4.15322 0
M  V30 2991 H 290.31 4.30584 -3.03158 0
M  V30 2992 H 292.801 2.83996 -2.49308 0
M  V30 2993 H 293.114 5.37612 -5.55151 0
M  V30 2994 H 291.459 4.83988 -4.98779 0
M  V30 2995 H 294.65 3.46167 -3.15097 0
M  V30 2996 H 294.823 4.61834 -4.54547 0
M  V30 2997 N 288.23 0.939286 1.26551 0
M  V30 2998 C 289.178 0.43815 2.28436 0
M  V30 2999 C 290.172 -0.483587 1.62351 0
M  V30 3000 O 291.378 -0.362009 1.76322 0
M  V30 3001 H 287.753 0.123149 0.741848 0
M  V30 3002 H 289.724 1.31002 2.68106 0
M  V30 3003 C 288.473 -0.283052 3.46546 0
M  V30 3004 H 287.796 0.417043 3.97619 0
M  V30 3005 H 289.236 -0.597948 4.19763 0
M  V30 3006 C 287.695 -1.50018 3.01656 0
M  V30 3007 O 288.225 -2.59855 3.0633 0
M  V30 3008 N 286.431 -1.35608 2.57019 0
M  V30 3009 H 285.978 -0.46244 2.53415 0
M  V30 3010 H 285.936 -2.17165 2.27347 0
M  V30 3011 N 289.708 -1.40897 0.706093 0
M  V30 3012 C 290.956 -2.00657 0.241054 0
M  V30 3013 C 291.277 -1.56241 -1.16678 0
M  V30 3014 O 290.547 -0.79765 -1.78926 0
M  V30 3015 H 289.127 -0.742018 0.0861308 0
M  V30 3016 H 291.789 -1.72372 0.909604 0
M  V30 3017 H 290.885 -3.10958 0.266705 0
M  V30 3018 N 291.186 -0.45159 -1.50991 0
M  V30 3019 C 292.133 0.352625 -2.2809 0
M  V30 3020 C 293.103 1.0044 -1.32291 0
M  V30 3021 O 294.288 1.02058 -1.6121 0
M  V30 3022 C 291.428 1.43983 -3.13629 0
M  V30 3023 C 290.541 0.804772 -4.24438 0
M  V30 3024 C 289.676 1.86822 -4.97263 0
M  V30 3025 C 288.715 1.21236 -5.99973 0
M  V30 3026 N 287.852 2.2178 -6.66152 0
M  V30 3027 H 292.692 -0.311186 -2.96371 0
M  V30 3028 H 290.229 -0.165308 -1.46168 0
M  V30 3029 H 292.187 2.08161 -3.61559 0
M  V30 3030 H 290.817 2.07307 -2.47434 0
M  V30 3031 H 289.869 0.0509129 -3.80366 0
M  V30 3032 H 291.181 0.286076 -4.97979 0
M  V30 3033 H 290.335 2.58628 -5.48813 0
M  V30 3034 H 289.074 2.42068 -4.23385 0
M  V30 3035 H 288.079 0.479828 -5.47702 0
M  V30 3036 H 289.304 0.667051 -6.75816 0
M  V30 3037 H 287.25 2.76079 -5.95077 0
M  V30 3038 H 287.167 1.74841 -7.35504 0
M  V30 3039 H 288.435 2.93026 -7.22327 0
M  V30 3040 N 292.664 1.56529 -0.183458 0
M  V30 3041 C 293.611 2.18546 0.742055 0
M  V30 3042 C 294.581 1.12912 1.2182 0
M  V30 3043 O 295.766 1.41115 1.28418 0
M  V30 3044 C 292.906 2.83977 1.96089 0
M  V30 3045 C 292.019 4.04105 1.52719 0
M  V30 3046 C 291.154 4.57427 2.70063 0
M  V30 3047 C 290.193 5.69938 2.23243 0
M  V30 3048 N 289.33 6.17717 3.33722 0
M  V30 3049 H 294.17 2.97284 0.206432 0
M  V30 3050 H 291.707 1.46823 0.0901571 0
M  V30 3051 H 293.665 3.20077 2.67594 0
M  V30 3052 H 292.295 2.07822 2.47002 0
M  V30 3053 H 291.347 3.73745 0.708436 0
M  V30 3054 H 292.659 4.85513 1.1436 0
M  V30 3055 H 291.813 4.95772 3.49708 0
M  V30 3056 H 290.552 3.75101 3.11689 0
M  V30 3057 H 289.557 5.31133 1.42048 0
M  V30 3058 H 290.782 6.54073 1.82661 0
M  V30 3059 H 288.728 5.38317 3.74902 0
M  V30 3060 H 288.645 6.94146 2.99495 0
M  V30 3061 H 289.913 6.60713 4.13616 0
M  V30 3062 N 294.142 -0.090211 1.57342 0
M  V30 3063 C 295.074 -1.13541 1.99101 0
M  V30 3064 C 296.087 -1.3604 0.894258 0
M  V30 3065 O 297.276 -1.34606 1.17233 0
M  V30 3066 C 294.376 -2.49001 2.29895 0
M  V30 3067 C 293.549 -2.46712 3.61182 0
M  V30 3068 C 292.608 -3.64136 3.79857 0
M  V30 3069 O 291.634 -3.46405 4.51655 0
M  V30 3070 N 292.836 -4.83802 3.20806 0
M  V30 3071 H 295.601 -0.779942 2.89373 0
M  V30 3072 H 293.162 -0.279125 1.59476 0
M  V30 3073 H 295.154 -3.26166 2.39578 0
M  V30 3074 H 293.724 -2.76619 1.45605 0
M  V30 3075 H 292.944 -1.55058 3.62423 0
M  V30 3076 H 294.232 -2.42265 4.4742 0
M  V30 3077 H 293.63 -5.01112 2.62494 0
M  V30 3078 H 292.187 -5.58543 3.35966 0
M  V30 3079 N 295.62 -1.53406 -0.361157 0
M  V30 3080 C 296.552 -1.76446 -1.46286 0
M  V30 3081 C 297.565 -0.645322 -1.49464 0
M  V30 3082 O 298.754 -0.921681 -1.52864 0
M  V30 3083 C 295.854 -1.83332 -2.85031 0
M  V30 3084 C 295.027 -3.13033 -3.05498 0
M  V30 3085 C 294.086 -3.11104 -4.24383 0
M  V30 3086 O 293.112 -3.84888 -4.19344 0
M  V30 3087 N 294.314 -2.32234 -5.32022 0
M  V30 3088 H 297.079 -2.71508 -1.26899 0
M  V30 3089 H 294.64 -1.52238 -0.550915 0
M  V30 3090 H 296.632 -1.79514 -3.62708 0
M  V30 3091 H 295.202 -0.955342 -2.97644 0
M  V30 3092 H 294.422 -3.30119 -2.15442 0
M  V30 3093 H 295.71 -3.9874 -3.16044 0
M  V30 3094 H 295.108 -1.71807 -5.38979 0
M  V30 3095 H 293.665 -2.3423 -6.08259 0
M  V30 3096 N 297.098 0.621204 -1.44841 0
M  V30 3097 C 298.514 0.94048 -1.28946 0
M  V30 3098 C 298.714 2.00154 -0.23249 0
M  V30 3099 O 297.77 2.49651 0.378237 0
M  V30 3100 C 299.083 1.39433 -2.66419 0
M  V30 3101 C 300.631 1.50927 -2.74208 0
M  V30 3102 C 301.106 1.99692 -4.12174 0
M  V30 3103 N 302.597 2.06947 -4.144 0
M  V30 3104 C 303.332 2.45871 -5.1801 0
M  V30 3105 N 302.828 2.83862 -6.31977 0
M  V30 3106 N 304.621 2.46092 -5.05366 0
M  V30 3107 H 296.772 -0.0803548 -2.12248 0
M  V30 3108 H 299.035 0.0266913 -0.947624 0
M  V30 3109 H 298.741 0.688925 -3.44887 0
M  V30 3110 H 298.615 2.36347 -2.93973 0
M  V30 3111 H 301.002 2.20561 -1.96053 0
M  V30 3112 H 301.083 0.523627 -2.50383 0
M  V30 3113 H 300.727 1.30649 -4.90809 0
M  V30 3114 H 300.657 2.99146 -4.33381 0
M  V30 3115 H 303.148 1.80232 -3.32152 0
M  V30 3116 H 303.461 3.12405 -7.0684 0
M  V30 3117 H 301.806 2.8159 -6.35399 0
M  V30 3118 H 304.997 2.1581 -4.15384 0
M  V30 3119 H 305.17 2.76102 -5.86235 0
M  V30 3120 N 298.576 1.31904 0.862503 0
M  V30 3121 C 299.523 1.20182 1.9704 0
M  V30 3122 C 300.493 0.0858247 1.65878 0
M  V30 3123 O 301.678 0.26 1.8902 0
M  V30 3124 C 298.818 0.922797 3.32533 0
M  V30 3125 C 297.931 2.12284 3.76244 0
M  V30 3126 C 297.066 1.77996 5.00491 0
M  V30 3127 C 296.105 2.94366 5.36671 0
M  V30 3128 N 295.242 2.60223 6.52095 0
M  V30 3129 H 300.082 2.14951 2.06398 0
M  V30 3130 H 297.619 1.06917 1.01031 0
M  V30 3131 H 299.577 0.741548 4.10557 0
M  V30 3132 H 298.207 0.0119227 3.22798 0
M  V30 3133 H 297.259 2.41461 2.9394 0
M  V30 3134 H 298.571 2.99357 3.98982 0
M  V30 3135 H 297.725 1.56377 5.862 0
M  V30 3136 H 296.464 0.881252 4.79672 0
M  V30 3137 H 295.469 3.16625 4.49476 0
M  V30 3138 H 296.694 3.84957 5.59451 0
M  V30 3139 H 294.64 1.72884 6.32809 0
M  V30 3140 H 294.557 3.40827 6.74814 0
M  V30 3141 H 295.825 2.42016 7.40978 0
M  V30 3142 N 300.054 -1.07777 1.14986 0
M  V30 3143 C 301.465 -1.61766 0.932127 0
M  V30 3144 C 301.816 -1.88974 -0.527581 0
M  V30 3145 O 300.941 -1.65198 -1.39781 0
M  V30 3146 C 301.536 -2.93891 1.68563 0
M  V30 3147 C 300.095 -3.44639 1.5133 0
M  V30 3148 C 299.242 -2.18767 1.704 0
M  V30 3149 H 302.193 -0.909201 1.30074 0
M  V30 3150 H 302.214 -3.62623 1.15259 0
M  V30 3151 H 301.726 -2.74057 2.74799 0
M  V30 3152 H 299.827 -3.69564 0.474702 0
M  V30 3153 H 299.94 -4.20966 2.28746 0
M  V30 3154 H 298.304 -2.28253 1.13016 0
M  V30 3155 H 299.087 -2.01433 2.77992 0
M  V30 3156 N 301.532 -0.945985 -1.26051 0
M  V30 3157 C 302.462 -0.477172 -2.28572 0
M  V30 3158 C 303.443 0.472032 -1.63419 0
M  V30 3159 O 304.628 0.372853 -1.90587 0
M  V30 3160 C 301.758 0.253975 -3.4637 0
M  V30 3161 C 300.712 -0.609135 -4.23643 0
M  V30 3162 C 300.038 0.252252 -5.34105 0
M  V30 3163 C 301.338 -1.8829 -4.8718 0
M  V30 3164 H 303.032 -1.33402 -2.68038 0
M  V30 3165 H 300.578 -0.642904 -1.28852 0
M  V30 3166 H 302.531 0.593016 -4.17207 0
M  V30 3167 H 301.255 1.145 -3.05871 0
M  V30 3168 H 299.914 -0.931138 -3.54578 0
M  V30 3169 H 299.562 1.14278 -4.89846 0
M  V30 3170 H 299.262 -0.32188 -5.86718 0
M  V30 3171 H 300.786 0.586454 -6.07777 0
M  V30 3172 H 302.2 -1.61081 -5.50205 0
M  V30 3173 H 300.597 -2.40199 -5.49931 0
M  V30 3174 H 301.667 -2.59134 -4.09851 0
M  V30 3175 N 303.011 1.40521 -0.713556 0
M  V30 3176 C 304.427 1.54839 -0.386907 0
M  V30 3177 C 304.627 1.68532 1.1045 0
M  V30 3178 O 303.683 1.67377 1.89053 0
M  V30 3179 C 304.996 2.77792 -1.15118 0
M  V30 3180 C 306.544 2.91607 -1.13729 0
M  V30 3181 C 307.019 4.1747 -1.88368 0
M  V30 3182 N 308.51 4.24466 -1.85427 0
M  V30 3183 C 309.245 5.20755 -2.40004 0
M  V30 3184 N 308.741 6.22965 -3.03129 0
M  V30 3185 N 310.534 5.1282 -2.30158 0
M  V30 3186 H 302.685 1.29879 -1.68063 0
M  V30 3187 H 304.948 0.627896 -0.710247 0
M  V30 3188 H 304.654 2.73944 -2.20561 0
M  V30 3189 H 304.528 3.6984 -0.741477 0
M  V30 3190 H 306.915 2.94959 -0.0910608 0
M  V30 3191 H 306.996 2.00682 -1.5862 0
M  V30 3192 H 306.64 4.1488 -2.9298 0
M  V30 3193 H 306.57 5.074 -1.40898 0
M  V30 3194 H 309.061 3.51241 -1.3942 0
M  V30 3195 H 309.374 6.92859 -3.42295 0
M  V30 3196 H 307.719 6.23415 -3.07212 0
M  V30 3197 H 310.91 4.31899 -1.80501 0
M  V30 3198 H 311.083 5.87689 -2.72993 0
M  V30 3199 N 304.489 0.459591 1.5075 0
M  V30 3200 C 305.399 -0.34613 2.32033 0
M  V30 3201 C 306.415 -1.00686 1.41909 0
M  V30 3202 O 307.591 -0.997361 1.7497 0
M  V30 3203 C 304.656 -1.42029 3.16273 0
M  V30 3204 C 303.717 -0.777362 4.22203 0
M  V30 3205 C 302.95 -1.80034 5.02418 0
M  V30 3206 O 303.173 -3.02544 4.83553 0
M  V30 3207 O 302.107 -1.37853 5.85901 0
M  V30 3208 H 305.933 0.318054 3.0203 0
M  V30 3209 H 303.518 0.221663 1.47746 0
M  V30 3210 H 305.4 -2.04275 3.68578 0
M  V30 3211 H 304.075 -2.06815 2.49016 0
M  V30 3212 H 302.982 -0.116256 3.73919 0
M  V30 3213 H 304.315 -0.172634 4.91897 0
M  V30 3214 N 305.967 -1.56429 0.191757 0
M  V30 3215 C 306.914 -2.18936 -0.730454 0
M  V30 3216 C 307.884 -1.13557 -1.21219 0
M  V30 3217 O 309.069 -1.41794 -1.27668 0
M  V30 3218 C 306.209 -2.85013 -1.9458 0
M  V30 3219 C 305.322 -4.04909 -1.50574 0
M  V30 3220 C 304.457 -4.58853 -2.67634 0
M  V30 3221 C 303.496 -5.71114 -2.20217 0
M  V30 3222 N 302.633 -6.19478 -3.30442 0
M  V30 3223 H 307.473 -2.97389 -0.190664 0
M  V30 3224 H 305.01 -1.46869 -0.0823694 0
M  V30 3225 H 306.968 -3.21492 -2.65893 0
M  V30 3226 H 305.598 -2.09129 -2.45896 0
M  V30 3227 H 304.65 -3.74115 -0.688605 0
M  V30 3228 H 305.962 -4.86113 -1.11784 0
M  V30 3229 H 305.116 -4.97619 -3.47074 0
M  V30 3230 H 303.855 -3.76749 -3.09696 0
M  V30 3231 H 302.86 -5.31879 -1.3923 0
M  V30 3232 H 304.085 -6.55033 -1.79189 0
M  V30 3233 H 302.031 -5.40297 -3.72041 0
M  V30 3234 H 301.948 -6.95725 -2.9581 0
M  V30 3235 H 303.216 -6.62898 -4.10106 0
M  V30 3236 N 307.445 0.0818655 -1.57387 0
M  V30 3237 C 308.378 1.12986 -1.98266 0
M  V30 3238 C 309.356 1.38123 -0.857954 0
M  V30 3239 O 310.54 1.51663 -1.1194 0
M  V30 3240 C 307.667 2.47632 -2.31076 0
M  V30 3241 C 306.713 2.38693 -3.53452 0
M  V30 3242 S 307.546 1.79071 -5.04672 0
M  V30 3243 C 308.702 3.15316 -5.40673 0
M  V30 3244 H 308.935 0.781435 -2.86846 0
M  V30 3245 H 306.468 0.290034 -1.51651 0
M  V30 3246 H 308.426 3.25089 -2.50654 0
M  V30 3247 H 307.087 2.79638 -1.43043 0
M  V30 3248 H 306.28 3.37964 -3.73893 0
M  V30 3249 H 305.882 1.69369 -3.33452 0
M  V30 3250 H 308.174 4.11613 -5.38127 0
M  V30 3251 H 309.117 2.99664 -6.41566 0
M  V30 3252 H 309.525 3.15457 -4.68132 0
M  V30 3253 N 308.923 1.53595 0.353017 0
M  V30 3254 C 309.87 1.80919 1.43308 0
M  V30 3255 C 310.84 0.654288 1.5267 0
M  V30 3256 O 312.025 0.897759 1.6836 0
M  V30 3257 C 309.165 2.01605 2.80089 0
M  V30 3258 C 308.278 3.29321 2.79593 0
M  V30 3259 C 307.413 3.40125 4.0803 0
M  V30 3260 C 306.452 4.61826 4.01725 0
M  V30 3261 N 305.589 4.69716 5.21834 0
M  V30 3262 H 310.429 2.73074 1.19308 0
M  V30 3263 H 307.966 1.35263 0.578131 0
M  V30 3264 H 309.924 2.11586 3.59565 0
M  V30 3265 H 308.554 1.12772 3.0246 0
M  V30 3266 H 307.606 3.28229 1.92276 0
M  V30 3267 H 308.918 4.18884 2.70809 0
M  V30 3268 H 308.072 3.49488 4.95927 0
M  V30 3269 H 306.811 2.48601 4.19582 0
M  V30 3270 H 305.816 4.52552 3.12213 0
M  V30 3271 H 307.041 5.54705 3.91764 0
M  V30 3272 H 304.987 3.81097 5.33948 0
M  V30 3273 H 304.904 5.53202 5.1527 0
M  V30 3274 H 306.172 4.83376 6.11529 0
M  V30 3275 N 310.401 -0.613514 1.45168 0
M  V30 3276 C 311.812 -1.19539 1.43413 0
M  V30 3277 C 312.163 -1.95558 0.158632 0
M  V30 3278 O 311.288 -2.0335 -0.740119 0
M  V30 3279 C 311.883 -2.17445 2.59813 0
M  V30 3280 C 310.442 -2.71022 2.61197 0
M  V30 3281 C 309.589 -1.46323 2.35552 0
M  V30 3282 H 312.54 -0.403163 1.53494 0
M  V30 3283 H 312.561 -3.00373 2.33574 0
M  V30 3284 H 312.073 -1.62089 3.52631 0
M  V30 3285 H 310.174 -3.30332 1.7237 0
M  V30 3286 H 310.287 -3.15859 3.60236 0
M  V30 3287 H 308.651 -1.75072 1.84992 0
M  V30 3288 H 309.434 -0.92844 3.30507 0
M  V30 3289 N 311.879 -1.3236 -0.855495 0
M  V30 3290 C 312.789 -1.23221 -1.99634 0
M  V30 3291 C 313.805 -0.145983 -1.73387 0
M  V30 3292 O 314.981 -0.366502 -1.98037 0
M  V30 3293 C 312.046 -0.954782 -3.33294 0
M  V30 3294 C 311.107 -2.12937 -3.72769 0
M  V30 3295 C 310.34 -1.86508 -5.00051 0
M  V30 3296 O 310.563 -0.807231 -5.64659 0
M  V30 3297 O 309.497 -2.72591 -5.36636 0
M  V30 3298 H 313.323 -2.19126 -2.1028 0
M  V30 3299 H 310.908 -1.12241 -0.986018 0
M  V30 3300 H 312.79 -0.816519 -4.13414 0
M  V30 3301 H 311.465 -0.0258854 -3.2369 0
M  V30 3302 H 310.372 -2.3231 -2.93228 0
M  V30 3303 H 311.705 -3.04102 -3.87018 0
M  V30 3304 N 313.357 1.07166 -1.15556 0
M  V30 3305 C 314.773 1.31899 -0.898603 0
M  V30 3306 C 314.973 1.96333 0.453383 0
M  V30 3307 O 314.029 2.22438 1.19489 0
M  V30 3308 C 315.342 2.20826 -2.04099 0
M  V30 3309 C 316.89 2.34269 -2.07574 0
M  V30 3310 C 317.365 3.26546 -3.21141 0
M  V30 3311 N 318.856 3.34127 -3.20801 0
M  V30 3312 C 319.591 4.05595 -4.05315 0
M  V30 3313 N 319.087 4.79661 -4.99897 0
M  V30 3314 N 320.88 4.01555 -3.93332 0
M  V30 3315 H 313.031 0.637302 -2.02613 0
M  V30 3316 H 315.294 0.343468 -0.883591 0
M  V30 3317 H 315 1.80744 -3.01703 0
M  V30 3318 H 314.874 3.21364 -1.97496 0
M  V30 3319 H 317.261 2.73603 -1.10568 0
M  V30 3320 H 317.342 1.33429 -2.18244 0
M  V30 3321 H 316.986 2.87931 -4.184 0
M  V30 3322 H 316.916 4.27345 -3.07708 0
M  V30 3323 H 319.407 2.81336 -2.52306 0
M  V30 3324 H 319.72 5.31694 -5.60822 0
M  V30 3325 H 318.065 4.78671 -5.03884 0
M  V30 3326 H 321.256 3.42806 -3.18751 0
M  V30 3327 H 321.429 4.56987 -4.5942 0
M  V30 3328 N 314.835 0.952656 1.25548 0
M  V30 3329 C 316.075 0.614013 1.9496 0
M  V30 3330 C 316.439 -0.833215 1.72978 0
M  V30 3331 O 317.64 -1.28135 2.36294 0
M  V30 3332 C 315.911 0.960562 3.4425 0
M  V30 3333 S 317.47 0.734195 4.32614 0
M  V30 3334 H 314.288 0.225754 0.674208 0
M  V30 3335 H 316.89 1.22641 1.52248 0
M  V30 3336 H 315.594 2.01103 3.57751 0
M  V30 3337 H 315.125 0.338336 3.91942 0
M  V30 3338 H 317.14 -0.395995 4.94617 0
M  V30 3339 N 316.313 -1.40141 0.720998 0
M  V30 3340 C 317.561 -2.0039 0.262323 0
M  V30 3341 C 317.882 -1.57469 -1.15015 0
M  V30 3342 O 317.152 -0.816582 -1.78069 0
M  V30 3343 H 315.732 -0.741063 0.093996 0
M  V30 3344 H 318.394 -1.71398 0.927835 0
M  V30 3345 H 317.49 -3.10658 0.299671 0
M  V30 3346 N 317.792 -0.46758 -1.50504 0
M  V30 3347 C 319.069 0.15003 -1.95024 0
M  V30 3348 C 319.449 1.57304 -1.40779 0
M  V30 3349 O 318.797 2.20281 -0.607319 0
M  V30 3350 C 319.007 0.0969324 -3.48865 0
M  V30 3351 C 320.355 0.287565 -4.23625 0
M  V30 3352 O 321.379 0.173678 -3.55776 0
M  V30 3353 O 320.238 0.517186 -5.44047 0
M  V30 3354 H 317.332 0.113582 -0.819163 0
M  V30 3355 H 319.878 -0.52773 -1.61286 0
M  V30 3356 H 318.65 -0.896732 -3.80886 0
M  V30 3357 H 318.273 0.816303 -3.8913 0
M  V30 3358 N 319.27 1.56325 -0.20005 0
M  V30 3359 C 320.233 2.18084 0.705132 0
M  V30 3360 C 321.233 1.13666 1.1374 0
M  V30 3361 O 322.423 1.39023 1.04968 0
M  V30 3362 C 319.555 2.78689 1.96329 0
M  V30 3363 H 320.748 2.99435 0.167023 0
M  V30 3364 H 318.301 1.56221 0.0495725 0
M  V30 3365 H 319.036 2.0115 2.5438 0
M  V30 3366 H 318.821 3.55133 1.66202 0
M  V30 3367 H 320.311 3.26096 2.60866 0
M  V30 3368 N 320.748 -0.0735177 1.57428 0
M  V30 3369 C 321.994 -0.774145 1.87443 0
M  V30 3370 C 322.327 -1.77311 0.792103 0
M  V30 3371 O 321.602 -1.93492 -0.197793 0
M  V30 3372 C 321.885 -1.48367 3.28115 0
M  V30 3373 C 321.738 -0.501227 4.46999 0
M  V30 3374 C 323.057 -2.429 3.66998 0
M  V30 3375 H 320.176 -0.279971 0.681752 0
M  V30 3376 H 322.818 -0.0373616 1.89963 0
M  V30 3377 H 320.968 -2.11171 3.26097 0
M  V30 3378 H 322.64 0.121468 4.6114 0
M  V30 3379 H 320.883 0.183593 4.33411 0
M  V30 3380 H 321.554 -1.03526 5.42205 0
M  V30 3381 H 324.03 -1.90175 3.70098 0
M  V30 3382 H 322.906 -2.89549 4.66318 0
M  V30 3383 H 323.167 -3.27628 2.96837 0
M  V30 3384 N 322.226 -1.5378 -0.344866 0
M  V30 3385 C 323.637 -1.62428 -0.920552 0
M  V30 3386 C 323.988 -0.504747 -1.89596 0
M  V30 3387 O 323.113 0.365711 -2.13287 0
M  V30 3388 C 323.708 -2.94419 -1.67639 0
M  V30 3389 C 322.267 -3.05333 -2.20111 0
M  V30 3390 C 321.414 -2.57866 -1.01982 0
M  V30 3391 H 324.365 -1.58222 -0.123042 0
M  V30 3392 H 324.386 -2.83384 -2.53917 0
M  V30 3393 H 323.898 -3.7588 -0.966224 0
M  V30 3394 H 321.999 -2.28502 -2.94308 0
M  V30 3395 H 322.112 -4.10778 -2.46573 0
M  V30 3396 H 320.476 -2.13241 -1.39285 0
M  V30 3397 H 321.259 -3.41765 -0.324308 0
M  V30 3398 N 323.704 0.605807 -1.45491 0
M  V30 3399 C 325.12 0.926751 -1.29936 0
M  V30 3400 C 325.32 1.99896 -0.253706 0
M  V30 3401 O 324.376 2.50038 0.351737 0
M  V30 3402 C 325.689 1.36599 -2.67883 0
M  V30 3403 C 327.237 1.4801 -2.75793 0
M  V30 3404 C 327.712 1.95309 -4.14268 0
M  V30 3405 N 329.203 2.0254 -4.16571 0
M  V30 3406 C 329.938 2.40363 -5.20589 0
M  V30 3407 N 329.434 2.77143 -6.34952 0
M  V30 3408 N 331.227 2.40718 -5.07948 0
M  V30 3409 H 323.378 -0.102862 -2.12151 0
M  V30 3410 H 325.641 0.016639 -0.947854 0
M  V30 3411 H 325.347 0.652306 -3.45598 0
M  V30 3412 H 325.221 2.33215 -2.96463 0
M  V30 3413 H 327.608 2.1847 -1.98381 0
M  V30 3414 H 327.689 0.497041 -2.50925 0
M  V30 3415 H 327.333 1.25436 -4.92167 0
M  V30 3416 H 327.263 2.94532 -4.3653 0
M  V30 3417 H 329.754 1.76699 -3.34045 0
M  V30 3418 H 330.067 3.0489 -7.10114 0
M  V30 3419 H 328.412 2.74834 -6.3835 0
M  V30 3420 H 331.603 2.11392 -4.1765 0
M  V30 3421 H 331.776 2.69869 -5.89131 0
M  V30 3422 N 325.182 1.32811 0.848464 0
M  V30 3423 C 326.598 1.11937 1.13764 0
M  V30 3424 C 326.798 -0.0960789 2.01271 0
M  V30 3425 O 325.854 -0.779165 2.40178 0
M  V30 3426 C 327.167 2.402 1.809 0
M  V30 3427 C 328.715 2.46016 1.93508 0
M  V30 3428 C 329.19 3.74215 2.64059 0
M  V30 3429 N 330.681 3.75232 2.71579 0
M  V30 3430 C 331.416 4.71134 3.26833 0
M  V30 3431 N 330.912 5.77406 3.8285 0
M  V30 3432 N 332.705 4.58623 3.24995 0
M  V30 3433 H 324.856 2.1073 0.265855 0
M  V30 3434 H 327.119 0.930671 0.180431 0
M  V30 3435 H 326.825 3.29093 1.24058 0
M  V30 3436 H 326.699 2.51628 2.81004 0
M  V30 3437 H 329.086 1.57577 2.49506 0
M  V30 3438 H 329.167 2.38536 0.923811 0
M  V30 3439 H 328.811 4.63031 2.08722 0
M  V30 3440 H 328.741 3.78968 3.65637 0
M  V30 3441 H 331.232 2.98423 2.31845 0
M  V30 3442 H 331.545 6.46632 4.23187 0
M  V30 3443 H 329.89 5.81152 3.81165 0
M  V30 3444 H 333.081 3.74762 2.80484 0
M  V30 3445 H 333.254 5.33535 3.67756 0
M  V30 3446 O 326.699 -0.985968 1.2791 0
M  V30 3447 H 327.39 -1.60943 1.07783 0
M  V30 END ATOM
M  V30 BEGIN BOND
M  V30 END BOND
M  V30 END CTAB
M  END
$$$$
