drugbank_target|Q9UNX3 60S ribosomal protein L26-like 1 (DB02494; DB07374; DB08437)
 OpenBabel12092120423D

  0  0  0     0  0            999 V3000
M  V30 BEGIN CTAB
M  V30 COUNTS 2515 2533 0 0 0
M  V30 BEGIN ATOM
M  V30 1 H -0.908 1.98254 -0.117106 0
M  V30 2 N 0 1.576 0 0
M  V30 3 C 0.933 2.03868 1.02534 0
M  V30 4 C 1.911 0.928543 1.3348 0
M  V30 5 O 3.095 1.19667 1.45644 0
M  V30 6 C 0.222 2.43627 2.35294 0
M  V30 7 C -0.732 3.65373 2.2001 0
M  V30 8 S 0.101 5.13292 1.52614 0
M  V30 9 C 1.257 5.56322 2.86805 0
M  V30 10 H 1.49 2.90518 0.631377 0
M  V30 11 H -0.977 1.52953 0.210867 0
M  V30 12 H 0.981 2.67203 3.11629 0
M  V30 13 H -0.358 1.57376 2.7183 0
M  V30 14 H -1.165 3.90944 3.18086 0
M  V30 15 H -1.563 3.418 1.51819 0
M  V30 16 H 0.729 5.58782 3.83104 0
M  V30 17 H 1.672 6.56266 2.65933 0
M  V30 18 H 2.08 4.83886 2.90714 0
M  V30 19 N 1.4781 -0.272755 1.55222 0
M  V30 20 C 2.4251 -1.33716 1.88119 0
M  V30 21 C 3.3951 -1.49066 0.73271 0
M  V30 22 O 4.5801 -1.63469 0.984002 0
M  V30 23 C 1.7201 -2.69238 2.15882 0
M  V30 24 C 0.8331 -2.62108 3.43399 0
M  V30 25 C -0.0319 -3.89811 3.60861 0
M  V30 26 C -0.9929 -3.77193 4.8207 0
M  V30 27 N -1.8559 -4.9673 4.96189 0
M  V30 28 H 2.9841 -1.04962 2.78903 0
M  V30 29 H 0.5211 -0.507088 1.38083 0
M  V30 30 H 2.4791 -3.48089 2.29978 0
M  V30 31 H 1.1091 -2.96194 1.28331 0
M  V30 32 H 0.1611 -1.74967 3.37773 0
M  V30 33 H 1.4731 -2.48685 4.32386 0
M  V30 34 H 0.6271 -4.77103 3.74777 0
M  V30 35 H -0.6339 -4.06102 2.7006 0
M  V30 36 H -1.6289 -2.88284 4.68159 0
M  V30 37 H -0.4039 -3.62421 5.74307 0
M  V30 38 H -2.4579 -5.13431 4.08319 0
M  V30 39 H -2.5409 -4.85839 5.79221 0
M  V30 40 H -1.2729 -5.85594 5.1449 0
M  V30 41 N 2.9562 -1.48159 -0.537278 0
M  V30 42 C 4.2032 -1.55804 -1.29349 0
M  V30 43 C 4.5312 -0.228802 -1.9315 0
M  V30 44 O 3.7862 0.780242 -1.79473 0
M  V30 45 C 4.0852 -2.63956 -2.40961 0
M  V30 46 C 3.7512 -4.0662 -1.94861 0
M  V30 47 C 2.4132 -4.45452 -1.82006 0
M  V30 48 C 4.7652 -4.96055 -1.59933 0
M  V30 49 C 2.0932 -5.71531 -1.32547 0
M  V30 50 C 4.4452 -6.22617 -1.11939 0
M  V30 51 C 3.1092 -6.60312 -0.976951 0
M  V30 52 H 2.3792 -0.570129 -0.473322 0
M  V30 53 H 5.0262 -1.81845 -0.600372 0
M  V30 54 H 3.3312 -2.31747 -3.15912 0
M  V30 55 H 5.0282 -2.67089 -2.99107 0
M  V30 56 H 1.6182 -3.75949 -2.05815 0
M  V30 57 H 5.8022 -4.66738 -1.68728 0
M  V30 58 H 1.0582 -5.99468 -1.202 0
M  V30 59 H 5.2322 -6.91318 -0.839811 0
M  V30 60 H 2.8592 -7.57895 -0.591501 0
M  V30 61 N 4.4343 0.785586 -1.36625 0
M  V30 62 C 5.3823 1.91978 -1.31329 0
M  V30 63 C 6.3763 1.68162 -0.204416 0
M  V30 64 O 7.5823 1.76122 -0.371645 0
M  V30 65 H 3.9573 0.631087 -0.408942 0
M  V30 66 H 5.9283 1.93562 -2.27104 0
M  V30 67 C 4.6773 3.29055 -1.12329 0
M  V30 68 H 4.0003 3.4795 -1.96903 0
M  V30 69 H 5.4403 4.08756 -1.12671 0
M  V30 70 C 3.8993 3.36461 0.171861 0
M  V30 71 O 4.4293 3.84576 1.16035 0
M  V30 72 N 2.6353 2.89782 0.217846 0
M  V30 73 H 2.1823 2.50819 -0.587183 0
M  V30 74 H 2.1403 2.95119 1.08408 0
M  V30 75 N 5.9124 1.20967 1.01018 0
M  V30 76 C 7.3234 1.02319 1.56165 0
M  V30 77 C 7.6744 -0.418546 1.91684 0
M  V30 78 O 6.7994 -1.30096 1.72928 0
M  V30 79 C 7.3944 1.85109 2.8376 0
M  V30 80 C 5.9534 1.70809 3.35412 0
M  V30 81 C 5.1004 1.82643 2.08655 0
M  V30 82 H 8.0514 1.35065 0.833255 0
M  V30 83 H 8.0724 1.35827 3.55431 0
M  V30 84 H 7.5844 2.90035 2.57878 0
M  V30 85 H 5.6854 0.685464 3.66241 0
M  V30 86 H 5.7984 2.52467 4.07182 0
M  V30 87 H 4.1624 1.25896 2.21409 0
M  V30 88 H 4.9454 2.89066 1.85191 0
M  V30 89 N 7.3905 -1.2043 1.01659 0
M  V30 90 C 8.6375 -1.89797 0.705917 0
M  V30 91 C 8.9655 -1.78848 -0.764439 0
M  V30 92 O 8.2205 -1.16694 -1.57102 0
M  V30 93 C 8.5195 -3.40464 1.08714 0
M  V30 94 C 8.1855 -3.71614 2.5537 0
M  V30 95 C 6.8475 -3.79826 2.95441 0
M  V30 96 C 9.1995 -3.85915 3.50313 0
M  V30 97 C 6.5275 -3.99797 4.29394 0
M  V30 98 C 8.8795 -4.07396 4.83954 0
M  V30 99 C 7.5435 -4.13837 5.23732 0
M  V30 100 H 6.8135 -0.694518 0.258313 0
M  V30 101 H 9.4605 -1.42691 1.27717 0
M  V30 102 H 7.7655 -3.89385 0.434309 0
M  V30 103 H 9.4625 -3.92433 0.824461 0
M  V30 104 H 6.0525 -3.65822 2.23321 0
M  V30 105 H 10.2365 -3.78926 3.20513 0
M  V30 106 H 5.4925 -4.03018 4.59768 0
M  V30 107 H 9.6665 -4.17404 5.57447 0
M  V30 108 H 7.2935 -4.29064 6.27541 0
M  V30 109 N 8.8686 -0.792821 -1.36206 0
M  V30 110 C 10.1146 -0.36733 -1.99446 0
M  V30 111 C 10.4476 1.05917 -1.62774 0
M  V30 112 O 9.7226 1.7324 -0.88421 0
M  V30 113 C 10.0056 -0.535044 -3.56103 0
M  V30 114 C 9.8586 -2.00548 -4.02617 0
M  V30 115 C 11.1776 0.0478191 -4.40074 0
M  V30 116 H 8.2966 -0.134941 -0.724541 0
M  V30 117 H 10.9386 -0.999794 -1.61568 0
M  V30 118 H 9.0886 0.00336329 -3.885 0
M  V30 119 H 10.7606 -2.60521 -3.80692 0
M  V30 120 H 9.0036 -2.50686 -3.54032 0
M  V30 121 H 9.6746 -2.07377 -5.11565 0
M  V30 122 H 12.1506 -0.411822 -4.14057 0
M  V30 123 H 11.0266 -0.0995336 -5.4881 0
M  V30 124 H 11.2876 1.14025 -4.27142 0
M  V30 125 N 10.3467 1.47872 -0.545128 0
M  V30 126 C 11.5747 2.06889 -0.021084 0
M  V30 127 C 11.9897 1.39955 1.2672 0
M  V30 128 O 11.3467 0.492036 1.75742 0
M  V30 129 C 11.3977 3.60996 0.190817 0
M  V30 130 O 11.1187 4.25419 -1.04644 0
M  V30 131 C 12.6197 4.36849 0.753521 0
M  V30 132 H 9.8397 0.669785 -0.0403635 0
M  V30 133 H 12.3837 1.90049 -0.755095 0
M  V30 134 H 10.5387 3.77391 0.87492 0
M  V30 135 H 10.9527 5.17785 -0.836611 0
M  V30 136 H 12.4267 5.45399 0.851139 0
M  V30 137 H 12.9037 4.02306 1.762 0
M  V30 138 H 13.5097 4.25169 0.105503 0
M  V30 139 N 11.8248 0.280983 1.55075 0
M  V30 140 C 13.0498 -0.340154 2.04592 0
M  V30 141 C 13.4748 -1.48246 1.15779 0
M  V30 142 O 12.8328 -1.80614 0.15761 0
M  V30 143 C 12.8808 -0.793104 3.5177 0
M  V30 144 O 11.9848 -1.89981 3.66034 0
M  V30 145 H 11.3258 -0.0694289 0.66036 0
M  V30 146 H 13.8558 0.416993 2.00306 0
M  V30 147 H 13.8658 -1.08729 3.93245 0
M  V30 148 H 12.5408 0.0426163 4.15878 0
M  V30 149 H 11.1178 -1.60771 3.36463 0
M  V30 150 N 13.3029 -1.57598 0.00835791 0
M  V30 151 C 14.5799 -1.82172 -0.712235 0
M  V30 152 C 14.9599 -0.887873 -1.9152 0
M  V30 153 O 14.3079 0.06146 -2.28417 0
M  V30 154 C 14.5179 -3.30875 -1.11008 0
M  V30 155 C 15.8659 -3.96826 -1.51044 0
M  V30 156 O 16.8899 -3.35248 -1.20364 0
M  V30 157 O 15.7489 -5.05318 -2.08125 0
M  V30 158 H 12.8429 -0.750435 -0.347529 0
M  V30 159 H 15.3889 -1.69665 0.0344523 0
M  V30 160 H 14.1609 -3.90481 -0.252982 0
M  V30 161 H 13.7839 -3.48412 -1.9156 0
M  V30 162 N 14.781 0.264519 -1.55364 0
M  V30 163 C 16.197 0.61215 -1.47394 0
M  V30 164 C 16.397 1.89134 -0.695018 0
M  V30 165 O 15.453 2.51563 -0.217275 0
M  V30 166 C 16.766 0.731235 -2.91674 0
M  V30 167 C 18.314 0.82473 -3.01939 0
M  V30 168 C 18.789 0.975522 -4.4749 0
M  V30 169 N 20.28 1.04083 -4.51354 0
M  V30 170 C 21.015 1.17646 -5.61201 0
M  V30 171 N 20.511 1.27874 -6.80896 0
M  V30 172 N 22.304 1.20823 -5.48961 0
M  V30 173 H 14.455 -0.575456 -2.04456 0
M  V30 174 H 16.718 -0.196099 -0.927496 0
M  V30 175 H 16.424 -0.138392 -3.51428 0
M  V30 176 H 16.298 1.60883 -3.41169 0
M  V30 177 H 18.685 1.68482 -2.42276 0
M  V30 178 H 18.766 -0.0776479 -2.55682 0
M  V30 179 H 18.41 0.120058 -5.07758 0
M  V30 180 H 18.34 1.89268 -4.91412 0
M  V30 181 H 20.831 0.973846 -3.65136 0
M  V30 182 H 21.144 1.38081 -7.60364 0
M  V30 183 H 19.489 1.24863 -6.83692 0
M  V30 184 H 22.68 1.12469 -4.54388 0
M  V30 185 H 22.853 1.31049 -6.3461 0
M  V30 186 N 16.2591 1.48442 0.529413 0
M  V30 187 C 17.4841 1.60406 1.31471 0
M  V30 188 C 17.9091 0.264738 1.86228 0
M  V30 189 O 17.2671 -0.763668 1.64432 0
M  V30 190 C 17.3151 2.65419 2.44101 0
M  V30 191 O 16.4191 2.22618 3.47153 0
M  V30 192 H 15.7601 0.537863 0.389357 0
M  V30 193 H 18.2901 1.94432 0.636965 0
M  V30 194 H 18.3001 2.86709 2.90279 0
M  V30 195 H 16.9751 3.62652 2.03608 0
M  V30 196 H 15.5521 2.11543 3.0709 0
M  V30 197 N 17.7372 -0.778329 1.37039 0
M  V30 198 C 18.6842 -1.89139 1.32269 0
M  V30 199 C 19.6542 -1.65017 0.189387 0
M  V30 200 O 20.8392 -1.87024 0.377693 0
M  V30 201 C 17.9792 -3.26112 1.12894 0
M  V30 202 C 17.0922 -3.62233 2.35396 0
M  V30 203 C 16.2272 -4.8838 2.08946 0
M  V30 204 C 15.2662 -5.17212 3.2735 0
M  V30 205 N 14.4032 -6.34546 3.00492 0
M  V30 206 H 19.2432 -1.92552 2.27437 0
M  V30 207 H 16.7802 -0.941473 1.13025 0
M  V30 208 H 18.7382 -4.05116 0.996835 0
M  V30 209 H 17.3682 -3.22091 0.213758 0
M  V30 210 H 16.4202 -2.78265 2.5937 0
M  V30 211 H 17.7322 -3.79481 3.23721 0
M  V30 212 H 16.8862 -5.75274 1.92729 0
M  V30 213 H 15.6252 -4.73222 1.17949 0
M  V30 214 H 14.6302 -4.28796 3.44113 0
M  V30 215 H 15.8552 -5.34283 4.19188 0
M  V30 216 H 13.8012 -6.20759 2.12118 0
M  V30 217 H 13.7182 -6.52179 3.82358 0
M  V30 218 H 14.9862 -7.24394 2.87879 0
M  V30 219 N 19.2153 -1.21501 -1.00376 0
M  V30 220 C 20.1633 -0.972442 -2.11297 0
M  V30 221 C 21.1573 0.080731 -1.69208 0
M  V30 222 O 22.3633 -0.0707666 -1.79861 0
M  V30 223 H 18.7383 -0.297218 -0.690772 0
M  V30 224 H 20.7093 -1.91394 -2.28934 0
M  V30 225 C 19.4583 -0.555065 -3.43241 0
M  V30 226 H 18.7813 -1.35709 -3.76062 0
M  V30 227 H 20.2213 -0.424664 -4.21868 0
M  V30 228 C 18.6803 0.734147 -3.28804 0
M  V30 229 O 19.2103 1.78937 -3.59645 0
M  V30 230 N 17.4163 0.701133 -2.82015 0
M  V30 231 H 16.9633 -0.157874 -2.57116 0
M  V30 232 H 16.9213 1.56403 -2.72737 0
M  V30 233 N 20.6934 1.19889 -1.02296 0
M  V30 234 C 22.1094 1.41462 -0.738954 0
M  V30 235 C 22.3094 1.89721 0.678846 0
M  V30 236 O 21.3654 2.07016 1.4457 0
M  V30 237 C 22.6784 2.43083 -1.77005 0
M  V30 238 C 24.2264 2.5684 -1.78892 0
M  V30 239 C 24.7014 3.61709 -2.80945 0
M  V30 240 N 26.1924 3.69199 -2.79725 0
M  V30 241 C 26.9274 4.50019 -3.55345 0
M  V30 242 N 26.4234 5.34592 -4.40662 0
M  V30 243 N 28.2164 4.44612 -3.43914 0
M  V30 244 H 20.3674 0.868827 -1.93817 0
M  V30 245 H 22.6304 0.44399 -0.837602 0
M  V30 246 H 22.3364 2.14636 -2.78612 0
M  V30 247 H 22.2104 3.4217 -1.58744 0
M  V30 248 H 24.5974 2.84614 -0.779674 0
M  V30 249 H 24.6784 1.57927 -2.01228 0
M  V30 250 H 24.3224 3.34678 -3.82038 0
M  V30 251 H 24.2524 4.60259 -2.5587 0
M  V30 252 H 26.7434 3.08794 -2.17842 0
M  V30 253 H 27.0564 5.93363 -4.95116 0
M  V30 254 H 25.4014 5.34073 -4.44737 0
M  V30 255 H 28.5924 3.7758 -2.76679 0
M  V30 256 H 28.7654 5.0736 -4.031 0
M  V30 257 N 22.1715 0.800033 1.35784 0
M  V30 258 C 23.1185 0.203848 2.29898 0
M  V30 259 C 24.0885 -0.658375 1.52495 0
M  V30 260 O 25.2735 -0.604832 1.8096 0
M  V30 261 C 22.4135 -0.64688 3.38983 0
M  V30 262 C 21.5265 0.235054 4.3136 0
M  V30 263 C 20.6615 -0.623054 5.27533 0
M  V30 264 C 19.7005 0.259682 6.11549 0
M  V30 265 N 18.8375 -0.558019 6.99879 0
M  V30 266 H 23.6775 1.01186 2.80295 0
M  V30 267 H 21.2145 0.51053 1.37957 0
M  V30 268 H 23.1725 -1.15521 4.00887 0
M  V30 269 H 21.8025 -1.42021 2.89879 0
M  V30 270 H 20.8545 0.861438 3.70518 0
M  V30 271 H 22.1665 0.914768 4.9034 0
M  V30 272 H 21.3205 -1.19678 5.94779 0
M  V30 273 H 20.0595 -1.33636 4.69034 0
M  V30 274 H 19.0645 0.845726 5.43256 0
M  V30 275 H 20.2895 0.970748 6.72126 0
M  V30 276 H 18.2355 -1.25542 6.43875 0
M  V30 277 H 18.1525 0.0637872 7.55973 0
M  V30 278 H 19.4205 -1.11523 7.71481 0
M  V30 279 N 23.6496 -1.47581 0.552962 0
M  V30 280 C 25.0656 -1.5818 0.212424 0
M  V30 281 C 25.2656 -1.55213 -1.28496 0
M  V30 282 O 24.3216 -1.45329 -2.06484 0
M  V30 283 C 25.6346 -2.88865 0.835318 0
M  V30 284 C 27.1826 -3.0244 0.806156 0
M  V30 285 C 27.6576 -4.35819 1.40804 0
M  V30 286 N 29.1486 -4.42444 1.37103 0
M  V30 287 C 29.8836 -5.44202 1.80641 0
M  V30 288 N 29.3796 -6.52795 2.32015 0
M  V30 289 N 31.1726 -5.35222 1.71738 0
M  V30 290 H 23.3236 -1.47753 1.52587 0
M  V30 291 H 25.5866 -0.702941 0.636064 0
M  V30 292 H 25.2926 -2.9676 1.88749 0
M  V30 293 H 25.1666 -3.7579 0.325848 0
M  V30 294 H 27.5536 -2.94144 -0.237317 0
M  V30 295 H 27.6346 -2.17068 1.35334 0
M  V30 296 H 27.2786 -4.44871 2.45056 0
M  V30 297 H 27.2086 -5.19916 0.836338 0
M  V30 298 H 29.6996 -3.6456 0.995202 0
M  V30 299 H 30.0126 -7.26609 2.63171 0
M  V30 300 H 28.3576 -6.53696 2.36023 0
M  V30 301 H 31.5486 -4.49284 1.31382 0
M  V30 302 H 31.7216 -6.14389 2.05987 0
M  V30 303 N 25.1277 -0.289203 -1.54924 0
M  V30 304 C 26.0777 0.606939 -2.19773 0
M  V30 305 C 27.0617 1.10783 -1.16687 0
M  V30 306 O 28.2537 1.05057 -1.4245 0
M  V30 307 C 25.3827 1.78398 -2.93307 0
M  V30 308 C 24.4687 1.29961 -4.03697 0
M  V30 309 N 24.8597 0.532377 -5.0299 0
M  V30 310 C 23.1577 1.58136 -4.17024 0
M  V30 311 C 23.8587 0.275912 -5.81045 0
M  V30 312 N 22.8347 0.852365 -5.36876 0
M  V30 313 H 26.6367 0.0130779 -2.93897 0
M  V30 314 H 24.1507 -0.09341 -1.62131 0
M  V30 315 H 26.1477 2.43741 -3.38225 0
M  V30 316 H 24.8077 2.38166 -2.20697 0
M  V30 317 H 25.8187 0.17838 -5.17593 0
M  V30 318 H 22.4957 2.18738 -3.55612 0
M  V30 319 H 23.8857 -0.339502 -6.71042 0
M  V30 320 N 26.6058 1.57591 -0.0167156 0
M  V30 321 C 27.8528 1.91283 0.664597 0
M  V30 322 C 28.1808 0.891949 1.72842 0
M  V30 323 O 27.4358 -0.100931 1.9544 0
M  V30 324 C 27.7348 3.3172 1.33029 0
M  V30 325 C 27.4008 4.4914 0.398047 0
M  V30 326 C 26.0628 4.80992 0.141421 0
M  V30 327 C 28.4148 5.20634 -0.242825 0
M  V30 328 C 25.7428 5.81703 -0.764092 0
M  V30 329 C 28.0948 6.22311 -1.13632 0
M  V30 330 C 26.7588 6.52611 -1.40196 0
M  V30 331 H 26.0288 0.699956 0.243193 0
M  V30 332 H 28.6758 1.9135 -0.0758267 0
M  V30 333 H 26.9808 3.27856 2.14517 0
M  V30 334 H 28.6778 3.55055 1.86379 0
M  V30 335 H 25.2678 4.24262 0.608238 0
M  V30 336 H 29.4518 4.96267 -0.0576019 0
M  V30 337 H 24.7078 6.03532 -0.977732 0
M  V30 338 H 28.8818 6.76834 -1.63917 0
M  V30 339 H 26.5088 7.30467 -2.10529 0
M  V30 340 N 28.0839 -0.256276 1.55502 0
M  V30 341 C 29.0319 -1.33694 1.90338 0
M  V30 342 C 30.0259 -1.50299 0.781441 0
M  V30 343 O 31.2319 -1.51885 0.965966 0
M  V30 344 H 27.6069 -0.447483 0.60437 0
M  V30 345 H 29.5779 -1.01574 2.8058 0
M  V30 346 C 28.3269 -2.68724 2.20642 0
M  V30 347 H 27.6499 -2.56743 3.06469 0
M  V30 348 H 29.0899 -3.43237 2.48926 0
M  V30 349 C 27.5489 -3.21101 1.01959 0
M  V30 350 O 28.0789 -4.0084 0.262762 0
M  V30 351 N 26.2849 -2.79003 0.812746 0
M  V30 352 H 25.8319 -2.14271 1.42989 0
M  V30 353 H 25.7899 -3.14393 0.0203076 0
M  V30 354 N 29.562 -1.4872 -0.521534 0
M  V30 355 C 30.525 -1.63379 -1.60748 0
M  V30 356 C 31.525 -0.50661 -1.52611 0
M  V30 357 O 32.715 -0.772601 -1.5613 0
M  V30 358 C 29.847 -1.61192 -3.00383 0
M  V30 359 H 31.04 -2.60217 -1.49087 0
M  V30 360 H 28.593 -1.37444 -0.744235 0
M  V30 361 H 29.328 -0.65863 -3.17541 0
M  V30 362 H 29.113 -2.43032 -3.07698 0
M  V30 363 H 30.603 -1.7466 -3.7932 0
M  V30 364 N 31.0401 0.771051 -1.3745 0
M  V30 365 C 32.4511 1.34737 -1.29239 0
M  V30 366 C 32.8021 1.96109 0.0596908 0
M  V30 367 O 31.9271 1.93865 0.961534 0
M  V30 368 C 32.5221 2.44973 -2.34037 0
M  V30 369 C 31.0811 2.98372 -2.29458 0
M  V30 370 C 30.2281 1.71595 -2.17831 0
M  V30 371 H 33.1791 0.571256 -1.48062 0
M  V30 372 H 33.2001 3.24471 -1.98744 0
M  V30 373 H 32.7121 2.00276 -3.32432 0
M  V30 374 H 30.8131 3.47443 -1.34589 0
M  V30 375 H 30.9261 3.53939 -3.229 0
M  V30 376 H 29.2901 1.94547 -1.64388 0
M  V30 377 H 30.0731 1.29001 -3.18141 0
M  V30 378 N 32.5182 1.22032 0.997298 0
M  V30 379 C 33.7432 1.06921 1.77715 0
M  V30 380 C 34.1682 -0.376226 1.84299 0
M  V30 381 O 33.5262 -1.27165 1.29223 0
M  V30 382 C 33.5742 1.67996 3.19076 0
M  V30 383 O 32.6782 0.930653 4.01762 0
M  V30 384 H 32.0192 0.375814 0.547412 0
M  V30 385 H 34.5492 1.61737 1.25309 0
M  V30 386 H 34.5592 1.72538 3.69723 0
M  V30 387 H 33.2342 2.73182 3.13599 0
M  V30 388 H 31.8112 0.960917 3.60307 0
M  V30 389 N 33.9963 -1.19345 1.0293 0
M  V30 390 C 34.9463 -2.20472 0.58104 0
M  V30 391 C 35.9303 -1.56578 -0.370442 0
M  V30 392 O 37.1223 -1.75963 -0.191344 0
M  V30 393 C 34.2513 -3.43236 -0.066306 0
M  V30 394 C 33.3373 -4.14274 0.907642 0
M  V30 395 N 33.7283 -4.61492 2.07023 0
M  V30 396 C 32.0263 -4.39966 0.731177 0
M  V30 397 C 32.7273 -5.1605 2.68454 0
M  V30 398 N 31.7033 -5.06875 1.96414 0
M  V30 399 H 35.5053 -2.54659 1.46717 0
M  V30 400 H 33.0193 -1.35423 0.896345 0
M  V30 401 H 35.0163 -4.14927 -0.405068 0
M  V30 402 H 33.6763 -3.10549 -0.948118 0
M  V30 403 H 34.6873 -4.56304 2.44963 0
M  V30 404 H 31.3643 -4.17377 -0.101507 0
M  V30 405 H 32.7543 -5.6287 3.66915 0
M  V30 406 N 35.4744 -0.807222 -1.35358 0
M  V30 407 C 36.7204 -0.388463 -1.99045 0
M  V30 408 C 37.0534 1.04184 -1.63888 0
M  V30 409 O 36.3284 1.72292 -0.902535 0
M  V30 410 C 36.6114 -0.572783 -3.55515 0
M  V30 411 C 36.4644 -2.04807 -4.00468 0
M  V30 412 C 37.7834 0.00114064 -4.401 0
M  V30 413 H 34.9024 -0.142619 -0.723069 0
M  V30 414 H 37.5444 -1.01687 -1.60498 0
M  V30 415 H 35.6944 -0.0378425 -3.88482 0
M  V30 416 H 37.3664 -2.64544 -3.77908 0
M  V30 417 H 35.6094 -2.54427 -3.51353 0
M  V30 418 H 36.2804 -2.12792 -5.09337 0
M  V30 419 H 38.7564 -0.455716 -4.13597 0
M  V30 420 H 37.6324 -0.157737 -5.48673 0
M  V30 421 H 37.8934 1.09488 -4.28328 0
M  V30 422 N 36.9525 1.47285 -0.560781 0
M  V30 423 C 38.3685 1.58065 -0.22081 0
M  V30 424 C 38.5685 1.55892 1.27671 0
M  V30 425 O 37.6245 1.46422 2.0571 0
M  V30 426 C 38.9375 2.88418 -0.850625 0
M  V30 427 C 40.4855 3.02009 -0.822184 0
M  V30 428 C 40.9605 4.35066 -1.43113 0
M  V30 429 N 42.4515 4.41711 -1.39448 0
M  V30 430 C 43.1865 5.43237 -1.83525 0
M  V30 431 N 42.6825 6.51555 -2.35474 0
M  V30 432 N 44.4755 5.34304 -1.74574 0
M  V30 433 H 36.6265 1.46941 -1.53369 0
M  V30 434 H 38.8895 0.699558 -0.639783 0
M  V30 435 H 38.5955 2.95755 -1.9032 0
M  V30 436 H 38.4695 3.75612 -0.345773 0
M  V30 437 H 40.8565 2.94266 0.221714 0
M  V30 438 H 40.9375 2.16347 -1.36483 0
M  V30 439 H 40.5815 4.43565 -2.47412 0
M  V30 440 H 40.5115 5.19465 -0.863899 0
M  V30 441 H 43.0025 3.64027 -1.01452 0
M  V30 442 H 43.3155 7.25203 -2.67021 0
M  V30 443 H 41.6605 6.52435 -2.39487 0
M  V30 444 H 44.8515 4.48581 -1.33763 0
M  V30 445 H 45.0245 6.13288 -2.09242 0
M  V30 446 N 38.4306 0.297415 1.54768 0
M  V30 447 C 39.8466 -0.0560823 1.59501 0
M  V30 448 C 40.0466 -1.52725 1.31444 0
M  V30 449 O 39.1026 -2.27947 1.08611 0
M  V30 450 C 40.4156 0.338631 2.98787 0
M  V30 451 C 41.9636 0.287097 3.11681 0
M  V30 452 C 42.4386 0.656579 4.53269 0
M  V30 453 N 43.9296 0.608977 4.59179 0
M  V30 454 C 44.6646 0.867385 5.66802 0
M  V30 455 N 44.1606 1.19157 6.82476 0
M  V30 456 N 45.9536 0.794687 5.56454 0
M  V30 457 H 38.1046 1.25624 1.71267 0
M  V30 458 H 40.3676 0.509057 0.799728 0
M  V30 459 H 40.0736 1.36263 3.2423 0
M  V30 460 H 39.9476 -0.309508 3.75928 0
M  V30 461 H 42.3346 -0.727649 2.85988 0
M  V30 462 H 42.4156 0.969809 2.36703 0
M  V30 463 H 42.0596 1.66912 4.7969 0
M  V30 464 H 41.9896 -0.0481649 5.26578 0
M  V30 465 H 44.4806 0.369198 3.76092 0
M  V30 466 H 44.7936 1.37482 7.60473 0
M  V30 467 H 43.1386 1.22958 6.84037 0
M  V30 468 H 46.3296 0.541098 4.64962 0
M  V30 469 H 46.5026 0.999445 6.40246 0
M  V30 470 N 39.9087 -1.5758 0.0250728 0
M  V30 471 C 40.8557 -2.09973 -0.958129 0
M  V30 472 C 41.8257 -1.00085 -1.3256 0
M  V30 473 O 43.0107 -1.27481 -1.41962 0
M  V30 474 C 40.1507 -2.62812 -2.2366 0
M  V30 475 C 39.2637 -3.86693 -1.92594 0
M  V30 476 C 38.3987 -4.27941 -3.14707 0
M  V30 477 C 37.4377 -5.44591 -2.79442 0
M  V30 478 N 36.5747 -5.81014 -3.94167 0
M  V30 479 H 41.4147 -2.937 -0.504428 0
M  V30 480 H 38.9517 -1.45172 -0.237392 0
M  V30 481 H 40.9097 -2.91536 -2.98434 0
M  V30 482 H 39.5397 -1.81922 -2.66654 0
M  V30 483 H 38.5917 -3.64723 -1.0808 0
M  V30 484 H 39.9037 -4.71547 -1.62619 0
M  V30 485 H 39.0577 -4.58079 -3.97804 0
M  V30 486 H 37.7967 -3.41845 -3.4784 0
M  V30 487 H 36.8017 -5.1415 -1.94755 0
M  V30 488 H 38.0267 -6.32382 -2.47528 0
M  V30 489 H 35.9727 -4.97874 -4.2715 0
M  V30 490 H 35.8897 -6.60498 -3.67801 0
M  V30 491 H 37.1577 -6.15756 -4.7798 0
M  V30 492 N 41.3868 0.248026 -1.55636 0
M  V30 493 C 42.6358 0.974134 -1.76617 0
M  V30 494 C 42.9488 1.86528 -0.588796 0
M  V30 495 O 44.1548 2.62805 -0.681594 0
M  V30 496 C 42.6108 1.78213 -3.12679 0
M  V30 497 C 42.2188 0.93843 -4.38061 0
M  V30 498 C 43.9628 2.50104 -3.42999 0
M  V30 499 C 41.8698 1.74225 -5.65155 0
M  V30 500 H 40.7998 0.36745 -0.658405 0
M  V30 501 H 43.4508 0.22884 -1.82067 0
M  V30 502 H 41.8328 2.56933 -3.01333 0
M  V30 503 H 43.0068 0.193635 -4.60393 0
M  V30 504 H 41.3218 0.332905 -4.15067 0
M  V30 505 H 43.9188 3.10694 -4.3517 0
M  V30 506 H 44.2618 3.21662 -2.64271 0
M  V30 507 H 44.7948 1.78395 -3.55556 0
M  V30 508 H 41.5338 1.07043 -6.46701 0
M  V30 509 H 41.0538 2.46235 -5.46926 0
M  V30 510 H 42.7328 2.30967 -6.0437 0
M  V30 511 N 42.8649 1.48995 0.513639 0
M  V30 512 C 43.7979 1.59319 1.63379 0
M  V30 513 C 44.7759 0.442816 1.56454 0
M  V30 514 O 45.9599 0.656655 1.76693 0
M  V30 515 C 43.0869 1.5364 3.01848 0
M  V30 516 C 42.1329 2.7372 3.27078 0
M  V30 517 S 42.9659 4.35528 3.1157 0
M  V30 518 C 44.1219 4.32473 4.52458 0
M  V30 519 H 44.3549 2.54079 1.54374 0
M  V30 520 H 41.8879 1.3773 0.697849 0
M  V30 521 H 43.8459 1.51049 3.81699 0
M  V30 522 H 42.5069 0.601898 3.08279 0
M  V30 523 H 41.6999 2.6593 4.28132 0
M  V30 524 H 41.3019 2.73657 2.54927 0
M  V30 525 H 43.5939 4.03414 5.44301 0
M  V30 526 H 44.5369 5.33762 4.65299 0
M  V30 527 H 44.9449 3.62718 4.32546 0
M  V30 528 N 44.343 -0.763751 1.37857 0
M  V30 529 C 45.568 -1.55805 1.36893 0
M  V30 530 C 45.993 -1.88054 -0.0416135 0
M  V30 531 O 45.351 -1.49825 -1.02089 0
M  V30 532 C 45.399 -2.84012 2.22192 0
M  V30 533 O 44.503 -3.78732 1.63204 0
M  V30 534 H 43.844 -0.471638 0.46739 0
M  V30 535 H 46.374 -0.944657 1.81487 0
M  V30 536 H 46.384 -3.33037 2.35691 0
M  V30 537 H 45.059 -2.59869 3.24716 0
M  V30 538 H 43.636 -3.37402 1.58791 0
M  V30 539 N 45.8211 -1.22559 -0.990812 0
M  V30 540 C 47.0461 -1.07862 -1.77145 0
M  V30 541 C 47.4711 0.366447 -1.84496 0
M  V30 542 O 46.8291 1.26478 -1.29896 0
M  V30 543 C 46.8771 -1.69686 -3.18181 0
M  V30 544 O 45.9811 -0.951946 -4.01263 0
M  V30 545 H 45.3221 -0.378712 -0.545411 0
M  V30 546 H 47.8521 -1.62399 -1.2445 0
M  V30 547 H 47.8621 -1.74496 -3.68802 0
M  V30 548 H 46.5371 -2.74841 -3.12146 0
M  V30 549 H 45.1141 -0.980011 -3.59792 0
M  V30 550 N 47.2992 1.18797 -1.03562 0
M  V30 551 C 48.7102 1.70322 -0.764676 0
M  V30 552 C 49.0612 1.82708 0.714996 0
M  V30 553 O 48.1862 1.50299 1.55689 0
M  V30 554 C 48.7812 3.09356 -1.38145 0
M  V30 555 C 47.3402 3.58114 -1.15895 0
M  V30 556 C 46.4872 2.34798 -1.4753 0
M  V30 557 H 49.4382 1.03543 -1.20268 0
M  V30 558 H 49.4592 3.72378 -0.781977 0
M  V30 559 H 48.9712 3.00309 -2.45837 0
M  V30 560 H 47.0722 3.72464 -0.100544 0
M  V30 561 H 47.1852 4.4184 -1.8524 0
M  V30 562 H 45.5492 2.38464 -0.894829 0
M  V30 563 H 46.3322 2.28375 -2.56319 0
M  V30 564 N 48.7773 0.814389 1.34928 0
M  V30 565 C 49.7073 0.244827 2.32213 0
M  V30 566 C 50.6883 -0.634024 1.57842 0
M  V30 567 O 51.8733 -0.562676 1.8587 0
M  V30 568 C 49.0033 -0.601106 3.42058 0
M  V30 569 C 47.9573 0.179896 4.27622 0
M  V30 570 C 47.2833 -0.788237 5.28858 0
M  V30 571 C 48.5833 1.38329 5.03649 0
M  V30 572 H 50.2773 1.05763 2.80097 0
M  V30 573 H 47.8233 0.510029 1.34665 0
M  V30 574 H 49.7763 -1.00968 4.09125 0
M  V30 575 H 48.5003 -1.44688 2.92802 0
M  V30 576 H 47.1593 0.569739 3.62146 0
M  V30 577 H 46.8073 -1.62973 4.75866 0
M  V30 578 H 46.5073 -0.269942 5.8698 0
M  V30 579 H 48.0313 -1.19485 5.98795 0
M  V30 580 H 49.4453 1.04918 5.63618 0
M  V30 581 H 47.8423 1.83662 5.71304 0
M  V30 582 H 48.9123 2.16592 4.33839 0
M  V30 583 N 50.2554 -1.46986 0.568584 0
M  V30 584 C 51.4804 -2.07335 0.0520528 0
M  V30 585 C 51.9054 -1.41675 -1.23733 0
M  V30 586 O 51.2634 -0.495623 -1.74394 0
M  V30 587 C 51.3114 -3.60417 -0.11501 0
M  V30 588 O 50.4154 -3.95309 -1.17492 0
M  V30 589 H 49.7564 -0.661597 0.0564385 0
M  V30 590 H 52.2864 -1.88837 0.787507 0
M  V30 591 H 52.2964 -4.06698 -0.325644 0
M  V30 592 H 50.9714 -4.07601 0.826675 0
M  V30 593 H 49.5484 -3.60757 -0.943869 0
M  V30 594 N 51.7335 -0.305618 -1.54608 0
M  V30 595 C 52.6805 0.568421 -2.23691 0
M  V30 596 C 53.6505 1.12592 -1.22116 0
M  V30 597 O 54.8355 1.16959 -1.50749 0
M  V30 598 C 51.9755 1.7322 -2.98477 0
M  V30 599 C 51.0885 1.20566 -4.14835 0
M  V30 600 C 50.2235 2.33368 -4.77193 0
M  V30 601 C 49.2625 1.7787 -5.85686 0
M  V30 602 N 48.3995 2.84263 -6.4198 0
M  V30 603 H 53.2395 -0.0272867 -2.97988 0
M  V30 604 H 50.7765 -0.0252363 -1.47078 0
M  V30 605 H 52.7345 2.41675 -3.40072 0
M  V30 606 H 51.3645 2.29947 -2.26548 0
M  V30 607 H 50.4165 0.413223 -3.78149 0
M  V30 608 H 51.7285 0.759417 -4.92985 0
M  V30 609 H 50.8825 3.09761 -5.21664 0
M  V30 610 H 49.6215 2.8132 -3.98385 0
M  V30 611 H 48.6265 0.99968 -5.40635 0
M  V30 612 H 49.8515 1.30816 -6.66381 0
M  V30 613 H 47.7975 3.31541 -5.66053 0
M  V30 614 H 47.7145 2.44149 -7.15491 0
M  V30 615 H 48.9825 3.6054 -6.91109 0
M  V30 616 N 53.2116 1.57565 -0.0334293 0
M  V30 617 C 54.1216 2.13943 0.962572 0
M  V30 618 C 55.1376 1.09276 1.35406 0
M  V30 619 O 56.3136 1.41355 1.4346 0
M  V30 620 C 53.3786 2.65887 2.22497 0
M  V30 621 C 52.4396 3.85286 1.8935 0
M  V30 622 C 51.6726 4.34743 3.09571 0
M  V30 623 O 51.8956 3.83352 4.22371 0
M  V30 624 O 50.8296 5.26538 2.91618 0
M  V30 625 H 54.6556 2.99333 0.513169 0
M  V30 626 H 52.2406 1.4822 0.18743 0
M  V30 627 H 54.1226 2.99346 2.96598 0
M  V30 628 H 52.7976 1.83578 2.6661 0
M  V30 629 H 51.7046 3.56746 1.1262 0
M  V30 630 H 53.0376 4.68771 1.5005 0
M  V30 631 N 54.6897 -0.239769 1.55765 0
M  V30 632 C 55.6197 -1.30052 1.9393 0
M  V30 633 C 56.6007 -1.49839 0.805132 0
M  V30 634 O 57.7857 -1.62328 1.06599 0
M  V30 635 C 54.9157 -2.65391 2.2402 0
M  V30 636 C 53.8697 -2.60289 3.39755 0
M  V30 637 C 53.1957 -3.99489 3.55405 0
M  V30 638 C 54.4957 -2.16654 4.75246 0
M  V30 639 H 56.1897 -0.983573 2.82783 0
M  V30 640 H 53.7357 -0.471701 1.36055 0
M  V30 641 H 55.6887 -3.3974 2.49308 0
M  V30 642 H 54.4127 -2.98736 1.32 0
M  V30 643 H 53.0717 -1.88398 3.14487 0
M  V30 644 H 52.7197 -4.30112 2.60793 0
M  V30 645 H 52.4197 -3.96962 4.33238 0
M  V30 646 H 53.9437 -4.75528 3.83022 0
M  V30 647 H 55.3577 -2.80737 4.99859 0
M  V30 648 H 53.7547 -2.25223 5.56232 0
M  V30 649 H 54.8247 -1.11835 4.71827 0
M  V30 650 N 56.1678 -1.49265 -0.50573 0
M  V30 651 C 57.5838 -1.35923 -0.836486 0
M  V30 652 C 57.7838 -0.388704 -1.97715 0
M  V30 653 O 56.8398 0.181336 -2.51848 0
M  V30 654 C 58.1528 -2.76531 -1.18115 0
M  V30 655 C 59.7008 -2.85197 -1.28964 0
M  V30 656 C 60.1758 -4.26561 -1.66761 0
M  V30 657 N 61.6668 -4.2935 -1.73819 0
M  V30 658 C 62.4018 -5.35693 -2.045 0
M  V30 659 N 61.8978 -6.52287 -2.33438 0
M  V30 660 N 63.6908 -5.23105 -2.05711 0
M  V30 661 H 55.8418 -2.10965 0.246519 0
M  V30 662 H 58.1048 -0.9468 0.0476887 0
M  V30 663 H 57.8108 -3.49226 -0.416398 0
M  V30 664 H 57.6848 -3.11599 -2.1257 0
M  V30 665 H 60.0718 -2.12742 -2.04511 0
M  V30 666 H 60.1528 -2.53718 -0.325704 0
M  V30 667 H 59.7968 -4.99541 -0.917656 0
M  V30 668 H 59.7268 -4.55502 -2.64246 0
M  V30 669 H 62.2178 -3.4526 -1.53635 0
M  V30 670 H 62.5308 -7.29158 -2.56024 0
M  V30 671 H 60.8758 -6.55521 -2.30905 0
M  V30 672 H 64.0668 -4.31026 -1.82577 0
M  V30 673 H 64.2398 -6.06078 -2.29289 0
M  V30 674 N 57.6459 0.756429 -1.3826 0
M  V30 675 C 58.5779 1.87971 -1.31147 0
M  V30 676 C 59.5909 1.61248 -0.224239 0
M  V30 677 O 60.7799 1.71881 -0.481581 0
M  V30 678 C 57.8799 3.23545 -1.00857 0
M  V30 679 C 57.0529 3.77794 -2.20432 0
M  V30 680 C 56.1119 4.91877 -1.86931 0
M  V30 681 O 55.1379 5.06659 -2.59395 0
M  V30 682 N 56.3399 5.74643 -0.822568 0
M  V30 683 H 59.1049 1.94585 -2.2794 0
M  V30 684 H 56.6659 0.936234 -1.32084 0
M  V30 685 H 58.6579 3.97403 -0.765021 0
M  V30 686 H 57.2279 3.12335 -0.128687 0
M  V30 687 H 56.4479 2.95534 -2.6087 0
M  V30 688 H 57.7359 4.10771 -3.00241 0
M  V30 689 H 57.1339 5.65266 -0.221575 0
M  V30 690 H 55.6909 6.48661 -0.638899 0
M  V30 691 N 59.124 1.23083 0.984299 0
M  V30 692 C 60.071 1.00854 2.07598 0
M  V30 693 C 61.041 -0.0726709 1.65941 0
M  V30 694 O 62.226 0.0786535 1.90638 0
M  V30 695 C 59.366 0.601645 3.39815 0
M  V30 696 C 58.479 1.75456 3.94765 0
M  V30 697 C 57.614 1.29482 5.15177 0
M  V30 698 C 56.653 2.41873 5.62284 0
M  V30 699 N 55.79 1.96885 6.73929 0
M  V30 700 H 60.63 1.943 2.25946 0
M  V30 701 H 58.167 0.968001 1.10762 0
M  V30 702 H 60.125 0.346854 4.15756 0
M  V30 703 H 58.755 -0.295803 3.21442 0
M  V30 704 H 57.807 2.12346 3.15616 0
M  V30 705 H 59.119 2.59965 4.25699 0
M  V30 706 H 58.273 0.997923 5.98437 0
M  V30 707 H 57.012 0.420046 4.85888 0
M  V30 708 H 56.017 2.72342 4.77608 0
M  V30 709 H 57.242 3.29881 5.93595 0
M  V30 710 H 55.188 1.11782 6.46406 0
M  V30 711 H 55.105 2.74956 7.04227 0
M  V30 712 H 56.373 1.70289 7.60672 0
M  V30 713 N 60.6021 -1.18246 1.0419 0
M  V30 714 C 61.8321 -1.91916 0.764961 0
M  V30 715 C 62.2401 -1.76485 -0.681898 0
M  V30 716 O 61.5831 -1.09275 -1.47664 0
M  V30 717 C 61.6451 -3.4373 1.05309 0
M  V30 718 C 61.3091 -3.8294 2.4941 0
M  V30 719 C 62.3061 -3.86621 3.47592 0
M  V30 720 C 59.9911 -4.142 2.84155 0
M  V30 721 C 61.9851 -4.21013 4.78568 0
M  V30 722 C 59.6721 -4.48262 4.15337 0
M  V30 723 C 60.6701 -4.51645 5.12353 0
M  V30 724 O 60.3581 -4.84911 6.41183 0
M  V30 725 H 60.0901 -0.61606 0.278292 0
M  V30 726 H 62.6441 -1.50947 1.39299 0
M  V30 727 H 60.8741 -3.84946 0.367933 0
M  V30 728 H 62.5631 -3.9865 0.763752 0
M  V30 729 H 63.3291 -3.62607 3.22089 0
M  V30 730 H 59.2081 -4.10743 2.09311 0
M  V30 731 H 62.7521 -4.23568 5.54289 0
M  V30 732 H 58.6491 -4.71737 4.40607 0
M  V30 733 H 59.4171 -5.02809 6.45852 0
M  V30 734 N 62.0802 -0.821533 -1.34494 0
M  V30 735 C 63.0282 -0.230702 -2.31453 0
M  V30 736 C 64.0222 0.627793 -1.57338 0
M  V30 737 O 65.2282 0.519288 -1.72347 0
M  V30 738 H 61.6032 -0.0558577 -0.749923 0
M  V30 739 H 63.5742 -1.06332 -2.78812 0
M  V30 740 C 62.3232 0.59391 -3.4259 0
M  V30 741 H 61.6462 -0.0573588 -3.99759 0
M  V30 742 H 63.0862 0.973446 -4.12674 0
M  V30 743 C 61.5452 1.76568 -2.86924 0
M  V30 744 O 62.0752 2.8638 -2.81691 0
M  V30 745 N 60.2812 1.58198 -2.43766 0
M  V30 746 H 59.8282 0.68872 -2.48222 0
M  V30 747 H 59.7862 2.36752 -2.06871 0
M  V30 748 N 63.5583 1.46682 -0.576371 0
M  V30 749 C 64.8043 2.02712 -0.0596221 0
M  V30 750 C 65.1373 1.44765 1.29448 0
M  V30 751 O 64.4123 0.610355 1.84675 0
M  V30 752 C 64.6953 3.60098 0.0129503 0
M  V30 753 C 64.5483 4.28441 -1.3696 0
M  V30 754 C 65.8673 4.34224 0.71678 0
M  V30 755 H 62.9863 0.736637 -0.0231407 0
M  V30 756 H 65.6283 1.74898 -0.742351 0
M  V30 757 H 63.7783 3.83926 0.594378 0
M  V30 758 H 65.4503 4.15896 -1.9957 0
M  V30 759 H 63.6933 3.8805 -1.93907 0
M  V30 760 H 64.3643 5.3716 -1.27135 0
M  V30 761 H 66.8403 4.15503 0.222908 0
M  V30 762 H 65.7163 5.43936 0.73657 0
M  V30 763 H 65.9773 4.04823 1.77682 0
M  V30 764 N 65.0364 0.313813 1.54444 0
M  V30 765 C 66.4524 -0.0391619 1.59552 0
M  V30 766 C 66.6524 -1.51322 1.33056 0
M  V30 767 O 65.7084 -2.26782 1.11022 0
M  V30 768 C 67.0214 0.370302 2.98411 0
M  V30 769 C 68.5694 0.320139 3.11358 0
M  V30 770 C 69.0444 0.704617 4.52547 0
M  V30 771 N 70.5354 0.657645 4.58508 0
M  V30 772 C 71.2704 0.927453 5.6585 0
M  V30 773 N 70.7664 1.26389 6.81174 0
M  V30 774 N 72.5594 0.853662 5.5558 0
M  V30 775 H 64.7104 1.27433 1.69925 0
M  V30 776 H 66.9734 0.517511 0.794284 0
M  V30 777 H 66.6794 1.39694 3.22767 0
M  V30 778 H 66.5534 -0.269619 3.76235 0
M  V30 779 H 68.9404 -0.697275 2.86744 0
M  V30 780 H 69.0214 0.99486 2.35661 0
M  V30 781 H 68.6654 1.7199 4.77893 0
M  V30 782 H 68.5954 0.00768843 5.26599 0
M  V30 783 H 71.0864 0.409067 3.75679 0
M  V30 784 H 71.3994 1.4554 7.58972 0
M  V30 785 H 69.7444 1.30206 6.82694 0
M  V30 786 H 72.9354 0.590383 4.64362 0
M  V30 787 H 73.1084 1.0673 6.3915 0
M  V30 788 N 66.5145 -1.57545 0.0417849 0
M  V30 789 C 67.7395 -1.97035 -0.647455 0
M  V30 790 C 68.1645 -0.918775 -1.64135 0
M  V30 791 O 67.5225 0.119006 -1.80909 0
M  V30 792 C 67.5705 -3.35609 -1.31905 0
M  V30 793 O 66.6745 -3.3287 -2.43457 0
M  V30 794 H 66.0155 -0.64211 -0.169086 0
M  V30 795 H 68.5455 -2.04318 0.107399 0
M  V30 796 H 68.5555 -3.72126 -1.67291 0
M  V30 797 H 67.2305 -4.11685 -0.590586 0
M  V30 798 H 65.8075 -3.08087 -2.10088 0
M  V30 799 N 67.9926 0.231505 -1.5589 0
M  V30 800 C 68.9256 1.31369 -1.86595 0
M  V30 801 C 69.9036 1.45671 -0.722397 0
M  V30 802 O 71.0876 1.61642 -0.969743 0
M  V30 803 C 68.2146 2.68529 -2.06421 0
M  V30 804 C 67.2606 2.71295 -3.29092 0
M  V30 805 S 68.0936 2.26358 -4.85306 0
M  V30 806 C 69.2496 3.65414 -5.08157 0
M  V30 807 H 69.4826 1.05128 -2.78092 0
M  V30 808 H 67.0156 0.433259 -1.48197 0
M  V30 809 H 68.9736 3.47499 -2.18528 0
M  V30 810 H 67.6346 2.91999 -1.15738 0
M  V30 811 H 66.8276 3.72063 -3.39978 0
M  V30 812 H 66.4296 2.0038 -3.15791 0
M  V30 813 H 68.7216 4.6103 -4.96445 0
M  V30 814 H 69.6646 3.5945 -6.10083 0
M  V30 815 H 70.0726 3.5864 -4.35933 0
M  V30 816 N 69.4707 1.49531 0.497807 0
M  V30 817 C 70.8817 1.52344 1.07927 0
M  V30 818 C 71.2327 0.311469 1.93712 0
M  V30 819 O 70.3577 -0.578405 2.08527 0
M  V30 820 C 70.9527 2.76062 1.96405 0
M  V30 821 C 69.5117 2.81643 2.49709 0
M  V30 822 C 68.6587 2.46299 1.27404 0
M  V30 823 H 71.6097 1.56182 0.281576 0
M  V30 824 H 71.6307 2.56405 2.81135 0
M  V30 825 H 71.1427 3.64254 1.33943 0
M  V30 826 H 69.2437 1.97739 3.15801 0
M  V30 827 H 69.3567 3.83891 2.86643 0
M  V30 828 H 67.7207 1.98148 1.60029 0
M  V30 829 H 68.5037 3.36769 0.66645 0
M  V30 830 N 70.9488 -0.749086 1.3866 0
M  V30 831 C 72.1978 -1.50371 1.3443 0
M  V30 832 C 72.5108 -1.95503 -0.0616397 0
M  V30 833 O 73.7168 -2.70554 -0.226489 0
M  V30 834 C 72.1728 -2.71644 2.36088 0
M  V30 835 C 71.7808 -2.3352 3.82325 0
M  V30 836 C 73.5248 -3.49518 2.40909 0
M  V30 837 C 71.4318 -3.51431 4.75658 0
M  V30 838 H 70.3618 -0.564628 0.499712 0
M  V30 839 H 73.0128 -0.818449 1.64237 0
M  V30 840 H 71.3948 -3.42175 1.9933 0
M  V30 841 H 72.5688 -1.70627 4.28046 0
M  V30 842 H 70.8838 -1.6877 3.80665 0
M  V30 843 H 73.4808 -4.37197 3.07836 0
M  V30 844 H 73.8238 -3.90992 1.42937 0
M  V30 845 H 74.3568 -2.86005 2.76489 0
M  V30 846 H 71.0958 -3.15019 5.74842 0
M  V30 847 H 70.6158 -4.13352 4.34627 0
M  V30 848 H 72.2948 -4.17953 4.93887 0
M  V30 849 N 72.4269 -1.23603 -0.977757 0
M  V30 850 C 73.8429 -0.999251 -1.24447 0
M  V30 851 C 74.0429 0.298053 -1.99283 0
M  V30 852 O 73.0989 1.01681 -2.31122 0
M  V30 853 C 74.4119 -2.20784 -2.04144 0
M  V30 854 C 75.9599 -2.25303 -2.17273 0
M  V30 855 C 76.4349 -3.45755 -3.00362 0
M  V30 856 N 77.9259 -3.4601 -3.07947 0
M  V30 857 C 78.6609 -4.35868 -3.72568 0
M  V30 858 N 78.1569 -5.35966 -4.38991 0
M  V30 859 N 79.9499 -4.23605 -3.6948 0
M  V30 860 H 72.1009 -2.06986 -0.476483 0
M  V30 861 H 74.3639 -0.907801 -0.273134 0
M  V30 862 H 74.0699 -3.14945 -1.56533 0
M  V30 863 H 73.9439 -2.22085 -3.04891 0
M  V30 864 H 76.3309 -1.3168 -2.64092 0
M  V30 865 H 76.4119 -2.28033 -1.15907 0
M  V30 866 H 76.0559 -4.39687 -2.5424 0
M  V30 867 H 75.9859 -3.40266 -4.01904 0
M  V30 868 H 78.4769 -2.73588 -2.60688 0
M  V30 869 H 78.7899 -6.00783 -4.86086 0
M  V30 870 H 77.1349 -5.39863 -4.37691 0
M  V30 871 H 80.3259 -3.44647 -3.16759 0
M  V30 872 H 80.4989 -4.93836 -4.1956 0
M  V30 873 N 73.905 1.17692 -1.04816 0
M  V30 874 C 74.852 2.21581 -0.645797 0
M  V30 875 C 75.822 1.62367 0.350159 0
M  V30 876 O 77.007 1.89254 0.242433 0
M  V30 877 C 74.147 3.45092 -0.0227568 0
M  V30 878 C 73.26 4.18613 -1.06709 0
M  V30 879 C 72.395 5.29602 -0.411767 0
M  V30 880 C 71.434 5.94904 -1.44067 0
M  V30 881 N 70.571 6.97414 -0.809781 0
M  V30 882 H 75.411 2.55353 -1.5362 0
M  V30 883 H 72.948 1.25438 -0.768364 0
M  V30 884 H 74.906 4.15679 0.35588 0
M  V30 885 H 73.536 3.11917 0.831122 0
M  V30 886 H 72.588 3.46779 -1.5636 0
M  V30 887 H 73.9 4.63293 -1.84827 0
M  V30 888 H 73.054 6.06696 0.0206623 0
M  V30 889 H 71.793 4.86045 0.401438 0
M  V30 890 H 70.798 5.16544 -1.88316 0
M  V30 891 H 72.023 6.40542 -2.25571 0
M  V30 892 H 69.969 6.55998 -0.0170186 0
M  V30 893 H 69.886 7.40386 -1.52856 0
M  V30 894 H 71.154 7.78463 -0.401999 0
M  V30 895 N 75.3831 0.828654 1.34056 0
M  V30 896 C 76.6601 0.341809 1.9259 0
M  V30 897 C 77.0401 -1.17158 1.75605 0
M  V30 898 O 76.3881 -1.98132 1.13824 0
M  V30 899 C 76.5981 0.777453 3.4023 0
M  V30 900 C 77.9461 0.779579 4.17382 0
M  V30 901 O 78.9701 0.7204 3.48839 0
M  V30 902 O 77.8291 0.857996 5.39723 0
M  V30 903 H 74.9231 0.0946085 0.821571 0
M  V30 904 H 77.4691 0.913827 1.42994 0
M  V30 905 H 76.2411 1.8196 3.46419 0
M  V30 906 H 75.8641 0.181444 3.97186 0
M  V30 907 N 76.8612 -1.46375 0.584142 0
M  V30 908 C 78.1382 -1.956 0.0033388 0
M  V30 909 C 78.5182 -1.52679 -1.45782 0
M  V30 910 O 77.8662 -0.77816 -2.14842 0
M  V30 911 C 78.0762 -3.48551 0.176891 0
M  V30 912 C 79.4242 -4.24576 0.0454609 0
M  V30 913 O 80.4482 -3.56043 0.105801 0
M  V30 914 O 79.3072 -5.46427 -0.0890376 0
M  V30 915 H 76.4012 -0.825547 -0.0490066 0
M  V30 916 H 78.9472 -1.56652 0.65256 0
M  V30 917 H 77.7192 -3.72683 1.1926 0
M  V30 918 H 77.3422 -3.94332 -0.508695 0
M  V30 919 N 78.3393 -0.321999 -1.54275 0
M  V30 920 C 79.2493 0.553631 -2.27974 0
M  V30 921 C 80.2653 1.13054 -1.32268 0
M  V30 922 O 81.4413 1.15084 -1.6528 0
M  V30 923 C 78.5063 1.69927 -3.02201 0
M  V30 924 C 77.5673 1.15433 -4.1349 0
M  V30 925 C 76.8003 2.24537 -4.84168 0
M  V30 926 O 77.0233 3.44852 -4.5435 0
M  V30 927 O 75.9573 1.90044 -5.7111 0
M  V30 928 H 79.7833 -0.0448345 -3.03667 0
M  V30 929 H 77.3683 -0.0877418 -1.49142 0
M  V30 930 H 79.2503 2.3663 -3.48689 0
M  V30 931 H 77.9253 2.28395 -2.29385 0
M  V30 932 H 76.8323 0.452436 -3.71354 0
M  V30 933 H 78.1653 0.614805 -4.88345 0
M  V30 934 N 79.8174 1.5752 -0.0501392 0
M  V30 935 C 81.0634 1.92936 0.624798 0
M  V30 936 C 81.3964 0.928685 1.70555 0
M  V30 937 O 80.6714 -0.0454779 1.94447 0
M  V30 938 C 80.9544 3.38737 1.22185 0
M  V30 939 C 80.8074 4.49552 0.149218 0
M  V30 940 C 82.1264 3.84913 2.13378 0
M  V30 941 H 79.2454 0.701604 0.225657 0
M  V30 942 H 81.8874 1.89671 -0.111693 0
M  V30 943 H 80.0374 3.4165 1.84953 0
M  V30 944 H 81.7094 4.58768 -0.482648 0
M  V30 945 H 79.9524 4.30638 -0.522841 0
M  V30 946 H 80.6234 5.48653 0.606966 0
M  V30 947 H 83.0994 3.8387 1.60572 0
M  V30 948 H 81.9754 4.87584 2.52097 0
M  V30 949 H 82.2364 3.21611 3.03346 0
M  V30 950 N 81.2955 -0.223234 1.56011 0
M  V30 951 C 82.2275 -1.30006 1.88762 0
M  V30 952 C 83.2405 -1.43129 0.775746 0
M  V30 953 O 84.4295 -1.44057 1.05403 0
M  V30 954 C 81.5295 -2.67589 2.07965 0
M  V30 955 C 80.7025 -2.76434 3.38973 0
M  V30 956 C 79.7615 -3.95019 3.47629 0
M  V30 957 O 78.7875 -3.83436 4.20672 0
M  V30 958 N 79.9895 -5.09249 2.78649 0
M  V30 959 H 82.7545 -1.02238 2.81722 0
M  V30 960 H 80.3155 -0.413278 1.56536 0
M  V30 961 H 82.3075 -3.45297 2.11073 0
M  V30 962 H 80.8775 -2.87964 1.21638 0
M  V30 963 H 80.0975 -1.85216 3.47978 0
M  V30 964 H 81.3855 -2.79313 4.25278 0
M  V30 965 H 80.7835 -5.21556 2.19081 0
M  V30 966 H 79.3405 -5.85007 2.8742 0
M  V30 967 N 82.7736 -1.49793 -0.48987 0
M  V30 968 C 84.0196 -1.60078 -1.24511 0
M  V30 969 C 84.3526 -0.291608 -1.91998 0
M  V30 970 O 83.6276 0.705647 -1.81248 0
M  V30 971 C 83.9106 -2.76791 -2.30345 0
M  V30 972 C 83.7636 -4.17535 -1.67286 0
M  V30 973 C 85.0826 -2.89111 -3.31817 0
M  V30 974 H 82.2016 -0.582645 -0.451324 0
M  V30 975 H 84.8436 -1.82117 -0.541612 0
M  V30 976 H 82.9936 -2.5813 -2.90346 0
M  V30 977 H 84.6656 -4.4774 -1.11026 0
M  V30 978 H 82.9086 -4.22665 -0.976577 0
M  V30 979 H 83.5796 -4.95094 -2.44103 0
M  V30 980 H 86.0556 -3.06133 -2.81819 0
M  V30 981 H 84.9316 -3.72433 -4.03219 0
M  V30 982 H 85.1926 -1.9893 -3.94815 0
M  V30 983 N 84.2517 0.741722 -1.39055 0
M  V30 984 C 85.4977 1.50336 -1.36113 0
M  V30 985 C 85.8307 1.94148 0.0450796 0
M  V30 986 O 85.1057 1.66301 1.00868 0
M  V30 987 C 85.3887 2.74773 -2.32749 0
M  V30 988 C 85.2417 2.37023 -3.82283 0
M  V30 989 C 86.5607 3.76846 -2.27322 0
M  V30 990 H 83.6797 0.545351 -0.495743 0
M  V30 991 H 86.3217 0.848624 -1.69995 0
M  V30 992 H 84.4717 3.30639 -2.03986 0
M  V30 993 H 86.1437 1.8684 -4.21768 0
M  V30 994 H 84.3867 1.69334 -3.99385 0
M  V30 995 H 85.0577 3.26104 -4.45376 0
M  V30 996 H 87.5337 3.30548 -2.5274 0
M  V30 997 H 86.4097 4.6159 -2.97028 0
M  V30 998 H 86.6707 4.23286 -1.27599 0
M  V30 999 N 85.7298 1.2412 0.971189 0
M  V30 1000 C 87.1458 1.00584 1.23916 0
M  V30 1001 C 87.3458 -0.287481 1.99439 0
M  V30 1002 O 86.4018 -1.00454 2.31658 0
M  V30 1003 C 87.7148 2.21864 2.0297 0
M  V30 1004 C 89.2628 2.26452 2.16076 0
M  V30 1005 C 89.7378 3.47343 2.98524 0
M  V30 1006 N 91.2288 3.47639 3.06107 0
M  V30 1007 C 91.9638 4.37837 3.70251 0
M  V30 1008 N 91.4598 5.38286 4.36142 0
M  V30 1009 N 93.2528 4.25558 3.67228 0
M  V30 1010 H 85.4038 2.07236 0.465499 0
M  V30 1011 H 87.6668 0.909236 0.268315 0
M  V30 1012 H 87.3728 3.15771 1.54861 0
M  V30 1013 H 87.2468 2.23698 3.03709 0
M  V30 1014 H 89.6338 1.33078 2.6339 0
M  V30 1015 H 89.7148 2.28645 1.14696 0
M  V30 1016 H 89.3588 4.41029 2.51905 0
M  V30 1017 H 89.2888 3.42393 4.00093 0
M  V30 1018 H 91.7798 2.74966 2.59233 0
M  V30 1019 H 92.0928 6.03352 4.82894 0
M  V30 1020 H 90.4378 5.42176 4.34822 0
M  V30 1021 H 93.6288 3.46322 3.14927 0
M  V30 1022 H 93.8018 4.96054 4.16935 0
M  V30 1023 N 87.2079 -1.17134 1.05439 0
M  V30 1024 C 88.4559 -1.87085 0.764429 0
M  V30 1025 C 88.7769 -1.81584 -0.710787 0
M  V30 1026 O 88.0469 -1.24349 -1.51374 0
M  V30 1027 H 86.6269 -0.692627 0.279779 0
M  V30 1028 H 89.2889 -1.42087 1.33406 0
M  V30 1029 H 88.3849 -2.92759 1.0816 0
M  V30 1030 N 88.686 -0.835752 -1.33615 0
M  V30 1031 C 89.636 -0.238856 -2.26745 0
M  V30 1032 C 90.62 0.604343 -1.49119 0
M  V30 1033 O 91.812 0.456822 -1.71003 0
M  V30 1034 C 88.941 0.587725 -3.38232 0
M  V30 1035 C 88.027 -0.266811 -4.2326 0
M  V30 1036 N 88.418 -1.34403 -4.87616 0
M  V30 1037 C 86.716 -0.0533131 -4.45968 0
M  V30 1038 C 87.417 -1.86819 -5.50884 0
M  V30 1039 N 86.393 -1.17013 -5.30857 0
M  V30 1040 H 90.195 -1.06266 -2.74016 0
M  V30 1041 H 87.709 -0.679881 -1.47483 0
M  V30 1042 H 89.706 1.03161 -4.03935 0
M  V30 1043 H 88.366 1.40954 -2.9251 0
M  V30 1044 H 89.377 -1.7269 -4.88261 0
M  V30 1045 H 86.054 0.735312 -4.10974 0
M  V30 1046 H 87.444 -2.7701 -6.1214 0
M  V30 1047 N 90.1641 1.46063 -0.591896 0
M  V30 1048 C 91.3941 2.06418 -0.0867676 0
M  V30 1049 C 91.8021 1.43975 1.22751 0
M  V30 1050 O 91.1451 0.542531 1.75506 0
M  V30 1051 C 91.2071 3.59213 0.143725 0
M  V30 1052 C 90.8711 4.439 -1.08635 0
M  V30 1053 C 91.8681 4.79864 -2.00067 0
M  V30 1054 C 89.5531 4.84896 -1.31077 0
M  V30 1055 C 91.5471 5.55661 -3.12282 0
M  V30 1056 C 89.2341 5.6045 -2.43596 0
M  V30 1057 C 90.2321 5.95747 -3.34027 0
M  V30 1058 O 89.9201 6.69772 -4.4459 0
M  V30 1059 H 89.6521 0.673443 -0.0587447 0
M  V30 1060 H 92.2061 1.88539 -0.814994 0
M  V30 1061 H 90.4361 3.75433 0.926668 0
M  V30 1062 H 92.1251 4.01463 0.5985 0
M  V30 1063 H 92.8911 4.48763 -1.83947 0
M  V30 1064 H 88.7701 4.56867 -0.61594 0
M  V30 1065 H 92.3141 5.8313 -3.82891 0
M  V30 1066 H 88.2111 5.90965 -2.59674 0
M  V30 1067 H 88.9791 6.88207 -4.43073 0
M  V30 1068 N 91.6422 0.330177 1.54103 0
M  V30 1069 C 92.5892 -0.532762 2.24567 0
M  V30 1070 C 93.5592 -1.10635 1.23892 0
M  V30 1071 O 94.7442 -1.14546 1.5259 0
M  V30 1072 C 91.8842 -1.6845 3.01195 0
M  V30 1073 C 90.9972 -1.13951 4.167 0
M  V30 1074 C 90.1322 -2.25746 4.80845 0
M  V30 1075 C 89.1712 -1.6853 5.88442 0
M  V30 1076 N 88.3082 -2.74014 6.46421 0
M  V30 1077 H 93.1482 0.0746905 2.97906 0
M  V30 1078 H 90.6852 0.048632 1.4702 0
M  V30 1079 H 92.6432 -2.36234 3.43874 0
M  V30 1080 H 91.2732 -2.26314 2.30178 0
M  V30 1081 H 90.3252 -0.35301 3.78758 0
M  V30 1082 H 91.6372 -0.680892 4.94131 0
M  V30 1083 H 90.7912 -3.01422 5.26526 0
M  V30 1084 H 89.5302 -2.74947 4.0281 0
M  V30 1085 H 88.5352 -0.913543 5.42157 0
M  V30 1086 H 89.7602 -1.20198 6.68378 0
M  V30 1087 H 87.7062 -3.22494 5.71256 0
M  V30 1088 H 87.6232 -2.32735 7.19285 0
M  V30 1089 H 88.8912 -3.49499 6.96757 0
M  V30 1090 N 93.1203 -1.57491 0.0584922 0
M  V30 1091 C 94.3683 -1.92597 -0.612436 0
M  V30 1092 C 94.6893 -0.938162 -1.70949 0
M  V30 1093 O 93.9593 0.0158301 -1.95894 0
M  V30 1094 H 92.5393 -0.710964 -0.229214 0
M  V30 1095 H 95.2013 -1.94571 0.113218 0
M  V30 1096 H 94.2973 -2.94038 -1.04633 0
M  V30 1097 N 94.5984 0.214957 -1.56127 0
M  V30 1098 C 95.5304 1.29004 -1.89448 0
M  V30 1099 C 96.5434 1.42716 -0.783326 0
M  V30 1100 O 97.7324 1.43496 -1.06166 0
M  V30 1101 C 94.8324 2.66482 -2.09381 0
M  V30 1102 C 94.0054 2.74633 -3.40434 0
M  V30 1103 C 93.0644 3.9317 -3.49719 0
M  V30 1104 O 92.0904 3.812 -4.227 0
M  V30 1105 N 93.2924 5.07765 -2.81346 0
M  V30 1106 H 96.0574 1.00743 -2.82261 0
M  V30 1107 H 93.6184 0.40497 -1.56753 0
M  V30 1108 H 95.6104 3.44173 -2.12901 0
M  V30 1109 H 94.1804 2.87314 -1.23163 0
M  V30 1110 H 93.4004 1.83368 -3.48955 0
M  V30 1111 H 94.6884 2.77054 -4.26754 0
M  V30 1112 H 94.0864 5.20386 -2.21843 0
M  V30 1113 H 92.6434 5.83474 -2.90519 0
M  V30 1114 N 96.0765 1.50051 0.48192 0
M  V30 1115 C 97.0085 1.64263 1.59844 0
M  V30 1116 C 98.0215 0.52451 1.54119 0
M  V30 1117 O 99.2105 0.797293 1.59704 0
M  V30 1118 C 96.3105 1.60102 2.98698 0
M  V30 1119 C 95.4835 2.87767 3.29407 0
M  V30 1120 C 94.5425 2.76397 4.47762 0
M  V30 1121 O 93.5685 3.50348 4.48603 0
M  V30 1122 N 94.7705 1.89222 5.48794 0
M  V30 1123 H 97.5355 2.60566 1.48073 0
M  V30 1124 H 95.0965 1.47379 0.670149 0
M  V30 1125 H 97.0885 1.50123 3.75826 0
M  V30 1126 H 95.6585 0.715798 3.04294 0
M  V30 1127 H 94.8785 3.11954 2.40994 0
M  V30 1128 H 96.1665 3.72365 3.4673 0
M  V30 1129 H 95.5645 1.28434 5.50928 0
M  V30 1130 H 94.1215 1.85154 6.24949 0
M  V30 1131 N 97.5546 -0.734337 1.39446 0
M  V30 1132 C 98.8036 -1.48937 1.36017 0
M  V30 1133 C 99.1166 -1.95557 -0.0409005 0
M  V30 1134 O 100.323 -2.70779 -0.19778 0
M  V30 1135 C 98.7786 -2.69125 2.38955 0
M  V30 1136 C 98.3866 -2.29452 3.8478 0
M  V30 1137 C 100.131 -3.46944 2.44603 0
M  V30 1138 C 98.0376 -3.46366 4.79358 0
M  V30 1139 H 96.9676 -0.559296 0.505672 0
M  V30 1140 H 99.6186 -0.800983 1.65095 0
M  V30 1141 H 98.0006 -3.40041 2.02948 0
M  V30 1142 H 99.1746 -1.66077 4.29831 0
M  V30 1143 H 97.4896 -1.64723 3.82433 0
M  V30 1144 H 100.087 -4.33907 3.12456 0
M  V30 1145 H 100.43 -3.89454 1.47076 0
M  V30 1146 H 100.963 -2.83056 2.79507 0
M  V30 1147 H 97.7016 -3.08905 5.78151 0
M  V30 1148 H 97.2216 -4.08719 4.38986 0
M  V30 1149 H 98.9006 -4.12691 4.98292 0
M  V30 1150 N 99.0327 -1.24633 -0.964593 0
M  V30 1151 C 100.281 -1.08573 -1.70459 0
M  V30 1152 C 100.602 0.375655 -1.91347 0
M  V30 1153 O 99.8717 1.26779 -1.49345 0
M  V30 1154 H 98.4517 -0.398784 -0.631649 0
M  V30 1155 H 101.114 -1.56601 -1.16026 0
M  V30 1156 H 100.21 -1.58623 -2.68785 0
M  V30 1157 N 100.511 1.16574 -1.06058 0
M  V30 1158 C 101.458 2.20883 -0.669263 0
M  V30 1159 C 102.428 1.62729 0.332918 0
M  V30 1160 O 103.613 1.895 0.222346 0
M  V30 1161 C 100.753 3.45049 -0.0593572 0
M  V30 1162 C 99.8658 4.17458 -1.11143 0
M  V30 1163 C 99.0008 5.29135 -0.467916 0
M  V30 1164 C 98.0398 5.93343 -1.50369 0
M  V30 1165 N 97.1768 6.96516 -0.883706 0
M  V30 1166 H 102.017 2.53709 -1.5632 0
M  V30 1167 H 99.5538 1.24616 -0.781625 0
M  V30 1168 H 101.512 4.16033 0.311771 0
M  V30 1169 H 100.142 3.12781 0.797992 0
M  V30 1170 H 99.1938 3.45101 -1.60029 0
M  V30 1171 H 100.506 4.61307 -1.89731 0
M  V30 1172 H 99.6598 6.06684 -0.0436871 0
M  V30 1173 H 98.3988 4.86443 0.349864 0
M  V30 1174 H 97.4038 5.14517 -1.93784 0
M  V30 1175 H 98.6288 6.38114 -2.32352 0
M  V30 1176 H 96.5748 6.55943 -0.086595 0
M  V30 1177 H 96.4918 7.38723 -1.607 0
M  V30 1178 H 97.7598 7.77993 -0.484543 0
M  V30 1179 N 101.989 0.842826 1.3317 0
M  V30 1180 C 103.235 0.441099 1.97945 0
M  V30 1181 C 103.568 -0.998024 1.66593 0
M  V30 1182 O 102.843 -1.69839 0.947898 0
M  V30 1183 C 103.126 0.666841 3.53872 0
M  V30 1184 C 102.979 2.15352 3.94897 0
M  V30 1185 C 104.298 0.115544 4.39948 0
M  V30 1186 H 101.417 0.161739 0.719034 0
M  V30 1187 H 104.059 1.05907 1.57746 0
M  V30 1188 H 102.209 0.140828 3.88245 0
M  V30 1189 H 103.881 2.7447 3.70761 0
M  V30 1190 H 102.124 2.63653 3.44484 0
M  V30 1191 H 102.795 2.26221 5.03516 0
M  V30 1192 H 105.271 0.565213 4.12243 0
M  V30 1193 H 104.147 0.303152 5.48062 0
M  V30 1194 H 104.408 -0.980935 4.3108 0
M  V30 1195 N 103.467 -1.45747 0.599634 0
M  V30 1196 C 104.713 -2.02592 0.0918643 0
M  V30 1197 C 105.046 -1.46806 -1.27128 0
M  V30 1198 O 104.321 -0.639658 -1.83681 0
M  V30 1199 C 104.604 -3.60073 0.0443398 0
M  V30 1200 C 104.457 -4.26208 1.43759 0
M  V30 1201 C 105.776 -4.35309 -0.647608 0
M  V30 1202 H 102.895 -0.736175 0.034857 0
M  V30 1203 H 105.537 -1.73694 0.770081 0
M  V30 1204 H 103.687 -3.84823 -0.533224 0
M  V30 1205 H 105.359 -4.12668 2.06162 0
M  V30 1206 H 103.602 -3.84916 2.00056 0
M  V30 1207 H 104.273 -5.35069 1.35665 0
M  V30 1208 H 106.749 -4.15805 -0.156776 0
M  V30 1209 H 105.625 -5.45038 -0.649942 0
M  V30 1210 H 105.886 -4.07598 -1.71219 0
M  V30 1211 N 104.945 -0.338344 -1.53925 0
M  V30 1212 C 105.877 0.555117 -2.22376 0
M  V30 1213 C 106.89 1.06812 -1.22862 0
M  V30 1214 O 108.079 0.979163 -1.49247 0
M  V30 1215 C 105.179 1.77609 -2.88631 0
M  V30 1216 C 104.352 1.39927 -4.14414 0
M  V30 1217 C 103.411 2.47936 -4.64127 0
M  V30 1218 O 102.437 2.11461 -5.28463 0
M  V30 1219 N 103.639 3.79107 -4.39612 0
M  V30 1220 H 106.404 -0.0310778 -2.99684 0
M  V30 1221 H 103.965 -0.162226 -1.61085 0
M  V30 1222 H 105.957 2.49287 -3.18807 0
M  V30 1223 H 104.527 2.26978 -2.14941 0
M  V30 1224 H 103.747 0.513481 -3.90841 0
M  V30 1225 H 105.035 1.12341 -4.96243 0
M  V30 1226 H 104.433 4.11531 -3.88148 0
M  V30 1227 H 102.99 4.4697 -4.74406 0
M  V30 1228 N 106.423 1.57458 -0.0668435 0
M  V30 1229 C 107.669 1.93587 0.6043 0
M  V30 1230 C 108.002 0.946722 1.69561 0
M  V30 1231 O 107.277 -0.0248516 1.94484 0
M  V30 1232 C 107.56 3.40014 1.18585 0
M  V30 1233 C 107.413 4.49685 0.101529 0
M  V30 1234 C 108.732 3.87154 2.09284 0
M  V30 1235 H 105.851 0.703958 0.218202 0
M  V30 1236 H 108.493 1.89542 -0.131804 0
M  V30 1237 H 106.643 3.43592 1.81319 0
M  V30 1238 H 108.315 4.5823 -0.531279 0
M  V30 1239 H 106.558 4.30059 -0.568487 0
M  V30 1240 H 107.229 5.49266 0.54874 0
M  V30 1241 H 109.705 3.85551 1.56491 0
M  V30 1242 H 108.581 4.90231 2.46911 0
M  V30 1243 H 108.842 3.2481 2.99918 0
M  V30 1244 N 107.901 -0.206675 1.56239 0
M  V30 1245 C 109.131 -0.943975 1.83773 0
M  V30 1246 C 109.539 -1.77841 0.645703 0
M  V30 1247 O 108.882 -1.79403 -0.395008 0
M  V30 1248 C 108.944 -1.899 3.05251 0
M  V30 1249 C 108.608 -1.24764 4.39639 0
M  V30 1250 C 109.605 -0.630216 5.16066 0
M  V30 1251 C 107.29 -1.25496 4.8637 0
M  V30 1252 C 109.284 -0.0287946 6.37393 0
M  V30 1253 C 106.971 -0.649698 6.07637 0
M  V30 1254 C 107.969 -0.0376845 6.8299 0
M  V30 1255 O 107.657 0.55812 8.0196 0
M  V30 1256 H 107.389 -0.281508 0.614597 0
M  V30 1257 H 109.943 -0.222458 2.04192 0
M  V30 1258 H 108.173 -2.6599 2.80689 0
M  V30 1259 H 109.862 -2.5031 3.1953 0
M  V30 1260 H 110.628 -0.616785 4.81062 0
M  V30 1261 H 106.507 -1.72072 4.27683 0
M  V30 1262 H 110.051 0.449518 6.9615 0
M  V30 1263 H 105.948 -0.660592 6.42111 0
M  V30 1264 H 106.716 0.453891 8.17241 0
M  V30 1265 N 109.379 -1.50304 -0.473955 0
M  V30 1266 C 110.795 -1.37667 -0.807466 0
M  V30 1267 C 110.995 -0.430555 -1.96846 0
M  V30 1268 O 110.051 0.127874 -2.52176 0
M  V30 1269 C 111.364 -2.78974 -1.12223 0
M  V30 1270 C 112.912 -2.87868 -1.22885 0
M  V30 1271 C 113.387 -4.30003 -1.57676 0
M  V30 1272 N 114.878 -4.3294 -1.64673 0
M  V30 1273 C 115.613 -5.3991 -1.93091 0
M  V30 1274 N 115.109 -6.57092 -2.1955 0
M  V30 1275 N 116.902 -5.27351 -1.94569 0
M  V30 1276 H 109.053 -2.10394 0.291212 0
M  V30 1277 H 111.316 -0.945575 0.0677609 0
M  V30 1278 H 111.022 -3.50031 -0.342229 0
M  V30 1279 H 110.896 -3.16038 -2.05913 0
M  V30 1280 H 113.283 -2.17032 -1.99953 0
M  V30 1281 H 113.364 -2.54352 -0.271814 0
M  V30 1282 H 113.008 -5.01375 -0.81149 0
M  V30 1283 H 112.938 -4.61004 -2.54525 0
M  V30 1284 H 115.429 -3.48441 -1.46277 0
M  V30 1285 H 115.742 -7.34425 -2.405 0
M  V30 1286 H 114.087 -6.60272 -2.16948 0
M  V30 1287 H 117.278 -4.34801 -1.73394 0
M  V30 1288 H 117.451 -6.10805 -2.16381 0
M  V30 1289 N 110.857 0.726932 -1.39834 0
M  V30 1290 C 111.804 1.841 -1.39197 0
M  V30 1291 C 112.774 1.642 -0.250502 0
M  V30 1292 O 113.959 1.85494 -0.446846 0
M  V30 1293 C 111.099 3.21697 -1.24919 0
M  V30 1294 C 110.212 3.53247 -2.48678 0
M  V30 1295 C 109.347 4.80289 -2.26928 0
M  V30 1296 C 108.386 5.04707 -3.4632 0
M  V30 1297 N 107.523 6.22956 -3.23836 0
M  V30 1298 H 112.363 1.83979 -2.34427 0
M  V30 1299 H 109.9 0.898876 -1.16442 0
M  V30 1300 H 111.858 4.01137 -1.1465 0
M  V30 1301 H 110.488 3.21076 -0.333153 0
M  V30 1302 H 109.54 2.68447 -2.69519 0
M  V30 1303 H 110.852 3.67205 -3.37582 0
M  V30 1304 H 110.006 5.67725 -2.13947 0
M  V30 1305 H 108.745 4.68519 -1.35431 0
M  V30 1306 H 107.75 4.1573 -3.5979 0
M  V30 1307 H 108.975 5.18357 -4.38729 0
M  V30 1308 H 106.921 6.12459 -2.35011 0
M  V30 1309 H 106.838 6.37539 -4.063 0
M  V30 1310 H 108.106 7.1321 -3.14566 0
M  V30 1311 N 112.336 1.25143 0.95797 0
M  V30 1312 C 113.283 1.05235 2.05412 0
M  V30 1313 C 114.253 -0.0374561 1.66058 0
M  V30 1314 O 115.438 0.119073 1.90428 0
M  V30 1315 C 112.578 0.673589 3.38462 0
M  V30 1316 C 111.691 1.8379 3.90954 0
M  V30 1317 C 110.826 1.40381 5.12315 0
M  V30 1318 C 109.865 2.53746 5.57027 0
M  V30 1319 N 109.002 2.11136 6.69601 0
M  V30 1320 H 113.842 1.99048 2.21774 0
M  V30 1321 H 111.379 0.991277 1.08683 0
M  V30 1322 H 113.337 0.434964 4.14926 0
M  V30 1323 H 111.967 -0.227554 3.21997 0
M  V30 1324 H 111.019 2.18992 3.11041 0
M  V30 1325 H 112.331 2.68937 4.20089 0
M  V30 1326 H 111.485 1.12464 5.96185 0
M  V30 1327 H 110.224 0.523015 4.84887 0
M  V30 1328 H 109.229 2.82412 4.71724 0
M  V30 1329 H 110.454 3.42398 5.86464 0
M  V30 1330 H 108.4 1.25468 6.4389 0
M  V30 1331 H 108.317 2.89832 6.98236 0
M  V30 1332 H 109.585 1.86385 7.56889 0
M  V30 1333 N 113.814 -1.1601 1.06675 0
M  V30 1334 C 115.044 -1.90251 0.805497 0
M  V30 1335 C 115.452 -1.77891 -0.64431 0
M  V30 1336 O 114.795 -1.12383 -1.45313 0
M  V30 1337 C 114.857 -3.41419 1.12576 0
M  V30 1338 C 114.521 -3.77564 2.57477 0
M  V30 1339 C 115.518 -3.79161 3.55715 0
M  V30 1340 C 113.203 -4.08079 2.92877 0
M  V30 1341 C 115.197 -4.10767 4.8739 0
M  V30 1342 C 112.884 -4.39351 4.24751 0
M  V30 1343 C 113.882 -4.40675 5.21818 0
M  V30 1344 O 113.57 -4.71202 6.51325 0
M  V30 1345 H 113.302 -0.610018 0.291297 0
M  V30 1346 H 115.856 -1.47958 1.4247 0
M  V30 1347 H 114.086 -3.84079 0.449503 0
M  V30 1348 H 115.775 -3.9694 0.84814 0
M  V30 1349 H 116.541 -3.55693 3.29708 0
M  V30 1350 H 112.42 -4.06211 2.17976 0
M  V30 1351 H 115.964 -4.11715 5.63148 0
M  V30 1352 H 111.861 -4.62285 4.50514 0
M  V30 1353 H 112.629 -4.88996 6.56373 0
M  V30 1354 N 115.292 -0.849877 -1.32721 0
M  V30 1355 C 116.538 -0.451591 -1.97708 0
M  V30 1356 C 116.871 0.989175 -1.6712 0
M  V30 1357 O 116.146 1.69334 -0.956891 0
M  V30 1358 C 116.429 -0.685598 -3.53513 0
M  V30 1359 C 116.282 -2.17444 -3.93749 0
M  V30 1360 C 117.601 -0.138874 -4.39881 0
M  V30 1361 H 114.72 -0.16555 -0.718166 0
M  V30 1362 H 117.362 -1.06742 -1.57182 0
M  V30 1363 H 115.512 -0.161416 -3.88165 0
M  V30 1364 H 117.184 -2.76433 -3.693 0
M  V30 1365 H 115.427 -2.65476 -3.43081 0
M  V30 1366 H 116.098 -2.28888 -5.02309 0
M  V30 1367 H 118.574 -0.587068 -4.11938 0
M  V30 1368 H 117.45 -0.332213 -5.47894 0
M  V30 1369 H 117.711 0.95806 -4.31594 0
M  V30 1370 N 116.77 1.45427 -0.607355 0
M  V30 1371 C 118.019 2.01452 -0.100036 0
M  V30 1372 C 118.332 1.48159 1.27704 0
M  V30 1373 O 119.538 1.96159 1.87707 0
M  V30 1374 C 117.994 3.59672 -0.128158 0
M  V30 1375 C 117.602 4.21962 -1.50507 0
M  V30 1376 C 119.346 4.23262 0.323932 0
M  V30 1377 C 117.253 5.72333 -1.48959 0
M  V30 1378 H 116.183 0.75325 -0.0336299 0
M  V30 1379 H 118.834 1.66901 -0.76265 0
M  V30 1380 H 117.216 3.91411 0.601105 0
M  V30 1381 H 118.39 4.01796 -2.25602 0
M  V30 1382 H 116.705 3.70565 -1.89923 0
M  V30 1383 H 119.302 5.33522 0.354691 0
M  V30 1384 H 119.645 3.93921 1.34656 0
M  V30 1385 H 120.178 3.96239 -0.352056 0
M  V30 1386 H 116.917 6.06373 -2.48981 0
M  V30 1387 H 116.437 5.94691 -0.781214 0
M  V30 1388 H 118.116 6.35525 -1.21313 0
M  V30 1389 N 118.248 0.346503 1.53744 0
M  V30 1390 C 119.478 -0.250047 2.05081 0
M  V30 1391 C 119.886 -1.44529 1.22098 0
M  V30 1392 O 119.229 -1.81992 0.249917 0
M  V30 1393 C 119.291 -0.725934 3.52094 0
M  V30 1394 C 118.955 0.350053 4.55657 0
M  V30 1395 C 119.952 1.19372 5.0601 0
M  V30 1396 C 117.637 0.504827 4.99757 0
M  V30 1397 C 119.631 2.17768 5.99046 0
M  V30 1398 C 117.318 1.49218 5.92602 0
M  V30 1399 C 118.316 2.32706 6.42135 0
M  V30 1400 O 118.004 3.2976 7.33153 0
M  V30 1401 H 117.736 -0.0515469 0.674032 0
M  V30 1402 H 120.29 0.497559 1.99282 0
M  V30 1403 H 118.52 -1.52483 3.55367 0
M  V30 1404 H 120.209 -1.24336 3.86388 0
M  V30 1405 H 120.975 1.08525 4.72702 0
M  V30 1406 H 116.854 -0.135178 4.60802 0
M  V30 1407 H 120.398 2.82971 6.37631 0
M  V30 1408 H 116.295 1.6012 6.25325 0
M  V30 1409 H 117.063 3.25265 7.51096 0
M  V30 1410 N 119.726 -1.57421 0.075193 0
M  V30 1411 C 120.975 -1.92794 -0.592731 0
M  V30 1412 C 121.288 -0.957478 -1.70563 0
M  V30 1413 O 122.494 -1.20417 -2.43335 0
M  V30 1414 C 120.95 -3.42495 -1.10569 0
M  V30 1415 C 120.558 -4.47994 -0.0236121 0
M  V30 1416 C 122.302 -3.86864 -1.74748 0
M  V30 1417 C 120.209 -5.88829 -0.550803 0
M  V30 1418 H 119.139 -0.719591 -0.225177 0
M  V30 1419 H 121.79 -1.82902 0.147978 0
M  V30 1420 H 120.172 -3.47471 -1.89947 0
M  V30 1421 H 121.346 -4.54637 0.751099 0
M  V30 1422 H 119.661 -4.13113 0.522159 0
M  V30 1423 H 122.258 -4.8947 -2.15229 0
M  V30 1424 H 122.601 -3.24417 -2.60882 0
M  V30 1425 H 123.134 -3.84504 -1.01986 0
M  V30 1426 H 119.873 -6.54929 0.273457 0
M  V30 1427 H 119.393 -5.85698 -1.29296 0
M  V30 1428 H 121.072 -6.38811 -1.02613 0
M  V30 1429 N 121.204 0.198386 -1.56346 0
M  V30 1430 C 122.114 1.2664 -1.97483 0
M  V30 1431 C 123.13 1.49989 -0.882002 0
M  V30 1432 O 124.306 1.62668 -1.18748 0
M  V30 1433 C 121.371 2.59141 -2.30319 0
M  V30 1434 C 120.432 2.43892 -3.53292 0
M  V30 1435 C 119.665 3.70074 -3.84553 0
M  V30 1436 O 119.888 4.74101 -3.1715 0
M  V30 1437 O 118.822 3.658 -4.7799 0
M  V30 1438 H 122.648 0.947304 -2.88548 0
M  V30 1439 H 120.233 0.403123 -1.43859 0
M  V30 1440 H 122.115 3.37352 -2.5253 0
M  V30 1441 H 120.79 2.90684 -1.42423 0
M  V30 1442 H 119.697 1.63803 -3.36332 0
M  V30 1443 H 121.03 2.17282 -4.41644 0
M  V30 1444 N 122.682 1.50554 0.465978 0
M  V30 1445 C 124.098 1.38093 0.800154 0
M  V30 1446 C 124.298 0.440988 1.96615 0
M  V30 1447 O 123.354 -0.114499 2.5224 0
M  V30 1448 C 124.667 2.79565 1.10742 0
M  V30 1449 C 126.215 2.88516 1.21357 0
M  V30 1450 C 126.69 4.30833 1.55393 0
M  V30 1451 N 128.181 4.33807 1.62375 0
M  V30 1452 C 128.916 5.40927 1.90225 0
M  V30 1453 N 128.412 6.58247 2.16062 0
M  V30 1454 N 130.205 5.28376 1.9177 0
M  V30 1455 H 122.356 2.10237 -0.302366 0
M  V30 1456 H 124.619 0.945203 -0.0727746 0
M  V30 1457 H 124.325 3.50208 0.323661 0
M  V30 1458 H 124.199 3.17125 2.04234 0
M  V30 1459 H 126.586 2.1809 1.98799 0
M  V30 1460 H 126.667 2.54492 0.258321 0
M  V30 1461 H 126.311 5.01799 0.784889 0
M  V30 1462 H 126.241 4.62347 2.52076 0
M  V30 1463 H 128.732 3.49212 1.44427 0
M  V30 1464 H 129.045 7.3569 2.36601 0
M  V30 1465 H 127.39 6.61413 2.13444 0
M  V30 1466 H 130.581 4.35715 1.71085 0
M  V30 1467 H 130.754 6.11944 2.13139 0
M  V30 1468 N 124.16 -0.719506 1.40217 0
M  V30 1469 C 125.406 -1.48152 1.38488 0
M  V30 1470 C 125.739 -1.94195 -0.0141867 0
M  V30 1471 O 125.014 -1.67884 -0.982096 0
M  V30 1472 C 125.297 -2.71035 2.37091 0
M  V30 1473 C 125.15 -2.30912 3.86005 0
M  V30 1474 C 126.469 -3.73182 2.33288 0
M  V30 1475 H 123.588 -0.537395 0.504357 0
M  V30 1476 H 126.23 -0.821472 1.71324 0
M  V30 1477 H 124.38 -3.27352 2.0922 0
M  V30 1478 H 126.052 -1.80107 4.24687 0
M  V30 1479 H 124.295 -1.62958 4.02029 0
M  V30 1480 H 124.966 -3.18978 4.50508 0
M  V30 1481 H 127.442 -3.26485 2.57966 0
M  V30 1482 H 126.318 -4.56806 3.04334 0
M  V30 1483 H 126.579 -4.21202 1.34317 0
M  V30 1484 N 125.638 -1.25649 -0.95132 0
M  V30 1485 C 126.57 -1.02112 -2.05197 0
M  V30 1486 C 127.583 0.0150571 -1.62793 0
M  V30 1487 O 128.772 -0.223874 -1.77091 0
M  V30 1488 C 125.872 -0.522361 -3.3485 0
M  V30 1489 C 125.045 -1.62546 -4.06076 0
M  V30 1490 C 124.104 -1.12649 -5.14001 0
M  V30 1491 O 123.13 -1.82156 -5.39266 0
M  V30 1492 N 124.332 0.03047 -5.80492 0
M  V30 1493 H 127.097 -1.96885 -2.25957 0
M  V30 1494 H 124.658 -1.16899 -1.1201 0
M  V30 1495 H 126.65 -0.172961 -4.0433 0
M  V30 1496 H 125.22 0.33151 -3.10837 0
M  V30 1497 H 124.44 -2.14628 -3.30649 0
M  V30 1498 H 125.728 -2.36644 -4.50419 0
M  V30 1499 H 125.126 0.611169 -5.62389 0
M  V30 1500 H 123.683 0.320875 -6.5101 0
M  V30 1501 N 127.117 1.15442 -1.07289 0
M  V30 1502 C 128.533 1.38201 -0.798288 0
M  V30 1503 C 128.733 1.92429 0.597769 0
M  V30 1504 O 127.789 2.12962 1.3566 0
M  V30 1505 C 129.102 2.35357 -1.87156 0
M  V30 1506 C 130.65 2.49021 -1.89624 0
M  V30 1507 C 131.125 3.49468 -2.96034 0
M  V30 1508 N 132.616 3.57003 -2.95132 0
M  V30 1509 C 133.351 4.34543 -3.74112 0
M  V30 1510 N 132.847 5.15421 -4.6294 0
M  V30 1511 N 134.64 4.29625 -3.62462 0
M  V30 1512 H 126.791 0.78584 -1.97328 0
M  V30 1513 H 129.054 0.408065 -0.855679 0
M  V30 1514 H 128.76 2.02626 -2.87464 0
M  V30 1515 H 128.634 3.35129 -1.73114 0
M  V30 1516 H 131.021 2.81051 -0.899687 0
M  V30 1517 H 131.102 1.4925 -2.07745 0
M  V30 1518 H 130.746 3.18173 -3.95889 0
M  V30 1519 H 130.676 4.48992 -2.75161 0
M  V30 1520 H 133.167 2.99276 -2.30743 0
M  V30 1521 H 133.48 5.7183 -5.19837 0
M  V30 1522 H 131.825 5.14729 -4.66989 0
M  V30 1523 H 135.016 3.65505 -2.92444 0
M  V30 1524 H 135.189 4.89807 -4.24256 0
M  V30 1525 N 128.595 0.856903 1.32268 0
M  V30 1526 C 129.505 0.306131 2.32594 0
M  V30 1527 C 130.521 -0.577209 1.64147 0
M  V30 1528 O 131.697 -0.477043 1.95669 0
M  V30 1529 C 128.762 -0.494561 3.43154 0
M  V30 1530 C 127.823 0.415186 4.27288 0
M  V30 1531 C 127.056 -0.347387 5.32568 0
M  V30 1532 O 127.279 -1.57708 5.48165 0
M  V30 1533 O 126.213 0.287982 6.01211 0
M  V30 1534 H 130.039 1.13737 2.81598 0
M  V30 1535 H 127.624 0.619902 1.35932 0
M  V30 1536 H 129.506 -0.948944 4.10576 0
M  V30 1537 H 128.181 -1.30257 2.96336 0
M  V30 1538 H 127.088 0.917793 3.62667 0
M  V30 1539 H 128.421 1.18844 4.77637 0
M  V30 1540 N 130.073 -1.45103 0.615059 0
M  V30 1541 C 131.02 -2.30586 -0.0993978 0
M  V30 1542 C 131.99 -1.42544 -0.852669 0
M  V30 1543 O 133.175 -1.71465 -0.836917 0
M  V30 1544 C 130.315 -3.27572 -1.08583 0
M  V30 1545 C 129.428 -4.30717 -0.332656 0
M  V30 1546 C 128.563 -5.14807 -1.30947 0
M  V30 1547 C 127.602 -6.09673 -0.544538 0
M  V30 1548 N 126.739 -6.86517 -1.47101 0
M  V30 1549 H 131.579 -2.91144 0.635542 0
M  V30 1550 H 129.116 -1.4346 0.325206 0
M  V30 1551 H 131.074 -3.82276 -1.67095 0
M  V30 1552 H 129.704 -2.68751 -1.78809 0
M  V30 1553 H 128.756 -3.78615 0.368107 0
M  V30 1554 H 130.068 -4.98102 0.263842 0
M  V30 1555 H 129.222 -5.73948 -1.96643 0
M  V30 1556 H 127.961 -4.47458 -1.9399 0
M  V30 1557 H 126.966 -5.49656 0.126003 0
M  V30 1558 H 128.191 -6.79052 0.080947 0
M  V30 1559 H 126.137 -6.21851 -2.08895 0
M  V30 1560 H 126.054 -7.50281 -0.928137 0
M  V30 1561 H 127.322 -7.50194 -2.11731 0
M  V30 1562 N 131.551 -0.354651 -1.53558 0
M  V30 1563 C 132.514 0.484566 -2.24019 0
M  V30 1564 C 133.514 1.01861 -1.24422 0
M  V30 1565 O 134.704 0.906097 -1.4878 0
M  V30 1566 C 131.836 1.67615 -2.96847 0
M  V30 1567 H 133.029 -0.131843 -2.9961 0
M  V30 1568 H 130.582 -0.106165 -1.55939 0
M  V30 1569 H 131.317 2.33095 -2.25471 0
M  V30 1570 H 131.102 1.30029 -3.69912 0
M  V30 1571 H 132.592 2.27114 -3.50441 0
M  V30 1572 N 133.029 1.57378 -0.0835403 0
M  V30 1573 C 133.977 2.14602 0.89714 0
M  V30 1574 C 134.971 1.08589 1.30018 0
M  V30 1575 O 136.177 1.26952 1.27606 0
M  V30 1576 H 132.552 0.686346 0.3073 0
M  V30 1577 H 134.523 2.95845 0.38969 0
M  V30 1578 C 133.272 2.73188 2.15089 0
M  V30 1579 H 132.595 3.54442 1.84962 0
M  V30 1580 H 134.035 3.1681 2.81793 0
M  V30 1581 C 132.494 1.68517 2.91725 0
M  V30 1582 O 133.024 1.11718 3.85852 0
M  V30 1583 N 131.23 1.39277 2.55049 0
M  V30 1584 H 130.777 1.85655 1.78577 0
M  V30 1585 H 130.735 0.694791 3.06627 0
M  V30 1586 N 134.507 -0.190092 1.56449 0
M  V30 1587 C 135.755 -0.907908 1.80559 0
M  V30 1588 C 136.076 -1.83583 0.657438 0
M  V30 1589 O 135.346 -1.93203 -0.323924 0
M  V30 1590 H 133.926 -0.338247 0.666032 0
M  V30 1591 H 136.588 -0.194403 1.93928 0
M  V30 1592 H 135.684 -1.49604 2.73907 0
M  V30 1593 N 135.985 -1.50799 -0.457987 0
M  V30 1594 C 137.213 -1.66218 -1.23203 0
M  V30 1595 C 137.628 -0.350894 -1.85511 0
M  V30 1596 O 136.985 0.668546 -1.69814 0
M  V30 1597 C 137.036 -2.76291 -2.33121 0
M  V30 1598 O 136.757 -4.02338 -1.73366 0
M  V30 1599 C 138.258 -3.028 -3.2377 0
M  V30 1600 H 135.478 -0.558361 -0.372121 0
M  V30 1601 H 138.022 -1.97099 -0.545179 0
M  V30 1602 H 136.177 -2.48068 -2.97558 0
M  V30 1603 H 136.591 -4.63312 -2.4585 0
M  V30 1604 H 138.065 -3.8345 -3.97077 0
M  V30 1605 H 138.542 -2.14385 -3.83322 0
M  V30 1606 H 139.148 -3.32604 -2.65056 0
M  V30 1607 N 137.463 0.71206 -1.40597 0
M  V30 1608 C 138.691 1.50111 -1.42388 0
M  V30 1609 C 139.106 1.88784 -0.0245395 0
M  V30 1610 O 138.463 1.55681 0.952351 0
M  V30 1611 C 138.514 2.7742 -2.31776 0
M  V30 1612 O 138.235 2.40382 -3.66262 0
M  V30 1613 C 139.736 3.7129 -2.42196 0
M  V30 1614 H 136.956 0.46314 -0.485533 0
M  V30 1615 H 139.5 0.878068 -1.8469 0
M  V30 1616 H 137.655 3.36001 -1.92827 0
M  V30 1617 H 138.069 3.22324 -4.13772 0
M  V30 1618 H 139.543 4.57448 -3.08943 0
M  V30 1619 H 140.02 4.14641 -1.44809 0
M  V30 1620 H 140.626 3.18619 -2.81712 0
M  V30 1621 N 138.941 1.26152 0.944643 0
M  V30 1622 C 140.187 1.11657 1.69294 0
M  V30 1623 C 140.52 -0.339926 1.91202 0
M  V30 1624 O 139.795 -1.24994 1.49019 0
M  V30 1625 C 140.078 1.88236 3.06984 0
M  V30 1626 C 139.931 3.41772 2.92424 0
M  V30 1627 C 141.25 1.67343 4.07043 0
M  V30 1628 H 138.369 0.407004 0.614424 0
M  V30 1629 H 141.011 1.55106 1.09737 0
M  V30 1630 H 139.161 1.51308 3.57824 0
M  V30 1631 H 140.833 3.88433 2.48832 0
M  V30 1632 H 139.076 3.68974 2.28124 0
M  V30 1633 H 139.747 3.90579 3.90067 0
M  V30 1634 H 142.223 1.99509 3.65151 0
M  V30 1635 H 141.099 2.23346 5.01406 0
M  V30 1636 H 141.36 0.617158 4.37771 0
M  V30 1637 N 140.419 -1.14872 1.07899 0
M  V30 1638 C 141.369 -2.17809 0.674027 0
M  V30 1639 C 142.353 -1.58008 -0.303699 0
M  V30 1640 O 143.545 -1.76616 -0.11654 0
M  V30 1641 C 140.674 -3.43208 0.0793318 0
M  V30 1642 C 139.76 -4.10051 1.08253 0
M  V30 1643 N 140.151 -4.52296 2.2641 0
M  V30 1644 C 138.449 -4.36469 0.917124 0
M  V30 1645 C 139.15 -5.04199 2.901 0
M  V30 1646 N 138.126 -4.98088 2.17736 0
M  V30 1647 H 141.928 -2.48207 1.57386 0
M  V30 1648 H 139.442 -1.315 0.952976 0
M  V30 1649 H 141.439 -4.16272 -0.228719 0
M  V30 1650 H 140.099 -3.14291 -0.815551 0
M  V30 1651 H 141.11 -4.45504 2.64096 0
M  V30 1652 H 137.787 -4.17432 0.0756078 0
M  V30 1653 H 139.177 -5.46802 3.90458 0
M  V30 1654 N 141.898 -0.863906 -1.31812 0
M  V30 1655 C 143.144 -0.472535 -1.97218 0
M  V30 1656 C 143.477 0.971394 -1.68159 0
M  V30 1657 O 142.752 1.68309 -0.974798 0
M  V30 1658 C 143.035 -0.723054 -3.52766 0
M  V30 1659 C 142.888 -2.21608 -3.91421 0
M  V30 1660 C 144.207 -0.185522 -4.39709 0
M  V30 1661 H 141.326 -0.173158 -0.71637 0
M  V30 1662 H 143.968 -1.08403 -1.56041 0
M  V30 1663 H 142.118 -0.202577 -3.87971 0
M  V30 1664 H 143.79 -2.80334 -3.66347 0
M  V30 1665 H 142.033 -2.691 -3.40246 0
M  V30 1666 H 142.704 -2.34203 -4.99853 0
M  V30 1667 H 145.18 -0.630726 -4.11292 0
M  V30 1668 H 144.056 -0.390306 -5.47511 0
M  V30 1669 H 144.317 0.912229 -4.32586 0
M  V30 1670 N 143.376 1.44774 -0.622745 0
M  V30 1671 C 144.624 2.01721 -0.123655 0
M  V30 1672 C 144.945 1.49172 1.25589 0
M  V30 1673 O 144.215 0.691974 1.83272 0
M  V30 1674 H 142.795 0.745777 -0.0427225 0
M  V30 1675 H 145.457 1.77382 -0.807559 0
M  V30 1676 H 144.553 3.11984 -0.0849534 0
M  V30 1677 N 144.854 0.36279 1.53368 0
M  V30 1678 C 146.103 -0.22888 2.00397 0
M  V30 1679 C 146.416 -1.50096 1.25421 0
M  V30 1680 O 147.622 -2.17106 1.63025 0
M  V30 1681 C 146.078 -0.458417 3.56969 0
M  V30 1682 C 145.686 0.798877 4.4082 0
M  V30 1683 C 147.43 -1.00789 4.12361 0
M  V30 1684 C 145.337 0.539078 5.88938 0
M  V30 1685 H 144.267 -0.089305 0.748693 0
M  V30 1686 H 146.918 0.481099 1.77081 0
M  V30 1687 H 145.3 -1.22959 3.76427 0
M  V30 1688 H 146.474 1.57262 4.33134 0
M  V30 1689 H 144.789 1.27137 3.96516 0
M  V30 1690 H 147.386 -1.21754 5.20653 0
M  V30 1691 H 147.729 -1.9692 3.66781 0
M  V30 1692 H 148.262 -0.296961 3.9669 0
M  V30 1693 H 145.001 1.47064 6.3879 0
M  V30 1694 H 144.521 -0.196222 5.99479 0
M  V30 1695 H 146.2 0.163542 6.46793 0
M  V30 1696 N 146.332 -1.57332 0.0918853 0
M  V30 1697 C 147.282 -2.10385 -0.87876 0
M  V30 1698 C 148.266 -1.01814 -1.24591 0
M  V30 1699 O 149.458 -1.28093 -1.22152 0
M  V30 1700 C 146.587 -2.68517 -2.13901 0
M  V30 1701 C 145.673 -3.84126 -1.79744 0
M  V30 1702 N 146.064 -4.92288 -1.1613 0
M  V30 1703 C 144.362 -3.93801 -2.09373 0
M  V30 1704 C 145.063 -5.7295 -1.00513 0
M  V30 1705 N 144.039 -5.21876 -1.5214 0
M  V30 1706 H 147.841 -2.91395 -0.38293 0
M  V30 1707 H 145.355 -1.62017 -0.111423 0
M  V30 1708 H 147.352 -3.04852 -2.84378 0
M  V30 1709 H 146.012 -1.88961 -2.64053 0
M  V30 1710 H 147.023 -5.1123 -0.828504 0
M  V30 1711 H 143.7 -3.25249 -2.61762 0
M  V30 1712 H 145.09 -6.69978 -0.507902 0
M  V30 1713 N 147.81 0.181792 -1.56548 0
M  V30 1714 C 149.221 0.745244 -1.71181 0
M  V30 1715 C 149.572 1.83262 -0.70068 0
M  V30 1716 O 148.697 2.15946 0.140154 0
M  V30 1717 C 149.292 1.35859 -3.10367 0
M  V30 1718 C 147.851 1.86898 -3.2672 0
M  V30 1719 C 146.998 0.743942 -2.67134 0
M  V30 1720 H 149.949 -0.0434661 -1.5864 0
M  V30 1721 H 149.97 2.22817 -3.08436 0
M  V30 1722 H 149.482 0.566948 -3.83937 0
M  V30 1723 H 147.583 2.68738 -2.5809 0
M  V30 1724 H 147.696 2.02162 -4.34359 0
M  V30 1725 H 146.06 1.16169 -2.26665 0
M  V30 1726 H 146.843 -0.035676 -3.43281 0
M  V30 1727 N 149.288 1.51039 0.449983 0
M  V30 1728 C 150.513 1.6715 1.22783 0
M  V30 1729 C 150.938 0.363081 1.84563 0
M  V30 1730 O 150.296 -0.675433 1.68249 0
M  V30 1731 C 150.344 2.77985 2.29689 0
M  V30 1732 O 149.448 2.40707 3.34864 0
M  V30 1733 H 148.789 0.557746 0.360299 0
M  V30 1734 H 151.319 1.97535 0.533005 0
M  V30 1735 H 151.329 3.01693 2.74673 0
M  V30 1736 H 150.004 3.72935 1.84098 0
M  V30 1737 H 148.581 2.27523 2.95445 0
M  V30 1738 N 150.766 -0.704594 1.40972 0
M  V30 1739 C 151.713 -1.81862 1.42109 0
M  V30 1740 C 152.683 -1.63781 0.276593 0
M  V30 1741 O 153.868 -1.84759 0.4763 0
M  V30 1742 C 151.008 -3.19669 1.30022 0
M  V30 1743 C 150.121 -3.49246 2.54267 0
M  V30 1744 C 149.256 -4.76618 2.3454 0
M  V30 1745 C 148.295 -4.99133 3.54306 0
M  V30 1746 N 147.432 -6.17726 3.33706 0
M  V30 1747 H 152.272 -1.80226 2.37324 0
M  V30 1748 H 149.809 -0.880238 1.17857 0
M  V30 1749 H 151.767 -3.99263 1.21018 0
M  V30 1750 H 150.397 -3.20506 0.384192 0
M  V30 1751 H 149.449 -2.64125 2.73756 0
M  V30 1752 H 150.761 -3.61788 3.43381 0
M  V30 1753 H 149.915 -5.64249 2.22952 0
M  V30 1754 H 148.654 -4.66305 1.42867 0
M  V30 1755 H 147.659 -4.09953 3.66359 0
M  V30 1756 H 148.884 -5.11311 4.4692 0
M  V30 1757 H 146.83 -6.08642 2.44725 0
M  V30 1758 H 146.747 -6.30995 4.16391 0
M  V30 1759 H 148.015 -7.08115 3.25873 0
M  V30 1760 N 152.244 -1.26651 -0.937939 0
M  V30 1761 C 153.49 -1.12553 -1.687 0
M  V30 1762 C 153.823 0.329782 -1.91379 0
M  V30 1763 O 153.098 1.24202 -1.4968 0
M  V30 1764 C 153.381 -1.89862 -3.05981 0
M  V30 1765 C 153.234 -3.43318 -2.90607 0
M  V30 1766 C 154.553 -1.69499 -4.0615 0
M  V30 1767 H 151.672 -0.410257 -0.612257 0
M  V30 1768 H 154.314 -1.55685 -1.08913 0
M  V30 1769 H 152.464 -1.53204 -3.57017 0
M  V30 1770 H 154.136 -3.89747 -2.46769 0
M  V30 1771 H 152.379 -3.70179 -2.26164 0
M  V30 1772 H 153.05 -3.92642 -3.8799 0
M  V30 1773 H 155.526 -2.01442 -3.64088 0
M  V30 1774 H 154.402 -2.26002 -5.00214 0
M  V30 1775 H 154.663 -0.640365 -4.37438 0
M  V30 1776 N 153.722 1.14298 -1.08507 0
M  V30 1777 C 154.968 1.85633 -0.816581 0
M  V30 1778 C 155.301 1.82784 0.656021 0
M  V30 1779 O 154.576 1.25926 1.48233 0
M  V30 1780 C 154.859 3.34223 -1.34041 0
M  V30 1781 C 154.712 3.45639 -2.87843 0
M  V30 1782 C 156.031 4.29356 -0.9665 0
M  V30 1783 H 153.15 0.67402 -0.298104 0
M  V30 1784 H 155.792 1.34214 -1.34487 0
M  V30 1785 H 153.942 3.78144 -0.89104 0
M  V30 1786 H 155.614 3.10498 -3.41158 0
M  V30 1787 H 153.857 2.86817 -3.25451 0
M  V30 1788 H 154.528 4.50089 -3.19569 0
M  V30 1789 H 157.004 3.93457 -1.35391 0
M  V30 1790 H 155.88 5.3178 -1.3602 0
M  V30 1791 H 156.141 4.41919 0.126362 0
M  V30 1792 N 155.201 0.870884 1.31352 0
M  V30 1793 C 156.45 0.478408 1.95944 0
M  V30 1794 C 156.763 -0.974493 1.69597 0
M  V30 1795 O 157.969 -1.47316 2.28058 0
M  V30 1796 C 156.425 0.804609 3.50791 0
M  V30 1797 C 156.033 2.27433 3.85977 0
M  V30 1798 C 157.777 0.480648 4.2177 0
M  V30 1799 C 155.684 2.5429 5.33939 0
M  V30 1800 H 154.614 0.175175 0.733369 0
M  V30 1801 H 157.265 1.06391 1.4951 0
M  V30 1802 H 155.647 0.148347 3.95722 0
M  V30 1803 H 156.821 2.97373 3.52002 0
M  V30 1804 H 155.136 2.56442 3.28065 0
M  V30 1805 H 157.733 0.658519 5.30629 0
M  V30 1806 H 158.076 -0.578979 4.12254 0
M  V30 1807 H 158.609 1.09349 3.82476 0
M  V30 1808 H 155.348 3.58939 5.48491 0
M  V30 1809 H 154.868 1.88945 5.69263 0
M  V30 1810 H 156.547 2.39066 6.01212 0
M  V30 1811 N 156.679 -1.44442 0.630414 0
M  V30 1812 C 157.907 -2.06414 0.141671 0
M  V30 1813 C 158.322 -1.47105 -1.18345 0
M  V30 1814 O 157.679 -0.593662 -1.72574 0
M  V30 1815 C 157.73 -3.61494 0.0199784 0
M  V30 1816 O 157.451 -4.18594 1.29269 0
M  V30 1817 C 158.952 -4.40499 -0.497544 0
M  V30 1818 H 156.172 -0.666292 0.0793452 0
M  V30 1819 H 158.716 -1.85323 0.864614 0
M  V30 1820 H 156.871 -3.8185 -0.653402 0
M  V30 1821 H 157.285 -5.12026 1.13707 0
M  V30 1822 H 158.759 -5.49433 -0.531708 0
M  V30 1823 H 159.236 -4.11895 -1.52445 0
M  V30 1824 H 159.842 -4.25061 0.142562 0
M  V30 1825 N 158.157 -0.370918 -1.53173 0
M  V30 1826 C 159.573 -0.0200818 -1.59587 0
M  V30 1827 C 159.773 1.46279 -1.38581 0
M  V30 1828 O 158.829 2.22506 -1.19363 0
M  V30 1829 C 160.142 -0.4808 -2.96831 0
M  V30 1830 C 161.69 -0.435477 -3.09956 0
M  V30 1831 C 162.165 -0.872092 -4.4962 0
M  V30 1832 N 163.656 -0.827364 -4.55751 0
M  V30 1833 C 164.391 -1.13683 -5.62018 0
M  V30 1834 N 163.887 -1.51584 -6.76014 0
M  V30 1835 N 165.68 -1.05927 -5.52029 0
M  V30 1836 H 157.831 -1.33652 -1.65079 0
M  V30 1837 H 160.094 -0.546634 -0.774529 0
M  V30 1838 H 159.8 -1.51577 -3.1736 0
M  V30 1839 H 159.674 0.129796 -3.76977 0
M  V30 1840 H 162.061 0.590371 -2.89134 0
M  V30 1841 H 162.142 -1.08164 -2.31806 0
M  V30 1842 H 161.786 -1.89608 -4.71181 0
M  V30 1843 H 161.716 -0.203127 -5.26208 0
M  V30 1844 H 164.207 -0.548216 -3.73902 0
M  V30 1845 H 164.52 -1.73609 -7.53047 0
M  V30 1846 H 162.865 -1.55454 -6.77391 0
M  V30 1847 H 166.056 -0.762321 -4.61851 0
M  V30 1848 H 166.229 -1.30378 -6.34749 0
M  V30 1849 N 159.635 1.57281 -0.100228 0
M  V30 1850 C 160.565 2.17328 0.853857 0
M  V30 1851 C 161.546 1.10804 1.2906 0
M  V30 1852 O 162.731 1.38963 1.35657 0
M  V30 1853 C 159.861 2.75772 2.11109 0
M  V30 1854 C 158.815 3.87713 1.81279 0
M  V30 1855 C 158.141 4.32882 3.13874 0
M  V30 1856 C 159.441 5.10677 1.09574 0
M  V30 1857 H 161.135 2.97305 0.353545 0
M  V30 1858 H 158.681 1.43009 0.168612 0
M  V30 1859 H 160.634 3.16433 2.78296 0
M  V30 1860 H 159.358 1.93057 2.63432 0
M  V30 1861 H 158.017 3.476 1.16489 0
M  V30 1862 H 157.665 3.47051 3.64095 0
M  V30 1863 H 157.365 5.08358 2.94696 0
M  V30 1864 H 158.889 4.7618 3.82211 0
M  V30 1865 H 160.303 5.48474 1.66879 0
M  V30 1866 H 158.7 5.91615 1.00557 0
M  V30 1867 H 159.77 4.84835 0.0793299 0
M  V30 1868 N 161.113 -0.173488 1.56642 0
M  V30 1869 C 162.06 -1.21482 1.96242 0
M  V30 1870 C 163.03 -1.44104 0.826027 0
M  V30 1871 O 164.215 -1.5688 1.08597 0
M  V30 1872 C 161.355 -2.54964 2.32567 0
M  V30 1873 C 160.468 -2.39739 3.59373 0
M  V30 1874 C 159.603 -3.66072 3.84921 0
M  V30 1875 C 158.642 -3.45771 5.05083 0
M  V30 1876 N 157.779 -4.64169 5.26775 0
M  V30 1877 H 162.619 -0.870123 2.85014 0
M  V30 1878 H 160.156 -0.418245 1.41029 0
M  V30 1879 H 162.114 -3.32758 2.5165 0
M  V30 1880 H 160.744 -2.87433 1.46908 0
M  V30 1881 H 159.796 -1.53131 3.48217 0
M  V30 1882 H 161.108 -2.20683 4.47326 0
M  V30 1883 H 160.262 -4.52303 4.0436 0
M  V30 1884 H 159.001 -3.88105 2.9534 0
M  V30 1885 H 158.006 -2.57927 4.85545 0
M  V30 1886 H 159.231 -3.25163 5.96193 0
M  V30 1887 H 157.177 -4.86425 4.40144 0
M  V30 1888 H 157.094 -4.48019 6.08946 0
M  V30 1889 H 158.362 -5.51689 5.5069 0
M  V30 1890 N 162.591 -1.51276 -0.441967 0
M  V30 1891 C 163.521 -1.752 -1.54361 0
M  V30 1892 C 164.502 -0.601682 -1.59103 0
M  V30 1893 O 165.687 -0.843913 -1.74905 0
M  V30 1894 C 162.817 -1.87282 -2.92477 0
M  V30 1895 C 161.771 -3.02687 -3.02596 0
M  V30 1896 C 161.097 -2.99947 -4.42647 0
M  V30 1897 C 162.397 -4.4273 -2.77106 0
M  V30 1898 H 164.091 -2.67442 -1.34592 0
M  V30 1899 H 161.637 -1.28694 -0.646048 0
M  V30 1900 H 163.59 -2.02602 -3.695 0
M  V30 1901 H 162.314 -0.916844 -3.13467 0
M  V30 1902 H 160.973 -2.87065 -2.28012 0
M  V30 1903 H 160.621 -2.02136 -4.60597 0
M  V30 1904 H 160.321 -3.77439 -4.50348 0
M  V30 1905 H 161.845 -3.17354 -5.2165 0
M  V30 1906 H 163.259 -4.58727 -3.43864 0
M  V30 1907 H 161.656 -5.21893 -2.96222 0
M  V30 1908 H 162.726 -4.53087 -1.72744 0
M  V30 1909 N 164.069 0.697108 -1.41344 0
M  V30 1910 C 165.346 1.45154 -1.31109 0
M  V30 1911 C 165.726 2.11009 0.0620449 0
M  V30 1912 O 165.074 2.01571 1.07618 0
M  V30 1913 C 165.284 2.47223 -2.46337 0
M  V30 1914 C 166.632 3.1252 -2.87431 0
M  V30 1915 O 167.656 2.57547 -2.46065 0
M  V30 1916 O 166.515 4.12083 -3.58957 0
M  V30 1917 H 163.609 0.646365 -0.515889 0
M  V30 1918 H 166.155 0.727716 -1.53305 0
M  V30 1919 H 164.927 1.97204 -3.37974 0
M  V30 1920 H 164.55 3.27116 -2.2601 0
M  V30 1921 N 165.547 1.27147 0.931209 0
M  V30 1922 C 166.494 1.09568 2.03134 0
M  V30 1923 C 167.464 -0.00222433 1.661 0
M  V30 1924 O 168.649 0.159439 1.90133 0
M  V30 1925 C 165.789 0.745231 3.36957 0
M  V30 1926 C 164.902 1.92041 3.86968 0
M  V30 1927 C 164.037 1.51216 5.09222 0
M  V30 1928 C 163.076 2.65504 5.5152 0
M  V30 1929 N 162.213 2.25291 6.64972 0
M  V30 1930 H 167.053 2.03708 2.17502 0
M  V30 1931 H 164.59 1.01411 1.06556 0
M  V30 1932 H 166.548 0.522878 4.1391 0
M  V30 1933 H 165.178 -0.159202 3.22407 0
M  V30 1934 H 164.23 2.25541 3.06326 0
M  V30 1935 H 165.542 2.77787 4.1429 0
M  V30 1936 H 164.696 1.25084 5.93666 0
M  V30 1937 H 163.435 0.625749 4.83669 0
M  V30 1938 H 162.44 2.92354 4.65628 0
M  V30 1939 H 163.665 3.54761 5.7907 0
M  V30 1940 H 161.611 1.39098 6.41083 0
M  V30 1941 H 161.528 3.04577 6.91931 0
M  V30 1942 H 162.796 2.02398 7.52765 0
M  V30 1943 N 167.025 -1.13721 1.09112 0
M  V30 1944 C 168.302 -1.81155 0.737706 0
M  V30 1945 C 168.682 -1.96253 -0.777683 0
M  V30 1946 O 168.03 -1.52807 -1.69889 0
M  V30 1947 C 168.24 -3.16392 1.47299 0
M  V30 1948 C 169.588 -3.91787 1.63671 0
M  V30 1949 O 170.612 -3.26005 1.43524 0
M  V30 1950 O 169.471 -5.0977 1.96969 0
M  V30 1951 H 166.565 -0.783518 0.26463 0
M  V30 1952 H 169.111 -1.20676 1.19312 0
M  V30 1953 H 167.883 -3.0061 2.50498 0
M  V30 1954 H 167.506 -3.8457 1.00953 0
M  V30 1955 N 168.503 -0.877838 -1.30888 0
M  V30 1956 C 169.919 -0.570844 -1.49042 0
M  V30 1957 C 170.119 0.893159 -1.80624 0
M  V30 1958 O 169.175 1.67485 -1.88958 0
M  V30 1959 C 170.488 -1.47784 -2.61878 0
M  V30 1960 C 172.036 -1.48071 -2.75761 0
M  V30 1961 C 172.511 -2.37347 -3.91702 0
M  V30 1962 N 174.002 -2.35271 -3.99001 0
M  V30 1963 C 174.737 -3.01063 -4.88004 0
M  V30 1964 N 174.233 -3.76055 -5.81854 0
M  V30 1965 N 176.026 -2.90332 -4.81315 0
M  V30 1966 H 168.177 -1.82502 -1.0866 0
M  V30 1967 H 170.44 -0.780797 -0.537644 0
M  V30 1968 H 170.146 -2.51993 -2.45341 0
M  V30 1969 H 170.02 -1.18215 -3.58197 0
M  V30 1970 H 172.407 -0.446166 -2.91708 0
M  V30 1971 H 172.488 -1.81668 -1.80085 0
M  V30 1972 H 172.132 -3.40883 -3.76512 0
M  V30 1973 H 172.062 -2.01071 -4.86701 0
M  V30 1974 H 174.553 -1.80768 -3.3186 0
M  V30 1975 H 174.866 -4.23366 -6.46514 0
M  V30 1976 H 173.211 -3.80163 -5.81808 0
M  V30 1977 H 176.402 -2.31278 -4.06974 0
M  V30 1978 H 176.575 -3.41885 -5.50471 0
M  V30 1979 N 169.982 1.44106 -0.638065 0
M  V30 1980 C 170.929 2.30715 0.062701 0
M  V30 1981 C 171.899 1.43882 0.829883 0
M  V30 1982 O 173.084 1.72775 0.809532 0
M  V30 1983 C 170.224 3.29258 1.03358 0
M  V30 1984 C 169.337 4.31192 0.26409 0
M  V30 1985 C 168.472 5.16825 1.22741 0
M  V30 1986 C 167.511 6.10462 0.447475 0
M  V30 1987 N 166.648 6.8877 1.36161 0
M  V30 1988 H 171.488 2.90096 -0.681781 0
M  V30 1989 H 169.025 1.42925 -0.347988 0
M  V30 1990 H 170.983 3.84886 1.60992 0
M  V30 1991 H 169.613 2.71562 1.74511 0
M  V30 1992 H 168.665 3.77981 -0.428295 0
M  V30 1993 H 169.977 4.97619 -0.343052 0
M  V30 1994 H 169.131 5.77004 1.87487 0
M  V30 1995 H 167.87 4.50488 1.86847 0
M  V30 1996 H 166.875 5.49386 -0.213433 0
M  V30 1997 H 168.1 6.78837 -0.188968 0
M  V30 1998 H 166.046 6.25096 1.98975 0
M  V30 1999 H 165.963 7.51663 0.808656 0
M  V30 2000 H 167.231 7.53467 1.99769 0
M  V30 2001 N 171.46 0.379036 1.52974 0
M  V30 2002 C 172.407 -0.461048 2.26148 0
M  V30 2003 C 173.377 -1.06637 1.27349 0
M  V30 2004 O 174.562 -1.09633 1.56157 0
M  V30 2005 C 171.702 -1.58782 3.06402 0
M  V30 2006 C 170.815 -1.00636 4.20115 0
M  V30 2007 C 169.95 -2.10334 4.87784 0
M  V30 2008 C 168.989 -1.49724 5.93506 0
M  V30 2009 N 168.126 -2.5331 6.54812 0
M  V30 2010 H 172.966 0.169429 2.97518 0
M  V30 2011 H 170.503 0.0953806 1.4679 0
M  V30 2012 H 172.461 -2.25174 3.51215 0
M  V30 2013 H 171.091 -2.18876 2.37261 0
M  V30 2014 H 170.143 -0.232332 3.7969 0
M  V30 2015 H 171.455 -0.523343 4.96047 0
M  V30 2016 H 170.609 -2.84519 5.35849 0
M  V30 2017 H 169.348 -2.61992 4.11353 0
M  V30 2018 H 168.353 -0.740598 5.44789 0
M  V30 2019 H 169.578 -0.988732 6.71864 0
M  V30 2020 H 167.524 -3.04156 5.81227 0
M  V30 2021 H 167.441 -2.09734 7.26325 0
M  V30 2022 H 168.709 -3.27155 7.07524 0
M  V30 2023 N 172.938 -1.57226 0.108567 0
M  V30 2024 C 174.187 -1.94008 -0.551703 0
M  V30 2025 C 174.5 -0.993442 -1.68494 0
M  V30 2026 O 175.706 -1.25551 -2.40726 0
M  V30 2027 C 174.162 -3.44763 -1.03279 0
M  V30 2028 C 173.77 -4.47943 0.0714193 0
M  V30 2029 C 175.514 -3.90483 -1.66503 0
M  V30 2030 C 173.421 -5.89865 -0.425779 0
M  V30 2031 H 172.351 -0.724206 -0.209863 0
M  V30 2032 H 175.002 -1.82547 0.186741 0
M  V30 2033 H 173.384 -3.51422 -1.82533 0
M  V30 2034 H 174.558 -4.52942 0.847365 0
M  V30 2035 H 172.873 -4.11913 0.609669 0
M  V30 2036 H 175.47 -4.93925 -2.04798 0
M  V30 2037 H 175.813 -3.29877 -2.53942 0
M  V30 2038 H 176.346 -3.86581 -0.938074 0
M  V30 2039 H 173.085 -6.54202 0.412316 0
M  V30 2040 H 172.605 -5.88309 -1.16843 0
M  V30 2041 H 174.284 -6.40844 -0.890397 0
M  V30 2042 N 174.416 0.165178 -1.56732 0
M  V30 2043 C 175.346 1.20651 -1.99914 0
M  V30 2044 C 176.327 1.45827 -0.875705 0
M  V30 2045 O 177.512 1.57057 -1.14223 0
M  V30 2046 C 174.642 2.54401 -2.36427 0
M  V30 2047 C 173.596 2.43782 -3.51787 0
M  V30 2048 C 172.922 3.82078 -3.7406 0
M  V30 2049 C 174.222 1.93732 -4.85041 0
M  V30 2050 H 175.916 0.847534 -2.87154 0
M  V30 2051 H 173.462 0.40625 -1.38151 0
M  V30 2052 H 175.415 3.27458 -2.65234 0
M  V30 2053 H 174.139 2.92098 -1.46103 0
M  V30 2054 H 172.798 1.73178 -3.23117 0
M  V30 2055 H 172.446 4.17179 -2.81017 0
M  V30 2056 H 172.146 3.7584 -4.51684 0
M  V30 2057 H 173.67 4.56712 -4.05274 0
M  V30 2058 H 175.084 2.56569 -5.12684 0
M  V30 2059 H 173.481 1.98428 -5.66345 0
M  V30 2060 H 174.551 0.891962 -4.76626 0
M  V30 2061 N 175.894 1.51508 0.433938 0
M  V30 2062 C 176.804 1.75917 1.5521 0
M  V30 2063 C 177.82 0.643545 1.61662 0
M  V30 2064 O 178.996 0.926183 1.7884 0
M  V30 2065 C 176.061 1.88213 2.91164 0
M  V30 2066 C 175.122 3.12074 2.94802 0
M  V30 2067 C 174.355 3.23774 4.24271 0
M  V30 2068 O 174.578 2.4133 5.16833 0
M  V30 2069 O 173.512 4.16774 4.34262 0
M  V30 2070 H 177.338 2.70777 1.37527 0
M  V30 2071 H 174.923 1.36051 0.617293 0
M  V30 2072 H 176.805 1.98267 3.71845 0
M  V30 2073 H 175.48 0.965413 3.08968 0
M  V30 2074 H 174.387 3.07497 2.13065 0
M  V30 2075 H 175.72 4.03446 2.81943 0
M  V30 2076 N 177.372 -0.689602 1.41712 0
M  V30 2077 C 178.788 -1.00093 1.24312 0
M  V30 2078 C 178.988 -2.01036 0.136729 0
M  V30 2079 O 178.044 -2.47562 -0.496918 0
M  V30 2080 C 179.357 -1.51985 2.59463 0
M  V30 2081 C 180.905 -1.63838 2.66695 0
M  V30 2082 C 181.38 -2.1913 4.02177 0
M  V30 2083 N 182.871 -2.26483 4.04054 0
M  V30 2084 C 183.606 -2.70306 5.0569 0
M  V30 2085 N 183.102 -3.13691 6.17713 0
M  V30 2086 N 184.895 -2.69923 4.9305 0
M  V30 2087 H 177.046 -0.0210029 2.1239 0
M  V30 2088 H 179.309 -0.0718733 0.945272 0
M  V30 2089 H 179.015 -0.85269 3.41207 0
M  V30 2090 H 178.889 -2.50103 2.82362 0
M  V30 2091 H 181.276 -2.29664 1.85306 0
M  V30 2092 H 181.357 -0.642492 2.476 0
M  V30 2093 H 181.001 -1.53918 4.84016 0
M  V30 2094 H 180.931 -3.19482 4.18615 0
M  V30 2095 H 183.422 -1.95874 3.23174 0
M  V30 2096 H 183.735 -3.45773 6.9113 0
M  V30 2097 H 182.08 -3.11585 6.21241 0
M  V30 2098 H 185.271 -2.35382 4.04614 0
M  V30 2099 H 185.444 -3.03758 5.72394 0
M  V30 2100 N 178.85 -1.27639 -0.924453 0
M  V30 2101 C 179.797 -1.10644 -2.0255 0
M  V30 2102 C 180.767 -0.00658438 -1.66099 0
M  V30 2103 O 181.952 -0.16952 -1.90045 0
M  V30 2104 C 179.092 -0.76309 -3.36557 0
M  V30 2105 C 178.205 -1.94091 -3.85944 0
M  V30 2106 C 177.34 -1.53914 -5.08413 0
M  V30 2107 C 176.379 -2.68425 -5.50104 0
M  V30 2108 N 175.516 -2.28815 -6.63768 0
M  V30 2109 H 180.356 -2.04858 -2.16419 0
M  V30 2110 H 177.893 -1.01974 -1.06017 0
M  V30 2111 H 179.851 -0.544822 -4.13627 0
M  V30 2112 H 178.481 0.142102 -3.22487 0
M  V30 2113 H 177.533 -2.27162 -3.05125 0
M  V30 2114 H 178.845 -2.7998 -4.12811 0
M  V30 2115 H 177.999 -1.28231 -5.92994 0
M  V30 2116 H 176.738 -0.651391 -4.8333 0
M  V30 2117 H 175.743 -2.94819 -4.64071 0
M  V30 2118 H 176.968 -3.57826 -5.7718 0
M  V30 2119 H 174.914 -1.42495 -6.40337 0
M  V30 2120 H 174.831 -3.08242 -6.90306 0
M  V30 2121 H 176.099 -2.06387 -7.51681 0
M  V30 2122 N 180.328 1.1314 -1.09713 0
M  V30 2123 C 181.291 2.16831 -0.742751 0
M  V30 2124 C 182.291 1.59159 0.229129 0
M  V30 2125 O 183.481 1.74199 0.00693237 0
M  V30 2126 C 180.613 3.40756 -0.0989168 0
M  V30 2127 H 181.806 2.49695 -1.66109 0
M  V30 2128 H 179.359 1.2802 -0.896699 0
M  V30 2129 H 180.094 3.13485 0.830514 0
M  V30 2130 H 179.879 3.83888 -0.798265 0
M  V30 2131 H 181.369 4.17386 0.133524 0
M  V30 2132 N 181.806 0.884767 1.30421 0
M  V30 2133 C 182.753 0.349642 2.28136 0
M  V30 2134 C 183.723 -0.560061 1.56373 0
M  V30 2135 O 184.908 -0.488524 1.8444 0
M  V30 2136 C 182.048 -0.42999 3.42411 0
M  V30 2137 C 181.161 0.508907 4.28992 0
M  V30 2138 C 180.296 -0.286301 5.30428 0
M  V30 2139 C 179.335 0.648079 6.08659 0
M  V30 2140 N 178.472 -0.111792 7.02011 0
M  V30 2141 H 183.312 1.18807 2.73293 0
M  V30 2142 H 180.849 0.597231 1.3443 0
M  V30 2143 H 182.807 -0.897923 4.07423 0
M  V30 2144 H 181.437 -1.23299 2.98324 0
M  V30 2145 H 180.489 1.09533 3.64289 0
M  V30 2146 H 181.801 1.22475 4.8353 0
M  V30 2147 H 180.955 -0.816098 6.01186 0
M  V30 2148 H 179.694 -1.03536 4.76583 0
M  V30 2149 H 178.699 1.18951 5.36778 0
M  V30 2150 H 179.924 1.39623 6.64592 0
M  V30 2151 H 177.87 -0.843395 6.50556 0
M  V30 2152 H 177.787 0.544429 7.54037 0
M  V30 2153 H 179.055 -0.622339 7.77012 0
M  V30 2154 N 183.284 -1.43765 0.645699 0
M  V30 2155 C 184.509 -2.06767 0.161883 0
M  V30 2156 C 184.934 -1.48034 -1.16049 0
M  V30 2157 O 184.292 -0.587369 -1.71522 0
M  V30 2158 C 184.34 -3.60519 0.0762003 0
M  V30 2159 O 183.444 -4.00982 -0.963721 0
M  V30 2160 H 182.785 -0.657675 0.091429 0
M  V30 2161 H 185.315 -1.84397 0.886499 0
M  V30 2162 H 185.325 -4.07853 -0.109604 0
M  V30 2163 H 184 -4.02646 1.04157 0
M  V30 2164 H 182.577 -3.65253 -0.751312 0
M  V30 2165 N 184.763 -0.387143 -1.52771 0
M  V30 2166 C 186.179 -0.037007 -1.59557 0
M  V30 2167 C 186.379 1.44801 -1.40124 0
M  V30 2168 O 185.435 2.21227 -1.21716 0
M  V30 2169 C 186.748 -0.512256 -2.96305 0
M  V30 2170 C 188.296 -0.468328 -3.09476 0
M  V30 2171 C 188.771 -0.919731 -4.4867 0
M  V30 2172 N 190.262 -0.875656 -4.54848 0
M  V30 2173 C 190.997 -1.19637 -5.6078 0
M  V30 2174 N 190.493 -1.58745 -6.74368 0
M  V30 2175 N 192.286 -1.11776 -5.50874 0
M  V30 2176 H 184.437 -1.35395 -1.63652 0
M  V30 2177 H 186.7 -0.554818 -0.768688 0
M  V30 2178 H 186.406 -1.54935 -3.15734 0
M  V30 2179 H 186.28 0.089805 -3.77093 0
M  V30 2180 H 188.667 0.559671 -2.89744 0
M  V30 2181 H 188.748 -1.10616 -2.30646 0
M  V30 2182 H 188.392 -1.94595 -4.69143 0
M  V30 2183 H 188.322 -0.258927 -5.25963 0
M  V30 2184 H 190.813 -0.587843 -3.733 0
M  V30 2185 H 191.126 -1.81586 -7.51163 0
M  V30 2186 H 189.471 -1.6263 -6.75705 0
M  V30 2187 H 192.662 -0.811264 -4.61016 0
M  V30 2188 H 192.835 -1.37103 -6.3333 0
M  V30 2189 N 186.241 1.57166 -0.116904 0
M  V30 2190 C 187.173 2.12271 0.864507 0
M  V30 2191 C 188.186 1.06494 1.23138 0
M  V30 2192 O 189.375 1.33873 1.18069 0
M  V30 2193 C 186.475 2.60564 2.16702 0
M  V30 2194 C 185.648 3.90416 1.97216 0
M  V30 2195 C 184.707 4.24329 3.11178 0
M  V30 2196 O 183.733 4.93182 2.84184 0
M  V30 2197 N 184.935 3.8148 4.37554 0
M  V30 2198 H 187.7 2.97102 0.393726 0
M  V30 2199 H 185.261 1.61759 0.0675805 0
M  V30 2200 H 187.253 2.80282 2.91932 0
M  V30 2201 H 185.823 1.80623 2.55135 0
M  V30 2202 H 185.043 3.79627 1.06192 0
M  V30 2203 H 186.331 4.75327 1.81499 0
M  V30 2204 H 185.729 3.25943 4.62361 0
M  V30 2205 H 184.286 4.06311 5.09661 0
M  V30 2206 N 187.719 -0.156864 1.56817 0
M  V30 2207 C 188.965 -0.872416 1.83076 0
M  V30 2208 C 189.298 -1.81261 0.697001 0
M  V30 2209 O 188.573 -1.92171 -0.30008 0
M  V30 2210 C 188.856 -1.65551 3.19789 0
M  V30 2211 C 188.709 -0.737467 4.43713 0
M  V30 2212 C 190.028 -2.62012 3.53606 0
M  V30 2213 H 187.147 -0.315715 0.665953 0
M  V30 2214 H 189.789 -0.138004 1.89498 0
M  V30 2215 H 187.939 -2.28159 3.14445 0
M  V30 2216 H 189.611 -0.123143 4.61136 0
M  V30 2217 H 187.854 -0.0464067 4.33775 0
M  V30 2218 H 188.525 -1.32122 5.35955 0
M  V30 2219 H 191.001 -2.09525 3.59497 0
M  V30 2220 H 189.877 -3.13861 4.50314 0
M  V30 2221 H 190.138 -3.42902 2.79053 0
M  V30 2222 N 189.197 -1.51736 -0.425897 0
M  V30 2223 C 190.445 -1.64644 -1.17204 0
M  V30 2224 C 190.766 -0.370486 -1.91448 0
M  V30 2225 O 190.036 0.614088 -1.86026 0
M  V30 2226 H 188.616 -0.606819 -0.435638 0
M  V30 2227 H 191.278 -1.88713 -0.487177 0
M  V30 2228 H 190.374 -2.47958 -1.89534 0
M  V30 2229 N 190.675 0.682077 -1.42076 0
M  V30 2230 C 191.622 1.79578 -1.44984 0
M  V30 2231 C 192.592 1.6332 -0.302614 0
M  V30 2232 O 193.777 1.83978 -0.505633 0
M  V30 2233 C 190.917 3.1756 -1.35091 0
M  V30 2234 C 190.03 3.45156 -2.59791 0
M  V30 2235 C 189.165 4.72826 -2.42093 0
M  V30 2236 C 188.204 4.93433 -3.62202 0
M  V30 2237 N 187.341 6.12338 -3.43491 0
M  V30 2238 H 192.181 1.76427 -2.40161 0
M  V30 2239 H 189.718 0.861376 -1.19242 0
M  V30 2240 H 191.676 3.97287 -1.27354 0
M  V30 2241 H 190.306 3.19854 -0.435133 0
M  V30 2242 H 189.358 2.59736 -2.77923 0
M  V30 2243 H 190.67 3.5628 -3.49094 0
M  V30 2244 H 189.824 5.60631 -2.319 0
M  V30 2245 H 188.563 4.63973 -1.50268 0
M  V30 2246 H 187.568 4.04073 -3.72834 0
M  V30 2247 H 188.793 5.04136 -4.54998 0
M  V30 2248 H 186.739 6.04672 -2.54377 0
M  V30 2249 H 186.656 6.2429 -4.26377 0
M  V30 2250 H 187.924 7.02841 -3.37097 0
M  V30 2251 N 192.153 1.28127 0.917671 0
M  V30 2252 C 193.063 1.13556 2.05286 0
M  V30 2253 C 194.079 0.0630914 1.73886 0
M  V30 2254 O 195.255 0.271598 1.9956 0
M  V30 2255 C 192.32 0.794676 3.3747 0
M  V30 2256 C 191.381 1.94909 3.82504 0
M  V30 2257 C 190.614 1.62437 5.0838 0
M  V30 2258 O 190.837 0.536905 5.67867 0
M  V30 2259 O 189.771 2.46677 5.4903 0
M  V30 2260 H 193.597 2.08844 2.20495 0
M  V30 2261 H 191.182 1.07409 1.03845 0
M  V30 2262 H 193.064 0.618344 4.16839 0
M  V30 2263 H 191.739 -0.128581 3.23445 0
M  V30 2264 H 190.646 2.18055 3.03978 0
M  V30 2265 H 191.979 2.85291 4.01086 0
M  V30 2266 N 193.631 -1.12557 1.10312 0
M  V30 2267 C 194.578 -2.18247 0.750781 0
M  V30 2268 C 195.548 -1.63853 -0.272293 0
M  V30 2269 O 196.733 -1.90195 -0.151862 0
M  V30 2270 C 193.873 -3.44591 0.187379 0
M  V30 2271 C 192.986 -4.13046 1.2656 0
M  V30 2272 C 192.121 -5.27034 0.663978 0
M  V30 2273 C 191.16 -5.87353 1.72287 0
M  V30 2274 N 190.297 -6.92757 1.1416 0
M  V30 2275 H 195.137 -2.47732 1.65628 0
M  V30 2276 H 192.674 -1.21629 0.827337 0
M  V30 2277 H 194.632 -4.16904 -0.157148 0
M  V30 2278 H 193.262 -3.15527 -0.681355 0
M  V30 2279 H 192.314 -3.38924 1.72727 0
M  V30 2280 H 193.626 -4.53947 2.06721 0
M  V30 2281 H 192.78 -6.06104 0.268824 0
M  V30 2282 H 191.519 -4.87407 -0.169082 0
M  V30 2283 H 190.524 -5.06971 2.12746 0
M  V30 2284 H 191.749 -6.29051 2.55875 0
M  V30 2285 H 189.695 -6.5517 0.329984 0
M  V30 2286 H 189.612 -7.3225 1.88007 0
M  V30 2287 H 190.88 -7.75658 0.772956 0
M  V30 2288 N 195.109 -0.891671 -1.2995 0
M  V30 2289 C 196.357 -0.512486 -1.95494 0
M  V30 2290 C 196.678 0.942776 -1.70695 0
M  V30 2291 O 195.948 1.66374 -1.03424 0
M  V30 2292 H 194.528 -0.186533 -0.723336 0
M  V30 2293 H 197.19 -1.13621 -1.58355 0
M  V30 2294 H 196.286 -0.688342 -3.04415 0
M  V30 2295 N 196.587 1.43421 -0.653314 0
M  V30 2296 C 197.534 2.30768 0.0382271 0
M  V30 2297 C 198.504 1.44755 0.814576 0
M  V30 2298 O 199.689 1.73624 0.791162 0
M  V30 2299 C 196.829 3.30336 0.998599 0
M  V30 2300 C 195.942 4.31448 0.218342 0
M  V30 2301 C 195.077 5.18098 1.17252 0
M  V30 2302 C 194.116 6.10902 0.382702 0
M  V30 2303 N 193.253 6.90176 1.28848 0
M  V30 2304 H 198.093 2.89357 -0.712511 0
M  V30 2305 H 195.63 1.42548 -0.363128 0
M  V30 2306 H 197.588 3.86572 1.56901 0
M  V30 2307 H 196.218 2.73397 1.71621 0
M  V30 2308 H 195.27 3.77506 -0.46836 0
M  V30 2309 H 196.582 4.97227 -0.395812 0
M  V30 2310 H 195.736 5.7896 1.81356 0
M  V30 2311 H 194.475 4.52444 1.82058 0
M  V30 2312 H 193.48 5.49128 -0.27169 0
M  V30 2313 H 194.705 6.78598 -0.260957 0
M  V30 2314 H 192.651 6.27171 1.92334 0
M  V30 2315 H 192.568 7.52478 0.728887 0
M  V30 2316 H 193.836 7.55543 1.91766 0
M  V30 2317 N 198.065 0.39524 1.52563 0
M  V30 2318 C 199.295 -0.184675 2.05773 0
M  V30 2319 C 199.703 -1.40571 1.26635 0
M  V30 2320 O 199.046 -1.81105 0.30769 0
M  V30 2321 C 199.108 -0.613551 3.54226 0
M  V30 2322 C 198.772 0.49484 4.54313 0
M  V30 2323 C 199.769 1.3541 5.01956 0
M  V30 2324 C 197.454 0.663565 4.97898 0
M  V30 2325 C 199.448 2.36716 5.91814 0
M  V30 2326 C 197.135 1.67996 5.87555 0
M  V30 2327 C 198.133 2.53017 6.34406 0
M  V30 2328 O 197.821 3.52917 7.22291 0
M  V30 2329 H 197.553 -0.030077 0.675331 0
M  V30 2330 H 200.107 0.560708 1.97599 0
M  V30 2331 H 198.337 -1.411 3.60038 0
M  V30 2332 H 200.026 -1.11981 3.90148 0
M  V30 2333 H 200.792 1.23509 4.6901 0
M  V30 2334 H 196.671 0.0114913 4.60999 0
M  V30 2335 H 200.215 3.03113 6.28306 0
M  V30 2336 H 196.112 1.79933 6.19915 0
M  V30 2337 H 196.88 3.48996 7.40367 0
M  V30 2338 N 199.544 -1.57102 0.125237 0
M  V30 2339 C 200.491 -2.15641 -0.822655 0
M  V30 2340 C 201.461 -1.08313 -1.25927 0
M  V30 2341 O 202.646 -1.36251 -1.33567 0
M  V30 2342 C 199.786 -2.76504 -2.06494 0
M  V30 2343 C 198.899 -3.98158 -1.67612 0
M  V30 2344 C 198.034 -4.47088 -2.86854 0
M  V30 2345 C 197.073 -5.6126 -2.44242 0
M  V30 2346 N 196.21 -6.04905 -3.56419 0
M  V30 2347 H 201.05 -2.96313 -0.316625 0
M  V30 2348 H 198.587 -1.46388 -0.144588 0
M  V30 2349 H 200.545 -3.09925 -2.79289 0
M  V30 2350 H 199.175 -1.98512 -2.54545 0
M  V30 2351 H 198.227 -3.70858 -0.846661 0
M  V30 2352 H 199.539 -4.80934 -1.32301 0
M  V30 2353 H 198.693 -4.82451 -3.67867 0
M  V30 2354 H 197.432 -3.63275 -3.25396 0
M  V30 2355 H 196.437 -5.25495 -1.61663 0
M  V30 2356 H 197.662 -6.46843 -2.0681 0
M  V30 2357 H 195.608 -5.24032 -3.94623 0
M  V30 2358 H 195.525 -6.82552 -3.25051 0
M  V30 2359 H 196.793 -6.44907 -4.37853 0
M  V30 2360 N 201.022 0.148545 -1.56898 0
M  V30 2361 C 201.932 1.20293 -2.01412 0
M  V30 2362 C 202.948 1.47107 -0.929273 0
M  V30 2363 O 204.124 1.58807 -1.23863 0
M  V30 2364 C 201.189 2.51682 -2.38447 0
M  V30 2365 C 200.25 2.32529 -3.60872 0
M  V30 2366 C 199.483 3.57653 -3.96132 0
M  V30 2367 O 199.706 4.63771 -3.32073 0
M  V30 2368 O 198.64 3.50408 -4.89385 0
M  V30 2369 H 202.466 0.855025 -2.91416 0
M  V30 2370 H 200.051 0.357151 -1.45068 0
M  V30 2371 H 201.933 3.29147 -2.63135 0
M  V30 2372 H 200.608 2.86006 -1.51599 0
M  V30 2373 H 199.515 1.53019 -3.41373 0
M  V30 2374 H 200.848 2.03121 -4.48333 0
M  V30 2375 N 202.5 1.5196 0.417844 0
M  V30 2376 C 203.41 1.77554 1.53336 0
M  V30 2377 C 204.426 0.660655 1.6097 0
M  V30 2378 O 205.602 0.945099 1.77848 0
M  V30 2379 C 202.667 1.91291 2.89152 0
M  V30 2380 C 201.728 3.15183 2.91475 0
M  V30 2381 C 200.961 3.28256 4.20813 0
M  V30 2382 O 201.184 2.46798 5.14244 0
M  V30 2383 O 200.118 4.21356 4.29817 0
M  V30 2384 H 203.944 2.7222 1.34647 0
M  V30 2385 H 201.529 1.36698 0.602828 0
M  V30 2386 H 203.411 2.02199 3.69721 0
M  V30 2387 H 202.086 0.998129 3.07927 0
M  V30 2388 H 200.993 3.09739 2.09791 0
M  V30 2389 H 202.326 4.06414 2.77648 0
M  V30 2390 N 203.978 -0.674533 1.42435 0
M  V30 2391 C 204.908 -1.80009 1.48724 0
M  V30 2392 C 205.889 -1.6659 0.343793 0
M  V30 2393 O 207.074 -1.86007 0.558137 0
M  V30 2394 C 204.204 -3.18306 1.38919 0
M  V30 2395 C 203.158 -3.46461 2.51294 0
M  V30 2396 C 202.484 -4.84335 2.26547 0
M  V30 2397 C 203.784 -3.43328 3.93603 0
M  V30 2398 H 205.478 -1.75004 2.42928 0
M  V30 2399 H 203.024 -0.840533 1.16923 0
M  V30 2400 H 204.977 -3.9678 1.41927 0
M  V30 2401 H 203.701 -3.2399 0.412094 0
M  V30 2402 H 202.36 -2.70348 2.47604 0
M  V30 2403 H 202.008 -4.86669 1.2713 0
M  V30 2404 H 201.708 -5.04136 3.01861 0
M  V30 2405 H 203.232 -5.65094 2.31304 0
M  V30 2406 H 204.646 -4.11772 3.98894 0
M  V30 2407 H 203.043 -3.74664 4.68771 0
M  V30 2408 H 204.113 -2.41897 4.20255 0
M  V30 2409 N 205.456 -1.28612 -0.910864 0
M  V30 2410 C 206.705 -1.15311 -1.65488 0
M  V30 2411 C 207.018 0.296999 -1.93332 0
M  V30 2412 O 208.224 0.551168 -2.65847 0
M  V30 2413 C 206.68 -2.01599 -2.98137 0
M  V30 2414 C 206.288 -3.51367 -2.7793 0
M  V30 2415 C 208.032 -1.96993 -3.76024 0
M  V30 2416 C 205.939 -4.29797 -4.06237 0
M  V30 2417 H 204.869 -0.42796 -0.620779 0
M  V30 2418 H 207.52 -1.53166 -1.01057 0
M  V30 2419 H 205.902 -1.56603 -3.63719 0
M  V30 2420 H 207.076 -4.0434 -2.21011 0
M  V30 2421 H 205.391 -3.57529 -2.13452 0
M  V30 2422 H 207.988 -2.52856 -4.71135 0
M  V30 2423 H 208.331 -0.94733 -4.05378 0
M  V30 2424 H 208.864 -2.39973 -3.17266 0
M  V30 2425 H 205.603 -5.32648 -3.82055 0
M  V30 2426 H 205.123 -3.81596 -4.62757 0
M  V30 2427 H 206.802 -4.39869 -4.74473 0
M  V30 2428 N 206.934 1.1197 -1.10907 0
M  V30 2429 C 207.844 2.21433 -0.774896 0
M  V30 2430 C 208.86 1.72478 0.229657 0
M  V30 2431 O 210.036 2.01288 0.0672008 0
M  V30 2432 C 207.101 3.4602 -0.216986 0
M  V30 2433 C 206.162 4.09791 -1.27944 0
M  V30 2434 C 205.395 5.28431 -0.748055 0
M  V30 2435 O 205.618 5.68823 0.423833 0
M  V30 2436 O 204.552 5.82644 -1.51027 0
M  V30 2437 H 208.378 2.5242 -1.68873 0
M  V30 2438 H 205.963 1.20399 -0.884555 0
M  V30 2439 H 207.845 4.21304 0.090059 0
M  V30 2440 H 206.52 3.16698 0.669633 0
M  V30 2441 H 205.427 3.36265 -1.63941 0
M  V30 2442 H 206.76 4.4328 -2.13925 0
M  V30 2443 N 208.412 0.89855 1.29475 0
M  V30 2444 C 209.359 0.373819 2.27753 0
M  V30 2445 C 210.329 -0.543444 1.56958 0
M  V30 2446 O 211.514 -0.468934 1.84948 0
M  V30 2447 C 208.654 -0.393648 3.42848 0
M  V30 2448 C 207.767 0.554379 4.28428 0
M  V30 2449 C 206.902 -0.230026 5.30702 0
M  V30 2450 C 205.941 0.712599 6.07938 0
M  V30 2451 N 205.078 -0.0373283 7.0209 0
M  V30 2452 H 209.918 1.21699 2.72017 0
M  V30 2453 H 207.455 0.611456 1.33789 0
M  V30 2454 H 209.413 -0.85466 4.08352 0
M  V30 2455 H 208.043 -1.20128 2.99615 0
M  V30 2456 H 207.095 1.13391 3.63107 0
M  V30 2457 H 208.407 1.27597 4.82204 0
M  V30 2458 H 207.561 -0.752288 6.02018 0
M  V30 2459 H 206.3 -0.984758 4.77654 0
M  V30 2460 H 205.305 1.24637 5.35486 0
M  V30 2461 H 206.53 1.46664 6.63074 0
M  V30 2462 H 204.476 -0.774348 6.51414 0
M  V30 2463 H 204.393 0.624374 7.53417 0
M  V30 2464 H 205.661 -0.539891 7.77628 0
M  V30 2465 N 209.89 -1.43072 0.660911 0
M  V30 2466 C 210.823 -2.28074 -0.0758862 0
M  V30 2467 C 211.801 -1.40271 -0.822362 0
M  V30 2468 O 212.985 -1.69713 -0.820352 0
M  V30 2469 C 210.112 -3.19843 -1.11437 0
M  V30 2470 C 209.158 -4.23957 -0.465069 0
M  V30 2471 S 209.991 -5.29978 0.767078 0
M  V30 2472 C 211.147 -6.25314 -0.270682 0
M  V30 2473 H 211.38 -2.90216 0.645139 0
M  V30 2474 H 208.913 -1.47697 0.449995 0
M  V30 2475 H 210.871 -3.73257 -1.70849 0
M  V30 2476 H 209.532 -2.56863 -1.80776 0
M  V30 2477 H 208.725 -4.88299 -1.24819 0
M  V30 2478 H 208.327 -3.73959 0.0551242 0
M  V30 2479 H 210.619 -6.67932 -1.13459 0
M  V30 2480 H 211.562 -7.07293 0.337916 0
M  V30 2481 H 211.97 -5.61195 -0.609937 0
M  V30 2482 N 211.368 -0.403325 -1.52352 0
M  V30 2483 C 212.3 0.4603 -2.2453 0
M  V30 2484 C 213.313 1.01505 -1.27282 0
M  V30 2485 O 214.502 0.914982 -1.53266 0
M  V30 2486 C 211.602 1.65208 -2.95905 0
M  V30 2487 C 210.775 1.22224 -4.19976 0
M  V30 2488 C 209.834 2.28028 -4.74226 0
M  V30 2489 O 208.86 1.88857 -5.36956 0
M  V30 2490 N 210.062 3.6012 -4.55295 0
M  V30 2491 H 212.827 -0.158156 -2.99282 0
M  V30 2492 H 210.388 -0.230402 -1.60252 0
M  V30 2493 H 212.38 2.35541 -3.29093 0
M  V30 2494 H 210.95 2.17658 -2.24374 0
M  V30 2495 H 210.17 0.34725 -3.92668 0
M  V30 2496 H 211.458 0.911924 -5.00561 0
M  V30 2497 H 210.856 3.94698 -4.05253 0
M  V30 2498 H 209.413 4.26447 -4.92936 0
M  V30 2499 N 212.846 1.57033 -0.133567 0
M  V30 2500 C 213.756 2.19632 0.824564 0
M  V30 2501 C 214.772 1.17666 1.28182 0
M  V30 2502 O 215.948 1.50193 1.3418 0
M  V30 2503 C 213.013 2.79499 2.05137 0
M  V30 2504 C 212.074 3.96548 1.64464 0
M  V30 2505 C 211.307 4.5355 2.81297 0
M  V30 2506 O 211.53 4.09438 3.97136 0
M  V30 2507 O 210.464 5.44018 2.57542 0
M  V30 2508 H 214.29 3.01991 0.321766 0
M  V30 2509 H 211.875 1.49112 0.0927889 0
M  V30 2510 H 213.757 3.17602 2.7696 0
M  V30 2511 H 212.432 2.00162 2.54395 0
M  V30 2512 H 211.339 3.63186 0.897048 0
M  V30 2513 H 212.672 4.77364 1.19934 0
M  V30 2514 O 214.363 -0.00541248 1.61499 0
M  V30 2515 H 215.054 -0.622816 1.83414 0
M  V30 END ATOM
M  V30 BEGIN BOND
M  V30 END BOND
M  V30 END CTAB
M  END
$$$$
