drugbank_target|P12081 Histidine--tRNA ligase, cytoplasmic (DB00117)
 OpenBabel12092119383D

  0  0  0     0  0            999 V3000
M  V30 BEGIN CTAB
M  V30 COUNTS 11277 12020 0 0 0
M  V30 BEGIN ATOM
M  V30 1 H -2.588 8.49073 -0.0679273 0
M  V30 2 O -1.492 9.37262 0.0843559 0
M  V30 3 P 0 8.791 0 0
M  V30 4 O 1.422 9.31096 0.027933 0
M  V30 5 O -0.36 7.77869 -1.04071 0
M  V30 6 O -0.323 8.09533 1.41463 0
M  V30 7 C -0.483 9.0349 2.53943 0
M  V30 8 C 0.057 8.35226 3.79016 0
M  V30 9 O -0.999 7.57992 4.15078 0
M  V30 10 C 1.275 7.45087 3.67298 0
M  V30 11 O 2.013 7.27796 4.85194 0
M  V30 12 C 0.606 6.17323 3.12027 0
M  V30 13 O 1.405 5.04231 3.47188 0
M  V30 14 C -0.731 6.19961 3.81809 0
M  V30 15 H -0.699 5.58218 4.73051 0
M  V30 16 H 0.484 6.21726 2.02589 0
M  V30 17 H 1.968 7.86112 2.9231 0
M  V30 18 H 0.274 9.11627 4.55076 0
M  V30 19 H 0.084 9.9573 2.34194 0
M  V30 20 H -1.546 9.2792 2.67832 0
M  V30 21 H 1.093 4.67702 4.28772 0
M  V30 22 P 2.95057 7.39546 4.75277 0
M  V30 23 O 4.37157 7.81861 5.05793 0
M  V30 24 O 2.59057 7.1065 3.32998 0
M  V30 25 O 2.62757 6.04542 5.56673 0
M  V30 26 C 2.46657 6.22839 7.02169 0
M  V30 27 C 3.00757 4.97725 7.70406 0
M  V30 28 O 1.95257 4.13208 7.58899 0
M  V30 29 C 4.22557 4.28231 7.11815 0
M  V30 30 O 4.96357 3.49945 8.01648 0
M  V30 31 C 3.55757 3.5063 5.96244 0
M  V30 32 O 4.35557 2.37008 5.64352 0
M  V30 33 C 2.21957 3.15122 6.56374 0
M  V30 34 N 1.17657 3.22311 5.55692 0
M  V30 35 C 1.34557 3.99655 4.46046 0
M  V30 36 N 0.31857 3.97599 3.63918 0
M  V30 37 C -0.56643 3.11159 4.25334 0
M  V30 38 C -1.83343 2.64972 3.85157 0
M  V30 39 N -2.43243 3.02132 2.69405 0
M  V30 40 N -2.39843 1.78482 4.74759 0
M  V30 41 C -1.79643 1.37463 5.90819 0
M  V30 42 N -0.61943 1.7733 6.31889 0
M  V30 43 C -0.04443 2.64393 5.43725 0
M  V30 44 H 2.25157 2.13823 6.99656 0
M  V30 45 H 3.43457 4.12931 5.06895 0
M  V30 46 H 4.91757 5.03285 6.70911 0
M  V30 47 H 3.22357 5.20001 8.76217 0
M  V30 48 H 3.03357 7.11046 7.35349 0
M  V30 49 H 1.40357 6.35815 7.26986 0
M  V30 50 H -2.33243 0.66574 6.53015 0
M  V30 51 H 2.24557 4.58037 4.27732 0
M  V30 52 H -3.36243 2.64828 2.45331 0
M  V30 53 H -1.95843 3.67472 2.05644 0
M  V30 54 H 4.04357 1.61619 6.13468 0
M  V30 55 P 5.90114 3.65191 7.99657 0
M  V30 56 O 7.32314 3.8425 8.48115 0
M  V30 57 O 5.54114 4.17805 6.64342 0
M  V30 58 O 5.57814 2.07613 7.95143 0
M  V30 59 C 5.41814 1.44328 9.27336 0
M  V30 60 C 5.95814 0.0220036 9.17197 0
M  V30 61 O 4.90214 -0.626867 8.61923 0
M  V30 62 C 7.17614 -0.24586 8.30336 0
M  V30 63 O 7.91414 -1.39011 8.63583 0
M  V30 64 C 6.50714 -0.273849 6.91158 0
M  V30 65 O 7.30614 -1.06348 6.02892 0
M  V30 66 C 5.17014 -0.897649 7.22545 0
M  V30 67 H 5.20214 -1.9841 7.04286 0
M  V30 68 H 6.38514 0.739928 6.497 0
M  V30 69 H 7.86914 0.60668 8.36503 0
M  V30 70 H 6.17514 -0.352479 10.1829 0
M  V30 71 H 5.98514 2.00611 10.0304 0
M  V30 72 H 4.35514 1.41843 9.55327 0
M  V30 73 H 6.99414 -1.95734 6.03555 0
M  V30 74 P 8.85171 -1.25109 8.70152 0
M  V30 75 O 10.2727 -1.35288 9.2132 0
M  V30 76 O 8.49171 -0.0769065 7.84762 0
M  V30 77 O 8.52871 -2.55232 7.81161 0
M  V30 78 C 8.36771 -3.79979 8.58246 0
M  V30 79 C 8.90871 -4.94023 7.72785 0
M  V30 80 O 7.85371 -5.18666 6.91125 0
M  V30 81 C 10.1267 -4.69597 6.85231 0
M  V30 82 O 10.8647 -5.83832 6.51337 0
M  V30 83 C 9.45871 -3.96706 5.66633 0
M  V30 84 O 10.2567 -4.14896 4.5003 0
M  V30 85 C 8.12071 -4.66153 5.59313 0
M  V30 86 N 7.07771 -3.71582 5.24027 0
M  V30 87 C 7.24671 -2.39715 5.48833 0
M  V30 88 N 6.21971 -1.65863 5.12845 0
M  V30 89 C 5.33471 -2.57637 4.5973 0
M  V30 90 C 4.06771 -2.40278 4.01027 0
M  V30 91 N 3.50271 -3.57711 3.59575 0
M  V30 92 C 4.10471 -4.80324 3.70476 0
M  V30 93 N 5.28171 -5.01121 4.23801 0
M  V30 94 C 5.85671 -3.84757 4.66372 0
M  V30 95 H 9.33571 -2.8955 5.86187 0
M  V30 96 H 10.8187 -4.0121 7.36511 0
M  V30 97 H 9.12471 -5.81019 8.37003 0
M  V30 98 H 8.93471 -3.73517 9.52265 0
M  V30 99 H 7.30471 -3.97163 8.80359 0
M  V30 100 H 8.14671 -1.98804 5.94332 0
M  V30 101 H 9.94471 -4.90891 4.01857 0
M  V30 102 P 11.8023 -5.75688 6.64379 0
M  V30 103 O 13.2233 -6.11915 7.01921 0
M  V30 104 O 11.4423 -4.30744 6.56026 0
M  V30 105 O 11.4793 -6.37042 5.19165 0
M  V30 106 C 11.3183 -7.83662 5.1657 0
M  V30 107 C 11.8593 -8.33398 3.83019 0
M  V30 108 O 10.8043 -8.0998 3.00999 0
M  V30 109 C 13.0773 -7.65514 3.2257 0
M  V30 110 O 13.8153 -8.4329 2.32297 0
M  V30 111 C 12.4093 -6.40075 2.62207 0
M  V30 112 O 13.2073 -5.92338 1.5428 0
M  V30 113 C 11.0713 -6.9454 2.18503 0
M  V30 114 N 10.0283 -5.95905 2.39948 0
M  V30 115 C 10.1973 -4.98383 3.32108 0
M  V30 116 N 9.17028 -4.16798 3.41761 0
M  V30 117 C 8.28528 -4.65287 2.47461 0
M  V30 118 C 7.01828 -4.18946 2.07461 0
M  V30 119 N 6.41928 -3.09661 2.60717 0
M  V30 120 N 6.45328 -4.95327 1.09101 0
M  V30 121 C 7.05528 -6.04369 0.519812 0
M  V30 122 N 8.23228 -6.50694 0.855982 0
M  V30 123 C 8.80728 -5.75818 1.84322 0
M  V30 124 H 11.1033 -7.22964 1.12076 0
M  V30 125 H 12.2863 -5.60502 3.36589 0
M  V30 126 H 13.7693 -7.35707 4.02681 0
M  V30 127 H 12.0753 -9.41302 3.90009 0
M  V30 128 H 11.8853 -8.29056 5.99158 0
M  V30 129 H 10.2553 -8.10073 5.25882 0
M  V30 130 H 6.51928 -6.55843 -0.270373 0
M  V30 131 H 11.0973 -4.88564 3.92502 0
M  V30 132 H 5.48928 -2.80523 2.27218 0
M  V30 133 H 6.89328 -2.55848 3.34465 0
M  V30 134 H 12.8953 -6.30224 0.72668 0
M  V30 135 P 14.7528 -8.4349 2.47671 0
M  V30 136 O 16.1738 -8.94263 2.59668 0
M  V30 137 O 14.3928 -7.1704 3.19006 0
M  V30 138 O 14.4298 -8.16596 0.923387 0
M  V30 139 C 14.2688 -9.38537 0.108869 0
M  V30 140 C 14.8098 -9.08175 -1.28353 0
M  V30 141 O 13.7548 -8.44131 -1.84692 0
M  V30 142 C 16.0278 -8.18386 -1.42505 0
M  V30 143 O 16.7659 -8.3501 -2.60497 0
M  V30 144 C 15.3598 -6.80225 -1.25468 0
M  V30 145 O 16.1578 -5.81716 -1.90454 0
M  V30 146 C 14.0218 -7.02416 -1.9168 0
M  V30 147 N 12.9788 -6.31033 -1.20314 0
M  V30 148 C 13.1478 -5.98817 0.0994088 0
M  V30 149 N 12.1208 -5.35403 0.621694 0
M  V30 150 C 11.2358 -5.25212 -0.43376 0
M  V30 151 C 9.96885 -4.64602 -0.519722 0
M  V30 152 N 9.36985 -4.01457 0.519136 0
M  V30 153 N 9.40385 -4.7568 -1.76013 0
M  V30 154 C 10.0058 -5.3653 -2.83017 0
M  V30 155 N 11.1828 -5.93676 -2.79782 0
M  V30 156 C 11.7578 -5.84061 -1.56249 0
M  V30 157 H 14.0538 -6.68789 -2.9658 0
M  V30 158 H 15.2368 -6.53498 -0.198729 0
M  V30 159 H 16.7198 -8.36622 -0.589963 0
M  V30 160 H 15.0258 -10.0273 -1.8081 0
M  V30 161 H 14.8358 -10.2138 0.558219 0
M  V30 162 H 13.2058 -9.6579 0.0444202 0
M  V30 163 H 9.46985 -5.37113 -3.77321 0
M  V30 164 H 14.0478 -6.23209 0.660562 0
M  V30 165 H 8.43985 -3.58834 0.394862 0
M  V30 166 H 9.84385 -3.96059 1.43048 0
M  V30 167 H 15.8458 -5.69466 -2.79593 0
M  V30 168 P 17.7034 -8.4349 -2.47671 0
M  V30 169 O 19.1254 -8.92593 -2.65 0
M  V30 170 O 17.3434 -7.7568 -1.19296 0
M  V30 171 O 17.3804 -7.36886 -3.63805 0
M  V30 172 C 17.2204 -7.95349 -4.982 0
M  V30 173 C 17.7604 -6.94612 -5.98974 0
M  V30 174 O 16.7044 -6.10347 -6.11815 0
M  V30 175 C 18.9784 -6.11426 -5.62335 0
M  V30 176 O 19.7164 -5.6162 -6.70584 0
M  V30 177 C 18.3094 -5.04409 -4.73308 0
M  V30 178 O 19.1084 -3.85992 -4.75183 0
M  V30 179 C 16.9724 -4.8728 -5.41006 0
M  V30 180 H 17.0044 -4.02333 -6.11157 0
M  V30 181 H 18.1874 -5.39466 -3.69543 0
M  V30 182 H 19.6714 -6.71916 -5.01943 0
M  V30 183 H 17.9774 -7.4649 -6.93477 0
M  V30 184 H 17.7874 -8.89416 -5.05237 0
M  V30 185 H 16.1574 -8.14876 -5.18409 0
M  V30 186 H 18.7964 -3.27957 -5.4317 0
M  V30 187 P 20.654 -5.75688 -6.64379 0
M  V30 188 O 22.076 -6.07627 -7.05504 0
M  V30 189 O 20.294 -5.88047 -5.19722 0
M  V30 190 O 20.331 -4.2322 -7.04443 0
M  V30 191 C 20.171 -3.99743 -8.4911 0
M  V30 192 C 20.711 -2.60516 -8.79425 0
M  V30 193 O 19.655 -1.82684 -8.4467 0
M  V30 194 C 21.929 -2.10343 -8.03628 0
M  V30 195 O 22.667 -1.09919 -8.67766 0
M  V30 196 C 21.26 -1.68446 -6.70876 0
M  V30 197 O 22.059 -0.678137 -6.08433 0
M  V30 198 C 19.923 -1.17436 -7.18567 0
M  V30 199 H 19.955 -0.0804732 -7.31656 0
M  V30 200 H 21.138 -2.54037 -6.02537 0
M  V30 201 H 22.622 -2.93881 -7.85526 0
M  V30 202 H 20.928 -2.53065 -9.86973 0
M  V30 203 H 20.738 -4.75072 -9.05887 0
M  V30 204 H 19.108 -4.05244 -8.76668 0
M  V30 205 H 21.747 0.177647 -6.34251 0
M  V30 206 P 23.6046 -1.25109 -8.70152 0
M  V30 207 O 25.0266 -1.29744 -9.22016 0
M  V30 208 O 23.2446 -2.13714 -7.55141 0
M  V30 209 O 23.2816 0.248149 -8.21425 0
M  V30 210 C 23.1216 1.22779 -9.30434 0
M  V30 211 C 23.6616 2.56293 -8.80664 0
M  V30 212 O 22.6056 3.02979 -8.09349 0
M  V30 213 C 24.8796 2.57523 -7.89775 0
M  V30 214 O 25.6176 3.7668 -7.89438 0
M  V30 215 C 24.2106 2.20997 -6.55446 0
M  V30 216 O 25.0096 2.71895 -5.48509 0
M  V30 217 C 22.8736 2.89693 -6.67988 0
M  V30 218 H 22.9056 3.88793 -6.19859 0
M  V30 219 H 24.0886 1.12046 -6.44229 0
M  V30 220 H 25.5726 1.7746 -8.19711 0
M  V30 221 H 23.8786 3.20706 -9.67112 0
M  V30 222 H 23.6886 0.901032 -10.1892 0
M  V30 223 H 22.0586 1.33049 -9.56592 0
M  V30 224 H 24.6976 3.57847 -5.23962 0
M  V30 225 P 26.5551 3.65191 -7.99657 0
M  V30 226 O 27.9771 3.89332 -8.45794 0
M  V30 227 O 26.1951 2.28472 -7.50807 0
M  V30 228 O 26.2321 4.64972 -6.77611 0
M  V30 229 C 26.0721 6.06319 -7.16352 0
M  V30 230 C 26.6121 6.91731 -6.02299 0
M  V30 231 O 25.5561 6.92449 -5.17064 0
M  V30 232 C 27.8301 6.43627 -5.25174 0
M  V30 233 O 28.5681 7.43686 -4.60469 0
M  V30 234 C 27.1611 5.40275 -4.31916 0
M  V30 235 O 27.9601 5.25279 -3.14438 0
M  V30 236 C 25.8241 6.04847 -4.05327 0
M  V30 237 H 25.8561 6.62195 -3.11261 0
M  V30 238 H 27.0391 4.42556 -4.81383 0
M  V30 239 H 28.5231 5.92458 -5.93643 0
M  V30 240 H 26.8291 7.92655 -6.402 0
M  V30 241 H 26.6391 6.26671 -8.0846 0
M  V30 242 H 25.0091 6.29101 -7.32804 0
M  V30 243 H 27.6481 5.84315 -2.47318 0
M  V30 244 P 29.5057 7.39546 -4.75277 0
M  V30 245 O 30.9277 7.84798 -5.01039 0
M  V30 246 O 29.1457 5.9812 -5.08098 0
M  V30 247 O 29.1827 7.57503 -3.1866 0
M  V30 248 C 29.0227 8.97357 -2.74833 0
M  V30 249 C 29.5627 9.07548 -1.32709 0
M  V30 250 O 28.5067 8.62072 -0.606159 0
M  V30 251 C 30.7807 8.25383 -0.938334 0
M  V30 252 O 31.5187 8.74577 0.146954 0
M  V30 253 C 30.1117 6.8802 -0.712559 0
M  V30 254 O 30.9107 6.1189 0.194655 0
M  V30 255 C 28.7747 7.27966 -0.139777 0
M  V30 256 H 28.8067 7.25354 0.961601 0
M  V30 257 H 29.9897 6.32557 -1.65702 0
M  V30 258 H 31.4737 8.19355 -1.79097 0
M  V30 259 H 29.7797 10.1294 -1.10029 0
M  V30 260 H 29.5897 9.64276 -3.41316 0
M  V30 261 H 27.9597 9.25417 -2.76357 0
M  V30 262 H 30.5987 6.25267 1.07847 0
M  V30 263 P 32.4563 8.791 -9.96115e-15 0
M  V30 264 O 33.8783 9.31096 0.027933 0
M  V30 265 O 32.0963 7.77869 -1.04071 0
M  V30 266 O 32.1333 8.09533 1.41463 0
M  V30 267 C 31.9733 9.0349 2.53943 0
M  V30 268 C 32.5133 8.35226 3.79016 0
M  V30 269 O 31.4573 7.57992 4.15078 0
M  V30 270 C 33.7313 7.45087 3.67298 0
M  V30 271 O 34.4693 7.27796 4.85194 0
M  V30 272 C 33.0623 6.17323 3.12027 0
M  V30 273 O 33.8613 5.04231 3.47188 0
M  V30 274 C 31.7253 6.19961 3.81809 0
M  V30 275 H 31.7573 5.58218 4.73051 0
M  V30 276 H 32.9403 6.21726 2.02589 0
M  V30 277 H 34.4243 7.86112 2.9231 0
M  V30 278 H 32.7303 9.11627 4.55076 0
M  V30 279 H 32.5403 9.9573 2.34194 0
M  V30 280 H 30.9103 9.2792 2.67832 0
M  V30 281 H 33.5493 4.67702 4.28772 0
M  V30 282 P 35.4068 7.39546 4.75277 0
M  V30 283 O 36.8288 7.81777 5.05738 0
M  V30 284 O 35.0468 7.1065 3.32998 0
M  V30 285 O 35.0838 6.04542 5.56673 0
M  V30 286 C 34.9238 6.22772 7.02095 0
M  V30 287 C 35.4638 4.97725 7.70406 0
M  V30 288 O 34.4078 4.13256 7.58987 0
M  V30 289 C 36.6818 4.28231 7.11815 0
M  V30 290 O 37.4198 3.49945 8.01648 0
M  V30 291 C 36.0128 3.5063 5.96244 0
M  V30 292 O 36.8118 2.36482 5.64681 0
M  V30 293 C 34.6758 3.15122 6.56374 0
M  V30 294 H 34.7078 2.13853 6.99751 0
M  V30 295 H 35.8908 4.13501 5.06559 0
M  V30 296 H 37.3748 5.03285 6.70911 0
M  V30 297 H 35.6808 5.20877 8.75697 0
M  V30 298 H 35.4908 7.11046 7.35349 0
M  V30 299 H 33.8608 6.35815 7.26986 0
M  V30 300 H 36.4998 1.61644 6.13565 0
M  V30 301 P 38.3574 3.65191 7.99657 0
M  V30 302 O 39.7794 3.8425 8.48115 0
M  V30 303 O 37.9974 4.17805 6.64342 0
M  V30 304 O 38.0344 2.07613 7.95143 0
M  V30 305 C 37.8744 1.44328 9.27336 0
M  V30 306 C 38.4144 0.0220036 9.17197 0
M  V30 307 O 37.3584 -0.626867 8.61923 0
M  V30 308 C 39.6324 -0.24586 8.30336 0
M  V30 309 O 40.3704 -1.39011 8.63583 0
M  V30 310 C 38.9634 -0.273849 6.91158 0
M  V30 311 O 39.7624 -1.06348 6.02892 0
M  V30 312 C 37.6264 -0.897649 7.22545 0
M  V30 313 H 37.6584 -1.9841 7.04286 0
M  V30 314 H 38.8414 0.739928 6.497 0
M  V30 315 H 40.3254 0.60668 8.36503 0
M  V30 316 H 38.6314 -0.352479 10.1829 0
M  V30 317 H 38.4414 2.00611 10.0304 0
M  V30 318 H 36.8114 1.41843 9.55327 0
M  V30 319 H 39.4504 -1.95734 6.03555 0
M  V30 320 P 41.308 -1.25109 8.70152 0
M  V30 321 O 42.73 -1.35303 9.21419 0
M  V30 322 O 40.948 -0.0769065 7.84762 0
M  V30 323 O 40.985 -2.55232 7.81161 0
M  V30 324 C 40.825 -3.79939 8.58154 0
M  V30 325 C 41.365 -4.93969 7.72701 0
M  V30 326 O 40.31 -5.18726 6.91205 0
M  V30 327 C 42.583 -4.69597 6.85231 0
M  V30 328 O 43.321 -5.83832 6.51337 0
M  V30 329 C 41.915 -3.96706 5.66633 0
M  V30 330 O 42.713 -4.15346 4.49615 0
M  V30 331 C 40.577 -4.66153 5.59313 0
M  V30 332 N 39.534 -3.71582 5.24027 0
M  V30 333 C 39.596 -2.46018 5.67902 0
M  V30 334 N 38.551 -1.74868 5.24518 0
M  V30 335 C 37.817 -2.61333 4.54528 0
M  V30 336 C 36.511 -2.46162 3.95441 0
M  V30 337 O 35.778 -1.46013 3.94122 0
M  V30 338 N 36.081 -3.59334 3.34752 0
M  V30 339 C 36.83 -4.79605 3.3023 0
M  V30 340 N 36.233 -5.82109 2.6065 0
M  V30 341 N 37.983 -4.97402 3.8843 0
M  V30 342 C 38.44 -3.86258 4.50476 0
M  V30 343 H 40.609 -5.47679 4.85214 0
M  V30 344 H 41.792 -2.88964 5.86476 0
M  V30 345 H 43.277 -4.01947 7.36109 0
M  V30 346 H 41.582 -5.80182 8.37584 0
M  V30 347 H 41.392 -3.73517 9.52265 0
M  V30 348 H 39.761 -3.97163 8.80359 0
M  V30 349 H 35.185 -3.5825 2.90294 0
M  V30 350 H 40.392 -2.06161 6.30974 0
M  V30 351 H 35.322 -5.66979 2.15354 0
M  V30 352 H 36.698 -6.73686 2.54344 0
M  V30 353 H 42.402 -4.90891 4.01857 0
M  V30 354 P 44.2585 -5.75688 6.64379 0
M  V30 355 O 45.6805 -6.11849 7.01846 0
M  V30 356 O 43.8985 -4.30744 6.56026 0
M  V30 357 O 43.9355 -6.37042 5.19165 0
M  V30 358 C 43.7755 -7.83578 5.16515 0
M  V30 359 C 44.3155 -8.33398 3.83019 0
M  V30 360 O 43.2595 -8.10074 3.01034 0
M  V30 361 C 45.5335 -7.65514 3.2257 0
M  V30 362 O 46.2715 -8.4329 2.32297 0
M  V30 363 C 44.8645 -6.40075 2.62207 0
M  V30 364 O 45.6635 -5.92589 1.53712 0
M  V30 365 C 43.5275 -6.9454 2.18503 0
M  V30 366 H 43.5595 -7.23063 1.12091 0
M  V30 367 H 44.7425 -5.6025 3.37201 0
M  V30 368 H 46.2265 -7.35707 4.02681 0
M  V30 369 H 44.5325 -9.40912 3.9095 0
M  V30 370 H 44.3425 -8.29056 5.99158 0
M  V30 371 H 42.7125 -8.10073 5.25882 0
M  V30 372 H 45.3515 -6.30324 0.726794 0
M  V30 373 P 47.2091 -8.4349 2.47671 0
M  V30 374 O 48.6301 -8.94263 2.59668 0
M  V30 375 O 46.8491 -7.1704 3.19006 0
M  V30 376 O 46.8861 -8.16596 0.923387 0
M  V30 377 C 46.7251 -9.38537 0.108869 0
M  V30 378 C 47.2661 -9.08175 -1.28353 0
M  V30 379 O 46.2111 -8.44131 -1.84692 0
M  V30 380 C 48.4841 -8.18386 -1.42505 0
M  V30 381 O 49.2221 -8.3501 -2.60497 0
M  V30 382 C 47.8161 -6.80225 -1.25468 0
M  V30 383 O 48.6141 -5.81716 -1.90454 0
M  V30 384 C 46.4781 -7.02416 -1.9168 0
M  V30 385 N 45.4351 -6.31033 -1.20314 0
M  V30 386 C 45.6041 -5.98817 0.0994088 0
M  V30 387 N 44.5771 -5.35403 0.621694 0
M  V30 388 C 43.6921 -5.25212 -0.43376 0
M  V30 389 C 42.4251 -4.64602 -0.519722 0
M  V30 390 N 41.8601 -4.7568 -1.76013 0
M  V30 391 C 42.4621 -5.3653 -2.83017 0
M  V30 392 N 43.6391 -5.93676 -2.79782 0
M  V30 393 C 44.2141 -5.84061 -1.56249 0
M  V30 394 H 47.6931 -6.53498 -0.198729 0
M  V30 395 H 49.1761 -8.36622 -0.589963 0
M  V30 396 H 47.4821 -10.0273 -1.8081 0
M  V30 397 H 47.2921 -10.2138 0.558219 0
M  V30 398 H 45.6621 -9.6579 0.0444202 0
M  V30 399 H 46.5041 -6.23209 0.660562 0
M  V30 400 H 48.3021 -5.69466 -2.79593 0
M  V30 401 P 50.1597 -8.4349 -2.47671 0
M  V30 402 O 51.5817 -8.92593 -2.65 0
M  V30 403 O 49.7997 -7.7568 -1.19296 0
M  V30 404 O 49.8367 -7.36886 -3.63805 0
M  V30 405 C 49.6767 -7.95349 -4.982 0
M  V30 406 C 50.2167 -6.94612 -5.98974 0
M  V30 407 O 49.1607 -6.10347 -6.11815 0
M  V30 408 C 51.4347 -6.11426 -5.62335 0
M  V30 409 O 52.1727 -5.6162 -6.70584 0
M  V30 410 C 50.7657 -5.04409 -4.73308 0
M  V30 411 O 51.5647 -3.85992 -4.75183 0
M  V30 412 C 49.4287 -4.8728 -5.41006 0
M  V30 413 H 49.4607 -4.02333 -6.11157 0
M  V30 414 H 50.6437 -5.39466 -3.69543 0
M  V30 415 H 52.1277 -6.71916 -5.01943 0
M  V30 416 H 50.4337 -7.4649 -6.93477 0
M  V30 417 H 50.2437 -8.89416 -5.05237 0
M  V30 418 H 48.6137 -8.14876 -5.18409 0
M  V30 419 H 51.2527 -3.27957 -5.4317 0
M  V30 420 P 53.1103 -5.75688 -6.64379 0
M  V30 421 O 54.5313 -6.07692 -7.0558 0
M  V30 422 O 52.7503 -5.88047 -5.19722 0
M  V30 423 O 52.7873 -4.2322 -7.04443 0
M  V30 424 C 52.6263 -3.99785 -8.49201 0
M  V30 425 C 53.1673 -2.60516 -8.79425 0
M  V30 426 O 52.1123 -1.82663 -8.44573 0
M  V30 427 C 54.3853 -2.10343 -8.03628 0
M  V30 428 O 55.1233 -1.09919 -8.67766 0
M  V30 429 C 53.7173 -1.68446 -6.70876 0
M  V30 430 O 54.5153 -0.684109 -6.08265 0
M  V30 431 C 52.3793 -1.17436 -7.18567 0
M  V30 432 N 51.3363 -1.52699 -6.23988 0
M  V30 433 C 51.5053 -2.578 -5.40574 0
M  V30 434 N 50.4783 -2.78966 -4.61193 0
M  V30 435 C 49.5933 -1.78725 -4.95769 0
M  V30 436 C 48.3263 -1.45727 -4.44207 0
M  V30 437 N 47.7613 -0.374977 -5.05812 0
M  V30 438 C 48.3633 0.345585 -6.05615 0
M  V30 439 N 49.5403 0.0787651 -6.56253 0
M  V30 440 C 50.1153 -1.00499 -5.96189 0
M  V30 441 H 53.5943 -2.53396 -6.02698 0
M  V30 442 H 55.0773 -2.93881 -7.85526 0
M  V30 443 H 53.3833 -2.52078 -9.87225 0
M  V30 444 H 53.1933 -4.75072 -9.05887 0
M  V30 445 H 51.5633 -4.05244 -8.76668 0
M  V30 446 H 52.4053 -3.18977 -5.3945 0
M  V30 447 H 54.2033 0.177619 -6.34151 0
M  V30 448 P 56.0608 -1.25109 -8.70152 0
M  V30 449 O 57.4828 -1.29772 -9.22214 0
M  V30 450 O 55.7008 -2.13714 -7.55141 0
M  V30 451 O 55.7378 0.248149 -8.21425 0
M  V30 452 C 55.5778 1.22779 -9.30434 0
M  V30 453 C 56.1178 2.56265 -8.80568 0
M  V30 454 O 55.0628 3.02979 -8.09349 0
M  V30 455 C 57.3358 2.57523 -7.89775 0
M  V30 456 O 58.0738 3.7668 -7.89438 0
M  V30 457 C 56.6678 2.20997 -6.55446 0
M  V30 458 O 57.4658 2.71851 -5.48419 0
M  V30 459 C 55.3298 2.89693 -6.67988 0
M  V30 460 N 54.2868 2.08895 -6.07487 0
M  V30 461 C 54.3488 0.760559 -6.14209 0
M  V30 462 N 53.3038 0.200108 -5.52538 0
M  V30 463 C 52.5698 1.22692 -5.09742 0
M  V30 464 C 51.2638 1.24782 -4.48775 0
M  V30 465 O 50.5308 0.290617 -4.19294 0
M  V30 466 N 50.8338 2.50468 -4.22428 0
M  V30 467 C 51.5828 3.67142 -4.51974 0
M  V30 468 N 50.9858 4.85096 -4.14091 0
M  V30 469 N 52.7358 3.67821 -5.12831 0
M  V30 470 C 53.1928 2.43698 -5.4105 0
M  V30 471 H 55.3618 3.88793 -6.19859 0
M  V30 472 H 56.5448 1.12029 -6.4413 0
M  V30 473 H 58.0298 1.78279 -8.19533 0
M  V30 474 H 56.3348 3.20706 -9.67112 0
M  V30 475 H 56.1448 0.901032 -10.1892 0
M  V30 476 H 54.5138 1.33049 -9.56592 0
M  V30 477 H 49.9378 2.61953 -3.79465 0
M  V30 478 H 55.1448 0.200439 -6.63497 0
M  V30 479 H 50.0748 4.8334 -3.66367 0
M  V30 480 H 51.4508 5.7474 -4.33841 0
M  V30 481 H 57.1548 3.5779 -5.23879 0
M  V30 482 P 59.0114 3.65191 -7.99657 0
M  V30 483 O 60.4334 3.89332 -8.45794 0
M  V30 484 O 58.6514 2.28472 -7.50807 0
M  V30 485 O 58.6884 4.64972 -6.77611 0
M  V30 486 C 58.5284 6.06319 -7.16352 0
M  V30 487 C 59.0684 6.91731 -6.02299 0
M  V30 488 O 58.0124 6.92449 -5.17064 0
M  V30 489 C 60.2864 6.43627 -5.25174 0
M  V30 490 O 61.0244 7.43686 -4.60469 0
M  V30 491 C 59.6174 5.40275 -4.31916 0
M  V30 492 O 60.4164 5.25279 -3.14438 0
M  V30 493 C 58.2804 6.04847 -4.05327 0
M  V30 494 H 58.3124 6.62195 -3.11261 0
M  V30 495 H 59.4954 4.42556 -4.81383 0
M  V30 496 H 60.9794 5.92458 -5.93643 0
M  V30 497 H 59.2854 7.92655 -6.402 0
M  V30 498 H 59.0954 6.26671 -8.0846 0
M  V30 499 H 57.4654 6.29101 -7.32804 0
M  V30 500 H 60.1044 5.84315 -2.47318 0
M  V30 501 P 61.962 7.39546 -4.75277 0
M  V30 502 O 63.384 7.84798 -5.01039 0
M  V30 503 O 61.602 5.9812 -5.08098 0
M  V30 504 O 61.639 7.57503 -3.1866 0
M  V30 505 C 61.479 8.97357 -2.74833 0
M  V30 506 C 62.019 9.07548 -1.32709 0
M  V30 507 O 60.963 8.62072 -0.606159 0
M  V30 508 C 63.237 8.25383 -0.938334 0
M  V30 509 O 63.975 8.74577 0.146954 0
M  V30 510 C 62.568 6.8802 -0.712559 0
M  V30 511 O 63.367 6.1189 0.194655 0
M  V30 512 C 61.231 7.27966 -0.139777 0
M  V30 513 H 61.263 7.25354 0.961601 0
M  V30 514 H 62.446 6.32557 -1.65702 0
M  V30 515 H 63.93 8.19355 -1.79097 0
M  V30 516 H 62.236 10.1294 -1.10029 0
M  V30 517 H 62.046 9.64276 -3.41316 0
M  V30 518 H 60.416 9.25417 -2.76357 0
M  V30 519 H 63.055 6.25267 1.07847 0
M  V30 520 P 64.9125 8.791 -3.55383e-14 0
M  V30 521 O 66.3345 9.31096 0.027933 0
M  V30 522 O 64.5525 7.77869 -1.04071 0
M  V30 523 O 64.5895 8.09533 1.41463 0
M  V30 524 C 64.4295 9.0349 2.53943 0
M  V30 525 C 64.9695 8.35226 3.79016 0
M  V30 526 O 63.9135 7.57992 4.15078 0
M  V30 527 C 66.1875 7.45087 3.67298 0
M  V30 528 O 66.9255 7.27796 4.85194 0
M  V30 529 C 65.5185 6.17323 3.12027 0
M  V30 530 O 66.3175 5.04231 3.47188 0
M  V30 531 C 64.1815 6.19961 3.81809 0
M  V30 532 H 64.2135 5.58218 4.73051 0
M  V30 533 H 65.3965 6.21726 2.02589 0
M  V30 534 H 66.8805 7.86112 2.9231 0
M  V30 535 H 65.1865 9.11627 4.55076 0
M  V30 536 H 64.9965 9.9573 2.34194 0
M  V30 537 H 63.3665 9.2792 2.67832 0
M  V30 538 H 66.0055 4.67702 4.28772 0
M  V30 539 P 67.8631 7.39546 4.75277 0
M  V30 540 O 69.2851 7.81777 5.05738 0
M  V30 541 O 67.5031 7.1065 3.32998 0
M  V30 542 O 67.5401 6.04542 5.56673 0
M  V30 543 C 67.3801 6.22772 7.02095 0
M  V30 544 C 67.9201 4.97725 7.70406 0
M  V30 545 O 66.8641 4.13256 7.58987 0
M  V30 546 C 69.1381 4.28231 7.11815 0
M  V30 547 O 69.8761 3.49945 8.01648 0
M  V30 548 C 68.4691 3.5063 5.96244 0
M  V30 549 O 69.2681 2.36482 5.64681 0
M  V30 550 C 67.1321 3.15122 6.56374 0
M  V30 551 H 67.1641 2.13853 6.99751 0
M  V30 552 H 68.3471 4.13501 5.06559 0
M  V30 553 H 69.8311 5.03285 6.70911 0
M  V30 554 H 68.1371 5.20877 8.75697 0
M  V30 555 H 67.9471 7.11046 7.35349 0
M  V30 556 H 66.3171 6.35815 7.26986 0
M  V30 557 H 68.9561 1.61644 6.13565 0
M  V30 558 P 70.8137 3.65191 7.99657 0
M  V30 559 O 72.2357 3.8425 8.48115 0
M  V30 560 O 70.4537 4.17805 6.64342 0
M  V30 561 O 70.4907 2.07613 7.95143 0
M  V30 562 C 70.3307 1.44328 9.27336 0
M  V30 563 C 70.8707 0.0220036 9.17197 0
M  V30 564 O 69.8147 -0.626867 8.61923 0
M  V30 565 C 72.0887 -0.24586 8.30336 0
M  V30 566 O 72.8267 -1.39011 8.63583 0
M  V30 567 C 71.4197 -0.273849 6.91158 0
M  V30 568 O 72.2187 -1.06348 6.02892 0
M  V30 569 C 70.0827 -0.897649 7.22545 0
M  V30 570 H 70.1147 -1.9841 7.04286 0
M  V30 571 H 71.2977 0.739928 6.497 0
M  V30 572 H 72.7817 0.60668 8.36503 0
M  V30 573 H 71.0877 -0.352479 10.1829 0
M  V30 574 H 70.8977 2.00611 10.0304 0
M  V30 575 H 69.2677 1.41843 9.55327 0
M  V30 576 H 71.9067 -1.95734 6.03555 0
M  V30 577 P 73.7642 -1.25109 8.70152 0
M  V30 578 O 75.1852 -1.35288 9.2132 0
M  V30 579 O 73.4042 -0.0769065 7.84762 0
M  V30 580 O 73.4412 -2.55232 7.81161 0
M  V30 581 C 73.2802 -3.79979 8.58246 0
M  V30 582 C 73.8212 -4.94023 7.72785 0
M  V30 583 O 72.7662 -5.18666 6.91125 0
M  V30 584 C 75.0392 -4.69597 6.85231 0
M  V30 585 O 75.7772 -5.83832 6.51337 0
M  V30 586 C 74.3712 -3.96706 5.66633 0
M  V30 587 O 75.1692 -4.14896 4.5003 0
M  V30 588 C 73.0332 -4.66153 5.59313 0
M  V30 589 N 71.9902 -3.71582 5.24027 0
M  V30 590 C 72.1592 -2.39715 5.48833 0
M  V30 591 N 71.1322 -1.65863 5.12845 0
M  V30 592 C 70.2472 -2.57637 4.5973 0
M  V30 593 C 68.9802 -2.40278 4.01027 0
M  V30 594 N 68.3812 -1.19549 3.86744 0
M  V30 595 N 68.4152 -3.57711 3.59575 0
M  V30 596 C 69.0172 -4.80324 3.70476 0
M  V30 597 N 70.1942 -5.01121 4.23801 0
M  V30 598 C 70.7692 -3.84757 4.66372 0
M  V30 599 H 73.0652 -5.47604 4.85148 0
M  V30 600 H 74.2482 -2.8955 5.86187 0
M  V30 601 H 75.7312 -4.0121 7.36511 0
M  V30 602 H 74.0372 -5.81019 8.37003 0
M  V30 603 H 73.8472 -3.73517 9.52265 0
M  V30 604 H 72.2172 -3.97163 8.80359 0
M  V30 605 H 68.4812 -5.66348 3.3183 0
M  V30 606 H 73.0592 -1.98804 5.94332 0
M  V30 607 H 67.4512 -1.13147 3.4281 0
M  V30 608 H 68.8552 -0.344074 4.19692 0
M  V30 609 H 74.8572 -4.90891 4.01857 0
M  V30 610 P 76.7148 -5.75688 6.64379 0
M  V30 611 O 78.1368 -6.11849 7.01846 0
M  V30 612 O 76.3548 -4.30744 6.56026 0
M  V30 613 O 76.3918 -6.37042 5.19165 0
M  V30 614 C 76.2318 -7.83578 5.16515 0
M  V30 615 C 76.7718 -8.33398 3.83019 0
M  V30 616 O 75.7158 -8.10074 3.01034 0
M  V30 617 C 77.9898 -7.65514 3.2257 0
M  V30 618 O 78.7278 -8.4329 2.32297 0
M  V30 619 C 77.3208 -6.40075 2.62207 0
M  V30 620 O 78.1198 -5.92589 1.53712 0
M  V30 621 C 75.9838 -6.9454 2.18503 0
M  V30 622 H 76.0158 -7.23063 1.12091 0
M  V30 623 H 77.1988 -5.6025 3.37201 0
M  V30 624 H 78.6828 -7.35707 4.02681 0
M  V30 625 H 76.9888 -9.40912 3.9095 0
M  V30 626 H 76.7988 -8.29056 5.99158 0
M  V30 627 H 75.1688 -8.10073 5.25882 0
M  V30 628 H 77.8078 -6.30324 0.726794 0
M  V30 629 P 79.6654 -8.4349 2.47671 0
M  V30 630 O 81.0864 -8.94263 2.59668 0
M  V30 631 O 79.3054 -7.1704 3.19006 0
M  V30 632 O 79.3424 -8.16596 0.923387 0
M  V30 633 C 79.1814 -9.38537 0.108869 0
M  V30 634 C 79.7224 -9.08175 -1.28353 0
M  V30 635 O 78.6674 -8.44131 -1.84692 0
M  V30 636 C 80.9404 -8.18386 -1.42505 0
M  V30 637 O 81.6784 -8.3501 -2.60497 0
M  V30 638 C 80.2724 -6.80225 -1.25468 0
M  V30 639 O 81.0704 -5.81716 -1.90454 0
M  V30 640 C 78.9344 -7.02416 -1.9168 0
M  V30 641 N 77.8914 -6.31033 -1.20314 0
M  V30 642 C 78.0604 -5.98817 0.0994088 0
M  V30 643 N 77.0334 -5.35403 0.621694 0
M  V30 644 C 76.1484 -5.25212 -0.43376 0
M  V30 645 C 74.8814 -4.64602 -0.519722 0
M  V30 646 N 74.2824 -4.01457 0.519136 0
M  V30 647 N 74.3164 -4.7568 -1.76013 0
M  V30 648 C 74.9184 -5.3653 -2.83017 0
M  V30 649 N 76.0954 -5.93676 -2.79782 0
M  V30 650 C 76.6704 -5.84061 -1.56249 0
M  V30 651 H 78.9664 -6.68789 -2.9658 0
M  V30 652 H 80.1494 -6.53498 -0.198729 0
M  V30 653 H 81.6324 -8.36622 -0.589963 0
M  V30 654 H 79.9384 -10.0273 -1.8081 0
M  V30 655 H 79.7484 -10.2138 0.558219 0
M  V30 656 H 78.1184 -9.6579 0.0444202 0
M  V30 657 H 74.3824 -5.37113 -3.77321 0
M  V30 658 H 78.9604 -6.23209 0.660562 0
M  V30 659 H 73.3524 -3.58834 0.394862 0
M  V30 660 H 74.7564 -3.96059 1.43048 0
M  V30 661 H 80.7584 -5.69466 -2.79593 0
M  V30 662 P 82.616 -8.4349 -2.47671 0
M  V30 663 O 84.038 -8.92593 -2.65 0
M  V30 664 O 82.256 -7.7568 -1.19296 0
M  V30 665 O 82.293 -7.36886 -3.63805 0
M  V30 666 C 82.133 -7.95349 -4.982 0
M  V30 667 C 82.673 -6.94612 -5.98974 0
M  V30 668 O 81.617 -6.10347 -6.11815 0
M  V30 669 C 83.891 -6.11426 -5.62335 0
M  V30 670 O 84.629 -5.6162 -6.70584 0
M  V30 671 C 83.222 -5.04409 -4.73308 0
M  V30 672 O 84.021 -3.85992 -4.75183 0
M  V30 673 C 81.885 -4.8728 -5.41006 0
M  V30 674 H 81.917 -4.02333 -6.11157 0
M  V30 675 H 83.1 -5.39466 -3.69543 0
M  V30 676 H 84.584 -6.71916 -5.01943 0
M  V30 677 H 82.89 -7.4649 -6.93477 0
M  V30 678 H 82.7 -8.89416 -5.05237 0
M  V30 679 H 81.07 -8.14876 -5.18409 0
M  V30 680 H 83.709 -3.27957 -5.4317 0
M  V30 681 P 85.5665 -5.75688 -6.64379 0
M  V30 682 O 86.9885 -6.07627 -7.05504 0
M  V30 683 O 85.2065 -5.88047 -5.19722 0
M  V30 684 O 85.2435 -4.2322 -7.04443 0
M  V30 685 C 85.0835 -3.99743 -8.4911 0
M  V30 686 C 85.6235 -2.60516 -8.79425 0
M  V30 687 O 84.5675 -1.82684 -8.4467 0
M  V30 688 C 86.8415 -2.10343 -8.03628 0
M  V30 689 O 87.5795 -1.09919 -8.67766 0
M  V30 690 C 86.1725 -1.68446 -6.70876 0
M  V30 691 O 86.9715 -0.678137 -6.08433 0
M  V30 692 C 84.8355 -1.17436 -7.18567 0
M  V30 693 H 84.8675 -0.0804732 -7.31656 0
M  V30 694 H 86.0505 -2.54037 -6.02537 0
M  V30 695 H 87.5345 -2.93881 -7.85526 0
M  V30 696 H 85.8405 -2.53065 -9.86973 0
M  V30 697 H 85.6505 -4.75072 -9.05887 0
M  V30 698 H 84.0205 -4.05244 -8.76668 0
M  V30 699 H 86.6595 0.177647 -6.34251 0
M  V30 700 P 88.5171 -1.25109 -8.70152 0
M  V30 701 O 89.9391 -1.29744 -9.22016 0
M  V30 702 O 88.1571 -2.13714 -7.55141 0
M  V30 703 O 88.1941 0.248149 -8.21425 0
M  V30 704 C 88.0341 1.22779 -9.30434 0
M  V30 705 C 88.5741 2.56293 -8.80664 0
M  V30 706 O 87.5181 3.02979 -8.09349 0
M  V30 707 C 89.7921 2.57523 -7.89775 0
M  V30 708 O 90.5301 3.7668 -7.89438 0
M  V30 709 C 89.1231 2.20997 -6.55446 0
M  V30 710 O 89.9221 2.71895 -5.48509 0
M  V30 711 C 87.7861 2.89693 -6.67988 0
M  V30 712 H 87.8181 3.88793 -6.19859 0
M  V30 713 H 89.0011 1.12046 -6.44229 0
M  V30 714 H 90.4851 1.7746 -8.19711 0
M  V30 715 H 88.7911 3.20706 -9.67112 0
M  V30 716 H 88.6011 0.901032 -10.1892 0
M  V30 717 H 86.9711 1.33049 -9.56592 0
M  V30 718 H 89.6101 3.57847 -5.23962 0
M  V30 719 P 91.4677 3.65191 -7.99657 0
M  V30 720 O 92.8897 3.89332 -8.45794 0
M  V30 721 O 91.1077 2.28472 -7.50807 0
M  V30 722 O 91.1447 4.64972 -6.77611 0
M  V30 723 C 90.9847 6.06319 -7.16352 0
M  V30 724 C 91.5247 6.91731 -6.02299 0
M  V30 725 O 90.4687 6.92449 -5.17064 0
M  V30 726 C 92.7427 6.43627 -5.25174 0
M  V30 727 O 93.4807 7.43686 -4.60469 0
M  V30 728 C 92.0737 5.40275 -4.31916 0
M  V30 729 O 92.8727 5.25279 -3.14438 0
M  V30 730 C 90.7367 6.04847 -4.05327 0
M  V30 731 H 90.7687 6.62195 -3.11261 0
M  V30 732 H 91.9517 4.42556 -4.81383 0
M  V30 733 H 93.4357 5.92458 -5.93643 0
M  V30 734 H 91.7417 7.92655 -6.402 0
M  V30 735 H 91.5517 6.26671 -8.0846 0
M  V30 736 H 89.9217 6.29101 -7.32804 0
M  V30 737 H 92.5607 5.84315 -2.47318 0
M  V30 738 P 94.4182 7.39546 -4.75277 0
M  V30 739 O 95.8402 7.84798 -5.01039 0
M  V30 740 O 94.0582 5.9812 -5.08098 0
M  V30 741 O 94.0952 7.57503 -3.1866 0
M  V30 742 C 93.9352 8.97357 -2.74833 0
M  V30 743 C 94.4752 9.07548 -1.32709 0
M  V30 744 O 93.4192 8.62072 -0.606159 0
M  V30 745 C 95.6932 8.25383 -0.938334 0
M  V30 746 O 96.4312 8.74577 0.146954 0
M  V30 747 C 95.0242 6.8802 -0.712559 0
M  V30 748 O 95.8232 6.1189 0.194655 0
M  V30 749 C 93.6872 7.27966 -0.139777 0
M  V30 750 H 93.7192 7.25354 0.961601 0
M  V30 751 H 94.9022 6.32557 -1.65702 0
M  V30 752 H 96.3862 8.19355 -1.79097 0
M  V30 753 H 94.6922 10.1294 -1.10029 0
M  V30 754 H 94.5022 9.64276 -3.41316 0
M  V30 755 H 92.8722 9.25417 -2.76357 0
M  V30 756 H 95.5112 6.25267 1.07847 0
M  V30 757 P 97.3688 8.791 -6.89233e-14 0
M  V30 758 O 98.7908 9.31096 0.027933 0
M  V30 759 O 97.0088 7.77869 -1.04071 0
M  V30 760 O 97.0458 8.09533 1.41463 0
M  V30 761 C 96.8858 9.0349 2.53943 0
M  V30 762 C 97.4258 8.35226 3.79016 0
M  V30 763 O 96.3698 7.57992 4.15078 0
M  V30 764 C 98.6438 7.45087 3.67298 0
M  V30 765 O 99.3818 7.27796 4.85194 0
M  V30 766 C 97.9748 6.17323 3.12027 0
M  V30 767 O 98.7738 5.04231 3.47188 0
M  V30 768 C 96.6378 6.19961 3.81809 0
M  V30 769 H 96.6698 5.58218 4.73051 0
M  V30 770 H 97.8528 6.21726 2.02589 0
M  V30 771 H 99.3368 7.86112 2.9231 0
M  V30 772 H 97.6428 9.11627 4.55076 0
M  V30 773 H 97.4528 9.9573 2.34194 0
M  V30 774 H 95.8228 9.2792 2.67832 0
M  V30 775 H 98.4618 4.67702 4.28772 0
M  V30 776 P 100.319 7.39546 4.75277 0
M  V30 777 O 101.741 7.81777 5.05738 0
M  V30 778 O 99.9594 7.1065 3.32998 0
M  V30 779 O 99.9964 6.04542 5.56673 0
M  V30 780 C 99.8364 6.22772 7.02095 0
M  V30 781 C 100.376 4.97725 7.70406 0
M  V30 782 O 99.3204 4.13256 7.58987 0
M  V30 783 C 101.594 4.28231 7.11815 0
M  V30 784 O 102.332 3.49945 8.01648 0
M  V30 785 C 100.925 3.5063 5.96244 0
M  V30 786 O 101.724 2.36482 5.64681 0
M  V30 787 C 99.5884 3.15122 6.56374 0
M  V30 788 H 99.6204 2.13853 6.99751 0
M  V30 789 H 100.803 4.13501 5.06559 0
M  V30 790 H 102.287 5.03285 6.70911 0
M  V30 791 H 100.593 5.20877 8.75697 0
M  V30 792 H 100.403 7.11046 7.35349 0
M  V30 793 H 98.7734 6.35815 7.26986 0
M  V30 794 H 101.412 1.61644 6.13565 0
M  V30 795 P 103.27 3.65191 7.99657 0
M  V30 796 O 104.691 3.84292 8.48206 0
M  V30 797 O 102.91 4.17805 6.64342 0
M  V30 798 O 102.947 2.07613 7.95143 0
M  V30 799 C 102.786 1.44344 9.27435 0
M  V30 800 C 103.327 0.0220036 9.17197 0
M  V30 801 O 102.272 -0.626794 8.61824 0
M  V30 802 C 104.545 -0.24586 8.30336 0
M  V30 803 O 105.283 -1.39011 8.63583 0
M  V30 804 C 103.877 -0.273849 6.91158 0
M  V30 805 O 104.675 -1.05728 6.029 0
M  V30 806 C 102.539 -0.897649 7.22545 0
M  V30 807 N 101.496 -0.292839 6.41732 0
M  V30 808 C 101.665 0.950603 5.91308 0
M  V30 809 N 100.638 1.37732 5.21105 0
M  V30 810 C 99.7529 0.318109 5.26039 0
M  V30 811 C 98.4859 0.146766 4.6727 0
M  V30 812 N 97.8869 1.08519 3.89983 0
M  V30 813 N 97.9209 -1.06525 4.95887 0
M  V30 814 C 98.5229 -2.0378 5.71347 0
M  V30 815 N 99.6999 -1.92445 6.27451 0
M  V30 816 C 100.275 -0.715382 6.00353 0
M  V30 817 H 102.571 -1.98383 7.04189 0
M  V30 818 H 103.754 0.733318 6.49674 0
M  V30 819 H 105.237 0.60668 8.36503 0
M  V30 820 H 103.543 -0.362662 10.1825 0
M  V30 821 H 103.353 2.00611 10.0304 0
M  V30 822 H 101.723 1.41843 9.55327 0
M  V30 823 H 97.9869 -2.97041 5.85344 0
M  V30 824 H 102.565 1.54076 6.07465 0
M  V30 825 H 96.9569 0.901517 3.49562 0
M  V30 826 H 98.3609 1.97957 3.71669 0
M  V30 827 H 104.363 -1.95704 6.0346 0
M  V30 828 P 106.221 -1.25109 8.70152 0
M  V30 829 O 107.643 -1.35274 9.21221 0
M  V30 830 O 105.861 -0.0769065 7.84762 0
M  V30 831 O 105.898 -2.55232 7.81161 0
M  V30 832 C 105.738 -3.79939 8.58154 0
M  V30 833 C 106.278 -4.94023 7.72785 0
M  V30 834 O 105.222 -5.18726 6.91205 0
M  V30 835 C 107.496 -4.69597 6.85231 0
M  V30 836 O 108.234 -5.83832 6.51337 0
M  V30 837 C 106.827 -3.96706 5.66633 0
M  V30 838 O 107.626 -4.15414 4.49689 0
M  V30 839 C 105.49 -4.66153 5.59313 0
M  V30 840 H 105.522 -5.47679 4.85214 0
M  V30 841 H 106.705 -2.89008 5.86566 0
M  V30 842 H 108.189 -4.0121 7.36511 0
M  V30 843 H 106.495 -5.80182 8.37584 0
M  V30 844 H 106.305 -3.73517 9.52265 0
M  V30 845 H 104.675 -3.97163 8.80359 0
M  V30 846 H 107.314 -4.90969 4.01921 0
M  V30 847 P 109.171 -5.75688 6.64379 0
M  V30 848 O 110.593 -6.11849 7.01846 0
M  V30 849 O 108.811 -4.30744 6.56026 0
M  V30 850 O 108.848 -6.37042 5.19165 0
M  V30 851 C 108.688 -7.83578 5.16515 0
M  V30 852 C 109.228 -8.33398 3.83019 0
M  V30 853 O 108.172 -8.10074 3.01034 0
M  V30 854 C 110.446 -7.65514 3.2257 0
M  V30 855 O 111.184 -8.4329 2.32297 0
M  V30 856 C 109.777 -6.40075 2.62207 0
M  V30 857 O 110.576 -5.92589 1.53712 0
M  V30 858 C 108.44 -6.9454 2.18503 0
M  V30 859 H 108.472 -7.23063 1.12091 0
M  V30 860 H 109.655 -5.6025 3.37201 0
M  V30 861 H 111.139 -7.35707 4.02681 0
M  V30 862 H 109.445 -9.40912 3.9095 0
M  V30 863 H 109.255 -8.29056 5.99158 0
M  V30 864 H 107.625 -8.10073 5.25882 0
M  V30 865 H 110.264 -6.30324 0.726794 0
M  V30 866 P 112.122 -8.4349 2.47671 0
M  V30 867 O 113.544 -8.94167 2.5964 0
M  V30 868 O 111.762 -7.1704 3.19006 0
M  V30 869 O 111.799 -8.16596 0.923387 0
M  V30 870 C 111.639 -9.38437 0.108857 0
M  V30 871 C 112.179 -9.08175 -1.28353 0
M  V30 872 O 111.123 -8.44229 -1.84713 0
M  V30 873 C 113.397 -8.18386 -1.42505 0
M  V30 874 O 114.135 -8.3501 -2.60497 0
M  V30 875 C 112.728 -6.80225 -1.25468 0
M  V30 876 O 113.527 -5.81621 -1.91066 0
M  V30 877 C 111.391 -7.02416 -1.9168 0
M  V30 878 H 111.423 -6.6888 -2.96621 0
M  V30 879 H 112.606 -6.53617 -0.192223 0
M  V30 880 H 114.09 -8.36622 -0.589963 0
M  V30 881 H 112.396 -10.0291 -1.79807 0
M  V30 882 H 112.206 -10.2138 0.558219 0
M  V30 883 H 110.576 -9.6579 0.0444202 0
M  V30 884 H 113.215 -5.69556 -2.79637 0
M  V30 885 P 115.072 -8.4349 -2.47671 0
M  V30 886 O 116.494 -8.92593 -2.65 0
M  V30 887 O 114.712 -7.7568 -1.19296 0
M  V30 888 O 114.749 -7.36886 -3.63805 0
M  V30 889 C 114.589 -7.95349 -4.982 0
M  V30 890 C 115.129 -6.94612 -5.98974 0
M  V30 891 O 114.073 -6.10347 -6.11815 0
M  V30 892 C 116.347 -6.11426 -5.62335 0
M  V30 893 O 117.085 -5.6162 -6.70584 0
M  V30 894 C 115.678 -5.04409 -4.73308 0
M  V30 895 O 116.477 -3.85992 -4.75183 0
M  V30 896 C 114.341 -4.8728 -5.41006 0
M  V30 897 H 114.373 -4.02333 -6.11157 0
M  V30 898 H 115.556 -5.39466 -3.69543 0
M  V30 899 H 117.04 -6.71916 -5.01943 0
M  V30 900 H 115.346 -7.4649 -6.93477 0
M  V30 901 H 115.156 -8.89416 -5.05237 0
M  V30 902 H 113.526 -8.14876 -5.18409 0
M  V30 903 H 116.165 -3.27957 -5.4317 0
M  V30 904 P 118.023 -5.75688 -6.64379 0
M  V30 905 O 119.445 -6.07627 -7.05504 0
M  V30 906 O 117.663 -5.88047 -5.19722 0
M  V30 907 O 117.7 -4.2322 -7.04443 0
M  V30 908 C 117.54 -3.99743 -8.4911 0
M  V30 909 C 118.08 -2.60516 -8.79425 0
M  V30 910 O 117.024 -1.82684 -8.4467 0
M  V30 911 C 119.298 -2.10343 -8.03628 0
M  V30 912 O 120.036 -1.09919 -8.67766 0
M  V30 913 C 118.629 -1.68446 -6.70876 0
M  V30 914 O 119.428 -0.678137 -6.08433 0
M  V30 915 C 117.292 -1.17436 -7.18567 0
M  V30 916 H 117.324 -0.0804732 -7.31656 0
M  V30 917 H 118.507 -2.54037 -6.02537 0
M  V30 918 H 119.991 -2.93881 -7.85526 0
M  V30 919 H 118.297 -2.53065 -9.86973 0
M  V30 920 H 118.107 -4.75072 -9.05887 0
M  V30 921 H 116.477 -4.05244 -8.76668 0
M  V30 922 H 119.116 0.177647 -6.34251 0
M  V30 923 P 120.973 -1.25109 -8.70152 0
M  V30 924 O 122.395 -1.29744 -9.22016 0
M  V30 925 O 120.613 -2.13714 -7.55141 0
M  V30 926 O 120.65 0.248149 -8.21425 0
M  V30 927 C 120.49 1.22779 -9.30434 0
M  V30 928 C 121.03 2.56293 -8.80664 0
M  V30 929 O 119.974 3.02979 -8.09349 0
M  V30 930 C 122.248 2.57523 -7.89775 0
M  V30 931 O 122.986 3.7668 -7.89438 0
M  V30 932 C 121.579 2.20997 -6.55446 0
M  V30 933 O 122.378 2.71895 -5.48509 0
M  V30 934 C 120.242 2.89693 -6.67988 0
M  V30 935 H 120.274 3.88793 -6.19859 0
M  V30 936 H 121.457 1.12046 -6.44229 0
M  V30 937 H 122.941 1.7746 -8.19711 0
M  V30 938 H 121.247 3.20706 -9.67112 0
M  V30 939 H 121.057 0.901032 -10.1892 0
M  V30 940 H 119.427 1.33049 -9.56592 0
M  V30 941 H 122.066 3.57847 -5.23962 0
M  V30 942 P 123.924 3.65191 -7.99657 0
M  V30 943 O 125.345 3.89374 -8.45885 0
M  V30 944 O 123.564 2.28472 -7.50807 0
M  V30 945 O 123.601 4.64972 -6.77611 0
M  V30 946 C 123.44 6.06383 -7.16428 0
M  V30 947 C 123.981 6.91731 -6.02299 0
M  V30 948 O 122.926 6.92369 -5.17005 0
M  V30 949 C 125.199 6.43627 -5.25174 0
M  V30 950 O 125.937 7.43686 -4.60469 0
M  V30 951 C 124.531 5.40275 -4.31916 0
M  V30 952 O 125.329 5.24878 -3.14911 0
M  V30 953 C 123.193 6.04847 -4.05327 0
M  V30 954 N 122.15 5.04166 -3.98114 0
M  V30 955 C 122.319 3.84629 -4.59066 0
M  V30 956 N 121.292 3.0363 -4.45343 0
M  V30 957 C 120.407 3.76722 -3.68523 0
M  V30 958 C 119.14 3.43528 -3.17088 0
M  V30 959 N 118.541 2.23665 -3.37397 0
M  V30 960 N 118.575 4.44526 -2.44231 0
M  V30 961 C 119.177 5.65243 -2.20146 0
M  V30 962 N 120.354 6.00221 -2.65453 0
M  V30 963 C 120.929 5.00564 -3.39083 0
M  V30 964 H 123.225 6.62104 -3.11218 0
M  V30 965 H 124.408 4.42969 -4.80867 0
M  V30 966 H 125.891 5.92458 -5.93643 0
M  V30 967 H 124.197 7.93295 -6.39407 0
M  V30 968 H 124.007 6.26671 -8.0846 0
M  V30 969 H 122.377 6.29101 -7.32804 0
M  V30 970 H 118.641 6.36894 -1.5883 0
M  V30 971 H 123.219 3.58193 -5.14248 0
M  V30 972 H 117.611 2.05145 -2.97047 0
M  V30 973 H 119.015 1.51255 -3.92998 0
M  V30 974 H 125.017 5.84223 -2.47279 0
M  V30 975 P 126.875 7.39546 -4.75277 0
M  V30 976 O 128.297 7.84798 -5.01039 0
M  V30 977 O 126.515 5.9812 -5.08098 0
M  V30 978 O 126.552 7.57503 -3.1866 0
M  V30 979 C 126.392 8.97357 -2.74833 0
M  V30 980 C 126.932 9.07548 -1.32709 0
M  V30 981 O 125.876 8.62072 -0.606159 0
M  V30 982 C 128.15 8.25383 -0.938334 0
M  V30 983 O 128.888 8.74577 0.146954 0
M  V30 984 C 127.481 6.8802 -0.712559 0
M  V30 985 O 128.28 6.1189 0.194655 0
M  V30 986 C 126.144 7.27966 -0.139777 0
M  V30 987 H 126.176 7.25354 0.961601 0
M  V30 988 H 127.359 6.32557 -1.65702 0
M  V30 989 H 128.843 8.19355 -1.79097 0
M  V30 990 H 127.149 10.1294 -1.10029 0
M  V30 991 H 126.959 9.64276 -3.41316 0
M  V30 992 H 125.329 9.25417 -2.76357 0
M  V30 993 H 127.968 6.25267 1.07847 0
M  V30 994 P 129.825 8.791 -1.02308e-13 0
M  V30 995 O 131.247 9.31096 0.027933 0
M  V30 996 O 129.465 7.77869 -1.04071 0
M  V30 997 O 129.502 8.09533 1.41463 0
M  V30 998 C 129.342 9.0349 2.53943 0
M  V30 999 C 129.882 8.35226 3.79016 0
M  V30 1000 O 128.826 7.57992 4.15078 0
M  V30 1001 C 131.1 7.45087 3.67298 0
M  V30 1002 O 131.838 7.27796 4.85194 0
M  V30 1003 C 130.431 6.17323 3.12027 0
M  V30 1004 O 131.23 5.04231 3.47188 0
M  V30 1005 C 129.094 6.19961 3.81809 0
M  V30 1006 H 129.126 5.58218 4.73051 0
M  V30 1007 H 130.309 6.21726 2.02589 0
M  V30 1008 H 131.793 7.86112 2.9231 0
M  V30 1009 H 130.099 9.11627 4.55076 0
M  V30 1010 H 129.909 9.9573 2.34194 0
M  V30 1011 H 128.279 9.2792 2.67832 0
M  V30 1012 H 130.918 4.67702 4.28772 0
M  V30 1013 P 132.776 7.39546 4.75277 0
M  V30 1014 O 134.198 7.81945 5.05847 0
M  V30 1015 O 132.416 7.1065 3.32998 0
M  V30 1016 O 132.453 6.04542 5.56673 0
M  V30 1017 C 132.293 6.22772 7.02095 0
M  V30 1018 C 132.833 4.97671 7.70322 0
M  V30 1019 O 131.778 4.13256 7.58987 0
M  V30 1020 C 134.051 4.28231 7.11815 0
M  V30 1021 O 134.789 3.49945 8.01648 0
M  V30 1022 C 133.383 3.5063 5.96244 0
M  V30 1023 O 134.181 2.36443 5.64589 0
M  V30 1024 C 132.045 3.15122 6.56374 0
M  V30 1025 N 131.002 3.22311 5.55692 0
M  V30 1026 C 131.064 4.14382 4.59701 0
M  V30 1027 N 130.019 4.04476 3.76958 0
M  V30 1028 C 129.285 3.04892 4.26534 0
M  V30 1029 C 127.979 2.57447 3.88189 0
M  V30 1030 O 127.246 2.9785 2.96543 0
M  V30 1031 N 127.549 1.55228 4.65922 0
M  V30 1032 C 128.298 1.01152 5.73447 0
M  V30 1033 N 127.701 -0.0472117 6.37783 0
M  V30 1034 N 129.451 1.467 6.13813 0
M  V30 1035 C 129.908 2.4931 5.38487 0
M  V30 1036 H 132.077 2.13853 6.99751 0
M  V30 1037 H 133.26 4.13438 5.06482 0
M  V30 1038 H 134.745 5.02614 6.71414 0
M  V30 1039 H 133.05 5.20877 8.75697 0
M  V30 1040 H 132.86 7.11046 7.35349 0
M  V30 1041 H 131.229 6.35815 7.26986 0
M  V30 1042 H 126.653 1.15238 4.46468 0
M  V30 1043 H 131.86 4.88312 4.49647 0
M  V30 1044 H 126.79 -0.396382 6.05203 0
M  V30 1045 H 128.166 -0.484997 7.18465 0
M  V30 1046 H 133.87 1.61619 6.13468 0
M  V30 1047 P 135.726 3.65191 7.99657 0
M  V30 1048 O 137.148 3.8425 8.48115 0
M  V30 1049 O 135.366 4.17805 6.64342 0
M  V30 1050 O 135.403 2.07613 7.95143 0
M  V30 1051 C 135.243 1.44328 9.27336 0
M  V30 1052 C 135.783 0.0220036 9.17197 0
M  V30 1053 O 134.727 -0.626867 8.61923 0
M  V30 1054 C 137.001 -0.24586 8.30336 0
M  V30 1055 O 137.739 -1.39011 8.63583 0
M  V30 1056 C 136.332 -0.273849 6.91158 0
M  V30 1057 O 137.131 -1.06348 6.02892 0
M  V30 1058 C 134.995 -0.897649 7.22545 0
M  V30 1059 H 135.027 -1.9841 7.04286 0
M  V30 1060 H 136.21 0.739928 6.497 0
M  V30 1061 H 137.694 0.60668 8.36503 0
M  V30 1062 H 136 -0.352479 10.1829 0
M  V30 1063 H 135.81 2.00611 10.0304 0
M  V30 1064 H 134.18 1.41843 9.55327 0
M  V30 1065 H 136.819 -1.95734 6.03555 0
M  V30 1066 P 138.677 -1.25109 8.70152 0
M  V30 1067 O 140.099 -1.35274 9.21221 0
M  V30 1068 O 138.317 -0.0769065 7.84762 0
M  V30 1069 O 138.354 -2.55232 7.81161 0
M  V30 1070 C 138.194 -3.79939 8.58154 0
M  V30 1071 C 138.734 -4.94023 7.72785 0
M  V30 1072 O 137.678 -5.18726 6.91205 0
M  V30 1073 C 139.952 -4.69597 6.85231 0
M  V30 1074 O 140.69 -5.83832 6.51337 0
M  V30 1075 C 139.283 -3.96706 5.66633 0
M  V30 1076 O 140.082 -4.15414 4.49689 0
M  V30 1077 C 137.946 -4.66153 5.59313 0
M  V30 1078 H 137.978 -5.47679 4.85214 0
M  V30 1079 H 139.161 -2.89008 5.86566 0
M  V30 1080 H 140.645 -4.0121 7.36511 0
M  V30 1081 H 138.951 -5.80182 8.37584 0
M  V30 1082 H 138.761 -3.73517 9.52265 0
M  V30 1083 H 137.131 -3.97163 8.80359 0
M  V30 1084 H 139.77 -4.90969 4.01921 0
M  V30 1085 P 141.627 -5.75688 6.64379 0
M  V30 1086 O 143.049 -6.11849 7.01846 0
M  V30 1087 O 141.267 -4.30744 6.56026 0
M  V30 1088 O 141.304 -6.37042 5.19165 0
M  V30 1089 C 141.144 -7.83578 5.16515 0
M  V30 1090 C 141.684 -8.33398 3.83019 0
M  V30 1091 O 140.628 -8.10074 3.01034 0
M  V30 1092 C 142.902 -7.65514 3.2257 0
M  V30 1093 O 143.64 -8.4329 2.32297 0
M  V30 1094 C 142.233 -6.40075 2.62207 0
M  V30 1095 O 143.032 -5.92589 1.53712 0
M  V30 1096 C 140.896 -6.9454 2.18503 0
M  V30 1097 H 140.928 -7.23063 1.12091 0
M  V30 1098 H 142.111 -5.6025 3.37201 0
M  V30 1099 H 143.595 -7.35707 4.02681 0
M  V30 1100 H 141.901 -9.40912 3.9095 0
M  V30 1101 H 141.711 -8.29056 5.99158 0
M  V30 1102 H 140.081 -8.10073 5.25882 0
M  V30 1103 H 142.72 -6.30324 0.726794 0
M  V30 1104 P 144.578 -8.4349 2.47671 0
M  V30 1105 O 146 -8.94167 2.5964 0
M  V30 1106 O 144.218 -7.1704 3.19006 0
M  V30 1107 O 144.255 -8.16596 0.923387 0
M  V30 1108 C 144.095 -9.38437 0.108857 0
M  V30 1109 C 144.635 -9.08175 -1.28353 0
M  V30 1110 O 143.579 -8.44229 -1.84713 0
M  V30 1111 C 145.853 -8.18386 -1.42505 0
M  V30 1112 O 146.591 -8.3501 -2.60497 0
M  V30 1113 C 145.184 -6.80225 -1.25468 0
M  V30 1114 O 145.983 -5.81621 -1.91066 0
M  V30 1115 C 143.847 -7.02416 -1.9168 0
M  V30 1116 H 143.879 -6.6888 -2.96621 0
M  V30 1117 H 145.062 -6.53617 -0.192223 0
M  V30 1118 H 146.546 -8.36622 -0.589963 0
M  V30 1119 H 144.852 -10.0291 -1.79807 0
M  V30 1120 H 144.662 -10.2138 0.558219 0
M  V30 1121 H 143.032 -9.6579 0.0444202 0
M  V30 1122 H 145.671 -5.69556 -2.79637 0
M  V30 1123 P 147.528 -8.4349 -2.47671 0
M  V30 1124 O 148.95 -8.92593 -2.65 0
M  V30 1125 O 147.168 -7.7568 -1.19296 0
M  V30 1126 O 147.205 -7.36886 -3.63805 0
M  V30 1127 C 147.045 -7.95349 -4.982 0
M  V30 1128 C 147.585 -6.94612 -5.98974 0
M  V30 1129 O 146.529 -6.10347 -6.11815 0
M  V30 1130 C 148.803 -6.11426 -5.62335 0
M  V30 1131 O 149.541 -5.6162 -6.70584 0
M  V30 1132 C 148.134 -5.04409 -4.73308 0
M  V30 1133 O 148.933 -3.85992 -4.75183 0
M  V30 1134 C 146.797 -4.8728 -5.41006 0
M  V30 1135 H 146.829 -4.02333 -6.11157 0
M  V30 1136 H 148.012 -5.39466 -3.69543 0
M  V30 1137 H 149.496 -6.71916 -5.01943 0
M  V30 1138 H 147.802 -7.4649 -6.93477 0
M  V30 1139 H 147.612 -8.89416 -5.05237 0
M  V30 1140 H 145.982 -8.14876 -5.18409 0
M  V30 1141 H 148.621 -3.27957 -5.4317 0
M  V30 1142 P 150.479 -5.75688 -6.64379 0
M  V30 1143 O 151.901 -6.07627 -7.05504 0
M  V30 1144 O 150.119 -5.88047 -5.19722 0
M  V30 1145 O 150.156 -4.2322 -7.04443 0
M  V30 1146 C 149.996 -3.99743 -8.4911 0
M  V30 1147 C 150.536 -2.60516 -8.79425 0
M  V30 1148 O 149.48 -1.82684 -8.4467 0
M  V30 1149 C 151.754 -2.10343 -8.03628 0
M  V30 1150 O 152.492 -1.09919 -8.67766 0
M  V30 1151 C 151.085 -1.68446 -6.70876 0
M  V30 1152 O 151.884 -0.678137 -6.08433 0
M  V30 1153 C 149.748 -1.17436 -7.18567 0
M  V30 1154 H 149.78 -0.0804732 -7.31656 0
M  V30 1155 H 150.963 -2.54037 -6.02537 0
M  V30 1156 H 152.447 -2.93881 -7.85526 0
M  V30 1157 H 150.753 -2.53065 -9.86973 0
M  V30 1158 H 150.563 -4.75072 -9.05887 0
M  V30 1159 H 148.933 -4.05244 -8.76668 0
M  V30 1160 H 151.572 0.177647 -6.34251 0
M  V30 1161 P 153.43 -1.25109 -8.70152 0
M  V30 1162 O 154.852 -1.29744 -9.22016 0
M  V30 1163 O 153.07 -2.13714 -7.55141 0
M  V30 1164 O 153.107 0.248149 -8.21425 0
M  V30 1165 C 152.947 1.22779 -9.30434 0
M  V30 1166 C 153.487 2.56293 -8.80664 0
M  V30 1167 O 152.431 3.02979 -8.09349 0
M  V30 1168 C 154.705 2.57523 -7.89775 0
M  V30 1169 O 155.443 3.7668 -7.89438 0
M  V30 1170 C 154.036 2.20997 -6.55446 0
M  V30 1171 O 154.835 2.71895 -5.48509 0
M  V30 1172 C 152.699 2.89693 -6.67988 0
M  V30 1173 H 152.731 3.88793 -6.19859 0
M  V30 1174 H 153.914 1.12046 -6.44229 0
M  V30 1175 H 155.398 1.7746 -8.19711 0
M  V30 1176 H 153.704 3.20706 -9.67112 0
M  V30 1177 H 153.514 0.901032 -10.1892 0
M  V30 1178 H 151.884 1.33049 -9.56592 0
M  V30 1179 H 154.523 3.57847 -5.23962 0
M  V30 1180 P 156.38 3.65191 -7.99657 0
M  V30 1181 O 157.802 3.89332 -8.45794 0
M  V30 1182 O 156.02 2.28472 -7.50807 0
M  V30 1183 O 156.057 4.64972 -6.77611 0
M  V30 1184 C 155.897 6.06319 -7.16352 0
M  V30 1185 C 156.437 6.91731 -6.02299 0
M  V30 1186 O 155.381 6.92449 -5.17064 0
M  V30 1187 C 157.655 6.43627 -5.25174 0
M  V30 1188 O 158.393 7.43686 -4.60469 0
M  V30 1189 C 156.986 5.40275 -4.31916 0
M  V30 1190 O 157.785 5.25279 -3.14438 0
M  V30 1191 C 155.649 6.04847 -4.05327 0
M  V30 1192 H 155.681 6.62195 -3.11261 0
M  V30 1193 H 156.864 4.42556 -4.81383 0
M  V30 1194 H 158.348 5.92458 -5.93643 0
M  V30 1195 H 156.654 7.92655 -6.402 0
M  V30 1196 H 156.464 6.26671 -8.0846 0
M  V30 1197 H 154.834 6.29101 -7.32804 0
M  V30 1198 H 157.473 5.84315 -2.47318 0
M  V30 1199 P 159.331 7.39546 -4.75277 0
M  V30 1200 O 160.753 7.84798 -5.01039 0
M  V30 1201 O 158.971 5.9812 -5.08098 0
M  V30 1202 O 159.008 7.57503 -3.1866 0
M  V30 1203 C 158.848 8.97357 -2.74833 0
M  V30 1204 C 159.388 9.07548 -1.32709 0
M  V30 1205 O 158.332 8.62072 -0.606159 0
M  V30 1206 C 160.606 8.25383 -0.938334 0
M  V30 1207 O 161.344 8.74577 0.146954 0
M  V30 1208 C 159.937 6.8802 -0.712559 0
M  V30 1209 O 160.736 6.1189 0.194655 0
M  V30 1210 C 158.6 7.27966 -0.139777 0
M  V30 1211 H 158.632 7.25354 0.961601 0
M  V30 1212 H 159.815 6.32557 -1.65702 0
M  V30 1213 H 161.299 8.19355 -1.79097 0
M  V30 1214 H 159.605 10.1294 -1.10029 0
M  V30 1215 H 159.415 9.64276 -3.41316 0
M  V30 1216 H 157.785 9.25417 -2.76357 0
M  V30 1217 H 160.424 6.25267 1.07847 0
M  V30 1218 P 162.281 8.791 -1.35693e-13 0
M  V30 1219 O 163.703 9.31096 0.027933 0
M  V30 1220 O 161.921 7.77869 -1.04071 0
M  V30 1221 O 161.958 8.09533 1.41463 0
M  V30 1222 C 161.798 9.0349 2.53943 0
M  V30 1223 C 162.338 8.35226 3.79016 0
M  V30 1224 O 161.282 7.57992 4.15078 0
M  V30 1225 C 163.556 7.45087 3.67298 0
M  V30 1226 O 164.294 7.27796 4.85194 0
M  V30 1227 C 162.887 6.17323 3.12027 0
M  V30 1228 O 163.686 5.04231 3.47188 0
M  V30 1229 C 161.55 6.19961 3.81809 0
M  V30 1230 H 161.582 5.58218 4.73051 0
M  V30 1231 H 162.765 6.21726 2.02589 0
M  V30 1232 H 164.249 7.86112 2.9231 0
M  V30 1233 H 162.555 9.11627 4.55076 0
M  V30 1234 H 162.365 9.9573 2.34194 0
M  V30 1235 H 160.735 9.2792 2.67832 0
M  V30 1236 H 163.374 4.67702 4.28772 0
M  V30 1237 P 165.232 7.39546 4.75277 0
M  V30 1238 O 166.654 7.81777 5.05738 0
M  V30 1239 O 164.872 7.1065 3.32998 0
M  V30 1240 O 164.909 6.04542 5.56673 0
M  V30 1241 C 164.749 6.22772 7.02095 0
M  V30 1242 C 165.289 4.97725 7.70406 0
M  V30 1243 O 164.233 4.13256 7.58987 0
M  V30 1244 C 166.507 4.28231 7.11815 0
M  V30 1245 O 167.245 3.49945 8.01648 0
M  V30 1246 C 165.838 3.5063 5.96244 0
M  V30 1247 O 166.637 2.36482 5.64681 0
M  V30 1248 C 164.501 3.15122 6.56374 0
M  V30 1249 H 164.533 2.13853 6.99751 0
M  V30 1250 H 165.716 4.13501 5.06559 0
M  V30 1251 H 167.2 5.03285 6.70911 0
M  V30 1252 H 165.506 5.20877 8.75697 0
M  V30 1253 H 165.316 7.11046 7.35349 0
M  V30 1254 H 163.686 6.35815 7.26986 0
M  V30 1255 H 166.325 1.61644 6.13565 0
M  V30 1256 P 168.182 3.65191 7.99657 0
M  V30 1257 O 169.604 3.8425 8.48115 0
M  V30 1258 O 167.822 4.17805 6.64342 0
M  V30 1259 O 167.859 2.07613 7.95143 0
M  V30 1260 C 167.699 1.44328 9.27336 0
M  V30 1261 C 168.239 0.0220036 9.17197 0
M  V30 1262 O 167.183 -0.626867 8.61923 0
M  V30 1263 C 169.457 -0.24586 8.30336 0
M  V30 1264 O 170.195 -1.39011 8.63583 0
M  V30 1265 C 168.788 -0.273849 6.91158 0
M  V30 1266 O 169.587 -1.06348 6.02892 0
M  V30 1267 C 167.451 -0.897649 7.22545 0
M  V30 1268 H 167.483 -1.9841 7.04286 0
M  V30 1269 H 168.666 0.739928 6.497 0
M  V30 1270 H 170.15 0.60668 8.36503 0
M  V30 1271 H 168.456 -0.352479 10.1829 0
M  V30 1272 H 168.266 2.00611 10.0304 0
M  V30 1273 H 166.636 1.41843 9.55327 0
M  V30 1274 H 169.275 -1.95734 6.03555 0
M  V30 1275 P 171.133 -1.25109 8.70152 0
M  V30 1276 O 172.555 -1.35274 9.21221 0
M  V30 1277 O 170.773 -0.0769065 7.84762 0
M  V30 1278 O 170.81 -2.55232 7.81161 0
M  V30 1279 C 170.65 -3.79939 8.58154 0
M  V30 1280 C 171.19 -4.94023 7.72785 0
M  V30 1281 O 170.134 -5.18726 6.91205 0
M  V30 1282 C 172.408 -4.69597 6.85231 0
M  V30 1283 O 173.146 -5.83832 6.51337 0
M  V30 1284 C 171.739 -3.96706 5.66633 0
M  V30 1285 O 172.538 -4.15414 4.49689 0
M  V30 1286 C 170.402 -4.66153 5.59313 0
M  V30 1287 H 170.434 -5.47679 4.85214 0
M  V30 1288 H 171.617 -2.89008 5.86566 0
M  V30 1289 H 173.101 -4.0121 7.36511 0
M  V30 1290 H 171.407 -5.80182 8.37584 0
M  V30 1291 H 171.217 -3.73517 9.52265 0
M  V30 1292 H 169.587 -3.97163 8.80359 0
M  V30 1293 H 172.226 -4.90969 4.01921 0
M  V30 1294 P 174.084 -5.75688 6.64379 0
M  V30 1295 O 175.506 -6.11849 7.01846 0
M  V30 1296 O 173.724 -4.30744 6.56026 0
M  V30 1297 O 173.761 -6.37042 5.19165 0
M  V30 1298 C 173.601 -7.83578 5.16515 0
M  V30 1299 C 174.141 -8.33398 3.83019 0
M  V30 1300 O 173.085 -8.10074 3.01034 0
M  V30 1301 C 175.359 -7.65514 3.2257 0
M  V30 1302 O 176.097 -8.4329 2.32297 0
M  V30 1303 C 174.69 -6.40075 2.62207 0
M  V30 1304 O 175.489 -5.92589 1.53712 0
M  V30 1305 C 173.353 -6.9454 2.18503 0
M  V30 1306 H 173.385 -7.23063 1.12091 0
M  V30 1307 H 174.568 -5.6025 3.37201 0
M  V30 1308 H 176.052 -7.35707 4.02681 0
M  V30 1309 H 174.358 -9.40912 3.9095 0
M  V30 1310 H 174.168 -8.29056 5.99158 0
M  V30 1311 H 172.538 -8.10073 5.25882 0
M  V30 1312 H 175.177 -6.30324 0.726794 0
M  V30 1313 P 177.034 -8.4349 2.47671 0
M  V30 1314 O 178.456 -8.94359 2.59696 0
M  V30 1315 O 176.674 -7.1704 3.19006 0
M  V30 1316 O 176.711 -8.16596 0.923387 0
M  V30 1317 C 176.551 -9.38437 0.108857 0
M  V30 1318 C 177.091 -9.08076 -1.28339 0
M  V30 1319 O 176.036 -8.44229 -1.84713 0
M  V30 1320 C 178.309 -8.18386 -1.42505 0
M  V30 1321 O 179.047 -8.3501 -2.60497 0
M  V30 1322 C 177.641 -6.80225 -1.25468 0
M  V30 1323 O 178.439 -5.81526 -1.91035 0
M  V30 1324 C 176.303 -7.02416 -1.9168 0
M  V30 1325 N 175.26 -6.31033 -1.20314 0
M  V30 1326 C 175.322 -6.18781 0.121293 0
M  V30 1327 N 174.277 -5.49762 0.588272 0
M  V30 1328 C 173.543 -5.22015 -0.488988 0
M  V30 1329 C 172.237 -4.61966 -0.596448 0
M  V30 1330 O 171.504 -4.19162 0.309059 0
M  V30 1331 N 171.807 -4.53773 -1.878 0
M  V30 1332 C 172.556 -4.99623 -2.99082 0
M  V30 1333 N 171.959 -4.78912 -4.21227 0
M  V30 1334 N 173.709 -5.59957 -2.91093 0
M  V30 1335 C 174.166 -5.70225 -1.64218 0
M  V30 1336 H 176.335 -6.6888 -2.96621 0
M  V30 1337 H 177.518 -6.53517 -0.192194 0
M  V30 1338 H 179.003 -8.36563 -0.598329 0
M  V30 1339 H 177.308 -10.0291 -1.79807 0
M  V30 1340 H 177.118 -10.2138 0.558219 0
M  V30 1341 H 175.487 -9.6579 0.0444202 0
M  V30 1342 H 170.911 -4.12883 -2.05283 0
M  V30 1343 H 176.118 -6.59596 0.745856 0
M  V30 1344 H 171.048 -4.31425 -4.2628 0
M  V30 1345 H 172.424 -5.11219 -5.07148 0
M  V30 1346 H 178.128 -5.69466 -2.79593 0
M  V30 1347 P 179.985 -8.4349 -2.47671 0
M  V30 1348 O 181.407 -8.92593 -2.65 0
M  V30 1349 O 179.625 -7.7568 -1.19296 0
M  V30 1350 O 179.662 -7.36886 -3.63805 0
M  V30 1351 C 179.502 -7.95349 -4.982 0
M  V30 1352 C 180.042 -6.94612 -5.98974 0
M  V30 1353 O 178.986 -6.10347 -6.11815 0
M  V30 1354 C 181.26 -6.11426 -5.62335 0
M  V30 1355 O 181.998 -5.6162 -6.70584 0
M  V30 1356 C 180.591 -5.04409 -4.73308 0
M  V30 1357 O 181.39 -3.85992 -4.75183 0
M  V30 1358 C 179.254 -4.8728 -5.41006 0
M  V30 1359 H 179.286 -4.02333 -6.11157 0
M  V30 1360 H 180.469 -5.39466 -3.69543 0
M  V30 1361 H 181.953 -6.71916 -5.01943 0
M  V30 1362 H 180.259 -7.4649 -6.93477 0
M  V30 1363 H 180.069 -8.89416 -5.05237 0
M  V30 1364 H 178.439 -8.14876 -5.18409 0
M  V30 1365 H 181.078 -3.27957 -5.4317 0
M  V30 1366 P 182.935 -5.75688 -6.64379 0
M  V30 1367 O 184.356 -6.07692 -7.0558 0
M  V30 1368 O 182.575 -5.88047 -5.19722 0
M  V30 1369 O 182.612 -4.2322 -7.04443 0
M  V30 1370 C 182.451 -3.99785 -8.49201 0
M  V30 1371 C 182.992 -2.60516 -8.79425 0
M  V30 1372 O 181.937 -1.82663 -8.44573 0
M  V30 1373 C 184.21 -2.10343 -8.03628 0
M  V30 1374 O 184.948 -1.09919 -8.67766 0
M  V30 1375 C 183.542 -1.68446 -6.70876 0
M  V30 1376 O 184.34 -0.684109 -6.08265 0
M  V30 1377 C 182.204 -1.17436 -7.18567 0
M  V30 1378 N 181.161 -1.52699 -6.23988 0
M  V30 1379 C 181.33 -2.578 -5.40574 0
M  V30 1380 N 180.303 -2.78966 -4.61193 0
M  V30 1381 C 179.418 -1.78725 -4.95769 0
M  V30 1382 C 178.151 -1.45727 -4.44207 0
M  V30 1383 N 177.586 -0.374977 -5.05812 0
M  V30 1384 C 178.188 0.345585 -6.05615 0
M  V30 1385 N 179.365 0.0787651 -6.56253 0
M  V30 1386 C 179.94 -1.00499 -5.96189 0
M  V30 1387 H 183.419 -2.53396 -6.02698 0
M  V30 1388 H 184.902 -2.93881 -7.85526 0
M  V30 1389 H 183.208 -2.52078 -9.87225 0
M  V30 1390 H 183.018 -4.75072 -9.05887 0
M  V30 1391 H 181.388 -4.05244 -8.76668 0
M  V30 1392 H 182.23 -3.18977 -5.3945 0
M  V30 1393 H 184.028 0.177619 -6.34151 0
M  V30 1394 P 185.886 -1.25109 -8.70152 0
M  V30 1395 O 187.308 -1.29744 -9.22016 0
M  V30 1396 O 185.526 -2.13714 -7.55141 0
M  V30 1397 O 185.563 0.248149 -8.21425 0
M  V30 1398 C 185.403 1.22779 -9.30434 0
M  V30 1399 C 185.943 2.56293 -8.80664 0
M  V30 1400 O 184.887 3.02979 -8.09349 0
M  V30 1401 C 187.161 2.57523 -7.89775 0
M  V30 1402 O 187.899 3.7668 -7.89438 0
M  V30 1403 C 186.492 2.20997 -6.55446 0
M  V30 1404 O 187.291 2.71895 -5.48509 0
M  V30 1405 C 185.155 2.89693 -6.67988 0
M  V30 1406 H 185.187 3.88793 -6.19859 0
M  V30 1407 H 186.37 1.12046 -6.44229 0
M  V30 1408 H 187.854 1.7746 -8.19711 0
M  V30 1409 H 186.16 3.20706 -9.67112 0
M  V30 1410 H 185.97 0.901032 -10.1892 0
M  V30 1411 H 184.34 1.33049 -9.56592 0
M  V30 1412 H 186.979 3.57847 -5.23962 0
M  V30 1413 P 188.836 3.65191 -7.99657 0
M  V30 1414 O 190.237 3.87414 -8.52829 0
M  V30 1415 O 188.458 2.26932 -7.566 0
M  V30 1416 O 188.513 4.64915 -6.77529 0
M  V30 1417 C 188.353 6.06319 -7.16352 0
M  V30 1418 C 188.893 6.91655 -6.02234 0
M  V30 1419 O 187.837 6.92369 -5.17005 0
M  V30 1420 C 190.11 6.43627 -5.25174 0
M  V30 1421 O 190.849 7.43686 -4.60469 0
M  V30 1422 C 189.443 5.40275 -4.31916 0
M  V30 1423 O 190.241 5.25193 -3.14386 0
M  V30 1424 C 188.105 6.04847 -4.05327 0
M  V30 1425 N 187.062 5.04166 -3.98114 0
M  V30 1426 C 186.027 5.2366 -3.09923 0
M  V30 1427 O 186.066 6.23355 -2.34204 0
M  V30 1428 N 185.015 4.34279 -3.05727 0
M  V30 1429 C 185.063 3.26317 -3.84756 0
M  V30 1430 C 186.159 3.02504 -4.72573 0
M  V30 1431 C 187.125 3.94493 -4.76618 0
M  V30 1432 H 188.137 6.62104 -3.11218 0
M  V30 1433 H 189.32 4.42969 -4.80867 0
M  V30 1434 H 190.804 5.93122 -5.93121 0
M  V30 1435 H 189.11 7.93295 -6.39407 0
M  V30 1436 H 188.919 6.26671 -8.0846 0
M  V30 1437 H 187.289 6.29036 -7.32728 0
M  V30 1438 H 186.207 2.12921 -5.34017 0
M  V30 1439 H 187.971 3.80658 -5.44176 0
M  V30 1440 H 190.025 5.93572 -2.52637 0
M  V30 1441 P 191.787 7.39546 -4.75277 0
M  V30 1442 O 193.209 7.84798 -5.01039 0
M  V30 1443 O 191.427 5.9812 -5.08098 0
M  V30 1444 O 191.464 7.57503 -3.1866 0
M  V30 1445 C 191.304 8.97357 -2.74833 0
M  V30 1446 C 191.844 9.07548 -1.32709 0
M  V30 1447 O 190.788 8.62072 -0.606159 0
M  V30 1448 C 193.062 8.25383 -0.938334 0
M  V30 1449 O 193.8 8.74577 0.146954 0
M  V30 1450 C 192.393 6.8802 -0.712559 0
M  V30 1451 O 193.192 6.1189 0.194655 0
M  V30 1452 C 191.056 7.27966 -0.139777 0
M  V30 1453 H 191.088 7.25354 0.961601 0
M  V30 1454 H 192.271 6.32557 -1.65702 0
M  V30 1455 H 193.755 8.19355 -1.79097 0
M  V30 1456 H 192.061 10.1294 -1.10029 0
M  V30 1457 H 191.871 9.64276 -3.41316 0
M  V30 1458 H 190.241 9.25417 -2.76357 0
M  V30 1459 H 192.88 6.25267 1.07847 0
M  V30 1460 P 194.738 8.791 1.12009e-13 0
M  V30 1461 O 196.16 9.31096 0.027933 0
M  V30 1462 O 194.378 7.77869 -1.04071 0
M  V30 1463 O 194.415 8.09533 1.41463 0
M  V30 1464 C 194.255 9.0349 2.53943 0
M  V30 1465 C 194.795 8.35226 3.79016 0
M  V30 1466 O 193.739 7.57992 4.15078 0
M  V30 1467 C 196.013 7.45087 3.67298 0
M  V30 1468 O 196.751 7.27796 4.85194 0
M  V30 1469 C 195.344 6.17323 3.12027 0
M  V30 1470 O 196.143 5.04231 3.47188 0
M  V30 1471 C 194.007 6.19961 3.81809 0
M  V30 1472 H 194.039 5.58218 4.73051 0
M  V30 1473 H 195.222 6.21726 2.02589 0
M  V30 1474 H 196.706 7.86112 2.9231 0
M  V30 1475 H 195.012 9.11627 4.55076 0
M  V30 1476 H 194.822 9.9573 2.34194 0
M  V30 1477 H 193.192 9.2792 2.67832 0
M  V30 1478 H 195.831 4.67702 4.28772 0
M  V30 1479 P 197.688 7.39546 4.75277 0
M  V30 1480 O 199.109 7.81861 5.05793 0
M  V30 1481 O 197.328 7.1065 3.32998 0
M  V30 1482 O 197.365 6.04542 5.56673 0
M  V30 1483 C 197.204 6.22839 7.02169 0
M  V30 1484 C 197.745 4.97725 7.70406 0
M  V30 1485 O 196.69 4.13208 7.58899 0
M  V30 1486 C 198.963 4.28231 7.11815 0
M  V30 1487 O 199.701 3.49945 8.01648 0
M  V30 1488 C 198.295 3.5063 5.96244 0
M  V30 1489 O 199.093 2.37008 5.64352 0
M  V30 1490 C 196.957 3.15122 6.56374 0
M  V30 1491 N 195.914 3.22311 5.55692 0
M  V30 1492 C 196.083 3.99655 4.46046 0
M  V30 1493 N 195.056 3.97599 3.63918 0
M  V30 1494 C 194.171 3.11159 4.25334 0
M  V30 1495 C 192.904 2.64972 3.85157 0
M  V30 1496 N 192.339 1.78482 4.74759 0
M  V30 1497 C 192.941 1.37463 5.90819 0
M  V30 1498 N 194.118 1.7733 6.31889 0
M  V30 1499 C 194.693 2.64393 5.43725 0
M  V30 1500 H 198.172 4.12931 5.06895 0
M  V30 1501 H 199.655 5.03285 6.70911 0
M  V30 1502 H 197.961 5.20001 8.76217 0
M  V30 1503 H 197.771 7.11046 7.35349 0
M  V30 1504 H 196.141 6.35815 7.26986 0
M  V30 1505 H 196.983 4.58037 4.27732 0
M  V30 1506 H 198.781 1.61619 6.13468 0
M  V30 1507 P 200.639 3.65191 7.99657 0
M  V30 1508 O 202.061 3.8425 8.48115 0
M  V30 1509 O 200.279 4.17805 6.64342 0
M  V30 1510 O 200.316 2.07613 7.95143 0
M  V30 1511 C 200.156 1.44328 9.27336 0
M  V30 1512 C 200.696 0.0220036 9.17197 0
M  V30 1513 O 199.64 -0.626867 8.61923 0
M  V30 1514 C 201.914 -0.24586 8.30336 0
M  V30 1515 O 202.652 -1.39011 8.63583 0
M  V30 1516 C 201.245 -0.273849 6.91158 0
M  V30 1517 O 202.044 -1.06348 6.02892 0
M  V30 1518 C 199.908 -0.897649 7.22545 0
M  V30 1519 H 199.94 -1.9841 7.04286 0
M  V30 1520 H 201.123 0.739928 6.497 0
M  V30 1521 H 202.607 0.60668 8.36503 0
M  V30 1522 H 200.913 -0.352479 10.1829 0
M  V30 1523 H 200.723 2.00611 10.0304 0
M  V30 1524 H 199.093 1.41843 9.55327 0
M  V30 1525 H 201.732 -1.95734 6.03555 0
M  V30 1526 P 203.589 -1.25109 8.70152 0
M  V30 1527 O 205.011 -1.35274 9.21221 0
M  V30 1528 O 203.229 -0.0769065 7.84762 0
M  V30 1529 O 203.266 -2.55232 7.81161 0
M  V30 1530 C 203.106 -3.79939 8.58154 0
M  V30 1531 C 203.646 -4.94023 7.72785 0
M  V30 1532 O 202.59 -5.18726 6.91205 0
M  V30 1533 C 204.864 -4.69597 6.85231 0
M  V30 1534 O 205.602 -5.83832 6.51337 0
M  V30 1535 C 204.195 -3.96706 5.66633 0
M  V30 1536 O 204.994 -4.15414 4.49689 0
M  V30 1537 C 202.858 -4.66153 5.59313 0
M  V30 1538 H 202.89 -5.47679 4.85214 0
M  V30 1539 H 204.073 -2.89008 5.86566 0
M  V30 1540 H 205.557 -4.0121 7.36511 0
M  V30 1541 H 203.863 -5.80182 8.37584 0
M  V30 1542 H 203.673 -3.73517 9.52265 0
M  V30 1543 H 202.043 -3.97163 8.80359 0
M  V30 1544 H 204.682 -4.90969 4.01921 0
M  V30 1545 P 206.54 -5.75688 6.64379 0
M  V30 1546 O 207.961 -6.11915 7.01921 0
M  V30 1547 O 206.18 -4.30744 6.56026 0
M  V30 1548 O 206.217 -6.37042 5.19165 0
M  V30 1549 C 206.056 -7.83662 5.1657 0
M  V30 1550 C 206.597 -8.33398 3.83019 0
M  V30 1551 O 205.542 -8.0998 3.00999 0
M  V30 1552 C 207.815 -7.65514 3.2257 0
M  V30 1553 O 208.553 -8.4329 2.32297 0
M  V30 1554 C 207.147 -6.40075 2.62207 0
M  V30 1555 O 207.945 -5.92338 1.5428 0
M  V30 1556 C 205.809 -6.9454 2.18503 0
M  V30 1557 N 204.766 -5.95905 2.39948 0
M  V30 1558 C 204.935 -4.98383 3.32108 0
M  V30 1559 N 203.908 -4.16798 3.41761 0
M  V30 1560 C 203.023 -4.65287 2.47461 0
M  V30 1561 C 201.756 -4.18946 2.07461 0
M  V30 1562 N 201.157 -3.09661 2.60717 0
M  V30 1563 N 201.191 -4.95327 1.09101 0
M  V30 1564 C 201.793 -6.04369 0.519812 0
M  V30 1565 N 202.97 -6.50694 0.855982 0
M  V30 1566 C 203.545 -5.75818 1.84322 0
M  V30 1567 H 205.841 -7.22964 1.12076 0
M  V30 1568 H 207.024 -5.60502 3.36589 0
M  V30 1569 H 208.507 -7.35707 4.02681 0
M  V30 1570 H 206.813 -9.41302 3.90009 0
M  V30 1571 H 206.623 -8.29056 5.99158 0
M  V30 1572 H 204.993 -8.10073 5.25882 0
M  V30 1573 H 201.257 -6.55843 -0.270373 0
M  V30 1574 H 205.835 -4.88564 3.92502 0
M  V30 1575 H 200.227 -2.80523 2.27218 0
M  V30 1576 H 201.631 -2.55848 3.34465 0
M  V30 1577 H 207.633 -6.30224 0.72668 0
M  V30 1578 P 209.49 -8.4349 2.47671 0
M  V30 1579 O 210.912 -8.94167 2.5964 0
M  V30 1580 O 209.13 -7.1704 3.19006 0
M  V30 1581 O 209.167 -8.16596 0.923387 0
M  V30 1582 C 209.007 -9.38437 0.108857 0
M  V30 1583 C 209.547 -9.08175 -1.28353 0
M  V30 1584 O 208.491 -8.44229 -1.84713 0
M  V30 1585 C 210.765 -8.18386 -1.42505 0
M  V30 1586 O 211.503 -8.3501 -2.60497 0
M  V30 1587 C 210.096 -6.80225 -1.25468 0
M  V30 1588 O 210.895 -5.81621 -1.91066 0
M  V30 1589 C 208.759 -7.02416 -1.9168 0
M  V30 1590 H 208.791 -6.6888 -2.96621 0
M  V30 1591 H 209.974 -6.53617 -0.192223 0
M  V30 1592 H 211.458 -8.36622 -0.589963 0
M  V30 1593 H 209.764 -10.0291 -1.79807 0
M  V30 1594 H 209.574 -10.2138 0.558219 0
M  V30 1595 H 207.944 -9.6579 0.0444202 0
M  V30 1596 H 210.583 -5.69556 -2.79637 0
M  V30 1597 P 212.441 -8.4349 -2.47671 0
M  V30 1598 O 213.862 -8.92689 -2.65029 0
M  V30 1599 O 212.081 -7.7568 -1.19296 0
M  V30 1600 O 212.118 -7.36886 -3.63805 0
M  V30 1601 C 211.957 -7.95433 -4.98253 0
M  V30 1602 C 212.498 -6.94612 -5.98974 0
M  V30 1603 O 211.443 -6.10277 -6.11744 0
M  V30 1604 C 213.716 -6.11426 -5.62335 0
M  V30 1605 O 214.454 -5.6162 -6.70584 0
M  V30 1606 C 213.048 -5.04409 -4.73308 0
M  V30 1607 O 213.846 -3.86404 -4.74719 0
M  V30 1608 C 211.71 -4.8728 -5.41006 0
M  V30 1609 N 210.667 -4.65812 -4.42377 0
M  V30 1610 C 210.836 -5.09132 -3.15382 0
M  V30 1611 N 209.809 -4.84021 -2.3716 0
M  V30 1612 C 208.924 -4.18386 -3.20441 0
M  V30 1613 C 207.657 -3.6275 -2.94905 0
M  V30 1614 N 207.092 -3.05008 -4.05243 0
M  V30 1615 C 207.694 -2.98348 -5.28159 0
M  V30 1616 N 208.871 -3.48171 -5.56333 0
M  V30 1617 C 209.446 -4.06869 -4.47212 0
M  V30 1618 H 212.925 -5.39013 -3.70026 0
M  V30 1619 H 214.408 -6.71916 -5.01943 0
M  V30 1620 H 212.714 -7.45796 -6.94223 0
M  V30 1621 H 212.524 -8.89416 -5.05237 0
M  V30 1622 H 210.894 -8.14876 -5.18409 0
M  V30 1623 H 211.736 -5.59989 -2.81362 0
M  V30 1624 H 213.534 -3.27906 -5.43085 0
M  V30 1625 P 215.392 -5.75688 -6.64379 0
M  V30 1626 O 216.814 -6.07627 -7.05504 0
M  V30 1627 O 215.032 -5.88047 -5.19722 0
M  V30 1628 O 215.069 -4.2322 -7.04443 0
M  V30 1629 C 214.909 -3.99743 -8.4911 0
M  V30 1630 C 215.449 -2.60516 -8.79425 0
M  V30 1631 O 214.393 -1.82684 -8.4467 0
M  V30 1632 C 216.667 -2.10343 -8.03628 0
M  V30 1633 O 217.405 -1.09919 -8.67766 0
M  V30 1634 C 215.998 -1.68446 -6.70876 0
M  V30 1635 O 216.797 -0.678137 -6.08433 0
M  V30 1636 C 214.661 -1.17436 -7.18567 0
M  V30 1637 H 214.693 -0.0804732 -7.31656 0
M  V30 1638 H 215.876 -2.54037 -6.02537 0
M  V30 1639 H 217.36 -2.93881 -7.85526 0
M  V30 1640 H 215.666 -2.53065 -9.86973 0
M  V30 1641 H 215.476 -4.75072 -9.05887 0
M  V30 1642 H 213.846 -4.05244 -8.76668 0
M  V30 1643 H 216.485 0.177647 -6.34251 0
M  V30 1644 P 218.342 -1.25109 -8.70152 0
M  V30 1645 O 219.764 -1.29744 -9.22016 0
M  V30 1646 O 217.982 -2.13714 -7.55141 0
M  V30 1647 O 218.019 0.248149 -8.21425 0
M  V30 1648 C 217.859 1.22779 -9.30434 0
M  V30 1649 C 218.399 2.56293 -8.80664 0
M  V30 1650 O 217.343 3.02979 -8.09349 0
M  V30 1651 C 219.617 2.57523 -7.89775 0
M  V30 1652 O 220.355 3.7668 -7.89438 0
M  V30 1653 C 218.948 2.20997 -6.55446 0
M  V30 1654 O 219.747 2.71895 -5.48509 0
M  V30 1655 C 217.611 2.89693 -6.67988 0
M  V30 1656 H 217.643 3.88793 -6.19859 0
M  V30 1657 H 218.826 1.12046 -6.44229 0
M  V30 1658 H 220.31 1.7746 -8.19711 0
M  V30 1659 H 218.616 3.20706 -9.67112 0
M  V30 1660 H 218.426 0.901032 -10.1892 0
M  V30 1661 H 216.796 1.33049 -9.56592 0
M  V30 1662 H 219.435 3.57847 -5.23962 0
M  V30 1663 P 221.293 3.65191 -7.99657 0
M  V30 1664 O 222.715 3.89332 -8.45794 0
M  V30 1665 O 220.933 2.28472 -7.50807 0
M  V30 1666 O 220.97 4.64972 -6.77611 0
M  V30 1667 C 220.81 6.06319 -7.16352 0
M  V30 1668 C 221.35 6.91731 -6.02299 0
M  V30 1669 O 220.294 6.92449 -5.17064 0
M  V30 1670 C 222.568 6.43627 -5.25174 0
M  V30 1671 O 223.306 7.43686 -4.60469 0
M  V30 1672 C 221.899 5.40275 -4.31916 0
M  V30 1673 O 222.698 5.25279 -3.14438 0
M  V30 1674 C 220.562 6.04847 -4.05327 0
M  V30 1675 H 220.594 6.62195 -3.11261 0
M  V30 1676 H 221.777 4.42556 -4.81383 0
M  V30 1677 H 223.261 5.92458 -5.93643 0
M  V30 1678 H 221.567 7.92655 -6.402 0
M  V30 1679 H 221.377 6.26671 -8.0846 0
M  V30 1680 H 219.747 6.29101 -7.32804 0
M  V30 1681 H 222.386 5.84315 -2.47318 0
M  V30 1682 P 224.243 7.39546 -4.75277 0
M  V30 1683 O 225.665 7.84798 -5.01039 0
M  V30 1684 O 223.883 5.9812 -5.08098 0
M  V30 1685 O 223.92 7.57503 -3.1866 0
M  V30 1686 C 223.76 8.97357 -2.74833 0
M  V30 1687 C 224.3 9.07548 -1.32709 0
M  V30 1688 O 223.244 8.62072 -0.606159 0
M  V30 1689 C 225.518 8.25383 -0.938334 0
M  V30 1690 O 226.256 8.74577 0.146954 0
M  V30 1691 C 224.849 6.8802 -0.712559 0
M  V30 1692 O 225.648 6.1189 0.194655 0
M  V30 1693 C 223.512 7.27966 -0.139777 0
M  V30 1694 H 223.544 7.25354 0.961601 0
M  V30 1695 H 224.727 6.32557 -1.65702 0
M  V30 1696 H 226.211 8.19355 -1.79097 0
M  V30 1697 H 224.517 10.1294 -1.10029 0
M  V30 1698 H 224.327 9.64276 -3.41316 0
M  V30 1699 H 222.697 9.25417 -2.76357 0
M  V30 1700 H 225.336 6.25267 1.07847 0
M  V30 1701 P 227.194 8.791 4.22174e-13 0
M  V30 1702 O 228.616 9.31096 0.027933 0
M  V30 1703 O 226.834 7.77869 -1.04071 0
M  V30 1704 O 226.871 8.09533 1.41463 0
M  V30 1705 C 226.711 9.0349 2.53943 0
M  V30 1706 C 227.251 8.35226 3.79016 0
M  V30 1707 O 226.195 7.57992 4.15078 0
M  V30 1708 C 228.469 7.45087 3.67298 0
M  V30 1709 O 229.207 7.27796 4.85194 0
M  V30 1710 C 227.8 6.17323 3.12027 0
M  V30 1711 O 228.599 5.04231 3.47188 0
M  V30 1712 C 226.463 6.19961 3.81809 0
M  V30 1713 H 226.495 5.58218 4.73051 0
M  V30 1714 H 227.678 6.21726 2.02589 0
M  V30 1715 H 229.162 7.86112 2.9231 0
M  V30 1716 H 227.468 9.11627 4.55076 0
M  V30 1717 H 227.278 9.9573 2.34194 0
M  V30 1718 H 225.648 9.2792 2.67832 0
M  V30 1719 H 228.287 4.67702 4.28772 0
M  V30 1720 P 230.144 7.39546 4.75277 0
M  V30 1721 O 231.566 7.81777 5.05738 0
M  V30 1722 O 229.784 7.1065 3.32998 0
M  V30 1723 O 229.821 6.04542 5.56673 0
M  V30 1724 C 229.661 6.22772 7.02095 0
M  V30 1725 C 230.201 4.97725 7.70406 0
M  V30 1726 O 229.145 4.13256 7.58987 0
M  V30 1727 C 231.419 4.28231 7.11815 0
M  V30 1728 O 232.157 3.49945 8.01648 0
M  V30 1729 C 230.75 3.5063 5.96244 0
M  V30 1730 O 231.549 2.36482 5.64681 0
M  V30 1731 C 229.413 3.15122 6.56374 0
M  V30 1732 H 229.445 2.13853 6.99751 0
M  V30 1733 H 230.628 4.13501 5.06559 0
M  V30 1734 H 232.112 5.03285 6.70911 0
M  V30 1735 H 230.418 5.20877 8.75697 0
M  V30 1736 H 230.228 7.11046 7.35349 0
M  V30 1737 H 228.598 6.35815 7.26986 0
M  V30 1738 H 231.237 1.61644 6.13565 0
M  V30 1739 P 233.095 3.65191 7.99657 0
M  V30 1740 O 234.517 3.8425 8.48115 0
M  V30 1741 O 232.735 4.17805 6.64342 0
M  V30 1742 O 232.772 2.07613 7.95143 0
M  V30 1743 C 232.612 1.44328 9.27336 0
M  V30 1744 C 233.152 0.0220036 9.17197 0
M  V30 1745 O 232.096 -0.626867 8.61923 0
M  V30 1746 C 234.37 -0.24586 8.30336 0
M  V30 1747 O 235.108 -1.39011 8.63583 0
M  V30 1748 C 233.701 -0.273849 6.91158 0
M  V30 1749 O 234.5 -1.06348 6.02892 0
M  V30 1750 C 232.364 -0.897649 7.22545 0
M  V30 1751 H 232.396 -1.9841 7.04286 0
M  V30 1752 H 233.579 0.739928 6.497 0
M  V30 1753 H 235.063 0.60668 8.36503 0
M  V30 1754 H 233.369 -0.352479 10.1829 0
M  V30 1755 H 233.179 2.00611 10.0304 0
M  V30 1756 H 231.549 1.41843 9.55327 0
M  V30 1757 H 234.188 -1.95734 6.03555 0
M  V30 1758 P 236.046 -1.25109 8.70152 0
M  V30 1759 O 237.468 -1.35274 9.21221 0
M  V30 1760 O 235.686 -0.0769065 7.84762 0
M  V30 1761 O 235.723 -2.55232 7.81161 0
M  V30 1762 C 235.563 -3.79939 8.58154 0
M  V30 1763 C 236.103 -4.94023 7.72785 0
M  V30 1764 O 235.047 -5.18726 6.91205 0
M  V30 1765 C 237.321 -4.69597 6.85231 0
M  V30 1766 O 238.059 -5.83832 6.51337 0
M  V30 1767 C 236.652 -3.96706 5.66633 0
M  V30 1768 O 237.451 -4.15414 4.49689 0
M  V30 1769 C 235.315 -4.66153 5.59313 0
M  V30 1770 H 235.347 -5.47679 4.85214 0
M  V30 1771 H 236.53 -2.89008 5.86566 0
M  V30 1772 H 238.014 -4.0121 7.36511 0
M  V30 1773 H 236.32 -5.80182 8.37584 0
M  V30 1774 H 236.13 -3.73517 9.52265 0
M  V30 1775 H 234.5 -3.97163 8.80359 0
M  V30 1776 H 237.139 -4.90969 4.01921 0
M  V30 1777 P 238.996 -5.75688 6.64379 0
M  V30 1778 O 240.417 -6.11915 7.01921 0
M  V30 1779 O 238.636 -4.30744 6.56026 0
M  V30 1780 O 238.673 -6.37042 5.19165 0
M  V30 1781 C 238.512 -7.83662 5.1657 0
M  V30 1782 C 239.053 -8.33398 3.83019 0
M  V30 1783 O 237.998 -8.0998 3.00999 0
M  V30 1784 C 240.271 -7.65514 3.2257 0
M  V30 1785 O 241.009 -8.4329 2.32297 0
M  V30 1786 C 239.603 -6.40075 2.62207 0
M  V30 1787 O 240.401 -5.92338 1.5428 0
M  V30 1788 C 238.265 -6.9454 2.18503 0
M  V30 1789 N 237.222 -5.95905 2.39948 0
M  V30 1790 C 237.391 -4.98383 3.32108 0
M  V30 1791 N 236.364 -4.16798 3.41761 0
M  V30 1792 C 235.479 -4.65287 2.47461 0
M  V30 1793 C 234.212 -4.18946 2.07461 0
M  V30 1794 N 233.647 -4.95327 1.09101 0
M  V30 1795 C 234.249 -6.04369 0.519812 0
M  V30 1796 N 235.426 -6.50694 0.855982 0
M  V30 1797 C 236.001 -5.75818 1.84322 0
M  V30 1798 H 239.48 -5.60502 3.36589 0
M  V30 1799 H 240.963 -7.35707 4.02681 0
M  V30 1800 H 239.269 -9.41302 3.90009 0
M  V30 1801 H 239.079 -8.29056 5.99158 0
M  V30 1802 H 237.449 -8.10073 5.25882 0
M  V30 1803 H 238.291 -4.88564 3.92502 0
M  V30 1804 H 240.089 -6.30224 0.72668 0
M  V30 1805 P 241.947 -8.4349 2.47671 0
M  V30 1806 O 243.348 -8.98227 2.65696 0
M  V30 1807 O 241.569 -7.20409 3.23964 0
M  V30 1808 O 241.624 -8.16496 0.923275 0
M  V30 1809 C 241.464 -9.38437 0.108857 0
M  V30 1810 C 242.004 -9.08076 -1.28339 0
M  V30 1811 O 240.948 -8.44131 -1.84692 0
M  V30 1812 C 243.221 -8.18386 -1.42505 0
M  V30 1813 O 243.96 -8.3501 -2.60497 0
M  V30 1814 C 242.554 -6.80225 -1.25468 0
M  V30 1815 O 243.352 -5.81526 -1.91035 0
M  V30 1816 C 241.216 -7.02416 -1.9168 0
M  V30 1817 N 240.173 -6.31033 -1.20314 0
M  V30 1818 C 239.138 -5.77149 -1.928 0
M  V30 1819 O 239.177 -5.8521 -3.17729 0
M  V30 1820 N 238.126 -5.15445 -1.27997 0
M  V30 1821 C 238.174 -5.04472 0.0534726 0
M  V30 1822 N 237.164 -4.44183 0.669496 0
M  V30 1823 C 239.27 -5.55244 0.808522 0
M  V30 1824 C 240.236 -6.18542 0.13981 0
M  V30 1825 H 241.248 -6.68789 -2.9658 0
M  V30 1826 H 242.431 -6.53498 -0.198729 0
M  V30 1827 H 243.915 -8.36663 -0.5984 0
M  V30 1828 H 242.221 -10.0273 -1.8081 0
M  V30 1829 H 242.03 -10.2138 0.558219 0
M  V30 1830 H 240.4 -9.6569 0.0444156 0
M  V30 1831 H 239.318 -5.43017 1.88792 0
M  V30 1832 H 241.082 -6.60539 0.686773 0
M  V30 1833 H 236.374 -4.07222 0.12057 0
M  V30 1834 H 237.169 -4.34288 1.69244 0
M  V30 1835 H 243.136 -5.79638 -2.8315 0
M  V30 1836 P 244.897 -8.4349 -2.47671 0
M  V30 1837 O 246.319 -8.92593 -2.65 0
M  V30 1838 O 244.537 -7.7568 -1.19296 0
M  V30 1839 O 244.574 -7.36886 -3.63805 0
M  V30 1840 C 244.414 -7.95349 -4.982 0
M  V30 1841 C 244.954 -6.94612 -5.98974 0
M  V30 1842 O 243.898 -6.10347 -6.11815 0
M  V30 1843 C 246.172 -6.11426 -5.62335 0
M  V30 1844 O 246.91 -5.6162 -6.70584 0
M  V30 1845 C 245.503 -5.04409 -4.73308 0
M  V30 1846 O 246.302 -3.85992 -4.75183 0
M  V30 1847 C 244.166 -4.8728 -5.41006 0
M  V30 1848 H 244.198 -4.02333 -6.11157 0
M  V30 1849 H 245.381 -5.39466 -3.69543 0
M  V30 1850 H 246.865 -6.71916 -5.01943 0
M  V30 1851 H 245.171 -7.4649 -6.93477 0
M  V30 1852 H 244.981 -8.89416 -5.05237 0
M  V30 1853 H 243.351 -8.14876 -5.18409 0
M  V30 1854 H 245.99 -3.27957 -5.4317 0
M  V30 1855 P 247.848 -5.75688 -6.64379 0
M  V30 1856 O 249.27 -6.07627 -7.05504 0
M  V30 1857 O 247.488 -5.88047 -5.19722 0
M  V30 1858 O 247.525 -4.2322 -7.04443 0
M  V30 1859 C 247.365 -3.99743 -8.4911 0
M  V30 1860 C 247.905 -2.60516 -8.79425 0
M  V30 1861 O 246.849 -1.82684 -8.4467 0
M  V30 1862 C 249.123 -2.10343 -8.03628 0
M  V30 1863 O 249.861 -1.09919 -8.67766 0
M  V30 1864 C 248.454 -1.68446 -6.70876 0
M  V30 1865 O 249.253 -0.678137 -6.08433 0
M  V30 1866 C 247.117 -1.17436 -7.18567 0
M  V30 1867 H 247.149 -0.0804732 -7.31656 0
M  V30 1868 H 248.332 -2.54037 -6.02537 0
M  V30 1869 H 249.816 -2.93881 -7.85526 0
M  V30 1870 H 248.122 -2.53065 -9.86973 0
M  V30 1871 H 247.932 -4.75072 -9.05887 0
M  V30 1872 H 246.302 -4.05244 -8.76668 0
M  V30 1873 H 248.941 0.177647 -6.34251 0
M  V30 1874 P 250.798 -1.25109 -8.70152 0
M  V30 1875 O 252.219 -1.29758 -9.22115 0
M  V30 1876 O 250.438 -2.13714 -7.55141 0
M  V30 1877 O 250.475 0.248149 -8.21425 0
M  V30 1878 C 250.314 1.22792 -9.30533 0
M  V30 1879 C 250.855 2.56293 -8.80664 0
M  V30 1880 O 249.8 3.02944 -8.09255 0
M  V30 1881 C 252.073 2.57523 -7.89775 0
M  V30 1882 O 252.811 3.7668 -7.89438 0
M  V30 1883 C 251.405 2.20997 -6.55446 0
M  V30 1884 O 252.203 2.71302 -5.48691 0
M  V30 1885 C 250.067 2.89693 -6.67988 0
M  V30 1886 N 249.024 2.08895 -6.07487 0
M  V30 1887 C 249.193 0.753809 -5.94137 0
M  V30 1888 N 248.166 0.146592 -5.38801 0
M  V30 1889 C 247.281 1.1768 -5.13693 0
M  V30 1890 C 246.014 1.17563 -4.52477 0
M  V30 1891 N 245.449 2.41918 -4.45789 0
M  V30 1892 C 246.051 3.56493 -4.90792 0
M  V30 1893 N 247.228 3.61423 -5.47817 0
M  V30 1894 C 247.803 2.37779 -5.5588 0
M  V30 1895 H 251.282 1.12673 -6.44018 0
M  V30 1896 H 252.765 1.7746 -8.19711 0
M  V30 1897 H 251.071 3.21673 -9.66791 0
M  V30 1898 H 250.881 0.901032 -10.1892 0
M  V30 1899 H 249.251 1.33049 -9.56592 0
M  V30 1900 H 250.093 0.233081 -6.26266 0
M  V30 1901 H 251.891 3.5779 -5.23879 0
M  V30 1902 P 253.749 3.65191 -7.99657 0
M  V30 1903 O 255.171 3.89332 -8.45794 0
M  V30 1904 O 253.389 2.28472 -7.50807 0
M  V30 1905 O 253.426 4.64972 -6.77611 0
M  V30 1906 C 253.266 6.06319 -7.16352 0
M  V30 1907 C 253.806 6.91731 -6.02299 0
M  V30 1908 O 252.75 6.92449 -5.17064 0
M  V30 1909 C 255.024 6.43627 -5.25174 0
M  V30 1910 O 255.762 7.43686 -4.60469 0
M  V30 1911 C 254.355 5.40275 -4.31916 0
M  V30 1912 O 255.154 5.25279 -3.14438 0
M  V30 1913 C 253.018 6.04847 -4.05327 0
M  V30 1914 H 253.05 6.62195 -3.11261 0
M  V30 1915 H 254.233 4.42556 -4.81383 0
M  V30 1916 H 255.717 5.92458 -5.93643 0
M  V30 1917 H 254.023 7.92655 -6.402 0
M  V30 1918 H 253.833 6.26671 -8.0846 0
M  V30 1919 H 252.203 6.29101 -7.32804 0
M  V30 1920 H 254.842 5.84315 -2.47318 0
M  V30 1921 P 256.7 7.39546 -4.75277 0
M  V30 1922 O 258.122 7.84966 -5.01146 0
M  V30 1923 O 256.34 5.9812 -5.08098 0
M  V30 1924 O 256.377 7.57503 -3.1866 0
M  V30 1925 C 256.217 8.97357 -2.74833 0
M  V30 1926 C 256.757 9.0745 -1.32694 0
M  V30 1927 O 255.702 8.62072 -0.606159 0
M  V30 1928 C 257.975 8.25383 -0.938334 0
M  V30 1929 O 258.713 8.74577 0.146954 0
M  V30 1930 C 257.307 6.8802 -0.712559 0
M  V30 1931 O 258.105 6.11791 0.194623 0
M  V30 1932 C 255.969 7.27966 -0.139777 0
M  V30 1933 N 254.926 6.39368 -0.623421 0
M  V30 1934 C 254.988 5.90299 -1.85969 0
M  V30 1935 N 253.943 5.10919 -2.1133 0
M  V30 1936 C 253.209 5.14646 -1.0015 0
M  V30 1937 C 251.903 4.60057 -0.729219 0
M  V30 1938 O 251.17 3.93476 -1.47746 0
M  V30 1939 N 251.473 4.88302 0.523505 0
M  V30 1940 C 252.222 5.63646 1.46207 0
M  V30 1941 N 251.625 5.78186 2.69239 0
M  V30 1942 N 253.375 6.19285 1.21544 0
M  V30 1943 C 253.832 5.93392 -0.0308487 0
M  V30 1944 H 256.001 7.25354 0.961601 0
M  V30 1945 H 257.184 6.3246 -1.65676 0
M  V30 1946 H 258.669 8.19533 -1.78278 0
M  V30 1947 H 256.974 10.1294 -1.10029 0
M  V30 1948 H 256.784 9.64276 -3.41316 0
M  V30 1949 H 255.153 9.25417 -2.76357 0
M  V30 1950 H 250.577 4.53993 0.806451 0
M  V30 1951 H 255.784 6.11865 -2.57394 0
M  V30 1952 H 250.714 5.34046 2.87467 0
M  V30 1953 H 252.09 6.33391 3.42578 0
M  V30 1954 H 257.794 6.25169 1.0783 0
M  V30 1955 P 259.65 8.791 7.3234e-13 0
M  V30 1956 O 261.071 9.31196 0.027936 0
M  V30 1957 O 259.29 7.77869 -1.04071 0
M  V30 1958 O 259.327 8.09533 1.41463 0
M  V30 1959 C 259.166 9.03587 2.5397 0
M  V30 1960 C 259.707 8.35226 3.79016 0
M  V30 1961 O 258.652 7.57904 4.1503 0
M  V30 1962 C 260.925 7.45087 3.67298 0
M  V30 1963 O 261.663 7.27796 4.85194 0
M  V30 1964 C 260.257 6.17323 3.12027 0
M  V30 1965 O 261.055 5.04496 3.46627 0
M  V30 1966 C 258.919 6.19961 3.81809 0
M  V30 1967 N 257.876 5.71575 2.93223 0
M  V30 1968 C 258.045 5.77362 1.59168 0
M  V30 1969 N 257.018 5.3123 0.911893 0
M  V30 1970 C 256.133 4.91717 1.89588 0
M  V30 1971 C 254.866 4.3114 1.8076 0
M  V30 1972 N 254.267 3.99821 0.632928 0
M  V30 1973 N 254.301 4.06823 3.02898 0
M  V30 1974 C 254.903 4.35062 4.22711 0
M  V30 1975 N 256.08 4.90805 4.35707 0
M  V30 1976 C 256.655 5.16382 3.14469 0
M  V30 1977 H 258.951 5.58142 4.72986 0
M  V30 1978 H 260.134 6.21428 2.0318 0
M  V30 1979 H 261.617 7.86112 2.9231 0
M  V30 1980 H 259.923 9.11171 4.55987 0
M  V30 1981 H 259.733 9.9573 2.34194 0
M  V30 1982 H 258.103 9.2792 2.67832 0
M  V30 1983 H 254.367 4.09052 5.13359 0
M  V30 1984 H 258.945 6.16575 1.12198 0
M  V30 1985 H 253.337 3.55423 0.632085 0
M  V30 1986 H 254.741 4.20317 -0.256712 0
M  V30 1987 H 260.743 4.67628 4.28704 0
M  V30 1988 P 262.601 7.39546 4.75277 0
M  V30 1989 O 264.023 7.81777 5.05738 0
M  V30 1990 O 262.241 7.1065 3.32998 0
M  V30 1991 O 262.278 6.04542 5.56673 0
M  V30 1992 C 262.118 6.22772 7.02095 0
M  V30 1993 C 262.658 4.97725 7.70406 0
M  V30 1994 O 261.602 4.13256 7.58987 0
M  V30 1995 C 263.876 4.28231 7.11815 0
M  V30 1996 O 264.614 3.49945 8.01648 0
M  V30 1997 C 263.207 3.5063 5.96244 0
M  V30 1998 O 264.006 2.36482 5.64681 0
M  V30 1999 C 261.87 3.15122 6.56374 0
M  V30 2000 H 261.902 2.13853 6.99751 0
M  V30 2001 H 263.085 4.13501 5.06559 0
M  V30 2002 H 264.569 5.03285 6.70911 0
M  V30 2003 H 262.875 5.20877 8.75697 0
M  V30 2004 H 262.685 7.11046 7.35349 0
M  V30 2005 H 261.055 6.35815 7.26986 0
M  V30 2006 H 263.694 1.61644 6.13565 0
M  V30 2007 P 265.551 3.65191 7.99657 0
M  V30 2008 O 266.973 3.8425 8.48115 0
M  V30 2009 O 265.191 4.17805 6.64342 0
M  V30 2010 O 265.228 2.07613 7.95143 0
M  V30 2011 C 265.068 1.44328 9.27336 0
M  V30 2012 C 265.608 0.0220036 9.17197 0
M  V30 2013 O 264.552 -0.626867 8.61923 0
M  V30 2014 C 266.826 -0.24586 8.30336 0
M  V30 2015 O 267.564 -1.39011 8.63583 0
M  V30 2016 C 266.157 -0.273849 6.91158 0
M  V30 2017 O 266.956 -1.06348 6.02892 0
M  V30 2018 C 264.82 -0.897649 7.22545 0
M  V30 2019 H 264.852 -1.9841 7.04286 0
M  V30 2020 H 266.035 0.739928 6.497 0
M  V30 2021 H 267.519 0.60668 8.36503 0
M  V30 2022 H 265.825 -0.352479 10.1829 0
M  V30 2023 H 265.635 2.00611 10.0304 0
M  V30 2024 H 264.005 1.41843 9.55327 0
M  V30 2025 H 266.644 -1.95734 6.03555 0
M  V30 2026 P 268.502 -1.25109 8.70152 0
M  V30 2027 O 269.924 -1.35274 9.21221 0
M  V30 2028 O 268.142 -0.0769065 7.84762 0
M  V30 2029 O 268.179 -2.55232 7.81161 0
M  V30 2030 C 268.019 -3.79939 8.58154 0
M  V30 2031 C 268.559 -4.94023 7.72785 0
M  V30 2032 O 267.503 -5.18726 6.91205 0
M  V30 2033 C 269.777 -4.69597 6.85231 0
M  V30 2034 O 270.515 -5.83832 6.51337 0
M  V30 2035 C 269.108 -3.96706 5.66633 0
M  V30 2036 O 269.907 -4.15414 4.49689 0
M  V30 2037 C 267.771 -4.66153 5.59313 0
M  V30 2038 H 267.803 -5.47679 4.85214 0
M  V30 2039 H 268.986 -2.89008 5.86566 0
M  V30 2040 H 270.47 -4.0121 7.36511 0
M  V30 2041 H 268.776 -5.80182 8.37584 0
M  V30 2042 H 268.586 -3.73517 9.52265 0
M  V30 2043 H 266.956 -3.97163 8.80359 0
M  V30 2044 H 269.595 -4.90969 4.01921 0
M  V30 2045 P 271.452 -5.75688 6.64379 0
M  V30 2046 O 272.874 -6.11849 7.01846 0
M  V30 2047 O 271.092 -4.30744 6.56026 0
M  V30 2048 O 271.129 -6.37042 5.19165 0
M  V30 2049 C 270.969 -7.83578 5.16515 0
M  V30 2050 C 271.509 -8.33398 3.83019 0
M  V30 2051 O 270.453 -8.10074 3.01034 0
M  V30 2052 C 272.727 -7.65514 3.2257 0
M  V30 2053 O 273.465 -8.4329 2.32297 0
M  V30 2054 C 272.058 -6.40075 2.62207 0
M  V30 2055 O 272.857 -5.92589 1.53712 0
M  V30 2056 C 270.721 -6.9454 2.18503 0
M  V30 2057 H 270.753 -7.23063 1.12091 0
M  V30 2058 H 271.936 -5.6025 3.37201 0
M  V30 2059 H 273.42 -7.35707 4.02681 0
M  V30 2060 H 271.726 -9.40912 3.9095 0
M  V30 2061 H 271.536 -8.29056 5.99158 0
M  V30 2062 H 269.906 -8.10073 5.25882 0
M  V30 2063 H 272.545 -6.30324 0.726794 0
M  V30 2064 P 274.403 -8.4349 2.47671 0
M  V30 2065 O 275.825 -8.94167 2.5964 0
M  V30 2066 O 274.043 -7.1704 3.19006 0
M  V30 2067 O 274.08 -8.16596 0.923387 0
M  V30 2068 C 273.92 -9.38437 0.108857 0
M  V30 2069 C 274.46 -9.08175 -1.28353 0
M  V30 2070 O 273.404 -8.44229 -1.84713 0
M  V30 2071 C 275.678 -8.18386 -1.42505 0
M  V30 2072 O 276.416 -8.3501 -2.60497 0
M  V30 2073 C 275.009 -6.80225 -1.25468 0
M  V30 2074 O 275.808 -5.81621 -1.91066 0
M  V30 2075 C 273.672 -7.02416 -1.9168 0
M  V30 2076 H 273.704 -6.6888 -2.96621 0
M  V30 2077 H 274.887 -6.53617 -0.192223 0
M  V30 2078 H 276.371 -8.36622 -0.589963 0
M  V30 2079 H 274.677 -10.0291 -1.79807 0
M  V30 2080 H 274.487 -10.2138 0.558219 0
M  V30 2081 H 272.857 -9.6579 0.0444202 0
M  V30 2082 H 275.496 -5.69556 -2.79637 0
M  V30 2083 P 277.354 -8.4349 -2.47671 0
M  V30 2084 O 278.776 -8.92593 -2.65 0
M  V30 2085 O 276.994 -7.7568 -1.19296 0
M  V30 2086 O 277.031 -7.36886 -3.63805 0
M  V30 2087 C 276.871 -7.95349 -4.982 0
M  V30 2088 C 277.411 -6.94612 -5.98974 0
M  V30 2089 O 276.355 -6.10347 -6.11815 0
M  V30 2090 C 278.629 -6.11426 -5.62335 0
M  V30 2091 O 279.367 -5.6162 -6.70584 0
M  V30 2092 C 277.96 -5.04409 -4.73308 0
M  V30 2093 O 278.759 -3.85992 -4.75183 0
M  V30 2094 C 276.623 -4.8728 -5.41006 0
M  V30 2095 H 276.655 -4.02333 -6.11157 0
M  V30 2096 H 277.838 -5.39466 -3.69543 0
M  V30 2097 H 279.322 -6.71916 -5.01943 0
M  V30 2098 H 277.628 -7.4649 -6.93477 0
M  V30 2099 H 277.438 -8.89416 -5.05237 0
M  V30 2100 H 275.808 -8.14876 -5.18409 0
M  V30 2101 H 278.447 -3.27957 -5.4317 0
M  V30 2102 P 280.304 -5.75688 -6.64379 0
M  V30 2103 O 281.726 -6.07627 -7.05504 0
M  V30 2104 O 279.944 -5.88047 -5.19722 0
M  V30 2105 O 279.981 -4.2322 -7.04443 0
M  V30 2106 C 279.821 -3.99743 -8.4911 0
M  V30 2107 C 280.361 -2.60516 -8.79425 0
M  V30 2108 O 279.305 -1.82684 -8.4467 0
M  V30 2109 C 281.579 -2.10343 -8.03628 0
M  V30 2110 O 282.317 -1.09919 -8.67766 0
M  V30 2111 C 280.91 -1.68446 -6.70876 0
M  V30 2112 O 281.709 -0.678137 -6.08433 0
M  V30 2113 C 279.573 -1.17436 -7.18567 0
M  V30 2114 H 279.605 -0.0804732 -7.31656 0
M  V30 2115 H 280.788 -2.54037 -6.02537 0
M  V30 2116 H 282.272 -2.93881 -7.85526 0
M  V30 2117 H 280.578 -2.53065 -9.86973 0
M  V30 2118 H 280.388 -4.75072 -9.05887 0
M  V30 2119 H 278.758 -4.05244 -8.76668 0
M  V30 2120 H 281.397 0.177647 -6.34251 0
M  V30 2121 P 283.255 -1.25109 -8.70152 0
M  V30 2122 O 284.677 -1.29744 -9.22016 0
M  V30 2123 O 282.895 -2.13714 -7.55141 0
M  V30 2124 O 282.932 0.248149 -8.21425 0
M  V30 2125 C 282.772 1.22779 -9.30434 0
M  V30 2126 C 283.312 2.56293 -8.80664 0
M  V30 2127 O 282.256 3.02979 -8.09349 0
M  V30 2128 C 284.53 2.57523 -7.89775 0
M  V30 2129 O 285.268 3.7668 -7.89438 0
M  V30 2130 C 283.861 2.20997 -6.55446 0
M  V30 2131 O 284.66 2.71895 -5.48509 0
M  V30 2132 C 282.524 2.89693 -6.67988 0
M  V30 2133 H 282.556 3.88793 -6.19859 0
M  V30 2134 H 283.739 1.12046 -6.44229 0
M  V30 2135 H 285.223 1.7746 -8.19711 0
M  V30 2136 H 283.529 3.20706 -9.67112 0
M  V30 2137 H 283.339 0.901032 -10.1892 0
M  V30 2138 H 281.709 1.33049 -9.56592 0
M  V30 2139 H 284.348 3.57847 -5.23962 0
M  V30 2140 P 286.205 3.65191 -7.99657 0
M  V30 2141 O 287.627 3.89332 -8.45794 0
M  V30 2142 O 285.845 2.28472 -7.50807 0
M  V30 2143 O 285.882 4.64972 -6.77611 0
M  V30 2144 C 285.722 6.06319 -7.16352 0
M  V30 2145 C 286.262 6.91731 -6.02299 0
M  V30 2146 O 285.206 6.92449 -5.17064 0
M  V30 2147 C 287.48 6.43627 -5.25174 0
M  V30 2148 O 288.218 7.43686 -4.60469 0
M  V30 2149 C 286.811 5.40275 -4.31916 0
M  V30 2150 O 287.61 5.25279 -3.14438 0
M  V30 2151 C 285.474 6.04847 -4.05327 0
M  V30 2152 H 285.506 6.62195 -3.11261 0
M  V30 2153 H 286.689 4.42556 -4.81383 0
M  V30 2154 H 288.173 5.92458 -5.93643 0
M  V30 2155 H 286.479 7.92655 -6.402 0
M  V30 2156 H 286.289 6.26671 -8.0846 0
M  V30 2157 H 284.659 6.29101 -7.32804 0
M  V30 2158 H 287.298 5.84315 -2.47318 0
M  V30 2159 P 289.156 7.39546 -4.75277 0
M  V30 2160 O 290.578 7.84798 -5.01039 0
M  V30 2161 O 288.796 5.9812 -5.08098 0
M  V30 2162 O 288.833 7.57503 -3.1866 0
M  V30 2163 C 288.673 8.97357 -2.74833 0
M  V30 2164 C 289.213 9.07548 -1.32709 0
M  V30 2165 O 288.157 8.62072 -0.606159 0
M  V30 2166 C 290.431 8.25383 -0.938334 0
M  V30 2167 O 291.169 8.74577 0.146954 0
M  V30 2168 C 289.762 6.8802 -0.712559 0
M  V30 2169 O 290.561 6.1189 0.194655 0
M  V30 2170 C 288.425 7.27966 -0.139777 0
M  V30 2171 H 288.457 7.25354 0.961601 0
M  V30 2172 H 289.64 6.32557 -1.65702 0
M  V30 2173 H 291.124 8.19355 -1.79097 0
M  V30 2174 H 289.43 10.1294 -1.10029 0
M  V30 2175 H 289.24 9.64276 -3.41316 0
M  V30 2176 H 287.61 9.25417 -2.76357 0
M  V30 2177 H 290.249 6.25267 1.07847 0
M  V30 2178 P 292.106 8.791 1.04251e-12 0
M  V30 2179 O 293.528 9.31096 0.027933 0
M  V30 2180 O 291.746 7.77869 -1.04071 0
M  V30 2181 O 291.783 8.09533 1.41463 0
M  V30 2182 C 291.623 9.0349 2.53943 0
M  V30 2183 C 292.163 8.35226 3.79016 0
M  V30 2184 O 291.107 7.57992 4.15078 0
M  V30 2185 C 293.381 7.45087 3.67298 0
M  V30 2186 O 294.119 7.27796 4.85194 0
M  V30 2187 C 292.712 6.17323 3.12027 0
M  V30 2188 O 293.511 5.04231 3.47188 0
M  V30 2189 C 291.375 6.19961 3.81809 0
M  V30 2190 H 291.407 5.58218 4.73051 0
M  V30 2191 H 292.59 6.21726 2.02589 0
M  V30 2192 H 294.074 7.86112 2.9231 0
M  V30 2193 H 292.38 9.11627 4.55076 0
M  V30 2194 H 292.19 9.9573 2.34194 0
M  V30 2195 H 290.56 9.2792 2.67832 0
M  V30 2196 H 293.199 4.67702 4.28772 0
M  V30 2197 P 295.057 7.39546 4.75277 0
M  V30 2198 O 296.479 7.81777 5.05738 0
M  V30 2199 O 294.697 7.1065 3.32998 0
M  V30 2200 O 294.734 6.04542 5.56673 0
M  V30 2201 C 294.574 6.22772 7.02095 0
M  V30 2202 C 295.114 4.97725 7.70406 0
M  V30 2203 O 294.058 4.13256 7.58987 0
M  V30 2204 C 296.332 4.28231 7.11815 0
M  V30 2205 O 297.07 3.49945 8.01648 0
M  V30 2206 C 295.663 3.5063 5.96244 0
M  V30 2207 O 296.462 2.36482 5.64681 0
M  V30 2208 C 294.326 3.15122 6.56374 0
M  V30 2209 H 294.358 2.13853 6.99751 0
M  V30 2210 H 295.541 4.13501 5.06559 0
M  V30 2211 H 297.025 5.03285 6.70911 0
M  V30 2212 H 295.331 5.20877 8.75697 0
M  V30 2213 H 295.141 7.11046 7.35349 0
M  V30 2214 H 293.511 6.35815 7.26986 0
M  V30 2215 H 296.15 1.61644 6.13565 0
M  V30 2216 P 298.008 3.65191 7.99657 0
M  V30 2217 O 299.43 3.8425 8.48115 0
M  V30 2218 O 297.648 4.17805 6.64342 0
M  V30 2219 O 297.685 2.07613 7.95143 0
M  V30 2220 C 297.525 1.44328 9.27336 0
M  V30 2221 C 298.065 0.0220036 9.17197 0
M  V30 2222 O 297.009 -0.626867 8.61923 0
M  V30 2223 C 299.283 -0.24586 8.30336 0
M  V30 2224 O 300.021 -1.39011 8.63583 0
M  V30 2225 C 298.614 -0.273849 6.91158 0
M  V30 2226 O 299.413 -1.06348 6.02892 0
M  V30 2227 C 297.277 -0.897649 7.22545 0
M  V30 2228 H 297.309 -1.9841 7.04286 0
M  V30 2229 H 298.492 0.739928 6.497 0
M  V30 2230 H 299.976 0.60668 8.36503 0
M  V30 2231 H 298.282 -0.352479 10.1829 0
M  V30 2232 H 298.092 2.00611 10.0304 0
M  V30 2233 H 296.462 1.41843 9.55327 0
M  V30 2234 H 299.101 -1.95734 6.03555 0
M  V30 2235 P 300.958 -1.25109 8.70152 0
M  V30 2236 O 302.38 -1.35274 9.21221 0
M  V30 2237 O 300.598 -0.0769065 7.84762 0
M  V30 2238 O 300.635 -2.55232 7.81161 0
M  V30 2239 C 300.475 -3.79939 8.58154 0
M  V30 2240 C 301.015 -4.94023 7.72785 0
M  V30 2241 O 299.959 -5.18726 6.91205 0
M  V30 2242 C 302.233 -4.69597 6.85231 0
M  V30 2243 O 302.971 -5.83832 6.51337 0
M  V30 2244 C 301.564 -3.96706 5.66633 0
M  V30 2245 O 302.363 -4.15414 4.49689 0
M  V30 2246 C 300.227 -4.66153 5.59313 0
M  V30 2247 H 300.259 -5.47679 4.85214 0
M  V30 2248 H 301.442 -2.89008 5.86566 0
M  V30 2249 H 302.926 -4.0121 7.36511 0
M  V30 2250 H 301.232 -5.80182 8.37584 0
M  V30 2251 H 301.042 -3.73517 9.52265 0
M  V30 2252 H 299.412 -3.97163 8.80359 0
M  V30 2253 H 302.051 -4.90969 4.01921 0
M  V30 2254 P 303.909 -5.75688 6.64379 0
M  V30 2255 O 305.331 -6.11849 7.01846 0
M  V30 2256 O 303.549 -4.30744 6.56026 0
M  V30 2257 O 303.586 -6.37042 5.19165 0
M  V30 2258 C 303.426 -7.83578 5.16515 0
M  V30 2259 C 303.966 -8.33398 3.83019 0
M  V30 2260 O 302.91 -8.10074 3.01034 0
M  V30 2261 C 305.184 -7.65514 3.2257 0
M  V30 2262 O 305.922 -8.4329 2.32297 0
M  V30 2263 C 304.515 -6.40075 2.62207 0
M  V30 2264 O 305.314 -5.92589 1.53712 0
M  V30 2265 C 303.178 -6.9454 2.18503 0
M  V30 2266 H 303.21 -7.23063 1.12091 0
M  V30 2267 H 304.393 -5.6025 3.37201 0
M  V30 2268 H 305.877 -7.35707 4.02681 0
M  V30 2269 H 304.183 -9.40912 3.9095 0
M  V30 2270 H 303.993 -8.29056 5.99158 0
M  V30 2271 H 302.363 -8.10073 5.25882 0
M  V30 2272 H 305.002 -6.30324 0.726794 0
M  V30 2273 P 306.859 -8.4349 2.47671 0
M  V30 2274 O 308.281 -8.94359 2.59696 0
M  V30 2275 O 306.499 -7.1704 3.19006 0
M  V30 2276 O 306.536 -8.16596 0.923387 0
M  V30 2277 C 306.376 -9.38437 0.108857 0
M  V30 2278 C 306.916 -9.08076 -1.28339 0
M  V30 2279 O 305.861 -8.44229 -1.84713 0
M  V30 2280 C 308.134 -8.18386 -1.42505 0
M  V30 2281 O 308.872 -8.3501 -2.60497 0
M  V30 2282 C 307.466 -6.80225 -1.25468 0
M  V30 2283 O 308.264 -5.81526 -1.91035 0
M  V30 2284 C 306.128 -7.02416 -1.9168 0
M  V30 2285 N 305.085 -6.31033 -1.20314 0
M  V30 2286 C 305.147 -6.18781 0.121293 0
M  V30 2287 N 304.102 -5.49762 0.588272 0
M  V30 2288 C 303.368 -5.22015 -0.488988 0
M  V30 2289 C 302.062 -4.61966 -0.596448 0
M  V30 2290 O 301.329 -4.19162 0.309059 0
M  V30 2291 N 301.632 -4.53773 -1.878 0
M  V30 2292 C 302.381 -4.99623 -2.99082 0
M  V30 2293 N 301.784 -4.78912 -4.21227 0
M  V30 2294 N 303.534 -5.59957 -2.91093 0
M  V30 2295 C 303.991 -5.70225 -1.64218 0
M  V30 2296 H 306.16 -6.6888 -2.96621 0
M  V30 2297 H 307.343 -6.53517 -0.192194 0
M  V30 2298 H 308.828 -8.36563 -0.598329 0
M  V30 2299 H 307.133 -10.0291 -1.79807 0
M  V30 2300 H 306.943 -10.2138 0.558219 0
M  V30 2301 H 305.312 -9.6579 0.0444202 0
M  V30 2302 H 300.736 -4.12883 -2.05283 0
M  V30 2303 H 305.943 -6.59596 0.745856 0
M  V30 2304 H 300.873 -4.31425 -4.2628 0
M  V30 2305 H 302.249 -5.11219 -5.07148 0
M  V30 2306 H 307.953 -5.69466 -2.79593 0
M  V30 2307 P 309.81 -8.4349 -2.47671 0
M  V30 2308 O 311.232 -8.92593 -2.65 0
M  V30 2309 O 309.45 -7.7568 -1.19296 0
M  V30 2310 O 309.487 -7.36886 -3.63805 0
M  V30 2311 C 309.327 -7.95349 -4.982 0
M  V30 2312 C 309.867 -6.94612 -5.98974 0
M  V30 2313 O 308.811 -6.10347 -6.11815 0
M  V30 2314 C 311.085 -6.11426 -5.62335 0
M  V30 2315 O 311.823 -5.6162 -6.70584 0
M  V30 2316 C 310.416 -5.04409 -4.73308 0
M  V30 2317 O 311.215 -3.85992 -4.75183 0
M  V30 2318 C 309.079 -4.8728 -5.41006 0
M  V30 2319 H 309.111 -4.02333 -6.11157 0
M  V30 2320 H 310.294 -5.39466 -3.69543 0
M  V30 2321 H 311.778 -6.71916 -5.01943 0
M  V30 2322 H 310.084 -7.4649 -6.93477 0
M  V30 2323 H 309.894 -8.89416 -5.05237 0
M  V30 2324 H 308.264 -8.14876 -5.18409 0
M  V30 2325 H 310.903 -3.27957 -5.4317 0
M  V30 2326 P 312.76 -5.75688 -6.64379 0
M  V30 2327 O 314.161 -6.14823 -7.06682 0
M  V30 2328 O 312.382 -5.93957 -5.20728 0
M  V30 2329 O 312.437 -4.23169 -7.04357 0
M  V30 2330 C 312.277 -3.99743 -8.4911 0
M  V30 2331 C 312.817 -2.60487 -8.79329 0
M  V30 2332 O 311.761 -1.82663 -8.44573 0
M  V30 2333 C 314.034 -2.10343 -8.03628 0
M  V30 2334 O 314.773 -1.09919 -8.67766 0
M  V30 2335 C 313.367 -1.68446 -6.70876 0
M  V30 2336 O 314.165 -0.678026 -6.08333 0
M  V30 2337 C 312.029 -1.17436 -7.18567 0
M  V30 2338 N 310.986 -1.52699 -6.23988 0
M  V30 2339 C 309.951 -0.643793 -6.05085 0
M  V30 2340 O 309.99 0.459118 -6.64315 0
M  V30 2341 N 308.939 -0.976931 -5.22038 0
M  V30 2342 C 308.987 -2.14429 -4.56662 0
M  V30 2343 C 310.083 -3.04203 -4.71481 0
M  V30 2344 C 311.049 -2.69669 -5.56838 0
M  V30 2345 H 312.061 -0.0804622 -7.31556 0
M  V30 2346 H 313.244 -2.53396 -6.02698 0
M  V30 2347 H 314.728 -2.9313 -7.85914 0
M  V30 2348 H 313.034 -2.52078 -9.87225 0
M  V30 2349 H 312.843 -4.75072 -9.05887 0
M  V30 2350 H 311.213 -4.05202 -8.76577 0
M  V30 2351 H 310.131 -3.97309 -4.15519 0
M  V30 2352 H 311.895 -3.36869 -5.72318 0
M  V30 2353 H 313.949 0.167718 -6.44882 0
M  V30 2354 P 315.711 -1.25109 -8.70152 0
M  V30 2355 O 317.133 -1.29772 -9.22214 0
M  V30 2356 O 315.351 -2.13714 -7.55141 0
M  V30 2357 O 315.388 0.248149 -8.21425 0
M  V30 2358 C 315.228 1.22779 -9.30434 0
M  V30 2359 C 315.768 2.56265 -8.80568 0
M  V30 2360 O 314.713 3.02979 -8.09349 0
M  V30 2361 C 316.986 2.57523 -7.89775 0
M  V30 2362 O 317.724 3.7668 -7.89438 0
M  V30 2363 C 316.318 2.20997 -6.55446 0
M  V30 2364 O 317.116 2.71851 -5.48419 0
M  V30 2365 C 314.98 2.89693 -6.67988 0
M  V30 2366 N 313.937 2.08895 -6.07487 0
M  V30 2367 C 313.999 0.760559 -6.14209 0
M  V30 2368 N 312.954 0.200108 -5.52538 0
M  V30 2369 C 312.22 1.22692 -5.09742 0
M  V30 2370 C 310.914 1.24782 -4.48775 0
M  V30 2371 O 310.181 0.290617 -4.19294 0
M  V30 2372 N 310.484 2.50468 -4.22428 0
M  V30 2373 C 311.233 3.67142 -4.51974 0
M  V30 2374 N 310.636 4.85096 -4.14091 0
M  V30 2375 N 312.386 3.67821 -5.12831 0
M  V30 2376 C 312.843 2.43698 -5.4105 0
M  V30 2377 H 315.012 3.88793 -6.19859 0
M  V30 2378 H 316.195 1.12029 -6.4413 0
M  V30 2379 H 317.68 1.78279 -8.19533 0
M  V30 2380 H 315.985 3.20706 -9.67112 0
M  V30 2381 H 315.795 0.901032 -10.1892 0
M  V30 2382 H 314.164 1.33049 -9.56592 0
M  V30 2383 H 309.588 2.61953 -3.79465 0
M  V30 2384 H 314.795 0.200439 -6.63497 0
M  V30 2385 H 309.725 4.8334 -3.66367 0
M  V30 2386 H 311.101 5.7474 -4.33841 0
M  V30 2387 H 316.805 3.5779 -5.23879 0
M  V30 2388 P 318.662 3.65191 -7.99657 0
M  V30 2389 O 320.084 3.89332 -8.45794 0
M  V30 2390 O 318.302 2.28472 -7.50807 0
M  V30 2391 O 318.339 4.64972 -6.77611 0
M  V30 2392 C 318.179 6.06319 -7.16352 0
M  V30 2393 C 318.719 6.91731 -6.02299 0
M  V30 2394 O 317.663 6.92449 -5.17064 0
M  V30 2395 C 319.937 6.43627 -5.25174 0
M  V30 2396 O 320.675 7.43686 -4.60469 0
M  V30 2397 C 319.268 5.40275 -4.31916 0
M  V30 2398 O 320.067 5.25279 -3.14438 0
M  V30 2399 C 317.931 6.04847 -4.05327 0
M  V30 2400 H 317.963 6.62195 -3.11261 0
M  V30 2401 H 319.146 4.42556 -4.81383 0
M  V30 2402 H 320.63 5.92458 -5.93643 0
M  V30 2403 H 318.936 7.92655 -6.402 0
M  V30 2404 H 318.746 6.26671 -8.0846 0
M  V30 2405 H 317.116 6.29101 -7.32804 0
M  V30 2406 H 319.755 5.84315 -2.47318 0
M  V30 2407 P 321.612 7.39546 -4.75277 0
M  V30 2408 O 323.034 7.84798 -5.01039 0
M  V30 2409 O 321.252 5.9812 -5.08098 0
M  V30 2410 O 321.289 7.57503 -3.1866 0
M  V30 2411 C 321.129 8.97357 -2.74833 0
M  V30 2412 C 321.669 9.07548 -1.32709 0
M  V30 2413 O 320.613 8.62072 -0.606159 0
M  V30 2414 C 322.887 8.25383 -0.938334 0
M  V30 2415 O 323.625 8.74577 0.146954 0
M  V30 2416 C 322.218 6.8802 -0.712559 0
M  V30 2417 O 323.017 6.1189 0.194655 0
M  V30 2418 C 320.881 7.27966 -0.139777 0
M  V30 2419 H 320.913 7.25354 0.961601 0
M  V30 2420 H 322.096 6.32557 -1.65702 0
M  V30 2421 H 323.58 8.19355 -1.79097 0
M  V30 2422 H 321.886 10.1294 -1.10029 0
M  V30 2423 H 321.696 9.64276 -3.41316 0
M  V30 2424 H 320.066 9.25417 -2.76357 0
M  V30 2425 H 322.705 6.25267 1.07847 0
M  V30 2426 P 324.563 8.791 1.35267e-12 0
M  V30 2427 O 325.985 9.31096 0.027933 0
M  V30 2428 O 324.203 7.77869 -1.04071 0
M  V30 2429 O 324.24 8.09533 1.41463 0
M  V30 2430 C 324.08 9.0349 2.53943 0
M  V30 2431 C 324.62 8.35226 3.79016 0
M  V30 2432 O 323.564 7.57992 4.15078 0
M  V30 2433 C 325.838 7.45087 3.67298 0
M  V30 2434 O 326.576 7.27796 4.85194 0
M  V30 2435 C 325.169 6.17323 3.12027 0
M  V30 2436 O 325.968 5.04231 3.47188 0
M  V30 2437 C 323.832 6.19961 3.81809 0
M  V30 2438 H 323.864 5.58218 4.73051 0
M  V30 2439 H 325.047 6.21726 2.02589 0
M  V30 2440 H 326.531 7.86112 2.9231 0
M  V30 2441 H 324.837 9.11627 4.55076 0
M  V30 2442 H 324.647 9.9573 2.34194 0
M  V30 2443 H 323.017 9.2792 2.67832 0
M  V30 2444 H 325.656 4.67702 4.28772 0
M  V30 2445 P 327.513 7.39546 4.75277 0
M  V30 2446 O 328.935 7.81777 5.05738 0
M  V30 2447 O 327.153 7.1065 3.32998 0
M  V30 2448 O 327.19 6.04542 5.56673 0
M  V30 2449 C 327.03 6.22772 7.02095 0
M  V30 2450 C 327.57 4.97725 7.70406 0
M  V30 2451 O 326.514 4.13256 7.58987 0
M  V30 2452 C 328.788 4.28231 7.11815 0
M  V30 2453 O 329.526 3.49945 8.01648 0
M  V30 2454 C 328.119 3.5063 5.96244 0
M  V30 2455 O 328.918 2.36482 5.64681 0
M  V30 2456 C 326.782 3.15122 6.56374 0
M  V30 2457 H 326.814 2.13853 6.99751 0
M  V30 2458 H 327.997 4.13501 5.06559 0
M  V30 2459 H 329.481 5.03285 6.70911 0
M  V30 2460 H 327.787 5.20877 8.75697 0
M  V30 2461 H 327.597 7.11046 7.35349 0
M  V30 2462 H 325.967 6.35815 7.26986 0
M  V30 2463 H 328.606 1.61644 6.13565 0
M  V30 2464 P 330.464 3.65191 7.99657 0
M  V30 2465 O 331.886 3.8425 8.48115 0
M  V30 2466 O 330.104 4.17805 6.64342 0
M  V30 2467 O 330.141 2.07613 7.95143 0
M  V30 2468 C 329.981 1.44328 9.27336 0
M  V30 2469 C 330.521 0.0220036 9.17197 0
M  V30 2470 O 329.465 -0.626867 8.61923 0
M  V30 2471 C 331.739 -0.24586 8.30336 0
M  V30 2472 O 332.477 -1.39011 8.63583 0
M  V30 2473 C 331.07 -0.273849 6.91158 0
M  V30 2474 O 331.869 -1.06348 6.02892 0
M  V30 2475 C 329.733 -0.897649 7.22545 0
M  V30 2476 H 329.765 -1.9841 7.04286 0
M  V30 2477 H 330.948 0.739928 6.497 0
M  V30 2478 H 332.432 0.60668 8.36503 0
M  V30 2479 H 330.738 -0.352479 10.1829 0
M  V30 2480 H 330.548 2.00611 10.0304 0
M  V30 2481 H 328.918 1.41843 9.55327 0
M  V30 2482 H 331.557 -1.95734 6.03555 0
M  V30 2483 P 333.414 -1.25109 8.70152 0
M  V30 2484 O 334.836 -1.35274 9.21221 0
M  V30 2485 O 333.054 -0.0769065 7.84762 0
M  V30 2486 O 333.091 -2.55232 7.81161 0
M  V30 2487 C 332.931 -3.79939 8.58154 0
M  V30 2488 C 333.471 -4.94023 7.72785 0
M  V30 2489 O 332.415 -5.18726 6.91205 0
M  V30 2490 C 334.689 -4.69597 6.85231 0
M  V30 2491 O 335.427 -5.83832 6.51337 0
M  V30 2492 C 334.02 -3.96706 5.66633 0
M  V30 2493 O 334.819 -4.15414 4.49689 0
M  V30 2494 C 332.683 -4.66153 5.59313 0
M  V30 2495 H 332.715 -5.47679 4.85214 0
M  V30 2496 H 333.898 -2.89008 5.86566 0
M  V30 2497 H 335.382 -4.0121 7.36511 0
M  V30 2498 H 333.688 -5.80182 8.37584 0
M  V30 2499 H 333.498 -3.73517 9.52265 0
M  V30 2500 H 331.868 -3.97163 8.80359 0
M  V30 2501 H 334.507 -4.90969 4.01921 0
M  V30 2502 P 336.365 -5.75688 6.64379 0
M  V30 2503 O 337.766 -6.11991 7.09136 0
M  V30 2504 O 335.987 -4.30899 6.62018 0
M  V30 2505 O 336.042 -6.36965 5.19102 0
M  V30 2506 C 335.882 -7.83578 5.16515 0
M  V30 2507 C 336.422 -8.33307 3.82977 0
M  V30 2508 O 335.366 -8.0998 3.00999 0
M  V30 2509 C 337.639 -7.65514 3.2257 0
M  V30 2510 O 338.378 -8.4329 2.32297 0
M  V30 2511 C 336.972 -6.40075 2.62207 0
M  V30 2512 O 337.77 -5.92492 1.53687 0
M  V30 2513 C 335.634 -6.9454 2.18503 0
M  V30 2514 N 334.591 -5.95905 2.39948 0
M  V30 2515 C 333.556 -5.89764 1.49837 0
M  V30 2516 O 333.595 -6.64088 0.490975 0
M  V30 2517 N 332.544 -5.02821 1.70992 0
M  V30 2518 C 332.592 -4.21498 2.77236 0
M  V30 2519 C 333.688 -4.23389 3.68205 0
M  V30 2520 C 334.654 -5.12792 3.46171 0
M  V30 2521 H 335.666 -7.22964 1.12076 0
M  V30 2522 H 336.849 -5.60502 3.36589 0
M  V30 2523 H 338.333 -7.36197 4.01993 0
M  V30 2524 H 336.639 -9.41302 3.90009 0
M  V30 2525 H 336.448 -8.29056 5.99158 0
M  V30 2526 H 334.818 -8.09989 5.25828 0
M  V30 2527 H 333.736 -3.54747 4.52399 0
M  V30 2528 H 335.5 -5.18551 4.1489 0
M  V30 2529 H 337.554 -6.40705 0.751752 0
M  V30 2530 P 339.316 -8.4349 2.47671 0
M  V30 2531 O 340.738 -8.94167 2.5964 0
M  V30 2532 O 338.956 -7.1704 3.19006 0
M  V30 2533 O 338.993 -8.16596 0.923387 0
M  V30 2534 C 338.833 -9.38437 0.108857 0
M  V30 2535 C 339.373 -9.08175 -1.28353 0
M  V30 2536 O 338.317 -8.44229 -1.84713 0
M  V30 2537 C 340.591 -8.18386 -1.42505 0
M  V30 2538 O 341.329 -8.3501 -2.60497 0
M  V30 2539 C 339.922 -6.80225 -1.25468 0
M  V30 2540 O 340.721 -5.81621 -1.91066 0
M  V30 2541 C 338.585 -7.02416 -1.9168 0
M  V30 2542 H 338.617 -6.6888 -2.96621 0
M  V30 2543 H 339.8 -6.53617 -0.192223 0
M  V30 2544 H 341.284 -8.36622 -0.589963 0
M  V30 2545 H 339.59 -10.0291 -1.79807 0
M  V30 2546 H 339.4 -10.2138 0.558219 0
M  V30 2547 H 337.77 -9.6579 0.0444202 0
M  V30 2548 H 340.409 -5.69556 -2.79637 0
M  V30 2549 P 342.266 -8.4349 -2.47671 0
M  V30 2550 O 343.688 -8.92593 -2.65 0
M  V30 2551 O 341.906 -7.7568 -1.19296 0
M  V30 2552 O 341.943 -7.36886 -3.63805 0
M  V30 2553 C 341.783 -7.95349 -4.982 0
M  V30 2554 C 342.323 -6.94612 -5.98974 0
M  V30 2555 O 341.267 -6.10347 -6.11815 0
M  V30 2556 C 343.541 -6.11426 -5.62335 0
M  V30 2557 O 344.279 -5.6162 -6.70584 0
M  V30 2558 C 342.872 -5.04409 -4.73308 0
M  V30 2559 O 343.671 -3.85992 -4.75183 0
M  V30 2560 C 341.535 -4.8728 -5.41006 0
M  V30 2561 H 341.567 -4.02333 -6.11157 0
M  V30 2562 H 342.75 -5.39466 -3.69543 0
M  V30 2563 H 344.234 -6.71916 -5.01943 0
M  V30 2564 H 342.54 -7.4649 -6.93477 0
M  V30 2565 H 342.35 -8.89416 -5.05237 0
M  V30 2566 H 340.72 -8.14876 -5.18409 0
M  V30 2567 H 343.359 -3.27957 -5.4317 0
M  V30 2568 P 345.217 -5.75688 -6.64379 0
M  V30 2569 O 346.639 -6.07627 -7.05504 0
M  V30 2570 O 344.857 -5.88047 -5.19722 0
M  V30 2571 O 344.894 -4.2322 -7.04443 0
M  V30 2572 C 344.734 -3.99743 -8.4911 0
M  V30 2573 C 345.274 -2.60516 -8.79425 0
M  V30 2574 O 344.218 -1.82684 -8.4467 0
M  V30 2575 C 346.492 -2.10343 -8.03628 0
M  V30 2576 O 347.23 -1.09919 -8.67766 0
M  V30 2577 C 345.823 -1.68446 -6.70876 0
M  V30 2578 O 346.622 -0.678137 -6.08433 0
M  V30 2579 C 344.486 -1.17436 -7.18567 0
M  V30 2580 H 344.518 -0.0804732 -7.31656 0
M  V30 2581 H 345.701 -2.54037 -6.02537 0
M  V30 2582 H 347.185 -2.93881 -7.85526 0
M  V30 2583 H 345.491 -2.53065 -9.86973 0
M  V30 2584 H 345.301 -4.75072 -9.05887 0
M  V30 2585 H 343.671 -4.05244 -8.76668 0
M  V30 2586 H 346.31 0.177647 -6.34251 0
M  V30 2587 P 348.167 -1.25109 -8.70152 0
M  V30 2588 O 349.589 -1.29744 -9.22016 0
M  V30 2589 O 347.807 -2.13714 -7.55141 0
M  V30 2590 O 347.844 0.248149 -8.21425 0
M  V30 2591 C 347.684 1.22779 -9.30434 0
M  V30 2592 C 348.224 2.56293 -8.80664 0
M  V30 2593 O 347.168 3.02979 -8.09349 0
M  V30 2594 C 349.442 2.57523 -7.89775 0
M  V30 2595 O 350.18 3.7668 -7.89438 0
M  V30 2596 C 348.773 2.20997 -6.55446 0
M  V30 2597 O 349.572 2.71895 -5.48509 0
M  V30 2598 C 347.436 2.89693 -6.67988 0
M  V30 2599 H 347.468 3.88793 -6.19859 0
M  V30 2600 H 348.651 1.12046 -6.44229 0
M  V30 2601 H 350.135 1.7746 -8.19711 0
M  V30 2602 H 348.441 3.20706 -9.67112 0
M  V30 2603 H 348.251 0.901032 -10.1892 0
M  V30 2604 H 346.621 1.33049 -9.56592 0
M  V30 2605 H 349.26 3.57847 -5.23962 0
M  V30 2606 P 351.118 3.65191 -7.99657 0
M  V30 2607 O 352.54 3.89332 -8.45794 0
M  V30 2608 O 350.758 2.28472 -7.50807 0
M  V30 2609 O 350.795 4.64972 -6.77611 0
M  V30 2610 C 350.635 6.06319 -7.16352 0
M  V30 2611 C 351.175 6.91731 -6.02299 0
M  V30 2612 O 350.119 6.92449 -5.17064 0
M  V30 2613 C 352.393 6.43627 -5.25174 0
M  V30 2614 O 353.131 7.43686 -4.60469 0
M  V30 2615 C 351.724 5.40275 -4.31916 0
M  V30 2616 O 352.523 5.25279 -3.14438 0
M  V30 2617 C 350.387 6.04847 -4.05327 0
M  V30 2618 H 350.419 6.62195 -3.11261 0
M  V30 2619 H 351.602 4.42556 -4.81383 0
M  V30 2620 H 353.086 5.92458 -5.93643 0
M  V30 2621 H 351.392 7.92655 -6.402 0
M  V30 2622 H 351.202 6.26671 -8.0846 0
M  V30 2623 H 349.572 6.29101 -7.32804 0
M  V30 2624 H 352.211 5.84315 -2.47318 0
M  V30 2625 P 354.068 7.39546 -4.75277 0
M  V30 2626 O 355.49 7.84966 -5.01146 0
M  V30 2627 O 353.708 5.9812 -5.08098 0
M  V30 2628 O 353.745 7.57503 -3.1866 0
M  V30 2629 C 353.585 8.97357 -2.74833 0
M  V30 2630 C 354.125 9.0745 -1.32694 0
M  V30 2631 O 353.07 8.62072 -0.606159 0
M  V30 2632 C 355.343 8.25383 -0.938334 0
M  V30 2633 O 356.081 8.74577 0.146954 0
M  V30 2634 C 354.675 6.8802 -0.712559 0
M  V30 2635 O 355.473 6.11791 0.194623 0
M  V30 2636 C 353.337 7.27966 -0.139777 0
M  V30 2637 N 352.294 6.39368 -0.623421 0
M  V30 2638 C 352.356 5.90299 -1.85969 0
M  V30 2639 N 351.311 5.10919 -2.1133 0
M  V30 2640 C 350.577 5.14646 -1.0015 0
M  V30 2641 C 349.271 4.60057 -0.729219 0
M  V30 2642 O 348.538 3.93476 -1.47746 0
M  V30 2643 N 348.841 4.88302 0.523505 0
M  V30 2644 C 349.59 5.63646 1.46207 0
M  V30 2645 N 348.993 5.78186 2.69239 0
M  V30 2646 N 350.743 6.19285 1.21544 0
M  V30 2647 C 351.2 5.93392 -0.0308487 0
M  V30 2648 H 353.369 7.25354 0.961601 0
M  V30 2649 H 354.552 6.3246 -1.65676 0
M  V30 2650 H 356.037 8.19533 -1.78278 0
M  V30 2651 H 354.342 10.1294 -1.10029 0
M  V30 2652 H 354.152 9.64276 -3.41316 0
M  V30 2653 H 352.521 9.25417 -2.76357 0
M  V30 2654 H 347.945 4.53993 0.806451 0
M  V30 2655 H 353.152 6.11865 -2.57394 0
M  V30 2656 H 348.082 5.34046 2.87467 0
M  V30 2657 H 349.458 6.33391 3.42578 0
M  V30 2658 H 355.162 6.25169 1.0783 0
M  V30 2659 P 357.019 8.791 1.66284e-12 0
M  V30 2660 O 358.441 9.31296 0.027939 0
M  V30 2661 O 356.659 7.77869 -1.04071 0
M  V30 2662 O 356.696 8.09533 1.41463 0
M  V30 2663 C 356.536 9.0349 2.53943 0
M  V30 2664 C 357.076 8.35135 3.78975 0
M  V30 2665 O 356.021 7.57992 4.15078 0
M  V30 2666 C 358.294 7.45087 3.67298 0
M  V30 2667 O 359.032 7.27796 4.85194 0
M  V30 2668 C 357.626 6.17323 3.12027 0
M  V30 2669 O 358.424 5.04149 3.47132 0
M  V30 2670 C 356.288 6.19961 3.81809 0
M  V30 2671 N 355.245 5.71575 2.93223 0
M  V30 2672 C 355.307 5.97133 1.62693 0
M  V30 2673 N 354.262 5.44066 0.984414 0
M  V30 2674 C 353.528 4.87093 1.93987 0
M  V30 2675 C 352.222 4.26449 1.8738 0
M  V30 2676 O 351.489 4.1089 0.884377 0
M  V30 2677 N 351.792 3.82483 3.08036 0
M  V30 2678 C 352.541 3.95124 4.27727 0
M  V30 2679 N 351.944 3.4084 5.39089 0
M  V30 2680 N 353.694 4.55264 4.3706 0
M  V30 2681 C 354.151 5.00861 3.18217 0
M  V30 2682 H 356.32 5.58218 4.73051 0
M  V30 2683 H 357.503 6.21631 2.02558 0
M  V30 2684 H 358.988 7.85819 2.93096 0
M  V30 2685 H 357.293 9.11627 4.55076 0
M  V30 2686 H 357.103 9.9573 2.34194 0
M  V30 2687 H 355.472 9.2792 2.67832 0
M  V30 2688 H 350.896 3.38323 3.1329 0
M  V30 2689 H 356.103 6.53891 1.14265 0
M  V30 2690 H 351.033 2.93852 5.30559 0
M  V30 2691 H 352.409 3.47631 6.30632 0
M  V30 2692 H 358.113 4.67628 4.28704 0
M  V30 2693 P 359.97 7.39546 4.75277 0
M  V30 2694 O 361.392 7.81777 5.05738 0
M  V30 2695 O 359.61 7.1065 3.32998 0
M  V30 2696 O 359.647 6.04542 5.56673 0
M  V30 2697 C 359.487 6.22772 7.02095 0
M  V30 2698 C 360.027 4.97725 7.70406 0
M  V30 2699 O 358.971 4.13256 7.58987 0
M  V30 2700 C 361.245 4.28231 7.11815 0
M  V30 2701 O 361.983 3.49945 8.01648 0
M  V30 2702 C 360.576 3.5063 5.96244 0
M  V30 2703 O 361.375 2.36482 5.64681 0
M  V30 2704 C 359.239 3.15122 6.56374 0
M  V30 2705 H 359.271 2.13853 6.99751 0
M  V30 2706 H 360.454 4.13501 5.06559 0
M  V30 2707 H 361.938 5.03285 6.70911 0
M  V30 2708 H 360.244 5.20877 8.75697 0
M  V30 2709 H 360.054 7.11046 7.35349 0
M  V30 2710 H 358.424 6.35815 7.26986 0
M  V30 2711 H 361.063 1.61644 6.13565 0
M  V30 2712 P 362.92 3.65191 7.99657 0
M  V30 2713 O 364.342 3.8425 8.48115 0
M  V30 2714 O 362.56 4.17805 6.64342 0
M  V30 2715 O 362.597 2.07613 7.95143 0
M  V30 2716 C 362.437 1.44328 9.27336 0
M  V30 2717 C 362.977 0.0220036 9.17197 0
M  V30 2718 O 361.921 -0.626867 8.61923 0
M  V30 2719 C 364.195 -0.24586 8.30336 0
M  V30 2720 O 364.933 -1.39011 8.63583 0
M  V30 2721 C 363.526 -0.273849 6.91158 0
M  V30 2722 O 364.325 -1.06348 6.02892 0
M  V30 2723 C 362.189 -0.897649 7.22545 0
M  V30 2724 H 362.221 -1.9841 7.04286 0
M  V30 2725 H 363.404 0.739928 6.497 0
M  V30 2726 H 364.888 0.60668 8.36503 0
M  V30 2727 H 363.194 -0.352479 10.1829 0
M  V30 2728 H 363.004 2.00611 10.0304 0
M  V30 2729 H 361.374 1.41843 9.55327 0
M  V30 2730 H 364.013 -1.95734 6.03555 0
M  V30 2731 P 365.871 -1.25109 8.70152 0
M  V30 2732 O 367.293 -1.35274 9.21221 0
M  V30 2733 O 365.511 -0.0769065 7.84762 0
M  V30 2734 O 365.548 -2.55232 7.81161 0
M  V30 2735 C 365.388 -3.79939 8.58154 0
M  V30 2736 C 365.928 -4.94023 7.72785 0
M  V30 2737 O 364.872 -5.18726 6.91205 0
M  V30 2738 C 367.146 -4.69597 6.85231 0
M  V30 2739 O 367.884 -5.83832 6.51337 0
M  V30 2740 C 366.477 -3.96706 5.66633 0
M  V30 2741 O 367.276 -4.15414 4.49689 0
M  V30 2742 C 365.14 -4.66153 5.59313 0
M  V30 2743 H 365.172 -5.47679 4.85214 0
M  V30 2744 H 366.355 -2.89008 5.86566 0
M  V30 2745 H 367.839 -4.0121 7.36511 0
M  V30 2746 H 366.145 -5.80182 8.37584 0
M  V30 2747 H 365.955 -3.73517 9.52265 0
M  V30 2748 H 364.325 -3.97163 8.80359 0
M  V30 2749 H 366.964 -4.90969 4.01921 0
M  V30 2750 P 368.821 -5.75688 6.64379 0
M  V30 2751 O 370.243 -6.11849 7.01846 0
M  V30 2752 O 368.461 -4.30744 6.56026 0
M  V30 2753 O 368.498 -6.37042 5.19165 0
M  V30 2754 C 368.338 -7.83578 5.16515 0
M  V30 2755 C 368.878 -8.33398 3.83019 0
M  V30 2756 O 367.822 -8.10074 3.01034 0
M  V30 2757 C 370.096 -7.65514 3.2257 0
M  V30 2758 O 370.834 -8.4329 2.32297 0
M  V30 2759 C 369.427 -6.40075 2.62207 0
M  V30 2760 O 370.226 -5.92589 1.53712 0
M  V30 2761 C 368.09 -6.9454 2.18503 0
M  V30 2762 H 368.122 -7.23063 1.12091 0
M  V30 2763 H 369.305 -5.6025 3.37201 0
M  V30 2764 H 370.789 -7.35707 4.02681 0
M  V30 2765 H 369.095 -9.40912 3.9095 0
M  V30 2766 H 368.905 -8.29056 5.99158 0
M  V30 2767 H 367.275 -8.10073 5.25882 0
M  V30 2768 H 369.914 -6.30324 0.726794 0
M  V30 2769 P 371.772 -8.4349 2.47671 0
M  V30 2770 O 373.194 -8.94167 2.5964 0
M  V30 2771 O 371.412 -7.1704 3.19006 0
M  V30 2772 O 371.449 -8.16596 0.923387 0
M  V30 2773 C 371.289 -9.38437 0.108857 0
M  V30 2774 C 371.829 -9.08175 -1.28353 0
M  V30 2775 O 370.773 -8.44229 -1.84713 0
M  V30 2776 C 373.047 -8.18386 -1.42505 0
M  V30 2777 O 373.785 -8.3501 -2.60497 0
M  V30 2778 C 372.378 -6.80225 -1.25468 0
M  V30 2779 O 373.177 -5.81621 -1.91066 0
M  V30 2780 C 371.041 -7.02416 -1.9168 0
M  V30 2781 H 371.073 -6.6888 -2.96621 0
M  V30 2782 H 372.256 -6.53617 -0.192223 0
M  V30 2783 H 373.74 -8.36622 -0.589963 0
M  V30 2784 H 372.046 -10.0291 -1.79807 0
M  V30 2785 H 371.856 -10.2138 0.558219 0
M  V30 2786 H 370.226 -9.6579 0.0444202 0
M  V30 2787 H 372.865 -5.69556 -2.79637 0
M  V30 2788 P 374.722 -8.4349 -2.47671 0
M  V30 2789 O 376.143 -8.92689 -2.65029 0
M  V30 2790 O 374.362 -7.7568 -1.19296 0
M  V30 2791 O 374.399 -7.36886 -3.63805 0
M  V30 2792 C 374.238 -7.95433 -4.98253 0
M  V30 2793 C 374.779 -6.94612 -5.98974 0
M  V30 2794 O 373.724 -6.10277 -6.11744 0
M  V30 2795 C 375.997 -6.11426 -5.62335 0
M  V30 2796 O 376.735 -5.6162 -6.70584 0
M  V30 2797 C 375.329 -5.04409 -4.73308 0
M  V30 2798 O 376.127 -3.86404 -4.74719 0
M  V30 2799 C 373.991 -4.8728 -5.41006 0
M  V30 2800 N 372.948 -4.65812 -4.42377 0
M  V30 2801 C 373.117 -5.09132 -3.15382 0
M  V30 2802 N 372.09 -4.84021 -2.3716 0
M  V30 2803 C 371.205 -4.18386 -3.20441 0
M  V30 2804 C 369.938 -3.6275 -2.94905 0
M  V30 2805 N 369.373 -3.05008 -4.05243 0
M  V30 2806 C 369.975 -2.98348 -5.28159 0
M  V30 2807 N 371.152 -3.48171 -5.56333 0
M  V30 2808 C 371.727 -4.06869 -4.47212 0
M  V30 2809 H 375.206 -5.39013 -3.70026 0
M  V30 2810 H 376.689 -6.71916 -5.01943 0
M  V30 2811 H 374.995 -7.45796 -6.94223 0
M  V30 2812 H 374.805 -8.89416 -5.05237 0
M  V30 2813 H 373.175 -8.14876 -5.18409 0
M  V30 2814 H 374.017 -5.59989 -2.81362 0
M  V30 2815 H 375.815 -3.27906 -5.43085 0
M  V30 2816 P 377.673 -5.75688 -6.64379 0
M  V30 2817 O 379.074 -6.14823 -7.06682 0
M  V30 2818 O 377.295 -5.93957 -5.20728 0
M  V30 2819 O 377.35 -4.23169 -7.04357 0
M  V30 2820 C 377.19 -3.99743 -8.4911 0
M  V30 2821 C 377.73 -2.60487 -8.79329 0
M  V30 2822 O 376.674 -1.82663 -8.44573 0
M  V30 2823 C 378.947 -2.10343 -8.03628 0
M  V30 2824 O 379.686 -1.09919 -8.67766 0
M  V30 2825 C 378.28 -1.68446 -6.70876 0
M  V30 2826 O 379.078 -0.678026 -6.08333 0
M  V30 2827 C 376.942 -1.17436 -7.18567 0
M  V30 2828 N 375.899 -1.52699 -6.23988 0
M  V30 2829 C 374.864 -0.643793 -6.05085 0
M  V30 2830 O 374.903 0.459118 -6.64315 0
M  V30 2831 N 373.852 -0.976931 -5.22038 0
M  V30 2832 C 373.9 -2.14429 -4.56662 0
M  V30 2833 C 374.996 -3.04203 -4.71481 0
M  V30 2834 C 375.962 -2.69669 -5.56838 0
M  V30 2835 H 376.974 -0.0804622 -7.31556 0
M  V30 2836 H 378.157 -2.53396 -6.02698 0
M  V30 2837 H 379.641 -2.9313 -7.85914 0
M  V30 2838 H 377.947 -2.52078 -9.87225 0
M  V30 2839 H 377.756 -4.75072 -9.05887 0
M  V30 2840 H 376.126 -4.05202 -8.76577 0
M  V30 2841 H 375.044 -3.97309 -4.15519 0
M  V30 2842 H 376.808 -3.36869 -5.72318 0
M  V30 2843 H 378.862 0.167718 -6.44882 0
M  V30 2844 P 380.624 -1.25109 -8.70152 0
M  V30 2845 O 382.046 -1.29744 -9.22016 0
M  V30 2846 O 380.264 -2.13714 -7.55141 0
M  V30 2847 O 380.301 0.248149 -8.21425 0
M  V30 2848 C 380.141 1.22779 -9.30434 0
M  V30 2849 C 380.681 2.56293 -8.80664 0
M  V30 2850 O 379.625 3.02979 -8.09349 0
M  V30 2851 C 381.899 2.57523 -7.89775 0
M  V30 2852 O 382.637 3.7668 -7.89438 0
M  V30 2853 C 381.23 2.20997 -6.55446 0
M  V30 2854 O 382.029 2.71895 -5.48509 0
M  V30 2855 C 379.893 2.89693 -6.67988 0
M  V30 2856 H 379.925 3.88793 -6.19859 0
M  V30 2857 H 381.108 1.12046 -6.44229 0
M  V30 2858 H 382.592 1.7746 -8.19711 0
M  V30 2859 H 380.898 3.20706 -9.67112 0
M  V30 2860 H 380.708 0.901032 -10.1892 0
M  V30 2861 H 379.078 1.33049 -9.56592 0
M  V30 2862 H 381.717 3.57847 -5.23962 0
M  V30 2863 P 383.574 3.65191 -7.99657 0
M  V30 2864 O 384.996 3.89332 -8.45794 0
M  V30 2865 O 383.214 2.28472 -7.50807 0
M  V30 2866 O 383.251 4.64972 -6.77611 0
M  V30 2867 C 383.091 6.06319 -7.16352 0
M  V30 2868 C 383.631 6.91731 -6.02299 0
M  V30 2869 O 382.575 6.92449 -5.17064 0
M  V30 2870 C 384.849 6.43627 -5.25174 0
M  V30 2871 O 385.587 7.43686 -4.60469 0
M  V30 2872 C 384.18 5.40275 -4.31916 0
M  V30 2873 O 384.979 5.25279 -3.14438 0
M  V30 2874 C 382.843 6.04847 -4.05327 0
M  V30 2875 H 382.875 6.62195 -3.11261 0
M  V30 2876 H 384.058 4.42556 -4.81383 0
M  V30 2877 H 385.542 5.92458 -5.93643 0
M  V30 2878 H 383.848 7.92655 -6.402 0
M  V30 2879 H 383.658 6.26671 -8.0846 0
M  V30 2880 H 382.028 6.29101 -7.32804 0
M  V30 2881 H 384.667 5.84315 -2.47318 0
M  V30 2882 P 386.525 7.39546 -4.75277 0
M  V30 2883 O 387.947 7.84798 -5.01039 0
M  V30 2884 O 386.165 5.9812 -5.08098 0
M  V30 2885 O 386.202 7.57503 -3.1866 0
M  V30 2886 C 386.042 8.97357 -2.74833 0
M  V30 2887 C 386.582 9.07548 -1.32709 0
M  V30 2888 O 385.526 8.62072 -0.606159 0
M  V30 2889 C 387.8 8.25383 -0.938334 0
M  V30 2890 O 388.538 8.74577 0.146954 0
M  V30 2891 C 387.131 6.8802 -0.712559 0
M  V30 2892 O 387.93 6.1189 0.194655 0
M  V30 2893 C 385.794 7.27966 -0.139777 0
M  V30 2894 H 385.826 7.25354 0.961601 0
M  V30 2895 H 387.009 6.32557 -1.65702 0
M  V30 2896 H 388.493 8.19355 -1.79097 0
M  V30 2897 H 386.799 10.1294 -1.10029 0
M  V30 2898 H 386.609 9.64276 -3.41316 0
M  V30 2899 H 384.979 9.25417 -2.76357 0
M  V30 2900 H 387.618 6.25267 1.07847 0
M  V30 2901 P 389.475 8.791 1.973e-12 0
M  V30 2902 O 390.897 9.31096 0.027933 0
M  V30 2903 O 389.115 7.77869 -1.04071 0
M  V30 2904 O 389.152 8.09533 1.41463 0
M  V30 2905 C 388.992 9.0349 2.53943 0
M  V30 2906 C 389.532 8.35226 3.79016 0
M  V30 2907 O 388.476 7.57992 4.15078 0
M  V30 2908 C 390.75 7.45087 3.67298 0
M  V30 2909 O 391.488 7.27796 4.85194 0
M  V30 2910 C 390.081 6.17323 3.12027 0
M  V30 2911 O 390.88 5.04231 3.47188 0
M  V30 2912 C 388.744 6.19961 3.81809 0
M  V30 2913 H 388.776 5.58218 4.73051 0
M  V30 2914 H 389.959 6.21726 2.02589 0
M  V30 2915 H 391.443 7.86112 2.9231 0
M  V30 2916 H 389.749 9.11627 4.55076 0
M  V30 2917 H 389.559 9.9573 2.34194 0
M  V30 2918 H 387.929 9.2792 2.67832 0
M  V30 2919 H 390.568 4.67702 4.28772 0
M  V30 2920 P 392.426 7.39546 4.75277 0
M  V30 2921 O 393.848 7.81777 5.05738 0
M  V30 2922 O 392.066 7.1065 3.32998 0
M  V30 2923 O 392.103 6.04542 5.56673 0
M  V30 2924 C 391.943 6.22772 7.02095 0
M  V30 2925 C 392.483 4.97725 7.70406 0
M  V30 2926 O 391.427 4.13256 7.58987 0
M  V30 2927 C 393.701 4.28231 7.11815 0
M  V30 2928 O 394.439 3.49945 8.01648 0
M  V30 2929 C 393.032 3.5063 5.96244 0
M  V30 2930 O 393.831 2.36482 5.64681 0
M  V30 2931 C 391.695 3.15122 6.56374 0
M  V30 2932 H 391.727 2.13853 6.99751 0
M  V30 2933 H 392.91 4.13501 5.06559 0
M  V30 2934 H 394.394 5.03285 6.70911 0
M  V30 2935 H 392.7 5.20877 8.75697 0
M  V30 2936 H 392.51 7.11046 7.35349 0
M  V30 2937 H 390.88 6.35815 7.26986 0
M  V30 2938 H 393.519 1.61644 6.13565 0
M  V30 2939 P 395.376 3.65191 7.99657 0
M  V30 2940 O 396.798 3.8425 8.48115 0
M  V30 2941 O 395.016 4.17805 6.64342 0
M  V30 2942 O 395.053 2.07613 7.95143 0
M  V30 2943 C 394.893 1.44328 9.27336 0
M  V30 2944 C 395.433 0.0220036 9.17197 0
M  V30 2945 O 394.377 -0.626867 8.61923 0
M  V30 2946 C 396.651 -0.24586 8.30336 0
M  V30 2947 O 397.389 -1.39011 8.63583 0
M  V30 2948 C 395.982 -0.273849 6.91158 0
M  V30 2949 O 396.781 -1.06348 6.02892 0
M  V30 2950 C 394.645 -0.897649 7.22545 0
M  V30 2951 H 394.677 -1.9841 7.04286 0
M  V30 2952 H 395.86 0.739928 6.497 0
M  V30 2953 H 397.344 0.60668 8.36503 0
M  V30 2954 H 395.65 -0.352479 10.1829 0
M  V30 2955 H 395.46 2.00611 10.0304 0
M  V30 2956 H 393.83 1.41843 9.55327 0
M  V30 2957 H 396.469 -1.95734 6.03555 0
M  V30 2958 P 398.327 -1.25109 8.70152 0
M  V30 2959 O 399.748 -1.35288 9.2132 0
M  V30 2960 O 397.967 -0.0769065 7.84762 0
M  V30 2961 O 398.004 -2.55232 7.81161 0
M  V30 2962 C 397.843 -3.79979 8.58246 0
M  V30 2963 C 398.384 -4.94023 7.72785 0
M  V30 2964 O 397.329 -5.18666 6.91125 0
M  V30 2965 C 399.602 -4.69597 6.85231 0
M  V30 2966 O 400.34 -5.83832 6.51337 0
M  V30 2967 C 398.934 -3.96706 5.66633 0
M  V30 2968 O 399.732 -4.14896 4.5003 0
M  V30 2969 C 397.596 -4.66153 5.59313 0
M  V30 2970 N 396.553 -3.71582 5.24027 0
M  V30 2971 C 396.722 -2.39715 5.48833 0
M  V30 2972 N 395.695 -1.65863 5.12845 0
M  V30 2973 C 394.81 -2.57637 4.5973 0
M  V30 2974 C 393.543 -2.40278 4.01027 0
M  V30 2975 N 392.944 -1.19549 3.86744 0
M  V30 2976 N 392.978 -3.57711 3.59575 0
M  V30 2977 C 393.58 -4.80324 3.70476 0
M  V30 2978 N 394.757 -5.01121 4.23801 0
M  V30 2979 C 395.332 -3.84757 4.66372 0
M  V30 2980 H 397.628 -5.47604 4.85148 0
M  V30 2981 H 398.811 -2.8955 5.86187 0
M  V30 2982 H 400.294 -4.0121 7.36511 0
M  V30 2983 H 398.6 -5.81019 8.37003 0
M  V30 2984 H 398.41 -3.73517 9.52265 0
M  V30 2985 H 396.78 -3.97163 8.80359 0
M  V30 2986 H 393.044 -5.66348 3.3183 0
M  V30 2987 H 397.622 -1.98804 5.94332 0
M  V30 2988 H 392.014 -1.13147 3.4281 0
M  V30 2989 H 393.418 -0.344074 4.19692 0
M  V30 2990 H 399.42 -4.90891 4.01857 0
M  V30 2991 P 401.278 -5.75688 6.64379 0
M  V30 2992 O 402.699 -6.11915 7.01921 0
M  V30 2993 O 400.918 -4.30744 6.56026 0
M  V30 2994 O 400.955 -6.37042 5.19165 0
M  V30 2995 C 400.794 -7.83662 5.1657 0
M  V30 2996 C 401.335 -8.33398 3.83019 0
M  V30 2997 O 400.28 -8.0998 3.00999 0
M  V30 2998 C 402.553 -7.65514 3.2257 0
M  V30 2999 O 403.291 -8.4329 2.32297 0
M  V30 3000 C 401.885 -6.40075 2.62207 0
M  V30 3001 O 402.683 -5.92338 1.5428 0
M  V30 3002 C 400.547 -6.9454 2.18503 0
M  V30 3003 N 399.504 -5.95905 2.39948 0
M  V30 3004 C 399.673 -4.98383 3.32108 0
M  V30 3005 N 398.646 -4.16798 3.41761 0
M  V30 3006 C 397.761 -4.65287 2.47461 0
M  V30 3007 C 396.494 -4.18946 2.07461 0
M  V30 3008 N 395.929 -4.95327 1.09101 0
M  V30 3009 C 396.531 -6.04369 0.519812 0
M  V30 3010 N 397.708 -6.50694 0.855982 0
M  V30 3011 C 398.283 -5.75818 1.84322 0
M  V30 3012 H 401.762 -5.60502 3.36589 0
M  V30 3013 H 403.245 -7.35707 4.02681 0
M  V30 3014 H 401.551 -9.41302 3.90009 0
M  V30 3015 H 401.361 -8.29056 5.99158 0
M  V30 3016 H 399.731 -8.10073 5.25882 0
M  V30 3017 H 400.573 -4.88564 3.92502 0
M  V30 3018 H 402.371 -6.30224 0.72668 0
M  V30 3019 P 404.228 -8.4349 2.47671 0
M  V30 3020 O 405.629 -8.98227 2.65696 0
M  V30 3021 O 403.85 -7.20409 3.23964 0
M  V30 3022 O 403.905 -8.16496 0.923275 0
M  V30 3023 C 403.745 -9.38437 0.108857 0
M  V30 3024 C 404.285 -9.08076 -1.28339 0
M  V30 3025 O 403.229 -8.44131 -1.84692 0
M  V30 3026 C 405.502 -8.18386 -1.42505 0
M  V30 3027 O 406.241 -8.3501 -2.60497 0
M  V30 3028 C 404.835 -6.80225 -1.25468 0
M  V30 3029 O 405.633 -5.81526 -1.91035 0
M  V30 3030 C 403.497 -7.02416 -1.9168 0
M  V30 3031 N 402.454 -6.31033 -1.20314 0
M  V30 3032 C 401.419 -5.77149 -1.928 0
M  V30 3033 O 401.458 -5.8521 -3.17729 0
M  V30 3034 N 400.407 -5.15445 -1.27997 0
M  V30 3035 C 400.455 -5.04472 0.0534726 0
M  V30 3036 C 401.551 -5.55244 0.808522 0
M  V30 3037 C 402.517 -6.18542 0.13981 0
M  V30 3038 H 403.529 -6.68789 -2.9658 0
M  V30 3039 H 404.712 -6.53498 -0.198729 0
M  V30 3040 H 406.196 -8.36663 -0.5984 0
M  V30 3041 H 404.502 -10.0273 -1.8081 0
M  V30 3042 H 404.311 -10.2138 0.558219 0
M  V30 3043 H 402.681 -9.6569 0.0444156 0
M  V30 3044 H 401.599 -5.43017 1.88792 0
M  V30 3045 H 403.363 -6.60539 0.686773 0
M  V30 3046 H 405.417 -5.79638 -2.8315 0
M  V30 3047 P 407.179 -8.4349 -2.47671 0
M  V30 3048 O 408.601 -8.92593 -2.65 0
M  V30 3049 O 406.819 -7.7568 -1.19296 0
M  V30 3050 O 406.856 -7.36886 -3.63805 0
M  V30 3051 C 406.696 -7.95349 -4.982 0
M  V30 3052 C 407.236 -6.94612 -5.98974 0
M  V30 3053 O 406.18 -6.10347 -6.11815 0
M  V30 3054 C 408.454 -6.11426 -5.62335 0
M  V30 3055 O 409.192 -5.6162 -6.70584 0
M  V30 3056 C 407.785 -5.04409 -4.73308 0
M  V30 3057 O 408.584 -3.85992 -4.75183 0
M  V30 3058 C 406.448 -4.8728 -5.41006 0
M  V30 3059 H 406.48 -4.02333 -6.11157 0
M  V30 3060 H 407.663 -5.39466 -3.69543 0
M  V30 3061 H 409.147 -6.71916 -5.01943 0
M  V30 3062 H 407.453 -7.4649 -6.93477 0
M  V30 3063 H 407.263 -8.89416 -5.05237 0
M  V30 3064 H 405.633 -8.14876 -5.18409 0
M  V30 3065 H 408.272 -3.27957 -5.4317 0
M  V30 3066 P 410.129 -5.75688 -6.64379 0
M  V30 3067 O 411.55 -6.07692 -7.0558 0
M  V30 3068 O 409.769 -5.88047 -5.19722 0
M  V30 3069 O 409.806 -4.2322 -7.04443 0
M  V30 3070 C 409.645 -3.99785 -8.49201 0
M  V30 3071 C 410.186 -2.60516 -8.79425 0
M  V30 3072 O 409.131 -1.82663 -8.44573 0
M  V30 3073 C 411.404 -2.10343 -8.03628 0
M  V30 3074 O 412.142 -1.09919 -8.67766 0
M  V30 3075 C 410.736 -1.68446 -6.70876 0
M  V30 3076 O 411.534 -0.684109 -6.08265 0
M  V30 3077 C 409.398 -1.17436 -7.18567 0
M  V30 3078 N 408.355 -1.52699 -6.23988 0
M  V30 3079 C 408.524 -2.578 -5.40574 0
M  V30 3080 N 407.497 -2.78966 -4.61193 0
M  V30 3081 C 406.612 -1.78725 -4.95769 0
M  V30 3082 C 405.345 -1.45727 -4.44207 0
M  V30 3083 N 404.746 -2.13994 -3.43613 0
M  V30 3084 N 404.78 -0.374977 -5.05812 0
M  V30 3085 C 405.382 0.345585 -6.05615 0
M  V30 3086 N 406.559 0.0787651 -6.56253 0
M  V30 3087 C 407.134 -1.00499 -5.96189 0
M  V30 3088 H 409.43 -0.0804622 -7.31556 0
M  V30 3089 H 410.613 -2.53396 -6.02698 0
M  V30 3090 H 412.096 -2.93881 -7.85526 0
M  V30 3091 H 410.402 -2.52078 -9.87225 0
M  V30 3092 H 410.212 -4.75072 -9.05887 0
M  V30 3093 H 408.582 -4.05244 -8.76668 0
M  V30 3094 H 404.846 1.20098 -6.4532 0
M  V30 3095 H 409.424 -3.18977 -5.3945 0
M  V30 3096 H 403.816 -1.84983 -3.10004 0
M  V30 3097 H 405.22 -2.9465 -3.00843 0
M  V30 3098 H 411.222 0.177619 -6.34151 0
M  V30 3099 P 413.08 -1.25109 -8.70152 0
M  V30 3100 O 414.502 -1.29744 -9.22016 0
M  V30 3101 O 412.72 -2.13714 -7.55141 0
M  V30 3102 O 412.757 0.248149 -8.21425 0
M  V30 3103 C 412.597 1.22779 -9.30434 0
M  V30 3104 C 413.137 2.56293 -8.80664 0
M  V30 3105 O 412.081 3.02979 -8.09349 0
M  V30 3106 C 414.355 2.57523 -7.89775 0
M  V30 3107 O 415.093 3.7668 -7.89438 0
M  V30 3108 C 413.686 2.20997 -6.55446 0
M  V30 3109 O 414.485 2.71895 -5.48509 0
M  V30 3110 C 412.349 2.89693 -6.67988 0
M  V30 3111 H 412.381 3.88793 -6.19859 0
M  V30 3112 H 413.564 1.12046 -6.44229 0
M  V30 3113 H 415.048 1.7746 -8.19711 0
M  V30 3114 H 413.354 3.20706 -9.67112 0
M  V30 3115 H 413.164 0.901032 -10.1892 0
M  V30 3116 H 411.534 1.33049 -9.56592 0
M  V30 3117 H 414.173 3.57847 -5.23962 0
M  V30 3118 P 416.03 3.65191 -7.99657 0
M  V30 3119 O 417.452 3.89332 -8.45794 0
M  V30 3120 O 415.67 2.28472 -7.50807 0
M  V30 3121 O 415.707 4.64972 -6.77611 0
M  V30 3122 C 415.547 6.06319 -7.16352 0
M  V30 3123 C 416.087 6.91731 -6.02299 0
M  V30 3124 O 415.031 6.92449 -5.17064 0
M  V30 3125 C 417.305 6.43627 -5.25174 0
M  V30 3126 O 418.043 7.43686 -4.60469 0
M  V30 3127 C 416.636 5.40275 -4.31916 0
M  V30 3128 O 417.435 5.25279 -3.14438 0
M  V30 3129 C 415.299 6.04847 -4.05327 0
M  V30 3130 H 415.331 6.62195 -3.11261 0
M  V30 3131 H 416.514 4.42556 -4.81383 0
M  V30 3132 H 417.998 5.92458 -5.93643 0
M  V30 3133 H 416.304 7.92655 -6.402 0
M  V30 3134 H 416.114 6.26671 -8.0846 0
M  V30 3135 H 414.484 6.29101 -7.32804 0
M  V30 3136 H 417.123 5.84315 -2.47318 0
M  V30 3137 P 418.981 7.39546 -4.75277 0
M  V30 3138 O 420.403 7.84798 -5.01039 0
M  V30 3139 O 418.621 5.9812 -5.08098 0
M  V30 3140 O 418.658 7.57503 -3.1866 0
M  V30 3141 C 418.498 8.97357 -2.74833 0
M  V30 3142 C 419.038 9.07548 -1.32709 0
M  V30 3143 O 417.982 8.62072 -0.606159 0
M  V30 3144 C 420.256 8.25383 -0.938334 0
M  V30 3145 O 420.994 8.74577 0.146954 0
M  V30 3146 C 419.587 6.8802 -0.712559 0
M  V30 3147 O 420.386 6.1189 0.194655 0
M  V30 3148 C 418.25 7.27966 -0.139777 0
M  V30 3149 H 418.282 7.25354 0.961601 0
M  V30 3150 H 419.465 6.32557 -1.65702 0
M  V30 3151 H 420.949 8.19355 -1.79097 0
M  V30 3152 H 419.255 10.1294 -1.10029 0
M  V30 3153 H 419.065 9.64276 -3.41316 0
M  V30 3154 H 417.435 9.25417 -2.76357 0
M  V30 3155 H 420.074 6.25267 1.07847 0
M  V30 3156 P 421.932 8.791 2.28317e-12 0
M  V30 3157 O 423.354 9.31096 0.027933 0
M  V30 3158 O 421.572 7.77869 -1.04071 0
M  V30 3159 O 421.609 8.09533 1.41463 0
M  V30 3160 C 421.449 9.0349 2.53943 0
M  V30 3161 C 421.989 8.35226 3.79016 0
M  V30 3162 O 420.933 7.57992 4.15078 0
M  V30 3163 C 423.207 7.45087 3.67298 0
M  V30 3164 O 423.945 7.27796 4.85194 0
M  V30 3165 C 422.538 6.17323 3.12027 0
M  V30 3166 O 423.337 5.04231 3.47188 0
M  V30 3167 C 421.201 6.19961 3.81809 0
M  V30 3168 H 421.233 5.58218 4.73051 0
M  V30 3169 H 422.416 6.21726 2.02589 0
M  V30 3170 H 423.9 7.86112 2.9231 0
M  V30 3171 H 422.206 9.11627 4.55076 0
M  V30 3172 H 422.016 9.9573 2.34194 0
M  V30 3173 H 420.386 9.2792 2.67832 0
M  V30 3174 H 423.025 4.67702 4.28772 0
M  V30 3175 P 424.882 7.39546 4.75277 0
M  V30 3176 O 426.304 7.81777 5.05738 0
M  V30 3177 O 424.522 7.1065 3.32998 0
M  V30 3178 O 424.559 6.04542 5.56673 0
M  V30 3179 C 424.399 6.22772 7.02095 0
M  V30 3180 C 424.939 4.97725 7.70406 0
M  V30 3181 O 423.883 4.13256 7.58987 0
M  V30 3182 C 426.157 4.28231 7.11815 0
M  V30 3183 O 426.895 3.49945 8.01648 0
M  V30 3184 C 425.488 3.5063 5.96244 0
M  V30 3185 O 426.287 2.36482 5.64681 0
M  V30 3186 C 424.151 3.15122 6.56374 0
M  V30 3187 H 424.183 2.13853 6.99751 0
M  V30 3188 H 425.366 4.13501 5.06559 0
M  V30 3189 H 426.85 5.03285 6.70911 0
M  V30 3190 H 425.156 5.20877 8.75697 0
M  V30 3191 H 424.966 7.11046 7.35349 0
M  V30 3192 H 423.336 6.35815 7.26986 0
M  V30 3193 H 425.975 1.61644 6.13565 0
M  V30 3194 P 427.833 3.65191 7.99657 0
M  V30 3195 O 429.255 3.8425 8.48115 0
M  V30 3196 O 427.473 4.17805 6.64342 0
M  V30 3197 O 427.51 2.07613 7.95143 0
M  V30 3198 C 427.35 1.44328 9.27336 0
M  V30 3199 C 427.89 0.0220036 9.17197 0
M  V30 3200 O 426.834 -0.626867 8.61923 0
M  V30 3201 C 429.108 -0.24586 8.30336 0
M  V30 3202 O 429.846 -1.39011 8.63583 0
M  V30 3203 C 428.439 -0.273849 6.91158 0
M  V30 3204 O 429.238 -1.06348 6.02892 0
M  V30 3205 C 427.102 -0.897649 7.22545 0
M  V30 3206 H 427.134 -1.9841 7.04286 0
M  V30 3207 H 428.317 0.739928 6.497 0
M  V30 3208 H 429.801 0.60668 8.36503 0
M  V30 3209 H 428.107 -0.352479 10.1829 0
M  V30 3210 H 427.917 2.00611 10.0304 0
M  V30 3211 H 426.287 1.41843 9.55327 0
M  V30 3212 H 428.926 -1.95734 6.03555 0
M  V30 3213 P 430.783 -1.25109 8.70152 0
M  V30 3214 O 432.205 -1.35274 9.21221 0
M  V30 3215 O 430.423 -0.0769065 7.84762 0
M  V30 3216 O 430.46 -2.55232 7.81161 0
M  V30 3217 C 430.3 -3.79939 8.58154 0
M  V30 3218 C 430.84 -4.94023 7.72785 0
M  V30 3219 O 429.784 -5.18726 6.91205 0
M  V30 3220 C 432.058 -4.69597 6.85231 0
M  V30 3221 O 432.796 -5.83832 6.51337 0
M  V30 3222 C 431.389 -3.96706 5.66633 0
M  V30 3223 O 432.188 -4.15414 4.49689 0
M  V30 3224 C 430.052 -4.66153 5.59313 0
M  V30 3225 H 430.084 -5.47679 4.85214 0
M  V30 3226 H 431.267 -2.89008 5.86566 0
M  V30 3227 H 432.751 -4.0121 7.36511 0
M  V30 3228 H 431.057 -5.80182 8.37584 0
M  V30 3229 H 430.867 -3.73517 9.52265 0
M  V30 3230 H 429.237 -3.97163 8.80359 0
M  V30 3231 H 431.876 -4.90969 4.01921 0
M  V30 3232 P 433.734 -5.75688 6.64379 0
M  V30 3233 O 435.156 -6.11849 7.01846 0
M  V30 3234 O 433.374 -4.30744 6.56026 0
M  V30 3235 O 433.411 -6.37042 5.19165 0
M  V30 3236 C 433.251 -7.83578 5.16515 0
M  V30 3237 C 433.791 -8.33398 3.83019 0
M  V30 3238 O 432.735 -8.10074 3.01034 0
M  V30 3239 C 435.009 -7.65514 3.2257 0
M  V30 3240 O 435.747 -8.4329 2.32297 0
M  V30 3241 C 434.34 -6.40075 2.62207 0
M  V30 3242 O 435.139 -5.92589 1.53712 0
M  V30 3243 C 433.003 -6.9454 2.18503 0
M  V30 3244 H 433.035 -7.23063 1.12091 0
M  V30 3245 H 434.218 -5.6025 3.37201 0
M  V30 3246 H 435.702 -7.35707 4.02681 0
M  V30 3247 H 434.008 -9.40912 3.9095 0
M  V30 3248 H 433.818 -8.29056 5.99158 0
M  V30 3249 H 432.188 -8.10073 5.25882 0
M  V30 3250 H 434.827 -6.30324 0.726794 0
M  V30 3251 P 436.684 -8.4349 2.47671 0
M  V30 3252 O 438.105 -8.94263 2.59668 0
M  V30 3253 O 436.324 -7.1704 3.19006 0
M  V30 3254 O 436.361 -8.16596 0.923387 0
M  V30 3255 C 436.2 -9.38537 0.108869 0
M  V30 3256 C 436.741 -9.08175 -1.28353 0
M  V30 3257 O 435.686 -8.44131 -1.84692 0
M  V30 3258 C 437.959 -8.18386 -1.42505 0
M  V30 3259 O 438.697 -8.3501 -2.60497 0
M  V30 3260 C 437.291 -6.80225 -1.25468 0
M  V30 3261 O 438.089 -5.81716 -1.90454 0
M  V30 3262 C 435.953 -7.02416 -1.9168 0
M  V30 3263 N 434.91 -6.31033 -1.20314 0
M  V30 3264 C 435.079 -5.98817 0.0994088 0
M  V30 3265 N 434.052 -5.35403 0.621694 0
M  V30 3266 C 433.167 -5.25212 -0.43376 0
M  V30 3267 C 431.9 -4.64602 -0.519722 0
M  V30 3268 N 431.335 -4.7568 -1.76013 0
M  V30 3269 C 431.937 -5.3653 -2.83017 0
M  V30 3270 N 433.114 -5.93676 -2.79782 0
M  V30 3271 C 433.689 -5.84061 -1.56249 0
M  V30 3272 H 437.168 -6.53498 -0.198729 0
M  V30 3273 H 438.651 -8.36622 -0.589963 0
M  V30 3274 H 436.957 -10.0273 -1.8081 0
M  V30 3275 H 436.767 -10.2138 0.558219 0
M  V30 3276 H 435.137 -9.6579 0.0444202 0
M  V30 3277 H 435.979 -6.23209 0.660562 0
M  V30 3278 H 437.777 -5.69466 -2.79593 0
M  V30 3279 P 439.635 -8.4349 -2.47671 0
M  V30 3280 O 441.036 -8.99283 -2.62101 0
M  V30 3281 O 439.257 -7.81195 -1.16947 0
M  V30 3282 O 439.312 -7.36797 -3.63761 0
M  V30 3283 C 439.152 -7.95349 -4.982 0
M  V30 3284 C 439.692 -6.94537 -5.98908 0
M  V30 3285 O 438.636 -6.10277 -6.11744 0
M  V30 3286 C 440.909 -6.11426 -5.62335 0
M  V30 3287 O 441.648 -5.6162 -6.70584 0
M  V30 3288 C 440.242 -5.04409 -4.73308 0
M  V30 3289 O 441.04 -3.85929 -4.75106 0
M  V30 3290 C 438.904 -4.8728 -5.41006 0
M  V30 3291 N 437.861 -4.65812 -4.42377 0
M  V30 3292 C 436.826 -3.81293 -4.74224 0
M  V30 3293 O 436.865 -3.20533 -5.83679 0
M  V30 3294 N 435.814 -3.6442 -3.86349 0
M  V30 3295 C 435.862 -4.2728 -2.6824 0
M  V30 3296 C 436.958 -5.10813 -2.3217 0
M  V30 3297 C 437.924 -5.27909 -3.22647 0
M  V30 3298 H 438.936 -4.02278 -6.11074 0
M  V30 3299 H 440.119 -5.39013 -3.70026 0
M  V30 3300 H 441.603 -6.71494 -5.02675 0
M  V30 3301 H 439.909 -7.45796 -6.94223 0
M  V30 3302 H 439.718 -8.89416 -5.05237 0
M  V30 3303 H 438.088 -8.14791 -5.18355 0
M  V30 3304 H 437.006 -5.58884 -1.34755 0
M  V30 3305 H 438.77 -5.92811 -2.9934 0
M  V30 3306 H 440.824 -3.3454 -5.51577 0
M  V30 3307 P 442.586 -5.75688 -6.64379 0
M  V30 3308 O 444.008 -6.07627 -7.05504 0
M  V30 3309 O 442.226 -5.88047 -5.19722 0
M  V30 3310 O 442.263 -4.2322 -7.04443 0
M  V30 3311 C 442.103 -3.99743 -8.4911 0
M  V30 3312 C 442.643 -2.60516 -8.79425 0
M  V30 3313 O 441.587 -1.82684 -8.4467 0
M  V30 3314 C 443.861 -2.10343 -8.03628 0
M  V30 3315 O 444.599 -1.09919 -8.67766 0
M  V30 3316 C 443.192 -1.68446 -6.70876 0
M  V30 3317 O 443.991 -0.678137 -6.08433 0
M  V30 3318 C 441.855 -1.17436 -7.18567 0
M  V30 3319 H 441.887 -0.0804732 -7.31656 0
M  V30 3320 H 443.07 -2.54037 -6.02537 0
M  V30 3321 H 444.554 -2.93881 -7.85526 0
M  V30 3322 H 442.86 -2.53065 -9.86973 0
M  V30 3323 H 442.67 -4.75072 -9.05887 0
M  V30 3324 H 441.04 -4.05244 -8.76668 0
M  V30 3325 H 443.679 0.177647 -6.34251 0
M  V30 3326 P 445.536 -1.25109 -8.70152 0
M  V30 3327 O 446.958 -1.29744 -9.22016 0
M  V30 3328 O 445.176 -2.13714 -7.55141 0
M  V30 3329 O 445.213 0.248149 -8.21425 0
M  V30 3330 C 445.053 1.22779 -9.30434 0
M  V30 3331 C 445.593 2.56293 -8.80664 0
M  V30 3332 O 444.537 3.02979 -8.09349 0
M  V30 3333 C 446.811 2.57523 -7.89775 0
M  V30 3334 O 447.549 3.7668 -7.89438 0
M  V30 3335 C 446.142 2.20997 -6.55446 0
M  V30 3336 O 446.941 2.71895 -5.48509 0
M  V30 3337 C 444.805 2.89693 -6.67988 0
M  V30 3338 H 444.837 3.88793 -6.19859 0
M  V30 3339 H 446.02 1.12046 -6.44229 0
M  V30 3340 H 447.504 1.7746 -8.19711 0
M  V30 3341 H 445.81 3.20706 -9.67112 0
M  V30 3342 H 445.62 0.901032 -10.1892 0
M  V30 3343 H 443.99 1.33049 -9.56592 0
M  V30 3344 H 446.629 3.57847 -5.23962 0
M  V30 3345 P 448.487 3.65191 -7.99657 0
M  V30 3346 O 449.908 3.89374 -8.45885 0
M  V30 3347 O 448.127 2.28472 -7.50807 0
M  V30 3348 O 448.164 4.64972 -6.77611 0
M  V30 3349 C 448.003 6.06383 -7.16428 0
M  V30 3350 C 448.544 6.91731 -6.02299 0
M  V30 3351 O 447.489 6.92369 -5.17005 0
M  V30 3352 C 449.762 6.43627 -5.25174 0
M  V30 3353 O 450.5 7.43686 -4.60469 0
M  V30 3354 C 449.094 5.40275 -4.31916 0
M  V30 3355 O 449.892 5.24878 -3.14911 0
M  V30 3356 C 447.756 6.04847 -4.05327 0
M  V30 3357 N 446.713 5.04166 -3.98114 0
M  V30 3358 C 446.882 3.84629 -4.59066 0
M  V30 3359 N 445.855 3.0363 -4.45343 0
M  V30 3360 C 444.97 3.76722 -3.68523 0
M  V30 3361 C 443.703 3.43528 -3.17088 0
M  V30 3362 N 443.104 2.23665 -3.37397 0
M  V30 3363 N 443.138 4.44526 -2.44231 0
M  V30 3364 C 443.74 5.65243 -2.20146 0
M  V30 3365 N 444.917 6.00221 -2.65453 0
M  V30 3366 C 445.492 5.00564 -3.39083 0
M  V30 3367 H 447.788 6.62104 -3.11218 0
M  V30 3368 H 448.971 4.42969 -4.80867 0
M  V30 3369 H 450.454 5.92458 -5.93643 0
M  V30 3370 H 448.76 7.93295 -6.39407 0
M  V30 3371 H 448.57 6.26671 -8.0846 0
M  V30 3372 H 446.94 6.29101 -7.32804 0
M  V30 3373 H 443.204 6.36894 -1.5883 0
M  V30 3374 H 447.782 3.58193 -5.14248 0
M  V30 3375 H 442.174 2.05145 -2.97047 0
M  V30 3376 H 443.578 1.51255 -3.92998 0
M  V30 3377 H 449.58 5.84223 -2.47279 0
M  V30 3378 P 451.437 7.39546 -4.75277 0
M  V30 3379 O 452.859 7.84798 -5.01039 0
M  V30 3380 O 451.077 5.9812 -5.08098 0
M  V30 3381 O 451.114 7.57503 -3.1866 0
M  V30 3382 C 450.954 8.97357 -2.74833 0
M  V30 3383 C 451.494 9.07548 -1.32709 0
M  V30 3384 O 450.438 8.62072 -0.606159 0
M  V30 3385 C 452.712 8.25383 -0.938334 0
M  V30 3386 O 453.45 8.74577 0.146954 0
M  V30 3387 C 452.043 6.8802 -0.712559 0
M  V30 3388 O 452.842 6.1189 0.194655 0
M  V30 3389 C 450.706 7.27966 -0.139777 0
M  V30 3390 H 450.738 7.25354 0.961601 0
M  V30 3391 H 451.921 6.32557 -1.65702 0
M  V30 3392 H 453.405 8.19355 -1.79097 0
M  V30 3393 H 451.711 10.1294 -1.10029 0
M  V30 3394 H 451.521 9.64276 -3.41316 0
M  V30 3395 H 449.891 9.25417 -2.76357 0
M  V30 3396 H 452.53 6.25267 1.07847 0
M  V30 3397 P 454.388 8.791 2.59334e-12 0
M  V30 3398 O 455.81 9.31096 0.027933 0
M  V30 3399 O 454.028 7.77869 -1.04071 0
M  V30 3400 O 454.065 8.09533 1.41463 0
M  V30 3401 C 453.905 9.0349 2.53943 0
M  V30 3402 C 454.445 8.35226 3.79016 0
M  V30 3403 O 453.389 7.57992 4.15078 0
M  V30 3404 C 455.663 7.45087 3.67298 0
M  V30 3405 O 456.401 7.27796 4.85194 0
M  V30 3406 C 454.994 6.17323 3.12027 0
M  V30 3407 O 455.793 5.04231 3.47188 0
M  V30 3408 C 453.657 6.19961 3.81809 0
M  V30 3409 H 453.689 5.58218 4.73051 0
M  V30 3410 H 454.872 6.21726 2.02589 0
M  V30 3411 H 456.356 7.86112 2.9231 0
M  V30 3412 H 454.662 9.11627 4.55076 0
M  V30 3413 H 454.472 9.9573 2.34194 0
M  V30 3414 H 452.842 9.2792 2.67832 0
M  V30 3415 H 455.481 4.67702 4.28772 0
M  V30 3416 P 457.338 7.39546 4.75277 0
M  V30 3417 O 458.739 7.89013 5.04841 0
M  V30 3418 O 456.96 7.16603 3.32298 0
M  V30 3419 O 457.015 6.04468 5.56605 0
M  V30 3420 C 456.855 6.22772 7.02095 0
M  V30 3421 C 457.395 4.97671 7.70322 0
M  V30 3422 O 456.339 4.13208 7.58899 0
M  V30 3423 C 458.612 4.28231 7.11815 0
M  V30 3424 O 459.351 3.49945 8.01648 0
M  V30 3425 C 457.945 3.5063 5.96244 0
M  V30 3426 O 458.743 2.36443 5.64589 0
M  V30 3427 C 456.607 3.15122 6.56374 0
M  V30 3428 N 455.564 3.22311 5.55692 0
M  V30 3429 C 454.529 2.32244 5.62437 0
M  V30 3430 O 454.568 1.43107 6.50341 0
M  V30 3431 N 453.517 2.40811 4.73368 0
M  V30 3432 C 453.565 3.344 3.77753 0
M  V30 3433 C 454.661 4.24712 3.66679 0
M  V30 3434 C 455.627 4.15625 4.58307 0
M  V30 3435 H 456.639 2.13823 6.99656 0
M  V30 3436 H 457.822 4.12931 5.06895 0
M  V30 3437 H 459.306 5.02674 6.71494 0
M  V30 3438 H 457.612 5.20001 8.76217 0
M  V30 3439 H 457.421 7.11046 7.35349 0
M  V30 3440 H 455.791 6.35749 7.26911 0
M  V30 3441 H 454.709 4.9828 2.86753 0
M  V30 3442 H 456.473 4.84464 4.54228 0
M  V30 3443 H 458.527 1.65592 6.23485 0
M  V30 3444 P 460.289 3.65191 7.99657 0
M  V30 3445 O 461.71 3.84292 8.48206 0
M  V30 3446 O 459.929 4.17805 6.64342 0
M  V30 3447 O 459.966 2.07613 7.95143 0
M  V30 3448 C 459.805 1.44344 9.27435 0
M  V30 3449 C 460.346 0.0220036 9.17197 0
M  V30 3450 O 459.291 -0.626794 8.61824 0
M  V30 3451 C 461.564 -0.24586 8.30336 0
M  V30 3452 O 462.302 -1.39011 8.63583 0
M  V30 3453 C 460.896 -0.273849 6.91158 0
M  V30 3454 O 461.694 -1.05728 6.029 0
M  V30 3455 C 459.558 -0.897649 7.22545 0
M  V30 3456 N 458.515 -0.292839 6.41732 0
M  V30 3457 C 458.684 0.950603 5.91308 0
M  V30 3458 N 457.657 1.37732 5.21105 0
M  V30 3459 C 456.772 0.318109 5.26039 0
M  V30 3460 C 455.505 0.146766 4.6727 0
M  V30 3461 N 454.94 -1.06525 4.95887 0
M  V30 3462 C 455.542 -2.0378 5.71347 0
M  V30 3463 N 456.719 -1.92445 6.27451 0
M  V30 3464 C 457.294 -0.715382 6.00353 0
M  V30 3465 H 460.773 0.733318 6.49674 0
M  V30 3466 H 462.256 0.60668 8.36503 0
M  V30 3467 H 460.562 -0.362662 10.1825 0
M  V30 3468 H 460.372 2.00611 10.0304 0
M  V30 3469 H 458.742 1.41843 9.55327 0
M  V30 3470 H 459.584 1.54076 6.07465 0
M  V30 3471 H 461.382 -1.95704 6.0346 0
M  V30 3472 P 463.239 -1.25109 8.70152 0
M  V30 3473 O 464.66 -1.35288 9.2132 0
M  V30 3474 O 462.879 -0.0769065 7.84762 0
M  V30 3475 O 462.916 -2.55232 7.81161 0
M  V30 3476 C 462.755 -3.79979 8.58246 0
M  V30 3477 C 463.296 -4.94023 7.72785 0
M  V30 3478 O 462.241 -5.18666 6.91125 0
M  V30 3479 C 464.514 -4.69597 6.85231 0
M  V30 3480 O 465.252 -5.83832 6.51337 0
M  V30 3481 C 463.846 -3.96706 5.66633 0
M  V30 3482 O 464.644 -4.14896 4.5003 0
M  V30 3483 C 462.508 -4.66153 5.59313 0
M  V30 3484 N 461.465 -3.71582 5.24027 0
M  V30 3485 C 461.634 -2.39715 5.48833 0
M  V30 3486 N 460.607 -1.65863 5.12845 0
M  V30 3487 C 459.722 -2.57637 4.5973 0
M  V30 3488 C 458.455 -2.40278 4.01027 0
M  V30 3489 N 457.89 -3.57711 3.59575 0
M  V30 3490 C 458.492 -4.80324 3.70476 0
M  V30 3491 N 459.669 -5.01121 4.23801 0
M  V30 3492 C 460.244 -3.84757 4.66372 0
M  V30 3493 H 463.723 -2.8955 5.86187 0
M  V30 3494 H 465.206 -4.0121 7.36511 0
M  V30 3495 H 463.512 -5.81019 8.37003 0
M  V30 3496 H 463.322 -3.73517 9.52265 0
M  V30 3497 H 461.692 -3.97163 8.80359 0
M  V30 3498 H 462.534 -1.98804 5.94332 0
M  V30 3499 H 464.332 -4.90891 4.01857 0
M  V30 3500 P 466.19 -5.75688 6.64379 0
M  V30 3501 O 467.612 -6.11849 7.01846 0
M  V30 3502 O 465.83 -4.30744 6.56026 0
M  V30 3503 O 465.867 -6.37042 5.19165 0
M  V30 3504 C 465.707 -7.83578 5.16515 0
M  V30 3505 C 466.247 -8.33398 3.83019 0
M  V30 3506 O 465.191 -8.10074 3.01034 0
M  V30 3507 C 467.465 -7.65514 3.2257 0
M  V30 3508 O 468.203 -8.4329 2.32297 0
M  V30 3509 C 466.796 -6.40075 2.62207 0
M  V30 3510 O 467.595 -5.92589 1.53712 0
M  V30 3511 C 465.459 -6.9454 2.18503 0
M  V30 3512 H 465.491 -7.23063 1.12091 0
M  V30 3513 H 466.674 -5.6025 3.37201 0
M  V30 3514 H 468.158 -7.35707 4.02681 0
M  V30 3515 H 466.464 -9.40912 3.9095 0
M  V30 3516 H 466.274 -8.29056 5.99158 0
M  V30 3517 H 464.644 -8.10073 5.25882 0
M  V30 3518 H 467.283 -6.30324 0.726794 0
M  V30 3519 P 469.141 -8.4349 2.47671 0
M  V30 3520 O 470.563 -8.94167 2.5964 0
M  V30 3521 O 468.781 -7.1704 3.19006 0
M  V30 3522 O 468.818 -8.16596 0.923387 0
M  V30 3523 C 468.658 -9.38437 0.108857 0
M  V30 3524 C 469.198 -9.08175 -1.28353 0
M  V30 3525 O 468.142 -8.44229 -1.84713 0
M  V30 3526 C 470.416 -8.18386 -1.42505 0
M  V30 3527 O 471.154 -8.3501 -2.60497 0
M  V30 3528 C 469.747 -6.80225 -1.25468 0
M  V30 3529 O 470.546 -5.81621 -1.91066 0
M  V30 3530 C 468.41 -7.02416 -1.9168 0
M  V30 3531 H 468.442 -6.6888 -2.96621 0
M  V30 3532 H 469.625 -6.53617 -0.192223 0
M  V30 3533 H 471.109 -8.36622 -0.589963 0
M  V30 3534 H 469.415 -10.0291 -1.79807 0
M  V30 3535 H 469.225 -10.2138 0.558219 0
M  V30 3536 H 467.595 -9.6579 0.0444202 0
M  V30 3537 H 470.234 -5.69556 -2.79637 0
M  V30 3538 P 472.091 -8.4349 -2.47671 0
M  V30 3539 O 473.513 -8.92593 -2.65 0
M  V30 3540 O 471.731 -7.7568 -1.19296 0
M  V30 3541 O 471.768 -7.36886 -3.63805 0
M  V30 3542 C 471.608 -7.95349 -4.982 0
M  V30 3543 C 472.148 -6.94612 -5.98974 0
M  V30 3544 O 471.092 -6.10347 -6.11815 0
M  V30 3545 C 473.366 -6.11426 -5.62335 0
M  V30 3546 O 474.104 -5.6162 -6.70584 0
M  V30 3547 C 472.697 -5.04409 -4.73308 0
M  V30 3548 O 473.496 -3.85992 -4.75183 0
M  V30 3549 C 471.36 -4.8728 -5.41006 0
M  V30 3550 H 471.392 -4.02333 -6.11157 0
M  V30 3551 H 472.575 -5.39466 -3.69543 0
M  V30 3552 H 474.059 -6.71916 -5.01943 0
M  V30 3553 H 472.365 -7.4649 -6.93477 0
M  V30 3554 H 472.175 -8.89416 -5.05237 0
M  V30 3555 H 470.545 -8.14876 -5.18409 0
M  V30 3556 H 473.184 -3.27957 -5.4317 0
M  V30 3557 P 475.042 -5.75688 -6.64379 0
M  V30 3558 O 476.463 -6.07692 -7.0558 0
M  V30 3559 O 474.682 -5.88047 -5.19722 0
M  V30 3560 O 474.719 -4.2322 -7.04443 0
M  V30 3561 C 474.558 -3.99785 -8.49201 0
M  V30 3562 C 475.099 -2.60516 -8.79425 0
M  V30 3563 O 474.044 -1.82663 -8.44573 0
M  V30 3564 C 476.317 -2.10343 -8.03628 0
M  V30 3565 O 477.055 -1.09919 -8.67766 0
M  V30 3566 C 475.649 -1.68446 -6.70876 0
M  V30 3567 O 476.447 -0.684109 -6.08265 0
M  V30 3568 C 474.311 -1.17436 -7.18567 0
M  V30 3569 N 473.268 -1.52699 -6.23988 0
M  V30 3570 C 473.437 -2.578 -5.40574 0
M  V30 3571 N 472.41 -2.78966 -4.61193 0
M  V30 3572 C 471.525 -1.78725 -4.95769 0
M  V30 3573 C 470.258 -1.45727 -4.44207 0
M  V30 3574 N 469.659 -2.13994 -3.43613 0
M  V30 3575 N 469.693 -0.374977 -5.05812 0
M  V30 3576 C 470.295 0.345585 -6.05615 0
M  V30 3577 N 471.472 0.0787651 -6.56253 0
M  V30 3578 C 472.047 -1.00499 -5.96189 0
M  V30 3579 H 474.343 -0.0804622 -7.31556 0
M  V30 3580 H 475.526 -2.53396 -6.02698 0
M  V30 3581 H 477.009 -2.93881 -7.85526 0
M  V30 3582 H 475.315 -2.52078 -9.87225 0
M  V30 3583 H 475.125 -4.75072 -9.05887 0
M  V30 3584 H 473.495 -4.05244 -8.76668 0
M  V30 3585 H 469.759 1.20098 -6.4532 0
M  V30 3586 H 474.337 -3.18977 -5.3945 0
M  V30 3587 H 468.729 -1.84983 -3.10004 0
M  V30 3588 H 470.133 -2.9465 -3.00843 0
M  V30 3589 H 476.135 0.177619 -6.34151 0
M  V30 3590 P 477.992 -1.25109 -8.70152 0
M  V30 3591 O 479.414 -1.29744 -9.22016 0
M  V30 3592 O 477.632 -2.13714 -7.55141 0
M  V30 3593 O 477.669 0.248149 -8.21425 0
M  V30 3594 C 477.509 1.22779 -9.30434 0
M  V30 3595 C 478.049 2.56293 -8.80664 0
M  V30 3596 O 476.993 3.02979 -8.09349 0
M  V30 3597 C 479.267 2.57523 -7.89775 0
M  V30 3598 O 480.005 3.7668 -7.89438 0
M  V30 3599 C 478.598 2.20997 -6.55446 0
M  V30 3600 O 479.397 2.71895 -5.48509 0
M  V30 3601 C 477.261 2.89693 -6.67988 0
M  V30 3602 H 477.293 3.88793 -6.19859 0
M  V30 3603 H 478.476 1.12046 -6.44229 0
M  V30 3604 H 479.96 1.7746 -8.19711 0
M  V30 3605 H 478.266 3.20706 -9.67112 0
M  V30 3606 H 478.076 0.901032 -10.1892 0
M  V30 3607 H 476.446 1.33049 -9.56592 0
M  V30 3608 H 479.085 3.57847 -5.23962 0
M  V30 3609 P 480.943 3.65191 -7.99657 0
M  V30 3610 O 482.365 3.89332 -8.45794 0
M  V30 3611 O 480.583 2.28472 -7.50807 0
M  V30 3612 O 480.62 4.64972 -6.77611 0
M  V30 3613 C 480.46 6.06319 -7.16352 0
M  V30 3614 C 481 6.91731 -6.02299 0
M  V30 3615 O 479.944 6.92449 -5.17064 0
M  V30 3616 C 482.218 6.43627 -5.25174 0
M  V30 3617 O 482.956 7.43686 -4.60469 0
M  V30 3618 C 481.549 5.40275 -4.31916 0
M  V30 3619 O 482.348 5.25279 -3.14438 0
M  V30 3620 C 480.212 6.04847 -4.05327 0
M  V30 3621 H 480.244 6.62195 -3.11261 0
M  V30 3622 H 481.427 4.42556 -4.81383 0
M  V30 3623 H 482.911 5.92458 -5.93643 0
M  V30 3624 H 481.217 7.92655 -6.402 0
M  V30 3625 H 481.027 6.26671 -8.0846 0
M  V30 3626 H 479.397 6.29101 -7.32804 0
M  V30 3627 H 482.036 5.84315 -2.47318 0
M  V30 3628 P 483.893 7.39546 -4.75277 0
M  V30 3629 O 485.314 7.84882 -5.01092 0
M  V30 3630 O 483.533 5.9812 -5.08098 0
M  V30 3631 O 483.57 7.57503 -3.1866 0
M  V30 3632 C 483.409 8.97452 -2.74862 0
M  V30 3633 C 483.95 9.07548 -1.32709 0
M  V30 3634 O 482.895 8.61972 -0.606089 0
M  V30 3635 C 485.168 8.25383 -0.938334 0
M  V30 3636 O 485.906 8.74577 0.146954 0
M  V30 3637 C 484.5 6.8802 -0.712559 0
M  V30 3638 O 485.298 6.1181 0.188505 0
M  V30 3639 C 483.162 7.27966 -0.139777 0
M  V30 3640 N 482.119 6.39368 -0.623421 0
M  V30 3641 C 482.288 5.71761 -1.78245 0
M  V30 3642 N 481.261 4.962 -2.10491 0
M  V30 3643 C 480.376 5.16158 -1.0635 0
M  V30 3644 C 479.109 4.60425 -0.810266 0
M  V30 3645 N 478.544 5.06 0.348685 0
M  V30 3646 C 479.146 5.94532 1.20395 0
M  V30 3647 N 480.323 6.48452 1.01191 0
M  V30 3648 C 480.898 6.04423 -0.146291 0
M  V30 3649 H 484.377 6.32625 -1.65044 0
M  V30 3650 H 485.86 8.19355 -1.79097 0
M  V30 3651 H 484.166 10.1305 -1.09016 0
M  V30 3652 H 483.976 9.64276 -3.41316 0
M  V30 3653 H 482.346 9.25417 -2.76357 0
M  V30 3654 H 483.188 5.79354 -2.38959 0
M  V30 3655 H 484.986 6.25169 1.0783 0
M  V30 3656 P 486.844 8.791 2.9035e-12 0
M  V30 3657 O 488.266 9.31296 0.027939 0
M  V30 3658 O 486.484 7.77869 -1.04071 0
M  V30 3659 O 486.521 8.09533 1.41463 0
M  V30 3660 C 486.361 9.0349 2.53943 0
M  V30 3661 C 486.901 8.35135 3.78975 0
M  V30 3662 O 485.846 7.57992 4.15078 0
M  V30 3663 C 488.119 7.45087 3.67298 0
M  V30 3664 O 488.857 7.27796 4.85194 0
M  V30 3665 C 487.451 6.17323 3.12027 0
M  V30 3666 O 488.249 5.04149 3.47132 0
M  V30 3667 C 486.113 6.19961 3.81809 0
M  V30 3668 N 485.07 5.71575 2.93223 0
M  V30 3669 C 485.132 5.97133 1.62693 0
M  V30 3670 N 484.087 5.44066 0.984414 0
M  V30 3671 C 483.353 4.87093 1.93987 0
M  V30 3672 C 482.047 4.26449 1.8738 0
M  V30 3673 O 481.314 4.1089 0.884377 0
M  V30 3674 N 481.617 3.82483 3.08036 0
M  V30 3675 C 482.366 3.95124 4.27727 0
M  V30 3676 N 481.769 3.4084 5.39089 0
M  V30 3677 N 483.519 4.55264 4.3706 0
M  V30 3678 C 483.976 5.00861 3.18217 0
M  V30 3679 H 486.145 5.58218 4.73051 0
M  V30 3680 H 487.328 6.21631 2.02558 0
M  V30 3681 H 488.813 7.85819 2.93096 0
M  V30 3682 H 487.118 9.11627 4.55076 0
M  V30 3683 H 486.928 9.9573 2.34194 0
M  V30 3684 H 485.297 9.2792 2.67832 0
M  V30 3685 H 480.721 3.38323 3.1329 0
M  V30 3686 H 485.928 6.53891 1.14265 0
M  V30 3687 H 480.858 2.93852 5.30559 0
M  V30 3688 H 482.234 3.47631 6.30632 0
M  V30 3689 H 487.938 4.67628 4.28704 0
M  V30 3690 P 489.795 7.39546 4.75277 0
M  V30 3691 O 491.216 7.81861 5.05793 0
M  V30 3692 O 489.435 7.1065 3.32998 0
M  V30 3693 O 489.472 6.04542 5.56673 0
M  V30 3694 C 489.311 6.22839 7.02169 0
M  V30 3695 C 489.852 4.97725 7.70406 0
M  V30 3696 O 488.797 4.13208 7.58899 0
M  V30 3697 C 491.07 4.28231 7.11815 0
M  V30 3698 O 491.808 3.49945 8.01648 0
M  V30 3699 C 490.402 3.5063 5.96244 0
M  V30 3700 O 491.2 2.37008 5.64352 0
M  V30 3701 C 489.064 3.15122 6.56374 0
M  V30 3702 N 488.021 3.22311 5.55692 0
M  V30 3703 C 488.19 3.99655 4.46046 0
M  V30 3704 N 487.163 3.97599 3.63918 0
M  V30 3705 C 486.278 3.11159 4.25334 0
M  V30 3706 C 485.011 2.64972 3.85157 0
M  V30 3707 N 484.446 1.78482 4.74759 0
M  V30 3708 C 485.048 1.37463 5.90819 0
M  V30 3709 N 486.225 1.7733 6.31889 0
M  V30 3710 C 486.8 2.64393 5.43725 0
M  V30 3711 H 490.279 4.12931 5.06895 0
M  V30 3712 H 491.762 5.03285 6.70911 0
M  V30 3713 H 490.068 5.20001 8.76217 0
M  V30 3714 H 489.878 7.11046 7.35349 0
M  V30 3715 H 488.248 6.35815 7.26986 0
M  V30 3716 H 489.09 4.58037 4.27732 0
M  V30 3717 H 490.888 1.61619 6.13468 0
M  V30 3718 P 492.745 3.65191 7.99657 0
M  V30 3719 O 494.146 3.90823 8.51272 0
M  V30 3720 O 492.367 4.23191 6.66972 0
M  V30 3721 O 492.422 2.07587 7.95046 0
M  V30 3722 C 492.262 1.44328 9.27336 0
M  V30 3723 C 492.802 0.0220012 9.17097 0
M  V30 3724 O 491.746 -0.626794 8.61824 0
M  V30 3725 C 494.019 -0.24586 8.30336 0
M  V30 3726 O 494.758 -1.39011 8.63583 0
M  V30 3727 C 493.352 -0.273849 6.91158 0
M  V30 3728 O 494.15 -1.06331 6.02794 0
M  V30 3729 C 492.014 -0.897649 7.22545 0
M  V30 3730 N 490.971 -0.292839 6.41732 0
M  V30 3731 C 489.936 -1.08701 5.98712 0
M  V30 3732 O 489.975 -2.31211 6.24471 0
M  V30 3733 N 488.924 -0.533391 5.28415 0
M  V30 3734 C 488.972 0.770866 4.98576 0
M  V30 3735 C 490.068 1.59049 5.38086 0
M  V30 3736 C 491.034 1.01866 6.10256 0
M  V30 3737 H 492.046 -1.98383 7.04189 0
M  V30 3738 H 493.229 0.733318 6.49674 0
M  V30 3739 H 494.713 0.598386 8.36663 0
M  V30 3740 H 493.019 -0.362662 10.1825 0
M  V30 3741 H 492.828 2.00611 10.0304 0
M  V30 3742 H 491.198 1.41828 9.55228 0
M  V30 3743 H 490.116 2.6415 5.10622 0
M  V30 3744 H 491.88 1.61983 6.44042 0
M  V30 3745 H 493.934 -1.97777 6.14035 0
M  V30 3746 P 495.696 -1.25109 8.70152 0
M  V30 3747 O 497.117 -1.35288 9.2132 0
M  V30 3748 O 495.336 -0.0769065 7.84762 0
M  V30 3749 O 495.373 -2.55232 7.81161 0
M  V30 3750 C 495.212 -3.79979 8.58246 0
M  V30 3751 C 495.753 -4.94023 7.72785 0
M  V30 3752 O 494.698 -5.18666 6.91125 0
M  V30 3753 C 496.971 -4.69597 6.85231 0
M  V30 3754 O 497.709 -5.83832 6.51337 0
M  V30 3755 C 496.303 -3.96706 5.66633 0
M  V30 3756 O 497.101 -4.14896 4.5003 0
M  V30 3757 C 494.965 -4.66153 5.59313 0
M  V30 3758 N 493.922 -3.71582 5.24027 0
M  V30 3759 C 494.091 -2.39715 5.48833 0
M  V30 3760 N 493.064 -1.65863 5.12845 0
M  V30 3761 C 492.179 -2.57637 4.5973 0
M  V30 3762 C 490.912 -2.40278 4.01027 0
M  V30 3763 N 490.347 -3.57711 3.59575 0
M  V30 3764 C 490.949 -4.80324 3.70476 0
M  V30 3765 N 492.126 -5.01121 4.23801 0
M  V30 3766 C 492.701 -3.84757 4.66372 0
M  V30 3767 H 496.18 -2.8955 5.86187 0
M  V30 3768 H 497.663 -4.0121 7.36511 0
M  V30 3769 H 495.969 -5.81019 8.37003 0
M  V30 3770 H 495.779 -3.73517 9.52265 0
M  V30 3771 H 494.149 -3.97163 8.80359 0
M  V30 3772 H 494.991 -1.98804 5.94332 0
M  V30 3773 H 496.789 -4.90891 4.01857 0
M  V30 3774 P 498.646 -5.75688 6.64379 0
M  V30 3775 O 500.068 -6.11849 7.01846 0
M  V30 3776 O 498.286 -4.30744 6.56026 0
M  V30 3777 O 498.323 -6.37042 5.19165 0
M  V30 3778 C 498.163 -7.83578 5.16515 0
M  V30 3779 C 498.703 -8.33398 3.83019 0
M  V30 3780 O 497.647 -8.10074 3.01034 0
M  V30 3781 C 499.921 -7.65514 3.2257 0
M  V30 3782 O 500.659 -8.4329 2.32297 0
M  V30 3783 C 499.252 -6.40075 2.62207 0
M  V30 3784 O 500.051 -5.92589 1.53712 0
M  V30 3785 C 497.915 -6.9454 2.18503 0
M  V30 3786 H 497.947 -7.23063 1.12091 0
M  V30 3787 H 499.13 -5.6025 3.37201 0
M  V30 3788 H 500.614 -7.35707 4.02681 0
M  V30 3789 H 498.92 -9.40912 3.9095 0
M  V30 3790 H 498.73 -8.29056 5.99158 0
M  V30 3791 H 497.1 -8.10073 5.25882 0
M  V30 3792 H 499.739 -6.30324 0.726794 0
M  V30 3793 P 501.597 -8.4349 2.47671 0
M  V30 3794 O 503.019 -8.94167 2.5964 0
M  V30 3795 O 501.237 -7.1704 3.19006 0
M  V30 3796 O 501.274 -8.16596 0.923387 0
M  V30 3797 C 501.114 -9.38437 0.108857 0
M  V30 3798 C 501.654 -9.08175 -1.28353 0
M  V30 3799 O 500.598 -8.44229 -1.84713 0
M  V30 3800 C 502.872 -8.18386 -1.42505 0
M  V30 3801 O 503.61 -8.3501 -2.60497 0
M  V30 3802 C 502.203 -6.80225 -1.25468 0
M  V30 3803 O 503.002 -5.81621 -1.91066 0
M  V30 3804 C 500.866 -7.02416 -1.9168 0
M  V30 3805 H 500.898 -6.6888 -2.96621 0
M  V30 3806 H 502.081 -6.53617 -0.192223 0
M  V30 3807 H 503.565 -8.36622 -0.589963 0
M  V30 3808 H 501.871 -10.0291 -1.79807 0
M  V30 3809 H 501.681 -10.2138 0.558219 0
M  V30 3810 H 500.051 -9.6579 0.0444202 0
M  V30 3811 H 502.69 -5.69556 -2.79637 0
M  V30 3812 P 504.547 -8.4349 -2.47671 0
M  V30 3813 O 505.948 -8.99283 -2.62101 0
M  V30 3814 O 504.169 -7.81195 -1.16947 0
M  V30 3815 O 504.224 -7.36797 -3.63761 0
M  V30 3816 C 504.064 -7.95349 -4.982 0
M  V30 3817 C 504.604 -6.94537 -5.98908 0
M  V30 3818 O 503.548 -6.10277 -6.11744 0
M  V30 3819 C 505.821 -6.11426 -5.62335 0
M  V30 3820 O 506.56 -5.6162 -6.70584 0
M  V30 3821 C 505.154 -5.04409 -4.73308 0
M  V30 3822 O 505.952 -3.85929 -4.75106 0
M  V30 3823 C 503.816 -4.8728 -5.41006 0
M  V30 3824 N 502.773 -4.65812 -4.42377 0
M  V30 3825 C 501.738 -3.81293 -4.74224 0
M  V30 3826 O 501.777 -3.20533 -5.83679 0
M  V30 3827 N 500.726 -3.6442 -3.86349 0
M  V30 3828 C 500.774 -4.2728 -2.6824 0
M  V30 3829 C 501.87 -5.10813 -2.3217 0
M  V30 3830 C 502.836 -5.27909 -3.22647 0
M  V30 3831 H 503.848 -4.02278 -6.11074 0
M  V30 3832 H 505.031 -5.39013 -3.70026 0
M  V30 3833 H 506.515 -6.71494 -5.02675 0
M  V30 3834 H 504.821 -7.45796 -6.94223 0
M  V30 3835 H 504.63 -8.89416 -5.05237 0
M  V30 3836 H 503 -8.14791 -5.18355 0
M  V30 3837 H 501.918 -5.58884 -1.34755 0
M  V30 3838 H 503.682 -5.92811 -2.9934 0
M  V30 3839 H 505.736 -3.3454 -5.51577 0
M  V30 3840 P 507.498 -5.75688 -6.64379 0
M  V30 3841 O 508.92 -6.07627 -7.05504 0
M  V30 3842 O 507.138 -5.88047 -5.19722 0
M  V30 3843 O 507.175 -4.2322 -7.04443 0
M  V30 3844 C 507.015 -3.99743 -8.4911 0
M  V30 3845 C 507.555 -2.60516 -8.79425 0
M  V30 3846 O 506.499 -1.82684 -8.4467 0
M  V30 3847 C 508.773 -2.10343 -8.03628 0
M  V30 3848 O 509.511 -1.09919 -8.67766 0
M  V30 3849 C 508.104 -1.68446 -6.70876 0
M  V30 3850 O 508.903 -0.678137 -6.08433 0
M  V30 3851 C 506.767 -1.17436 -7.18567 0
M  V30 3852 H 506.799 -0.0804732 -7.31656 0
M  V30 3853 H 507.982 -2.54037 -6.02537 0
M  V30 3854 H 509.466 -2.93881 -7.85526 0
M  V30 3855 H 507.772 -2.53065 -9.86973 0
M  V30 3856 H 507.582 -4.75072 -9.05887 0
M  V30 3857 H 505.952 -4.05244 -8.76668 0
M  V30 3858 H 508.591 0.177647 -6.34251 0
M  V30 3859 P 510.449 -1.25109 -8.70152 0
M  V30 3860 O 511.85 -1.3516 -9.26897 0
M  V30 3861 O 510.071 -2.18141 -7.59181 0
M  V30 3862 O 510.126 0.248118 -8.21325 0
M  V30 3863 C 509.966 1.22779 -9.30434 0
M  V30 3864 C 510.506 2.56265 -8.80568 0
M  V30 3865 O 509.45 3.02944 -8.09255 0
M  V30 3866 C 511.723 2.57523 -7.89775 0
M  V30 3867 O 512.462 3.7668 -7.89438 0
M  V30 3868 C 511.056 2.20997 -6.55446 0
M  V30 3869 O 511.854 2.71851 -5.48419 0
M  V30 3870 C 509.718 2.89693 -6.67988 0
M  V30 3871 N 508.675 2.08895 -6.07487 0
M  V30 3872 C 507.64 2.72974 -5.43836 0
M  V30 3873 O 507.679 3.97779 -5.34036 0
M  V30 3874 N 506.628 2.0005 -4.91983 0
M  V30 3875 C 506.676 0.66501 -5.00098 0
M  V30 3876 N 505.666 -0.0305439 -4.4919 0
M  V30 3877 C 507.772 -0.0100979 -5.61099 0
M  V30 3878 C 508.738 0.74189 -6.14236 0
M  V30 3879 H 509.75 3.8874 -6.19774 0
M  V30 3880 H 510.933 1.12673 -6.44018 0
M  V30 3881 H 512.417 1.783 -8.19631 0
M  V30 3882 H 510.723 3.21673 -9.66791 0
M  V30 3883 H 510.532 0.901032 -10.1892 0
M  V30 3884 H 508.902 1.33036 -9.56493 0
M  V30 3885 H 507.82 -1.09591 -5.64358 0
M  V30 3886 H 509.584 0.260263 -6.6359 0
M  V30 3887 H 504.876 0.460194 -4.04793 0
M  V30 3888 H 505.671 -1.05716 -4.53953 0
M  V30 3889 H 511.638 3.62759 -5.33442 0
M  V30 3890 P 513.399 3.65191 -7.99657 0
M  V30 3891 O 514.821 3.89332 -8.45794 0
M  V30 3892 O 513.039 2.28472 -7.50807 0
M  V30 3893 O 513.076 4.64972 -6.77611 0
M  V30 3894 C 512.916 6.06319 -7.16352 0
M  V30 3895 C 513.456 6.91731 -6.02299 0
M  V30 3896 O 512.4 6.92449 -5.17064 0
M  V30 3897 C 514.674 6.43627 -5.25174 0
M  V30 3898 O 515.412 7.43686 -4.60469 0
M  V30 3899 C 514.005 5.40275 -4.31916 0
M  V30 3900 O 514.804 5.25279 -3.14438 0
M  V30 3901 C 512.668 6.04847 -4.05327 0
M  V30 3902 H 512.7 6.62195 -3.11261 0
M  V30 3903 H 513.883 4.42556 -4.81383 0
M  V30 3904 H 515.367 5.92458 -5.93643 0
M  V30 3905 H 513.673 7.92655 -6.402 0
M  V30 3906 H 513.483 6.26671 -8.0846 0
M  V30 3907 H 511.853 6.29101 -7.32804 0
M  V30 3908 H 514.492 5.84315 -2.47318 0
M  V30 3909 P 516.35 7.39546 -4.75277 0
M  V30 3910 O 517.772 7.84798 -5.01039 0
M  V30 3911 O 515.99 5.9812 -5.08098 0
M  V30 3912 O 516.027 7.57503 -3.1866 0
M  V30 3913 C 515.867 8.97357 -2.74833 0
M  V30 3914 C 516.407 9.07548 -1.32709 0
M  V30 3915 O 515.351 8.62072 -0.606159 0
M  V30 3916 C 517.625 8.25383 -0.938334 0
M  V30 3917 O 518.363 8.74577 0.146954 0
M  V30 3918 C 516.956 6.8802 -0.712559 0
M  V30 3919 O 517.755 6.1189 0.194655 0
M  V30 3920 C 515.619 7.27966 -0.139777 0
M  V30 3921 H 515.651 7.25354 0.961601 0
M  V30 3922 H 516.834 6.32557 -1.65702 0
M  V30 3923 H 518.318 8.19355 -1.79097 0
M  V30 3924 H 516.624 10.1294 -1.10029 0
M  V30 3925 H 516.434 9.64276 -3.41316 0
M  V30 3926 H 514.804 9.25417 -2.76357 0
M  V30 3927 H 517.443 6.25267 1.07847 0
M  V30 3928 P 519.3 8.791 3.21367e-12 0
M  V30 3929 O 520.722 9.31096 0.027933 0
M  V30 3930 O 518.94 7.77869 -1.04071 0
M  V30 3931 O 518.977 8.09533 1.41463 0
M  V30 3932 C 518.817 9.0349 2.53943 0
M  V30 3933 C 519.357 8.35226 3.79016 0
M  V30 3934 O 518.301 7.57992 4.15078 0
M  V30 3935 C 520.575 7.45087 3.67298 0
M  V30 3936 O 521.313 7.27796 4.85194 0
M  V30 3937 C 519.906 6.17323 3.12027 0
M  V30 3938 O 520.705 5.04231 3.47188 0
M  V30 3939 C 518.569 6.19961 3.81809 0
M  V30 3940 H 518.601 5.58218 4.73051 0
M  V30 3941 H 519.784 6.21726 2.02589 0
M  V30 3942 H 521.268 7.86112 2.9231 0
M  V30 3943 H 519.574 9.11627 4.55076 0
M  V30 3944 H 519.384 9.9573 2.34194 0
M  V30 3945 H 517.754 9.2792 2.67832 0
M  V30 3946 H 520.393 4.67702 4.28772 0
M  V30 3947 P 522.251 7.39546 4.75277 0
M  V30 3948 O 523.673 7.81777 5.05738 0
M  V30 3949 O 521.891 7.1065 3.32998 0
M  V30 3950 O 521.928 6.04542 5.56673 0
M  V30 3951 C 521.768 6.22772 7.02095 0
M  V30 3952 C 522.308 4.97725 7.70406 0
M  V30 3953 O 521.252 4.13256 7.58987 0
M  V30 3954 C 523.526 4.28231 7.11815 0
M  V30 3955 O 524.264 3.49945 8.01648 0
M  V30 3956 C 522.857 3.5063 5.96244 0
M  V30 3957 O 523.656 2.36482 5.64681 0
M  V30 3958 C 521.52 3.15122 6.56374 0
M  V30 3959 H 521.552 2.13853 6.99751 0
M  V30 3960 H 522.735 4.13501 5.06559 0
M  V30 3961 H 524.219 5.03285 6.70911 0
M  V30 3962 H 522.525 5.20877 8.75697 0
M  V30 3963 H 522.335 7.11046 7.35349 0
M  V30 3964 H 520.705 6.35815 7.26986 0
M  V30 3965 H 523.344 1.61644 6.13565 0
M  V30 3966 P 525.201 3.65191 7.99657 0
M  V30 3967 O 526.622 3.84292 8.48206 0
M  V30 3968 O 524.841 4.17805 6.64342 0
M  V30 3969 O 524.878 2.07613 7.95143 0
M  V30 3970 C 524.717 1.44344 9.27435 0
M  V30 3971 C 525.258 0.0220036 9.17197 0
M  V30 3972 O 524.203 -0.626794 8.61824 0
M  V30 3973 C 526.476 -0.24586 8.30336 0
M  V30 3974 O 527.214 -1.39011 8.63583 0
M  V30 3975 C 525.808 -0.273849 6.91158 0
M  V30 3976 O 526.606 -1.05728 6.029 0
M  V30 3977 C 524.47 -0.897649 7.22545 0
M  V30 3978 N 523.427 -0.292839 6.41732 0
M  V30 3979 C 523.596 0.950603 5.91308 0
M  V30 3980 N 522.569 1.37732 5.21105 0
M  V30 3981 C 521.684 0.318109 5.26039 0
M  V30 3982 C 520.417 0.146766 4.6727 0
M  V30 3983 N 519.818 1.08519 3.89983 0
M  V30 3984 N 519.852 -1.06525 4.95887 0
M  V30 3985 C 520.454 -2.0378 5.71347 0
M  V30 3986 N 521.631 -1.92445 6.27451 0
M  V30 3987 C 522.206 -0.715382 6.00353 0
M  V30 3988 H 524.502 -1.98383 7.04189 0
M  V30 3989 H 525.685 0.733318 6.49674 0
M  V30 3990 H 527.168 0.60668 8.36503 0
M  V30 3991 H 525.474 -0.362662 10.1825 0
M  V30 3992 H 525.284 2.00611 10.0304 0
M  V30 3993 H 523.654 1.41843 9.55327 0
M  V30 3994 H 519.918 -2.97041 5.85344 0
M  V30 3995 H 524.496 1.54076 6.07465 0
M  V30 3996 H 518.888 0.901517 3.49562 0
M  V30 3997 H 520.292 1.97957 3.71669 0
M  V30 3998 H 526.294 -1.95704 6.0346 0
M  V30 3999 P 528.152 -1.25109 8.70152 0
M  V30 4000 O 529.574 -1.35303 9.21419 0
M  V30 4001 O 527.792 -0.0769065 7.84762 0
M  V30 4002 O 527.829 -2.55232 7.81161 0
M  V30 4003 C 527.669 -3.79939 8.58154 0
M  V30 4004 C 528.209 -4.93969 7.72701 0
M  V30 4005 O 527.154 -5.18726 6.91205 0
M  V30 4006 C 529.427 -4.69597 6.85231 0
M  V30 4007 O 530.165 -5.83832 6.51337 0
M  V30 4008 C 528.759 -3.96706 5.66633 0
M  V30 4009 O 529.557 -4.15346 4.49615 0
M  V30 4010 C 527.421 -4.66153 5.59313 0
M  V30 4011 N 526.378 -3.71582 5.24027 0
M  V30 4012 C 526.44 -2.46018 5.67902 0
M  V30 4013 N 525.395 -1.74868 5.24518 0
M  V30 4014 C 524.661 -2.61333 4.54528 0
M  V30 4015 C 523.355 -2.46162 3.95441 0
M  V30 4016 O 522.622 -1.46013 3.94122 0
M  V30 4017 N 522.925 -3.59334 3.34752 0
M  V30 4018 C 523.674 -4.79605 3.3023 0
M  V30 4019 N 523.077 -5.82109 2.6065 0
M  V30 4020 N 524.827 -4.97402 3.8843 0
M  V30 4021 C 525.284 -3.86258 4.50476 0
M  V30 4022 H 527.453 -5.47679 4.85214 0
M  V30 4023 H 528.636 -2.88964 5.86476 0
M  V30 4024 H 530.121 -4.01947 7.36109 0
M  V30 4025 H 528.426 -5.80182 8.37584 0
M  V30 4026 H 528.236 -3.73517 9.52265 0
M  V30 4027 H 526.605 -3.97163 8.80359 0
M  V30 4028 H 522.029 -3.5825 2.90294 0
M  V30 4029 H 527.236 -2.06161 6.30974 0
M  V30 4030 H 522.166 -5.66979 2.15354 0
M  V30 4031 H 523.542 -6.73686 2.54344 0
M  V30 4032 H 529.246 -4.90891 4.01857 0
M  V30 4033 P 531.103 -5.75688 6.64379 0
M  V30 4034 O 532.525 -6.11849 7.01846 0
M  V30 4035 O 530.743 -4.30744 6.56026 0
M  V30 4036 O 530.78 -6.37042 5.19165 0
M  V30 4037 C 530.62 -7.83578 5.16515 0
M  V30 4038 C 531.16 -8.33398 3.83019 0
M  V30 4039 O 530.104 -8.10074 3.01034 0
M  V30 4040 C 532.378 -7.65514 3.2257 0
M  V30 4041 O 533.116 -8.4329 2.32297 0
M  V30 4042 C 531.709 -6.40075 2.62207 0
M  V30 4043 O 532.508 -5.92589 1.53712 0
M  V30 4044 C 530.372 -6.9454 2.18503 0
M  V30 4045 H 530.404 -7.23063 1.12091 0
M  V30 4046 H 531.587 -5.6025 3.37201 0
M  V30 4047 H 533.071 -7.35707 4.02681 0
M  V30 4048 H 531.377 -9.40912 3.9095 0
M  V30 4049 H 531.187 -8.29056 5.99158 0
M  V30 4050 H 529.557 -8.10073 5.25882 0
M  V30 4051 H 532.196 -6.30324 0.726794 0
M  V30 4052 P 534.053 -8.4349 2.47671 0
M  V30 4053 O 535.475 -8.94167 2.5964 0
M  V30 4054 O 533.693 -7.1704 3.19006 0
M  V30 4055 O 533.73 -8.16596 0.923387 0
M  V30 4056 C 533.57 -9.38437 0.108857 0
M  V30 4057 C 534.11 -9.08175 -1.28353 0
M  V30 4058 O 533.054 -8.44229 -1.84713 0
M  V30 4059 C 535.328 -8.18386 -1.42505 0
M  V30 4060 O 536.066 -8.3501 -2.60497 0
M  V30 4061 C 534.659 -6.80225 -1.25468 0
M  V30 4062 O 535.458 -5.81621 -1.91066 0
M  V30 4063 C 533.322 -7.02416 -1.9168 0
M  V30 4064 H 533.354 -6.6888 -2.96621 0
M  V30 4065 H 534.537 -6.53617 -0.192223 0
M  V30 4066 H 536.021 -8.36622 -0.589963 0
M  V30 4067 H 534.327 -10.0291 -1.79807 0
M  V30 4068 H 534.137 -10.2138 0.558219 0
M  V30 4069 H 532.507 -9.6579 0.0444202 0
M  V30 4070 H 535.146 -5.69556 -2.79637 0
M  V30 4071 P 537.004 -8.4349 -2.47671 0
M  V30 4072 O 538.426 -8.92593 -2.65 0
M  V30 4073 O 536.644 -7.7568 -1.19296 0
M  V30 4074 O 536.681 -7.36886 -3.63805 0
M  V30 4075 C 536.521 -7.95349 -4.982 0
M  V30 4076 C 537.061 -6.94612 -5.98974 0
M  V30 4077 O 536.005 -6.10347 -6.11815 0
M  V30 4078 C 538.279 -6.11426 -5.62335 0
M  V30 4079 O 539.017 -5.6162 -6.70584 0
M  V30 4080 C 537.61 -5.04409 -4.73308 0
M  V30 4081 O 538.409 -3.85992 -4.75183 0
M  V30 4082 C 536.273 -4.8728 -5.41006 0
M  V30 4083 H 536.305 -4.02333 -6.11157 0
M  V30 4084 H 537.488 -5.39466 -3.69543 0
M  V30 4085 H 538.972 -6.71916 -5.01943 0
M  V30 4086 H 537.278 -7.4649 -6.93477 0
M  V30 4087 H 537.088 -8.89416 -5.05237 0
M  V30 4088 H 535.458 -8.14876 -5.18409 0
M  V30 4089 H 538.097 -3.27957 -5.4317 0
M  V30 4090 P 539.954 -5.75688 -6.64379 0
M  V30 4091 O 541.376 -6.07627 -7.05504 0
M  V30 4092 O 539.594 -5.88047 -5.19722 0
M  V30 4093 O 539.631 -4.2322 -7.04443 0
M  V30 4094 C 539.471 -3.99743 -8.4911 0
M  V30 4095 C 540.011 -2.60516 -8.79425 0
M  V30 4096 O 538.955 -1.82684 -8.4467 0
M  V30 4097 C 541.229 -2.10343 -8.03628 0
M  V30 4098 O 541.967 -1.09919 -8.67766 0
M  V30 4099 C 540.56 -1.68446 -6.70876 0
M  V30 4100 O 541.359 -0.678137 -6.08433 0
M  V30 4101 C 539.223 -1.17436 -7.18567 0
M  V30 4102 H 539.255 -0.0804732 -7.31656 0
M  V30 4103 H 540.438 -2.54037 -6.02537 0
M  V30 4104 H 541.922 -2.93881 -7.85526 0
M  V30 4105 H 540.228 -2.53065 -9.86973 0
M  V30 4106 H 540.038 -4.75072 -9.05887 0
M  V30 4107 H 538.408 -4.05244 -8.76668 0
M  V30 4108 H 541.047 0.177647 -6.34251 0
M  V30 4109 P 542.905 -1.25109 -8.70152 0
M  V30 4110 O 544.327 -1.29744 -9.22016 0
M  V30 4111 O 542.545 -2.13714 -7.55141 0
M  V30 4112 O 542.582 0.248149 -8.21425 0
M  V30 4113 C 542.422 1.22779 -9.30434 0
M  V30 4114 C 542.962 2.56293 -8.80664 0
M  V30 4115 O 541.906 3.02979 -8.09349 0
M  V30 4116 C 544.18 2.57523 -7.89775 0
M  V30 4117 O 544.918 3.7668 -7.89438 0
M  V30 4118 C 543.511 2.20997 -6.55446 0
M  V30 4119 O 544.31 2.71895 -5.48509 0
M  V30 4120 C 542.174 2.89693 -6.67988 0
M  V30 4121 H 542.206 3.88793 -6.19859 0
M  V30 4122 H 543.389 1.12046 -6.44229 0
M  V30 4123 H 544.873 1.7746 -8.19711 0
M  V30 4124 H 543.179 3.20706 -9.67112 0
M  V30 4125 H 542.989 0.901032 -10.1892 0
M  V30 4126 H 541.359 1.33049 -9.56592 0
M  V30 4127 H 543.998 3.57847 -5.23962 0
M  V30 4128 P 545.855 3.65191 -7.99657 0
M  V30 4129 O 547.277 3.89332 -8.45794 0
M  V30 4130 O 545.495 2.28472 -7.50807 0
M  V30 4131 O 545.532 4.64972 -6.77611 0
M  V30 4132 C 545.372 6.06319 -7.16352 0
M  V30 4133 C 545.912 6.91731 -6.02299 0
M  V30 4134 O 544.856 6.92449 -5.17064 0
M  V30 4135 C 547.13 6.43627 -5.25174 0
M  V30 4136 O 547.868 7.43686 -4.60469 0
M  V30 4137 C 546.461 5.40275 -4.31916 0
M  V30 4138 O 547.26 5.25279 -3.14438 0
M  V30 4139 C 545.124 6.04847 -4.05327 0
M  V30 4140 H 545.156 6.62195 -3.11261 0
M  V30 4141 H 546.339 4.42556 -4.81383 0
M  V30 4142 H 547.823 5.92458 -5.93643 0
M  V30 4143 H 546.129 7.92655 -6.402 0
M  V30 4144 H 545.939 6.26671 -8.0846 0
M  V30 4145 H 544.309 6.29101 -7.32804 0
M  V30 4146 H 546.948 5.84315 -2.47318 0
M  V30 4147 P 548.806 7.39546 -4.75277 0
M  V30 4148 O 550.228 7.84798 -5.01039 0
M  V30 4149 O 548.446 5.9812 -5.08098 0
M  V30 4150 O 548.483 7.57503 -3.1866 0
M  V30 4151 C 548.323 8.97357 -2.74833 0
M  V30 4152 C 548.863 9.07548 -1.32709 0
M  V30 4153 O 547.807 8.62072 -0.606159 0
M  V30 4154 C 550.081 8.25383 -0.938334 0
M  V30 4155 O 550.819 8.74577 0.146954 0
M  V30 4156 C 549.412 6.8802 -0.712559 0
M  V30 4157 O 550.211 6.1189 0.194655 0
M  V30 4158 C 548.075 7.27966 -0.139777 0
M  V30 4159 H 548.107 7.25354 0.961601 0
M  V30 4160 H 549.29 6.32557 -1.65702 0
M  V30 4161 H 550.774 8.19355 -1.79097 0
M  V30 4162 H 549.08 10.1294 -1.10029 0
M  V30 4163 H 548.89 9.64276 -3.41316 0
M  V30 4164 H 547.26 9.25417 -2.76357 0
M  V30 4165 H 549.899 6.25267 1.07847 0
M  V30 4166 P 551.757 8.791 3.52383e-12 0
M  V30 4167 O 553.179 9.31096 0.027933 0
M  V30 4168 O 551.397 7.77869 -1.04071 0
M  V30 4169 O 551.434 8.09533 1.41463 0
M  V30 4170 C 551.274 9.0349 2.53943 0
M  V30 4171 C 551.814 8.35226 3.79016 0
M  V30 4172 O 550.758 7.57992 4.15078 0
M  V30 4173 C 553.032 7.45087 3.67298 0
M  V30 4174 O 553.77 7.27796 4.85194 0
M  V30 4175 C 552.363 6.17323 3.12027 0
M  V30 4176 O 553.162 5.04231 3.47188 0
M  V30 4177 C 551.026 6.19961 3.81809 0
M  V30 4178 H 551.058 5.58218 4.73051 0
M  V30 4179 H 552.241 6.21726 2.02589 0
M  V30 4180 H 553.725 7.86112 2.9231 0
M  V30 4181 H 552.031 9.11627 4.55076 0
M  V30 4182 H 551.841 9.9573 2.34194 0
M  V30 4183 H 550.211 9.2792 2.67832 0
M  V30 4184 H 552.85 4.67702 4.28772 0
M  V30 4185 P 554.707 7.39546 4.75277 0
M  V30 4186 O 556.128 7.81861 5.05793 0
M  V30 4187 O 554.347 7.1065 3.32998 0
M  V30 4188 O 554.384 6.04542 5.56673 0
M  V30 4189 C 554.223 6.22839 7.02169 0
M  V30 4190 C 554.764 4.97725 7.70406 0
M  V30 4191 O 553.709 4.13208 7.58899 0
M  V30 4192 C 555.982 4.28231 7.11815 0
M  V30 4193 O 556.72 3.49945 8.01648 0
M  V30 4194 C 555.314 3.5063 5.96244 0
M  V30 4195 O 556.112 2.37008 5.64352 0
M  V30 4196 C 553.976 3.15122 6.56374 0
M  V30 4197 N 552.933 3.22311 5.55692 0
M  V30 4198 C 553.102 3.99655 4.46046 0
M  V30 4199 N 552.075 3.97599 3.63918 0
M  V30 4200 C 551.19 3.11159 4.25334 0
M  V30 4201 C 549.923 2.64972 3.85157 0
M  V30 4202 N 549.324 3.02132 2.69405 0
M  V30 4203 N 549.358 1.78482 4.74759 0
M  V30 4204 C 549.96 1.37463 5.90819 0
M  V30 4205 N 551.137 1.7733 6.31889 0
M  V30 4206 C 551.712 2.64393 5.43725 0
M  V30 4207 H 554.008 2.13823 6.99656 0
M  V30 4208 H 555.191 4.12931 5.06895 0
M  V30 4209 H 556.674 5.03285 6.70911 0
M  V30 4210 H 554.98 5.20001 8.76217 0
M  V30 4211 H 554.79 7.11046 7.35349 0
M  V30 4212 H 553.16 6.35815 7.26986 0
M  V30 4213 H 549.424 0.66574 6.53015 0
M  V30 4214 H 554.002 4.58037 4.27732 0
M  V30 4215 H 548.394 2.64828 2.45331 0
M  V30 4216 H 549.798 3.67472 2.05644 0
M  V30 4217 H 555.8 1.61619 6.13468 0
M  V30 4218 P 557.658 3.65191 7.99657 0
M  V30 4219 O 559.08 3.8425 8.48115 0
M  V30 4220 O 557.298 4.17805 6.64342 0
M  V30 4221 O 557.335 2.07613 7.95143 0
M  V30 4222 C 557.175 1.44328 9.27336 0
M  V30 4223 C 557.715 0.0220036 9.17197 0
M  V30 4224 O 556.659 -0.626867 8.61923 0
M  V30 4225 C 558.933 -0.24586 8.30336 0
M  V30 4226 O 559.671 -1.39011 8.63583 0
M  V30 4227 C 558.264 -0.273849 6.91158 0
M  V30 4228 O 559.063 -1.06348 6.02892 0
M  V30 4229 C 556.927 -0.897649 7.22545 0
M  V30 4230 H 556.959 -1.9841 7.04286 0
M  V30 4231 H 558.142 0.739928 6.497 0
M  V30 4232 H 559.626 0.60668 8.36503 0
M  V30 4233 H 557.932 -0.352479 10.1829 0
M  V30 4234 H 557.742 2.00611 10.0304 0
M  V30 4235 H 556.112 1.41843 9.55327 0
M  V30 4236 H 558.751 -1.95734 6.03555 0
M  V30 4237 P 560.608 -1.25109 8.70152 0
M  V30 4238 O 562.009 -1.31452 9.27431 0
M  V30 4239 O 560.23 -0.0458113 7.89887 0
M  V30 4240 O 560.285 -2.55201 7.81066 0
M  V30 4241 C 560.125 -3.79939 8.58154 0
M  V30 4242 C 560.665 -4.93969 7.72701 0
M  V30 4243 O 559.609 -5.18666 6.91125 0
M  V30 4244 C 561.882 -4.69597 6.85231 0
M  V30 4245 O 562.621 -5.83832 6.51337 0
M  V30 4246 C 561.215 -3.96706 5.66633 0
M  V30 4247 O 562.013 -4.15346 4.49615 0
M  V30 4248 C 559.877 -4.66153 5.59313 0
M  V30 4249 N 558.834 -3.71582 5.24027 0
M  V30 4250 C 557.799 -4.15133 4.44901 0
M  V30 4251 O 557.838 -5.32122 4.00336 0
M  V30 4252 N 556.787 -3.30554 4.15693 0
M  V30 4253 C 556.835 -2.04701 4.61105 0
M  V30 4254 N 555.825 -1.23621 4.31855 0
M  V30 4255 C 557.931 -1.57111 5.38655 0
M  V30 4256 C 558.897 -2.44234 5.68454 0
M  V30 4257 H 559.909 -5.47604 4.85148 0
M  V30 4258 H 561.092 -2.8955 5.86187 0
M  V30 4259 H 562.576 -4.01995 7.36197 0
M  V30 4260 H 560.882 -5.81019 8.37003 0
M  V30 4261 H 560.691 -3.73517 9.52265 0
M  V30 4262 H 559.061 -3.97122 8.80267 0
M  V30 4263 H 557.979 -0.538464 5.72373 0
M  V30 4264 H 559.743 -2.11927 6.29377 0
M  V30 4265 H 555.035 -1.58199 3.7543 0
M  V30 4266 H 555.83 -0.264601 4.65348 0
M  V30 4267 H 561.797 -4.98352 4.09633 0
M  V30 4268 P 563.559 -5.75688 6.64379 0
M  V30 4269 O 564.981 -6.11849 7.01846 0
M  V30 4270 O 563.199 -4.30744 6.56026 0
M  V30 4271 O 563.236 -6.37042 5.19165 0
M  V30 4272 C 563.076 -7.83578 5.16515 0
M  V30 4273 C 563.616 -8.33398 3.83019 0
M  V30 4274 O 562.56 -8.10074 3.01034 0
M  V30 4275 C 564.834 -7.65514 3.2257 0
M  V30 4276 O 565.572 -8.4329 2.32297 0
M  V30 4277 C 564.165 -6.40075 2.62207 0
M  V30 4278 O 564.964 -5.92589 1.53712 0
M  V30 4279 C 562.828 -6.9454 2.18503 0
M  V30 4280 H 562.86 -7.23063 1.12091 0
M  V30 4281 H 564.043 -5.6025 3.37201 0
M  V30 4282 H 565.527 -7.35707 4.02681 0
M  V30 4283 H 563.833 -9.40912 3.9095 0
M  V30 4284 H 563.643 -8.29056 5.99158 0
M  V30 4285 H 562.013 -8.10073 5.25882 0
M  V30 4286 H 564.652 -6.30324 0.726794 0
M  V30 4287 P 566.509 -8.4349 2.47671 0
M  V30 4288 O 567.931 -8.94167 2.5964 0
M  V30 4289 O 566.149 -7.1704 3.19006 0
M  V30 4290 O 566.186 -8.16596 0.923387 0
M  V30 4291 C 566.026 -9.38437 0.108857 0
M  V30 4292 C 566.566 -9.08175 -1.28353 0
M  V30 4293 O 565.51 -8.44229 -1.84713 0
M  V30 4294 C 567.784 -8.18386 -1.42505 0
M  V30 4295 O 568.522 -8.3501 -2.60497 0
M  V30 4296 C 567.115 -6.80225 -1.25468 0
M  V30 4297 O 567.914 -5.81621 -1.91066 0
M  V30 4298 C 565.778 -7.02416 -1.9168 0
M  V30 4299 H 565.81 -6.6888 -2.96621 0
M  V30 4300 H 566.993 -6.53617 -0.192223 0
M  V30 4301 H 568.477 -8.36622 -0.589963 0
M  V30 4302 H 566.783 -10.0291 -1.79807 0
M  V30 4303 H 566.593 -10.2138 0.558219 0
M  V30 4304 H 564.963 -9.6579 0.0444202 0
M  V30 4305 H 567.602 -5.69556 -2.79637 0
M  V30 4306 P 569.46 -8.4349 -2.47671 0
M  V30 4307 O 570.882 -8.92593 -2.65 0
M  V30 4308 O 569.1 -7.7568 -1.19296 0
M  V30 4309 O 569.137 -7.36886 -3.63805 0
M  V30 4310 C 568.977 -7.95349 -4.982 0
M  V30 4311 C 569.517 -6.94612 -5.98974 0
M  V30 4312 O 568.461 -6.10347 -6.11815 0
M  V30 4313 C 570.735 -6.11426 -5.62335 0
M  V30 4314 O 571.473 -5.6162 -6.70584 0
M  V30 4315 C 570.066 -5.04409 -4.73308 0
M  V30 4316 O 570.865 -3.85992 -4.75183 0
M  V30 4317 C 568.729 -4.8728 -5.41006 0
M  V30 4318 H 568.761 -4.02333 -6.11157 0
M  V30 4319 H 569.944 -5.39466 -3.69543 0
M  V30 4320 H 571.428 -6.71916 -5.01943 0
M  V30 4321 H 569.734 -7.4649 -6.93477 0
M  V30 4322 H 569.544 -8.89416 -5.05237 0
M  V30 4323 H 567.914 -8.14876 -5.18409 0
M  V30 4324 H 570.553 -3.27957 -5.4317 0
M  V30 4325 P 572.411 -5.75688 -6.64379 0
M  V30 4326 O 573.833 -6.07627 -7.05504 0
M  V30 4327 O 572.051 -5.88047 -5.19722 0
M  V30 4328 O 572.088 -4.2322 -7.04443 0
M  V30 4329 C 571.928 -3.99743 -8.4911 0
M  V30 4330 C 572.468 -2.60516 -8.79425 0
M  V30 4331 O 571.412 -1.82684 -8.4467 0
M  V30 4332 C 573.686 -2.10343 -8.03628 0
M  V30 4333 O 574.424 -1.09919 -8.67766 0
M  V30 4334 C 573.017 -1.68446 -6.70876 0
M  V30 4335 O 573.816 -0.678137 -6.08433 0
M  V30 4336 C 571.68 -1.17436 -7.18567 0
M  V30 4337 H 571.712 -0.0804732 -7.31656 0
M  V30 4338 H 572.895 -2.54037 -6.02537 0
M  V30 4339 H 574.379 -2.93881 -7.85526 0
M  V30 4340 H 572.685 -2.53065 -9.86973 0
M  V30 4341 H 572.495 -4.75072 -9.05887 0
M  V30 4342 H 570.865 -4.05244 -8.76668 0
M  V30 4343 H 573.504 0.177647 -6.34251 0
M  V30 4344 P 575.361 -1.25109 -8.70152 0
M  V30 4345 O 576.762 -1.3516 -9.26897 0
M  V30 4346 O 574.983 -2.18141 -7.59181 0
M  V30 4347 O 575.038 0.248118 -8.21325 0
M  V30 4348 C 574.878 1.22779 -9.30434 0
M  V30 4349 C 575.418 2.56265 -8.80568 0
M  V30 4350 O 574.362 3.02944 -8.09255 0
M  V30 4351 C 576.635 2.57523 -7.89775 0
M  V30 4352 O 577.374 3.7668 -7.89438 0
M  V30 4353 C 575.968 2.20997 -6.55446 0
M  V30 4354 O 576.766 2.71851 -5.48419 0
M  V30 4355 C 574.63 2.89693 -6.67988 0
M  V30 4356 N 573.587 2.08895 -6.07487 0
M  V30 4357 C 572.552 2.72974 -5.43836 0
M  V30 4358 O 572.591 3.97779 -5.34036 0
M  V30 4359 N 571.54 2.0005 -4.91983 0
M  V30 4360 C 571.588 0.66501 -5.00098 0
M  V30 4361 N 570.578 -0.0305439 -4.4919 0
M  V30 4362 C 572.684 -0.0100979 -5.61099 0
M  V30 4363 C 573.65 0.74189 -6.14236 0
M  V30 4364 H 574.662 3.8874 -6.19774 0
M  V30 4365 H 575.845 1.12673 -6.44018 0
M  V30 4366 H 577.329 1.783 -8.19631 0
M  V30 4367 H 575.635 3.21673 -9.66791 0
M  V30 4368 H 575.444 0.901032 -10.1892 0
M  V30 4369 H 573.814 1.33036 -9.56493 0
M  V30 4370 H 572.732 -1.09591 -5.64358 0
M  V30 4371 H 574.496 0.260263 -6.6359 0
M  V30 4372 H 569.788 0.460194 -4.04793 0
M  V30 4373 H 570.583 -1.05716 -4.53953 0
M  V30 4374 H 576.55 3.62759 -5.33442 0
M  V30 4375 P 578.312 3.65191 -7.99657 0
M  V30 4376 O 579.734 3.89332 -8.45794 0
M  V30 4377 O 577.952 2.28472 -7.50807 0
M  V30 4378 O 577.989 4.64972 -6.77611 0
M  V30 4379 C 577.829 6.06319 -7.16352 0
M  V30 4380 C 578.369 6.91731 -6.02299 0
M  V30 4381 O 577.313 6.92449 -5.17064 0
M  V30 4382 C 579.587 6.43627 -5.25174 0
M  V30 4383 O 580.325 7.43686 -4.60469 0
M  V30 4384 C 578.918 5.40275 -4.31916 0
M  V30 4385 O 579.717 5.25279 -3.14438 0
M  V30 4386 C 577.581 6.04847 -4.05327 0
M  V30 4387 H 577.613 6.62195 -3.11261 0
M  V30 4388 H 578.796 4.42556 -4.81383 0
M  V30 4389 H 580.28 5.92458 -5.93643 0
M  V30 4390 H 578.586 7.92655 -6.402 0
M  V30 4391 H 578.396 6.26671 -8.0846 0
M  V30 4392 H 576.766 6.29101 -7.32804 0
M  V30 4393 H 579.405 5.84315 -2.47318 0
M  V30 4394 P 581.262 7.39546 -4.75277 0
M  V30 4395 O 582.684 7.84798 -5.01039 0
M  V30 4396 O 580.902 5.9812 -5.08098 0
M  V30 4397 O 580.939 7.57503 -3.1866 0
M  V30 4398 C 580.779 8.97357 -2.74833 0
M  V30 4399 C 581.319 9.07548 -1.32709 0
M  V30 4400 O 580.263 8.62072 -0.606159 0
M  V30 4401 C 582.537 8.25383 -0.938334 0
M  V30 4402 O 583.275 8.74577 0.146954 0
M  V30 4403 C 581.868 6.8802 -0.712559 0
M  V30 4404 O 582.667 6.1189 0.194655 0
M  V30 4405 C 580.531 7.27966 -0.139777 0
M  V30 4406 H 580.563 7.25354 0.961601 0
M  V30 4407 H 581.746 6.32557 -1.65702 0
M  V30 4408 H 583.23 8.19355 -1.79097 0
M  V30 4409 H 581.536 10.1294 -1.10029 0
M  V30 4410 H 581.346 9.64276 -3.41316 0
M  V30 4411 H 579.716 9.25417 -2.76357 0
M  V30 4412 H 582.355 6.25267 1.07847 0
M  V30 4413 P 584.213 8.791 3.834e-12 0
M  V30 4414 O 585.635 9.31096 0.027933 0
M  V30 4415 O 583.853 7.77869 -1.04071 0
M  V30 4416 O 583.89 8.09533 1.41463 0
M  V30 4417 C 583.73 9.0349 2.53943 0
M  V30 4418 C 584.27 8.35226 3.79016 0
M  V30 4419 O 583.214 7.57992 4.15078 0
M  V30 4420 C 585.488 7.45087 3.67298 0
M  V30 4421 O 586.226 7.27796 4.85194 0
M  V30 4422 C 584.819 6.17323 3.12027 0
M  V30 4423 O 585.618 5.04231 3.47188 0
M  V30 4424 C 583.482 6.19961 3.81809 0
M  V30 4425 H 583.514 5.58218 4.73051 0
M  V30 4426 H 584.697 6.21726 2.02589 0
M  V30 4427 H 586.181 7.86112 2.9231 0
M  V30 4428 H 584.487 9.11627 4.55076 0
M  V30 4429 H 584.297 9.9573 2.34194 0
M  V30 4430 H 582.667 9.2792 2.67832 0
M  V30 4431 H 585.306 4.67702 4.28772 0
M  V30 4432 P 587.163 7.39546 4.75277 0
M  V30 4433 O 588.585 7.81777 5.05738 0
M  V30 4434 O 586.803 7.1065 3.32998 0
M  V30 4435 O 586.84 6.04542 5.56673 0
M  V30 4436 C 586.68 6.22772 7.02095 0
M  V30 4437 C 587.22 4.97725 7.70406 0
M  V30 4438 O 586.164 4.13256 7.58987 0
M  V30 4439 C 588.438 4.28231 7.11815 0
M  V30 4440 O 589.176 3.49945 8.01648 0
M  V30 4441 C 587.769 3.5063 5.96244 0
M  V30 4442 O 588.568 2.36482 5.64681 0
M  V30 4443 C 586.432 3.15122 6.56374 0
M  V30 4444 H 586.464 2.13853 6.99751 0
M  V30 4445 H 587.647 4.13501 5.06559 0
M  V30 4446 H 589.131 5.03285 6.70911 0
M  V30 4447 H 587.437 5.20877 8.75697 0
M  V30 4448 H 587.247 7.11046 7.35349 0
M  V30 4449 H 585.617 6.35815 7.26986 0
M  V30 4450 H 588.256 1.61644 6.13565 0
M  V30 4451 P 590.114 3.65191 7.99657 0
M  V30 4452 O 591.536 3.8425 8.48115 0
M  V30 4453 O 589.754 4.17805 6.64342 0
M  V30 4454 O 589.791 2.07613 7.95143 0
M  V30 4455 C 589.631 1.44328 9.27336 0
M  V30 4456 C 590.171 0.0220036 9.17197 0
M  V30 4457 O 589.115 -0.626867 8.61923 0
M  V30 4458 C 591.389 -0.24586 8.30336 0
M  V30 4459 O 592.127 -1.39011 8.63583 0
M  V30 4460 C 590.72 -0.273849 6.91158 0
M  V30 4461 O 591.519 -1.06348 6.02892 0
M  V30 4462 C 589.383 -0.897649 7.22545 0
M  V30 4463 H 589.415 -1.9841 7.04286 0
M  V30 4464 H 590.598 0.739928 6.497 0
M  V30 4465 H 592.082 0.60668 8.36503 0
M  V30 4466 H 590.388 -0.352479 10.1829 0
M  V30 4467 H 590.198 2.00611 10.0304 0
M  V30 4468 H 588.568 1.41843 9.55327 0
M  V30 4469 H 591.207 -1.95734 6.03555 0
M  V30 4470 P 593.065 -1.25109 8.70152 0
M  V30 4471 O 594.487 -1.35274 9.21221 0
M  V30 4472 O 592.705 -0.0769065 7.84762 0
M  V30 4473 O 592.742 -2.55232 7.81161 0
M  V30 4474 C 592.582 -3.79939 8.58154 0
M  V30 4475 C 593.122 -4.94023 7.72785 0
M  V30 4476 O 592.066 -5.18726 6.91205 0
M  V30 4477 C 594.34 -4.69597 6.85231 0
M  V30 4478 O 595.078 -5.83832 6.51337 0
M  V30 4479 C 593.671 -3.96706 5.66633 0
M  V30 4480 O 594.47 -4.15414 4.49689 0
M  V30 4481 C 592.334 -4.66153 5.59313 0
M  V30 4482 H 592.366 -5.47679 4.85214 0
M  V30 4483 H 593.549 -2.89008 5.86566 0
M  V30 4484 H 595.033 -4.0121 7.36511 0
M  V30 4485 H 593.339 -5.80182 8.37584 0
M  V30 4486 H 593.149 -3.73517 9.52265 0
M  V30 4487 H 591.519 -3.97163 8.80359 0
M  V30 4488 H 594.158 -4.90969 4.01921 0
M  V30 4489 P 596.015 -5.75688 6.64379 0
M  V30 4490 O 597.437 -6.11849 7.01846 0
M  V30 4491 O 595.655 -4.30744 6.56026 0
M  V30 4492 O 595.692 -6.37042 5.19165 0
M  V30 4493 C 595.532 -7.83578 5.16515 0
M  V30 4494 C 596.072 -8.33398 3.83019 0
M  V30 4495 O 595.016 -8.10074 3.01034 0
M  V30 4496 C 597.29 -7.65514 3.2257 0
M  V30 4497 O 598.028 -8.4329 2.32297 0
M  V30 4498 C 596.621 -6.40075 2.62207 0
M  V30 4499 O 597.42 -5.92589 1.53712 0
M  V30 4500 C 595.284 -6.9454 2.18503 0
M  V30 4501 H 595.316 -7.23063 1.12091 0
M  V30 4502 H 596.499 -5.6025 3.37201 0
M  V30 4503 H 597.983 -7.35707 4.02681 0
M  V30 4504 H 596.289 -9.40912 3.9095 0
M  V30 4505 H 596.099 -8.29056 5.99158 0
M  V30 4506 H 594.469 -8.10073 5.25882 0
M  V30 4507 H 597.108 -6.30324 0.726794 0
M  V30 4508 P 598.966 -8.4349 2.47671 0
M  V30 4509 O 600.388 -8.94167 2.5964 0
M  V30 4510 O 598.606 -7.1704 3.19006 0
M  V30 4511 O 598.643 -8.16596 0.923387 0
M  V30 4512 C 598.483 -9.38437 0.108857 0
M  V30 4513 C 599.023 -9.08175 -1.28353 0
M  V30 4514 O 597.967 -8.44229 -1.84713 0
M  V30 4515 C 600.241 -8.18386 -1.42505 0
M  V30 4516 O 600.979 -8.3501 -2.60497 0
M  V30 4517 C 599.572 -6.80225 -1.25468 0
M  V30 4518 O 600.371 -5.81621 -1.91066 0
M  V30 4519 C 598.235 -7.02416 -1.9168 0
M  V30 4520 H 598.267 -6.6888 -2.96621 0
M  V30 4521 H 599.45 -6.53617 -0.192223 0
M  V30 4522 H 600.934 -8.36622 -0.589963 0
M  V30 4523 H 599.24 -10.0291 -1.79807 0
M  V30 4524 H 599.05 -10.2138 0.558219 0
M  V30 4525 H 597.42 -9.6579 0.0444202 0
M  V30 4526 H 600.059 -5.69556 -2.79637 0
M  V30 4527 P 601.916 -8.4349 -2.47671 0
M  V30 4528 O 603.338 -8.92785 -2.65057 0
M  V30 4529 O 601.556 -7.7568 -1.19296 0
M  V30 4530 O 601.593 -7.36886 -3.63805 0
M  V30 4531 C 601.433 -7.95349 -4.982 0
M  V30 4532 C 601.973 -6.94537 -5.98908 0
M  V30 4533 O 600.918 -6.10347 -6.11815 0
M  V30 4534 C 603.191 -6.11426 -5.62335 0
M  V30 4535 O 603.929 -5.6162 -6.70584 0
M  V30 4536 C 602.523 -5.04409 -4.73308 0
M  V30 4537 O 603.321 -3.85929 -4.75106 0
M  V30 4538 C 601.185 -4.8728 -5.41006 0
M  V30 4539 N 600.142 -4.65812 -4.42377 0
M  V30 4540 C 600.204 -5.27109 -3.24335 0
M  V30 4541 N 599.159 -4.94293 -2.47735 0
M  V30 4542 C 598.425 -4.1271 -3.23359 0
M  V30 4543 C 597.119 -3.56384 -2.99934 0
M  V30 4544 O 596.386 -3.69331 -2.00616 0
M  V30 4545 N 596.689 -2.80206 -4.03316 0
M  V30 4546 C 597.438 -2.58614 -5.2172 0
M  V30 4547 N 596.841 -1.75154 -6.13278 0
M  V30 4548 N 598.591 -3.13689 -5.47619 0
M  V30 4549 C 599.048 -3.90921 -4.46436 0
M  V30 4550 H 601.217 -4.02333 -6.11157 0
M  V30 4551 H 602.4 -5.39383 -3.69487 0
M  V30 4552 H 603.885 -6.71414 -5.02615 0
M  V30 4553 H 602.19 -7.4649 -6.93477 0
M  V30 4554 H 602 -8.89416 -5.05237 0
M  V30 4555 H 600.369 -8.14876 -5.18409 0
M  V30 4556 H 595.793 -2.36355 -3.95916 0
M  V30 4557 H 601 -5.95212 -2.93859 0
M  V30 4558 H 595.93 -1.32473 -5.91856 0
M  V30 4559 H 597.306 -1.5588 -7.03026 0
M  V30 4560 H 603.01 -3.27906 -5.43085 0
M  V30 4561 P 604.867 -5.75688 -6.64379 0
M  V30 4562 O 606.289 -6.07627 -7.05504 0
M  V30 4563 O 604.507 -5.88047 -5.19722 0
M  V30 4564 O 604.544 -4.2322 -7.04443 0
M  V30 4565 C 604.384 -3.99743 -8.4911 0
M  V30 4566 C 604.924 -2.60516 -8.79425 0
M  V30 4567 O 603.868 -1.82684 -8.4467 0
M  V30 4568 C 606.142 -2.10343 -8.03628 0
M  V30 4569 O 606.88 -1.09919 -8.67766 0
M  V30 4570 C 605.473 -1.68446 -6.70876 0
M  V30 4571 O 606.272 -0.678137 -6.08433 0
M  V30 4572 C 604.136 -1.17436 -7.18567 0
M  V30 4573 H 604.168 -0.0804732 -7.31656 0
M  V30 4574 H 605.351 -2.54037 -6.02537 0
M  V30 4575 H 606.835 -2.93881 -7.85526 0
M  V30 4576 H 605.141 -2.53065 -9.86973 0
M  V30 4577 H 604.951 -4.75072 -9.05887 0
M  V30 4578 H 603.321 -4.05244 -8.76668 0
M  V30 4579 H 605.96 0.177647 -6.34251 0
M  V30 4580 P 607.817 -1.25109 -8.70152 0
M  V30 4581 O 609.239 -1.29744 -9.22016 0
M  V30 4582 O 607.457 -2.13714 -7.55141 0
M  V30 4583 O 607.494 0.248149 -8.21425 0
M  V30 4584 C 607.334 1.22779 -9.30434 0
M  V30 4585 C 607.874 2.56293 -8.80664 0
M  V30 4586 O 606.818 3.02979 -8.09349 0
M  V30 4587 C 609.092 2.57523 -7.89775 0
M  V30 4588 O 609.83 3.7668 -7.89438 0
M  V30 4589 C 608.423 2.20997 -6.55446 0
M  V30 4590 O 609.222 2.71895 -5.48509 0
M  V30 4591 C 607.086 2.89693 -6.67988 0
M  V30 4592 H 607.118 3.88793 -6.19859 0
M  V30 4593 H 608.301 1.12046 -6.44229 0
M  V30 4594 H 609.785 1.7746 -8.19711 0
M  V30 4595 H 608.091 3.20706 -9.67112 0
M  V30 4596 H 607.901 0.901032 -10.1892 0
M  V30 4597 H 606.271 1.33049 -9.56592 0
M  V30 4598 H 608.91 3.57847 -5.23962 0
M  V30 4599 P 610.768 3.65191 -7.99657 0
M  V30 4600 O 612.19 3.89332 -8.45794 0
M  V30 4601 O 610.408 2.28472 -7.50807 0
M  V30 4602 O 610.445 4.64972 -6.77611 0
M  V30 4603 C 610.285 6.06319 -7.16352 0
M  V30 4604 C 610.825 6.91731 -6.02299 0
M  V30 4605 O 609.769 6.92449 -5.17064 0
M  V30 4606 C 612.043 6.43627 -5.25174 0
M  V30 4607 O 612.781 7.43686 -4.60469 0
M  V30 4608 C 611.374 5.40275 -4.31916 0
M  V30 4609 O 612.173 5.25279 -3.14438 0
M  V30 4610 C 610.037 6.04847 -4.05327 0
M  V30 4611 H 610.069 6.62195 -3.11261 0
M  V30 4612 H 611.252 4.42556 -4.81383 0
M  V30 4613 H 612.736 5.92458 -5.93643 0
M  V30 4614 H 611.042 7.92655 -6.402 0
M  V30 4615 H 610.852 6.26671 -8.0846 0
M  V30 4616 H 609.222 6.29101 -7.32804 0
M  V30 4617 H 611.861 5.84315 -2.47318 0
M  V30 4618 P 613.719 7.39546 -4.75277 0
M  V30 4619 O 615.141 7.84798 -5.01039 0
M  V30 4620 O 613.359 5.9812 -5.08098 0
M  V30 4621 O 613.396 7.57503 -3.1866 0
M  V30 4622 C 613.236 8.97357 -2.74833 0
M  V30 4623 C 613.776 9.07548 -1.32709 0
M  V30 4624 O 612.72 8.62072 -0.606159 0
M  V30 4625 C 614.994 8.25383 -0.938334 0
M  V30 4626 O 615.732 8.74577 0.146954 0
M  V30 4627 C 614.325 6.8802 -0.712559 0
M  V30 4628 O 615.124 6.1189 0.194655 0
M  V30 4629 C 612.988 7.27966 -0.139777 0
M  V30 4630 H 613.02 7.25354 0.961601 0
M  V30 4631 H 614.203 6.32557 -1.65702 0
M  V30 4632 H 615.687 8.19355 -1.79097 0
M  V30 4633 H 613.993 10.1294 -1.10029 0
M  V30 4634 H 613.803 9.64276 -3.41316 0
M  V30 4635 H 612.173 9.25417 -2.76357 0
M  V30 4636 H 614.812 6.25267 1.07847 0
M  V30 4637 P 616.669 8.791 4.14417e-12 0
M  V30 4638 O 618.091 9.31096 0.027933 0
M  V30 4639 O 616.309 7.77869 -1.04071 0
M  V30 4640 O 616.346 8.09533 1.41463 0
M  V30 4641 C 616.186 9.0349 2.53943 0
M  V30 4642 C 616.726 8.35226 3.79016 0
M  V30 4643 O 615.67 7.57992 4.15078 0
M  V30 4644 C 617.944 7.45087 3.67298 0
M  V30 4645 O 618.682 7.27796 4.85194 0
M  V30 4646 C 617.275 6.17323 3.12027 0
M  V30 4647 O 618.074 5.04231 3.47188 0
M  V30 4648 C 615.938 6.19961 3.81809 0
M  V30 4649 H 615.97 5.58218 4.73051 0
M  V30 4650 H 617.153 6.21726 2.02589 0
M  V30 4651 H 618.637 7.86112 2.9231 0
M  V30 4652 H 616.943 9.11627 4.55076 0
M  V30 4653 H 616.753 9.9573 2.34194 0
M  V30 4654 H 615.123 9.2792 2.67832 0
M  V30 4655 H 617.762 4.67702 4.28772 0
M  V30 4656 P 619.62 7.39546 4.75277 0
M  V30 4657 O 621.042 7.81777 5.05738 0
M  V30 4658 O 619.26 7.1065 3.32998 0
M  V30 4659 O 619.297 6.04542 5.56673 0
M  V30 4660 C 619.137 6.22772 7.02095 0
M  V30 4661 C 619.677 4.97725 7.70406 0
M  V30 4662 O 618.621 4.13256 7.58987 0
M  V30 4663 C 620.895 4.28231 7.11815 0
M  V30 4664 O 621.633 3.49945 8.01648 0
M  V30 4665 C 620.226 3.5063 5.96244 0
M  V30 4666 O 621.025 2.36482 5.64681 0
M  V30 4667 C 618.889 3.15122 6.56374 0
M  V30 4668 H 618.921 2.13853 6.99751 0
M  V30 4669 H 620.104 4.13501 5.06559 0
M  V30 4670 H 621.588 5.03285 6.70911 0
M  V30 4671 H 619.894 5.20877 8.75697 0
M  V30 4672 H 619.704 7.11046 7.35349 0
M  V30 4673 H 618.074 6.35815 7.26986 0
M  V30 4674 H 620.713 1.61644 6.13565 0
M  V30 4675 P 622.57 3.65191 7.99657 0
M  V30 4676 O 623.992 3.8425 8.48115 0
M  V30 4677 O 622.21 4.17805 6.64342 0
M  V30 4678 O 622.247 2.07613 7.95143 0
M  V30 4679 C 622.087 1.44328 9.27336 0
M  V30 4680 C 622.627 0.0220036 9.17197 0
M  V30 4681 O 621.571 -0.626867 8.61923 0
M  V30 4682 C 623.845 -0.24586 8.30336 0
M  V30 4683 O 624.583 -1.39011 8.63583 0
M  V30 4684 C 623.176 -0.273849 6.91158 0
M  V30 4685 O 623.975 -1.06348 6.02892 0
M  V30 4686 C 621.839 -0.897649 7.22545 0
M  V30 4687 H 621.871 -1.9841 7.04286 0
M  V30 4688 H 623.054 0.739928 6.497 0
M  V30 4689 H 624.538 0.60668 8.36503 0
M  V30 4690 H 622.844 -0.352479 10.1829 0
M  V30 4691 H 622.654 2.00611 10.0304 0
M  V30 4692 H 621.024 1.41843 9.55327 0
M  V30 4693 H 623.663 -1.95734 6.03555 0
M  V30 4694 P 625.521 -1.25109 8.70152 0
M  V30 4695 O 626.943 -1.35274 9.21221 0
M  V30 4696 O 625.161 -0.0769065 7.84762 0
M  V30 4697 O 625.198 -2.55232 7.81161 0
M  V30 4698 C 625.038 -3.79939 8.58154 0
M  V30 4699 C 625.578 -4.94023 7.72785 0
M  V30 4700 O 624.522 -5.18726 6.91205 0
M  V30 4701 C 626.796 -4.69597 6.85231 0
M  V30 4702 O 627.534 -5.83832 6.51337 0
M  V30 4703 C 626.127 -3.96706 5.66633 0
M  V30 4704 O 626.926 -4.15414 4.49689 0
M  V30 4705 C 624.79 -4.66153 5.59313 0
M  V30 4706 H 624.822 -5.47679 4.85214 0
M  V30 4707 H 626.005 -2.89008 5.86566 0
M  V30 4708 H 627.489 -4.0121 7.36511 0
M  V30 4709 H 625.795 -5.80182 8.37584 0
M  V30 4710 H 625.605 -3.73517 9.52265 0
M  V30 4711 H 623.975 -3.97163 8.80359 0
M  V30 4712 H 626.614 -4.90969 4.01921 0
M  V30 4713 P 628.471 -5.75688 6.64379 0
M  V30 4714 O 629.892 -6.11915 7.01921 0
M  V30 4715 O 628.111 -4.30744 6.56026 0
M  V30 4716 O 628.148 -6.37042 5.19165 0
M  V30 4717 C 627.987 -7.83662 5.1657 0
M  V30 4718 C 628.528 -8.33398 3.83019 0
M  V30 4719 O 627.473 -8.0998 3.00999 0
M  V30 4720 C 629.746 -7.65514 3.2257 0
M  V30 4721 O 630.484 -8.4329 2.32297 0
M  V30 4722 C 629.078 -6.40075 2.62207 0
M  V30 4723 O 629.876 -5.92338 1.5428 0
M  V30 4724 C 627.74 -6.9454 2.18503 0
M  V30 4725 N 626.697 -5.95905 2.39948 0
M  V30 4726 C 626.866 -4.98383 3.32108 0
M  V30 4727 N 625.839 -4.16798 3.41761 0
M  V30 4728 C 624.954 -4.65287 2.47461 0
M  V30 4729 C 623.687 -4.18946 2.07461 0
M  V30 4730 N 623.122 -4.95327 1.09101 0
M  V30 4731 C 623.724 -6.04369 0.519812 0
M  V30 4732 N 624.901 -6.50694 0.855982 0
M  V30 4733 C 625.476 -5.75818 1.84322 0
M  V30 4734 H 628.955 -5.60502 3.36589 0
M  V30 4735 H 630.438 -7.35707 4.02681 0
M  V30 4736 H 628.744 -9.41302 3.90009 0
M  V30 4737 H 628.554 -8.29056 5.99158 0
M  V30 4738 H 626.924 -8.10073 5.25882 0
M  V30 4739 H 627.766 -4.88564 3.92502 0
M  V30 4740 H 629.564 -6.30224 0.72668 0
M  V30 4741 P 631.422 -8.4349 2.47671 0
M  V30 4742 O 632.843 -8.94263 2.59668 0
M  V30 4743 O 631.062 -7.1704 3.19006 0
M  V30 4744 O 631.099 -8.16596 0.923387 0
M  V30 4745 C 630.938 -9.38537 0.108869 0
M  V30 4746 C 631.479 -9.08175 -1.28353 0
M  V30 4747 O 630.424 -8.44131 -1.84692 0
M  V30 4748 C 632.697 -8.18386 -1.42505 0
M  V30 4749 O 633.435 -8.3501 -2.60497 0
M  V30 4750 C 632.029 -6.80225 -1.25468 0
M  V30 4751 O 632.827 -5.81716 -1.90454 0
M  V30 4752 C 630.691 -7.02416 -1.9168 0
M  V30 4753 N 629.648 -6.31033 -1.20314 0
M  V30 4754 C 629.817 -5.98817 0.0994088 0
M  V30 4755 N 628.79 -5.35403 0.621694 0
M  V30 4756 C 627.905 -5.25212 -0.43376 0
M  V30 4757 C 626.638 -4.64602 -0.519722 0
M  V30 4758 N 626.073 -4.7568 -1.76013 0
M  V30 4759 C 626.675 -5.3653 -2.83017 0
M  V30 4760 N 627.852 -5.93676 -2.79782 0
M  V30 4761 C 628.427 -5.84061 -1.56249 0
M  V30 4762 H 631.906 -6.53498 -0.198729 0
M  V30 4763 H 633.389 -8.36622 -0.589963 0
M  V30 4764 H 631.695 -10.0273 -1.8081 0
M  V30 4765 H 631.505 -10.2138 0.558219 0
M  V30 4766 H 629.875 -9.6579 0.0444202 0
M  V30 4767 H 630.717 -6.23209 0.660562 0
M  V30 4768 H 632.515 -5.69466 -2.79593 0
M  V30 4769 P 634.373 -8.4349 -2.47671 0
M  V30 4770 O 635.795 -8.92593 -2.65 0
M  V30 4771 O 634.013 -7.7568 -1.19296 0
M  V30 4772 O 634.05 -7.36886 -3.63805 0
M  V30 4773 C 633.89 -7.95349 -4.982 0
M  V30 4774 C 634.43 -6.94612 -5.98974 0
M  V30 4775 O 633.374 -6.10347 -6.11815 0
M  V30 4776 C 635.648 -6.11426 -5.62335 0
M  V30 4777 O 636.386 -5.6162 -6.70584 0
M  V30 4778 C 634.979 -5.04409 -4.73308 0
M  V30 4779 O 635.778 -3.85992 -4.75183 0
M  V30 4780 C 633.642 -4.8728 -5.41006 0
M  V30 4781 H 633.674 -4.02333 -6.11157 0
M  V30 4782 H 634.857 -5.39466 -3.69543 0
M  V30 4783 H 636.341 -6.71916 -5.01943 0
M  V30 4784 H 634.647 -7.4649 -6.93477 0
M  V30 4785 H 634.457 -8.89416 -5.05237 0
M  V30 4786 H 632.827 -8.14876 -5.18409 0
M  V30 4787 H 635.466 -3.27957 -5.4317 0
M  V30 4788 P 637.323 -5.75688 -6.64379 0
M  V30 4789 O 638.745 -6.07627 -7.05504 0
M  V30 4790 O 636.963 -5.88047 -5.19722 0
M  V30 4791 O 637 -4.2322 -7.04443 0
M  V30 4792 C 636.84 -3.99743 -8.4911 0
M  V30 4793 C 637.38 -2.60516 -8.79425 0
M  V30 4794 O 636.324 -1.82684 -8.4467 0
M  V30 4795 C 638.598 -2.10343 -8.03628 0
M  V30 4796 O 639.336 -1.09919 -8.67766 0
M  V30 4797 C 637.929 -1.68446 -6.70876 0
M  V30 4798 O 638.728 -0.678137 -6.08433 0
M  V30 4799 C 636.592 -1.17436 -7.18567 0
M  V30 4800 H 636.624 -0.0804732 -7.31656 0
M  V30 4801 H 637.807 -2.54037 -6.02537 0
M  V30 4802 H 639.291 -2.93881 -7.85526 0
M  V30 4803 H 637.597 -2.53065 -9.86973 0
M  V30 4804 H 637.407 -4.75072 -9.05887 0
M  V30 4805 H 635.777 -4.05244 -8.76668 0
M  V30 4806 H 638.416 0.177647 -6.34251 0
M  V30 4807 P 640.274 -1.25109 -8.70152 0
M  V30 4808 O 641.696 -1.29744 -9.22016 0
M  V30 4809 O 639.914 -2.13714 -7.55141 0
M  V30 4810 O 639.951 0.248149 -8.21425 0
M  V30 4811 C 639.791 1.22779 -9.30434 0
M  V30 4812 C 640.331 2.56293 -8.80664 0
M  V30 4813 O 639.275 3.02979 -8.09349 0
M  V30 4814 C 641.549 2.57523 -7.89775 0
M  V30 4815 O 642.287 3.7668 -7.89438 0
M  V30 4816 C 640.88 2.20997 -6.55446 0
M  V30 4817 O 641.679 2.71895 -5.48509 0
M  V30 4818 C 639.543 2.89693 -6.67988 0
M  V30 4819 H 639.575 3.88793 -6.19859 0
M  V30 4820 H 640.758 1.12046 -6.44229 0
M  V30 4821 H 642.242 1.7746 -8.19711 0
M  V30 4822 H 640.548 3.20706 -9.67112 0
M  V30 4823 H 640.358 0.901032 -10.1892 0
M  V30 4824 H 638.728 1.33049 -9.56592 0
M  V30 4825 H 641.367 3.57847 -5.23962 0
M  V30 4826 P 643.224 3.65191 -7.99657 0
M  V30 4827 O 644.646 3.89416 -8.45976 0
M  V30 4828 O 642.864 2.28472 -7.50807 0
M  V30 4829 O 642.901 4.64972 -6.77611 0
M  V30 4830 C 642.741 6.06319 -7.16352 0
M  V30 4831 C 643.281 6.91655 -6.02234 0
M  V30 4832 O 642.226 6.92449 -5.17064 0
M  V30 4833 C 644.499 6.43627 -5.25174 0
M  V30 4834 O 645.237 7.43686 -4.60469 0
M  V30 4835 C 643.831 5.40275 -4.31916 0
M  V30 4836 O 644.629 5.25193 -3.14386 0
M  V30 4837 C 642.493 6.04847 -4.05327 0
M  V30 4838 N 641.45 5.04166 -3.98114 0
M  V30 4839 C 641.512 3.96049 -4.75587 0
M  V30 4840 N 640.467 3.15559 -4.54006 0
M  V30 4841 C 639.733 3.78802 -3.62491 0
M  V30 4842 C 638.427 3.476 -3.10071 0
M  V30 4843 O 637.694 2.51136 -3.37021 0
M  V30 4844 N 637.997 4.39088 -2.19956 0
M  V30 4845 C 638.746 5.53215 -1.81733 0
M  V30 4846 N 638.149 6.31963 -0.860928 0
M  V30 4847 N 639.899 5.86688 -2.32562 0
M  V30 4848 C 640.356 4.97525 -3.23407 0
M  V30 4849 H 642.525 6.62195 -3.11261 0
M  V30 4850 H 643.708 4.42488 -4.8131 0
M  V30 4851 H 645.193 5.93051 -5.9305 0
M  V30 4852 H 643.498 7.92655 -6.402 0
M  V30 4853 H 643.308 6.26671 -8.0846 0
M  V30 4854 H 641.677 6.29101 -7.32804 0
M  V30 4855 H 637.101 4.25523 -1.77604 0
M  V30 4856 H 642.308 3.75576 -5.47333 0
M  V30 4857 H 637.238 6.04684 -0.468946 0
M  V30 4858 H 638.614 7.18054 -0.542422 0
M  V30 4859 H 644.318 5.84223 -2.47279 0
M  V30 4860 P 646.175 7.39546 -4.75277 0
M  V30 4861 O 647.597 7.84798 -5.01039 0
M  V30 4862 O 645.815 5.9812 -5.08098 0
M  V30 4863 O 645.852 7.57503 -3.1866 0
M  V30 4864 C 645.692 8.97357 -2.74833 0
M  V30 4865 C 646.232 9.07548 -1.32709 0
M  V30 4866 O 645.176 8.62072 -0.606159 0
M  V30 4867 C 647.45 8.25383 -0.938334 0
M  V30 4868 O 648.188 8.74577 0.146954 0
M  V30 4869 C 646.781 6.8802 -0.712559 0
M  V30 4870 O 647.58 6.1189 0.194655 0
M  V30 4871 C 645.444 7.27966 -0.139777 0
M  V30 4872 H 645.476 7.25354 0.961601 0
M  V30 4873 H 646.659 6.32557 -1.65702 0
M  V30 4874 H 648.143 8.19355 -1.79097 0
M  V30 4875 H 646.449 10.1294 -1.10029 0
M  V30 4876 H 646.259 9.64276 -3.41316 0
M  V30 4877 H 644.629 9.25417 -2.76357 0
M  V30 4878 H 647.268 6.25267 1.07847 0
M  V30 4879 P 649.125 8.791 4.45433e-12 0
M  V30 4880 O 650.547 9.31096 0.027933 0
M  V30 4881 O 648.765 7.77869 -1.04071 0
M  V30 4882 O 648.802 8.09533 1.41463 0
M  V30 4883 C 648.642 9.0349 2.53943 0
M  V30 4884 C 649.182 8.35226 3.79016 0
M  V30 4885 O 648.126 7.57992 4.15078 0
M  V30 4886 C 650.4 7.45087 3.67298 0
M  V30 4887 O 651.138 7.27796 4.85194 0
M  V30 4888 C 649.731 6.17323 3.12027 0
M  V30 4889 O 650.53 5.04231 3.47188 0
M  V30 4890 C 648.394 6.19961 3.81809 0
M  V30 4891 H 648.426 5.58218 4.73051 0
M  V30 4892 H 649.609 6.21726 2.02589 0
M  V30 4893 H 651.093 7.86112 2.9231 0
M  V30 4894 H 649.399 9.11627 4.55076 0
M  V30 4895 H 649.209 9.9573 2.34194 0
M  V30 4896 H 647.579 9.2792 2.67832 0
M  V30 4897 H 650.218 4.67702 4.28772 0
M  V30 4898 P 652.076 7.39546 4.75277 0
M  V30 4899 O 653.497 7.81861 5.05793 0
M  V30 4900 O 651.716 7.1065 3.32998 0
M  V30 4901 O 651.753 6.04542 5.56673 0
M  V30 4902 C 651.592 6.22839 7.02169 0
M  V30 4903 C 652.133 4.97725 7.70406 0
M  V30 4904 O 651.078 4.13208 7.58899 0
M  V30 4905 C 653.351 4.28231 7.11815 0
M  V30 4906 O 654.089 3.49945 8.01648 0
M  V30 4907 C 652.683 3.5063 5.96244 0
M  V30 4908 O 653.481 2.37008 5.64352 0
M  V30 4909 C 651.345 3.15122 6.56374 0
M  V30 4910 N 650.302 3.22311 5.55692 0
M  V30 4911 C 650.471 3.99655 4.46046 0
M  V30 4912 N 649.444 3.97599 3.63918 0
M  V30 4913 C 648.559 3.11159 4.25334 0
M  V30 4914 C 647.292 2.64972 3.85157 0
M  V30 4915 N 646.693 3.02132 2.69405 0
M  V30 4916 N 646.727 1.78482 4.74759 0
M  V30 4917 C 647.329 1.37463 5.90819 0
M  V30 4918 N 648.506 1.7733 6.31889 0
M  V30 4919 C 649.081 2.64393 5.43725 0
M  V30 4920 H 651.377 2.13823 6.99656 0
M  V30 4921 H 652.56 4.12931 5.06895 0
M  V30 4922 H 654.043 5.03285 6.70911 0
M  V30 4923 H 652.349 5.20001 8.76217 0
M  V30 4924 H 652.159 7.11046 7.35349 0
M  V30 4925 H 650.529 6.35815 7.26986 0
M  V30 4926 H 646.793 0.66574 6.53015 0
M  V30 4927 H 651.371 4.58037 4.27732 0
M  V30 4928 H 645.763 2.64828 2.45331 0
M  V30 4929 H 647.167 3.67472 2.05644 0
M  V30 4930 H 653.169 1.61619 6.13468 0
M  V30 4931 P 655.027 3.65191 7.99657 0
M  V30 4932 O 656.449 3.8425 8.48115 0
M  V30 4933 O 654.667 4.17805 6.64342 0
M  V30 4934 O 654.704 2.07613 7.95143 0
M  V30 4935 C 654.544 1.44328 9.27336 0
M  V30 4936 C 655.084 0.0220036 9.17197 0
M  V30 4937 O 654.028 -0.626867 8.61923 0
M  V30 4938 C 656.302 -0.24586 8.30336 0
M  V30 4939 O 657.04 -1.39011 8.63583 0
M  V30 4940 C 655.633 -0.273849 6.91158 0
M  V30 4941 O 656.432 -1.06348 6.02892 0
M  V30 4942 C 654.296 -0.897649 7.22545 0
M  V30 4943 H 654.328 -1.9841 7.04286 0
M  V30 4944 H 655.511 0.739928 6.497 0
M  V30 4945 H 656.995 0.60668 8.36503 0
M  V30 4946 H 655.301 -0.352479 10.1829 0
M  V30 4947 H 655.111 2.00611 10.0304 0
M  V30 4948 H 653.481 1.41843 9.55327 0
M  V30 4949 H 656.12 -1.95734 6.03555 0
M  V30 4950 P 657.977 -1.25109 8.70152 0
M  V30 4951 O 659.378 -1.31452 9.27431 0
M  V30 4952 O 657.599 -0.0458113 7.89887 0
M  V30 4953 O 657.654 -2.55201 7.81066 0
M  V30 4954 C 657.494 -3.79939 8.58154 0
M  V30 4955 C 658.034 -4.93969 7.72701 0
M  V30 4956 O 656.978 -5.18666 6.91125 0
M  V30 4957 C 659.251 -4.69597 6.85231 0
M  V30 4958 O 659.99 -5.83832 6.51337 0
M  V30 4959 C 658.584 -3.96706 5.66633 0
M  V30 4960 O 659.382 -4.15346 4.49615 0
M  V30 4961 C 657.246 -4.66153 5.59313 0
M  V30 4962 N 656.203 -3.71582 5.24027 0
M  V30 4963 C 655.168 -4.15133 4.44901 0
M  V30 4964 O 655.207 -5.32122 4.00336 0
M  V30 4965 N 654.156 -3.30554 4.15693 0
M  V30 4966 C 654.204 -2.04701 4.61105 0
M  V30 4967 N 653.194 -1.23621 4.31855 0
M  V30 4968 C 655.3 -1.57111 5.38655 0
M  V30 4969 C 656.266 -2.44234 5.68454 0
M  V30 4970 H 657.278 -5.47604 4.85148 0
M  V30 4971 H 658.461 -2.8955 5.86187 0
M  V30 4972 H 659.945 -4.01995 7.36197 0
M  V30 4973 H 658.251 -5.81019 8.37003 0
M  V30 4974 H 658.06 -3.73517 9.52265 0
M  V30 4975 H 656.43 -3.97122 8.80267 0
M  V30 4976 H 655.348 -0.538464 5.72373 0
M  V30 4977 H 657.112 -2.11927 6.29377 0
M  V30 4978 H 652.404 -1.58199 3.7543 0
M  V30 4979 H 653.199 -0.264601 4.65348 0
M  V30 4980 H 659.166 -4.98352 4.09633 0
M  V30 4981 P 660.928 -5.75688 6.64379 0
M  V30 4982 O 662.35 -6.11981 7.01997 0
M  V30 4983 O 660.568 -4.30744 6.56026 0
M  V30 4984 O 660.605 -6.37042 5.19165 0
M  V30 4985 C 660.445 -7.83578 5.16515 0
M  V30 4986 C 660.985 -8.33307 3.82977 0
M  V30 4987 O 659.93 -8.10074 3.01034 0
M  V30 4988 C 662.203 -7.65514 3.2257 0
M  V30 4989 O 662.941 -8.4329 2.32297 0
M  V30 4990 C 661.535 -6.40075 2.62207 0
M  V30 4991 O 662.333 -5.92492 1.53687 0
M  V30 4992 C 660.197 -6.9454 2.18503 0
M  V30 4993 N 659.154 -5.95905 2.39948 0
M  V30 4994 C 659.216 -5.13994 3.44742 0
M  V30 4995 N 658.171 -4.30684 3.46712 0
M  V30 4996 C 657.437 -4.65583 2.41086 0
M  V30 4997 C 656.131 -4.20877 1.99581 0
M  V30 4998 O 655.398 -3.35913 2.52616 0
M  V30 4999 N 655.701 -4.83271 0.873406 0
M  V30 5000 C 656.45 -5.82006 0.185129 0
M  V30 5001 N 655.853 -6.30619 -0.95439 0
M  V30 5002 N 657.603 -6.28443 0.578524 0
M  V30 5003 C 658.06 -5.68486 1.70138 0
M  V30 5004 H 660.229 -7.23063 1.12091 0
M  V30 5005 H 661.412 -5.60165 3.3715 0
M  V30 5006 H 662.897 -7.3611 4.01946 0
M  V30 5007 H 661.202 -9.40912 3.9095 0
M  V30 5008 H 661.012 -8.29056 5.99158 0
M  V30 5009 H 659.381 -8.10073 5.25882 0
M  V30 5010 H 654.805 -4.58323 0.505262 0
M  V30 5011 H 660.012 -5.14564 4.1935 0
M  V30 5012 H 654.942 -5.93402 -1.25364 0
M  V30 5013 H 656.318 -7.0425 -1.50254 0
M  V30 5014 H 662.022 -6.30224 0.72668 0
M  V30 5015 P 663.878 -8.4349 2.47671 0
M  V30 5016 O 665.3 -8.94167 2.5964 0
M  V30 5017 O 663.518 -7.1704 3.19006 0
M  V30 5018 O 663.555 -8.16596 0.923387 0
M  V30 5019 C 663.395 -9.38437 0.108857 0
M  V30 5020 C 663.935 -9.08175 -1.28353 0
M  V30 5021 O 662.879 -8.44229 -1.84713 0
M  V30 5022 C 665.153 -8.18386 -1.42505 0
M  V30 5023 O 665.891 -8.3501 -2.60497 0
M  V30 5024 C 664.484 -6.80225 -1.25468 0
M  V30 5025 O 665.283 -5.81621 -1.91066 0
M  V30 5026 C 663.147 -7.02416 -1.9168 0
M  V30 5027 H 663.179 -6.6888 -2.96621 0
M  V30 5028 H 664.362 -6.53617 -0.192223 0
M  V30 5029 H 665.846 -8.36622 -0.589963 0
M  V30 5030 H 664.152 -10.0291 -1.79807 0
M  V30 5031 H 663.962 -10.2138 0.558219 0
M  V30 5032 H 662.332 -9.6579 0.0444202 0
M  V30 5033 H 664.971 -5.69556 -2.79637 0
M  V30 5034 P 666.829 -8.4349 -2.47671 0
M  V30 5035 O 668.251 -8.92593 -2.65 0
M  V30 5036 O 666.469 -7.7568 -1.19296 0
M  V30 5037 O 666.506 -7.36886 -3.63805 0
M  V30 5038 C 666.346 -7.95349 -4.982 0
M  V30 5039 C 666.886 -6.94612 -5.98974 0
M  V30 5040 O 665.83 -6.10347 -6.11815 0
M  V30 5041 C 668.104 -6.11426 -5.62335 0
M  V30 5042 O 668.842 -5.6162 -6.70584 0
M  V30 5043 C 667.435 -5.04409 -4.73308 0
M  V30 5044 O 668.234 -3.85992 -4.75183 0
M  V30 5045 C 666.098 -4.8728 -5.41006 0
M  V30 5046 H 666.13 -4.02333 -6.11157 0
M  V30 5047 H 667.313 -5.39466 -3.69543 0
M  V30 5048 H 668.797 -6.71916 -5.01943 0
M  V30 5049 H 667.103 -7.4649 -6.93477 0
M  V30 5050 H 666.913 -8.89416 -5.05237 0
M  V30 5051 H 665.283 -8.14876 -5.18409 0
M  V30 5052 H 667.922 -3.27957 -5.4317 0
M  V30 5053 P 669.779 -5.75688 -6.64379 0
M  V30 5054 O 671.201 -6.07627 -7.05504 0
M  V30 5055 O 669.419 -5.88047 -5.19722 0
M  V30 5056 O 669.456 -4.2322 -7.04443 0
M  V30 5057 C 669.296 -3.99743 -8.4911 0
M  V30 5058 C 669.836 -2.60516 -8.79425 0
M  V30 5059 O 668.78 -1.82684 -8.4467 0
M  V30 5060 C 671.054 -2.10343 -8.03628 0
M  V30 5061 O 671.792 -1.09919 -8.67766 0
M  V30 5062 C 670.385 -1.68446 -6.70876 0
M  V30 5063 O 671.184 -0.678137 -6.08433 0
M  V30 5064 C 669.048 -1.17436 -7.18567 0
M  V30 5065 H 669.08 -0.0804732 -7.31656 0
M  V30 5066 H 670.263 -2.54037 -6.02537 0
M  V30 5067 H 671.747 -2.93881 -7.85526 0
M  V30 5068 H 670.053 -2.53065 -9.86973 0
M  V30 5069 H 669.863 -4.75072 -9.05887 0
M  V30 5070 H 668.233 -4.05244 -8.76668 0
M  V30 5071 H 670.872 0.177647 -6.34251 0
M  V30 5072 P 672.73 -1.25109 -8.70152 0
M  V30 5073 O 674.152 -1.29744 -9.22016 0
M  V30 5074 O 672.37 -2.13714 -7.55141 0
M  V30 5075 O 672.407 0.248149 -8.21425 0
M  V30 5076 C 672.247 1.22779 -9.30434 0
M  V30 5077 C 672.787 2.56293 -8.80664 0
M  V30 5078 O 671.731 3.02979 -8.09349 0
M  V30 5079 C 674.005 2.57523 -7.89775 0
M  V30 5080 O 674.743 3.7668 -7.89438 0
M  V30 5081 C 673.336 2.20997 -6.55446 0
M  V30 5082 O 674.135 2.71895 -5.48509 0
M  V30 5083 C 671.999 2.89693 -6.67988 0
M  V30 5084 H 672.031 3.88793 -6.19859 0
M  V30 5085 H 673.214 1.12046 -6.44229 0
M  V30 5086 H 674.698 1.7746 -8.19711 0
M  V30 5087 H 673.004 3.20706 -9.67112 0
M  V30 5088 H 672.814 0.901032 -10.1892 0
M  V30 5089 H 671.184 1.33049 -9.56592 0
M  V30 5090 H 673.823 3.57847 -5.23962 0
M  V30 5091 P 675.681 3.65191 -7.99657 0
M  V30 5092 O 677.103 3.89332 -8.45794 0
M  V30 5093 O 675.321 2.28472 -7.50807 0
M  V30 5094 O 675.358 4.64972 -6.77611 0
M  V30 5095 C 675.198 6.06319 -7.16352 0
M  V30 5096 C 675.738 6.91731 -6.02299 0
M  V30 5097 O 674.682 6.92449 -5.17064 0
M  V30 5098 C 676.956 6.43627 -5.25174 0
M  V30 5099 O 677.694 7.43686 -4.60469 0
M  V30 5100 C 676.287 5.40275 -4.31916 0
M  V30 5101 O 677.086 5.25279 -3.14438 0
M  V30 5102 C 674.95 6.04847 -4.05327 0
M  V30 5103 H 674.982 6.62195 -3.11261 0
M  V30 5104 H 676.165 4.42556 -4.81383 0
M  V30 5105 H 677.649 5.92458 -5.93643 0
M  V30 5106 H 675.955 7.92655 -6.402 0
M  V30 5107 H 675.765 6.26671 -8.0846 0
M  V30 5108 H 674.135 6.29101 -7.32804 0
M  V30 5109 H 676.774 5.84315 -2.47318 0
M  V30 5110 P 678.631 7.39546 -4.75277 0
M  V30 5111 O 680.053 7.84798 -5.01039 0
M  V30 5112 O 678.271 5.9812 -5.08098 0
M  V30 5113 O 678.308 7.57503 -3.1866 0
M  V30 5114 C 678.148 8.97357 -2.74833 0
M  V30 5115 C 678.688 9.07548 -1.32709 0
M  V30 5116 O 677.632 8.62072 -0.606159 0
M  V30 5117 C 679.906 8.25383 -0.938334 0
M  V30 5118 O 680.644 8.74577 0.146954 0
M  V30 5119 C 679.237 6.8802 -0.712559 0
M  V30 5120 O 680.036 6.1189 0.194655 0
M  V30 5121 C 677.9 7.27966 -0.139777 0
M  V30 5122 H 677.932 7.25354 0.961601 0
M  V30 5123 H 679.115 6.32557 -1.65702 0
M  V30 5124 H 680.599 8.19355 -1.79097 0
M  V30 5125 H 678.905 10.1294 -1.10029 0
M  V30 5126 H 678.715 9.64276 -3.41316 0
M  V30 5127 H 677.085 9.25417 -2.76357 0
M  V30 5128 H 679.724 6.25267 1.07847 0
M  V30 5129 P 681.582 8.791 4.7645e-12 0
M  V30 5130 O 683.003 9.31196 0.027936 0
M  V30 5131 O 681.222 7.77869 -1.04071 0
M  V30 5132 O 681.259 8.09533 1.41463 0
M  V30 5133 C 681.098 9.03587 2.5397 0
M  V30 5134 C 681.639 8.35226 3.79016 0
M  V30 5135 O 680.584 7.57904 4.1503 0
M  V30 5136 C 682.857 7.45087 3.67298 0
M  V30 5137 O 683.595 7.27796 4.85194 0
M  V30 5138 C 682.189 6.17323 3.12027 0
M  V30 5139 O 682.987 5.04496 3.46627 0
M  V30 5140 C 680.851 6.19961 3.81809 0
M  V30 5141 N 679.808 5.71575 2.93223 0
M  V30 5142 C 679.977 5.77362 1.59168 0
M  V30 5143 N 678.95 5.3123 0.911893 0
M  V30 5144 C 678.065 4.91717 1.89588 0
M  V30 5145 C 676.798 4.3114 1.8076 0
M  V30 5146 N 676.233 4.06823 3.02898 0
M  V30 5147 C 676.835 4.35062 4.22711 0
M  V30 5148 N 678.012 4.90805 4.35707 0
M  V30 5149 C 678.587 5.16382 3.14469 0
M  V30 5150 H 682.066 6.21428 2.0318 0
M  V30 5151 H 683.549 7.86112 2.9231 0
M  V30 5152 H 681.855 9.11171 4.55987 0
M  V30 5153 H 681.665 9.9573 2.34194 0
M  V30 5154 H 680.035 9.2792 2.67832 0
M  V30 5155 H 680.877 6.16575 1.12198 0
M  V30 5156 H 682.675 4.67628 4.28704 0
M  V30 5157 P 684.532 7.39546 4.75277 0
M  V30 5158 O 685.954 7.81777 5.05738 0
M  V30 5159 O 684.172 7.1065 3.32998 0
M  V30 5160 O 684.209 6.04542 5.56673 0
M  V30 5161 C 684.049 6.22772 7.02095 0
M  V30 5162 C 684.589 4.97725 7.70406 0
M  V30 5163 O 683.533 4.13256 7.58987 0
M  V30 5164 C 685.807 4.28231 7.11815 0
M  V30 5165 O 686.545 3.49945 8.01648 0
M  V30 5166 C 685.138 3.5063 5.96244 0
M  V30 5167 O 685.937 2.36482 5.64681 0
M  V30 5168 C 683.801 3.15122 6.56374 0
M  V30 5169 H 683.833 2.13853 6.99751 0
M  V30 5170 H 685.016 4.13501 5.06559 0
M  V30 5171 H 686.5 5.03285 6.70911 0
M  V30 5172 H 684.806 5.20877 8.75697 0
M  V30 5173 H 684.616 7.11046 7.35349 0
M  V30 5174 H 682.986 6.35815 7.26986 0
M  V30 5175 H 685.625 1.61644 6.13565 0
M  V30 5176 P 687.483 3.65191 7.99657 0
M  V30 5177 O 688.905 3.8425 8.48115 0
M  V30 5178 O 687.123 4.17805 6.64342 0
M  V30 5179 O 687.16 2.07613 7.95143 0
M  V30 5180 C 687 1.44328 9.27336 0
M  V30 5181 C 687.54 0.0220036 9.17197 0
M  V30 5182 O 686.484 -0.626867 8.61923 0
M  V30 5183 C 688.758 -0.24586 8.30336 0
M  V30 5184 O 689.496 -1.39011 8.63583 0
M  V30 5185 C 688.089 -0.273849 6.91158 0
M  V30 5186 O 688.888 -1.06348 6.02892 0
M  V30 5187 C 686.752 -0.897649 7.22545 0
M  V30 5188 H 686.784 -1.9841 7.04286 0
M  V30 5189 H 687.967 0.739928 6.497 0
M  V30 5190 H 689.451 0.60668 8.36503 0
M  V30 5191 H 687.757 -0.352479 10.1829 0
M  V30 5192 H 687.567 2.00611 10.0304 0
M  V30 5193 H 685.937 1.41843 9.55327 0
M  V30 5194 H 688.576 -1.95734 6.03555 0
M  V30 5195 P 690.433 -1.25109 8.70152 0
M  V30 5196 O 691.834 -1.31452 9.27431 0
M  V30 5197 O 690.055 -0.0458113 7.89887 0
M  V30 5198 O 690.11 -2.55201 7.81066 0
M  V30 5199 C 689.95 -3.79939 8.58154 0
M  V30 5200 C 690.49 -4.93969 7.72701 0
M  V30 5201 O 689.434 -5.18666 6.91125 0
M  V30 5202 C 691.707 -4.69597 6.85231 0
M  V30 5203 O 692.446 -5.83832 6.51337 0
M  V30 5204 C 691.04 -3.96706 5.66633 0
M  V30 5205 O 691.838 -4.15346 4.49615 0
M  V30 5206 C 689.702 -4.66153 5.59313 0
M  V30 5207 N 688.659 -3.71582 5.24027 0
M  V30 5208 C 687.624 -4.15133 4.44901 0
M  V30 5209 O 687.663 -5.32122 4.00336 0
M  V30 5210 N 686.612 -3.30554 4.15693 0
M  V30 5211 C 686.66 -2.04701 4.61105 0
M  V30 5212 N 685.65 -1.23621 4.31855 0
M  V30 5213 C 687.756 -1.57111 5.38655 0
M  V30 5214 C 688.722 -2.44234 5.68454 0
M  V30 5215 H 689.734 -5.47604 4.85148 0
M  V30 5216 H 690.917 -2.8955 5.86187 0
M  V30 5217 H 692.401 -4.01995 7.36197 0
M  V30 5218 H 690.707 -5.81019 8.37003 0
M  V30 5219 H 690.516 -3.73517 9.52265 0
M  V30 5220 H 688.886 -3.97122 8.80267 0
M  V30 5221 H 687.804 -0.538464 5.72373 0
M  V30 5222 H 689.568 -2.11927 6.29377 0
M  V30 5223 H 684.86 -1.58199 3.7543 0
M  V30 5224 H 685.655 -0.264601 4.65348 0
M  V30 5225 H 691.622 -4.98352 4.09633 0
M  V30 5226 P 693.384 -5.75688 6.64379 0
M  V30 5227 O 694.806 -6.11849 7.01846 0
M  V30 5228 O 693.024 -4.30744 6.56026 0
M  V30 5229 O 693.061 -6.37042 5.19165 0
M  V30 5230 C 692.901 -7.83578 5.16515 0
M  V30 5231 C 693.441 -8.33398 3.83019 0
M  V30 5232 O 692.385 -8.10074 3.01034 0
M  V30 5233 C 694.659 -7.65514 3.2257 0
M  V30 5234 O 695.397 -8.4329 2.32297 0
M  V30 5235 C 693.99 -6.40075 2.62207 0
M  V30 5236 O 694.789 -5.92589 1.53712 0
M  V30 5237 C 692.653 -6.9454 2.18503 0
M  V30 5238 H 692.685 -7.23063 1.12091 0
M  V30 5239 H 693.868 -5.6025 3.37201 0
M  V30 5240 H 695.352 -7.35707 4.02681 0
M  V30 5241 H 693.658 -9.40912 3.9095 0
M  V30 5242 H 693.468 -8.29056 5.99158 0
M  V30 5243 H 691.838 -8.10073 5.25882 0
M  V30 5244 H 694.477 -6.30324 0.726794 0
M  V30 5245 P 696.335 -8.4349 2.47671 0
M  V30 5246 O 697.757 -8.94167 2.5964 0
M  V30 5247 O 695.975 -7.1704 3.19006 0
M  V30 5248 O 696.012 -8.16596 0.923387 0
M  V30 5249 C 695.852 -9.38437 0.108857 0
M  V30 5250 C 696.392 -9.08175 -1.28353 0
M  V30 5251 O 695.336 -8.44229 -1.84713 0
M  V30 5252 C 697.61 -8.18386 -1.42505 0
M  V30 5253 O 698.348 -8.3501 -2.60497 0
M  V30 5254 C 696.941 -6.80225 -1.25468 0
M  V30 5255 O 697.74 -5.81621 -1.91066 0
M  V30 5256 C 695.604 -7.02416 -1.9168 0
M  V30 5257 H 695.636 -6.6888 -2.96621 0
M  V30 5258 H 696.819 -6.53617 -0.192223 0
M  V30 5259 H 698.303 -8.36622 -0.589963 0
M  V30 5260 H 696.609 -10.0291 -1.79807 0
M  V30 5261 H 696.419 -10.2138 0.558219 0
M  V30 5262 H 694.789 -9.6579 0.0444202 0
M  V30 5263 H 697.428 -5.69556 -2.79637 0
M  V30 5264 P 699.285 -8.4349 -2.47671 0
M  V30 5265 O 700.707 -8.92593 -2.65 0
M  V30 5266 O 698.925 -7.7568 -1.19296 0
M  V30 5267 O 698.962 -7.36886 -3.63805 0
M  V30 5268 C 698.802 -7.95349 -4.982 0
M  V30 5269 C 699.342 -6.94612 -5.98974 0
M  V30 5270 O 698.286 -6.10347 -6.11815 0
M  V30 5271 C 700.56 -6.11426 -5.62335 0
M  V30 5272 O 701.298 -5.6162 -6.70584 0
M  V30 5273 C 699.891 -5.04409 -4.73308 0
M  V30 5274 O 700.69 -3.85992 -4.75183 0
M  V30 5275 C 698.554 -4.8728 -5.41006 0
M  V30 5276 H 698.586 -4.02333 -6.11157 0
M  V30 5277 H 699.769 -5.39466 -3.69543 0
M  V30 5278 H 701.253 -6.71916 -5.01943 0
M  V30 5279 H 699.559 -7.4649 -6.93477 0
M  V30 5280 H 699.369 -8.89416 -5.05237 0
M  V30 5281 H 697.739 -8.14876 -5.18409 0
M  V30 5282 H 700.378 -3.27957 -5.4317 0
M  V30 5283 P 702.236 -5.75688 -6.64379 0
M  V30 5284 O 703.658 -6.07627 -7.05504 0
M  V30 5285 O 701.876 -5.88047 -5.19722 0
M  V30 5286 O 701.913 -4.2322 -7.04443 0
M  V30 5287 C 701.753 -3.99743 -8.4911 0
M  V30 5288 C 702.293 -2.60516 -8.79425 0
M  V30 5289 O 701.237 -1.82684 -8.4467 0
M  V30 5290 C 703.511 -2.10343 -8.03628 0
M  V30 5291 O 704.249 -1.09919 -8.67766 0
M  V30 5292 C 702.842 -1.68446 -6.70876 0
M  V30 5293 O 703.641 -0.678137 -6.08433 0
M  V30 5294 C 701.505 -1.17436 -7.18567 0
M  V30 5295 H 701.537 -0.0804732 -7.31656 0
M  V30 5296 H 702.72 -2.54037 -6.02537 0
M  V30 5297 H 704.204 -2.93881 -7.85526 0
M  V30 5298 H 702.51 -2.53065 -9.86973 0
M  V30 5299 H 702.32 -4.75072 -9.05887 0
M  V30 5300 H 700.69 -4.05244 -8.76668 0
M  V30 5301 H 703.329 0.177647 -6.34251 0
M  V30 5302 P 705.186 -1.25109 -8.70152 0
M  V30 5303 O 706.608 -1.29744 -9.22016 0
M  V30 5304 O 704.826 -2.13714 -7.55141 0
M  V30 5305 O 704.863 0.248149 -8.21425 0
M  V30 5306 C 704.703 1.22779 -9.30434 0
M  V30 5307 C 705.243 2.56293 -8.80664 0
M  V30 5308 O 704.187 3.02979 -8.09349 0
M  V30 5309 C 706.461 2.57523 -7.89775 0
M  V30 5310 O 707.199 3.7668 -7.89438 0
M  V30 5311 C 705.792 2.20997 -6.55446 0
M  V30 5312 O 706.591 2.71895 -5.48509 0
M  V30 5313 C 704.455 2.89693 -6.67988 0
M  V30 5314 H 704.487 3.88793 -6.19859 0
M  V30 5315 H 705.67 1.12046 -6.44229 0
M  V30 5316 H 707.154 1.7746 -8.19711 0
M  V30 5317 H 705.46 3.20706 -9.67112 0
M  V30 5318 H 705.27 0.901032 -10.1892 0
M  V30 5319 H 703.64 1.33049 -9.56592 0
M  V30 5320 H 706.279 3.57847 -5.23962 0
M  V30 5321 P 708.137 3.65191 -7.99657 0
M  V30 5322 O 709.559 3.89332 -8.45794 0
M  V30 5323 O 707.777 2.28472 -7.50807 0
M  V30 5324 O 707.814 4.64972 -6.77611 0
M  V30 5325 C 707.654 6.06319 -7.16352 0
M  V30 5326 C 708.194 6.91731 -6.02299 0
M  V30 5327 O 707.138 6.92449 -5.17064 0
M  V30 5328 C 709.412 6.43627 -5.25174 0
M  V30 5329 O 710.15 7.43686 -4.60469 0
M  V30 5330 C 708.743 5.40275 -4.31916 0
M  V30 5331 O 709.542 5.25279 -3.14438 0
M  V30 5332 C 707.406 6.04847 -4.05327 0
M  V30 5333 H 707.438 6.62195 -3.11261 0
M  V30 5334 H 708.621 4.42556 -4.81383 0
M  V30 5335 H 710.105 5.92458 -5.93643 0
M  V30 5336 H 708.411 7.92655 -6.402 0
M  V30 5337 H 708.221 6.26671 -8.0846 0
M  V30 5338 H 706.591 6.29101 -7.32804 0
M  V30 5339 H 709.23 5.84315 -2.47318 0
M  V30 5340 P 711.087 7.39546 -4.75277 0
M  V30 5341 O 712.509 7.84798 -5.01039 0
M  V30 5342 O 710.727 5.9812 -5.08098 0
M  V30 5343 O 710.764 7.57503 -3.1866 0
M  V30 5344 C 710.604 8.97357 -2.74833 0
M  V30 5345 C 711.144 9.07548 -1.32709 0
M  V30 5346 O 710.088 8.62072 -0.606159 0
M  V30 5347 C 712.362 8.25383 -0.938334 0
M  V30 5348 O 713.1 8.74577 0.146954 0
M  V30 5349 C 711.693 6.8802 -0.712559 0
M  V30 5350 O 712.492 6.1189 0.194655 0
M  V30 5351 C 710.356 7.27966 -0.139777 0
M  V30 5352 H 710.388 7.25354 0.961601 0
M  V30 5353 H 711.571 6.32557 -1.65702 0
M  V30 5354 H 713.055 8.19355 -1.79097 0
M  V30 5355 H 711.361 10.1294 -1.10029 0
M  V30 5356 H 711.171 9.64276 -3.41316 0
M  V30 5357 H 709.541 9.25417 -2.76357 0
M  V30 5358 H 712.18 6.25267 1.07847 0
M  V30 5359 P 714.038 8.791 5.07466e-12 0
M  V30 5360 O 715.46 9.31096 0.027933 0
M  V30 5361 O 713.678 7.77869 -1.04071 0
M  V30 5362 O 713.715 8.09533 1.41463 0
M  V30 5363 C 713.555 9.0349 2.53943 0
M  V30 5364 C 714.095 8.35226 3.79016 0
M  V30 5365 O 713.039 7.57992 4.15078 0
M  V30 5366 C 715.313 7.45087 3.67298 0
M  V30 5367 O 716.051 7.27796 4.85194 0
M  V30 5368 C 714.644 6.17323 3.12027 0
M  V30 5369 O 715.443 5.04231 3.47188 0
M  V30 5370 C 713.307 6.19961 3.81809 0
M  V30 5371 H 713.339 5.58218 4.73051 0
M  V30 5372 H 714.522 6.21726 2.02589 0
M  V30 5373 H 716.006 7.86112 2.9231 0
M  V30 5374 H 714.312 9.11627 4.55076 0
M  V30 5375 H 714.122 9.9573 2.34194 0
M  V30 5376 H 712.492 9.2792 2.67832 0
M  V30 5377 H 715.131 4.67702 4.28772 0
M  V30 5378 P 716.989 7.39546 4.75277 0
M  V30 5379 O 718.411 7.81777 5.05738 0
M  V30 5380 O 716.629 7.1065 3.32998 0
M  V30 5381 O 716.666 6.04542 5.56673 0
M  V30 5382 C 716.506 6.22772 7.02095 0
M  V30 5383 C 717.046 4.97725 7.70406 0
M  V30 5384 O 715.99 4.13256 7.58987 0
M  V30 5385 C 718.264 4.28231 7.11815 0
M  V30 5386 O 719.002 3.49945 8.01648 0
M  V30 5387 C 717.595 3.5063 5.96244 0
M  V30 5388 O 718.394 2.36482 5.64681 0
M  V30 5389 C 716.258 3.15122 6.56374 0
M  V30 5390 H 716.29 2.13853 6.99751 0
M  V30 5391 H 717.473 4.13501 5.06559 0
M  V30 5392 H 718.957 5.03285 6.70911 0
M  V30 5393 H 717.263 5.20877 8.75697 0
M  V30 5394 H 717.073 7.11046 7.35349 0
M  V30 5395 H 715.443 6.35815 7.26986 0
M  V30 5396 H 718.082 1.61644 6.13565 0
M  V30 5397 P 719.939 3.65191 7.99657 0
M  V30 5398 O 721.361 3.8425 8.48115 0
M  V30 5399 O 719.579 4.17805 6.64342 0
M  V30 5400 O 719.616 2.07613 7.95143 0
M  V30 5401 C 719.456 1.44328 9.27336 0
M  V30 5402 C 719.996 0.0220036 9.17197 0
M  V30 5403 O 718.94 -0.626867 8.61923 0
M  V30 5404 C 721.214 -0.24586 8.30336 0
M  V30 5405 O 721.952 -1.39011 8.63583 0
M  V30 5406 C 720.545 -0.273849 6.91158 0
M  V30 5407 O 721.344 -1.06348 6.02892 0
M  V30 5408 C 719.208 -0.897649 7.22545 0
M  V30 5409 H 719.24 -1.9841 7.04286 0
M  V30 5410 H 720.423 0.739928 6.497 0
M  V30 5411 H 721.907 0.60668 8.36503 0
M  V30 5412 H 720.213 -0.352479 10.1829 0
M  V30 5413 H 720.023 2.00611 10.0304 0
M  V30 5414 H 718.393 1.41843 9.55327 0
M  V30 5415 H 721.032 -1.95734 6.03555 0
M  V30 5416 P 722.89 -1.25109 8.70152 0
M  V30 5417 O 724.312 -1.35274 9.21221 0
M  V30 5418 O 722.53 -0.0769065 7.84762 0
M  V30 5419 O 722.567 -2.55232 7.81161 0
M  V30 5420 C 722.407 -3.79939 8.58154 0
M  V30 5421 C 722.947 -4.94023 7.72785 0
M  V30 5422 O 721.891 -5.18726 6.91205 0
M  V30 5423 C 724.165 -4.69597 6.85231 0
M  V30 5424 O 724.903 -5.83832 6.51337 0
M  V30 5425 C 723.496 -3.96706 5.66633 0
M  V30 5426 O 724.295 -4.15414 4.49689 0
M  V30 5427 C 722.159 -4.66153 5.59313 0
M  V30 5428 H 722.191 -5.47679 4.85214 0
M  V30 5429 H 723.374 -2.89008 5.86566 0
M  V30 5430 H 724.858 -4.0121 7.36511 0
M  V30 5431 H 723.164 -5.80182 8.37584 0
M  V30 5432 H 722.974 -3.73517 9.52265 0
M  V30 5433 H 721.344 -3.97163 8.80359 0
M  V30 5434 H 723.983 -4.90969 4.01921 0
M  V30 5435 P 725.84 -5.75688 6.64379 0
M  V30 5436 O 727.262 -6.11849 7.01846 0
M  V30 5437 O 725.48 -4.30744 6.56026 0
M  V30 5438 O 725.517 -6.37042 5.19165 0
M  V30 5439 C 725.357 -7.83578 5.16515 0
M  V30 5440 C 725.897 -8.33398 3.83019 0
M  V30 5441 O 724.841 -8.10074 3.01034 0
M  V30 5442 C 727.115 -7.65514 3.2257 0
M  V30 5443 O 727.853 -8.4329 2.32297 0
M  V30 5444 C 726.446 -6.40075 2.62207 0
M  V30 5445 O 727.245 -5.92589 1.53712 0
M  V30 5446 C 725.109 -6.9454 2.18503 0
M  V30 5447 H 725.141 -7.23063 1.12091 0
M  V30 5448 H 726.324 -5.6025 3.37201 0
M  V30 5449 H 727.808 -7.35707 4.02681 0
M  V30 5450 H 726.114 -9.40912 3.9095 0
M  V30 5451 H 725.924 -8.29056 5.99158 0
M  V30 5452 H 724.294 -8.10073 5.25882 0
M  V30 5453 H 726.933 -6.30324 0.726794 0
M  V30 5454 P 728.791 -8.4349 2.47671 0
M  V30 5455 O 730.213 -8.94167 2.5964 0
M  V30 5456 O 728.431 -7.1704 3.19006 0
M  V30 5457 O 728.468 -8.16596 0.923387 0
M  V30 5458 C 728.308 -9.38437 0.108857 0
M  V30 5459 C 728.848 -9.08175 -1.28353 0
M  V30 5460 O 727.792 -8.44229 -1.84713 0
M  V30 5461 C 730.066 -8.18386 -1.42505 0
M  V30 5462 O 730.804 -8.3501 -2.60497 0
M  V30 5463 C 729.397 -6.80225 -1.25468 0
M  V30 5464 O 730.196 -5.81621 -1.91066 0
M  V30 5465 C 728.06 -7.02416 -1.9168 0
M  V30 5466 H 728.092 -6.6888 -2.96621 0
M  V30 5467 H 729.275 -6.53617 -0.192223 0
M  V30 5468 H 730.759 -8.36622 -0.589963 0
M  V30 5469 H 729.065 -10.0291 -1.79807 0
M  V30 5470 H 728.875 -10.2138 0.558219 0
M  V30 5471 H 727.245 -9.6579 0.0444202 0
M  V30 5472 H 729.884 -5.69556 -2.79637 0
M  V30 5473 P 731.741 -8.4349 -2.47671 0
M  V30 5474 O 733.163 -8.92593 -2.65 0
M  V30 5475 O 731.381 -7.7568 -1.19296 0
M  V30 5476 O 731.418 -7.36886 -3.63805 0
M  V30 5477 C 731.258 -7.95349 -4.982 0
M  V30 5478 C 731.798 -6.94612 -5.98974 0
M  V30 5479 O 730.742 -6.10347 -6.11815 0
M  V30 5480 C 733.016 -6.11426 -5.62335 0
M  V30 5481 O 733.754 -5.6162 -6.70584 0
M  V30 5482 C 732.347 -5.04409 -4.73308 0
M  V30 5483 O 733.146 -3.85992 -4.75183 0
M  V30 5484 C 731.01 -4.8728 -5.41006 0
M  V30 5485 H 731.042 -4.02333 -6.11157 0
M  V30 5486 H 732.225 -5.39466 -3.69543 0
M  V30 5487 H 733.709 -6.71916 -5.01943 0
M  V30 5488 H 732.015 -7.4649 -6.93477 0
M  V30 5489 H 731.825 -8.89416 -5.05237 0
M  V30 5490 H 730.195 -8.14876 -5.18409 0
M  V30 5491 H 732.834 -3.27957 -5.4317 0
M  V30 5492 P 734.692 -5.75688 -6.64379 0
M  V30 5493 O 736.114 -6.07627 -7.05504 0
M  V30 5494 O 734.332 -5.88047 -5.19722 0
M  V30 5495 O 734.369 -4.2322 -7.04443 0
M  V30 5496 C 734.209 -3.99743 -8.4911 0
M  V30 5497 C 734.749 -2.60516 -8.79425 0
M  V30 5498 O 733.693 -1.82684 -8.4467 0
M  V30 5499 C 735.967 -2.10343 -8.03628 0
M  V30 5500 O 736.705 -1.09919 -8.67766 0
M  V30 5501 C 735.298 -1.68446 -6.70876 0
M  V30 5502 O 736.097 -0.678137 -6.08433 0
M  V30 5503 C 733.961 -1.17436 -7.18567 0
M  V30 5504 H 733.993 -0.0804732 -7.31656 0
M  V30 5505 H 735.176 -2.54037 -6.02537 0
M  V30 5506 H 736.66 -2.93881 -7.85526 0
M  V30 5507 H 734.966 -2.53065 -9.86973 0
M  V30 5508 H 734.776 -4.75072 -9.05887 0
M  V30 5509 H 733.146 -4.05244 -8.76668 0
M  V30 5510 H 735.785 0.177647 -6.34251 0
M  V30 5511 P 737.643 -1.25109 -8.70152 0
M  V30 5512 O 739.065 -1.29744 -9.22016 0
M  V30 5513 O 737.283 -2.13714 -7.55141 0
M  V30 5514 O 737.32 0.248149 -8.21425 0
M  V30 5515 C 737.16 1.22779 -9.30434 0
M  V30 5516 C 737.7 2.56293 -8.80664 0
M  V30 5517 O 736.644 3.02979 -8.09349 0
M  V30 5518 C 738.918 2.57523 -7.89775 0
M  V30 5519 O 739.656 3.7668 -7.89438 0
M  V30 5520 C 738.249 2.20997 -6.55446 0
M  V30 5521 O 739.048 2.71895 -5.48509 0
M  V30 5522 C 736.912 2.89693 -6.67988 0
M  V30 5523 H 736.944 3.88793 -6.19859 0
M  V30 5524 H 738.127 1.12046 -6.44229 0
M  V30 5525 H 739.611 1.7746 -8.19711 0
M  V30 5526 H 737.917 3.20706 -9.67112 0
M  V30 5527 H 737.726 0.901032 -10.1892 0
M  V30 5528 H 736.096 1.33049 -9.56592 0
M  V30 5529 H 738.736 3.57847 -5.23962 0
M  V30 5530 P 740.593 3.65191 -7.99657 0
M  V30 5531 O 742.015 3.89332 -8.45794 0
M  V30 5532 O 740.233 2.28472 -7.50807 0
M  V30 5533 O 740.27 4.64972 -6.77611 0
M  V30 5534 C 740.11 6.06319 -7.16352 0
M  V30 5535 C 740.65 6.91731 -6.02299 0
M  V30 5536 O 739.594 6.92449 -5.17064 0
M  V30 5537 C 741.868 6.43627 -5.25174 0
M  V30 5538 O 742.606 7.43686 -4.60469 0
M  V30 5539 C 741.199 5.40275 -4.31916 0
M  V30 5540 O 741.998 5.25279 -3.14438 0
M  V30 5541 C 739.862 6.04847 -4.05327 0
M  V30 5542 H 739.894 6.62195 -3.11261 0
M  V30 5543 H 741.077 4.42556 -4.81383 0
M  V30 5544 H 742.561 5.92458 -5.93643 0
M  V30 5545 H 740.867 7.92655 -6.402 0
M  V30 5546 H 740.677 6.26671 -8.0846 0
M  V30 5547 H 739.047 6.29101 -7.32804 0
M  V30 5548 H 741.686 5.84315 -2.47318 0
M  V30 5549 P 743.544 7.39546 -4.75277 0
M  V30 5550 O 744.966 7.84798 -5.01039 0
M  V30 5551 O 743.184 5.9812 -5.08098 0
M  V30 5552 O 743.221 7.57503 -3.1866 0
M  V30 5553 C 743.061 8.97357 -2.74833 0
M  V30 5554 C 743.601 9.07548 -1.32709 0
M  V30 5555 O 742.545 8.62072 -0.606159 0
M  V30 5556 C 744.819 8.25383 -0.938334 0
M  V30 5557 O 745.557 8.74577 0.146954 0
M  V30 5558 C 744.15 6.8802 -0.712559 0
M  V30 5559 O 744.949 6.1189 0.194655 0
M  V30 5560 C 742.813 7.27966 -0.139777 0
M  V30 5561 H 742.845 7.25354 0.961601 0
M  V30 5562 H 744.028 6.32557 -1.65702 0
M  V30 5563 H 745.512 8.19355 -1.79097 0
M  V30 5564 H 743.818 10.1294 -1.10029 0
M  V30 5565 H 743.628 9.64276 -3.41316 0
M  V30 5566 H 741.998 9.25417 -2.76357 0
M  V30 5567 H 744.637 6.25267 1.07847 0
M  V30 5568 P 746.494 8.791 5.38483e-12 0
M  V30 5569 O 747.916 9.31096 0.027933 0
M  V30 5570 O 746.134 7.77869 -1.04071 0
M  V30 5571 O 746.171 8.09533 1.41463 0
M  V30 5572 C 746.011 9.0349 2.53943 0
M  V30 5573 C 746.551 8.35226 3.79016 0
M  V30 5574 O 745.495 7.57992 4.15078 0
M  V30 5575 C 747.769 7.45087 3.67298 0
M  V30 5576 O 748.507 7.27796 4.85194 0
M  V30 5577 C 747.1 6.17323 3.12027 0
M  V30 5578 O 747.899 5.04231 3.47188 0
M  V30 5579 C 745.763 6.19961 3.81809 0
M  V30 5580 H 745.795 5.58218 4.73051 0
M  V30 5581 H 746.978 6.21726 2.02589 0
M  V30 5582 H 748.462 7.86112 2.9231 0
M  V30 5583 H 746.768 9.11627 4.55076 0
M  V30 5584 H 746.578 9.9573 2.34194 0
M  V30 5585 H 744.948 9.2792 2.67832 0
M  V30 5586 H 747.587 4.67702 4.28772 0
M  V30 5587 P 749.445 7.39546 4.75277 0
M  V30 5588 O 750.867 7.81945 5.05847 0
M  V30 5589 O 749.085 7.1065 3.32998 0
M  V30 5590 O 749.122 6.04542 5.56673 0
M  V30 5591 C 748.962 6.22772 7.02095 0
M  V30 5592 C 749.502 4.97671 7.70322 0
M  V30 5593 O 748.447 4.13256 7.58987 0
M  V30 5594 C 750.72 4.28231 7.11815 0
M  V30 5595 O 751.458 3.49945 8.01648 0
M  V30 5596 C 750.052 3.5063 5.96244 0
M  V30 5597 O 750.85 2.36443 5.64589 0
M  V30 5598 C 748.714 3.15122 6.56374 0
M  V30 5599 N 747.671 3.22311 5.55692 0
M  V30 5600 C 747.733 4.14382 4.59701 0
M  V30 5601 N 746.688 4.04476 3.76958 0
M  V30 5602 C 745.954 3.04892 4.26534 0
M  V30 5603 C 744.648 2.57447 3.88189 0
M  V30 5604 O 743.915 2.9785 2.96543 0
M  V30 5605 N 744.218 1.55228 4.65922 0
M  V30 5606 C 744.967 1.01152 5.73447 0
M  V30 5607 N 744.37 -0.0472117 6.37783 0
M  V30 5608 N 746.12 1.467 6.13813 0
M  V30 5609 C 746.577 2.4931 5.38487 0
M  V30 5610 H 748.746 2.13853 6.99751 0
M  V30 5611 H 749.929 4.13438 5.06482 0
M  V30 5612 H 751.414 5.02614 6.71414 0
M  V30 5613 H 749.719 5.20877 8.75697 0
M  V30 5614 H 749.529 7.11046 7.35349 0
M  V30 5615 H 747.898 6.35815 7.26986 0
M  V30 5616 H 743.322 1.15238 4.46468 0
M  V30 5617 H 748.529 4.88312 4.49647 0
M  V30 5618 H 743.459 -0.396382 6.05203 0
M  V30 5619 H 744.835 -0.484997 7.18465 0
M  V30 5620 H 750.539 1.61619 6.13468 0
M  V30 5621 P 752.395 3.65191 7.99657 0
M  V30 5622 O 753.817 3.8425 8.48115 0
M  V30 5623 O 752.035 4.17805 6.64342 0
M  V30 5624 O 752.072 2.07613 7.95143 0
M  V30 5625 C 751.912 1.44328 9.27336 0
M  V30 5626 C 752.452 0.0220036 9.17197 0
M  V30 5627 O 751.396 -0.626867 8.61923 0
M  V30 5628 C 753.67 -0.24586 8.30336 0
M  V30 5629 O 754.408 -1.39011 8.63583 0
M  V30 5630 C 753.001 -0.273849 6.91158 0
M  V30 5631 O 753.8 -1.06348 6.02892 0
M  V30 5632 C 751.664 -0.897649 7.22545 0
M  V30 5633 H 751.696 -1.9841 7.04286 0
M  V30 5634 H 752.879 0.739928 6.497 0
M  V30 5635 H 754.363 0.60668 8.36503 0
M  V30 5636 H 752.669 -0.352479 10.1829 0
M  V30 5637 H 752.479 2.00611 10.0304 0
M  V30 5638 H 750.849 1.41843 9.55327 0
M  V30 5639 H 753.488 -1.95734 6.03555 0
M  V30 5640 P 755.346 -1.25109 8.70152 0
M  V30 5641 O 756.768 -1.35274 9.21221 0
M  V30 5642 O 754.986 -0.0769065 7.84762 0
M  V30 5643 O 755.023 -2.55232 7.81161 0
M  V30 5644 C 754.863 -3.79939 8.58154 0
M  V30 5645 C 755.403 -4.94023 7.72785 0
M  V30 5646 O 754.347 -5.18726 6.91205 0
M  V30 5647 C 756.621 -4.69597 6.85231 0
M  V30 5648 O 757.359 -5.83832 6.51337 0
M  V30 5649 C 755.952 -3.96706 5.66633 0
M  V30 5650 O 756.751 -4.15414 4.49689 0
M  V30 5651 C 754.615 -4.66153 5.59313 0
M  V30 5652 H 754.647 -5.47679 4.85214 0
M  V30 5653 H 755.83 -2.89008 5.86566 0
M  V30 5654 H 757.314 -4.0121 7.36511 0
M  V30 5655 H 755.62 -5.80182 8.37584 0
M  V30 5656 H 755.43 -3.73517 9.52265 0
M  V30 5657 H 753.8 -3.97163 8.80359 0
M  V30 5658 H 756.439 -4.90969 4.01921 0
M  V30 5659 P 758.296 -5.75688 6.64379 0
M  V30 5660 O 759.718 -6.11981 7.01997 0
M  V30 5661 O 757.936 -4.30744 6.56026 0
M  V30 5662 O 757.973 -6.37042 5.19165 0
M  V30 5663 C 757.813 -7.83578 5.16515 0
M  V30 5664 C 758.353 -8.33307 3.82977 0
M  V30 5665 O 757.298 -8.10074 3.01034 0
M  V30 5666 C 759.571 -7.65514 3.2257 0
M  V30 5667 O 760.309 -8.4329 2.32297 0
M  V30 5668 C 758.903 -6.40075 2.62207 0
M  V30 5669 O 759.701 -5.92492 1.53687 0
M  V30 5670 C 757.565 -6.9454 2.18503 0
M  V30 5671 N 756.522 -5.95905 2.39948 0
M  V30 5672 C 756.584 -5.13994 3.44742 0
M  V30 5673 N 755.539 -4.30684 3.46712 0
M  V30 5674 C 754.805 -4.65583 2.41086 0
M  V30 5675 C 753.499 -4.20877 1.99581 0
M  V30 5676 O 752.766 -3.35913 2.52616 0
M  V30 5677 N 753.069 -4.83271 0.873406 0
M  V30 5678 C 753.818 -5.82006 0.185129 0
M  V30 5679 N 753.221 -6.30619 -0.95439 0
M  V30 5680 N 754.971 -6.28443 0.578524 0
M  V30 5681 C 755.428 -5.68486 1.70138 0
M  V30 5682 H 757.597 -7.23063 1.12091 0
M  V30 5683 H 758.78 -5.60165 3.3715 0
M  V30 5684 H 760.265 -7.3611 4.01946 0
M  V30 5685 H 758.57 -9.40912 3.9095 0
M  V30 5686 H 758.38 -8.29056 5.99158 0
M  V30 5687 H 756.749 -8.10073 5.25882 0
M  V30 5688 H 752.173 -4.58323 0.505262 0
M  V30 5689 H 757.38 -5.14564 4.1935 0
M  V30 5690 H 752.31 -5.93402 -1.25364 0
M  V30 5691 H 753.686 -7.0425 -1.50254 0
M  V30 5692 H 759.39 -6.30224 0.72668 0
M  V30 5693 P 761.247 -8.4349 2.47671 0
M  V30 5694 O 762.669 -8.94167 2.5964 0
M  V30 5695 O 760.887 -7.1704 3.19006 0
M  V30 5696 O 760.924 -8.16596 0.923387 0
M  V30 5697 C 760.764 -9.38437 0.108857 0
M  V30 5698 C 761.304 -9.08175 -1.28353 0
M  V30 5699 O 760.248 -8.44229 -1.84713 0
M  V30 5700 C 762.522 -8.18386 -1.42505 0
M  V30 5701 O 763.26 -8.3501 -2.60497 0
M  V30 5702 C 761.853 -6.80225 -1.25468 0
M  V30 5703 O 762.652 -5.81621 -1.91066 0
M  V30 5704 C 760.516 -7.02416 -1.9168 0
M  V30 5705 H 760.548 -6.6888 -2.96621 0
M  V30 5706 H 761.731 -6.53617 -0.192223 0
M  V30 5707 H 763.215 -8.36622 -0.589963 0
M  V30 5708 H 761.521 -10.0291 -1.79807 0
M  V30 5709 H 761.331 -10.2138 0.558219 0
M  V30 5710 H 759.701 -9.6579 0.0444202 0
M  V30 5711 H 762.34 -5.69556 -2.79637 0
M  V30 5712 P 764.198 -8.4349 -2.47671 0
M  V30 5713 O 765.619 -8.92689 -2.65029 0
M  V30 5714 O 763.838 -7.7568 -1.19296 0
M  V30 5715 O 763.875 -7.36886 -3.63805 0
M  V30 5716 C 763.714 -7.95433 -4.98253 0
M  V30 5717 C 764.255 -6.94612 -5.98974 0
M  V30 5718 O 763.2 -6.10277 -6.11744 0
M  V30 5719 C 765.473 -6.11426 -5.62335 0
M  V30 5720 O 766.211 -5.6162 -6.70584 0
M  V30 5721 C 764.805 -5.04409 -4.73308 0
M  V30 5722 O 765.603 -3.86404 -4.74719 0
M  V30 5723 C 763.467 -4.8728 -5.41006 0
M  V30 5724 N 762.424 -4.65812 -4.42377 0
M  V30 5725 C 762.593 -5.09132 -3.15382 0
M  V30 5726 N 761.566 -4.84021 -2.3716 0
M  V30 5727 C 760.681 -4.18386 -3.20441 0
M  V30 5728 C 759.414 -3.6275 -2.94905 0
M  V30 5729 N 758.815 -3.65794 -1.73372 0
M  V30 5730 N 758.849 -3.05008 -4.05243 0
M  V30 5731 C 759.451 -2.98348 -5.28159 0
M  V30 5732 N 760.628 -3.48171 -5.56333 0
M  V30 5733 C 761.203 -4.06869 -4.47212 0
M  V30 5734 H 763.499 -4.02278 -6.11074 0
M  V30 5735 H 764.682 -5.39013 -3.70026 0
M  V30 5736 H 766.165 -6.71916 -5.01943 0
M  V30 5737 H 764.471 -7.45796 -6.94223 0
M  V30 5738 H 764.281 -8.89416 -5.05237 0
M  V30 5739 H 762.651 -8.14876 -5.18409 0
M  V30 5740 H 758.915 -2.47853 -6.07807 0
M  V30 5741 H 763.493 -5.59989 -2.81362 0
M  V30 5742 H 757.885 -3.23218 -1.60782 0
M  V30 5743 H 759.289 -4.10523 -0.937856 0
M  V30 5744 H 765.291 -3.27906 -5.43085 0
M  V30 5745 P 767.148 -5.75688 -6.64379 0
M  V30 5746 O 768.57 -6.07627 -7.05504 0
M  V30 5747 O 766.788 -5.88047 -5.19722 0
M  V30 5748 O 766.825 -4.2322 -7.04443 0
M  V30 5749 C 766.665 -3.99743 -8.4911 0
M  V30 5750 C 767.205 -2.60516 -8.79425 0
M  V30 5751 O 766.149 -1.82684 -8.4467 0
M  V30 5752 C 768.423 -2.10343 -8.03628 0
M  V30 5753 O 769.161 -1.09919 -8.67766 0
M  V30 5754 C 767.754 -1.68446 -6.70876 0
M  V30 5755 O 768.553 -0.678137 -6.08433 0
M  V30 5756 C 766.417 -1.17436 -7.18567 0
M  V30 5757 H 766.449 -0.0804732 -7.31656 0
M  V30 5758 H 767.632 -2.54037 -6.02537 0
M  V30 5759 H 769.116 -2.93881 -7.85526 0
M  V30 5760 H 767.422 -2.53065 -9.86973 0
M  V30 5761 H 767.232 -4.75072 -9.05887 0
M  V30 5762 H 765.602 -4.05244 -8.76668 0
M  V30 5763 H 768.241 0.177647 -6.34251 0
M  V30 5764 P 770.099 -1.25109 -8.70152 0
M  V30 5765 O 771.521 -1.29744 -9.22016 0
M  V30 5766 O 769.739 -2.13714 -7.55141 0
M  V30 5767 O 769.776 0.248149 -8.21425 0
M  V30 5768 C 769.616 1.22779 -9.30434 0
M  V30 5769 C 770.156 2.56293 -8.80664 0
M  V30 5770 O 769.1 3.02979 -8.09349 0
M  V30 5771 C 771.374 2.57523 -7.89775 0
M  V30 5772 O 772.112 3.7668 -7.89438 0
M  V30 5773 C 770.705 2.20997 -6.55446 0
M  V30 5774 O 771.504 2.71895 -5.48509 0
M  V30 5775 C 769.368 2.89693 -6.67988 0
M  V30 5776 H 769.4 3.88793 -6.19859 0
M  V30 5777 H 770.583 1.12046 -6.44229 0
M  V30 5778 H 772.067 1.7746 -8.19711 0
M  V30 5779 H 770.373 3.20706 -9.67112 0
M  V30 5780 H 770.183 0.901032 -10.1892 0
M  V30 5781 H 768.553 1.33049 -9.56592 0
M  V30 5782 H 771.192 3.57847 -5.23962 0
M  V30 5783 P 773.049 3.65191 -7.99657 0
M  V30 5784 O 774.471 3.89332 -8.45794 0
M  V30 5785 O 772.689 2.28472 -7.50807 0
M  V30 5786 O 772.726 4.64972 -6.77611 0
M  V30 5787 C 772.566 6.06319 -7.16352 0
M  V30 5788 C 773.106 6.91731 -6.02299 0
M  V30 5789 O 772.05 6.92449 -5.17064 0
M  V30 5790 C 774.324 6.43627 -5.25174 0
M  V30 5791 O 775.062 7.43686 -4.60469 0
M  V30 5792 C 773.655 5.40275 -4.31916 0
M  V30 5793 O 774.454 5.25279 -3.14438 0
M  V30 5794 C 772.318 6.04847 -4.05327 0
M  V30 5795 H 772.35 6.62195 -3.11261 0
M  V30 5796 H 773.533 4.42556 -4.81383 0
M  V30 5797 H 775.017 5.92458 -5.93643 0
M  V30 5798 H 773.323 7.92655 -6.402 0
M  V30 5799 H 773.133 6.26671 -8.0846 0
M  V30 5800 H 771.503 6.29101 -7.32804 0
M  V30 5801 H 774.142 5.84315 -2.47318 0
M  V30 5802 P 776 7.39546 -4.75277 0
M  V30 5803 O 777.421 7.84882 -5.01092 0
M  V30 5804 O 775.64 5.9812 -5.08098 0
M  V30 5805 O 775.677 7.57503 -3.1866 0
M  V30 5806 C 775.516 8.97452 -2.74862 0
M  V30 5807 C 776.057 9.07548 -1.32709 0
M  V30 5808 O 775.002 8.61972 -0.606089 0
M  V30 5809 C 777.275 8.25383 -0.938334 0
M  V30 5810 O 778.013 8.74577 0.146954 0
M  V30 5811 C 776.607 6.8802 -0.712559 0
M  V30 5812 O 777.405 6.1181 0.188505 0
M  V30 5813 C 775.269 7.27966 -0.139777 0
M  V30 5814 N 774.226 6.39368 -0.623421 0
M  V30 5815 C 774.395 5.71761 -1.78245 0
M  V30 5816 N 773.368 4.962 -2.10491 0
M  V30 5817 C 772.483 5.16158 -1.0635 0
M  V30 5818 C 771.216 4.60425 -0.810266 0
M  V30 5819 N 770.617 3.7057 -1.62914 0
M  V30 5820 N 770.651 5.06 0.348685 0
M  V30 5821 C 771.253 5.94532 1.20395 0
M  V30 5822 N 772.43 6.48452 1.01191 0
M  V30 5823 C 773.005 6.04423 -0.146291 0
M  V30 5824 H 775.301 7.25255 0.961469 0
M  V30 5825 H 776.484 6.32625 -1.65044 0
M  V30 5826 H 777.967 8.19355 -1.79097 0
M  V30 5827 H 776.273 10.1305 -1.09016 0
M  V30 5828 H 776.083 9.64276 -3.41316 0
M  V30 5829 H 774.453 9.25417 -2.76357 0
M  V30 5830 H 770.717 6.21659 2.10714 0
M  V30 5831 H 775.295 5.79354 -2.38959 0
M  V30 5832 H 769.687 3.33174 -1.38982 0
M  V30 5833 H 771.091 3.39714 -2.48836 0
M  V30 5834 H 777.093 6.25169 1.0783 0
M  V30 5835 P 778.95 8.791 5.69499e-12 0
M  V30 5836 O 780.372 9.31096 0.027933 0
M  V30 5837 O 778.59 7.77869 -1.04071 0
M  V30 5838 O 778.627 8.09533 1.41463 0
M  V30 5839 C 778.467 9.0349 2.53943 0
M  V30 5840 C 779.007 8.35226 3.79016 0
M  V30 5841 O 777.951 7.57992 4.15078 0
M  V30 5842 C 780.225 7.45087 3.67298 0
M  V30 5843 O 780.963 7.27796 4.85194 0
M  V30 5844 C 779.556 6.17323 3.12027 0
M  V30 5845 O 780.355 5.04231 3.47188 0
M  V30 5846 C 778.219 6.19961 3.81809 0
M  V30 5847 H 778.251 5.58218 4.73051 0
M  V30 5848 H 779.434 6.21726 2.02589 0
M  V30 5849 H 780.918 7.86112 2.9231 0
M  V30 5850 H 779.224 9.11627 4.55076 0
M  V30 5851 H 779.034 9.9573 2.34194 0
M  V30 5852 H 777.404 9.2792 2.67832 0
M  V30 5853 H 780.043 4.67702 4.28772 0
M  V30 5854 P 781.901 7.39546 4.75277 0
M  V30 5855 O 783.322 7.81861 5.05793 0
M  V30 5856 O 781.541 7.1065 3.32998 0
M  V30 5857 O 781.578 6.04542 5.56673 0
M  V30 5858 C 781.417 6.22839 7.02169 0
M  V30 5859 C 781.958 4.97725 7.70406 0
M  V30 5860 O 780.903 4.13208 7.58899 0
M  V30 5861 C 783.176 4.28231 7.11815 0
M  V30 5862 O 783.914 3.49945 8.01648 0
M  V30 5863 C 782.508 3.5063 5.96244 0
M  V30 5864 O 783.306 2.37008 5.64352 0
M  V30 5865 C 781.17 3.15122 6.56374 0
M  V30 5866 N 780.127 3.22311 5.55692 0
M  V30 5867 C 780.296 3.99655 4.46046 0
M  V30 5868 N 779.269 3.97599 3.63918 0
M  V30 5869 C 778.384 3.11159 4.25334 0
M  V30 5870 C 777.117 2.64972 3.85157 0
M  V30 5871 N 776.552 1.78482 4.74759 0
M  V30 5872 C 777.154 1.37463 5.90819 0
M  V30 5873 N 778.331 1.7733 6.31889 0
M  V30 5874 C 778.906 2.64393 5.43725 0
M  V30 5875 H 782.385 4.12931 5.06895 0
M  V30 5876 H 783.868 5.03285 6.70911 0
M  V30 5877 H 782.174 5.20001 8.76217 0
M  V30 5878 H 781.984 7.11046 7.35349 0
M  V30 5879 H 780.354 6.35815 7.26986 0
M  V30 5880 H 781.196 4.58037 4.27732 0
M  V30 5881 H 782.994 1.61619 6.13468 0
M  V30 5882 P 784.852 3.65191 7.99657 0
M  V30 5883 O 786.274 3.8425 8.48115 0
M  V30 5884 O 784.492 4.17805 6.64342 0
M  V30 5885 O 784.529 2.07613 7.95143 0
M  V30 5886 C 784.369 1.44328 9.27336 0
M  V30 5887 C 784.909 0.0220036 9.17197 0
M  V30 5888 O 783.853 -0.626867 8.61923 0
M  V30 5889 C 786.127 -0.24586 8.30336 0
M  V30 5890 O 786.865 -1.39011 8.63583 0
M  V30 5891 C 785.458 -0.273849 6.91158 0
M  V30 5892 O 786.257 -1.06348 6.02892 0
M  V30 5893 C 784.121 -0.897649 7.22545 0
M  V30 5894 H 784.153 -1.9841 7.04286 0
M  V30 5895 H 785.336 0.739928 6.497 0
M  V30 5896 H 786.82 0.60668 8.36503 0
M  V30 5897 H 785.126 -0.352479 10.1829 0
M  V30 5898 H 784.936 2.00611 10.0304 0
M  V30 5899 H 783.306 1.41843 9.55327 0
M  V30 5900 H 785.945 -1.95734 6.03555 0
M  V30 5901 P 787.802 -1.25109 8.70152 0
M  V30 5902 O 789.224 -1.35303 9.21419 0
M  V30 5903 O 787.442 -0.0769065 7.84762 0
M  V30 5904 O 787.479 -2.55232 7.81161 0
M  V30 5905 C 787.319 -3.79939 8.58154 0
M  V30 5906 C 787.859 -4.93969 7.72701 0
M  V30 5907 O 786.804 -5.18726 6.91205 0
M  V30 5908 C 789.077 -4.69597 6.85231 0
M  V30 5909 O 789.815 -5.83832 6.51337 0
M  V30 5910 C 788.409 -3.96706 5.66633 0
M  V30 5911 O 789.207 -4.15346 4.49615 0
M  V30 5912 C 787.071 -4.66153 5.59313 0
M  V30 5913 N 786.028 -3.71582 5.24027 0
M  V30 5914 C 786.09 -2.46018 5.67902 0
M  V30 5915 N 785.045 -1.74868 5.24518 0
M  V30 5916 C 784.311 -2.61333 4.54528 0
M  V30 5917 C 783.005 -2.46162 3.95441 0
M  V30 5918 O 782.272 -1.46013 3.94122 0
M  V30 5919 N 782.575 -3.59334 3.34752 0
M  V30 5920 C 783.324 -4.79605 3.3023 0
M  V30 5921 N 782.727 -5.82109 2.6065 0
M  V30 5922 N 784.477 -4.97402 3.8843 0
M  V30 5923 C 784.934 -3.86258 4.50476 0
M  V30 5924 H 787.103 -5.47679 4.85214 0
M  V30 5925 H 788.286 -2.88964 5.86476 0
M  V30 5926 H 789.771 -4.01947 7.36109 0
M  V30 5927 H 788.076 -5.80182 8.37584 0
M  V30 5928 H 787.886 -3.73517 9.52265 0
M  V30 5929 H 786.255 -3.97163 8.80359 0
M  V30 5930 H 781.679 -3.5825 2.90294 0
M  V30 5931 H 786.886 -2.06161 6.30974 0
M  V30 5932 H 781.816 -5.66979 2.15354 0
M  V30 5933 H 783.192 -6.73686 2.54344 0
M  V30 5934 H 788.896 -4.90891 4.01857 0
M  V30 5935 P 790.753 -5.75688 6.64379 0
M  V30 5936 O 792.175 -6.11849 7.01846 0
M  V30 5937 O 790.393 -4.30744 6.56026 0
M  V30 5938 O 790.43 -6.37042 5.19165 0
M  V30 5939 C 790.27 -7.83578 5.16515 0
M  V30 5940 C 790.81 -8.33398 3.83019 0
M  V30 5941 O 789.754 -8.10074 3.01034 0
M  V30 5942 C 792.028 -7.65514 3.2257 0
M  V30 5943 O 792.766 -8.4329 2.32297 0
M  V30 5944 C 791.359 -6.40075 2.62207 0
M  V30 5945 O 792.158 -5.92589 1.53712 0
M  V30 5946 C 790.022 -6.9454 2.18503 0
M  V30 5947 H 790.054 -7.23063 1.12091 0
M  V30 5948 H 791.237 -5.6025 3.37201 0
M  V30 5949 H 792.721 -7.35707 4.02681 0
M  V30 5950 H 791.027 -9.40912 3.9095 0
M  V30 5951 H 790.837 -8.29056 5.99158 0
M  V30 5952 H 789.207 -8.10073 5.25882 0
M  V30 5953 H 791.846 -6.30324 0.726794 0
M  V30 5954 P 793.703 -8.4349 2.47671 0
M  V30 5955 O 795.104 -8.98227 2.65696 0
M  V30 5956 O 793.325 -7.20409 3.23964 0
M  V30 5957 O 793.38 -8.16496 0.923275 0
M  V30 5958 C 793.22 -9.38437 0.108857 0
M  V30 5959 C 793.76 -9.08076 -1.28339 0
M  V30 5960 O 792.704 -8.44131 -1.84692 0
M  V30 5961 C 794.977 -8.18386 -1.42505 0
M  V30 5962 O 795.716 -8.3501 -2.60497 0
M  V30 5963 C 794.31 -6.80225 -1.25468 0
M  V30 5964 O 795.108 -5.81526 -1.91035 0
M  V30 5965 C 792.972 -7.02416 -1.9168 0
M  V30 5966 N 791.929 -6.31033 -1.20314 0
M  V30 5967 C 790.894 -5.77149 -1.928 0
M  V30 5968 O 790.933 -5.8521 -3.17729 0
M  V30 5969 N 789.882 -5.15445 -1.27997 0
M  V30 5970 C 789.93 -5.04472 0.0534726 0
M  V30 5971 C 791.026 -5.55244 0.808522 0
M  V30 5972 C 791.992 -6.18542 0.13981 0
M  V30 5973 H 793.004 -6.68789 -2.9658 0
M  V30 5974 H 794.187 -6.53498 -0.198729 0
M  V30 5975 H 795.671 -8.36663 -0.5984 0
M  V30 5976 H 793.977 -10.0273 -1.8081 0
M  V30 5977 H 793.786 -10.2138 0.558219 0
M  V30 5978 H 792.156 -9.6569 0.0444156 0
M  V30 5979 H 791.074 -5.43017 1.88792 0
M  V30 5980 H 792.838 -6.60539 0.686773 0
M  V30 5981 H 794.892 -5.79638 -2.8315 0
M  V30 5982 P 796.654 -8.4349 -2.47671 0
M  V30 5983 O 798.076 -8.92593 -2.65 0
M  V30 5984 O 796.294 -7.7568 -1.19296 0
M  V30 5985 O 796.331 -7.36886 -3.63805 0
M  V30 5986 C 796.171 -7.95349 -4.982 0
M  V30 5987 C 796.711 -6.94612 -5.98974 0
M  V30 5988 O 795.655 -6.10347 -6.11815 0
M  V30 5989 C 797.929 -6.11426 -5.62335 0
M  V30 5990 O 798.667 -5.6162 -6.70584 0
M  V30 5991 C 797.26 -5.04409 -4.73308 0
M  V30 5992 O 798.059 -3.85992 -4.75183 0
M  V30 5993 C 795.923 -4.8728 -5.41006 0
M  V30 5994 H 795.955 -4.02333 -6.11157 0
M  V30 5995 H 797.138 -5.39466 -3.69543 0
M  V30 5996 H 798.622 -6.71916 -5.01943 0
M  V30 5997 H 796.928 -7.4649 -6.93477 0
M  V30 5998 H 796.738 -8.89416 -5.05237 0
M  V30 5999 H 795.108 -8.14876 -5.18409 0
M  V30 6000 H 797.747 -3.27957 -5.4317 0
M  V30 6001 P 799.604 -5.75688 -6.64379 0
M  V30 6002 O 801.026 -6.07627 -7.05504 0
M  V30 6003 O 799.244 -5.88047 -5.19722 0
M  V30 6004 O 799.281 -4.2322 -7.04443 0
M  V30 6005 C 799.121 -3.99743 -8.4911 0
M  V30 6006 C 799.661 -2.60516 -8.79425 0
M  V30 6007 O 798.605 -1.82684 -8.4467 0
M  V30 6008 C 800.879 -2.10343 -8.03628 0
M  V30 6009 O 801.617 -1.09919 -8.67766 0
M  V30 6010 C 800.21 -1.68446 -6.70876 0
M  V30 6011 O 801.009 -0.678137 -6.08433 0
M  V30 6012 C 798.873 -1.17436 -7.18567 0
M  V30 6013 H 798.905 -0.0804732 -7.31656 0
M  V30 6014 H 800.088 -2.54037 -6.02537 0
M  V30 6015 H 801.572 -2.93881 -7.85526 0
M  V30 6016 H 799.878 -2.53065 -9.86973 0
M  V30 6017 H 799.688 -4.75072 -9.05887 0
M  V30 6018 H 798.058 -4.05244 -8.76668 0
M  V30 6019 H 800.697 0.177647 -6.34251 0
M  V30 6020 P 802.555 -1.25109 -8.70152 0
M  V30 6021 O 803.977 -1.29744 -9.22016 0
M  V30 6022 O 802.195 -2.13714 -7.55141 0
M  V30 6023 O 802.232 0.248149 -8.21425 0
M  V30 6024 C 802.072 1.22779 -9.30434 0
M  V30 6025 C 802.612 2.56293 -8.80664 0
M  V30 6026 O 801.556 3.02979 -8.09349 0
M  V30 6027 C 803.83 2.57523 -7.89775 0
M  V30 6028 O 804.568 3.7668 -7.89438 0
M  V30 6029 C 803.161 2.20997 -6.55446 0
M  V30 6030 O 803.96 2.71895 -5.48509 0
M  V30 6031 C 801.824 2.89693 -6.67988 0
M  V30 6032 H 801.856 3.88793 -6.19859 0
M  V30 6033 H 803.039 1.12046 -6.44229 0
M  V30 6034 H 804.523 1.7746 -8.19711 0
M  V30 6035 H 802.829 3.20706 -9.67112 0
M  V30 6036 H 802.639 0.901032 -10.1892 0
M  V30 6037 H 801.009 1.33049 -9.56592 0
M  V30 6038 H 803.648 3.57847 -5.23962 0
M  V30 6039 P 805.506 3.65191 -7.99657 0
M  V30 6040 O 806.928 3.89332 -8.45794 0
M  V30 6041 O 805.146 2.28472 -7.50807 0
M  V30 6042 O 805.183 4.64972 -6.77611 0
M  V30 6043 C 805.023 6.06319 -7.16352 0
M  V30 6044 C 805.563 6.91731 -6.02299 0
M  V30 6045 O 804.507 6.92449 -5.17064 0
M  V30 6046 C 806.781 6.43627 -5.25174 0
M  V30 6047 O 807.519 7.43686 -4.60469 0
M  V30 6048 C 806.112 5.40275 -4.31916 0
M  V30 6049 O 806.911 5.25279 -3.14438 0
M  V30 6050 C 804.775 6.04847 -4.05327 0
M  V30 6051 H 804.807 6.62195 -3.11261 0
M  V30 6052 H 805.99 4.42556 -4.81383 0
M  V30 6053 H 807.474 5.92458 -5.93643 0
M  V30 6054 H 805.78 7.92655 -6.402 0
M  V30 6055 H 805.59 6.26671 -8.0846 0
M  V30 6056 H 803.96 6.29101 -7.32804 0
M  V30 6057 H 806.599 5.84315 -2.47318 0
M  V30 6058 P 808.456 7.39546 -4.75277 0
M  V30 6059 O 809.878 7.84966 -5.01146 0
M  V30 6060 O 808.096 5.9812 -5.08098 0
M  V30 6061 O 808.133 7.57503 -3.1866 0
M  V30 6062 C 807.973 8.97357 -2.74833 0
M  V30 6063 C 808.513 9.0745 -1.32694 0
M  V30 6064 O 807.458 8.62072 -0.606159 0
M  V30 6065 C 809.731 8.25383 -0.938334 0
M  V30 6066 O 810.469 8.74577 0.146954 0
M  V30 6067 C 809.063 6.8802 -0.712559 0
M  V30 6068 O 809.861 6.11791 0.194623 0
M  V30 6069 C 807.725 7.27966 -0.139777 0
M  V30 6070 N 806.682 6.39368 -0.623421 0
M  V30 6071 C 806.744 5.90299 -1.85969 0
M  V30 6072 N 805.699 5.10919 -2.1133 0
M  V30 6073 C 804.965 5.14646 -1.0015 0
M  V30 6074 C 803.659 4.60057 -0.729219 0
M  V30 6075 O 802.926 3.93476 -1.47746 0
M  V30 6076 N 803.229 4.88302 0.523505 0
M  V30 6077 C 803.978 5.63646 1.46207 0
M  V30 6078 N 803.381 5.78186 2.69239 0
M  V30 6079 N 805.131 6.19285 1.21544 0
M  V30 6080 C 805.588 5.93392 -0.0308487 0
M  V30 6081 H 807.757 7.25354 0.961601 0
M  V30 6082 H 808.94 6.3246 -1.65676 0
M  V30 6083 H 810.425 8.19533 -1.78278 0
M  V30 6084 H 808.73 10.1294 -1.10029 0
M  V30 6085 H 808.54 9.64276 -3.41316 0
M  V30 6086 H 806.909 9.25417 -2.76357 0
M  V30 6087 H 802.333 4.53993 0.806451 0
M  V30 6088 H 807.54 6.11865 -2.57394 0
M  V30 6089 H 802.47 5.34046 2.87467 0
M  V30 6090 H 803.846 6.33391 3.42578 0
M  V30 6091 H 809.55 6.25169 1.0783 0
M  V30 6092 P 811.407 8.791 6.00516e-12 0
M  V30 6093 O 812.829 9.31296 0.027939 0
M  V30 6094 O 811.047 7.77869 -1.04071 0
M  V30 6095 O 811.084 8.09533 1.41463 0
M  V30 6096 C 810.924 9.0349 2.53943 0
M  V30 6097 C 811.464 8.35135 3.78975 0
M  V30 6098 O 810.409 7.57992 4.15078 0
M  V30 6099 C 812.682 7.45087 3.67298 0
M  V30 6100 O 813.42 7.27796 4.85194 0
M  V30 6101 C 812.014 6.17323 3.12027 0
M  V30 6102 O 812.812 5.04149 3.47132 0
M  V30 6103 C 810.676 6.19961 3.81809 0
M  V30 6104 N 809.633 5.71575 2.93223 0
M  V30 6105 C 809.695 5.97133 1.62693 0
M  V30 6106 N 808.65 5.44066 0.984414 0
M  V30 6107 C 807.916 4.87093 1.93987 0
M  V30 6108 C 806.61 4.26449 1.8738 0
M  V30 6109 O 805.877 4.1089 0.884377 0
M  V30 6110 N 806.18 3.82483 3.08036 0
M  V30 6111 C 806.929 3.95124 4.27727 0
M  V30 6112 N 806.332 3.4084 5.39089 0
M  V30 6113 N 808.082 4.55264 4.3706 0
M  V30 6114 C 808.539 5.00861 3.18217 0
M  V30 6115 H 810.708 5.58218 4.73051 0
M  V30 6116 H 811.891 6.21631 2.02558 0
M  V30 6117 H 813.376 7.85819 2.93096 0
M  V30 6118 H 811.681 9.11627 4.55076 0
M  V30 6119 H 811.491 9.9573 2.34194 0
M  V30 6120 H 809.86 9.2792 2.67832 0
M  V30 6121 H 805.284 3.38323 3.1329 0
M  V30 6122 H 810.491 6.53891 1.14265 0
M  V30 6123 H 805.421 2.93852 5.30559 0
M  V30 6124 H 806.797 3.47631 6.30632 0
M  V30 6125 H 812.501 4.67628 4.28704 0
M  V30 6126 P 814.357 7.39546 4.75277 0
M  V30 6127 O 815.779 7.81777 5.05738 0
M  V30 6128 O 813.997 7.1065 3.32998 0
M  V30 6129 O 814.034 6.04542 5.56673 0
M  V30 6130 C 813.874 6.22772 7.02095 0
M  V30 6131 C 814.414 4.97725 7.70406 0
M  V30 6132 O 813.358 4.13256 7.58987 0
M  V30 6133 C 815.632 4.28231 7.11815 0
M  V30 6134 O 816.37 3.49945 8.01648 0
M  V30 6135 C 814.963 3.5063 5.96244 0
M  V30 6136 O 815.762 2.36482 5.64681 0
M  V30 6137 C 813.626 3.15122 6.56374 0
M  V30 6138 H 813.658 2.13853 6.99751 0
M  V30 6139 H 814.841 4.13501 5.06559 0
M  V30 6140 H 816.325 5.03285 6.70911 0
M  V30 6141 H 814.631 5.20877 8.75697 0
M  V30 6142 H 814.441 7.11046 7.35349 0
M  V30 6143 H 812.811 6.35815 7.26986 0
M  V30 6144 H 815.45 1.61644 6.13565 0
M  V30 6145 P 817.308 3.65191 7.99657 0
M  V30 6146 O 818.73 3.8425 8.48115 0
M  V30 6147 O 816.948 4.17805 6.64342 0
M  V30 6148 O 816.985 2.07613 7.95143 0
M  V30 6149 C 816.825 1.44328 9.27336 0
M  V30 6150 C 817.365 0.0220036 9.17197 0
M  V30 6151 O 816.309 -0.626867 8.61923 0
M  V30 6152 C 818.583 -0.24586 8.30336 0
M  V30 6153 O 819.321 -1.39011 8.63583 0
M  V30 6154 C 817.914 -0.273849 6.91158 0
M  V30 6155 O 818.713 -1.06348 6.02892 0
M  V30 6156 C 816.577 -0.897649 7.22545 0
M  V30 6157 H 816.609 -1.9841 7.04286 0
M  V30 6158 H 817.792 0.739928 6.497 0
M  V30 6159 H 819.276 0.60668 8.36503 0
M  V30 6160 H 817.582 -0.352479 10.1829 0
M  V30 6161 H 817.392 2.00611 10.0304 0
M  V30 6162 H 815.762 1.41843 9.55327 0
M  V30 6163 H 818.401 -1.95734 6.03555 0
M  V30 6164 P 820.258 -1.25109 8.70152 0
M  V30 6165 O 821.68 -1.35274 9.21221 0
M  V30 6166 O 819.898 -0.0769065 7.84762 0
M  V30 6167 O 819.935 -2.55232 7.81161 0
M  V30 6168 C 819.775 -3.79939 8.58154 0
M  V30 6169 C 820.315 -4.94023 7.72785 0
M  V30 6170 O 819.259 -5.18726 6.91205 0
M  V30 6171 C 821.533 -4.69597 6.85231 0
M  V30 6172 O 822.271 -5.83832 6.51337 0
M  V30 6173 C 820.864 -3.96706 5.66633 0
M  V30 6174 O 821.663 -4.15414 4.49689 0
M  V30 6175 C 819.527 -4.66153 5.59313 0
M  V30 6176 H 819.559 -5.47679 4.85214 0
M  V30 6177 H 820.742 -2.89008 5.86566 0
M  V30 6178 H 822.226 -4.0121 7.36511 0
M  V30 6179 H 820.532 -5.80182 8.37584 0
M  V30 6180 H 820.342 -3.73517 9.52265 0
M  V30 6181 H 818.712 -3.97163 8.80359 0
M  V30 6182 H 821.351 -4.90969 4.01921 0
M  V30 6183 P 823.209 -5.75688 6.64379 0
M  V30 6184 O 824.631 -6.11849 7.01846 0
M  V30 6185 O 822.849 -4.30744 6.56026 0
M  V30 6186 O 822.886 -6.37042 5.19165 0
M  V30 6187 C 822.726 -7.83578 5.16515 0
M  V30 6188 C 823.266 -8.33398 3.83019 0
M  V30 6189 O 822.21 -8.10074 3.01034 0
M  V30 6190 C 824.484 -7.65514 3.2257 0
M  V30 6191 O 825.222 -8.4329 2.32297 0
M  V30 6192 C 823.815 -6.40075 2.62207 0
M  V30 6193 O 824.614 -5.92589 1.53712 0
M  V30 6194 C 822.478 -6.9454 2.18503 0
M  V30 6195 H 822.51 -7.23063 1.12091 0
M  V30 6196 H 823.693 -5.6025 3.37201 0
M  V30 6197 H 825.177 -7.35707 4.02681 0
M  V30 6198 H 823.483 -9.40912 3.9095 0
M  V30 6199 H 823.293 -8.29056 5.99158 0
M  V30 6200 H 821.663 -8.10073 5.25882 0
M  V30 6201 H 824.302 -6.30324 0.726794 0
M  V30 6202 P 826.16 -8.4349 2.47671 0
M  V30 6203 O 827.582 -8.94167 2.5964 0
M  V30 6204 O 825.8 -7.1704 3.19006 0
M  V30 6205 O 825.837 -8.16596 0.923387 0
M  V30 6206 C 825.677 -9.38437 0.108857 0
M  V30 6207 C 826.217 -9.08175 -1.28353 0
M  V30 6208 O 825.161 -8.44229 -1.84713 0
M  V30 6209 C 827.435 -8.18386 -1.42505 0
M  V30 6210 O 828.173 -8.3501 -2.60497 0
M  V30 6211 C 826.766 -6.80225 -1.25468 0
M  V30 6212 O 827.565 -5.81621 -1.91066 0
M  V30 6213 C 825.429 -7.02416 -1.9168 0
M  V30 6214 H 825.461 -6.6888 -2.96621 0
M  V30 6215 H 826.644 -6.53617 -0.192223 0
M  V30 6216 H 828.128 -8.36622 -0.589963 0
M  V30 6217 H 826.434 -10.0291 -1.79807 0
M  V30 6218 H 826.244 -10.2138 0.558219 0
M  V30 6219 H 824.614 -9.6579 0.0444202 0
M  V30 6220 H 827.253 -5.69556 -2.79637 0
M  V30 6221 P 829.11 -8.4349 -2.47671 0
M  V30 6222 O 830.532 -8.92593 -2.65 0
M  V30 6223 O 828.75 -7.7568 -1.19296 0
M  V30 6224 O 828.787 -7.36886 -3.63805 0
M  V30 6225 C 828.627 -7.95349 -4.982 0
M  V30 6226 C 829.167 -6.94612 -5.98974 0
M  V30 6227 O 828.111 -6.10347 -6.11815 0
M  V30 6228 C 830.385 -6.11426 -5.62335 0
M  V30 6229 O 831.123 -5.6162 -6.70584 0
M  V30 6230 C 829.716 -5.04409 -4.73308 0
M  V30 6231 O 830.515 -3.85992 -4.75183 0
M  V30 6232 C 828.379 -4.8728 -5.41006 0
M  V30 6233 H 828.411 -4.02333 -6.11157 0
M  V30 6234 H 829.594 -5.39466 -3.69543 0
M  V30 6235 H 831.078 -6.71916 -5.01943 0
M  V30 6236 H 829.384 -7.4649 -6.93477 0
M  V30 6237 H 829.194 -8.89416 -5.05237 0
M  V30 6238 H 827.564 -8.14876 -5.18409 0
M  V30 6239 H 830.203 -3.27957 -5.4317 0
M  V30 6240 P 832.061 -5.75688 -6.64379 0
M  V30 6241 O 833.483 -6.07627 -7.05504 0
M  V30 6242 O 831.701 -5.88047 -5.19722 0
M  V30 6243 O 831.738 -4.2322 -7.04443 0
M  V30 6244 C 831.578 -3.99743 -8.4911 0
M  V30 6245 C 832.118 -2.60516 -8.79425 0
M  V30 6246 O 831.062 -1.82684 -8.4467 0
M  V30 6247 C 833.336 -2.10343 -8.03628 0
M  V30 6248 O 834.074 -1.09919 -8.67766 0
M  V30 6249 C 832.667 -1.68446 -6.70876 0
M  V30 6250 O 833.466 -0.678137 -6.08433 0
M  V30 6251 C 831.33 -1.17436 -7.18567 0
M  V30 6252 H 831.362 -0.0804732 -7.31656 0
M  V30 6253 H 832.545 -2.54037 -6.02537 0
M  V30 6254 H 834.029 -2.93881 -7.85526 0
M  V30 6255 H 832.335 -2.53065 -9.86973 0
M  V30 6256 H 832.145 -4.75072 -9.05887 0
M  V30 6257 H 830.515 -4.05244 -8.76668 0
M  V30 6258 H 833.154 0.177647 -6.34251 0
M  V30 6259 P 835.011 -1.25109 -8.70152 0
M  V30 6260 O 836.433 -1.29744 -9.22016 0
M  V30 6261 O 834.651 -2.13714 -7.55141 0
M  V30 6262 O 834.688 0.248149 -8.21425 0
M  V30 6263 C 834.528 1.22779 -9.30434 0
M  V30 6264 C 835.068 2.56293 -8.80664 0
M  V30 6265 O 834.012 3.02979 -8.09349 0
M  V30 6266 C 836.286 2.57523 -7.89775 0
M  V30 6267 O 837.024 3.7668 -7.89438 0
M  V30 6268 C 835.617 2.20997 -6.55446 0
M  V30 6269 O 836.416 2.71895 -5.48509 0
M  V30 6270 C 834.28 2.89693 -6.67988 0
M  V30 6271 H 834.312 3.88793 -6.19859 0
M  V30 6272 H 835.495 1.12046 -6.44229 0
M  V30 6273 H 836.979 1.7746 -8.19711 0
M  V30 6274 H 835.285 3.20706 -9.67112 0
M  V30 6275 H 835.095 0.901032 -10.1892 0
M  V30 6276 H 833.465 1.33049 -9.56592 0
M  V30 6277 H 836.104 3.57847 -5.23962 0
M  V30 6278 P 837.962 3.65191 -7.99657 0
M  V30 6279 O 839.384 3.89332 -8.45794 0
M  V30 6280 O 837.602 2.28472 -7.50807 0
M  V30 6281 O 837.639 4.64972 -6.77611 0
M  V30 6282 C 837.479 6.06319 -7.16352 0
M  V30 6283 C 838.019 6.91731 -6.02299 0
M  V30 6284 O 836.963 6.92449 -5.17064 0
M  V30 6285 C 839.237 6.43627 -5.25174 0
M  V30 6286 O 839.975 7.43686 -4.60469 0
M  V30 6287 C 838.568 5.40275 -4.31916 0
M  V30 6288 O 839.367 5.25279 -3.14438 0
M  V30 6289 C 837.231 6.04847 -4.05327 0
M  V30 6290 H 837.263 6.62195 -3.11261 0
M  V30 6291 H 838.446 4.42556 -4.81383 0
M  V30 6292 H 839.93 5.92458 -5.93643 0
M  V30 6293 H 838.236 7.92655 -6.402 0
M  V30 6294 H 838.046 6.26671 -8.0846 0
M  V30 6295 H 836.416 6.29101 -7.32804 0
M  V30 6296 H 839.055 5.84315 -2.47318 0
M  V30 6297 P 840.912 7.39546 -4.75277 0
M  V30 6298 O 842.334 7.84798 -5.01039 0
M  V30 6299 O 840.552 5.9812 -5.08098 0
M  V30 6300 O 840.589 7.57503 -3.1866 0
M  V30 6301 C 840.429 8.97357 -2.74833 0
M  V30 6302 C 840.969 9.07548 -1.32709 0
M  V30 6303 O 839.913 8.62072 -0.606159 0
M  V30 6304 C 842.187 8.25383 -0.938334 0
M  V30 6305 O 842.925 8.74577 0.146954 0
M  V30 6306 C 841.518 6.8802 -0.712559 0
M  V30 6307 O 842.317 6.1189 0.194655 0
M  V30 6308 C 840.181 7.27966 -0.139777 0
M  V30 6309 H 840.213 7.25354 0.961601 0
M  V30 6310 H 841.396 6.32557 -1.65702 0
M  V30 6311 H 842.88 8.19355 -1.79097 0
M  V30 6312 H 841.186 10.1294 -1.10029 0
M  V30 6313 H 840.996 9.64276 -3.41316 0
M  V30 6314 H 839.366 9.25417 -2.76357 0
M  V30 6315 H 842.005 6.25267 1.07847 0
M  V30 6316 P 843.863 8.791 6.31533e-12 0
M  V30 6317 O 845.285 9.31096 0.027933 0
M  V30 6318 O 843.503 7.77869 -1.04071 0
M  V30 6319 O 843.54 8.09533 1.41463 0
M  V30 6320 C 843.38 9.0349 2.53943 0
M  V30 6321 C 843.92 8.35226 3.79016 0
M  V30 6322 O 842.864 7.57992 4.15078 0
M  V30 6323 C 845.138 7.45087 3.67298 0
M  V30 6324 O 845.876 7.27796 4.85194 0
M  V30 6325 C 844.469 6.17323 3.12027 0
M  V30 6326 O 845.268 5.04231 3.47188 0
M  V30 6327 C 843.132 6.19961 3.81809 0
M  V30 6328 H 843.164 5.58218 4.73051 0
M  V30 6329 H 844.347 6.21726 2.02589 0
M  V30 6330 H 845.831 7.86112 2.9231 0
M  V30 6331 H 844.137 9.11627 4.55076 0
M  V30 6332 H 843.947 9.9573 2.34194 0
M  V30 6333 H 842.317 9.2792 2.67832 0
M  V30 6334 H 844.956 4.67702 4.28772 0
M  V30 6335 P 846.814 7.39546 4.75277 0
M  V30 6336 O 848.236 7.81777 5.05738 0
M  V30 6337 O 846.454 7.1065 3.32998 0
M  V30 6338 O 846.491 6.04542 5.56673 0
M  V30 6339 C 846.331 6.22772 7.02095 0
M  V30 6340 C 846.871 4.97725 7.70406 0
M  V30 6341 O 845.815 4.13256 7.58987 0
M  V30 6342 C 848.089 4.28231 7.11815 0
M  V30 6343 O 848.827 3.49945 8.01648 0
M  V30 6344 C 847.42 3.5063 5.96244 0
M  V30 6345 O 848.219 2.36482 5.64681 0
M  V30 6346 C 846.083 3.15122 6.56374 0
M  V30 6347 H 846.115 2.13853 6.99751 0
M  V30 6348 H 847.298 4.13501 5.06559 0
M  V30 6349 H 848.782 5.03285 6.70911 0
M  V30 6350 H 847.088 5.20877 8.75697 0
M  V30 6351 H 846.898 7.11046 7.35349 0
M  V30 6352 H 845.268 6.35815 7.26986 0
M  V30 6353 H 847.907 1.61644 6.13565 0
M  V30 6354 P 849.764 3.65191 7.99657 0
M  V30 6355 O 851.186 3.8425 8.48115 0
M  V30 6356 O 849.404 4.17805 6.64342 0
M  V30 6357 O 849.441 2.07613 7.95143 0
M  V30 6358 C 849.281 1.44328 9.27336 0
M  V30 6359 C 849.821 0.0220036 9.17197 0
M  V30 6360 O 848.765 -0.626867 8.61923 0
M  V30 6361 C 851.039 -0.24586 8.30336 0
M  V30 6362 O 851.777 -1.39011 8.63583 0
M  V30 6363 C 850.37 -0.273849 6.91158 0
M  V30 6364 O 851.169 -1.06348 6.02892 0
M  V30 6365 C 849.033 -0.897649 7.22545 0
M  V30 6366 H 849.065 -1.9841 7.04286 0
M  V30 6367 H 850.248 0.739928 6.497 0
M  V30 6368 H 851.732 0.60668 8.36503 0
M  V30 6369 H 850.038 -0.352479 10.1829 0
M  V30 6370 H 849.848 2.00611 10.0304 0
M  V30 6371 H 848.218 1.41843 9.55327 0
M  V30 6372 H 850.857 -1.95734 6.03555 0
M  V30 6373 P 852.715 -1.25109 8.70152 0
M  V30 6374 O 854.137 -1.35274 9.21221 0
M  V30 6375 O 852.355 -0.0769065 7.84762 0
M  V30 6376 O 852.392 -2.55232 7.81161 0
M  V30 6377 C 852.232 -3.79939 8.58154 0
M  V30 6378 C 852.772 -4.94023 7.72785 0
M  V30 6379 O 851.716 -5.18726 6.91205 0
M  V30 6380 C 853.99 -4.69597 6.85231 0
M  V30 6381 O 854.728 -5.83832 6.51337 0
M  V30 6382 C 853.321 -3.96706 5.66633 0
M  V30 6383 O 854.12 -4.15414 4.49689 0
M  V30 6384 C 851.984 -4.66153 5.59313 0
M  V30 6385 H 852.016 -5.47679 4.85214 0
M  V30 6386 H 853.199 -2.89008 5.86566 0
M  V30 6387 H 854.683 -4.0121 7.36511 0
M  V30 6388 H 852.989 -5.80182 8.37584 0
M  V30 6389 H 852.799 -3.73517 9.52265 0
M  V30 6390 H 851.169 -3.97163 8.80359 0
M  V30 6391 H 853.808 -4.90969 4.01921 0
M  V30 6392 P 855.665 -5.75688 6.64379 0
M  V30 6393 O 857.087 -6.11849 7.01846 0
M  V30 6394 O 855.305 -4.30744 6.56026 0
M  V30 6395 O 855.342 -6.37042 5.19165 0
M  V30 6396 C 855.182 -7.83578 5.16515 0
M  V30 6397 C 855.722 -8.33398 3.83019 0
M  V30 6398 O 854.666 -8.10074 3.01034 0
M  V30 6399 C 856.94 -7.65514 3.2257 0
M  V30 6400 O 857.678 -8.4329 2.32297 0
M  V30 6401 C 856.271 -6.40075 2.62207 0
M  V30 6402 O 857.07 -5.92589 1.53712 0
M  V30 6403 C 854.934 -6.9454 2.18503 0
M  V30 6404 H 854.966 -7.23063 1.12091 0
M  V30 6405 H 856.149 -5.6025 3.37201 0
M  V30 6406 H 857.633 -7.35707 4.02681 0
M  V30 6407 H 855.939 -9.40912 3.9095 0
M  V30 6408 H 855.749 -8.29056 5.99158 0
M  V30 6409 H 854.119 -8.10073 5.25882 0
M  V30 6410 H 856.758 -6.30324 0.726794 0
M  V30 6411 P 858.616 -8.4349 2.47671 0
M  V30 6412 O 860.038 -8.94167 2.5964 0
M  V30 6413 O 858.256 -7.1704 3.19006 0
M  V30 6414 O 858.293 -8.16596 0.923387 0
M  V30 6415 C 858.133 -9.38437 0.108857 0
M  V30 6416 C 858.673 -9.08175 -1.28353 0
M  V30 6417 O 857.617 -8.44229 -1.84713 0
M  V30 6418 C 859.891 -8.18386 -1.42505 0
M  V30 6419 O 860.629 -8.3501 -2.60497 0
M  V30 6420 C 859.222 -6.80225 -1.25468 0
M  V30 6421 O 860.021 -5.81621 -1.91066 0
M  V30 6422 C 857.885 -7.02416 -1.9168 0
M  V30 6423 H 857.917 -6.6888 -2.96621 0
M  V30 6424 H 859.1 -6.53617 -0.192223 0
M  V30 6425 H 860.584 -8.36622 -0.589963 0
M  V30 6426 H 858.89 -10.0291 -1.79807 0
M  V30 6427 H 858.7 -10.2138 0.558219 0
M  V30 6428 H 857.07 -9.6579 0.0444202 0
M  V30 6429 H 859.709 -5.69556 -2.79637 0
M  V30 6430 P 861.566 -8.4349 -2.47671 0
M  V30 6431 O 862.988 -8.92593 -2.65 0
M  V30 6432 O 861.206 -7.7568 -1.19296 0
M  V30 6433 O 861.243 -7.36886 -3.63805 0
M  V30 6434 C 861.083 -7.95349 -4.982 0
M  V30 6435 C 861.623 -6.94612 -5.98974 0
M  V30 6436 O 860.567 -6.10347 -6.11815 0
M  V30 6437 C 862.841 -6.11426 -5.62335 0
M  V30 6438 O 863.579 -5.6162 -6.70584 0
M  V30 6439 C 862.172 -5.04409 -4.73308 0
M  V30 6440 O 862.971 -3.85992 -4.75183 0
M  V30 6441 C 860.835 -4.8728 -5.41006 0
M  V30 6442 H 860.867 -4.02333 -6.11157 0
M  V30 6443 H 862.05 -5.39466 -3.69543 0
M  V30 6444 H 863.534 -6.71916 -5.01943 0
M  V30 6445 H 861.84 -7.4649 -6.93477 0
M  V30 6446 H 861.65 -8.89416 -5.05237 0
M  V30 6447 H 860.02 -8.14876 -5.18409 0
M  V30 6448 H 862.659 -3.27957 -5.4317 0
M  V30 6449 P 864.517 -5.75688 -6.64379 0
M  V30 6450 O 865.939 -6.07627 -7.05504 0
M  V30 6451 O 864.157 -5.88047 -5.19722 0
M  V30 6452 O 864.194 -4.2322 -7.04443 0
M  V30 6453 C 864.034 -3.99743 -8.4911 0
M  V30 6454 C 864.574 -2.60516 -8.79425 0
M  V30 6455 O 863.518 -1.82684 -8.4467 0
M  V30 6456 C 865.792 -2.10343 -8.03628 0
M  V30 6457 O 866.53 -1.09919 -8.67766 0
M  V30 6458 C 865.123 -1.68446 -6.70876 0
M  V30 6459 O 865.922 -0.678137 -6.08433 0
M  V30 6460 C 863.786 -1.17436 -7.18567 0
M  V30 6461 H 863.818 -0.0804732 -7.31656 0
M  V30 6462 H 865.001 -2.54037 -6.02537 0
M  V30 6463 H 866.485 -2.93881 -7.85526 0
M  V30 6464 H 864.791 -2.53065 -9.86973 0
M  V30 6465 H 864.601 -4.75072 -9.05887 0
M  V30 6466 H 862.971 -4.05244 -8.76668 0
M  V30 6467 H 865.61 0.177647 -6.34251 0
M  V30 6468 P 867.468 -1.25109 -8.70152 0
M  V30 6469 O 868.889 -1.29758 -9.22115 0
M  V30 6470 O 867.108 -2.13714 -7.55141 0
M  V30 6471 O 867.145 0.248149 -8.21425 0
M  V30 6472 C 866.984 1.22792 -9.30533 0
M  V30 6473 C 867.525 2.56293 -8.80664 0
M  V30 6474 O 866.47 3.02944 -8.09255 0
M  V30 6475 C 868.743 2.57523 -7.89775 0
M  V30 6476 O 869.481 3.7668 -7.89438 0
M  V30 6477 C 868.075 2.20997 -6.55446 0
M  V30 6478 O 868.873 2.71302 -5.48691 0
M  V30 6479 C 866.737 2.89693 -6.67988 0
M  V30 6480 N 865.694 2.08895 -6.07487 0
M  V30 6481 C 865.863 0.753809 -5.94137 0
M  V30 6482 N 864.836 0.146592 -5.38801 0
M  V30 6483 C 863.951 1.1768 -5.13693 0
M  V30 6484 C 862.684 1.17563 -4.52477 0
M  V30 6485 N 862.085 0.057481 -4.04759 0
M  V30 6486 N 862.119 2.41918 -4.45789 0
M  V30 6487 C 862.721 3.56493 -4.90792 0
M  V30 6488 N 863.898 3.61423 -5.47817 0
M  V30 6489 C 864.473 2.37779 -5.5588 0
M  V30 6490 H 866.769 3.8874 -6.19774 0
M  V30 6491 H 867.952 1.12673 -6.44018 0
M  V30 6492 H 869.435 1.7746 -8.19711 0
M  V30 6493 H 867.741 3.21673 -9.66791 0
M  V30 6494 H 867.551 0.901032 -10.1892 0
M  V30 6495 H 865.921 1.33049 -9.56592 0
M  V30 6496 H 862.185 4.49919 -4.77947 0
M  V30 6497 H 866.763 0.233081 -6.26266 0
M  V30 6498 H 861.155 0.119831 -3.60801 0
M  V30 6499 H 862.559 -0.852272 -4.12385 0
M  V30 6500 H 868.561 3.5779 -5.23879 0
M  V30 6501 P 870.418 3.65191 -7.99657 0
M  V30 6502 O 871.84 3.89332 -8.45794 0
M  V30 6503 O 870.058 2.28472 -7.50807 0
M  V30 6504 O 870.095 4.64972 -6.77611 0
M  V30 6505 C 869.935 6.06319 -7.16352 0
M  V30 6506 C 870.475 6.91731 -6.02299 0
M  V30 6507 O 869.419 6.92449 -5.17064 0
M  V30 6508 C 871.693 6.43627 -5.25174 0
M  V30 6509 O 872.431 7.43686 -4.60469 0
M  V30 6510 C 871.024 5.40275 -4.31916 0
M  V30 6511 O 871.823 5.25279 -3.14438 0
M  V30 6512 C 869.687 6.04847 -4.05327 0
M  V30 6513 H 869.719 6.62195 -3.11261 0
M  V30 6514 H 870.902 4.42556 -4.81383 0
M  V30 6515 H 872.386 5.92458 -5.93643 0
M  V30 6516 H 870.692 7.92655 -6.402 0
M  V30 6517 H 870.502 6.26671 -8.0846 0
M  V30 6518 H 868.872 6.29101 -7.32804 0
M  V30 6519 H 871.511 5.84315 -2.47318 0
M  V30 6520 P 873.369 7.39546 -4.75277 0
M  V30 6521 O 874.791 7.84798 -5.01039 0
M  V30 6522 O 873.009 5.9812 -5.08098 0
M  V30 6523 O 873.046 7.57503 -3.1866 0
M  V30 6524 C 872.886 8.97357 -2.74833 0
M  V30 6525 C 873.426 9.07548 -1.32709 0
M  V30 6526 O 872.37 8.62072 -0.606159 0
M  V30 6527 C 874.644 8.25383 -0.938334 0
M  V30 6528 O 875.382 8.74577 0.146954 0
M  V30 6529 C 873.975 6.8802 -0.712559 0
M  V30 6530 O 874.774 6.1189 0.194655 0
M  V30 6531 C 872.638 7.27966 -0.139777 0
M  V30 6532 H 872.67 7.25354 0.961601 0
M  V30 6533 H 873.853 6.32557 -1.65702 0
M  V30 6534 H 875.337 8.19355 -1.79097 0
M  V30 6535 H 873.643 10.1294 -1.10029 0
M  V30 6536 H 873.453 9.64276 -3.41316 0
M  V30 6537 H 871.823 9.25417 -2.76357 0
M  V30 6538 H 874.462 6.25267 1.07847 0
M  V30 6539 P 876.319 8.791 6.62549e-12 0
M  V30 6540 O 877.741 9.31296 0.027939 0
M  V30 6541 O 875.959 7.77869 -1.04071 0
M  V30 6542 O 875.996 8.09533 1.41463 0
M  V30 6543 C 875.836 9.0349 2.53943 0
M  V30 6544 C 876.376 8.35135 3.78975 0
M  V30 6545 O 875.321 7.57992 4.15078 0
M  V30 6546 C 877.594 7.45087 3.67298 0
M  V30 6547 O 878.332 7.27796 4.85194 0
M  V30 6548 C 876.926 6.17323 3.12027 0
M  V30 6549 O 877.724 5.04149 3.47132 0
M  V30 6550 C 875.588 6.19961 3.81809 0
M  V30 6551 N 874.545 5.71575 2.93223 0
M  V30 6552 C 874.607 5.97133 1.62693 0
M  V30 6553 N 873.562 5.44066 0.984414 0
M  V30 6554 C 872.828 4.87093 1.93987 0
M  V30 6555 C 871.522 4.26449 1.8738 0
M  V30 6556 O 870.789 4.1089 0.884377 0
M  V30 6557 N 871.092 3.82483 3.08036 0
M  V30 6558 C 871.841 3.95124 4.27727 0
M  V30 6559 N 871.244 3.4084 5.39089 0
M  V30 6560 N 872.994 4.55264 4.3706 0
M  V30 6561 C 873.451 5.00861 3.18217 0
M  V30 6562 H 875.62 5.58218 4.73051 0
M  V30 6563 H 876.803 6.21631 2.02558 0
M  V30 6564 H 878.288 7.85819 2.93096 0
M  V30 6565 H 876.593 9.11627 4.55076 0
M  V30 6566 H 876.403 9.9573 2.34194 0
M  V30 6567 H 874.772 9.2792 2.67832 0
M  V30 6568 H 870.196 3.38323 3.1329 0
M  V30 6569 H 875.403 6.53891 1.14265 0
M  V30 6570 H 870.333 2.93852 5.30559 0
M  V30 6571 H 871.709 3.47631 6.30632 0
M  V30 6572 H 877.413 4.67628 4.28704 0
M  V30 6573 P 879.27 7.39546 4.75277 0
M  V30 6574 O 880.692 7.81777 5.05738 0
M  V30 6575 O 878.91 7.1065 3.32998 0
M  V30 6576 O 878.947 6.04542 5.56673 0
M  V30 6577 C 878.787 6.22772 7.02095 0
M  V30 6578 C 879.327 4.97725 7.70406 0
M  V30 6579 O 878.271 4.13256 7.58987 0
M  V30 6580 C 880.545 4.28231 7.11815 0
M  V30 6581 O 881.283 3.49945 8.01648 0
M  V30 6582 C 879.876 3.5063 5.96244 0
M  V30 6583 O 880.675 2.36482 5.64681 0
M  V30 6584 C 878.539 3.15122 6.56374 0
M  V30 6585 H 878.571 2.13853 6.99751 0
M  V30 6586 H 879.754 4.13501 5.06559 0
M  V30 6587 H 881.238 5.03285 6.70911 0
M  V30 6588 H 879.544 5.20877 8.75697 0
M  V30 6589 H 879.354 7.11046 7.35349 0
M  V30 6590 H 877.724 6.35815 7.26986 0
M  V30 6591 H 880.363 1.61644 6.13565 0
M  V30 6592 P 882.22 3.65191 7.99657 0
M  V30 6593 O 883.642 3.84333 8.48297 0
M  V30 6594 O 881.86 4.17805 6.64342 0
M  V30 6595 O 881.897 2.07613 7.95143 0
M  V30 6596 C 881.737 1.44328 9.27336 0
M  V30 6597 C 882.277 0.0220012 9.17097 0
M  V30 6598 O 881.222 -0.626867 8.61923 0
M  V30 6599 C 883.495 -0.24586 8.30336 0
M  V30 6600 O 884.233 -1.39011 8.63583 0
M  V30 6601 C 882.827 -0.273849 6.91158 0
M  V30 6602 O 883.625 -1.06331 6.02794 0
M  V30 6603 C 881.489 -0.897649 7.22545 0
M  V30 6604 N 880.446 -0.292839 6.41732 0
M  V30 6605 C 880.508 1.00068 6.10757 0
M  V30 6606 N 879.463 1.36468 5.35794 0
M  V30 6607 C 878.729 0.258894 5.2366 0
M  V30 6608 C 877.423 0.0670682 4.65752 0
M  V30 6609 O 876.69 0.902443 4.10497 0
M  V30 6610 N 876.993 -1.2131 4.75881 0
M  V30 6611 C 877.742 -2.24934 5.37101 0
M  V30 6612 N 877.145 -3.48783 5.33984 0
M  V30 6613 N 878.895 -2.0844 5.95684 0
M  V30 6614 C 879.352 -0.81395 5.87791 0
M  V30 6615 H 881.521 -1.9841 7.04286 0
M  V30 6616 H 882.704 0.739815 6.49601 0
M  V30 6617 H 884.189 0.598315 8.36563 0
M  V30 6618 H 882.494 -0.352479 10.1829 0
M  V30 6619 H 882.304 2.00611 10.0304 0
M  V30 6620 H 880.673 1.41843 9.55327 0
M  V30 6621 H 876.097 -1.44434 4.37895 0
M  V30 6622 H 881.304 1.67697 6.42268 0
M  V30 6623 H 876.234 -3.60543 4.87699 0
M  V30 6624 H 877.61 -4.29232 5.7819 0
M  V30 6625 H 883.314 -1.95704 6.0346 0
M  V30 6626 P 885.171 -1.25109 8.70152 0
M  V30 6627 O 886.593 -1.35274 9.21221 0
M  V30 6628 O 884.811 -0.0769065 7.84762 0
M  V30 6629 O 884.848 -2.55232 7.81161 0
M  V30 6630 C 884.688 -3.79939 8.58154 0
M  V30 6631 C 885.228 -4.94023 7.72785 0
M  V30 6632 O 884.172 -5.18726 6.91205 0
M  V30 6633 C 886.446 -4.69597 6.85231 0
M  V30 6634 O 887.184 -5.83832 6.51337 0
M  V30 6635 C 885.777 -3.96706 5.66633 0
M  V30 6636 O 886.576 -4.15414 4.49689 0
M  V30 6637 C 884.44 -4.66153 5.59313 0
M  V30 6638 H 884.472 -5.47679 4.85214 0
M  V30 6639 H 885.655 -2.89008 5.86566 0
M  V30 6640 H 887.139 -4.0121 7.36511 0
M  V30 6641 H 885.445 -5.80182 8.37584 0
M  V30 6642 H 885.255 -3.73517 9.52265 0
M  V30 6643 H 883.625 -3.97163 8.80359 0
M  V30 6644 H 886.264 -4.90969 4.01921 0
M  V30 6645 P 888.122 -5.75688 6.64379 0
M  V30 6646 O 889.544 -6.11849 7.01846 0
M  V30 6647 O 887.762 -4.30744 6.56026 0
M  V30 6648 O 887.799 -6.37042 5.19165 0
M  V30 6649 C 887.639 -7.83578 5.16515 0
M  V30 6650 C 888.179 -8.33398 3.83019 0
M  V30 6651 O 887.123 -8.10074 3.01034 0
M  V30 6652 C 889.397 -7.65514 3.2257 0
M  V30 6653 O 890.135 -8.4329 2.32297 0
M  V30 6654 C 888.728 -6.40075 2.62207 0
M  V30 6655 O 889.527 -5.92589 1.53712 0
M  V30 6656 C 887.391 -6.9454 2.18503 0
M  V30 6657 H 887.423 -7.23063 1.12091 0
M  V30 6658 H 888.606 -5.6025 3.37201 0
M  V30 6659 H 890.09 -7.35707 4.02681 0
M  V30 6660 H 888.396 -9.40912 3.9095 0
M  V30 6661 H 888.206 -8.29056 5.99158 0
M  V30 6662 H 886.576 -8.10073 5.25882 0
M  V30 6663 H 889.215 -6.30324 0.726794 0
M  V30 6664 P 891.072 -8.4349 2.47671 0
M  V30 6665 O 892.494 -8.94167 2.5964 0
M  V30 6666 O 890.712 -7.1704 3.19006 0
M  V30 6667 O 890.749 -8.16596 0.923387 0
M  V30 6668 C 890.589 -9.38437 0.108857 0
M  V30 6669 C 891.129 -9.08175 -1.28353 0
M  V30 6670 O 890.073 -8.44229 -1.84713 0
M  V30 6671 C 892.347 -8.18386 -1.42505 0
M  V30 6672 O 893.085 -8.3501 -2.60497 0
M  V30 6673 C 891.678 -6.80225 -1.25468 0
M  V30 6674 O 892.477 -5.81621 -1.91066 0
M  V30 6675 C 890.341 -7.02416 -1.9168 0
M  V30 6676 H 890.373 -6.6888 -2.96621 0
M  V30 6677 H 891.556 -6.53617 -0.192223 0
M  V30 6678 H 893.04 -8.36622 -0.589963 0
M  V30 6679 H 891.346 -10.0291 -1.79807 0
M  V30 6680 H 891.156 -10.2138 0.558219 0
M  V30 6681 H 889.526 -9.6579 0.0444202 0
M  V30 6682 H 892.165 -5.69556 -2.79637 0
M  V30 6683 P 894.023 -8.4349 -2.47671 0
M  V30 6684 O 895.445 -8.92593 -2.65 0
M  V30 6685 O 893.663 -7.7568 -1.19296 0
M  V30 6686 O 893.7 -7.36886 -3.63805 0
M  V30 6687 C 893.54 -7.95349 -4.982 0
M  V30 6688 C 894.08 -6.94612 -5.98974 0
M  V30 6689 O 893.024 -6.10347 -6.11815 0
M  V30 6690 C 895.298 -6.11426 -5.62335 0
M  V30 6691 O 896.036 -5.6162 -6.70584 0
M  V30 6692 C 894.629 -5.04409 -4.73308 0
M  V30 6693 O 895.428 -3.85992 -4.75183 0
M  V30 6694 C 893.292 -4.8728 -5.41006 0
M  V30 6695 H 893.324 -4.02333 -6.11157 0
M  V30 6696 H 894.507 -5.39466 -3.69543 0
M  V30 6697 H 895.991 -6.71916 -5.01943 0
M  V30 6698 H 894.297 -7.4649 -6.93477 0
M  V30 6699 H 894.107 -8.89416 -5.05237 0
M  V30 6700 H 892.477 -8.14876 -5.18409 0
M  V30 6701 H 895.116 -3.27957 -5.4317 0
M  V30 6702 P 896.973 -5.75688 -6.64379 0
M  V30 6703 O 898.395 -6.07627 -7.05504 0
M  V30 6704 O 896.613 -5.88047 -5.19722 0
M  V30 6705 O 896.65 -4.2322 -7.04443 0
M  V30 6706 C 896.49 -3.99743 -8.4911 0
M  V30 6707 C 897.03 -2.60516 -8.79425 0
M  V30 6708 O 895.974 -1.82684 -8.4467 0
M  V30 6709 C 898.248 -2.10343 -8.03628 0
M  V30 6710 O 898.986 -1.09919 -8.67766 0
M  V30 6711 C 897.579 -1.68446 -6.70876 0
M  V30 6712 O 898.378 -0.678137 -6.08433 0
M  V30 6713 C 896.242 -1.17436 -7.18567 0
M  V30 6714 H 896.274 -0.0804732 -7.31656 0
M  V30 6715 H 897.457 -2.54037 -6.02537 0
M  V30 6716 H 898.941 -2.93881 -7.85526 0
M  V30 6717 H 897.247 -2.53065 -9.86973 0
M  V30 6718 H 897.057 -4.75072 -9.05887 0
M  V30 6719 H 895.427 -4.05244 -8.76668 0
M  V30 6720 H 898.066 0.177647 -6.34251 0
M  V30 6721 P 899.924 -1.25109 -8.70152 0
M  V30 6722 O 901.346 -1.29744 -9.22016 0
M  V30 6723 O 899.564 -2.13714 -7.55141 0
M  V30 6724 O 899.601 0.248149 -8.21425 0
M  V30 6725 C 899.441 1.22779 -9.30434 0
M  V30 6726 C 899.981 2.56293 -8.80664 0
M  V30 6727 O 898.925 3.02979 -8.09349 0
M  V30 6728 C 901.199 2.57523 -7.89775 0
M  V30 6729 O 901.937 3.7668 -7.89438 0
M  V30 6730 C 900.53 2.20997 -6.55446 0
M  V30 6731 O 901.329 2.71895 -5.48509 0
M  V30 6732 C 899.193 2.89693 -6.67988 0
M  V30 6733 H 899.225 3.88793 -6.19859 0
M  V30 6734 H 900.408 1.12046 -6.44229 0
M  V30 6735 H 901.892 1.7746 -8.19711 0
M  V30 6736 H 900.198 3.20706 -9.67112 0
M  V30 6737 H 900.008 0.901032 -10.1892 0
M  V30 6738 H 898.378 1.33049 -9.56592 0
M  V30 6739 H 901.017 3.57847 -5.23962 0
M  V30 6740 P 902.874 3.65191 -7.99657 0
M  V30 6741 O 904.296 3.89332 -8.45794 0
M  V30 6742 O 902.514 2.28472 -7.50807 0
M  V30 6743 O 902.551 4.64972 -6.77611 0
M  V30 6744 C 902.391 6.06319 -7.16352 0
M  V30 6745 C 902.931 6.91731 -6.02299 0
M  V30 6746 O 901.875 6.92449 -5.17064 0
M  V30 6747 C 904.149 6.43627 -5.25174 0
M  V30 6748 O 904.887 7.43686 -4.60469 0
M  V30 6749 C 903.48 5.40275 -4.31916 0
M  V30 6750 O 904.279 5.25279 -3.14438 0
M  V30 6751 C 902.143 6.04847 -4.05327 0
M  V30 6752 H 902.175 6.62195 -3.11261 0
M  V30 6753 H 903.358 4.42556 -4.81383 0
M  V30 6754 H 904.842 5.92458 -5.93643 0
M  V30 6755 H 903.148 7.92655 -6.402 0
M  V30 6756 H 902.958 6.26671 -8.0846 0
M  V30 6757 H 901.328 6.29101 -7.32804 0
M  V30 6758 H 903.967 5.84315 -2.47318 0
M  V30 6759 P 905.825 7.39546 -4.75277 0
M  V30 6760 O 907.226 7.86988 -5.07993 0
M  V30 6761 O 905.447 5.99957 -5.13804 0
M  V30 6762 O 905.502 7.57411 -3.18621 0
M  V30 6763 C 905.342 8.97357 -2.74833 0
M  V30 6764 C 905.882 9.0745 -1.32694 0
M  V30 6765 O 904.826 8.61972 -0.606089 0
M  V30 6766 C 907.099 8.25383 -0.938334 0
M  V30 6767 O 907.838 8.74577 0.146954 0
M  V30 6768 C 906.432 6.8802 -0.712559 0
M  V30 6769 O 907.23 6.11791 0.194623 0
M  V30 6770 C 905.094 7.27966 -0.139777 0
M  V30 6771 N 904.051 6.39368 -0.623421 0
M  V30 6772 C 903.016 6.08088 0.223886 0
M  V30 6773 O 903.055 6.5102 1.39986 0
M  V30 6774 N 902.004 5.30627 -0.224051 0
M  V30 6775 C 902.052 4.82531 -1.47257 0
M  V30 6776 C 903.148 5.09974 -2.34008 0
M  V30 6777 C 904.114 5.89548 -1.87678 0
M  V30 6778 H 905.126 7.25255 0.961469 0
M  V30 6779 H 906.309 6.32625 -1.65044 0
M  V30 6780 H 907.793 8.19631 -1.78299 0
M  V30 6781 H 906.099 10.1305 -1.09016 0
M  V30 6782 H 905.908 9.64276 -3.41316 0
M  V30 6783 H 904.278 9.25321 -2.76328 0
M  V30 6784 H 903.196 4.67832 -3.3413 0
M  V30 6785 H 904.96 6.14434 -2.51991 0
M  V30 6786 H 907.014 6.35931 1.08377 0
M  V30 6787 P 908.776 8.791 6.93566e-12 0
M  V30 6788 O 910.198 9.31096 0.027933 0
M  V30 6789 O 908.416 7.77869 -1.04071 0
M  V30 6790 O 908.453 8.09533 1.41463 0
M  V30 6791 C 908.293 9.0349 2.53943 0
M  V30 6792 C 908.833 8.35226 3.79016 0
M  V30 6793 O 907.777 7.57992 4.15078 0
M  V30 6794 C 910.051 7.45087 3.67298 0
M  V30 6795 O 910.789 7.27796 4.85194 0
M  V30 6796 C 909.382 6.17323 3.12027 0
M  V30 6797 O 910.181 5.04231 3.47188 0
M  V30 6798 C 908.045 6.19961 3.81809 0
M  V30 6799 H 908.077 5.58218 4.73051 0
M  V30 6800 H 909.26 6.21726 2.02589 0
M  V30 6801 H 910.744 7.86112 2.9231 0
M  V30 6802 H 909.05 9.11627 4.55076 0
M  V30 6803 H 908.86 9.9573 2.34194 0
M  V30 6804 H 907.23 9.2792 2.67832 0
M  V30 6805 H 909.869 4.67702 4.28772 0
M  V30 6806 P 911.726 7.39546 4.75277 0
M  V30 6807 O 913.148 7.81777 5.05738 0
M  V30 6808 O 911.366 7.1065 3.32998 0
M  V30 6809 O 911.403 6.04542 5.56673 0
M  V30 6810 C 911.243 6.22772 7.02095 0
M  V30 6811 C 911.783 4.97725 7.70406 0
M  V30 6812 O 910.727 4.13256 7.58987 0
M  V30 6813 C 913.001 4.28231 7.11815 0
M  V30 6814 O 913.739 3.49945 8.01648 0
M  V30 6815 C 912.332 3.5063 5.96244 0
M  V30 6816 O 913.131 2.36482 5.64681 0
M  V30 6817 C 910.995 3.15122 6.56374 0
M  V30 6818 H 911.027 2.13853 6.99751 0
M  V30 6819 H 912.21 4.13501 5.06559 0
M  V30 6820 H 913.694 5.03285 6.70911 0
M  V30 6821 H 912 5.20877 8.75697 0
M  V30 6822 H 911.81 7.11046 7.35349 0
M  V30 6823 H 910.18 6.35815 7.26986 0
M  V30 6824 H 912.819 1.61644 6.13565 0
M  V30 6825 P 914.677 3.65191 7.99657 0
M  V30 6826 O 916.099 3.8425 8.48115 0
M  V30 6827 O 914.317 4.17805 6.64342 0
M  V30 6828 O 914.354 2.07613 7.95143 0
M  V30 6829 C 914.194 1.44328 9.27336 0
M  V30 6830 C 914.734 0.0220036 9.17197 0
M  V30 6831 O 913.678 -0.626867 8.61923 0
M  V30 6832 C 915.952 -0.24586 8.30336 0
M  V30 6833 O 916.69 -1.39011 8.63583 0
M  V30 6834 C 915.283 -0.273849 6.91158 0
M  V30 6835 O 916.082 -1.06348 6.02892 0
M  V30 6836 C 913.946 -0.897649 7.22545 0
M  V30 6837 H 913.978 -1.9841 7.04286 0
M  V30 6838 H 915.161 0.739928 6.497 0
M  V30 6839 H 916.645 0.60668 8.36503 0
M  V30 6840 H 914.951 -0.352479 10.1829 0
M  V30 6841 H 914.761 2.00611 10.0304 0
M  V30 6842 H 913.131 1.41843 9.55327 0
M  V30 6843 H 915.77 -1.95734 6.03555 0
M  V30 6844 P 917.627 -1.25109 8.70152 0
M  V30 6845 O 919.049 -1.35274 9.21221 0
M  V30 6846 O 917.267 -0.0769065 7.84762 0
M  V30 6847 O 917.304 -2.55232 7.81161 0
M  V30 6848 C 917.144 -3.79939 8.58154 0
M  V30 6849 C 917.684 -4.94023 7.72785 0
M  V30 6850 O 916.628 -5.18726 6.91205 0
M  V30 6851 C 918.902 -4.69597 6.85231 0
M  V30 6852 O 919.64 -5.83832 6.51337 0
M  V30 6853 C 918.233 -3.96706 5.66633 0
M  V30 6854 O 919.032 -4.15414 4.49689 0
M  V30 6855 C 916.896 -4.66153 5.59313 0
M  V30 6856 H 916.928 -5.47679 4.85214 0
M  V30 6857 H 918.111 -2.89008 5.86566 0
M  V30 6858 H 919.595 -4.0121 7.36511 0
M  V30 6859 H 917.901 -5.80182 8.37584 0
M  V30 6860 H 917.711 -3.73517 9.52265 0
M  V30 6861 H 916.081 -3.97163 8.80359 0
M  V30 6862 H 918.72 -4.90969 4.01921 0
M  V30 6863 P 920.578 -5.75688 6.64379 0
M  V30 6864 O 922 -6.11981 7.01997 0
M  V30 6865 O 920.218 -4.30744 6.56026 0
M  V30 6866 O 920.255 -6.37042 5.19165 0
M  V30 6867 C 920.095 -7.83578 5.16515 0
M  V30 6868 C 920.635 -8.33307 3.82977 0
M  V30 6869 O 919.58 -8.10074 3.01034 0
M  V30 6870 C 921.853 -7.65514 3.2257 0
M  V30 6871 O 922.591 -8.4329 2.32297 0
M  V30 6872 C 921.185 -6.40075 2.62207 0
M  V30 6873 O 921.983 -5.92492 1.53687 0
M  V30 6874 C 919.847 -6.9454 2.18503 0
M  V30 6875 N 918.804 -5.95905 2.39948 0
M  V30 6876 C 918.866 -5.13994 3.44742 0
M  V30 6877 N 917.821 -4.30684 3.46712 0
M  V30 6878 C 917.087 -4.65583 2.41086 0
M  V30 6879 C 915.781 -4.20877 1.99581 0
M  V30 6880 O 915.048 -3.35913 2.52616 0
M  V30 6881 N 915.351 -4.83271 0.873406 0
M  V30 6882 C 916.1 -5.82006 0.185129 0
M  V30 6883 N 915.503 -6.30619 -0.95439 0
M  V30 6884 N 917.253 -6.28443 0.578524 0
M  V30 6885 C 917.71 -5.68486 1.70138 0
M  V30 6886 H 919.879 -7.23063 1.12091 0
M  V30 6887 H 921.062 -5.60165 3.3715 0
M  V30 6888 H 922.547 -7.3611 4.01946 0
M  V30 6889 H 920.852 -9.40912 3.9095 0
M  V30 6890 H 920.662 -8.29056 5.99158 0
M  V30 6891 H 919.031 -8.10073 5.25882 0
M  V30 6892 H 914.455 -4.58323 0.505262 0
M  V30 6893 H 919.662 -5.14564 4.1935 0
M  V30 6894 H 914.592 -5.93402 -1.25364 0
M  V30 6895 H 915.968 -7.0425 -1.50254 0
M  V30 6896 H 921.672 -6.30224 0.72668 0
M  V30 6897 P 923.528 -8.4349 2.47671 0
M  V30 6898 O 924.95 -8.94167 2.5964 0
M  V30 6899 O 923.168 -7.1704 3.19006 0
M  V30 6900 O 923.205 -8.16596 0.923387 0
M  V30 6901 C 923.045 -9.38437 0.108857 0
M  V30 6902 C 923.585 -9.08175 -1.28353 0
M  V30 6903 O 922.529 -8.44229 -1.84713 0
M  V30 6904 C 924.803 -8.18386 -1.42505 0
M  V30 6905 O 925.541 -8.3501 -2.60497 0
M  V30 6906 C 924.134 -6.80225 -1.25468 0
M  V30 6907 O 924.933 -5.81621 -1.91066 0
M  V30 6908 C 922.797 -7.02416 -1.9168 0
M  V30 6909 H 922.829 -6.6888 -2.96621 0
M  V30 6910 H 924.012 -6.53617 -0.192223 0
M  V30 6911 H 925.496 -8.36622 -0.589963 0
M  V30 6912 H 923.802 -10.0291 -1.79807 0
M  V30 6913 H 923.612 -10.2138 0.558219 0
M  V30 6914 H 921.982 -9.6579 0.0444202 0
M  V30 6915 H 924.621 -5.69556 -2.79637 0
M  V30 6916 P 926.479 -8.4349 -2.47671 0
M  V30 6917 O 927.901 -8.92593 -2.65 0
M  V30 6918 O 926.119 -7.7568 -1.19296 0
M  V30 6919 O 926.156 -7.36886 -3.63805 0
M  V30 6920 C 925.996 -7.95349 -4.982 0
M  V30 6921 C 926.536 -6.94612 -5.98974 0
M  V30 6922 O 925.48 -6.10347 -6.11815 0
M  V30 6923 C 927.754 -6.11426 -5.62335 0
M  V30 6924 O 928.492 -5.6162 -6.70584 0
M  V30 6925 C 927.085 -5.04409 -4.73308 0
M  V30 6926 O 927.884 -3.85992 -4.75183 0
M  V30 6927 C 925.748 -4.8728 -5.41006 0
M  V30 6928 H 925.78 -4.02333 -6.11157 0
M  V30 6929 H 926.963 -5.39466 -3.69543 0
M  V30 6930 H 928.447 -6.71916 -5.01943 0
M  V30 6931 H 926.753 -7.4649 -6.93477 0
M  V30 6932 H 926.563 -8.89416 -5.05237 0
M  V30 6933 H 924.933 -8.14876 -5.18409 0
M  V30 6934 H 927.572 -3.27957 -5.4317 0
M  V30 6935 P 929.43 -5.75688 -6.64379 0
M  V30 6936 O 930.852 -6.07627 -7.05504 0
M  V30 6937 O 929.07 -5.88047 -5.19722 0
M  V30 6938 O 929.107 -4.2322 -7.04443 0
M  V30 6939 C 928.947 -3.99743 -8.4911 0
M  V30 6940 C 929.487 -2.60516 -8.79425 0
M  V30 6941 O 928.431 -1.82684 -8.4467 0
M  V30 6942 C 930.705 -2.10343 -8.03628 0
M  V30 6943 O 931.443 -1.09919 -8.67766 0
M  V30 6944 C 930.036 -1.68446 -6.70876 0
M  V30 6945 O 930.835 -0.678137 -6.08433 0
M  V30 6946 C 928.699 -1.17436 -7.18567 0
M  V30 6947 H 928.731 -0.0804732 -7.31656 0
M  V30 6948 H 929.914 -2.54037 -6.02537 0
M  V30 6949 H 931.398 -2.93881 -7.85526 0
M  V30 6950 H 929.704 -2.53065 -9.86973 0
M  V30 6951 H 929.514 -4.75072 -9.05887 0
M  V30 6952 H 927.884 -4.05244 -8.76668 0
M  V30 6953 H 930.523 0.177647 -6.34251 0
M  V30 6954 P 932.38 -1.25109 -8.70152 0
M  V30 6955 O 933.802 -1.29744 -9.22016 0
M  V30 6956 O 932.02 -2.13714 -7.55141 0
M  V30 6957 O 932.057 0.248149 -8.21425 0
M  V30 6958 C 931.897 1.22779 -9.30434 0
M  V30 6959 C 932.437 2.56293 -8.80664 0
M  V30 6960 O 931.381 3.02979 -8.09349 0
M  V30 6961 C 933.655 2.57523 -7.89775 0
M  V30 6962 O 934.393 3.7668 -7.89438 0
M  V30 6963 C 932.986 2.20997 -6.55446 0
M  V30 6964 O 933.785 2.71895 -5.48509 0
M  V30 6965 C 931.649 2.89693 -6.67988 0
M  V30 6966 H 931.681 3.88793 -6.19859 0
M  V30 6967 H 932.864 1.12046 -6.44229 0
M  V30 6968 H 934.348 1.7746 -8.19711 0
M  V30 6969 H 932.654 3.20706 -9.67112 0
M  V30 6970 H 932.464 0.901032 -10.1892 0
M  V30 6971 H 930.834 1.33049 -9.56592 0
M  V30 6972 H 933.473 3.57847 -5.23962 0
M  V30 6973 P 935.331 3.65191 -7.99657 0
M  V30 6974 O 936.753 3.89332 -8.45794 0
M  V30 6975 O 934.971 2.28472 -7.50807 0
M  V30 6976 O 935.008 4.64972 -6.77611 0
M  V30 6977 C 934.848 6.06319 -7.16352 0
M  V30 6978 C 935.388 6.91731 -6.02299 0
M  V30 6979 O 934.332 6.92449 -5.17064 0
M  V30 6980 C 936.606 6.43627 -5.25174 0
M  V30 6981 O 937.344 7.43686 -4.60469 0
M  V30 6982 C 935.937 5.40275 -4.31916 0
M  V30 6983 O 936.736 5.25279 -3.14438 0
M  V30 6984 C 934.6 6.04847 -4.05327 0
M  V30 6985 H 934.632 6.62195 -3.11261 0
M  V30 6986 H 935.815 4.42556 -4.81383 0
M  V30 6987 H 937.299 5.92458 -5.93643 0
M  V30 6988 H 935.605 7.92655 -6.402 0
M  V30 6989 H 935.415 6.26671 -8.0846 0
M  V30 6990 H 933.785 6.29101 -7.32804 0
M  V30 6991 H 936.424 5.84315 -2.47318 0
M  V30 6992 P 938.281 7.39546 -4.75277 0
M  V30 6993 O 939.703 7.84798 -5.01039 0
M  V30 6994 O 937.921 5.9812 -5.08098 0
M  V30 6995 O 937.958 7.57503 -3.1866 0
M  V30 6996 C 937.798 8.97357 -2.74833 0
M  V30 6997 C 938.338 9.07548 -1.32709 0
M  V30 6998 O 937.282 8.62072 -0.606159 0
M  V30 6999 C 939.556 8.25383 -0.938334 0
M  V30 7000 O 940.294 8.74577 0.146954 0
M  V30 7001 C 938.887 6.8802 -0.712559 0
M  V30 7002 O 939.686 6.1189 0.194655 0
M  V30 7003 C 937.55 7.27966 -0.139777 0
M  V30 7004 H 937.582 7.25354 0.961601 0
M  V30 7005 H 938.765 6.32557 -1.65702 0
M  V30 7006 H 940.249 8.19355 -1.79097 0
M  V30 7007 H 938.555 10.1294 -1.10029 0
M  V30 7008 H 938.365 9.64276 -3.41316 0
M  V30 7009 H 936.735 9.25417 -2.76357 0
M  V30 7010 H 939.374 6.25267 1.07847 0
M  V30 7011 P 941.232 8.791 7.24582e-12 0
M  V30 7012 O 942.654 9.31096 0.027933 0
M  V30 7013 O 940.872 7.77869 -1.04071 0
M  V30 7014 O 940.909 8.09533 1.41463 0
M  V30 7015 C 940.749 9.0349 2.53943 0
M  V30 7016 C 941.289 8.35226 3.79016 0
M  V30 7017 O 940.233 7.57992 4.15078 0
M  V30 7018 C 942.507 7.45087 3.67298 0
M  V30 7019 O 943.245 7.27796 4.85194 0
M  V30 7020 C 941.838 6.17323 3.12027 0
M  V30 7021 O 942.637 5.04231 3.47188 0
M  V30 7022 C 940.501 6.19961 3.81809 0
M  V30 7023 H 940.533 5.58218 4.73051 0
M  V30 7024 H 941.716 6.21726 2.02589 0
M  V30 7025 H 943.2 7.86112 2.9231 0
M  V30 7026 H 941.506 9.11627 4.55076 0
M  V30 7027 H 941.316 9.9573 2.34194 0
M  V30 7028 H 939.686 9.2792 2.67832 0
M  V30 7029 H 942.325 4.67702 4.28772 0
M  V30 7030 P 944.182 7.39546 4.75277 0
M  V30 7031 O 945.604 7.81777 5.05738 0
M  V30 7032 O 943.822 7.1065 3.32998 0
M  V30 7033 O 943.859 6.04542 5.56673 0
M  V30 7034 C 943.699 6.22772 7.02095 0
M  V30 7035 C 944.239 4.97725 7.70406 0
M  V30 7036 O 943.183 4.13256 7.58987 0
M  V30 7037 C 945.457 4.28231 7.11815 0
M  V30 7038 O 946.195 3.49945 8.01648 0
M  V30 7039 C 944.788 3.5063 5.96244 0
M  V30 7040 O 945.587 2.36482 5.64681 0
M  V30 7041 C 943.451 3.15122 6.56374 0
M  V30 7042 H 943.483 2.13853 6.99751 0
M  V30 7043 H 944.666 4.13501 5.06559 0
M  V30 7044 H 946.15 5.03285 6.70911 0
M  V30 7045 H 944.456 5.20877 8.75697 0
M  V30 7046 H 944.266 7.11046 7.35349 0
M  V30 7047 H 942.636 6.35815 7.26986 0
M  V30 7048 H 945.275 1.61644 6.13565 0
M  V30 7049 P 947.133 3.65191 7.99657 0
M  V30 7050 O 948.555 3.8425 8.48115 0
M  V30 7051 O 946.773 4.17805 6.64342 0
M  V30 7052 O 946.81 2.07613 7.95143 0
M  V30 7053 C 946.65 1.44328 9.27336 0
M  V30 7054 C 947.19 0.0220036 9.17197 0
M  V30 7055 O 946.134 -0.626867 8.61923 0
M  V30 7056 C 948.408 -0.24586 8.30336 0
M  V30 7057 O 949.146 -1.39011 8.63583 0
M  V30 7058 C 947.739 -0.273849 6.91158 0
M  V30 7059 O 948.538 -1.06348 6.02892 0
M  V30 7060 C 946.402 -0.897649 7.22545 0
M  V30 7061 H 946.434 -1.9841 7.04286 0
M  V30 7062 H 947.617 0.739928 6.497 0
M  V30 7063 H 949.101 0.60668 8.36503 0
M  V30 7064 H 947.407 -0.352479 10.1829 0
M  V30 7065 H 947.217 2.00611 10.0304 0
M  V30 7066 H 945.587 1.41843 9.55327 0
M  V30 7067 H 948.226 -1.95734 6.03555 0
M  V30 7068 P 950.084 -1.25109 8.70152 0
M  V30 7069 O 951.506 -1.35274 9.21221 0
M  V30 7070 O 949.724 -0.0769065 7.84762 0
M  V30 7071 O 949.761 -2.55232 7.81161 0
M  V30 7072 C 949.601 -3.79939 8.58154 0
M  V30 7073 C 950.141 -4.94023 7.72785 0
M  V30 7074 O 949.085 -5.18726 6.91205 0
M  V30 7075 C 951.359 -4.69597 6.85231 0
M  V30 7076 O 952.097 -5.83832 6.51337 0
M  V30 7077 C 950.69 -3.96706 5.66633 0
M  V30 7078 O 951.489 -4.15414 4.49689 0
M  V30 7079 C 949.353 -4.66153 5.59313 0
M  V30 7080 H 949.385 -5.47679 4.85214 0
M  V30 7081 H 950.568 -2.89008 5.86566 0
M  V30 7082 H 952.052 -4.0121 7.36511 0
M  V30 7083 H 950.358 -5.80182 8.37584 0
M  V30 7084 H 950.168 -3.73517 9.52265 0
M  V30 7085 H 948.538 -3.97163 8.80359 0
M  V30 7086 H 951.177 -4.90969 4.01921 0
M  V30 7087 P 953.034 -5.75688 6.64379 0
M  V30 7088 O 954.456 -6.11849 7.01846 0
M  V30 7089 O 952.674 -4.30744 6.56026 0
M  V30 7090 O 952.711 -6.37042 5.19165 0
M  V30 7091 C 952.551 -7.83578 5.16515 0
M  V30 7092 C 953.091 -8.33398 3.83019 0
M  V30 7093 O 952.035 -8.10074 3.01034 0
M  V30 7094 C 954.309 -7.65514 3.2257 0
M  V30 7095 O 955.047 -8.4329 2.32297 0
M  V30 7096 C 953.64 -6.40075 2.62207 0
M  V30 7097 O 954.439 -5.92589 1.53712 0
M  V30 7098 C 952.303 -6.9454 2.18503 0
M  V30 7099 H 952.335 -7.23063 1.12091 0
M  V30 7100 H 953.518 -5.6025 3.37201 0
M  V30 7101 H 955.002 -7.35707 4.02681 0
M  V30 7102 H 953.308 -9.40912 3.9095 0
M  V30 7103 H 953.118 -8.29056 5.99158 0
M  V30 7104 H 951.488 -8.10073 5.25882 0
M  V30 7105 H 954.127 -6.30324 0.726794 0
M  V30 7106 P 955.985 -8.4349 2.47671 0
M  V30 7107 O 957.406 -8.94263 2.59668 0
M  V30 7108 O 955.625 -7.1704 3.19006 0
M  V30 7109 O 955.662 -8.16596 0.923387 0
M  V30 7110 C 955.501 -9.38537 0.108869 0
M  V30 7111 C 956.042 -9.08175 -1.28353 0
M  V30 7112 O 954.987 -8.44131 -1.84692 0
M  V30 7113 C 957.26 -8.18386 -1.42505 0
M  V30 7114 O 957.998 -8.3501 -2.60497 0
M  V30 7115 C 956.592 -6.80225 -1.25468 0
M  V30 7116 O 957.39 -5.81716 -1.90454 0
M  V30 7117 C 955.254 -7.02416 -1.9168 0
M  V30 7118 N 954.211 -6.31033 -1.20314 0
M  V30 7119 C 954.38 -5.98817 0.0994088 0
M  V30 7120 N 953.353 -5.35403 0.621694 0
M  V30 7121 C 952.468 -5.25212 -0.43376 0
M  V30 7122 C 951.201 -4.64602 -0.519722 0
M  V30 7123 N 950.602 -4.01457 0.519136 0
M  V30 7124 N 950.636 -4.7568 -1.76013 0
M  V30 7125 C 951.238 -5.3653 -2.83017 0
M  V30 7126 N 952.415 -5.93676 -2.79782 0
M  V30 7127 C 952.99 -5.84061 -1.56249 0
M  V30 7128 H 955.286 -6.68789 -2.9658 0
M  V30 7129 H 956.469 -6.53498 -0.198729 0
M  V30 7130 H 957.952 -8.36622 -0.589963 0
M  V30 7131 H 956.258 -10.0273 -1.8081 0
M  V30 7132 H 956.068 -10.2138 0.558219 0
M  V30 7133 H 954.438 -9.6579 0.0444202 0
M  V30 7134 H 950.702 -5.37113 -3.77321 0
M  V30 7135 H 955.28 -6.23209 0.660562 0
M  V30 7136 H 949.672 -3.58834 0.394862 0
M  V30 7137 H 951.076 -3.96059 1.43048 0
M  V30 7138 H 957.078 -5.69466 -2.79593 0
M  V30 7139 P 958.935 -8.4349 -2.47671 0
M  V30 7140 O 960.356 -8.92689 -2.65029 0
M  V30 7141 O 958.575 -7.7568 -1.19296 0
M  V30 7142 O 958.612 -7.36886 -3.63805 0
M  V30 7143 C 958.451 -7.95433 -4.98253 0
M  V30 7144 C 958.992 -6.94612 -5.98974 0
M  V30 7145 O 957.937 -6.10277 -6.11744 0
M  V30 7146 C 960.21 -6.11426 -5.62335 0
M  V30 7147 O 960.948 -5.6162 -6.70584 0
M  V30 7148 C 959.542 -5.04409 -4.73308 0
M  V30 7149 O 960.34 -3.86404 -4.74719 0
M  V30 7150 C 958.204 -4.8728 -5.41006 0
M  V30 7151 N 957.161 -4.65812 -4.42377 0
M  V30 7152 C 957.33 -5.09132 -3.15382 0
M  V30 7153 N 956.303 -4.84021 -2.3716 0
M  V30 7154 C 955.418 -4.18386 -3.20441 0
M  V30 7155 C 954.151 -3.6275 -2.94905 0
M  V30 7156 N 953.586 -3.05008 -4.05243 0
M  V30 7157 C 954.188 -2.98348 -5.28159 0
M  V30 7158 N 955.365 -3.48171 -5.56333 0
M  V30 7159 C 955.94 -4.06869 -4.47212 0
M  V30 7160 H 959.419 -5.39013 -3.70026 0
M  V30 7161 H 960.902 -6.71916 -5.01943 0
M  V30 7162 H 959.208 -7.45796 -6.94223 0
M  V30 7163 H 959.018 -8.89416 -5.05237 0
M  V30 7164 H 957.388 -8.14876 -5.18409 0
M  V30 7165 H 958.23 -5.59989 -2.81362 0
M  V30 7166 H 960.028 -3.27906 -5.43085 0
M  V30 7167 P 961.886 -5.75688 -6.64379 0
M  V30 7168 O 963.308 -6.07758 -7.05656 0
M  V30 7169 O 961.526 -5.88047 -5.19722 0
M  V30 7170 O 961.563 -4.2322 -7.04443 0
M  V30 7171 C 961.403 -3.99743 -8.4911 0
M  V30 7172 C 961.943 -2.60487 -8.79329 0
M  V30 7173 O 960.888 -1.82684 -8.4467 0
M  V30 7174 C 963.161 -2.10343 -8.03628 0
M  V30 7175 O 963.899 -1.09919 -8.67766 0
M  V30 7176 C 962.493 -1.68446 -6.70876 0
M  V30 7177 O 963.291 -0.678026 -6.08333 0
M  V30 7178 C 961.155 -1.17436 -7.18567 0
M  V30 7179 N 960.112 -1.52699 -6.23988 0
M  V30 7180 C 960.174 -2.68084 -5.57824 0
M  V30 7181 N 959.129 -2.8189 -4.75643 0
M  V30 7182 C 958.395 -1.72373 -4.95155 0
M  V30 7183 C 957.089 -1.37653 -4.44996 0
M  V30 7184 O 956.356 -2.02239 -3.68445 0
M  V30 7185 N 956.659 -0.17675 -4.90782 0
M  V30 7186 C 957.408 0.645036 -5.78716 0
M  V30 7187 N 956.811 1.84214 -6.10618 0
M  V30 7188 N 958.561 0.321732 -6.30279 0
M  V30 7189 C 959.018 -0.87502 -5.86913 0
M  V30 7190 H 961.187 -0.0804732 -7.31656 0
M  V30 7191 H 962.37 -2.53998 -6.02444 0
M  V30 7192 H 963.855 -2.93095 -7.8582 0
M  V30 7193 H 962.16 -2.53065 -9.86973 0
M  V30 7194 H 961.97 -4.75072 -9.05887 0
M  V30 7195 H 960.339 -4.05244 -8.76668 0
M  V30 7196 H 955.763 0.152143 -4.60849 0
M  V30 7197 H 960.97 -3.41852 -5.69006 0
M  V30 7198 H 955.9 2.08538 -5.69521 0
M  V30 7199 H 957.276 2.4895 -6.75698 0
M  V30 7200 H 962.98 0.177619 -6.34151 0
M  V30 7201 P 964.836 -1.25109 -8.70152 0
M  V30 7202 O 966.258 -1.29744 -9.22016 0
M  V30 7203 O 964.476 -2.13714 -7.55141 0
M  V30 7204 O 964.513 0.248149 -8.21425 0
M  V30 7205 C 964.353 1.22779 -9.30434 0
M  V30 7206 C 964.893 2.56293 -8.80664 0
M  V30 7207 O 963.837 3.02979 -8.09349 0
M  V30 7208 C 966.111 2.57523 -7.89775 0
M  V30 7209 O 966.849 3.7668 -7.89438 0
M  V30 7210 C 965.442 2.20997 -6.55446 0
M  V30 7211 O 966.241 2.71895 -5.48509 0
M  V30 7212 C 964.105 2.89693 -6.67988 0
M  V30 7213 H 964.137 3.88793 -6.19859 0
M  V30 7214 H 965.32 1.12046 -6.44229 0
M  V30 7215 H 966.804 1.7746 -8.19711 0
M  V30 7216 H 965.11 3.20706 -9.67112 0
M  V30 7217 H 964.92 0.901032 -10.1892 0
M  V30 7218 H 963.29 1.33049 -9.56592 0
M  V30 7219 H 965.929 3.57847 -5.23962 0
M  V30 7220 P 967.787 3.65191 -7.99657 0
M  V30 7221 O 969.209 3.89332 -8.45794 0
M  V30 7222 O 967.427 2.28472 -7.50807 0
M  V30 7223 O 967.464 4.64972 -6.77611 0
M  V30 7224 C 967.304 6.06319 -7.16352 0
M  V30 7225 C 967.844 6.91731 -6.02299 0
M  V30 7226 O 966.788 6.92449 -5.17064 0
M  V30 7227 C 969.062 6.43627 -5.25174 0
M  V30 7228 O 969.8 7.43686 -4.60469 0
M  V30 7229 C 968.393 5.40275 -4.31916 0
M  V30 7230 O 969.192 5.25279 -3.14438 0
M  V30 7231 C 967.056 6.04847 -4.05327 0
M  V30 7232 H 967.088 6.62195 -3.11261 0
M  V30 7233 H 968.271 4.42556 -4.81383 0
M  V30 7234 H 969.755 5.92458 -5.93643 0
M  V30 7235 H 968.061 7.92655 -6.402 0
M  V30 7236 H 967.871 6.26671 -8.0846 0
M  V30 7237 H 966.241 6.29101 -7.32804 0
M  V30 7238 H 968.88 5.84315 -2.47318 0
M  V30 7239 P 970.738 7.39546 -4.75277 0
M  V30 7240 O 972.139 7.86988 -5.07993 0
M  V30 7241 O 970.36 5.99957 -5.13804 0
M  V30 7242 O 970.415 7.57411 -3.18621 0
M  V30 7243 C 970.255 8.97357 -2.74833 0
M  V30 7244 C 970.795 9.0745 -1.32694 0
M  V30 7245 O 969.739 8.61972 -0.606089 0
M  V30 7246 C 972.012 8.25383 -0.938334 0
M  V30 7247 O 972.751 8.74577 0.146954 0
M  V30 7248 C 971.345 6.8802 -0.712559 0
M  V30 7249 O 972.143 6.11791 0.194623 0
M  V30 7250 C 970.007 7.27966 -0.139777 0
M  V30 7251 N 968.964 6.39368 -0.623421 0
M  V30 7252 C 967.929 6.08088 0.223886 0
M  V30 7253 O 967.968 6.5102 1.39986 0
M  V30 7254 N 966.917 5.30627 -0.224051 0
M  V30 7255 C 966.965 4.82531 -1.47257 0
M  V30 7256 C 968.061 5.09974 -2.34008 0
M  V30 7257 C 969.027 5.89548 -1.87678 0
M  V30 7258 H 970.039 7.25255 0.961469 0
M  V30 7259 H 971.222 6.32625 -1.65044 0
M  V30 7260 H 972.706 8.19631 -1.78299 0
M  V30 7261 H 971.012 10.1305 -1.09016 0
M  V30 7262 H 970.821 9.64276 -3.41316 0
M  V30 7263 H 969.191 9.25321 -2.76328 0
M  V30 7264 H 968.109 4.67832 -3.3413 0
M  V30 7265 H 969.873 6.14434 -2.51991 0
M  V30 7266 H 971.927 6.35931 1.08377 0
M  V30 7267 P 973.688 8.791 7.55599e-12 0
M  V30 7268 O 975.089 9.36698 -0.018734 0
M  V30 7269 O 973.31 7.82499 -1.07878 0
M  V30 7270 O 973.365 8.09434 1.41446 0
M  V30 7271 C 973.205 9.0349 2.53943 0
M  V30 7272 C 973.745 8.35135 3.78975 0
M  V30 7273 O 972.689 7.57904 4.1503 0
M  V30 7274 C 974.962 7.45087 3.67298 0
M  V30 7275 O 975.701 7.27796 4.85194 0
M  V30 7276 C 974.295 6.17323 3.12027 0
M  V30 7277 O 975.093 5.04149 3.47132 0
M  V30 7278 C 972.957 6.19961 3.81809 0
M  V30 7279 N 971.914 5.71575 2.93223 0
M  V30 7280 C 970.879 4.99452 3.47592 0
M  V30 7281 O 970.918 4.7199 4.69732 0
M  V30 7282 N 969.867 4.58505 2.6803 0
M  V30 7283 C 969.915 4.85544 1.36995 0
M  V30 7284 C 971.011 5.55532 0.788532 0
M  V30 7285 C 971.977 5.97426 1.60849 0
M  V30 7286 H 972.989 5.58142 4.72986 0
M  V30 7287 H 974.172 6.21428 2.0318 0
M  V30 7288 H 975.656 7.85913 2.93131 0
M  V30 7289 H 973.962 9.11171 4.55987 0
M  V30 7290 H 973.771 9.9573 2.34194 0
M  V30 7291 H 972.141 9.27824 2.67805 0
M  V30 7292 H 971.059 5.7421 -0.281588 0
M  V30 7293 H 972.823 6.53132 1.202 0
M  V30 7294 H 974.877 4.76386 4.34983 0
M  V30 7295 P 976.639 7.39546 4.75277 0
M  V30 7296 O 978.061 7.81777 5.05738 0
M  V30 7297 O 976.279 7.1065 3.32998 0
M  V30 7298 O 976.316 6.04542 5.56673 0
M  V30 7299 C 976.156 6.22772 7.02095 0
M  V30 7300 C 976.696 4.97725 7.70406 0
M  V30 7301 O 975.64 4.13256 7.58987 0
M  V30 7302 C 977.914 4.28231 7.11815 0
M  V30 7303 O 978.652 3.49945 8.01648 0
M  V30 7304 C 977.245 3.5063 5.96244 0
M  V30 7305 O 978.044 2.36482 5.64681 0
M  V30 7306 C 975.908 3.15122 6.56374 0
M  V30 7307 H 975.94 2.13853 6.99751 0
M  V30 7308 H 977.123 4.13501 5.06559 0
M  V30 7309 H 978.607 5.03285 6.70911 0
M  V30 7310 H 976.913 5.20877 8.75697 0
M  V30 7311 H 976.723 7.11046 7.35349 0
M  V30 7312 H 975.093 6.35815 7.26986 0
M  V30 7313 H 977.732 1.61644 6.13565 0
M  V30 7314 P 979.589 3.65191 7.99657 0
M  V30 7315 O 981.011 3.84333 8.48297 0
M  V30 7316 O 979.229 4.17805 6.64342 0
M  V30 7317 O 979.266 2.07613 7.95143 0
M  V30 7318 C 979.106 1.44328 9.27336 0
M  V30 7319 C 979.646 0.0220012 9.17097 0
M  V30 7320 O 978.591 -0.626867 8.61923 0
M  V30 7321 C 980.864 -0.24586 8.30336 0
M  V30 7322 O 981.602 -1.39011 8.63583 0
M  V30 7323 C 980.196 -0.273849 6.91158 0
M  V30 7324 O 980.994 -1.06331 6.02794 0
M  V30 7325 C 978.858 -0.897649 7.22545 0
M  V30 7326 N 977.815 -0.292839 6.41732 0
M  V30 7327 C 977.877 1.00068 6.10757 0
M  V30 7328 N 976.832 1.36468 5.35794 0
M  V30 7329 C 976.098 0.258894 5.2366 0
M  V30 7330 C 974.792 0.0670682 4.65752 0
M  V30 7331 O 974.059 0.902443 4.10497 0
M  V30 7332 N 974.362 -1.2131 4.75881 0
M  V30 7333 C 975.111 -2.24934 5.37101 0
M  V30 7334 N 974.514 -3.48783 5.33984 0
M  V30 7335 N 976.264 -2.0844 5.95684 0
M  V30 7336 C 976.721 -0.81395 5.87791 0
M  V30 7337 H 978.89 -1.9841 7.04286 0
M  V30 7338 H 980.073 0.739815 6.49601 0
M  V30 7339 H 981.558 0.598315 8.36563 0
M  V30 7340 H 979.863 -0.352479 10.1829 0
M  V30 7341 H 979.673 2.00611 10.0304 0
M  V30 7342 H 978.042 1.41843 9.55327 0
M  V30 7343 H 973.466 -1.44434 4.37895 0
M  V30 7344 H 978.673 1.67697 6.42268 0
M  V30 7345 H 973.603 -3.60543 4.87699 0
M  V30 7346 H 974.979 -4.29232 5.7819 0
M  V30 7347 H 980.683 -1.95704 6.0346 0
M  V30 7348 P 982.54 -1.25109 8.70152 0
M  V30 7349 O 983.962 -1.35274 9.21221 0
M  V30 7350 O 982.18 -0.0769065 7.84762 0
M  V30 7351 O 982.217 -2.55232 7.81161 0
M  V30 7352 C 982.057 -3.79939 8.58154 0
M  V30 7353 C 982.597 -4.94023 7.72785 0
M  V30 7354 O 981.541 -5.18726 6.91205 0
M  V30 7355 C 983.815 -4.69597 6.85231 0
M  V30 7356 O 984.553 -5.83832 6.51337 0
M  V30 7357 C 983.146 -3.96706 5.66633 0
M  V30 7358 O 983.945 -4.15414 4.49689 0
M  V30 7359 C 981.809 -4.66153 5.59313 0
M  V30 7360 H 981.841 -5.47679 4.85214 0
M  V30 7361 H 983.024 -2.89008 5.86566 0
M  V30 7362 H 984.508 -4.0121 7.36511 0
M  V30 7363 H 982.814 -5.80182 8.37584 0
M  V30 7364 H 982.624 -3.73517 9.52265 0
M  V30 7365 H 980.994 -3.97163 8.80359 0
M  V30 7366 H 983.633 -4.90969 4.01921 0
M  V30 7367 P 985.49 -5.75688 6.64379 0
M  V30 7368 O 986.912 -6.11849 7.01846 0
M  V30 7369 O 985.13 -4.30744 6.56026 0
M  V30 7370 O 985.167 -6.37042 5.19165 0
M  V30 7371 C 985.007 -7.83578 5.16515 0
M  V30 7372 C 985.547 -8.33398 3.83019 0
M  V30 7373 O 984.491 -8.10074 3.01034 0
M  V30 7374 C 986.765 -7.65514 3.2257 0
M  V30 7375 O 987.503 -8.4329 2.32297 0
M  V30 7376 C 986.096 -6.40075 2.62207 0
M  V30 7377 O 986.895 -5.92589 1.53712 0
M  V30 7378 C 984.759 -6.9454 2.18503 0
M  V30 7379 H 984.791 -7.23063 1.12091 0
M  V30 7380 H 985.974 -5.6025 3.37201 0
M  V30 7381 H 987.458 -7.35707 4.02681 0
M  V30 7382 H 985.764 -9.40912 3.9095 0
M  V30 7383 H 985.574 -8.29056 5.99158 0
M  V30 7384 H 983.944 -8.10073 5.25882 0
M  V30 7385 H 986.583 -6.30324 0.726794 0
M  V30 7386 P 988.441 -8.4349 2.47671 0
M  V30 7387 O 989.842 -8.98227 2.65696 0
M  V30 7388 O 988.063 -7.20409 3.23964 0
M  V30 7389 O 988.118 -8.16496 0.923275 0
M  V30 7390 C 987.958 -9.38437 0.108857 0
M  V30 7391 C 988.498 -9.08076 -1.28339 0
M  V30 7392 O 987.442 -8.44131 -1.84692 0
M  V30 7393 C 989.715 -8.18386 -1.42505 0
M  V30 7394 O 990.454 -8.3501 -2.60497 0
M  V30 7395 C 989.048 -6.80225 -1.25468 0
M  V30 7396 O 989.846 -5.81526 -1.91035 0
M  V30 7397 C 987.71 -7.02416 -1.9168 0
M  V30 7398 N 986.667 -6.31033 -1.20314 0
M  V30 7399 C 985.632 -5.77149 -1.928 0
M  V30 7400 O 985.671 -5.8521 -3.17729 0
M  V30 7401 N 984.62 -5.15445 -1.27997 0
M  V30 7402 C 984.668 -5.04472 0.0534726 0
M  V30 7403 C 985.764 -5.55244 0.808522 0
M  V30 7404 C 986.73 -6.18542 0.13981 0
M  V30 7405 H 987.742 -6.68789 -2.9658 0
M  V30 7406 H 988.925 -6.53498 -0.198729 0
M  V30 7407 H 990.409 -8.36663 -0.5984 0
M  V30 7408 H 988.715 -10.0273 -1.8081 0
M  V30 7409 H 988.524 -10.2138 0.558219 0
M  V30 7410 H 986.894 -9.6569 0.0444156 0
M  V30 7411 H 985.812 -5.43017 1.88792 0
M  V30 7412 H 987.576 -6.60539 0.686773 0
M  V30 7413 H 989.63 -5.79638 -2.8315 0
M  V30 7414 P 991.392 -8.4349 -2.47671 0
M  V30 7415 O 992.814 -8.92593 -2.65 0
M  V30 7416 O 991.032 -7.7568 -1.19296 0
M  V30 7417 O 991.069 -7.36886 -3.63805 0
M  V30 7418 C 990.909 -7.95349 -4.982 0
M  V30 7419 C 991.449 -6.94612 -5.98974 0
M  V30 7420 O 990.393 -6.10347 -6.11815 0
M  V30 7421 C 992.667 -6.11426 -5.62335 0
M  V30 7422 O 993.405 -5.6162 -6.70584 0
M  V30 7423 C 991.998 -5.04409 -4.73308 0
M  V30 7424 O 992.797 -3.85992 -4.75183 0
M  V30 7425 C 990.661 -4.8728 -5.41006 0
M  V30 7426 H 990.693 -4.02333 -6.11157 0
M  V30 7427 H 991.876 -5.39466 -3.69543 0
M  V30 7428 H 993.36 -6.71916 -5.01943 0
M  V30 7429 H 991.666 -7.4649 -6.93477 0
M  V30 7430 H 991.476 -8.89416 -5.05237 0
M  V30 7431 H 989.846 -8.14876 -5.18409 0
M  V30 7432 H 992.485 -3.27957 -5.4317 0
M  V30 7433 P 994.342 -5.75688 -6.64379 0
M  V30 7434 O 995.763 -6.07692 -7.0558 0
M  V30 7435 O 993.982 -5.88047 -5.19722 0
M  V30 7436 O 994.019 -4.2322 -7.04443 0
M  V30 7437 C 993.858 -3.99785 -8.49201 0
M  V30 7438 C 994.399 -2.60516 -8.79425 0
M  V30 7439 O 993.344 -1.82663 -8.44573 0
M  V30 7440 C 995.617 -2.10343 -8.03628 0
M  V30 7441 O 996.355 -1.09919 -8.67766 0
M  V30 7442 C 994.949 -1.68446 -6.70876 0
M  V30 7443 O 995.747 -0.684109 -6.08265 0
M  V30 7444 C 993.611 -1.17436 -7.18567 0
M  V30 7445 N 992.568 -1.52699 -6.23988 0
M  V30 7446 C 992.737 -2.578 -5.40574 0
M  V30 7447 N 991.71 -2.78966 -4.61193 0
M  V30 7448 C 990.825 -1.78725 -4.95769 0
M  V30 7449 C 989.558 -1.45727 -4.44207 0
M  V30 7450 N 988.959 -2.13994 -3.43613 0
M  V30 7451 N 988.993 -0.374977 -5.05812 0
M  V30 7452 C 989.595 0.345585 -6.05615 0
M  V30 7453 N 990.772 0.0787651 -6.56253 0
M  V30 7454 C 991.347 -1.00499 -5.96189 0
M  V30 7455 H 993.643 -0.0804622 -7.31556 0
M  V30 7456 H 994.826 -2.53396 -6.02698 0
M  V30 7457 H 996.309 -2.93881 -7.85526 0
M  V30 7458 H 994.615 -2.52078 -9.87225 0
M  V30 7459 H 994.425 -4.75072 -9.05887 0
M  V30 7460 H 992.795 -4.05244 -8.76668 0
M  V30 7461 H 989.059 1.20098 -6.4532 0
M  V30 7462 H 993.637 -3.18977 -5.3945 0
M  V30 7463 H 988.029 -1.84983 -3.10004 0
M  V30 7464 H 989.433 -2.9465 -3.00843 0
M  V30 7465 H 995.435 0.177619 -6.34151 0
M  V30 7466 P 997.293 -1.25109 -8.70152 0
M  V30 7467 O 998.715 -1.29744 -9.22016 0
M  V30 7468 O 996.933 -2.13714 -7.55141 0
M  V30 7469 O 996.97 0.248149 -8.21425 0
M  V30 7470 C 996.81 1.22779 -9.30434 0
M  V30 7471 C 997.35 2.56293 -8.80664 0
M  V30 7472 O 996.294 3.02979 -8.09349 0
M  V30 7473 C 998.568 2.57523 -7.89775 0
M  V30 7474 O 999.306 3.7668 -7.89438 0
M  V30 7475 C 997.899 2.20997 -6.55446 0
M  V30 7476 O 998.698 2.71895 -5.48509 0
M  V30 7477 C 996.562 2.89693 -6.67988 0
M  V30 7478 H 996.594 3.88793 -6.19859 0
M  V30 7479 H 997.777 1.12046 -6.44229 0
M  V30 7480 H 999.261 1.7746 -8.19711 0
M  V30 7481 H 997.567 3.20706 -9.67112 0
M  V30 7482 H 997.377 0.901032 -10.1892 0
M  V30 7483 H 995.747 1.33049 -9.56592 0
M  V30 7484 H 998.386 3.57847 -5.23962 0
M  V30 7485 P 1000.24 3.65191 -7.99657 0
M  V30 7486 O 1001.67 3.89332 -8.45794 0
M  V30 7487 O 999.883 2.28472 -7.50807 0
M  V30 7488 O 999.92 4.64972 -6.77611 0
M  V30 7489 C 999.76 6.06319 -7.16352 0
M  V30 7490 C 1000.3 6.91731 -6.02299 0
M  V30 7491 O 999.244 6.92449 -5.17064 0
M  V30 7492 C 1001.52 6.43627 -5.25174 0
M  V30 7493 O 1002.26 7.43686 -4.60469 0
M  V30 7494 C 1000.85 5.40275 -4.31916 0
M  V30 7495 O 1001.65 5.25279 -3.14438 0
M  V30 7496 C 999.512 6.04847 -4.05327 0
M  V30 7497 H 999.544 6.62195 -3.11261 0
M  V30 7498 H 1000.73 4.42556 -4.81383 0
M  V30 7499 H 1002.21 5.92458 -5.93643 0
M  V30 7500 H 1000.52 7.92655 -6.402 0
M  V30 7501 H 1000.33 6.26671 -8.0846 0
M  V30 7502 H 998.697 6.29101 -7.32804 0
M  V30 7503 H 1001.34 5.84315 -2.47318 0
M  V30 7504 P 1003.19 7.39546 -4.75277 0
M  V30 7505 O 1004.62 7.84798 -5.01039 0
M  V30 7506 O 1002.83 5.9812 -5.08098 0
M  V30 7507 O 1002.87 7.57503 -3.1866 0
M  V30 7508 C 1002.71 8.97357 -2.74833 0
M  V30 7509 C 1003.25 9.07548 -1.32709 0
M  V30 7510 O 1002.19 8.62072 -0.606159 0
M  V30 7511 C 1004.47 8.25383 -0.938334 0
M  V30 7512 O 1005.21 8.74577 0.146954 0
M  V30 7513 C 1003.8 6.8802 -0.712559 0
M  V30 7514 O 1004.6 6.1189 0.194655 0
M  V30 7515 C 1002.46 7.27966 -0.139777 0
M  V30 7516 H 1002.49 7.25354 0.961601 0
M  V30 7517 H 1003.68 6.32557 -1.65702 0
M  V30 7518 H 1005.16 8.19355 -1.79097 0
M  V30 7519 H 1003.47 10.1294 -1.10029 0
M  V30 7520 H 1003.28 9.64276 -3.41316 0
M  V30 7521 H 1001.65 9.25417 -2.76357 0
M  V30 7522 H 1004.29 6.25267 1.07847 0
M  V30 7523 P 1006.14 8.791 7.86616e-12 0
M  V30 7524 O 1007.57 9.31096 0.027933 0
M  V30 7525 O 1005.78 7.77869 -1.04071 0
M  V30 7526 O 1005.82 8.09533 1.41463 0
M  V30 7527 C 1005.66 9.0349 2.53943 0
M  V30 7528 C 1006.2 8.35226 3.79016 0
M  V30 7529 O 1005.15 7.57992 4.15078 0
M  V30 7530 C 1007.42 7.45087 3.67298 0
M  V30 7531 O 1008.16 7.27796 4.85194 0
M  V30 7532 C 1006.75 6.17323 3.12027 0
M  V30 7533 O 1007.55 5.04231 3.47188 0
M  V30 7534 C 1005.41 6.19961 3.81809 0
M  V30 7535 H 1005.45 5.58218 4.73051 0
M  V30 7536 H 1006.63 6.21726 2.02589 0
M  V30 7537 H 1008.11 7.86112 2.9231 0
M  V30 7538 H 1006.42 9.11627 4.55076 0
M  V30 7539 H 1006.23 9.9573 2.34194 0
M  V30 7540 H 1004.6 9.2792 2.67832 0
M  V30 7541 H 1007.24 4.67702 4.28772 0
M  V30 7542 P 1009.09 7.39546 4.75277 0
M  V30 7543 O 1010.52 7.81777 5.05738 0
M  V30 7544 O 1008.73 7.1065 3.32998 0
M  V30 7545 O 1008.77 6.04542 5.56673 0
M  V30 7546 C 1008.61 6.22772 7.02095 0
M  V30 7547 C 1009.15 4.97725 7.70406 0
M  V30 7548 O 1008.1 4.13256 7.58987 0
M  V30 7549 C 1010.37 4.28231 7.11815 0
M  V30 7550 O 1011.11 3.49945 8.01648 0
M  V30 7551 C 1009.7 3.5063 5.96244 0
M  V30 7552 O 1010.5 2.36482 5.64681 0
M  V30 7553 C 1008.36 3.15122 6.56374 0
M  V30 7554 H 1008.4 2.13853 6.99751 0
M  V30 7555 H 1009.58 4.13501 5.06559 0
M  V30 7556 H 1011.06 5.03285 6.70911 0
M  V30 7557 H 1009.37 5.20877 8.75697 0
M  V30 7558 H 1009.18 7.11046 7.35349 0
M  V30 7559 H 1007.55 6.35815 7.26986 0
M  V30 7560 H 1010.19 1.61644 6.13565 0
M  V30 7561 P 1012.05 3.65191 7.99657 0
M  V30 7562 O 1013.47 3.8425 8.48115 0
M  V30 7563 O 1011.69 4.17805 6.64342 0
M  V30 7564 O 1011.72 2.07613 7.95143 0
M  V30 7565 C 1011.56 1.44328 9.27336 0
M  V30 7566 C 1012.1 0.0220036 9.17197 0
M  V30 7567 O 1011.05 -0.626867 8.61923 0
M  V30 7568 C 1013.32 -0.24586 8.30336 0
M  V30 7569 O 1014.06 -1.39011 8.63583 0
M  V30 7570 C 1012.65 -0.273849 6.91158 0
M  V30 7571 O 1013.45 -1.06348 6.02892 0
M  V30 7572 C 1011.31 -0.897649 7.22545 0
M  V30 7573 H 1011.35 -1.9841 7.04286 0
M  V30 7574 H 1012.53 0.739928 6.497 0
M  V30 7575 H 1014.01 0.60668 8.36503 0
M  V30 7576 H 1012.32 -0.352479 10.1829 0
M  V30 7577 H 1012.13 2.00611 10.0304 0
M  V30 7578 H 1010.5 1.41843 9.55327 0
M  V30 7579 H 1013.14 -1.95734 6.03555 0
M  V30 7580 P 1015 -1.25109 8.70152 0
M  V30 7581 O 1016.42 -1.35288 9.2132 0
M  V30 7582 O 1014.64 -0.0769065 7.84762 0
M  V30 7583 O 1014.67 -2.55232 7.81161 0
M  V30 7584 C 1014.51 -3.79979 8.58246 0
M  V30 7585 C 1015.05 -4.94023 7.72785 0
M  V30 7586 O 1014 -5.18666 6.91125 0
M  V30 7587 C 1016.27 -4.69597 6.85231 0
M  V30 7588 O 1017.01 -5.83832 6.51337 0
M  V30 7589 C 1015.6 -3.96706 5.66633 0
M  V30 7590 O 1016.4 -4.14896 4.5003 0
M  V30 7591 C 1014.27 -4.66153 5.59313 0
M  V30 7592 N 1013.22 -3.71582 5.24027 0
M  V30 7593 C 1013.39 -2.39715 5.48833 0
M  V30 7594 N 1012.36 -1.65863 5.12845 0
M  V30 7595 C 1011.48 -2.57637 4.5973 0
M  V30 7596 C 1010.21 -2.40278 4.01027 0
M  V30 7597 N 1009.61 -1.19549 3.86744 0
M  V30 7598 N 1009.65 -3.57711 3.59575 0
M  V30 7599 C 1010.25 -4.80324 3.70476 0
M  V30 7600 N 1011.43 -5.01121 4.23801 0
M  V30 7601 C 1012 -3.84757 4.66372 0
M  V30 7602 H 1014.3 -5.47604 4.85148 0
M  V30 7603 H 1015.48 -2.8955 5.86187 0
M  V30 7604 H 1016.96 -4.0121 7.36511 0
M  V30 7605 H 1015.27 -5.81019 8.37003 0
M  V30 7606 H 1015.08 -3.73517 9.52265 0
M  V30 7607 H 1013.45 -3.97163 8.80359 0
M  V30 7608 H 1009.71 -5.66348 3.3183 0
M  V30 7609 H 1014.29 -1.98804 5.94332 0
M  V30 7610 H 1008.68 -1.13147 3.4281 0
M  V30 7611 H 1010.09 -0.344074 4.19692 0
M  V30 7612 H 1016.09 -4.90891 4.01857 0
M  V30 7613 P 1017.95 -5.75688 6.64379 0
M  V30 7614 O 1019.37 -6.11849 7.01846 0
M  V30 7615 O 1017.59 -4.30744 6.56026 0
M  V30 7616 O 1017.62 -6.37042 5.19165 0
M  V30 7617 C 1017.46 -7.83578 5.16515 0
M  V30 7618 C 1018 -8.33398 3.83019 0
M  V30 7619 O 1016.95 -8.10074 3.01034 0
M  V30 7620 C 1019.22 -7.65514 3.2257 0
M  V30 7621 O 1019.96 -8.4329 2.32297 0
M  V30 7622 C 1018.55 -6.40075 2.62207 0
M  V30 7623 O 1019.35 -5.92589 1.53712 0
M  V30 7624 C 1017.22 -6.9454 2.18503 0
M  V30 7625 H 1017.25 -7.23063 1.12091 0
M  V30 7626 H 1018.43 -5.6025 3.37201 0
M  V30 7627 H 1019.91 -7.35707 4.02681 0
M  V30 7628 H 1018.22 -9.40912 3.9095 0
M  V30 7629 H 1018.03 -8.29056 5.99158 0
M  V30 7630 H 1016.4 -8.10073 5.25882 0
M  V30 7631 H 1019.04 -6.30324 0.726794 0
M  V30 7632 P 1020.9 -8.4349 2.47671 0
M  V30 7633 O 1022.32 -8.94263 2.59668 0
M  V30 7634 O 1020.54 -7.1704 3.19006 0
M  V30 7635 O 1020.57 -8.16596 0.923387 0
M  V30 7636 C 1020.41 -9.38537 0.108869 0
M  V30 7637 C 1020.95 -9.08175 -1.28353 0
M  V30 7638 O 1019.9 -8.44131 -1.84692 0
M  V30 7639 C 1022.17 -8.18386 -1.42505 0
M  V30 7640 O 1022.91 -8.3501 -2.60497 0
M  V30 7641 C 1021.5 -6.80225 -1.25468 0
M  V30 7642 O 1022.3 -5.81716 -1.90454 0
M  V30 7643 C 1020.17 -7.02416 -1.9168 0
M  V30 7644 N 1019.12 -6.31033 -1.20314 0
M  V30 7645 C 1019.29 -5.98817 0.0994088 0
M  V30 7646 N 1018.27 -5.35403 0.621694 0
M  V30 7647 C 1017.38 -5.25212 -0.43376 0
M  V30 7648 C 1016.11 -4.64602 -0.519722 0
M  V30 7649 N 1015.51 -4.01457 0.519136 0
M  V30 7650 N 1015.55 -4.7568 -1.76013 0
M  V30 7651 C 1016.15 -5.3653 -2.83017 0
M  V30 7652 N 1017.33 -5.93676 -2.79782 0
M  V30 7653 C 1017.9 -5.84061 -1.56249 0
M  V30 7654 H 1020.2 -6.68789 -2.9658 0
M  V30 7655 H 1021.38 -6.53498 -0.198729 0
M  V30 7656 H 1022.86 -8.36622 -0.589963 0
M  V30 7657 H 1021.17 -10.0273 -1.8081 0
M  V30 7658 H 1020.98 -10.2138 0.558219 0
M  V30 7659 H 1019.35 -9.6579 0.0444202 0
M  V30 7660 H 1015.61 -5.37113 -3.77321 0
M  V30 7661 H 1020.19 -6.23209 0.660562 0
M  V30 7662 H 1014.58 -3.58834 0.394862 0
M  V30 7663 H 1015.99 -3.96059 1.43048 0
M  V30 7664 H 1021.99 -5.69466 -2.79593 0
M  V30 7665 P 1023.85 -8.4349 -2.47671 0
M  V30 7666 O 1025.27 -8.92785 -2.65057 0
M  V30 7667 O 1023.49 -7.7568 -1.19296 0
M  V30 7668 O 1023.52 -7.36886 -3.63805 0
M  V30 7669 C 1023.36 -7.95349 -4.982 0
M  V30 7670 C 1023.9 -6.94537 -5.98908 0
M  V30 7671 O 1022.85 -6.10347 -6.11815 0
M  V30 7672 C 1025.12 -6.11426 -5.62335 0
M  V30 7673 O 1025.86 -5.6162 -6.70584 0
M  V30 7674 C 1024.45 -5.04409 -4.73308 0
M  V30 7675 O 1025.25 -3.85929 -4.75106 0
M  V30 7676 C 1023.12 -4.8728 -5.41006 0
M  V30 7677 N 1022.07 -4.65812 -4.42377 0
M  V30 7678 C 1022.14 -5.27109 -3.24335 0
M  V30 7679 N 1021.09 -4.94293 -2.47735 0
M  V30 7680 C 1020.36 -4.1271 -3.23359 0
M  V30 7681 C 1019.05 -3.56384 -2.99934 0
M  V30 7682 O 1018.32 -3.69331 -2.00616 0
M  V30 7683 N 1018.62 -2.80206 -4.03316 0
M  V30 7684 C 1019.37 -2.58614 -5.2172 0
M  V30 7685 N 1018.77 -1.75154 -6.13278 0
M  V30 7686 N 1020.52 -3.13689 -5.47619 0
M  V30 7687 C 1020.98 -3.90921 -4.46436 0
M  V30 7688 H 1023.15 -4.02333 -6.11157 0
M  V30 7689 H 1024.33 -5.39383 -3.69487 0
M  V30 7690 H 1025.82 -6.71414 -5.02615 0
M  V30 7691 H 1024.12 -7.4649 -6.93477 0
M  V30 7692 H 1023.93 -8.89416 -5.05237 0
M  V30 7693 H 1022.3 -8.14876 -5.18409 0
M  V30 7694 H 1017.72 -2.36355 -3.95916 0
M  V30 7695 H 1022.93 -5.95212 -2.93859 0
M  V30 7696 H 1017.86 -1.32473 -5.91856 0
M  V30 7697 H 1019.24 -1.5588 -7.03026 0
M  V30 7698 H 1024.94 -3.27906 -5.43085 0
M  V30 7699 P 1026.8 -5.75688 -6.64379 0
M  V30 7700 O 1028.22 -6.07627 -7.05504 0
M  V30 7701 O 1026.44 -5.88047 -5.19722 0
M  V30 7702 O 1026.48 -4.2322 -7.04443 0
M  V30 7703 C 1026.32 -3.99743 -8.4911 0
M  V30 7704 C 1026.86 -2.60516 -8.79425 0
M  V30 7705 O 1025.8 -1.82684 -8.4467 0
M  V30 7706 C 1028.07 -2.10343 -8.03628 0
M  V30 7707 O 1028.81 -1.09919 -8.67766 0
M  V30 7708 C 1027.4 -1.68446 -6.70876 0
M  V30 7709 O 1028.2 -0.678137 -6.08433 0
M  V30 7710 C 1026.07 -1.17436 -7.18567 0
M  V30 7711 H 1026.1 -0.0804732 -7.31656 0
M  V30 7712 H 1027.28 -2.54037 -6.02537 0
M  V30 7713 H 1028.77 -2.93881 -7.85526 0
M  V30 7714 H 1027.07 -2.53065 -9.86973 0
M  V30 7715 H 1026.88 -4.75072 -9.05887 0
M  V30 7716 H 1025.25 -4.05244 -8.76668 0
M  V30 7717 H 1027.89 0.177647 -6.34251 0
M  V30 7718 P 1029.75 -1.25109 -8.70152 0
M  V30 7719 O 1031.17 -1.29744 -9.22016 0
M  V30 7720 O 1029.39 -2.13714 -7.55141 0
M  V30 7721 O 1029.43 0.248149 -8.21425 0
M  V30 7722 C 1029.27 1.22779 -9.30434 0
M  V30 7723 C 1029.81 2.56293 -8.80664 0
M  V30 7724 O 1028.75 3.02979 -8.09349 0
M  V30 7725 C 1031.02 2.57523 -7.89775 0
M  V30 7726 O 1031.76 3.7668 -7.89438 0
M  V30 7727 C 1030.35 2.20997 -6.55446 0
M  V30 7728 O 1031.15 2.71895 -5.48509 0
M  V30 7729 C 1029.02 2.89693 -6.67988 0
M  V30 7730 H 1029.05 3.88793 -6.19859 0
M  V30 7731 H 1030.23 1.12046 -6.44229 0
M  V30 7732 H 1031.72 1.7746 -8.19711 0
M  V30 7733 H 1030.02 3.20706 -9.67112 0
M  V30 7734 H 1029.83 0.901032 -10.1892 0
M  V30 7735 H 1028.2 1.33049 -9.56592 0
M  V30 7736 H 1030.84 3.57847 -5.23962 0
M  V30 7737 P 1032.7 3.65191 -7.99657 0
M  V30 7738 O 1034.12 3.89332 -8.45794 0
M  V30 7739 O 1032.34 2.28472 -7.50807 0
M  V30 7740 O 1032.38 4.64972 -6.77611 0
M  V30 7741 C 1032.22 6.06319 -7.16352 0
M  V30 7742 C 1032.76 6.91731 -6.02299 0
M  V30 7743 O 1031.7 6.92449 -5.17064 0
M  V30 7744 C 1033.97 6.43627 -5.25174 0
M  V30 7745 O 1034.71 7.43686 -4.60469 0
M  V30 7746 C 1033.31 5.40275 -4.31916 0
M  V30 7747 O 1034.1 5.25279 -3.14438 0
M  V30 7748 C 1031.97 6.04847 -4.05327 0
M  V30 7749 H 1032 6.62195 -3.11261 0
M  V30 7750 H 1033.18 4.42556 -4.81383 0
M  V30 7751 H 1034.67 5.92458 -5.93643 0
M  V30 7752 H 1032.97 7.92655 -6.402 0
M  V30 7753 H 1032.78 6.26671 -8.0846 0
M  V30 7754 H 1031.15 6.29101 -7.32804 0
M  V30 7755 H 1033.79 5.84315 -2.47318 0
M  V30 7756 P 1035.65 7.39546 -4.75277 0
M  V30 7757 O 1037.07 7.84798 -5.01039 0
M  V30 7758 O 1035.29 5.9812 -5.08098 0
M  V30 7759 O 1035.33 7.57503 -3.1866 0
M  V30 7760 C 1035.17 8.97357 -2.74833 0
M  V30 7761 C 1035.71 9.07548 -1.32709 0
M  V30 7762 O 1034.65 8.62072 -0.606159 0
M  V30 7763 C 1036.93 8.25383 -0.938334 0
M  V30 7764 O 1037.66 8.74577 0.146954 0
M  V30 7765 C 1036.26 6.8802 -0.712559 0
M  V30 7766 O 1037.06 6.1189 0.194655 0
M  V30 7767 C 1034.92 7.27966 -0.139777 0
M  V30 7768 H 1034.95 7.25354 0.961601 0
M  V30 7769 H 1036.13 6.32557 -1.65702 0
M  V30 7770 H 1037.62 8.19355 -1.79097 0
M  V30 7771 H 1035.92 10.1294 -1.10029 0
M  V30 7772 H 1035.73 9.64276 -3.41316 0
M  V30 7773 H 1034.1 9.25417 -2.76357 0
M  V30 7774 H 1036.74 6.25267 1.07847 0
M  V30 7775 P 1038.6 8.791 8.17632e-12 0
M  V30 7776 O 1040.02 9.31296 0.027939 0
M  V30 7777 O 1038.24 7.77869 -1.04071 0
M  V30 7778 O 1038.28 8.09533 1.41463 0
M  V30 7779 C 1038.12 9.0349 2.53943 0
M  V30 7780 C 1038.66 8.35135 3.78975 0
M  V30 7781 O 1037.6 7.57992 4.15078 0
M  V30 7782 C 1039.88 7.45087 3.67298 0
M  V30 7783 O 1040.61 7.27796 4.85194 0
M  V30 7784 C 1039.21 6.17323 3.12027 0
M  V30 7785 O 1040.01 5.04149 3.47132 0
M  V30 7786 C 1037.87 6.19961 3.81809 0
M  V30 7787 N 1036.83 5.71575 2.93223 0
M  V30 7788 C 1036.89 5.97133 1.62693 0
M  V30 7789 N 1035.84 5.44066 0.984414 0
M  V30 7790 C 1035.11 4.87093 1.93987 0
M  V30 7791 C 1033.8 4.26449 1.8738 0
M  V30 7792 O 1033.07 4.1089 0.884377 0
M  V30 7793 N 1033.37 3.82483 3.08036 0
M  V30 7794 C 1034.12 3.95124 4.27727 0
M  V30 7795 N 1033.53 3.4084 5.39089 0
M  V30 7796 N 1035.28 4.55264 4.3706 0
M  V30 7797 C 1035.73 5.00861 3.18217 0
M  V30 7798 H 1037.9 5.58218 4.73051 0
M  V30 7799 H 1039.08 6.21631 2.02558 0
M  V30 7800 H 1040.57 7.85819 2.93096 0
M  V30 7801 H 1038.87 9.11627 4.55076 0
M  V30 7802 H 1038.68 9.9573 2.34194 0
M  V30 7803 H 1037.05 9.2792 2.67832 0
M  V30 7804 H 1032.48 3.38323 3.1329 0
M  V30 7805 H 1037.68 6.53891 1.14265 0
M  V30 7806 H 1032.61 2.93852 5.30559 0
M  V30 7807 H 1033.99 3.47631 6.30632 0
M  V30 7808 H 1039.69 4.67628 4.28704 0
M  V30 7809 P 1041.55 7.39546 4.75277 0
M  V30 7810 O 1042.97 7.81777 5.05738 0
M  V30 7811 O 1041.19 7.1065 3.32998 0
M  V30 7812 O 1041.23 6.04542 5.56673 0
M  V30 7813 C 1041.07 6.22772 7.02095 0
M  V30 7814 C 1041.61 4.97725 7.70406 0
M  V30 7815 O 1040.55 4.13256 7.58987 0
M  V30 7816 C 1042.83 4.28231 7.11815 0
M  V30 7817 O 1043.56 3.49945 8.01648 0
M  V30 7818 C 1042.16 3.5063 5.96244 0
M  V30 7819 O 1042.96 2.36482 5.64681 0
M  V30 7820 C 1040.82 3.15122 6.56374 0
M  V30 7821 H 1040.85 2.13853 6.99751 0
M  V30 7822 H 1042.04 4.13501 5.06559 0
M  V30 7823 H 1043.52 5.03285 6.70911 0
M  V30 7824 H 1041.83 5.20877 8.75697 0
M  V30 7825 H 1041.64 7.11046 7.35349 0
M  V30 7826 H 1040.01 6.35815 7.26986 0
M  V30 7827 H 1042.64 1.61644 6.13565 0
M  V30 7828 P 1044.5 3.65191 7.99657 0
M  V30 7829 O 1045.92 3.84333 8.48297 0
M  V30 7830 O 1044.14 4.17805 6.64342 0
M  V30 7831 O 1044.18 2.07613 7.95143 0
M  V30 7832 C 1044.02 1.44328 9.27336 0
M  V30 7833 C 1044.56 0.0220012 9.17097 0
M  V30 7834 O 1043.5 -0.626867 8.61923 0
M  V30 7835 C 1045.78 -0.24586 8.30336 0
M  V30 7836 O 1046.51 -1.39011 8.63583 0
M  V30 7837 C 1045.11 -0.273849 6.91158 0
M  V30 7838 O 1045.91 -1.06331 6.02794 0
M  V30 7839 C 1043.77 -0.897649 7.22545 0
M  V30 7840 N 1042.73 -0.292839 6.41732 0
M  V30 7841 C 1042.79 1.00068 6.10757 0
M  V30 7842 N 1041.74 1.36468 5.35794 0
M  V30 7843 C 1041.01 0.258894 5.2366 0
M  V30 7844 C 1039.7 0.0670682 4.65752 0
M  V30 7845 O 1038.97 0.902443 4.10497 0
M  V30 7846 N 1039.27 -1.2131 4.75881 0
M  V30 7847 C 1040.02 -2.24934 5.37101 0
M  V30 7848 N 1039.43 -3.48783 5.33984 0
M  V30 7849 N 1041.18 -2.0844 5.95684 0
M  V30 7850 C 1041.63 -0.81395 5.87791 0
M  V30 7851 H 1043.8 -1.9841 7.04286 0
M  V30 7852 H 1044.99 0.739815 6.49601 0
M  V30 7853 H 1046.47 0.598315 8.36563 0
M  V30 7854 H 1044.78 -0.352479 10.1829 0
M  V30 7855 H 1044.59 2.00611 10.0304 0
M  V30 7856 H 1042.95 1.41843 9.55327 0
M  V30 7857 H 1038.38 -1.44434 4.37895 0
M  V30 7858 H 1043.59 1.67697 6.42268 0
M  V30 7859 H 1038.52 -3.60543 4.87699 0
M  V30 7860 H 1039.89 -4.29232 5.7819 0
M  V30 7861 H 1045.6 -1.95704 6.0346 0
M  V30 7862 P 1047.45 -1.25109 8.70152 0
M  V30 7863 O 1048.87 -1.35274 9.21221 0
M  V30 7864 O 1047.09 -0.0769065 7.84762 0
M  V30 7865 O 1047.13 -2.55232 7.81161 0
M  V30 7866 C 1046.97 -3.79939 8.58154 0
M  V30 7867 C 1047.51 -4.94023 7.72785 0
M  V30 7868 O 1046.45 -5.18726 6.91205 0
M  V30 7869 C 1048.73 -4.69597 6.85231 0
M  V30 7870 O 1049.47 -5.83832 6.51337 0
M  V30 7871 C 1048.06 -3.96706 5.66633 0
M  V30 7872 O 1048.86 -4.15414 4.49689 0
M  V30 7873 C 1046.72 -4.66153 5.59313 0
M  V30 7874 H 1046.75 -5.47679 4.85214 0
M  V30 7875 H 1047.94 -2.89008 5.86566 0
M  V30 7876 H 1049.42 -4.0121 7.36511 0
M  V30 7877 H 1047.73 -5.80182 8.37584 0
M  V30 7878 H 1047.54 -3.73517 9.52265 0
M  V30 7879 H 1045.91 -3.97163 8.80359 0
M  V30 7880 H 1048.55 -4.90969 4.01921 0
M  V30 7881 P 1050.4 -5.75688 6.64379 0
M  V30 7882 O 1051.82 -6.11849 7.01846 0
M  V30 7883 O 1050.04 -4.30744 6.56026 0
M  V30 7884 O 1050.08 -6.37042 5.19165 0
M  V30 7885 C 1049.92 -7.83578 5.16515 0
M  V30 7886 C 1050.46 -8.33398 3.83019 0
M  V30 7887 O 1049.4 -8.10074 3.01034 0
M  V30 7888 C 1051.68 -7.65514 3.2257 0
M  V30 7889 O 1052.42 -8.4329 2.32297 0
M  V30 7890 C 1051.01 -6.40075 2.62207 0
M  V30 7891 O 1051.81 -5.92589 1.53712 0
M  V30 7892 C 1049.67 -6.9454 2.18503 0
M  V30 7893 H 1049.7 -7.23063 1.12091 0
M  V30 7894 H 1050.89 -5.6025 3.37201 0
M  V30 7895 H 1052.37 -7.35707 4.02681 0
M  V30 7896 H 1050.68 -9.40912 3.9095 0
M  V30 7897 H 1050.49 -8.29056 5.99158 0
M  V30 7898 H 1048.86 -8.10073 5.25882 0
M  V30 7899 H 1051.5 -6.30324 0.726794 0
M  V30 7900 P 1053.35 -8.4349 2.47671 0
M  V30 7901 O 1054.77 -8.94263 2.59668 0
M  V30 7902 O 1052.99 -7.1704 3.19006 0
M  V30 7903 O 1053.03 -8.16596 0.923387 0
M  V30 7904 C 1052.87 -9.38537 0.108869 0
M  V30 7905 C 1053.41 -9.08175 -1.28353 0
M  V30 7906 O 1052.36 -8.44131 -1.84692 0
M  V30 7907 C 1054.63 -8.18386 -1.42505 0
M  V30 7908 O 1055.37 -8.3501 -2.60497 0
M  V30 7909 C 1053.96 -6.80225 -1.25468 0
M  V30 7910 O 1054.76 -5.81716 -1.90454 0
M  V30 7911 C 1052.62 -7.02416 -1.9168 0
M  V30 7912 N 1051.58 -6.31033 -1.20314 0
M  V30 7913 C 1051.75 -5.98817 0.0994088 0
M  V30 7914 N 1050.72 -5.35403 0.621694 0
M  V30 7915 C 1049.84 -5.25212 -0.43376 0
M  V30 7916 C 1048.57 -4.64602 -0.519722 0
M  V30 7917 N 1047.97 -4.01457 0.519136 0
M  V30 7918 N 1048 -4.7568 -1.76013 0
M  V30 7919 C 1048.61 -5.3653 -2.83017 0
M  V30 7920 N 1049.78 -5.93676 -2.79782 0
M  V30 7921 C 1050.36 -5.84061 -1.56249 0
M  V30 7922 H 1052.65 -6.68789 -2.9658 0
M  V30 7923 H 1053.84 -6.53498 -0.198729 0
M  V30 7924 H 1055.32 -8.36622 -0.589963 0
M  V30 7925 H 1053.63 -10.0273 -1.8081 0
M  V30 7926 H 1053.44 -10.2138 0.558219 0
M  V30 7927 H 1051.81 -9.6579 0.0444202 0
M  V30 7928 H 1048.07 -5.37113 -3.77321 0
M  V30 7929 H 1052.65 -6.23209 0.660562 0
M  V30 7930 H 1047.04 -3.58834 0.394862 0
M  V30 7931 H 1048.44 -3.96059 1.43048 0
M  V30 7932 H 1054.45 -5.69466 -2.79593 0
M  V30 7933 P 1056.3 -8.4349 -2.47671 0
M  V30 7934 O 1057.73 -8.92689 -2.65029 0
M  V30 7935 O 1055.94 -7.7568 -1.19296 0
M  V30 7936 O 1055.98 -7.36886 -3.63805 0
M  V30 7937 C 1055.82 -7.95433 -4.98253 0
M  V30 7938 C 1056.36 -6.94612 -5.98974 0
M  V30 7939 O 1055.31 -6.10277 -6.11744 0
M  V30 7940 C 1057.58 -6.11426 -5.62335 0
M  V30 7941 O 1058.32 -5.6162 -6.70584 0
M  V30 7942 C 1056.91 -5.04409 -4.73308 0
M  V30 7943 O 1057.71 -3.86404 -4.74719 0
M  V30 7944 C 1055.57 -4.8728 -5.41006 0
M  V30 7945 N 1054.53 -4.65812 -4.42377 0
M  V30 7946 C 1054.7 -5.09132 -3.15382 0
M  V30 7947 N 1053.67 -4.84021 -2.3716 0
M  V30 7948 C 1052.79 -4.18386 -3.20441 0
M  V30 7949 C 1051.52 -3.6275 -2.94905 0
M  V30 7950 N 1050.92 -3.65794 -1.73372 0
M  V30 7951 N 1050.96 -3.05008 -4.05243 0
M  V30 7952 C 1051.56 -2.98348 -5.28159 0
M  V30 7953 N 1052.73 -3.48171 -5.56333 0
M  V30 7954 C 1053.31 -4.06869 -4.47212 0
M  V30 7955 H 1055.61 -4.02278 -6.11074 0
M  V30 7956 H 1056.79 -5.39013 -3.70026 0
M  V30 7957 H 1058.27 -6.71916 -5.01943 0
M  V30 7958 H 1056.58 -7.45796 -6.94223 0
M  V30 7959 H 1056.39 -8.89416 -5.05237 0
M  V30 7960 H 1054.76 -8.14876 -5.18409 0
M  V30 7961 H 1051.02 -2.47853 -6.07807 0
M  V30 7962 H 1055.6 -5.59989 -2.81362 0
M  V30 7963 H 1049.99 -3.23218 -1.60782 0
M  V30 7964 H 1051.4 -4.10523 -0.937856 0
M  V30 7965 H 1057.4 -3.27906 -5.43085 0
M  V30 7966 P 1059.25 -5.75688 -6.64379 0
M  V30 7967 O 1060.68 -6.07758 -7.05656 0
M  V30 7968 O 1058.89 -5.88047 -5.19722 0
M  V30 7969 O 1058.93 -4.2322 -7.04443 0
M  V30 7970 C 1058.77 -3.99743 -8.4911 0
M  V30 7971 C 1059.31 -2.60487 -8.79329 0
M  V30 7972 O 1058.26 -1.82684 -8.4467 0
M  V30 7973 C 1060.53 -2.10343 -8.03628 0
M  V30 7974 O 1061.27 -1.09919 -8.67766 0
M  V30 7975 C 1059.86 -1.68446 -6.70876 0
M  V30 7976 O 1060.66 -0.678026 -6.08333 0
M  V30 7977 C 1058.52 -1.17436 -7.18567 0
M  V30 7978 N 1057.48 -1.52699 -6.23988 0
M  V30 7979 C 1057.54 -2.68084 -5.57824 0
M  V30 7980 N 1056.5 -2.8189 -4.75643 0
M  V30 7981 C 1055.76 -1.72373 -4.95155 0
M  V30 7982 C 1054.46 -1.37653 -4.44996 0
M  V30 7983 O 1053.72 -2.02239 -3.68445 0
M  V30 7984 N 1054.03 -0.17675 -4.90782 0
M  V30 7985 C 1054.78 0.645036 -5.78716 0
M  V30 7986 N 1054.18 1.84214 -6.10618 0
M  V30 7987 N 1055.93 0.321732 -6.30279 0
M  V30 7988 C 1056.39 -0.87502 -5.86913 0
M  V30 7989 H 1058.56 -0.0804732 -7.31656 0
M  V30 7990 H 1059.74 -2.53998 -6.02444 0
M  V30 7991 H 1061.22 -2.93095 -7.8582 0
M  V30 7992 H 1059.53 -2.53065 -9.86973 0
M  V30 7993 H 1059.34 -4.75072 -9.05887 0
M  V30 7994 H 1057.71 -4.05244 -8.76668 0
M  V30 7995 H 1053.13 0.152143 -4.60849 0
M  V30 7996 H 1058.34 -3.41852 -5.69006 0
M  V30 7997 H 1053.27 2.08538 -5.69521 0
M  V30 7998 H 1054.64 2.4895 -6.75698 0
M  V30 7999 H 1060.35 0.177619 -6.34151 0
M  V30 8000 P 1062.21 -1.25109 -8.70152 0
M  V30 8001 O 1063.63 -1.29772 -9.22214 0
M  V30 8002 O 1061.85 -2.13714 -7.55141 0
M  V30 8003 O 1061.88 0.248149 -8.21425 0
M  V30 8004 C 1061.72 1.22779 -9.30434 0
M  V30 8005 C 1062.26 2.56265 -8.80568 0
M  V30 8006 O 1061.21 3.02979 -8.09349 0
M  V30 8007 C 1063.48 2.57523 -7.89775 0
M  V30 8008 O 1064.22 3.7668 -7.89438 0
M  V30 8009 C 1062.81 2.20997 -6.55446 0
M  V30 8010 O 1063.61 2.71851 -5.48419 0
M  V30 8011 C 1061.47 2.89693 -6.67988 0
M  V30 8012 N 1060.43 2.08895 -6.07487 0
M  V30 8013 C 1060.49 0.760559 -6.14209 0
M  V30 8014 N 1059.45 0.200108 -5.52538 0
M  V30 8015 C 1058.71 1.22692 -5.09742 0
M  V30 8016 C 1057.41 1.24782 -4.48775 0
M  V30 8017 O 1056.68 0.290617 -4.19294 0
M  V30 8018 N 1056.98 2.50468 -4.22428 0
M  V30 8019 C 1057.73 3.67142 -4.51974 0
M  V30 8020 N 1057.13 4.85096 -4.14091 0
M  V30 8021 N 1058.88 3.67821 -5.12831 0
M  V30 8022 C 1059.34 2.43698 -5.4105 0
M  V30 8023 H 1061.51 3.88793 -6.19859 0
M  V30 8024 H 1062.69 1.12029 -6.4413 0
M  V30 8025 H 1064.17 1.78279 -8.19533 0
M  V30 8026 H 1062.48 3.20706 -9.67112 0
M  V30 8027 H 1062.29 0.901032 -10.1892 0
M  V30 8028 H 1060.66 1.33049 -9.56592 0
M  V30 8029 H 1056.08 2.61953 -3.79465 0
M  V30 8030 H 1061.29 0.200439 -6.63497 0
M  V30 8031 H 1056.22 4.8334 -3.66367 0
M  V30 8032 H 1057.6 5.7474 -4.33841 0
M  V30 8033 H 1063.3 3.5779 -5.23879 0
M  V30 8034 P 1065.16 3.65191 -7.99657 0
M  V30 8035 O 1066.58 3.89374 -8.45885 0
M  V30 8036 O 1064.8 2.28472 -7.50807 0
M  V30 8037 O 1064.83 4.64972 -6.77611 0
M  V30 8038 C 1064.67 6.06383 -7.16428 0
M  V30 8039 C 1065.21 6.91731 -6.02299 0
M  V30 8040 O 1064.16 6.92369 -5.17005 0
M  V30 8041 C 1066.43 6.43627 -5.25174 0
M  V30 8042 O 1067.17 7.43686 -4.60469 0
M  V30 8043 C 1065.76 5.40275 -4.31916 0
M  V30 8044 O 1066.56 5.24878 -3.14911 0
M  V30 8045 C 1064.42 6.04847 -4.05327 0
M  V30 8046 N 1063.38 5.04166 -3.98114 0
M  V30 8047 C 1063.55 3.84629 -4.59066 0
M  V30 8048 N 1062.52 3.0363 -4.45343 0
M  V30 8049 C 1061.64 3.76722 -3.68523 0
M  V30 8050 C 1060.37 3.43528 -3.17088 0
M  V30 8051 N 1059.81 4.44526 -2.44231 0
M  V30 8052 C 1060.41 5.65243 -2.20146 0
M  V30 8053 N 1061.59 6.00221 -2.65453 0
M  V30 8054 C 1062.16 5.00564 -3.39083 0
M  V30 8055 H 1065.64 4.42969 -4.80867 0
M  V30 8056 H 1067.12 5.92458 -5.93643 0
M  V30 8057 H 1065.43 7.93295 -6.39407 0
M  V30 8058 H 1065.24 6.26671 -8.0846 0
M  V30 8059 H 1063.61 6.29101 -7.32804 0
M  V30 8060 H 1064.45 3.58193 -5.14248 0
M  V30 8061 H 1066.25 5.84223 -2.47279 0
M  V30 8062 P 1068.11 7.39546 -4.75277 0
M  V30 8063 O 1069.51 7.86988 -5.07993 0
M  V30 8064 O 1067.73 5.99957 -5.13804 0
M  V30 8065 O 1067.78 7.57411 -3.18621 0
M  V30 8066 C 1067.62 8.97357 -2.74833 0
M  V30 8067 C 1068.16 9.0745 -1.32694 0
M  V30 8068 O 1067.11 8.61972 -0.606089 0
M  V30 8069 C 1069.38 8.25383 -0.938334 0
M  V30 8070 O 1070.12 8.74577 0.146954 0
M  V30 8071 C 1068.71 6.8802 -0.712559 0
M  V30 8072 O 1069.51 6.11791 0.194623 0
M  V30 8073 C 1067.38 7.27966 -0.139777 0
M  V30 8074 N 1066.33 6.39368 -0.623421 0
M  V30 8075 C 1065.3 6.08088 0.223886 0
M  V30 8076 O 1065.34 6.5102 1.39986 0
M  V30 8077 N 1064.29 5.30627 -0.224051 0
M  V30 8078 C 1064.33 4.82531 -1.47257 0
M  V30 8079 C 1065.43 5.09974 -2.34008 0
M  V30 8080 C 1066.4 5.89548 -1.87678 0
M  V30 8081 H 1067.41 7.25255 0.961469 0
M  V30 8082 H 1068.59 6.32625 -1.65044 0
M  V30 8083 H 1070.07 8.19631 -1.78299 0
M  V30 8084 H 1068.38 10.1305 -1.09016 0
M  V30 8085 H 1068.19 9.64276 -3.41316 0
M  V30 8086 H 1066.56 9.25321 -2.76328 0
M  V30 8087 H 1065.48 4.67832 -3.3413 0
M  V30 8088 H 1067.24 6.14434 -2.51991 0
M  V30 8089 H 1069.3 6.35931 1.08377 0
M  V30 8090 P 1071.06 8.791 8.48649e-12 0
M  V30 8091 O 1072.48 9.31096 0.027933 0
M  V30 8092 O 1070.7 7.77869 -1.04071 0
M  V30 8093 O 1070.73 8.09533 1.41463 0
M  V30 8094 C 1070.57 9.0349 2.53943 0
M  V30 8095 C 1071.11 8.35226 3.79016 0
M  V30 8096 O 1070.06 7.57992 4.15078 0
M  V30 8097 C 1072.33 7.45087 3.67298 0
M  V30 8098 O 1073.07 7.27796 4.85194 0
M  V30 8099 C 1071.66 6.17323 3.12027 0
M  V30 8100 O 1072.46 5.04231 3.47188 0
M  V30 8101 C 1070.33 6.19961 3.81809 0
M  V30 8102 H 1070.36 5.58218 4.73051 0
M  V30 8103 H 1071.54 6.21726 2.02589 0
M  V30 8104 H 1073.02 7.86112 2.9231 0
M  V30 8105 H 1071.33 9.11627 4.55076 0
M  V30 8106 H 1071.14 9.9573 2.34194 0
M  V30 8107 H 1069.51 9.2792 2.67832 0
M  V30 8108 H 1072.15 4.67702 4.28772 0
M  V30 8109 P 1074.01 7.39546 4.75277 0
M  V30 8110 O 1075.43 7.81945 5.05847 0
M  V30 8111 O 1073.65 7.1065 3.32998 0
M  V30 8112 O 1073.68 6.04542 5.56673 0
M  V30 8113 C 1073.52 6.22772 7.02095 0
M  V30 8114 C 1074.06 4.97671 7.70322 0
M  V30 8115 O 1073.01 4.13256 7.58987 0
M  V30 8116 C 1075.28 4.28231 7.11815 0
M  V30 8117 O 1076.02 3.49945 8.01648 0
M  V30 8118 C 1074.61 3.5063 5.96244 0
M  V30 8119 O 1075.41 2.36443 5.64589 0
M  V30 8120 C 1073.28 3.15122 6.56374 0
M  V30 8121 N 1072.23 3.22311 5.55692 0
M  V30 8122 C 1072.3 4.14382 4.59701 0
M  V30 8123 N 1071.25 4.04476 3.76958 0
M  V30 8124 C 1070.52 3.04892 4.26534 0
M  V30 8125 C 1069.21 2.57447 3.88189 0
M  V30 8126 O 1068.48 2.9785 2.96543 0
M  V30 8127 N 1068.78 1.55228 4.65922 0
M  V30 8128 C 1069.53 1.01152 5.73447 0
M  V30 8129 N 1068.93 -0.0472117 6.37783 0
M  V30 8130 N 1070.68 1.467 6.13813 0
M  V30 8131 C 1071.14 2.4931 5.38487 0
M  V30 8132 H 1073.31 2.13853 6.99751 0
M  V30 8133 H 1074.49 4.13438 5.06482 0
M  V30 8134 H 1075.98 5.02614 6.71414 0
M  V30 8135 H 1074.28 5.20877 8.75697 0
M  V30 8136 H 1074.09 7.11046 7.35349 0
M  V30 8137 H 1072.46 6.35815 7.26986 0
M  V30 8138 H 1067.88 1.15238 4.46468 0
M  V30 8139 H 1073.09 4.88312 4.49647 0
M  V30 8140 H 1068.02 -0.396382 6.05203 0
M  V30 8141 H 1069.4 -0.484997 7.18465 0
M  V30 8142 H 1075.1 1.61619 6.13468 0
M  V30 8143 P 1076.96 3.65191 7.99657 0
M  V30 8144 O 1078.38 3.8425 8.48115 0
M  V30 8145 O 1076.6 4.17805 6.64342 0
M  V30 8146 O 1076.64 2.07613 7.95143 0
M  V30 8147 C 1076.48 1.44328 9.27336 0
M  V30 8148 C 1077.02 0.0220036 9.17197 0
M  V30 8149 O 1075.96 -0.626867 8.61923 0
M  V30 8150 C 1078.23 -0.24586 8.30336 0
M  V30 8151 O 1078.97 -1.39011 8.63583 0
M  V30 8152 C 1077.56 -0.273849 6.91158 0
M  V30 8153 O 1078.36 -1.06348 6.02892 0
M  V30 8154 C 1076.23 -0.897649 7.22545 0
M  V30 8155 H 1076.26 -1.9841 7.04286 0
M  V30 8156 H 1077.44 0.739928 6.497 0
M  V30 8157 H 1078.93 0.60668 8.36503 0
M  V30 8158 H 1077.23 -0.352479 10.1829 0
M  V30 8159 H 1077.04 2.00611 10.0304 0
M  V30 8160 H 1075.41 1.41843 9.55327 0
M  V30 8161 H 1078.05 -1.95734 6.03555 0
M  V30 8162 P 1079.91 -1.25109 8.70152 0
M  V30 8163 O 1081.33 -1.35274 9.21221 0
M  V30 8164 O 1079.55 -0.0769065 7.84762 0
M  V30 8165 O 1079.59 -2.55232 7.81161 0
M  V30 8166 C 1079.43 -3.79939 8.58154 0
M  V30 8167 C 1079.97 -4.94023 7.72785 0
M  V30 8168 O 1078.91 -5.18726 6.91205 0
M  V30 8169 C 1081.18 -4.69597 6.85231 0
M  V30 8170 O 1081.92 -5.83832 6.51337 0
M  V30 8171 C 1080.51 -3.96706 5.66633 0
M  V30 8172 O 1081.31 -4.15414 4.49689 0
M  V30 8173 C 1079.18 -4.66153 5.59313 0
M  V30 8174 H 1079.21 -5.47679 4.85214 0
M  V30 8175 H 1080.39 -2.89008 5.86566 0
M  V30 8176 H 1081.88 -4.0121 7.36511 0
M  V30 8177 H 1080.18 -5.80182 8.37584 0
M  V30 8178 H 1079.99 -3.73517 9.52265 0
M  V30 8179 H 1078.36 -3.97163 8.80359 0
M  V30 8180 H 1081 -4.90969 4.01921 0
M  V30 8181 P 1082.86 -5.75688 6.64379 0
M  V30 8182 O 1084.28 -6.11981 7.01997 0
M  V30 8183 O 1082.5 -4.30744 6.56026 0
M  V30 8184 O 1082.54 -6.37042 5.19165 0
M  V30 8185 C 1082.38 -7.83578 5.16515 0
M  V30 8186 C 1082.92 -8.33307 3.82977 0
M  V30 8187 O 1081.86 -8.10074 3.01034 0
M  V30 8188 C 1084.13 -7.65514 3.2257 0
M  V30 8189 O 1084.87 -8.4329 2.32297 0
M  V30 8190 C 1083.47 -6.40075 2.62207 0
M  V30 8191 O 1084.26 -5.92492 1.53687 0
M  V30 8192 C 1082.13 -6.9454 2.18503 0
M  V30 8193 N 1081.09 -5.95905 2.39948 0
M  V30 8194 C 1081.15 -5.13994 3.44742 0
M  V30 8195 N 1080.1 -4.30684 3.46712 0
M  V30 8196 C 1079.37 -4.65583 2.41086 0
M  V30 8197 C 1078.06 -4.20877 1.99581 0
M  V30 8198 O 1077.33 -3.35913 2.52616 0
M  V30 8199 N 1077.63 -4.83271 0.873406 0
M  V30 8200 C 1078.38 -5.82006 0.185129 0
M  V30 8201 N 1077.78 -6.30619 -0.95439 0
M  V30 8202 N 1079.53 -6.28443 0.578524 0
M  V30 8203 C 1079.99 -5.68486 1.70138 0
M  V30 8204 H 1082.16 -7.23063 1.12091 0
M  V30 8205 H 1083.34 -5.60165 3.3715 0
M  V30 8206 H 1084.83 -7.3611 4.01946 0
M  V30 8207 H 1083.13 -9.40912 3.9095 0
M  V30 8208 H 1082.94 -8.29056 5.99158 0
M  V30 8209 H 1081.31 -8.10073 5.25882 0
M  V30 8210 H 1076.74 -4.58323 0.505262 0
M  V30 8211 H 1081.94 -5.14564 4.1935 0
M  V30 8212 H 1076.87 -5.93402 -1.25364 0
M  V30 8213 H 1078.25 -7.0425 -1.50254 0
M  V30 8214 H 1083.95 -6.30224 0.72668 0
M  V30 8215 P 1085.81 -8.4349 2.47671 0
M  V30 8216 O 1087.23 -8.94167 2.5964 0
M  V30 8217 O 1085.45 -7.1704 3.19006 0
M  V30 8218 O 1085.49 -8.16596 0.923387 0
M  V30 8219 C 1085.33 -9.38437 0.108857 0
M  V30 8220 C 1085.87 -9.08175 -1.28353 0
M  V30 8221 O 1084.81 -8.44229 -1.84713 0
M  V30 8222 C 1087.08 -8.18386 -1.42505 0
M  V30 8223 O 1087.82 -8.3501 -2.60497 0
M  V30 8224 C 1086.42 -6.80225 -1.25468 0
M  V30 8225 O 1087.21 -5.81621 -1.91066 0
M  V30 8226 C 1085.08 -7.02416 -1.9168 0
M  V30 8227 H 1085.11 -6.6888 -2.96621 0
M  V30 8228 H 1086.29 -6.53617 -0.192223 0
M  V30 8229 H 1087.78 -8.36622 -0.589963 0
M  V30 8230 H 1086.08 -10.0291 -1.79807 0
M  V30 8231 H 1085.89 -10.2138 0.558219 0
M  V30 8232 H 1084.26 -9.6579 0.0444202 0
M  V30 8233 H 1086.9 -5.69556 -2.79637 0
M  V30 8234 P 1088.76 -8.4349 -2.47671 0
M  V30 8235 O 1090.18 -8.92593 -2.65 0
M  V30 8236 O 1088.4 -7.7568 -1.19296 0
M  V30 8237 O 1088.44 -7.36886 -3.63805 0
M  V30 8238 C 1088.28 -7.95349 -4.982 0
M  V30 8239 C 1088.82 -6.94612 -5.98974 0
M  V30 8240 O 1087.76 -6.10347 -6.11815 0
M  V30 8241 C 1090.04 -6.11426 -5.62335 0
M  V30 8242 O 1090.77 -5.6162 -6.70584 0
M  V30 8243 C 1089.37 -5.04409 -4.73308 0
M  V30 8244 O 1090.17 -3.85992 -4.75183 0
M  V30 8245 C 1088.03 -4.8728 -5.41006 0
M  V30 8246 H 1088.06 -4.02333 -6.11157 0
M  V30 8247 H 1089.24 -5.39466 -3.69543 0
M  V30 8248 H 1090.73 -6.71916 -5.01943 0
M  V30 8249 H 1089.03 -7.4649 -6.93477 0
M  V30 8250 H 1088.84 -8.89416 -5.05237 0
M  V30 8251 H 1087.21 -8.14876 -5.18409 0
M  V30 8252 H 1089.85 -3.27957 -5.4317 0
M  V30 8253 P 1091.71 -5.75688 -6.64379 0
M  V30 8254 O 1093.13 -6.07627 -7.05504 0
M  V30 8255 O 1091.35 -5.88047 -5.19722 0
M  V30 8256 O 1091.39 -4.2322 -7.04443 0
M  V30 8257 C 1091.23 -3.99743 -8.4911 0
M  V30 8258 C 1091.77 -2.60516 -8.79425 0
M  V30 8259 O 1090.71 -1.82684 -8.4467 0
M  V30 8260 C 1092.99 -2.10343 -8.03628 0
M  V30 8261 O 1093.72 -1.09919 -8.67766 0
M  V30 8262 C 1092.32 -1.68446 -6.70876 0
M  V30 8263 O 1093.12 -0.678137 -6.08433 0
M  V30 8264 C 1090.98 -1.17436 -7.18567 0
M  V30 8265 H 1091.01 -0.0804732 -7.31656 0
M  V30 8266 H 1092.19 -2.54037 -6.02537 0
M  V30 8267 H 1093.68 -2.93881 -7.85526 0
M  V30 8268 H 1091.98 -2.53065 -9.86973 0
M  V30 8269 H 1091.79 -4.75072 -9.05887 0
M  V30 8270 H 1090.16 -4.05244 -8.76668 0
M  V30 8271 H 1092.8 0.177647 -6.34251 0
M  V30 8272 P 1094.66 -1.25109 -8.70152 0
M  V30 8273 O 1096.08 -1.29744 -9.22016 0
M  V30 8274 O 1094.3 -2.13714 -7.55141 0
M  V30 8275 O 1094.34 0.248149 -8.21425 0
M  V30 8276 C 1094.18 1.22779 -9.30434 0
M  V30 8277 C 1094.72 2.56293 -8.80664 0
M  V30 8278 O 1093.66 3.02979 -8.09349 0
M  V30 8279 C 1095.94 2.57523 -7.89775 0
M  V30 8280 O 1096.67 3.7668 -7.89438 0
M  V30 8281 C 1095.27 2.20997 -6.55446 0
M  V30 8282 O 1096.07 2.71895 -5.48509 0
M  V30 8283 C 1093.93 2.89693 -6.67988 0
M  V30 8284 H 1093.96 3.88793 -6.19859 0
M  V30 8285 H 1095.15 1.12046 -6.44229 0
M  V30 8286 H 1096.63 1.7746 -8.19711 0
M  V30 8287 H 1094.94 3.20706 -9.67112 0
M  V30 8288 H 1094.75 0.901032 -10.1892 0
M  V30 8289 H 1093.12 1.33049 -9.56592 0
M  V30 8290 H 1095.75 3.57847 -5.23962 0
M  V30 8291 P 1097.61 3.65191 -7.99657 0
M  V30 8292 O 1099.03 3.89332 -8.45794 0
M  V30 8293 O 1097.25 2.28472 -7.50807 0
M  V30 8294 O 1097.29 4.64972 -6.77611 0
M  V30 8295 C 1097.13 6.06319 -7.16352 0
M  V30 8296 C 1097.67 6.91731 -6.02299 0
M  V30 8297 O 1096.61 6.92449 -5.17064 0
M  V30 8298 C 1098.89 6.43627 -5.25174 0
M  V30 8299 O 1099.63 7.43686 -4.60469 0
M  V30 8300 C 1098.22 5.40275 -4.31916 0
M  V30 8301 O 1099.02 5.25279 -3.14438 0
M  V30 8302 C 1096.88 6.04847 -4.05327 0
M  V30 8303 H 1096.91 6.62195 -3.11261 0
M  V30 8304 H 1098.1 4.42556 -4.81383 0
M  V30 8305 H 1099.58 5.92458 -5.93643 0
M  V30 8306 H 1097.89 7.92655 -6.402 0
M  V30 8307 H 1097.7 6.26671 -8.0846 0
M  V30 8308 H 1096.07 6.29101 -7.32804 0
M  V30 8309 H 1098.71 5.84315 -2.47318 0
M  V30 8310 P 1100.56 7.39546 -4.75277 0
M  V30 8311 O 1101.98 7.84966 -5.01146 0
M  V30 8312 O 1100.2 5.9812 -5.08098 0
M  V30 8313 O 1100.24 7.57503 -3.1866 0
M  V30 8314 C 1100.08 8.97357 -2.74833 0
M  V30 8315 C 1100.62 9.0745 -1.32694 0
M  V30 8316 O 1099.56 8.62072 -0.606159 0
M  V30 8317 C 1101.84 8.25383 -0.938334 0
M  V30 8318 O 1102.58 8.74577 0.146954 0
M  V30 8319 C 1101.17 6.8802 -0.712559 0
M  V30 8320 O 1101.97 6.11791 0.194623 0
M  V30 8321 C 1099.83 7.27966 -0.139777 0
M  V30 8322 N 1098.79 6.39368 -0.623421 0
M  V30 8323 C 1098.85 5.90299 -1.85969 0
M  V30 8324 N 1097.81 5.10919 -2.1133 0
M  V30 8325 C 1097.07 5.14646 -1.0015 0
M  V30 8326 C 1095.77 4.60057 -0.729219 0
M  V30 8327 O 1095.03 3.93476 -1.47746 0
M  V30 8328 N 1095.34 4.88302 0.523505 0
M  V30 8329 C 1096.08 5.63646 1.46207 0
M  V30 8330 N 1095.49 5.78186 2.69239 0
M  V30 8331 N 1097.24 6.19285 1.21544 0
M  V30 8332 C 1097.69 5.93392 -0.0308487 0
M  V30 8333 H 1099.86 7.25354 0.961601 0
M  V30 8334 H 1101.05 6.3246 -1.65676 0
M  V30 8335 H 1102.53 8.19533 -1.78278 0
M  V30 8336 H 1100.84 10.1294 -1.10029 0
M  V30 8337 H 1100.65 9.64276 -3.41316 0
M  V30 8338 H 1099.02 9.25417 -2.76357 0
M  V30 8339 H 1094.44 4.53993 0.806451 0
M  V30 8340 H 1099.65 6.11865 -2.57394 0
M  V30 8341 H 1094.58 5.34046 2.87467 0
M  V30 8342 H 1095.95 6.33391 3.42578 0
M  V30 8343 H 1101.66 6.25169 1.0783 0
M  V30 8344 P 1103.51 8.791 8.79665e-12 0
M  V30 8345 O 1104.93 9.31196 0.027936 0
M  V30 8346 O 1103.15 7.77869 -1.04071 0
M  V30 8347 O 1103.19 8.09533 1.41463 0
M  V30 8348 C 1103.03 9.03587 2.5397 0
M  V30 8349 C 1103.57 8.35226 3.79016 0
M  V30 8350 O 1102.52 7.57904 4.1503 0
M  V30 8351 C 1104.79 7.45087 3.67298 0
M  V30 8352 O 1105.53 7.27796 4.85194 0
M  V30 8353 C 1104.12 6.17323 3.12027 0
M  V30 8354 O 1104.92 5.04496 3.46627 0
M  V30 8355 C 1102.78 6.19961 3.81809 0
M  V30 8356 N 1101.74 5.71575 2.93223 0
M  V30 8357 C 1101.91 5.77362 1.59168 0
M  V30 8358 N 1100.88 5.3123 0.911893 0
M  V30 8359 C 1100 4.91717 1.89588 0
M  V30 8360 C 1098.73 4.3114 1.8076 0
M  V30 8361 N 1098.16 4.06823 3.02898 0
M  V30 8362 C 1098.77 4.35062 4.22711 0
M  V30 8363 N 1099.94 4.90805 4.35707 0
M  V30 8364 C 1100.52 5.16382 3.14469 0
M  V30 8365 H 1104 6.21428 2.0318 0
M  V30 8366 H 1105.48 7.86112 2.9231 0
M  V30 8367 H 1103.79 9.11171 4.55987 0
M  V30 8368 H 1103.6 9.9573 2.34194 0
M  V30 8369 H 1101.97 9.2792 2.67832 0
M  V30 8370 H 1102.81 6.16575 1.12198 0
M  V30 8371 H 1104.61 4.67628 4.28704 0
M  V30 8372 P 1106.46 7.39546 4.75277 0
M  V30 8373 O 1107.89 7.81777 5.05738 0
M  V30 8374 O 1106.1 7.1065 3.32998 0
M  V30 8375 O 1106.14 6.04542 5.56673 0
M  V30 8376 C 1105.98 6.22772 7.02095 0
M  V30 8377 C 1106.52 4.97725 7.70406 0
M  V30 8378 O 1105.46 4.13256 7.58987 0
M  V30 8379 C 1107.74 4.28231 7.11815 0
M  V30 8380 O 1108.48 3.49945 8.01648 0
M  V30 8381 C 1107.07 3.5063 5.96244 0
M  V30 8382 O 1107.87 2.36482 5.64681 0
M  V30 8383 C 1105.73 3.15122 6.56374 0
M  V30 8384 H 1105.76 2.13853 6.99751 0
M  V30 8385 H 1106.95 4.13501 5.06559 0
M  V30 8386 H 1108.43 5.03285 6.70911 0
M  V30 8387 H 1106.74 5.20877 8.75697 0
M  V30 8388 H 1106.55 7.11046 7.35349 0
M  V30 8389 H 1104.92 6.35815 7.26986 0
M  V30 8390 H 1107.56 1.61644 6.13565 0
M  V30 8391 P 1109.41 3.65191 7.99657 0
M  V30 8392 O 1110.84 3.8425 8.48115 0
M  V30 8393 O 1109.05 4.17805 6.64342 0
M  V30 8394 O 1109.09 2.07613 7.95143 0
M  V30 8395 C 1108.93 1.44328 9.27336 0
M  V30 8396 C 1109.47 0.0220036 9.17197 0
M  V30 8397 O 1108.42 -0.626867 8.61923 0
M  V30 8398 C 1110.69 -0.24586 8.30336 0
M  V30 8399 O 1111.43 -1.39011 8.63583 0
M  V30 8400 C 1110.02 -0.273849 6.91158 0
M  V30 8401 O 1110.82 -1.06348 6.02892 0
M  V30 8402 C 1108.68 -0.897649 7.22545 0
M  V30 8403 H 1108.72 -1.9841 7.04286 0
M  V30 8404 H 1109.9 0.739928 6.497 0
M  V30 8405 H 1111.38 0.60668 8.36503 0
M  V30 8406 H 1109.69 -0.352479 10.1829 0
M  V30 8407 H 1109.5 2.00611 10.0304 0
M  V30 8408 H 1107.87 1.41843 9.55327 0
M  V30 8409 H 1110.51 -1.95734 6.03555 0
M  V30 8410 P 1112.36 -1.25109 8.70152 0
M  V30 8411 O 1113.79 -1.35274 9.21221 0
M  V30 8412 O 1112 -0.0769065 7.84762 0
M  V30 8413 O 1112.04 -2.55232 7.81161 0
M  V30 8414 C 1111.88 -3.79939 8.58154 0
M  V30 8415 C 1112.42 -4.94023 7.72785 0
M  V30 8416 O 1111.37 -5.18726 6.91205 0
M  V30 8417 C 1113.64 -4.69597 6.85231 0
M  V30 8418 O 1114.38 -5.83832 6.51337 0
M  V30 8419 C 1112.97 -3.96706 5.66633 0
M  V30 8420 O 1113.77 -4.15414 4.49689 0
M  V30 8421 C 1111.63 -4.66153 5.59313 0
M  V30 8422 H 1111.67 -5.47679 4.85214 0
M  V30 8423 H 1112.85 -2.89008 5.86566 0
M  V30 8424 H 1114.33 -4.0121 7.36511 0
M  V30 8425 H 1112.64 -5.80182 8.37584 0
M  V30 8426 H 1112.45 -3.73517 9.52265 0
M  V30 8427 H 1110.82 -3.97163 8.80359 0
M  V30 8428 H 1113.46 -4.90969 4.01921 0
M  V30 8429 P 1115.32 -5.75688 6.64379 0
M  V30 8430 O 1116.72 -6.11991 7.09136 0
M  V30 8431 O 1114.94 -4.30899 6.62018 0
M  V30 8432 O 1114.99 -6.36965 5.19102 0
M  V30 8433 C 1114.83 -7.83578 5.16515 0
M  V30 8434 C 1115.37 -8.33307 3.82977 0
M  V30 8435 O 1114.32 -8.0998 3.00999 0
M  V30 8436 C 1116.59 -7.65514 3.2257 0
M  V30 8437 O 1117.33 -8.4329 2.32297 0
M  V30 8438 C 1115.92 -6.40075 2.62207 0
M  V30 8439 O 1116.72 -5.92492 1.53687 0
M  V30 8440 C 1114.58 -6.9454 2.18503 0
M  V30 8441 N 1113.54 -5.95905 2.39948 0
M  V30 8442 C 1112.51 -5.89764 1.49837 0
M  V30 8443 O 1112.55 -6.64088 0.490975 0
M  V30 8444 N 1111.49 -5.02821 1.70992 0
M  V30 8445 C 1111.54 -4.21498 2.77236 0
M  V30 8446 N 1110.53 -3.37475 2.96465 0
M  V30 8447 C 1112.64 -4.23389 3.68205 0
M  V30 8448 C 1113.6 -5.12792 3.46171 0
M  V30 8449 H 1114.62 -7.22964 1.12076 0
M  V30 8450 H 1115.8 -5.60502 3.36589 0
M  V30 8451 H 1117.28 -7.36197 4.01993 0
M  V30 8452 H 1115.59 -9.41302 3.90009 0
M  V30 8453 H 1115.4 -8.29056 5.99158 0
M  V30 8454 H 1113.77 -8.09989 5.25828 0
M  V30 8455 H 1112.69 -3.54747 4.52399 0
M  V30 8456 H 1114.45 -5.18551 4.1489 0
M  V30 8457 H 1109.74 -3.36058 2.30304 0
M  V30 8458 H 1110.54 -2.73846 3.77171 0
M  V30 8459 H 1116.5 -6.40705 0.751752 0
M  V30 8460 P 1118.27 -8.4349 2.47671 0
M  V30 8461 O 1119.69 -8.94167 2.5964 0
M  V30 8462 O 1117.91 -7.1704 3.19006 0
M  V30 8463 O 1117.94 -8.16596 0.923387 0
M  V30 8464 C 1117.78 -9.38437 0.108857 0
M  V30 8465 C 1118.32 -9.08175 -1.28353 0
M  V30 8466 O 1117.27 -8.44229 -1.84713 0
M  V30 8467 C 1119.54 -8.18386 -1.42505 0
M  V30 8468 O 1120.28 -8.3501 -2.60497 0
M  V30 8469 C 1118.87 -6.80225 -1.25468 0
M  V30 8470 O 1119.67 -5.81621 -1.91066 0
M  V30 8471 C 1117.54 -7.02416 -1.9168 0
M  V30 8472 H 1117.57 -6.6888 -2.96621 0
M  V30 8473 H 1118.75 -6.53617 -0.192223 0
M  V30 8474 H 1120.23 -8.36622 -0.589963 0
M  V30 8475 H 1118.54 -10.0291 -1.79807 0
M  V30 8476 H 1118.35 -10.2138 0.558219 0
M  V30 8477 H 1116.72 -9.6579 0.0444202 0
M  V30 8478 H 1119.36 -5.69556 -2.79637 0
M  V30 8479 P 1121.22 -8.4349 -2.47671 0
M  V30 8480 O 1122.64 -8.92785 -2.65057 0
M  V30 8481 O 1120.86 -7.7568 -1.19296 0
M  V30 8482 O 1120.89 -7.36886 -3.63805 0
M  V30 8483 C 1120.73 -7.95349 -4.982 0
M  V30 8484 C 1121.27 -6.94537 -5.98908 0
M  V30 8485 O 1120.22 -6.10347 -6.11815 0
M  V30 8486 C 1122.49 -6.11426 -5.62335 0
M  V30 8487 O 1123.23 -5.6162 -6.70584 0
M  V30 8488 C 1121.82 -5.04409 -4.73308 0
M  V30 8489 O 1122.62 -3.85929 -4.75106 0
M  V30 8490 C 1120.49 -4.8728 -5.41006 0
M  V30 8491 N 1119.44 -4.65812 -4.42377 0
M  V30 8492 C 1119.5 -5.27109 -3.24335 0
M  V30 8493 N 1118.46 -4.94293 -2.47735 0
M  V30 8494 C 1117.73 -4.1271 -3.23359 0
M  V30 8495 C 1116.42 -3.56384 -2.99934 0
M  V30 8496 O 1115.69 -3.69331 -2.00616 0
M  V30 8497 N 1115.99 -2.80206 -4.03316 0
M  V30 8498 C 1116.74 -2.58614 -5.2172 0
M  V30 8499 N 1116.14 -1.75154 -6.13278 0
M  V30 8500 N 1117.89 -3.13689 -5.47619 0
M  V30 8501 C 1118.35 -3.90921 -4.46436 0
M  V30 8502 H 1120.52 -4.02333 -6.11157 0
M  V30 8503 H 1121.7 -5.39383 -3.69487 0
M  V30 8504 H 1123.19 -6.71414 -5.02615 0
M  V30 8505 H 1121.49 -7.4649 -6.93477 0
M  V30 8506 H 1121.3 -8.89416 -5.05237 0
M  V30 8507 H 1119.67 -8.14876 -5.18409 0
M  V30 8508 H 1115.09 -2.36355 -3.95916 0
M  V30 8509 H 1120.3 -5.95212 -2.93859 0
M  V30 8510 H 1115.23 -1.32473 -5.91856 0
M  V30 8511 H 1116.61 -1.5588 -7.03026 0
M  V30 8512 H 1122.31 -3.27906 -5.43085 0
M  V30 8513 P 1124.17 -5.75688 -6.64379 0
M  V30 8514 O 1125.59 -6.07627 -7.05504 0
M  V30 8515 O 1123.81 -5.88047 -5.19722 0
M  V30 8516 O 1123.84 -4.2322 -7.04443 0
M  V30 8517 C 1123.68 -3.99743 -8.4911 0
M  V30 8518 C 1124.22 -2.60516 -8.79425 0
M  V30 8519 O 1123.17 -1.82684 -8.4467 0
M  V30 8520 C 1125.44 -2.10343 -8.03628 0
M  V30 8521 O 1126.18 -1.09919 -8.67766 0
M  V30 8522 C 1124.77 -1.68446 -6.70876 0
M  V30 8523 O 1125.57 -0.678137 -6.08433 0
M  V30 8524 C 1123.44 -1.17436 -7.18567 0
M  V30 8525 H 1123.47 -0.0804732 -7.31656 0
M  V30 8526 H 1124.65 -2.54037 -6.02537 0
M  V30 8527 H 1126.14 -2.93881 -7.85526 0
M  V30 8528 H 1124.44 -2.53065 -9.86973 0
M  V30 8529 H 1124.25 -4.75072 -9.05887 0
M  V30 8530 H 1122.62 -4.05244 -8.76668 0
M  V30 8531 H 1125.26 0.177647 -6.34251 0
M  V30 8532 P 1127.12 -1.25109 -8.70152 0
M  V30 8533 O 1128.54 -1.29744 -9.22016 0
M  V30 8534 O 1126.76 -2.13714 -7.55141 0
M  V30 8535 O 1126.79 0.248149 -8.21425 0
M  V30 8536 C 1126.63 1.22779 -9.30434 0
M  V30 8537 C 1127.17 2.56293 -8.80664 0
M  V30 8538 O 1126.12 3.02979 -8.09349 0
M  V30 8539 C 1128.39 2.57523 -7.89775 0
M  V30 8540 O 1129.13 3.7668 -7.89438 0
M  V30 8541 C 1127.72 2.20997 -6.55446 0
M  V30 8542 O 1128.52 2.71895 -5.48509 0
M  V30 8543 C 1126.39 2.89693 -6.67988 0
M  V30 8544 H 1126.42 3.88793 -6.19859 0
M  V30 8545 H 1127.6 1.12046 -6.44229 0
M  V30 8546 H 1129.09 1.7746 -8.19711 0
M  V30 8547 H 1127.39 3.20706 -9.67112 0
M  V30 8548 H 1127.2 0.901032 -10.1892 0
M  V30 8549 H 1125.57 1.33049 -9.56592 0
M  V30 8550 H 1128.21 3.57847 -5.23962 0
M  V30 8551 P 1130.07 3.65191 -7.99657 0
M  V30 8552 O 1131.49 3.89332 -8.45794 0
M  V30 8553 O 1129.71 2.28472 -7.50807 0
M  V30 8554 O 1129.75 4.64972 -6.77611 0
M  V30 8555 C 1129.59 6.06319 -7.16352 0
M  V30 8556 C 1130.13 6.91731 -6.02299 0
M  V30 8557 O 1129.07 6.92449 -5.17064 0
M  V30 8558 C 1131.34 6.43627 -5.25174 0
M  V30 8559 O 1132.08 7.43686 -4.60469 0
M  V30 8560 C 1130.67 5.40275 -4.31916 0
M  V30 8561 O 1131.47 5.25279 -3.14438 0
M  V30 8562 C 1129.34 6.04847 -4.05327 0
M  V30 8563 H 1129.37 6.62195 -3.11261 0
M  V30 8564 H 1130.55 4.42556 -4.81383 0
M  V30 8565 H 1132.04 5.92458 -5.93643 0
M  V30 8566 H 1130.34 7.92655 -6.402 0
M  V30 8567 H 1130.15 6.26671 -8.0846 0
M  V30 8568 H 1128.52 6.29101 -7.32804 0
M  V30 8569 H 1131.16 5.84315 -2.47318 0
M  V30 8570 P 1133.02 7.39546 -4.75277 0
M  V30 8571 O 1134.44 7.84966 -5.01146 0
M  V30 8572 O 1132.66 5.9812 -5.08098 0
M  V30 8573 O 1132.7 7.57503 -3.1866 0
M  V30 8574 C 1132.54 8.97357 -2.74833 0
M  V30 8575 C 1133.08 9.0745 -1.32694 0
M  V30 8576 O 1132.02 8.62072 -0.606159 0
M  V30 8577 C 1134.29 8.25383 -0.938334 0
M  V30 8578 O 1135.03 8.74577 0.146954 0
M  V30 8579 C 1133.63 6.8802 -0.712559 0
M  V30 8580 O 1134.42 6.11791 0.194623 0
M  V30 8581 C 1132.29 7.27966 -0.139777 0
M  V30 8582 N 1131.24 6.39368 -0.623421 0
M  V30 8583 C 1131.31 5.90299 -1.85969 0
M  V30 8584 N 1130.26 5.10919 -2.1133 0
M  V30 8585 C 1129.53 5.14646 -1.0015 0
M  V30 8586 C 1128.22 4.60057 -0.729219 0
M  V30 8587 O 1127.49 3.93476 -1.47746 0
M  V30 8588 N 1127.79 4.88302 0.523505 0
M  V30 8589 C 1128.54 5.63646 1.46207 0
M  V30 8590 N 1127.94 5.78186 2.69239 0
M  V30 8591 N 1129.69 6.19285 1.21544 0
M  V30 8592 C 1130.15 5.93392 -0.0308487 0
M  V30 8593 H 1132.32 7.25354 0.961601 0
M  V30 8594 H 1133.5 6.3246 -1.65676 0
M  V30 8595 H 1134.99 8.19533 -1.78278 0
M  V30 8596 H 1133.29 10.1294 -1.10029 0
M  V30 8597 H 1133.1 9.64276 -3.41316 0
M  V30 8598 H 1131.47 9.25417 -2.76357 0
M  V30 8599 H 1126.9 4.53993 0.806451 0
M  V30 8600 H 1132.1 6.11865 -2.57394 0
M  V30 8601 H 1127.03 5.34046 2.87467 0
M  V30 8602 H 1128.41 6.33391 3.42578 0
M  V30 8603 H 1134.11 6.25169 1.0783 0
M  V30 8604 P 1135.97 8.791 9.10682e-12 0
M  V30 8605 O 1137.39 9.31096 0.027933 0
M  V30 8606 O 1135.61 7.77869 -1.04071 0
M  V30 8607 O 1135.65 8.09533 1.41463 0
M  V30 8608 C 1135.49 9.0349 2.53943 0
M  V30 8609 C 1136.03 8.35226 3.79016 0
M  V30 8610 O 1134.97 7.57992 4.15078 0
M  V30 8611 C 1137.24 7.45087 3.67298 0
M  V30 8612 O 1137.98 7.27796 4.85194 0
M  V30 8613 C 1136.58 6.17323 3.12027 0
M  V30 8614 O 1137.37 5.04231 3.47188 0
M  V30 8615 C 1135.24 6.19961 3.81809 0
M  V30 8616 H 1135.27 5.58218 4.73051 0
M  V30 8617 H 1136.45 6.21726 2.02589 0
M  V30 8618 H 1137.94 7.86112 2.9231 0
M  V30 8619 H 1136.24 9.11627 4.55076 0
M  V30 8620 H 1136.05 9.9573 2.34194 0
M  V30 8621 H 1134.42 9.2792 2.67832 0
M  V30 8622 H 1137.06 4.67702 4.28772 0
M  V30 8623 P 1138.92 7.39546 4.75277 0
M  V30 8624 O 1140.34 7.81777 5.05738 0
M  V30 8625 O 1138.56 7.1065 3.32998 0
M  V30 8626 O 1138.6 6.04542 5.56673 0
M  V30 8627 C 1138.44 6.22772 7.02095 0
M  V30 8628 C 1138.98 4.97725 7.70406 0
M  V30 8629 O 1137.92 4.13256 7.58987 0
M  V30 8630 C 1140.2 4.28231 7.11815 0
M  V30 8631 O 1140.93 3.49945 8.01648 0
M  V30 8632 C 1139.53 3.5063 5.96244 0
M  V30 8633 O 1140.33 2.36482 5.64681 0
M  V30 8634 C 1138.19 3.15122 6.56374 0
M  V30 8635 H 1138.22 2.13853 6.99751 0
M  V30 8636 H 1139.4 4.13501 5.06559 0
M  V30 8637 H 1140.89 5.03285 6.70911 0
M  V30 8638 H 1139.19 5.20877 8.75697 0
M  V30 8639 H 1139 7.11046 7.35349 0
M  V30 8640 H 1137.37 6.35815 7.26986 0
M  V30 8641 H 1140.01 1.61644 6.13565 0
M  V30 8642 P 1141.87 3.65191 7.99657 0
M  V30 8643 O 1143.29 3.84292 8.48206 0
M  V30 8644 O 1141.51 4.17805 6.64342 0
M  V30 8645 O 1141.55 2.07613 7.95143 0
M  V30 8646 C 1141.39 1.44344 9.27435 0
M  V30 8647 C 1141.93 0.0220036 9.17197 0
M  V30 8648 O 1140.87 -0.626794 8.61824 0
M  V30 8649 C 1143.15 -0.24586 8.30336 0
M  V30 8650 O 1143.88 -1.39011 8.63583 0
M  V30 8651 C 1142.48 -0.273849 6.91158 0
M  V30 8652 O 1143.28 -1.05728 6.029 0
M  V30 8653 C 1141.14 -0.897649 7.22545 0
M  V30 8654 N 1140.1 -0.292839 6.41732 0
M  V30 8655 C 1140.27 0.950603 5.91308 0
M  V30 8656 N 1139.24 1.37732 5.21105 0
M  V30 8657 C 1138.35 0.318109 5.26039 0
M  V30 8658 C 1137.09 0.146766 4.6727 0
M  V30 8659 N 1136.52 -1.06525 4.95887 0
M  V30 8660 C 1137.12 -2.0378 5.71347 0
M  V30 8661 N 1138.3 -1.92445 6.27451 0
M  V30 8662 C 1138.88 -0.715382 6.00353 0
M  V30 8663 H 1142.35 0.733318 6.49674 0
M  V30 8664 H 1143.84 0.60668 8.36503 0
M  V30 8665 H 1142.14 -0.362662 10.1825 0
M  V30 8666 H 1141.95 2.00611 10.0304 0
M  V30 8667 H 1140.32 1.41843 9.55327 0
M  V30 8668 H 1141.17 1.54076 6.07465 0
M  V30 8669 H 1142.96 -1.95704 6.0346 0
M  V30 8670 P 1144.82 -1.25109 8.70152 0
M  V30 8671 O 1146.24 -1.35274 9.21221 0
M  V30 8672 O 1144.46 -0.0769065 7.84762 0
M  V30 8673 O 1144.5 -2.55232 7.81161 0
M  V30 8674 C 1144.34 -3.79939 8.58154 0
M  V30 8675 C 1144.88 -4.94023 7.72785 0
M  V30 8676 O 1143.82 -5.18726 6.91205 0
M  V30 8677 C 1146.1 -4.69597 6.85231 0
M  V30 8678 O 1146.83 -5.83832 6.51337 0
M  V30 8679 C 1145.43 -3.96706 5.66633 0
M  V30 8680 O 1146.23 -4.15414 4.49689 0
M  V30 8681 C 1144.09 -4.66153 5.59313 0
M  V30 8682 H 1144.12 -5.47679 4.85214 0
M  V30 8683 H 1145.31 -2.89008 5.86566 0
M  V30 8684 H 1146.79 -4.0121 7.36511 0
M  V30 8685 H 1145.1 -5.80182 8.37584 0
M  V30 8686 H 1144.91 -3.73517 9.52265 0
M  V30 8687 H 1143.28 -3.97163 8.80359 0
M  V30 8688 H 1145.91 -4.90969 4.01921 0
M  V30 8689 P 1147.77 -5.75688 6.64379 0
M  V30 8690 O 1149.19 -6.11849 7.01846 0
M  V30 8691 O 1147.41 -4.30744 6.56026 0
M  V30 8692 O 1147.45 -6.37042 5.19165 0
M  V30 8693 C 1147.29 -7.83578 5.16515 0
M  V30 8694 C 1147.83 -8.33398 3.83019 0
M  V30 8695 O 1146.77 -8.10074 3.01034 0
M  V30 8696 C 1149.05 -7.65514 3.2257 0
M  V30 8697 O 1149.78 -8.4329 2.32297 0
M  V30 8698 C 1148.38 -6.40075 2.62207 0
M  V30 8699 O 1149.18 -5.92589 1.53712 0
M  V30 8700 C 1147.04 -6.9454 2.18503 0
M  V30 8701 H 1147.07 -7.23063 1.12091 0
M  V30 8702 H 1148.26 -5.6025 3.37201 0
M  V30 8703 H 1149.74 -7.35707 4.02681 0
M  V30 8704 H 1148.05 -9.40912 3.9095 0
M  V30 8705 H 1147.86 -8.29056 5.99158 0
M  V30 8706 H 1146.23 -8.10073 5.25882 0
M  V30 8707 H 1148.86 -6.30324 0.726794 0
M  V30 8708 P 1150.72 -8.4349 2.47671 0
M  V30 8709 O 1152.14 -8.94167 2.5964 0
M  V30 8710 O 1150.36 -7.1704 3.19006 0
M  V30 8711 O 1150.4 -8.16596 0.923387 0
M  V30 8712 C 1150.24 -9.38437 0.108857 0
M  V30 8713 C 1150.78 -9.08175 -1.28353 0
M  V30 8714 O 1149.72 -8.44229 -1.84713 0
M  V30 8715 C 1152 -8.18386 -1.42505 0
M  V30 8716 O 1152.74 -8.3501 -2.60497 0
M  V30 8717 C 1151.33 -6.80225 -1.25468 0
M  V30 8718 O 1152.13 -5.81621 -1.91066 0
M  V30 8719 C 1149.99 -7.02416 -1.9168 0
M  V30 8720 H 1150.02 -6.6888 -2.96621 0
M  V30 8721 H 1151.21 -6.53617 -0.192223 0
M  V30 8722 H 1152.69 -8.36622 -0.589963 0
M  V30 8723 H 1151 -10.0291 -1.79807 0
M  V30 8724 H 1150.81 -10.2138 0.558219 0
M  V30 8725 H 1149.18 -9.6579 0.0444202 0
M  V30 8726 H 1151.82 -5.69556 -2.79637 0
M  V30 8727 P 1153.67 -8.4349 -2.47671 0
M  V30 8728 O 1155.09 -8.92593 -2.65 0
M  V30 8729 O 1153.31 -7.7568 -1.19296 0
M  V30 8730 O 1153.35 -7.36886 -3.63805 0
M  V30 8731 C 1153.19 -7.95349 -4.982 0
M  V30 8732 C 1153.73 -6.94612 -5.98974 0
M  V30 8733 O 1152.67 -6.10347 -6.11815 0
M  V30 8734 C 1154.95 -6.11426 -5.62335 0
M  V30 8735 O 1155.69 -5.6162 -6.70584 0
M  V30 8736 C 1154.28 -5.04409 -4.73308 0
M  V30 8737 O 1155.08 -3.85992 -4.75183 0
M  V30 8738 C 1152.94 -4.8728 -5.41006 0
M  V30 8739 H 1152.97 -4.02333 -6.11157 0
M  V30 8740 H 1154.16 -5.39466 -3.69543 0
M  V30 8741 H 1155.64 -6.71916 -5.01943 0
M  V30 8742 H 1153.95 -7.4649 -6.93477 0
M  V30 8743 H 1153.76 -8.89416 -5.05237 0
M  V30 8744 H 1152.13 -8.14876 -5.18409 0
M  V30 8745 H 1154.77 -3.27957 -5.4317 0
M  V30 8746 P 1156.62 -5.75688 -6.64379 0
M  V30 8747 O 1158.05 -6.07627 -7.05504 0
M  V30 8748 O 1156.26 -5.88047 -5.19722 0
M  V30 8749 O 1156.3 -4.2322 -7.04443 0
M  V30 8750 C 1156.14 -3.99743 -8.4911 0
M  V30 8751 C 1156.68 -2.60516 -8.79425 0
M  V30 8752 O 1155.62 -1.82684 -8.4467 0
M  V30 8753 C 1157.9 -2.10343 -8.03628 0
M  V30 8754 O 1158.64 -1.09919 -8.67766 0
M  V30 8755 C 1157.23 -1.68446 -6.70876 0
M  V30 8756 O 1158.03 -0.678137 -6.08433 0
M  V30 8757 C 1155.89 -1.17436 -7.18567 0
M  V30 8758 H 1155.92 -0.0804732 -7.31656 0
M  V30 8759 H 1157.11 -2.54037 -6.02537 0
M  V30 8760 H 1158.59 -2.93881 -7.85526 0
M  V30 8761 H 1156.9 -2.53065 -9.86973 0
M  V30 8762 H 1156.71 -4.75072 -9.05887 0
M  V30 8763 H 1155.08 -4.05244 -8.76668 0
M  V30 8764 H 1157.72 0.177647 -6.34251 0
M  V30 8765 P 1159.57 -1.25109 -8.70152 0
M  V30 8766 O 1161 -1.29744 -9.22016 0
M  V30 8767 O 1159.21 -2.13714 -7.55141 0
M  V30 8768 O 1159.25 0.248149 -8.21425 0
M  V30 8769 C 1159.09 1.22779 -9.30434 0
M  V30 8770 C 1159.63 2.56293 -8.80664 0
M  V30 8771 O 1158.58 3.02979 -8.09349 0
M  V30 8772 C 1160.85 2.57523 -7.89775 0
M  V30 8773 O 1161.59 3.7668 -7.89438 0
M  V30 8774 C 1160.18 2.20997 -6.55446 0
M  V30 8775 O 1160.98 2.71895 -5.48509 0
M  V30 8776 C 1158.84 2.89693 -6.67988 0
M  V30 8777 H 1158.88 3.88793 -6.19859 0
M  V30 8778 H 1160.06 1.12046 -6.44229 0
M  V30 8779 H 1161.54 1.7746 -8.19711 0
M  V30 8780 H 1159.85 3.20706 -9.67112 0
M  V30 8781 H 1159.66 0.901032 -10.1892 0
M  V30 8782 H 1158.03 1.33049 -9.56592 0
M  V30 8783 H 1160.67 3.57847 -5.23962 0
M  V30 8784 P 1162.52 3.65191 -7.99657 0
M  V30 8785 O 1163.95 3.89332 -8.45794 0
M  V30 8786 O 1162.16 2.28472 -7.50807 0
M  V30 8787 O 1162.2 4.64972 -6.77611 0
M  V30 8788 C 1162.04 6.06319 -7.16352 0
M  V30 8789 C 1162.58 6.91731 -6.02299 0
M  V30 8790 O 1161.53 6.92449 -5.17064 0
M  V30 8791 C 1163.8 6.43627 -5.25174 0
M  V30 8792 O 1164.54 7.43686 -4.60469 0
M  V30 8793 C 1163.13 5.40275 -4.31916 0
M  V30 8794 O 1163.93 5.25279 -3.14438 0
M  V30 8795 C 1161.79 6.04847 -4.05327 0
M  V30 8796 H 1161.83 6.62195 -3.11261 0
M  V30 8797 H 1163.01 4.42556 -4.81383 0
M  V30 8798 H 1164.49 5.92458 -5.93643 0
M  V30 8799 H 1162.8 7.92655 -6.402 0
M  V30 8800 H 1162.61 6.26671 -8.0846 0
M  V30 8801 H 1160.98 6.29101 -7.32804 0
M  V30 8802 H 1163.62 5.84315 -2.47318 0
M  V30 8803 P 1165.48 7.39546 -4.75277 0
M  V30 8804 O 1166.9 7.84882 -5.01092 0
M  V30 8805 O 1165.12 5.9812 -5.08098 0
M  V30 8806 O 1165.15 7.57503 -3.1866 0
M  V30 8807 C 1164.99 8.97452 -2.74862 0
M  V30 8808 C 1165.53 9.07548 -1.32709 0
M  V30 8809 O 1164.48 8.61972 -0.606089 0
M  V30 8810 C 1166.75 8.25383 -0.938334 0
M  V30 8811 O 1167.49 8.74577 0.146954 0
M  V30 8812 C 1166.08 6.8802 -0.712559 0
M  V30 8813 O 1166.88 6.1181 0.188505 0
M  V30 8814 C 1164.74 7.27966 -0.139777 0
M  V30 8815 N 1163.7 6.39368 -0.623421 0
M  V30 8816 C 1163.87 5.71761 -1.78245 0
M  V30 8817 N 1162.84 4.962 -2.10491 0
M  V30 8818 C 1161.96 5.16158 -1.0635 0
M  V30 8819 C 1160.69 4.60425 -0.810266 0
M  V30 8820 N 1160.13 5.06 0.348685 0
M  V30 8821 C 1160.73 5.94532 1.20395 0
M  V30 8822 N 1161.91 6.48452 1.01191 0
M  V30 8823 C 1162.48 6.04423 -0.146291 0
M  V30 8824 H 1165.96 6.32625 -1.65044 0
M  V30 8825 H 1167.44 8.19355 -1.79097 0
M  V30 8826 H 1165.75 10.1305 -1.09016 0
M  V30 8827 H 1165.56 9.64276 -3.41316 0
M  V30 8828 H 1163.93 9.25417 -2.76357 0
M  V30 8829 H 1164.77 5.79354 -2.38959 0
M  V30 8830 H 1166.57 6.25169 1.0783 0
M  V30 8831 P 1168.43 8.791 9.41699e-12 0
M  V30 8832 O 1169.85 9.31096 0.027933 0
M  V30 8833 O 1168.07 7.77869 -1.04071 0
M  V30 8834 O 1168.1 8.09533 1.41463 0
M  V30 8835 C 1167.94 9.0349 2.53943 0
M  V30 8836 C 1168.48 8.35226 3.79016 0
M  V30 8837 O 1167.43 7.57992 4.15078 0
M  V30 8838 C 1169.7 7.45087 3.67298 0
M  V30 8839 O 1170.44 7.27796 4.85194 0
M  V30 8840 C 1169.03 6.17323 3.12027 0
M  V30 8841 O 1169.83 5.04231 3.47188 0
M  V30 8842 C 1167.69 6.19961 3.81809 0
M  V30 8843 H 1167.73 5.58218 4.73051 0
M  V30 8844 H 1168.91 6.21726 2.02589 0
M  V30 8845 H 1170.39 7.86112 2.9231 0
M  V30 8846 H 1168.7 9.11627 4.55076 0
M  V30 8847 H 1168.51 9.9573 2.34194 0
M  V30 8848 H 1166.88 9.2792 2.67832 0
M  V30 8849 H 1169.52 4.67702 4.28772 0
M  V30 8850 P 1171.38 7.39546 4.75277 0
M  V30 8851 O 1172.8 7.81777 5.05738 0
M  V30 8852 O 1171.02 7.1065 3.32998 0
M  V30 8853 O 1171.05 6.04542 5.56673 0
M  V30 8854 C 1170.89 6.22772 7.02095 0
M  V30 8855 C 1171.43 4.97725 7.70406 0
M  V30 8856 O 1170.38 4.13256 7.58987 0
M  V30 8857 C 1172.65 4.28231 7.11815 0
M  V30 8858 O 1173.39 3.49945 8.01648 0
M  V30 8859 C 1171.98 3.5063 5.96244 0
M  V30 8860 O 1172.78 2.36482 5.64681 0
M  V30 8861 C 1170.65 3.15122 6.56374 0
M  V30 8862 H 1170.68 2.13853 6.99751 0
M  V30 8863 H 1171.86 4.13501 5.06559 0
M  V30 8864 H 1173.34 5.03285 6.70911 0
M  V30 8865 H 1171.65 5.20877 8.75697 0
M  V30 8866 H 1171.46 7.11046 7.35349 0
M  V30 8867 H 1169.83 6.35815 7.26986 0
M  V30 8868 H 1172.47 1.61644 6.13565 0
M  V30 8869 P 1174.33 3.65191 7.99657 0
M  V30 8870 O 1175.75 3.84292 8.48206 0
M  V30 8871 O 1173.97 4.17805 6.64342 0
M  V30 8872 O 1174 2.07613 7.95143 0
M  V30 8873 C 1173.84 1.44344 9.27435 0
M  V30 8874 C 1174.38 0.0220036 9.17197 0
M  V30 8875 O 1173.33 -0.626794 8.61824 0
M  V30 8876 C 1175.6 -0.24586 8.30336 0
M  V30 8877 O 1176.34 -1.39011 8.63583 0
M  V30 8878 C 1174.93 -0.273849 6.91158 0
M  V30 8879 O 1175.73 -1.05728 6.029 0
M  V30 8880 C 1173.6 -0.897649 7.22545 0
M  V30 8881 N 1172.55 -0.292839 6.41732 0
M  V30 8882 C 1172.72 0.950603 5.91308 0
M  V30 8883 N 1171.69 1.37732 5.21105 0
M  V30 8884 C 1170.81 0.318109 5.26039 0
M  V30 8885 C 1169.54 0.146766 4.6727 0
M  V30 8886 N 1168.94 1.08519 3.89983 0
M  V30 8887 N 1168.98 -1.06525 4.95887 0
M  V30 8888 C 1169.58 -2.0378 5.71347 0
M  V30 8889 N 1170.76 -1.92445 6.27451 0
M  V30 8890 C 1171.33 -0.715382 6.00353 0
M  V30 8891 H 1173.63 -1.98383 7.04189 0
M  V30 8892 H 1174.81 0.733318 6.49674 0
M  V30 8893 H 1176.29 0.60668 8.36503 0
M  V30 8894 H 1174.6 -0.362662 10.1825 0
M  V30 8895 H 1174.41 2.00611 10.0304 0
M  V30 8896 H 1172.78 1.41843 9.55327 0
M  V30 8897 H 1169.04 -2.97041 5.85344 0
M  V30 8898 H 1173.62 1.54076 6.07465 0
M  V30 8899 H 1168.01 0.901517 3.49562 0
M  V30 8900 H 1169.42 1.97957 3.71669 0
M  V30 8901 H 1175.42 -1.95704 6.0346 0
M  V30 8902 P 1177.28 -1.25109 8.70152 0
M  V30 8903 O 1178.7 -1.35274 9.21221 0
M  V30 8904 O 1176.92 -0.0769065 7.84762 0
M  V30 8905 O 1176.95 -2.55232 7.81161 0
M  V30 8906 C 1176.79 -3.79939 8.58154 0
M  V30 8907 C 1177.33 -4.94023 7.72785 0
M  V30 8908 O 1176.28 -5.18726 6.91205 0
M  V30 8909 C 1178.55 -4.69597 6.85231 0
M  V30 8910 O 1179.29 -5.83832 6.51337 0
M  V30 8911 C 1177.88 -3.96706 5.66633 0
M  V30 8912 O 1178.68 -4.15414 4.49689 0
M  V30 8913 C 1176.55 -4.66153 5.59313 0
M  V30 8914 H 1176.58 -5.47679 4.85214 0
M  V30 8915 H 1177.76 -2.89008 5.86566 0
M  V30 8916 H 1179.25 -4.0121 7.36511 0
M  V30 8917 H 1177.55 -5.80182 8.37584 0
M  V30 8918 H 1177.36 -3.73517 9.52265 0
M  V30 8919 H 1175.73 -3.97163 8.80359 0
M  V30 8920 H 1178.37 -4.90969 4.01921 0
M  V30 8921 P 1180.23 -5.75688 6.64379 0
M  V30 8922 O 1181.65 -6.11849 7.01846 0
M  V30 8923 O 1179.87 -4.30744 6.56026 0
M  V30 8924 O 1179.9 -6.37042 5.19165 0
M  V30 8925 C 1179.74 -7.83578 5.16515 0
M  V30 8926 C 1180.28 -8.33398 3.83019 0
M  V30 8927 O 1179.23 -8.10074 3.01034 0
M  V30 8928 C 1181.5 -7.65514 3.2257 0
M  V30 8929 O 1182.24 -8.4329 2.32297 0
M  V30 8930 C 1180.83 -6.40075 2.62207 0
M  V30 8931 O 1181.63 -5.92589 1.53712 0
M  V30 8932 C 1179.5 -6.9454 2.18503 0
M  V30 8933 H 1179.53 -7.23063 1.12091 0
M  V30 8934 H 1180.71 -5.6025 3.37201 0
M  V30 8935 H 1182.2 -7.35707 4.02681 0
M  V30 8936 H 1180.5 -9.40912 3.9095 0
M  V30 8937 H 1180.31 -8.29056 5.99158 0
M  V30 8938 H 1178.68 -8.10073 5.25882 0
M  V30 8939 H 1181.32 -6.30324 0.726794 0
M  V30 8940 P 1183.18 -8.4349 2.47671 0
M  V30 8941 O 1184.6 -8.94167 2.5964 0
M  V30 8942 O 1182.82 -7.1704 3.19006 0
M  V30 8943 O 1182.86 -8.16596 0.923387 0
M  V30 8944 C 1182.7 -9.38437 0.108857 0
M  V30 8945 C 1183.24 -9.08175 -1.28353 0
M  V30 8946 O 1182.18 -8.44229 -1.84713 0
M  V30 8947 C 1184.45 -8.18386 -1.42505 0
M  V30 8948 O 1185.19 -8.3501 -2.60497 0
M  V30 8949 C 1183.78 -6.80225 -1.25468 0
M  V30 8950 O 1184.58 -5.81621 -1.91066 0
M  V30 8951 C 1182.45 -7.02416 -1.9168 0
M  V30 8952 H 1182.48 -6.6888 -2.96621 0
M  V30 8953 H 1183.66 -6.53617 -0.192223 0
M  V30 8954 H 1185.15 -8.36622 -0.589963 0
M  V30 8955 H 1183.45 -10.0291 -1.79807 0
M  V30 8956 H 1183.26 -10.2138 0.558219 0
M  V30 8957 H 1181.63 -9.6579 0.0444202 0
M  V30 8958 H 1184.27 -5.69556 -2.79637 0
M  V30 8959 P 1186.13 -8.4349 -2.47671 0
M  V30 8960 O 1187.55 -8.92593 -2.65 0
M  V30 8961 O 1185.77 -7.7568 -1.19296 0
M  V30 8962 O 1185.81 -7.36886 -3.63805 0
M  V30 8963 C 1185.65 -7.95349 -4.982 0
M  V30 8964 C 1186.19 -6.94612 -5.98974 0
M  V30 8965 O 1185.13 -6.10347 -6.11815 0
M  V30 8966 C 1187.4 -6.11426 -5.62335 0
M  V30 8967 O 1188.14 -5.6162 -6.70584 0
M  V30 8968 C 1186.74 -5.04409 -4.73308 0
M  V30 8969 O 1187.53 -3.85992 -4.75183 0
M  V30 8970 C 1185.4 -4.8728 -5.41006 0
M  V30 8971 H 1185.43 -4.02333 -6.11157 0
M  V30 8972 H 1186.61 -5.39466 -3.69543 0
M  V30 8973 H 1188.1 -6.71916 -5.01943 0
M  V30 8974 H 1186.4 -7.4649 -6.93477 0
M  V30 8975 H 1186.21 -8.89416 -5.05237 0
M  V30 8976 H 1184.58 -8.14876 -5.18409 0
M  V30 8977 H 1187.22 -3.27957 -5.4317 0
M  V30 8978 P 1189.08 -5.75688 -6.64379 0
M  V30 8979 O 1190.5 -6.07627 -7.05504 0
M  V30 8980 O 1188.72 -5.88047 -5.19722 0
M  V30 8981 O 1188.76 -4.2322 -7.04443 0
M  V30 8982 C 1188.6 -3.99743 -8.4911 0
M  V30 8983 C 1189.14 -2.60516 -8.79425 0
M  V30 8984 O 1188.08 -1.82684 -8.4467 0
M  V30 8985 C 1190.35 -2.10343 -8.03628 0
M  V30 8986 O 1191.09 -1.09919 -8.67766 0
M  V30 8987 C 1189.69 -1.68446 -6.70876 0
M  V30 8988 O 1190.48 -0.678137 -6.08433 0
M  V30 8989 C 1188.35 -1.17436 -7.18567 0
M  V30 8990 H 1188.38 -0.0804732 -7.31656 0
M  V30 8991 H 1189.56 -2.54037 -6.02537 0
M  V30 8992 H 1191.05 -2.93881 -7.85526 0
M  V30 8993 H 1189.35 -2.53065 -9.86973 0
M  V30 8994 H 1189.16 -4.75072 -9.05887 0
M  V30 8995 H 1187.53 -4.05244 -8.76668 0
M  V30 8996 H 1190.17 0.177647 -6.34251 0
M  V30 8997 P 1192.03 -1.25109 -8.70152 0
M  V30 8998 O 1193.45 -1.29758 -9.22115 0
M  V30 8999 O 1191.67 -2.13714 -7.55141 0
M  V30 9000 O 1191.71 0.248149 -8.21425 0
M  V30 9001 C 1191.55 1.22792 -9.30533 0
M  V30 9002 C 1192.09 2.56293 -8.80664 0
M  V30 9003 O 1191.03 3.02944 -8.09255 0
M  V30 9004 C 1193.31 2.57523 -7.89775 0
M  V30 9005 O 1194.04 3.7668 -7.89438 0
M  V30 9006 C 1192.64 2.20997 -6.55446 0
M  V30 9007 O 1193.44 2.71302 -5.48691 0
M  V30 9008 C 1191.3 2.89693 -6.67988 0
M  V30 9009 N 1190.26 2.08895 -6.07487 0
M  V30 9010 C 1190.43 0.753809 -5.94137 0
M  V30 9011 N 1189.4 0.146592 -5.38801 0
M  V30 9012 C 1188.51 1.1768 -5.13693 0
M  V30 9013 C 1187.25 1.17563 -4.52477 0
M  V30 9014 N 1186.68 2.41918 -4.45789 0
M  V30 9015 C 1187.28 3.56493 -4.90792 0
M  V30 9016 N 1188.46 3.61423 -5.47817 0
M  V30 9017 C 1189.04 2.37779 -5.5588 0
M  V30 9018 H 1192.51 1.12673 -6.44018 0
M  V30 9019 H 1194 1.7746 -8.19711 0
M  V30 9020 H 1192.3 3.21673 -9.66791 0
M  V30 9021 H 1192.11 0.901032 -10.1892 0
M  V30 9022 H 1190.48 1.33049 -9.56592 0
M  V30 9023 H 1191.33 0.233081 -6.26266 0
M  V30 9024 H 1193.12 3.5779 -5.23879 0
M  V30 9025 P 1194.98 3.65191 -7.99657 0
M  V30 9026 O 1196.4 3.89332 -8.45794 0
M  V30 9027 O 1194.62 2.28472 -7.50807 0
M  V30 9028 O 1194.66 4.64972 -6.77611 0
M  V30 9029 C 1194.5 6.06319 -7.16352 0
M  V30 9030 C 1195.04 6.91731 -6.02299 0
M  V30 9031 O 1193.98 6.92449 -5.17064 0
M  V30 9032 C 1196.26 6.43627 -5.25174 0
M  V30 9033 O 1196.99 7.43686 -4.60469 0
M  V30 9034 C 1195.59 5.40275 -4.31916 0
M  V30 9035 O 1196.39 5.25279 -3.14438 0
M  V30 9036 C 1194.25 6.04847 -4.05327 0
M  V30 9037 H 1194.28 6.62195 -3.11261 0
M  V30 9038 H 1195.46 4.42556 -4.81383 0
M  V30 9039 H 1196.95 5.92458 -5.93643 0
M  V30 9040 H 1195.25 7.92655 -6.402 0
M  V30 9041 H 1195.06 6.26671 -8.0846 0
M  V30 9042 H 1193.43 6.29101 -7.32804 0
M  V30 9043 H 1196.07 5.84315 -2.47318 0
M  V30 9044 P 1197.93 7.39546 -4.75277 0
M  V30 9045 O 1199.35 7.84798 -5.01039 0
M  V30 9046 O 1197.57 5.9812 -5.08098 0
M  V30 9047 O 1197.61 7.57503 -3.1866 0
M  V30 9048 C 1197.45 8.97357 -2.74833 0
M  V30 9049 C 1197.99 9.07548 -1.32709 0
M  V30 9050 O 1196.93 8.62072 -0.606159 0
M  V30 9051 C 1199.21 8.25383 -0.938334 0
M  V30 9052 O 1199.94 8.74577 0.146954 0
M  V30 9053 C 1198.54 6.8802 -0.712559 0
M  V30 9054 O 1199.34 6.1189 0.194655 0
M  V30 9055 C 1197.2 7.27966 -0.139777 0
M  V30 9056 H 1197.23 7.25354 0.961601 0
M  V30 9057 H 1198.42 6.32557 -1.65702 0
M  V30 9058 H 1199.9 8.19355 -1.79097 0
M  V30 9059 H 1198.21 10.1294 -1.10029 0
M  V30 9060 H 1198.02 9.64276 -3.41316 0
M  V30 9061 H 1196.39 9.25417 -2.76357 0
M  V30 9062 H 1199.02 6.25267 1.07847 0
M  V30 9063 P 1200.88 8.791 9.72715e-12 0
M  V30 9064 O 1202.3 9.31096 0.027933 0
M  V30 9065 O 1200.52 7.77869 -1.04071 0
M  V30 9066 O 1200.56 8.09533 1.41463 0
M  V30 9067 C 1200.4 9.0349 2.53943 0
M  V30 9068 C 1200.94 8.35226 3.79016 0
M  V30 9069 O 1199.88 7.57992 4.15078 0
M  V30 9070 C 1202.16 7.45087 3.67298 0
M  V30 9071 O 1202.89 7.27796 4.85194 0
M  V30 9072 C 1201.49 6.17323 3.12027 0
M  V30 9073 O 1202.29 5.04231 3.47188 0
M  V30 9074 C 1200.15 6.19961 3.81809 0
M  V30 9075 H 1200.18 5.58218 4.73051 0
M  V30 9076 H 1201.37 6.21726 2.02589 0
M  V30 9077 H 1202.85 7.86112 2.9231 0
M  V30 9078 H 1201.16 9.11627 4.55076 0
M  V30 9079 H 1200.97 9.9573 2.34194 0
M  V30 9080 H 1199.34 9.2792 2.67832 0
M  V30 9081 H 1201.97 4.67702 4.28772 0
M  V30 9082 P 1203.83 7.39546 4.75277 0
M  V30 9083 O 1205.25 7.81777 5.05738 0
M  V30 9084 O 1203.47 7.1065 3.32998 0
M  V30 9085 O 1203.51 6.04542 5.56673 0
M  V30 9086 C 1203.35 6.22772 7.02095 0
M  V30 9087 C 1203.89 4.97725 7.70406 0
M  V30 9088 O 1202.83 4.13256 7.58987 0
M  V30 9089 C 1205.11 4.28231 7.11815 0
M  V30 9090 O 1205.85 3.49945 8.01648 0
M  V30 9091 C 1204.44 3.5063 5.96244 0
M  V30 9092 O 1205.24 2.36482 5.64681 0
M  V30 9093 C 1203.1 3.15122 6.56374 0
M  V30 9094 H 1203.13 2.13853 6.99751 0
M  V30 9095 H 1204.32 4.13501 5.06559 0
M  V30 9096 H 1205.8 5.03285 6.70911 0
M  V30 9097 H 1204.11 5.20877 8.75697 0
M  V30 9098 H 1203.92 7.11046 7.35349 0
M  V30 9099 H 1202.29 6.35815 7.26986 0
M  V30 9100 H 1204.93 1.61644 6.13565 0
M  V30 9101 P 1206.78 3.65191 7.99657 0
M  V30 9102 O 1208.21 3.8425 8.48115 0
M  V30 9103 O 1206.42 4.17805 6.64342 0
M  V30 9104 O 1206.46 2.07613 7.95143 0
M  V30 9105 C 1206.3 1.44328 9.27336 0
M  V30 9106 C 1206.84 0.0220036 9.17197 0
M  V30 9107 O 1205.78 -0.626867 8.61923 0
M  V30 9108 C 1208.06 -0.24586 8.30336 0
M  V30 9109 O 1208.8 -1.39011 8.63583 0
M  V30 9110 C 1207.39 -0.273849 6.91158 0
M  V30 9111 O 1208.19 -1.06348 6.02892 0
M  V30 9112 C 1206.05 -0.897649 7.22545 0
M  V30 9113 H 1206.08 -1.9841 7.04286 0
M  V30 9114 H 1207.27 0.739928 6.497 0
M  V30 9115 H 1208.75 0.60668 8.36503 0
M  V30 9116 H 1207.06 -0.352479 10.1829 0
M  V30 9117 H 1206.87 2.00611 10.0304 0
M  V30 9118 H 1205.24 1.41843 9.55327 0
M  V30 9119 H 1207.88 -1.95734 6.03555 0
M  V30 9120 P 1209.73 -1.25109 8.70152 0
M  V30 9121 O 1211.16 -1.35274 9.21221 0
M  V30 9122 O 1209.37 -0.0769065 7.84762 0
M  V30 9123 O 1209.41 -2.55232 7.81161 0
M  V30 9124 C 1209.25 -3.79939 8.58154 0
M  V30 9125 C 1209.79 -4.94023 7.72785 0
M  V30 9126 O 1208.73 -5.18726 6.91205 0
M  V30 9127 C 1211.01 -4.69597 6.85231 0
M  V30 9128 O 1211.75 -5.83832 6.51337 0
M  V30 9129 C 1210.34 -3.96706 5.66633 0
M  V30 9130 O 1211.14 -4.15414 4.49689 0
M  V30 9131 C 1209 -4.66153 5.59313 0
M  V30 9132 H 1209.03 -5.47679 4.85214 0
M  V30 9133 H 1210.22 -2.89008 5.86566 0
M  V30 9134 H 1211.7 -4.0121 7.36511 0
M  V30 9135 H 1210.01 -5.80182 8.37584 0
M  V30 9136 H 1209.82 -3.73517 9.52265 0
M  V30 9137 H 1208.19 -3.97163 8.80359 0
M  V30 9138 H 1210.83 -4.90969 4.01921 0
M  V30 9139 P 1212.68 -5.75688 6.64379 0
M  V30 9140 O 1214.11 -6.11849 7.01846 0
M  V30 9141 O 1212.32 -4.30744 6.56026 0
M  V30 9142 O 1212.36 -6.37042 5.19165 0
M  V30 9143 C 1212.2 -7.83578 5.16515 0
M  V30 9144 C 1212.74 -8.33398 3.83019 0
M  V30 9145 O 1211.69 -8.10074 3.01034 0
M  V30 9146 C 1213.96 -7.65514 3.2257 0
M  V30 9147 O 1214.7 -8.4329 2.32297 0
M  V30 9148 C 1213.29 -6.40075 2.62207 0
M  V30 9149 O 1214.09 -5.92589 1.53712 0
M  V30 9150 C 1211.95 -6.9454 2.18503 0
M  V30 9151 H 1211.99 -7.23063 1.12091 0
M  V30 9152 H 1213.17 -5.6025 3.37201 0
M  V30 9153 H 1214.65 -7.35707 4.02681 0
M  V30 9154 H 1212.96 -9.40912 3.9095 0
M  V30 9155 H 1212.77 -8.29056 5.99158 0
M  V30 9156 H 1211.14 -8.10073 5.25882 0
M  V30 9157 H 1213.78 -6.30324 0.726794 0
M  V30 9158 P 1215.63 -8.4349 2.47671 0
M  V30 9159 O 1217.06 -8.94167 2.5964 0
M  V30 9160 O 1215.27 -7.1704 3.19006 0
M  V30 9161 O 1215.31 -8.16596 0.923387 0
M  V30 9162 C 1215.15 -9.38437 0.108857 0
M  V30 9163 C 1215.69 -9.08175 -1.28353 0
M  V30 9164 O 1214.64 -8.44229 -1.84713 0
M  V30 9165 C 1216.91 -8.18386 -1.42505 0
M  V30 9166 O 1217.65 -8.3501 -2.60497 0
M  V30 9167 C 1216.24 -6.80225 -1.25468 0
M  V30 9168 O 1217.04 -5.81621 -1.91066 0
M  V30 9169 C 1214.9 -7.02416 -1.9168 0
M  V30 9170 H 1214.94 -6.6888 -2.96621 0
M  V30 9171 H 1216.12 -6.53617 -0.192223 0
M  V30 9172 H 1217.6 -8.36622 -0.589963 0
M  V30 9173 H 1215.91 -10.0291 -1.79807 0
M  V30 9174 H 1215.72 -10.2138 0.558219 0
M  V30 9175 H 1214.09 -9.6579 0.0444202 0
M  V30 9176 H 1216.73 -5.69556 -2.79637 0
M  V30 9177 P 1218.59 -8.4349 -2.47671 0
M  V30 9178 O 1220.01 -8.92689 -2.65029 0
M  V30 9179 O 1218.23 -7.7568 -1.19296 0
M  V30 9180 O 1218.26 -7.36886 -3.63805 0
M  V30 9181 C 1218.1 -7.95433 -4.98253 0
M  V30 9182 C 1218.64 -6.94612 -5.98974 0
M  V30 9183 O 1217.59 -6.10277 -6.11744 0
M  V30 9184 C 1219.86 -6.11426 -5.62335 0
M  V30 9185 O 1220.6 -5.6162 -6.70584 0
M  V30 9186 C 1219.19 -5.04409 -4.73308 0
M  V30 9187 O 1219.99 -3.86404 -4.74719 0
M  V30 9188 C 1217.85 -4.8728 -5.41006 0
M  V30 9189 N 1216.81 -4.65812 -4.42377 0
M  V30 9190 C 1216.98 -5.09132 -3.15382 0
M  V30 9191 N 1215.95 -4.84021 -2.3716 0
M  V30 9192 C 1215.07 -4.18386 -3.20441 0
M  V30 9193 C 1213.8 -3.6275 -2.94905 0
M  V30 9194 N 1213.2 -3.65794 -1.73372 0
M  V30 9195 N 1213.24 -3.05008 -4.05243 0
M  V30 9196 C 1213.84 -2.98348 -5.28159 0
M  V30 9197 N 1215.02 -3.48171 -5.56333 0
M  V30 9198 C 1215.59 -4.06869 -4.47212 0
M  V30 9199 H 1217.89 -4.02278 -6.11074 0
M  V30 9200 H 1219.07 -5.39013 -3.70026 0
M  V30 9201 H 1220.55 -6.71916 -5.01943 0
M  V30 9202 H 1218.86 -7.45796 -6.94223 0
M  V30 9203 H 1218.67 -8.89416 -5.05237 0
M  V30 9204 H 1217.04 -8.14876 -5.18409 0
M  V30 9205 H 1213.3 -2.47853 -6.07807 0
M  V30 9206 H 1217.88 -5.59989 -2.81362 0
M  V30 9207 H 1212.27 -3.23218 -1.60782 0
M  V30 9208 H 1213.68 -4.10523 -0.937856 0
M  V30 9209 H 1219.68 -3.27906 -5.43085 0
M  V30 9210 P 1221.54 -5.75688 -6.64379 0
M  V30 9211 O 1222.96 -6.07627 -7.05504 0
M  V30 9212 O 1221.18 -5.88047 -5.19722 0
M  V30 9213 O 1221.21 -4.2322 -7.04443 0
M  V30 9214 C 1221.05 -3.99743 -8.4911 0
M  V30 9215 C 1221.59 -2.60516 -8.79425 0
M  V30 9216 O 1220.54 -1.82684 -8.4467 0
M  V30 9217 C 1222.81 -2.10343 -8.03628 0
M  V30 9218 O 1223.55 -1.09919 -8.67766 0
M  V30 9219 C 1222.14 -1.68446 -6.70876 0
M  V30 9220 O 1222.94 -0.678137 -6.08433 0
M  V30 9221 C 1220.8 -1.17436 -7.18567 0
M  V30 9222 H 1220.84 -0.0804732 -7.31656 0
M  V30 9223 H 1222.02 -2.54037 -6.02537 0
M  V30 9224 H 1223.5 -2.93881 -7.85526 0
M  V30 9225 H 1221.81 -2.53065 -9.86973 0
M  V30 9226 H 1221.62 -4.75072 -9.05887 0
M  V30 9227 H 1219.99 -4.05244 -8.76668 0
M  V30 9228 H 1222.63 0.177647 -6.34251 0
M  V30 9229 P 1224.49 -1.25109 -8.70152 0
M  V30 9230 O 1225.91 -1.29758 -9.22115 0
M  V30 9231 O 1224.13 -2.13714 -7.55141 0
M  V30 9232 O 1224.16 0.248149 -8.21425 0
M  V30 9233 C 1224 1.22792 -9.30533 0
M  V30 9234 C 1224.54 2.56293 -8.80664 0
M  V30 9235 O 1223.49 3.02944 -8.09255 0
M  V30 9236 C 1225.76 2.57523 -7.89775 0
M  V30 9237 O 1226.5 3.7668 -7.89438 0
M  V30 9238 C 1225.09 2.20997 -6.55446 0
M  V30 9239 O 1225.89 2.71302 -5.48691 0
M  V30 9240 C 1223.76 2.89693 -6.67988 0
M  V30 9241 N 1222.71 2.08895 -6.07487 0
M  V30 9242 C 1222.88 0.753809 -5.94137 0
M  V30 9243 N 1221.85 0.146592 -5.38801 0
M  V30 9244 C 1220.97 1.1768 -5.13693 0
M  V30 9245 C 1219.7 1.17563 -4.52477 0
M  V30 9246 N 1219.1 0.057481 -4.04759 0
M  V30 9247 N 1219.14 2.41918 -4.45789 0
M  V30 9248 C 1219.74 3.56493 -4.90792 0
M  V30 9249 N 1220.92 3.61423 -5.47817 0
M  V30 9250 C 1221.49 2.37779 -5.5588 0
M  V30 9251 H 1223.79 3.8874 -6.19774 0
M  V30 9252 H 1224.97 1.12673 -6.44018 0
M  V30 9253 H 1226.45 1.7746 -8.19711 0
M  V30 9254 H 1224.76 3.21673 -9.66791 0
M  V30 9255 H 1224.57 0.901032 -10.1892 0
M  V30 9256 H 1222.94 1.33049 -9.56592 0
M  V30 9257 H 1219.2 4.49919 -4.77947 0
M  V30 9258 H 1223.78 0.233081 -6.26266 0
M  V30 9259 H 1218.17 0.119831 -3.60801 0
M  V30 9260 H 1219.58 -0.852272 -4.12385 0
M  V30 9261 H 1225.58 3.5779 -5.23879 0
M  V30 9262 P 1227.44 3.65191 -7.99657 0
M  V30 9263 O 1228.86 3.89332 -8.45794 0
M  V30 9264 O 1227.08 2.28472 -7.50807 0
M  V30 9265 O 1227.11 4.64972 -6.77611 0
M  V30 9266 C 1226.95 6.06319 -7.16352 0
M  V30 9267 C 1227.49 6.91731 -6.02299 0
M  V30 9268 O 1226.44 6.92449 -5.17064 0
M  V30 9269 C 1228.71 6.43627 -5.25174 0
M  V30 9270 O 1229.45 7.43686 -4.60469 0
M  V30 9271 C 1228.04 5.40275 -4.31916 0
M  V30 9272 O 1228.84 5.25279 -3.14438 0
M  V30 9273 C 1226.71 6.04847 -4.05327 0
M  V30 9274 H 1226.74 6.62195 -3.11261 0
M  V30 9275 H 1227.92 4.42556 -4.81383 0
M  V30 9276 H 1229.41 5.92458 -5.93643 0
M  V30 9277 H 1227.71 7.92655 -6.402 0
M  V30 9278 H 1227.52 6.26671 -8.0846 0
M  V30 9279 H 1225.89 6.29101 -7.32804 0
M  V30 9280 H 1228.53 5.84315 -2.47318 0
M  V30 9281 P 1230.39 7.39546 -4.75277 0
M  V30 9282 O 1231.81 7.84798 -5.01039 0
M  V30 9283 O 1230.03 5.9812 -5.08098 0
M  V30 9284 O 1230.06 7.57503 -3.1866 0
M  V30 9285 C 1229.9 8.97357 -2.74833 0
M  V30 9286 C 1230.44 9.07548 -1.32709 0
M  V30 9287 O 1229.39 8.62072 -0.606159 0
M  V30 9288 C 1231.66 8.25383 -0.938334 0
M  V30 9289 O 1232.4 8.74577 0.146954 0
M  V30 9290 C 1230.99 6.8802 -0.712559 0
M  V30 9291 O 1231.79 6.1189 0.194655 0
M  V30 9292 C 1229.66 7.27966 -0.139777 0
M  V30 9293 H 1229.69 7.25354 0.961601 0
M  V30 9294 H 1230.87 6.32557 -1.65702 0
M  V30 9295 H 1232.36 8.19355 -1.79097 0
M  V30 9296 H 1230.66 10.1294 -1.10029 0
M  V30 9297 H 1230.47 9.64276 -3.41316 0
M  V30 9298 H 1228.84 9.25417 -2.76357 0
M  V30 9299 H 1231.48 6.25267 1.07847 0
M  V30 9300 P 1233.34 8.791 1.00373e-11 0
M  V30 9301 O 1234.76 9.31096 0.027933 0
M  V30 9302 O 1232.98 7.77869 -1.04071 0
M  V30 9303 O 1233.02 8.09533 1.41463 0
M  V30 9304 C 1232.86 9.0349 2.53943 0
M  V30 9305 C 1233.4 8.35226 3.79016 0
M  V30 9306 O 1232.34 7.57992 4.15078 0
M  V30 9307 C 1234.61 7.45087 3.67298 0
M  V30 9308 O 1235.35 7.27796 4.85194 0
M  V30 9309 C 1233.94 6.17323 3.12027 0
M  V30 9310 O 1234.74 5.04231 3.47188 0
M  V30 9311 C 1232.61 6.19961 3.81809 0
M  V30 9312 H 1232.64 5.58218 4.73051 0
M  V30 9313 H 1233.82 6.21726 2.02589 0
M  V30 9314 H 1235.31 7.86112 2.9231 0
M  V30 9315 H 1233.61 9.11627 4.55076 0
M  V30 9316 H 1233.42 9.9573 2.34194 0
M  V30 9317 H 1231.79 9.2792 2.67832 0
M  V30 9318 H 1234.43 4.67702 4.28772 0
M  V30 9319 P 1236.29 7.39546 4.75277 0
M  V30 9320 O 1237.71 7.81777 5.05738 0
M  V30 9321 O 1235.93 7.1065 3.32998 0
M  V30 9322 O 1235.97 6.04542 5.56673 0
M  V30 9323 C 1235.81 6.22772 7.02095 0
M  V30 9324 C 1236.35 4.97725 7.70406 0
M  V30 9325 O 1235.29 4.13256 7.58987 0
M  V30 9326 C 1237.56 4.28231 7.11815 0
M  V30 9327 O 1238.3 3.49945 8.01648 0
M  V30 9328 C 1236.89 3.5063 5.96244 0
M  V30 9329 O 1237.69 2.36482 5.64681 0
M  V30 9330 C 1235.56 3.15122 6.56374 0
M  V30 9331 H 1235.59 2.13853 6.99751 0
M  V30 9332 H 1236.77 4.13501 5.06559 0
M  V30 9333 H 1238.26 5.03285 6.70911 0
M  V30 9334 H 1236.56 5.20877 8.75697 0
M  V30 9335 H 1236.37 7.11046 7.35349 0
M  V30 9336 H 1234.74 6.35815 7.26986 0
M  V30 9337 H 1237.38 1.61644 6.13565 0
M  V30 9338 P 1239.24 3.65191 7.99657 0
M  V30 9339 O 1240.66 3.8425 8.48115 0
M  V30 9340 O 1238.88 4.17805 6.64342 0
M  V30 9341 O 1238.92 2.07613 7.95143 0
M  V30 9342 C 1238.76 1.44328 9.27336 0
M  V30 9343 C 1239.3 0.0220036 9.17197 0
M  V30 9344 O 1238.24 -0.626867 8.61923 0
M  V30 9345 C 1240.51 -0.24586 8.30336 0
M  V30 9346 O 1241.25 -1.39011 8.63583 0
M  V30 9347 C 1239.85 -0.273849 6.91158 0
M  V30 9348 O 1240.64 -1.06348 6.02892 0
M  V30 9349 C 1238.51 -0.897649 7.22545 0
M  V30 9350 H 1238.54 -1.9841 7.04286 0
M  V30 9351 H 1239.72 0.739928 6.497 0
M  V30 9352 H 1241.21 0.60668 8.36503 0
M  V30 9353 H 1239.51 -0.352479 10.1829 0
M  V30 9354 H 1239.32 2.00611 10.0304 0
M  V30 9355 H 1237.69 1.41843 9.55327 0
M  V30 9356 H 1240.33 -1.95734 6.03555 0
M  V30 9357 P 1242.19 -1.25109 8.70152 0
M  V30 9358 O 1243.61 -1.35274 9.21221 0
M  V30 9359 O 1241.83 -0.0769065 7.84762 0
M  V30 9360 O 1241.87 -2.55232 7.81161 0
M  V30 9361 C 1241.71 -3.79939 8.58154 0
M  V30 9362 C 1242.25 -4.94023 7.72785 0
M  V30 9363 O 1241.19 -5.18726 6.91205 0
M  V30 9364 C 1243.46 -4.69597 6.85231 0
M  V30 9365 O 1244.2 -5.83832 6.51337 0
M  V30 9366 C 1242.8 -3.96706 5.66633 0
M  V30 9367 O 1243.59 -4.15414 4.49689 0
M  V30 9368 C 1241.46 -4.66153 5.59313 0
M  V30 9369 H 1241.49 -5.47679 4.85214 0
M  V30 9370 H 1242.67 -2.89008 5.86566 0
M  V30 9371 H 1244.16 -4.0121 7.36511 0
M  V30 9372 H 1242.46 -5.80182 8.37584 0
M  V30 9373 H 1242.27 -3.73517 9.52265 0
M  V30 9374 H 1240.64 -3.97163 8.80359 0
M  V30 9375 H 1243.28 -4.90969 4.01921 0
M  V30 9376 P 1245.14 -5.75688 6.64379 0
M  V30 9377 O 1246.56 -6.11849 7.01846 0
M  V30 9378 O 1244.78 -4.30744 6.56026 0
M  V30 9379 O 1244.82 -6.37042 5.19165 0
M  V30 9380 C 1244.66 -7.83578 5.16515 0
M  V30 9381 C 1245.2 -8.33398 3.83019 0
M  V30 9382 O 1244.14 -8.10074 3.01034 0
M  V30 9383 C 1246.42 -7.65514 3.2257 0
M  V30 9384 O 1247.15 -8.4329 2.32297 0
M  V30 9385 C 1245.75 -6.40075 2.62207 0
M  V30 9386 O 1246.55 -5.92589 1.53712 0
M  V30 9387 C 1244.41 -6.9454 2.18503 0
M  V30 9388 H 1244.44 -7.23063 1.12091 0
M  V30 9389 H 1245.62 -5.6025 3.37201 0
M  V30 9390 H 1247.11 -7.35707 4.02681 0
M  V30 9391 H 1245.41 -9.40912 3.9095 0
M  V30 9392 H 1245.22 -8.29056 5.99158 0
M  V30 9393 H 1243.59 -8.10073 5.25882 0
M  V30 9394 H 1246.23 -6.30324 0.726794 0
M  V30 9395 P 1248.09 -8.4349 2.47671 0
M  V30 9396 O 1249.51 -8.94263 2.59668 0
M  V30 9397 O 1247.73 -7.1704 3.19006 0
M  V30 9398 O 1247.77 -8.16596 0.923387 0
M  V30 9399 C 1247.61 -9.38537 0.108869 0
M  V30 9400 C 1248.15 -9.08175 -1.28353 0
M  V30 9401 O 1247.09 -8.44131 -1.84692 0
M  V30 9402 C 1249.37 -8.18386 -1.42505 0
M  V30 9403 O 1250.1 -8.3501 -2.60497 0
M  V30 9404 C 1248.7 -6.80225 -1.25468 0
M  V30 9405 O 1249.5 -5.81716 -1.90454 0
M  V30 9406 C 1247.36 -7.02416 -1.9168 0
M  V30 9407 N 1246.32 -6.31033 -1.20314 0
M  V30 9408 C 1246.49 -5.98817 0.0994088 0
M  V30 9409 N 1245.46 -5.35403 0.621694 0
M  V30 9410 C 1244.57 -5.25212 -0.43376 0
M  V30 9411 C 1243.31 -4.64602 -0.519722 0
M  V30 9412 N 1242.74 -4.7568 -1.76013 0
M  V30 9413 C 1243.34 -5.3653 -2.83017 0
M  V30 9414 N 1244.52 -5.93676 -2.79782 0
M  V30 9415 C 1245.1 -5.84061 -1.56249 0
M  V30 9416 H 1248.58 -6.53498 -0.198729 0
M  V30 9417 H 1250.06 -8.36622 -0.589963 0
M  V30 9418 H 1248.36 -10.0273 -1.8081 0
M  V30 9419 H 1248.17 -10.2138 0.558219 0
M  V30 9420 H 1246.54 -9.6579 0.0444202 0
M  V30 9421 H 1247.39 -6.23209 0.660562 0
M  V30 9422 H 1249.18 -5.69466 -2.79593 0
M  V30 9423 P 1251.04 -8.4349 -2.47671 0
M  V30 9424 O 1252.46 -8.92593 -2.65 0
M  V30 9425 O 1250.68 -7.7568 -1.19296 0
M  V30 9426 O 1250.72 -7.36886 -3.63805 0
M  V30 9427 C 1250.56 -7.95349 -4.982 0
M  V30 9428 C 1251.1 -6.94612 -5.98974 0
M  V30 9429 O 1250.04 -6.10347 -6.11815 0
M  V30 9430 C 1252.32 -6.11426 -5.62335 0
M  V30 9431 O 1253.05 -5.6162 -6.70584 0
M  V30 9432 C 1251.65 -5.04409 -4.73308 0
M  V30 9433 O 1252.45 -3.85992 -4.75183 0
M  V30 9434 C 1250.31 -4.8728 -5.41006 0
M  V30 9435 H 1250.34 -4.02333 -6.11157 0
M  V30 9436 H 1251.53 -5.39466 -3.69543 0
M  V30 9437 H 1253.01 -6.71916 -5.01943 0
M  V30 9438 H 1251.32 -7.4649 -6.93477 0
M  V30 9439 H 1251.13 -8.89416 -5.05237 0
M  V30 9440 H 1249.5 -8.14876 -5.18409 0
M  V30 9441 H 1252.13 -3.27957 -5.4317 0
M  V30 9442 P 1253.99 -5.75688 -6.64379 0
M  V30 9443 O 1255.41 -6.07627 -7.05504 0
M  V30 9444 O 1253.63 -5.88047 -5.19722 0
M  V30 9445 O 1253.67 -4.2322 -7.04443 0
M  V30 9446 C 1253.51 -3.99743 -8.4911 0
M  V30 9447 C 1254.05 -2.60516 -8.79425 0
M  V30 9448 O 1252.99 -1.82684 -8.4467 0
M  V30 9449 C 1255.27 -2.10343 -8.03628 0
M  V30 9450 O 1256.01 -1.09919 -8.67766 0
M  V30 9451 C 1254.6 -1.68446 -6.70876 0
M  V30 9452 O 1255.4 -0.678137 -6.08433 0
M  V30 9453 C 1253.26 -1.17436 -7.18567 0
M  V30 9454 H 1253.29 -0.0804732 -7.31656 0
M  V30 9455 H 1254.48 -2.54037 -6.02537 0
M  V30 9456 H 1255.96 -2.93881 -7.85526 0
M  V30 9457 H 1254.27 -2.53065 -9.86973 0
M  V30 9458 H 1254.08 -4.75072 -9.05887 0
M  V30 9459 H 1252.45 -4.05244 -8.76668 0
M  V30 9460 H 1255.09 0.177647 -6.34251 0
M  V30 9461 P 1256.94 -1.25109 -8.70152 0
M  V30 9462 O 1258.36 -1.29744 -9.22016 0
M  V30 9463 O 1256.58 -2.13714 -7.55141 0
M  V30 9464 O 1256.62 0.248149 -8.21425 0
M  V30 9465 C 1256.46 1.22779 -9.30434 0
M  V30 9466 C 1257 2.56293 -8.80664 0
M  V30 9467 O 1255.94 3.02979 -8.09349 0
M  V30 9468 C 1258.22 2.57523 -7.89775 0
M  V30 9469 O 1258.96 3.7668 -7.89438 0
M  V30 9470 C 1257.55 2.20997 -6.55446 0
M  V30 9471 O 1258.35 2.71895 -5.48509 0
M  V30 9472 C 1256.21 2.89693 -6.67988 0
M  V30 9473 H 1256.24 3.88793 -6.19859 0
M  V30 9474 H 1257.43 1.12046 -6.44229 0
M  V30 9475 H 1258.91 1.7746 -8.19711 0
M  V30 9476 H 1257.22 3.20706 -9.67112 0
M  V30 9477 H 1257.03 0.901032 -10.1892 0
M  V30 9478 H 1255.4 1.33049 -9.56592 0
M  V30 9479 H 1258.04 3.57847 -5.23962 0
M  V30 9480 P 1259.89 3.65191 -7.99657 0
M  V30 9481 O 1261.32 3.89332 -8.45794 0
M  V30 9482 O 1259.53 2.28472 -7.50807 0
M  V30 9483 O 1259.57 4.64972 -6.77611 0
M  V30 9484 C 1259.41 6.06319 -7.16352 0
M  V30 9485 C 1259.95 6.91731 -6.02299 0
M  V30 9486 O 1258.89 6.92449 -5.17064 0
M  V30 9487 C 1261.17 6.43627 -5.25174 0
M  V30 9488 O 1261.91 7.43686 -4.60469 0
M  V30 9489 C 1260.5 5.40275 -4.31916 0
M  V30 9490 O 1261.3 5.25279 -3.14438 0
M  V30 9491 C 1259.16 6.04847 -4.05327 0
M  V30 9492 H 1259.19 6.62195 -3.11261 0
M  V30 9493 H 1260.38 4.42556 -4.81383 0
M  V30 9494 H 1261.86 5.92458 -5.93643 0
M  V30 9495 H 1260.17 7.92655 -6.402 0
M  V30 9496 H 1259.98 6.26671 -8.0846 0
M  V30 9497 H 1258.35 6.29101 -7.32804 0
M  V30 9498 H 1260.99 5.84315 -2.47318 0
M  V30 9499 P 1262.84 7.39546 -4.75277 0
M  V30 9500 O 1264.27 7.84798 -5.01039 0
M  V30 9501 O 1262.48 5.9812 -5.08098 0
M  V30 9502 O 1262.52 7.57503 -3.1866 0
M  V30 9503 C 1262.36 8.97357 -2.74833 0
M  V30 9504 C 1262.9 9.07548 -1.32709 0
M  V30 9505 O 1261.84 8.62072 -0.606159 0
M  V30 9506 C 1264.12 8.25383 -0.938334 0
M  V30 9507 O 1264.86 8.74577 0.146954 0
M  V30 9508 C 1263.45 6.8802 -0.712559 0
M  V30 9509 O 1264.25 6.1189 0.194655 0
M  V30 9510 C 1262.11 7.27966 -0.139777 0
M  V30 9511 H 1262.14 7.25354 0.961601 0
M  V30 9512 H 1263.33 6.32557 -1.65702 0
M  V30 9513 H 1264.81 8.19355 -1.79097 0
M  V30 9514 H 1263.12 10.1294 -1.10029 0
M  V30 9515 H 1262.93 9.64276 -3.41316 0
M  V30 9516 H 1261.3 9.25417 -2.76357 0
M  V30 9517 H 1263.94 6.25267 1.07847 0
M  V30 9518 P 1265.79 8.791 1.03475e-11 0
M  V30 9519 O 1267.22 9.31096 0.027933 0
M  V30 9520 O 1265.43 7.77869 -1.04071 0
M  V30 9521 O 1265.47 8.09533 1.41463 0
M  V30 9522 C 1265.31 9.0349 2.53943 0
M  V30 9523 C 1265.85 8.35226 3.79016 0
M  V30 9524 O 1264.8 7.57992 4.15078 0
M  V30 9525 C 1267.07 7.45087 3.67298 0
M  V30 9526 O 1267.81 7.27796 4.85194 0
M  V30 9527 C 1266.4 6.17323 3.12027 0
M  V30 9528 O 1267.2 5.04231 3.47188 0
M  V30 9529 C 1265.06 6.19961 3.81809 0
M  V30 9530 H 1265.1 5.58218 4.73051 0
M  V30 9531 H 1266.28 6.21726 2.02589 0
M  V30 9532 H 1267.76 7.86112 2.9231 0
M  V30 9533 H 1266.07 9.11627 4.55076 0
M  V30 9534 H 1265.88 9.9573 2.34194 0
M  V30 9535 H 1264.25 9.2792 2.67832 0
M  V30 9536 H 1266.89 4.67702 4.28772 0
M  V30 9537 P 1268.75 7.39546 4.75277 0
M  V30 9538 O 1270.17 7.81777 5.05738 0
M  V30 9539 O 1268.39 7.1065 3.32998 0
M  V30 9540 O 1268.42 6.04542 5.56673 0
M  V30 9541 C 1268.26 6.22772 7.02095 0
M  V30 9542 C 1268.8 4.97725 7.70406 0
M  V30 9543 O 1267.75 4.13256 7.58987 0
M  V30 9544 C 1270.02 4.28231 7.11815 0
M  V30 9545 O 1270.76 3.49945 8.01648 0
M  V30 9546 C 1269.35 3.5063 5.96244 0
M  V30 9547 O 1270.15 2.36482 5.64681 0
M  V30 9548 C 1268.01 3.15122 6.56374 0
M  V30 9549 H 1268.05 2.13853 6.99751 0
M  V30 9550 H 1269.23 4.13501 5.06559 0
M  V30 9551 H 1270.71 5.03285 6.70911 0
M  V30 9552 H 1269.02 5.20877 8.75697 0
M  V30 9553 H 1268.83 7.11046 7.35349 0
M  V30 9554 H 1267.2 6.35815 7.26986 0
M  V30 9555 H 1269.84 1.61644 6.13565 0
M  V30 9556 P 1271.7 3.65191 7.99657 0
M  V30 9557 O 1273.12 3.8425 8.48115 0
M  V30 9558 O 1271.34 4.17805 6.64342 0
M  V30 9559 O 1271.37 2.07613 7.95143 0
M  V30 9560 C 1271.21 1.44328 9.27336 0
M  V30 9561 C 1271.75 0.0220036 9.17197 0
M  V30 9562 O 1270.7 -0.626867 8.61923 0
M  V30 9563 C 1272.97 -0.24586 8.30336 0
M  V30 9564 O 1273.71 -1.39011 8.63583 0
M  V30 9565 C 1272.3 -0.273849 6.91158 0
M  V30 9566 O 1273.1 -1.06348 6.02892 0
M  V30 9567 C 1270.96 -0.897649 7.22545 0
M  V30 9568 H 1271 -1.9841 7.04286 0
M  V30 9569 H 1272.18 0.739928 6.497 0
M  V30 9570 H 1273.66 0.60668 8.36503 0
M  V30 9571 H 1271.97 -0.352479 10.1829 0
M  V30 9572 H 1271.78 2.00611 10.0304 0
M  V30 9573 H 1270.15 1.41843 9.55327 0
M  V30 9574 H 1272.79 -1.95734 6.03555 0
M  V30 9575 P 1274.65 -1.25109 8.70152 0
M  V30 9576 O 1276.07 -1.35274 9.21221 0
M  V30 9577 O 1274.29 -0.0769065 7.84762 0
M  V30 9578 O 1274.32 -2.55232 7.81161 0
M  V30 9579 C 1274.16 -3.79939 8.58154 0
M  V30 9580 C 1274.7 -4.94023 7.72785 0
M  V30 9581 O 1273.65 -5.18726 6.91205 0
M  V30 9582 C 1275.92 -4.69597 6.85231 0
M  V30 9583 O 1276.66 -5.83832 6.51337 0
M  V30 9584 C 1275.25 -3.96706 5.66633 0
M  V30 9585 O 1276.05 -4.15414 4.49689 0
M  V30 9586 C 1273.92 -4.66153 5.59313 0
M  V30 9587 H 1273.95 -5.47679 4.85214 0
M  V30 9588 H 1275.13 -2.89008 5.86566 0
M  V30 9589 H 1276.61 -4.0121 7.36511 0
M  V30 9590 H 1274.92 -5.80182 8.37584 0
M  V30 9591 H 1274.73 -3.73517 9.52265 0
M  V30 9592 H 1273.1 -3.97163 8.80359 0
M  V30 9593 H 1275.74 -4.90969 4.01921 0
M  V30 9594 P 1277.6 -5.75688 6.64379 0
M  V30 9595 O 1279.02 -6.11915 7.01921 0
M  V30 9596 O 1277.24 -4.30744 6.56026 0
M  V30 9597 O 1277.27 -6.37042 5.19165 0
M  V30 9598 C 1277.11 -7.83662 5.1657 0
M  V30 9599 C 1277.65 -8.33398 3.83019 0
M  V30 9600 O 1276.6 -8.0998 3.00999 0
M  V30 9601 C 1278.87 -7.65514 3.2257 0
M  V30 9602 O 1279.61 -8.4329 2.32297 0
M  V30 9603 C 1278.2 -6.40075 2.62207 0
M  V30 9604 O 1279 -5.92338 1.5428 0
M  V30 9605 C 1276.87 -6.9454 2.18503 0
M  V30 9606 N 1275.82 -5.95905 2.39948 0
M  V30 9607 C 1275.99 -4.98383 3.32108 0
M  V30 9608 N 1274.96 -4.16798 3.41761 0
M  V30 9609 C 1274.08 -4.65287 2.47461 0
M  V30 9610 C 1272.81 -4.18946 2.07461 0
M  V30 9611 N 1272.21 -3.09661 2.60717 0
M  V30 9612 N 1272.25 -4.95327 1.09101 0
M  V30 9613 C 1272.85 -6.04369 0.519812 0
M  V30 9614 N 1274.03 -6.50694 0.855982 0
M  V30 9615 C 1274.6 -5.75818 1.84322 0
M  V30 9616 H 1276.9 -7.22964 1.12076 0
M  V30 9617 H 1278.08 -5.60502 3.36589 0
M  V30 9618 H 1279.56 -7.35707 4.02681 0
M  V30 9619 H 1277.87 -9.41302 3.90009 0
M  V30 9620 H 1277.68 -8.29056 5.99158 0
M  V30 9621 H 1276.05 -8.10073 5.25882 0
M  V30 9622 H 1272.31 -6.55843 -0.270373 0
M  V30 9623 H 1276.89 -4.88564 3.92502 0
M  V30 9624 H 1271.28 -2.80523 2.27218 0
M  V30 9625 H 1272.69 -2.55848 3.34465 0
M  V30 9626 H 1278.69 -6.30224 0.72668 0
M  V30 9627 P 1280.55 -8.4349 2.47671 0
M  V30 9628 O 1281.97 -8.94359 2.59696 0
M  V30 9629 O 1280.19 -7.1704 3.19006 0
M  V30 9630 O 1280.22 -8.16596 0.923387 0
M  V30 9631 C 1280.06 -9.38437 0.108857 0
M  V30 9632 C 1280.6 -9.08076 -1.28339 0
M  V30 9633 O 1279.55 -8.44229 -1.84713 0
M  V30 9634 C 1281.82 -8.18386 -1.42505 0
M  V30 9635 O 1282.56 -8.3501 -2.60497 0
M  V30 9636 C 1281.15 -6.80225 -1.25468 0
M  V30 9637 O 1281.95 -5.81526 -1.91035 0
M  V30 9638 C 1279.82 -7.02416 -1.9168 0
M  V30 9639 N 1278.77 -6.31033 -1.20314 0
M  V30 9640 C 1278.84 -6.18781 0.121293 0
M  V30 9641 N 1277.79 -5.49762 0.588272 0
M  V30 9642 C 1277.06 -5.22015 -0.488988 0
M  V30 9643 C 1275.75 -4.61966 -0.596448 0
M  V30 9644 O 1275.02 -4.19162 0.309059 0
M  V30 9645 N 1275.32 -4.53773 -1.878 0
M  V30 9646 C 1276.07 -4.99623 -2.99082 0
M  V30 9647 N 1275.47 -4.78912 -4.21227 0
M  V30 9648 N 1277.22 -5.59957 -2.91093 0
M  V30 9649 C 1277.68 -5.70225 -1.64218 0
M  V30 9650 H 1279.85 -6.6888 -2.96621 0
M  V30 9651 H 1281.03 -6.53517 -0.192194 0
M  V30 9652 H 1282.52 -8.36563 -0.598329 0
M  V30 9653 H 1280.82 -10.0291 -1.79807 0
M  V30 9654 H 1280.63 -10.2138 0.558219 0
M  V30 9655 H 1279 -9.6579 0.0444202 0
M  V30 9656 H 1274.42 -4.12883 -2.05283 0
M  V30 9657 H 1279.63 -6.59596 0.745856 0
M  V30 9658 H 1274.56 -4.31425 -4.2628 0
M  V30 9659 H 1275.94 -5.11219 -5.07148 0
M  V30 9660 H 1281.64 -5.69466 -2.79593 0
M  V30 9661 P 1283.5 -8.4349 -2.47671 0
M  V30 9662 O 1284.92 -8.92593 -2.65 0
M  V30 9663 O 1283.14 -7.7568 -1.19296 0
M  V30 9664 O 1283.17 -7.36886 -3.63805 0
M  V30 9665 C 1283.01 -7.95349 -4.982 0
M  V30 9666 C 1283.55 -6.94612 -5.98974 0
M  V30 9667 O 1282.5 -6.10347 -6.11815 0
M  V30 9668 C 1284.77 -6.11426 -5.62335 0
M  V30 9669 O 1285.51 -5.6162 -6.70584 0
M  V30 9670 C 1284.1 -5.04409 -4.73308 0
M  V30 9671 O 1284.9 -3.85992 -4.75183 0
M  V30 9672 C 1282.77 -4.8728 -5.41006 0
M  V30 9673 H 1282.8 -4.02333 -6.11157 0
M  V30 9674 H 1283.98 -5.39466 -3.69543 0
M  V30 9675 H 1285.47 -6.71916 -5.01943 0
M  V30 9676 H 1283.77 -7.4649 -6.93477 0
M  V30 9677 H 1283.58 -8.89416 -5.05237 0
M  V30 9678 H 1281.95 -8.14876 -5.18409 0
M  V30 9679 H 1284.59 -3.27957 -5.4317 0
M  V30 9680 P 1286.45 -5.75688 -6.64379 0
M  V30 9681 O 1287.87 -6.07627 -7.05504 0
M  V30 9682 O 1286.09 -5.88047 -5.19722 0
M  V30 9683 O 1286.13 -4.2322 -7.04443 0
M  V30 9684 C 1285.97 -3.99743 -8.4911 0
M  V30 9685 C 1286.51 -2.60516 -8.79425 0
M  V30 9686 O 1285.45 -1.82684 -8.4467 0
M  V30 9687 C 1287.72 -2.10343 -8.03628 0
M  V30 9688 O 1288.46 -1.09919 -8.67766 0
M  V30 9689 C 1287.05 -1.68446 -6.70876 0
M  V30 9690 O 1287.85 -0.678137 -6.08433 0
M  V30 9691 C 1285.72 -1.17436 -7.18567 0
M  V30 9692 H 1285.75 -0.0804732 -7.31656 0
M  V30 9693 H 1286.93 -2.54037 -6.02537 0
M  V30 9694 H 1288.42 -2.93881 -7.85526 0
M  V30 9695 H 1286.72 -2.53065 -9.86973 0
M  V30 9696 H 1286.53 -4.75072 -9.05887 0
M  V30 9697 H 1284.9 -4.05244 -8.76668 0
M  V30 9698 H 1287.54 0.177647 -6.34251 0
M  V30 9699 P 1289.4 -1.25109 -8.70152 0
M  V30 9700 O 1290.82 -1.29758 -9.22115 0
M  V30 9701 O 1289.04 -2.13714 -7.55141 0
M  V30 9702 O 1289.08 0.248149 -8.21425 0
M  V30 9703 C 1288.92 1.22792 -9.30533 0
M  V30 9704 C 1289.46 2.56293 -8.80664 0
M  V30 9705 O 1288.4 3.02944 -8.09255 0
M  V30 9706 C 1290.67 2.57523 -7.89775 0
M  V30 9707 O 1291.41 3.7668 -7.89438 0
M  V30 9708 C 1290.01 2.20997 -6.55446 0
M  V30 9709 O 1290.8 2.71302 -5.48691 0
M  V30 9710 C 1288.67 2.89693 -6.67988 0
M  V30 9711 N 1287.63 2.08895 -6.07487 0
M  V30 9712 C 1287.79 0.753809 -5.94137 0
M  V30 9713 N 1286.77 0.146592 -5.38801 0
M  V30 9714 C 1285.88 1.1768 -5.13693 0
M  V30 9715 C 1284.62 1.17563 -4.52477 0
M  V30 9716 N 1284.02 0.057481 -4.04759 0
M  V30 9717 N 1284.05 2.41918 -4.45789 0
M  V30 9718 C 1284.65 3.56493 -4.90792 0
M  V30 9719 N 1285.83 3.61423 -5.47817 0
M  V30 9720 C 1286.4 2.37779 -5.5588 0
M  V30 9721 H 1288.7 3.8874 -6.19774 0
M  V30 9722 H 1289.88 1.12673 -6.44018 0
M  V30 9723 H 1291.37 1.7746 -8.19711 0
M  V30 9724 H 1289.67 3.21673 -9.66791 0
M  V30 9725 H 1289.48 0.901032 -10.1892 0
M  V30 9726 H 1287.85 1.33049 -9.56592 0
M  V30 9727 H 1284.12 4.49919 -4.77947 0
M  V30 9728 H 1288.69 0.233081 -6.26266 0
M  V30 9729 H 1283.09 0.119831 -3.60801 0
M  V30 9730 H 1284.49 -0.852272 -4.12385 0
M  V30 9731 H 1290.49 3.5779 -5.23879 0
M  V30 9732 P 1292.35 3.65191 -7.99657 0
M  V30 9733 O 1293.77 3.89332 -8.45794 0
M  V30 9734 O 1291.99 2.28472 -7.50807 0
M  V30 9735 O 1292.03 4.64972 -6.77611 0
M  V30 9736 C 1291.87 6.06319 -7.16352 0
M  V30 9737 C 1292.41 6.91731 -6.02299 0
M  V30 9738 O 1291.35 6.92449 -5.17064 0
M  V30 9739 C 1293.62 6.43627 -5.25174 0
M  V30 9740 O 1294.36 7.43686 -4.60469 0
M  V30 9741 C 1292.96 5.40275 -4.31916 0
M  V30 9742 O 1293.75 5.25279 -3.14438 0
M  V30 9743 C 1291.62 6.04847 -4.05327 0
M  V30 9744 H 1291.65 6.62195 -3.11261 0
M  V30 9745 H 1292.83 4.42556 -4.81383 0
M  V30 9746 H 1294.32 5.92458 -5.93643 0
M  V30 9747 H 1292.62 7.92655 -6.402 0
M  V30 9748 H 1292.43 6.26671 -8.0846 0
M  V30 9749 H 1290.8 6.29101 -7.32804 0
M  V30 9750 H 1293.44 5.84315 -2.47318 0
M  V30 9751 P 1295.3 7.39546 -4.75277 0
M  V30 9752 O 1296.72 7.84798 -5.01039 0
M  V30 9753 O 1294.94 5.9812 -5.08098 0
M  V30 9754 O 1294.98 7.57503 -3.1866 0
M  V30 9755 C 1294.82 8.97357 -2.74833 0
M  V30 9756 C 1295.36 9.07548 -1.32709 0
M  V30 9757 O 1294.3 8.62072 -0.606159 0
M  V30 9758 C 1296.58 8.25383 -0.938334 0
M  V30 9759 O 1297.31 8.74577 0.146954 0
M  V30 9760 C 1295.91 6.8802 -0.712559 0
M  V30 9761 O 1296.71 6.1189 0.194655 0
M  V30 9762 C 1294.57 7.27966 -0.139777 0
M  V30 9763 H 1294.6 7.25354 0.961601 0
M  V30 9764 H 1295.78 6.32557 -1.65702 0
M  V30 9765 H 1297.27 8.19355 -1.79097 0
M  V30 9766 H 1295.57 10.1294 -1.10029 0
M  V30 9767 H 1295.38 9.64276 -3.41316 0
M  V30 9768 H 1293.75 9.25417 -2.76357 0
M  V30 9769 H 1296.39 6.25267 1.07847 0
M  V30 9770 P 1298.25 8.791 1.06576e-11 0
M  V30 9771 O 1299.67 9.31096 0.027933 0
M  V30 9772 O 1297.89 7.77869 -1.04071 0
M  V30 9773 O 1297.93 8.09533 1.41463 0
M  V30 9774 C 1297.77 9.0349 2.53943 0
M  V30 9775 C 1298.31 8.35226 3.79016 0
M  V30 9776 O 1297.25 7.57992 4.15078 0
M  V30 9777 C 1299.53 7.45087 3.67298 0
M  V30 9778 O 1300.26 7.27796 4.85194 0
M  V30 9779 C 1298.86 6.17323 3.12027 0
M  V30 9780 O 1299.66 5.04231 3.47188 0
M  V30 9781 C 1297.52 6.19961 3.81809 0
M  V30 9782 H 1297.55 5.58218 4.73051 0
M  V30 9783 H 1298.73 6.21726 2.02589 0
M  V30 9784 H 1300.22 7.86112 2.9231 0
M  V30 9785 H 1298.52 9.11627 4.55076 0
M  V30 9786 H 1298.33 9.9573 2.34194 0
M  V30 9787 H 1296.7 9.2792 2.67832 0
M  V30 9788 H 1299.34 4.67702 4.28772 0
M  V30 9789 P 1301.2 7.39546 4.75277 0
M  V30 9790 O 1302.6 7.89013 5.04841 0
M  V30 9791 O 1300.82 7.16603 3.32298 0
M  V30 9792 O 1300.88 6.04468 5.56605 0
M  V30 9793 C 1300.72 6.22772 7.02095 0
M  V30 9794 C 1301.26 4.97671 7.70322 0
M  V30 9795 O 1300.2 4.13208 7.58899 0
M  V30 9796 C 1302.48 4.28231 7.11815 0
M  V30 9797 O 1303.21 3.49945 8.01648 0
M  V30 9798 C 1301.81 3.5063 5.96244 0
M  V30 9799 O 1302.61 2.36443 5.64589 0
M  V30 9800 C 1300.47 3.15122 6.56374 0
M  V30 9801 N 1299.43 3.22311 5.55692 0
M  V30 9802 C 1298.39 2.32244 5.62437 0
M  V30 9803 O 1298.43 1.43107 6.50341 0
M  V30 9804 N 1297.38 2.40811 4.73368 0
M  V30 9805 C 1297.43 3.344 3.77753 0
M  V30 9806 C 1298.52 4.24712 3.66679 0
M  V30 9807 C 1299.49 4.15625 4.58307 0
M  V30 9808 H 1300.5 2.13823 6.99656 0
M  V30 9809 H 1301.69 4.12931 5.06895 0
M  V30 9810 H 1303.17 5.02674 6.71494 0
M  V30 9811 H 1301.48 5.20001 8.76217 0
M  V30 9812 H 1301.28 7.11046 7.35349 0
M  V30 9813 H 1299.65 6.35749 7.26911 0
M  V30 9814 H 1298.57 4.9828 2.86753 0
M  V30 9815 H 1300.34 4.84464 4.54228 0
M  V30 9816 H 1302.39 1.65592 6.23485 0
M  V30 9817 P 1304.15 3.65191 7.99657 0
M  V30 9818 O 1305.57 3.8425 8.48115 0
M  V30 9819 O 1303.79 4.17805 6.64342 0
M  V30 9820 O 1303.83 2.07613 7.95143 0
M  V30 9821 C 1303.67 1.44328 9.27336 0
M  V30 9822 C 1304.21 0.0220036 9.17197 0
M  V30 9823 O 1303.15 -0.626867 8.61923 0
M  V30 9824 C 1305.43 -0.24586 8.30336 0
M  V30 9825 O 1306.16 -1.39011 8.63583 0
M  V30 9826 C 1304.76 -0.273849 6.91158 0
M  V30 9827 O 1305.56 -1.06348 6.02892 0
M  V30 9828 C 1303.42 -0.897649 7.22545 0
M  V30 9829 H 1303.45 -1.9841 7.04286 0
M  V30 9830 H 1304.64 0.739928 6.497 0
M  V30 9831 H 1306.12 0.60668 8.36503 0
M  V30 9832 H 1304.43 -0.352479 10.1829 0
M  V30 9833 H 1304.24 2.00611 10.0304 0
M  V30 9834 H 1302.61 1.41843 9.55327 0
M  V30 9835 H 1305.24 -1.95734 6.03555 0
M  V30 9836 P 1307.1 -1.25109 8.70152 0
M  V30 9837 O 1308.52 -1.35274 9.21221 0
M  V30 9838 O 1306.74 -0.0769065 7.84762 0
M  V30 9839 O 1306.78 -2.55232 7.81161 0
M  V30 9840 C 1306.62 -3.79939 8.58154 0
M  V30 9841 C 1307.16 -4.94023 7.72785 0
M  V30 9842 O 1306.1 -5.18726 6.91205 0
M  V30 9843 C 1308.38 -4.69597 6.85231 0
M  V30 9844 O 1309.12 -5.83832 6.51337 0
M  V30 9845 C 1307.71 -3.96706 5.66633 0
M  V30 9846 O 1308.51 -4.15414 4.49689 0
M  V30 9847 C 1306.37 -4.66153 5.59313 0
M  V30 9848 H 1306.4 -5.47679 4.85214 0
M  V30 9849 H 1307.59 -2.89008 5.86566 0
M  V30 9850 H 1309.07 -4.0121 7.36511 0
M  V30 9851 H 1307.38 -5.80182 8.37584 0
M  V30 9852 H 1307.19 -3.73517 9.52265 0
M  V30 9853 H 1305.56 -3.97163 8.80359 0
M  V30 9854 H 1308.2 -4.90969 4.01921 0
M  V30 9855 P 1310.05 -5.75688 6.64379 0
M  V30 9856 O 1311.48 -6.11849 7.01846 0
M  V30 9857 O 1309.69 -4.30744 6.56026 0
M  V30 9858 O 1309.73 -6.37042 5.19165 0
M  V30 9859 C 1309.57 -7.83578 5.16515 0
M  V30 9860 C 1310.11 -8.33398 3.83019 0
M  V30 9861 O 1309.05 -8.10074 3.01034 0
M  V30 9862 C 1311.33 -7.65514 3.2257 0
M  V30 9863 O 1312.07 -8.4329 2.32297 0
M  V30 9864 C 1310.66 -6.40075 2.62207 0
M  V30 9865 O 1311.46 -5.92589 1.53712 0
M  V30 9866 C 1309.32 -6.9454 2.18503 0
M  V30 9867 H 1309.35 -7.23063 1.12091 0
M  V30 9868 H 1310.54 -5.6025 3.37201 0
M  V30 9869 H 1312.02 -7.35707 4.02681 0
M  V30 9870 H 1310.33 -9.40912 3.9095 0
M  V30 9871 H 1310.14 -8.29056 5.99158 0
M  V30 9872 H 1308.51 -8.10073 5.25882 0
M  V30 9873 H 1311.15 -6.30324 0.726794 0
M  V30 9874 P 1313 -8.4349 2.47671 0
M  V30 9875 O 1314.43 -8.94167 2.5964 0
M  V30 9876 O 1312.64 -7.1704 3.19006 0
M  V30 9877 O 1312.68 -8.16596 0.923387 0
M  V30 9878 C 1312.52 -9.38437 0.108857 0
M  V30 9879 C 1313.06 -9.08175 -1.28353 0
M  V30 9880 O 1312 -8.44229 -1.84713 0
M  V30 9881 C 1314.28 -8.18386 -1.42505 0
M  V30 9882 O 1315.02 -8.3501 -2.60497 0
M  V30 9883 C 1313.61 -6.80225 -1.25468 0
M  V30 9884 O 1314.41 -5.81621 -1.91066 0
M  V30 9885 C 1312.27 -7.02416 -1.9168 0
M  V30 9886 H 1312.3 -6.6888 -2.96621 0
M  V30 9887 H 1313.49 -6.53617 -0.192223 0
M  V30 9888 H 1314.97 -8.36622 -0.589963 0
M  V30 9889 H 1313.28 -10.0291 -1.79807 0
M  V30 9890 H 1313.09 -10.2138 0.558219 0
M  V30 9891 H 1311.46 -9.6579 0.0444202 0
M  V30 9892 H 1314.1 -5.69556 -2.79637 0
M  V30 9893 P 1315.95 -8.4349 -2.47671 0
M  V30 9894 O 1317.38 -8.92593 -2.65 0
M  V30 9895 O 1315.59 -7.7568 -1.19296 0
M  V30 9896 O 1315.63 -7.36886 -3.63805 0
M  V30 9897 C 1315.47 -7.95349 -4.982 0
M  V30 9898 C 1316.01 -6.94612 -5.98974 0
M  V30 9899 O 1314.96 -6.10347 -6.11815 0
M  V30 9900 C 1317.23 -6.11426 -5.62335 0
M  V30 9901 O 1317.97 -5.6162 -6.70584 0
M  V30 9902 C 1316.56 -5.04409 -4.73308 0
M  V30 9903 O 1317.36 -3.85992 -4.75183 0
M  V30 9904 C 1315.22 -4.8728 -5.41006 0
M  V30 9905 H 1315.26 -4.02333 -6.11157 0
M  V30 9906 H 1316.44 -5.39466 -3.69543 0
M  V30 9907 H 1317.92 -6.71916 -5.01943 0
M  V30 9908 H 1316.23 -7.4649 -6.93477 0
M  V30 9909 H 1316.04 -8.89416 -5.05237 0
M  V30 9910 H 1314.41 -8.14876 -5.18409 0
M  V30 9911 H 1317.05 -3.27957 -5.4317 0
M  V30 9912 P 1318.9 -5.75688 -6.64379 0
M  V30 9913 O 1320.33 -6.07627 -7.05504 0
M  V30 9914 O 1318.54 -5.88047 -5.19722 0
M  V30 9915 O 1318.58 -4.2322 -7.04443 0
M  V30 9916 C 1318.42 -3.99743 -8.4911 0
M  V30 9917 C 1318.96 -2.60516 -8.79425 0
M  V30 9918 O 1317.91 -1.82684 -8.4467 0
M  V30 9919 C 1320.18 -2.10343 -8.03628 0
M  V30 9920 O 1320.92 -1.09919 -8.67766 0
M  V30 9921 C 1319.51 -1.68446 -6.70876 0
M  V30 9922 O 1320.31 -0.678137 -6.08433 0
M  V30 9923 C 1318.17 -1.17436 -7.18567 0
M  V30 9924 H 1318.21 -0.0804732 -7.31656 0
M  V30 9925 H 1319.39 -2.54037 -6.02537 0
M  V30 9926 H 1320.87 -2.93881 -7.85526 0
M  V30 9927 H 1319.18 -2.53065 -9.86973 0
M  V30 9928 H 1318.99 -4.75072 -9.05887 0
M  V30 9929 H 1317.36 -4.05244 -8.76668 0
M  V30 9930 H 1320 0.177647 -6.34251 0
M  V30 9931 P 1321.86 -1.25109 -8.70152 0
M  V30 9932 O 1323.28 -1.29744 -9.22016 0
M  V30 9933 O 1321.5 -2.13714 -7.55141 0
M  V30 9934 O 1321.53 0.248149 -8.21425 0
M  V30 9935 C 1321.37 1.22779 -9.30434 0
M  V30 9936 C 1321.91 2.56293 -8.80664 0
M  V30 9937 O 1320.86 3.02979 -8.09349 0
M  V30 9938 C 1323.13 2.57523 -7.89775 0
M  V30 9939 O 1323.87 3.7668 -7.89438 0
M  V30 9940 C 1322.46 2.20997 -6.55446 0
M  V30 9941 O 1323.26 2.71895 -5.48509 0
M  V30 9942 C 1321.12 2.89693 -6.67988 0
M  V30 9943 H 1321.16 3.88793 -6.19859 0
M  V30 9944 H 1322.34 1.12046 -6.44229 0
M  V30 9945 H 1323.82 1.7746 -8.19711 0
M  V30 9946 H 1322.13 3.20706 -9.67112 0
M  V30 9947 H 1321.94 0.901032 -10.1892 0
M  V30 9948 H 1320.31 1.33049 -9.56592 0
M  V30 9949 H 1322.95 3.57847 -5.23962 0
M  V30 9950 P 1324.81 3.65191 -7.99657 0
M  V30 9951 O 1326.23 3.89332 -8.45794 0
M  V30 9952 O 1324.45 2.28472 -7.50807 0
M  V30 9953 O 1324.48 4.64972 -6.77611 0
M  V30 9954 C 1324.32 6.06319 -7.16352 0
M  V30 9955 C 1324.86 6.91731 -6.02299 0
M  V30 9956 O 1323.81 6.92449 -5.17064 0
M  V30 9957 C 1326.08 6.43627 -5.25174 0
M  V30 9958 O 1326.82 7.43686 -4.60469 0
M  V30 9959 C 1325.41 5.40275 -4.31916 0
M  V30 9960 O 1326.21 5.25279 -3.14438 0
M  V30 9961 C 1324.07 6.04847 -4.05327 0
M  V30 9962 H 1324.11 6.62195 -3.11261 0
M  V30 9963 H 1325.29 4.42556 -4.81383 0
M  V30 9964 H 1326.77 5.92458 -5.93643 0
M  V30 9965 H 1325.08 7.92655 -6.402 0
M  V30 9966 H 1324.89 6.26671 -8.0846 0
M  V30 9967 H 1323.26 6.29101 -7.32804 0
M  V30 9968 H 1325.9 5.84315 -2.47318 0
M  V30 9969 P 1327.76 7.39546 -4.75277 0
M  V30 9970 O 1329.18 7.84798 -5.01039 0
M  V30 9971 O 1327.4 5.9812 -5.08098 0
M  V30 9972 O 1327.43 7.57503 -3.1866 0
M  V30 9973 C 1327.27 8.97357 -2.74833 0
M  V30 9974 C 1327.81 9.07548 -1.32709 0
M  V30 9975 O 1326.76 8.62072 -0.606159 0
M  V30 9976 C 1329.03 8.25383 -0.938334 0
M  V30 9977 O 1329.77 8.74577 0.146954 0
M  V30 9978 C 1328.36 6.8802 -0.712559 0
M  V30 9979 O 1329.16 6.1189 0.194655 0
M  V30 9980 C 1327.03 7.27966 -0.139777 0
M  V30 9981 H 1327.06 7.25354 0.961601 0
M  V30 9982 H 1328.24 6.32557 -1.65702 0
M  V30 9983 H 1329.72 8.19355 -1.79097 0
M  V30 9984 H 1328.03 10.1294 -1.10029 0
M  V30 9985 H 1327.84 9.64276 -3.41316 0
M  V30 9986 H 1326.21 9.25417 -2.76357 0
M  V30 9987 H 1328.85 6.25267 1.07847 0
M  V30 9988 P 1330.71 8.791 1.0718e-11 0
M  V30 9989 O 1332.13 9.31096 0.027933 0
M  V30 9990 O 1330.35 7.77869 -1.04071 0
M  V30 9991 O 1330.38 8.09533 1.41463 0
M  V30 9992 C 1330.22 9.0349 2.53943 0
M  V30 9993 C 1330.76 8.35226 3.79016 0
M  V30 9994 O 1329.71 7.57992 4.15078 0
M  V30 9995 C 1331.98 7.45087 3.67298 0
M  V30 9996 O 1332.72 7.27796 4.85194 0
M  V30 9997 C 1331.31 6.17323 3.12027 0
M  V30 9998 O 1332.11 5.04231 3.47188 0
M  V30 9999 C 1329.98 6.19961 3.81809 0
M  V30 10000 H 1330.01 5.58218 4.73051 0
M  V30 10001 H 1331.19 6.21726 2.02589 0
M  V30 10002 H 1332.68 7.86112 2.9231 0
M  V30 10003 H 1330.98 9.11627 4.55076 0
M  V30 10004 H 1330.79 9.9573 2.34194 0
M  V30 10005 H 1329.16 9.2792 2.67832 0
M  V30 10006 H 1331.8 4.67702 4.28772 0
M  V30 10007 P 1333.66 7.39546 4.75277 0
M  V30 10008 O 1335.08 7.81777 5.05738 0
M  V30 10009 O 1333.3 7.1065 3.32998 0
M  V30 10010 O 1333.33 6.04542 5.56673 0
M  V30 10011 C 1333.17 6.22772 7.02095 0
M  V30 10012 C 1333.71 4.97725 7.70406 0
M  V30 10013 O 1332.66 4.13256 7.58987 0
M  V30 10014 C 1334.93 4.28231 7.11815 0
M  V30 10015 O 1335.67 3.49945 8.01648 0
M  V30 10016 C 1334.26 3.5063 5.96244 0
M  V30 10017 O 1335.06 2.36482 5.64681 0
M  V30 10018 C 1332.93 3.15122 6.56374 0
M  V30 10019 H 1332.96 2.13853 6.99751 0
M  V30 10020 H 1334.14 4.13501 5.06559 0
M  V30 10021 H 1335.63 5.03285 6.70911 0
M  V30 10022 H 1333.93 5.20877 8.75697 0
M  V30 10023 H 1333.74 7.11046 7.35349 0
M  V30 10024 H 1332.11 6.35815 7.26986 0
M  V30 10025 H 1334.75 1.61644 6.13565 0
M  V30 10026 P 1336.61 3.65191 7.99657 0
M  V30 10027 O 1338.01 3.90823 8.51272 0
M  V30 10028 O 1336.23 4.23191 6.66972 0
M  V30 10029 O 1336.29 2.07587 7.95046 0
M  V30 10030 C 1336.13 1.44328 9.27336 0
M  V30 10031 C 1336.67 0.0220012 9.17097 0
M  V30 10032 O 1335.61 -0.626794 8.61824 0
M  V30 10033 C 1337.88 -0.24586 8.30336 0
M  V30 10034 O 1338.62 -1.39011 8.63583 0
M  V30 10035 C 1337.22 -0.273849 6.91158 0
M  V30 10036 O 1338.01 -1.06331 6.02794 0
M  V30 10037 C 1335.88 -0.897649 7.22545 0
M  V30 10038 N 1334.83 -0.292839 6.41732 0
M  V30 10039 C 1333.8 -1.08701 5.98712 0
M  V30 10040 O 1333.84 -2.31211 6.24471 0
M  V30 10041 N 1332.79 -0.533391 5.28415 0
M  V30 10042 C 1332.84 0.770866 4.98576 0
M  V30 10043 C 1333.93 1.59049 5.38086 0
M  V30 10044 C 1334.9 1.01866 6.10256 0
M  V30 10045 H 1335.91 -1.98383 7.04189 0
M  V30 10046 H 1337.09 0.733318 6.49674 0
M  V30 10047 H 1338.58 0.598386 8.36663 0
M  V30 10048 H 1336.88 -0.362662 10.1825 0
M  V30 10049 H 1336.69 2.00611 10.0304 0
M  V30 10050 H 1335.06 1.41828 9.55228 0
M  V30 10051 H 1333.98 2.6415 5.10622 0
M  V30 10052 H 1335.74 1.61983 6.44042 0
M  V30 10053 H 1337.8 -1.97777 6.14035 0
M  V30 10054 P 1339.56 -1.25109 8.70152 0
M  V30 10055 O 1340.96 -1.31452 9.27431 0
M  V30 10056 O 1339.18 -0.0458113 7.89887 0
M  V30 10057 O 1339.24 -2.55201 7.81066 0
M  V30 10058 C 1339.08 -3.79939 8.58154 0
M  V30 10059 C 1339.62 -4.93969 7.72701 0
M  V30 10060 O 1338.56 -5.18666 6.91125 0
M  V30 10061 C 1340.83 -4.69597 6.85231 0
M  V30 10062 O 1341.57 -5.83832 6.51337 0
M  V30 10063 C 1340.17 -3.96706 5.66633 0
M  V30 10064 O 1340.96 -4.15346 4.49615 0
M  V30 10065 C 1338.83 -4.66153 5.59313 0
M  V30 10066 N 1337.78 -3.71582 5.24027 0
M  V30 10067 C 1336.75 -4.15133 4.44901 0
M  V30 10068 O 1336.79 -5.32122 4.00336 0
M  V30 10069 N 1335.74 -3.30554 4.15693 0
M  V30 10070 C 1335.79 -2.04701 4.61105 0
M  V30 10071 N 1334.78 -1.23621 4.31855 0
M  V30 10072 C 1336.88 -1.57111 5.38655 0
M  V30 10073 C 1337.85 -2.44234 5.68454 0
M  V30 10074 H 1338.86 -5.47604 4.85148 0
M  V30 10075 H 1340.04 -2.8955 5.86187 0
M  V30 10076 H 1341.53 -4.01995 7.36197 0
M  V30 10077 H 1339.83 -5.81019 8.37003 0
M  V30 10078 H 1339.64 -3.73517 9.52265 0
M  V30 10079 H 1338.01 -3.97122 8.80267 0
M  V30 10080 H 1336.93 -0.538464 5.72373 0
M  V30 10081 H 1338.69 -2.11927 6.29377 0
M  V30 10082 H 1333.99 -1.58199 3.7543 0
M  V30 10083 H 1334.78 -0.264601 4.65348 0
M  V30 10084 H 1340.75 -4.98352 4.09633 0
M  V30 10085 P 1342.51 -5.75688 6.64379 0
M  V30 10086 O 1343.93 -6.11849 7.01846 0
M  V30 10087 O 1342.15 -4.30744 6.56026 0
M  V30 10088 O 1342.19 -6.37042 5.19165 0
M  V30 10089 C 1342.03 -7.83578 5.16515 0
M  V30 10090 C 1342.57 -8.33398 3.83019 0
M  V30 10091 O 1341.51 -8.10074 3.01034 0
M  V30 10092 C 1343.78 -7.65514 3.2257 0
M  V30 10093 O 1344.52 -8.4329 2.32297 0
M  V30 10094 C 1343.12 -6.40075 2.62207 0
M  V30 10095 O 1343.91 -5.92589 1.53712 0
M  V30 10096 C 1341.78 -6.9454 2.18503 0
M  V30 10097 H 1341.81 -7.23063 1.12091 0
M  V30 10098 H 1342.99 -5.6025 3.37201 0
M  V30 10099 H 1344.48 -7.35707 4.02681 0
M  V30 10100 H 1342.78 -9.40912 3.9095 0
M  V30 10101 H 1342.59 -8.29056 5.99158 0
M  V30 10102 H 1340.96 -8.10073 5.25882 0
M  V30 10103 H 1343.6 -6.30324 0.726794 0
M  V30 10104 P 1345.46 -8.4349 2.47671 0
M  V30 10105 O 1346.88 -8.94167 2.5964 0
M  V30 10106 O 1345.1 -7.1704 3.19006 0
M  V30 10107 O 1345.14 -8.16596 0.923387 0
M  V30 10108 C 1344.98 -9.38437 0.108857 0
M  V30 10109 C 1345.52 -9.08175 -1.28353 0
M  V30 10110 O 1344.46 -8.44229 -1.84713 0
M  V30 10111 C 1346.73 -8.18386 -1.42505 0
M  V30 10112 O 1347.47 -8.3501 -2.60497 0
M  V30 10113 C 1346.07 -6.80225 -1.25468 0
M  V30 10114 O 1346.86 -5.81621 -1.91066 0
M  V30 10115 C 1344.73 -7.02416 -1.9168 0
M  V30 10116 H 1344.76 -6.6888 -2.96621 0
M  V30 10117 H 1345.94 -6.53617 -0.192223 0
M  V30 10118 H 1347.43 -8.36622 -0.589963 0
M  V30 10119 H 1345.73 -10.0291 -1.79807 0
M  V30 10120 H 1345.54 -10.2138 0.558219 0
M  V30 10121 H 1343.91 -9.6579 0.0444202 0
M  V30 10122 H 1346.55 -5.69556 -2.79637 0
M  V30 10123 P 1348.41 -8.4349 -2.47671 0
M  V30 10124 O 1349.83 -8.92689 -2.65029 0
M  V30 10125 O 1348.05 -7.7568 -1.19296 0
M  V30 10126 O 1348.09 -7.36886 -3.63805 0
M  V30 10127 C 1347.93 -7.95433 -4.98253 0
M  V30 10128 C 1348.47 -6.94612 -5.98974 0
M  V30 10129 O 1347.41 -6.10277 -6.11744 0
M  V30 10130 C 1349.69 -6.11426 -5.62335 0
M  V30 10131 O 1350.42 -5.6162 -6.70584 0
M  V30 10132 C 1349.02 -5.04409 -4.73308 0
M  V30 10133 O 1349.82 -3.86404 -4.74719 0
M  V30 10134 C 1347.68 -4.8728 -5.41006 0
M  V30 10135 N 1346.64 -4.65812 -4.42377 0
M  V30 10136 C 1346.81 -5.09132 -3.15382 0
M  V30 10137 N 1345.78 -4.84021 -2.3716 0
M  V30 10138 C 1344.89 -4.18386 -3.20441 0
M  V30 10139 C 1343.63 -3.6275 -2.94905 0
M  V30 10140 N 1343.03 -3.65794 -1.73372 0
M  V30 10141 N 1343.06 -3.05008 -4.05243 0
M  V30 10142 C 1343.66 -2.98348 -5.28159 0
M  V30 10143 N 1344.84 -3.48171 -5.56333 0
M  V30 10144 C 1345.42 -4.06869 -4.47212 0
M  V30 10145 H 1347.71 -4.02278 -6.11074 0
M  V30 10146 H 1348.89 -5.39013 -3.70026 0
M  V30 10147 H 1350.38 -6.71916 -5.01943 0
M  V30 10148 H 1348.68 -7.45796 -6.94223 0
M  V30 10149 H 1348.49 -8.89416 -5.05237 0
M  V30 10150 H 1346.86 -8.14876 -5.18409 0
M  V30 10151 H 1343.13 -2.47853 -6.07807 0
M  V30 10152 H 1347.71 -5.59989 -2.81362 0
M  V30 10153 H 1342.1 -3.23218 -1.60782 0
M  V30 10154 H 1343.5 -4.10523 -0.937856 0
M  V30 10155 H 1349.5 -3.27906 -5.43085 0
M  V30 10156 P 1351.36 -5.75688 -6.64379 0
M  V30 10157 O 1352.78 -6.07758 -7.05656 0
M  V30 10158 O 1351 -5.88047 -5.19722 0
M  V30 10159 O 1351.04 -4.2322 -7.04443 0
M  V30 10160 C 1350.88 -3.99743 -8.4911 0
M  V30 10161 C 1351.42 -2.60487 -8.79329 0
M  V30 10162 O 1350.36 -1.82684 -8.4467 0
M  V30 10163 C 1352.64 -2.10343 -8.03628 0
M  V30 10164 O 1353.37 -1.09919 -8.67766 0
M  V30 10165 C 1351.97 -1.68446 -6.70876 0
M  V30 10166 O 1352.77 -0.678026 -6.08333 0
M  V30 10167 C 1350.63 -1.17436 -7.18567 0
M  V30 10168 N 1349.59 -1.52699 -6.23988 0
M  V30 10169 C 1349.65 -2.68084 -5.57824 0
M  V30 10170 N 1348.6 -2.8189 -4.75643 0
M  V30 10171 C 1347.87 -1.72373 -4.95155 0
M  V30 10172 C 1346.56 -1.37653 -4.44996 0
M  V30 10173 O 1345.83 -2.02239 -3.68445 0
M  V30 10174 N 1346.13 -0.17675 -4.90782 0
M  V30 10175 C 1346.88 0.645036 -5.78716 0
M  V30 10176 N 1346.29 1.84214 -6.10618 0
M  V30 10177 N 1348.04 0.321732 -6.30279 0
M  V30 10178 C 1348.49 -0.87502 -5.86913 0
M  V30 10179 H 1350.66 -0.0804732 -7.31656 0
M  V30 10180 H 1351.85 -2.53998 -6.02444 0
M  V30 10181 H 1353.33 -2.93095 -7.8582 0
M  V30 10182 H 1351.64 -2.53065 -9.86973 0
M  V30 10183 H 1351.45 -4.75072 -9.05887 0
M  V30 10184 H 1349.81 -4.05244 -8.76668 0
M  V30 10185 H 1345.24 0.152143 -4.60849 0
M  V30 10186 H 1350.45 -3.41852 -5.69006 0
M  V30 10187 H 1345.38 2.08538 -5.69521 0
M  V30 10188 H 1346.75 2.4895 -6.75698 0
M  V30 10189 H 1352.46 0.177619 -6.34151 0
M  V30 10190 P 1354.31 -1.25109 -8.70152 0
M  V30 10191 O 1355.73 -1.29744 -9.22016 0
M  V30 10192 O 1353.95 -2.13714 -7.55141 0
M  V30 10193 O 1353.99 0.248149 -8.21425 0
M  V30 10194 C 1353.83 1.22779 -9.30434 0
M  V30 10195 C 1354.37 2.56293 -8.80664 0
M  V30 10196 O 1353.31 3.02979 -8.09349 0
M  V30 10197 C 1355.59 2.57523 -7.89775 0
M  V30 10198 O 1356.32 3.7668 -7.89438 0
M  V30 10199 C 1354.92 2.20997 -6.55446 0
M  V30 10200 O 1355.72 2.71895 -5.48509 0
M  V30 10201 C 1353.58 2.89693 -6.67988 0
M  V30 10202 H 1353.61 3.88793 -6.19859 0
M  V30 10203 H 1354.8 1.12046 -6.44229 0
M  V30 10204 H 1356.28 1.7746 -8.19711 0
M  V30 10205 H 1354.59 3.20706 -9.67112 0
M  V30 10206 H 1354.4 0.901032 -10.1892 0
M  V30 10207 H 1352.77 1.33049 -9.56592 0
M  V30 10208 H 1355.4 3.57847 -5.23962 0
M  V30 10209 P 1357.26 3.65191 -7.99657 0
M  V30 10210 O 1358.68 3.89332 -8.45794 0
M  V30 10211 O 1356.9 2.28472 -7.50807 0
M  V30 10212 O 1356.94 4.64972 -6.77611 0
M  V30 10213 C 1356.78 6.06319 -7.16352 0
M  V30 10214 C 1357.32 6.91731 -6.02299 0
M  V30 10215 O 1356.26 6.92449 -5.17064 0
M  V30 10216 C 1358.54 6.43627 -5.25174 0
M  V30 10217 O 1359.28 7.43686 -4.60469 0
M  V30 10218 C 1357.87 5.40275 -4.31916 0
M  V30 10219 O 1358.67 5.25279 -3.14438 0
M  V30 10220 C 1356.53 6.04847 -4.05327 0
M  V30 10221 H 1356.56 6.62195 -3.11261 0
M  V30 10222 H 1357.75 4.42556 -4.81383 0
M  V30 10223 H 1359.23 5.92458 -5.93643 0
M  V30 10224 H 1357.54 7.92655 -6.402 0
M  V30 10225 H 1357.35 6.26671 -8.0846 0
M  V30 10226 H 1355.72 6.29101 -7.32804 0
M  V30 10227 H 1358.36 5.84315 -2.47318 0
M  V30 10228 P 1360.21 7.39546 -4.75277 0
M  V30 10229 O 1361.63 7.84798 -5.01039 0
M  V30 10230 O 1359.85 5.9812 -5.08098 0
M  V30 10231 O 1359.89 7.57503 -3.1866 0
M  V30 10232 C 1359.73 8.97357 -2.74833 0
M  V30 10233 C 1360.27 9.07548 -1.32709 0
M  V30 10234 O 1359.21 8.62072 -0.606159 0
M  V30 10235 C 1361.49 8.25383 -0.938334 0
M  V30 10236 O 1362.23 8.74577 0.146954 0
M  V30 10237 C 1360.82 6.8802 -0.712559 0
M  V30 10238 O 1361.62 6.1189 0.194655 0
M  V30 10239 C 1359.48 7.27966 -0.139777 0
M  V30 10240 H 1359.51 7.25354 0.961601 0
M  V30 10241 H 1360.7 6.32557 -1.65702 0
M  V30 10242 H 1362.18 8.19355 -1.79097 0
M  V30 10243 H 1360.49 10.1294 -1.10029 0
M  V30 10244 H 1360.3 9.64276 -3.41316 0
M  V30 10245 H 1358.67 9.25417 -2.76357 0
M  V30 10246 H 1361.31 6.25267 1.07847 0
M  V30 10247 P 1363.16 8.791 1.10281e-11 0
M  V30 10248 O 1364.59 9.31096 0.027933 0
M  V30 10249 O 1362.8 7.77869 -1.04071 0
M  V30 10250 O 1362.84 8.09533 1.41463 0
M  V30 10251 C 1362.68 9.0349 2.53943 0
M  V30 10252 C 1363.22 8.35226 3.79016 0
M  V30 10253 O 1362.16 7.57992 4.15078 0
M  V30 10254 C 1364.44 7.45087 3.67298 0
M  V30 10255 O 1365.18 7.27796 4.85194 0
M  V30 10256 C 1363.77 6.17323 3.12027 0
M  V30 10257 O 1364.57 5.04231 3.47188 0
M  V30 10258 C 1362.43 6.19961 3.81809 0
M  V30 10259 H 1362.46 5.58218 4.73051 0
M  V30 10260 H 1363.65 6.21726 2.02589 0
M  V30 10261 H 1365.13 7.86112 2.9231 0
M  V30 10262 H 1363.44 9.11627 4.55076 0
M  V30 10263 H 1363.25 9.9573 2.34194 0
M  V30 10264 H 1361.62 9.2792 2.67832 0
M  V30 10265 H 1364.26 4.67702 4.28772 0
M  V30 10266 P 1366.11 7.39546 4.75277 0
M  V30 10267 O 1367.53 7.81861 5.05793 0
M  V30 10268 O 1365.75 7.1065 3.32998 0
M  V30 10269 O 1365.79 6.04542 5.56673 0
M  V30 10270 C 1365.63 6.22839 7.02169 0
M  V30 10271 C 1366.17 4.97725 7.70406 0
M  V30 10272 O 1365.12 4.13208 7.58899 0
M  V30 10273 C 1367.39 4.28231 7.11815 0
M  V30 10274 O 1368.13 3.49945 8.01648 0
M  V30 10275 C 1366.72 3.5063 5.96244 0
M  V30 10276 O 1367.52 2.37008 5.64352 0
M  V30 10277 C 1365.38 3.15122 6.56374 0
M  V30 10278 N 1364.34 3.22311 5.55692 0
M  V30 10279 C 1364.51 3.99655 4.46046 0
M  V30 10280 N 1363.48 3.97599 3.63918 0
M  V30 10281 C 1362.6 3.11159 4.25334 0
M  V30 10282 C 1361.33 2.64972 3.85157 0
M  V30 10283 N 1360.73 3.02132 2.69405 0
M  V30 10284 N 1360.76 1.78482 4.74759 0
M  V30 10285 C 1361.37 1.37463 5.90819 0
M  V30 10286 N 1362.54 1.7733 6.31889 0
M  V30 10287 C 1363.12 2.64393 5.43725 0
M  V30 10288 H 1365.41 2.13823 6.99656 0
M  V30 10289 H 1366.6 4.12931 5.06895 0
M  V30 10290 H 1368.08 5.03285 6.70911 0
M  V30 10291 H 1366.39 5.20001 8.76217 0
M  V30 10292 H 1366.2 7.11046 7.35349 0
M  V30 10293 H 1364.57 6.35815 7.26986 0
M  V30 10294 H 1360.83 0.66574 6.53015 0
M  V30 10295 H 1365.41 4.58037 4.27732 0
M  V30 10296 H 1359.8 2.64828 2.45331 0
M  V30 10297 H 1361.2 3.67472 2.05644 0
M  V30 10298 H 1367.21 1.61619 6.13468 0
M  V30 10299 P 1369.06 3.65191 7.99657 0
M  V30 10300 O 1370.49 3.8425 8.48115 0
M  V30 10301 O 1368.7 4.17805 6.64342 0
M  V30 10302 O 1368.74 2.07613 7.95143 0
M  V30 10303 C 1368.58 1.44328 9.27336 0
M  V30 10304 C 1369.12 0.0220036 9.17197 0
M  V30 10305 O 1368.07 -0.626867 8.61923 0
M  V30 10306 C 1370.34 -0.24586 8.30336 0
M  V30 10307 O 1371.08 -1.39011 8.63583 0
M  V30 10308 C 1369.67 -0.273849 6.91158 0
M  V30 10309 O 1370.47 -1.06348 6.02892 0
M  V30 10310 C 1368.33 -0.897649 7.22545 0
M  V30 10311 H 1368.37 -1.9841 7.04286 0
M  V30 10312 H 1369.55 0.739928 6.497 0
M  V30 10313 H 1371.03 0.60668 8.36503 0
M  V30 10314 H 1369.34 -0.352479 10.1829 0
M  V30 10315 H 1369.15 2.00611 10.0304 0
M  V30 10316 H 1367.52 1.41843 9.55327 0
M  V30 10317 H 1370.16 -1.95734 6.03555 0
M  V30 10318 P 1372.02 -1.25109 8.70152 0
M  V30 10319 O 1373.44 -1.35274 9.21221 0
M  V30 10320 O 1371.66 -0.0769065 7.84762 0
M  V30 10321 O 1371.69 -2.55232 7.81161 0
M  V30 10322 C 1371.53 -3.79939 8.58154 0
M  V30 10323 C 1372.07 -4.94023 7.72785 0
M  V30 10324 O 1371.02 -5.18726 6.91205 0
M  V30 10325 C 1373.29 -4.69597 6.85231 0
M  V30 10326 O 1374.03 -5.83832 6.51337 0
M  V30 10327 C 1372.62 -3.96706 5.66633 0
M  V30 10328 O 1373.42 -4.15414 4.49689 0
M  V30 10329 C 1371.28 -4.66153 5.59313 0
M  V30 10330 H 1371.32 -5.47679 4.85214 0
M  V30 10331 H 1372.5 -2.89008 5.86566 0
M  V30 10332 H 1373.98 -4.0121 7.36511 0
M  V30 10333 H 1372.29 -5.80182 8.37584 0
M  V30 10334 H 1372.1 -3.73517 9.52265 0
M  V30 10335 H 1370.47 -3.97163 8.80359 0
M  V30 10336 H 1373.11 -4.90969 4.01921 0
M  V30 10337 P 1374.97 -5.75688 6.64379 0
M  V30 10338 O 1376.39 -6.11981 7.01997 0
M  V30 10339 O 1374.61 -4.30744 6.56026 0
M  V30 10340 O 1374.64 -6.37042 5.19165 0
M  V30 10341 C 1374.48 -7.83578 5.16515 0
M  V30 10342 C 1375.02 -8.33307 3.82977 0
M  V30 10343 O 1373.97 -8.10074 3.01034 0
M  V30 10344 C 1376.24 -7.65514 3.2257 0
M  V30 10345 O 1376.98 -8.4329 2.32297 0
M  V30 10346 C 1375.57 -6.40075 2.62207 0
M  V30 10347 O 1376.37 -5.92492 1.53687 0
M  V30 10348 C 1374.23 -6.9454 2.18503 0
M  V30 10349 N 1373.19 -5.95905 2.39948 0
M  V30 10350 C 1373.25 -5.13994 3.44742 0
M  V30 10351 N 1372.21 -4.30684 3.46712 0
M  V30 10352 C 1371.47 -4.65583 2.41086 0
M  V30 10353 C 1370.17 -4.20877 1.99581 0
M  V30 10354 O 1369.44 -3.35913 2.52616 0
M  V30 10355 N 1369.74 -4.83271 0.873406 0
M  V30 10356 C 1370.49 -5.82006 0.185129 0
M  V30 10357 N 1369.89 -6.30619 -0.95439 0
M  V30 10358 N 1371.64 -6.28443 0.578524 0
M  V30 10359 C 1372.1 -5.68486 1.70138 0
M  V30 10360 H 1374.27 -7.23063 1.12091 0
M  V30 10361 H 1375.45 -5.60165 3.3715 0
M  V30 10362 H 1376.93 -7.3611 4.01946 0
M  V30 10363 H 1375.24 -9.40912 3.9095 0
M  V30 10364 H 1375.05 -8.29056 5.99158 0
M  V30 10365 H 1373.42 -8.10073 5.25882 0
M  V30 10366 H 1368.84 -4.58323 0.505262 0
M  V30 10367 H 1374.05 -5.14564 4.1935 0
M  V30 10368 H 1368.98 -5.93402 -1.25364 0
M  V30 10369 H 1370.36 -7.0425 -1.50254 0
M  V30 10370 H 1376.06 -6.30224 0.72668 0
M  V30 10371 P 1377.92 -8.4349 2.47671 0
M  V30 10372 O 1379.34 -8.94167 2.5964 0
M  V30 10373 O 1377.56 -7.1704 3.19006 0
M  V30 10374 O 1377.59 -8.16596 0.923387 0
M  V30 10375 C 1377.43 -9.38437 0.108857 0
M  V30 10376 C 1377.97 -9.08175 -1.28353 0
M  V30 10377 O 1376.92 -8.44229 -1.84713 0
M  V30 10378 C 1379.19 -8.18386 -1.42505 0
M  V30 10379 O 1379.93 -8.3501 -2.60497 0
M  V30 10380 C 1378.52 -6.80225 -1.25468 0
M  V30 10381 O 1379.32 -5.81621 -1.91066 0
M  V30 10382 C 1377.19 -7.02416 -1.9168 0
M  V30 10383 H 1377.22 -6.6888 -2.96621 0
M  V30 10384 H 1378.4 -6.53617 -0.192223 0
M  V30 10385 H 1379.88 -8.36622 -0.589963 0
M  V30 10386 H 1378.19 -10.0291 -1.79807 0
M  V30 10387 H 1378 -10.2138 0.558219 0
M  V30 10388 H 1376.37 -9.6579 0.0444202 0
M  V30 10389 H 1379.01 -5.69556 -2.79637 0
M  V30 10390 P 1380.87 -8.4349 -2.47671 0
M  V30 10391 O 1382.29 -8.92593 -2.65 0
M  V30 10392 O 1380.51 -7.7568 -1.19296 0
M  V30 10393 O 1380.54 -7.36886 -3.63805 0
M  V30 10394 C 1380.38 -7.95349 -4.982 0
M  V30 10395 C 1380.92 -6.94612 -5.98974 0
M  V30 10396 O 1379.87 -6.10347 -6.11815 0
M  V30 10397 C 1382.14 -6.11426 -5.62335 0
M  V30 10398 O 1382.88 -5.6162 -6.70584 0
M  V30 10399 C 1381.47 -5.04409 -4.73308 0
M  V30 10400 O 1382.27 -3.85992 -4.75183 0
M  V30 10401 C 1380.14 -4.8728 -5.41006 0
M  V30 10402 H 1380.17 -4.02333 -6.11157 0
M  V30 10403 H 1381.35 -5.39466 -3.69543 0
M  V30 10404 H 1382.83 -6.71916 -5.01943 0
M  V30 10405 H 1381.14 -7.4649 -6.93477 0
M  V30 10406 H 1380.95 -8.89416 -5.05237 0
M  V30 10407 H 1379.32 -8.14876 -5.18409 0
M  V30 10408 H 1381.96 -3.27957 -5.4317 0
M  V30 10409 P 1383.82 -5.75688 -6.64379 0
M  V30 10410 O 1385.24 -6.07627 -7.05504 0
M  V30 10411 O 1383.46 -5.88047 -5.19722 0
M  V30 10412 O 1383.49 -4.2322 -7.04443 0
M  V30 10413 C 1383.33 -3.99743 -8.4911 0
M  V30 10414 C 1383.87 -2.60516 -8.79425 0
M  V30 10415 O 1382.82 -1.82684 -8.4467 0
M  V30 10416 C 1385.09 -2.10343 -8.03628 0
M  V30 10417 O 1385.83 -1.09919 -8.67766 0
M  V30 10418 C 1384.42 -1.68446 -6.70876 0
M  V30 10419 O 1385.22 -0.678137 -6.08433 0
M  V30 10420 C 1383.09 -1.17436 -7.18567 0
M  V30 10421 H 1383.12 -0.0804732 -7.31656 0
M  V30 10422 H 1384.3 -2.54037 -6.02537 0
M  V30 10423 H 1385.79 -2.93881 -7.85526 0
M  V30 10424 H 1384.09 -2.53065 -9.86973 0
M  V30 10425 H 1383.9 -4.75072 -9.05887 0
M  V30 10426 H 1382.27 -4.05244 -8.76668 0
M  V30 10427 H 1384.91 0.177647 -6.34251 0
M  V30 10428 P 1386.77 -1.25109 -8.70152 0
M  V30 10429 O 1388.19 -1.29744 -9.22016 0
M  V30 10430 O 1386.41 -2.13714 -7.55141 0
M  V30 10431 O 1386.44 0.248149 -8.21425 0
M  V30 10432 C 1386.28 1.22779 -9.30434 0
M  V30 10433 C 1386.82 2.56293 -8.80664 0
M  V30 10434 O 1385.77 3.02979 -8.09349 0
M  V30 10435 C 1388.04 2.57523 -7.89775 0
M  V30 10436 O 1388.78 3.7668 -7.89438 0
M  V30 10437 C 1387.37 2.20997 -6.55446 0
M  V30 10438 O 1388.17 2.71895 -5.48509 0
M  V30 10439 C 1386.04 2.89693 -6.67988 0
M  V30 10440 H 1386.07 3.88793 -6.19859 0
M  V30 10441 H 1387.25 1.12046 -6.44229 0
M  V30 10442 H 1388.74 1.7746 -8.19711 0
M  V30 10443 H 1387.04 3.20706 -9.67112 0
M  V30 10444 H 1386.85 0.901032 -10.1892 0
M  V30 10445 H 1385.22 1.33049 -9.56592 0
M  V30 10446 H 1387.86 3.57847 -5.23962 0
M  V30 10447 P 1389.72 3.65191 -7.99657 0
M  V30 10448 O 1391.14 3.89332 -8.45794 0
M  V30 10449 O 1389.36 2.28472 -7.50807 0
M  V30 10450 O 1389.4 4.64972 -6.77611 0
M  V30 10451 C 1389.24 6.06319 -7.16352 0
M  V30 10452 C 1389.78 6.91731 -6.02299 0
M  V30 10453 O 1388.72 6.92449 -5.17064 0
M  V30 10454 C 1390.99 6.43627 -5.25174 0
M  V30 10455 O 1391.73 7.43686 -4.60469 0
M  V30 10456 C 1390.32 5.40275 -4.31916 0
M  V30 10457 O 1391.12 5.25279 -3.14438 0
M  V30 10458 C 1388.99 6.04847 -4.05327 0
M  V30 10459 H 1389.02 6.62195 -3.11261 0
M  V30 10460 H 1390.2 4.42556 -4.81383 0
M  V30 10461 H 1391.69 5.92458 -5.93643 0
M  V30 10462 H 1389.99 7.92655 -6.402 0
M  V30 10463 H 1389.8 6.26671 -8.0846 0
M  V30 10464 H 1388.17 6.29101 -7.32804 0
M  V30 10465 H 1390.81 5.84315 -2.47318 0
M  V30 10466 P 1392.67 7.39546 -4.75277 0
M  V30 10467 O 1394.09 7.84798 -5.01039 0
M  V30 10468 O 1392.31 5.9812 -5.08098 0
M  V30 10469 O 1392.35 7.57503 -3.1866 0
M  V30 10470 C 1392.19 8.97357 -2.74833 0
M  V30 10471 C 1392.73 9.07548 -1.32709 0
M  V30 10472 O 1391.67 8.62072 -0.606159 0
M  V30 10473 C 1393.94 8.25383 -0.938334 0
M  V30 10474 O 1394.68 8.74577 0.146954 0
M  V30 10475 C 1393.28 6.8802 -0.712559 0
M  V30 10476 O 1394.07 6.1189 0.194655 0
M  V30 10477 C 1391.94 7.27966 -0.139777 0
M  V30 10478 H 1391.97 7.25354 0.961601 0
M  V30 10479 H 1393.15 6.32557 -1.65702 0
M  V30 10480 H 1394.64 8.19355 -1.79097 0
M  V30 10481 H 1392.94 10.1294 -1.10029 0
M  V30 10482 H 1392.75 9.64276 -3.41316 0
M  V30 10483 H 1391.12 9.25417 -2.76357 0
M  V30 10484 H 1393.76 6.25267 1.07847 0
M  V30 10485 P 1395.62 8.791 1.13383e-11 0
M  V30 10486 O 1397.04 9.31296 0.027939 0
M  V30 10487 O 1395.26 7.77869 -1.04071 0
M  V30 10488 O 1395.3 8.09533 1.41463 0
M  V30 10489 C 1395.14 9.0349 2.53943 0
M  V30 10490 C 1395.68 8.35135 3.78975 0
M  V30 10491 O 1394.62 7.57992 4.15078 0
M  V30 10492 C 1396.89 7.45087 3.67298 0
M  V30 10493 O 1397.63 7.27796 4.85194 0
M  V30 10494 C 1396.23 6.17323 3.12027 0
M  V30 10495 O 1397.02 5.04149 3.47132 0
M  V30 10496 C 1394.89 6.19961 3.81809 0
M  V30 10497 N 1393.85 5.71575 2.93223 0
M  V30 10498 C 1393.91 5.97133 1.62693 0
M  V30 10499 N 1392.86 5.44066 0.984414 0
M  V30 10500 C 1392.13 4.87093 1.93987 0
M  V30 10501 C 1390.82 4.26449 1.8738 0
M  V30 10502 O 1390.09 4.1089 0.884377 0
M  V30 10503 N 1390.39 3.82483 3.08036 0
M  V30 10504 C 1391.14 3.95124 4.27727 0
M  V30 10505 N 1390.54 3.4084 5.39089 0
M  V30 10506 N 1392.29 4.55264 4.3706 0
M  V30 10507 C 1392.75 5.00861 3.18217 0
M  V30 10508 H 1394.92 5.58218 4.73051 0
M  V30 10509 H 1396.1 6.21631 2.02558 0
M  V30 10510 H 1397.59 7.85819 2.93096 0
M  V30 10511 H 1395.89 9.11627 4.55076 0
M  V30 10512 H 1395.7 9.9573 2.34194 0
M  V30 10513 H 1394.07 9.2792 2.67832 0
M  V30 10514 H 1389.5 3.38323 3.1329 0
M  V30 10515 H 1394.7 6.53891 1.14265 0
M  V30 10516 H 1389.63 2.93852 5.30559 0
M  V30 10517 H 1391.01 3.47631 6.30632 0
M  V30 10518 H 1396.71 4.67628 4.28704 0
M  V30 10519 P 1398.57 7.39546 4.75277 0
M  V30 10520 O 1399.99 7.81777 5.05738 0
M  V30 10521 O 1398.21 7.1065 3.32998 0
M  V30 10522 O 1398.25 6.04542 5.56673 0
M  V30 10523 C 1398.09 6.22772 7.02095 0
M  V30 10524 C 1398.63 4.97725 7.70406 0
M  V30 10525 O 1397.57 4.13256 7.58987 0
M  V30 10526 C 1399.85 4.28231 7.11815 0
M  V30 10527 O 1400.58 3.49945 8.01648 0
M  V30 10528 C 1399.18 3.5063 5.96244 0
M  V30 10529 O 1399.98 2.36482 5.64681 0
M  V30 10530 C 1397.84 3.15122 6.56374 0
M  V30 10531 H 1397.87 2.13853 6.99751 0
M  V30 10532 H 1399.05 4.13501 5.06559 0
M  V30 10533 H 1400.54 5.03285 6.70911 0
M  V30 10534 H 1398.84 5.20877 8.75697 0
M  V30 10535 H 1398.65 7.11046 7.35349 0
M  V30 10536 H 1397.02 6.35815 7.26986 0
M  V30 10537 H 1399.66 1.61644 6.13565 0
M  V30 10538 P 1401.52 3.65191 7.99657 0
M  V30 10539 O 1402.94 3.8425 8.48115 0
M  V30 10540 O 1401.16 4.17805 6.64342 0
M  V30 10541 O 1401.2 2.07613 7.95143 0
M  V30 10542 C 1401.04 1.44328 9.27336 0
M  V30 10543 C 1401.58 0.0220036 9.17197 0
M  V30 10544 O 1400.52 -0.626867 8.61923 0
M  V30 10545 C 1402.8 -0.24586 8.30336 0
M  V30 10546 O 1403.53 -1.39011 8.63583 0
M  V30 10547 C 1402.13 -0.273849 6.91158 0
M  V30 10548 O 1402.93 -1.06348 6.02892 0
M  V30 10549 C 1400.79 -0.897649 7.22545 0
M  V30 10550 H 1400.82 -1.9841 7.04286 0
M  V30 10551 H 1402 0.739928 6.497 0
M  V30 10552 H 1403.49 0.60668 8.36503 0
M  V30 10553 H 1401.79 -0.352479 10.1829 0
M  V30 10554 H 1401.6 2.00611 10.0304 0
M  V30 10555 H 1399.97 1.41843 9.55327 0
M  V30 10556 H 1402.61 -1.95734 6.03555 0
M  V30 10557 P 1404.47 -1.25109 8.70152 0
M  V30 10558 O 1405.89 -1.35274 9.21221 0
M  V30 10559 O 1404.11 -0.0769065 7.84762 0
M  V30 10560 O 1404.15 -2.55232 7.81161 0
M  V30 10561 C 1403.99 -3.79939 8.58154 0
M  V30 10562 C 1404.53 -4.94023 7.72785 0
M  V30 10563 O 1403.47 -5.18726 6.91205 0
M  V30 10564 C 1405.75 -4.69597 6.85231 0
M  V30 10565 O 1406.48 -5.83832 6.51337 0
M  V30 10566 C 1405.08 -3.96706 5.66633 0
M  V30 10567 O 1405.88 -4.15414 4.49689 0
M  V30 10568 C 1403.74 -4.66153 5.59313 0
M  V30 10569 H 1403.77 -5.47679 4.85214 0
M  V30 10570 H 1404.96 -2.89008 5.86566 0
M  V30 10571 H 1406.44 -4.0121 7.36511 0
M  V30 10572 H 1404.75 -5.80182 8.37584 0
M  V30 10573 H 1404.56 -3.73517 9.52265 0
M  V30 10574 H 1402.93 -3.97163 8.80359 0
M  V30 10575 H 1405.56 -4.90969 4.01921 0
M  V30 10576 P 1407.42 -5.75688 6.64379 0
M  V30 10577 O 1408.84 -6.11849 7.01846 0
M  V30 10578 O 1407.06 -4.30744 6.56026 0
M  V30 10579 O 1407.1 -6.37042 5.19165 0
M  V30 10580 C 1406.94 -7.83578 5.16515 0
M  V30 10581 C 1407.48 -8.33398 3.83019 0
M  V30 10582 O 1406.42 -8.10074 3.01034 0
M  V30 10583 C 1408.7 -7.65514 3.2257 0
M  V30 10584 O 1409.43 -8.4329 2.32297 0
M  V30 10585 C 1408.03 -6.40075 2.62207 0
M  V30 10586 O 1408.83 -5.92589 1.53712 0
M  V30 10587 C 1406.69 -6.9454 2.18503 0
M  V30 10588 H 1406.72 -7.23063 1.12091 0
M  V30 10589 H 1407.91 -5.6025 3.37201 0
M  V30 10590 H 1409.39 -7.35707 4.02681 0
M  V30 10591 H 1407.7 -9.40912 3.9095 0
M  V30 10592 H 1407.51 -8.29056 5.99158 0
M  V30 10593 H 1405.88 -8.10073 5.25882 0
M  V30 10594 H 1408.51 -6.30324 0.726794 0
M  V30 10595 P 1410.37 -8.4349 2.47671 0
M  V30 10596 O 1411.79 -8.94263 2.59668 0
M  V30 10597 O 1410.01 -7.1704 3.19006 0
M  V30 10598 O 1410.05 -8.16596 0.923387 0
M  V30 10599 C 1409.89 -9.38537 0.108869 0
M  V30 10600 C 1410.43 -9.08175 -1.28353 0
M  V30 10601 O 1409.37 -8.44131 -1.84692 0
M  V30 10602 C 1411.65 -8.18386 -1.42505 0
M  V30 10603 O 1412.39 -8.3501 -2.60497 0
M  V30 10604 C 1410.98 -6.80225 -1.25468 0
M  V30 10605 O 1411.78 -5.81716 -1.90454 0
M  V30 10606 C 1409.64 -7.02416 -1.9168 0
M  V30 10607 N 1408.6 -6.31033 -1.20314 0
M  V30 10608 C 1408.77 -5.98817 0.0994088 0
M  V30 10609 N 1407.74 -5.35403 0.621694 0
M  V30 10610 C 1406.86 -5.25212 -0.43376 0
M  V30 10611 C 1405.59 -4.64602 -0.519722 0
M  V30 10612 N 1405.02 -4.7568 -1.76013 0
M  V30 10613 C 1405.63 -5.3653 -2.83017 0
M  V30 10614 N 1406.8 -5.93676 -2.79782 0
M  V30 10615 C 1407.38 -5.84061 -1.56249 0
M  V30 10616 H 1410.86 -6.53498 -0.198729 0
M  V30 10617 H 1412.34 -8.36622 -0.589963 0
M  V30 10618 H 1410.65 -10.0273 -1.8081 0
M  V30 10619 H 1410.46 -10.2138 0.558219 0
M  V30 10620 H 1408.83 -9.6579 0.0444202 0
M  V30 10621 H 1409.67 -6.23209 0.660562 0
M  V30 10622 H 1411.47 -5.69466 -2.79593 0
M  V30 10623 P 1413.32 -8.4349 -2.47671 0
M  V30 10624 O 1414.75 -8.92593 -2.65 0
M  V30 10625 O 1412.96 -7.7568 -1.19296 0
M  V30 10626 O 1413 -7.36886 -3.63805 0
M  V30 10627 C 1412.84 -7.95349 -4.982 0
M  V30 10628 C 1413.38 -6.94612 -5.98974 0
M  V30 10629 O 1412.32 -6.10347 -6.11815 0
M  V30 10630 C 1414.6 -6.11426 -5.62335 0
M  V30 10631 O 1415.34 -5.6162 -6.70584 0
M  V30 10632 C 1413.93 -5.04409 -4.73308 0
M  V30 10633 O 1414.73 -3.85992 -4.75183 0
M  V30 10634 C 1412.59 -4.8728 -5.41006 0
M  V30 10635 H 1412.62 -4.02333 -6.11157 0
M  V30 10636 H 1413.81 -5.39466 -3.69543 0
M  V30 10637 H 1415.29 -6.71916 -5.01943 0
M  V30 10638 H 1413.6 -7.4649 -6.93477 0
M  V30 10639 H 1413.41 -8.89416 -5.05237 0
M  V30 10640 H 1411.78 -8.14876 -5.18409 0
M  V30 10641 H 1414.42 -3.27957 -5.4317 0
M  V30 10642 P 1416.27 -5.75688 -6.64379 0
M  V30 10643 O 1417.7 -6.07627 -7.05504 0
M  V30 10644 O 1415.91 -5.88047 -5.19722 0
M  V30 10645 O 1415.95 -4.2322 -7.04443 0
M  V30 10646 C 1415.79 -3.99743 -8.4911 0
M  V30 10647 C 1416.33 -2.60516 -8.79425 0
M  V30 10648 O 1415.27 -1.82684 -8.4467 0
M  V30 10649 C 1417.55 -2.10343 -8.03628 0
M  V30 10650 O 1418.29 -1.09919 -8.67766 0
M  V30 10651 C 1416.88 -1.68446 -6.70876 0
M  V30 10652 O 1417.68 -0.678137 -6.08433 0
M  V30 10653 C 1415.54 -1.17436 -7.18567 0
M  V30 10654 H 1415.57 -0.0804732 -7.31656 0
M  V30 10655 H 1416.76 -2.54037 -6.02537 0
M  V30 10656 H 1418.24 -2.93881 -7.85526 0
M  V30 10657 H 1416.55 -2.53065 -9.86973 0
M  V30 10658 H 1416.36 -4.75072 -9.05887 0
M  V30 10659 H 1414.73 -4.05244 -8.76668 0
M  V30 10660 H 1417.37 0.177647 -6.34251 0
M  V30 10661 P 1419.22 -1.25109 -8.70152 0
M  V30 10662 O 1420.65 -1.29744 -9.22016 0
M  V30 10663 O 1418.86 -2.13714 -7.55141 0
M  V30 10664 O 1418.9 0.248149 -8.21425 0
M  V30 10665 C 1418.74 1.22779 -9.30434 0
M  V30 10666 C 1419.28 2.56293 -8.80664 0
M  V30 10667 O 1418.23 3.02979 -8.09349 0
M  V30 10668 C 1420.5 2.57523 -7.89775 0
M  V30 10669 O 1421.24 3.7668 -7.89438 0
M  V30 10670 C 1419.83 2.20997 -6.55446 0
M  V30 10671 O 1420.63 2.71895 -5.48509 0
M  V30 10672 C 1418.49 2.89693 -6.67988 0
M  V30 10673 H 1418.53 3.88793 -6.19859 0
M  V30 10674 H 1419.71 1.12046 -6.44229 0
M  V30 10675 H 1421.19 1.7746 -8.19711 0
M  V30 10676 H 1419.5 3.20706 -9.67112 0
M  V30 10677 H 1419.31 0.901032 -10.1892 0
M  V30 10678 H 1417.68 1.33049 -9.56592 0
M  V30 10679 H 1420.32 3.57847 -5.23962 0
M  V30 10680 P 1422.17 3.65191 -7.99657 0
M  V30 10681 O 1423.6 3.89332 -8.45794 0
M  V30 10682 O 1421.81 2.28472 -7.50807 0
M  V30 10683 O 1421.85 4.64972 -6.77611 0
M  V30 10684 C 1421.69 6.06319 -7.16352 0
M  V30 10685 C 1422.23 6.91731 -6.02299 0
M  V30 10686 O 1421.18 6.92449 -5.17064 0
M  V30 10687 C 1423.45 6.43627 -5.25174 0
M  V30 10688 O 1424.19 7.43686 -4.60469 0
M  V30 10689 C 1422.78 5.40275 -4.31916 0
M  V30 10690 O 1423.58 5.25279 -3.14438 0
M  V30 10691 C 1421.44 6.04847 -4.05327 0
M  V30 10692 H 1421.48 6.62195 -3.11261 0
M  V30 10693 H 1422.66 4.42556 -4.81383 0
M  V30 10694 H 1424.14 5.92458 -5.93643 0
M  V30 10695 H 1422.45 7.92655 -6.402 0
M  V30 10696 H 1422.26 6.26671 -8.0846 0
M  V30 10697 H 1420.63 6.29101 -7.32804 0
M  V30 10698 H 1423.27 5.84315 -2.47318 0
M  V30 10699 P 1425.13 7.39546 -4.75277 0
M  V30 10700 O 1426.55 7.84882 -5.01092 0
M  V30 10701 O 1424.77 5.9812 -5.08098 0
M  V30 10702 O 1424.8 7.57503 -3.1866 0
M  V30 10703 C 1424.64 8.97452 -2.74862 0
M  V30 10704 C 1425.18 9.07548 -1.32709 0
M  V30 10705 O 1424.13 8.61972 -0.606089 0
M  V30 10706 C 1426.4 8.25383 -0.938334 0
M  V30 10707 O 1427.14 8.74577 0.146954 0
M  V30 10708 C 1425.73 6.8802 -0.712559 0
M  V30 10709 O 1426.53 6.1181 0.188505 0
M  V30 10710 C 1424.39 7.27966 -0.139777 0
M  V30 10711 N 1423.35 6.39368 -0.623421 0
M  V30 10712 C 1423.52 5.71761 -1.78245 0
M  V30 10713 N 1422.49 4.962 -2.10491 0
M  V30 10714 C 1421.61 5.16158 -1.0635 0
M  V30 10715 C 1420.34 4.60425 -0.810266 0
M  V30 10716 N 1419.78 5.06 0.348685 0
M  V30 10717 C 1420.38 5.94532 1.20395 0
M  V30 10718 N 1421.56 6.48452 1.01191 0
M  V30 10719 C 1422.13 6.04423 -0.146291 0
M  V30 10720 H 1425.61 6.32625 -1.65044 0
M  V30 10721 H 1427.09 8.19355 -1.79097 0
M  V30 10722 H 1425.4 10.1305 -1.09016 0
M  V30 10723 H 1425.21 9.64276 -3.41316 0
M  V30 10724 H 1423.58 9.25417 -2.76357 0
M  V30 10725 H 1424.42 5.79354 -2.38959 0
M  V30 10726 H 1426.22 6.25169 1.0783 0
M  V30 10727 P 1428.08 8.791 1.16485e-11 0
M  V30 10728 O 1429.5 9.31096 0.027933 0
M  V30 10729 O 1427.72 7.77869 -1.04071 0
M  V30 10730 O 1427.75 8.09533 1.41463 0
M  V30 10731 C 1427.59 9.0349 2.53943 0
M  V30 10732 C 1428.13 8.35226 3.79016 0
M  V30 10733 O 1427.08 7.57992 4.15078 0
M  V30 10734 C 1429.35 7.45087 3.67298 0
M  V30 10735 O 1430.09 7.27796 4.85194 0
M  V30 10736 C 1428.68 6.17323 3.12027 0
M  V30 10737 O 1429.48 5.04231 3.47188 0
M  V30 10738 C 1427.34 6.19961 3.81809 0
M  V30 10739 H 1427.38 5.58218 4.73051 0
M  V30 10740 H 1428.56 6.21726 2.02589 0
M  V30 10741 H 1430.04 7.86112 2.9231 0
M  V30 10742 H 1428.35 9.11627 4.55076 0
M  V30 10743 H 1428.16 9.9573 2.34194 0
M  V30 10744 H 1426.53 9.2792 2.67832 0
M  V30 10745 H 1429.17 4.67702 4.28772 0
M  V30 10746 P 1431.03 7.39546 4.75277 0
M  V30 10747 O 1432.45 7.81777 5.05738 0
M  V30 10748 O 1430.67 7.1065 3.32998 0
M  V30 10749 O 1430.7 6.04542 5.56673 0
M  V30 10750 C 1430.54 6.22772 7.02095 0
M  V30 10751 C 1431.08 4.97725 7.70406 0
M  V30 10752 O 1430.03 4.13256 7.58987 0
M  V30 10753 C 1432.3 4.28231 7.11815 0
M  V30 10754 O 1433.04 3.49945 8.01648 0
M  V30 10755 C 1431.63 3.5063 5.96244 0
M  V30 10756 O 1432.43 2.36482 5.64681 0
M  V30 10757 C 1430.3 3.15122 6.56374 0
M  V30 10758 H 1430.33 2.13853 6.99751 0
M  V30 10759 H 1431.51 4.13501 5.06559 0
M  V30 10760 H 1432.99 5.03285 6.70911 0
M  V30 10761 H 1431.3 5.20877 8.75697 0
M  V30 10762 H 1431.11 7.11046 7.35349 0
M  V30 10763 H 1429.48 6.35815 7.26986 0
M  V30 10764 H 1432.12 1.61644 6.13565 0
M  V30 10765 P 1433.98 3.65191 7.99657 0
M  V30 10766 O 1435.4 3.8425 8.48115 0
M  V30 10767 O 1433.62 4.17805 6.64342 0
M  V30 10768 O 1433.65 2.07613 7.95143 0
M  V30 10769 C 1433.49 1.44328 9.27336 0
M  V30 10770 C 1434.03 0.0220036 9.17197 0
M  V30 10771 O 1432.98 -0.626867 8.61923 0
M  V30 10772 C 1435.25 -0.24586 8.30336 0
M  V30 10773 O 1435.99 -1.39011 8.63583 0
M  V30 10774 C 1434.58 -0.273849 6.91158 0
M  V30 10775 O 1435.38 -1.06348 6.02892 0
M  V30 10776 C 1433.25 -0.897649 7.22545 0
M  V30 10777 H 1433.28 -1.9841 7.04286 0
M  V30 10778 H 1434.46 0.739928 6.497 0
M  V30 10779 H 1435.95 0.60668 8.36503 0
M  V30 10780 H 1434.25 -0.352479 10.1829 0
M  V30 10781 H 1434.06 2.00611 10.0304 0
M  V30 10782 H 1432.43 1.41843 9.55327 0
M  V30 10783 H 1435.07 -1.95734 6.03555 0
M  V30 10784 P 1436.93 -1.25109 8.70152 0
M  V30 10785 O 1438.35 -1.35274 9.21221 0
M  V30 10786 O 1436.57 -0.0769065 7.84762 0
M  V30 10787 O 1436.6 -2.55232 7.81161 0
M  V30 10788 C 1436.44 -3.79939 8.58154 0
M  V30 10789 C 1436.98 -4.94023 7.72785 0
M  V30 10790 O 1435.93 -5.18726 6.91205 0
M  V30 10791 C 1438.2 -4.69597 6.85231 0
M  V30 10792 O 1438.94 -5.83832 6.51337 0
M  V30 10793 C 1437.53 -3.96706 5.66633 0
M  V30 10794 O 1438.33 -4.15414 4.49689 0
M  V30 10795 C 1436.2 -4.66153 5.59313 0
M  V30 10796 H 1436.23 -5.47679 4.85214 0
M  V30 10797 H 1437.41 -2.89008 5.86566 0
M  V30 10798 H 1438.9 -4.0121 7.36511 0
M  V30 10799 H 1437.2 -5.80182 8.37584 0
M  V30 10800 H 1437.01 -3.73517 9.52265 0
M  V30 10801 H 1435.38 -3.97163 8.80359 0
M  V30 10802 H 1438.02 -4.90969 4.01921 0
M  V30 10803 P 1439.88 -5.75688 6.64379 0
M  V30 10804 O 1441.3 -6.11849 7.01846 0
M  V30 10805 O 1439.52 -4.30744 6.56026 0
M  V30 10806 O 1439.56 -6.37042 5.19165 0
M  V30 10807 C 1439.4 -7.83578 5.16515 0
M  V30 10808 C 1439.94 -8.33398 3.83019 0
M  V30 10809 O 1438.88 -8.10074 3.01034 0
M  V30 10810 C 1441.15 -7.65514 3.2257 0
M  V30 10811 O 1441.89 -8.4329 2.32297 0
M  V30 10812 C 1440.48 -6.40075 2.62207 0
M  V30 10813 O 1441.28 -5.92589 1.53712 0
M  V30 10814 C 1439.15 -6.9454 2.18503 0
M  V30 10815 H 1439.18 -7.23063 1.12091 0
M  V30 10816 H 1440.36 -5.6025 3.37201 0
M  V30 10817 H 1441.85 -7.35707 4.02681 0
M  V30 10818 H 1440.15 -9.40912 3.9095 0
M  V30 10819 H 1439.96 -8.29056 5.99158 0
M  V30 10820 H 1438.33 -8.10073 5.25882 0
M  V30 10821 H 1440.97 -6.30324 0.726794 0
M  V30 10822 P 1442.83 -8.4349 2.47671 0
M  V30 10823 O 1444.25 -8.94263 2.59668 0
M  V30 10824 O 1442.47 -7.1704 3.19006 0
M  V30 10825 O 1442.51 -8.16596 0.923387 0
M  V30 10826 C 1442.34 -9.38537 0.108869 0
M  V30 10827 C 1442.89 -9.08175 -1.28353 0
M  V30 10828 O 1441.83 -8.44131 -1.84692 0
M  V30 10829 C 1444.1 -8.18386 -1.42505 0
M  V30 10830 O 1444.84 -8.3501 -2.60497 0
M  V30 10831 C 1443.44 -6.80225 -1.25468 0
M  V30 10832 O 1444.23 -5.81716 -1.90454 0
M  V30 10833 C 1442.1 -7.02416 -1.9168 0
M  V30 10834 N 1441.05 -6.31033 -1.20314 0
M  V30 10835 C 1441.22 -5.98817 0.0994088 0
M  V30 10836 N 1440.2 -5.35403 0.621694 0
M  V30 10837 C 1439.31 -5.25212 -0.43376 0
M  V30 10838 C 1438.04 -4.64602 -0.519722 0
M  V30 10839 N 1437.48 -4.7568 -1.76013 0
M  V30 10840 C 1438.08 -5.3653 -2.83017 0
M  V30 10841 N 1439.26 -5.93676 -2.79782 0
M  V30 10842 C 1439.83 -5.84061 -1.56249 0
M  V30 10843 H 1443.31 -6.53498 -0.198729 0
M  V30 10844 H 1444.8 -8.36622 -0.589963 0
M  V30 10845 H 1443.1 -10.0273 -1.8081 0
M  V30 10846 H 1442.91 -10.2138 0.558219 0
M  V30 10847 H 1441.28 -9.6579 0.0444202 0
M  V30 10848 H 1442.12 -6.23209 0.660562 0
M  V30 10849 H 1443.92 -5.69466 -2.79593 0
M  V30 10850 P 1445.78 -8.4349 -2.47671 0
M  V30 10851 O 1447.2 -8.92689 -2.65029 0
M  V30 10852 O 1445.42 -7.7568 -1.19296 0
M  V30 10853 O 1445.46 -7.36886 -3.63805 0
M  V30 10854 C 1445.3 -7.95433 -4.98253 0
M  V30 10855 C 1445.84 -6.94612 -5.98974 0
M  V30 10856 O 1444.78 -6.10277 -6.11744 0
M  V30 10857 C 1447.05 -6.11426 -5.62335 0
M  V30 10858 O 1447.79 -5.6162 -6.70584 0
M  V30 10859 C 1446.39 -5.04409 -4.73308 0
M  V30 10860 O 1447.18 -3.86404 -4.74719 0
M  V30 10861 C 1445.05 -4.8728 -5.41006 0
M  V30 10862 N 1444.01 -4.65812 -4.42377 0
M  V30 10863 C 1444.17 -5.09132 -3.15382 0
M  V30 10864 N 1443.15 -4.84021 -2.3716 0
M  V30 10865 C 1442.26 -4.18386 -3.20441 0
M  V30 10866 C 1441 -3.6275 -2.94905 0
M  V30 10867 N 1440.43 -3.05008 -4.05243 0
M  V30 10868 C 1441.03 -2.98348 -5.28159 0
M  V30 10869 N 1442.21 -3.48171 -5.56333 0
M  V30 10870 C 1442.78 -4.06869 -4.47212 0
M  V30 10871 H 1446.26 -5.39013 -3.70026 0
M  V30 10872 H 1447.75 -6.71916 -5.01943 0
M  V30 10873 H 1446.05 -7.45796 -6.94223 0
M  V30 10874 H 1445.86 -8.89416 -5.05237 0
M  V30 10875 H 1444.23 -8.14876 -5.18409 0
M  V30 10876 H 1445.07 -5.59989 -2.81362 0
M  V30 10877 H 1446.87 -3.27906 -5.43085 0
M  V30 10878 P 1448.73 -5.75688 -6.64379 0
M  V30 10879 O 1450.15 -6.07627 -7.05504 0
M  V30 10880 O 1448.37 -5.88047 -5.19722 0
M  V30 10881 O 1448.41 -4.2322 -7.04443 0
M  V30 10882 C 1448.25 -3.99743 -8.4911 0
M  V30 10883 C 1448.79 -2.60516 -8.79425 0
M  V30 10884 O 1447.73 -1.82684 -8.4467 0
M  V30 10885 C 1450 -2.10343 -8.03628 0
M  V30 10886 O 1450.74 -1.09919 -8.67766 0
M  V30 10887 C 1449.34 -1.68446 -6.70876 0
M  V30 10888 O 1450.13 -0.678137 -6.08433 0
M  V30 10889 C 1448 -1.17436 -7.18567 0
M  V30 10890 H 1448.03 -0.0804732 -7.31656 0
M  V30 10891 H 1449.21 -2.54037 -6.02537 0
M  V30 10892 H 1450.7 -2.93881 -7.85526 0
M  V30 10893 H 1449 -2.53065 -9.86973 0
M  V30 10894 H 1448.81 -4.75072 -9.05887 0
M  V30 10895 H 1447.18 -4.05244 -8.76668 0
M  V30 10896 H 1449.82 0.177647 -6.34251 0
M  V30 10897 P 1451.68 -1.25109 -8.70152 0
M  V30 10898 O 1453.1 -1.29744 -9.22016 0
M  V30 10899 O 1451.32 -2.13714 -7.55141 0
M  V30 10900 O 1451.36 0.248149 -8.21425 0
M  V30 10901 C 1451.2 1.22779 -9.30434 0
M  V30 10902 C 1451.74 2.56293 -8.80664 0
M  V30 10903 O 1450.68 3.02979 -8.09349 0
M  V30 10904 C 1452.96 2.57523 -7.89775 0
M  V30 10905 O 1453.69 3.7668 -7.89438 0
M  V30 10906 C 1452.29 2.20997 -6.55446 0
M  V30 10907 O 1453.09 2.71895 -5.48509 0
M  V30 10908 C 1450.95 2.89693 -6.67988 0
M  V30 10909 H 1450.98 3.88793 -6.19859 0
M  V30 10910 H 1452.16 1.12046 -6.44229 0
M  V30 10911 H 1453.65 1.7746 -8.19711 0
M  V30 10912 H 1451.95 3.20706 -9.67112 0
M  V30 10913 H 1451.76 0.901032 -10.1892 0
M  V30 10914 H 1450.13 1.33049 -9.56592 0
M  V30 10915 H 1452.77 3.57847 -5.23962 0
M  V30 10916 P 1454.63 3.65191 -7.99657 0
M  V30 10917 O 1456.05 3.89332 -8.45794 0
M  V30 10918 O 1454.27 2.28472 -7.50807 0
M  V30 10919 O 1454.31 4.64972 -6.77611 0
M  V30 10920 C 1454.15 6.06319 -7.16352 0
M  V30 10921 C 1454.69 6.91731 -6.02299 0
M  V30 10922 O 1453.63 6.92449 -5.17064 0
M  V30 10923 C 1455.91 6.43627 -5.25174 0
M  V30 10924 O 1456.64 7.43686 -4.60469 0
M  V30 10925 C 1455.24 5.40275 -4.31916 0
M  V30 10926 O 1456.04 5.25279 -3.14438 0
M  V30 10927 C 1453.9 6.04847 -4.05327 0
M  V30 10928 H 1453.93 6.62195 -3.11261 0
M  V30 10929 H 1455.12 4.42556 -4.81383 0
M  V30 10930 H 1456.6 5.92458 -5.93643 0
M  V30 10931 H 1454.91 7.92655 -6.402 0
M  V30 10932 H 1454.72 6.26671 -8.0846 0
M  V30 10933 H 1453.09 6.29101 -7.32804 0
M  V30 10934 H 1455.72 5.84315 -2.47318 0
M  V30 10935 P 1457.58 7.39546 -4.75277 0
M  V30 10936 O 1459 7.84798 -5.01039 0
M  V30 10937 O 1457.22 5.9812 -5.08098 0
M  V30 10938 O 1457.26 7.57503 -3.1866 0
M  V30 10939 C 1457.1 8.97357 -2.74833 0
M  V30 10940 C 1457.64 9.07548 -1.32709 0
M  V30 10941 O 1456.58 8.62072 -0.606159 0
M  V30 10942 C 1458.86 8.25383 -0.938334 0
M  V30 10943 O 1459.59 8.74577 0.146954 0
M  V30 10944 C 1458.19 6.8802 -0.712559 0
M  V30 10945 O 1458.99 6.1189 0.194655 0
M  V30 10946 C 1456.85 7.27966 -0.139777 0
M  V30 10947 H 1456.88 7.25354 0.961601 0
M  V30 10948 H 1458.07 6.32557 -1.65702 0
M  V30 10949 H 1459.55 8.19355 -1.79097 0
M  V30 10950 H 1457.86 10.1294 -1.10029 0
M  V30 10951 H 1457.67 9.64276 -3.41316 0
M  V30 10952 H 1456.04 9.25417 -2.76357 0
M  V30 10953 H 1458.67 6.25267 1.07847 0
M  V30 10954 P 1460.53 8.791 1.19586e-11 0
M  V30 10955 O 1461.95 9.31096 0.027933 0
M  V30 10956 O 1460.17 7.77869 -1.04071 0
M  V30 10957 O 1460.21 8.09533 1.41463 0
M  V30 10958 C 1460.05 9.0349 2.53943 0
M  V30 10959 C 1460.59 8.35226 3.79016 0
M  V30 10960 O 1459.53 7.57992 4.15078 0
M  V30 10961 C 1461.81 7.45087 3.67298 0
M  V30 10962 O 1462.55 7.27796 4.85194 0
M  V30 10963 C 1461.14 6.17323 3.12027 0
M  V30 10964 O 1461.94 5.04231 3.47188 0
M  V30 10965 C 1459.8 6.19961 3.81809 0
M  V30 10966 H 1459.83 5.58218 4.73051 0
M  V30 10967 H 1461.02 6.21726 2.02589 0
M  V30 10968 H 1462.5 7.86112 2.9231 0
M  V30 10969 H 1460.81 9.11627 4.55076 0
M  V30 10970 H 1460.62 9.9573 2.34194 0
M  V30 10971 H 1458.99 9.2792 2.67832 0
M  V30 10972 H 1461.63 4.67702 4.28772 0
M  V30 10973 P 1463.48 7.39546 4.75277 0
M  V30 10974 O 1464.9 7.81777 5.05738 0
M  V30 10975 O 1463.12 7.1065 3.32998 0
M  V30 10976 O 1463.16 6.04542 5.56673 0
M  V30 10977 C 1463 6.22772 7.02095 0
M  V30 10978 C 1463.54 4.97725 7.70406 0
M  V30 10979 O 1462.48 4.13256 7.58987 0
M  V30 10980 C 1464.76 4.28231 7.11815 0
M  V30 10981 O 1465.5 3.49945 8.01648 0
M  V30 10982 C 1464.09 3.5063 5.96244 0
M  V30 10983 O 1464.89 2.36482 5.64681 0
M  V30 10984 C 1462.75 3.15122 6.56374 0
M  V30 10985 H 1462.78 2.13853 6.99751 0
M  V30 10986 H 1463.97 4.13501 5.06559 0
M  V30 10987 H 1465.45 5.03285 6.70911 0
M  V30 10988 H 1463.76 5.20877 8.75697 0
M  V30 10989 H 1463.57 7.11046 7.35349 0
M  V30 10990 H 1461.94 6.35815 7.26986 0
M  V30 10991 H 1464.58 1.61644 6.13565 0
M  V30 10992 P 1466.43 3.65191 7.99657 0
M  V30 10993 O 1467.86 3.8425 8.48115 0
M  V30 10994 O 1466.07 4.17805 6.64342 0
M  V30 10995 O 1466.11 2.07613 7.95143 0
M  V30 10996 C 1465.95 1.44328 9.27336 0
M  V30 10997 C 1466.49 0.0220036 9.17197 0
M  V30 10998 O 1465.43 -0.626867 8.61923 0
M  V30 10999 C 1467.71 -0.24586 8.30336 0
M  V30 11000 O 1468.45 -1.39011 8.63583 0
M  V30 11001 C 1467.04 -0.273849 6.91158 0
M  V30 11002 O 1467.84 -1.06348 6.02892 0
M  V30 11003 C 1465.7 -0.897649 7.22545 0
M  V30 11004 H 1465.73 -1.9841 7.04286 0
M  V30 11005 H 1466.92 0.739928 6.497 0
M  V30 11006 H 1468.4 0.60668 8.36503 0
M  V30 11007 H 1466.71 -0.352479 10.1829 0
M  V30 11008 H 1466.52 2.00611 10.0304 0
M  V30 11009 H 1464.89 1.41843 9.55327 0
M  V30 11010 H 1467.53 -1.95734 6.03555 0
M  V30 11011 P 1469.38 -1.25109 8.70152 0
M  V30 11012 O 1470.81 -1.35274 9.21221 0
M  V30 11013 O 1469.02 -0.0769065 7.84762 0
M  V30 11014 O 1469.06 -2.55232 7.81161 0
M  V30 11015 C 1468.9 -3.79939 8.58154 0
M  V30 11016 C 1469.44 -4.94023 7.72785 0
M  V30 11017 O 1468.38 -5.18726 6.91205 0
M  V30 11018 C 1470.66 -4.69597 6.85231 0
M  V30 11019 O 1471.4 -5.83832 6.51337 0
M  V30 11020 C 1469.99 -3.96706 5.66633 0
M  V30 11021 O 1470.79 -4.15414 4.49689 0
M  V30 11022 C 1468.65 -4.66153 5.59313 0
M  V30 11023 H 1468.68 -5.47679 4.85214 0
M  V30 11024 H 1469.87 -2.89008 5.86566 0
M  V30 11025 H 1471.35 -4.0121 7.36511 0
M  V30 11026 H 1469.66 -5.80182 8.37584 0
M  V30 11027 H 1469.47 -3.73517 9.52265 0
M  V30 11028 H 1467.84 -3.97163 8.80359 0
M  V30 11029 H 1470.48 -4.90969 4.01921 0
M  V30 11030 P 1472.33 -5.75688 6.64379 0
M  V30 11031 O 1473.76 -6.11915 7.01921 0
M  V30 11032 O 1471.97 -4.30744 6.56026 0
M  V30 11033 O 1472.01 -6.37042 5.19165 0
M  V30 11034 C 1471.85 -7.83662 5.1657 0
M  V30 11035 C 1472.39 -8.33398 3.83019 0
M  V30 11036 O 1471.34 -8.0998 3.00999 0
M  V30 11037 C 1473.61 -7.65514 3.2257 0
M  V30 11038 O 1474.35 -8.4329 2.32297 0
M  V30 11039 C 1472.94 -6.40075 2.62207 0
M  V30 11040 O 1473.74 -5.92338 1.5428 0
M  V30 11041 C 1471.6 -6.9454 2.18503 0
M  V30 11042 N 1470.56 -5.95905 2.39948 0
M  V30 11043 C 1470.73 -4.98383 3.32108 0
M  V30 11044 N 1469.7 -4.16798 3.41761 0
M  V30 11045 C 1468.82 -4.65287 2.47461 0
M  V30 11046 C 1467.55 -4.18946 2.07461 0
M  V30 11047 N 1466.99 -4.95327 1.09101 0
M  V30 11048 C 1467.59 -6.04369 0.519812 0
M  V30 11049 N 1468.76 -6.50694 0.855982 0
M  V30 11050 C 1469.34 -5.75818 1.84322 0
M  V30 11051 H 1472.82 -5.60502 3.36589 0
M  V30 11052 H 1474.3 -7.35707 4.02681 0
M  V30 11053 H 1472.61 -9.41302 3.90009 0
M  V30 11054 H 1472.42 -8.29056 5.99158 0
M  V30 11055 H 1470.79 -8.10073 5.25882 0
M  V30 11056 H 1471.63 -4.88564 3.92502 0
M  V30 11057 H 1473.43 -6.30224 0.72668 0
M  V30 11058 P 1475.28 -8.4349 2.47671 0
M  V30 11059 O 1476.71 -8.94263 2.59668 0
M  V30 11060 O 1474.92 -7.1704 3.19006 0
M  V30 11061 O 1474.96 -8.16596 0.923387 0
M  V30 11062 C 1474.8 -9.38537 0.108869 0
M  V30 11063 C 1475.34 -9.08175 -1.28353 0
M  V30 11064 O 1474.29 -8.44131 -1.84692 0
M  V30 11065 C 1476.56 -8.18386 -1.42505 0
M  V30 11066 O 1477.3 -8.3501 -2.60497 0
M  V30 11067 C 1475.89 -6.80225 -1.25468 0
M  V30 11068 O 1476.69 -5.81716 -1.90454 0
M  V30 11069 C 1474.55 -7.02416 -1.9168 0
M  V30 11070 N 1473.51 -6.31033 -1.20314 0
M  V30 11071 C 1473.68 -5.98817 0.0994088 0
M  V30 11072 N 1472.65 -5.35403 0.621694 0
M  V30 11073 C 1471.77 -5.25212 -0.43376 0
M  V30 11074 C 1470.5 -4.64602 -0.519722 0
M  V30 11075 N 1469.94 -4.7568 -1.76013 0
M  V30 11076 C 1470.54 -5.3653 -2.83017 0
M  V30 11077 N 1471.71 -5.93676 -2.79782 0
M  V30 11078 C 1472.29 -5.84061 -1.56249 0
M  V30 11079 H 1475.77 -6.53498 -0.198729 0
M  V30 11080 H 1477.25 -8.36622 -0.589963 0
M  V30 11081 H 1475.56 -10.0273 -1.8081 0
M  V30 11082 H 1475.37 -10.2138 0.558219 0
M  V30 11083 H 1473.74 -9.6579 0.0444202 0
M  V30 11084 H 1474.58 -6.23209 0.660562 0
M  V30 11085 H 1476.38 -5.69466 -2.79593 0
M  V30 11086 P 1478.24 -8.4349 -2.47671 0
M  V30 11087 O 1479.66 -8.92593 -2.65 0
M  V30 11088 O 1477.88 -7.7568 -1.19296 0
M  V30 11089 O 1477.91 -7.36886 -3.63805 0
M  V30 11090 C 1477.75 -7.95349 -4.982 0
M  V30 11091 C 1478.29 -6.94612 -5.98974 0
M  V30 11092 O 1477.24 -6.10347 -6.11815 0
M  V30 11093 C 1479.51 -6.11426 -5.62335 0
M  V30 11094 O 1480.25 -5.6162 -6.70584 0
M  V30 11095 C 1478.84 -5.04409 -4.73308 0
M  V30 11096 O 1479.64 -3.85992 -4.75183 0
M  V30 11097 C 1477.5 -4.8728 -5.41006 0
M  V30 11098 H 1477.54 -4.02333 -6.11157 0
M  V30 11099 H 1478.72 -5.39466 -3.69543 0
M  V30 11100 H 1480.2 -6.71916 -5.01943 0
M  V30 11101 H 1478.51 -7.4649 -6.93477 0
M  V30 11102 H 1478.32 -8.89416 -5.05237 0
M  V30 11103 H 1476.69 -8.14876 -5.18409 0
M  V30 11104 H 1479.33 -3.27957 -5.4317 0
M  V30 11105 P 1481.19 -5.75688 -6.64379 0
M  V30 11106 O 1482.61 -6.07758 -7.05656 0
M  V30 11107 O 1480.83 -5.88047 -5.19722 0
M  V30 11108 O 1480.86 -4.2322 -7.04443 0
M  V30 11109 C 1480.7 -3.99743 -8.4911 0
M  V30 11110 C 1481.24 -2.60487 -8.79329 0
M  V30 11111 O 1480.19 -1.82684 -8.4467 0
M  V30 11112 C 1482.46 -2.10343 -8.03628 0
M  V30 11113 O 1483.2 -1.09919 -8.67766 0
M  V30 11114 C 1481.79 -1.68446 -6.70876 0
M  V30 11115 O 1482.59 -0.678026 -6.08333 0
M  V30 11116 C 1480.46 -1.17436 -7.18567 0
M  V30 11117 N 1479.41 -1.52699 -6.23988 0
M  V30 11118 C 1479.47 -2.68084 -5.57824 0
M  V30 11119 N 1478.43 -2.8189 -4.75643 0
M  V30 11120 C 1477.7 -1.72373 -4.95155 0
M  V30 11121 C 1476.39 -1.37653 -4.44996 0
M  V30 11122 O 1475.66 -2.02239 -3.68445 0
M  V30 11123 N 1475.96 -0.17675 -4.90782 0
M  V30 11124 C 1476.71 0.645036 -5.78716 0
M  V30 11125 N 1476.11 1.84214 -6.10618 0
M  V30 11126 N 1477.86 0.321732 -6.30279 0
M  V30 11127 C 1478.32 -0.87502 -5.86913 0
M  V30 11128 H 1480.49 -0.0804732 -7.31656 0
M  V30 11129 H 1481.67 -2.53998 -6.02444 0
M  V30 11130 H 1483.16 -2.93095 -7.8582 0
M  V30 11131 H 1481.46 -2.53065 -9.86973 0
M  V30 11132 H 1481.27 -4.75072 -9.05887 0
M  V30 11133 H 1479.64 -4.05244 -8.76668 0
M  V30 11134 H 1475.06 0.152143 -4.60849 0
M  V30 11135 H 1480.27 -3.41852 -5.69006 0
M  V30 11136 H 1475.2 2.08538 -5.69521 0
M  V30 11137 H 1476.58 2.4895 -6.75698 0
M  V30 11138 H 1482.28 0.177619 -6.34151 0
M  V30 11139 P 1484.14 -1.25109 -8.70152 0
M  V30 11140 O 1485.56 -1.29744 -9.22016 0
M  V30 11141 O 1483.78 -2.13714 -7.55141 0
M  V30 11142 O 1483.81 0.248149 -8.21425 0
M  V30 11143 C 1483.65 1.22779 -9.30434 0
M  V30 11144 C 1484.19 2.56293 -8.80664 0
M  V30 11145 O 1483.14 3.02979 -8.09349 0
M  V30 11146 C 1485.41 2.57523 -7.89775 0
M  V30 11147 O 1486.15 3.7668 -7.89438 0
M  V30 11148 C 1484.74 2.20997 -6.55446 0
M  V30 11149 O 1485.54 2.71895 -5.48509 0
M  V30 11150 C 1483.41 2.89693 -6.67988 0
M  V30 11151 H 1483.44 3.88793 -6.19859 0
M  V30 11152 H 1484.62 1.12046 -6.44229 0
M  V30 11153 H 1486.1 1.7746 -8.19711 0
M  V30 11154 H 1484.41 3.20706 -9.67112 0
M  V30 11155 H 1484.22 0.901032 -10.1892 0
M  V30 11156 H 1482.59 1.33049 -9.56592 0
M  V30 11157 H 1485.23 3.57847 -5.23962 0
M  V30 11158 P 1487.09 3.65191 -7.99657 0
M  V30 11159 O 1488.51 3.89332 -8.45794 0
M  V30 11160 O 1486.73 2.28472 -7.50807 0
M  V30 11161 O 1486.76 4.64972 -6.77611 0
M  V30 11162 C 1486.6 6.06319 -7.16352 0
M  V30 11163 C 1487.14 6.91731 -6.02299 0
M  V30 11164 O 1486.09 6.92449 -5.17064 0
M  V30 11165 C 1488.36 6.43627 -5.25174 0
M  V30 11166 O 1489.1 7.43686 -4.60469 0
M  V30 11167 C 1487.69 5.40275 -4.31916 0
M  V30 11168 O 1488.49 5.25279 -3.14438 0
M  V30 11169 C 1486.36 6.04847 -4.05327 0
M  V30 11170 H 1486.39 6.62195 -3.11261 0
M  V30 11171 H 1487.57 4.42556 -4.81383 0
M  V30 11172 H 1489.06 5.92458 -5.93643 0
M  V30 11173 H 1487.36 7.92655 -6.402 0
M  V30 11174 H 1487.17 6.26671 -8.0846 0
M  V30 11175 H 1485.54 6.29101 -7.32804 0
M  V30 11176 H 1488.18 5.84315 -2.47318 0
M  V30 11177 P 1490.04 7.39546 -4.75277 0
M  V30 11178 O 1491.46 7.84798 -5.01039 0
M  V30 11179 O 1489.68 5.9812 -5.08098 0
M  V30 11180 O 1489.71 7.57503 -3.1866 0
M  V30 11181 C 1489.55 8.97357 -2.74833 0
M  V30 11182 C 1490.09 9.07548 -1.32709 0
M  V30 11183 O 1489.04 8.62072 -0.606159 0
M  V30 11184 C 1491.31 8.25383 -0.938334 0
M  V30 11185 O 1492.05 8.74577 0.146954 0
M  V30 11186 C 1490.64 6.8802 -0.712559 0
M  V30 11187 O 1491.44 6.1189 0.194655 0
M  V30 11188 C 1489.31 7.27966 -0.139777 0
M  V30 11189 H 1489.34 7.25354 0.961601 0
M  V30 11190 H 1490.52 6.32557 -1.65702 0
M  V30 11191 H 1492.01 8.19355 -1.79097 0
M  V30 11192 H 1490.31 10.1294 -1.10029 0
M  V30 11193 H 1490.12 9.64276 -3.41316 0
M  V30 11194 H 1488.49 9.25417 -2.76357 0
M  V30 11195 H 1491.13 6.25267 1.07847 0
M  V30 11196 P 1492.99 8.791 1.22688e-11 0
M  V30 11197 O 1494.39 9.36698 -0.018734 0
M  V30 11198 O 1492.61 7.82499 -1.07878 0
M  V30 11199 O 1492.67 8.09434 1.41446 0
M  V30 11200 C 1492.51 9.0349 2.53943 0
M  V30 11201 C 1493.05 8.35135 3.78975 0
M  V30 11202 O 1491.99 7.57904 4.1503 0
M  V30 11203 C 1494.26 7.45087 3.67298 0
M  V30 11204 O 1495 7.27796 4.85194 0
M  V30 11205 C 1493.6 6.17323 3.12027 0
M  V30 11206 O 1494.39 5.04149 3.47132 0
M  V30 11207 C 1492.26 6.19961 3.81809 0
M  V30 11208 N 1491.21 5.71575 2.93223 0
M  V30 11209 C 1490.18 4.99452 3.47592 0
M  V30 11210 O 1490.22 4.7199 4.69732 0
M  V30 11211 N 1489.17 4.58505 2.6803 0
M  V30 11212 C 1489.22 4.85544 1.36995 0
M  V30 11213 N 1488.21 4.45052 0.609031 0
M  V30 11214 C 1490.31 5.55532 0.788532 0
M  V30 11215 C 1491.28 5.97426 1.60849 0
M  V30 11216 H 1492.29 5.58142 4.72986 0
M  V30 11217 H 1493.47 6.21428 2.0318 0
M  V30 11218 H 1494.96 7.85913 2.93131 0
M  V30 11219 H 1493.26 9.11171 4.55987 0
M  V30 11220 H 1493.07 9.9573 2.34194 0
M  V30 11221 H 1491.44 9.27824 2.67805 0
M  V30 11222 H 1490.36 5.7421 -0.281588 0
M  V30 11223 H 1492.12 6.53132 1.202 0
M  V30 11224 H 1487.42 3.94123 1.03159 0
M  V30 11225 H 1488.21 4.64377 -0.400352 0
M  V30 11226 H 1494.18 4.76386 4.34983 0
M  V30 11227 P 1495.94 7.39546 4.75277 0
M  V30 11228 O 1497.36 7.81777 5.05738 0
M  V30 11229 O 1495.58 7.1065 3.32998 0
M  V30 11230 O 1495.62 6.04542 5.56673 0
M  V30 11231 C 1495.46 6.22772 7.02095 0
M  V30 11232 C 1496 4.97725 7.70406 0
M  V30 11233 O 1494.94 4.13256 7.58987 0
M  V30 11234 C 1497.21 4.28231 7.11815 0
M  V30 11235 O 1497.95 3.49945 8.01648 0
M  V30 11236 C 1496.54 3.5063 5.96244 0
M  V30 11237 O 1497.34 2.36482 5.64681 0
M  V30 11238 C 1495.21 3.15122 6.56374 0
M  V30 11239 H 1495.24 2.13853 6.99751 0
M  V30 11240 H 1496.42 4.13501 5.06559 0
M  V30 11241 H 1497.91 5.03285 6.70911 0
M  V30 11242 H 1496.21 5.20877 8.75697 0
M  V30 11243 H 1496.02 7.11046 7.35349 0
M  V30 11244 H 1494.39 6.35815 7.26986 0
M  V30 11245 H 1497.03 1.61644 6.13565 0
M  V30 11246 P 1498.89 3.65191 7.99657 0
M  V30 11247 O 1500.29 3.90823 8.51272 0
M  V30 11248 O 1498.51 4.23191 6.66972 0
M  V30 11249 O 1498.57 2.07587 7.95046 0
M  V30 11250 C 1498.41 1.44328 9.27336 0
M  V30 11251 C 1498.95 0.0220012 9.17097 0
M  V30 11252 O 1497.89 -0.626794 8.61824 0
M  V30 11253 C 1500.16 -0.24586 8.30336 0
M  V30 11254 O 1500.9 -1.39011 8.63583 0
M  V30 11255 C 1499.5 -0.273849 6.91158 0
M  V30 11256 O 1500.29 -1.06331 6.02794 0
M  V30 11257 C 1498.16 -0.897649 7.22545 0
M  V30 11258 N 1497.12 -0.292839 6.41732 0
M  V30 11259 C 1496.08 -1.08701 5.98712 0
M  V30 11260 O 1496.12 -2.31211 6.24471 0
M  V30 11261 N 1495.07 -0.533391 5.28415 0
M  V30 11262 C 1495.12 0.770866 4.98576 0
M  V30 11263 N 1494.11 1.29482 4.30134 0
M  V30 11264 C 1496.21 1.59049 5.38086 0
M  V30 11265 C 1497.18 1.01866 6.10256 0
M  V30 11266 H 1498.19 -1.98383 7.04189 0
M  V30 11267 H 1499.37 0.733318 6.49674 0
M  V30 11268 H 1500.86 0.598386 8.36663 0
M  V30 11269 H 1499.16 -0.362662 10.1825 0
M  V30 11270 H 1498.97 2.00611 10.0304 0
M  V30 11271 H 1497.34 1.41828 9.55228 0
M  V30 11272 H 1496.26 2.6415 5.10622 0
M  V30 11273 H 1498.02 1.61983 6.44042 0
M  V30 11274 H 1493.32 0.69888 4.01361 0
M  V30 11275 H 1494.11 2.29327 4.05781 0
M  V30 11276 H 1500.08 -1.97777 6.14035 0
M  V30 11277 H 1502.54 -1.1387 8.16296 0
M  V30 END ATOM
M  V30 BEGIN BOND
M  V30 END BOND
M  V30 END CTAB
M  END
$$$$
