drugbank_target|P11137 Microtubule-associated protein 2 (DB01196; DB01229; DB01248)
 OpenBabel12092119473D

  0  0  0     0  0            999 V3000
M  V30 BEGIN CTAB
M  V30 COUNTS 27715 27973 0 0 0
M  V30 BEGIN ATOM
M  V30 1 H -0.908 1.98254 -0.117106 0
M  V30 2 N 0 1.576 0 0
M  V30 3 C 0.933 2.03868 1.02534 0
M  V30 4 C 1.911 0.928543 1.3348 0
M  V30 5 O 3.095 1.19667 1.45644 0
M  V30 6 C 0.222 2.43627 2.35294 0
M  V30 7 C -0.732 3.65373 2.2001 0
M  V30 8 S 0.101 5.13292 1.52614 0
M  V30 9 C 1.257 5.56322 2.86805 0
M  V30 10 H 1.49 2.90518 0.631377 0
M  V30 11 H -0.977 1.52953 0.210867 0
M  V30 12 H 0.981 2.67203 3.11629 0
M  V30 13 H -0.358 1.57376 2.7183 0
M  V30 14 H -1.165 3.90944 3.18086 0
M  V30 15 H -1.563 3.418 1.51819 0
M  V30 16 H 0.729 5.58782 3.83104 0
M  V30 17 H 1.672 6.56266 2.65933 0
M  V30 18 H 2.08 4.83886 2.90714 0
M  V30 19 N 1.4781 -0.272755 1.55222 0
M  V30 20 C 2.4411 -1.32041 1.87344 0
M  V30 21 C 3.4411 -1.42342 0.74803 0
M  V30 22 O 4.6311 -1.41488 1.0162 0
M  V30 23 C 1.7631 -2.70173 2.07893 0
M  V30 24 H 2.9561 -1.04789 2.80997 0
M  V30 25 H 0.5091 -0.51083 1.47717 0
M  V30 26 H 1.2441 -3.02605 1.16622 0
M  V30 27 H 1.0291 -2.64082 2.89833 0
M  V30 28 H 2.5191 -3.45869 2.34017 0
M  V30 29 N 2.9562 -1.48159 -0.537278 0
M  V30 30 C 4.2332 -1.46291 -1.29839 0
M  V30 31 C 4.6132 -0.170613 -2.10409 0
M  V30 32 O 3.9612 0.847746 -2.12192 0
M  V30 33 C 4.1712 -2.72055 -2.18603 0
M  V30 34 C 5.5192 -3.20087 -2.7898 0
M  V30 35 O 6.5432 -2.72921 -2.28894 0
M  V30 36 O 5.4022 -4.02138 -3.70064 0
M  V30 37 H 2.4962 -0.583906 -0.585647 0
M  V30 38 H 5.0422 -1.60384 -0.554534 0
M  V30 39 H 3.8142 -3.57628 -1.58801 0
M  V30 40 H 3.4372 -2.60646 -3.00249 0
M  V30 41 N 4.4343 0.785586 -1.36625 0
M  V30 42 C 5.3443 1.92964 -1.33425 0
M  V30 43 C 6.3603 1.72394 -0.235851 0
M  V30 44 O 7.5363 1.95866 -0.468878 0
M  V30 45 C 4.6013 3.27884 -1.12662 0
M  V30 46 C 3.6623 3.61204 -2.32013 0
M  V30 47 C 2.8953 4.89687 -2.12231 0
M  V30 48 O 3.1183 5.59704 -1.09945 0
M  V30 49 O 2.0523 5.21752 -3.00098 0
M  V30 50 H 5.8783 1.98613 -2.29753 0
M  V30 51 H 3.4633 0.926384 -1.17211 0
M  V30 52 H 5.3453 4.08614 -1.03016 0
M  V30 53 H 4.0203 3.23118 -0.193991 0
M  V30 54 H 2.9273 2.80765 -2.47228 0
M  V30 55 H 4.2603 3.70698 -3.23796 0
M  V30 56 N 5.9124 1.20967 1.01018 0
M  V30 57 C 7.3284 0.965905 1.27053 0
M  V30 58 C 7.5284 -0.350785 1.98423 0
M  V30 59 O 6.5844 -1.07773 2.28344 0
M  V30 60 C 7.8974 2.15294 2.09926 0
M  V30 61 C 9.4454 2.19463 2.23171 0
M  V30 62 C 9.9204 3.3767 3.09424 0
M  V30 63 N 11.4114 3.37724 3.17012 0
M  V30 64 C 12.1464 4.25837 3.83993 0
M  V30 65 N 11.6424 5.24138 4.53047 0
M  V30 66 N 13.4354 4.1366 3.80581 0
M  V30 67 H 5.5864 2.0565 0.531194 0
M  V30 68 H 7.8494 0.90024 0.297106 0
M  V30 69 H 7.5554 3.10684 1.64828 0
M  V30 70 H 7.4294 2.13923 3.10672 0
M  V30 71 H 9.8164 1.24632 2.6749 0
M  V30 72 H 9.8974 2.2488 1.21912 0
M  V30 73 H 9.5414 4.32791 2.65808 0
M  V30 74 H 9.4714 3.29491 4.10784 0
M  V30 75 H 11.9624 2.6658 2.6785 0
M  V30 76 H 12.2754 5.87684 5.01844 0
M  V30 77 H 10.6204 5.28068 4.5185 0
M  V30 78 H 13.8114 3.36127 3.25785 0
M  V30 79 H 13.9844 4.82538 4.32505 0
M  V30 80 N 7.3905 -1.2043 1.01659 0
M  V30 81 C 8.3375 -2.23215 0.586822 0
M  V30 82 C 9.3075 -1.61382 -0.393085 0
M  V30 83 O 10.4925 -1.88544 -0.292525 0
M  V30 84 C 7.6325 -3.45032 -0.0687464 0
M  V30 85 C 6.7455 -4.21296 0.955724 0
M  V30 86 C 5.8805 -5.30507 0.271208 0
M  V30 87 C 4.9195 -5.98515 1.28244 0
M  V30 88 N 4.0565 -6.99316 0.62459 0
M  V30 89 H 8.8965 -2.59336 1.46796 0
M  V30 90 H 6.4335 -1.27431 0.734836 0
M  V30 91 H 8.3915 -4.1459 -0.465965 0
M  V30 92 H 7.0215 -3.09604 -0.913529 0
M  V30 93 H 6.0735 -3.50803 1.4711 0
M  V30 94 H 7.3855 -4.6803 1.72479 0
M  V30 95 H 6.5395 -6.06428 -0.18151 0
M  V30 96 H 5.2785 -4.8481 -0.530163 0
M  V30 97 H 4.2835 -5.21355 1.74554 0
M  V30 98 H 5.5085 -6.46298 2.08509 0
M  V30 99 H 3.4545 -6.55812 -0.156914 0
M  V30 100 H 3.3715 -7.44178 1.33172 0
M  V30 101 H 4.6395 -7.79255 0.195462 0
M  V30 102 N 8.8686 -0.792821 -1.36206 0
M  V30 103 C 10.1456 -0.290627 -1.93429 0
M  V30 104 C 10.5256 1.21773 -1.72437 0
M  V30 105 O 9.8736 2.0108 -1.08531 0
M  V30 106 C 10.0836 -0.686973 -3.42172 0
M  V30 107 C 11.4316 -0.668643 -4.19302 0
M  V30 108 O 12.4556 -0.627658 -3.50626 0
M  V30 109 O 11.3146 -0.714597 -5.41808 0
M  V30 110 H 8.4086 -0.0727927 -0.82379 0
M  V30 111 H 10.9546 -0.875593 -1.45367 0
M  V30 112 H 9.7266 -1.72711 -3.51122 0
M  V30 113 H 9.3496 -0.0760733 -3.97527 0
M  V30 114 N 10.3467 1.47872 -0.545128 0
M  V30 115 C 11.2567 2.33633 0.212746 0
M  V30 116 C 12.2727 1.4744 0.923983 0
M  V30 117 O 13.4487 1.80393 0.895572 0
M  V30 118 C 10.5137 3.23884 1.23693 0
M  V30 119 C 9.5747 4.25961 0.534417 0
M  V30 120 C 8.8077 5.11899 1.5098 0
M  V30 121 O 9.0307 5.00077 2.7437 0
M  V30 122 O 7.9647 5.92831 1.0409 0
M  V30 123 H 11.7907 2.99714 -0.490416 0
M  V30 124 H 9.3757 1.46235 -0.305871 0
M  V30 125 H 11.2577 3.79666 1.82843 0
M  V30 126 H 9.9327 2.60446 1.92222 0
M  V30 127 H 8.8397 3.73972 -0.0979679 0
M  V30 128 H 10.1727 4.92079 -0.109213 0
M  V30 129 N 11.8248 0.280983 1.55075 0
M  V30 130 C 12.7878 -0.590896 2.21452 0
M  V30 131 C 13.7878 -1.07682 1.19421 0
M  V30 132 O 14.9778 -0.97605 1.44288 0
M  V30 133 C 12.1098 -1.81587 2.88511 0
M  V30 134 H 13.3028 -0.0112554 2.99898 0
M  V30 135 H 10.8558 0.0316438 1.56268 0
M  V30 136 H 11.5908 -2.43587 2.14093 0
M  V30 137 H 11.3758 -1.4753 3.63287 0
M  V30 138 H 12.8658 -2.43575 3.39206 0
M  V30 139 N 13.3029 -1.57598 0.00835791 0
M  V30 140 C 14.2499 -2.08945 -0.980346 0
M  V30 141 C 15.2199 -0.986738 -1.33614 0
M  V30 142 O 16.4049 -1.25968 -1.43306 0
M  V30 143 C 13.5449 -2.60425 -2.26435 0
M  V30 144 C 12.6579 -3.84628 -1.96685 0
M  V30 145 C 11.7929 -4.24579 -3.19228 0
M  V30 146 C 10.8319 -5.41596 -2.85202 0
M  V30 147 N 9.9689 -5.768 -4.00307 0
M  V30 148 H 14.8089 -2.93148 -0.535551 0
M  V30 149 H 12.3459 -1.44912 -0.252776 0
M  V30 150 H 14.3039 -2.88354 -3.01509 0
M  V30 151 H 12.9339 -1.79083 -2.68568 0
M  V30 152 H 11.9859 -3.63556 -1.11942 0
M  V30 153 H 13.2979 -4.69796 -1.67611 0
M  V30 154 H 12.4519 -4.53834 -4.02641 0
M  V30 155 H 11.1909 -3.38137 -3.51447 0
M  V30 156 H 10.1959 -5.12056 -2.00198 0
M  V30 157 H 11.4209 -6.29721 -2.54222 0
M  V30 158 H 9.3669 -4.93316 -4.32407 0
M  V30 159 H 9.2839 -6.5656 -3.74786 0
M  V30 160 H 10.5519 -6.10652 -4.84484 0
M  V30 161 N 14.781 0.264519 -1.55364 0
M  V30 162 C 15.744 1.31046 -1.88042 0
M  V30 163 C 16.744 1.41943 -0.755569 0
M  V30 164 O 17.934 1.40947 -1.02369 0
M  V30 165 C 15.066 2.69067 -2.09323 0
M  V30 166 H 16.259 1.03297 -2.81549 0
M  V30 167 H 13.812 0.502989 -1.47986 0
M  V30 168 H 14.547 3.01982 -1.18226 0
M  V30 169 H 14.332 2.62542 -2.91229 0
M  V30 170 H 15.822 3.44623 -2.35848 0
M  V30 171 N 16.2591 1.48442 0.529413 0
M  V30 172 C 17.6701 1.5002 1.11134 0
M  V30 173 C 18.0211 0.27031 1.94329 0
M  V30 174 O 17.1461 -0.622507 2.07253 0
M  V30 175 C 17.7411 2.71834 2.02217 0
M  V30 176 C 16.3001 2.76283 2.55627 0
M  V30 177 C 15.4471 2.43542 1.326 0
M  V30 178 H 18.3981 1.5555 0.314641 0
M  V30 179 H 18.4191 2.50384 2.8651 0
M  V30 180 H 17.9311 3.61331 1.41639 0
M  V30 181 H 16.0321 1.90995 3.19924 0
M  V30 182 H 16.1451 3.77725 2.94721 0
M  V30 183 H 14.5091 1.94709 1.64196 0
M  V30 184 H 15.2921 3.3528 0.737734 0
M  V30 185 N 17.7372 -0.778329 1.37039 0
M  V30 186 C 18.6872 -1.88142 1.28789 0
M  V30 187 C 19.6712 -1.59923 0.177063 0
M  V30 188 O 20.8632 -1.72165 0.410873 0
M  V30 189 C 17.9922 -3.25518 1.09055 0
M  V30 190 C 17.0782 -3.5971 2.24654 0
M  V30 191 N 17.4692 -3.65131 3.50018 0
M  V30 192 C 15.7672 -3.89837 2.16663 0
M  V30 193 C 16.4682 -3.95882 4.26207 0
M  V30 194 N 15.4442 -4.11441 3.55271 0
M  V30 195 H 19.2462 -1.90575 2.23737 0
M  V30 196 H 16.7602 -0.974435 1.29917 0
M  V30 197 H 18.7572 -4.04423 1.0123 0
M  V30 198 H 17.4172 -3.24353 0.15018 0
M  V30 199 H 18.4282 -3.475 3.84011 0
M  V30 200 H 15.1052 -3.96533 1.30645 0
M  V30 201 H 16.4952 -4.06907 5.34674 0
M  V30 202 N 19.2153 -1.21501 -1.00376 0
M  V30 203 C 20.4613 -1.04457 -1.74529 0
M  V30 204 C 20.8163 0.417386 -1.87818 0
M  V30 205 O 20.1093 1.30556 -1.40234 0
M  V30 206 C 20.3033 -1.67673 -3.15627 0
M  V30 207 C 20.1323 -3.19865 -3.16096 0
M  V30 208 C 18.9023 -3.88915 -3.22604 0
M  V30 209 C 21.1003 -4.16936 -3.01112 0
M  V30 210 N 19.0823 -5.28284 -3.12712 0
M  V30 211 C 20.4533 -5.43066 -2.99131 0
M  V30 212 C 22.5083 -4.07968 -2.85423 0
M  V30 213 C 21.2113 -6.6126 -2.83068 0
M  V30 214 C 23.2373 -5.258 -2.70718 0
M  V30 215 C 22.5993 -6.50842 -2.69414 0
M  V30 216 H 18.6983 -0.436584 -0.648782 0
M  V30 217 H 21.2823 -1.53875 -1.19293 0
M  V30 218 H 19.4533 -1.20822 -3.6913 0
M  V30 219 H 21.1853 -1.43824 -3.78281 0
M  V30 220 H 17.9403 -3.39847 -3.2985 0
M  V30 221 H 18.3643 -6.01284 -3.11105 0
M  V30 222 H 23.0063 -3.1209 -2.85236 0
M  V30 223 H 20.7243 -7.57298 -2.82002 0
M  V30 224 H 24.3103 -5.20683 -2.59577 0
M  V30 225 H 23.1903 -7.40485 -2.5817 0
M  V30 226 N 20.6934 1.19889 -1.02296 0
M  V30 227 C 21.9214 1.9339 -0.735399 0
M  V30 228 C 22.3364 1.75148 0.704887 0
M  V30 229 O 21.6934 1.06954 1.47875 0
M  V30 230 C 21.7444 3.45313 -1.06962 0
M  V30 231 O 21.4654 3.62964 -2.45334 0
M  V30 232 C 22.9664 4.35948 -0.804021 0
M  V30 233 H 20.1864 0.61448 -0.269546 0
M  V30 234 H 22.7304 1.522 -1.36585 0
M  V30 235 H 20.8854 3.84359 -0.484455 0
M  V30 236 H 21.2994 4.56886 -2.57595 0
M  V30 237 H 22.7734 5.41174 -1.0879 0
M  V30 238 H 23.2504 4.3842 0.261691 0
M  V30 239 H 23.8564 4.02574 -1.37164 0
M  V30 240 N 22.1715 0.800033 1.35784 0
M  V30 241 C 23.3965 0.388511 2.03729 0
M  V30 242 C 23.8215 -0.990481 1.5991 0
M  V30 243 O 23.1795 -1.64013 0.772612 0
M  V30 244 C 23.2275 0.4726 3.5749 0
M  V30 245 O 22.3315 -0.51646 4.09153 0
M  V30 246 H 21.6725 0.163271 0.643614 0
M  V30 247 H 24.2025 1.0841 1.73518 0
M  V30 248 H 24.2125 0.34003 4.06581 0
M  V30 249 H 22.8875 1.47848 3.88734 0
M  V30 250 H 21.4645 -0.344673 3.71304 0
M  V30 251 N 23.6496 -1.47581 0.552962 0
M  V30 252 C 24.6126 -2.28439 -0.186605 0
M  V30 253 C 25.6126 -1.36706 -0.84665 0
M  V30 254 O 26.8026 -1.59378 -0.703164 0
M  V30 255 C 23.9346 -3.16264 -1.2724 0
M  V30 256 H 25.1276 -2.95294 0.523609 0
M  V30 257 H 22.6806 -1.532 0.309745 0
M  V30 258 H 23.4156 -2.54091 -2.01514 0
M  V30 259 H 23.2006 -3.83769 -0.803968 0
M  V30 260 H 24.6906 -3.77198 -1.79196 0
M  V30 261 N 25.1277 -0.289203 -1.54924 0
M  V30 262 C 26.5387 0.205791 -1.85562 0
M  V30 263 C 26.8897 1.54351 -1.2112 0
M  V30 264 O 26.0147 2.10435 -0.504601 0
M  V30 265 C 26.6097 0.380177 -3.3666 0
M  V30 266 C 25.1687 0.819395 -3.67373 0
M  V30 267 C 24.3157 -0.079159 -2.77187 0
M  V30 268 H 27.2667 -0.510577 -1.50262 0
M  V30 269 H 27.2877 1.21659 -3.60526 0
M  V30 270 H 26.7997 -0.593589 -3.83534 0
M  V30 271 H 24.9007 1.80413 -3.26009 0
M  V30 272 H 25.0137 0.646957 -4.74712 0
M  V30 273 H 23.3777 0.439565 -2.50878 0
M  V30 274 H 24.1607 -1.04906 -3.26878 0
M  V30 275 N 26.6058 1.57591 -0.0167156 0
M  V30 276 C 27.5358 2.12496 0.967858 0
M  V30 277 C 28.5168 1.03807 1.34752 0
M  V30 278 O 29.7018 1.31577 1.42833 0
M  V30 279 C 26.8318 2.64194 2.25431 0
M  V30 280 C 25.7858 3.77559 2.01576 0
M  V30 281 C 25.1118 4.15636 3.36379 0
M  V30 282 C 26.4118 5.04151 1.36489 0
M  V30 283 H 28.1058 2.95013 0.510643 0
M  V30 284 H 25.6518 1.41915 0.244181 0
M  V30 285 H 27.6048 3.01236 2.94678 0
M  V30 286 H 26.3288 1.78821 2.73296 0
M  V30 287 H 24.9878 3.40937 1.34751 0
M  V30 288 H 24.6358 3.27263 3.81979 0
M  V30 289 H 24.3358 4.92022 3.21229 0
M  V30 290 H 25.8598 4.5525 4.06915 0
M  V30 291 H 27.2738 5.38857 1.95718 0
M  V30 292 H 25.6708 5.85453 1.31776 0
M  V30 293 H 26.7408 4.83733 0.336219 0
M  V30 294 N 28.0839 -0.256276 1.55502 0
M  V30 295 C 29.3119 -1.00342 1.8094 0
M  V30 296 C 29.7269 -1.79307 0.59114 0
M  V30 297 O 29.0839 -1.77114 -0.440081 0
M  V30 298 C 29.1349 -1.94875 3.04476 0
M  V30 299 O 28.8559 -1.19107 4.21598 0
M  V30 300 C 30.3569 -2.81266 3.42644 0
M  V30 301 H 27.5769 -0.295685 0.602338 0
M  V30 302 H 30.1209 -0.281998 2.02546 0
M  V30 303 H 28.2759 -2.62457 2.84947 0
M  V30 304 H 28.6899 -1.82969 4.91551 0
M  V30 305 H 30.1639 -3.43362 4.32211 0
M  V30 306 H 30.6409 -3.51897 2.62802 0
M  V30 307 H 31.2469 -2.1915 3.64491 0
M  V30 308 N 29.562 -1.4872 -0.521534 0
M  V30 309 C 30.472 -1.66569 -1.65203 0
M  V30 310 C 31.488 -0.548197 -1.65139 0
M  V30 311 O 32.664 -0.820339 -1.83936 0
M  V30 312 C 29.729 -1.70917 -3.01642 0
M  V30 313 C 28.79 -2.94356 -3.12495 0
M  V30 314 C 28.023 -2.98487 -4.42426 0
M  V30 315 O 28.246 -2.10786 -5.30024 0
M  V30 316 O 27.18 -3.90746 -4.57822 0
M  V30 317 H 31.006 -2.62298 -1.5308 0
M  V30 318 H 28.591 -1.3222 -0.695565 0
M  V30 319 H 30.473 -1.7625 -3.82771 0
M  V30 320 H 29.148 -0.783633 -3.14071 0
M  V30 321 H 28.055 -2.94552 -2.3063 0
M  V30 322 H 29.388 -3.86322 -3.04986 0
M  V30 323 N 31.0401 0.771051 -1.3745 0
M  V30 324 C 32.0031 1.86598 -1.33093 0
M  V30 325 C 33.0031 1.59076 -0.234845 0
M  V30 326 O 34.1931 1.67145 -0.490732 0
M  V30 327 C 31.3251 3.23747 -1.06773 0
M  V30 328 H 32.5181 1.91873 -2.30488 0
M  V30 329 H 30.0711 0.970876 -1.2249 0
M  V30 330 H 30.8061 3.24148 -0.099129 0
M  V30 331 H 30.5911 3.45115 -1.86112 0
M  V30 332 H 32.0811 4.03824 -1.06377 0
M  V30 333 N 32.5182 1.22032 0.997298 0
M  V30 334 C 33.7432 1.06921 1.77715 0
M  V30 335 C 34.1682 -0.376226 1.84299 0
M  V30 336 O 33.5262 -1.27165 1.29223 0
M  V30 337 C 33.5742 1.67996 3.19076 0
M  V30 338 O 32.6782 0.930653 4.01762 0
M  V30 339 H 32.0192 0.375814 0.547412 0
M  V30 340 H 34.5492 1.61737 1.25309 0
M  V30 341 H 34.5592 1.72538 3.69723 0
M  V30 342 H 33.2342 2.73182 3.13599 0
M  V30 343 H 31.8112 0.960917 3.60307 0
M  V30 344 N 33.9963 -1.19345 1.0293 0
M  V30 345 C 34.9593 -2.20793 0.615069 0
M  V30 346 C 35.9593 -1.57553 -0.321533 0
M  V30 347 O 37.1493 -1.73862 -0.108483 0
M  V30 348 C 34.2813 -3.40754 -0.0999222 0
M  V30 349 H 35.4743 -2.58955 1.51269 0
M  V30 350 H 33.0273 -1.3303 0.820534 0
M  V30 351 H 33.7623 -3.0811 -1.01187 0
M  V30 352 H 33.5473 -3.87889 0.57309 0
M  V30 353 H 35.0373 -4.15898 -0.376645 0
M  V30 354 N 35.4744 -0.807222 -1.35358 0
M  V30 355 C 36.4244 -0.190706 -2.27201 0
M  V30 356 C 37.4084 0.635838 -1.47804 0
M  V30 357 O 38.6004 0.492991 -1.69996 0
M  V30 358 C 35.7294 0.659337 -3.36909 0
M  V30 359 C 34.8154 -0.176971 -4.23731 0
M  V30 360 N 35.2064 -1.24029 -4.90357 0
M  V30 361 C 33.5044 0.0412953 -4.45981 0
M  V30 362 C 34.2054 -1.75092 -5.54723 0
M  V30 363 N 33.1814 -1.05727 -5.33219 0
M  V30 364 H 36.9834 -1.0043 -2.76208 0
M  V30 365 H 34.4974 -0.648445 -1.48892 0
M  V30 366 H 36.4944 1.11706 -4.01656 0
M  V30 367 H 35.1544 1.47127 -2.89454 0
M  V30 368 H 36.1654 -1.62295 -4.91814 0
M  V30 369 H 32.8424 0.82232 -4.09322 0
M  V30 370 H 34.2324 -2.63963 -6.17878 0
M  V30 371 N 36.9525 1.47285 -0.560781 0
M  V30 372 C 38.1775 2.07359 -0.0410566 0
M  V30 373 C 38.6025 1.41017 1.24483 0
M  V30 374 O 37.9605 0.486368 1.74654 0
M  V30 375 C 38.0085 3.6035 0.134123 0
M  V30 376 O 37.1125 3.94681 1.19587 0
M  V30 377 H 36.4535 0.661887 -0.0529291 0
M  V30 378 H 38.9835 1.89252 -0.777482 0
M  V30 379 H 38.9935 4.0652 0.347207 0
M  V30 380 H 37.6685 4.08034 -0.805047 0
M  V30 381 H 36.2455 3.60251 0.962987 0
M  V30 382 N 38.4306 0.297415 1.54768 0
M  V30 383 C 39.3806 -0.595275 2.20092 0
M  V30 384 C 40.3646 -1.10163 1.17273 0
M  V30 385 O 41.5566 -1.043 1.43006 0
M  V30 386 C 38.6856 -1.7684 2.94249 0
M  V30 387 C 37.7716 -1.27818 4.0438 0
M  V30 388 N 38.1626 -0.505695 5.03266 0
M  V30 389 C 36.4606 -1.55923 4.17857 0
M  V30 390 C 37.1616 -0.245094 5.81183 0
M  V30 391 N 36.1376 -0.823881 5.3732 0
M  V30 392 H 39.9396 0.00250837 2.939 0
M  V30 393 H 37.4536 0.102007 1.62079 0
M  V30 394 H 39.4506 -2.41944 3.39513 0
M  V30 395 H 38.1106 -2.36992 2.21957 0
M  V30 396 H 39.1216 -0.150928 5.1768 0
M  V30 397 H 35.7986 -2.16849 3.56767 0
M  V30 398 H 37.1886 0.375084 6.70852 0
M  V30 399 N 39.9087 -1.5758 0.0250728 0
M  V30 400 C 41.3197 -1.79476 -0.514323 0
M  V30 401 C 41.6707 -0.934956 -1.72491 0
M  V30 402 O 40.7957 -0.144245 -2.15919 0
M  V30 403 C 41.3907 -3.25503 -0.939842 0
M  V30 404 C 39.9497 -3.48408 -1.42438 0
M  V30 405 C 39.0967 -2.74583 -0.387201 0
M  V30 406 H 42.0477 -1.567 0.25113 0
M  V30 407 H 42.0687 -3.34992 -1.80445 0
M  V30 408 H 41.5807 -3.88056 -0.0585628 0
M  V30 409 H 39.6817 -2.91103 -2.32572 0
M  V30 410 H 39.7947 -4.57119 -1.43455 0
M  V30 411 H 38.1587 -2.39942 -0.854409 0
M  V30 412 H 38.9417 -3.39849 0.485543 0
M  V30 413 N 41.3868 0.248026 -1.55636 0
M  V30 414 C 42.7978 0.817177 -1.67866 0
M  V30 415 C 43.1488 1.86069 -0.622322 0
M  V30 416 O 42.2738 2.15157 0.231618 0
M  V30 417 C 42.8688 1.489 -3.04326 0
M  V30 418 C 41.4278 2.00587 -3.185 0
M  V30 419 C 40.5748 0.856573 -2.63739 0
M  V30 420 H 43.5258 0.0238579 -1.58682 0
M  V30 421 H 43.5468 2.35698 -2.98708 0
M  V30 422 H 43.0588 0.729279 -3.81186 0
M  V30 423 H 41.1598 2.79443 -2.4646 0
M  V30 424 H 41.2728 2.20402 -4.25393 0
M  V30 425 H 39.6368 1.25678 -2.21534 0
M  V30 426 H 40.4198 0.109953 -3.43124 0
M  V30 427 N 42.8649 1.48995 0.513639 0
M  V30 428 C 43.7749 1.67443 1.64317 0
M  V30 429 C 44.7909 0.556947 1.64846 0
M  V30 430 O 45.9669 0.830082 1.83498 0
M  V30 431 C 43.0319 1.72515 3.00732 0
M  V30 432 C 42.0929 2.96009 3.1093 0
M  V30 433 C 41.3259 3.00829 4.40837 0
M  V30 434 O 41.5489 2.13594 5.28898 0
M  V30 435 O 40.4829 3.93168 4.55744 0
M  V30 436 H 44.3089 2.63106 1.51687 0
M  V30 437 H 41.8939 1.32588 0.688543 0
M  V30 438 H 43.7759 1.78277 3.81831 0
M  V30 439 H 42.4509 0.800278 3.13651 0
M  V30 440 H 41.3579 2.9577 2.29065 0
M  V30 441 H 42.6909 3.87934 3.02933 0
M  V30 442 N 44.343 -0.763751 1.37857 0
M  V30 443 C 45.592 -1.51789 1.32827 0
M  V30 444 C 45.905 -1.95426 -0.0823719 0
M  V30 445 O 47.111 -2.70298 -0.255172 0
M  V30 446 C 45.567 -2.74133 2.33193 0
M  V30 447 C 45.175 -2.37562 3.79827 0
M  V30 448 C 46.919 -3.52054 2.37188 0
M  V30 449 C 44.826 -3.56456 4.71904 0
M  V30 450 H 43.756 -0.569896 0.493695 0
M  V30 451 H 46.407 -0.835822 1.63359 0
M  V30 452 H 44.789 -3.4427 1.9569 0
M  V30 453 H 45.963 -1.75157 4.26212 0
M  V30 454 H 44.278 -1.72798 3.78853 0
M  V30 455 H 46.875 -4.40437 3.03182 0
M  V30 456 H 47.218 -3.92486 1.38782 0
M  V30 457 H 47.751 -2.88921 2.7344 0
M  V30 458 H 44.49 -3.21099 5.71468 0
M  V30 459 H 44.01 -4.17938 4.30218 0
M  V30 460 H 45.689 -4.23168 4.89426 0
M  V30 461 N 45.8211 -1.22559 -0.990812 0
M  V30 462 C 46.7681 -0.997519 -2.0813 0
M  V30 463 C 47.7381 0.0814702 -1.659 0
M  V30 464 O 48.9231 -0.0685424 -1.90677 0
M  V30 465 C 46.0631 -0.583615 -3.40129 0
M  V30 466 C 45.1761 -1.7336 -3.9569 0
M  V30 467 C 44.3111 -1.26748 -5.15857 0
M  V30 468 C 43.3501 -2.38888 -5.63559 0
M  V30 469 N 42.4871 -1.93308 -6.74964 0
M  V30 470 H 47.3271 -1.93099 -2.26973 0
M  V30 471 H 44.8641 -0.962114 -1.11273 0
M  V30 472 H 46.8221 -0.324801 -4.15934 0
M  V30 473 H 45.4521 0.312845 -3.2128 0
M  V30 474 H 44.5041 -2.10669 -3.16738 0
M  V30 475 H 45.8161 -2.57704 -4.27071 0
M  V30 476 H 44.9701 -0.966173 -5.98957 0
M  V30 477 H 43.7091 -0.394272 -4.86104 0
M  V30 478 H 42.7141 -2.69805 -4.79046 0
M  V30 479 H 43.9391 -3.26728 -5.95336 0
M  V30 480 H 41.8851 -1.08352 -6.4699 0
M  V30 481 H 41.8021 -2.71217 -7.05675 0
M  V30 482 H 43.0701 -1.66252 -7.61564 0
M  V30 483 N 47.2992 1.18797 -1.03562 0
M  V30 484 C 48.5762 1.84469 -0.650434 0
M  V30 485 C 48.9562 1.92319 0.870433 0
M  V30 486 O 48.3042 1.44528 1.76986 0
M  V30 487 C 48.5142 3.2306 -1.32036 0
M  V30 488 C 49.8622 3.9915 -1.44792 0
M  V30 489 O 50.8862 3.32481 -1.27806 0
M  V30 490 O 49.7452 5.18587 -1.72423 0
M  V30 491 H 46.8392 0.795251 -0.226946 0
M  V30 492 H 49.3852 1.26231 -1.13419 0
M  V30 493 H 48.1572 3.1222 -2.3587 0
M  V30 494 H 47.7802 3.88949 -0.8249 0
M  V30 495 N 48.7773 0.814389 1.34928 0
M  V30 496 C 49.7093 0.187834 2.28429 0
M  V30 497 C 50.7223 -0.617374 1.5064 0
M  V30 498 O 51.9113 -0.448454 1.72775 0
M  V30 499 C 49.0113 -0.755962 3.30361 0
M  V30 500 C 48.1843 0.00456686 4.374 0
M  V30 501 C 47.2433 -0.858876 5.19143 0
M  V30 502 O 46.2693 -0.306968 5.68372 0
M  V30 503 N 47.4713 -2.17988 5.38016 0
M  V30 504 H 50.2363 0.991105 2.82838 0
M  V30 505 H 47.7973 0.670561 1.4736 0
M  V30 506 H 49.7893 -1.338 3.81942 0
M  V30 507 H 48.3593 -1.46001 2.7641 0
M  V30 508 H 47.5793 0.767865 3.86649 0
M  V30 509 H 48.8673 0.528422 5.06049 0
M  V30 510 H 48.2653 -2.65212 4.99679 0
M  V30 511 H 46.8223 -2.71098 5.92747 0
M  V30 512 N 50.2554 -1.46986 0.568584 0
M  V30 513 C 51.5034 -2.02041 0.0487022 0
M  V30 514 C 51.8244 -1.44408 -1.31039 0
M  V30 515 O 51.0944 -0.623477 -1.85714 0
M  V30 516 H 49.6744 -0.746849 0.015014 0
M  V30 517 H 52.3364 -1.80257 0.741168 0
M  V30 518 H 51.4324 -3.12085 -0.0308961 0
M  V30 519 N 51.7335 -0.305618 -1.54608 0
M  V30 520 C 52.9815 0.301701 -1.99835 0
M  V30 521 C 53.3025 1.54054 -1.19551 0
M  V30 522 O 52.5725 1.93702 -0.292658 0
M  V30 523 H 51.1525 0.114468 -0.738178 0
M  V30 524 H 53.8145 -0.418016 -1.90364 0
M  V30 525 H 52.9105 0.570548 -3.06841 0
M  V30 526 N 53.2116 1.57565 -0.0334293 0
M  V30 527 C 54.1746 2.09393 0.932048 0
M  V30 528 C 55.1746 1.00986 1.25134 0
M  V30 529 O 56.3646 1.27129 1.19096 0
M  V30 530 C 53.4966 2.56338 2.2473 0
M  V30 531 H 54.6896 2.95984 0.483085 0
M  V30 532 H 52.2426 1.54819 0.21468 0
M  V30 533 H 52.9776 1.7309 2.74245 0
M  V30 534 H 52.7626 3.35542 2.02865 0
M  V30 535 H 54.2526 2.96646 2.93923 0
M  V30 536 N 54.6897 -0.239769 1.55765 0
M  V30 537 C 55.9377 -0.964892 1.77579 0
M  V30 538 C 56.2587 -1.85582 0.598699 0
M  V30 539 O 55.5287 -1.92075 -0.385226 0
M  V30 540 H 54.1087 -0.359265 0.654933 0
M  V30 541 H 56.7707 -0.256001 1.93211 0
M  V30 542 H 55.8667 -1.58243 2.69009 0
M  V30 543 N 56.1678 -1.49265 -0.50573 0
M  V30 544 C 57.0778 -1.68312 -1.63427 0
M  V30 545 C 58.0938 -0.565682 -1.64548 0
M  V30 546 O 59.2698 -0.839801 -1.83055 0
M  V30 547 C 56.3348 -1.74107 -2.99813 0
M  V30 548 C 55.3958 -2.97653 -3.09356 0
M  V30 549 C 54.6288 -3.03163 -4.39236 0
M  V30 550 O 54.8518 -2.16396 -5.27758 0
M  V30 551 O 53.7858 -3.9558 -4.53652 0
M  V30 552 H 57.6118 -2.63907 -1.50289 0
M  V30 553 H 55.1968 -1.32951 -0.681502 0
M  V30 554 H 57.0788 -1.803 -3.80881 0
M  V30 555 H 55.7538 -0.816901 -3.13223 0
M  V30 556 H 54.6608 -2.96981 -2.27493 0
M  V30 557 H 55.9938 -3.89535 -3.00871 0
M  V30 558 N 57.6459 0.756429 -1.3826 0
M  V30 559 C 58.8939 1.51248 -1.34047 0
M  V30 560 C 59.2149 1.94875 0.0698372 0
M  V30 561 O 58.4849 1.67436 1.01696 0
M  V30 562 H 57.0649 0.561018 -0.493222 0
M  V30 563 H 59.7269 0.899347 -1.7291 0
M  V30 564 H 58.8229 2.40472 -1.98947 0
M  V30 565 N 59.124 1.23083 0.984299 0
M  V30 566 C 60.054 1.03292 2.09411 0
M  V30 567 C 61.035 -0.048923 1.7003 0
M  V30 568 O 62.22 0.114967 1.93859 0
M  V30 569 C 59.35 0.619155 3.41736 0
M  V30 570 C 58.304 1.64791 3.95004 0
M  V30 571 C 57.63 1.0897 5.23478 0
M  V30 572 C 58.93 3.03999 4.24714 0
M  V30 573 H 60.624 1.96119 2.26225 0
M  V30 574 H 58.17 0.944344 1.08711 0
M  V30 575 H 60.123 0.467777 4.18796 0
M  V30 576 H 58.847 -0.344786 3.24775 0
M  V30 577 H 57.506 1.78721 3.20085 0
M  V30 578 H 57.154 0.11686 5.02864 0
M  V30 579 H 56.854 1.77704 5.60085 0
M  V30 580 H 58.378 0.950093 6.03163 0
M  V30 581 H 59.792 2.93393 4.92538 0
M  V30 582 H 58.189 3.69936 4.72512 0
M  V30 583 H 59.259 3.53285 3.32142 0
M  V30 584 N 60.6021 -1.18246 1.0419 0
M  V30 585 C 61.8481 -1.88536 0.747122 0
M  V30 586 C 62.1811 -1.80223 -0.723409 0
M  V30 587 O 61.4561 -1.20337 -1.52804 0
M  V30 588 C 61.7391 -3.38968 1.21544 0
M  V30 589 C 61.5921 -3.56084 2.74816 0
M  V30 590 C 62.9111 -4.32648 0.806482 0
M  V30 591 H 60.0301 -0.684619 0.272883 0
M  V30 592 H 62.6721 -1.39113 1.29413 0
M  V30 593 H 60.8221 -3.8119 0.750081 0
M  V30 594 H 62.4941 -3.22946 3.29399 0
M  V30 595 H 60.7371 -2.98699 3.14582 0
M  V30 596 H 61.4081 -4.61639 3.02644 0
M  V30 597 H 63.8841 -3.98211 1.20695 0
M  V30 598 H 62.7601 -5.36462 1.1619 0
M  V30 599 H 63.0211 -4.41146 -0.29029 0
M  V30 600 N 62.0802 -0.821533 -1.34494 0
M  V30 601 C 63.4962 -0.507117 -1.51329 0
M  V30 602 C 63.6962 0.968964 -1.76673 0
M  V30 603 O 62.7522 1.75348 -1.81685 0
M  V30 604 C 64.0652 -1.36544 -2.67911 0
M  V30 605 C 65.6132 -1.36242 -2.81793 0
M  V30 606 C 66.0882 -2.2052 -4.01416 0
M  V30 607 N 67.5792 -2.18136 -4.08621 0
M  V30 608 C 68.3142 -2.80095 -5.00334 0
M  V30 609 N 67.8102 -3.51039 -5.9728 0
M  V30 610 N 69.6032 -2.69656 -4.93196 0
M  V30 611 H 61.7542 -1.77729 -1.16302 0
M  V30 612 H 64.0172 -0.757291 -0.570276 0
M  V30 613 H 63.7232 -2.41361 -2.55808 0
M  V30 614 H 63.5972 -1.02917 -3.62888 0
M  V30 615 H 65.9842 -0.322041 -2.93338 0
M  V30 616 H 66.0652 -1.73866 -1.87628 0
M  V30 617 H 65.7092 -3.24607 -3.90631 0
M  V30 618 H 65.6392 -1.80247 -4.94791 0
M  V30 619 H 68.1302 -1.6653 -3.39229 0
M  V30 620 H 68.4432 -3.95565 -6.63889 0
M  V30 621 H 66.7882 -3.55145 -5.97409 0
M  V30 622 H 69.9792 -2.13808 -4.16418 0
M  V30 623 H 70.1522 -3.1823 -5.64476 0
M  V30 624 N 63.5583 1.46682 -0.576371 0
M  V30 625 C 64.7833 2.07304 -0.0630475 0
M  V30 626 C 65.2083 1.42329 1.2298 0
M  V30 627 O 64.5663 0.504865 1.74129 0
M  V30 628 C 64.6143 3.60472 0.095895 0
M  V30 629 O 63.7183 3.95927 1.15394 0
M  V30 630 H 63.0593 0.661288 -0.0599463 0
M  V30 631 H 65.5893 1.88417 -0.797511 0
M  V30 632 H 65.5993 4.06865 0.304071 0
M  V30 633 H 64.2743 4.07157 -0.84828 0
M  V30 634 H 62.8513 3.61252 0.924724 0
M  V30 635 N 65.0364 0.313813 1.54444 0
M  V30 636 C 65.9994 -0.54379 2.22656 0
M  V30 637 C 66.9994 -1.05124 1.21678 0
M  V30 638 O 68.1894 -0.945225 1.46325 0
M  V30 639 C 65.3214 -1.75427 2.92298 0
M  V30 640 H 66.5144 0.0523599 2.99854 0
M  V30 641 H 64.0674 0.0647834 1.56166 0
M  V30 642 H 64.8024 -2.38991 2.19211 0
M  V30 643 H 64.5874 -1.39791 3.66334 0
M  V30 644 H 66.0774 -2.36325 3.44297 0
M  V30 645 N 66.5145 -1.57545 0.0417849 0
M  V30 646 C 67.4625 -2.12148 -0.953723 0
M  V30 647 C 68.4565 -1.05104 -1.32852 0
M  V30 648 O 69.6625 -1.23524 -1.30927 0
M  V30 649 H 66.0375 -0.677957 -0.325389 0
M  V30 650 H 68.0085 -2.94707 -0.467991 0
M  V30 651 C 66.7575 -2.6739 -2.22257 0
M  V30 652 H 66.0805 -3.49413 -1.94295 0
M  V30 653 H 67.5205 -3.09227 -2.90094 0
M  V30 654 C 65.9795 -1.60723 -2.96091 0
M  V30 655 O 66.5095 -1.01449 -3.88679 0
M  V30 656 N 64.7155 -1.32466 -2.58652 0
M  V30 657 H 64.2625 -1.80856 -1.83437 0
M  V30 658 H 64.2205 -0.61325 -3.08361 0
M  V30 659 N 67.9926 0.231505 -1.5589 0
M  V30 660 C 69.2406 0.955461 -1.78088 0
M  V30 661 C 69.5616 1.85262 -0.608533 0
M  V30 662 O 68.8316 1.92277 0.375035 0
M  V30 663 H 67.4116 0.355787 -0.656829 0
M  V30 664 H 70.0736 0.245751 -1.93344 0
M  V30 665 H 69.1696 1.56814 -2.69844 0
M  V30 666 N 69.4707 1.49531 0.497807 0
M  V30 667 C 70.7177 1.59179 1.25173 0
M  V30 668 C 71.0457 0.279932 1.92475 0
M  V30 669 O 70.3007 -0.732383 1.81479 0
M  V30 670 C 70.5997 2.70252 2.33878 0
M  V30 671 C 70.2657 4.11644 1.84012 0
M  V30 672 C 68.9277 4.50121 1.70132 0
M  V30 673 C 71.2797 5.00121 1.46725 0
M  V30 674 C 68.6077 5.74845 1.17348 0
M  V30 675 C 70.9597 6.25366 0.95392 0
M  V30 676 C 69.6237 6.6267 0.801538 0
M  V30 677 H 68.8937 0.582478 0.45804 0
M  V30 678 H 71.5407 1.83373 0.551948 0
M  V30 679 H 69.8457 2.40041 3.09657 0
M  V30 680 H 71.5427 2.74925 2.9192 0
M  V30 681 H 68.1327 3.81274 1.95775 0
M  V30 682 H 72.3167 4.71048 1.56294 0
M  V30 683 H 67.5727 6.02444 1.04264 0
M  V30 684 H 71.7467 6.93301 0.656225 0
M  V30 685 H 69.3737 7.59197 0.390351 0
M  V30 686 N 70.9488 -0.749086 1.3866 0
M  V30 687 C 72.3598 -1.32664 1.31366 0
M  V30 688 C 72.7108 -1.96179 -0.028484 0
M  V30 689 O 71.8358 -1.9537 -0.93057 0
M  V30 690 C 72.4308 -2.41219 2.37905 0
M  V30 691 C 70.9898 -2.94684 2.34176 0
M  V30 692 C 70.1368 -1.68108 2.20533 0
M  V30 693 H 73.0878 -0.547628 1.48952 0
M  V30 694 H 73.1088 -3.21268 2.0388 0
M  V30 695 H 72.6208 -1.94962 3.35576 0
M  V30 696 H 70.7218 -3.45258 1.401 0
M  V30 697 H 70.8348 -3.48757 3.2849 0
M  V30 698 H 69.1988 -1.91907 1.67463 0
M  V30 699 H 69.9818 -1.23923 3.20153 0
M  V30 700 N 72.4269 -1.23603 -0.977757 0
M  V30 701 C 73.6569 -1.09487 -1.75203 0
M  V30 702 C 74.0649 0.356321 -1.85814 0
M  V30 703 O 73.4079 1.25816 -1.33851 0
M  V30 704 C 73.4699 -1.64905 -3.19447 0
M  V30 705 C 73.1339 -3.13688 -3.32338 0
M  V30 706 C 74.1309 -4.10953 -3.18455 0
M  V30 707 C 71.8159 -3.53449 -3.56902 0
M  V30 708 C 73.8099 -5.45962 -3.28944 0
M  V30 709 C 71.4969 -4.88602 -3.6703 0
M  V30 710 C 72.4949 -5.84668 -3.53062 0
M  V30 711 O 72.1829 -7.17365 -3.62826 0
M  V30 712 H 71.9149 -0.38367 -0.556573 0
M  V30 713 H 74.4689 -1.6398 -1.23693 0
M  V30 714 H 72.6989 -1.04835 -3.72218 0
M  V30 715 H 74.3879 -1.46226 -3.78646 0
M  V30 716 H 75.1539 -3.81577 -2.99372 0
M  V30 717 H 71.0329 -2.79188 -3.66844 0
M  V30 718 H 74.5769 -6.20925 -3.17958 0
M  V30 719 H 70.4739 -5.17653 -3.85623 0
M  V30 720 H 71.2419 -7.2515 -3.79605 0
M  V30 721 N 73.905 1.17692 -1.04816 0
M  V30 722 C 75.321 1.39863 -0.768794 0
M  V30 723 C 75.521 1.91118 0.638451 0
M  V30 724 O 74.577 2.10036 1.40146 0
M  V30 725 C 75.89 2.39274 -1.82122 0
M  V30 726 C 77.438 2.52987 -1.843 0
M  V30 727 C 77.913 3.55669 -2.88555 0
M  V30 728 N 79.404 3.63183 -2.87493 0
M  V30 729 C 80.139 4.42381 -3.64811 0
M  V30 730 N 79.635 5.25125 -4.51903 0
M  V30 731 N 81.428 4.37217 -3.53267 0
M  V30 732 H 73.579 0.82752 -1.95617 0
M  V30 733 H 75.842 0.426123 -0.846831 0
M  V30 734 H 75.548 2.08678 -2.83102 0
M  V30 735 H 75.422 3.38725 -1.65967 0
M  V30 736 H 77.809 2.82896 -0.839869 0
M  V30 737 H 77.89 1.53623 -2.04532 0
M  V30 738 H 77.534 3.26499 -3.89051 0
M  V30 739 H 77.464 4.54728 -2.65575 0
M  V30 740 H 79.955 3.04103 -2.24343 0
M  V30 741 H 80.268 5.82728 -5.07591 0
M  V30 742 H 78.613 5.24519 -4.55966 0
M  V30 743 H 81.804 3.71626 -2.84625 0
M  V30 744 H 81.977 4.98696 -4.13771 0
M  V30 745 N 75.3831 0.828654 1.34056 0
M  V30 746 C 76.2931 0.256725 2.33191 0
M  V30 747 C 77.3091 -0.611898 1.62886 0
M  V30 748 O 78.4851 -0.51844 1.94613 0
M  V30 749 C 75.5501 -0.567238 3.42028 0
M  V30 750 C 74.6111 0.324458 4.28072 0
M  V30 751 C 73.8441 -0.460274 5.31712 0
M  V30 752 O 74.0671 -1.693 5.44696 0
M  V30 753 O 73.0011 0.160391 6.01686 0
M  V30 754 H 76.8271 1.07739 2.83947 0
M  V30 755 H 74.4121 0.59093 1.37217 0
M  V30 756 H 76.2941 -1.03582 4.08471 0
M  V30 757 H 74.9691 -1.36513 2.93506 0
M  V30 758 H 73.8761 0.840659 3.64532 0
M  V30 759 H 75.2091 1.08685 4.8005 0
M  V30 760 N 76.8612 -1.46375 0.584142 0
M  V30 761 C 78.1382 -1.956 0.0033388 0
M  V30 762 C 78.5182 -1.52679 -1.45782 0
M  V30 763 O 77.8662 -0.77816 -2.14842 0
M  V30 764 C 78.0762 -3.48551 0.176891 0
M  V30 765 C 79.4242 -4.24576 0.0454609 0
M  V30 766 O 80.4482 -3.56043 0.105801 0
M  V30 767 O 79.3072 -5.46427 -0.0890376 0
M  V30 768 H 76.4012 -0.825547 -0.0490066 0
M  V30 769 H 78.9472 -1.56652 0.65256 0
M  V30 770 H 77.7192 -3.72683 1.1926 0
M  V30 771 H 77.3422 -3.94332 -0.508695 0
M  V30 772 N 78.3393 -0.321999 -1.54275 0
M  V30 773 C 79.2493 0.553631 -2.27974 0
M  V30 774 C 80.2653 1.13054 -1.32268 0
M  V30 775 O 81.4413 1.15084 -1.6528 0
M  V30 776 C 78.5063 1.69927 -3.02201 0
M  V30 777 C 77.5673 1.15433 -4.1349 0
M  V30 778 C 76.8003 2.24537 -4.84168 0
M  V30 779 O 77.0233 3.44852 -4.5435 0
M  V30 780 O 75.9573 1.90044 -5.7111 0
M  V30 781 H 79.7833 -0.0448345 -3.03667 0
M  V30 782 H 77.3683 -0.0877418 -1.49142 0
M  V30 783 H 79.2503 2.3663 -3.48689 0
M  V30 784 H 77.9253 2.28395 -2.29385 0
M  V30 785 H 76.8323 0.452436 -3.71354 0
M  V30 786 H 78.1653 0.614805 -4.88345 0
M  V30 787 N 79.8174 1.5752 -0.0501392 0
M  V30 788 C 80.7274 2.14952 0.939827 0
M  V30 789 C 81.7434 1.10706 1.34239 0
M  V30 790 O 82.9194 1.42869 1.41952 0
M  V30 791 C 79.9844 2.68232 2.19665 0
M  V30 792 C 79.0454 3.87272 1.85253 0
M  V30 793 C 78.2784 4.38002 3.04943 0
M  V30 794 O 78.5014 3.87811 4.18281 0
M  V30 795 O 77.4354 5.29602 2.86017 0
M  V30 796 H 81.2614 2.9986 0.481392 0
M  V30 797 H 78.8464 1.4841 0.171699 0
M  V30 798 H 80.7284 3.02475 2.93406 0
M  V30 799 H 79.4034 1.86395 2.64648 0
M  V30 800 H 78.3104 3.5792 1.0883 0
M  V30 801 H 79.6434 4.70336 1.4507 0
M  V30 802 N 81.2955 -0.223234 1.56011 0
M  V30 803 C 82.5435 -0.946003 1.78592 0
M  V30 804 C 82.8645 -1.84936 0.618349 0
M  V30 805 O 82.1345 -1.92473 -0.364833 0
M  V30 806 H 80.7145 -0.352298 0.658707 0
M  V30 807 H 83.3765 -0.235494 1.93472 0
M  V30 808 H 82.4725 -1.55381 2.70672 0
M  V30 809 N 82.7736 -1.49793 -0.48987 0
M  V30 810 C 83.7366 -1.66752 -1.57246 0
M  V30 811 C 84.7366 -0.538867 -1.51502 0
M  V30 812 O 85.9266 -0.805545 -1.54456 0
M  V30 813 C 83.0586 -1.67528 -2.96896 0
M  V30 814 H 84.2516 -2.63321 -1.43534 0
M  V30 815 H 81.8046 -1.38992 -0.714914 0
M  V30 816 H 82.5396 -0.725837 -3.16073 0
M  V30 817 H 82.3246 -2.49504 -3.02473 0
M  V30 818 H 83.8146 -1.82667 -3.7553 0
M  V30 819 N 84.2517 0.741722 -1.39055 0
M  V30 820 C 85.4987 1.50114 -1.35912 0
M  V30 821 C 85.8267 1.94443 0.0470937 0
M  V30 822 O 85.0817 1.66612 1.02659 0
M  V30 823 C 85.3807 2.7592 -2.27163 0
M  V30 824 C 85.0467 2.50493 -3.74919 0
M  V30 825 C 83.7087 2.43267 -4.1518 0
M  V30 826 C 86.0607 2.28585 -4.684 0
M  V30 827 C 83.3887 2.12166 -5.46994 0
M  V30 828 C 85.7407 1.99002 -6.00484 0
M  V30 829 C 84.4047 1.90241 -6.39816 0
M  V30 830 H 83.6747 0.549306 -0.497336 0
M  V30 831 H 86.3217 0.851896 -1.71508 0
M  V30 832 H 84.6267 3.45553 -1.84663 0
M  V30 833 H 86.3237 3.33923 -2.22028 0
M  V30 834 H 82.9137 2.56992 -3.43006 0
M  V30 835 H 87.0977 2.33139 -4.38132 0
M  V30 836 H 82.3537 2.03901 -5.76398 0
M  V30 837 H 86.5277 1.81057 -6.72452 0
M  V30 838 H 84.1547 1.65907 -7.41875 0
M  V30 839 N 85.7298 1.2412 0.971189 0
M  V30 840 C 86.9778 1.07668 1.71032 0
M  V30 841 C 87.2988 -0.385797 1.91146 0
M  V30 842 O 86.5688 -1.27569 1.4867 0
M  V30 843 H 85.1488 0.395429 0.633755 0
M  V30 844 H 87.8108 1.55984 1.16855 0
M  V30 845 H 86.9068 1.57195 2.69622 0
M  V30 846 N 87.2079 -1.17134 1.05439 0
M  V30 847 C 88.1179 -2.24878 0.668365 0
M  V30 848 C 89.1339 -1.71186 -0.311687 0
M  V30 849 O 90.3099 -2.00738 -0.163161 0
M  V30 850 C 87.3749 -3.46662 0.051648 0
M  V30 851 C 86.4359 -4.15429 1.08246 0
M  V30 852 C 85.6689 -5.31399 0.495082 0
M  V30 853 O 85.8919 -5.66153 -0.694743 0
M  V30 854 O 84.8259 -5.89187 1.23056 0
M  V30 855 H 88.6519 -2.60189 1.56637 0
M  V30 856 H 86.2369 -1.24482 0.826104 0
M  V30 857 H 88.1189 -4.20394 -0.290966 0
M  V30 858 H 86.7939 -3.13142 -0.819971 0
M  V30 859 H 85.7009 -3.43704 1.47711 0
M  V30 860 H 87.0339 -4.52982 1.92532 0
M  V30 861 N 88.686 -0.835752 -1.33615 0
M  V30 862 C 89.636 -0.238856 -2.26745 0
M  V30 863 C 90.62 0.604343 -1.49119 0
M  V30 864 O 91.812 0.456822 -1.71003 0
M  V30 865 C 88.941 0.587725 -3.38232 0
M  V30 866 C 88.027 -0.266811 -4.2326 0
M  V30 867 N 88.418 -1.34403 -4.87616 0
M  V30 868 C 86.716 -0.0533131 -4.45968 0
M  V30 869 C 87.417 -1.86819 -5.50884 0
M  V30 870 N 86.393 -1.17013 -5.30857 0
M  V30 871 H 90.195 -1.06266 -2.74016 0
M  V30 872 H 87.709 -0.679881 -1.47483 0
M  V30 873 H 89.706 1.03161 -4.03935 0
M  V30 874 H 88.366 1.40954 -2.9251 0
M  V30 875 H 89.377 -1.7269 -4.88261 0
M  V30 876 H 86.054 0.735312 -4.10974 0
M  V30 877 H 87.444 -2.7701 -6.1214 0
M  V30 878 N 90.1641 1.46063 -0.591896 0
M  V30 879 C 91.4121 2.01938 -0.0808391 0
M  V30 880 C 91.7331 1.46475 1.28725 0
M  V30 881 O 91.0031 0.652944 1.84698 0
M  V30 882 H 89.5831 0.746516 -0.0268938 0
M  V30 883 H 92.2451 1.79055 -0.769752 0
M  V30 884 H 91.3411 3.12094 -0.0187578 0
M  V30 885 N 91.6422 0.330177 1.54103 0
M  V30 886 C 92.8672 -0.274893 2.0557 0
M  V30 887 C 93.2922 -1.44487 1.20437 0
M  V30 888 O 92.6502 -1.80021 0.214991 0
M  V30 889 C 92.6982 -0.68079 3.54115 0
M  V30 890 O 91.8022 -1.7824 3.71893 0
M  V30 891 H 91.1432 -0.0483849 0.662235 0
M  V30 892 H 93.6732 0.480508 1.98878 0
M  V30 893 H 93.6832 -0.961635 3.96505 0
M  V30 894 H 92.3582 0.174903 4.15532 0
M  V30 895 H 90.9352 -1.49985 3.41407 0
M  V30 896 N 93.1203 -1.57491 0.0584922 0
M  V30 897 C 94.0523 -2.08916 -0.942694 0
M  V30 898 C 95.0653 -1.0185 -1.27006 0
M  V30 899 O 96.2543 -1.29398 -1.22957 0
M  V30 900 C 93.3543 -2.52341 -2.26224 0
M  V30 901 C 92.5273 -3.82827 -2.1157 0
M  V30 902 C 91.5863 -4.12487 -3.26712 0
M  V30 903 O 90.6123 -4.82295 -3.02292 0
M  V30 904 N 91.8143 -3.64978 -4.5141 0
M  V30 905 H 94.5793 -2.95437 -0.503722 0
M  V30 906 H 92.1403 -1.61397 -0.12757 0
M  V30 907 H 94.1323 -2.69254 -3.02133 0
M  V30 908 H 92.7023 -1.7103 -2.61663 0
M  V30 909 H 91.9223 -3.75425 -1.20208 0
M  V30 910 H 93.2103 -4.68263 -1.99015 0
M  V30 911 H 92.6083 -3.08558 -4.7414 0
M  V30 912 H 91.1653 -3.87115 -5.2439 0
M  V30 913 N 94.5984 0.214957 -1.56127 0
M  V30 914 C 95.8464 0.936518 -1.79091 0
M  V30 915 C 96.1674 1.84606 -0.628148 0
M  V30 916 O 95.4374 1.92664 0.35462 0
M  V30 917 H 94.0174 0.3488 -0.660566 0
M  V30 918 H 96.6794 0.22523 -1.93594 0
M  V30 919 H 95.7754 1.53943 -2.71492 0
M  V30 920 N 96.0765 1.50051 0.48192 0
M  V30 921 C 97.3045 1.64237 1.25832 0
M  V30 922 C 97.7195 0.321336 1.86045 0
M  V30 923 O 97.0765 -0.695478 1.68729 0
M  V30 924 C 97.1275 2.72548 2.37487 0
M  V30 925 O 96.8485 3.99529 1.79745 0
M  V30 926 C 98.3495 2.9761 3.28547 0
M  V30 927 H 95.5695 0.55237 0.380957 0
M  V30 928 H 98.1135 1.96207 0.576467 0
M  V30 929 H 96.2685 2.43303 3.01467 0
M  V30 930 H 96.6825 4.59342 2.5319 0
M  V30 931 H 98.1565 3.77084 4.03127 0
M  V30 932 H 98.6335 2.0826 3.86684 0
M  V30 933 H 99.2395 3.28345 2.70314 0
M  V30 934 N 97.5546 -0.734337 1.39446 0
M  V30 935 C 98.7846 -1.52137 1.39778 0
M  V30 936 C 99.1926 -1.89198 -0.00929312 0
M  V30 937 O 98.5356 -1.54666 -0.991168 0
M  V30 938 C 98.5976 -2.83762 2.20724 0
M  V30 939 C 98.2616 -2.69131 3.69347 0
M  V30 940 C 99.2586 -2.37635 4.62413 0
M  V30 941 C 96.9436 -2.85982 4.1294 0
M  V30 942 C 98.9376 -2.23172 5.97054 0
M  V30 943 C 96.6246 -2.71137 5.47657 0
M  V30 944 C 97.6226 -2.39777 6.39528 0
M  V30 945 O 97.3106 -2.25026 7.71763 0
M  V30 946 H 97.0426 -0.476717 0.479288 0
M  V30 947 H 99.5966 -0.915012 1.83893 0
M  V30 948 H 97.8266 -3.4666 1.71359 0
M  V30 949 H 99.5156 -3.45383 2.13226 0
M  V30 950 H 100.282 -2.24267 4.30034 0
M  V30 951 H 96.1606 -3.09383 3.41765 0
M  V30 952 H 99.7046 -1.98617 6.68728 0
M  V30 953 H 95.6016 -2.84083 5.79626 0
M  V30 954 H 96.3696 -2.40091 7.82495 0
M  V30 955 N 99.0327 -1.24633 -0.964593 0
M  V30 956 C 100.258 -1.11596 -1.74818 0
M  V30 957 C 100.683 0.32723 -1.85232 0
M  V30 958 O 100.041 1.23695 -1.32549 0
M  V30 959 C 100.089 -1.76397 -3.1451 0
M  V30 960 O 99.1927 -1.03685 -3.99153 0
M  V30 961 H 98.5337 -0.390196 -0.537255 0
M  V30 962 H 101.064 -1.65002 -1.20977 0
M  V30 963 H 101.074 -1.8228 -3.65018 0
M  V30 964 H 99.7487 -2.81401 -3.06246 0
M  V30 965 H 98.3257 -1.05611 -3.57632 0
M  V30 966 N 100.511 1.16574 -1.06058 0
M  V30 967 C 101.459 2.22941 -0.663343 0
M  V30 968 C 102.453 1.66358 0.319593 0
M  V30 969 O 103.659 1.7905 0.184713 0
M  V30 970 H 100.034 0.725907 -0.196376 0
M  V30 971 H 102.005 2.53736 -1.57037 0
M  V30 972 C 100.754 3.47642 -0.0632808 0
M  V30 973 H 100.077 3.91493 -0.810733 0
M  V30 974 H 101.517 4.2363 0.177177 0
M  V30 975 C 99.9758 3.1509 1.19248 0
M  V30 976 O 100.506 3.30673 2.28075 0
M  V30 977 N 98.7118 2.6924 1.09353 0
M  V30 978 H 98.2588 2.5676 0.207912 0
M  V30 979 H 98.2168 2.47833 1.93458 0
M  V30 980 N 101.989 0.842826 1.3317 0
M  V30 981 C 103.217 0.454055 2.01856 0
M  V30 982 C 103.632 -0.94587 1.63397 0
M  V30 983 O 102.989 -1.61534 0.849302 0
M  V30 984 C 103.04 0.569715 3.56982 0
M  V30 985 O 102.761 1.91448 3.94055 0
M  V30 986 C 104.262 0.178412 4.42941 0
M  V30 987 H 101.482 0.17979 0.646465 0
M  V30 988 H 104.026 1.1365 1.70012 0
M  V30 989 H 102.181 -0.0648587 3.87346 0
M  V30 990 H 102.595 1.90282 4.88767 0
M  V30 991 H 104.069 0.310376 5.51127 0
M  V30 992 H 104.546 -0.880056 4.30293 0
M  V30 993 H 105.152 0.787579 4.17944 0
M  V30 994 N 103.467 -1.45747 0.599634 0
M  V30 995 C 104.414 -2.30467 -0.123849 0
M  V30 996 C 105.384 -1.41632 -0.86774 0
M  V30 997 O 106.569 -1.70568 -0.855056 0
M  V30 998 C 103.709 -3.26402 -1.12051 0
M  V30 999 C 102.822 -4.3034 -0.37832 0
M  V30 1000 C 101.957 -5.13389 -1.364 0
M  V30 1001 C 100.996 -6.09061 -0.609171 0
M  V30 1002 N 100.133 -6.84918 -1.54374 0
M  V30 1003 H 104.973 -2.91802 0.604627 0
M  V30 1004 H 102.51 -1.43797 0.309972 0
M  V30 1005 H 104.468 -3.80482 -1.7114 0
M  V30 1006 H 103.098 -2.66839 -1.8165 0
M  V30 1007 H 102.15 -3.78984 0.327929 0
M  V30 1008 H 103.462 -4.98354 0.210997 0
M  V30 1009 H 102.616 -5.7183 -2.02719 0
M  V30 1010 H 101.355 -4.45376 -1.98725 0
M  V30 1011 H 100.36 -5.49758 0.0676979 0
M  V30 1012 H 101.585 -6.79099 0.00891991 0
M  V30 1013 H 99.531 -6.19601 -2.15478 0
M  V30 1014 H 99.448 -7.49254 -1.00766 0
M  V30 1015 H 100.716 -7.47906 -2.19676 0
M  V30 1016 N 104.945 -0.338344 -1.53925 0
M  V30 1017 C 105.855 0.529421 -2.28548 0
M  V30 1018 C 106.871 1.11645 -1.3346 0
M  V30 1019 O 108.047 1.13325 -1.66492 0
M  V30 1020 C 105.112 1.66713 -3.03987 0
M  V30 1021 C 104.173 1.11041 -4.14691 0
M  V30 1022 C 103.406 2.19389 -4.86522 0
M  V30 1023 O 103.629 3.40013 -4.57982 0
M  V30 1024 O 102.563 1.83976 -5.73094 0
M  V30 1025 H 106.389 -0.0770399 -3.03602 0
M  V30 1026 H 103.974 -0.103555 -1.49041 0
M  V30 1027 H 105.856 2.32918 -3.5118 0
M  V30 1028 H 104.531 2.25949 -2.31794 0
M  V30 1029 H 103.438 0.413024 -3.71813 0
M  V30 1030 H 104.771 0.562975 -4.8897 0
M  V30 1031 N 106.423 1.57458 -0.0668435 0
M  V30 1032 C 107.371 2.13639 0.919851 0
M  V30 1033 C 108.365 1.07204 1.31163 0
M  V30 1034 O 109.571 1.25591 1.28945 0
M  V30 1035 H 105.946 0.683048 0.314562 0
M  V30 1036 H 107.917 2.95415 0.421047 0
M  V30 1037 C 106.666 2.70892 2.17975 0
M  V30 1038 H 105.989 3.5246 1.88711 0
M  V30 1039 H 107.429 3.13803 2.85138 0
M  V30 1040 C 105.888 1.65414 2.93496 0
M  V30 1041 O 106.418 1.07619 3.87015 0
M  V30 1042 N 104.624 1.36564 2.56512 0
M  V30 1043 H 104.171 1.83751 1.80536 0
M  V30 1044 H 104.129 0.66223 3.07347 0
M  V30 1045 N 107.901 -0.206675 1.56239 0
M  V30 1046 C 109.149 -0.927007 1.79586 0
M  V30 1047 C 109.47 -1.8427 0.637929 0
M  V30 1048 O 108.74 -1.92849 -0.344398 0
M  V30 1049 H 107.32 -0.345292 0.662407 0
M  V30 1050 H 109.982 -0.21496 1.93711 0
M  V30 1051 H 109.078 -1.52501 2.72305 0
M  V30 1052 N 109.379 -1.50304 -0.473955 0
M  V30 1053 C 110.628 -1.60392 -1.22301 0
M  V30 1054 C 110.941 -0.308411 -1.93153 0
M  V30 1055 O 112.147 -0.288156 -2.69966 0
M  V30 1056 C 110.603 -2.83109 -2.2221 0
M  V30 1057 C 110.211 -4.19524 -1.57173 0
M  V30 1058 C 111.955 -3.0254 -2.97775 0
M  V30 1059 C 109.862 -5.33431 -2.55353 0
M  V30 1060 H 108.792 -0.597286 -0.460179 0
M  V30 1061 H 111.443 -1.76731 -0.493803 0
M  V30 1062 H 109.825 -2.60322 -2.9841 0
M  V30 1063 H 110.999 -4.52554 -0.867824 0
M  V30 1064 H 109.314 -4.05674 -0.939002 0
M  V30 1065 H 111.911 -3.84811 -3.71248 0
M  V30 1066 H 112.254 -2.14154 -3.56992 0
M  V30 1067 H 112.787 -3.25494 -2.28688 0
M  V30 1068 H 109.526 -6.23962 -2.00878 0
M  V30 1069 H 109.046 -5.04823 -3.23904 0
M  V30 1070 H 110.725 -5.63887 -3.17239 0
M  V30 1071 N 110.857 0.726932 -1.39834 0
M  V30 1072 C 111.805 1.86235 -1.39353 0
M  V30 1073 C 112.799 1.67144 -0.275555 0
M  V30 1074 O 114.005 1.74387 -0.44601 0
M  V30 1075 H 110.38 0.613174 -0.43534 0
M  V30 1076 H 112.351 1.83756 -2.35109 0
M  V30 1077 C 111.1 3.23995 -1.26185 0
M  V30 1078 H 110.423 3.39285 -2.11484 0
M  V30 1079 H 111.863 4.03609 -1.29907 0
M  V30 1080 C 110.322 3.36888 0.0290018 0
M  V30 1081 O 110.852 3.89152 0.99619 0
M  V30 1082 N 109.058 2.90446 0.0947437 0
M  V30 1083 H 108.605 2.48102 -0.693035 0
M  V30 1084 H 108.563 2.99451 0.957932 0
M  V30 1085 N 112.336 1.25143 0.95797 0
M  V30 1086 C 113.584 1.09476 1.69881 0
M  V30 1087 C 113.905 -0.365502 1.91544 0
M  V30 1088 O 113.175 -1.25985 1.50015 0
M  V30 1089 H 111.755 0.402128 0.629525 0
M  V30 1090 H 114.417 1.57214 1.15194 0
M  V30 1091 H 113.513 1.60046 2.6794 0
M  V30 1092 N 113.814 -1.1601 1.06675 0
M  V30 1093 C 114.724 -2.24156 0.692179 0
M  V30 1094 C 115.74 -1.71507 -0.293513 0
M  V30 1095 O 116.916 -2.009 -0.141861 0
M  V30 1096 C 113.981 -3.46587 0.0884131 0
M  V30 1097 C 113.042 -4.14257 1.12646 0
M  V30 1098 C 112.275 -5.30844 0.551416 0
M  V30 1099 O 112.498 -5.66858 -0.634656 0
M  V30 1100 O 111.432 -5.87848 1.29298 0
M  V30 1101 H 115.258 -2.58513 1.59388 0
M  V30 1102 H 112.843 -1.23599 0.83926 0
M  V30 1103 H 114.725 -4.20679 -0.246361 0
M  V30 1104 H 113.4 -3.13994 -0.786712 0
M  V30 1105 H 112.307 -3.42118 1.51348 0
M  V30 1106 H 113.64 -4.50914 1.97325 0
M  V30 1107 N 115.292 -0.849877 -1.32721 0
M  V30 1108 C 116.222 -0.306308 -2.31482 0
M  V30 1109 C 117.203 0.591952 -1.59468 0
M  V30 1110 O 118.388 0.513199 -1.87296 0
M  V30 1111 C 115.518 0.510204 -3.43532 0
M  V30 1112 C 114.472 -0.293209 -4.26994 0
M  V30 1113 C 113.798 0.647743 -5.30762 0
M  V30 1114 C 115.098 -1.51634 -4.99804 0
M  V30 1115 H 116.792 -1.13153 -2.77195 0
M  V30 1116 H 114.338 -0.545553 -1.33266 0
M  V30 1117 H 116.291 0.900856 -4.11658 0
M  V30 1118 H 115.015 1.36874 -2.96535 0
M  V30 1119 H 113.674 -0.665555 -3.60508 0
M  V30 1120 H 113.322 1.50299 -4.8002 0
M  V30 1121 H 113.022 0.11422 -5.87489 0
M  V30 1122 H 114.546 1.03567 -6.01753 0
M  V30 1123 H 115.96 -1.19824 -5.60638 0
M  V30 1124 H 114.357 -1.98745 -5.66234 0
M  V30 1125 H 115.427 -2.28018 -4.27943 0
M  V30 1126 N 116.77 1.45427 -0.607355 0
M  V30 1127 C 117.998 2.06614 -0.108814 0
M  V30 1128 C 118.413 1.45204 1.2067 0
M  V30 1129 O 117.77 0.566132 1.73497 0
M  V30 1130 C 117.821 3.61481 0.0375347 0
M  V30 1131 O 117.542 4.20598 -1.22593 0
M  V30 1132 C 119.043 4.39652 0.567561 0
M  V30 1133 H 116.263 0.66747 -0.0687351 0
M  V30 1134 H 118.807 1.86675 -0.835022 0
M  V30 1135 H 116.962 3.80762 0.714068 0
M  V30 1136 H 117.376 5.1377 -1.05547 0
M  V30 1137 H 118.85 5.48518 0.61905 0
M  V30 1138 H 119.327 4.09417 1.58978 0
M  V30 1139 H 119.933 4.25234 -0.0749202 0
M  V30 1140 N 118.248 0.346503 1.53744 0
M  V30 1141 C 119.473 -0.253074 2.0585 0
M  V30 1142 C 119.898 -1.43202 1.21962 0
M  V30 1143 O 119.256 -1.79783 0.234073 0
M  V30 1144 C 119.304 -0.643193 3.54817 0
M  V30 1145 O 118.408 -1.74286 3.73762 0
M  V30 1146 H 117.749 -0.0413583 0.662711 0
M  V30 1147 H 120.279 0.501574 1.98357 0
M  V30 1148 H 120.289 -0.919526 3.97503 0
M  V30 1149 H 118.964 0.218966 4.15323 0
M  V30 1150 H 117.541 -1.46356 3.42979 0
M  V30 1151 N 119.726 -1.57421 0.075193 0
M  V30 1152 C 120.689 -2.11791 -0.876203 0
M  V30 1153 C 121.689 -1.04268 -1.22412 0
M  V30 1154 O 122.879 -1.30242 -1.15684 0
M  V30 1155 C 120.011 -2.62207 -2.17854 0
M  V30 1156 H 121.204 -2.9716 -0.40444 0
M  V30 1157 H 118.757 -1.55333 -0.173557 0
M  V30 1158 H 119.492 -1.803 -2.6956 0
M  V30 1159 H 119.277 -3.40802 -1.93897 0
M  V30 1160 H 120.767 -3.04335 -2.85955 0
M  V30 1161 N 121.204 0.198386 -1.56346 0
M  V30 1162 C 122.481 0.944982 -1.71258 0
M  V30 1163 C 122.861 2.0151 -0.629048 0
M  V30 1164 O 122.209 2.25639 0.360473 0
M  V30 1165 C 122.419 1.5344 -3.1346 0
M  V30 1166 C 123.767 2.01778 -3.73591 0
M  V30 1167 O 124.791 1.63288 -3.16568 0
M  V30 1168 O 123.65 2.72594 -4.73661 0
M  V30 1169 H 120.744 0.442939 -0.69838 0
M  V30 1170 H 123.29 0.188342 -1.68652 0
M  V30 1171 H 122.062 0.762869 -3.83792 0
M  V30 1172 H 121.685 2.35596 -3.20282 0
M  V30 1173 N 122.682 1.50554 0.465978 0
M  V30 1174 C 124.098 1.38093 0.800154 0
M  V30 1175 C 124.298 0.440988 1.96615 0
M  V30 1176 O 123.354 -0.114499 2.5224 0
M  V30 1177 C 124.667 2.79565 1.10742 0
M  V30 1178 C 126.215 2.88516 1.21357 0
M  V30 1179 C 126.69 4.30833 1.55393 0
M  V30 1180 N 128.181 4.33807 1.62375 0
M  V30 1181 C 128.916 5.40927 1.90225 0
M  V30 1182 N 128.412 6.58247 2.16062 0
M  V30 1183 N 130.205 5.28376 1.9177 0
M  V30 1184 H 122.356 2.10237 -0.302366 0
M  V30 1185 H 124.619 0.945203 -0.0727746 0
M  V30 1186 H 124.325 3.50208 0.323661 0
M  V30 1187 H 124.199 3.17125 2.04234 0
M  V30 1188 H 126.586 2.1809 1.98799 0
M  V30 1189 H 126.667 2.54492 0.258321 0
M  V30 1190 H 126.311 5.01799 0.784889 0
M  V30 1191 H 126.241 4.62347 2.52076 0
M  V30 1192 H 128.732 3.49212 1.44427 0
M  V30 1193 H 129.045 7.3569 2.36601 0
M  V30 1194 H 127.39 6.61413 2.13444 0
M  V30 1195 H 130.581 4.35715 1.71085 0
M  V30 1196 H 130.754 6.11944 2.13139 0
M  V30 1197 N 124.16 -0.719506 1.40217 0
M  V30 1198 C 125.07 -1.86378 1.42479 0
M  V30 1199 C 126.086 -1.71073 0.317834 0
M  V30 1200 O 127.262 -1.93406 0.561794 0
M  V30 1201 C 124.327 -3.22136 1.28178 0
M  V30 1202 C 123.388 -3.49723 2.48982 0
M  V30 1203 C 122.621 -4.79004 2.35353 0
M  V30 1204 O 122.844 -5.53821 1.36524 0
M  V30 1205 O 121.778 -5.06839 3.2465 0
M  V30 1206 H 125.604 -1.87425 2.38968 0
M  V30 1207 H 123.189 -0.869405 1.21498 0
M  V30 1208 H 125.071 -4.03234 1.22395 0
M  V30 1209 H 123.746 -3.21825 0.347934 0
M  V30 1210 H 122.653 -2.6865 2.60342 0
M  V30 1211 H 123.986 -3.54828 3.41113 0
M  V30 1212 N 125.638 -1.25649 -0.95132 0
M  V30 1213 C 126.866 -1.13343 -1.73092 0
M  V30 1214 C 127.281 0.312434 -1.86197 0
M  V30 1215 O 126.638 1.21465 -1.36207 0
M  V30 1216 C 126.689 -1.78602 -3.14299 0
M  V30 1217 O 126.41 -3.17537 -3.01831 0
M  V30 1218 C 127.911 -1.72119 -4.08522 0
M  V30 1219 H 125.131 -0.395181 -0.542285 0
M  V30 1220 H 127.675 -1.66076 -1.19328 0
M  V30 1221 H 125.83 -1.29832 -3.64996 0
M  V30 1222 H 126.244 -3.49676 -3.90931 0
M  V30 1223 H 127.718 -2.22435 -5.052 0
M  V30 1224 H 128.195 -0.685635 -4.33815 0
M  V30 1225 H 128.801 -2.20393 -3.63741 0
M  V30 1226 N 127.117 1.15442 -1.07289 0
M  V30 1227 C 128.08 2.18358 -0.696591 0
M  V30 1228 C 129.08 1.58637 0.262837 0
M  V30 1229 O 130.27 1.74145 0.0438809 0
M  V30 1230 C 127.402 3.4089 -0.0266151 0
M  V30 1231 H 128.595 2.53162 -1.60776 0
M  V30 1232 H 126.148 1.29893 -0.869342 0
M  V30 1233 H 126.883 3.11653 0.896822 0
M  V30 1234 H 126.668 3.85495 -0.716657 0
M  V30 1235 H 128.158 4.17009 0.222028 0
M  V30 1236 N 128.595 0.856903 1.32268 0
M  V30 1237 C 129.505 0.306131 2.32594 0
M  V30 1238 C 130.521 -0.577209 1.64147 0
M  V30 1239 O 131.697 -0.477043 1.95669 0
M  V30 1240 C 128.762 -0.494561 3.43154 0
M  V30 1241 C 127.823 0.415186 4.27288 0
M  V30 1242 C 127.056 -0.347387 5.32568 0
M  V30 1243 O 127.279 -1.57708 5.48165 0
M  V30 1244 O 126.213 0.287982 6.01211 0
M  V30 1245 H 130.039 1.13737 2.81598 0
M  V30 1246 H 127.624 0.619902 1.35932 0
M  V30 1247 H 129.506 -0.948944 4.10576 0
M  V30 1248 H 128.181 -1.30257 2.96336 0
M  V30 1249 H 127.088 0.917793 3.62667 0
M  V30 1250 H 128.421 1.18844 4.77637 0
M  V30 1251 N 130.073 -1.45103 0.615059 0
M  V30 1252 C 130.983 -2.34382 -0.101034 0
M  V30 1253 C 131.999 -1.51681 -0.852585 0
M  V30 1254 O 133.175 -1.8446 -0.808484 0
M  V30 1255 C 130.24 -3.29417 -1.08099 0
M  V30 1256 C 129.301 -4.28025 -0.330577 0
M  V30 1257 C 128.534 -5.1852 -1.26385 0
M  V30 1258 O 128.757 -5.12598 -2.50198 0
M  V30 1259 O 127.691 -5.97122 -0.756866 0
M  V30 1260 H 131.517 -2.97033 0.632855 0
M  V30 1261 H 129.102 -1.4461 0.375293 0
M  V30 1262 H 130.984 -3.87958 -1.6452 0
M  V30 1263 H 129.659 -2.69321 -1.79577 0
M  V30 1264 H 128.566 -3.73078 0.276283 0
M  V30 1265 H 129.899 -4.90997 0.343866 0
M  V30 1266 N 131.551 -0.354651 -1.53558 0
M  V30 1267 C 132.797 0.238797 -2.01389 0
M  V30 1268 C 133.13 1.49309 -1.2418 0
M  V30 1269 O 132.405 1.91638 -0.332457 0
M  V30 1270 C 132.688 0.541771 -3.56001 0
M  V30 1271 C 132.541 -0.725388 -4.43912 0
M  V30 1272 C 133.86 1.34685 -4.18984 0
M  V30 1273 H 130.979 0.0853177 -0.732045 0
M  V30 1274 H 133.621 -0.477384 -1.83905 0
M  V30 1275 H 131.771 1.15189 -3.71031 0
M  V30 1276 H 133.443 -1.36313 -4.407 0
M  V30 1277 H 131.686 -1.34801 -4.12324 0
M  V30 1278 H 132.357 -0.468505 -5.50008 0
M  V30 1279 H 134.833 0.830837 -4.07721 0
M  V30 1280 H 133.709 1.52759 -5.27215 0
M  V30 1281 H 133.97 2.35221 -3.74331 0
M  V30 1282 N 133.029 1.57378 -0.0835403 0
M  V30 1283 C 134.254 1.98682 0.594987 0
M  V30 1284 C 134.679 0.961969 1.61641 0
M  V30 1285 O 134.037 -0.0709989 1.81161 0
M  V30 1286 C 134.085 3.38988 1.2296 0
M  V30 1287 O 133.189 3.39208 2.34546 0
M  V30 1288 H 132.53 0.646368 0.152002 0
M  V30 1289 H 135.06 2.03961 -0.161533 0
M  V30 1290 H 135.07 3.76431 1.57366 0
M  V30 1291 H 133.745 4.13107 0.481228 0
M  V30 1292 H 132.322 3.13548 2.01846 0
M  V30 1293 N 134.507 -0.190092 1.56449 0
M  V30 1294 C 135.47 -1.21925 1.9408 0
M  V30 1295 C 136.47 -1.38176 0.822431 0
M  V30 1296 O 137.66 -1.35903 1.08977 0
M  V30 1297 C 134.792 -2.58773 2.21922 0
M  V30 1298 H 135.985 -0.897464 2.86157 0
M  V30 1299 H 133.538 -0.43181 1.50217 0
M  V30 1300 H 134.273 -2.95998 1.32499 0
M  V30 1301 H 134.058 -2.48348 3.03424 0
M  V30 1302 H 135.548 -3.32978 2.52022 0
M  V30 1303 N 135.985 -1.50799 -0.457987 0
M  V30 1304 C 137.401 -1.38515 -0.792819 0
M  V30 1305 C 137.601 -0.451409 -1.96379 0
M  V30 1306 O 136.657 0.10112 -2.52297 0
M  V30 1307 C 137.97 -2.80149 -1.09258 0
M  V30 1308 C 139.518 -2.89156 -1.19825 0
M  V30 1309 C 139.993 -4.31651 -1.53106 0
M  V30 1310 N 141.484 -4.34662 -1.60072 0
M  V30 1311 C 142.219 -5.41928 -1.87354 0
M  V30 1312 N 141.715 -6.59384 -2.12568 0
M  V30 1313 N 143.508 -5.29385 -1.88965 0
M  V30 1314 H 135.659 -2.10073 0.313511 0
M  V30 1315 H 137.922 -0.944803 0.0777862 0
M  V30 1316 H 137.628 -3.50374 -0.305084 0
M  V30 1317 H 137.502 -3.18204 -2.02549 0
M  V30 1318 H 139.889 -2.19141 -1.97639 0
M  V30 1319 H 139.97 -2.54626 -0.244821 0
M  V30 1320 H 139.614 -5.02208 -0.758266 0
M  V30 1321 H 139.544 -4.63678 -2.49621 0
M  V30 1322 H 142.035 -3.49973 -1.42573 0
M  V30 1323 H 142.348 -7.36934 -2.32696 0
M  V30 1324 H 140.693 -6.62535 -2.09933 0
M  V30 1325 H 143.884 -4.36616 -1.68772 0
M  V30 1326 H 144.057 -6.13066 -2.09891 0
M  V30 1327 N 137.463 0.71206 -1.40597 0
M  V30 1328 C 138.712 1.46754 -1.38369 0
M  V30 1329 C 139.025 1.95598 0.0097839 0
M  V30 1330 O 140.231 2.71059 0.154677 0
M  V30 1331 C 138.687 2.65289 -2.43207 0
M  V30 1332 C 138.295 2.23301 -3.88382 0
M  V30 1333 C 140.039 3.43008 -2.50091 0
M  V30 1334 C 137.946 3.38696 -4.84808 0
M  V30 1335 H 136.876 0.55118 -0.514506 0
M  V30 1336 H 139.527 0.774616 -1.66349 0
M  V30 1337 H 137.909 3.36769 -2.08332 0
M  V30 1338 H 139.083 1.59218 -4.32419 0
M  V30 1339 H 137.398 1.58618 -3.85006 0
M  V30 1340 H 139.995 4.28881 -3.1932 0
M  V30 1341 H 140.338 3.87065 -1.53253 0
M  V30 1342 H 140.871 2.78574 -2.83974 0
M  V30 1343 H 137.61 2.99668 -5.82992 0
M  V30 1344 H 137.13 4.01683 -4.45433 0
M  V30 1345 H 138.809 4.04712 -5.04794 0
M  V30 1346 N 138.941 1.26152 0.944643 0
M  V30 1347 C 140.187 1.11657 1.69294 0
M  V30 1348 C 140.52 -0.339926 1.91202 0
M  V30 1349 O 139.795 -1.24994 1.49019 0
M  V30 1350 C 140.078 1.88236 3.06984 0
M  V30 1351 C 139.931 3.41772 2.92424 0
M  V30 1352 C 141.25 1.67343 4.07043 0
M  V30 1353 H 138.369 0.407004 0.614424 0
M  V30 1354 H 141.011 1.55106 1.09737 0
M  V30 1355 H 139.161 1.51308 3.57824 0
M  V30 1356 H 140.833 3.88433 2.48832 0
M  V30 1357 H 139.076 3.68974 2.28124 0
M  V30 1358 H 139.747 3.90579 3.90067 0
M  V30 1359 H 142.223 1.99509 3.65151 0
M  V30 1360 H 141.099 2.23346 5.01406 0
M  V30 1361 H 141.36 0.617158 4.37771 0
M  V30 1362 N 140.419 -1.14872 1.07899 0
M  V30 1363 C 141.351 -2.19425 0.662231 0
M  V30 1364 C 142.364 -1.60231 -0.288079 0
M  V30 1365 O 143.553 -1.78336 -0.076534 0
M  V30 1366 C 140.653 -3.38867 -0.0470695 0
M  V30 1367 C 139.826 -4.27597 0.920831 0
M  V30 1368 C 138.885 -5.25616 0.247805 0
M  V30 1369 O 137.911 -5.62189 0.890599 0
M  V30 1370 N 139.113 -5.71746 -1.00435 0
M  V30 1371 H 141.878 -2.55797 1.56166 0
M  V30 1372 H 139.439 -1.30042 0.964404 0
M  V30 1373 H 141.431 -4.01497 -0.50813 0
M  V30 1374 H 140.001 -3.00864 -0.848523 0
M  V30 1375 H 139.221 -3.61982 1.56087 0
M  V30 1376 H 140.509 -4.83748 1.57688 0
M  V30 1377 H 139.907 -5.44153 -1.54642 0
M  V30 1378 H 138.464 -6.36389 -1.40899 0
M  V30 1379 N 141.898 -0.863906 -1.31812 0
M  V30 1380 C 143.144 -0.472535 -1.97218 0
M  V30 1381 C 143.477 0.971394 -1.68159 0
M  V30 1382 O 142.752 1.68309 -0.974798 0
M  V30 1383 C 143.035 -0.723054 -3.52766 0
M  V30 1384 C 142.888 -2.21608 -3.91421 0
M  V30 1385 C 144.207 -0.185522 -4.39709 0
M  V30 1386 H 141.326 -0.173158 -0.71637 0
M  V30 1387 H 143.968 -1.08403 -1.56041 0
M  V30 1388 H 142.118 -0.202577 -3.87971 0
M  V30 1389 H 143.79 -2.80334 -3.66347 0
M  V30 1390 H 142.033 -2.691 -3.40246 0
M  V30 1391 H 142.704 -2.34203 -4.99853 0
M  V30 1392 H 145.18 -0.630726 -4.11292 0
M  V30 1393 H 144.056 -0.390306 -5.47511 0
M  V30 1394 H 144.317 0.912229 -4.32586 0
M  V30 1395 N 143.376 1.44774 -0.622745 0
M  V30 1396 C 144.622 2.0242 -0.124083 0
M  V30 1397 C 144.955 1.4881 1.24777 0
M  V30 1398 O 144.23 0.668799 1.8264 0
M  V30 1399 C 144.513 3.59957 -0.101619 0
M  V30 1400 C 144.366 4.23867 -1.50521 0
M  V30 1401 C 145.685 4.36284 0.578272 0
M  V30 1402 H 142.804 0.735528 -0.0465645 0
M  V30 1403 H 145.446 1.72447 -0.797617 0
M  V30 1404 H 143.596 3.85623 0.471934 0
M  V30 1405 H 145.268 4.09336 -2.12701 0
M  V30 1406 H 143.511 3.81684 -2.06154 0
M  V30 1407 H 144.182 5.32843 -1.4416 0
M  V30 1408 H 146.658 4.16001 0.0906057 0
M  V30 1409 H 145.534 5.46004 0.563149 0
M  V30 1410 H 145.795 4.10271 1.64713 0
M  V30 1411 N 144.854 0.36279 1.53368 0
M  V30 1412 C 146.082 -0.228613 2.05633 0
M  V30 1413 C 146.497 -1.42676 1.23649 0
M  V30 1414 O 145.854 -1.80394 0.27647 0
M  V30 1415 C 145.905 -0.624845 3.56059 0
M  V30 1416 O 145.626 0.525675 4.34935 0
M  V30 1417 C 147.127 -1.27493 4.24571 0
M  V30 1418 H 144.347 -0.0407183 0.669763 0
M  V30 1419 H 146.891 0.520352 1.97769 0
M  V30 1420 H 145.046 -1.32373 3.64083 0
M  V30 1421 H 145.46 0.205969 5.24095 0
M  V30 1422 H 146.934 -1.50277 5.31151 0
M  V30 1423 H 147.411 -2.23439 3.78116 0
M  V30 1424 H 148.017 -0.617558 4.20792 0
M  V30 1425 N 146.332 -1.57332 0.0918853 0
M  V30 1426 C 147.295 -2.12708 -0.85369 0
M  V30 1427 C 148.295 -1.05561 -1.213 0
M  V30 1428 O 149.485 -1.31461 -1.14296 0
M  V30 1429 C 146.617 -2.64503 -2.15061 0
M  V30 1430 H 147.81 -2.97573 -0.3729 0
M  V30 1431 H 145.363 -1.55509 -0.157072 0
M  V30 1432 H 146.098 -1.83149 -2.67632 0
M  V30 1433 H 145.883 -3.4284 -1.90272 0
M  V30 1434 H 147.373 -3.07351 -2.82711 0
M  V30 1435 N 147.81 0.181792 -1.56548 0
M  V30 1436 C 148.72 1.24538 -1.98815 0
M  V30 1437 C 149.736 1.49045 -0.897861 0
M  V30 1438 O 150.912 1.61399 -1.20467 0
M  V30 1439 C 147.977 2.56683 -2.33055 0
M  V30 1440 C 147.038 2.40131 -3.55859 0
M  V30 1441 C 146.271 3.65975 -3.88456 0
M  V30 1442 O 146.494 4.70711 -3.22161 0
M  V30 1443 O 145.428 3.6071 -4.81842 0
M  V30 1444 H 149.254 0.916647 -2.89536 0
M  V30 1445 H 146.839 0.387842 -1.44278 0
M  V30 1446 H 148.721 3.34655 -2.56094 0
M  V30 1447 H 147.396 2.89157 -1.45498 0
M  V30 1448 H 146.303 1.60226 -3.38051 0
M  V30 1449 H 147.636 2.12585 -4.43924 0
M  V30 1450 N 149.288 1.51039 0.449983 0
M  V30 1451 C 150.251 1.70863 1.5277 0
M  V30 1452 C 151.251 0.578846 1.5002 0
M  V30 1453 O 152.441 0.846213 1.52266 0
M  V30 1454 C 149.573 1.75341 2.9235 0
M  V30 1455 H 150.766 2.67034 1.36502 0
M  V30 1456 H 148.319 1.40838 0.677812 0
M  V30 1457 H 149.054 0.809383 3.14037 0
M  V30 1458 H 148.839 2.57436 2.95752 0
M  V30 1459 H 150.329 1.92559 3.70555 0
M  V30 1460 N 150.766 -0.704594 1.40972 0
M  V30 1461 C 152.012 -1.46675 1.40051 0
M  V30 1462 C 152.345 -1.94199 0.00641102 0
M  V30 1463 O 151.62 -1.68916 -0.964235 0
M  V30 1464 C 151.903 -2.68505 2.39952 0
M  V30 1465 C 151.756 -2.26805 3.88432 0
M  V30 1466 C 153.075 -3.70686 2.37233 0
M  V30 1467 H 150.194 -0.532015 0.510028 0
M  V30 1468 H 152.836 -0.803255 1.72185 0
M  V30 1469 H 150.986 -3.25114 2.1268 0
M  V30 1470 H 152.658 -1.75592 4.26574 0
M  V30 1471 H 150.901 -1.58685 4.03734 0
M  V30 1472 H 151.572 -3.14181 4.53866 0
M  V30 1473 H 154.048 -3.23731 2.61415 0
M  V30 1474 H 152.924 -4.53553 3.09162 0
M  V30 1475 H 153.185 -4.19754 1.38777 0
M  V30 1476 N 152.244 -1.26651 -0.937939 0
M  V30 1477 C 153.207 -1.08546 -2.01867 0
M  V30 1478 C 154.207 -0.0327327 -1.60767 0
M  V30 1479 O 155.397 -0.276427 -1.71993 0
M  V30 1480 C 152.529 -0.651711 -3.34613 0
M  V30 1481 H 153.722 -2.04502 -2.1936 0
M  V30 1482 H 151.275 -1.09294 -1.11734 0
M  V30 1483 H 152.01 0.309696 -3.22818 0
M  V30 1484 H 151.795 -1.41189 -3.65798 0
M  V30 1485 H 153.285 -0.546973 -4.14002 0
M  V30 1486 N 153.722 1.14298 -1.08507 0
M  V30 1487 C 154.968 1.85633 -0.816581 0
M  V30 1488 C 155.301 1.82784 0.656021 0
M  V30 1489 O 154.576 1.25926 1.48233 0
M  V30 1490 C 154.859 3.34223 -1.34041 0
M  V30 1491 C 154.712 3.45639 -2.87843 0
M  V30 1492 C 156.031 4.29356 -0.9665 0
M  V30 1493 H 153.15 0.67402 -0.298104 0
M  V30 1494 H 155.792 1.34214 -1.34487 0
M  V30 1495 H 153.942 3.78144 -0.89104 0
M  V30 1496 H 155.614 3.10498 -3.41158 0
M  V30 1497 H 153.857 2.86817 -3.25451 0
M  V30 1498 H 154.528 4.50089 -3.19569 0
M  V30 1499 H 157.004 3.93457 -1.35391 0
M  V30 1500 H 155.88 5.3178 -1.3602 0
M  V30 1501 H 156.141 4.41919 0.126362 0
M  V30 1502 N 155.201 0.870884 1.31352 0
M  V30 1503 C 156.131 0.343096 2.30966 0
M  V30 1504 C 157.112 -0.566507 1.60389 0
M  V30 1505 O 158.297 -0.483336 1.88089 0
M  V30 1506 C 155.427 -0.455487 3.443 0
M  V30 1507 C 154.381 0.361103 4.26474 0
M  V30 1508 C 153.707 -0.563221 5.31725 0
M  V30 1509 C 155.007 1.59566 4.97329 0
M  V30 1510 H 156.701 1.17548 2.75359 0
M  V30 1511 H 154.247 0.566686 1.32381 0
M  V30 1512 H 156.2 -0.83525 4.13039 0
M  V30 1513 H 154.924 -1.32139 2.98675 0
M  V30 1514 H 153.583 0.722825 3.59403 0
M  V30 1515 H 153.231 -1.42643 4.82351 0
M  V30 1516 H 152.931 -0.0207409 5.87596 0
M  V30 1517 H 154.455 -0.939808 6.03324 0
M  V30 1518 H 155.869 1.28728 5.58661 0
M  V30 1519 H 154.266 2.07728 5.63 0
M  V30 1520 H 155.336 2.34798 4.24262 0
M  V30 1521 N 156.679 -1.44442 0.630414 0
M  V30 1522 C 157.626 -2.30678 -0.0749355 0
M  V30 1523 C 158.596 -1.4344 -0.837502 0
M  V30 1524 O 159.781 -1.72343 -0.818684 0
M  V30 1525 C 156.921 -3.28706 -1.05103 0
M  V30 1526 C 156.034 -4.31046 -0.286954 0
M  V30 1527 C 155.169 -5.16167 -1.2548 0
M  V30 1528 C 154.208 -6.10216 -0.479843 0
M  V30 1529 N 153.345 -6.88039 -1.39811 0
M  V30 1530 H 158.185 -2.90454 0.666386 0
M  V30 1531 H 155.722 -1.43107 0.340404 0
M  V30 1532 H 157.68 -3.84027 -1.63031 0
M  V30 1533 H 156.31 -2.70632 -1.75949 0
M  V30 1534 H 155.362 -3.78203 0.408243 0
M  V30 1535 H 156.674 -4.97794 0.316657 0
M  V30 1536 H 155.828 -5.76002 -1.90544 0
M  V30 1537 H 154.567 -4.49491 -1.89233 0
M  V30 1538 H 153.572 -5.49491 0.184295 0
M  V30 1539 H 154.797 -6.78928 0.152965 0
M  V30 1540 H 152.743 -6.24032 -2.02287 0
M  V30 1541 H 152.66 -7.51223 -0.848508 0
M  V30 1542 H 153.928 -7.52397 -2.03762 0
M  V30 1543 N 158.157 -0.370918 -1.53173 0
M  V30 1544 C 159.405 0.216673 -2.00935 0
M  V30 1545 C 159.726 1.48845 -1.25977 0
M  V30 1546 O 158.996 1.92286 -0.374551 0
M  V30 1547 H 157.576 0.0830565 -0.742368 0
M  V30 1548 H 160.238 -0.49838 -1.8842 0
M  V30 1549 H 159.334 0.439893 -3.08984 0
M  V30 1550 N 159.635 1.57281 -0.100228 0
M  V30 1551 C 160.545 2.17833 0.870965 0
M  V30 1552 C 161.561 1.14921 1.30649 0
M  V30 1553 O 162.737 1.47313 1.37335 0
M  V30 1554 C 159.802 2.75085 2.1102 0
M  V30 1555 C 158.863 3.9297 1.72838 0
M  V30 1556 C 158.096 4.47482 2.90854 0
M  V30 1557 O 158.319 4.00922 4.05731 0
M  V30 1558 O 157.253 5.38433 2.69023 0
M  V30 1559 H 161.079 3.0124 0.38575 0
M  V30 1560 H 158.664 1.48881 0.124397 0
M  V30 1561 H 160.546 3.11656 2.83634 0
M  V30 1562 H 159.221 1.94721 2.58584 0
M  V30 1563 H 158.128 3.61201 0.973883 0
M  V30 1564 H 159.461 4.74713 1.30033 0
M  V30 1565 N 161.113 -0.173488 1.56642 0
M  V30 1566 C 162.045 -1.23935 1.92802 0
M  V30 1567 C 163.058 -1.40589 0.820889 0
M  V30 1568 O 164.247 -1.40631 1.09933 0
M  V30 1569 C 161.347 -2.60837 2.16373 0
M  V30 1570 C 160.52 -2.6551 3.47596 0
M  V30 1571 C 159.579 -3.8376 3.60021 0
M  V30 1572 O 158.605 -3.69859 4.32658 0
M  V30 1573 N 159.807 -5.00127 2.94709 0
M  V30 1574 H 162.572 -0.932236 2.84832 0
M  V30 1575 H 160.133 -0.363268 1.57772 0
M  V30 1576 H 162.125 -3.38407 2.21952 0
M  V30 1577 H 160.695 -2.83948 1.30738 0
M  V30 1578 H 159.915 -1.74052 3.53694 0
M  V30 1579 H 161.203 -2.65641 4.33949 0
M  V30 1580 H 160.601 -5.14322 2.35563 0
M  V30 1581 H 159.158 -5.75567 3.05886 0
M  V30 1582 N 162.591 -1.51276 -0.441967 0
M  V30 1583 C 163.501 -1.75092 -1.56141 0
M  V30 1584 C 164.517 -0.634963 -1.62001 0
M  V30 1585 O 165.693 -0.916686 -1.79329 0
M  V30 1586 C 162.758 -1.86666 -2.92158 0
M  V30 1587 C 161.819 -3.10506 -2.96453 0
M  V30 1588 C 161.052 -3.21519 -4.25982 0
M  V30 1589 O 161.275 -2.38586 -5.18105 0
M  V30 1590 O 160.209 -4.14465 -4.36466 0
M  V30 1591 H 164.035 -2.70044 -1.38961 0
M  V30 1592 H 161.62 -1.35722 -0.624499 0
M  V30 1593 H 163.502 -1.96292 -3.72891 0
M  V30 1594 H 162.177 -0.949014 -3.09476 0
M  V30 1595 H 161.084 -3.06363 -2.14692 0
M  V30 1596 H 162.417 -4.01945 -2.84079 0
M  V30 1597 N 164.069 0.697108 -1.41344 0
M  V30 1598 C 165.016 1.81106 -1.43071 0
M  V30 1599 C 165.986 1.63632 -0.285275 0
M  V30 1600 O 167.171 1.84504 -0.486091 0
M  V30 1601 C 164.311 3.18975 -1.31715 0
M  V30 1602 C 163.424 3.47892 -2.56115 0
M  V30 1603 C 162.559 4.75367 -2.37064 0
M  V30 1604 C 161.598 4.97247 -3.56948 0
M  V30 1605 N 160.735 6.15947 -3.36977 0
M  V30 1606 H 165.575 1.78965 -2.38276 0
M  V30 1607 H 163.112 0.873975 -1.18322 0
M  V30 1608 H 165.07 3.98615 -1.23133 0
M  V30 1609 H 163.7 3.20297 -0.401183 0
M  V30 1610 H 162.752 2.62669 -2.75153 0
M  V30 1611 H 164.064 3.59962 -3.45295 0
M  V30 1612 H 163.218 5.63059 -2.25941 0
M  V30 1613 H 161.957 4.65541 -1.45338 0
M  V30 1614 H 160.962 4.08004 -3.68527 0
M  V30 1615 H 162.187 5.08934 -4.49626 0
M  V30 1616 H 160.133 6.07336 -2.47949 0
M  V30 1617 H 160.05 6.28777 -4.19732 0
M  V30 1618 H 161.318 7.06377 -3.29623 0
M  V30 1619 N 165.547 1.27147 0.931209 0
M  V30 1620 C 166.457 1.11372 2.06478 0
M  V30 1621 C 167.473 0.044645 1.73943 0
M  V30 1622 O 168.649 0.250417 1.99837 0
M  V30 1623 C 165.714 0.758838 3.38294 0
M  V30 1624 C 164.775 1.90841 3.84549 0
M  V30 1625 C 164.008 1.57036 5.10074 0
M  V30 1626 O 164.231 0.476645 5.68405 0
M  V30 1627 O 163.165 2.40839 5.51616 0
M  V30 1628 H 166.991 2.06493 2.22698 0
M  V30 1629 H 164.576 1.06301 1.04978 0
M  V30 1630 H 166.458 0.574098 4.17471 0
M  V30 1631 H 165.133 -0.162879 3.2329 0
M  V30 1632 H 164.04 2.14819 3.06274 0
M  V30 1633 H 165.373 2.81021 4.04089 0
M  V30 1634 N 167.025 -1.13721 1.09112 0
M  V30 1635 C 167.988 -2.17222 0.731241 0
M  V30 1636 C 168.988 -1.59035 -0.237566 0
M  V30 1637 O 170.178 -1.74192 -0.0161704 0
M  V30 1638 C 167.31 -3.40804 0.0808443 0
M  V30 1639 H 168.503 -2.50573 1.64783 0
M  V30 1640 H 166.056 -1.28493 0.889897 0
M  V30 1641 H 166.791 -3.1304 -0.847127 0
M  V30 1642 H 166.576 -3.84306 0.777896 0
M  V30 1643 H 168.066 -4.1731 -0.155657 0
M  V30 1644 N 168.503 -0.877838 -1.30888 0
M  V30 1645 C 169.435 -0.296607 -2.27273 0
M  V30 1646 C 170.448 0.544799 -1.53414 0
M  V30 1647 O 171.637 0.365511 -1.74718 0
M  V30 1648 C 168.737 0.597481 -3.33592 0
M  V30 1649 C 167.91 -0.213251 -4.3688 0
M  V30 1650 C 166.969 0.610208 -5.2265 0
M  V30 1651 O 165.995 0.035441 -5.69189 0
M  V30 1652 N 167.197 1.92071 -5.47804 0
M  V30 1653 H 169.962 -1.12492 -2.77787 0
M  V30 1654 H 167.523 -0.740105 -1.43993 0
M  V30 1655 H 169.515 1.15425 -3.87891 0
M  V30 1656 H 168.085 1.32647 -2.83061 0
M  V30 1657 H 167.305 -0.951466 -3.82545 0
M  V30 1658 H 168.593 -0.769262 -5.02951 0
M  V30 1659 H 167.991 2.4107 -5.11763 0
M  V30 1660 H 166.548 2.42508 -6.05007 0
M  V30 1661 N 169.982 1.44106 -0.638065 0
M  V30 1662 C 170.932 2.27843 0.0847285 0
M  V30 1663 C 171.916 1.39055 0.809471 0
M  V30 1664 O 173.108 1.62808 0.694435 0
M  V30 1665 C 170.237 3.26497 1.06089 0
M  V30 1666 C 169.323 4.22772 0.33541 0
M  V30 1667 N 169.714 5.01737 -0.639787 0
M  V30 1668 C 168.012 4.42227 0.578921 0
M  V30 1669 C 168.713 5.71792 -1.06904 0
M  V30 1670 N 167.689 5.42079 -0.406395 0
M  V30 1671 H 171.491 2.86305 -0.663814 0
M  V30 1672 H 169.005 1.55627 -0.464122 0
M  V30 1673 H 171.002 3.8525 1.59337 0
M  V30 1674 H 169.662 2.69595 1.80966 0
M  V30 1675 H 170.673 5.07799 -1.01789 0
M  V30 1676 H 167.35 3.96415 1.31003 0
M  V30 1677 H 168.74 6.45205 -1.8751 0
M  V30 1678 N 171.46 0.379036 1.52974 0
M  V30 1679 C 172.407 -0.461048 2.26148 0
M  V30 1680 C 173.377 -1.06637 1.27349 0
M  V30 1681 O 174.562 -1.09633 1.56157 0
M  V30 1682 C 171.702 -1.58782 3.06402 0
M  V30 1683 C 170.815 -1.00636 4.20115 0
M  V30 1684 C 169.95 -2.10334 4.87784 0
M  V30 1685 C 168.989 -1.49724 5.93506 0
M  V30 1686 N 168.126 -2.5331 6.54812 0
M  V30 1687 H 172.966 0.169429 2.97518 0
M  V30 1688 H 170.503 0.0953806 1.4679 0
M  V30 1689 H 172.461 -2.25174 3.51215 0
M  V30 1690 H 171.091 -2.18876 2.37261 0
M  V30 1691 H 170.143 -0.232332 3.7969 0
M  V30 1692 H 171.455 -0.523343 4.96047 0
M  V30 1693 H 170.609 -2.84519 5.35849 0
M  V30 1694 H 169.348 -2.61992 4.11353 0
M  V30 1695 H 168.353 -0.740598 5.44789 0
M  V30 1696 H 169.578 -0.988732 6.71864 0
M  V30 1697 H 167.524 -3.04156 5.81227 0
M  V30 1698 H 167.441 -2.09734 7.26325 0
M  V30 1699 H 168.709 -3.27155 7.07524 0
M  V30 1700 N 172.938 -1.57226 0.108567 0
M  V30 1701 C 174.215 -1.86333 -0.594939 0
M  V30 1702 C 174.595 -1.00788 -1.85486 0
M  V30 1703 O 173.943 -0.0839293 -2.28346 0
M  V30 1704 C 174.153 -3.37265 -0.897405 0
M  V30 1705 C 175.501 -4.05629 -1.25501 0
M  V30 1706 O 176.525 -3.42224 -0.987998 0
M  V30 1707 O 175.384 -5.17531 -1.75567 0
M  V30 1708 H 172.478 -0.771018 -0.2991 0
M  V30 1709 H 175.024 -1.69102 0.142283 0
M  V30 1710 H 173.796 -3.913 -0.00413806 0
M  V30 1711 H 173.419 -3.59889 -1.69014 0
M  V30 1712 N 174.416 0.165178 -1.56732 0
M  V30 1713 C 175.348 1.22911 -1.93457 0
M  V30 1714 C 176.361 1.40152 -0.828333 0
M  V30 1715 O 177.55 1.40046 -1.10677 0
M  V30 1716 C 174.65 2.59686 -2.17753 0
M  V30 1717 C 173.823 2.63663 -3.48999 0
M  V30 1718 C 172.882 3.81845 -3.62051 0
M  V30 1719 O 171.908 3.67559 -4.34613 0
M  V30 1720 N 173.11 4.98557 -2.97357 0
M  V30 1721 H 175.875 0.917118 -2.85323 0
M  V30 1722 H 173.436 0.354895 -1.57962 0
M  V30 1723 H 175.428 3.37225 -2.23743 0
M  V30 1724 H 173.998 2.83251 -1.32242 0
M  V30 1725 H 173.218 1.72173 -3.54612 0
M  V30 1726 H 174.506 2.63336 -4.35352 0
M  V30 1727 H 173.904 5.13065 -2.38287 0
M  V30 1728 H 172.461 5.73936 -3.08934 0
M  V30 1729 N 175.894 1.51508 0.433938 0
M  V30 1730 C 177.122 1.68157 1.20543 0
M  V30 1731 C 177.537 0.380362 1.84929 0
M  V30 1732 O 176.894 -0.641446 1.70856 0
M  V30 1733 C 176.945 2.79965 2.28696 0
M  V30 1734 O 176.666 4.05045 1.66943 0
M  V30 1735 C 178.167 3.07912 3.18912 0
M  V30 1736 H 175.387 0.56421 0.363191 0
M  V30 1737 H 177.931 1.97941 0.513754 0
M  V30 1738 H 176.086 2.5277 2.93574 0
M  V30 1739 H 176.5 4.67165 2.38448 0
M  V30 1740 H 177.974 3.89719 3.90926 0
M  V30 1741 H 178.451 2.20456 3.79863 0
M  V30 1742 H 179.057 3.36779 2.59731 0
M  V30 1743 N 177.372 -0.689602 1.41712 0
M  V30 1744 C 178.335 -1.78521 1.43746 0
M  V30 1745 C 179.335 -1.57436 0.327191 0
M  V30 1746 O 180.525 -1.64 0.587348 0
M  V30 1747 C 177.657 -3.16971 1.25467 0
M  V30 1748 H 178.85 -1.78108 2.41283 0
M  V30 1749 H 176.403 -0.89781 1.27942 0
M  V30 1750 H 177.138 -3.23019 0.287948 0
M  V30 1751 H 176.923 -3.33678 2.05917 0
M  V30 1752 H 178.413 -3.96935 1.2974 0
M  V30 1753 N 178.85 -1.27639 -0.924453 0
M  V30 1754 C 179.813 -1.10681 -2.00705 0
M  V30 1755 C 180.813 -0.0497823 -1.60723 0
M  V30 1756 O 182.003 -0.294654 -1.7169 0
M  V30 1757 C 179.135 -0.687164 -3.33902 0
M  V30 1758 H 180.328 -2.06817 -2.17179 0
M  V30 1759 H 177.881 -1.10473 -1.10569 0
M  V30 1760 H 178.616 0.275439 -3.23128 0
M  V30 1761 H 178.401 -1.45061 -3.6428 0
M  V30 1762 H 179.891 -0.590853 -4.13399 0
M  V30 1763 N 180.328 1.1314 -1.09713 0
M  V30 1764 C 181.258 2.20748 -0.761102 0
M  V30 1765 C 182.239 1.68061 0.262566 0
M  V30 1766 O 183.424 1.93765 0.129977 0
M  V30 1767 C 180.554 3.46812 -0.184054 0
M  V30 1768 C 179.508 4.12606 -1.13757 0
M  V30 1769 C 178.834 5.33031 -0.422083 0
M  V30 1770 C 180.134 4.59603 -2.48118 0
M  V30 1771 H 181.828 2.49113 -1.66082 0
M  V30 1772 H 179.374 1.19734 -0.799987 0
M  V30 1773 H 181.327 4.21353 0.0631215 0
M  V30 1774 H 180.051 3.17851 0.750868 0
M  V30 1775 H 178.71 3.40036 -1.37007 0
M  V30 1776 H 178.358 5.00335 0.517072 0
M  V30 1777 H 178.058 5.77999 -1.05788 0
M  V30 1778 H 179.582 6.10325 -0.183277 0
M  V30 1779 H 180.996 5.25552 -2.29059 0
M  V30 1780 H 179.393 5.15321 -3.07514 0
M  V30 1781 H 180.463 3.73971 -3.08665 0
M  V30 1782 N 181.806 0.884767 1.30421 0
M  V30 1783 C 183.217 0.553656 1.78302 0
M  V30 1784 C 183.568 -0.930153 1.7275 0
M  V30 1785 O 182.693 -1.72681 1.30423 0
M  V30 1786 C 183.288 0.998234 3.2376 0
M  V30 1787 C 181.847 0.71854 3.69478 0
M  V30 1788 C 180.994 1.18132 2.50879 0
M  V30 1789 H 183.945 1.06901 1.17294 0
M  V30 1790 H 183.966 0.327118 3.79091 0
M  V30 1791 H 183.478 2.0782 3.27769 0
M  V30 1792 H 181.579 -0.349444 3.70958 0
M  V30 1793 H 181.692 1.30595 4.60958 0
M  V30 1794 H 180.056 0.600669 2.47516 0
M  V30 1795 H 180.839 2.26902 2.57624 0
M  V30 1796 N 183.284 -1.43765 0.645699 0
M  V30 1797 C 184.214 -2.33471 -0.0370477 0
M  V30 1798 C 185.195 -1.49042 -0.819779 0
M  V30 1799 O 186.38 -1.77726 -0.782758 0
M  V30 1800 C 183.51 -3.32311 -1.0093 0
M  V30 1801 C 182.464 -4.2667 -0.337201 0
M  V30 1802 C 181.79 -5.1549 -1.42037 0
M  V30 1803 C 183.09 -5.16657 0.765706 0
M  V30 1804 H 184.784 -2.90809 0.712069 0
M  V30 1805 H 182.33 -1.39834 0.343876 0
M  V30 1806 H 184.283 -3.9396 -1.49578 0
M  V30 1807 H 183.007 -2.73213 -1.78948 0
M  V30 1808 H 181.666 -3.66374 0.128771 0
M  V30 1809 H 181.314 -4.52735 -2.1918 0
M  V30 1810 H 181.014 -5.79438 -0.975966 0
M  V30 1811 H 182.538 -5.80012 -1.90838 0
M  V30 1812 H 183.952 -5.72158 0.361702 0
M  V30 1813 H 182.349 -5.89286 1.13413 0
M  V30 1814 H 183.419 -4.56796 1.62683 0
M  V30 1815 N 184.763 -0.387143 -1.52771 0
M  V30 1816 C 185.726 0.436939 -2.24997 0
M  V30 1817 C 186.726 0.991991 -1.26555 0
M  V30 1818 O 187.916 0.874335 -1.50669 0
M  V30 1819 C 185.048 1.61281 -3.00335 0
M  V30 1820 H 186.241 -0.195365 -2.99263 0
M  V30 1821 H 183.794 -0.139218 -1.55679 0
M  V30 1822 H 184.529 2.2826 -2.30364 0
M  V30 1823 H 184.314 1.22154 -3.72587 0
M  V30 1824 H 185.804 2.19629 -3.5518 0
M  V30 1825 N 186.241 1.57166 -0.116904 0
M  V30 1826 C 187.204 2.14039 0.819742 0
M  V30 1827 C 188.204 1.07477 1.19605 0
M  V30 1828 O 189.394 1.33263 1.1219 0
M  V30 1829 C 186.526 2.67891 2.10826 0
M  V30 1830 H 187.719 2.98128 0.325511 0
M  V30 1831 H 185.272 1.55739 0.132312 0
M  V30 1832 H 186.007 1.87384 2.64685 0
M  V30 1833 H 185.792 3.45823 1.84793 0
M  V30 1834 H 187.282 3.11809 2.77785 0
M  V30 1835 N 187.719 -0.156864 1.56817 0
M  V30 1836 C 188.629 -1.2136 2.00771 0
M  V30 1837 C 189.645 -1.47598 0.921459 0
M  V30 1838 O 190.821 -1.59462 1.2302 0
M  V30 1839 C 187.886 -2.52943 2.37109 0
M  V30 1840 C 186.947 -2.34439 3.59634 0
M  V30 1841 C 186.18 -3.59748 3.94229 0
M  V30 1842 O 186.403 -4.65526 3.29609 0
M  V30 1843 O 185.337 -3.52998 4.8752 0
M  V30 1844 H 189.163 -0.870468 2.90958 0
M  V30 1845 H 186.748 -0.36484 1.44877 0
M  V30 1846 H 188.63 -3.30538 2.61386 0
M  V30 1847 H 187.305 -2.86806 1.5008 0
M  V30 1848 H 186.212 -1.54828 3.40557 0
M  V30 1849 H 187.545 -2.05496 4.4725 0
M  V30 1850 N 189.197 -1.51736 -0.425897 0
M  V30 1851 C 190.107 -1.76738 -1.54275 0
M  V30 1852 C 191.123 -0.65211 -1.61318 0
M  V30 1853 O 192.299 -0.935654 -1.78346 0
M  V30 1854 C 189.364 -1.89755 -2.90162 0
M  V30 1855 C 188.425 -3.13633 -2.93143 0
M  V30 1856 C 187.658 -3.2602 -4.22548 0
M  V30 1857 O 187.881 -2.44067 -5.15546 0
M  V30 1858 O 186.815 -4.19071 -4.32046 0
M  V30 1859 H 190.641 -2.71502 -1.36089 0
M  V30 1860 H 188.226 -1.36376 -0.610069 0
M  V30 1861 H 190.108 -2.00236 -3.70788 0
M  V30 1862 H 188.783 -0.981785 -3.08452 0
M  V30 1863 H 187.69 -3.08622 -2.11431 0
M  V30 1864 H 189.023 -4.04936 -2.798 0
M  V30 1865 N 190.675 0.682077 -1.42076 0
M  V30 1866 C 191.903 1.47057 -1.4554 0
M  V30 1867 C 192.318 1.8869 -0.0645779 0
M  V30 1868 O 191.675 1.57666 0.919115 0
M  V30 1869 C 191.726 2.72442 -2.37609 0
M  V30 1870 O 191.447 2.32559 -3.71279 0
M  V30 1871 C 192.948 3.66069 -2.50017 0
M  V30 1872 H 190.168 0.452737 -0.495248 0
M  V30 1873 H 192.712 0.838695 -1.8651 0
M  V30 1874 H 190.867 3.31835 -1.9991 0
M  V30 1875 H 191.281 3.13475 -4.20516 0
M  V30 1876 H 192.755 4.50792 -3.18576 0
M  V30 1877 H 193.232 4.11476 -1.53572 0
M  V30 1878 H 193.838 3.12572 -2.88407 0
M  V30 1879 N 192.153 1.28127 0.917671 0
M  V30 1880 C 193.116 1.11744 2.00115 0
M  V30 1881 C 194.116 0.0583052 1.60694 0
M  V30 1882 O 195.306 0.303755 1.71531 0
M  V30 1883 C 192.438 0.704862 3.33533 0
M  V30 1884 H 193.631 2.07966 2.16079 0
M  V30 1885 H 191.184 1.11058 1.09981 0
M  V30 1886 H 191.919 -0.258299 3.2327 0
M  V30 1887 H 191.704 1.4699 3.63505 0
M  V30 1888 H 193.194 0.612768 4.1308 0
M  V30 1889 N 193.631 -1.12557 1.10312 0
M  V30 1890 C 194.579 -2.20325 0.745629 0
M  V30 1891 C 195.573 -1.67429 -0.25763 0
M  V30 1892 O 196.779 -1.79612 -0.118132 0
M  V30 1893 H 193.154 -0.718118 0.223182 0
M  V30 1894 H 195.125 -2.47733 1.66346 0
M  V30 1895 C 193.874 -3.47168 0.192262 0
M  V30 1896 H 193.197 -3.88215 0.955475 0
M  V30 1897 H 194.637 -4.23995 -0.0198274 0
M  V30 1898 C 193.096 -3.19298 -1.07472 0
M  V30 1899 O 193.626 -3.3891 -2.15645 0
M  V30 1900 N 191.832 -2.73113 -0.992847 0
M  V30 1901 H 191.379 -2.57354 -0.112474 0
M  V30 1902 H 191.337 -2.54842 -1.84127 0
M  V30 1903 N 195.109 -0.891671 -1.2995 0
M  V30 1904 C 196.039 -0.379797 -2.30391 0
M  V30 1905 C 197.02 0.540919 -1.6127 0
M  V30 1906 O 198.205 0.453352 -1.88834 0
M  V30 1907 C 195.335 0.400654 -3.44981 0
M  V30 1908 C 194.289 -0.428905 -4.25846 0
M  V30 1909 C 193.615 0.478557 -5.32554 0
M  V30 1910 C 194.915 -1.67458 -4.94727 0
M  V30 1911 H 196.609 -1.21914 -2.73454 0
M  V30 1912 H 194.155 -0.587675 -1.31462 0
M  V30 1913 H 196.108 0.769434 -4.14316 0
M  V30 1914 H 194.832 1.27371 -3.0074 0
M  V30 1915 H 193.491 -0.779911 -3.58208 0
M  V30 1916 H 193.139 1.34951 -4.84559 0
M  V30 1917 H 192.839 -0.0727433 -5.87555 0
M  V30 1918 H 194.363 0.843705 -6.04743 0
M  V30 1919 H 195.777 -1.376 -5.56542 0
M  V30 1920 H 194.174 -2.16659 -5.59624 0
M  V30 1921 H 195.244 -2.41518 -4.20473 0
M  V30 1922 N 196.587 1.43421 -0.653314 0
M  V30 1923 C 197.998 1.85065 -0.246537 0
M  V30 1924 C 198.349 1.54688 1.2069 0
M  V30 1925 O 197.474 0.995896 1.92122 0
M  V30 1926 C 198.069 3.35922 -0.440666 0
M  V30 1927 C 196.628 3.76297 -0.0882064 0
M  V30 1928 C 195.775 2.67147 -0.743484 0
M  V30 1929 H 198.726 1.33572 -0.856979 0
M  V30 1930 H 198.747 3.79204 0.313798 0
M  V30 1931 H 198.259 3.58 -1.49858 0
M  V30 1932 H 196.36 3.5983 0.96711 0
M  V30 1933 H 196.473 4.76338 -0.513738 0
M  V30 1934 H 194.837 2.54086 -0.176712 0
M  V30 1935 H 195.62 2.92053 -1.80443 0
M  V30 1936 N 198.065 0.39524 1.52563 0
M  V30 1937 C 199.476 -0.0774719 1.86539 0
M  V30 1938 C 199.827 -1.45641 1.31466 0
M  V30 1939 O 198.952 -2.06459 0.648367 0
M  V30 1940 C 199.547 -0.147356 3.38479 0
M  V30 1941 C 198.106 -0.564373 3.72145 0
M  V30 1942 C 197.253 0.269919 2.75983 0
M  V30 1943 H 200.204 0.612876 1.46388 0
M  V30 1944 H 200.225 -0.965343 3.68051 0
M  V30 1945 H 199.737 0.856387 3.78534 0
M  V30 1946 H 197.838 -1.57527 3.37663 0
M  V30 1947 H 197.951 -0.318402 4.78041 0
M  V30 1948 H 196.315 -0.265696 2.5331 0
M  V30 1949 H 197.098 1.27175 3.18875 0
M  V30 1950 N 199.544 -1.57102 0.125237 0
M  V30 1951 C 200.769 -2.0019 -0.542101 0
M  V30 1952 C 201.194 -1.00449 -1.59034 0
M  V30 1953 O 200.552 0.0229423 -1.81285 0
M  V30 1954 C 200.6 -3.42129 -1.13929 0
M  V30 1955 O 199.704 -3.45307 -2.2547 0
M  V30 1956 H 199.045 -0.650171 -0.134812 0
M  V30 1957 H 201.575 -2.03461 0.215553 0
M  V30 1958 H 201.585 -3.80471 -1.4733 0
M  V30 1959 H 200.26 -4.14237 -0.371531 0
M  V30 1960 H 198.837 -3.1879 -1.93462 0
M  V30 1961 N 201.022 0.148545 -1.56898 0
M  V30 1962 C 202.433 0.708766 -1.72723 0
M  V30 1963 C 202.784 1.81734 -0.739395 0
M  V30 1964 O 201.909 2.16194 0.0943169 0
M  V30 1965 C 202.504 1.29245 -3.13179 0
M  V30 1966 C 201.063 1.79925 -3.30611 0
M  V30 1967 C 200.21 0.687111 -2.68652 0
M  V30 1968 H 203.161 -0.0771063 -1.58513 0
M  V30 1969 H 203.182 2.16224 -3.13093 0
M  V30 1970 H 202.694 0.485382 -3.85053 0
M  V30 1971 H 200.795 2.63203 -2.63732 0
M  V30 1972 H 200.908 1.92903 -4.38549 0
M  V30 1973 H 199.272 1.11335 -2.29078 0
M  V30 1974 H 200.055 -0.108483 -3.43129 0
M  V30 1975 N 202.5 1.5196 0.417844 0
M  V30 1976 C 203.911 1.57851 0.997 0
M  V30 1977 C 204.262 0.413714 1.91789 0
M  V30 1978 O 203.387 -0.467057 2.113 0
M  V30 1979 C 203.982 2.86085 1.81496 0
M  V30 1980 C 202.541 2.94483 2.34428 0
M  V30 1981 C 201.688 2.52707 1.14169 0
M  V30 1982 H 204.639 1.57455 0.198392 0
M  V30 1983 H 204.66 2.70947 2.67148 0
M  V30 1984 H 204.172 3.70842 1.14446 0
M  V30 1985 H 202.273 2.142 3.04875 0
M  V30 1986 H 202.386 3.98546 2.65891 0
M  V30 1987 H 200.75 2.06353 1.49301 0
M  V30 1988 H 201.533 3.39828 0.486999 0
M  V30 1989 N 203.978 -0.674533 1.42435 0
M  V30 1990 C 205.389 -1.25514 1.38214 0
M  V30 1991 C 205.74 -1.96055 0.0755464 0
M  V30 1992 O 204.865 -2.00028 -0.8257 0
M  V30 1993 C 205.46 -2.28269 2.50357 0
M  V30 1994 C 204.019 -2.81856 2.49467 0
M  V30 1995 C 203.166 -1.56182 2.29134 0
M  V30 1996 H 206.117 -0.467902 1.51646 0
M  V30 1997 H 206.138 -3.10009 2.20624 0
M  V30 1998 H 205.65 -1.769 3.45439 0
M  V30 1999 H 203.751 -3.37346 1.58204 0
M  V30 2000 H 203.864 -3.30854 3.46515 0
M  V30 2001 H 202.228 -1.82761 1.774 0
M  V30 2002 H 203.011 -1.06778 3.26272 0
M  V30 2003 N 205.456 -1.28612 -0.910864 0
M  V30 2004 C 206.681 -1.1891 -1.69927 0
M  V30 2005 C 207.106 0.248372 -1.86453 0
M  V30 2006 O 206.464 1.17961 -1.37676 0
M  V30 2007 C 206.512 -1.89578 -3.06745 0
M  V30 2008 O 205.616 -1.20521 -3.94396 0
M  V30 2009 H 204.957 -0.412632 -0.520222 0
M  V30 2010 H 207.487 -1.69985 -1.1387 0
M  V30 2011 H 207.497 -1.97597 -3.56958 0
M  V30 2012 H 206.172 -2.94136 -2.94035 0
M  V30 2013 H 204.749 -1.20684 -3.52831 0
M  V30 2014 N 206.934 1.1197 -1.10907 0
M  V30 2015 C 208.345 1.65114 -0.871446 0
M  V30 2016 C 208.696 1.86885 0.597353 0
M  V30 2017 O 207.821 1.59896 1.45816 0
M  V30 2018 C 208.416 2.99944 -1.5754 0
M  V30 2019 C 206.975 3.50018 -1.38435 0
M  V30 2020 C 206.122 2.24941 -1.62164 0
M  V30 2021 H 209.073 0.956851 -1.2661 0
M  V30 2022 H 209.094 3.66651 -1.01721 0
M  V30 2023 H 208.606 2.84067 -2.64438 0
M  V30 2024 H 206.707 3.71071 -0.337214 0
M  V30 2025 H 206.82 4.29165 -2.12965 0
M  V30 2026 H 205.184 2.3229 -1.04467 0
M  V30 2027 H 205.967 2.11612 -2.70324 0
M  V30 2028 N 208.412 0.89855 1.29475 0
M  V30 2029 C 209.375 0.380272 2.26023 0
M  V30 2030 C 210.375 -0.484891 1.53315 0
M  V30 2031 O 211.565 -0.290108 1.71767 0
M  V30 2032 C 208.697 -0.45651 3.3783 0
M  V30 2033 H 209.89 1.23295 2.73383 0
M  V30 2034 H 207.443 0.676589 1.40897 0
M  V30 2035 H 208.178 -1.32922 2.95808 0
M  V30 2036 H 207.963 0.163393 3.91759 0
M  V30 2037 H 209.453 -0.810466 4.0966 0
M  V30 2038 N 209.89 -1.43072 0.660911 0
M  V30 2039 C 211.115 -2.06584 0.183805 0
M  V30 2040 C 211.54 -1.49257 -1.14472 0
M  V30 2041 O 210.898 -0.605528 -1.70889 0
M  V30 2042 C 210.946 -3.60418 0.114434 0
M  V30 2043 O 210.05 -4.01981 -0.921137 0
M  V30 2044 H 209.391 -0.656669 0.0983994 0
M  V30 2045 H 211.921 -1.83447 0.906006 0
M  V30 2046 H 211.931 -4.07946 -0.0663394 0
M  V30 2047 H 210.606 -4.01519 1.08422 0
M  V30 2048 H 209.183 -3.66029 -0.71253 0
M  V30 2049 N 211.368 -0.403325 -1.52352 0
M  V30 2050 C 212.278 0.432009 -2.30588 0
M  V30 2051 C 213.294 1.05884 -1.38075 0
M  V30 2052 O 214.47 1.06161 -1.71148 0
M  V30 2053 C 211.535 1.53669 -3.10784 0
M  V30 2054 C 210.596 0.933525 -4.19027 0
M  V30 2055 C 209.829 1.98557 -4.9539 0
M  V30 2056 O 210.052 3.20283 -4.71991 0
M  V30 2057 O 208.986 1.59504 -5.80381 0
M  V30 2058 H 212.812 -0.205739 -3.03002 0
M  V30 2059 H 210.397 -0.166675 -1.48467 0
M  V30 2060 H 212.279 2.17814 -3.60742 0
M  V30 2061 H 210.954 2.15915 -2.41169 0
M  V30 2062 H 209.861 0.254954 -3.7323 0
M  V30 2063 H 211.194 0.35508 -4.90918 0
M  V30 2064 N 212.846 1.57033 -0.133567 0
M  V30 2065 C 213.778 2.13176 0.841944 0
M  V30 2066 C 214.791 1.07794 1.22001 0
M  V30 2067 O 215.98 1.35117 1.16643 0
M  V30 2068 C 213.08 2.62847 2.13926 0
M  V30 2069 C 212.253 3.92486 1.93064 0
M  V30 2070 C 211.312 4.27605 3.0666 0
M  V30 2071 O 210.338 4.96168 2.78937 0
M  V30 2072 N 211.54 3.861 4.33483 0
M  V30 2073 H 214.305 2.97503 0.362192 0
M  V30 2074 H 211.866 1.61821 0.05042 0
M  V30 2075 H 213.858 2.83363 2.88942 0
M  V30 2076 H 212.428 1.83319 2.53205 0
M  V30 2077 H 211.648 3.80732 1.02159 0
M  V30 2078 H 212.936 4.77225 1.76447 0
M  V30 2079 H 212.334 3.30828 4.58878 0
M  V30 2080 H 210.891 4.11694 5.05323 0
M  V30 2081 N 214.325 -0.140222 1.56975 0
M  V30 2082 C 215.553 -0.866437 1.87884 0
M  V30 2083 C 215.968 -1.74428 0.722517 0
M  V30 2084 O 215.325 -1.79891 -0.30749 0
M  V30 2085 C 215.376 -1.71753 3.18093 0
M  V30 2086 O 215.097 -0.875056 4.29272 0
M  V30 2087 C 216.598 -2.55074 3.62563 0
M  V30 2088 H 213.818 -0.25019 0.622612 0
M  V30 2089 H 216.362 -0.130977 2.0408 0
M  V30 2090 H 214.517 -2.40598 3.03631 0
M  V30 2091 H 214.931 -1.46002 5.03769 0
M  V30 2092 H 216.405 -3.10356 4.5649 0
M  V30 2093 H 216.882 -3.31434 2.88181 0
M  V30 2094 H 217.488 -1.91509 3.79743 0
M  V30 2095 N 215.803 -1.52179 -0.40978 0
M  V30 2096 C 217.049 -1.66453 -1.15851 0
M  V30 2097 C 217.382 -0.392972 -1.90182 0
M  V30 2098 O 216.657 0.608579 -1.84734 0
M  V30 2099 C 216.94 -2.88612 -2.15349 0
M  V30 2100 C 216.793 -4.25815 -1.44918 0
M  V30 2101 C 218.112 -3.06294 -3.16026 0
M  V30 2102 H 215.231 -0.60575 -0.419805 0
M  V30 2103 H 217.873 -1.84732 -0.444314 0
M  V30 2104 H 216.023 -2.73158 -2.76255 0
M  V30 2105 H 217.695 -4.52995 -0.871365 0
M  V30 2106 H 215.938 -4.27247 -0.751159 0
M  V30 2107 H 216.609 -5.07337 -2.17516 0
M  V30 2108 H 219.085 -3.20641 -2.65195 0
M  V30 2109 H 217.961 -3.93283 -3.8291 0
M  V30 2110 H 218.222 -2.19579 -3.83715 0
M  V30 2111 N 217.281 0.66697 -1.42791 0
M  V30 2112 C 218.509 1.45505 -1.47091 0
M  V30 2113 C 218.924 1.8861 -0.0845873 0
M  V30 2114 O 218.281 1.58632 0.90234 0
M  V30 2115 C 218.332 2.69906 -2.40485 0
M  V30 2116 O 218.053 2.28608 -3.73725 0
M  V30 2117 C 219.554 3.63396 -2.53886 0
M  V30 2118 H 216.774 0.447459 -0.500022 0
M  V30 2119 H 219.318 0.818866 -1.8739 0
M  V30 2120 H 217.473 3.29696 -2.03419 0
M  V30 2121 H 217.887 3.08997 -4.23817 0
M  V30 2122 H 219.361 4.47387 -3.2334 0
M  V30 2123 H 219.838 4.09824 -1.57927 0
M  V30 2124 H 220.444 3.09495 -2.91706 0
M  V30 2125 N 218.759 1.29093 0.90403 0
M  V30 2126 C 220.005 1.16986 1.65656 0
M  V30 2127 C 220.338 -0.278925 1.92186 0
M  V30 2128 O 219.613 -1.2019 1.5292 0
M  V30 2129 C 219.896 1.97908 3.0084 0
M  V30 2130 C 219.749 3.50903 2.81403 0
M  V30 2131 C 221.068 1.80208 4.01513 0
M  V30 2132 H 218.187 0.426346 0.601164 0
M  V30 2133 H 220.829 1.58518 1.04747 0
M  V30 2134 H 218.979 1.62616 3.52829 0
M  V30 2135 H 220.651 3.96153 2.36348 0
M  V30 2136 H 218.894 3.76045 2.1627 0
M  V30 2137 H 219.565 4.02791 3.77443 0
M  V30 2138 H 222.041 2.11025 3.58619 0
M  V30 2139 H 220.917 2.39184 4.94047 0
M  V30 2140 H 221.178 0.756119 4.35586 0
M  V30 2141 N 220.237 -1.11381 1.11499 0
M  V30 2142 C 221.147 -2.21019 0.786628 0
M  V30 2143 C 222.163 -1.72597 -0.220507 0
M  V30 2144 O 223.339 -2.01321 -0.0565251 0
M  V30 2145 C 220.404 -3.459 0.235333 0
M  V30 2146 C 219.465 -4.09107 1.30115 0
M  V30 2147 C 218.698 -5.28027 0.776068 0
M  V30 2148 O 218.921 -5.6904 -0.393661 0
M  V30 2149 O 217.855 -5.81835 1.54114 0
M  V30 2150 H 221.681 -2.51521 1.70209 0
M  V30 2151 H 219.266 -1.19928 0.890928 0
M  V30 2152 H 221.148 -4.21346 -0.067715 0
M  V30 2153 H 219.823 -3.17049 -0.652828 0
M  V30 2154 H 218.73 -3.35391 1.65722 0
M  V30 2155 H 220.063 -4.42139 2.16273 0
M  V30 2156 N 221.715 -0.905404 -1.28997 0
M  V30 2157 C 222.625 -0.392246 -2.31298 0
M  V30 2158 C 223.641 0.515889 -1.66176 0
M  V30 2159 O 224.817 0.404093 -1.97304 0
M  V30 2160 C 221.882 0.36686 -3.44754 0
M  V30 2161 C 220.943 -0.573485 -4.25452 0
M  V30 2162 C 220.176 0.149488 -5.33491 0
M  V30 2163 O 220.399 1.37255 -5.5364 0
M  V30 2164 O 219.333 -0.510919 -5.99728 0
M  V30 2165 H 223.159 -1.2411 -2.77183 0
M  V30 2166 H 220.744 -0.669926 -1.33538 0
M  V30 2167 H 222.626 0.795907 -4.13816 0
M  V30 2168 H 221.301 1.19169 -3.00966 0
M  V30 2169 H 220.208 -1.05176 -3.59011 0
M  V30 2170 H 221.541 -1.36489 -4.72897 0
M  V30 2171 N 223.193 1.4272 -0.668489 0
M  V30 2172 C 224.47 1.95248 -0.117373 0
M  V30 2173 C 224.85 1.60919 1.36632 0
M  V30 2174 O 224.198 0.902095 2.09939 0
M  V30 2175 C 224.408 3.46927 -0.379806 0
M  V30 2176 C 225.756 4.23588 -0.292923 0
M  V30 2177 O 226.78 3.5482 -0.313204 0
M  V30 2178 O 225.639 5.46017 -0.229697 0
M  V30 2179 H 222.733 0.827 0.00079152 0
M  V30 2180 H 225.279 1.52581 -0.742783 0
M  V30 2181 H 224.051 3.65096 -1.40786 0
M  V30 2182 H 223.674 3.96627 0.277923 0
M  V30 2183 N 224.671 0.411399 1.52136 0
M  V30 2184 C 225.601 -0.404015 2.29978 0
M  V30 2185 C 226.582 -1.04412 1.34284 0
M  V30 2186 O 227.767 -1.0527 1.63192 0
M  V30 2187 C 224.897 -1.5197 3.12286 0
M  V30 2188 C 223.851 -1.00448 4.16046 0
M  V30 2189 C 223.177 -2.21393 4.86712 0
M  V30 2190 C 224.477 -0.0569336 5.22269 0
M  V30 2191 H 226.171 0.245529 2.98392 0
M  V30 2192 H 223.717 0.119525 1.43503 0
M  V30 2193 H 225.67 -2.09715 3.6551 0
M  V30 2194 H 224.394 -2.19716 2.41646 0
M  V30 2195 H 223.053 -0.449421 3.63835 0
M  V30 2196 H 222.701 -2.87699 4.12599 0
M  V30 2197 H 222.401 -1.87571 5.56858 0
M  V30 2198 H 223.925 -2.7974 5.4275 0
M  V30 2199 H 225.339 -0.54325 5.7072 0
M  V30 2200 H 223.736 0.192594 5.99791 0
M  V30 2201 H 224.806 0.887663 4.76706 0
M  V30 2202 N 226.149 -1.5696 0.141893 0
M  V30 2203 C 227.079 -2.19516 -0.795936 0
M  V30 2204 C 228.06 -1.14187 -1.26077 0
M  V30 2205 O 229.245 -1.42511 -1.31925 0
M  V30 2206 C 226.375 -2.81272 -2.03723 0
M  V30 2207 C 225.329 -3.92384 -1.70936 0
M  V30 2208 C 224.655 -4.41052 -3.02287 0
M  V30 2209 C 225.955 -5.13403 -0.959954 0
M  V30 2210 H 227.649 -2.98138 -0.274596 0
M  V30 2211 H 225.195 -1.43406 -0.130636 0
M  V30 2212 H 227.148 -3.237 -2.69808 0
M  V30 2213 H 225.872 -1.99973 -2.58221 0
M  V30 2214 H 224.531 -3.50566 -1.07232 0
M  V30 2215 H 224.179 -3.56582 -3.54765 0
M  V30 2216 H 223.879 -5.15993 -2.81114 0
M  V30 2217 H 225.403 -4.86146 -3.69451 0
M  V30 2218 H 226.817 -5.52706 -1.52279 0
M  V30 2219 H 225.214 -5.94073 -0.848357 0
M  V30 2220 H 226.284 -4.84875 0.0492434 0
M  V30 2221 N 227.627 0.131896 -1.57047 0
M  V30 2222 C 228.855 0.856461 -1.88341 0
M  V30 2223 C 229.27 1.74042 -0.731757 0
M  V30 2224 O 228.627 1.80051 0.297945 0
M  V30 2225 C 228.678 1.70064 -3.18999 0
M  V30 2226 O 228.399 0.852278 -4.2973 0
M  V30 2227 C 229.9 2.53148 -3.63911 0
M  V30 2228 H 227.12 0.246885 -0.62393 0
M  V30 2229 H 229.664 0.120152 -2.04147 0
M  V30 2230 H 227.819 2.38984 -3.04902 0
M  V30 2231 H 228.233 1.43329 -5.04537 0
M  V30 2232 H 229.707 3.07931 -4.58129 0
M  V30 2233 H 230.184 3.29901 -2.89935 0
M  V30 2234 H 230.79 1.89492 -3.80753 0
M  V30 2235 N 229.106 1.52395 0.401703 0
M  V30 2236 C 230.069 1.75636 1.47257 0
M  V30 2237 C 231.069 0.62628 1.48103 0
M  V30 2238 O 232.259 0.894227 1.49497 0
M  V30 2239 C 229.391 1.84553 2.86624 0
M  V30 2240 H 230.584 2.71241 1.27938 0
M  V30 2241 H 228.137 1.42923 0.632662 0
M  V30 2242 H 228.872 0.908882 3.11303 0
M  V30 2243 H 228.657 2.66715 2.87412 0
M  V30 2244 H 230.147 2.04251 3.64241 0
M  V30 2245 N 230.584 -0.659388 1.43143 0
M  V30 2246 C 231.809 -1.45221 1.48073 0
M  V30 2247 C 232.234 -1.87845 0.097995 0
M  V30 2248 O 231.592 -1.56985 -0.90694 0
M  V30 2249 C 231.64 -2.66748 2.42647 0
M  V30 2250 O 230.744 -3.65583 1.90848 0
M  V30 2251 H 230.085 -0.435669 0.501088 0
M  V30 2252 H 232.615 -0.807432 1.87994 0
M  V30 2253 H 232.625 -3.14637 2.59745 0
M  V30 2254 H 231.3 -2.35067 3.43098 0
M  V30 2255 H 229.877 -3.24693 1.83381 0
M  V30 2256 N 232.062 -1.29571 -0.897171 0
M  V30 2257 C 233.009 -1.14916 -2.00158 0
M  V30 2258 C 233.979 -0.0418149 -1.66047 0
M  V30 2259 O 235.164 -0.209793 -1.89643 0
M  V30 2260 C 232.304 -0.834307 -3.34863 0
M  V30 2261 C 231.417 -2.02234 -3.8174 0
M  V30 2262 C 230.552 -1.64664 -5.05034 0
M  V30 2263 C 229.591 -2.80033 -5.44286 0
M  V30 2264 N 228.728 -2.42843 -6.58765 0
M  V30 2265 H 233.568 -2.09403 -2.12025 0
M  V30 2266 H 231.105 -1.042 -1.0383 0
M  V30 2267 H 233.063 -0.632436 -4.12379 0
M  V30 2268 H 231.693 0.0736656 -3.22716 0
M  V30 2269 H 230.745 -2.33583 -3.00238 0
M  V30 2270 H 232.057 -2.88673 -4.06779 0
M  V30 2271 H 231.211 -1.4078 -5.9014 0
M  V30 2272 H 229.95 -0.753766 -4.8184 0
M  V30 2273 H 228.955 -3.04596 -4.57713 0
M  V30 2274 H 230.18 -3.69989 -5.6946 0
M  V30 2275 H 228.126 -1.56046 -6.3717 0
M  V30 2276 H 228.043 -3.22815 -6.83613 0
M  V30 2277 H 229.311 -2.22285 -7.47134 0
M  V30 2278 N 233.54 1.10788 -1.12088 0
M  V30 2279 C 234.473 2.16237 -0.729168 0
M  V30 2280 C 235.451 1.60207 0.277921 0
M  V30 2281 O 236.635 1.87707 0.172737 0
M  V30 2282 C 233.762 3.38609 -0.0786848 0
M  V30 2283 C 232.808 4.13322 -1.05201 0
M  V30 2284 S 233.641 4.69371 -2.57781 0
M  V30 2285 C 234.797 5.95058 -1.94053 0
M  V30 2286 H 235.03 2.4913 -1.62239 0
M  V30 2287 H 232.563 1.22519 -0.939603 0
M  V30 2288 H 234.521 4.09473 0.290254 0
M  V30 2289 H 233.182 3.03962 0.791593 0
M  V30 2290 H 232.375 5.01051 -0.544433 0
M  V30 2291 H 231.977 3.48251 -1.36371 0
M  V30 2292 H 234.269 6.65278 -1.28107 0
M  V30 2293 H 235.212 6.50472 -2.79807 0
M  V30 2294 H 235.62 5.46918 -1.39787 0
M  V30 2295 N 235.018 0.912232 1.28515 0
M  V30 2296 C 235.928 0.404506 2.31086 0
M  V30 2297 C 236.944 -0.50707 1.66448 0
M  V30 2298 O 238.12 -0.393624 1.97516 0
M  V30 2299 C 235.185 -0.348572 3.44943 0
M  V30 2300 C 234.246 0.59604 4.25142 0
M  V30 2301 C 233.479 -0.121194 5.33562 0
M  V30 2302 O 233.702 -1.34317 5.5436 0
M  V30 2303 O 232.636 0.542716 5.99448 0
M  V30 2304 H 236.462 1.25579 2.76521 0
M  V30 2305 H 234.047 0.676998 1.33181 0
M  V30 2306 H 235.929 -0.77395 4.14232 0
M  V30 2307 H 234.604 -1.17571 3.01594 0
M  V30 2308 H 233.511 1.07079 3.58448 0
M  V30 2309 H 234.844 1.38995 4.72167 0
M  V30 2310 N 236.496 -1.42363 0.676048 0
M  V30 2311 C 237.743 -2.01522 0.19883 0
M  V30 2312 C 238.071 -1.53456 -1.19505 0
M  V30 2313 O 237.326 -0.727967 -1.81657 0
M  V30 2314 C 237.625 -3.56929 0.183431 0
M  V30 2315 C 237.291 -4.24431 1.52215 0
M  V30 2316 C 235.953 -4.42585 1.8887 0
M  V30 2317 C 238.305 -4.62459 2.40377 0
M  V30 2318 C 235.633 -4.96039 3.13309 0
M  V30 2319 C 237.985 -5.17294 3.64129 0
M  V30 2320 C 236.649 -5.33661 4.00951 0
M  V30 2321 H 235.919 -0.737419 0.0727571 0
M  V30 2322 H 238.566 -1.70531 0.871281 0
M  V30 2323 H 236.871 -3.87594 -0.572532 0
M  V30 2324 H 238.568 -4.00486 -0.203035 0
M  V30 2325 H 235.158 -4.10661 1.22701 0
M  V30 2326 H 239.342 -4.48105 2.13343 0
M  V30 2327 H 234.598 -5.06896 3.41857 0
M  V30 2328 H 238.772 -5.45704 4.32644 0
M  V30 2329 H 236.399 -5.74845 4.9745 0
M  V30 2330 N 237.974 -0.419461 -1.51915 0
M  V30 2331 C 238.924 0.418496 -2.24126 0
M  V30 2332 C 239.908 1.00495 -1.25656 0
M  V30 2333 O 241.1 0.926058 -1.50842 0
M  V30 2334 C 238.229 1.52899 -3.07371 0
M  V30 2335 C 237.315 0.952797 -4.13258 0
M  V30 2336 N 237.706 0.104175 -5.05693 0
M  V30 2337 C 236.004 1.22224 -4.28926 0
M  V30 2338 C 236.705 -0.21752 -5.81293 0
M  V30 2339 N 235.681 0.394293 -5.42168 0
M  V30 2340 H 239.483 -0.236048 -2.92951 0
M  V30 2341 H 236.997 -0.230481 -1.60756 0
M  V30 2342 H 238.994 2.14199 -3.57665 0
M  V30 2343 H 237.654 2.18605 -2.40088 0
M  V30 2344 H 238.665 -0.260924 -5.17242 0
M  V30 2345 H 235.342 1.87812 -3.72871 0
M  V30 2346 H 236.732 -0.906992 -6.6575 0
M  V30 2347 N 239.452 1.56882 -0.150215 0
M  V30 2348 C 240.729 1.87844 0.545327 0
M  V30 2349 C 241.109 1.0567 1.82749 0
M  V30 2350 O 240.457 0.144442 2.28043 0
M  V30 2351 C 240.667 3.39526 0.80767 0
M  V30 2352 C 242.015 4.08814 1.14703 0
M  V30 2353 O 243.039 3.44723 0.896917 0
M  V30 2354 O 241.898 5.22004 1.61784 0
M  V30 2355 H 238.992 0.778677 0.278553 0
M  V30 2356 H 241.538 1.68666 -0.187068 0
M  V30 2357 H 240.31 3.91173 -0.0996096 0
M  V30 2358 H 239.933 3.64243 1.59413 0
M  V30 2359 N 240.93 -0.123565 1.57115 0
M  V30 2360 C 241.862 -1.17739 1.96648 0
M  V30 2361 C 242.875 -1.37906 0.865201 0
M  V30 2362 O 244.064 -1.37062 1.14351 0
M  V30 2363 C 241.164 -2.53821 2.24562 0
M  V30 2364 C 240.337 -2.54317 3.55867 0
M  V30 2365 C 239.396 -3.72112 3.72047 0
M  V30 2366 O 238.422 -3.55907 4.44206 0
M  V30 2367 N 239.624 -4.90498 3.10471 0
M  V30 2368 H 242.389 -0.841147 2.87654 0
M  V30 2369 H 239.95 -0.31289 1.58848 0
M  V30 2370 H 241.942 -3.31175 2.32606 0
M  V30 2371 H 240.512 -2.79645 1.39705 0
M  V30 2372 H 239.732 -1.62711 3.59053 0
M  V30 2373 H 241.02 -2.51701 4.42181 0
M  V30 2374 H 240.418 -5.06567 2.51806 0
M  V30 2375 H 238.975 -5.65544 3.24043 0
M  V30 2376 N 242.408 -1.52605 -0.393616 0
M  V30 2377 C 243.34 -1.73303 -1.49995 0
M  V30 2378 C 244.353 -0.613473 -1.50799 0
M  V30 2379 O 245.542 -0.889049 -1.54784 0
M  V30 2380 C 242.642 -1.77245 -2.88855 0
M  V30 2381 C 241.815 -3.06483 -3.12069 0
M  V30 2382 C 240.874 -3.02033 -4.30886 0
M  V30 2383 O 239.9 -3.75907 -4.27414 0
M  V30 2384 N 241.102 -2.20897 -5.36828 0
M  V30 2385 H 243.867 -2.68756 -1.32629 0
M  V30 2386 H 241.428 -1.51036 -0.583083 0
M  V30 2387 H 243.42 -1.7178 -3.66434 0
M  V30 2388 H 241.99 -0.891993 -2.99603 0
M  V30 2389 H 241.21 -3.25474 -2.22396 0
M  V30 2390 H 242.498 -3.91947 -3.2443 0
M  V30 2391 H 241.896 -1.60336 -5.42502 0
M  V30 2392 H 240.453 -2.21275 -6.13091 0
M  V30 2393 N 243.887 0.651787 -1.4349 0
M  V30 2394 C 244.797 1.79368 -1.5121 0
M  V30 2395 C 245.813 1.69361 -0.399093 0
M  V30 2396 O 246.989 1.90505 -0.653431 0
M  V30 2397 C 244.054 3.15653 -1.43401 0
M  V30 2398 C 243.115 3.37446 -2.65384 0
M  V30 2399 C 242.348 4.67229 -2.57939 0
M  V30 2400 O 242.571 5.46676 -1.62792 0
M  V30 2401 O 241.505 4.90773 -3.48462 0
M  V30 2402 H 245.331 1.7581 -2.47638 0
M  V30 2403 H 242.916 0.810447 -1.25507 0
M  V30 2404 H 244.798 3.96935 -1.41494 0
M  V30 2405 H 243.473 3.19798 -0.501085 0
M  V30 2406 H 242.38 2.55923 -2.72863 0
M  V30 2407 H 243.713 3.38148 -3.57654 0
M  V30 2408 N 245.365 1.30045 0.890287 0
M  V30 2409 C 246.295 1.18541 2.01172 0
M  V30 2410 C 247.276 0.0773356 1.69924 0
M  V30 2411 O 248.461 0.25845 1.92473 0
M  V30 2412 C 245.591 0.870941 3.36202 0
M  V30 2413 C 244.545 1.93637 3.81692 0
M  V30 2414 C 243.871 1.475 5.13953 0
M  V30 2415 C 245.171 3.34666 4.00994 0
M  V30 2416 H 246.865 2.12359 2.11054 0
M  V30 2417 H 244.411 1.02238 1.01407 0
M  V30 2418 H 246.364 0.777141 4.14172 0
M  V30 2419 H 245.088 -0.102926 3.26438 0
M  V30 2420 H 243.747 2.01972 3.05946 0
M  V30 2421 H 243.395 0.489551 5.00612 0
M  V30 2422 H 243.095 2.1876 5.4536 0
M  V30 2423 H 244.619 1.39489 5.94454 0
M  V30 2424 H 246.033 3.2912 4.69417 0
M  V30 2425 H 244.43 4.03966 4.43769 0
M  V30 2426 H 245.5 3.76949 3.05021 0
M  V30 2427 N 246.843 -1.10192 1.12674 0
M  V30 2428 C 248.071 -1.85983 0.906527 0
M  V30 2429 C 248.486 -1.80783 -0.544333 0
M  V30 2430 O 247.843 -1.19834 -1.37645 0
M  V30 2431 C 247.894 -3.34281 1.37618 0
M  V30 2432 O 247.615 -3.39401 2.77017 0
M  V30 2433 C 249.116 -4.26938 1.19325 0
M  V30 2434 H 246.336 -0.587716 0.323775 0
M  V30 2435 H 248.88 -1.39284 1.49734 0
M  V30 2436 H 247.035 -3.78436 0.828539 0
M  V30 2437 H 247.449 -4.31838 2.97684 0
M  V30 2438 H 248.923 -5.29181 1.57071 0
M  V30 2439 H 249.4 -4.38995 0.134097 0
M  V30 2440 H 250.006 -3.8859 1.72852 0
M  V30 2441 N 248.321 -0.919034 -1.28029 0
M  V30 2442 C 249.732 -0.600735 -1.76771 0
M  V30 2443 C 250.083 0.884024 -1.75156 0
M  V30 2444 O 249.208 1.69163 -1.34956 0
M  V30 2445 C 249.803 -1.08372 -3.21 0
M  V30 2446 C 248.362 -0.816248 -3.67443 0
M  V30 2447 C 247.509 -1.24742 -2.47658 0
M  V30 2448 H 250.46 -1.09974 -1.14418 0
M  V30 2449 H 250.481 -0.427512 -3.78091 0
M  V30 2450 H 249.993 -2.16437 -3.22144 0
M  V30 2451 H 248.094 0.250968 -3.71754 0
M  V30 2452 H 248.207 -1.4277 -4.57333 0
M  V30 2453 H 246.571 -0.666083 -2.45836 0
M  V30 2454 H 247.354 -2.33653 -2.51518 0
M  V30 2455 N 249.799 1.42003 -0.683588 0
M  V30 2456 C 251.024 2.06265 -0.216647 0
M  V30 2457 C 251.449 1.51059 1.12083 0
M  V30 2458 O 250.807 0.632638 1.69904 0
M  V30 2459 C 250.855 3.60191 -0.171759 0
M  V30 2460 O 249.959 4.03396 0.857069 0
M  V30 2461 H 249.3 0.65502 -0.108834 0
M  V30 2462 H 251.83 1.81982 -0.935077 0
M  V30 2463 H 251.84 4.08 0.0014303 0
M  V30 2464 H 250.515 3.99743 -1.14796 0
M  V30 2465 H 249.092 3.67117 0.654208 0
M  V30 2466 N 251.277 0.427512 1.51691 0
M  V30 2467 C 252.505 -0.141191 2.06418 0
M  V30 2468 C 252.92 -1.37303 1.29589 0
M  V30 2469 O 252.277 -1.79059 0.352732 0
M  V30 2470 C 252.328 -0.473266 3.58389 0
M  V30 2471 O 252.049 0.709673 4.32314 0
M  V30 2472 C 253.55 -1.09371 4.29596 0
M  V30 2473 H 250.77 -0.0122747 0.670888 0
M  V30 2474 H 253.314 0.603764 1.95384 0
M  V30 2475 H 251.469 -1.16812 3.69369 0
M  V30 2476 H 251.883 0.42807 5.2275 0
M  V30 2477 H 253.357 -1.27613 5.37046 0
M  V30 2478 H 253.834 -2.072 3.87253 0
M  V30 2479 H 254.44 -0.43853 4.23033 0
M  V30 2480 N 252.755 -1.56801 0.158532 0
M  V30 2481 C 253.718 -2.16138 -0.762705 0
M  V30 2482 C 254.718 -1.1061 -1.16713 0
M  V30 2483 O 255.908 -1.36191 -1.08617 0
M  V30 2484 C 253.04 -2.73386 -2.03649 0
M  V30 2485 H 254.233 -2.98886 -0.246354 0
M  V30 2486 H 251.786 -1.56035 -0.0909744 0
M  V30 2487 H 252.521 -1.94335 -2.59623 0
M  V30 2488 H 252.306 -3.50601 -1.75559 0
M  V30 2489 H 253.796 -3.19065 -2.6942 0
M  V30 2490 N 254.233 0.115231 -1.57178 0
M  V30 2491 C 255.143 1.15994 -2.03918 0
M  V30 2492 C 256.159 1.45103 -0.960268 0
M  V30 2493 O 257.335 1.56144 -1.27204 0
M  V30 2494 C 254.4 2.46568 -2.43732 0
M  V30 2495 C 253.461 2.24822 -3.65723 0
M  V30 2496 C 252.694 3.4917 -4.03629 0
M  V30 2497 O 252.917 4.56623 -3.41835 0
M  V30 2498 O 251.851 3.39949 -4.96708 0
M  V30 2499 H 255.677 0.793019 -2.93164 0
M  V30 2500 H 253.262 0.3263 -1.45793 0
M  V30 2501 H 255.144 3.23492 -2.70057 0
M  V30 2502 H 253.819 2.82726 -1.57631 0
M  V30 2503 H 252.726 1.45744 -3.44542 0
M  V30 2504 H 254.059 1.93566 -4.52541 0
M  V30 2505 N 255.711 1.52812 0.385517 0
M  V30 2506 C 257.122 1.5993 0.963293 0
M  V30 2507 C 257.473 0.454302 1.90868 0
M  V30 2508 O 256.598 -0.422132 2.12243 0
M  V30 2509 C 257.193 2.89871 1.75387 0
M  V30 2510 C 255.752 2.99389 2.28129 0
M  V30 2511 C 254.899 2.55071 1.08783 0
M  V30 2512 H 257.85 1.5784 0.164948 0
M  V30 2513 H 257.871 2.76553 2.61341 0
M  V30 2514 H 257.383 3.73186 1.06554 0
M  V30 2515 H 255.484 2.20619 3.00263 0
M  V30 2516 H 255.597 4.04096 2.57377 0
M  V30 2517 H 253.961 2.09473 1.4489 0
M  V30 2518 H 254.744 3.40785 0.414807 0
M  V30 2519 N 257.189 -0.644168 1.43834 0
M  V30 2520 C 258.414 -1.43642 1.49605 0
M  V30 2521 C 258.839 -1.8773 0.117913 0
M  V30 2522 O 258.197 -1.57938 -0.890239 0
M  V30 2523 C 258.245 -2.6416 2.45463 0
M  V30 2524 O 257.349 -3.63538 1.94714 0
M  V30 2525 H 256.69 -0.430329 0.50568 0
M  V30 2526 H 259.22 -0.787448 1.8884 0
M  V30 2527 H 259.23 -3.11864 2.63068 0
M  V30 2528 H 257.905 -2.31414 3.45572 0
M  V30 2529 H 256.482 -3.2273 1.86814 0
M  V30 2530 N 258.668 -1.30515 -0.883378 0
M  V30 2531 C 259.945 -1.10086 -1.6168 0
M  V30 2532 C 260.325 0.349269 -2.08191 0
M  V30 2533 O 259.673 1.34105 -1.85008 0
M  V30 2534 C 259.883 -2.10315 -2.78511 0
M  V30 2535 C 261.231 -2.42119 -3.48803 0
M  V30 2536 O 262.255 -2.08638 -2.88702 0
M  V30 2537 O 261.114 -2.99396 -4.57192 0
M  V30 2538 H 258.208 -0.422907 -0.710689 0
M  V30 2539 H 260.754 -1.41947 -0.930015 0
M  V30 2540 H 259.526 -3.07917 -2.41459 0
M  V30 2541 H 259.149 -1.79282 -3.54886 0
M  V30 2542 N 260.146 1.09593 -1.13257 0
M  V30 2543 C 261.078 2.16015 -0.766167 0
M  V30 2544 C 262.091 1.61423 0.211303 0
M  V30 2545 O 263.28 1.78498 -0.00863946 0
M  V30 2546 C 260.38 3.38706 -0.114662 0
M  V30 2547 C 259.553 4.22717 -1.12379 0
M  V30 2548 C 258.612 5.23835 -0.498301 0
M  V30 2549 O 257.638 5.573 -1.15781 0
M  V30 2550 N 258.84 5.75886 0.730417 0
M  V30 2551 H 261.605 2.48055 -1.68193 0
M  V30 2552 H 259.166 1.25292 -1.02535 0
M  V30 2553 H 261.158 4.03464 0.315991 0
M  V30 2554 H 259.728 3.04569 0.704011 0
M  V30 2555 H 258.948 3.54122 -1.73179 0
M  V30 2556 H 260.236 4.75673 -1.80589 0
M  V30 2557 H 259.634 5.50911 1.28504 0
M  V30 2558 H 258.191 6.42387 1.10376 0
M  V30 2559 N 261.624 0.925811 1.2754 0
M  V30 2560 C 262.571 0.422045 2.26908 0
M  V30 2561 C 263.541 -0.510029 1.58076 0
M  V30 2562 O 264.726 -0.429599 1.85901 0
M  V30 2563 C 261.866 -0.320837 3.43605 0
M  V30 2564 C 260.979 0.64513 4.27156 0
M  V30 2565 C 260.114 -0.117405 5.3107 0
M  V30 2566 C 259.153 0.841391 6.0629 0
M  V30 2567 N 258.29 0.111604 7.02011 0
M  V30 2568 H 263.13 1.27441 2.69375 0
M  V30 2569 H 260.667 0.639697 1.32462 0
M  V30 2570 H 262.625 -0.76785 4.10073 0
M  V30 2571 H 261.255 -1.13745 3.02096 0
M  V30 2572 H 260.307 1.21067 3.6062 0
M  V30 2573 H 261.619 1.37797 4.79389 0
M  V30 2574 H 260.773 -0.624422 6.03478 0
M  V30 2575 H 259.512 -0.883219 4.79636 0
M  V30 2576 H 258.517 1.35967 5.32722 0
M  V30 2577 H 259.742 1.60696 6.59813 0
M  V30 2578 H 257.688 -0.635999 6.5291 0
M  V30 2579 H 257.605 0.784044 7.51923 0
M  V30 2580 H 258.873 -0.374823 7.78598 0
M  V30 2581 N 263.102 -1.41638 0.69111 0
M  V30 2582 C 264.012 -2.34588 0.0233487 0
M  V30 2583 C 265.028 -1.55987 -0.770984 0
M  V30 2584 O 266.204 -1.88486 -0.709569 0
M  V30 2585 C 263.269 -3.34684 -0.904851 0
M  V30 2586 C 262.33 -4.29176 -0.103225 0
M  V30 2587 C 261.563 -5.2449 -0.987216 0
M  V30 2588 O 261.786 -5.2514 -2.22674 0
M  V30 2589 O 260.72 -6.00295 -0.439281 0
M  V30 2590 H 264.546 -2.93261 0.789416 0
M  V30 2591 H 262.131 -1.42417 0.45142 0
M  V30 2592 H 264.013 -3.96133 -1.43724 0
M  V30 2593 H 262.688 -2.78461 -1.65049 0
M  V30 2594 H 261.595 -3.71089 0.473655 0
M  V30 2595 H 262.928 -4.88484 0.60365 0
M  V30 2596 N 264.58 -0.43555 -1.51462 0
M  V30 2597 C 265.527 0.376797 -2.27703 0
M  V30 2598 C 266.497 1.01838 -1.31219 0
M  V30 2599 O 267.682 1.03762 -1.60119 0
M  V30 2600 C 264.822 1.47301 -3.12084 0
M  V30 2601 C 263.935 0.849744 -4.2356 0
M  V30 2602 C 263.07 1.92086 -4.95254 0
M  V30 2603 C 262.109 1.27593 -5.98654 0
M  V30 2604 N 261.246 2.28833 -6.63762 0
M  V30 2605 H 266.086 -0.279734 -2.96684 0
M  V30 2606 H 263.623 -0.149795 -1.46335 0
M  V30 2607 H 265.581 2.11984 -3.59331 0
M  V30 2608 H 264.211 2.0992 -2.45221 0
M  V30 2609 H 263.263 0.0912529 -3.80291 0
M  V30 2610 H 264.575 0.338878 -4.97648 0
M  V30 2611 H 263.729 2.64435 -5.46039 0
M  V30 2612 H 262.468 2.46545 -4.20793 0
M  V30 2613 H 261.473 0.537893 -5.47162 0
M  V30 2614 H 262.698 0.738693 -6.7507 0
M  V30 2615 H 260.644 2.82375 -5.92115 0
M  V30 2616 H 260.561 1.82632 -7.33608 0
M  V30 2617 H 261.829 3.00671 -7.19178 0
M  V30 2618 N 266.058 1.56714 -0.166846 0
M  V30 2619 C 266.968 2.21331 0.777791 0
M  V30 2620 C 267.984 1.20358 1.25658 0
M  V30 2621 O 269.16 1.53005 1.30964 0
M  V30 2622 C 266.225 2.83787 1.99163 0
M  V30 2623 C 265.286 3.99947 1.56016 0
M  V30 2624 C 264.519 4.59415 2.71613 0
M  V30 2625 O 264.742 4.17769 3.88362 0
M  V30 2626 O 263.676 5.49359 2.45945 0
M  V30 2627 H 267.502 3.02605 0.257636 0
M  V30 2628 H 265.087 1.49275 0.0611393 0
M  V30 2629 H 266.969 3.23405 2.70161 0
M  V30 2630 H 265.644 2.05513 2.50092 0
M  V30 2631 H 264.551 3.65007 0.819809 0
M  V30 2632 H 265.884 4.79801 1.09782 0
M  V30 2633 N 267.536 -0.106894 1.57237 0
M  V30 2634 C 268.761 -0.830287 1.90055 0
M  V30 2635 C 269.186 -1.72064 0.75998 0
M  V30 2636 O 268.544 -1.78982 -0.288991 0
M  V30 2637 C 268.592 -1.6295 3.21683 0
M  V30 2638 O 267.696 -2.73748 3.08441 0
M  V30 2639 H 267.037 -0.228855 0.623315 0
M  V30 2640 H 269.567 -0.085658 2.04421 0
M  V30 2641 H 269.577 -2.01621 3.54701 0
M  V30 2642 H 268.252 -0.975989 4.04286 0
M  V30 2643 H 266.829 -2.38192 2.86913 0
M  V30 2644 N 269.014 -1.53014 -0.377408 0
M  V30 2645 C 269.924 -1.81557 -1.48574 0
M  V30 2646 C 270.94 -0.703102 -1.59162 0
M  V30 2647 O 272.116 -0.99192 -1.75279 0
M  V30 2648 C 269.181 -1.9889 -2.83978 0
M  V30 2649 C 268.242 -3.22801 -2.83016 0
M  V30 2650 C 267.475 -3.39298 -4.11962 0
M  V30 2651 O 267.698 -2.60345 -5.0752 0
M  V30 2652 O 266.632 -4.32604 -4.18494 0
M  V30 2653 H 270.458 -2.75695 -1.27382 0
M  V30 2654 H 268.043 -1.38248 -0.566373 0
M  V30 2655 H 269.925 -2.11931 -3.6423 0
M  V30 2656 H 268.6 -1.07942 -3.05172 0
M  V30 2657 H 267.507 -3.15193 -2.01505 0
M  V30 2658 H 268.84 -4.13632 -2.66775 0
M  V30 2659 N 270.492 0.636531 -1.44174 0
M  V30 2660 C 271.439 1.74875 -1.50624 0
M  V30 2661 C 272.409 1.62275 -0.35442 0
M  V30 2662 O 273.594 1.82276 -0.563908 0
M  V30 2663 C 270.734 3.13102 -1.45125 0
M  V30 2664 C 269.847 3.36717 -2.7064 0
M  V30 2665 C 268.982 4.64885 -2.57013 0
M  V30 2666 C 268.021 4.8166 -3.77717 0
M  V30 2667 N 267.158 6.01101 -3.62798 0
M  V30 2668 H 271.998 1.68697 -2.45653 0
M  V30 2669 H 269.535 0.823004 -1.21922 0
M  V30 2670 H 271.493 3.93034 -1.39929 0
M  V30 2671 H 270.123 3.18308 -0.536671 0
M  V30 2672 H 269.175 2.50763 -2.86046 0
M  V30 2673 H 270.487 3.44993 -3.60252 0
M  V30 2674 H 269.641 5.52969 -2.49619 0
M  V30 2675 H 268.38 4.58957 -1.64953 0
M  V30 2676 H 267.385 3.92007 -3.85501 0
M  V30 2677 H 268.61 4.89406 -4.70807 0
M  V30 2678 H 266.556 5.96273 -2.73486 0
M  V30 2679 H 266.473 6.10409 -4.46023 0
M  V30 2680 H 267.741 6.91761 -3.59286 0
M  V30 2681 N 271.97 1.30982 0.876444 0
M  V30 2682 C 272.902 1.13902 1.98894 0
M  V30 2683 C 273.915 0.0798815 1.62604 0
M  V30 2684 O 275.104 0.326743 1.75484 0
M  V30 2685 C 272.204 0.716699 3.31235 0
M  V30 2686 C 271.377 1.85945 3.95908 0
M  V30 2687 C 270.436 1.42426 5.06558 0
M  V30 2688 O 269.462 2.13287 5.27729 0
M  V30 2689 N 270.664 0.308025 5.79682 0
M  V30 2690 H 273.429 2.09724 2.14094 0
M  V30 2691 H 270.99 1.2323 1.05004 0
M  V30 2692 H 272.982 0.408403 4.02634 0
M  V30 2693 H 271.552 -0.149719 3.12241 0
M  V30 2694 H 270.772 2.33541 3.17573 0
M  V30 2695 H 272.06 2.62503 4.35855 0
M  V30 2696 H 271.458 -0.282241 5.64995 0
M  V30 2697 H 270.015 0.0592282 6.51773 0
M  V30 2698 N 273.449 -1.08991 1.13837 0
M  V30 2699 C 274.674 -1.85551 0.926585 0
M  V30 2700 C 275.099 -1.80782 -0.519566 0
M  V30 2701 O 274.457 -1.18855 -1.36906 0
M  V30 2702 C 274.505 -3.31266 1.42462 0
M  V30 2703 O 273.609 -4.07822 0.612789 0
M  V30 2704 H 272.95 -0.575192 0.331738 0
M  V30 2705 H 275.48 -1.37604 1.51414 0
M  V30 2706 H 275.49 -3.82112 1.43019 0
M  V30 2707 H 274.165 -3.34052 2.47754 0
M  V30 2708 H 272.742 -3.66731 0.675463 0
M  V30 2709 N 274.927 -0.932562 -1.27047 0
M  V30 2710 C 275.874 -0.434072 -2.26681 0
M  V30 2711 C 276.844 0.501639 -1.58344 0
M  V30 2712 O 278.029 0.419734 -1.86126 0
M  V30 2713 C 275.169 0.30261 -3.43771 0
M  V30 2714 C 274.282 -0.667774 -4.26808 0
M  V30 2715 C 273.417 0.0892393 -5.31125 0
M  V30 2716 C 272.456 -0.873532 -6.05835 0
M  V30 2717 N 271.593 -0.148832 -7.01942 0
M  V30 2718 H 276.433 -1.28868 -2.68695 0
M  V30 2719 H 273.97 -0.646713 -1.32121 0
M  V30 2720 H 275.928 0.746092 -4.10474 0
M  V30 2721 H 274.558 1.12142 -3.02695 0
M  V30 2722 H 273.61 -1.22978 -3.59973 0
M  V30 2723 H 274.922 -1.40337 -4.78651 0
M  V30 2724 H 274.076 0.592409 -6.03801 0
M  V30 2725 H 272.815 0.85777 -4.80097 0
M  V30 2726 H 271.82 -1.38791 -5.31994 0
M  V30 2727 H 273.045 -1.64193 -6.58952 0
M  V30 2728 H 270.991 0.601365 -6.53238 0
M  V30 2729 H 270.908 -0.82391 -7.51497 0
M  V30 2730 H 272.176 0.333527 -7.78786 0
M  V30 2731 N 276.405 1.4127 -0.698611 0
M  V30 2732 C 277.816 1.84187 -0.305289 0
M  V30 2733 C 278.167 1.58449 1.15708 0
M  V30 2734 O 277.292 1.05651 1.88856 0
M  V30 2735 C 277.887 3.3435 -0.547314 0
M  V30 2736 C 276.446 3.75826 -0.207878 0
M  V30 2737 C 275.593 2.64647 -0.828099 0
M  V30 2738 H 278.544 1.30778 -0.89904 0
M  V30 2739 H 278.565 3.8001 0.192998 0
M  V30 2740 H 278.077 3.53051 -1.61172 0
M  V30 2741 H 276.178 3.62725 0.852143 0
M  V30 2742 H 276.291 4.74462 -0.665021 0
M  V30 2743 H 274.655 2.53395 -0.257458 0
M  V30 2744 H 275.438 2.86165 -1.89643 0
M  V30 2745 N 277.883 0.443576 1.51229 0
M  V30 2746 C 279.131 -0.120557 2.0174 0
M  V30 2747 C 279.452 -1.42665 1.32935 0
M  V30 2748 O 278.722 -1.9028 0.465866 0
M  V30 2749 H 277.302 -0.0475426 0.745486 0
M  V30 2750 H 279.964 0.587711 1.85828 0
M  V30 2751 H 279.06 -0.291972 3.10731 0
M  V30 2752 N 279.361 -1.56624 0.175154 0
M  V30 2753 C 280.271 -2.21741 -0.766042 0
M  V30 2754 C 281.287 -1.21023 -1.25018 0
M  V30 2755 O 282.463 -1.53697 -1.3015 0
M  V30 2756 C 279.528 -2.84839 -1.97655 0
M  V30 2757 C 278.589 -4.00769 -1.53892 0
M  V30 2758 C 277.822 -4.60849 -2.69173 0
M  V30 2759 O 278.045 -4.19823 -3.86141 0
M  V30 2760 O 276.979 -5.50655 -2.43028 0
M  V30 2761 H 280.805 -3.02738 -0.241585 0
M  V30 2762 H 278.39 -1.49305 -0.053222 0
M  V30 2763 H 280.272 -3.24834 -2.68442 0
M  V30 2764 H 278.947 -2.06836 -2.48999 0
M  V30 2765 H 277.854 -3.65436 -0.80044 0
M  V30 2766 H 279.187 -4.80376 -1.07236 0
M  V30 2767 N 280.839 0.0985539 -1.57292 0
M  V30 2768 C 282.116 0.834155 -1.76921 0
M  V30 2769 C 282.496 1.97101 -0.755928 0
M  V30 2770 O 281.844 2.27474 0.216245 0
M  V30 2771 C 282.054 1.33194 -3.22584 0
M  V30 2772 C 283.402 1.77611 -3.85668 0
M  V30 2773 O 284.426 1.42825 -3.26312 0
M  V30 2774 O 283.285 2.4192 -4.90038 0
M  V30 2775 H 280.379 0.397628 -0.725135 0
M  V30 2776 H 282.925 0.0807044 -1.69508 0
M  V30 2777 H 281.697 0.517248 -3.87866 0
M  V30 2778 H 281.32 2.1475 -3.34616 0
M  V30 2779 N 282.317 1.53212 0.369288 0
M  V30 2780 C 283.247 1.82365 1.45826 0
M  V30 2781 C 284.228 0.676907 1.56051 0
M  V30 2782 O 285.413 0.926401 1.70679 0
M  V30 2783 C 282.543 2.01023 2.83208 0
M  V30 2784 C 281.497 3.1678 2.8781 0
M  V30 2785 C 280.823 3.20724 4.27832 0
M  V30 2786 C 282.123 4.55447 2.55667 0
M  V30 2787 H 283.817 2.73559 1.21678 0
M  V30 2788 H 281.363 1.3163 0.583911 0
M  V30 2789 H 283.316 2.20001 3.59413 0
M  V30 2790 H 282.04 1.06536 3.08736 0
M  V30 2791 H 280.699 2.97616 2.14056 0
M  V30 2792 H 280.347 2.23882 4.50429 0
M  V30 2793 H 280.047 3.98496 4.31827 0
M  V30 2794 H 281.571 3.41881 5.05915 0
M  V30 2795 H 282.985 4.74611 3.21586 0
M  V30 2796 H 281.382 5.35432 2.70984 0
M  V30 2797 H 282.452 4.60812 1.5093 0
M  V30 2798 N 283.795 -0.628877 1.44509 0
M  V30 2799 C 284.742 -1.74074 1.51549 0
M  V30 2800 C 285.712 -1.62084 0.363021 0
M  V30 2801 O 286.897 -1.81975 0.573567 0
M  V30 2802 C 284.037 -3.12328 1.46784 0
M  V30 2803 C 283.15 -3.35277 2.72422 0
M  V30 2804 C 282.285 -4.63515 2.59475 0
M  V30 2805 C 281.324 -4.7965 3.80266 0
M  V30 2806 N 280.461 -5.99168 3.65981 0
M  V30 2807 H 285.301 -1.67392 2.46544 0
M  V30 2808 H 282.838 -0.816527 1.22357 0
M  V30 2809 H 284.796 -3.92286 1.42012 0
M  V30 2810 H 283.426 -3.18018 0.553544 0
M  V30 2811 H 282.478 -2.49242 2.87372 0
M  V30 2812 H 283.79 -3.43078 3.62076 0
M  V30 2813 H 282.944 -5.51638 2.52548 0
M  V30 2814 H 281.683 -4.58076 1.67384 0
M  V30 2815 H 280.688 -3.89957 3.87574 0
M  V30 2816 H 281.913 -4.86902 4.73395 0
M  V30 2817 H 279.859 -5.94814 2.76644 0
M  V30 2818 H 279.776 -6.08035 4.49254 0
M  V30 2819 H 281.044 -6.89846 3.6295 0
M  V30 2820 N 285.273 -1.31445 -0.869486 0
M  V30 2821 C 286.223 -1.15731 -1.96444 0
M  V30 2822 C 287.207 -0.0681855 -1.60755 0
M  V30 2823 O 288.399 -0.293154 -1.74555 0
M  V30 2824 C 285.528 -0.867255 -3.32165 0
M  V30 2825 C 284.614 -1.99738 -3.74119 0
M  V30 2826 N 285.005 -3.24447 -3.88031 0
M  V30 2827 C 283.303 -1.89723 -4.03635 0
M  V30 2828 C 284.004 -3.98374 -4.23879 0
M  V30 2829 N 282.98 -3.26547 -4.3459 0
M  V30 2830 H 286.782 -2.10296 -2.05312 0
M  V30 2831 H 284.296 -1.23009 -1.06031 0
M  V30 2832 H 286.293 -0.735668 -4.10358 0
M  V30 2833 H 284.953 0.0701614 -3.24624 0
M  V30 2834 H 285.964 -3.59557 -3.72746 0
M  V30 2835 H 282.641 -1.03449 -4.04481 0
M  V30 2836 H 284.031 -5.05844 -4.42235 0
M  V30 2837 N 286.751 1.08385 -1.14413 0
M  V30 2838 C 287.714 2.13486 -0.834048 0
M  V30 2839 C 288.714 1.59988 0.161418 0
M  V30 2840 O 289.904 1.74071 -0.0669575 0
M  V30 2841 C 287.036 3.4003 -0.243354 0
M  V30 2842 H 288.229 2.42425 -1.7655 0
M  V30 2843 H 285.782 1.24101 -0.950189 0
M  V30 2844 H 286.517 3.16726 0.696807 0
M  V30 2845 H 286.302 3.80157 -0.960367 0
M  V30 2846 H 287.792 4.17577 -0.0436242 0
M  V30 2847 N 288.23 0.939286 1.26551 0
M  V30 2848 C 289.193 0.451987 2.24699 0
M  V30 2849 C 290.193 -0.435869 1.5478 0
M  V30 2850 O 291.383 -0.235314 1.72603 0
M  V30 2851 C 288.515 -0.348801 3.39111 0
M  V30 2852 H 289.708 1.3193 2.69322 0
M  V30 2853 H 287.261 0.721072 1.38673 0
M  V30 2854 H 287.996 -1.23444 2.99887 0
M  V30 2855 H 287.781 0.287945 3.91041 0
M  V30 2856 H 289.271 -0.679726 4.12031 0
M  V30 2857 N 289.708 -1.40897 0.706093 0
M  V30 2858 C 290.638 -2.33418 0.0620085 0
M  V30 2859 C 291.619 -1.52385 -0.755827 0
M  V30 2860 O 292.804 -1.80886 -0.706674 0
M  V30 2861 C 289.934 -3.36293 -0.867445 0
M  V30 2862 C 288.888 -4.27716 -0.155932 0
M  V30 2863 C 288.214 -5.2105 -1.20046 0
M  V30 2864 C 289.514 -5.12944 0.984149 0
M  V30 2865 H 291.208 -2.87527 0.83477 0
M  V30 2866 H 288.754 -1.38249 0.402875 0
M  V30 2867 H 290.707 -3.99949 -1.32735 0
M  V30 2868 H 289.431 -2.80556 -1.67199 0
M  V30 2869 H 288.09 -3.65498 0.284047 0
M  V30 2870 H 287.738 -4.61624 -1.99781 0
M  V30 2871 H 287.438 -5.83056 -0.729328 0
M  V30 2872 H 288.962 -5.87584 -1.66066 0
M  V30 2873 H 290.376 -5.70109 0.604048 0
M  V30 2874 H 288.773 -5.83945 1.38304 0
M  V30 2875 H 289.843 -4.49485 1.81911 0
M  V30 2876 N 291.186 -0.45159 -1.50991 0
M  V30 2877 C 292.432 0.110237 -2.025 0
M  V30 2878 C 292.765 1.41109 -1.33424 0
M  V30 2879 O 292.04 1.89135 -0.453659 0
M  V30 2880 C 292.323 0.314271 -3.58726 0
M  V30 2881 C 292.176 -1.00623 -4.38401 0
M  V30 2882 C 293.495 1.07767 -4.26702 0
M  V30 2883 H 290.614 0.0385897 -0.735989 0
M  V30 2884 H 293.256 -0.593374 -1.80497 0
M  V30 2885 H 291.406 0.913601 -3.77605 0
M  V30 2886 H 293.078 -1.64064 -4.31139 0
M  V30 2887 H 291.321 -1.6075 -4.02917 0
M  V30 2888 H 291.992 -0.817341 -5.45915 0
M  V30 2889 H 294.468 0.56986 -4.12179 0
M  V30 2890 H 293.344 1.18921 -5.35863 0
M  V30 2891 H 293.605 2.10939 -3.88532 0
M  V30 2892 N 292.664 1.56529 -0.183458 0
M  V30 2893 C 293.889 2.02064 0.467428 0
M  V30 2894 C 294.314 1.06282 1.55196 0
M  V30 2895 O 293.672 0.0443565 1.81246 0
M  V30 2896 C 293.72 3.46122 1.01153 0
M  V30 2897 O 292.824 3.53437 2.12499 0
M  V30 2898 H 292.165 0.654726 0.110588 0
M  V30 2899 H 294.695 2.02521 -0.290917 0
M  V30 2900 H 294.705 3.85676 1.33108 0
M  V30 2901 H 293.38 4.15331 0.217533 0
M  V30 2902 H 291.957 3.2575 1.81497 0
M  V30 2903 N 294.142 -0.090211 1.57342 0
M  V30 2904 C 295.074 -1.13541 1.99101 0
M  V30 2905 C 296.087 -1.3604 0.894258 0
M  V30 2906 O 297.276 -1.34606 1.17233 0
M  V30 2907 C 294.376 -2.49001 2.29895 0
M  V30 2908 C 293.549 -2.46712 3.61182 0
M  V30 2909 C 292.608 -3.64136 3.79857 0
M  V30 2910 O 291.634 -3.46405 4.51655 0
M  V30 2911 N 292.836 -4.83802 3.20806 0
M  V30 2912 H 295.601 -0.779942 2.89373 0
M  V30 2913 H 293.162 -0.279125 1.59476 0
M  V30 2914 H 295.154 -3.26166 2.39578 0
M  V30 2915 H 293.724 -2.76619 1.45605 0
M  V30 2916 H 292.944 -1.55058 3.62423 0
M  V30 2917 H 294.232 -2.42265 4.4742 0
M  V30 2918 H 293.63 -5.01112 2.62494 0
M  V30 2919 H 292.187 -5.58543 3.35966 0
M  V30 2920 N 295.62 -1.53406 -0.361157 0
M  V30 2921 C 297.031 -1.61442 -0.937728 0
M  V30 2922 C 297.382 -0.48461 -1.90121 0
M  V30 2923 O 296.507 0.388312 -2.12888 0
M  V30 2924 C 297.102 -2.92624 -1.70753 0
M  V30 2925 C 295.661 -3.02981 -2.23337 0
M  V30 2926 C 294.808 -2.5677 -1.04712 0
M  V30 2927 H 297.759 -1.58083 -0.139816 0
M  V30 2928 H 297.78 -2.80675 -2.56908 0
M  V30 2929 H 297.292 -3.74834 -1.00604 0
M  V30 2930 H 295.393 -2.25368 -2.96715 0
M  V30 2931 H 295.506 -4.0814 -2.50916 0
M  V30 2932 H 293.87 -2.11752 -1.41539 0
M  V30 2933 H 294.653 -3.41402 -0.360539 0
M  V30 2934 N 297.098 0.621204 -1.44841 0
M  V30 2935 C 298.008 1.7612 -1.5498 0
M  V30 2936 C 299.024 1.68477 -0.434927 0
M  V30 2937 O 300.2 1.89076 -0.693693 0
M  V30 2938 C 297.265 3.1254 -1.50065 0
M  V30 2939 C 296.326 3.31741 -2.72482 0
M  V30 2940 C 295.559 4.61653 -2.67792 0
M  V30 2941 O 295.782 5.431 -1.74352 0
M  V30 2942 O 294.716 4.83271 -3.58794 0
M  V30 2943 H 298.542 1.70518 -2.51311 0
M  V30 2944 H 296.127 0.783643 -1.27198 0
M  V30 2945 H 298.009 3.93844 -1.49882 0
M  V30 2946 H 296.684 3.18663 -0.568806 0
M  V30 2947 H 295.591 2.50077 -2.7823 0
M  V30 2948 H 296.924 3.30486 -3.64746 0
M  V30 2949 N 298.576 1.31904 0.862503 0
M  V30 2950 C 299.804 1.24998 1.64873 0
M  V30 2951 C 300.219 -0.183425 1.87907 0
M  V30 2952 O 299.576 -1.11794 1.44251 0
M  V30 2953 C 299.627 1.99829 3.01248 0
M  V30 2954 O 299.348 3.37575 2.79239 0
M  V30 2955 C 300.849 1.99852 3.95694 0
M  V30 2956 H 298.069 0.431599 0.513773 0
M  V30 2957 H 300.613 1.73901 1.07604 0
M  V30 2958 H 298.768 1.54668 3.55185 0
M  V30 2959 H 299.182 3.75776 3.65914 0
M  V30 2960 H 300.656 2.56709 4.88676 0
M  V30 2961 H 301.133 0.982852 4.28062 0
M  V30 2962 H 301.739 2.44926 3.47694 0
M  V30 2963 N 300.054 -1.07777 1.14986 0
M  V30 2964 C 301.282 -1.84018 0.945773 0
M  V30 2965 C 301.697 -1.81897 -0.505863 0
M  V30 2966 O 301.054 -1.22726 -1.35072 0
M  V30 2967 C 301.105 -3.31287 1.44677 0
M  V30 2968 O 300.826 -3.33449 2.84154 0
M  V30 2969 C 302.327 -4.24311 1.28355 0
M  V30 2970 H 299.547 -0.580716 0.336169 0
M  V30 2971 H 302.091 -1.36077 1.52654 0
M  V30 2972 H 300.246 -3.76594 0.908625 0
M  V30 2973 H 300.66 -4.25427 3.06777 0
M  V30 2974 H 302.134 -5.2573 1.68261 0
M  V30 2975 H 302.611 -4.38612 0.227184 0
M  V30 2976 H 303.217 -3.84836 1.81056 0
M  V30 2977 N 301.532 -0.945985 -1.26051 0
M  V30 2978 C 302.479 -0.45809 -2.26208 0
M  V30 2979 C 303.449 0.484816 -1.58867 0
M  V30 2980 O 304.634 0.399969 -1.86561 0
M  V30 2981 C 301.774 0.266131 -3.44072 0
M  V30 2982 C 300.887 -0.713005 -4.26075 0
M  V30 2983 C 300.022 0.0329013 -5.3119 0
M  V30 2984 C 299.061 -0.93774 -6.04874 0
M  V30 2985 N 298.198 -0.223274 -7.01745 0
M  V30 2986 H 303.038 -1.3171 -2.67313 0
M  V30 2987 H 300.575 -0.66069 -1.31428 0
M  V30 2988 H 302.533 0.702514 -4.11243 0
M  V30 2989 H 301.163 1.08925 -3.03867 0
M  V30 2990 H 300.215 -1.26789 -3.58648 0
M  V30 2991 H 301.527 -1.45406 -4.77136 0
M  V30 2992 H 300.681 0.528335 -6.04395 0
M  V30 2993 H 299.42 0.806801 -4.8098 0
M  V30 2994 H 298.425 -1.44425 -5.30492 0
M  V30 2995 H 299.65 -1.71172 -6.57173 0
M  V30 2996 H 297.596 0.532046 -6.53839 0
M  V30 2997 H 297.513 -0.90357 -7.50581 0
M  V30 2998 H 298.781 0.250907 -7.79096 0
M  V30 2999 N 303.011 1.40521 -0.713556 0
M  V30 3000 C 304.239 2.05237 -0.261775 0
M  V30 3001 C 304.654 1.53755 1.09567 0
M  V30 3002 O 304.011 0.693268 1.6882 0
M  V30 3003 C 304.062 3.60763 -0.230706 0
M  V30 3004 O 303.783 4.10345 -1.53455 0
M  V30 3005 C 305.284 4.42651 0.239874 0
M  V30 3006 H 302.504 0.660533 -0.118057 0
M  V30 3007 H 305.048 1.79967 -0.971192 0
M  V30 3008 H 303.203 3.8501 0.429661 0
M  V30 3009 H 303.617 5.04526 -1.43366 0
M  V30 3010 H 305.091 5.51599 0.210468 0
M  V30 3011 H 305.568 4.20082 1.28171 0
M  V30 3012 H 306.174 4.23507 -0.390142 0
M  V30 3013 N 304.489 0.459591 1.5075 0
M  V30 3014 C 305.719 -0.0972338 2.06371 0
M  V30 3015 C 306.127 -1.35074 1.32483 0
M  V30 3016 O 305.47 -1.79637 0.384226 0
M  V30 3017 C 305.532 -0.462759 3.56509 0
M  V30 3018 C 305.196 0.687084 4.51805 0
M  V30 3019 C 306.193 1.56578 4.95761 0
M  V30 3020 C 303.878 0.874144 4.94635 0
M  V30 3021 C 305.872 2.61604 5.81242 0
M  V30 3022 C 303.559 1.92765 5.79901 0
M  V30 3023 C 304.557 2.79697 6.23104 0
M  V30 3024 O 304.245 3.83235 7.06673 0
M  V30 3025 H 303.977 -0.00140687 0.675999 0
M  V30 3026 H 306.531 0.644011 1.95043 0
M  V30 3027 H 304.761 -1.25703 3.65699 0
M  V30 3028 H 306.45 -0.953323 3.94546 0
M  V30 3029 H 307.216 1.4329 4.6335 0
M  V30 3030 H 303.095 0.207006 4.60535 0
M  V30 3031 H 306.639 3.29489 6.14884 0
M  V30 3032 H 302.536 2.06064 6.11725 0
M  V30 3033 H 303.304 3.80084 7.24899 0
M  V30 3034 N 305.967 -1.56429 0.191757 0
M  V30 3035 C 307.378 -1.83912 -0.321428 0
M  V30 3036 C 307.729 -1.11231 -1.61623 0
M  V30 3037 O 306.854 -0.37202 -2.13178 0
M  V30 3038 C 307.449 -3.33624 -0.589961 0
M  V30 3039 C 306.008 -3.6153 -1.04753 0
M  V30 3040 C 305.155 -2.7714 -0.0943327 0
M  V30 3041 H 308.106 -1.53161 0.415612 0
M  V30 3042 H 308.127 -3.52213 -1.43966 0
M  V30 3043 H 307.639 -3.86495 0.352588 0
M  V30 3044 H 305.74 -3.14089 -2.00447 0
M  V30 3045 H 305.853 -4.69737 -0.942549 0
M  V30 3046 H 304.217 -2.47638 -0.595589 0
M  V30 3047 H 305 -3.32799 0.842601 0
M  V30 3048 N 307.445 0.0818655 -1.57387 0
M  V30 3049 C 308.722 0.815343 -1.77796 0
M  V30 3050 C 309.102 1.96289 -0.77679 0
M  V30 3051 O 308.45 2.27691 0.192106 0
M  V30 3052 C 308.66 1.29765 -3.23978 0
M  V30 3053 C 310.008 1.7351 -3.8753 0
M  V30 3054 O 311.032 1.39356 -3.27808 0
M  V30 3055 O 309.891 2.36708 -4.92576 0
M  V30 3056 H 306.985 0.389914 -0.729312 0
M  V30 3057 H 309.531 0.0627213 -1.69584 0
M  V30 3058 H 308.303 0.47608 -3.88393 0
M  V30 3059 H 307.926 2.11189 -3.36875 0
M  V30 3060 N 308.923 1.53595 0.353017 0
M  V30 3061 C 309.87 1.80919 1.43308 0
M  V30 3062 C 310.84 0.654288 1.5267 0
M  V30 3063 O 312.025 0.897759 1.6836 0
M  V30 3064 C 309.165 2.01605 2.80089 0
M  V30 3065 C 308.278 3.29321 2.79593 0
M  V30 3066 C 307.413 3.40125 4.0803 0
M  V30 3067 C 306.452 4.61826 4.01725 0
M  V30 3068 N 305.589 4.69716 5.21834 0
M  V30 3069 H 310.429 2.73074 1.19308 0
M  V30 3070 H 307.966 1.35263 0.578131 0
M  V30 3071 H 309.924 2.11586 3.59565 0
M  V30 3072 H 308.554 1.12772 3.0246 0
M  V30 3073 H 307.606 3.28229 1.92276 0
M  V30 3074 H 308.918 4.18884 2.70809 0
M  V30 3075 H 308.072 3.49488 4.95927 0
M  V30 3076 H 306.811 2.48601 4.19582 0
M  V30 3077 H 305.816 4.52552 3.12213 0
M  V30 3078 H 307.041 5.54705 3.91764 0
M  V30 3079 H 304.987 3.81097 5.33948 0
M  V30 3080 H 304.904 5.53202 5.1527 0
M  V30 3081 H 306.172 4.83376 6.11529 0
M  V30 3082 N 310.401 -0.613514 1.45168 0
M  V30 3083 C 311.348 -1.72456 1.53387 0
M  V30 3084 C 312.318 -1.6169 0.380191 0
M  V30 3085 O 313.503 -1.81356 0.592836 0
M  V30 3086 C 310.643 -3.10753 1.50088 0
M  V30 3087 C 309.756 -3.32368 2.75963 0
M  V30 3088 C 308.891 -4.60737 2.64376 0
M  V30 3089 C 307.93 -4.7559 3.85332 0
M  V30 3090 N 307.067 -5.95253 3.72315 0
M  V30 3091 H 311.907 -1.64768 2.48305 0
M  V30 3092 H 309.444 -0.803503 1.23216 0
M  V30 3093 H 311.402 -3.90758 1.46164 0
M  V30 3094 H 310.032 -3.17413 0.587243 0
M  V30 3095 H 309.084 -2.4618 2.89999 0
M  V30 3096 H 310.396 -3.39218 3.65695 0
M  V30 3097 H 309.55 -5.48928 2.58385 0
M  V30 3098 H 308.289 -4.56275 1.72233 0
M  V30 3099 H 307.294 -3.85824 3.91688 0
M  V30 3100 H 308.519 -4.81854 4.78533 0
M  V30 3101 H 306.465 -5.91847 2.82937 0
M  V30 3102 H 306.382 -6.03236 4.55677 0
M  V30 3103 H 307.65 -6.85958 3.70246 0
M  V30 3104 N 311.879 -1.3236 -0.855495 0
M  V30 3105 C 313.156 -1.13491 -1.59309 0
M  V30 3106 C 313.536 0.30503 -2.08885 0
M  V30 3107 O 312.884 1.30151 -1.87811 0
M  V30 3108 C 313.094 -2.16176 -2.73987 0
M  V30 3109 C 314.442 -2.49463 -3.43589 0
M  V30 3110 O 315.466 -2.14715 -2.84211 0
M  V30 3111 O 314.325 -3.09027 -4.50738 0
M  V30 3112 H 311.419 -0.437887 -0.701559 0
M  V30 3113 H 313.965 -1.43887 -0.899696 0
M  V30 3114 H 312.737 -3.1297 -2.34873 0
M  V30 3115 H 312.36 -1.86769 -3.51003 0
M  V30 3116 N 313.357 1.07166 -1.15556 0
M  V30 3117 C 314.29 2.13808 -0.797593 0
M  V30 3118 C 315.268 1.6101 0.226812 0
M  V30 3119 O 316.452 1.88161 0.112932 0
M  V30 3120 C 313.579 3.38187 -0.186371 0
M  V30 3121 C 312.625 4.09766 -1.18297 0
M  V30 3122 S 313.458 4.60932 -2.72584 0
M  V30 3123 C 314.614 5.88583 -2.12886 0
M  V30 3124 H 314.847 2.43843 -1.70083 0
M  V30 3125 H 312.38 1.19467 -0.978106 0
M  V30 3126 H 314.338 4.10189 0.159837 0
M  V30 3127 H 312.999 3.06326 0.694489 0
M  V30 3128 H 312.192 4.99065 -0.703562 0
M  V30 3129 H 311.794 3.43736 -1.47381 0
M  V30 3130 H 314.086 6.60866 -1.49208 0
M  V30 3131 H 315.029 6.41241 -3.0036 0
M  V30 3132 H 315.437 5.42194 -1.57116 0
M  V30 3133 N 314.835 0.952656 1.25548 0
M  V30 3134 C 315.767 0.428609 2.25157 0
M  V30 3135 C 316.78 -0.454428 1.56329 0
M  V30 3136 O 317.969 -0.263023 1.76552 0
M  V30 3137 C 315.069 -0.401972 3.36508 0
M  V30 3138 C 314.242 0.467601 4.34893 0
M  V30 3139 C 313.301 -0.30445 5.25319 0
M  V30 3140 O 312.327 0.296473 5.68427 0
M  V30 3141 N 313.529 -1.59805 5.5807 0
M  V30 3142 H 316.294 1.28497 2.70756 0
M  V30 3143 H 313.855 0.822798 1.39433 0
M  V30 3144 H 315.847 -0.926134 3.9396 0
M  V30 3145 H 314.417 -1.15918 2.90313 0
M  V30 3146 H 313.637 1.17288 3.76347 0
M  V30 3147 H 314.925 1.06119 4.97611 0
M  V30 3148 H 314.323 -2.10823 5.24948 0
M  V30 3149 H 312.88 -2.06822 6.18116 0
M  V30 3150 N 316.313 -1.40141 0.720998 0
M  V30 3151 C 317.561 -2.0039 0.262323 0
M  V30 3152 C 317.882 -1.57469 -1.15015 0
M  V30 3153 O 317.152 -0.816582 -1.78069 0
M  V30 3154 H 315.732 -0.741063 0.093996 0
M  V30 3155 H 318.394 -1.71398 0.927835 0
M  V30 3156 H 317.49 -3.10658 0.299671 0
M  V30 3157 N 317.792 -0.46758 -1.50504 0
M  V30 3158 C 319.02 0.0864133 -2.06719 0
M  V30 3159 C 319.435 1.33819 -1.33184 0
M  V30 3160 O 318.792 1.78061 -0.400083 0
M  V30 3161 C 318.843 0.378079 -3.59517 0
M  V30 3162 O 318.564 -0.824044 -4.3028 0
M  V30 3163 C 320.065 0.979426 -4.32345 0
M  V30 3164 H 317.285 -0.00551697 -0.670977 0
M  V30 3165 H 319.829 -0.655354 -1.93715 0
M  V30 3166 H 317.984 1.06977 -3.72337 0
M  V30 3167 H 318.398 -0.566518 -5.21432 0
M  V30 3168 H 319.872 1.1333 -5.40241 0
M  V30 3169 H 320.349 1.9686 -3.9261 0
M  V30 3170 H 320.955 0.326216 -4.24047 0
M  V30 3171 N 319.27 1.56325 -0.20005 0
M  V30 3172 C 320.18 2.22931 0.730668 0
M  V30 3173 C 321.196 1.22997 1.23076 0
M  V30 3174 O 322.372 1.55748 1.27689 0
M  V30 3175 C 319.437 2.87948 1.93098 0
M  V30 3176 C 318.498 4.03166 1.47497 0
M  V30 3177 C 317.731 4.65073 2.61807 0
M  V30 3178 O 317.954 4.25913 3.79413 0
M  V30 3179 O 316.888 5.54452 2.34237 0
M  V30 3180 H 320.714 3.03084 0.193391 0
M  V30 3181 H 318.299 1.49371 0.0294621 0
M  V30 3182 H 320.181 3.29063 2.6324 0
M  V30 3183 H 318.856 2.10771 2.45677 0
M  V30 3184 H 317.763 3.66664 0.742201 0
M  V30 3185 H 319.096 4.82022 0.995796 0
M  V30 3186 N 320.748 -0.0735177 1.57428 0
M  V30 3187 C 321.658 -1.10547 2.06922 0
M  V30 3188 C 322.674 -1.42506 0.998402 0
M  V30 3189 O 323.85 -1.52717 1.31299 0
M  V30 3190 C 320.915 -2.40019 2.50184 0
M  V30 3191 C 319.976 -2.15046 3.71556 0
M  V30 3192 C 319.209 -3.38345 4.12745 0
M  V30 3193 O 319.432 -4.47399 3.53822 0
M  V30 3194 O 318.366 -3.2666 5.05546 0
M  V30 3195 H 322.192 -0.715013 2.95163 0
M  V30 3196 H 319.777 -0.287531 1.46607 0
M  V30 3197 H 321.659 -3.16218 2.78539 0
M  V30 3198 H 320.334 -2.78447 1.65072 0
M  V30 3199 H 319.241 -1.36558 3.48285 0
M  V30 3200 H 320.574 -1.81499 4.57514 0
M  V30 3201 N 322.226 -1.5378 -0.344866 0
M  V30 3202 C 323.136 -1.84667 -1.4469 0
M  V30 3203 C 324.152 -0.736704 -1.57635 0
M  V30 3204 O 325.328 -1.02888 -1.73136 0
M  V30 3205 C 322.393 -2.04869 -2.79696 0
M  V30 3206 C 321.454 -3.28731 -2.76106 0
M  V30 3207 C 320.687 -3.4796 -4.04673 0
M  V30 3208 O 320.91 -2.71052 -5.01883 0
M  V30 3209 O 319.844 -4.41383 -4.09224 0
M  V30 3210 H 323.67 -2.78334 -1.21506 0
M  V30 3211 H 321.255 -1.39418 -0.536921 0
M  V30 3212 H 323.137 -2.19609 -3.59652 0
M  V30 3213 H 321.812 -1.14391 -3.02814 0
M  V30 3214 H 320.719 -3.19396 -1.94774 0
M  V30 3215 H 322.052 -4.19198 -2.57941 0
M  V30 3216 N 323.704 0.605807 -1.45491 0
M  V30 3217 C 324.651 1.7164 -1.54299 0
M  V30 3218 C 325.621 1.61486 -0.388761 0
M  V30 3219 O 326.806 1.81039 -0.602445 0
M  V30 3220 C 323.946 3.09953 -1.51734 0
M  V30 3221 C 323.059 3.309 -2.77721 0
M  V30 3222 C 322.194 4.59329 -2.66816 0
M  V30 3223 C 321.233 4.7354 -3.87848 0
M  V30 3224 N 320.37 5.9327 -3.75467 0
M  V30 3225 H 325.21 1.63449 -2.49176 0
M  V30 3226 H 322.747 0.796957 -1.23641 0
M  V30 3227 H 324.705 3.89977 -1.48235 0
M  V30 3228 H 323.335 3.17098 -0.604068 0
M  V30 3229 H 322.387 2.44639 -2.913 0
M  V30 3230 H 323.699 3.37274 -3.67488 0
M  V30 3231 H 322.853 5.4755 -2.61292 0
M  V30 3232 H 321.592 4.55355 -1.74651 0
M  V30 3233 H 320.597 3.83741 -3.93729 0
M  V30 3234 H 321.822 4.79309 -4.81082 0
M  V30 3235 H 319.768 5.90338 -2.86072 0
M  V30 3236 H 319.685 6.00811 -4.5887 0
M  V30 3237 H 320.953 6.83984 -3.73879 0
M  V30 3238 N 325.182 1.32811 0.848464 0
M  V30 3239 C 326.145 1.22194 1.9391 0
M  V30 3240 C 327.145 0.143404 1.60159 0
M  V30 3241 O 328.335 0.394253 1.6968 0
M  V30 3242 C 325.467 0.88067 3.29328 0
M  V30 3243 H 326.66 2.19127 2.04752 0
M  V30 3244 H 324.213 1.16731 1.0394 0
M  V30 3245 H 324.948 -0.0865776 3.24184 0
M  V30 3246 H 324.733 1.66052 3.55203 0
M  V30 3247 H 326.223 0.830871 4.09251 0
M  V30 3248 N 326.66 -1.06551 1.16123 0
M  V30 3249 C 328.071 -1.60768 0.949232 0
M  V30 3250 C 328.422 -1.89523 -0.507508 0
M  V30 3251 O 327.547 -1.66671 -1.38021 0
M  V30 3252 C 328.142 -2.92086 1.71671 0
M  V30 3253 C 326.701 -3.43015 1.54977 0
M  V30 3254 C 325.848 -2.16947 1.72711 0
M  V30 3255 H 328.799 -0.895354 1.31031 0
M  V30 3256 H 328.82 -3.6138 1.19099 0
M  V30 3257 H 328.332 -2.71127 2.7769 0
M  V30 3258 H 326.433 -3.69039 0.513873 0
M  V30 3259 H 326.546 -4.18516 2.33198 0
M  V30 3260 H 324.91 -2.27041 1.15431 0
M  V30 3261 H 325.693 -1.98473 2.80113 0
M  V30 3262 N 328.138 -0.959301 -1.25041 0
M  V30 3263 C 329.068 -0.501388 -2.28053 0
M  V30 3264 C 330.049 0.454673 -1.63911 0
M  V30 3265 O 331.234 0.352618 -1.90972 0
M  V30 3266 C 328.364 0.217224 -3.4662 0
M  V30 3267 C 327.318 -0.654034 -4.22973 0
M  V30 3268 C 326.644 0.195589 -5.34342 0
M  V30 3269 C 327.944 -1.93447 -4.85155 0
M  V30 3270 H 329.638 -1.36238 -2.66608 0
M  V30 3271 H 327.184 -0.656534 -1.28163 0
M  V30 3272 H 329.137 0.548732 -4.17812 0
M  V30 3273 H 327.861 1.1125 -3.07068 0
M  V30 3274 H 326.52 -0.968693 -3.5357 0
M  V30 3275 H 326.168 1.09076 -4.91031 0
M  V30 3276 H 325.868 -0.384091 -5.86343 0
M  V30 3277 H 327.392 0.521958 -6.08365 0
M  V30 3278 H 328.806 -1.66908 -5.48466 0
M  V30 3279 H 327.203 -2.46018 -5.47353 0
M  V30 3280 H 328.273 -2.63466 -4.07079 0
M  V30 3281 N 329.616 1.39756 -0.72842 0
M  V30 3282 C 330.579 2.29012 -0.0927297 0
M  V30 3283 C 331.579 1.45992 0.674025 0
M  V30 3284 O 332.769 1.66749 0.50402 0
M  V30 3285 C 329.901 3.29396 0.878137 0
M  V30 3286 H 331.094 2.86729 -0.879011 0
M  V30 3287 H 328.647 1.48293 -0.493847 0
M  V30 3288 H 329.382 2.76722 1.69101 0
M  V30 3289 H 329.167 3.907 0.331051 0
M  V30 3290 H 330.657 3.96199 1.3197 0
M  V30 3291 N 331.094 0.475555 1.50254 0
M  V30 3292 C 332.024 -0.30611 2.31485 0
M  V30 3293 C 333.005 -0.986228 1.38591 0
M  V30 3294 O 334.19 -0.982541 1.67511 0
M  V30 3295 C 331.32 -1.38588 3.1845 0
M  V30 3296 C 330.274 -0.827115 4.19932 0
M  V30 3297 C 329.6 -2.00551 4.95665 0
M  V30 3298 C 330.9 0.16463 5.2204 0
M  V30 3299 H 332.594 0.371866 2.97082 0
M  V30 3300 H 330.14 0.180282 1.42867 0
M  V30 3301 H 332.093 -1.94023 3.74076 0
M  V30 3302 H 330.817 -2.09269 2.50747 0
M  V30 3303 H 329.476 -0.294702 3.65414 0
M  V30 3304 H 329.124 -2.6994 4.2443 0
M  V30 3305 H 328.824 -1.63784 5.64313 0
M  V30 3306 H 330.348 -2.56468 5.54127 0
M  V30 3307 H 331.762 -0.300699 5.72511 0
M  V30 3308 H 330.159 0.446813 5.98434 0
M  V30 3309 H 331.229 1.08905 4.72512 0
M  V30 3310 N 332.573 -1.56217 0.208337 0
M  V30 3311 C 333.82 -1.97949 -0.42692 0
M  V30 3312 C 334.148 -1.09562 -1.60706 0
M  V30 3313 O 333.403 -0.137616 -1.95216 0
M  V30 3314 C 333.702 -3.45441 -0.916797 0
M  V30 3315 C 333.368 -4.50646 0.151391 0
M  V30 3316 C 332.03 -4.79139 0.444867 0
M  V30 3317 C 334.382 -5.13811 0.874492 0
M  V30 3318 C 331.71 -5.68084 1.46619 0
M  V30 3319 C 334.062 -6.03861 1.88506 0
M  V30 3320 C 332.726 -6.30704 2.18559 0
M  V30 3321 H 331.996 -0.724345 -0.156221 0
M  V30 3322 H 334.643 -1.89006 0.308084 0
M  V30 3323 H 332.948 -3.51521 -1.73032 0
M  V30 3324 H 334.645 -3.75094 -1.41794 0
M  V30 3325 H 331.235 -4.28511 -0.0875068 0
M  V30 3326 H 335.419 -4.91879 0.660996 0
M  V30 3327 H 330.675 -5.87151 1.7048 0
M  V30 3328 H 334.849 -6.51861 2.45051 0
M  V30 3329 H 332.476 -6.99424 2.97843 0
M  V30 3330 N 334.051 0.0651679 -1.57465 0
M  V30 3331 C 335.299 0.761555 -1.87202 0
M  V30 3332 C 335.62 1.77778 -0.801243 0
M  V30 3333 O 334.89 1.95166 0.16937 0
M  V30 3334 H 333.47 0.284251 -0.690804 0
M  V30 3335 H 336.132 0.0396827 -1.9486 0
M  V30 3336 H 335.228 1.27365 -2.84929 0
M  V30 3337 N 335.529 1.53961 0.336706 0
M  V30 3338 C 336.479 1.7881 1.41461 0
M  V30 3339 C 337.463 0.643561 1.47469 0
M  V30 3340 O 338.655 0.903166 1.52223 0
M  V30 3341 C 335.784 2.00722 2.78506 0
M  V30 3342 C 334.87 3.2126 2.76862 0
M  V30 3343 N 335.261 4.42588 2.44845 0
M  V30 3344 C 333.559 3.22568 3.08004 0
M  V30 3345 C 334.26 5.2447 2.51607 0
M  V30 3346 N 333.236 4.61344 2.87511 0
M  V30 3347 H 337.038 2.70205 1.15615 0
M  V30 3348 H 334.552 1.52978 0.545112 0
M  V30 3349 H 336.549 2.1666 3.5618 0
M  V30 3350 H 335.209 1.10573 3.05293 0
M  V30 3351 H 336.22 4.69819 2.17922 0
M  V30 3352 H 332.897 2.42409 3.39918 0
M  V30 3353 H 334.287 6.31324 2.29955 0
M  V30 3354 N 337.007 -0.598083 1.45811 0
M  V30 3355 C 338.235 -1.38322 1.53866 0
M  V30 3356 C 338.65 -1.87992 0.174479 0
M  V30 3357 O 338.007 -1.62756 -0.825627 0
M  V30 3358 C 338.058 -2.58125 2.53089 0
M  V30 3359 O 337.779 -2.10516 3.84206 0
M  V30 3360 C 339.28 -3.50869 2.70935 0
M  V30 3361 H 336.5 -0.423093 0.520801 0
M  V30 3362 H 339.044 -0.728527 1.91083 0
M  V30 3363 H 337.199 -3.19615 2.18917 0
M  V30 3364 H 337.613 -2.88425 4.38077 0
M  V30 3365 H 339.087 -4.31451 3.44317 0
M  V30 3366 H 339.564 -4.01822 1.77301 0
M  V30 3367 H 340.17 -2.95225 3.06141 0
M  V30 3368 N 338.485 -1.33259 -0.841409 0
M  V30 3369 C 339.415 -1.25926 -1.96634 0
M  V30 3370 C 340.396 -0.140349 -1.6952 0
M  V30 3371 O 341.581 -0.329707 -1.91381 0
M  V30 3372 C 338.711 -0.99512 -3.32738 0
M  V30 3373 C 337.665 -2.0767 -3.74242 0
M  V30 3374 C 336.991 -1.66474 -5.08125 0
M  V30 3375 C 338.291 -3.49318 -3.88297 0
M  V30 3376 H 339.985 -2.20046 -2.03027 0
M  V30 3377 H 337.531 -1.05931 -0.975425 0
M  V30 3378 H 339.484 -0.930323 -4.11002 0
M  V30 3379 H 338.208 -0.0183004 -3.26595 0
M  V30 3380 H 336.867 -2.13187 -2.98239 0
M  V30 3381 H 336.515 -0.675012 -4.9845 0
M  V30 3382 H 336.215 -2.3885 -5.36865 0
M  V30 3383 H 337.739 -1.61455 -5.88867 0
M  V30 3384 H 339.153 -3.46316 -4.56879 0
M  V30 3385 H 337.55 -4.20158 -4.28471 0
M  V30 3386 H 338.62 -3.8801 -2.9082 0
M  V30 3387 N 339.963 1.05934 -1.16686 0
M  V30 3388 C 341.209 1.79065 -0.95203 0
M  V30 3389 C 341.542 1.87147 0.518629 0
M  V30 3390 O 340.817 1.36574 1.38484 0
M  V30 3391 C 341.1 3.23359 -1.58464 0
M  V30 3392 C 340.953 3.23336 -3.12689 0
M  V30 3393 C 342.272 4.21004 -1.28232 0
M  V30 3394 H 339.391 0.65005 -0.34728 0
M  V30 3395 H 342.033 1.23868 -1.44072 0
M  V30 3396 H 340.183 3.70493 -1.16908 0
M  V30 3397 H 341.855 2.84336 -3.6325 0
M  V30 3398 H 340.098 2.61886 -3.4583 0
M  V30 3399 H 340.769 4.25144 -3.52075 0
M  V30 3400 H 343.245 3.8233 -1.64203 0
M  V30 3401 H 342.121 5.20225 -1.75092 0
M  V30 3402 H 342.382 4.41639 -0.201791 0
M  V30 3403 N 341.441 0.965919 1.2453 0
M  V30 3404 C 342.404 0.499547 2.2369 0
M  V30 3405 C 343.404 -0.40294 1.5567 0
M  V30 3406 O 344.594 -0.19865 1.73064 0
M  V30 3407 C 341.726 -0.276792 3.39774 0
M  V30 3408 H 342.919 1.37613 2.66463 0
M  V30 3409 H 340.472 0.750324 1.37112 0
M  V30 3410 H 341.207 -1.17055 3.02438 0
M  V30 3411 H 340.992 0.370826 3.90343 0
M  V30 3412 H 342.482 -0.592175 4.1338 0
M  V30 3413 N 342.919 -1.39368 0.735821 0
M  V30 3414 C 344.144 -2.05319 0.293052 0
M  V30 3415 C 344.569 -1.55115 -1.064 0
M  V30 3416 O 343.927 -0.695261 -1.67439 0
M  V30 3417 C 343.975 -3.59305 0.305323 0
M  V30 3418 O 343.079 -4.06299 -0.706761 0
M  V30 3419 H 342.42 -0.650529 0.13307 0
M  V30 3420 H 344.95 -1.78386 1.00197 0
M  V30 3421 H 344.96 -4.07724 0.149997 0
M  V30 3422 H 343.635 -3.95207 1.29553 0
M  V30 3423 H 342.212 -3.69292 -0.517504 0
M  V30 3424 N 344.397 -0.483516 -1.5 0
M  V30 3425 C 345.327 0.293829 -2.31644 0
M  V30 3426 C 346.308 0.978864 -1.39112 0
M  V30 3427 O 347.493 0.973644 -1.68029 0
M  V30 3428 C 344.623 1.36897 -3.19181 0
M  V30 3429 C 343.577 0.804833 -4.20365 0
M  V30 3430 C 342.903 1.9792 -4.96721 0
M  V30 3431 C 344.203 -0.192313 -5.21946 0
M  V30 3432 H 345.897 -0.387616 -2.9688 0
M  V30 3433 H 343.443 -0.187856 -1.42769 0
M  V30 3434 H 345.396 1.92037 -3.751 0
M  V30 3435 H 344.12 2.07936 -2.51853 0
M  V30 3436 H 342.779 0.275319 -3.65565 0
M  V30 3437 H 342.427 2.67686 -4.25856 0
M  V30 3438 H 342.127 1.60789 -5.65173 0
M  V30 3439 H 343.651 2.53526 -5.55479 0
M  V30 3440 H 345.065 0.270333 -5.72662 0
M  V30 3441 H 343.462 -0.478543 -5.98189 0
M  V30 3442 H 344.532 -1.11409 -4.71928 0
M  V30 3443 N 345.875 1.56104 -0.216619 0
M  V30 3444 C 346.785 2.23694 0.706982 0
M  V30 3445 C 347.801 1.24295 1.21765 0
M  V30 3446 O 348.977 1.57094 1.2603 0
M  V30 3447 C 346.042 2.8998 1.90033 0
M  V30 3448 C 345.103 4.04708 1.43213 0
M  V30 3449 C 344.336 4.67824 2.56859 0
M  V30 3450 O 344.559 4.29913 3.74874 0
M  V30 3451 O 343.493 5.56905 2.28343 0
M  V30 3452 H 347.319 3.03272 0.161235 0
M  V30 3453 H 344.904 1.49394 0.0136177 0
M  V30 3454 H 346.786 3.31837 2.59735 0
M  V30 3455 H 345.461 2.13365 2.43428 0
M  V30 3456 H 344.368 3.6743 0.70327 0
M  V30 3457 H 345.701 4.83051 0.944615 0
M  V30 3458 N 347.353 -0.0568162 1.57498 0
M  V30 3459 C 348.63 -0.786954 1.79071 0
M  V30 3460 C 349.01 -1.95028 0.80792 0
M  V30 3461 O 348.358 -2.27968 -0.155858 0
M  V30 3462 C 348.568 -1.24594 3.26002 0
M  V30 3463 C 349.916 -1.67323 3.90241 0
M  V30 3464 O 350.94 -1.34124 3.29984 0
M  V30 3465 O 349.799 -2.28842 4.9628 0
M  V30 3466 H 346.893 -0.378262 0.735423 0
M  V30 3467 H 349.439 -0.035734 1.69662 0
M  V30 3468 H 348.211 -0.41423 3.89101 0
M  V30 3469 H 347.834 -2.05803 3.40192 0
M  V30 3470 N 348.832 -1.54138 -0.328536 0
M  V30 3471 C 349.765 -1.78014 -1.4278 0
M  V30 3472 C 350.743 -0.629889 -1.49904 0
M  V30 3473 O 351.927 -0.866763 -1.6739 0
M  V30 3474 C 349.054 -1.89225 -2.80912 0
M  V30 3475 C 348.1 -3.11483 -2.91343 0
M  V30 3476 S 348.933 -4.70201 -2.56263 0
M  V30 3477 C 350.089 -4.84312 -3.96476 0
M  V30 3478 H 350.322 -2.70974 -1.22313 0
M  V30 3479 H 347.855 -1.45197 -0.525084 0
M  V30 3480 H 349.813 -1.9637 -3.60485 0
M  V30 3481 H 348.474 -0.972518 -2.98665 0
M  V30 3482 H 347.667 -3.16046 -3.92595 0
M  V30 3483 H 347.269 -3.02642 -2.19736 0
M  V30 3484 H 349.561 -4.66643 -4.91173 0
M  V30 3485 H 350.504 -5.86411 -3.96898 0
M  V30 3486 H 350.912 -4.12652 -3.85199 0
M  V30 3487 N 350.31 0.590341 -1.46126 0
M  V30 3488 C 351.257 1.69994 -1.56111 0
M  V30 3489 C 352.227 1.61065 -0.405867 0
M  V30 3490 O 353.412 1.8039 -0.621613 0
M  V30 3491 C 350.552 3.08326 -1.55013 0
M  V30 3492 C 349.665 3.27936 -2.81215 0
M  V30 3493 C 348.8 4.56473 -2.71673 0
M  V30 3494 C 347.839 4.694 -3.92849 0
M  V30 3495 N 346.976 5.89254 -3.81738 0
M  V30 3496 H 351.816 1.60797 -2.50895 0
M  V30 3497 H 349.353 0.783799 -1.24479 0
M  V30 3498 H 351.311 3.88383 -1.52362 0
M  V30 3499 H 349.941 3.16439 -0.637667 0
M  V30 3500 H 348.993 2.41536 -2.93879 0
M  V30 3501 H 350.305 3.33357 -3.71045 0
M  V30 3502 H 349.459 5.44748 -2.67085 0
M  V30 3503 H 348.198 4.53477 -1.7947 0
M  V30 3504 H 347.203 3.79544 -3.97777 0
M  V30 3505 H 348.428 4.7418 -4.86138 0
M  V30 3506 H 346.374 5.87271 -2.92317 0
M  V30 3507 H 346.291 5.95911 -4.65217 0
M  V30 3508 H 347.559 6.79981 -3.81112 0
M  V30 3509 N 351.788 1.33704 0.83433 0
M  V30 3510 C 352.72 1.20172 1.9517 0
M  V30 3511 C 353.733 0.131572 1.62267 0
M  V30 3512 O 354.922 0.382406 1.74356 0
M  V30 3513 C 352.022 0.821716 3.28787 0
M  V30 3514 C 351.195 1.98446 3.89792 0
M  V30 3515 C 350.254 1.58469 5.01771 0
M  V30 3516 O 349.28 2.29968 5.20676 0
M  V30 3517 N 350.482 0.492291 5.78409 0
M  V30 3518 H 353.247 2.16429 2.07313 0
M  V30 3519 H 350.808 1.26509 1.0103 0
M  V30 3520 H 352.8 0.536291 4.01131 0
M  V30 3521 H 351.37 -0.0503058 3.1256 0
M  V30 3522 H 350.59 2.43526 3.09982 0
M  V30 3523 H 351.878 2.76236 4.27283 0
M  V30 3524 H 351.276 -0.102349 5.65607 0
M  V30 3525 H 349.833 0.266555 6.51255 0
M  V30 3526 N 353.266 -1.05314 1.17247 0
M  V30 3527 C 354.213 -2.13031 0.888058 0
M  V30 3528 C 355.183 -1.65253 -0.167537 0
M  V30 3529 O 356.368 -1.90775 -0.0305974 0
M  V30 3530 C 353.508 -3.42702 0.406147 0
M  V30 3531 C 352.621 -4.04161 1.52572 0
M  V30 3532 C 351.756 -5.21744 0.997808 0
M  V30 3533 C 350.795 -5.75207 2.09291 0
M  V30 3534 N 349.932 -6.84094 1.57986 0
M  V30 3535 H 354.772 -2.36698 1.81048 0
M  V30 3536 H 352.309 -1.16121 0.903013 0
M  V30 3537 H 354.267 -4.17059 0.108305 0
M  V30 3538 H 352.897 -3.19222 -0.479313 0
M  V30 3539 H 351.949 -3.27253 1.93931 0
M  V30 3540 H 353.261 -4.39881 2.35172 0
M  V30 3541 H 352.415 -6.03168 0.653739 0
M  V30 3542 H 351.154 -4.87495 0.141232 0
M  V30 3543 H 350.159 -4.92414 2.44557 0
M  V30 3544 H 351.384 -6.11505 2.95362 0
M  V30 3545 H 349.33 -6.51745 0.74598 0
M  V30 3546 H 349.247 -7.18811 2.34195 0
M  V30 3547 H 350.515 -7.69172 1.26468 0
M  V30 3548 N 354.744 -0.972509 -1.24016 0
M  V30 3549 C 355.972 -0.654803 -1.96265 0
M  V30 3550 C 356.387 0.776708 -1.72083 0
M  V30 3551 O 355.744 1.52171 -1.00748 0
M  V30 3552 C 355.795 -0.92592 -3.49441 0
M  V30 3553 O 355.516 -2.30116 -3.72798 0
M  V30 3554 C 357.017 -0.623068 -4.38899 0
M  V30 3555 H 354.237 -0.243907 -0.6251 0
M  V30 3556 H 356.781 -1.30175 -1.57717 0
M  V30 3557 H 354.936 -0.325108 -3.86033 0
M  V30 3558 H 355.35 -2.38483 -4.67147 0
M  V30 3559 H 356.824 -0.863189 -5.45209 0
M  V30 3560 H 357.301 0.442754 -4.36963 0
M  V30 3561 H 357.907 -1.204 -4.07902 0
M  V30 3562 N 356.222 1.38976 -0.743202 0
M  V30 3563 C 357.132 2.3434 -0.110399 0
M  V30 3564 C 358.148 1.58741 0.712559 0
M  V30 3565 O 359.324 1.9099 0.639125 0
M  V30 3566 C 356.389 3.37812 0.780012 0
M  V30 3567 C 355.45 4.29263 -0.0561319 0
M  V30 3568 C 354.683 5.27793 0.791875 0
M  V30 3569 O 354.906 5.33043 2.03031 0
M  V30 3570 O 353.84 6.01512 0.216183 0
M  V30 3571 H 357.666 2.90129 -0.897714 0
M  V30 3572 H 355.251 1.40643 -0.503966 0
M  V30 3573 H 357.133 4.01194 1.28923 0
M  V30 3574 H 355.808 2.84395 1.546 0
M  V30 3575 H 354.715 3.69076 -0.611056 0
M  V30 3576 H 356.048 4.85907 -0.784531 0
M  V30 3577 N 357.7 0.491464 1.49741 0
M  V30 3578 C 359.111 0.0413169 1.86654 0
M  V30 3579 C 359.462 -1.36985 1.40462 0
M  V30 3580 O 358.587 -2.01917 0.778354 0
M  V30 3581 C 359.182 0.0682023 3.38731 0
M  V30 3582 C 357.741 -0.32656 3.74981 0
M  V30 3583 C 356.888 0.444888 2.73708 0
M  V30 3584 H 359.839 0.704733 1.42194 0
M  V30 3585 H 359.86 -0.729322 3.73445 0
M  V30 3586 H 359.372 1.09539 3.72321 0
M  V30 3587 H 357.473 -1.35734 3.46997 0
M  V30 3588 H 357.586 -0.013741 4.79098 0
M  V30 3589 H 355.95 -0.104062 2.54487 0
M  V30 3590 H 356.733 1.47197 3.10142 0
M  V30 3591 N 359.178 -1.55987 0.224894 0
M  V30 3592 C 360.403 -2.03232 -0.41369 0
M  V30 3593 C 360.828 -1.10359 -1.52323 0
M  V30 3594 O 360.186 -0.092395 -1.81064 0
M  V30 3595 C 360.234 -3.48682 -0.919405 0
M  V30 3596 O 359.338 -3.58947 -2.03054 0
M  V30 3597 H 358.679 -0.657428 -0.0931903 0
M  V30 3598 H 361.209 -2.01679 0.34451 0
M  V30 3599 H 361.219 -3.8907 -1.22835 0
M  V30 3600 H 359.894 -4.15761 -0.107339 0
M  V30 3601 H 358.471 -3.30448 -1.72796 0
M  V30 3602 N 360.656 0.0484629 -1.57525 0
M  V30 3603 C 361.586 1.0549 -2.08313 0
M  V30 3604 C 362.567 1.38929 -0.981463 0
M  V30 3605 O 363.752 1.48151 -1.25558 0
M  V30 3606 C 360.882 2.36162 -2.54646 0
M  V30 3607 C 359.836 2.17016 -3.68901 0
M  V30 3608 C 359.162 3.53278 -4.01371 0
M  V30 3609 C 360.462 1.57219 -4.98076 0
M  V30 3610 H 362.156 0.632195 -2.92649 0
M  V30 3611 H 359.702 0.302654 -1.40784 0
M  V30 3612 H 361.655 3.06882 -2.88793 0
M  V30 3613 H 360.379 2.80456 -1.67368 0
M  V30 3614 H 359.038 1.48733 -3.35073 0
M  V30 3615 H 358.686 3.95185 -3.11188 0
M  V30 3616 H 358.386 3.41299 -4.78318 0
M  V30 3617 H 359.91 4.25391 -4.38035 0
M  V30 3618 H 361.324 2.17832 -5.30304 0
M  V30 3619 H 359.721 1.55871 -5.79503 0
M  V30 3620 H 360.791 0.535956 -4.81929 0
M  V30 3621 N 362.134 1.5431 0.320358 0
M  V30 3622 C 363.38 1.72924 1.05949 0
M  V30 3623 C 363.713 0.503185 1.87568 0
M  V30 3624 O 362.988 -0.499839 1.87968 0
M  V30 3625 C 363.271 3.00676 1.98156 0
M  V30 3626 C 363.124 4.3354 1.19845 0
M  V30 3627 C 364.443 3.24198 2.9763 0
M  V30 3628 H 361.562 0.629195 0.383774 0
M  V30 3629 H 364.204 1.87008 0.335854 0
M  V30 3630 H 362.354 2.888 2.59859 0
M  V30 3631 H 364.026 4.57305 0.605773 0
M  V30 3632 H 362.269 4.309 0.500784 0
M  V30 3633 H 362.94 5.19156 1.87567 0
M  V30 3634 H 365.416 3.35557 2.4605 0
M  V30 3635 H 364.292 4.14938 3.59329 0
M  V30 3636 H 364.553 2.41577 3.7026 0
M  V30 3637 N 363.613 -0.582584 1.46437 0
M  V30 3638 C 364.859 -1.34278 1.51978 0
M  V30 3639 C 365.192 -1.93446 0.170973 0
M  V30 3640 O 364.467 -1.76481 -0.817608 0
M  V30 3641 C 364.75 -2.47203 2.61845 0
M  V30 3642 C 364.603 -1.93069 4.06257 0
M  V30 3643 C 365.922 -3.49247 2.67795 0
M  V30 3644 H 363.041 -0.486876 0.553282 0
M  V30 3645 H 365.683 -0.654437 1.78374 0
M  V30 3646 H 363.833 -3.0592 2.39469 0
M  V30 3647 H 365.505 -1.38808 4.3992 0
M  V30 3648 H 363.748 -1.23898 4.1573 0
M  V30 3649 H 364.419 -2.74586 4.7886 0
M  V30 3650 H 366.895 -3.00411 2.8791 0
M  V30 3651 H 365.771 -4.25719 3.46489 0
M  V30 3652 H 366.032 -4.06482 1.73852 0
M  V30 3653 N 365.091 -1.34144 -0.827227 0
M  V30 3654 C 366.502 -1.23557 -1.39966 0
M  V30 3655 C 366.853 0.140731 -1.95695 0
M  V30 3656 O 365.978 1.04087 -1.89723 0
M  V30 3657 C 366.573 -2.23708 -2.54441 0
M  V30 3658 C 365.132 -2.16924 -3.07605 0
M  V30 3659 C 364.279 -2.10549 -1.80456 0
M  V30 3660 H 367.23 -1.45573 -0.631991 0
M  V30 3661 H 367.251 -1.85157 -3.32411 0
M  V30 3662 H 366.763 -3.23866 -2.13851 0
M  V30 3663 H 364.864 -1.20107 -3.52711 0
M  V30 3664 H 364.977 -3.07988 -3.66988 0
M  V30 3665 H 363.341 -1.56203 -2.01178 0
M  V30 3666 H 364.124 -3.12535 -1.42046 0
M  V30 3667 N 366.569 1.04691 -1.17803 0
M  V30 3668 C 367.817 1.7743 -0.967617 0
M  V30 3669 C 368.138 1.88359 0.504574 0
M  V30 3670 O 367.408 1.40402 1.36617 0
M  V30 3671 H 365.988 0.657242 -0.355024 0
M  V30 3672 H 368.65 1.2638 -1.48371 0
M  V30 3673 H 367.746 2.78924 -1.40027 0
M  V30 3674 N 368.047 0.979072 1.23499 0
M  V30 3675 C 369.296 0.642751 1.91185 0
M  V30 3676 C 369.609 -0.827253 1.77245 0
M  V30 3677 O 370.815 -1.27458 2.39722 0
M  V30 3678 C 369.271 1.09901 3.42709 0
M  V30 3679 C 368.879 2.59327 3.65313 0
M  V30 3680 C 370.623 0.836371 4.16179 0
M  V30 3681 C 368.53 2.98627 5.10467 0
M  V30 3682 H 367.46 0.236698 0.715884 0
M  V30 3683 H 370.111 1.1868 1.39955 0
M  V30 3684 H 368.493 0.48319 3.93041 0
M  V30 3685 H 369.667 3.26136 3.25533 0
M  V30 3686 H 367.982 2.83323 3.05151 0
M  V30 3687 H 370.579 1.10586 5.23139 0
M  V30 3688 H 370.922 -0.227509 4.15678 0
M  V30 3689 H 371.455 1.41371 3.71832 0
M  V30 3690 H 368.194 4.04133 5.16098 0
M  V30 3691 H 367.714 2.3651 5.51201 0
M  V30 3692 H 369.393 2.89159 5.78788 0
M  V30 3693 N 369.525 -1.3858 0.750561 0
M  V30 3694 C 370.802 -1.94231 0.231009 0
M  V30 3695 C 371.182 -1.68611 -1.27018 0
M  V30 3696 O 370.53 -1.02296 -2.04323 0
M  V30 3697 C 370.74 -3.44123 0.581428 0
M  V30 3698 C 372.088 -4.2116 0.539389 0
M  V30 3699 O 373.112 -3.52391 0.519541 0
M  V30 3700 O 371.971 -5.43749 0.54765 0
M  V30 3701 H 369.065 -0.825639 0.0474263 0
M  V30 3702 H 371.611 -1.4799 0.830478 0
M  V30 3703 H 370.383 -3.56267 1.61833 0
M  V30 3704 H 370.006 -3.97573 -0.0462047 0
M  V30 3705 N 371.003 -0.499398 -1.49478 0
M  V30 3706 C 371.933 0.269244 -2.31943 0
M  V30 3707 C 372.914 0.964054 -1.40143 0
M  V30 3708 O 374.099 0.955767 -1.69052 0
M  V30 3709 C 371.229 1.33504 -3.20615 0
M  V30 3710 C 370.183 0.760202 -4.21195 0
M  V30 3711 C 369.509 1.9264 -4.98792 0
M  V30 3712 C 370.809 -0.247661 -5.21712 0
M  V30 3713 H 372.503 -0.419082 -2.96452 0
M  V30 3714 H 370.049 -0.202988 -1.42562 0
M  V30 3715 H 372.002 1.88048 -3.77115 0
M  V30 3716 H 370.726 2.05253 -2.54045 0
M  V30 3717 H 369.385 0.23653 -3.65836 0
M  V30 3718 H 369.033 2.63154 -4.28671 0
M  V30 3719 H 368.733 1.54785 -5.66847 0
M  V30 3720 H 370.257 2.4762 -5.58137 0
M  V30 3721 H 371.671 0.209579 -5.72917 0
M  V30 3722 H 370.068 -0.541962 -5.97648 0
M  V30 3723 H 371.138 -1.16409 -4.7072 0
M  V30 3724 N 372.481 1.55866 -0.233164 0
M  V30 3725 C 373.892 1.847 0.272554 0
M  V30 3726 C 374.243 1.15477 1.58617 0
M  V30 3727 O 373.368 0.42841 2.12117 0
M  V30 3728 C 373.963 3.35071 0.501299 0
M  V30 3729 C 372.522 3.6418 0.951304 0
M  V30 3730 C 371.669 2.77292 0.0208209 0
M  V30 3731 H 374.62 1.52005 -0.456074 0
M  V30 3732 H 374.641 3.55906 1.34577 0
M  V30 3733 H 374.153 3.85424 -0.454936 0
M  V30 3734 H 372.254 3.19293 1.92049 0
M  V30 3735 H 372.367 4.72071 0.817675 0
M  V30 3736 H 370.731 2.49131 0.529723 0
M  V30 3737 H 371.514 3.30448 -0.93054 0
M  V30 3738 N 373.959 -0.0401083 1.57549 0
M  V30 3739 C 374.906 -1.04413 2.05831 0
M  V30 3740 C 375.876 -1.36585 0.945184 0
M  V30 3741 O 377.061 -1.47112 1.21502 0
M  V30 3742 C 374.201 -2.34336 2.53339 0
M  V30 3743 C 373.314 -2.08419 3.78398 0
M  V30 3744 C 372.449 -3.32133 4.14561 0
M  V30 3745 C 371.488 -3.01721 5.3257 0
M  V30 3746 N 370.625 -4.17855 5.64218 0
M  V30 3747 H 375.465 -0.625442 2.91363 0
M  V30 3748 H 373.002 -0.297218 1.44066 0
M  V30 3749 H 374.96 -3.10234 2.78946 0
M  V30 3750 H 373.59 -2.73948 1.7074 0
M  V30 3751 H 372.642 -1.23069 3.59942 0
M  V30 3752 H 373.954 -1.81978 4.64419 0
M  V30 3753 H 373.108 -4.16406 4.41238 0
M  V30 3754 H 371.847 -3.61678 3.2717 0
M  V30 3755 H 370.852 -2.15849 5.05657 0
M  V30 3756 H 372.077 -2.73466 6.21605 0
M  V30 3757 H 370.023 -4.47372 4.79786 0
M  V30 3758 H 369.94 -3.94798 6.44725 0
M  V30 3759 H 371.208 -5.03033 5.95465 0
M  V30 3760 N 375.437 -1.54477 -0.31217 0
M  V30 3761 C 376.347 -1.87695 -1.4074 0
M  V30 3762 C 377.363 -0.769975 -1.56036 0
M  V30 3763 O 378.539 -1.06537 -1.70915 0
M  V30 3764 C 375.604 -2.10755 -2.75287 0
M  V30 3765 C 374.665 -3.34514 -2.69071 0
M  V30 3766 C 373.898 -3.56465 -3.97201 0
M  V30 3767 O 374.121 -2.81637 -4.96021 0
M  V30 3768 O 373.055 -4.49964 -3.9977 0
M  V30 3769 H 376.881 -2.80849 -1.15574 0
M  V30 3770 H 374.466 -1.40526 -0.507228 0
M  V30 3771 H 376.348 -2.27188 -3.54913 0
M  V30 3772 H 375.023 -1.20788 -3.0032 0
M  V30 3773 H 373.93 -3.23456 -1.87955 0
M  V30 3774 H 375.263 -4.24575 -2.48992 0
M  V30 3775 N 376.915 0.57481 -1.46744 0
M  V30 3776 C 378.326 1.15695 -1.46532 0
M  V30 3777 C 378.677 1.95068 -0.210425 0
M  V30 3778 O 377.802 2.05241 0.685944 0
M  V30 3779 C 378.397 2.1048 -2.65487 0
M  V30 3780 C 376.956 2.64002 -2.68291 0
M  V30 3781 C 376.103 1.40026 -2.39349 0
M  V30 3782 H 379.054 0.362325 -1.54509 0
M  V30 3783 H 379.075 2.94074 -2.41455 0
M  V30 3784 H 378.587 1.52683 -3.56805 0
M  V30 3785 H 376.688 3.25646 -1.81067 0
M  V30 3786 H 376.801 3.06197 -3.68483 0
M  V30 3787 H 375.165 1.70106 -1.89568 0
M  V30 3788 H 375.948 0.840485 -3.32852 0
M  V30 3789 N 378.394 1.34581 0.820102 0
M  V30 3790 C 379.805 1.24298 1.39309 0
M  V30 3791 C 380.156 -0.130351 1.95767 0
M  V30 3792 O 379.281 -1.0308 1.90272 0
M  V30 3793 C 379.876 2.25054 2.53251 0
M  V30 3794 C 378.435 2.18552 3.0645 0
M  V30 3795 C 377.582 2.11503 1.79337 0
M  V30 3796 H 380.533 1.45906 0.624262 0
M  V30 3797 H 380.554 1.86917 3.31425 0
M  V30 3798 H 380.066 3.24996 2.1213 0
M  V30 3799 H 378.167 1.21976 3.52069 0
M  V30 3800 H 378.28 3.0993 3.65349 0
M  V30 3801 H 376.644 1.57268 2.00347 0
M  V30 3802 H 377.427 3.13284 1.40386 0
M  V30 3803 N 379.872 -1.04064 1.18357 0
M  V30 3804 C 381.1 -1.80916 1.00384 0
M  V30 3805 C 381.515 -1.83414 -0.447738 0
M  V30 3806 O 380.872 -1.26962 -1.31099 0
M  V30 3807 C 380.923 -3.26516 1.55144 0
M  V30 3808 O 380.644 -3.2424 2.94618 0
M  V30 3809 C 382.145 -4.20013 1.41789 0
M  V30 3810 H 379.365 -0.569728 0.354474 0
M  V30 3811 H 381.909 -1.31151 1.56906 0
M  V30 3812 H 380.064 -3.73512 1.02798 0
M  V30 3813 H 380.478 -4.15452 3.20156 0
M  V30 3814 H 381.952 -5.20111 1.84901 0
M  V30 3815 H 382.429 -4.37667 0.36661 0
M  V30 3816 H 383.035 -3.78881 1.93207 0
M  V30 3817 N 381.35 -0.985608 -1.22978 0
M  V30 3818 C 382.761 -0.693593 -1.73338 0
M  V30 3819 C 383.112 0.789935 -1.79595 0
M  V30 3820 O 382.237 1.61771 -1.43733 0
M  V30 3821 C 382.832 -1.25235 -3.14804 0
M  V30 3822 C 381.391 -1.00987 -3.626 0
M  V30 3823 C 380.538 -1.37695 -2.40698 0
M  V30 3824 H 383.489 -1.15884 -1.08428 0
M  V30 3825 H 383.51 -0.627329 -3.75293 0
M  V30 3826 H 383.022 -2.33209 -3.10218 0
M  V30 3827 H 381.123 0.0535565 -3.72562 0
M  V30 3828 H 381.236 -1.66812 -4.49122 0
M  V30 3829 H 379.6 -0.795459 -2.4196 0
M  V30 3830 H 380.383 -2.46657 -2.38779 0
M  V30 3831 N 382.828 1.3818 -0.7579 0
M  V30 3832 C 383.775 2.30416 -0.133057 0
M  V30 3833 C 384.745 1.50398 0.704957 0
M  V30 3834 O 385.93 1.79014 0.660192 0
M  V30 3835 C 383.07 3.36834 0.750813 0
M  V30 3836 C 382.183 4.31879 -0.102297 0
M  V30 3837 C 381.318 5.25368 0.784979 0
M  V30 3838 C 380.357 6.12058 -0.0715046 0
M  V30 3839 N 379.494 6.97832 0.772972 0
M  V30 3840 H 384.334 2.83274 -0.925186 0
M  V30 3841 H 381.871 1.39461 -0.467866 0
M  V30 3842 H 383.829 3.97145 1.27794 0
M  V30 3843 H 382.459 2.85374 1.50868 0
M  V30 3844 H 381.511 3.72991 -0.747095 0
M  V30 3845 H 382.823 4.92921 -0.763552 0
M  V30 3846 H 381.977 5.90818 1.37911 0
M  V30 3847 H 380.716 4.64703 1.47996 0
M  V30 3848 H 379.721 5.456 -0.678272 0
M  V30 3849 H 380.946 6.74793 -0.763606 0
M  V30 3850 H 378.892 6.3971 1.45282 0
M  V30 3851 H 378.809 7.55812 0.168709 0
M  V30 3852 H 380.077 7.67687 1.35194 0
M  V30 3853 N 384.306 0.507319 1.49211 0
M  V30 3854 C 385.216 -0.272136 2.33016 0
M  V30 3855 C 386.232 -0.961206 1.45041 0
M  V30 3856 O 387.408 -0.941191 1.78055 0
M  V30 3857 C 384.473 -1.31895 3.20631 0
M  V30 3858 C 383.534 -0.642648 4.24463 0
M  V30 3859 C 382.767 -1.63959 5.07891 0
M  V30 3860 O 382.99 -2.87007 4.92933 0
M  V30 3861 O 381.924 -1.19143 5.8999 0
M  V30 3862 H 385.75 0.413982 3.00865 0
M  V30 3863 H 383.335 0.268556 1.46966 0
M  V30 3864 H 385.217 -1.92446 3.7489 0
M  V30 3865 H 383.892 -1.98788 2.5547 0
M  V30 3866 H 382.799 0.00276252 3.741 0
M  V30 3867 H 384.132 -0.0160534 4.92197 0
M  V30 3868 N 385.784 -1.5574 0.241426 0
M  V30 3869 C 386.716 -2.18469 -0.693091 0
M  V30 3870 C 387.729 -1.15942 -1.14286 0
M  V30 3871 O 388.918 -1.42832 -1.07058 0
M  V30 3872 C 386.018 -2.7696 -1.95311 0
M  V30 3873 C 385.191 -4.04853 -1.65568 0
M  V30 3874 C 384.25 -4.47715 -2.76474 0
M  V30 3875 O 383.276 -5.14205 -2.44094 0
M  V30 3876 N 384.478 -4.15044 -4.05855 0
M  V30 3877 H 387.243 -2.99292 -0.156388 0
M  V30 3878 H 384.804 -1.61784 0.0611752 0
M  V30 3879 H 386.796 -3.02594 -2.68736 0
M  V30 3880 H 385.366 -2.00326 -2.39975 0
M  V30 3881 H 384.586 -3.86865 -0.756886 0
M  V30 3882 H 385.874 -4.88246 -1.43153 0
M  V30 3883 H 385.272 -3.61654 -4.34998 0
M  V30 3884 H 383.829 -4.45526 -4.75762 0
M  V30 3885 N 387.262 0.0317525 -1.57568 0
M  V30 3886 C 388.209 1.0332 -2.06382 0
M  V30 3887 C 389.179 1.36082 -0.952414 0
M  V30 3888 O 390.364 1.46466 -1.2228 0
M  V30 3889 C 387.504 2.32989 -2.54578 0
M  V30 3890 C 386.617 2.0641 -3.79498 0
M  V30 3891 C 385.752 3.2993 -4.16317 0
M  V30 3892 C 384.791 2.98893 -5.34162 0
M  V30 3893 N 383.928 4.14857 -5.66426 0
M  V30 3894 H 388.768 0.609982 -2.9169 0
M  V30 3895 H 386.305 0.289573 -1.44222 0
M  V30 3896 H 388.263 3.0875 -2.80587 0
M  V30 3897 H 386.893 2.73039 -1.7219 0
M  V30 3898 H 385.945 1.21158 -3.6059 0
M  V30 3899 H 387.257 1.79513 -4.65378 0
M  V30 3900 H 386.411 4.1406 -4.4344 0
M  V30 3901 H 385.15 3.59938 -3.29083 0
M  V30 3902 H 384.155 2.13164 -5.06795 0
M  V30 3903 H 385.38 2.70165 -6.23047 0
M  V30 3904 H 383.326 4.44821 -4.82151 0
M  V30 3905 H 383.243 3.91374 -6.4681 0
M  V30 3906 H 384.511 4.99868 -5.98124 0
M  V30 3907 N 388.74 1.54641 0.303973 0
M  V30 3908 C 390.017 1.64455 1.05896 0
M  V30 3909 C 390.397 0.490923 2.05312 0
M  V30 3910 O 389.745 -0.512685 2.22674 0
M  V30 3911 C 389.955 3.02331 1.74347 0
M  V30 3912 C 391.303 3.59045 2.26653 0
M  V30 3913 O 392.327 3.04764 1.84384 0
M  V30 3914 O 391.186 4.54081 3.04093 0
M  V30 3915 H 388.28 0.666729 0.489287 0
M  V30 3916 H 390.826 1.66986 0.302298 0
M  V30 3917 H 389.598 3.77734 1.02142 0
M  V30 3918 H 389.221 3.03565 2.56777 0
M  V30 3919 N 390.218 -0.567019 1.47046 0
M  V30 3920 C 391.464 -1.32434 1.54379 0
M  V30 3921 C 391.819 -1.91365 0.199276 0
M  V30 3922 O 391.112 -1.74378 -0.793915 0
M  V30 3923 C 391.306 -2.4623 2.59047 0
M  V30 3924 C 391.135 -1.98448 4.03545 0
M  V30 3925 C 389.905 -1.82741 4.71098 0
M  V30 3926 C 392.103 -1.53477 4.90866 0
M  V30 3927 N 390.085 -1.29196 6.00151 0
M  V30 3928 C 391.456 -1.1163 6.09868 0
M  V30 3929 C 393.511 -1.41438 4.77388 0
M  V30 3930 C 392.214 -0.589425 7.16881 0
M  V30 3931 C 394.24 -0.901528 5.84488 0
M  V30 3932 C 393.602 -0.492932 7.02673 0
M  V30 3933 H 389.701 -0.477005 0.61967 0
M  V30 3934 H 392.285 -0.643856 1.83746 0
M  V30 3935 H 390.456 -3.11821 2.31564 0
M  V30 3936 H 392.188 -3.13213 2.56281 0
M  V30 3937 H 388.943 -2.05162 4.26855 0
M  V30 3938 H 389.367 -1.0454 6.6888 0
M  V30 3939 H 394.009 -1.71643 3.86392 0
M  V30 3940 H 391.727 -0.274994 8.07632 0
M  V30 3941 H 395.313 -0.812071 5.76105 0
M  V30 3942 H 394.193 -0.102227 7.84133 0
M  V30 3943 N 391.696 -1.35014 -0.812953 0
M  V30 3944 C 392.943 -1.27931 -1.56971 0
M  V30 3945 C 393.271 0.148034 -1.93936 0
M  V30 3946 O 392.526 1.11175 -1.61054 0
M  V30 3947 C 392.825 -2.12524 -2.87347 0
M  V30 3948 C 392.491 -3.61401 -2.6963 0
M  V30 3949 C 391.153 -4.01983 -2.64506 0
M  V30 3950 C 393.505 -4.55894 -2.52607 0
M  V30 3951 C 390.833 -5.35235 -2.40293 0
M  V30 3952 C 393.185 -5.89336 -2.29925 0
M  V30 3953 C 391.849 -6.2907 -2.23219 0
M  V30 3954 H 391.119 -0.468131 -0.574399 0
M  V30 3955 H 393.766 -1.66851 -0.939836 0
M  V30 3956 H 392.071 -1.66463 -3.54679 0
M  V30 3957 H 393.768 -2.04383 -3.45005 0
M  V30 3958 H 390.358 -3.29193 -2.74463 0
M  V30 3959 H 394.542 -4.25431 -2.55583 0
M  V30 3960 H 389.798 -5.65028 -2.33566 0
M  V30 3961 H 393.972 -6.62139 -2.15743 0
M  V30 3962 H 391.599 -7.32256 -2.04219 0
M  V30 3963 N 393.175 1.03435 -1.18907 0
M  V30 3964 C 394.424 1.76143 -0.982669 0
M  V30 3965 C 394.737 1.89416 0.487953 0
M  V30 3966 O 395.943 2.59041 0.813036 0
M  V30 3967 C 394.399 3.16722 -1.70924 0
M  V30 3968 C 394.007 3.11522 -3.21959 0
M  V30 3969 C 395.751 3.93764 -1.58588 0
M  V30 3970 C 393.658 4.46999 -3.87228 0
M  V30 3971 H 392.588 0.660292 -0.364047 0
M  V30 3972 H 395.239 1.158 -1.42347 0
M  V30 3973 H 393.621 3.775 -1.19623 0
M  V30 3974 H 394.795 2.60158 -3.80335 0
M  V30 3975 H 393.11 2.47978 -3.34508 0
M  V30 3976 H 395.707 4.93963 -2.04707 0
M  V30 3977 H 396.05 4.12794 -0.539142 0
M  V30 3978 H 396.583 3.39576 -2.07203 0
M  V30 3979 H 393.322 4.33174 -4.91976 0
M  V30 3980 H 392.842 4.98441 -3.33642 0
M  V30 3981 H 394.521 5.15898 -3.90459 0
M  V30 3982 N 394.653 0.992116 1.22453 0
M  V30 3983 C 395.563 0.55065 2.28046 0
M  V30 3984 C 396.579 -0.400189 1.69335 0
M  V30 3985 O 397.755 -0.267215 1.99619 0
M  V30 3986 C 394.82 -0.128496 3.46462 0
M  V30 3987 C 393.881 0.865208 4.20491 0
M  V30 3988 C 393.114 0.218377 5.33253 0
M  V30 3989 O 393.337 -0.987894 5.6178 0
M  V30 3990 O 392.271 0.922845 5.94783 0
M  V30 3991 H 396.097 1.4291 2.67975 0
M  V30 3992 H 393.682 0.760326 1.28606 0
M  V30 3993 H 395.564 -0.508947 4.18315 0
M  V30 3994 H 394.239 -0.981526 3.0846 0
M  V30 3995 H 393.146 1.29658 3.50913 0
M  V30 3996 H 394.479 1.68741 4.62371 0
M  V30 3997 N 396.131 -1.37776 0.765217 0
M  V30 3998 C 397.064 -2.28008 0.0935025 0
M  V30 3999 C 398.042 -1.45985 -0.716047 0
M  V30 4000 O 399.226 -1.75331 -0.692203 0
M  V30 4001 C 396.353 -3.27228 -0.874052 0
M  V30 4002 C 395.399 -4.26239 -0.149307 0
M  V30 4003 S 396.232 -5.22827 1.15809 0
M  V30 4004 C 397.388 -6.256 0.193906 0
M  V30 4005 H 397.621 -2.84631 0.858637 0
M  V30 4006 H 395.154 -1.43952 0.558313 0
M  V30 4007 H 397.112 -3.84902 -1.42691 0
M  V30 4008 H 395.773 -2.69565 -1.61225 0
M  V30 4009 H 394.966 -4.96213 -0.88254 0
M  V30 4010 H 394.568 -3.7252 0.332366 0
M  V30 4011 H 396.86 -6.74508 -0.636011 0
M  V30 4012 H 397.803 -7.02838 0.861638 0
M  V30 4013 H 398.211 -5.64173 -0.191975 0
M  V30 4014 N 397.609 -0.515225 -1.4894 0
M  V30 4015 C 399.02 -0.0710067 -1.86565 0
M  V30 4016 C 399.371 1.34733 -1.42623 0
M  V30 4017 O 398.496 2.00653 -0.810379 0
M  V30 4018 C 399.091 -0.122083 -3.3858 0
M  V30 4019 C 397.65 0.266863 -3.75453 0
M  V30 4020 C 396.797 -0.488376 -2.72966 0
M  V30 4021 H 399.748 -0.727266 -1.41055 0
M  V30 4022 H 399.769 0.669818 -3.74558 0
M  V30 4023 H 399.281 -1.15448 -3.70531 0
M  V30 4024 H 397.382 1.30196 -3.49113 0
M  V30 4025 H 397.495 -0.0624811 -4.79059 0
M  V30 4026 H 395.859 0.0635622 -2.54621 0
M  V30 4027 H 396.642 -1.52113 -3.07761 0
M  V30 4028 N 399.087 1.5561 -0.249682 0
M  V30 4029 C 400.315 2.03411 0.378352 0
M  V30 4030 C 400.73 1.12886 1.51335 0
M  V30 4031 O 400.087 0.143833 1.81932 0
M  V30 4032 C 400.138 3.50537 0.88351 0
M  V30 4033 O 399.859 4.37614 -0.20626 0
M  V30 4034 C 401.36 4.14113 1.58195 0
M  V30 4035 H 398.58 0.664994 0.08958 0
M  V30 4036 H 401.124 2.01044 -0.374357 0
M  V30 4037 H 399.279 3.5343 1.58639 0
M  V30 4038 H 399.693 5.24199 0.177782 0
M  V30 4039 H 401.167 5.18741 1.8871 0
M  V30 4040 H 401.644 3.60767 2.50487 0
M  V30 4041 H 402.25 4.15151 0.923573 0
M  V30 4042 N 400.565 -0.0233959 1.57583 0
M  V30 4043 C 401.475 -1.03907 2.10334 0
M  V30 4044 C 402.491 -1.39257 1.04323 0
M  V30 4045 O 403.667 -1.48462 1.36091 0
M  V30 4046 C 400.732 -2.31938 2.57693 0
M  V30 4047 C 399.793 -2.03117 3.78209 0
M  V30 4048 C 399.026 -3.25043 4.233 0
M  V30 4049 O 399.249 -4.35916 3.67876 0
M  V30 4050 O 398.183 -3.10411 5.15683 0
M  V30 4051 H 402.009 -0.620748 2.97288 0
M  V30 4052 H 399.594 -0.240743 1.47448 0
M  V30 4053 H 401.476 -3.07196 2.88458 0
M  V30 4054 H 400.151 -2.73055 1.73847 0
M  V30 4055 H 399.058 -1.25408 3.52454 0
M  V30 4056 H 400.391 -1.66852 4.63056 0
M  V30 4057 N 402.043 -1.548 -0.295768 0
M  V30 4058 C 403.006 -1.85363 -1.34808 0
M  V30 4059 C 404.006 -0.726817 -1.43436 0
M  V30 4060 O 405.196 -0.995088 -1.42981 0
M  V30 4061 C 402.328 -2.03859 -2.73229 0
M  V30 4062 H 403.521 -2.7941 -1.08949 0
M  V30 4063 H 401.074 -1.46942 -0.532702 0
M  V30 4064 H 401.809 -1.12117 -3.04303 0
M  V30 4065 H 401.594 -2.8588 -2.68356 0
M  V30 4066 H 403.084 -2.28857 -3.49305 0
M  V30 4067 N 403.521 0.559213 -1.47345 0
M  V30 4068 C 404.468 1.66645 -1.59682 0
M  V30 4069 C 405.438 1.60168 -0.43994 0
M  V30 4070 O 406.623 1.79031 -0.659736 0
M  V30 4071 C 403.763 3.04969 -1.61518 0
M  V30 4072 C 402.876 3.21897 -2.88108 0
M  V30 4073 C 402.011 4.50608 -2.81294 0
M  V30 4074 C 401.05 4.60961 -4.02717 0
M  V30 4075 N 400.187 5.81024 -3.94151 0
M  V30 4076 H 405.027 1.55439 -2.54249 0
M  V30 4077 H 402.564 0.757219 -1.26113 0
M  V30 4078 H 404.522 3.85064 -1.60566 0
M  V30 4079 H 403.152 3.15015 -0.704645 0
M  V30 4080 H 402.204 2.35248 -2.98936 0
M  V30 4081 H 403.516 3.25412 -3.78032 0
M  V30 4082 H 402.67 5.3896 -2.7858 0
M  V30 4083 H 401.409 4.49568 -1.89049 0
M  V30 4084 H 400.414 3.71021 -4.05738 0
M  V30 4085 H 401.639 4.63761 -4.96087 0
M  V30 4086 H 399.585 5.80938 -3.04708 0
M  V30 4087 H 399.502 5.85909 -4.77752 0
M  V30 4088 H 400.77 6.71744 -3.9545 0
M  V30 4089 N 404.999 1.35443 0.805782 0
M  V30 4090 C 405.946 1.28431 1.91766 0
M  V30 4091 C 406.916 0.156102 1.65365 0
M  V30 4092 O 408.101 0.339936 1.87747 0
M  V30 4093 C 405.241 1.06301 3.2832 0
M  V30 4094 C 404.354 2.2805 3.66902 0
M  V30 4095 C 403.489 1.99064 4.92491 0
M  V30 4096 C 402.528 3.16863 5.23703 0
M  V30 4097 N 401.665 2.87647 6.40471 0
M  V30 4098 H 406.505 2.23511 1.97096 0
M  V30 4099 H 404.042 1.11105 0.964054 0
M  V30 4100 H 406 0.915012 4.07042 0
M  V30 4101 H 404.63 0.148822 3.22457 0
M  V30 4102 H 403.682 2.53711 2.83434 0
M  V30 4103 H 404.994 3.1601 3.85927 0
M  V30 4104 H 404.148 1.81099 5.7904 0
M  V30 4105 H 402.887 1.0839 4.75503 0
M  V30 4106 H 401.892 3.35404 4.35642 0
M  V30 4107 H 403.117 4.08339 5.4262 0
M  V30 4108 H 401.063 1.99568 6.24907 0
M  V30 4109 H 400.98 3.69141 6.59751 0
M  V30 4110 H 402.248 2.73226 7.30047 0
M  V30 4111 N 406.477 -1.02803 1.19454 0
M  V30 4112 C 407.754 -1.73299 0.907013 0
M  V30 4113 C 408.134 -2.02772 -0.587086 0
M  V30 4114 O 407.482 -1.68304 -1.54551 0
M  V30 4115 C 407.692 -3.00912 1.76785 0
M  V30 4116 C 409.04 -3.74403 2.00268 0
M  V30 4117 O 410.064 -3.10841 1.73943 0
M  V30 4118 O 408.923 -4.88675 2.4466 0
M  V30 4119 H 406.017 -0.754727 0.338106 0
M  V30 4120 H 408.563 -1.08754 1.30271 0
M  V30 4121 H 407.335 -2.75366 2.7801 0
M  V30 4122 H 406.958 -3.73197 1.37149 0
M  V30 4123 N 407.956 -0.998596 -1.21925 0
M  V30 4124 C 408.866 -0.562736 -2.27751 0
M  V30 4125 C 409.882 0.391203 -1.69545 0
M  V30 4126 O 411.058 0.256625 -1.99758 0
M  V30 4127 C 408.123 0.11012 -3.46525 0
M  V30 4128 C 407.184 -0.887495 -4.20026 0
M  V30 4129 C 406.417 -0.246654 -5.3313 0
M  V30 4130 O 406.64 0.958088 -5.62296 0
M  V30 4131 O 405.574 -0.954374 -5.94286 0
M  V30 4132 H 409.4 -1.44329 -2.67213 0
M  V30 4133 H 406.985 -0.767135 -1.28201 0
M  V30 4134 H 408.867 0.486756 -4.18579 0
M  V30 4135 H 407.542 0.965154 -3.08976 0
M  V30 4136 H 406.449 -1.31517 -3.5022 0
M  V30 4137 H 407.782 -1.71191 -4.6147 0
M  V30 4138 N 409.434 1.37368 -0.772513 0
M  V30 4139 C 410.68 2.00423 -0.3467 0
M  V30 4140 C 411.035 1.60224 1.06518 0
M  V30 4141 O 410.328 0.838712 1.72268 0
M  V30 4142 C 410.522 3.54817 -0.428876 0
M  V30 4143 C 410.351 4.10011 -1.84719 0
M  V30 4144 C 409.121 4.40927 -2.46803 0
M  V30 4145 C 411.319 4.30955 -2.80681 0
M  V30 4146 N 409.301 4.8184 -3.80399 0
M  V30 4147 C 410.672 4.74486 -3.99078 0
M  V30 4148 C 412.727 4.1309 -2.77958 0
M  V30 4149 C 411.43 5.02023 -5.15136 0
M  V30 4150 C 413.456 4.41764 -3.9319 0
M  V30 4151 C 412.818 4.85535 -5.10328 0
M  V30 4152 H 408.917 0.762413 -0.173927 0
M  V30 4153 H 411.501 1.66666 -1.00651 0
M  V30 4154 H 409.672 3.87881 0.200757 0
M  V30 4155 H 411.404 4.04696 0.0190668 0
M  V30 4156 H 408.159 4.30033 -1.98415 0
M  V30 4157 H 408.583 5.06604 -4.49089 0
M  V30 4158 H 413.225 3.7842 -1.88568 0
M  V30 4159 H 410.943 5.35582 -6.05126 0
M  V30 4160 H 414.529 4.29528 -3.92425 0
M  V30 4161 H 413.409 5.07296 -5.98013 0
M  V30 4162 N 410.912 0.523116 1.48665 0
M  V30 4163 C 412.16 -0.0134497 2.02096 0
M  V30 4164 C 412.481 -1.35418 1.40311 0
M  V30 4165 O 411.751 -1.87543 0.566074 0
M  V30 4166 H 410.331 -0.00795915 0.746958 0
M  V30 4167 H 412.993 0.685388 1.82451 0
M  V30 4168 H 412.089 -0.126849 3.11842 0
M  V30 4169 N 412.39 -1.55475 0.257931 0
M  V30 4170 C 413.32 -2.24815 -0.630912 0
M  V30 4171 C 414.301 -1.23224 -1.17259 0
M  V30 4172 O 415.486 -1.51904 -1.20991 0
M  V30 4173 C 412.616 -2.95609 -1.82298 0
M  V30 4174 C 411.57 -4.03982 -1.41359 0
M  V30 4175 C 410.896 -4.6226 -2.68738 0
M  V30 4176 C 412.196 -5.19109 -0.57648 0
M  V30 4177 H 413.89 -2.99354 -0.0526878 0
M  V30 4178 H 411.436 -1.4398 -0.023901 0
M  V30 4179 H 413.389 -3.42822 -2.45054 0
M  V30 4180 H 412.113 -2.18577 -2.42676 0
M  V30 4181 H 410.772 -3.57555 -0.809324 0
M  V30 4182 H 410.42 -3.81915 -3.27338 0
M  V30 4183 H 410.12 -5.35424 -2.42065 0
M  V30 4184 H 411.644 -5.12212 -3.32372 0
M  V30 4185 H 413.058 -5.62479 -1.10861 0
M  V30 4186 H 411.455 -5.98729 -0.405351 0
M  V30 4187 H 412.525 -4.83174 0.408776 0
M  V30 4188 N 413.868 0.0150385 -1.57593 0
M  V30 4189 C 415.114 0.704043 -1.90187 0
M  V30 4190 C 415.447 1.74249 -0.857366 0
M  V30 4191 O 414.722 1.94092 0.125843 0
M  V30 4192 C 415.005 1.36087 -3.33395 0
M  V30 4193 C 414.858 0.334981 -4.48551 0
M  V30 4194 C 416.177 2.29112 -3.7576 0
M  V30 4195 H 413.296 0.254475 -0.691673 0
M  V30 4196 H 415.938 -0.0331678 -1.89971 0
M  V30 4197 H 414.088 1.98922 -3.3371 0
M  V30 4198 H 415.76 -0.292534 -4.60372 0
M  V30 4199 H 414.003 -0.344325 -4.32431 0
M  V30 4200 H 414.674 0.833316 -5.45674 0
M  V30 4201 H 417.15 1.76308 -3.76902 0
M  V30 4202 H 416.026 2.72043 -4.76743 0
M  V30 4203 H 416.287 3.16385 -3.08793 0
M  V30 4204 N 415.346 1.54954 0.287554 0
M  V30 4205 C 416.309 1.86076 1.33823 0
M  V30 4206 C 417.309 0.734414 1.43049 0
M  V30 4207 O 418.499 1.00266 1.42452 0
M  V30 4208 C 415.631 2.05305 2.72144 0
M  V30 4209 H 416.824 2.79984 1.07465 0
M  V30 4210 H 414.377 1.47223 0.524902 0
M  V30 4211 H 415.112 1.1373 3.03704 0
M  V30 4212 H 414.897 2.873 2.66836 0
M  V30 4213 H 416.387 2.30706 3.48087 0
M  V30 4214 N 416.824 -0.551391 1.4764 0
M  V30 4215 C 418.235 -1.13349 1.48354 0
M  V30 4216 C 418.586 -1.94709 0.241432 0
M  V30 4217 O 417.711 -2.06306 -0.653205 0
M  V30 4218 C 418.306 -2.0623 2.68802 0
M  V30 4219 C 416.865 -2.597 2.72457 0
M  V30 4220 C 416.012 -1.36201 2.41546 0
M  V30 4221 H 418.963 -0.337698 1.55065 0
M  V30 4222 H 418.984 -2.90196 2.46103 0
M  V30 4223 H 418.496 -1.46987 3.59188 0
M  V30 4224 H 416.597 -3.22724 1.86225 0
M  V30 4225 H 416.71 -3.00296 3.73308 0
M  V30 4226 H 415.074 -1.67068 1.9225 0
M  V30 4227 H 415.857 -0.787425 3.34147 0
M  V30 4228 N 418.302 -1.35869 -0.798587 0
M  V30 4229 C 419.551 -1.28921 -1.5512 0
M  V30 4230 C 419.864 0.13208 -1.95154 0
M  V30 4231 O 421.07 0.323879 -2.69561 0
M  V30 4232 C 419.526 -2.26141 -2.79979 0
M  V30 4233 C 419.134 -3.73658 -2.47151 0
M  V30 4234 C 420.878 -2.28152 -3.57976 0
M  V30 4235 C 418.785 -4.62679 -3.6835 0
M  V30 4236 H 417.715 -0.479031 -0.582276 0
M  V30 4237 H 420.366 -1.61179 -0.877125 0
M  V30 4238 H 418.748 -1.86865 -3.49138 0
M  V30 4239 H 419.922 -4.21616 -1.85947 0
M  V30 4240 H 418.237 -3.74333 -1.82383 0
M  V30 4241 H 420.834 -2.91875 -4.4801 0
M  V30 4242 H 421.177 -1.28748 -3.95891 0
M  V30 4243 H 421.71 -2.65998 -2.95787 0
M  V30 4244 H 418.449 -5.63111 -3.35538 0
M  V30 4245 H 417.969 -4.19442 -4.28752 0
M  V30 4246 H 419.648 -4.78498 -4.35487 0
M  V30 4247 N 419.78 1.02168 -1.19998 0
M  V30 4248 C 421.005 1.79833 -1.03319 0
M  V30 4249 C 421.43 1.83504 0.413281 0
M  V30 4250 O 420.788 1.26635 1.29743 0
M  V30 4251 C 420.836 3.22396 -1.61533 0
M  V30 4252 O 419.94 4.03555 -0.849519 0
M  V30 4253 H 419.281 0.554872 -0.364709 0
M  V30 4254 H 421.811 1.28542 -1.59179 0
M  V30 4255 H 421.821 3.73124 -1.65054 0
M  V30 4256 H 420.496 3.19039 -2.66809 0
M  V30 4257 H 419.073 3.62169 -0.888129 0
M  V30 4258 N 421.258 1.00505 1.21394 0
M  V30 4259 C 422.669 0.721082 1.72213 0
M  V30 4260 C 423.02 -0.761263 1.80829 0
M  V30 4261 O 422.145 -1.59464 1.46288 0
M  V30 4262 C 422.74 1.30228 3.12772 0
M  V30 4263 C 421.299 1.06743 3.60947 0
M  V30 4264 C 420.446 1.41507 2.38477 0
M  V30 4265 H 423.397 1.17594 1.06571 0
M  V30 4266 H 423.418 0.686955 3.74247 0
M  V30 4267 H 422.93 2.38115 3.06468 0
M  V30 4268 H 421.031 0.00572162 3.726 0
M  V30 4269 H 421.144 1.73936 4.46411 0
M  V30 4270 H 419.508 0.833852 2.40664 0
M  V30 4271 H 420.291 2.50424 2.34824 0
M  V30 4272 N 422.737 -1.36956 0.779787 0
M  V30 4273 C 423.985 -1.99097 0.347079 0
M  V30 4274 C 424.306 -1.62206 -1.08232 0
M  V30 4275 O 423.576 -0.891373 -1.74446 0
M  V30 4276 H 422.156 -0.736409 0.125342 0
M  V30 4277 H 424.818 -1.67308 0.999696 0
M  V30 4278 H 423.914 -3.09107 0.431162 0
M  V30 4279 N 424.215 -0.530993 -1.48385 0
M  V30 4280 C 425.626 -0.0907905 -1.86479 0
M  V30 4281 C 425.977 1.33213 -1.44044 0
M  V30 4282 O 425.102 1.99783 -0.831615 0
M  V30 4283 C 425.697 -0.157987 -3.38431 0
M  V30 4284 C 424.256 0.227026 -3.75715 0
M  V30 4285 C 423.403 -0.5173 -2.72432 0
M  V30 4286 H 426.354 -0.742186 -1.40276 0
M  V30 4287 H 426.375 0.630053 -3.75247 0
M  V30 4288 H 425.887 -1.19372 -3.69286 0
M  V30 4289 H 423.988 1.26486 -3.50474 0
M  V30 4290 H 424.101 -0.113288 -4.78966 0
M  V30 4291 H 422.465 0.0365527 -2.54674 0
M  V30 4292 H 423.248 -1.55368 -3.0613 0
M  V30 4293 N 425.693 1.55336 -0.266172 0
M  V30 4294 C 426.623 2.25146 0.618981 0
M  V30 4295 C 427.604 1.23845 1.16604 0
M  V30 4296 O 428.789 1.52544 1.20183 0
M  V30 4297 C 425.919 2.96572 1.80728 0
M  V30 4298 C 424.873 4.04726 1.39215 0
M  V30 4299 C 424.199 4.63678 2.66283 0
M  V30 4300 C 425.499 5.19407 0.548942 0
M  V30 4301 H 427.193 2.99377 0.0368116 0
M  V30 4302 H 424.739 1.43991 0.0162651 0
M  V30 4303 H 426.692 3.44116 2.43232 0
M  V30 4304 H 425.416 2.19861 2.41514 0
M  V30 4305 H 424.075 3.57979 0.790351 0
M  V30 4306 H 423.723 3.83646 3.25308 0
M  V30 4307 H 423.423 5.367 2.39222 0
M  V30 4308 H 424.947 5.13967 3.29651 0
M  V30 4309 H 426.361 5.63059 1.07876 0
M  V30 4310 H 424.758 5.98936 0.373593 0
M  V30 4311 H 425.828 4.8295 -0.434394 0
M  V30 4312 N 427.171 -0.0066808 1.57599 0
M  V30 4313 C 428.399 -0.704087 1.94551 0
M  V30 4314 C 428.814 -1.67677 0.867746 0
M  V30 4315 O 428.171 -1.8185 -0.153925 0
M  V30 4316 C 428.222 -1.44177 3.31505 0
M  V30 4317 O 427.943 -0.508097 4.35144 0
M  V30 4318 C 429.444 -2.23429 3.82876 0
M  V30 4319 H 426.664 -0.196523 0.641576 0
M  V30 4320 H 429.208 0.042453 2.04456 0
M  V30 4321 H 427.363 -2.13999 3.22929 0
M  V30 4322 H 427.777 -1.02782 5.14331 0
M  V30 4323 H 429.251 -2.70552 4.8115 0
M  V30 4324 H 429.728 -3.05818 3.15233 0
M  V30 4325 H 430.334 -1.58636 3.94607 0
M  V30 4326 N 428.649 -1.55105 -0.279332 0
M  V30 4327 C 430.06 -1.66186 -0.850832 0
M  V30 4328 C 430.411 -0.584707 -1.87285 0
M  V30 4329 O 429.536 0.274919 -2.14647 0
M  V30 4330 C 430.131 -3.01264 -1.55001 0
M  V30 4331 C 428.69 -3.14394 -2.06963 0
M  V30 4332 C 427.837 -2.61959 -0.909536 0
M  V30 4333 H 430.788 -1.58602 -0.0558235 0
M  V30 4334 H 430.809 -2.93899 -2.41669 0
M  V30 4335 H 430.321 -3.7964 -0.805931 0
M  V30 4336 H 428.422 -2.4078 -2.84352 0
M  V30 4337 H 428.535 -4.20867 -2.28928 0
M  V30 4338 H 426.899 -2.18957 -1.30116 0
M  V30 4339 H 427.682 -3.42833 -0.179062 0
M  V30 4340 N 430.127 0.543554 -1.4793 0
M  V30 4341 C 431.06 1.66556 -1.55995 0
M  V30 4342 C 432.038 1.57315 -0.411205 0
M  V30 4343 O 433.222 1.7798 -0.620922 0
M  V30 4344 C 430.349 3.04883 -1.47527 0
M  V30 4345 C 429.395 3.32526 -2.67074 0
M  V30 4346 S 430.228 3.20282 -4.29162 0
M  V30 4347 C 431.384 4.61079 -4.23269 0
M  V30 4348 H 431.617 1.59462 -2.50917 0
M  V30 4349 H 429.15 0.725456 -1.36296 0
M  V30 4350 H 431.108 3.84665 -1.43328 0
M  V30 4351 H 429.769 3.09429 -0.539665 0
M  V30 4352 H 428.962 4.33403 -2.5725 0
M  V30 4353 H 428.564 2.60389 -2.68466 0
M  V30 4354 H 430.856 5.52318 -3.92365 0
M  V30 4355 H 431.799 4.75959 -5.24279 0
M  V30 4356 H 432.207 4.39766 -3.5393 0
M  V30 4357 N 431.605 1.3629 0.791371 0
M  V30 4358 C 433.021 1.16661 1.08914 0
M  V30 4359 C 433.221 -0.0106266 2.01497 0
M  V30 4360 O 432.277 -0.676596 2.43266 0
M  V30 4361 C 433.59 2.47656 1.70549 0
M  V30 4362 C 435.138 2.54002 1.82899 0
M  V30 4363 C 435.613 3.85078 2.47949 0
M  V30 4364 N 437.104 3.86413 2.5542 0
M  V30 4365 C 437.839 4.84572 3.06557 0
M  V30 4366 N 437.335 5.93124 3.58016 0
M  V30 4367 N 439.128 4.71994 3.05251 0
M  V30 4368 H 431.279 2.11668 0.176238 0
M  V30 4369 H 433.542 0.937486 0.140796 0
M  V30 4370 H 433.248 3.34059 1.09989 0
M  V30 4371 H 433.122 2.63319 2.70079 0
M  V30 4372 H 435.509 1.68018 2.42598 0
M  V30 4373 H 435.59 2.42239 0.821808 0
M  V30 4374 H 435.234 4.71467 1.88895 0
M  V30 4375 H 435.164 3.94135 3.49235 0
M  V30 4376 H 437.655 3.07988 2.18979 0
M  V30 4377 H 437.968 6.63999 3.95381 0
M  V30 4378 H 436.313 5.96796 3.56173 0
M  V30 4379 H 439.504 3.86321 2.64336 0
M  V30 4380 H 439.677 5.48653 3.44796 0
M  V30 4381 N 433.083 -1.0153 1.20538 0
M  V30 4382 C 433.993 -2.13557 0.971113 0
M  V30 4383 C 435.009 -1.73845 -0.0734366 0
M  V30 4384 O 436.185 -2.01075 0.114299 0
M  V30 4385 C 433.25 -3.42661 0.527639 0
M  V30 4386 C 432.311 -3.96608 1.64319 0
M  V30 4387 C 431.544 -5.1955 1.22078 0
M  V30 4388 O 431.767 -5.70329 0.0900198 0
M  V30 4389 O 430.701 -5.66681 2.02871 0
M  V30 4390 H 434.527 -2.3619 1.90913 0
M  V30 4391 H 432.112 -1.11946 0.989362 0
M  V30 4392 H 433.994 -4.20404 0.289621 0
M  V30 4393 H 432.669 -3.21441 -0.381779 0
M  V30 4394 H 431.576 -3.20139 1.93551 0
M  V30 4395 H 432.909 -4.22219 2.52966 0
M  V30 4396 N 434.561 -1.01147 -1.20859 0
M  V30 4397 C 435.508 -0.577354 -2.23462 0
M  V30 4398 C 436.478 0.399922 -1.61214 0
M  V30 4399 O 437.663 0.300515 -1.88419 0
M  V30 4400 C 434.803 0.083372 -3.44999 0
M  V30 4401 C 433.916 -0.937856 -4.21697 0
M  V30 4402 C 433.051 -0.248717 -5.30617 0
M  V30 4403 C 432.09 -1.25705 -5.99053 0
M  V30 4404 N 431.227 -0.594939 -6.99575 0
M  V30 4405 H 436.067 -1.45695 -2.59956 0
M  V30 4406 H 433.604 -0.729428 -1.27741 0
M  V30 4407 H 435.562 0.483535 -4.14388 0
M  V30 4408 H 434.192 0.926645 -3.09214 0
M  V30 4409 H 433.244 -1.45622 -3.51423 0
M  V30 4410 H 434.556 -1.70493 -4.68757 0
M  V30 4411 H 433.71 0.207215 -6.06346 0
M  V30 4412 H 432.449 0.55071 -4.84581 0
M  V30 4413 H 431.454 -1.72343 -5.2209 0
M  V30 4414 H 432.679 -2.05767 -6.47176 0
M  V30 4415 H 430.625 0.184713 -6.5574 0
M  V30 4416 H 430.542 -1.30017 -7.44736 0
M  V30 4417 H 431.81 -0.162427 -7.79331 0
M  V30 4418 N 436.039 1.36541 -0.78704 0
M  V30 4419 C 437.316 1.9355 -0.282424 0
M  V30 4420 C 437.696 1.71919 1.22503 0
M  V30 4421 O 437.044 1.07677 2.01539 0
M  V30 4422 C 437.254 3.4246 -0.672462 0
M  V30 4423 C 438.602 4.19582 -0.650863 0
M  V30 4424 O 439.626 3.50889 -0.612789 0
M  V30 4425 O 438.485 5.42106 -0.691623 0
M  V30 4426 H 435.579 0.824091 -0.0693 0
M  V30 4427 H 438.125 1.45736 -0.869423 0
M  V30 4428 H 436.897 3.51851 -1.71221 0
M  V30 4429 H 436.52 3.97556 -0.0592211 0
M  V30 4430 N 437.518 0.538854 1.48102 0
M  V30 4431 C 438.764 0.00801365 2.02798 0
M  V30 4432 C 439.097 -1.3309 1.41424 0
M  V30 4433 O 438.372 -1.86169 0.563158 0
M  V30 4434 C 438.655 -0.104589 3.59948 0
M  V30 4435 C 438.508 1.26012 4.31788 0
M  V30 4436 C 439.827 -0.827055 4.32259 0
M  V30 4437 H 436.946 0.00438624 0.736987 0
M  V30 4438 H 439.588 0.6976 1.7673 0
M  V30 4439 H 437.738 -0.691893 3.82289 0
M  V30 4440 H 439.41 1.88922 4.2084 0
M  V30 4441 H 437.653 1.83968 3.92859 0
M  V30 4442 H 438.324 1.13424 5.40221 0
M  V30 4443 H 440.8 -0.328578 4.14801 0
M  V30 4444 H 439.676 -0.87476 5.41885 0
M  V30 4445 H 439.937 -1.87927 4.0017 0
M  V30 4446 N 438.996 -1.55193 0.274407 0
M  V30 4447 C 440.243 -1.99581 -0.342579 0
M  V30 4448 C 440.571 -1.1628 -1.55914 0
M  V30 4449 O 439.826 -0.22029 -1.94456 0
M  V30 4450 C 440.125 -3.49019 -0.769458 0
M  V30 4451 C 439.791 -4.49598 0.342389 0
M  V30 4452 C 438.453 -4.76821 0.647686 0
M  V30 4453 C 440.805 -5.0964 1.09163 0
M  V30 4454 C 438.133 -5.61354 1.70581 0
M  V30 4455 C 440.485 -5.95323 2.13948 0
M  V30 4456 C 439.149 -6.20867 2.45113 0
M  V30 4457 H 438.419 -0.730319 -0.125358 0
M  V30 4458 H 441.066 -1.87529 0.387971 0
M  V30 4459 H 439.371 -3.58544 -1.57967 0
M  V30 4460 H 441.068 -3.8077 -1.25757 0
M  V30 4461 H 437.658 -4.28496 0.094318 0
M  V30 4462 H 441.842 -4.88632 0.869024 0
M  V30 4463 H 437.098 -5.79392 1.9523 0
M  V30 4464 H 441.272 -6.40881 2.72478 0
M  V30 4465 H 438.899 -6.86162 3.27239 0
M  V30 4466 N 440.474 -0.00167713 -1.576 0
M  V30 4467 C 441.751 0.719951 -1.81868 0
M  V30 4468 C 442.131 1.91895 -0.879747 0
M  V30 4469 O 441.479 2.28389 0.0711423 0
M  V30 4470 C 441.689 1.12409 -3.30402 0
M  V30 4471 C 443.037 1.52724 -3.96182 0
M  V30 4472 O 444.061 1.21784 -3.34734 0
M  V30 4473 O 442.92 2.10265 -5.04431 0
M  V30 4474 H 440.014 0.350707 -0.748955 0
M  V30 4475 H 442.56 -0.0272597 -1.69678 0
M  V30 4476 H 441.332 0.269532 -3.90371 0
M  V30 4477 H 440.955 1.93035 -3.47596 0
M  V30 4478 N 441.952 1.55251 0.271103 0
M  V30 4479 C 443.229 1.66664 1.02384 0
M  V30 4480 C 443.609 0.534363 2.04225 0
M  V30 4481 O 442.957 -0.465337 2.23712 0
M  V30 4482 C 443.167 3.05961 1.67895 0
M  V30 4483 C 444.515 3.63772 2.18986 0
M  V30 4484 O 445.539 3.08606 1.77878 0
M  V30 4485 O 444.398 4.60429 2.94393 0
M  V30 4486 H 441.492 0.676957 0.475035 0
M  V30 4487 H 444.038 1.67589 0.26681 0
M  V30 4488 H 442.81 3.79815 0.941071 0
M  V30 4489 H 442.433 3.08943 2.5028 0
M  V30 4490 N 443.43 -0.535701 1.48216 0
M  V30 4491 C 444.679 -1.28828 1.55197 0
M  V30 4492 C 444.992 -1.94263 0.228278 0
M  V30 4493 O 446.198 -2.70927 0.176278 0
M  V30 4494 C 444.654 -2.33727 2.73678 0
M  V30 4495 C 444.262 -1.74386 4.12666 0
M  V30 4496 C 446.006 -3.1003 2.89968 0
M  V30 4497 C 443.913 -2.77192 5.22416 0
M  V30 4498 H 442.843 -0.484484 0.577747 0
M  V30 4499 H 445.494 -0.56646 1.74538 0
M  V30 4500 H 443.876 -3.08919 2.4776 0
M  V30 4501 H 445.05 -1.05421 4.48579 0
M  V30 4502 H 443.365 -1.10595 4.01445 0
M  V30 4503 H 445.962 -3.86842 3.6913 0
M  V30 4504 H 446.305 -3.65542 1.9921 0
M  V30 4505 H 446.838 -2.41952 3.15759 0
M  V30 4506 H 443.577 -2.26507 6.15122 0
M  V30 4507 H 443.097 -3.44502 4.90998 0
M  V30 4508 H 444.776 -3.40285 5.50286 0
M  V30 4509 N 444.908 -1.36708 -0.784132 0
M  V30 4510 C 446.319 -1.27947 -1.35965 0
M  V30 4511 C 446.67 0.0784013 -1.96043 0
M  V30 4512 O 445.795 0.979989 -1.92938 0
M  V30 4513 C 446.39 -2.31689 -2.47195 0
M  V30 4514 C 444.949 -2.26601 -3.00548 0
M  V30 4515 C 444.096 -2.16184 -1.73666 0
M  V30 4516 H 447.047 -1.4751 -0.585358 0
M  V30 4517 H 447.068 -1.95638 -3.26352 0
M  V30 4518 H 446.58 -3.30506 -2.03439 0
M  V30 4519 H 444.681 -1.31268 -3.48711 0
M  V30 4520 H 444.794 -3.19508 -3.57004 0
M  V30 4521 H 443.158 -1.62524 -1.96107 0
M  V30 4522 H 443.941 -3.16896 -1.32031 0
M  V30 4523 N 446.386 1.0089 -1.21074 0
M  V30 4524 C 447.333 2.09588 -0.966512 0
M  V30 4525 C 448.303 1.65761 0.106089 0
M  V30 4526 O 449.488 1.90758 -0.0402287 0
M  V30 4527 C 446.628 3.40958 -0.533058 0
M  V30 4528 C 445.741 3.9822 -1.67467 0
M  V30 4529 C 444.876 5.17682 -1.19076 0
M  V30 4530 C 443.915 5.67043 -2.30496 0
M  V30 4531 N 443.052 6.77759 -1.83267 0
M  V30 4532 H 447.892 2.29815 -1.89708 0
M  V30 4533 H 445.429 1.12689 -0.945489 0
M  V30 4534 H 447.387 4.1637 -0.263019 0
M  V30 4535 H 446.017 3.20781 0.360505 0
M  V30 4536 H 445.069 3.1983 -2.05944 0
M  V30 4537 H 446.381 4.3085 -2.51336 0
M  V30 4538 H 445.535 6.00326 -0.877151 0
M  V30 4539 H 444.274 4.86635 -0.322066 0
M  V30 4540 H 443.279 4.82999 -2.62664 0
M  V30 4541 H 444.504 6.00121 -3.17855 0
M  V30 4542 H 442.45 6.48527 -0.987356 0
M  V30 4543 H 442.367 7.09624 -2.60711 0
M  V30 4544 H 443.635 7.63949 -1.54928 0
M  V30 4545 N 447.864 1.01787 1.20321 0
M  V30 4546 C 449.11 0.718699 1.90279 0
M  V30 4547 C 449.465 -0.743669 1.77447 0
M  V30 4548 O 448.758 -1.53345 1.14874 0
M  V30 4549 C 448.952 1.09076 3.40349 0
M  V30 4550 C 448.781 2.58775 3.67784 0
M  V30 4551 C 447.551 3.25578 3.86428 0
M  V30 4552 C 449.749 3.56966 3.70243 0
M  V30 4553 N 447.731 4.64495 4.01395 0
M  V30 4554 C 449.102 4.8145 3.90649 0
M  V30 4555 C 451.157 3.5092 3.53213 0
M  V30 4556 C 449.86 6.00619 3.95789 0
M  V30 4557 C 451.886 4.69493 3.59625 0
M  V30 4558 C 451.248 5.92786 3.80505 0
M  V30 4559 H 447.347 0.31468 0.715891 0
M  V30 4560 H 449.931 1.30295 1.44677 0
M  V30 4561 H 448.102 0.534839 3.847 0
M  V30 4562 H 449.834 0.744997 3.97784 0
M  V30 4563 H 446.589 2.76003 3.84862 0
M  V30 4564 H 447.013 5.36624 4.12752 0
M  V30 4565 H 451.655 2.56593 3.36035 0
M  V30 4566 H 449.373 6.95326 4.11762 0
M  V30 4567 H 452.959 4.66432 3.47754 0
M  V30 4568 H 451.839 6.83003 3.85327 0
M  V30 4569 N 449.342 -1.36122 0.79427 0
M  V30 4570 C 450.252 -2.33769 0.197296 0
M  V30 4571 C 451.268 -1.61276 -0.653153 0
M  V30 4572 O 452.444 -1.9323 -0.5678 0
M  V30 4573 C 449.509 -3.40474 -0.654098 0
M  V30 4574 C 448.57 -4.28759 0.215411 0
M  V30 4575 C 447.803 -5.30368 -0.595443 0
M  V30 4576 O 448.026 -5.40211 -1.83107 0
M  V30 4577 O 446.96 -6.019 0.00721351 0
M  V30 4578 H 450.786 -2.86597 1.00478 0
M  V30 4579 H 448.371 -1.38676 0.555818 0
M  V30 4580 H 450.253 -4.05703 -1.13944 0
M  V30 4581 H 448.928 -2.89937 -1.43938 0
M  V30 4582 H 447.835 -3.66554 0.747615 0
M  V30 4583 H 449.168 -4.82661 0.964332 0
M  V30 4584 N 450.82 -0.546701 -1.47814 0
M  V30 4585 C 452.068 -0.0187037 -2.02091 0
M  V30 4586 C 452.389 1.33168 -1.42447 0
M  V30 4587 O 451.659 1.86619 -0.595839 0
M  V30 4588 H 450.239 -0.00392531 -0.74699 0
M  V30 4589 H 452.901 -0.714327 -1.81338 0
M  V30 4590 H 451.997 0.0772219 -3.12004 0
M  V30 4591 N 452.299 1.55045 -0.282633 0
M  V30 4592 C 453.246 2.22822 0.601566 0
M  V30 4593 C 454.216 1.20431 1.14392 0
M  V30 4594 O 455.401 1.48996 1.19184 0
M  V30 4595 C 452.541 2.95873 1.77632 0
M  V30 4596 C 451.654 4.12999 1.26711 0
M  V30 4597 C 450.789 4.73676 2.40426 0
M  V30 4598 C 449.828 5.82981 1.86545 0
M  V30 4599 N 448.965 6.3769 2.93762 0
M  V30 4600 H 453.805 2.97995 0.0169528 0
M  V30 4601 H 451.342 1.471 -0.00339964 0
M  V30 4602 H 453.3 3.36447 2.46697 0
M  V30 4603 H 451.93 2.2311 2.33285 0
M  V30 4604 H 450.982 3.77494 0.469314 0
M  V30 4605 H 452.294 4.91803 0.832518 0
M  V30 4606 H 451.448 5.17008 3.17471 0
M  V30 4607 H 450.187 3.94164 2.87203 0
M  V30 4608 H 449.192 5.39092 1.07983 0
M  V30 4609 H 450.417 6.64366 1.40694 0
M  V30 4610 H 448.363 5.61069 3.39908 0
M  V30 4611 H 448.28 7.11788 2.54744 0
M  V30 4612 H 449.548 6.8568 3.7076 0
M  V30 4613 N 453.777 0.010035 1.57597 0
M  V30 4614 C 454.709 -1.00649 2.05918 0
M  V30 4615 C 455.722 -1.30077 0.978964 0
M  V30 4616 O 456.911 -1.26878 1.25556 0
M  V30 4617 C 454.011 -2.33876 2.45265 0
M  V30 4618 C 453.184 -2.23242 3.7614 0
M  V30 4619 C 452.243 -3.39242 4.02245 0
M  V30 4620 O 451.269 -3.1698 4.72771 0
M  V30 4621 N 452.471 -4.6242 3.50924 0
M  V30 4622 H 455.236 -0.594333 2.93748 0
M  V30 4623 H 452.797 -0.17714 1.60928 0
M  V30 4624 H 454.789 -3.1027 2.59836 0
M  V30 4625 H 453.359 -2.66799 1.62902 0
M  V30 4626 H 452.579 -1.31696 3.71551 0
M  V30 4627 H 453.867 -2.13321 4.61922 0
M  V30 4628 H 453.265 -4.83404 2.93832 0
M  V30 4629 H 451.822 -5.36046 3.70807 0
M  V30 4630 N 455.255 -1.55392 -0.262866 0
M  V30 4631 C 456.502 -1.76476 -0.993109 0
M  V30 4632 C 456.83 -0.571479 -1.85915 0
M  V30 4633 O 456.085 0.445733 -1.90556 0
M  V30 4634 C 456.384 -3.02889 -1.89718 0
M  V30 4635 C 456.05 -4.34974 -1.18781 0
M  V30 4636 C 454.712 -4.7087 -0.991699 0
M  V30 4637 C 457.064 -5.16695 -0.683798 0
M  V30 4638 C 454.392 -5.86036 -0.279024 0
M  V30 4639 C 456.744 -6.32598 0.0153327 0
M  V30 4640 C 455.408 -6.67127 0.223062 0
M  V30 4641 H 454.678 -0.64577 -0.363404 0
M  V30 4642 H 457.325 -1.89664 -0.264525 0
M  V30 4643 H 455.63 -2.84644 -2.6923 0
M  V30 4644 H 457.327 -3.16399 -2.46359 0
M  V30 4645 H 453.917 -4.06765 -1.35058 0
M  V30 4646 H 458.101 -4.8943 -0.8229 0
M  V30 4647 H 453.357 -6.11306 -0.107456 0
M  V30 4648 H 457.531 -6.95171 0.413584 0
M  V30 4649 H 455.158 -7.56216 0.777265 0
M  V30 4650 N 456.733 0.527833 -1.48498 0
M  V30 4651 C 458.01 1.28905 -1.47115 0
M  V30 4652 C 458.39 2.10297 -0.184007 0
M  V30 4653 O 457.738 2.12728 0.834218 0
M  V30 4654 C 457.948 2.16866 -2.73441 0
M  V30 4655 C 459.296 2.76936 -3.21857 0
M  V30 4656 O 460.32 2.27152 -2.74373 0
M  V30 4657 O 459.179 3.67496 -4.04486 0
M  V30 4658 H 456.273 0.581918 -0.587623 0
M  V30 4659 H 458.819 0.544311 -1.60734 0
M  V30 4660 H 457.591 1.56521 -3.58632 0
M  V30 4661 H 457.214 2.98583 -2.62553 0
M  V30 4662 N 458.211 1.37122 0.776871 0
M  V30 4663 C 459.436 1.354 1.57104 0
M  V30 4664 C 459.861 -0.0595562 1.88006 0
M  V30 4665 O 459.219 -1.03514 1.48844 0
M  V30 4666 C 459.267 2.19472 2.8612 0
M  V30 4667 O 458.371 1.59582 3.80273 0
M  V30 4668 H 457.712 0.462869 0.476076 0
M  V30 4669 H 460.242 1.80577 0.961932 0
M  V30 4670 H 460.252 2.32502 3.35271 0
M  V30 4671 H 458.927 3.22222 2.62956 0
M  V30 4672 H 457.504 1.55564 3.38902 0
M  V30 4673 N 459.689 -1.00246 1.21608 0
M  V30 4674 C 461.1 -1.55511 1.03312 0
M  V30 4675 C 461.451 -1.91946 -0.406332 0
M  V30 4676 O 460.576 -1.73753 -1.28992 0
M  V30 4677 C 461.171 -2.82576 1.86913 0
M  V30 4678 C 459.73 -3.34318 1.72941 0
M  V30 4679 C 458.877 -2.07487 1.83968 0
M  V30 4680 H 461.828 -0.824638 1.35593 0
M  V30 4681 H 461.849 -3.54559 1.38087 0
M  V30 4682 H 461.361 -2.56026 2.91672 0
M  V30 4683 H 459.462 -3.65797 0.70877 0
M  V30 4684 H 459.575 -4.05566 2.55055 0
M  V30 4685 H 457.939 -2.20603 1.27304 0
M  V30 4686 H 458.722 -1.83346 2.9024 0
M  V30 4687 N 461.167 -1.02423 -1.1978 0
M  V30 4688 C 462.1 -0.545641 -2.21581 0
M  V30 4689 C 463.078 0.411024 -1.57319 0
M  V30 4690 O 464.262 0.329223 -1.85603 0
M  V30 4691 C 461.389 0.204973 -3.38079 0
M  V30 4692 C 460.435 -0.70241 -4.20676 0
M  V30 4693 S 461.268 -2.17595 -4.89298 0
M  V30 4694 C 462.424 -1.43572 -6.09211 0
M  V30 4695 H 462.657 -1.4082 -2.61834 0
M  V30 4696 H 460.19 -0.833771 -1.29952 0
M  V30 4697 H 462.148 0.631924 -4.05607 0
M  V30 4698 H 460.809 1.0432 -2.9627 0
M  V30 4699 H 460.002 -0.123193 -5.03849 0
M  V30 4700 H 459.604 -1.06747 -3.58442 0
M  V30 4701 H 461.896 -0.719806 -6.73665 0
M  V30 4702 H 462.839 -2.24388 -6.71607 0
M  V30 4703 H 463.247 -0.935252 -5.56699 0
M  V30 4704 N 462.645 1.35699 -0.801477 0
M  V30 4705 C 464.056 1.81415 -0.441073 0
M  V30 4706 C 464.407 1.66595 1.03636 0
M  V30 4707 O 463.532 1.19369 1.80499 0
M  V30 4708 C 464.127 3.29369 -0.793819 0
M  V30 4709 C 462.686 3.73248 -0.486083 0
M  V30 4710 C 461.833 2.57775 -1.02213 0
M  V30 4711 H 464.784 1.23749 -0.993572 0
M  V30 4712 H 464.805 3.80395 -0.0894158 0
M  V30 4713 H 464.317 3.40123 -1.86917 0
M  V30 4714 H 462.418 3.68046 0.580735 0
M  V30 4715 H 462.531 4.68222 -1.01513 0
M  V30 4716 H 460.895 2.50788 -0.444712 0
M  V30 4717 H 461.678 2.71309 -2.10348 0
M  V30 4718 N 464.123 0.554532 1.47522 0
M  V30 4719 C 465.348 0.0322661 2.07375 0
M  V30 4720 C 465.773 -1.25079 1.40488 0
M  V30 4721 O 465.131 -1.74859 0.47896 0
M  V30 4722 C 465.179 -0.149397 3.6029 0
M  V30 4723 O 464.283 -1.21259 3.9417 0
M  V30 4724 H 463.624 0.0501228 0.662106 0
M  V30 4725 H 466.154 0.769452 1.8958 0
M  V30 4726 H 466.164 -0.364437 4.06369 0
M  V30 4727 H 464.839 0.787743 4.08372 0
M  V30 4728 H 463.416 -0.97825 3.5984 0
M  V30 4729 N 465.601 -1.54893 0.290851 0
M  V30 4730 C 467.012 -1.85584 -0.203816 0
M  V30 4731 C 467.363 -1.21285 -1.54222 0
M  V30 4732 O 466.488 -0.506841 -2.10381 0
M  V30 4733 C 467.083 -3.367 -0.376595 0
M  V30 4734 C 465.642 -3.6746 -0.815485 0
M  V30 4735 C 464.789 -2.77178 0.0821087 0
M  V30 4736 H 467.74 -1.50208 0.512175 0
M  V30 4737 H 467.761 -3.60656 -1.21275 0
M  V30 4738 H 467.273 -3.8347 0.59767 0
M  V30 4739 H 465.374 -3.26201 -1.80066 0
M  V30 4740 H 465.487 -4.7478 -0.641905 0
M  V30 4741 H 463.851 -2.50925 -0.436895 0
M  V30 4742 H 464.634 -3.26767 1.05254 0
M  V30 4743 N 467.08 -0.0183926 -1.57589 0
M  V30 4744 C 468.327 0.662562 -1.91354 0
M  V30 4745 C 468.655 1.72747 -0.893788 0
M  V30 4746 O 467.91 1.9545 0.0988509 0
M  V30 4747 C 468.209 1.32676 -3.31861 0
M  V30 4748 C 467.875 0.393267 -4.49182 0
M  V30 4749 C 466.537 0.136302 -4.81007 0
M  V30 4750 C 468.889 -0.248366 -5.20608 0
M  V30 4751 C 466.217 -0.770282 -5.81621 0
M  V30 4752 C 468.569 -1.14294 -6.22189 0
M  V30 4753 C 467.233 -1.4089 -6.52462 0
M  V30 4754 H 466.503 0.242448 -0.700214 0
M  V30 4755 H 469.15 -0.0778629 -1.91342 0
M  V30 4756 H 467.455 2.14168 -3.28084 0
M  V30 4757 H 469.152 1.86001 -3.55253 0
M  V30 4758 H 465.742 0.603723 -4.24327 0
M  V30 4759 H 469.926 -0.062883 -4.9626 0
M  V30 4760 H 465.182 -0.984154 -6.03427 0
M  V30 4761 H 469.356 -1.64637 -6.76659 0
M  V30 4762 H 466.983 -2.11306 -7.30242 0
M  V30 4763 N 468.558 1.5553 0.254621 0
M  V30 4764 C 469.49 1.86104 1.33783 0
M  V30 4765 C 470.503 0.746752 1.44663 0
M  V30 4766 O 471.692 1.0248 1.46151 0
M  V30 4767 C 468.792 2.02532 2.71724 0
M  V30 4768 C 467.965 3.33335 2.83208 0
M  V30 4769 C 467.024 3.396 4.01943 0
M  V30 4770 O 466.05 4.12862 3.91834 0
M  V30 4771 N 467.252 2.68332 5.1476 0
M  V30 4772 H 470.017 2.79605 1.07893 0
M  V30 4773 H 467.578 1.55672 0.444732 0
M  V30 4774 H 469.57 2.04074 3.4948 0
M  V30 4775 H 468.14 1.15811 2.90356 0
M  V30 4776 H 467.36 3.44176 1.92189 0
M  V30 4777 H 468.648 4.19565 2.87824 0
M  V30 4778 H 468.046 2.08528 5.25864 0
M  V30 4779 H 466.603 2.75575 5.90679 0
M  V30 4780 N 470.036 -0.519951 1.48776 0
M  V30 4781 C 471.284 -1.2727 1.56993 0
M  V30 4782 C 471.605 -1.9339 0.25004 0
M  V30 4783 O 470.875 -1.81822 -0.729216 0
M  V30 4784 H 469.455 -0.472732 0.578389 0
M  V30 4785 H 472.117 -0.604234 1.85297 0
M  V30 4786 H 471.213 -2.04669 2.3562 0
M  V30 4787 N 471.514 -1.37532 -0.769588 0
M  V30 4788 C 472.762 -1.32597 -1.5252 0
M  V30 4789 C 473.083 0.0884294 -1.94799 0
M  V30 4790 O 472.353 1.03289 -1.66458 0
M  V30 4791 H 470.933 -0.487846 -0.565699 0
M  V30 4792 H 473.595 -1.72044 -0.915806 0
M  V30 4793 H 472.691 -1.96643 -2.42359 0
M  V30 4794 N 472.992 0.995999 -1.22138 0
M  V30 4795 C 474.217 1.77601 -1.0711 0
M  V30 4796 C 474.642 1.84339 0.374264 0
M  V30 4797 O 474 1.29359 1.27028 0
M  V30 4798 C 474.048 3.18897 -1.68336 0
M  V30 4799 O 473.152 4.01663 -0.934928 0
M  V30 4800 H 472.493 0.547011 -0.376397 0
M  V30 4801 H 475.023 1.25137 -1.6187 0
M  V30 4802 H 475.033 3.69539 -1.72931 0
M  V30 4803 H 473.708 3.13308 -2.73516 0
M  V30 4804 H 472.285 3.60204 -0.964751 0
M  V30 4805 N 474.47 1.03057 1.19235 0
M  V30 4806 C 475.717 0.728019 1.88961 0
M  V30 4807 C 476.045 -0.743515 1.79728 0
M  V30 4808 O 475.3 -1.55729 1.1852 0
M  V30 4809 C 475.599 1.1268 3.39172 0
M  V30 4810 C 475.265 2.5969 3.68608 0
M  V30 4811 C 473.927 2.99854 3.76352 0
M  V30 4812 C 476.279 3.54793 3.81801 0
M  V30 4813 C 473.607 4.34031 3.94758 0
M  V30 4814 C 475.959 4.88675 4.0172 0
M  V30 4815 C 474.623 5.28526 4.07697 0
M  V30 4816 H 473.893 0.266401 0.691456 0
M  V30 4817 H 476.54 1.29373 1.41191 0
M  V30 4818 H 474.845 0.479722 3.88852 0
M  V30 4819 H 476.542 0.870203 3.91444 0
M  V30 4820 H 473.132 2.27575 3.63191 0
M  V30 4821 H 477.316 3.24914 3.7516 0
M  V30 4822 H 472.572 4.6444 3.97625 0
M  V30 4823 H 476.746 5.6228 4.1087 0
M  V30 4824 H 474.373 6.32506 4.21712 0
M  V30 4825 N 475.948 -1.35272 0.808662 0
M  V30 4826 C 477.176 -2.02946 0.402537 0
M  V30 4827 C 477.591 -1.60937 -0.987147 0
M  V30 4828 O 476.948 -0.807917 -1.63643 0
M  V30 4829 C 476.999 -3.58317 0.47868 0
M  V30 4830 O 476.72 -3.98799 1.81358 0
M  V30 4831 C 478.221 -4.43251 0.0656281 0
M  V30 4832 H 475.441 -0.650831 0.163279 0
M  V30 4833 H 477.985 -1.72849 1.09286 0
M  V30 4834 H 476.14 -3.87055 -0.163415 0
M  V30 4835 H 476.554 -4.93451 1.77781 0
M  V30 4836 H 478.028 -5.51738 0.170017 0
M  V30 4837 H 478.505 -4.27913 -0.989278 0
M  V30 4838 H 479.111 -4.19813 0.68096 0
M  V30 4839 N 477.426 -0.562348 -1.47226 0
M  V30 4840 C 478.356 0.170627 -2.32876 0
M  V30 4841 C 479.337 0.903748 -1.44106 0
M  V30 4842 O 480.522 0.883206 -1.72954 0
M  V30 4843 C 477.652 1.19786 -3.25989 0
M  V30 4844 C 476.606 0.580875 -4.2404 0
M  V30 4845 C 475.932 1.71311 -5.06514 0
M  V30 4846 C 477.232 -0.468714 -5.20193 0
M  V30 4847 H 478.926 -0.544441 -2.94408 0
M  V30 4848 H 476.472 -0.263271 -1.41573 0
M  V30 4849 H 478.425 1.71884 -3.84752 0
M  V30 4850 H 477.149 1.94294 -2.62521 0
M  V30 4851 H 475.808 0.0811538 -3.6651 0
M  V30 4852 H 475.456 2.44736 -4.39447 0
M  V30 4853 H 475.156 1.30604 -5.72902 0
M  V30 4854 H 476.68 2.23725 -5.68137 0
M  V30 4855 H 478.094 -0.0336028 -5.7329 0
M  V30 4856 H 476.491 -0.794957 -5.94811 0
M  V30 4857 H 477.561 -1.36269 -4.65359 0
M  V30 4858 N 478.904 1.54736 -0.299062 0
M  V30 4859 C 480.315 1.8569 0.193971 0
M  V30 4860 C 480.666 1.22101 1.53577 0
M  V30 4861 O 479.791 0.51799 2.10109 0
M  V30 4862 C 480.386 3.36895 0.358733 0
M  V30 4863 C 478.945 3.67887 0.795986 0
M  V30 4864 C 478.092 2.77131 -0.096807 0
M  V30 4865 H 481.043 1.49934 -0.520134 0
M  V30 4866 H 481.064 3.61294 1.19361 0
M  V30 4867 H 480.576 3.83148 -0.617998 0
M  V30 4868 H 478.677 3.27151 1.78334 0
M  V30 4869 H 478.79 4.75114 0.616718 0
M  V30 4870 H 477.154 2.51153 0.423581 0
M  V30 4871 H 477.937 3.26204 -1.06986 0
M  V30 4872 N 480.382 0.0267497 1.57577 0
M  V30 4873 C 481.312 -0.954308 2.13108 0
M  V30 4874 C 482.293 -1.34088 1.04663 0
M  V30 4875 O 483.478 -1.41992 1.32484 0
M  V30 4876 C 480.608 -2.23744 2.65624 0
M  V30 4877 C 479.562 -1.99168 3.78835 0
M  V30 4878 C 478.888 -3.33726 4.17769 0
M  V30 4879 C 480.188 -1.33277 5.0501 0
M  V30 4880 H 481.882 -0.491848 2.95332 0
M  V30 4881 H 479.428 -0.23514 1.42067 0
M  V30 4882 H 481.381 -2.92754 3.03106 0
M  V30 4883 H 480.105 -2.72151 1.80558 0
M  V30 4884 H 478.764 -1.32577 3.41788 0
M  V30 4885 H 478.412 -3.79888 3.29688 0
M  V30 4886 H 478.112 -3.18089 4.94058 0
M  V30 4887 H 479.636 -4.04008 4.57832 0
M  V30 4888 H 481.05 -1.92283 5.40093 0
M  V30 4889 H 479.447 -1.28045 5.8628 0
M  V30 4890 H 480.517 -0.305411 4.83937 0
M  V30 4891 N 481.861 -1.55662 -0.24637 0
M  V30 4892 C 483.138 -1.68272 -0.997198 0
M  V30 4893 C 483.518 -0.566785 -2.03349 0
M  V30 4894 O 482.866 0.429688 -2.24424 0
M  V30 4895 C 483.076 -3.08594 -1.63006 0
M  V30 4896 C 484.424 -3.6721 -2.13171 0
M  V30 4897 O 485.448 -3.11397 -1.72946 0
M  V30 4898 O 484.307 -4.65054 -2.87031 0
M  V30 4899 H 481.401 -0.684429 -0.464205 0
M  V30 4900 H 483.947 -1.67993 -0.240114 0
M  V30 4901 H 482.719 -3.81264 -0.880527 0
M  V30 4902 H 482.342 -3.12886 -2.45333 0
M  V30 4903 N 483.339 0.512053 -1.4905 0
M  V30 4904 C 484.585 1.26874 -1.58212 0
M  V30 4905 C 484.918 1.9241 -0.263073 0
M  V30 4906 O 484.193 1.80181 0.732476 0
M  V30 4907 C 484.476 2.34428 -2.73341 0
M  V30 4908 C 484.329 1.73466 -4.15006 0
M  V30 4909 C 485.648 3.36073 -2.84154 0
M  V30 4910 H 482.767 0.459924 -0.575881 0
M  V30 4911 H 485.409 0.568587 -1.81293 0
M  V30 4912 H 483.559 2.94146 -2.53792 0
M  V30 4913 H 485.231 1.17661 -4.46042 0
M  V30 4914 H 483.474 1.03921 -4.21168 0
M  V30 4915 H 484.145 2.51426 -4.91415 0
M  V30 4916 H 486.621 2.86332 -3.01916 0
M  V30 4917 H 485.497 4.08703 -3.66406 0
M  V30 4918 H 485.758 3.97725 -1.93048 0
M  V30 4919 N 484.817 1.37938 0.762283 0
M  V30 4920 C 485.75 1.2884 1.88349 0
M  V30 4921 C 486.728 0.167084 1.61739 0
M  V30 4922 O 487.912 0.34292 1.85355 0
M  V30 4923 C 485.039 0.994257 3.23778 0
M  V30 4924 C 484.085 2.13376 3.69287 0
M  V30 4925 S 484.918 3.75439 3.81845 0
M  V30 4926 C 486.074 3.48195 5.20107 0
M  V30 4927 H 486.307 2.23736 1.95779 0
M  V30 4928 H 483.84 1.23672 0.924368 0
M  V30 4929 H 485.798 0.83138 4.01993 0
M  V30 4930 H 484.459 0.0626251 3.14038 0
M  V30 4931 H 483.652 1.88319 4.67495 0
M  V30 4932 H 483.254 2.25726 2.98201 0
M  V30 4933 H 485.546 3.0377 6.05583 0
M  V30 4934 H 486.489 4.45765 5.50181 0
M  V30 4935 H 486.897 2.82905 4.88493 0
M  V30 4936 N 486.295 -0.989507 1.22664 0
M  V30 4937 C 487.242 -2.08024 0.999733 0
M  V30 4938 C 488.212 -1.65909 -0.0797047 0
M  V30 4939 O 489.397 -1.90669 0.0705715 0
M  V30 4940 C 486.537 -3.40067 0.587234 0
M  V30 4941 C 485.65 -3.95505 1.73781 0
M  V30 4942 C 484.785 -5.15722 1.27297 0
M  V30 4943 C 483.824 -5.63305 2.39488 0
M  V30 4944 N 482.961 -6.74758 1.94026 0
M  V30 4945 H 487.801 -2.26768 1.9334 0
M  V30 4946 H 485.338 -1.11171 0.963297 0
M  V30 4947 H 487.296 -4.15899 0.329227 0
M  V30 4948 H 485.926 -3.21314 -0.309426 0
M  V30 4949 H 484.978 -3.16513 2.11006 0
M  V30 4950 H 486.29 -4.26797 2.58158 0
M  V30 4951 H 485.444 -5.98854 0.972546 0
M  V30 4952 H 484.183 -4.86061 0.399445 0
M  V30 4953 H 483.188 -4.78759 2.70315 0
M  V30 4954 H 484.413 -5.94988 3.27362 0
M  V30 4955 H 482.359 -6.46874 1.09041 0
M  V30 4956 H 482.276 -7.05386 2.71968 0
M  V30 4957 H 483.544 -7.61387 1.67062 0
M  V30 4958 N 487.773 -1.03688 -1.18687 0
M  V30 4959 C 488.721 -0.618292 -2.24232 0
M  V30 4960 C 489.715 0.353045 -1.6568 0
M  V30 4961 O 490.921 0.220749 -1.78641 0
M  V30 4962 H 487.296 -0.181711 -0.729716 0
M  V30 4963 H 489.267 -1.51893 -2.56848 0
M  V30 4964 C 488.016 0.00677342 -3.47699 0
M  V30 4965 H 487.339 -0.731692 -3.93047 0
M  V30 4966 H 488.779 0.262492 -4.23187 0
M  V30 4967 C 487.238 1.25572 -3.12623 0
M  V30 4968 O 487.768 2.34691 -3.26011 0
M  V30 4969 N 485.974 1.14755 -2.66982 0
M  V30 4970 H 485.521 0.259601 -2.56289 0
M  V30 4971 H 485.479 1.98412 -2.43885 0
M  V30 4972 N 489.251 1.34841 -0.815825 0
M  V30 4973 C 490.161 2.33425 -0.234462 0
M  V30 4974 C 491.177 1.62295 0.627413 0
M  V30 4975 O 492.353 1.94109 0.536987 0
M  V30 4976 C 489.418 3.41471 0.599849 0
M  V30 4977 C 488.479 4.28362 -0.283596 0
M  V30 4978 C 487.712 5.31248 0.51099 0
M  V30 4979 O 487.935 5.43056 1.7449 0
M  V30 4980 O 486.869 6.01812 -0.10297 0
M  V30 4981 H 490.695 2.84962 -1.05024 0
M  V30 4982 H 488.28 1.37774 -0.577809 0
M  V30 4983 H 490.162 4.07464 1.07475 0
M  V30 4984 H 488.837 2.9219 1.39308 0
M  V30 4985 H 487.744 3.65318 -0.805836 0
M  V30 4986 H 489.077 4.81066 -1.041 0
M  V30 4987 N 490.729 0.570148 1.46925 0
M  V30 4988 C 491.978 0.0487352 2.01641 0
M  V30 4989 C 492.291 -1.31433 1.44861 0
M  V30 4990 O 493.497 -1.92638 1.91318 0
M  V30 4991 C 491.953 0.0365817 3.59881 0
M  V30 4992 C 491.561 1.39719 4.25655 0
M  V30 4993 C 493.305 -0.431545 4.22301 0
M  V30 4994 C 491.212 1.34345 5.75939 0
M  V30 4995 H 490.142 0.0144492 0.753862 0
M  V30 4996 H 492.793 0.719928 1.68788 0
M  V30 4997 H 491.175 -0.700522 3.89755 0
M  V30 4998 H 492.349 2.15303 4.07408 0
M  V30 4999 H 490.664 1.80431 3.75278 0
M  V30 5000 H 493.261 -0.490354 5.32447 0
M  V30 5001 H 493.604 -1.44638 3.90366 0
M  V30 5002 H 494.137 0.251102 3.97007 0
M  V30 5003 H 490.876 2.33469 6.12513 0
M  V30 5004 H 490.396 0.629615 5.96486 0
M  V30 5005 H 492.075 1.051 6.38407 0
M  V30 5006 N 492.207 -1.54576 0.307264 0
M  V30 5007 C 493.453 -2.0056 -0.300612 0
M  V30 5008 C 493.786 -1.1953 -1.53057 0
M  V30 5009 O 493.061 -0.27337 -1.92569 0
M  V30 5010 C 493.344 -3.54167 -0.650987 0
M  V30 5011 C 493.197 -4.45933 0.588539 0
M  V30 5012 C 494.516 -4.14645 -1.47506 0
M  V30 5013 H 491.635 -0.729075 -0.107788 0
M  V30 5014 H 494.277 -1.85286 0.420606 0
M  V30 5015 H 492.427 -3.67313 -1.26544 0
M  V30 5016 H 494.099 -4.44683 1.22697 0
M  V30 5017 H 492.342 -4.16274 1.22058 0
M  V30 5018 H 493.013 -5.51189 0.299153 0
M  V30 5019 H 495.489 -4.04973 -0.955821 0
M  V30 5020 H 494.365 -5.22269 -1.68899 0
M  V30 5021 H 494.626 -3.66921 -2.4662 0
M  V30 5022 N 493.685 -0.035106 -1.57561 0
M  V30 5023 C 494.913 0.652258 -1.9635 0
M  V30 5024 C 495.328 1.65317 -0.911897 0
M  V30 5025 O 494.685 1.82194 0.105657 0
M  V30 5026 C 494.736 1.35337 -3.35211 0
M  V30 5027 O 494.457 0.392548 -4.36338 0
M  V30 5028 C 495.958 2.13199 -3.88666 0
M  V30 5029 H 493.178 0.179444 -0.646561 0
M  V30 5030 H 495.722 -0.0966459 -2.04271 0
M  V30 5031 H 493.877 2.05362 -3.28489 0
M  V30 5032 H 494.291 0.891097 -5.16875 0
M  V30 5033 H 495.765 2.577 -4.88154 0
M  V30 5034 H 496.242 2.97353 -3.23231 0
M  V30 5035 H 496.848 1.48118 -3.98674 0
M  V30 5036 N 495.163 1.55791 0.238111 0
M  V30 5037 C 496.073 1.94196 1.31625 0
M  V30 5038 C 497.089 0.843545 1.52185 0
M  V30 5039 O 498.265 1.1457 1.65637 0
M  V30 5040 C 495.33 2.2365 2.64918 0
M  V30 5041 C 494.391 3.46971 2.52804 0
M  V30 5042 C 493.624 3.7501 3.79741 0
M  V30 5043 O 493.847 3.04982 4.82019 0
M  V30 5044 O 492.781 4.68525 3.77846 0
M  V30 5045 H 496.607 2.86044 1.02043 0
M  V30 5046 H 494.192 1.42786 0.439603 0
M  V30 5047 H 496.074 2.43863 3.4367 0
M  V30 5048 H 494.749 1.34979 2.94215 0
M  V30 5049 H 493.656 3.32055 1.72309 0
M  V30 5050 H 494.989 4.35971 2.28451 0
M  V30 5051 N 496.642 -0.504142 1.49319 0
M  V30 5052 C 497.87 -1.28256 1.62351 0
M  V30 5053 C 498.285 -1.86502 0.293682 0
M  V30 5054 O 497.642 -1.67678 -0.720449 0
M  V30 5055 C 497.693 -2.41507 2.68992 0
M  V30 5056 O 497.414 -1.85656 3.96817 0
M  V30 5057 C 498.915 -3.32929 2.927 0
M  V30 5058 H 496.135 -0.389115 0.546654 0
M  V30 5059 H 498.679 -0.605531 1.95329 0
M  V30 5060 H 496.834 -3.05046 2.38801 0
M  V30 5061 H 497.248 -2.59981 4.55533 0
M  V30 5062 H 498.722 -4.0868 3.71058 0
M  V30 5063 H 499.199 -3.89733 2.02496 0
M  V30 5064 H 499.805 -2.75158 3.24296 0
M  V30 5065 N 498.12 -1.38341 -0.754957 0
M  V30 5066 C 499.345 -1.37882 -1.5493 0
M  V30 5067 C 499.77 0.0296385 -1.88077 0
M  V30 5068 O 499.128 1.01133 -1.50472 0
M  V30 5069 C 499.176 -2.23996 -2.82592 0
M  V30 5070 O 498.28 -1.65612 -3.77686 0
M  V30 5071 H 497.621 -0.470384 -0.468652 0
M  V30 5072 H 500.151 -1.82084 -0.933082 0
M  V30 5073 H 500.161 -2.37806 -3.3153 0
M  V30 5074 H 498.836 -3.26365 -2.57796 0
M  V30 5075 H 497.413 -1.60936 -3.36384 0
M  V30 5076 N 499.598 0.982988 -1.23187 0
M  V30 5077 C 501.009 1.53847 -1.05773 0
M  V30 5078 C 501.36 1.92568 0.375744 0
M  V30 5079 O 500.485 1.75783 1.26211 0
M  V30 5080 C 501.08 2.79567 -1.91384 0
M  V30 5081 C 499.639 3.31524 -1.78238 0
M  V30 5082 C 498.786 2.04534 -1.87246 0
M  V30 5083 H 501.737 0.802962 -1.36888 0
M  V30 5084 H 501.758 3.52317 -1.43711 0
M  V30 5085 H 501.27 2.51353 -2.95708 0
M  V30 5086 H 499.371 3.64623 -0.766875 0
M  V30 5087 H 499.484 4.01457 -2.61475 0
M  V30 5088 H 497.848 2.1855 -1.30797 0
M  V30 5089 H 498.631 1.78706 -2.9312 0
M  V30 5090 N 501.076 1.04316 1.18135 0
M  V30 5091 C 502.323 0.74802 1.88178 0
M  V30 5092 C 502.651 -0.72441 1.80506 0
M  V30 5093 O 501.906 -1.54463 1.20165 0
M  V30 5094 C 502.205 1.16271 3.37958 0
M  V30 5095 C 501.871 2.63585 3.65833 0
M  V30 5096 C 500.533 3.03829 3.73151 0
M  V30 5097 C 502.885 3.58822 3.78016 0
M  V30 5098 C 500.213 4.38194 3.90132 0
M  V30 5099 C 502.565 4.92909 3.96514 0
M  V30 5100 C 501.229 5.3282 4.02068 0
M  V30 5101 H 500.499 0.27372 0.688592 0
M  V30 5102 H 503.146 1.30863 1.39811 0
M  V30 5103 H 501.451 0.520938 3.88321 0
M  V30 5104 H 503.148 0.911672 3.90499 0
M  V30 5105 H 499.738 2.31414 3.60757 0
M  V30 5106 H 503.922 3.28875 3.71692 0
M  V30 5107 H 499.178 4.68631 3.92677 0
M  V30 5108 H 503.352 5.66606 4.04883 0
M  V30 5109 H 500.979 6.36943 4.14979 0
M  V30 5110 N 502.554 -1.34406 0.822964 0
M  V30 5111 C 503.517 -2.2783 0.250271 0
M  V30 5112 C 504.517 -1.50288 -0.571854 0
M  V30 5113 O 505.707 -1.69825 -0.387952 0
M  V30 5114 C 502.839 -3.34663 -0.649137 0
M  V30 5115 H 504.032 -2.79992 1.07444 0
M  V30 5116 H 501.585 -1.44539 0.594829 0
M  V30 5117 H 502.32 -2.87714 -1.49637 0
M  V30 5118 H 502.105 -3.92052 -0.0611199 0
M  V30 5119 H 503.595 -4.04349 -1.04363 0
M  V30 5120 N 504.032 -0.577932 -1.46621 0
M  V30 5121 C 505.443 -0.150071 -1.86096 0
M  V30 5122 C 505.794 1.28563 -1.48209 0
M  V30 5123 O 504.919 1.97036 -0.894754 0
M  V30 5124 C 505.514 -0.265576 -3.37758 0
M  V30 5125 C 504.073 0.10738 -3.76247 0
M  V30 5126 C 503.22 -0.603711 -2.70649 0
M  V30 5127 H 506.171 -0.786438 -1.37844 0
M  V30 5128 H 506.192 0.510352 -3.77062 0
M  V30 5129 H 505.704 -1.3106 -3.65301 0
M  V30 5130 H 503.805 1.15272 -3.54321 0
M  V30 5131 H 503.918 -0.26561 -4.78363 0
M  V30 5132 H 502.282 -0.0444884 -2.54661 0
M  V30 5133 H 503.065 -1.65029 -3.01032 0
M  V30 5134 N 505.51 1.54411 -0.315457 0
M  V30 5135 C 506.473 2.22713 0.54142 0
M  V30 5136 C 507.473 1.2179 1.04995 0
M  V30 5137 O 508.663 1.46426 0.943667 0
M  V30 5138 C 505.795 2.92485 1.75116 0
M  V30 5139 H 506.988 2.99849 -0.0555508 0
M  V30 5140 H 504.541 1.56159 -0.0664453 0
M  V30 5141 H 505.276 2.19466 2.38758 0
M  V30 5142 H 505.061 3.66483 1.39401 0
M  V30 5143 H 506.551 3.44548 2.35959 0
M  V30 5144 N 506.988 0.0434614 1.5754 0
M  V30 5145 C 508.235 -0.632035 1.92384 0
M  V30 5146 C 508.563 -1.71304 0.921157 0
M  V30 5147 O 507.818 -1.95583 -0.067744 0
M  V30 5148 C 508.117 -1.2738 3.3393 0
M  V30 5149 C 507.783 -0.321757 4.49751 0
M  V30 5150 C 506.445 -0.0597611 4.81163 0
M  V30 5151 C 508.797 0.331158 5.20147 0
M  V30 5152 C 506.125 0.862715 5.80322 0
M  V30 5153 C 508.477 1.24178 6.20292 0
M  V30 5154 C 507.141 1.51252 6.50138 0
M  V30 5155 H 506.411 -0.231278 0.703983 0
M  V30 5156 H 509.058 0.108294 1.91194 0
M  V30 5157 H 507.363 -2.08921 3.3145 0
M  V30 5158 H 509.06 -1.80326 3.58167 0
M  V30 5159 H 505.65 -0.53614 4.25233 0
M  V30 5160 H 509.834 0.141826 4.96097 0
M  V30 5161 H 505.09 1.08003 6.01785 0
M  V30 5162 H 509.264 1.75381 6.73954 0
M  V30 5163 H 506.891 2.22897 7.26788 0
M  V30 5164 N 508.466 -1.55915 -0.229846 0
M  V30 5165 C 509.396 -1.94754 -1.28815 0
M  V30 5166 C 510.377 -0.814657 -1.49323 0
M  V30 5167 O 511.562 -1.07631 -1.61645 0
M  V30 5168 C 508.692 -2.25705 -2.63959 0
M  V30 5169 C 507.646 -3.41406 -2.5812 0
M  V30 5170 C 506.972 -3.57941 -3.97218 0
M  V30 5171 C 508.272 -4.76616 -2.13623 0
M  V30 5172 H 509.966 -2.83404 -0.965547 0
M  V30 5173 H 507.512 -1.36353 -0.463028 0
M  V30 5174 H 509.465 -2.51467 -3.38146 0
M  V30 5175 H 508.189 -1.339 -2.9789 0
M  V30 5176 H 506.848 -3.1568 -1.86391 0
M  V30 5177 H 506.496 -2.63526 -4.28443 0
M  V30 5178 H 506.196 -4.35757 -3.94195 0
M  V30 5179 H 507.72 -3.86042 -4.73079 0
M  V30 5180 H 509.134 -5.01637 -2.77549 0
M  V30 5181 H 507.531 -5.57655 -2.21677 0
M  V30 5182 H 508.601 -4.7253 -1.08829 0
M  V30 5183 N 509.944 0.496216 -1.49584 0
M  V30 5184 C 510.876 1.61404 -1.62731 0
M  V30 5185 C 511.889 1.54613 -0.50978 0
M  V30 5186 O 513.078 1.60458 -0.782017 0
M  V30 5187 C 510.178 3.00212 -1.57245 0
M  V30 5188 C 509.351 3.32138 -2.84611 0
M  V30 5189 C 508.41 4.5038 -2.72112 0
M  V30 5190 O 507.436 4.51926 -3.46051 0
M  V30 5191 N 508.638 5.50575 -1.83977 0
M  V30 5192 H 511.403 1.50552 -2.59141 0
M  V30 5193 H 508.964 0.684182 -1.46733 0
M  V30 5194 H 510.956 3.77241 -1.4653 0
M  V30 5195 H 509.526 3.04964 -0.686729 0
M  V30 5196 H 508.746 2.4396 -3.09641 0
M  V30 5197 H 510.034 3.50268 -3.69039 0
M  V30 5198 H 509.432 5.52128 -1.23171 0
M  V30 5199 H 507.989 6.26687 -1.79182 0
M  V30 5200 N 511.423 1.38739 0.74761 0
M  V30 5201 C 512.834 1.31507 1.32524 0
M  V30 5202 C 513.185 -0.0263963 1.96182 0
M  V30 5203 O 512.31 -0.92849 1.95469 0
M  V30 5204 C 512.905 2.38162 2.40966 0
M  V30 5205 C 511.464 2.34489 2.94434 0
M  V30 5206 C 510.611 2.20712 1.67873 0
M  V30 5207 H 513.562 1.4901 0.546043 0
M  V30 5208 H 513.583 2.04222 3.21051 0
M  V30 5209 H 513.095 3.35783 1.94605 0
M  V30 5210 H 511.196 1.40467 3.45108 0
M  V30 5211 H 511.309 3.28861 3.48407 0
M  V30 5212 H 509.673 1.67667 1.91729 0
M  V30 5213 H 510.456 3.20285 1.23582 0
M  V30 5214 N 512.901 -0.976442 1.23707 0
M  V30 5215 C 514.178 -1.69296 0.979699 0
M  V30 5216 C 514.558 -2.0508 -0.500555 0
M  V30 5217 O 513.906 -1.74708 -1.47273 0
M  V30 5218 C 514.116 -2.93143 1.89389 0
M  V30 5219 C 515.464 -3.65572 2.15968 0
M  V30 5220 O 516.488 -3.03184 1.86971 0
M  V30 5221 O 515.347 -4.77859 2.65167 0
M  V30 5222 H 512.441 -0.739708 0.369812 0
M  V30 5223 H 514.987 -1.03131 1.34767 0
M  V30 5224 H 513.759 -2.63327 2.89439 0
M  V30 5225 H 513.382 -3.67044 1.52854 0
M  V30 5226 N 514.379 -1.04941 -1.1758 0
M  V30 5227 C 515.656 -0.671918 -1.83697 0
M  V30 5228 C 516.036 0.847929 -1.93322 0
M  V30 5229 O 515.384 1.75287 -1.46583 0
M  V30 5230 C 515.594 -1.35797 -3.21497 0
M  V30 5231 C 516.942 -1.4944 -3.97433 0
M  V30 5232 O 517.966 -1.31678 -3.30967 0
M  V30 5233 O 516.825 -1.78463 -5.1654 0
M  V30 5234 H 513.919 -0.236212 -0.792548 0
M  V30 5235 H 516.465 -1.14884 -1.24899 0
M  V30 5236 H 515.237 -2.39498 -3.09446 0
M  V30 5237 H 514.86 -0.870236 -3.8796 0
M  V30 5238 N 515.857 1.33968 -0.830081 0
M  V30 5239 C 516.804 2.29387 -0.255008 0
M  V30 5240 C 517.774 1.53923 0.624243 0
M  V30 5241 O 518.959 1.82262 0.564372 0
M  V30 5242 C 516.099 3.4034 0.571209 0
M  V30 5243 C 515.212 4.30729 -0.331083 0
M  V30 5244 C 514.347 5.2879 0.505389 0
M  V30 5245 C 513.386 6.10819 -0.395843 0
M  V30 5246 N 512.523 7.00948 0.401979 0
M  V30 5247 H 517.363 2.77972 -1.07404 0
M  V30 5248 H 514.9 1.36785 -0.541133 0
M  V30 5249 H 516.858 4.03361 1.06562 0
M  V30 5250 H 515.488 2.9297 1.35529 0
M  V30 5251 H 514.54 3.68507 -0.943759 0
M  V30 5252 H 515.852 4.88181 -1.02377 0
M  V30 5253 H 515.006 5.97297 1.06399 0
M  V30 5254 H 513.745 4.71894 1.23155 0
M  V30 5255 H 512.75 5.41238 -0.966529 0
M  V30 5256 H 513.975 6.69797 -1.12023 0
M  V30 5257 H 511.921 6.46512 1.11168 0
M  V30 5258 H 511.838 7.55643 -0.232167 0
M  V30 5259 H 513.106 7.73774 0.943102 0
M  V30 5260 N 517.335 0.585699 1.46312 0
M  V30 5261 C 518.282 -0.145835 2.30339 0
M  V30 5262 C 519.252 -0.881215 1.40797 0
M  V30 5263 O 520.437 -0.871293 1.69744 0
M  V30 5264 C 517.577 -1.15161 3.25318 0
M  V30 5265 C 516.69 -0.419367 4.2996 0
M  V30 5266 C 515.825 -1.41293 5.12064 0
M  V30 5267 C 514.864 -0.667261 6.08452 0
M  V30 5268 N 514.001 -1.60903 6.83414 0
M  V30 5269 H 518.841 0.576755 2.92365 0
M  V30 5270 H 516.378 0.296237 1.44086 0
M  V30 5271 H 518.336 -1.74763 3.78832 0
M  V30 5272 H 516.966 -1.84188 2.65094 0
M  V30 5273 H 516.018 0.291751 3.7928 0
M  V30 5274 H 517.33 0.163433 4.98532 0
M  V30 5275 H 516.484 -2.08167 5.6987 0
M  V30 5276 H 515.223 -2.02966 4.43459 0
M  V30 5277 H 514.228 0.0152356 5.49798 0
M  V30 5278 H 515.453 -0.0558817 6.79077 0
M  V30 5279 H 513.399 -2.21381 6.17516 0
M  V30 5280 H 513.316 -1.07911 7.48259 0
M  V30 5281 H 514.584 -2.26802 7.45775 0
M  V30 5282 N 518.813 -1.54241 0.323641 0
M  V30 5283 C 520.038 -2.05452 -0.283605 0
M  V30 5284 C 520.463 -1.19823 -1.44997 0
M  V30 5285 O 519.821 -0.207358 -1.8011 0
M  V30 5286 C 519.869 -3.53823 -0.695795 0
M  V30 5287 O 518.973 -3.71134 -1.79815 0
M  V30 5288 H 518.314 -0.662024 -0.0511917 0
M  V30 5289 H 520.844 -1.99079 0.472073 0
M  V30 5290 H 520.854 -3.96094 -0.978434 0
M  V30 5291 H 519.529 -4.15602 0.157287 0
M  V30 5292 H 518.106 -3.40768 -1.51431 0
M  V30 5293 N 520.291 -0.0518155 -1.57515 0
M  V30 5294 C 521.221 0.920283 -2.146 0
M  V30 5295 C 522.202 1.32406 -1.06783 0
M  V30 5296 O 523.387 1.39866 -1.34726 0
M  V30 5297 C 520.517 2.1949 -2.6915 0
M  V30 5298 C 519.471 1.93116 -3.81956 0
M  V30 5299 C 518.797 3.27037 -4.23026 0
M  V30 5300 C 520.097 1.25225 -5.07066 0
M  V30 5301 H 521.791 0.444801 -2.96077 0
M  V30 5302 H 519.337 0.212508 -1.42423 0
M  V30 5303 H 521.29 2.87894 -3.07725 0
M  V30 5304 H 520.014 2.69244 -1.84865 0
M  V30 5305 H 518.673 1.27123 -3.43854 0
M  V30 5306 H 518.321 3.74595 -3.3569 0
M  V30 5307 H 518.021 3.10189 -4.99056 0
M  V30 5308 H 519.545 3.96673 -4.64202 0
M  V30 5309 H 520.959 1.83666 -5.43083 0
M  V30 5310 H 519.356 1.18702 -5.88243 0
M  V30 5311 H 520.426 0.228382 -4.84362 0
M  V30 5312 N 521.769 1.56035 0.221574 0
M  V30 5313 C 522.701 1.889 1.29805 0
M  V30 5314 C 523.714 0.777269 1.43047 0
M  V30 5315 O 524.903 1.05557 1.43945 0
M  V30 5316 C 522.003 2.0825 2.67367 0
M  V30 5317 C 521.176 3.39267 2.76073 0
M  V30 5318 C 520.235 3.48049 3.94649 0
M  V30 5319 O 519.261 4.2108 3.82988 0
M  V30 5320 N 520.463 2.79191 5.08953 0
M  V30 5321 H 523.228 2.81831 1.01938 0
M  V30 5322 H 520.789 1.5658 0.411612 0
M  V30 5323 H 522.781 2.11441 3.45072 0
M  V30 5324 H 521.351 1.21944 2.87834 0
M  V30 5325 H 520.571 3.48175 1.84846 0
M  V30 5326 H 521.859 4.25575 2.7886 0
M  V30 5327 H 521.257 2.19635 5.21322 0
M  V30 5328 H 519.814 2.88043 5.84701 0
M  V30 5329 N 523.247 -0.488276 1.49845 0
M  V30 5330 C 524.179 -1.60539 1.63584 0
M  V30 5331 C 525.192 -1.5434 0.517972 0
M  V30 5332 O 526.381 -1.60041 0.790516 0
M  V30 5333 C 523.481 -2.99374 1.58835 0
M  V30 5334 C 522.654 -3.30624 2.86368 0
M  V30 5335 C 521.713 -4.4893 2.74496 0
M  V30 5336 O 520.739 -4.50085 3.48443 0
M  V30 5337 N 521.941 -5.49591 1.86894 0
M  V30 5338 H 524.706 -1.49176 2.59936 0
M  V30 5339 H 522.267 -0.67639 1.47094 0
M  V30 5340 H 524.259 -3.76459 1.48529 0
M  V30 5341 H 522.829 -3.04595 0.702892 0
M  V30 5342 H 522.049 -2.42314 3.1093 0
M  V30 5343 H 523.337 -3.48305 3.70892 0
M  V30 5344 H 522.735 -5.51467 1.26097 0
M  V30 5345 H 521.292 -6.25728 1.82503 0
M  V30 5346 N 524.725 -1.39134 -0.740242 0
M  V30 5347 C 525.953 -1.39334 -1.5295 0
M  V30 5348 C 526.368 0.0135008 -1.88795 0
M  V30 5349 O 525.725 0.983524 -1.5373 0
M  V30 5350 C 525.776 -2.2614 -2.82034 0
M  V30 5351 O 525.497 -3.61345 -2.47712 0
M  V30 5352 C 526.998 -2.34666 -3.76094 0
M  V30 5353 H 524.218 -0.476103 -0.472828 0
M  V30 5354 H 526.762 -1.82883 -0.9151 0
M  V30 5355 H 524.917 -1.86018 -3.39818 0
M  V30 5356 H 525.331 -4.07194 -3.30595 0
M  V30 5357 H 526.805 -2.99663 -4.63579 0
M  V30 5358 H 527.282 -1.36426 -4.17474 0
M  V30 5359 H 527.888 -2.75236 -3.2423 0
M  V30 5360 N 526.204 0.969867 -1.24223 0
M  V30 5361 C 527.429 1.75289 -1.10853 0
M  V30 5362 C 527.854 1.85091 0.335079 0
M  V30 5363 O 527.212 1.32024 1.24255 0
M  V30 5364 C 527.26 3.15255 -1.75062 0
M  V30 5365 O 526.364 3.99589 -1.01992 0
M  V30 5366 H 525.705 0.538904 -0.387915 0
M  V30 5367 H 528.235 1.21675 -1.64488 0
M  V30 5368 H 528.245 3.65787 -1.80731 0
M  V30 5369 H 526.92 3.07436 -2.801 0
M  V30 5370 H 525.497 3.58077 -1.04094 0
M  V30 5371 N 527.682 1.05563 1.17022 0
M  V30 5372 C 528.93 0.76642 1.87004 0
M  V30 5373 C 529.251 -0.708854 1.8166 0
M  V30 5374 O 528.521 -1.51242 1.2451 0
M  V30 5375 H 527.101 0.280516 0.692329 0
M  V30 5376 H 529.763 1.33557 1.41945 0
M  V30 5377 H 528.859 1.08472 2.92644 0
M  V30 5378 N 529.16 -1.33526 0.837174 0
M  V30 5379 C 530.571 -1.80182 0.489017 0
M  V30 5380 C 530.922 -1.69285 -0.991826 0
M  V30 5381 O 530.047 -1.24113 -1.77271 0
M  V30 5382 C 530.642 -3.27149 0.880866 0
M  V30 5383 C 529.201 -3.71828 0.584872 0
M  V30 5384 C 528.348 -2.54974 1.09011 0
M  V30 5385 H 531.299 -1.21071 1.02603 0
M  V30 5386 H 531.32 -3.80024 0.190239 0
M  V30 5387 H 530.832 -3.35048 1.95869 0
M  V30 5388 H 528.933 -3.69457 -0.48295 0
M  V30 5389 H 529.046 -4.65366 1.13892 0
M  V30 5390 H 527.41 -2.4952 0.511047 0
M  V30 5391 H 528.193 -2.65637 2.17467 0
M  V30 5392 N 530.638 -0.59345 -1.46 0
M  V30 5393 C 531.601 0.123538 -2.28867 0
M  V30 5394 C 532.601 0.808628 -1.38989 0
M  V30 5395 O 533.791 0.658945 -1.61256 0
M  V30 5396 C 530.923 1.1847 -3.19653 0
M  V30 5397 H 532.116 -0.604843 -2.93737 0
M  V30 5398 H 529.669 -0.351875 -1.52288 0
M  V30 5399 H 530.404 1.94431 -2.59552 0
M  V30 5400 H 530.189 0.69783 -3.8584 0
M  V30 5401 H 531.679 1.68726 -3.81997 0
M  V30 5402 N 532.116 1.54067 -0.331816 0
M  V30 5403 C 533.344 2.05131 0.269996 0
M  V30 5404 C 533.759 1.20749 1.45138 0
M  V30 5405 O 533.116 0.240069 1.80914 0
M  V30 5406 C 533.167 3.54728 0.696456 0
M  V30 5407 O 532.888 4.35906 -0.43794 0
M  V30 5408 C 534.389 4.21916 1.36021 0
M  V30 5409 H 531.609 0.668807 0.0542042 0
M  V30 5410 H 534.153 1.98777 -0.4804 0
M  V30 5411 H 532.308 3.61342 1.39681 0
M  V30 5412 H 532.722 5.24404 -0.100334 0
M  V30 5413 H 534.196 5.28015 1.60947 0
M  V30 5414 H 534.673 3.73538 2.31011 0
M  V30 5415 H 535.279 4.19463 0.702212 0
M  V30 5416 N 533.594 0.0601682 1.57485 0
M  V30 5417 C 534.557 -0.896373 2.10945 0
M  V30 5418 C 535.557 -1.23402 1.03095 0
M  V30 5419 O 536.747 -1.16921 1.29132 0
M  V30 5420 C 533.879 -2.20346 2.60116 0
M  V30 5421 H 535.072 -0.432778 2.96761 0
M  V30 5422 H 532.625 -0.188372 1.55161 0
M  V30 5423 H 533.36 -2.71268 1.7772 0
M  V30 5424 H 533.145 -1.9714 3.38937 0
M  V30 5425 H 534.635 -2.88846 3.01592 0
M  V30 5426 N 535.072 -1.5615 -0.213296 0
M  V30 5427 C 536.019 -1.93086 -1.26437 0
M  V30 5428 C 536.989 -0.789086 -1.4616 0
M  V30 5429 O 538.174 -1.04569 -1.59593 0
M  V30 5430 C 535.314 -2.26003 -2.608 0
M  V30 5431 C 534.427 -3.53156 -2.48807 0
M  V30 5432 C 533.562 -3.7548 -3.7575 0
M  V30 5433 C 532.601 -4.96119 -3.58514 0
M  V30 5434 N 531.738 -5.14791 -4.77425 0
M  V30 5435 H 536.578 -2.82707 -0.942376 0
M  V30 5436 H 534.115 -1.39919 -0.454001 0
M  V30 5437 H 536.073 -2.431 -3.39055 0
M  V30 5438 H 534.703 -1.39546 -2.91079 0
M  V30 5439 H 533.755 -3.44207 -1.61944 0
M  V30 5440 H 535.067 -4.41565 -2.31996 0
M  V30 5441 H 534.221 -3.92718 -4.62447 0
M  V30 5442 H 532.96 -2.85368 -3.95495 0
M  V30 5443 H 531.965 -4.78823 -2.70201 0
M  V30 5444 H 533.19 -5.87724 -3.40231 0
M  V30 5445 H 531.136 -4.27623 -4.97468 0
M  V30 5446 H 531.053 -5.97347 -4.63371 0
M  V30 5447 H 532.321 -5.36471 -5.65525 0
M  V30 5448 N 536.55 0.480323 -1.50102 0
M  V30 5449 C 537.827 1.24159 -1.51142 0
M  V30 5450 C 538.207 2.09605 -0.250818 0
M  V30 5451 O 537.555 2.15274 0.766118 0
M  V30 5452 C 537.765 2.08057 -2.80202 0
M  V30 5453 C 539.113 2.66556 -3.30504 0
M  V30 5454 O 540.137 2.18308 -2.81461 0
M  V30 5455 O 538.996 3.54442 -4.15973 0
M  V30 5456 H 536.09 0.562928 -0.605839 0
M  V30 5457 H 538.636 0.492899 -1.62384 0
M  V30 5458 H 537.408 1.45032 -3.6343 0
M  V30 5459 H 537.031 2.90079 -2.71919 0
M  V30 5460 N 538.028 1.39524 0.732853 0
M  V30 5461 C 539.253 1.40329 1.52717 0
M  V30 5462 C 539.678 0.000286574 1.881 0
M  V30 5463 O 539.036 -0.987262 1.52062 0
M  V30 5464 C 539.084 2.28464 2.78992 0
M  V30 5465 O 538.188 1.716 3.75003 0
M  V30 5466 H 537.529 0.47778 0.461109 0
M  V30 5467 H 540.059 1.83546 0.903996 0
M  V30 5468 H 540.069 2.43051 3.27705 0
M  V30 5469 H 538.744 3.30425 2.52572 0
M  V30 5470 H 537.321 1.66267 3.33781 0
M  V30 5471 N 539.506 -0.963266 1.24736 0
M  V30 5472 C 540.753 -1.7068 1.0897 0
M  V30 5473 C 541.081 -1.90934 -0.370751 0
M  V30 5474 O 540.336 -1.47155 -1.29011 0
M  V30 5475 C 540.635 -3.09944 1.7796 0
M  V30 5476 C 540.301 -3.09518 3.27887 0
M  V30 5477 C 538.963 -3.09109 3.68789 0
M  V30 5478 C 541.315 -3.03509 4.23712 0
M  V30 5479 C 538.643 -3.00429 5.03944 0
M  V30 5480 C 540.995 -2.96371 5.5888 0
M  V30 5481 C 539.659 -2.94293 5.99123 0
M  V30 5482 H 538.929 -0.624564 0.398749 0
M  V30 5483 H 541.576 -1.12603 1.54896 0
M  V30 5484 H 539.881 -3.71513 1.2444 0
M  V30 5485 H 541.578 -3.66278 1.63222 0
M  V30 5486 H 538.168 -3.10603 2.95337 0
M  V30 5487 H 542.352 -3.0295 3.93109 0
M  V30 5488 H 537.608 -2.97183 5.34314 0
M  V30 5489 H 541.782 -2.90681 6.32833 0
M  V30 5490 H 539.409 -2.87322 7.03811 0
M  V30 5491 N 540.985 -1.06182 -1.16461 0
M  V30 5492 C 541.932 -0.671613 -2.20812 0
M  V30 5493 C 542.902 0.331186 -1.62765 0
M  V30 5494 O 544.087 0.22033 -1.89524 0
M  V30 5495 C 541.227 -0.063029 -3.45042 0
M  V30 5496 C 540.34 -1.11587 -4.1734 0
M  V30 5497 C 539.475 -0.473546 -5.29085 0
M  V30 5498 C 538.514 -1.51 -5.93182 0
M  V30 5499 N 537.651 -0.891118 -6.96422 0
M  V30 5500 H 542.491 -1.56589 -2.53542 0
M  V30 5501 H 540.028 -0.782951 -1.24532 0
M  V30 5502 H 541.986 0.307344 -4.16066 0
M  V30 5503 H 540.616 0.794663 -3.12866 0
M  V30 5504 H 539.668 -1.60396 -3.44931 0
M  V30 5505 H 540.98 -1.90221 -4.61104 0
M  V30 5506 H 540.134 -0.0501432 -6.06679 0
M  V30 5507 H 538.873 0.344687 -4.8648 0
M  V30 5508 H 537.878 -1.94331 -5.14311 0
M  V30 5509 H 539.103 -2.33031 -6.37866 0
M  V30 5510 H 537.049 -0.0935753 -6.55933 0
M  V30 5511 H 536.966 -1.61486 -7.38551 0
M  V30 5512 H 538.234 -0.492822 -7.77941 0
M  V30 5513 N 542.463 1.3308 -0.844243 0
M  V30 5514 C 543.712 1.96868 -0.438833 0
M  V30 5515 C 544.025 1.67599 1.00846 0
M  V30 5516 O 545.231 2.25043 1.51881 0
M  V30 5517 C 543.687 3.5234 -0.73377 0
M  V30 5518 C 543.295 3.90481 -2.1961 0
M  V30 5519 C 545.039 4.22653 -0.395574 0
M  V30 5520 C 542.946 5.38954 -2.43481 0
M  V30 5521 H 541.876 0.736749 -0.160364 0
M  V30 5522 H 544.527 1.51623 -1.03358 0
M  V30 5523 H 542.909 3.95941 -0.068589 0
M  V30 5524 H 544.083 3.57922 -2.90221 0
M  V30 5525 H 542.398 3.33165 -2.4978 0
M  V30 5526 H 544.995 5.31848 -0.551477 0
M  V30 5527 H 545.338 4.11004 0.661921 0
M  V30 5528 H 545.871 3.84601 -1.01621 0
M  V30 5529 H 542.61 5.55612 -3.47816 0
M  V30 5530 H 542.13 5.72954 -1.77437 0
M  V30 5531 H 543.809 6.05907 -2.26905 0
M  V30 5532 N 543.941 0.601185 1.45683 0
M  V30 5533 C 544.851 -0.123395 2.34275 0
M  V30 5534 C 545.867 -0.86702 1.5086 0
M  V30 5535 O 547.043 -0.826049 1.8368 0
M  V30 5536 C 544.108 -1.11237 3.2837 0
M  V30 5537 C 543.169 -0.371405 4.2769 0
M  V30 5538 C 542.402 -1.31327 5.1729 0
M  V30 5539 O 542.625 -2.55078 5.10188 0
M  V30 5540 O 541.559 -0.813811 5.96373 0
M  V30 5541 H 545.385 0.604483 2.97623 0
M  V30 5542 H 542.97 0.361477 1.44961 0
M  V30 5543 H 544.852 -1.68214 3.8637 0
M  V30 5544 H 543.527 -1.82139 2.67595 0
M  V30 5545 H 542.434 0.24067 3.73325 0
M  V30 5546 H 543.767 0.296998 4.91303 0
M  V30 5547 N 545.419 -1.53889 0.339982 0
M  V30 5548 C 546.329 -2.28604 -0.526988 0
M  V30 5549 C 547.345 -1.33578 -1.11503 0
M  V30 5550 O 548.521 -1.66612 -1.13148 0
M  V30 5551 C 545.586 -3.04164 -1.66389 0
M  V30 5552 C 544.647 -4.14809 -1.10599 0
M  V30 5553 C 543.88 -4.86756 -2.18871 0
M  V30 5554 O 544.103 -4.58343 -3.39526 0
M  V30 5555 O 543.037 -5.73289 -1.83366 0
M  V30 5556 H 546.863 -3.03594 0.0802707 0
M  V30 5557 H 544.448 -1.4903 0.105141 0
M  V30 5558 H 546.33 -3.51427 -2.32544 0
M  V30 5559 H 545.005 -2.32035 -2.25703 0
M  V30 5560 H 543.912 -3.71857 -0.409067 0
M  V30 5561 H 545.245 -4.89029 -0.557771 0
M  V30 5562 N 546.897 -0.0685191 -1.57451 0
M  V30 5563 C 548.308 0.464634 -1.80826 0
M  V30 5564 C 548.659 1.69847 -0.982169 0
M  V30 5565 O 547.784 2.15439 -0.203734 0
M  V30 5566 C 548.379 0.849721 -3.27971 0
M  V30 5567 C 546.938 1.32776 -3.52204 0
M  V30 5568 C 546.085 0.311332 -2.75547 0
M  V30 5569 H 549.036 -0.294248 -1.55948 0
M  V30 5570 H 549.057 1.71138 -3.39841 0
M  V30 5571 H 548.569 -0.0484736 -3.8807 0
M  V30 5572 H 546.67 2.24456 -2.97406 0
M  V30 5573 H 546.783 1.30794 -4.60901 0
M  V30 5574 H 545.147 0.787915 -2.42206 0
M  V30 5575 H 545.93 -0.579078 -3.38381 0
M  V30 5576 N 548.375 1.56261 0.205012 0
M  V30 5577 C 549.325 1.90155 1.25798 0
M  V30 5578 C 550.309 0.766227 1.41484 0
M  V30 5579 O 551.501 1.02893 1.44021 0
M  V30 5580 C 548.63 2.23603 2.60493 0
M  V30 5581 C 547.716 3.43568 2.48639 0
M  V30 5582 N 548.107 4.61747 2.06455 0
M  V30 5583 C 546.405 3.4751 2.79558 0
M  V30 5584 C 547.106 5.43907 2.06253 0
M  V30 5585 N 546.082 4.84051 2.47377 0
M  V30 5586 H 549.884 2.79031 0.922986 0
M  V30 5587 H 547.398 1.57048 0.413501 0
M  V30 5588 H 549.395 2.46067 3.36537 0
M  V30 5589 H 548.055 1.36049 2.94823 0
M  V30 5590 H 549.066 4.86598 1.77321 0
M  V30 5591 H 545.743 2.70345 3.18151 0
M  V30 5592 H 547.133 6.48542 1.75622 0
M  V30 5593 N 549.853 -0.472356 1.50355 0
M  V30 5594 C 550.763 -1.59637 1.7191 0
M  V30 5595 C 551.779 -1.63247 0.602195 0
M  V30 5596 O 552.955 -1.81139 0.880369 0
M  V30 5597 C 550.02 -2.9586 1.80742 0
M  V30 5598 C 549.081 -3.02649 3.04471 0
M  V30 5599 C 548.314 -4.32374 3.12872 0
M  V30 5600 O 548.537 -5.22807 2.28099 0
M  V30 5601 O 547.471 -4.44728 4.05587 0
M  V30 5602 H 551.297 -1.44373 2.67189 0
M  V30 5603 H 548.882 -0.651717 1.34436 0
M  V30 5604 H 550.764 -3.7677 1.88739 0
M  V30 5605 H 549.439 -3.11325 0.88647 0
M  V30 5606 H 548.346 -2.20821 3.01975 0
M  V30 5607 H 549.679 -2.92119 3.9614 0
M  V30 5608 N 551.331 -1.39911 -0.725443 0
M  V30 5609 C 552.294 -1.39156 -1.82121 0
M  V30 5610 C 553.294 -0.287018 -1.58218 0
M  V30 5611 O 554.484 -0.545421 -1.65441 0
M  V30 5612 C 551.616 -1.1736 -3.20062 0
M  V30 5613 H 552.809 -2.36672 -1.84191 0
M  V30 5614 H 550.362 -1.25615 -0.930079 0
M  V30 5615 H 551.097 -0.205648 -3.23647 0
M  V30 5616 H 550.882 -1.97358 -3.3881 0
M  V30 5617 H 552.372 -1.19596 -4.00108 0
M  V30 5618 N 552.809 0.956637 -1.25245 0
M  V30 5619 C 553.756 2.053 -1.05454 0
M  V30 5620 C 554.726 1.66062 0.0356889 0
M  V30 5621 O 555.911 1.90415 -0.121099 0
M  V30 5622 C 553.051 3.38391 -0.677191 0
M  V30 5623 C 552.164 3.90758 -1.84206 0
M  V30 5624 C 551.299 5.12165 -1.40926 0
M  V30 5625 C 550.338 5.56757 -2.54338 0
M  V30 5626 N 549.475 6.69376 -2.11848 0
M  V30 5627 H 554.315 2.21562 -1.99284 0
M  V30 5628 H 551.852 1.08578 -0.992434 0
M  V30 5629 H 553.81 4.1488 -0.43938 0
M  V30 5630 H 552.44 3.22021 0.224127 0
M  V30 5631 H 551.492 3.10808 -2.19323 0
M  V30 5632 H 552.804 4.19802 -2.69383 0
M  V30 5633 H 551.958 5.96065 -1.13098 0
M  V30 5634 H 550.697 4.84832 -0.528175 0
M  V30 5635 H 549.702 4.71423 -2.82913 0
M  V30 5636 H 550.927 5.861 -3.43022 0
M  V30 5637 H 548.873 6.43756 -1.26153 0
M  V30 5638 H 548.79 6.97927 -2.90574 0
M  V30 5639 H 550.058 7.5669 -1.87191 0
M  V30 5640 N 554.287 1.06798 1.15896 0
M  V30 5641 C 555.698 0.811355 1.68149 0
M  V30 5642 C 556.049 -0.664339 1.8461 0
M  V30 5643 O 555.174 -1.51485 1.54535 0
M  V30 5644 C 555.769 1.46624 3.05429 0
M  V30 5645 C 554.328 1.25726 3.54781 0
M  V30 5646 C 553.475 1.53949 2.3064 0
M  V30 5647 H 556.426 1.23078 1.00187 0
M  V30 5648 H 556.447 0.88437 3.7008 0
M  V30 5649 H 555.959 2.54025 2.93416 0
M  V30 5650 H 554.06 0.20322 3.72045 0
M  V30 5651 H 554.173 1.97354 4.36564 0
M  V30 5652 H 552.537 0.96025 2.35905 0
M  V30 5653 H 553.32 2.6252 2.2122 0
M  V30 5654 N 555.766 -1.3263 0.851289 0
M  V30 5655 C 557.043 -1.91982 0.374448 0
M  V30 5656 C 557.423 -1.77568 -1.14161 0
M  V30 5657 O 556.771 -1.1717 -1.96172 0
M  V30 5658 C 556.981 -3.38862 0.835088 0
M  V30 5659 C 558.329 -4.15999 0.850309 0
M  V30 5660 O 559.353 -3.47566 0.779505 0
M  V30 5661 O 558.212 -5.38189 0.949481 0
M  V30 5662 H 555.306 -0.819846 0.10854 0
M  V30 5663 H 557.852 -1.41422 0.937966 0
M  V30 5664 H 556.624 -3.43281 1.87814 0
M  V30 5665 H 556.247 -3.96821 0.248833 0
M  V30 5666 N 557.244 -0.608902 -1.45362 0
M  V30 5667 C 558.191 0.109172 -2.30542 0
M  V30 5668 C 559.161 0.858704 -1.42181 0
M  V30 5669 O 560.346 0.844178 -1.71109 0
M  V30 5670 C 557.486 1.09971 -3.27109 0
M  V30 5671 C 556.599 0.350911 -4.30572 0
M  V30 5672 C 555.734 1.33129 -5.14247 0
M  V30 5673 C 554.773 0.570377 -6.09437 0
M  V30 5674 N 553.91 1.5001 -6.85887 0
M  V30 5675 H 558.75 -0.623195 -2.91411 0
M  V30 5676 H 556.287 -0.319122 -1.43597 0
M  V30 5677 H 558.245 1.68714 -3.81564 0
M  V30 5678 H 556.875 1.79947 -2.67991 0
M  V30 5679 H 555.927 -0.352054 -3.78767 0
M  V30 5680 H 557.239 -0.242725 -4.98209 0
M  V30 5681 H 556.393 1.99074 -5.73109 0
M  V30 5682 H 555.132 1.95885 -4.46632 0
M  V30 5683 H 554.137 -0.102702 -5.49704 0
M  V30 5684 H 555.362 -0.0521607 -6.7908 0
M  V30 5685 H 553.308 2.11529 -6.2096 0
M  V30 5686 H 553.225 0.959934 -7.49881 0
M  V30 5687 H 554.493 2.14909 -7.49289 0
M  V30 5688 N 558.722 1.53707 -0.348139 0
M  V30 5689 C 559.655 2.21481 0.549667 0
M  V30 5690 C 560.633 1.20046 1.09671 0
M  V30 5691 O 561.817 1.48883 1.15612 0
M  V30 5692 C 558.944 2.89585 1.75664 0
M  V30 5693 C 557.99 4.04948 1.33864 0
M  V30 5694 S 558.823 5.34325 0.354577 0
M  V30 5695 C 559.979 6.05934 1.56828 0
M  V30 5696 H 560.212 2.97289 -0.0259755 0
M  V30 5697 H 557.745 1.53833 -0.132216 0
M  V30 5698 H 559.703 3.29441 2.44906 0
M  V30 5699 H 558.364 2.13535 2.30351 0
M  V30 5700 H 557.557 4.51552 2.23868 0
M  V30 5701 H 557.159 3.66893 0.725651 0
M  V30 5702 H 559.451 6.29606 2.50205 0
M  V30 5703 H 560.394 6.98799 1.14395 0
M  V30 5704 H 560.802 5.36151 1.76642 0
M  V30 5705 N 560.2 0.0768682 1.57412 0
M  V30 5706 C 561.163 -0.873949 2.11884 0
M  V30 5707 C 562.163 -1.22301 1.04398 0
M  V30 5708 O 563.353 -1.15545 1.30365 0
M  V30 5709 C 560.485 -2.17575 2.62438 0
M  V30 5710 H 561.678 -0.401278 2.97203 0
M  V30 5711 H 559.231 -0.171904 1.55352 0
M  V30 5712 H 559.966 -2.69368 1.80587 0
M  V30 5713 H 559.751 -1.93534 3.41009 0
M  V30 5714 H 561.241 -2.85631 3.04639 0
M  V30 5715 N 561.678 -1.56367 -0.196722 0
M  V30 5716 C 562.588 -1.97617 -1.2643 0
M  V30 5717 C 563.604 -0.883598 -1.49895 0
M  V30 5718 O 564.78 -1.18921 -1.62541 0
M  V30 5719 C 561.845 -2.30595 -2.58895 0
M  V30 5720 C 560.906 -3.53551 -2.43516 0
M  V30 5721 C 560.139 -3.84946 -3.69665 0
M  V30 5722 O 560.362 -3.17655 -4.73763 0
M  V30 5723 O 559.296 -4.78379 -3.65291 0
M  V30 5724 H 563.122 -2.88648 -0.944233 0
M  V30 5725 H 560.707 -1.43901 -0.401592 0
M  V30 5726 H 562.589 -2.52889 -3.37083 0
M  V30 5727 H 561.264 -1.42732 -2.90533 0
M  V30 5728 H 560.171 -3.36507 -1.63445 0
M  V30 5729 H 561.504 -4.41875 -2.16812 0
M  V30 5730 N 563.156 0.464375 -1.50603 0
M  V30 5731 C 564.119 1.54393 -1.69397 0
M  V30 5732 C 565.119 1.50566 -0.564504 0
M  V30 5733 O 566.309 1.53066 -0.831645 0
M  V30 5734 C 563.441 2.9401 -1.72543 0
M  V30 5735 H 564.634 1.39044 -2.65719 0
M  V30 5736 H 562.187 0.69122 -1.40185 0
M  V30 5737 H 562.922 3.14795 -0.77938 0
M  V30 5738 H 562.707 2.98195 -2.54602 0
M  V30 5739 H 564.197 3.72375 -1.89015 0
M  V30 5740 N 564.634 1.40294 0.718013 0
M  V30 5741 C 566.045 1.34289 1.29705 0
M  V30 5742 C 566.396 0.0152228 1.96194 0
M  V30 5743 O 565.521 -0.88682 1.97394 0
M  V30 5744 C 566.116 2.43219 2.3586 0
M  V30 5745 C 564.675 2.40682 2.89394 0
M  V30 5746 C 563.822 2.24223 1.63154 0
M  V30 5747 H 566.773 1.50135 0.514312 0
M  V30 5748 H 566.794 2.10986 3.16647 0
M  V30 5749 H 566.306 3.39836 1.87439 0
M  V30 5750 H 564.407 1.47756 3.42051 0
M  V30 5751 H 564.52 3.36177 3.41353 0
M  V30 5752 H 562.884 1.71696 1.88129 0
M  V30 5753 H 563.667 3.22834 1.16761 0
M  V30 5754 N 566.112 -0.949982 1.2575 0
M  V30 5755 C 567.523 -1.50989 1.09815 0
M  V30 5756 C 567.874 -1.93497 -0.324556 0
M  V30 5757 O 566.999 -1.79068 -1.21506 0
M  V30 5758 C 567.594 -2.74394 1.98729 0
M  V30 5759 C 566.153 -3.26682 1.86965 0
M  V30 5760 C 565.3 -1.99498 1.92603 0
M  V30 5761 H 568.251 -0.766387 1.38968 0
M  V30 5762 H 568.272 -3.48383 1.53001 0
M  V30 5763 H 567.784 -2.43425 3.02268 0
M  V30 5764 H 565.885 -3.62461 0.863279 0
M  V30 5765 H 565.998 -3.94383 2.72027 0
M  V30 5766 H 564.362 -2.15005 1.36546 0
M  V30 5767 H 565.145 -1.70871 2.97755 0
M  V30 5768 N 567.59 -1.07411 -1.15328 0
M  V30 5769 C 568.815 -0.818856 -1.90551 0
M  V30 5770 C 569.24 0.622194 -1.77512 0
M  V30 5771 O 568.598 1.43484 -1.10824 0
M  V30 5772 C 568.646 -1.23267 -3.38877 0
M  V30 5773 O 567.75 -0.378345 -4.10661 0
M  V30 5774 H 567.091 -0.29827 -0.593238 0
M  V30 5775 H 569.621 -1.43289 -1.46046 0
M  V30 5776 H 569.631 -1.20912 -3.89672 0
M  V30 5777 H 568.306 -2.28226 -3.47686 0
M  V30 5778 H 566.883 -0.464437 -3.69996 0
M  V30 5779 N 569.068 1.32177 -0.85831 0
M  V30 5780 C 569.978 2.32561 -0.308606 0
M  V30 5781 C 570.994 1.64209 0.575462 0
M  V30 5782 O 572.17 1.95719 0.474961 0
M  V30 5783 C 569.235 3.43207 0.490909 0
M  V30 5784 C 568.296 4.27243 -0.419733 0
M  V30 5785 C 567.529 5.32605 0.341719 0
M  V30 5786 O 567.752 5.48332 1.57125 0
M  V30 5787 O 566.686 6.0118 -0.294379 0
M  V30 5788 H 570.512 2.81477 -1.14037 0
M  V30 5789 H 568.097 1.35866 -0.621349 0
M  V30 5790 H 569.979 4.10677 0.944574 0
M  V30 5791 H 568.654 2.96474 1.29941 0
M  V30 5792 H 567.561 3.62569 -0.921652 0
M  V30 5793 H 568.894 4.7751 -1.19352 0
M  V30 5794 N 570.547 0.616602 1.45037 0
M  V30 5795 C 571.51 -0.0871112 2.29034 0
M  V30 5796 C 572.51 -0.786414 1.40258 0
M  V30 5797 O 573.7 -0.633207 1.62284 0
M  V30 5798 C 570.832 -1.13369 3.21497 0
M  V30 5799 H 572.025 0.651497 2.92738 0
M  V30 5800 H 569.578 0.376058 1.51709 0
M  V30 5801 H 570.313 -1.90277 2.62612 0
M  V30 5802 H 570.098 -0.636358 3.86902 0
M  V30 5803 H 571.588 -1.62627 3.84633 0
M  V30 5804 N 572.025 -1.5352 0.356285 0
M  V30 5805 C 572.958 -2.2177 -0.537913 0
M  V30 5806 C 573.936 -1.20626 -1.09033 0
M  V30 5807 O 575.12 -1.49494 -1.1482 0
M  V30 5808 C 572.247 -2.90513 -1.74126 0
M  V30 5809 C 571.293 -4.05652 -1.31715 0
M  V30 5810 S 572.126 -5.34505 -0.326236 0
M  V30 5811 C 573.282 -6.06757 -1.53612 0
M  V30 5812 H 573.515 -2.97271 0.0417411 0
M  V30 5813 H 571.048 -1.53761 0.140372 0
M  V30 5814 H 573.006 -3.30735 -2.43155 0
M  V30 5815 H 571.667 -2.14754 -2.29215 0
M  V30 5816 H 570.86 -4.52733 -2.21471 0
M  V30 5817 H 570.462 -3.67272 -0.706183 0
M  V30 5818 H 572.754 -6.30924 -2.46863 0
M  V30 5819 H 573.697 -6.99395 -1.10687 0
M  V30 5820 H 574.105 -5.3708 -1.73796 0
M  V30 5821 N 573.503 -0.0852151 -1.57369 0
M  V30 5822 C 574.731 0.58946 -1.98325 0
M  V30 5823 C 575.146 1.62333 -0.96403 0
M  V30 5824 O 574.503 1.82438 0.0476395 0
M  V30 5825 C 574.554 1.24604 -3.39347 0
M  V30 5826 O 574.275 0.253532 -4.37366 0
M  V30 5827 C 575.776 2.00726 -3.95252 0
M  V30 5828 H 572.996 0.158783 -0.651942 0
M  V30 5829 H 575.54 -0.161584 -2.03861 0
M  V30 5830 H 573.695 1.94808 -3.34856 0
M  V30 5831 H 574.109 0.726207 -5.19448 0
M  V30 5832 H 575.583 2.42039 -4.96106 0
M  V30 5833 H 576.06 2.86919 -3.32527 0
M  V30 5834 H 576.666 1.3536 -4.03185 0
M  V30 5835 N 574.981 1.5647 0.188427 0
M  V30 5836 C 575.911 1.98101 1.23606 0
M  V30 5837 C 576.892 0.853961 1.47111 0
M  V30 5838 O 578.077 1.11879 1.58735 0
M  V30 5839 C 575.207 2.32624 2.57882 0
M  V30 5840 C 574.161 3.48129 2.48978 0
M  V30 5841 C 573.487 3.68347 3.87588 0
M  V30 5842 C 574.787 4.82112 2.00911 0
M  V30 5843 H 576.481 2.85864 0.890068 0
M  V30 5844 H 574.027 1.37532 0.426714 0
M  V30 5845 H 575.98 2.60343 3.3136 0
M  V30 5846 H 574.704 1.41751 2.94235 0
M  V30 5847 H 573.363 3.20511 1.77956 0
M  V30 5848 H 573.011 2.74793 4.21305 0
M  V30 5849 H 572.711 4.46055 3.82503 0
M  V30 5850 H 574.235 3.98449 4.62678 0
M  V30 5851 H 575.649 5.08819 2.64151 0
M  V30 5852 H 574.046 5.63337 2.06814 0
M  V30 5853 H 575.116 4.75249 0.96262 0
M  V30 5854 N 576.459 -0.456382 1.50847 0
M  V30 5855 C 577.87 -1.03685 1.55262 0
M  V30 5856 C 578.221 -1.92779 0.364771 0
M  V30 5857 O 577.346 -2.10043 -0.52068 0
M  V30 5858 C 577.941 -1.88718 2.81374 0
M  V30 5859 C 576.5 -2.41847 2.88422 0
M  V30 5860 C 575.647 -1.20564 2.49719 0
M  V30 5861 H 578.598 -0.238399 1.56899 0
M  V30 5862 H 578.619 -2.73957 2.6406 0
M  V30 5863 H 578.131 -1.23847 3.67809 0
M  V30 5864 H 576.232 -3.10228 2.06372 0
M  V30 5865 H 576.345 -2.75947 3.9165 0
M  V30 5866 H 574.709 -1.54504 2.02486 0
M  V30 5867 H 575.492 -0.573326 3.38479 0
M  V30 5868 N 577.937 -1.40673 -0.710563 0
M  V30 5869 C 578.884 -1.41336 -1.82463 0
M  V30 5870 C 579.854 -0.269648 -1.63897 0
M  V30 5871 O 581.039 -0.468463 -1.8496 0
M  V30 5872 C 578.179 -1.28665 -3.20218 0
M  V30 5873 C 577.292 -2.52784 -3.5032 0
M  V30 5874 C 576.427 -2.32517 -4.77608 0
M  V30 5875 C 575.466 -3.52187 -5.0063 0
M  V30 5876 N 574.603 -3.31084 -6.19135 0
M  V30 5877 H 579.443 -2.36558 -1.8123 0
M  V30 5878 H 576.98 -1.17483 -0.885226 0
M  V30 5879 H 578.938 -1.19324 -3.99772 0
M  V30 5880 H 577.568 -0.370602 -3.20666 0
M  V30 5881 H 576.62 -2.72634 -2.65283 0
M  V30 5882 H 577.932 -3.41845 -3.63241 0
M  V30 5883 H 577.086 -2.20558 -5.65189 0
M  V30 5884 H 575.825 -1.40889 -4.66906 0
M  V30 5885 H 574.83 -3.64617 -4.11502 0
M  V30 5886 H 576.055 -4.44749 -5.13201 0
M  V30 5887 H 574.001 -2.42143 -6.09674 0
M  V30 5888 H 573.918 -4.13713 -6.32754 0
M  V30 5889 H 575.186 -3.22868 -7.0949 0
M  V30 5890 N 579.415 0.9433 -1.26252 0
M  V30 5891 C 580.692 1.66639 -1.02424 0
M  V30 5892 C 581.072 2.06335 0.446006 0
M  V30 5893 O 580.42 1.78551 1.42589 0
M  V30 5894 C 580.63 2.88019 -1.97094 0
M  V30 5895 C 581.978 3.59718 -2.25584 0
M  V30 5896 O 583.002 2.9812 -1.94943 0
M  V30 5897 O 581.861 4.7066 -2.77743 0
M  V30 5898 H 578.955 0.729643 -0.389294 0
M  V30 5899 H 581.501 0.995218 -1.37454 0
M  V30 5900 H 580.273 2.5556 -2.96319 0
M  V30 5901 H 579.896 3.62863 -1.62532 0
M  V30 5902 N 580.893 1.08022 1.14757 0
M  V30 5903 C 581.856 0.71048 2.1791 0
M  V30 5904 C 582.856 -0.252731 1.58801 0
M  V30 5905 O 584.046 -0.0327915 1.74169 0
M  V30 5906 C 581.178 0.0483203 3.40866 0
M  V30 5907 H 582.371 1.62384 2.52134 0
M  V30 5908 H 579.924 0.877595 1.29337 0
M  V30 5909 H 580.659 -0.876959 3.12218 0
M  V30 5910 H 580.444 0.741189 3.85031 0
M  V30 5911 H 581.934 -0.195471 4.17142 0
M  V30 5912 N 582.371 -1.3172 0.865308 0
M  V30 5913 C 583.321 -2.26157 0.289305 0
M  V30 5914 C 584.305 -1.50428 -0.570977 0
M  V30 5915 O 585.497 -1.71978 -0.418617 0
M  V30 5916 C 582.626 -3.39457 -0.512237 0
M  V30 5917 C 581.712 -4.22561 0.361028 0
M  V30 5918 N 582.103 -4.84501 1.45231 0
M  V30 5919 C 580.401 -4.45739 0.152641 0
M  V30 5920 C 581.102 -5.46586 1.99043 0
M  V30 5921 N 580.078 -5.28119 1.28809 0
M  V30 5922 H 583.88 -2.71581 1.12344 0
M  V30 5923 H 581.394 -1.45932 0.712565 0
M  V30 5924 H 583.391 -4.06133 -0.941379 0
M  V30 5925 H 582.051 -2.95577 -1.34404 0
M  V30 5926 H 583.062 -4.84293 1.83524 0
M  V30 5927 H 579.739 -4.1251 -0.643583 0
M  V30 5928 H 581.129 -6.05817 2.90577 0
M  V30 5929 N 583.85 -0.624285 -1.44708 0
M  V30 5930 C 585.099 -0.123539 -2.01321 0
M  V30 5931 C 585.412 1.25966 -1.49639 0
M  V30 5932 O 586.618 1.85405 -1.98336 0
M  V30 5933 C 585.074 -0.170124 -3.59498 0
M  V30 5934 C 584.682 -1.55421 -4.20176 0
M  V30 5935 C 586.426 0.274513 -4.23611 0
M  V30 5936 C 584.332 -1.55628 -5.70556 0
M  V30 5937 H 583.263 -0.0424183 -0.752806 0
M  V30 5938 H 585.913 -0.782076 -1.65999 0
M  V30 5939 H 584.296 0.555385 -3.92086 0
M  V30 5940 H 585.47 -2.30276 -3.99136 0
M  V30 5941 H 583.784 -1.94235 -3.68323 0
M  V30 5942 H 586.382 0.292402 -5.339 0
M  V30 5943 H 586.725 1.3005 -3.95465 0
M  V30 5944 H 587.258 -0.398275 -3.95801 0
M  V30 5945 H 583.997 -2.56041 -6.03426 0
M  V30 5946 H 583.517 -0.850563 -5.93739 0
M  V30 5947 H 585.196 -1.28721 -6.34066 0
M  V30 5948 N 585.328 1.53329 -0.364422 0
M  V30 5949 C 586.739 1.86345 0.115039 0
M  V30 5950 C 587.09 1.28505 1.4826 0
M  V30 5951 O 586.215 0.606639 2.07723 0
M  V30 5952 C 586.81 3.38114 0.215522 0
M  V30 5953 C 585.369 3.70932 0.639237 0
M  V30 5954 C 584.516 2.76471 -0.214261 0
M  V30 5955 H 587.467 1.47593 -0.583258 0
M  V30 5956 H 587.488 3.66031 1.0393 0
M  V30 5957 H 587 3.80182 -0.779948 0
M  V30 5958 H 585.101 3.3442 1.64298 0
M  V30 5959 H 585.214 4.77302 0.41465 0
M  V30 5960 H 583.578 2.52724 0.316678 0
M  V30 5961 H 584.361 3.21373 -1.20725 0
M  V30 5962 N 586.806 0.0935595 1.57322 0
M  V30 5963 C 588.052 -0.571355 1.94585 0
M  V30 5964 C 588.385 -1.67929 0.975366 0
M  V30 5965 O 587.66 -1.94498 0.00816206 0
M  V30 5966 C 587.943 -1.12797 3.41978 0
M  V30 5967 C 587.796 -0.0251881 4.49793 0
M  V30 5968 C 589.115 -2.02682 3.90651 0
M  V30 5969 H 586.234 -0.206223 0.70756 0
M  V30 5970 H 588.876 0.163956 1.89291 0
M  V30 5971 H 587.026 -1.75461 3.4662 0
M  V30 5972 H 588.698 0.608979 4.57263 0
M  V30 5973 H 586.941 0.641399 4.29032 0
M  V30 5974 H 587.612 -0.455433 5.50118 0
M  V30 5975 H 590.088 -1.49925 3.88152 0
M  V30 5976 H 588.964 -2.38555 4.94351 0
M  V30 5977 H 589.225 -2.94362 3.29854 0
M  V30 5978 N 588.284 -1.56567 -0.180126 0
M  V30 5979 C 589.53 -1.81761 -0.899497 0
M  V30 5980 C 589.863 -0.670015 -1.82276 0
M  V30 5981 O 589.138 0.328575 -1.91705 0
M  V30 5982 C 589.421 -3.17296 -1.7028 0
M  V30 5983 C 589.274 -4.4257 -0.803255 0
M  V30 5984 C 590.593 -3.49678 -2.67233 0
M  V30 5985 H 587.712 -0.661192 -0.325567 0
M  V30 5986 H 590.354 -1.89272 -0.16612 0
M  V30 5987 H 588.504 -3.11023 -2.32802 0
M  V30 5988 H 590.176 -4.60902 -0.191585 0
M  V30 5989 H 588.419 -4.33658 -0.110796 0
M  V30 5990 H 589.09 -5.33935 -1.40064 0
M  V30 5991 H 591.566 -3.56347 -2.14839 0
M  V30 5992 H 590.442 -4.45605 -3.20511 0
M  V30 5993 H 590.703 -2.73932 -3.47007 0
M  V30 5994 N 589.762 0.448376 -1.51087 0
M  V30 5995 C 590.672 1.56882 -1.74428 0
M  V30 5996 C 591.688 1.62268 -0.62809 0
M  V30 5997 O 592.864 1.79716 -0.909075 0
M  V30 5998 C 589.929 2.92947 -1.85426 0
M  V30 5999 C 588.99 2.97766 -3.09247 0
M  V30 6000 C 588.223 4.27341 -3.19711 0
M  V30 6001 O 588.446 5.19112 -2.36387 0
M  V30 6002 O 587.38 4.38219 -4.12611 0
M  V30 6003 H 591.206 1.40104 -2.69452 0
M  V30 6004 H 588.791 0.630247 -1.35456 0
M  V30 6005 H 590.673 3.73719 -1.94709 0
M  V30 6006 H 589.348 3.09876 -0.935887 0
M  V30 6007 H 588.255 2.15989 -3.0545 0
M  V30 6008 H 589.588 2.8578 -4.00738 0
M  V30 6009 N 591.24 1.41047 0.703093 0
M  V30 6010 C 592.15 1.44645 1.84703 0
M  V30 6011 C 593.166 0.337778 1.7069 0
M  V30 6012 O 594.342 0.584327 1.92737 0
M  V30 6013 C 591.407 1.31928 3.20618 0
M  V30 6014 C 590.468 2.53047 3.46794 0
M  V30 6015 C 589.701 2.40927 4.76224 0
M  V30 6016 O 589.924 1.42978 5.5219 0
M  V30 6017 O 588.858 3.30543 5.03016 0
M  V30 6018 H 592.684 2.41139 1.84624 0
M  V30 6019 H 590.269 1.22504 0.855167 0
M  V30 6020 H 592.151 1.27092 4.01778 0
M  V30 6021 H 590.826 0.385469 3.21397 0
M  V30 6022 H 589.733 2.6346 2.65593 0
M  V30 6023 H 591.066 3.45231 3.50822 0
M  V30 6024 N 592.718 -0.936591 1.26751 0
M  V30 6025 C 593.668 -2.0219 1.05371 0
M  V30 6026 C 594.652 -1.60893 -0.0154112 0
M  V30 6027 O 595.844 -1.75843 0.202085 0
M  V30 6028 C 592.973 -3.36222 0.693541 0
M  V30 6029 C 592.059 -3.8399 1.80035 0
M  V30 6030 N 592.45 -4.0436 3.03852 0
M  V30 6031 C 590.748 -4.12945 1.685 0
M  V30 6032 C 591.449 -4.44 3.75818 0
M  V30 6033 N 590.425 -4.50966 3.03531 0
M  V30 6034 H 594.227 -2.15958 1.99347 0
M  V30 6035 H 591.741 -1.12277 1.17335 0
M  V30 6036 H 593.738 -4.13625 0.521513 0
M  V30 6037 H 592.398 -3.23821 -0.238693 0
M  V30 6038 H 593.409 -3.9092 3.39709 0
M  V30 6039 H 590.086 -4.09308 0.822986 0
M  V30 6040 H 591.476 -4.67914 4.82189 0
M  V30 6041 N 594.196 -1.08629 -1.14182 0
M  V30 6042 C 595.442 -0.818556 -1.85546 0
M  V30 6043 C 595.775 0.654076 -1.82854 0
M  V30 6044 O 595.05 1.48099 -1.26083 0
M  V30 6045 C 595.333 -1.34397 -3.3408 0
M  V30 6046 C 595.186 -2.8821 -3.45333 0
M  V30 6047 C 596.505 -0.971069 -4.29253 0
M  V30 6048 H 593.624 -0.298821 -0.673702 0
M  V30 6049 H 596.266 -1.34629 -1.34071 0
M  V30 6050 H 594.416 -0.895064 -3.78049 0
M  V30 6051 H 596.088 -3.41488 -3.10134 0
M  V30 6052 H 594.331 -3.25756 -2.86471 0
M  V30 6053 H 595.002 -3.20047 -4.49749 0
M  V30 6054 H 597.478 -1.35809 -3.93313 0
M  V30 6055 H 596.354 -1.36586 -5.31635 0
M  V30 6056 H 596.615 0.121659 -4.41933 0
M  V30 6057 N 595.674 1.31259 -0.872281 0
M  V30 6058 C 596.607 2.26544 -0.274394 0
M  V30 6059 C 597.585 1.51213 0.597776 0
M  V30 6060 O 598.769 1.80277 0.550687 0
M  V30 6061 C 595.896 3.33139 0.611256 0
M  V30 6062 C 594.942 4.26077 -0.189876 0
M  V30 6063 S 595.775 5.11971 -1.56989 0
M  V30 6064 C 596.931 6.2208 -0.690427 0
M  V30 6065 H 597.164 2.76908 -1.0821 0
M  V30 6066 H 594.697 1.3906 -0.670939 0
M  V30 6067 H 596.655 3.95024 1.11654 0
M  V30 6068 H 595.316 2.81525 1.39294 0
M  V30 6069 H 594.509 5.01657 0.485433 0
M  V30 6070 H 594.111 3.68701 -0.627339 0
M  V30 6071 H 596.403 6.77429 0.098001 0
M  V30 6072 H 597.346 6.93768 -1.41742 0
M  V30 6073 H 597.754 5.63915 -0.256953 0
M  V30 6074 N 597.152 0.631951 1.44375 0
M  V30 6075 C 598.4 0.136497 2.01639 0
M  V30 6076 C 598.721 -1.24637 1.49969 0
M  V30 6077 O 597.991 -1.82827 0.70363 0
M  V30 6078 H 596.571 0.0474703 0.74549 0
M  V30 6079 H 599.233 0.818837 1.76865 0
M  V30 6080 H 598.329 0.104817 3.11924 0
M  V30 6081 N 598.631 -1.53133 0.372548 0
M  V30 6082 C 599.578 -2.25951 -0.470631 0
M  V30 6083 C 600.548 -1.26895 -1.07176 0
M  V30 6084 O 601.733 -1.55691 -1.10294 0
M  V30 6085 C 598.873 -3.05726 -1.6008 0
M  V30 6086 C 597.986 -4.19684 -1.02416 0
M  V30 6087 C 597.121 -4.86888 -2.124 0
M  V30 6088 C 596.16 -5.92866 -1.52238 0
M  V30 6089 N 595.297 -6.53732 -2.56084 0
M  V30 6090 H 600.137 -2.97587 0.156816 0
M  V30 6091 H 597.674 -1.4683 0.0891571 0
M  V30 6092 H 599.632 -3.50258 -2.26661 0
M  V30 6093 H 598.262 -2.36331 -2.1988 0
M  V30 6094 H 597.314 -3.79588 -0.248426 0
M  V30 6095 H 598.626 -4.95821 -0.544366 0
M  V30 6096 H 597.78 -5.34638 -2.86787 0
M  V30 6097 H 596.519 -4.10239 -2.63734 0
M  V30 6098 H 595.524 -5.4447 -0.763685 0
M  V30 6099 H 596.749 -6.71439 -1.0172 0
M  V30 6100 H 594.695 -5.79932 -3.06618 0
M  V30 6101 H 594.612 -7.25429 -2.12811 0
M  V30 6102 H 595.88 -7.0613 -3.30152 0
M  V30 6103 N 600.109 -0.101901 -1.5727 0
M  V30 6104 C 601.355 0.561027 -1.94885 0
M  V30 6105 C 601.688 1.6741 -0.984258 0
M  V30 6106 O 600.963 1.94491 -0.0184767 0
M  V30 6107 C 601.246 1.10982 -3.42571 0
M  V30 6108 C 601.099 0.00133418 -4.498 0
M  V30 6109 C 602.418 2.00608 -3.9172 0
M  V30 6110 H 599.537 0.202467 -0.708644 0
M  V30 6111 H 602.179 -0.173992 -1.89202 0
M  V30 6112 H 600.329 1.73621 -3.47546 0
M  V30 6113 H 602.001 -0.63322 -4.56933 0
M  V30 6114 H 600.244 -0.664143 -4.28686 0
M  V30 6115 H 600.915 0.426253 -5.50352 0
M  V30 6116 H 603.391 1.47864 -3.88941 0
M  V30 6117 H 602.267 2.3593 -4.95609 0
M  V30 6118 H 602.528 2.92608 -3.3141 0
M  V30 6119 N 601.587 1.56661 0.17182 0
M  V30 6120 C 602.517 1.99401 1.21498 0
M  V30 6121 C 603.498 0.869516 1.46197 0
M  V30 6122 O 604.683 1.13556 1.57539 0
M  V30 6123 C 601.813 2.35346 2.55401 0
M  V30 6124 C 600.767 3.5075 2.45272 0
M  V30 6125 C 600.093 3.72437 3.8366 0
M  V30 6126 C 601.393 4.84216 1.95787 0
M  V30 6127 H 603.087 2.86792 0.859699 0
M  V30 6128 H 600.633 1.37977 0.412103 0
M  V30 6129 H 602.586 2.63843 3.2858 0
M  V30 6130 H 601.31 1.44864 2.92715 0
M  V30 6131 H 599.969 3.2238 1.74547 0
M  V30 6132 H 599.617 2.79246 4.18367 0
M  V30 6133 H 599.317 4.50087 3.77751 0
M  V30 6134 H 600.841 4.03334 4.58426 0
M  V30 6135 H 602.255 5.11592 2.5874 0
M  V30 6136 H 600.652 5.65498 2.00827 0
M  V30 6137 H 601.722 4.76243 0.912159 0
M  V30 6138 N 603.065 -0.440357 1.51323 0
M  V30 6139 C 603.975 -1.55955 1.75258 0
M  V30 6140 C 604.991 -1.61933 0.636687 0
M  V30 6141 O 606.167 -1.79231 0.918593 0
M  V30 6142 C 603.232 -2.9196 1.86977 0
M  V30 6143 C 602.293 -2.96122 3.10822 0
M  V30 6144 C 601.526 -4.2564 3.21973 0
M  V30 6145 O 601.749 -5.17851 2.39137 0
M  V30 6146 O 600.683 -4.36025 4.14929 0
M  V30 6147 H 604.509 -1.38673 2.70191 0
M  V30 6148 H 602.094 -0.623055 1.35788 0
M  V30 6149 H 603.976 -3.72682 1.96688 0
M  V30 6150 H 602.651 -3.09375 0.952307 0
M  V30 6151 H 601.558 -2.14366 3.06591 0
M  V30 6152 H 602.891 -2.83651 4.02247 0
M  V30 6153 N 604.543 -1.41418 -0.695603 0
M  V30 6154 C 605.453 -1.45622 -1.83933 0
M  V30 6155 C 606.469 -0.346825 -1.70508 0
M  V30 6156 O 607.645 -0.59454 -1.92424 0
M  V30 6157 C 604.71 -1.33627 -3.19914 0
M  V30 6158 C 603.771 -2.54882 -3.45447 0
M  V30 6159 C 603.004 -2.43449 -4.7494 0
M  V30 6160 O 603.227 -1.45905 -5.51424 0
M  V30 6161 O 602.161 -3.33206 -5.01256 0
M  V30 6162 H 605.987 -2.42114 -1.83342 0
M  V30 6163 H 603.572 -1.22956 -0.848658 0
M  V30 6164 H 605.454 -1.29221 -4.01098 0
M  V30 6165 H 604.129 -0.402508 -3.21188 0
M  V30 6166 H 603.036 -2.64865 -2.64192 0
M  V30 6167 H 604.369 -3.47087 -3.48987 0
M  V30 6168 N 606.021 0.929856 -1.27246 0
M  V30 6169 C 606.931 2.0636 -1.11592 0
M  V30 6170 C 607.947 1.73938 -0.046496 0
M  V30 6171 O 609.123 1.9981 -0.252544 0
M  V30 6172 C 606.188 3.38213 -0.762437 0
M  V30 6173 C 605.249 3.84346 -1.9125 0
M  V30 6174 C 604.482 5.09906 -1.57579 0
M  V30 6175 O 604.705 5.68354 -0.482694 0
M  V30 6176 O 603.639 5.51359 -2.41426 0
M  V30 6177 H 607.465 2.22478 -2.0673 0
M  V30 6178 H 605.05 1.04865 -1.06413 0
M  V30 6179 H 606.932 4.1741 -0.57854 0
M  V30 6180 H 605.607 3.23307 0.159439 0
M  V30 6181 H 604.514 3.06045 -2.15144 0
M  V30 6182 H 605.847 4.0379 -2.81451 0
M  V30 6183 N 607.499 1.09233 1.13605 0
M  V30 6184 C 608.446 0.729921 2.18954 0
M  V30 6185 C 609.416 -0.287916 1.63586 0
M  V30 6186 O 610.601 -0.170003 1.90041 0
M  V30 6187 C 607.741 0.154489 3.44754 0
M  V30 6188 C 606.854 1.22613 4.14234 0
M  V30 6189 C 605.989 0.613657 5.27644 0
M  V30 6190 C 605.028 1.66674 5.8897 0
M  V30 6191 N 604.165 1.07545 6.93814 0
M  V30 6192 H 609.005 1.63257 2.49302 0
M  V30 6193 H 606.542 0.815693 1.22413 0
M  V30 6194 H 608.5 -0.196923 4.16735 0
M  V30 6195 H 607.13 -0.711433 3.14863 0
M  V30 6196 H 606.182 1.69485 3.40557 0
M  V30 6197 H 607.494 2.0238 4.55899 0
M  V30 6198 H 606.648 0.210976 6.06333 0
M  V30 6199 H 605.387 -0.215584 4.87223 0
M  V30 6200 H 604.392 2.07899 5.08978 0
M  V30 6201 H 605.617 2.49861 6.31464 0
M  V30 6202 H 603.563 0.267451 6.55455 0
M  V30 6203 H 603.48 1.81011 7.3401 0
M  V30 6204 H 604.748 0.698906 7.7636 0
M  V30 6205 N 608.977 -1.30795 0.87923 0
M  V30 6206 C 609.887 -2.32041 0.345565 0
M  V30 6207 C 610.903 -1.65103 -0.549265 0
M  V30 6208 O 612.079 -1.9645 -0.443763 0
M  V30 6209 C 609.144 -3.43944 -0.436245 0
M  V30 6210 C 608.205 -4.26521 0.48765 0
M  V30 6211 C 607.438 -5.33081 -0.256943 0
M  V30 6212 O 607.661 -5.50762 -1.48381 0
M  V30 6213 O 606.595 -6.00635 0.389985 0
M  V30 6214 H 610.421 -2.79627 1.18501 0
M  V30 6215 H 608.006 -1.3486 0.642885 0
M  V30 6216 H 609.888 -4.12128 -0.879119 0
M  V30 6217 H 608.563 -2.98504 -1.25208 0
M  V30 6218 H 607.47 -3.61057 0.979216 0
M  V30 6219 H 608.803 -4.75551 1.26933 0
M  V30 6220 N 610.455 -0.639598 -1.44038 0
M  V30 6221 C 611.418 0.0506628 -2.29144 0
M  V30 6222 C 612.418 0.764001 -1.41491 0
M  V30 6223 O 613.608 0.607309 -1.63271 0
M  V30 6224 C 610.74 1.0824 -3.2326 0
M  V30 6225 H 611.933 -0.697987 -2.91664 0
M  V30 6226 H 609.486 -0.400146 -1.51091 0
M  V30 6227 H 610.221 1.86075 -2.65606 0
M  V30 6228 H 610.006 0.574725 -3.87865 0
M  V30 6229 H 611.496 1.56487 -3.87171 0
M  V30 6230 N 611.933 1.52934 -0.380664 0
M  V30 6231 C 613.182 2.00651 0.205477 0
M  V30 6232 C 613.495 1.27164 1.48623 0
M  V30 6233 O 614.701 1.65547 2.15189 0
M  V30 6234 C 613.157 3.57479 0.416726 0
M  V30 6235 C 612.765 4.39857 -0.850268 0
M  V30 6236 C 614.509 4.13509 0.959702 0
M  V30 6237 C 612.416 5.88269 -0.607773 0
M  V30 6238 H 611.346 0.749684 0.0805614 0
M  V30 6239 H 613.997 1.76508 -0.501732 0
M  V30 6240 H 612.379 3.77836 1.18557 0
M  V30 6241 H 613.553 4.31269 -1.62307 0
M  V30 6242 H 611.868 3.95005 -1.31756 0
M  V30 6243 H 614.465 5.22039 1.15669 0
M  V30 6244 H 614.808 3.69054 1.92626 0
M  V30 6245 H 615.341 3.9701 0.250645 0
M  V30 6246 H 612.08 6.3703 -1.54509 0
M  V30 6247 H 611.6 5.99667 0.126247 0
M  V30 6248 H 613.279 6.46558 -0.239014 0
M  V30 6249 N 613.412 0.11024 1.57214 0
M  V30 6250 C 614.36 -0.860586 2.16094 0
M  V30 6251 C 615.354 -1.28156 1.1078 0
M  V30 6252 O 616.56 -1.25433 1.29099 0
M  V30 6253 H 612.935 -0.295606 0.691463 0
M  V30 6254 H 614.906 -0.33942 2.96463 0
M  V30 6255 C 613.655 -2.10421 2.768 0
M  V30 6256 H 612.978 -1.7892 3.5753 0
M  V30 6257 H 614.418 -2.76375 3.21547 0
M  V30 6258 C 612.877 -2.88823 1.73444 0
M  V30 6259 O 613.407 -3.839 1.18251 0
M  V30 6260 N 611.613 -2.52649 1.43586 0
M  V30 6261 H 611.16 -1.754 1.8866 0
M  V30 6262 H 611.118 -3.05403 0.746735 0
M  V30 6263 N 614.89 -1.56749 -0.16351 0
M  V30 6264 C 615.822 -1.93587 -1.22705 0
M  V30 6265 C 616.835 -0.829824 -1.40063 0
M  V30 6266 O 618.024 -1.10826 -1.39928 0
M  V30 6267 C 615.124 -2.1803 -2.59454 0
M  V30 6268 C 614.297 -3.4928 -2.63292 0
M  V30 6269 C 613.356 -3.62457 -3.8146 0
M  V30 6270 O 612.382 -4.35004 -3.67096 0
M  V30 6271 N 613.584 -2.97888 -4.9824 0
M  V30 6272 H 616.349 -2.8542 -0.914081 0
M  V30 6273 H 613.91 -1.58 -0.353214 0
M  V30 6274 H 615.902 -2.24102 -3.36987 0
M  V30 6275 H 614.472 -1.32543 -2.8311 0
M  V30 6276 H 613.692 -3.54795 -1.71796 0
M  V30 6277 H 614.98 -4.35632 -2.62873 0
M  V30 6278 H 614.378 -2.38833 -5.12811 0
M  V30 6279 H 612.935 -3.09545 -5.73607 0
M  V30 6280 N 616.368 0.432326 -1.51554 0
M  V30 6281 C 617.278 1.55023 -1.76082 0
M  V30 6282 C 618.294 1.61593 -0.645265 0
M  V30 6283 O 619.47 1.78742 -0.928086 0
M  V30 6284 C 616.535 2.90964 -1.88523 0
M  V30 6285 C 615.596 2.9447 -3.12388 0
M  V30 6286 C 614.829 4.23926 -3.24225 0
M  V30 6287 O 615.052 5.16576 -2.4188 0
M  V30 6288 O 613.986 4.33818 -4.17235 0
M  V30 6289 H 617.812 1.37238 -2.70923 0
M  V30 6290 H 615.397 0.615845 -1.36117 0
M  V30 6291 H 617.279 3.71633 -1.98662 0
M  V30 6292 H 615.954 3.08865 -0.9687 0
M  V30 6293 H 614.861 2.12737 -3.07723 0
M  V30 6294 H 616.194 2.81514 -4.03746 0
M  V30 6295 N 617.846 1.41785 0.688094 0
M  V30 6296 C 619.074 1.44915 1.47673 0
M  V30 6297 C 619.489 0.0565786 1.88715 0
M  V30 6298 O 618.846 -0.92579 1.57275 0
M  V30 6299 C 618.897 2.36452 2.73446 0
M  V30 6300 O 618.618 3.7029 2.34131 0
M  V30 6301 C 620.119 2.48463 3.67125 0
M  V30 6302 H 617.339 0.493324 0.454832 0
M  V30 6303 H 619.883 1.86153 0.846594 0
M  V30 6304 H 618.038 1.98502 3.3268 0
M  V30 6305 H 618.452 4.19183 3.15255 0
M  V30 6306 H 619.926 3.16662 4.52138 0
M  V30 6307 H 620.403 1.51826 4.12123 0
M  V30 6308 H 621.009 2.8708 3.13792 0
M  V30 6309 N 619.324 -0.923095 1.27737 0
M  V30 6310 C 620.57 -1.67375 1.14514 0
M  V30 6311 C 620.903 -1.91751 -0.307424 0
M  V30 6312 O 620.178 -1.51119 -1.22447 0
M  V30 6313 C 620.461 -3.03745 1.9342 0
M  V30 6314 C 620.314 -2.86581 3.46686 0
M  V30 6315 C 621.633 -4.04144 1.74228 0
M  V30 6316 H 618.752 -0.607427 0.417374 0
M  V30 6317 H 621.394 -1.07089 1.56946 0
M  V30 6318 H 619.544 -3.55204 1.5736 0
M  V30 6319 H 621.216 -2.42203 3.92601 0
M  V30 6320 H 619.459 -2.21829 3.72793 0
M  V30 6321 H 620.13 -3.83381 3.97143 0
M  V30 6322 H 622.606 -3.61712 2.05678 0
M  V30 6323 H 621.482 -4.97543 2.31824 0
M  V30 6324 H 621.743 -4.36661 0.691373 0
M  V30 6325 N 620.802 -1.09834 -1.13024 0
M  V30 6326 C 621.734 -0.699379 -2.18269 0
M  V30 6327 C 622.747 0.260841 -1.60697 0
M  V30 6328 O 623.936 0.0462538 -1.7844 0
M  V30 6329 C 621.036 -0.0104537 -3.38898 0
M  V30 6330 C 620.209 -0.993275 -4.25973 0
M  V30 6331 C 619.268 -0.336982 -5.2512 0
M  V30 6332 O 618.294 -0.985892 -5.60597 0
M  V30 6333 N 619.496 0.90716 -5.73368 0
M  V30 6334 H 622.261 -1.60486 -2.5311 0
M  V30 6335 H 619.822 -0.986337 -1.28386 0
M  V30 6336 H 621.814 0.43991 -4.02302 0
M  V30 6337 H 620.384 0.797335 -3.0226 0
M  V30 6338 H 619.604 -1.62208 -3.5928 0
M  V30 6339 H 620.892 -1.65876 -4.81002 0
M  V30 6340 H 620.29 1.45384 -5.46699 0
M  V30 6341 H 618.847 1.30077 -6.38689 0
M  V30 6342 N 622.28 1.30327 -0.886154 0
M  V30 6343 C 623.212 2.27079 -0.311072 0
M  V30 6344 C 624.225 1.53758 0.53502 0
M  V30 6345 O 625.414 1.74947 0.354378 0
M  V30 6346 C 622.514 3.33965 0.576228 0
M  V30 6347 C 621.687 4.36735 -0.241064 0
M  V30 6348 C 620.746 5.23028 0.576916 0
M  V30 6349 O 619.772 5.692 -0.000802231 0
M  V30 6350 N 620.974 5.49016 1.88579 0
M  V30 6351 H 623.739 2.77065 -1.14259 0
M  V30 6352 H 621.3 1.43519 -0.749258 0
M  V30 6353 H 623.292 3.88618 1.12953 0
M  V30 6354 H 621.862 2.839 1.30842 0
M  V30 6355 H 621.082 3.81932 -0.975805 0
M  V30 6356 H 622.37 5.02451 -0.801272 0
M  V30 6357 H 621.768 5.13288 2.37806 0
M  V30 6358 H 620.325 6.06539 2.38651 0
M  V30 6359 N 623.758 0.647228 1.43697 0
M  V30 6360 C 625.174 0.314256 1.56476 0
M  V30 6361 C 625.374 -1.18191 1.63196 0
M  V30 6362 O 624.43 -1.96655 1.58376 0
M  V30 6363 C 625.743 1.02034 2.82859 0
M  V30 6364 C 627.291 1.00002 2.96595 0
M  V30 6365 C 627.766 1.68689 4.25803 0
M  V30 6366 N 629.257 1.65424 4.32654 0
M  V30 6367 C 629.992 2.1545 5.31384 0
M  V30 6368 N 629.488 2.73738 6.36427 0
M  V30 6369 N 631.281 2.05985 5.22998 0
M  V30 6370 H 623.432 1.61821 1.37578 0
M  V30 6371 H 625.695 0.680184 0.660344 0
M  V30 6372 H 625.401 2.07542 2.83935 0
M  V30 6373 H 625.275 0.568146 3.72897 0
M  V30 6374 H 627.662 -0.0466319 2.95063 0
M  V30 6375 H 627.743 1.49086 2.07863 0
M  V30 6376 H 627.387 2.73308 4.28095 0
M  V30 6377 H 627.317 1.17076 5.13421 0
M  V30 6378 H 629.808 1.22884 3.57363 0
M  V30 6379 H 630.121 3.09602 7.08072 0
M  V30 6380 H 628.466 2.77796 6.37067 0
M  V30 6381 H 631.657 1.60157 4.39849 0
M  V30 6382 H 631.83 2.45281 5.99784 0
M  V30 6383 N 625.236 -1.5273 0.388769 0
M  V30 6384 C 626.513 -1.93981 -0.251133 0
M  V30 6385 C 626.893 -1.32418 -1.64404 0
M  V30 6386 O 626.241 -0.492074 -2.23139 0
M  V30 6387 C 626.451 -3.47891 -0.27802 0
M  V30 6388 C 627.799 -4.21559 -0.507229 0
M  V30 6389 O 628.823 -3.54394 -0.358252 0
M  V30 6390 O 627.682 -5.40626 -0.799094 0
M  V30 6391 H 624.776 -0.812157 -0.15598 0
M  V30 6392 H 627.322 -1.63809 0.443237 0
M  V30 6393 H 626.094 -3.8503 0.697669 0
M  V30 6394 H 625.717 -3.84364 -1.01733 0
M  V30 6395 N 626.714 -0.118576 -1.57153 0
M  V30 6396 C 627.942 0.54726 -1.99531 0
M  V30 6397 C 628.357 1.60251 -0.998246 0
M  V30 6398 O 627.714 1.82498 0.00893106 0
M  V30 6399 C 627.765 1.17378 -3.41913 0
M  V30 6400 O 627.486 0.160703 -4.37805 0
M  V30 6401 C 628.987 1.92297 -3.9942 0
M  V30 6402 H 626.207 0.144919 -0.655164 0
M  V30 6403 H 628.751 -0.20479 -2.03472 0
M  V30 6404 H 626.906 1.87661 -3.38913 0
M  V30 6405 H 627.32 0.61586 -5.20872 0
M  V30 6406 H 628.794 2.31462 -5.01128 0
M  V30 6407 H 629.271 2.79801 -3.38538 0
M  V30 6408 H 629.877 1.26777 -4.05965 0
M  V30 6409 N 628.193 1.56834 0.155195 0
M  V30 6410 C 629.44 1.82898 0.869179 0
M  V30 6411 C 629.768 0.698194 1.81537 0
M  V30 6412 O 629.023 -0.313404 1.93174 0
M  V30 6413 C 629.322 3.15239 1.68402 0
M  V30 6414 C 628.988 4.42123 0.885341 0
M  V30 6415 C 627.65 4.76583 0.664971 0
M  V30 6416 C 630.002 5.20178 0.326234 0
M  V30 6417 C 627.33 5.86566 -0.125346 0
M  V30 6418 C 629.682 6.3099 -0.45108 0
M  V30 6419 C 628.346 6.64006 -0.682102 0
M  V30 6420 H 627.616 0.66927 0.318055 0
M  V30 6421 H 630.263 1.91036 0.133241 0
M  V30 6422 H 628.568 3.02515 2.48982 0
M  V30 6423 H 630.265 3.32618 2.23978 0
M  V30 6424 H 626.855 4.15102 1.06716 0
M  V30 6425 H 631.039 4.93936 0.483787 0
M  V30 6426 H 626.295 6.10594 -0.313915 0
M  V30 6427 H 630.469 6.9067 -0.89149 0
M  V30 6428 H 628.096 7.49065 -1.29636 0
M  V30 6429 N 629.671 -0.424282 1.51781 0
M  V30 6430 C 630.899 -1.1947 1.68921 0
M  V30 6431 C 631.314 -1.84683 0.39213 0
M  V30 6432 O 630.671 -1.71261 -0.630554 0
M  V30 6433 C 630.722 -2.26909 2.81416 0
M  V30 6434 O 630.443 -1.64361 4.061 0
M  V30 6435 C 631.944 -3.16945 3.09937 0
M  V30 6436 H 629.164 -0.359591 0.566511 0
M  V30 6437 H 631.708 -0.501139 1.98265 0
M  V30 6438 H 629.863 -2.91959 2.54635 0
M  V30 6439 H 630.277 -2.35468 4.68674 0
M  V30 6440 H 631.751 -3.88437 3.922 0
M  V30 6441 H 632.228 -3.78451 2.22871 0
M  V30 6442 H 632.834 -2.57581 3.38426 0
M  V30 6443 N 631.149 -1.42148 -0.680565 0
M  V30 6444 C 632.56 -1.3768 -1.26099 0
M  V30 6445 C 632.911 -0.0672348 -1.96085 0
M  V30 6446 O 632.036 0.834172 -1.99676 0
M  V30 6447 C 632.631 -2.49387 -2.29328 0
M  V30 6448 C 631.19 -2.4827 -2.82911 0
M  V30 6449 C 630.337 -2.2847 -1.57152 0
M  V30 6450 H 633.288 -1.51446 -0.474326 0
M  V30 6451 H 633.309 -2.19307 -3.10941 0
M  V30 6452 H 632.821 -3.44686 -1.78363 0
M  V30 6453 H 630.922 -1.56773 -3.38013 0
M  V30 6454 H 631.035 -3.45109 -3.3232 0
M  V30 6455 H 629.399 -1.76623 -1.83511 0
M  V30 6456 H 630.182 -3.25816 -1.0816 0
M  V30 6457 N 632.627 0.916307 -1.28225 0
M  V30 6458 C 633.852 1.7043 -1.18188 0
M  V30 6459 C 634.277 1.86346 0.256274 0
M  V30 6460 O 633.635 1.37175 1.18544 0
M  V30 6461 C 633.683 3.07546 -1.88275 0
M  V30 6462 O 632.787 3.94904 -1.18848 0
M  V30 6463 H 632.128 0.521967 -0.410423 0
M  V30 6464 H 634.658 1.14589 -1.69501 0
M  V30 6465 H 634.668 3.57793 -1.96082 0
M  V30 6466 H 633.343 2.95279 -2.92887 0
M  V30 6467 H 631.92 3.53339 -1.19187 0
M  V30 6468 N 634.105 1.10431 1.1244 0
M  V30 6469 C 635.353 0.845045 1.83585 0
M  V30 6470 C 635.674 -0.631168 1.84503 0
M  V30 6471 O 634.944 -1.45825 1.30813 0
M  V30 6472 H 633.524 0.309628 0.679809 0
M  V30 6473 H 636.186 1.39458 1.36153 0
M  V30 6474 H 635.282 1.20786 2.8778 0
M  V30 6475 N 635.583 -1.29855 0.893053 0
M  V30 6476 C 636.515 -2.26911 0.32311 0
M  V30 6477 C 637.528 -1.54039 -0.526858 0
M  V30 6478 O 638.717 -1.75132 -0.345095 0
M  V30 6479 C 635.817 -3.34266 -0.558509 0
M  V30 6480 C 634.99 -4.36601 0.264222 0
M  V30 6481 C 634.049 -5.23326 -0.549171 0
M  V30 6482 O 633.075 -5.69192 0.0309883 0
M  V30 6483 N 634.277 -5.50008 -1.85664 0
M  V30 6484 H 637.042 -2.76455 1.15726 0
M  V30 6485 H 634.603 -1.4312 0.756859 0
M  V30 6486 H 636.595 -3.89211 -1.1089 0
M  V30 6487 H 635.165 -2.8459 -1.29334 0
M  V30 6488 H 634.385 -3.81409 0.996046 0
M  V30 6489 H 635.673 -5.02019 0.827906 0
M  V30 6490 H 635.071 -5.14542 -2.35081 0
M  V30 6491 H 633.628 -6.07796 -2.35431 0
M  V30 6492 N 637.061 -0.65484 -1.43351 0
M  V30 6493 C 637.971 0.0363603 -2.34572 0
M  V30 6494 C 638.987 0.810432 -1.53974 0
M  V30 6495 O 640.163 0.757308 -1.86619 0
M  V30 6496 C 637.228 0.989733 -3.32273 0
M  V30 6497 C 636.289 0.212414 -4.28774 0
M  V30 6498 C 635.522 1.12038 -5.21808 0
M  V30 6499 O 635.745 2.35967 -5.19303 0
M  V30 6500 O 634.679 0.59191 -5.98982 0
M  V30 6501 H 638.505 -0.714527 -2.95175 0
M  V30 6502 H 636.09 -0.415029 -1.4352 0
M  V30 6503 H 637.972 1.53759 -3.92347 0
M  V30 6504 H 636.647 1.72082 -2.74171 0
M  V30 6505 H 635.554 -0.379062 -3.72175 0
M  V30 6506 H 636.887 -0.479138 -4.89862 0
M  V30 6507 N 638.539 1.52521 -0.396863 0
M  V30 6508 C 639.95 1.86547 0.0754868 0
M  V30 6509 C 640.301 1.31621 1.45501 0
M  V30 6510 O 639.426 0.650563 2.0639 0
M  V30 6511 C 640.021 3.38495 0.143754 0
M  V30 6512 C 638.58 3.72205 0.560413 0
M  V30 6513 C 637.727 2.75954 -0.272856 0
M  V30 6514 H 640.678 1.46323 -0.614434 0
M  V30 6515 H 640.699 3.68153 0.961425 0
M  V30 6516 H 640.211 3.78442 -0.860415 0
M  V30 6517 H 638.312 3.3783 1.57167 0
M  V30 6518 H 638.425 4.78074 0.313314 0
M  V30 6519 H 636.789 2.53339 0.263 0
M  V30 6520 H 637.572 3.1874 -1.27515 0
M  V30 6521 N 640.017 0.126909 1.57088 0
M  V30 6522 C 641.266 -0.529024 1.94639 0
M  V30 6523 C 641.579 -1.67323 1.01304 0
M  V30 6524 O 642.785 -2.39245 1.28352 0
M  V30 6525 C 641.241 -0.992483 3.45945 0
M  V30 6526 C 640.849 0.123691 4.47829 0
M  V30 6527 C 642.593 -1.61934 3.924 0
M  V30 6528 C 640.5 -0.356911 5.90322 0
M  V30 6529 H 639.43 -0.201397 0.726605 0
M  V30 6530 H 642.081 0.208032 1.82317 0
M  V30 6531 H 640.463 -1.7842 3.53528 0
M  V30 6532 H 641.637 0.900168 4.51922 0
M  V30 6533 H 639.952 0.657699 4.11173 0
M  V30 6534 H 642.549 -1.9902 4.96281 0
M  V30 6535 H 642.892 -2.50075 3.32819 0
M  V30 6536 H 643.425 -0.892894 3.8765 0
M  V30 6537 H 640.164 0.488636 6.53676 0
M  V30 6538 H 639.684 -1.0997 5.89633 0
M  V30 6539 H 641.363 -0.815547 6.41839 0
M  V30 6540 N 641.495 -1.56914 -0.146875 0
M  V30 6541 C 642.425 -2.01308 -1.1831 0
M  V30 6542 C 643.406 -0.892664 -1.44795 0
M  V30 6543 O 644.591 -1.16048 -1.55713 0
M  V30 6544 C 641.721 -2.3938 -2.51624 0
M  V30 6545 C 640.675 -3.54608 -2.3966 0
M  V30 6546 C 640.001 -3.78493 -3.77686 0
M  V30 6547 C 641.301 -4.87269 -1.88058 0
M  V30 6548 H 642.995 -2.88123 -0.813964 0
M  V30 6549 H 640.541 -1.38615 -0.3901 0
M  V30 6550 H 642.494 -2.69037 -3.24341 0
M  V30 6551 H 641.218 -1.49502 -2.90373 0
M  V30 6552 H 639.877 -3.25116 -1.69396 0
M  V30 6553 H 639.525 -2.85866 -4.13871 0
M  V30 6554 H 639.225 -4.56039 -3.70543 0
M  V30 6555 H 640.749 -4.10576 -4.51951 0
M  V30 6556 H 642.163 -5.15644 -2.50568 0
M  V30 6557 H 640.56 -5.68622 -1.91805 0
M  V30 6558 H 641.63 -4.77634 -0.836277 0
M  V30 6559 N 642.974 0.416227 -1.52004 0
M  V30 6560 C 644.202 1.18573 -1.69553 0
M  V30 6561 C 644.617 1.84472 -0.401919 0
M  V30 6562 O 643.974 1.71593 0.621463 0
M  V30 6563 C 644.025 2.25413 -2.82615 0
M  V30 6564 O 643.746 1.62205 -4.06966 0
M  V30 6565 C 645.247 3.15297 -3.11613 0
M  V30 6566 H 642.467 0.356582 -0.56841 0
M  V30 6567 H 645.011 0.490618 -1.98528 0
M  V30 6568 H 643.166 2.90604 -2.56179 0
M  V30 6569 H 643.58 2.3298 -4.69916 0
M  V30 6570 H 645.054 3.86351 -3.94255 0
M  V30 6571 H 645.531 3.77264 -2.24874 0
M  V30 6572 H 646.137 2.55783 -3.39787 0
M  V30 6573 N 644.452 1.42507 0.673017 0
M  V30 6574 C 645.362 1.4853 1.81593 0
M  V30 6575 C 646.378 0.373907 1.69935 0
M  V30 6576 O 647.554 0.625078 1.91454 0
M  V30 6577 C 644.619 1.387 3.17747 0
M  V30 6578 C 643.68 2.60346 3.41348 0
M  V30 6579 C 642.913 2.50975 4.71007 0
M  V30 6580 O 643.136 1.54659 5.49033 0
M  V30 6581 O 642.07 3.41138 4.95892 0
M  V30 6582 H 645.896 2.45001 1.79467 0
M  V30 6583 H 643.481 1.2429 0.82899 0
M  V30 6584 H 645.363 1.35586 3.98992 0
M  V30 6585 H 644.038 0.453555 3.20507 0
M  V30 6586 H 642.945 2.69034 2.59945 0
M  V30 6587 H 644.278 3.52595 3.43421 0
M  V30 6588 N 645.93 -0.909495 1.28709 0
M  V30 6589 C 646.877 -2.01245 1.13 0
M  V30 6590 C 647.847 -1.6608 0.0259684 0
M  V30 6591 O 649.032 -1.89835 0.191687 0
M  V30 6592 C 646.172 -3.35644 0.802315 0
M  V30 6593 C 645.285 -3.83653 1.98582 0
M  V30 6594 C 644.42 -5.06582 1.59837 0
M  V30 6595 C 643.459 -5.46934 2.74827 0
M  V30 6596 N 642.596 -6.61053 2.36546 0
M  V30 6597 H 647.436 -2.14013 2.0737 0
M  V30 6598 H 644.973 -1.0482 1.03205 0
M  V30 6599 H 646.931 -4.12963 0.593057 0
M  V30 6600 H 645.561 -3.22631 -0.104457 0
M  V30 6601 H 644.613 -3.02454 2.30708 0
M  V30 6602 H 645.925 -4.09515 2.84779 0
M  V30 6603 H 645.079 -5.91457 1.35143 0
M  V30 6604 H 643.818 -4.82537 0.707753 0
M  V30 6605 H 642.823 -4.60599 3.00215 0
M  V30 6606 H 644.048 -5.72965 3.64538 0
M  V30 6607 H 641.994 -6.3863 1.49959 0
M  V30 6608 H 641.911 -6.86662 3.16277 0
M  V30 6609 H 643.179 -7.49221 2.15146 0
M  V30 6610 N 647.408 -1.11026 -1.11852 0
M  V30 6611 C 648.318 -0.777252 -2.2135 0
M  V30 6612 C 649.334 0.227821 -1.72502 0
M  V30 6613 O 650.51 0.0650587 -2.01295 0
M  V30 6614 C 647.575 -0.220668 -3.45997 0
M  V30 6615 C 646.636 -1.2838 -4.09655 0
M  V30 6616 C 645.869 -0.753678 -5.28352 0
M  V30 6617 O 646.092 0.417779 -5.68868 0
M  V30 6618 O 645.026 -1.51647 -5.82483 0
M  V30 6619 H 648.852 -1.69141 -2.5224 0
M  V30 6620 H 646.437 -0.885836 -1.20305 0
M  V30 6621 H 648.319 0.0855756 -4.21313 0
M  V30 6622 H 646.994 0.666262 -3.16769 0
M  V30 6623 H 645.901 -1.64299 -3.3609 0
M  V30 6624 H 647.234 -2.14396 -4.43052 0
M  V30 6625 N 648.886 1.2938 -0.899927 0
M  V30 6626 C 650.114 1.99691 -0.541386 0
M  V30 6627 C 650.529 1.67355 0.873936 0
M  V30 6628 O 649.886 0.918728 1.57688 0
M  V30 6629 C 649.937 3.54168 -0.72438 0
M  V30 6630 O 649.658 3.85359 -2.08399 0
M  V30 6631 C 651.159 4.41746 -0.370819 0
M  V30 6632 H 648.379 0.638037 -0.207726 0
M  V30 6633 H 650.923 1.6491 -1.20934 0
M  V30 6634 H 649.078 3.87261 -0.103607 0
M  V30 6635 H 649.492 4.80032 -2.11352 0
M  V30 6636 H 650.966 5.49256 -0.549693 0
M  V30 6637 H 651.443 4.33712 0.692148 0
M  V30 6638 H 652.049 4.14125 -0.968543 0
M  V30 6639 N 650.364 0.662433 1.43002 0
M  V30 6640 C 651.274 -0.0239199 2.34588 0
M  V30 6641 C 652.29 -0.802255 1.54402 0
M  V30 6642 O 653.466 -0.747401 1.87018 0
M  V30 6643 C 650.531 -0.972098 3.32793 0
M  V30 6644 C 649.592 -0.189673 4.28881 0
M  V30 6645 C 648.825 -1.09269 5.22395 0
M  V30 6646 O 649.048 -2.33209 5.20547 0
M  V30 6647 O 647.982 -0.560136 5.99288 0
M  V30 6648 H 651.808 0.730171 2.94792 0
M  V30 6649 H 649.393 0.422635 1.43297 0
M  V30 6650 H 651.275 -1.51676 3.93157 0
M  V30 6651 H 649.95 -1.70626 2.75079 0
M  V30 6652 H 648.857 0.398794 3.71968 0
M  V30 6653 H 650.19 0.50511 4.89601 0
M  V30 6654 N 651.842 -1.52309 0.404946 0
M  V30 6655 C 652.772 -2.29805 -0.41376 0
M  V30 6656 C 653.753 -1.3384 -1.0498 0
M  V30 6657 O 654.938 -1.62745 -1.05961 0
M  V30 6658 C 652.068 -3.11639 -1.53292 0
M  V30 6659 C 651.022 -4.15616 -1.02211 0
M  V30 6660 C 650.348 -4.8577 -2.23455 0
M  V30 6661 C 651.648 -5.2224 -0.0790725 0
M  V30 6662 H 653.342 -2.98493 0.232878 0
M  V30 6663 H 650.888 -1.43552 0.113441 0
M  V30 6664 H 652.841 -3.64618 -2.11262 0
M  V30 6665 H 651.565 -2.40712 -2.20738 0
M  V30 6666 H 650.224 -3.63641 -0.46484 0
M  V30 6667 H 649.872 -4.11376 -2.89445 0
M  V30 6668 H 649.572 -5.56058 -1.89929 0
M  V30 6669 H 651.096 -5.4156 -2.82038 0
M  V30 6670 H 652.51 -5.70485 -0.567438 0
M  V30 6671 H 650.907 -5.99867 0.167167 0
M  V30 6672 H 651.977 -4.77078 0.867447 0
M  V30 6673 N 653.32 -0.135238 -1.57019 0
M  V30 6674 C 654.267 0.808908 -2.1616 0
M  V30 6675 C 655.237 1.25234 -1.09113 0
M  V30 6676 O 656.422 1.32697 -1.37099 0
M  V30 6677 C 653.562 2.04729 -2.77813 0
M  V30 6678 C 652.675 1.65074 -3.99218 0
M  V30 6679 C 651.81 2.84002 -4.48906 0
M  V30 6680 C 650.849 2.40663 -5.62803 0
M  V30 6681 N 649.986 3.5256 -6.07162 0
M  V30 6682 H 654.826 0.297751 -2.96509 0
M  V30 6683 H 652.363 0.135264 -1.46477 0
M  V30 6684 H 654.321 2.7731 -3.11697 0
M  V30 6685 H 652.951 2.53275 -2.00128 0
M  V30 6686 H 652.003 0.823029 -3.7139 0
M  V30 6687 H 653.315 1.29236 -4.81767 0
M  V30 6688 H 652.469 3.64788 -4.84783 0
M  V30 6689 H 651.208 3.23076 -3.65339 0
M  V30 6690 H 650.213 1.58314 -5.26514 0
M  V30 6691 H 651.438 2.02687 -6.48147 0
M  V30 6692 H 649.384 3.91278 -5.26534 0
M  V30 6693 H 649.301 3.20699 -6.84608 0
M  V30 6694 H 650.569 4.33738 -6.47682 0
M  V30 6695 N 654.798 1.5699 0.138552 0
M  V30 6696 C 655.728 2.01933 1.17241 0
M  V30 6697 C 656.709 0.90033 1.44319 0
M  V30 6698 O 657.894 1.16872 1.55095 0
M  V30 6699 C 655.024 2.40711 2.50351 0
M  V30 6700 C 653.978 3.55874 2.37776 0
M  V30 6701 C 653.304 3.80491 3.75674 0
M  V30 6702 C 654.604 4.8826 1.85472 0
M  V30 6703 H 656.298 2.88551 0.798672 0
M  V30 6704 H 653.844 1.3882 0.382743 0
M  V30 6705 H 655.797 2.70754 3.22909 0
M  V30 6706 H 654.521 1.5104 2.89576 0
M  V30 6707 H 653.18 3.2601 1.67669 0
M  V30 6708 H 652.828 2.88057 4.12349 0
M  V30 6709 H 652.528 4.57998 3.68119 0
M  V30 6710 H 654.052 4.12967 4.49767 0
M  V30 6711 H 655.466 5.16965 2.4783 0
M  V30 6712 H 653.863 5.69631 1.88787 0
M  V30 6713 H 654.933 4.78071 0.810935 0
M  V30 6714 N 656.276 -0.40816 1.52223 0
M  V30 6715 C 657.186 -1.52202 1.78526 0
M  V30 6716 C 658.202 -1.60546 0.670892 0
M  V30 6717 O 659.378 -1.77242 0.956404 0
M  V30 6718 C 656.443 -2.87928 1.93128 0
M  V30 6719 C 655.504 -2.89463 3.17033 0
M  V30 6720 C 654.737 -4.18715 3.30929 0
M  V30 6721 O 654.96 -5.12662 2.50067 0
M  V30 6722 O 653.894 -4.27125 4.24084 0
M  V30 6723 H 657.72 -1.32911 2.73072 0
M  V30 6724 H 655.305 -0.594112 1.37079 0
M  V30 6725 H 657.187 -3.68426 2.04549 0
M  V30 6726 H 655.862 -3.07285 1.01772 0
M  V30 6727 H 654.769 -2.07815 3.11069 0
M  V30 6728 H 656.102 -2.75055 4.08174 0
M  V30 6729 N 657.755 -1.42862 -0.66545 0
M  V30 6730 C 658.665 -1.49491 -1.80803 0
M  V30 6731 C 659.681 -0.382914 -1.69734 0
M  V30 6732 O 660.857 -0.635223 -1.9112 0
M  V30 6733 C 657.922 -1.40383 -3.17007 0
M  V30 6734 C 656.983 -2.62152 -3.39963 0
M  V30 6735 C 656.216 -2.53469 -4.69669 0
M  V30 6736 O 656.439 -1.57568 -5.48205 0
M  V30 6737 O 655.373 -3.43763 -4.94075 0
M  V30 6738 H 659.199 -2.45949 -1.78165 0
M  V30 6739 H 656.784 -1.24728 -0.822387 0
M  V30 6740 H 658.666 -1.377 -3.98267 0
M  V30 6741 H 657.341 -0.470546 -3.20262 0
M  V30 6742 H 656.248 -2.70409 -2.58515 0
M  V30 6743 H 657.581 -3.54411 -3.41546 0
M  V30 6744 N 659.233 0.902656 -1.29189 0
M  V30 6745 C 660.18 2.00643 -1.14066 0
M  V30 6746 C 661.15 1.66064 -0.0347756 0
M  V30 6747 O 662.335 1.8973 -0.201752 0
M  V30 6748 C 659.475 3.35214 -0.820104 0
M  V30 6749 C 658.588 3.82594 -2.00614 0
M  V30 6750 C 657.723 5.05727 -1.62522 0
M  V30 6751 C 656.762 5.45469 -2.77724 0
M  V30 6752 N 655.899 6.59789 -2.40048 0
M  V30 6753 H 660.739 2.1291 -2.08502 0
M  V30 6754 H 658.276 1.04271 -1.03759 0
M  V30 6755 H 660.234 4.12643 -0.614949 0
M  V30 6756 H 658.864 3.22682 0.0873452 0
M  V30 6757 H 657.916 3.01226 -2.32308 0
M  V30 6758 H 659.228 4.07999 -2.86946 0
M  V30 6759 H 658.382 5.90732 -1.38277 0
M  V30 6760 H 657.121 4.82155 -0.733333 0
M  V30 6761 H 656.126 4.59 -3.02653 0
M  V30 6762 H 657.351 5.71024 -3.67572 0
M  V30 6763 H 655.297 6.37826 -1.53343 0
M  V30 6764 H 655.214 6.84975 -3.19914 0
M  V30 6765 H 656.482 7.4807 -2.19116 0
M  V30 6766 N 660.711 1.11618 1.11262 0
M  V30 6767 C 661.939 0.888739 1.8684 0
M  V30 6768 C 662.354 -0.561558 1.80255 0
M  V30 6769 O 661.711 -1.38782 1.18515 0
M  V30 6770 C 661.762 1.34422 3.35579 0
M  V30 6771 O 661.483 2.73766 3.42029 0
M  V30 6772 C 662.984 1.15246 4.28058 0
M  V30 6773 H 660.204 0.318152 0.590779 0
M  V30 6774 H 662.748 1.48398 1.40707 0
M  V30 6775 H 660.903 0.79239 3.7921 0
M  V30 6776 H 661.317 2.9355 4.34659 0
M  V30 6777 H 662.791 1.52015 5.30656 0
M  V30 6778 H 663.268 0.0922007 4.39103 0
M  V30 6779 H 663.874 1.69136 3.90222 0
M  V30 6780 N 662.189 -1.289 0.906776 0
M  V30 6781 C 663.417 -1.99401 0.551969 0
M  V30 6782 C 663.832 -1.67816 -0.865048 0
M  V30 6783 O 663.189 -0.927078 -1.57199 0
M  V30 6784 C 663.24 -3.53779 0.743152 0
M  V30 6785 O 662.961 -3.84248 2.1044 0
M  V30 6786 C 664.462 -4.41543 0.39424 0
M  V30 6787 H 661.682 -0.636926 0.211106 0
M  V30 6788 H 664.226 -1.64266 1.21807 0
M  V30 6789 H 662.381 -3.87201 0.124143 0
M  V30 6790 H 662.795 -4.78904 2.13895 0
M  V30 6791 H 664.269 -5.48957 0.578814 0
M  V30 6792 H 664.746 -4.34073 -0.669137 0
M  V30 6793 H 665.352 -4.13605 0.990491 0
M  V30 6794 N 663.667 -0.670007 -1.42649 0
M  V30 6795 C 664.916 -0.187526 -2.00826 0
M  V30 6796 C 665.229 1.21142 -1.53571 0
M  V30 6797 O 666.435 1.79001 -2.04134 0
M  V30 6798 C 664.891 -0.284409 -3.58774 0
M  V30 6799 C 664.499 -1.6871 -4.15019 0
M  V30 6800 C 666.243 0.139605 -4.2427 0
M  V30 6801 C 664.15 -1.73701 -5.65316 0
M  V30 6802 H 663.08 -0.0663468 -0.751075 0
M  V30 6803 H 665.731 -0.834492 -1.63427 0
M  V30 6804 H 664.113 0.430364 -3.93655 0
M  V30 6805 H 665.287 -2.42857 -3.91608 0
M  V30 6806 H 663.602 -2.05855 -3.61957 0
M  V30 6807 H 666.199 0.122398 -5.3456 0
M  V30 6808 H 666.542 1.17403 -3.99402 0
M  V30 6809 H 667.075 -0.523995 -3.94334 0
M  V30 6810 H 663.814 -2.75109 -5.94975 0
M  V30 6811 H 663.334 -1.03903 -5.90732 0
M  V30 6812 H 665.013 -1.48829 -6.2965 0
M  V30 6813 N 665.145 1.52092 -0.413018 0
M  V30 6814 C 666.37 2.06756 0.163338 0
M  V30 6815 C 666.795 1.28073 1.37764 0
M  V30 6816 O 666.153 0.312015 1.78595 0
M  V30 6817 C 666.201 3.57278 0.488322 0
M  V30 6818 O 665.305 3.80986 1.57871 0
M  V30 6819 H 664.646 0.663882 0.0125068 0
M  V30 6820 H 667.176 1.95988 -0.587339 0
M  V30 6821 H 667.186 4.01125 0.745836 0
M  V30 6822 H 665.861 4.13978 -0.399327 0
M  V30 6823 H 664.438 3.49017 1.31306 0
M  V30 6824 N 666.623 0.143563 1.56945 0
M  V30 6825 C 667.9 -0.553285 1.87612 0
M  V30 6826 C 668.28 -1.83195 1.04894 0
M  V30 6827 O 667.628 -2.28102 0.134773 0
M  V30 6828 C 667.838 -0.822055 3.3918 0
M  V30 6829 C 669.186 -1.16435 4.08324 0
M  V30 6830 O 670.21 -0.911522 3.4434 0
M  V30 6831 O 669.069 -1.63996 5.21313 0
M  V30 6832 H 666.163 -0.281851 0.777489 0
M  V30 6833 H 668.709 0.179916 1.68744 0
M  V30 6834 H 667.481 0.0830265 3.91212 0
M  V30 6835 H 667.104 -1.60956 3.63564 0
M  V30 6836 N 668.101 -1.57061 -0.130224 0
M  V30 6837 C 669.048 -1.99517 -1.16024 0
M  V30 6838 C 670.018 -0.865452 -1.41771 0
M  V30 6839 O 671.203 -1.12882 -1.53826 0
M  V30 6840 C 668.343 -2.3951 -2.48453 0
M  V30 6841 C 667.456 -3.65848 -2.29737 0
M  V30 6842 C 666.591 -3.9487 -3.55318 0
M  V30 6843 C 665.63 -5.14426 -3.31711 0
M  V30 6844 N 664.767 -5.39375 -4.49466 0
M  V30 6845 H 669.607 -2.87305 -0.791194 0
M  V30 6846 H 667.144 -1.42129 -0.379195 0
M  V30 6847 H 669.102 -2.60731 -3.25692 0
M  V30 6848 H 667.732 -1.54779 -2.83272 0
M  V30 6849 H 666.784 -3.52307 -1.4347 0
M  V30 6850 H 668.096 -4.53241 -2.08263 0
M  V30 6851 H 667.25 -4.16679 -4.4098 0
M  V30 6852 H 665.989 -3.05931 -3.79813 0
M  V30 6853 H 664.994 -4.92473 -2.44439 0
M  V30 6854 H 666.219 -6.04933 -3.08598 0
M  V30 6855 H 664.165 -4.53391 -4.74102 0
M  V30 6856 H 664.082 -6.21069 -4.31055 0
M  V30 6857 H 665.35 -5.65694 -5.36293 0
M  V30 6858 N 669.579 0.400081 -1.52437 0
M  V30 6859 C 670.489 1.51253 -1.79331 0
M  V30 6860 C 671.505 1.60188 -0.679396 0
M  V30 6861 O 672.681 1.76733 -0.965791 0
M  V30 6862 C 669.746 2.869 -1.94652 0
M  V30 6863 C 668.807 2.87777 -3.18564 0
M  V30 6864 C 668.04 4.16954 -3.33145 0
M  V30 6865 O 668.263 5.11329 -2.52783 0
M  V30 6866 O 667.197 4.2487 -4.26343 0
M  V30 6867 H 671.023 1.31461 -2.73773 0
M  V30 6868 H 668.608 0.586834 -1.37392 0
M  V30 6869 H 670.49 3.67336 -2.065 0
M  V30 6870 H 669.165 3.06741 -1.034 0
M  V30 6871 H 668.072 2.06162 -3.12167 0
M  V30 6872 H 669.405 2.72886 -4.09627 0
M  V30 6873 N 671.057 1.43213 0.657864 0
M  V30 6874 C 672.02 1.47687 1.75275 0
M  V30 6875 C 673.02 0.362179 1.56668 0
M  V30 6876 O 674.21 0.623734 1.62651 0
M  V30 6877 C 671.342 1.32497 3.14098 0
M  V30 6878 H 672.535 2.4519 1.7269 0
M  V30 6879 H 670.088 1.2991 0.869087 0
M  V30 6880 H 670.823 0.359831 3.22298 0
M  V30 6881 H 670.608 2.13299 3.29008 0
M  V30 6882 H 672.098 1.38549 3.93946 0
M  V30 6883 N 672.536 -0.895792 1.29666 0
M  V30 6884 C 673.782 -1.64908 1.18039 0
M  V30 6885 C 674.115 -1.9236 -0.266682 0
M  V30 6886 O 673.39 -1.53682 -1.19214 0
M  V30 6887 C 673.673 -2.99574 1.99819 0
M  V30 6888 C 673.526 -2.79163 3.52687 0
M  V30 6889 C 674.845 -4.00358 1.82761 0
M  V30 6890 H 671.964 -0.598437 0.430165 0
M  V30 6891 H 674.606 -1.03736 1.59182 0
M  V30 6892 H 672.756 -3.51786 1.64859 0
M  V30 6893 H 674.428 -2.33821 3.9765 0
M  V30 6894 H 672.671 -2.13871 3.77414 0
M  V30 6895 H 673.342 -3.74871 4.05186 0
M  V30 6896 H 675.818 -3.57268 2.13304 0
M  V30 6897 H 674.694 -4.92514 2.42325 0
M  V30 6898 H 674.955 -4.35096 0.783839 0
M  V30 6899 N 674.014 -1.12206 -1.10668 0
M  V30 6900 C 675.425 -0.890657 -1.64086 0
M  V30 6901 C 675.776 0.575502 -1.8757 0
M  V30 6902 O 674.901 1.4394 -1.61587 0
M  V30 6903 C 675.496 -1.61029 -2.98085 0
M  V30 6904 C 674.055 -1.4251 -3.48379 0
M  V30 6905 C 673.202 -1.64778 -2.23033 0
M  V30 6906 H 676.153 -1.27718 -0.94201 0
M  V30 6907 H 676.174 -1.05993 -3.65439 0
M  V30 6908 H 675.686 -2.67735 -2.80962 0
M  V30 6909 H 673.787 -0.380497 -3.70652 0
M  V30 6910 H 673.9 -2.17959 -4.26651 0
M  V30 6911 H 672.264 -1.07171 -2.31055 0
M  V30 6912 H 673.047 -2.72776 -2.08443 0
M  V30 6913 N 675.492 1.28418 -0.913599 0
M  V30 6914 C 676.439 2.27301 -0.400373 0
M  V30 6915 C 677.409 1.57582 0.52509 0
M  V30 6916 O 678.594 1.85482 0.447318 0
M  V30 6917 C 675.734 3.43284 0.35361 0
M  V30 6918 C 674.847 4.27752 -0.604341 0
M  V30 6919 C 673.982 5.30934 0.168075 0
M  V30 6920 C 673.021 6.07065 -0.783499 0
M  V30 6921 N 672.158 7.02086 -0.0446112 0
M  V30 6922 H 676.998 2.70579 -1.24865 0
M  V30 6923 H 674.535 1.33067 -0.627028 0
M  V30 6924 H 676.493 4.09322 0.806945 0
M  V30 6925 H 675.123 3.00997 1.16623 0
M  V30 6926 H 674.175 3.61759 -1.17621 0
M  V30 6927 H 675.487 4.80682 -1.33216 0
M  V30 6928 H 674.641 6.02855 0.681979 0
M  V30 6929 H 673.38 4.78771 0.928947 0
M  V30 6930 H 672.385 5.33995 -1.30878 0
M  V30 6931 H 673.61 6.61317 -1.54392 0
M  V30 6932 H 671.556 6.52273 0.698272 0
M  V30 6933 H 671.473 7.52637 -0.712258 0
M  V30 6934 H 672.741 7.78205 0.449102 0
M  V30 6935 N 676.97 0.677563 1.42291 0
M  V30 6936 C 677.88 0.000962654 2.346 0
M  V30 6937 C 678.896 -0.785833 1.55244 0
M  V30 6938 O 680.072 -0.727523 1.87801 0
M  V30 6939 C 677.137 -0.936746 3.33805 0
M  V30 6940 C 676.198 -0.144173 4.29058 0
M  V30 6941 C 675.431 -1.03722 5.23524 0
M  V30 6942 O 675.654 -2.27675 5.22992 0
M  V30 6943 O 674.588 -0.496542 5.99848 0
M  V30 6944 H 678.414 0.761397 2.94001 0
M  V30 6945 H 675.999 0.43781 1.42841 0
M  V30 6946 H 677.881 -1.47497 3.94744 0
M  V30 6947 H 676.556 -1.67698 2.76874 0
M  V30 6948 H 675.463 0.438224 3.71524 0
M  V30 6949 H 676.796 0.55701 4.89038 0
M  V30 6950 N 678.448 -1.51871 0.421078 0
M  V30 6951 C 679.673 -2.0684 -0.152371 0
M  V30 6952 C 680.098 -1.28802 -1.37083 0
M  V30 6953 O 679.456 -0.321482 -1.78427 0
M  V30 6954 C 679.504 -3.57532 -0.469368 0
M  V30 6955 O 678.608 -3.81818 -1.55848 0
M  V30 6956 H 677.949 -0.663939 -0.00898586 0
M  V30 6957 H 680.479 -1.95674 0.597724 0
M  V30 6958 H 680.489 -4.01515 -0.724553 0
M  V30 6959 H 679.164 -4.13761 0.421276 0
M  V30 6960 H 677.741 -3.49709 -1.29453 0
M  V30 6961 N 679.926 -0.151884 -1.56866 0
M  V30 6962 C 680.873 0.785936 -2.17006 0
M  V30 6963 C 681.843 1.2407 -1.10435 0
M  V30 6964 O 683.028 1.31235 -1.38499 0
M  V30 6965 C 680.168 2.01771 -2.79969 0
M  V30 6966 C 679.281 1.6083 -4.00946 0
M  V30 6967 C 678.416 2.79224 -4.51893 0
M  V30 6968 C 677.455 2.3468 -5.65324 0
M  V30 6969 N 676.592 3.461 -6.10867 0
M  V30 6970 H 681.432 0.266286 -2.96808 0
M  V30 6971 H 678.969 0.11972 -1.46612 0
M  V30 6972 H 680.927 2.73989 -3.14621 0
M  V30 6973 H 679.557 2.51139 -2.02803 0
M  V30 6974 H 678.609 0.783592 -3.72242 0
M  V30 6975 H 679.921 1.24119 -4.83111 0
M  V30 6976 H 679.075 3.59625 -4.88625 0
M  V30 6977 H 677.814 3.19183 -3.68746 0
M  V30 6978 H 676.819 1.52721 -5.28163 0
M  V30 6979 H 678.044 1.95801 -6.5026 0
M  V30 6980 H 675.99 3.85671 -5.30654 0
M  V30 6981 H 675.907 3.1342 -6.87971 0
M  V30 6982 H 677.175 4.26844 -6.52246 0
M  V30 6983 N 681.404 1.57128 0.121893 0
M  V30 6984 C 682.815 1.73902 0.679348 0
M  V30 6985 C 683.166 0.770135 1.80453 0
M  V30 6986 O 682.291 -0.0576083 2.16323 0
M  V30 6987 C 682.886 3.15328 1.2391 0
M  V30 6988 C 681.445 3.33618 1.74288 0
M  V30 6989 C 680.592 2.6978 0.641414 0
M  V30 6990 H 683.543 1.58359 -0.104 0
M  V30 6991 H 683.564 3.16718 2.10879 0
M  V30 6992 H 683.076 3.85821 0.419957 0
M  V30 6993 H 681.177 2.68162 2.58689 0
M  V30 6994 H 681.29 4.4176 1.85432 0
M  V30 6995 H 679.654 2.30935 1.0743 0
M  V30 6996 H 680.437 3.42895 -0.166707 0
M  V30 6997 N 682.882 -0.391992 1.52647 0
M  V30 6998 C 684.293 -0.970064 1.5952 0
M  V30 6999 C 684.644 -1.91059 0.446207 0
M  V30 7000 O 683.769 -2.12062 -0.431125 0
M  V30 7001 C 684.364 -1.76614 2.89125 0
M  V30 7002 C 682.923 -2.29396 2.9842 0
M  V30 7003 C 682.07 -1.09864 2.54608 0
M  V30 7004 H 685.021 -0.171638 1.57769 0
M  V30 7005 H 685.042 -2.62511 2.75442 0
M  V30 7006 H 684.554 -1.08135 3.72731 0
M  V30 7007 H 682.655 -3.01196 2.19344 0
M  V30 7008 H 682.768 -2.59088 4.03002 0
M  V30 7009 H 681.132 -1.45777 2.08857 0
M  V30 7010 H 681.915 -0.429249 3.40606 0
M  V30 7011 N 684.36 -1.4356 -0.65026 0
M  V30 7012 C 685.307 -1.48948 -1.76304 0
M  V30 7013 C 686.277 -0.338919 -1.62605 0
M  V30 7014 O 687.462 -0.54649 -1.82806 0
M  V30 7015 C 684.602 -1.42131 -3.14472 0
M  V30 7016 C 683.715 -2.67415 -3.39284 0
M  V30 7017 C 682.85 -2.52565 -4.67316 0
M  V30 7018 C 681.889 -3.73103 -4.85243 0
M  V30 7019 N 681.026 -3.57046 -6.04535 0
M  V30 7020 H 685.866 -2.44032 -1.71034 0
M  V30 7021 H 683.403 -1.21131 -0.834601 0
M  V30 7022 H 685.361 -1.36172 -3.94351 0
M  V30 7023 H 683.991 -0.506273 -3.18805 0
M  V30 7024 H 683.043 -2.8364 -2.53481 0
M  V30 7025 H 684.355 -3.56943 -3.48415 0
M  V30 7026 H 683.509 -2.44331 -5.55326 0
M  V30 7027 H 682.248 -1.60566 -4.60511 0
M  V30 7028 H 681.253 -3.81743 -3.95667 0
M  V30 7029 H 682.478 -4.66115 -4.93876 0
M  V30 7030 H 680.424 -2.67783 -5.98856 0
M  V30 7031 H 680.341 -4.40178 -6.14638 0
M  V30 7032 H 681.609 -3.52669 -6.95158 0
M  V30 7033 N 685.838 0.888903 -1.30139 0
M  V30 7034 C 687.249 1.45578 -1.16893 0
M  V30 7035 C 687.6 1.94825 0.231866 0
M  V30 7036 O 686.725 1.84661 1.12824 0
M  V30 7037 C 687.32 2.646 -2.11595 0
M  V30 7038 C 685.879 3.17389 -2.02339 0
M  V30 7039 C 685.026 1.90081 -2.01902 0
M  V30 7040 H 687.977 0.69921 -1.42467 0
M  V30 7041 H 687.998 3.40687 -1.69449 0
M  V30 7042 H 687.51 2.28726 -3.13538 0
M  V30 7043 H 685.611 3.5793 -1.03523 0
M  V30 7044 H 685.724 3.80955 -2.90534 0
M  V30 7045 H 684.088 2.08246 -1.46648 0
M  V30 7046 H 684.871 1.5647 -3.05568 0
M  V30 7047 N 687.317 1.12792 1.10072 0
M  V30 7048 C 688.28 0.802264 2.14701 0
M  V30 7049 C 689.28 -0.18515 1.59731 0
M  V30 7050 O 690.47 0.041109 1.74151 0
M  V30 7051 C 687.602 0.19285 3.40354 0
M  V30 7052 H 688.795 1.72932 2.45019 0
M  V30 7053 H 686.348 0.931662 1.25498 0
M  V30 7054 H 687.083 -0.743748 3.15656 0
M  V30 7055 H 686.868 0.903827 3.81541 0
M  V30 7056 H 688.358 -0.0183704 4.17596 0
M  V30 7057 N 688.795 -1.27931 0.920396 0
M  V30 7058 C 690.072 -1.89728 0.475687 0
M  V30 7059 C 690.452 -1.8337 -1.04588 0
M  V30 7060 O 689.8 -1.27404 -1.89685 0
M  V30 7061 C 690.01 -3.33959 1.01354 0
M  V30 7062 C 691.358 -4.10907 1.06963 0
M  V30 7063 O 692.382 -3.42945 0.962646 0
M  V30 7064 O 691.241 -5.32399 1.23343 0
M  V30 7065 H 688.335 -0.81294 0.151845 0
M  V30 7066 H 690.881 -1.36252 1.01161 0
M  V30 7067 H 689.653 -3.32843 2.05746 0
M  V30 7068 H 689.276 -3.94944 0.458829 0
M  V30 7069 N 690.273 -0.685099 -1.4193 0
M  V30 7070 C 691.183 -0.013404 -2.34596 0
M  V30 7071 C 692.199 0.777589 -1.55658 0
M  V30 7072 O 693.375 0.717553 -1.88184 0
M  V30 7073 C 690.44 0.919031 -3.34297 0
M  V30 7074 C 689.501 0.121417 -4.29128 0
M  V30 7075 C 688.734 1.00944 -5.24067 0
M  V30 7076 O 688.957 2.24898 -5.24192 0
M  V30 7077 O 687.891 0.464724 -6.00103 0
M  V30 7078 H 691.717 -0.776978 -2.93593 0
M  V30 7079 H 689.302 -0.445379 -1.42607 0
M  V30 7080 H 691.184 1.45402 -3.9552 0
M  V30 7081 H 689.859 1.66228 -2.77759 0
M  V30 7082 H 688.766 -0.45792 -3.71287 0
M  V30 7083 H 690.099 -0.582937 -4.88736 0
M  V30 7084 N 691.751 1.51645 -0.429126 0
M  V30 7085 C 692.661 2.31288 0.392809 0
M  V30 7086 C 693.677 1.39852 1.03525 0
M  V30 7087 O 694.853 1.72926 1.03241 0
M  V30 7088 C 691.918 3.13347 1.48372 0
M  V30 7089 C 690.979 4.20551 0.862268 0
M  V30 7090 C 690.212 4.98688 1.9012 0
M  V30 7091 O 690.435 4.77359 3.12225 0
M  V30 7092 O 689.369 5.83005 1.4963 0
M  V30 7093 H 693.195 3.02609 -0.257138 0
M  V30 7094 H 690.78 1.48163 -0.191851 0
M  V30 7095 H 692.662 3.64387 2.1166 0
M  V30 7096 H 691.337 2.44799 2.1179 0
M  V30 7097 H 690.244 3.73609 0.191568 0
M  V30 7098 H 691.577 4.91449 0.271704 0
M  V30 7099 N 693.229 0.160201 1.56784 0
M  V30 7100 C 694.478 -0.487619 1.95717 0
M  V30 7101 C 694.791 -1.65136 1.0483 0
M  V30 7102 O 695.997 -2.36468 1.33398 0
M  V30 7103 C 694.453 -0.91888 3.47972 0
M  V30 7104 C 694.061 0.218655 4.47466 0
M  V30 7105 C 695.805 -1.53575 3.95746 0
M  V30 7106 C 693.712 -0.231614 5.90946 0
M  V30 7107 H 692.642 -0.185939 0.730714 0
M  V30 7108 H 695.293 0.246657 1.81835 0
M  V30 7109 H 693.675 -1.70881 3.57234 0
M  V30 7110 H 694.849 0.995825 4.49911 0
M  V30 7111 H 693.164 0.744767 4.09685 0
M  V30 7112 H 695.761 -1.88448 5.00391 0
M  V30 7113 H 696.104 -2.42959 3.38048 0
M  V30 7114 H 696.637 -0.810467 3.89456 0
M  V30 7115 H 693.376 0.62718 6.52493 0
M  V30 7116 H 692.896 -0.974379 5.91833 0
M  V30 7117 H 694.575 -0.67922 6.43425 0
M  V30 7118 N 694.707 -1.5719 -0.113559 0
M  V30 7119 C 695.955 -1.84772 -0.818761 0
M  V30 7120 C 696.276 -0.746196 -1.80158 0
M  V30 7121 O 695.546 0.229305 -1.94553 0
M  V30 7122 H 694.126 -0.681737 -0.305359 0
M  V30 7123 H 696.788 -1.94645 -0.0995845 0
M  V30 7124 H 695.884 -2.80878 -1.36067 0
M  V30 7125 N 696.185 0.383891 -1.52853 0
M  V30 7126 C 697.434 1.12563 -1.67369 0
M  V30 7127 C 697.747 1.90982 -0.422533 0
M  V30 7128 O 698.953 2.6778 -0.447914 0
M  V30 7129 C 697.409 2.05011 -2.95801 0
M  V30 7130 C 697.017 1.31991 -4.28115 0
M  V30 7131 C 698.761 2.79289 -3.19684 0
M  V30 7132 C 696.668 2.23235 -5.4765 0
M  V30 7133 H 695.598 0.42391 -0.623552 0
M  V30 7134 H 698.249 0.388016 -1.79351 0
M  V30 7135 H 696.631 2.82429 -2.77578 0
M  V30 7136 H 697.805 0.597633 -4.56908 0
M  V30 7137 H 696.12 0.696517 -4.10533 0
M  V30 7138 H 698.717 3.47749 -4.06171 0
M  V30 7139 H 699.06 3.43649 -2.3497 0
M  V30 7140 H 699.593 2.08962 -3.38496 0
M  V30 7141 H 696.332 1.63482 -6.34786 0
M  V30 7142 H 695.852 2.93364 -5.23161 0
M  V30 7143 H 697.531 2.83205 -5.81725 0
M  V30 7144 N 697.663 1.43903 0.642637 0
M  V30 7145 C 698.912 1.45362 1.39831 0
M  V30 7146 C 699.225 0.0856289 1.95412 0
M  V30 7147 O 700.431 -0.0222856 2.71491 0
M  V30 7148 C 698.887 2.55857 2.53111 0
M  V30 7149 C 698.495 3.98811 2.04092 0
M  V30 7150 C 700.239 2.66524 3.30402 0
M  V30 7151 C 698.146 5.00751 3.14647 0
M  V30 7152 H 697.076 0.540777 0.52543 0
M  V30 7153 H 699.727 1.69929 0.692559 0
M  V30 7154 H 698.109 2.2451 3.26207 0
M  V30 7155 H 699.283 4.3967 1.37938 0
M  V30 7156 H 697.598 3.92284 1.39651 0
M  V30 7157 H 700.195 3.39858 4.12796 0
M  V30 7158 H 700.538 1.71949 3.79129 0
M  V30 7159 H 701.071 2.97224 2.64392 0
M  V30 7160 H 697.81 5.96914 2.70876 0
M  V30 7161 H 697.33 4.64495 3.79479 0
M  V30 7162 H 699.009 5.23933 3.79609 0
M  V30 7163 N 699.141 -0.881989 1.30609 0
M  V30 7164 C 700.073 -1.99375 1.13058 0
M  V30 7165 C 701.086 -1.62636 0.0729879 0
M  V30 7166 O 702.275 -1.75621 0.319301 0
M  V30 7167 C 699.375 -3.31536 0.702651 0
M  V30 7168 C 698.548 -3.96693 1.84265 0
M  V30 7169 C 697.607 -5.07158 1.40277 0
M  V30 7170 O 696.633 -5.28628 2.11048 0
M  V30 7171 N 697.835 -5.79808 0.283449 0
M  V30 7172 H 700.6 -2.14981 2.08814 0
M  V30 7173 H 698.161 -1.05526 1.22784 0
M  V30 7174 H 700.153 -4.02804 0.391331 0
M  V30 7175 H 698.723 -3.12175 -0.162954 0
M  V30 7176 H 697.943 -3.1856 2.32192 0
M  V30 7177 H 699.231 -4.36964 2.60653 0
M  V30 7178 H 698.629 -5.64871 -0.306189 0
M  V30 7179 H 697.186 -6.51792 0.0315985 0
M  V30 7180 N 700.619 -1.13374 -1.09472 0
M  V30 7181 C 701.847 -0.918351 -1.85402 0
M  V30 7182 C 702.262 0.53281 -1.81126 0
M  V30 7183 O 701.619 1.36879 -1.20708 0
M  V30 7184 C 701.67 -1.39743 -3.33398 0
M  V30 7185 O 701.391 -2.79172 -3.37631 0
M  V30 7186 C 702.892 -1.22042 -4.2617 0
M  V30 7187 H 700.112 -0.327511 -0.585643 0
M  V30 7188 H 702.656 -1.50617 -1.38328 0
M  V30 7189 H 700.811 -0.852619 -3.77901 0
M  V30 7190 H 701.225 -3.00428 -4.29934 0
M  V30 7191 H 702.699 -1.60438 -5.2817 0
M  V30 7192 H 703.176 -0.162047 -4.38901 0
M  V30 7193 H 703.782 -1.75323 -3.87482 0
M  V30 7194 N 702.098 1.27442 -0.927168 0
M  V30 7195 C 703.323 1.99036 -0.583042 0
M  V30 7196 C 703.748 1.68711 0.83176 0
M  V30 7197 O 703.106 0.927081 1.55804 0
M  V30 7198 C 703.154 3.51271 -0.814925 0
M  V30 7199 O 702.258 4.12226 0.119742 0
M  V30 7200 H 701.599 0.624883 -0.224538 0
M  V30 7201 H 704.129 1.62263 -1.24628 0
M  V30 7202 H 704.139 4.01411 -0.730282 0
M  V30 7203 H 702.814 3.72676 -1.84623 0
M  V30 7204 H 701.391 3.72897 -0.0147688 0
M  V30 7205 N 703.576 0.692616 1.41565 0
M  V30 7206 C 704.804 0.231279 2.05603 0
M  V30 7207 C 705.219 -1.11837 1.52111 0
M  V30 7208 O 704.576 -1.6983 0.66813 0
M  V30 7209 C 704.627 0.177125 3.61066 0
M  V30 7210 O 704.348 1.47346 4.12578 0
M  V30 7211 C 705.849 -0.30556 4.42246 0
M  V30 7212 H 703.069 0.108238 0.662213 0
M  V30 7213 H 705.613 0.944369 1.81389 0
M  V30 7214 H 703.768 -0.486769 3.8433 0
M  V30 7215 H 704.182 1.35861 5.06599 0
M  V30 7216 H 705.656 -0.29233 5.51225 0
M  V30 7217 H 706.133 -1.34393 4.18133 0
M  V30 7218 H 706.739 0.327229 4.24039 0
M  V30 7219 N 705.054 -1.51416 0.437162 0
M  V30 7220 C 705.964 -2.31493 -0.380537 0
M  V30 7221 C 706.98 -1.40399 -1.02782 0
M  V30 7222 O 708.156 -1.73471 -1.02323 0
M  V30 7223 C 705.221 -3.1413 -1.46709 0
M  V30 7224 C 704.282 -4.21003 -0.839953 0
M  V30 7225 C 703.515 -4.9969 -1.87473 0
M  V30 7226 O 703.738 -4.79008 -3.09689 0
M  V30 7227 O 702.672 -5.8379 -1.46536 0
M  V30 7228 H 706.498 -3.02469 0.273183 0
M  V30 7229 H 704.083 -1.48059 0.199706 0
M  V30 7230 H 705.965 -3.65505 -2.09724 0
M  V30 7231 H 704.64 -2.45919 -2.10489 0
M  V30 7232 H 703.547 -3.73706 -0.171752 0
M  V30 7233 H 704.88 -4.91587 -0.245638 0
M  V30 7234 N 706.532 -0.168513 -1.56696 0
M  V30 7235 C 707.482 0.7751 -2.14421 0
M  V30 7236 C 708.466 1.19476 -1.07769 0
M  V30 7237 O 709.658 1.15759 -1.33898 0
M  V30 7238 C 706.787 2.00549 -2.7863 0
M  V30 7239 C 705.873 1.60795 -3.92436 0
M  V30 7240 N 706.264 0.919812 -4.97366 0
M  V30 7241 C 704.562 1.89917 -4.03544 0
M  V30 7242 C 705.263 0.724485 -5.77171 0
M  V30 7243 N 704.239 1.26505 -5.28675 0
M  V30 7244 H 708.041 0.240349 -2.92916 0
M  V30 7245 H 705.555 0.0322675 -1.62368 0
M  V30 7246 H 707.552 2.6917 -3.1836 0
M  V30 7247 H 706.212 2.54522 -2.01615 0
M  V30 7248 H 707.223 0.578169 -5.14663 0
M  V30 7249 H 703.9 2.45587 -3.37629 0
M  V30 7250 H 705.29 0.180521 -6.71657 0
M  V30 7251 N 708.01 1.57248 0.105221 0
M  V30 7252 C 709.238 1.89768 0.82437 0
M  V30 7253 C 709.653 0.761192 1.72775 0
M  V30 7254 O 709.01 -0.267342 1.80531 0
M  V30 7255 C 709.061 3.2184 1.64625 0
M  V30 7256 O 708.782 4.31115 0.779217 0
M  V30 7257 C 710.283 3.68155 2.46935 0
M  V30 7258 H 707.503 0.628031 0.236259 0
M  V30 7259 H 710.047 2.04321 0.085485 0
M  V30 7260 H 708.202 3.08915 2.33775 0
M  V30 7261 H 708.616 5.06897 1.34745 0
M  V30 7262 H 710.09 4.6329 3.00111 0
M  V30 7263 H 710.567 2.95492 3.24932 0
M  V30 7264 H 711.173 3.83914 1.83002 0
M  V30 7265 N 709.488 -0.375779 1.53054 0
M  V30 7266 C 710.735 -1.11948 1.68742 0
M  V30 7267 C 711.063 -1.89596 0.434015 0
M  V30 7268 O 710.318 -1.86787 -0.583867 0
M  V30 7269 C 710.617 -2.11356 2.88207 0
M  V30 7270 C 710.283 -1.50266 4.25124 0
M  V30 7271 C 708.945 -1.33333 4.62359 0
M  V30 7272 C 711.297 -1.05976 5.10312 0
M  V30 7273 C 708.625 -0.706765 5.82427 0
M  V30 7274 C 710.977 -0.447241 6.31017 0
M  V30 7275 C 709.641 -0.265314 6.66973 0
M  V30 7276 H 708.911 -0.409648 0.61747 0
M  V30 7277 H 711.558 -0.402492 1.87222 0
M  V30 7278 H 709.863 -2.89322 2.64197 0
M  V30 7279 H 711.56 -2.68833 2.97539 0
M  V30 7280 H 708.15 -1.64437 3.95801 0
M  V30 7281 H 712.334 -1.17855 4.82104 0
M  V30 7282 H 707.59 -0.554132 6.08884 0
M  V30 7283 H 711.764 -0.0958064 6.96334 0
M  V30 7284 H 709.391 0.222267 7.59875 0
M  V30 7285 N 710.966 -1.44241 -0.634997 0
M  V30 7286 C 712.191 -1.50516 -1.42687 0
M  V30 7287 C 712.616 -0.129864 -1.87651 0
M  V30 7288 O 711.974 0.880164 -1.58502 0
M  V30 7289 C 712.022 -2.4714 -2.62591 0
M  V30 7290 O 711.126 -1.97025 -3.62291 0
M  V30 7291 H 710.467 -0.50841 -0.427101 0
M  V30 7292 H 712.997 -1.89337 -0.775408 0
M  V30 7293 H 713.007 -2.65048 -3.10183 0
M  V30 7294 H 711.682 -3.47039 -2.29209 0
M  V30 7295 H 710.259 -1.88866 -3.21534 0
M  V30 7296 N 712.444 0.87505 -1.31075 0
M  V30 7297 C 713.354 2.01441 -1.20244 0
M  V30 7298 C 714.37 1.73584 -0.120227 0
M  V30 7299 O 715.546 1.98559 -0.337063 0
M  V30 7300 C 712.611 3.34675 -0.905199 0
M  V30 7301 C 711.672 3.75889 -2.0738 0
M  V30 7302 C 710.905 5.02764 -1.79064 0
M  V30 7303 O 711.128 5.65795 -0.723318 0
M  V30 7304 O 710.062 5.40623 -2.64594 0
M  V30 7305 H 713.888 2.13509 -2.1598 0
M  V30 7306 H 711.473 1.00257 -1.10765 0
M  V30 7307 H 713.355 4.1458 -0.755057 0
M  V30 7308 H 712.03 3.23692 0.0221695 0
M  V30 7309 H 710.937 2.96645 -2.27931 0
M  V30 7310 H 712.27 3.91489 -2.98324 0
M  V30 7311 N 713.922 1.13953 1.08869 0
M  V30 7312 C 714.854 0.779906 2.15523 0
M  V30 7313 C 715.867 -0.20102 1.61554 0
M  V30 7314 O 717.056 0.0200049 1.78489 0
M  V30 7315 C 714.156 0.136226 3.38626 0
M  V30 7316 C 713.329 1.15069 4.21993 0
M  V30 7317 C 712.388 0.531645 5.23507 0
M  V30 7318 O 711.414 1.19327 5.56552 0
M  V30 7319 N 712.616 -0.693734 5.7634 0
M  V30 7320 H 715.381 1.69769 2.46979 0
M  V30 7321 H 712.942 1.03331 1.24637 0
M  V30 7322 H 714.934 -0.290295 4.03658 0
M  V30 7323 H 713.504 -0.684603 3.05011 0
M  V30 7324 H 712.724 1.75431 3.53012 0
M  V30 7325 H 714.012 1.83614 4.74514 0
M  V30 7326 H 713.41 -1.24994 5.51718 0
M  V30 7327 H 711.967 -1.06283 6.43076 0
M  V30 7328 N 715.4 -1.26948 0.933913 0
M  V30 7329 C 716.347 -2.26635 0.436484 0
M  V30 7330 C 717.317 -1.58397 -0.499953 0
M  V30 7331 O 718.502 -1.86171 -0.417753 0
M  V30 7332 C 715.642 -3.43803 -0.298951 0
M  V30 7333 C 714.755 -4.26736 0.672316 0
M  V30 7334 C 713.89 -5.31134 -0.0835872 0
M  V30 7335 C 712.929 -6.05742 0.879979 0
M  V30 7336 N 712.066 -7.01926 0.156301 0
M  V30 7337 H 716.906 -2.68558 1.29154 0
M  V30 7338 H 714.443 -1.32052 0.648118 0
M  V30 7339 H 716.401 -4.10554 -0.741723 0
M  V30 7340 H 715.031 -3.02814 -1.1182 0
M  V30 7341 H 714.083 -3.59842 1.23361 0
M  V30 7342 H 715.395 -4.78502 1.40846 0
M  V30 7343 H 714.549 -6.03863 -0.585984 0
M  V30 7344 H 713.288 -4.80188 -0.852661 0
M  V30 7345 H 712.293 -5.31846 1.39357 0
M  V30 7346 H 713.518 -6.58777 1.64894 0
M  V30 7347 H 711.464 -6.53301 -0.594413 0
M  V30 7348 H 711.381 -7.51409 0.831906 0
M  V30 7349 H 712.649 -7.78821 -0.325239 0
M  V30 7350 N 716.879 -0.700114 -1.41195 0
M  V30 7351 C 718.156 -0.160836 -1.94938 0
M  V30 7352 C 718.536 1.33014 -1.63922 0
M  V30 7353 O 717.884 2.07878 -0.948636 0
M  V30 7354 C 718.094 -0.456991 -3.45995 0
M  V30 7355 C 719.442 -0.387207 -4.22831 0
M  V30 7356 O 720.466 -0.392164 -3.54035 0
M  V30 7357 O 719.325 -0.351267 -5.4537 0
M  V30 7358 H 716.419 -0.0176304 -0.826812 0
M  V30 7359 H 718.965 -0.776586 -1.50888 0
M  V30 7360 H 717.737 -1.48884 -3.61869 0
M  V30 7361 H 717.36 0.189503 -3.97148 0
M  V30 7362 N 718.357 1.51182 -0.445186 0
M  V30 7363 C 719.289 2.25714 0.398206 0
M  V30 7364 C 720.302 1.30032 0.979562 0
M  V30 7365 O 721.491 1.55731 0.872368 0
M  V30 7366 C 718.591 3.00348 1.56985 0
M  V30 7367 C 717.764 4.23187 1.10596 0
M  V30 7368 C 716.823 4.80334 2.14863 0
M  V30 7369 O 715.849 5.4196 1.73977 0
M  V30 7370 N 717.051 4.65053 3.47427 0
M  V30 7371 H 719.816 2.98732 -0.240629 0
M  V30 7372 H 717.377 1.59556 -0.274507 0
M  V30 7373 H 719.369 3.35464 2.26376 0
M  V30 7374 H 717.939 2.30291 2.11387 0
M  V30 7375 H 717.159 3.93476 0.238832 0
M  V30 7376 H 718.447 5.02886 0.773537 0
M  V30 7377 H 717.845 4.15984 3.83372 0
M  V30 7378 H 716.402 5.04509 4.12691 0
M  V30 7379 N 719.835 0.176821 1.56605 0
M  V30 7380 C 720.745 -0.763682 2.21822 0
M  V30 7381 C 721.761 -1.24889 1.21156 0
M  V30 7382 O 722.937 -1.29987 1.53836 0
M  V30 7383 C 720.002 -1.97352 2.8505 0
M  V30 7384 C 719.063 -1.53466 4.00932 0
M  V30 7385 C 718.296 -2.68682 4.61135 0
M  V30 7386 O 718.519 -3.85694 4.20234 0
M  V30 7387 O 717.453 -2.42442 5.50913 0
M  V30 7388 H 721.279 -0.238363 3.02763 0
M  V30 7389 H 718.864 -0.0516331 1.49311 0
M  V30 7390 H 720.746 -2.68096 3.25119 0
M  V30 7391 H 719.421 -2.48779 2.07101 0
M  V30 7392 H 718.328 -0.796551 3.65521 0
M  V30 7393 H 719.661 -1.06724 4.8049 0
M  V30 7394 N 721.313 -1.57302 -0.09688 0
M  V30 7395 C 722.724 -1.7496 -0.651595 0
M  V30 7396 C 723.075 -0.798746 -1.79205 0
M  V30 7397 O 722.2 0.0231858 -2.16388 0
M  V30 7398 C 722.795 -3.17259 -1.18878 0
M  V30 7399 C 721.354 -3.36348 -1.68958 0
M  V30 7400 C 720.501 -2.70766 -0.598413 0
M  V30 7401 H 723.452 -1.58173 0.12918 0
M  V30 7402 H 723.473 -3.20033 -2.05814 0
M  V30 7403 H 722.985 -3.8644 -0.358523 0
M  V30 7404 H 721.086 -2.72243 -2.5439 0
M  V30 7405 H 721.199 -4.44654 -1.7838 0
M  V30 7406 H 719.563 -2.32615 -1.03743 0
M  V30 7407 H 720.346 -3.42586 0.221238 0
M  V30 7408 N 722.791 0.367657 -1.53252 0
M  V30 7409 C 724.019 1.13119 -1.73239 0
M  V30 7410 C 724.434 1.831 -0.460404 0
M  V30 7411 O 723.791 1.73483 0.566557 0
M  V30 7412 C 723.842 2.16308 -2.89643 0
M  V30 7413 O 723.563 1.49175 -4.1192 0
M  V30 7414 C 725.064 3.05224 -3.21486 0
M  V30 7415 H 722.284 0.338318 -0.579467 0
M  V30 7416 H 724.828 0.42721 -1.99988 0
M  V30 7417 H 722.983 2.82307 -2.65295 0
M  V30 7418 H 723.397 2.17912 -4.7709 0
M  V30 7419 H 724.871 3.73613 -4.06346 0
M  V30 7420 H 725.348 3.69919 -2.36763 0
M  V30 7421 H 725.954 2.44843 -3.47753 0
M  V30 7422 N 724.269 1.44576 0.627338 0
M  V30 7423 C 725.497 1.51048 1.41394 0
M  V30 7424 C 725.912 0.136568 1.88305 0
M  V30 7425 O 725.269 -0.858251 1.6106 0
M  V30 7426 C 725.32 2.47837 2.63172 0
M  V30 7427 O 725.041 3.79887 2.18215 0
M  V30 7428 C 726.542 2.63811 3.56257 0
M  V30 7429 H 723.762 0.512171 0.4335 0
M  V30 7430 H 726.306 1.89576 0.766878 0
M  V30 7431 H 724.461 2.12433 3.23961 0
M  V30 7432 H 724.875 4.32177 2.97192 0
M  V30 7433 H 726.349 3.35554 4.38301 0
M  V30 7434 H 726.826 1.69169 4.05313 0
M  V30 7435 H 727.432 3.0013 3.01333 0
M  V30 7436 N 725.747 -0.868086 1.31537 0
M  V30 7437 C 727.024 -1.60384 1.11965 0
M  V30 7438 C 727.404 -2.08584 -0.324949 0
M  V30 7439 O 726.752 -1.86561 -1.31937 0
M  V30 7440 C 726.962 -2.76038 2.13551 0
M  V30 7441 C 728.31 -3.45954 2.46173 0
M  V30 7442 O 729.334 -2.86247 2.11993 0
M  V30 7443 O 728.193 -4.53666 3.04711 0
M  V30 7444 H 725.287 -0.705705 0.431172 0
M  V30 7445 H 727.833 -0.913385 1.43022 0
M  V30 7446 H 726.605 -2.37849 3.10714 0
M  V30 7447 H 726.228 -3.52769 1.83411 0
M  V30 7448 N 727.225 -1.14528 -1.08264 0
M  V30 7449 C 728.158 -0.777154 -2.14559 0
M  V30 7450 C 729.136 0.242165 -1.60787 0
M  V30 7451 O 730.32 0.130882 -1.88045 0
M  V30 7452 C 727.447 -0.154092 -3.38349 0
M  V30 7453 C 726.493 -1.14382 -4.10876 0
M  V30 7454 S 727.326 -2.68173 -4.63512 0
M  V30 7455 C 728.482 -2.0726 -5.90588 0
M  V30 7456 H 728.715 -1.67748 -2.45454 0
M  V30 7457 H 726.248 -0.966661 -1.20395 0
M  V30 7458 H 728.206 0.19897 -4.10018 0
M  V30 7459 H 726.867 0.723688 -3.05649 0
M  V30 7460 H 726.06 -0.655908 -4.99714 0
M  V30 7461 H 725.662 -1.44095 -3.45127 0
M  V30 7462 H 727.954 -1.42895 -6.62259 0
M  V30 7463 H 728.897 -2.94227 -6.44078 0
M  V30 7464 H 729.305 -1.51935 -5.43669 0
M  V30 7465 N 728.703 1.26451 -0.940633 0
M  V30 7466 C 729.633 2.28773 -0.467479 0
M  V30 7467 C 730.614 1.63218 0.478955 0
M  V30 7468 O 731.799 1.90427 0.380929 0
M  V30 7469 C 728.929 3.46259 0.268656 0
M  V30 7470 C 727.883 4.23898 -0.591171 0
M  V30 7471 C 727.209 5.33993 0.274891 0
M  V30 7472 C 728.509 4.87974 -1.86223 0
M  V30 7473 H 730.203 2.68601 -1.32265 0
M  V30 7474 H 727.749 1.29123 -0.637436 0
M  V30 7475 H 729.702 4.16951 0.610696 0
M  V30 7476 H 728.426 3.05383 1.15796 0
M  V30 7477 H 727.085 3.54969 -0.916098 0
M  V30 7478 H 726.733 4.89358 1.16353 0
M  V30 7479 H 726.433 5.86849 -0.297006 0
M  V30 7480 H 727.957 6.07523 0.612213 0
M  V30 7481 H 729.371 5.50883 -1.58747 0
M  V30 7482 H 727.768 5.50945 -2.37866 0
M  V30 7483 H 728.838 4.10945 -2.57394 0
M  V30 7484 N 730.181 0.707592 1.40822 0
M  V30 7485 C 731.128 0.0499029 2.30746 0
M  V30 7486 C 732.098 -0.758718 1.47759 0
M  V30 7487 O 733.283 -0.724299 1.76518 0
M  V30 7488 C 730.423 -0.871756 3.33908 0
M  V30 7489 C 729.536 -0.0534655 4.31967 0
M  V30 7490 C 728.671 -0.973869 5.22197 0
M  V30 7491 C 727.71 -0.149194 6.11918 0
M  V30 7492 N 726.847 -1.02404 6.94592 0
M  V30 7493 H 731.687 0.822461 2.86426 0
M  V30 7494 H 729.224 0.417285 1.41057 0
M  V30 7495 H 731.182 -1.42028 3.9228 0
M  V30 7496 H 729.812 -1.61058 2.7975 0
M  V30 7497 H 728.864 0.612142 3.75442 0
M  V30 7498 H 730.176 0.585354 4.95353 0
M  V30 7499 H 729.33 -1.59121 5.85462 0
M  V30 7500 H 728.069 -1.64652 4.59065 0
M  V30 7501 H 727.074 0.481137 5.47691 0
M  V30 7502 H 728.299 0.519841 6.77107 0
M  V30 7503 H 726.245 -1.6825 6.34057 0
M  V30 7504 H 726.162 -0.441076 7.54712 0
M  V30 7505 H 727.43 -1.62782 7.62314 0
M  V30 7506 N 731.66 -1.50943 0.453197 0
M  V30 7507 C 732.592 -2.25922 -0.38623 0
M  V30 7508 C 733.605 -1.3055 -0.972652 0
M  V30 7509 O 734.794 -1.56191 -0.864097 0
M  V30 7510 C 731.894 -3.01176 -1.5539 0
M  V30 7511 C 731.067 -4.23768 -1.0835 0
M  V30 7512 C 730.126 -4.81466 -2.12313 0
M  V30 7513 O 729.152 -5.42875 -1.71101 0
M  V30 7514 N 730.354 -4.66889 -3.44956 0
M  V30 7515 H 733.119 -2.98601 0.256468 0
M  V30 7516 H 730.68 -1.59408 0.282965 0
M  V30 7517 H 732.672 -3.36659 -2.24594 0
M  V30 7518 H 731.242 -2.31409 -2.10163 0
M  V30 7519 H 730.462 -3.93597 -0.217961 0
M  V30 7520 H 731.75 -5.03289 -0.746857 0
M  V30 7521 H 731.148 -4.18011 -3.81161 0
M  V30 7522 H 729.705 -5.06691 -4.1001 0
M  V30 7523 N 733.138 -0.185124 -1.56509 0
M  V30 7524 C 734.415 0.503348 -1.89013 0
M  V30 7525 C 734.795 1.80349 -1.09715 0
M  V30 7526 O 734.143 2.27665 -0.195203 0
M  V30 7527 C 734.353 0.731839 -3.41241 0
M  V30 7528 C 735.701 1.05568 -4.11267 0
M  V30 7529 O 736.725 0.819906 -3.46635 0
M  V30 7530 O 735.584 1.50116 -5.25478 0
M  V30 7531 H 732.678 0.261139 -0.784688 0
M  V30 7532 H 735.224 -0.224592 -1.68207 0
M  V30 7533 H 733.996 -0.18672 -3.90854 0
M  V30 7534 H 733.619 1.5126 -3.67704 0
M  V30 7535 N 734.616 1.57351 0.0885366 0
M  V30 7536 C 735.841 1.91011 0.80805 0
M  V30 7537 C 736.266 0.780009 1.71165 0
M  V30 7538 O 735.624 -0.268083 1.79307 0
M  V30 7539 C 735.672 3.23562 1.59185 0
M  V30 7540 O 734.776 3.11615 2.7013 0
M  V30 7541 H 734.117 0.625943 0.221565 0
M  V30 7542 H 736.647 2.04507 0.0617954 0
M  V30 7543 H 736.657 3.5703 1.97468 0
M  V30 7544 H 735.332 4.05398 0.928741 0
M  V30 7545 H 733.909 2.89673 2.34827 0
M  V30 7546 N 736.094 -0.359525 1.53444 0
M  V30 7547 C 737.341 -1.10152 1.6992 0
M  V30 7548 C 737.669 -1.89125 0.4541 0
M  V30 7549 O 736.924 -1.87396 -0.564023 0
M  V30 7550 C 737.223 -2.08287 2.90433 0
M  V30 7551 C 736.889 -1.45749 4.26694 0
M  V30 7552 C 735.551 -1.28421 4.63747 0
M  V30 7553 C 737.903 -1.00557 5.11408 0
M  V30 7554 C 735.231 -0.644951 5.83144 0
M  V30 7555 C 737.583 -0.380288 6.31456 0
M  V30 7556 C 736.247 -0.194557 6.67216 0
M  V30 7557 H 735.517 -0.403076 0.621781 0
M  V30 7558 H 738.164 -0.382612 1.87639 0
M  V30 7559 H 736.469 -2.86503 2.67251 0
M  V30 7560 H 738.166 -2.65662 3.00374 0
M  V30 7561 H 734.756 -1.6023 3.97523 0
M  V30 7562 H 738.94 -1.12735 4.83326 0
M  V30 7563 H 734.196 -0.48952 6.09437 0
M  V30 7564 H 738.37 -0.0219455 6.96397 0
M  V30 7565 H 735.997 0.30285 7.59597 0
M  V30 7566 N 737.572 -1.44907 -0.619662 0
M  V30 7567 C 738.983 -1.42905 -1.20146 0
M  V30 7568 C 739.334 -0.150341 -1.95623 0
M  V30 7569 O 738.459 0.748732 -2.03034 0
M  V30 7570 C 739.054 -2.58889 -2.18545 0
M  V30 7571 C 737.613 -2.60046 -2.72127 0
M  V30 7572 C 736.76 -2.3493 -1.4732 0
M  V30 7573 H 739.711 -1.53321 -0.409666 0
M  V30 7574 H 739.732 -2.32298 -3.0136 0
M  V30 7575 H 739.244 -3.51941 -1.63583 0
M  V30 7576 H 737.345 -1.70968 -3.3106 0
M  V30 7577 H 737.458 -3.58893 -3.17384 0
M  V30 7578 H 735.822 -1.84248 -1.75855 0
M  V30 7579 H 736.605 -3.3011 -0.942442 0
M  V30 7580 N 739.05 0.861098 -1.31996 0
M  V30 7581 C 740.296 1.61721 -1.22369 0
M  V30 7582 C 740.629 1.93 0.215587 0
M  V30 7583 O 739.904 1.56789 1.15098 0
M  V30 7584 C 740.187 2.9417 -2.07691 0
M  V30 7585 C 740.04 2.69714 -3.59965 0
M  V30 7586 C 741.359 3.95372 -1.93312 0
M  V30 7587 H 738.478 0.586822 -0.44588 0
M  V30 7588 H 741.12 0.994788 -1.61876 0
M  V30 7589 H 739.27 3.47292 -1.74128 0
M  V30 7590 H 740.942 2.23196 -4.03709 0
M  V30 7591 H 739.185 2.03789 -3.82952 0
M  V30 7592 H 739.856 3.63996 -4.14983 0
M  V30 7593 H 742.332 3.51487 -2.22701 0
M  V30 7594 H 741.208 4.85916 -2.55298 0
M  V30 7595 H 741.469 4.32865 -0.898922 0
M  V30 7596 N 740.528 1.15101 1.07655 0
M  V30 7597 C 741.753 0.948177 1.84457 0
M  V30 7598 C 742.178 -0.498432 1.81376 0
M  V30 7599 O 741.536 -1.35509 1.20445 0
M  V30 7600 C 741.584 1.46318 3.29581 0
M  V30 7601 O 740.688 0.660342 4.07079 0
M  V30 7602 H 740.029 0.338428 0.571281 0
M  V30 7603 H 742.559 1.5301 1.35828 0
M  V30 7604 H 742.569 1.47468 3.80417 0
M  V30 7605 H 741.244 2.51635 3.31138 0
M  V30 7606 H 739.821 0.718216 3.65918 0
M  V30 7607 N 742.006 -1.2595 0.947325 0
M  V30 7608 C 742.936 -2.28521 0.479604 0
M  V30 7609 C 743.917 -1.63469 -0.470293 0
M  V30 7610 O 745.102 -1.90627 -0.370824 0
M  V30 7611 C 742.232 -3.46397 -0.250289 0
M  V30 7612 C 741.186 -4.23578 0.613643 0
M  V30 7613 C 740.512 -5.34131 -0.246568 0
M  V30 7614 C 741.812 -4.86979 1.88809 0
M  V30 7615 H 743.506 -2.67895 1.33688 0
M  V30 7616 H 741.052 -1.28783 0.644274 0
M  V30 7617 H 743.005 -4.17269 -0.588576 0
M  V30 7618 H 741.729 -3.05993 -1.14175 0
M  V30 7619 H 740.388 -3.54478 0.93491 0
M  V30 7620 H 740.036 -4.89968 -1.13756 0
M  V30 7621 H 739.736 -5.86683 0.328123 0
M  V30 7622 H 741.26 -6.07839 -0.579986 0
M  V30 7623 H 742.674 -5.50034 1.61666 0
M  V30 7624 H 741.071 -5.49675 2.40784 0
M  V30 7625 H 742.141 -4.09575 2.5957 0
M  V30 7626 N 743.484 -0.715051 -1.40445 0
M  V30 7627 C 744.394 -0.0631624 -2.34515 0
M  V30 7628 C 745.41 0.744397 -1.57273 0
M  V30 7629 O 746.586 0.677475 -1.89663 0
M  V30 7630 C 743.651 0.847915 -3.36172 0
M  V30 7631 C 742.712 0.0303655 -4.29289 0
M  V30 7632 C 741.945 0.898051 -5.2609 0
M  V30 7633 O 742.168 2.13729 -5.28844 0
M  V30 7634 O 741.102 0.337328 -6.00954 0
M  V30 7635 H 744.928 -0.839078 -2.91879 0
M  V30 7636 H 742.513 -0.475527 -1.4163 0
M  V30 7637 H 744.395 1.3698 -3.98515 0
M  V30 7638 H 743.07 1.60299 -2.81222 0
M  V30 7639 H 741.977 -0.536573 -3.70232 0
M  V30 7640 H 743.31 -0.686474 -4.87389 0
M  V30 7641 N 744.962 1.50701 -0.461195 0
M  V30 7642 C 745.894 2.26124 0.374244 0
M  V30 7643 C 746.907 1.31064 0.965715 0
M  V30 7644 O 748.096 1.56647 0.855801 0
M  V30 7645 C 745.196 3.01996 1.5379 0
M  V30 7646 C 744.369 4.24336 1.06101 0
M  V30 7647 C 743.428 4.82585 2.09756 0
M  V30 7648 O 742.454 5.43775 1.68219 0
M  V30 7649 N 743.656 4.68712 3.42475 0
M  V30 7650 H 746.421 2.9846 -0.2723 0
M  V30 7651 H 743.982 1.59256 -0.291415 0
M  V30 7652 H 745.974 3.37846 2.22806 0
M  V30 7653 H 744.544 2.32521 2.08933 0
M  V30 7654 H 743.764 3.93707 0.197085 0
M  V30 7655 H 745.052 5.03678 0.720156 0
M  V30 7656 H 744.45 4.20026 3.78938 0
M  V30 7657 H 743.007 5.08858 4.07317 0
M  V30 7658 N 746.441 0.193421 1.56409 0
M  V30 7659 C 747.404 -0.714371 2.17783 0
M  V30 7660 C 748.404 -1.1422 1.13183 0
M  V30 7661 O 749.594 -1.05557 1.38576 0
M  V30 7662 C 746.726 -1.97509 2.77855 0
M  V30 7663 H 747.919 -0.179714 2.99361 0
M  V30 7664 H 745.472 -0.0561944 1.56199 0
M  V30 7665 H 746.207 -2.5523 2.0007 0
M  V30 7666 H 745.992 -1.67706 3.54425 0
M  V30 7667 H 747.482 -2.62246 3.24987 0
M  V30 7668 N 747.919 -1.57396 -0.0801906 0
M  V30 7669 C 749.165 -1.87113 -0.782083 0
M  V30 7670 C 749.498 -0.78458 -1.77646 0
M  V30 7671 O 748.773 0.205993 -1.93406 0
M  V30 7672 C 749.056 -3.27483 -1.49756 0
M  V30 7673 C 748.909 -4.46782 -0.520171 0
M  V30 7674 C 750.228 -3.65965 -2.44454 0
M  V30 7675 H 747.347 -0.680559 -0.282858 0
M  V30 7676 H 749.989 -1.89946 -0.0454139 0
M  V30 7677 H 748.139 -3.25199 -2.12551 0
M  V30 7678 H 749.811 -4.61187 0.101919 0
M  V30 7679 H 748.054 -4.33485 0.165219 0
M  V30 7680 H 748.725 -5.41761 -1.05824 0
M  V30 7681 H 751.201 -3.69289 -1.91742 0
M  V30 7682 H 750.077 -4.65086 -2.91524 0
M  V30 7683 H 750.338 -2.95446 -3.28883 0
M  V30 7684 N 749.397 0.351382 -1.53633 0
M  V30 7685 C 750.625 1.11275 -1.74429 0
M  V30 7686 C 751.04 1.82602 -0.479798 0
M  V30 7687 O 750.397 1.74074 0.548125 0
M  V30 7688 C 750.448 2.13223 -2.91921 0
M  V30 7689 O 750.169 1.44798 -4.13479 0
M  V30 7690 C 751.67 3.01797 -3.24706 0
M  V30 7691 H 748.89 0.332153 -0.583023 0
M  V30 7692 H 751.434 0.405974 -2.0043 0
M  V30 7693 H 749.589 2.79477 -2.68274 0
M  V30 7694 H 750.003 2.12839 -4.79374 0
M  V30 7695 H 751.477 3.69282 -4.10286 0
M  V30 7696 H 751.954 3.67387 -2.40673 0
M  V30 7697 H 752.56 2.41141 -3.5033 0
M  V30 7698 N 750.875 1.45233 0.611969 0
M  V30 7699 C 752.152 1.39495 1.37115 0
M  V30 7700 C 752.532 0.0633303 2.11005 0
M  V30 7701 O 751.88 -0.954617 2.07604 0
M  V30 7702 C 752.09 2.60579 2.32163 0
M  V30 7703 C 753.438 3.05477 2.94905 0
M  V30 7704 O 754.462 2.60921 2.42485 0
M  V30 7705 O 753.321 3.82787 3.90047 0
M  V30 7706 H 750.415 0.55335 0.614599 0
M  V30 7707 H 752.961 1.57355 0.635423 0
M  V30 7708 H 751.733 3.49085 1.76793 0
M  V30 7709 H 751.356 2.45031 3.13122 0
M  V30 7710 N 752.353 -0.854086 1.3245 0
M  V30 7711 C 753.578 -1.64597 1.26185 0
M  V30 7712 C 754.003 -1.87357 -0.167074 0
M  V30 7713 O 753.361 -1.42675 -1.11864 0
M  V30 7714 C 753.409 -2.98213 2.02734 0
M  V30 7715 O 752.513 -3.88784 1.37554 0
M  V30 7716 H 751.854 -0.50179 0.434859 0
M  V30 7717 H 754.384 -1.06372 1.74775 0
M  V30 7718 H 754.394 -3.4803 2.1293 0
M  V30 7719 H 753.069 -2.80969 3.06642 0
M  V30 7720 H 751.646 -3.4725 1.3591 0
M  V30 7721 N 753.831 -1.1567 -1.07043 0
M  V30 7722 C 754.794 -0.858906 -2.12498 0
M  V30 7723 C 755.794 0.142735 -1.60165 0
M  V30 7724 O 756.984 -0.0872678 -1.73981 0
M  V30 7725 C 754.116 -0.283021 -3.39723 0
M  V30 7726 H 755.309 -1.79368 -2.40348 0
M  V30 7727 H 752.862 -0.964608 -1.22984 0
M  V30 7728 H 753.597 0.659796 -3.17517 0
M  V30 7729 H 753.382 -1.00467 -3.7901 0
M  V30 7730 H 754.872 -0.0923543 -4.17498 0
M  V30 7731 N 755.309 1.25446 -0.953992 0
M  V30 7732 C 756.242 2.24341 -0.417912 0
M  V30 7733 C 757.22 1.54709 0.5004 0
M  V30 7734 O 758.404 1.83414 0.434923 0
M  V30 7735 C 755.531 3.36352 0.398155 0
M  V30 7736 C 754.577 4.24007 -0.460461 0
M  V30 7737 S 755.41 5.00951 -1.89231 0
M  V30 7738 C 756.566 6.1643 -1.08465 0
M  V30 7739 H 756.799 2.69465 -1.25602 0
M  V30 7740 H 754.332 1.34512 -0.758018 0
M  V30 7741 H 756.29 4.01325 0.863059 0
M  V30 7742 H 754.951 2.89813 1.21108 0
M  V30 7743 H 754.144 5.03728 0.165415 0
M  V30 7744 H 753.746 3.63965 -0.860549 0
M  V30 7745 H 756.038 6.76681 -0.333017 0
M  V30 7746 H 756.981 6.8335 -1.85577 0
M  V30 7747 H 757.389 5.61139 -0.615062 0
M  V30 7748 N 756.787 0.722489 1.40064 0
M  V30 7749 C 758.015 0.274838 2.05066 0
M  V30 7750 C 758.43 -1.08586 1.54449 0
M  V30 7751 O 757.787 -1.68375 0.704003 0
M  V30 7752 C 757.838 0.253673 3.60609 0
M  V30 7753 O 757.559 1.56064 4.0936 0
M  V30 7754 C 759.06 -0.211684 4.42794 0
M  V30 7755 H 756.28 0.12226 0.659768 0
M  V30 7756 H 758.824 0.982632 1.79345 0
M  V30 7757 H 756.979 -0.405137 3.85276 0
M  V30 7758 H 757.393 1.46576 5.03603 0
M  V30 7759 H 758.867 -0.175341 5.51721 0
M  V30 7760 H 759.344 -1.25493 4.2089 0
M  V30 7761 H 759.95 0.4171 4.2325 0
M  V30 7762 N 758.265 -1.50454 0.469181 0
M  V30 7763 C 759.49 -2.0722 -0.0864892 0
M  V30 7764 C 759.915 -1.33098 -1.32916 0
M  V30 7765 O 759.273 -0.378084 -1.77314 0
M  V30 7766 C 759.321 -3.58845 -0.355384 0
M  V30 7767 O 758.425 -3.86583 -1.43622 0
M  V30 7768 H 757.766 -0.663889 0.0121414 0
M  V30 7769 H 760.296 -1.93674 0.659674 0
M  V30 7770 H 760.306 -4.03617 -0.596447 0
M  V30 7771 H 758.981 -4.12211 0.552698 0
M  V30 7772 H 757.558 -3.5365 -1.18262 0
M  V30 7773 N 759.743 -0.201713 -1.56304 0
M  V30 7774 C 760.69 0.716499 -2.19397 0
M  V30 7775 C 761.66 1.20494 -1.14326 0
M  V30 7776 O 762.845 1.26763 -1.42604 0
M  V30 7777 C 759.985 1.92762 -2.86246 0
M  V30 7778 C 759.098 1.47993 -4.0586 0
M  V30 7779 C 758.233 2.64706 -4.60547 0
M  V30 7780 C 757.272 2.16576 -5.72504 0
M  V30 7781 N 756.409 3.26491 -6.21569 0
M  V30 7782 H 761.249 0.171724 -2.97505 0
M  V30 7783 H 758.786 0.073016 -1.46919 0
M  V30 7784 H 760.744 2.6384 -3.23178 0
M  V30 7785 H 759.374 2.44559 -2.10691 0
M  V30 7786 H 758.426 0.66477 -3.74546 0
M  V30 7787 H 759.738 1.08686 -4.86815 0
M  V30 7788 H 758.892 3.43898 -4.99819 0
M  V30 7789 H 757.631 3.0729 -3.78713 0
M  V30 7790 H 756.636 1.3584 -5.32755 0
M  V30 7791 H 757.861 1.75015 -6.56161 0
M  V30 7792 H 755.807 3.68594 -5.42655 0
M  V30 7793 H 755.724 2.91374 -6.97594 0
M  V30 7794 H 756.992 4.05877 -6.65495 0
M  V30 7795 N 761.222 1.57436 0.0718424 0
M  V30 7796 C 762.45 1.91474 0.783932 0
M  V30 7797 C 762.865 0.797669 1.71122 0
M  V30 7798 O 762.222 -0.228989 1.81058 0
M  V30 7799 C 762.273 3.25259 1.57761 0
M  V30 7800 O 761.994 4.3267 0.687596 0
M  V30 7801 C 763.495 3.7331 2.3907 0
M  V30 7802 H 760.715 0.632901 0.222885 0
M  V30 7803 H 763.259 2.04457 0.0421262 0
M  V30 7804 H 761.414 3.13804 2.27169 0
M  V30 7805 H 761.828 5.09641 1.23962 0
M  V30 7806 H 763.302 4.69551 2.90216 0
M  V30 7807 H 763.779 3.02318 3.18591 0
M  V30 7808 H 764.385 3.8771 1.74818 0
M  V30 7809 N 762.7 -0.34323 1.53817 0
M  V30 7810 C 763.63 -1.42709 1.84814 0
M  V30 7811 C 764.611 -1.5488 0.703297 0
M  V30 7812 O 765.796 -1.69082 0.955237 0
M  V30 7813 C 762.926 -2.79756 2.05801 0
M  V30 7814 C 761.88 -2.82392 3.21619 0
M  V30 7815 C 761.206 -4.22326 3.2794 0
M  V30 7816 C 762.506 -2.479 4.59721 0
M  V30 7817 H 764.2 -1.17018 2.75585 0
M  V30 7818 H 761.746 -0.561485 1.32602 0
M  V30 7819 H 763.699 -3.55627 2.26069 0
M  V30 7820 H 762.423 -3.06883 1.11761 0
M  V30 7821 H 761.082 -2.08974 3.01207 0
M  V30 7822 H 760.73 -4.46564 2.31494 0
M  V30 7823 H 760.43 -4.25001 4.05768 0
M  V30 7824 H 761.954 -5.00039 3.50419 0
M  V30 7825 H 763.368 -3.13484 4.80001 0
M  V30 7826 H 761.765 -2.61857 5.39954 0
M  V30 7827 H 762.835 -1.43087 4.63308 0
M  V30 7828 N 764.178 -1.45556 -0.604258 0
M  V30 7829 C 765.088 -1.57025 -1.74299 0
M  V30 7830 C 766.104 -0.45456 -1.67958 0
M  V30 7831 O 767.28 -0.715711 -1.88254 0
M  V30 7832 C 764.345 -1.53702 -3.10768 0
M  V30 7833 C 763.406 -2.76335 -3.28538 0
M  V30 7834 C 762.639 -2.73161 -4.58496 0
M  V30 7835 O 762.862 -1.80678 -5.41028 0
M  V30 7836 O 761.796 -3.64409 -4.79051 0
M  V30 7837 H 765.622 -2.53284 -1.67573 0
M  V30 7838 H 763.207 -1.28104 -0.768745 0
M  V30 7839 H 765.089 -1.54468 -3.92068 0
M  V30 7840 H 763.764 -0.605957 -3.17978 0
M  V30 7841 H 762.671 -2.8113 -2.46813 0
M  V30 7842 H 764.004 -3.68578 -3.26207 0
M  V30 7843 N 765.656 0.84705 -1.32902 0
M  V30 7844 C 766.603 1.95624 -1.22473 0
M  V30 7845 C 767.573 1.65767 -0.105178 0
M  V30 7846 O 768.758 1.88704 -0.282042 0
M  V30 7847 C 765.898 3.31434 -0.961542 0
M  V30 7848 C 765.011 3.73741 -2.1666 0
M  V30 7849 C 764.146 4.98379 -1.83825 0
M  V30 7850 C 763.185 5.33199 -3.00609 0
M  V30 7851 N 762.322 6.49014 -2.67816 0
M  V30 7852 H 767.162 2.03875 -2.17345 0
M  V30 7853 H 764.699 0.997764 -1.08088 0
M  V30 7854 H 766.657 4.09663 -0.789411 0
M  V30 7855 H 765.287 3.22762 -0.0495938 0
M  V30 7856 H 764.339 2.91102 -2.44875 0
M  V30 7857 H 765.651 3.95462 -3.03993 0
M  V30 7858 H 764.805 5.84336 -1.63208 0
M  V30 7859 H 763.544 4.78611 -0.937172 0
M  V30 7860 H 762.549 4.4575 -3.21849 0
M  V30 7861 H 763.774 5.5492 -3.9146 0
M  V30 7862 H 761.72 6.30748 -1.80258 0
M  V30 7863 H 761.637 6.7079 -3.48679 0
M  V30 7864 H 762.905 7.38103 -2.50647 0
M  V30 7865 N 767.134 1.16236 1.06428 0
M  V30 7866 C 768.097 0.870163 2.1204 0
M  V30 7867 C 769.097 -0.134239 1.60239 0
M  V30 7868 O 770.287 0.0964932 1.73933 0
M  V30 7869 C 767.419 0.301033 3.39568 0
M  V30 7870 H 768.612 1.8064 2.39394 0
M  V30 7871 H 766.165 0.971116 1.2247 0
M  V30 7872 H 766.9 -0.642948 3.17863 0
M  V30 7873 H 766.685 1.02475 3.78472 0
M  V30 7874 H 768.175 0.114494 4.17443 0
M  V30 7875 N 768.612 -1.24939 0.960631 0
M  V30 7876 C 769.545 -2.24116 0.429804 0
M  V30 7877 C 770.523 -1.54972 -0.492188 0
M  V30 7878 O 771.707 -1.83642 -0.42519 0
M  V30 7879 C 768.834 -3.36558 -0.380312 0
M  V30 7880 C 767.88 -4.23757 0.482941 0
M  V30 7881 S 768.713 -4.9994 1.91885 0
M  V30 7882 C 769.869 -6.15846 1.11732 0
M  V30 7883 H 770.102 -2.68795 1.27029 0
M  V30 7884 H 767.635 -1.34108 0.765141 0
M  V30 7885 H 769.593 -4.01777 -0.841764 0
M  V30 7886 H 768.254 -2.90451 -1.19569 0
M  V30 7887 H 767.447 -5.03809 -0.138699 0
M  V30 7888 H 767.049 -3.63504 0.879839 0
M  V30 7889 H 769.341 -6.76495 0.368898 0
M  V30 7890 H 770.284 -6.82356 1.89198 0
M  V30 7891 H 770.692 -5.60805 0.644812 0
M  V30 7892 N 770.09 -0.729906 -1.39679 0
M  V30 7893 C 771.318 -0.285709 -2.04918 0
M  V30 7894 C 771.733 1.07765 -1.55023 0
M  V30 7895 O 771.09 1.67999 -0.712923 0
M  V30 7896 C 771.141 -0.272793 -3.60469 0
M  V30 7897 O 770.862 -1.58233 -4.08527 0
M  V30 7898 C 772.363 0.188199 -4.429 0
M  V30 7899 H 769.583 -0.125758 -0.65911 0
M  V30 7900 H 772.127 -0.992129 -1.78821 0
M  V30 7901 H 770.282 0.384699 -3.85485 0
M  V30 7902 H 770.696 -1.49245 -5.02818 0
M  V30 7903 H 772.17 0.14608 -5.51807 0
M  V30 7904 H 772.647 1.2326 -4.21549 0
M  V30 7905 H 773.253 -0.439541 -4.23023 0
M  V30 7906 N 771.568 1.50203 -0.477153 0
M  V30 7907 C 772.478 2.32421 0.319027 0
M  V30 7908 C 773.494 1.43075 0.990233 0
M  V30 7909 O 774.67 1.76123 0.976873 0
M  V30 7910 C 771.735 3.17909 1.38328 0
M  V30 7911 C 770.796 4.23082 0.728036 0
M  V30 7912 C 770.029 5.04484 1.74158 0
M  V30 7913 O 770.252 4.8705 2.96881 0
M  V30 7914 O 769.186 5.8747 1.31006 0
M  V30 7915 H 773.012 3.01638 -0.353281 0
M  V30 7916 H 770.597 1.47478 -0.238891 0
M  V30 7917 H 772.479 3.70937 1.9996 0
M  V30 7918 H 771.154 2.51413 2.03895 0
M  V30 7919 H 770.061 3.7403 0.07261 0
M  V30 7920 H 771.394 4.92065 0.115216 0
M  V30 7921 N 773.046 0.209999 1.56195 0
M  V30 7922 C 774.457 -0.299943 1.84275 0
M  V30 7923 C 774.808 -1.60314 1.1311 0
M  V30 7924 O 773.933 -2.1273 0.396874 0
M  V30 7925 C 774.528 -0.550986 3.3429 0
M  V30 7926 C 773.087 -1.00526 3.62728 0
M  V30 7927 C 772.234 -0.0619828 2.77231 0
M  V30 7928 H 775.185 0.433458 1.52666 0
M  V30 7929 H 775.206 -1.39846 3.53869 0
M  V30 7930 H 774.718 0.397669 3.86057 0
M  V30 7931 H 772.819 -1.96768 3.16407 0
M  V30 7932 H 772.932 -0.887664 4.70805 0
M  V30 7933 H 771.296 -0.566648 2.48317 0
M  V30 7934 H 772.079 0.881383 3.31793 0
M  V30 7935 N 774.524 -1.57472 -0.0634922 0
M  V30 7936 C 775.749 -1.92273 -0.77756 0
M  V30 7937 C 776.174 -0.807141 -1.69902 0
M  V30 7938 O 775.532 0.239523 -1.79711 0
M  V30 7939 C 775.58 -3.26054 -1.54017 0
M  V30 7940 O 774.684 -3.15873 -2.65138 0
M  V30 7941 H 774.025 -0.629389 -0.211579 0
M  V30 7942 H 776.555 -2.04579 -0.0292523 0
M  V30 7943 H 776.565 -3.60127 -1.91763 0
M  V30 7944 H 775.24 -4.06824 -0.864128 0
M  V30 7945 H 773.817 -2.93373 -2.30189 0
M  V30 7946 N 776.003 0.335068 -1.53997 0
M  V30 7947 C 776.966 1.39481 -1.81872 0
M  V30 7948 C 777.966 1.4524 -0.690078 0
M  V30 7949 O 779.156 1.45467 -0.958377 0
M  V30 7950 C 776.288 2.78329 -1.9684 0
M  V30 7951 H 777.481 1.16024 -2.76547 0
M  V30 7952 H 775.034 0.569926 -1.45539 0
M  V30 7953 H 775.769 3.07058 -1.04337 0
M  V30 7954 H 775.554 2.75544 -2.78958 0
M  V30 7955 H 777.044 3.55016 -2.19894 0
M  V30 7956 N 777.481 1.45874 0.596531 0
M  V30 7957 C 778.411 1.5824 1.71705 0
M  V30 7958 C 779.392 0.433366 1.64487 0
M  V30 7959 O 780.577 0.657895 1.82717 0
M  V30 7960 C 777.707 1.55927 3.10329 0
M  V30 7961 C 776.661 2.69659 3.32367 0
M  V30 7962 C 775.987 2.52403 4.71377 0
M  V30 7963 C 777.287 4.11591 3.21544 0
M  V30 7964 H 778.981 2.52035 1.61613 0
M  V30 7965 H 776.527 1.21297 0.776082 0
M  V30 7966 H 778.48 1.63173 3.88526 0
M  V30 7967 H 777.204 0.586674 3.21288 0
M  V30 7968 H 775.863 2.61859 2.56564 0
M  V30 7969 H 775.511 1.53258 4.79083 0
M  V30 7970 H 775.211 3.28679 4.87077 0
M  V30 7971 H 776.735 2.6152 5.5176 0
M  V30 7972 H 778.149 4.20576 3.89601 0
M  V30 7973 H 776.546 4.88344 3.4877 0
M  V30 7974 H 777.616 4.32719 2.1882 0
M  V30 7975 N 778.959 -0.83999 1.33349 0
M  V30 7976 C 780.208 -1.59011 1.2409 0
M  V30 7977 C 780.521 -1.94655 -0.192029 0
M  V30 7978 O 781.727 -2.68438 -0.406617 0
M  V30 7979 C 780.183 -2.86801 2.17425 0
M  V30 7980 C 779.791 -2.58525 3.65881 0
M  V30 7981 C 781.535 -3.64823 2.17036 0
M  V30 7982 C 779.442 -3.82404 4.51133 0
M  V30 7983 H 778.372 -0.596731 0.460899 0
M  V30 7984 H 781.023 -0.926274 1.58406 0
M  V30 7985 H 779.405 -3.54719 1.7604 0
M  V30 7986 H 780.579 -1.98824 4.15699 0
M  V30 7987 H 778.894 -1.93808 3.68548 0
M  V30 7988 H 781.491 -4.56774 2.7796 0
M  V30 7989 H 781.834 -3.99663 1.16513 0
M  V30 7990 H 782.367 -3.03826 2.56777 0
M  V30 7991 H 779.106 -3.52696 5.52527 0
M  V30 7992 H 778.626 -4.41447 4.0606 0
M  V30 7993 H 780.305 -4.49995 4.6488 0
M  V30 7994 N 780.437 -1.16799 -1.0581 0
M  V30 7995 C 781.347 -0.893492 -2.16919 0
M  V30 7996 C 782.363 0.136061 -1.73467 0
M  V30 7997 O 783.539 -0.0417348 -2.01357 0
M  V30 7998 C 780.604 -0.403763 -3.44341 0
M  V30 7999 C 779.665 -1.49914 -4.02274 0
M  V30 8000 C 778.898 -1.03269 -5.23614 0
M  V30 8001 O 779.121 0.115647 -5.70283 0
M  V30 8002 O 778.055 -1.8231 -5.73626 0
M  V30 8003 H 781.881 -1.82274 -2.42919 0
M  V30 8004 H 779.466 -0.948361 -1.1544 0
M  V30 8005 H 781.348 -0.137874 -4.21174 0
M  V30 8006 H 780.023 0.497413 -3.19855 0
M  V30 8007 H 778.93 -1.81883 -3.26909 0
M  V30 8008 H 780.263 -2.3758 -4.31064 0
M  V30 8009 N 781.915 1.24427 -0.967243 0
M  V30 8010 C 782.862 2.25398 -0.496419 0
M  V30 8011 C 783.832 1.59667 0.457781 0
M  V30 8012 O 785.017 1.87213 0.368246 0
M  V30 8013 C 782.157 3.44474 0.207693 0
M  V30 8014 C 781.27 4.24804 -0.785221 0
M  V30 8015 C 780.405 5.31169 -0.0572631 0
M  V30 8016 C 779.444 6.03195 -1.04027 0
M  V30 8017 N 778.581 7.01265 -0.34235 0
M  V30 8018 H 783.421 2.65039 -1.36229 0
M  V30 8019 H 780.958 1.30288 -0.682902 0
M  V30 8020 H 782.916 4.12376 0.632612 0
M  V30 8021 H 781.546 3.05672 1.03752 0
M  V30 8022 H 780.598 3.56445 -1.32858 0
M  V30 8023 H 781.91 4.74599 -1.53483 0
M  V30 8024 H 781.064 6.05205 0.425674 0
M  V30 8025 H 779.803 4.8228 0.725047 0
M  V30 8026 H 778.808 5.27964 -1.53409 0
M  V30 8027 H 780.033 6.54173 -1.82302 0
M  V30 8028 H 777.979 6.54648 0.420993 0
M  V30 8029 H 777.896 7.48939 -1.03084 0
M  V30 8030 H 779.164 7.7941 0.118634 0
M  V30 8031 N 783.393 0.737304 1.3929 0
M  V30 8032 C 784.618 0.295237 2.05288 0
M  V30 8033 C 785.043 -1.06235 1.55228 0
M  V30 8034 O 784.401 -1.67365 0.697043 0
M  V30 8035 C 784.449 0.309146 3.59272 0
M  V30 8036 O 783.553 -0.702437 4.06374 0
M  V30 8037 H 782.894 0.133762 0.650387 0
M  V30 8038 H 785.424 1.00387 1.78279 0
M  V30 8039 H 785.434 0.154336 4.07708 0
M  V30 8040 H 784.109 1.29974 3.95069 0
M  V30 8041 H 782.686 -0.513574 3.69346 0
M  V30 8042 N 784.871 -1.49948 0.485112 0
M  V30 8043 C 786.096 -2.073 -0.0645059 0
M  V30 8044 C 786.521 -1.345 -1.31497 0
M  V30 8045 O 785.879 -0.39687 -1.76903 0
M  V30 8046 C 785.927 -3.59201 -0.317304 0
M  V30 8047 O 785.031 -3.88085 -1.39514 0
M  V30 8048 H 784.372 -0.663723 0.0191822 0
M  V30 8049 H 786.902 -1.92963 0.680179 0
M  V30 8050 H 786.912 -4.04227 -0.553604 0
M  V30 8051 H 785.587 -4.11602 0.596387 0
M  V30 8052 H 784.164 -3.54885 -1.14504 0
M  V30 8053 N 786.349 -0.21828 -1.56081 0
M  V30 8054 C 787.598 0.414644 -1.97392 0
M  V30 8055 C 787.911 1.61132 -1.10887 0
M  V30 8056 O 789.117 2.31355 -1.42082 0
M  V30 8057 C 787.573 0.789099 -3.51143 0
M  V30 8058 C 787.181 -0.384578 -4.46346 0
M  V30 8059 C 788.925 1.38781 -4.01173 0
M  V30 8060 C 786.832 0.0121288 -5.91399 0
M  V30 8061 H 785.762 0.158691 -0.737111 0
M  V30 8062 H 788.413 -0.313974 -1.80794 0
M  V30 8063 H 786.795 1.57505 -3.6333 0
M  V30 8064 H 787.969 -1.16212 -4.45905 0
M  V30 8065 H 786.284 -0.896306 -4.06639 0
M  V30 8066 H 788.881 1.69746 -5.07041 0
M  V30 8067 H 789.224 2.30245 -3.46833 0
M  V30 8068 H 789.757 0.665364 -3.92196 0
M  V30 8069 H 786.496 -0.868917 -6.49715 0
M  V30 8070 H 786.016 0.754053 -5.95041 0
M  V30 8071 H 787.695 0.439949 -6.45502 0
M  V30 8072 N 787.827 1.57504 0.0551401 0
M  V30 8073 C 788.759 2.0158 1.09078 0
M  V30 8074 C 789.772 0.92434 1.34014 0
M  V30 8075 O 790.961 1.20202 1.31961 0
M  V30 8076 C 788.061 2.35385 2.43818 0
M  V30 8077 C 787.234 3.66588 2.38605 0
M  V30 8078 C 786.293 3.87874 3.55585 0
M  V30 8079 O 785.319 4.59259 3.36258 0
M  V30 8080 N 786.521 3.31503 4.76536 0
M  V30 8081 H 789.286 2.91039 0.71529 0
M  V30 8082 H 786.847 1.60058 0.243532 0
M  V30 8083 H 788.839 2.46784 3.20749 0
M  V30 8084 H 787.409 1.51731 2.73307 0
M  V30 8085 H 786.629 3.65787 1.46947 0
M  V30 8086 H 787.917 4.52706 2.32239 0
M  V30 8087 H 787.315 2.73592 4.9514 0
M  V30 8088 H 785.872 3.48324 5.50921 0
M  V30 8089 N 789.305 -0.326896 1.54172 0
M  V30 8090 C 790.215 -1.42525 1.86343 0
M  V30 8091 C 791.231 -1.56764 0.75505 0
M  V30 8092 O 792.407 -1.71924 1.04901 0
M  V30 8093 C 789.472 -2.77286 2.08119 0
M  V30 8094 C 788.533 -2.7225 3.31931 0
M  V30 8095 C 787.766 -4.00584 3.52659 0
M  V30 8096 O 787.989 -4.98686 2.76891 0
M  V30 8097 O 786.923 -4.04045 4.46129 0
M  V30 8098 H 790.749 -1.18249 2.79734 0
M  V30 8099 H 788.334 -0.520614 1.40036 0
M  V30 8100 H 790.216 -3.57065 2.23791 0
M  V30 8101 H 788.891 -3.01459 1.17917 0
M  V30 8102 H 787.798 -1.91033 3.21647 0
M  V30 8103 H 789.131 -2.53032 4.2218 0
M  V30 8104 N 790.784 -1.46188 -0.588786 0
M  V30 8105 C 791.714 -1.59148 -1.70863 0
M  V30 8106 C 792.695 -0.442083 -1.64255 0
M  V30 8107 O 793.88 -0.667575 -1.82365 0
M  V30 8108 C 791.01 -1.5757 -3.09498 0
M  V30 8109 C 789.964 -2.71418 -3.30932 0
M  V30 8110 C 789.29 -2.549 -4.70032 0
M  V30 8111 C 790.59 -4.1329 -3.19356 0
M  V30 8112 H 792.284 -2.52889 -1.60274 0
M  V30 8113 H 789.83 -1.21707 -0.769638 0
M  V30 8114 H 791.783 -1.65231 -3.87655 0
M  V30 8115 H 790.507 -0.603705 -3.20972 0
M  V30 8116 H 789.166 -2.63216 -2.55172 0
M  V30 8117 H 788.814 -1.55797 -4.78264 0
M  V30 8118 H 788.514 -3.31257 -4.85327 0
M  V30 8119 H 790.038 -2.64443 -5.50366 0
M  V30 8120 H 791.452 -4.22636 -3.87365 0
M  V30 8121 H 789.849 -4.90187 -3.46175 0
M  V30 8122 H 790.919 -4.33874 -2.16522 0
M  V30 8123 N 792.262 0.832906 -1.33792 0
M  V30 8124 C 793.509 1.58853 -1.25586 0
M  V30 8125 C 793.837 1.93695 0.176807 0
M  V30 8126 O 793.092 1.59386 1.13554 0
M  V30 8127 C 793.391 2.9047 -2.08235 0
M  V30 8128 C 793.057 2.74965 -3.57358 0
M  V30 8129 C 791.719 2.70444 -3.98012 0
M  V30 8130 C 794.071 2.59347 -4.52093 0
M  V30 8131 C 791.399 2.48212 -5.31608 0
M  V30 8132 C 793.751 2.38649 -5.85858 0
M  V30 8133 C 792.415 2.32533 -6.25687 0
M  V30 8134 H 791.685 0.581285 -0.459553 0
M  V30 8135 H 794.332 0.964501 -1.65438 0
M  V30 8136 H 792.637 3.57111 -1.6118 0
M  V30 8137 H 794.334 3.48001 -1.99239 0
M  V30 8138 H 790.924 2.79319 -3.25083 0
M  V30 8139 H 795.108 2.6187 -4.2159 0
M  V30 8140 H 790.364 2.41929 -5.61498 0
M  V30 8141 H 794.538 2.25549 -6.58863 0
M  V30 8142 H 792.165 2.15067 -7.29143 0
M  V30 8143 N 793.74 1.17359 1.05189 0
M  V30 8144 C 794.65 0.904984 2.16442 0
M  V30 8145 C 795.666 -0.12686 1.73537 0
M  V30 8146 O 796.842 0.0524127 2.01332 0
M  V30 8147 C 793.907 0.422019 3.44122 0
M  V30 8148 C 792.968 1.52045 4.01473 0
M  V30 8149 C 792.201 1.06044 5.23059 0
M  V30 8150 O 792.424 -0.0854023 5.70336 0
M  V30 8151 O 791.358 1.85349 5.72651 0
M  V30 8152 H 795.184 1.8356 2.41949 0
M  V30 8153 H 792.769 0.95447 1.14936 0
M  V30 8154 H 794.651 0.160208 4.21095 0
M  V30 8155 H 793.326 -0.480444 3.20115 0
M  V30 8156 H 792.233 1.83615 3.25939 0
M  V30 8157 H 793.566 2.39863 4.29798 0
M  V30 8158 N 795.218 -1.23913 0.973828 0
M  V30 8159 C 796.151 -2.23647 0.45355 0
M  V30 8160 C 797.129 -1.55485 -0.475724 0
M  V30 8161 O 798.313 -1.84083 -0.405689 0
M  V30 8162 C 795.44 -3.36942 -0.344594 0
M  V30 8163 C 794.486 -4.23221 0.527859 0
M  V30 8164 S 795.319 -4.97877 1.97177 0
M  V30 8165 C 796.475 -6.14627 1.18258 0
M  V30 8166 H 796.708 -2.67433 1.29873 0
M  V30 8167 H 794.241 -1.33289 0.779322 0
M  V30 8168 H 796.199 -4.02647 -0.799103 0
M  V30 8169 H 794.86 -2.91703 -1.16482 0
M  V30 8170 H 794.053 -5.03928 -0.0852555 0
M  V30 8171 H 793.655 -3.6255 0.918344 0
M  V30 8172 H 795.947 -6.76066 0.440629 0
M  V30 8173 H 796.89 -6.80311 1.96425 0
M  V30 8174 H 797.298 -5.6009 0.704256 0
M  V30 8175 N 796.696 -0.74468 -1.38897 0
M  V30 8176 C 798.112 -0.421302 -1.53939 0
M  V30 8177 C 798.312 1.06668 -1.70951 0
M  V30 8178 O 797.368 1.85278 -1.71547 0
M  V30 8179 C 798.681 -1.21278 -2.75159 0
M  V30 8180 C 800.229 -1.20196 -2.89001 0
M  V30 8181 C 800.704 -1.97621 -4.13171 0
M  V30 8182 N 802.195 -1.94836 -4.2023 0
M  V30 8183 C 802.93 -2.51545 -5.15279 0
M  V30 8184 N 802.426 -3.1693 -6.16058 0
M  V30 8185 N 804.219 -2.41524 -5.07565 0
M  V30 8186 H 796.37 -1.70914 -1.26103 0
M  V30 8187 H 798.633 -0.724058 -0.611919 0
M  V30 8188 H 798.339 -2.26609 -2.68963 0
M  V30 8189 H 798.213 -0.823677 -3.68097 0
M  V30 8190 H 800.6 -0.156742 -2.94683 0
M  V30 8191 H 800.681 -1.63051 -1.97099 0
M  V30 8192 H 800.325 -3.02149 -4.0825 0
M  V30 8193 H 800.255 -1.52166 -5.04136 0
M  V30 8194 H 802.746 -1.4721 -3.48048 0
M  V30 8195 H 803.059 -3.57644 -6.85062 0
M  V30 8196 H 801.404 -3.21023 -6.16417 0
M  V30 8197 H 804.595 -1.90077 -4.27771 0
M  V30 8198 H 804.768 -2.86016 -5.81462 0
M  V30 8199 N 798.174 1.49689 -0.493057 0
M  V30 8200 C 799.42 2.02727 0.0543518 0
M  V30 8201 C 799.753 1.37264 1.37376 0
M  V30 8202 O 799.028 0.505644 1.87812 0
M  V30 8203 C 799.311 3.59456 0.215226 0
M  V30 8204 C 799.164 4.35459 -1.12675 0
M  V30 8205 C 800.483 4.29511 0.959586 0
M  V30 8206 H 797.602 0.736773 0.0182786 0
M  V30 8207 H 800.244 1.78792 -0.642924 0
M  V30 8208 H 798.394 3.79981 0.809122 0
M  V30 8209 H 800.066 4.2645 -1.75891 0
M  V30 8210 H 798.309 3.9833 -1.71801 0
M  V30 8211 H 798.98 5.43454 -0.967578 0
M  V30 8212 H 801.456 4.13594 0.455977 0
M  V30 8213 H 800.332 5.38939 1.04098 0
M  V30 8214 H 800.593 3.94202 2.00144 0
M  V30 8215 N 799.652 0.226554 1.55963 0
M  V30 8216 C 800.929 -0.453058 1.90281 0
M  V30 8217 C 801.309 -1.77377 1.14458 0
M  V30 8218 O 800.657 -2.27067 0.255496 0
M  V30 8219 C 800.867 -0.641108 3.43061 0
M  V30 8220 C 802.215 -0.946265 4.13921 0
M  V30 8221 O 803.239 -0.727713 3.48687 0
M  V30 8222 O 802.098 -1.36131 5.29274 0
M  V30 8223 H 799.192 -0.240242 0.791336 0
M  V30 8224 H 801.738 0.26911 1.67553 0
M  V30 8225 H 800.51 0.290283 3.90222 0
M  V30 8226 H 800.133 -1.41458 3.71585 0
M  V30 8227 N 801.13 -1.57531 -0.0467866 0
M  V30 8228 C 802.407 -1.79568 -0.775536 0
M  V30 8229 C 802.787 -0.820322 -1.94509 0
M  V30 8230 O 802.135 0.14134 -2.28062 0
M  V30 8231 C 802.345 -3.26789 -1.22516 0
M  V30 8232 C 803.693 -3.91299 -1.64835 0
M  V30 8233 O 804.717 -3.30831 -1.3202 0
M  V30 8234 O 803.576 -4.97727 -2.25677 0
M  V30 8235 H 800.67 -0.737817 -0.373572 0
M  V30 8236 H 803.216 -1.69682 -0.0249302 0
M  V30 8237 H 801.988 -3.89357 -0.389446 0
M  V30 8238 H 801.611 -3.41496 -2.03633 0
M  V30 8239 N 802.608 0.318715 -1.54344 0
M  V30 8240 C 803.555 1.39242 -1.84066 0
M  V30 8241 C 804.525 1.51175 -0.688134 0
M  V30 8242 O 805.71 1.66318 -0.935039 0
M  V30 8243 C 802.85 2.75528 -2.07794 0
M  V30 8244 C 801.963 2.72187 -3.35467 0
M  V30 8245 C 801.098 4.00352 -3.4913 0
M  V30 8246 C 800.137 3.91338 -4.7066 0
M  V30 8247 N 799.274 5.11242 -4.81224 0
M  V30 8248 H 804.114 1.13196 -2.75664 0
M  V30 8249 H 801.651 0.547857 -1.36517 0
M  V30 8250 H 803.609 3.54763 -2.19543 0
M  V30 8251 H 802.239 2.99873 -1.19482 0
M  V30 8252 H 801.291 1.84917 -3.3243 0
M  V30 8253 H 802.603 2.61411 -4.24812 0
M  V30 8254 H 801.757 4.88019 -3.60448 0
M  V30 8255 H 800.496 4.1394 -2.57886 0
M  V30 8256 H 799.501 3.02055 -4.59394 0
M  V30 8257 H 800.726 3.7931 -5.63294 0
M  V30 8258 H 798.672 5.25327 -3.92897 0
M  V30 8259 H 798.589 5.0282 -5.64543 0
M  V30 8260 H 799.857 6.0061 -4.96879 0
M  V30 8261 N 804.086 1.46499 0.581025 0
M  V30 8262 C 805.363 1.42372 1.34125 0
M  V30 8263 C 805.743 0.108073 2.10823 0
M  V30 8264 O 805.091 -0.910366 2.09582 0
M  V30 8265 C 805.301 2.65445 2.26583 0
M  V30 8266 C 806.649 3.11664 2.88359 0
M  V30 8267 O 807.673 2.66006 2.36896 0
M  V30 8268 O 806.532 3.90974 3.81839 0
M  V30 8269 H 803.626 0.566262 0.602724 0
M  V30 8270 H 806.172 1.58667 0.601903 0
M  V30 8271 H 804.944 3.52756 1.69348 0
M  V30 8272 H 804.567 2.51618 3.07854 0
M  V30 8273 N 805.565 -0.825799 1.34232 0
M  V30 8274 C 806.512 -1.93651 1.2557 0
M  V30 8275 C 807.482 -1.65578 0.131536 0
M  V30 8276 O 808.667 -1.88231 0.312027 0
M  V30 8277 C 805.807 -3.29862 1.01415 0
M  V30 8278 C 804.92 -3.70247 2.22579 0
M  V30 8279 C 804.055 -4.95392 1.91731 0
M  V30 8280 C 803.094 -5.28349 3.09053 0
M  V30 8281 N 802.231 -6.44671 2.78107 0
M  V30 8282 H 807.071 -2.00392 2.20561 0
M  V30 8283 H 804.608 -0.980441 1.09662 0
M  V30 8284 H 806.566 -4.08356 0.854485 0
M  V30 8285 H 805.196 -3.22642 0.100936 0
M  V30 8286 H 804.248 -2.87169 2.49476 0
M  V30 8287 H 805.56 -3.90575 3.10246 0
M  V30 8288 H 804.714 -5.81665 1.72484 0
M  V30 8289 H 803.453 -4.77059 1.0132 0
M  V30 8290 H 802.458 -4.40574 3.289 0
M  V30 8291 H 803.683 -5.48622 4.00239 0
M  V30 8292 H 801.629 -6.278 1.9027 0
M  V30 8293 H 801.546 -6.65158 3.59306 0
M  V30 8294 H 802.814 -7.34022 2.62358 0
M  V30 8295 N 807.043 -1.17915 -1.04565 0
M  V30 8296 C 808.292 -0.965816 -1.77073 0
M  V30 8297 C 808.605 0.506005 -1.88942 0
M  V30 8298 O 809.811 0.837717 -2.58253 0
M  V30 8299 C 808.267 -1.67894 -3.18339 0
M  V30 8300 C 807.875 -3.18972 -3.1458 0
M  V30 8301 C 809.619 -1.54823 -3.9526 0
M  V30 8302 C 807.526 -3.82946 -4.50674 0
M  V30 8303 H 806.456 -0.357729 -0.663736 0
M  V30 8304 H 809.107 -1.41235 -1.17153 0
M  V30 8305 H 807.489 -1.16016 -3.78624 0
M  V30 8306 H 808.663 -3.77835 -2.63776 0
M  V30 8307 H 806.978 -3.32127 -2.51159 0
M  V30 8308 H 809.575 -1.99984 -4.95894 0
M  V30 8309 H 809.918 -0.499727 -4.1329 0
M  V30 8310 H 810.451 -2.03953 -3.41538 0
M  V30 8311 H 807.19 -4.8782 -4.37849 0
M  V30 8312 H 806.71 -3.2887 -5.01602 0
M  V30 8313 H 808.389 -3.85518 -5.196 0
M  V30 8314 N 808.521 1.23394 -0.980386 0
M  V30 8315 C 809.431 2.28561 -0.528864 0
M  V30 8316 C 810.447 1.68946 0.416329 0
M  V30 8317 O 811.623 1.99355 0.286251 0
M  V30 8318 C 808.688 3.46323 0.16155 0
M  V30 8319 C 807.749 4.21297 -0.825044 0
M  V30 8320 C 806.982 5.33437 -0.167483 0
M  V30 8321 O 807.205 5.60812 1.04146 0
M  V30 8322 O 806.139 5.95637 -0.866047 0
M  V30 8323 H 809.965 2.69326 -1.40346 0
M  V30 8324 H 807.55 1.29325 -0.748019 0
M  V30 8325 H 809.432 4.17811 0.548841 0
M  V30 8326 H 808.107 3.0751 1.01092 0
M  V30 8327 H 807.014 3.52134 -1.26303 0
M  V30 8328 H 808.347 4.6396 -1.64322 0
M  V30 8329 N 809.999 0.752036 1.385 0
M  V30 8330 C 811.247 0.306895 1.99756 0
M  V30 8331 C 811.568 -1.11478 1.59992 0
M  V30 8332 O 810.838 -1.76206 0.856045 0
M  V30 8333 H 809.418 0.11048 0.738785 0
M  V30 8334 H 812.08 0.965785 1.69289 0
M  V30 8335 H 811.176 0.368797 3.09913 0
M  V30 8336 N 811.477 -1.49425 0.500989 0
M  V30 8337 C 812.723 -2.02753 -0.0436 0
M  V30 8338 C 813.056 -1.37991 -1.36646 0
M  V30 8339 O 812.331 -0.515597 -1.87542 0
M  V30 8340 C 812.614 -3.59565 -0.19616 0
M  V30 8341 C 812.467 -4.34855 1.14982 0
M  V30 8342 C 813.786 -4.30014 -0.936795 0
M  V30 8343 H 810.905 -0.73686 -0.0143711 0
M  V30 8344 H 813.547 -1.78448 0.652397 0
M  V30 8345 H 811.697 -3.80405 -0.788959 0
M  V30 8346 H 813.369 -4.25512 1.7815 0
M  V30 8347 H 811.612 -3.97414 1.73911 0
M  V30 8348 H 812.283 -5.42933 0.996385 0
M  V30 8349 H 814.759 -4.1383 -0.434036 0
M  V30 8350 H 813.635 -5.39483 -1.01238 0
M  V30 8351 H 813.896 -3.95257 -1.9805 0
M  V30 8352 N 812.955 -0.234822 -1.55841 0
M  V30 8353 C 814.203 0.392483 -1.98252 0
M  V30 8354 C 814.524 1.59344 -1.12404 0
M  V30 8355 O 813.794 1.94834 -0.204055 0
M  V30 8356 H 812.374 0.147999 -0.732192 0
M  V30 8357 H 815.036 -0.330804 -1.92072 0
M  V30 8358 H 814.132 0.709829 -3.03921 0
M  V30 8359 N 814.433 1.57553 0.0384317 0
M  V30 8360 C 815.396 2.04927 1.02653 0
M  V30 8361 C 816.396 0.951768 1.29607 0
M  V30 8362 O 817.586 1.21568 1.24768 0
M  V30 8363 C 814.718 2.45828 2.36181 0
M  V30 8364 H 815.911 2.93474 0.617508 0
M  V30 8365 H 813.464 1.53679 0.285031 0
M  V30 8366 H 814.199 1.60408 2.8185 0
M  V30 8367 H 813.984 3.25945 2.1795 0
M  V30 8368 H 815.474 2.82939 3.0714 0
M  V30 8369 N 815.911 -0.310526 1.54511 0
M  V30 8370 C 816.874 -1.3657 1.84068 0
M  V30 8371 C 817.874 -1.44123 0.713097 0
M  V30 8372 O 819.064 -1.43924 0.981399 0
M  V30 8373 C 816.196 -2.75162 2.01243 0
M  V30 8374 H 817.389 -1.1161 2.78358 0
M  V30 8375 H 814.942 -0.546699 1.46427 0
M  V30 8376 H 815.677 -3.05359 1.09208 0
M  V30 8377 H 815.462 -2.71071 2.83307 0
M  V30 8378 H 816.952 -3.51473 2.25514 0
M  V30 8379 N 817.389 -1.46805 -0.573248 0
M  V30 8380 C 818.617 -1.56191 -1.3569 0
M  V30 8381 C 819.032 -0.206362 -1.87669 0
M  V30 8382 O 818.389 0.797883 -1.64134 0
M  V30 8383 C 818.44 -2.57433 -2.53792 0
M  V30 8384 O 818.161 -3.87724 -2.03965 0
M  V30 8385 C 819.662 -2.76851 -3.4622 0
M  V30 8386 H 816.882 -0.527907 -0.414192 0
M  V30 8387 H 819.426 -1.92292 -0.695989 0
M  V30 8388 H 817.581 -2.24311 -3.15854 0
M  V30 8389 H 817.995 -4.42909 -2.80948 0
M  V30 8390 H 819.469 -3.5159 -4.25545 0
M  V30 8391 H 819.946 -1.84095 -3.98755 0
M  V30 8392 H 820.552 -3.11107 -2.89987 0
M  V30 8393 N 818.867 0.818669 -1.34668 0
M  V30 8394 C 820.092 1.61193 -1.30505 0
M  V30 8395 C 820.517 1.87734 0.117341 0
M  V30 8396 O 819.875 1.45591 1.08042 0
M  V30 8397 C 819.923 2.92733 -2.1057 0
M  V30 8398 O 819.027 3.85 -1.47813 0
M  V30 8399 H 818.368 0.490085 -0.44801 0
M  V30 8400 H 820.898 1.01701 -1.77534 0
M  V30 8401 H 820.908 3.42262 -2.22082 0
M  V30 8402 H 819.583 2.7274 -3.13984 0
M  V30 8403 H 818.16 3.43525 -1.45069 0
M  V30 8404 N 820.346 1.18468 1.03938 0
M  V30 8405 C 821.309 0.914944 2.10146 0
M  V30 8406 C 822.309 -0.10022 1.60487 0
M  V30 8407 O 823.499 0.133365 1.73689 0
M  V30 8408 C 820.631 0.372993 3.38853 0
M  V30 8409 H 821.824 1.85677 2.35508 0
M  V30 8410 H 819.377 0.996876 1.20383 0
M  V30 8411 H 820.112 -0.57538 3.19155 0
M  V30 8412 H 819.897 1.1048 3.76213 0
M  V30 8413 H 821.387 0.203014 4.17106 0
M  V30 8414 N 821.824 -1.22873 0.986916 0
M  V30 8415 C 822.734 -2.28277 0.540978 0
M  V30 8416 C 823.75 -1.69164 -0.407363 0
M  V30 8417 O 824.926 -1.99504 -0.275674 0
M  V30 8418 C 821.991 -3.46404 -0.143181 0
M  V30 8419 C 821.052 -4.20854 0.847375 0
M  V30 8420 C 820.285 -5.33341 0.19577 0
M  V30 8421 O 820.508 -5.61356 -1.0117 0
M  V30 8422 O 819.442 -5.95169 0.897623 0
M  V30 8423 H 823.268 -2.68578 1.41773 0
M  V30 8424 H 820.853 -1.28927 0.754867 0
M  V30 8425 H 822.735 -4.18096 -0.526676 0
M  V30 8426 H 821.41 -3.08041 -0.994593 0
M  V30 8427 H 820.317 -3.51459 1.28169 0
M  V30 8428 H 821.65 -4.63082 1.6678 0
M  V30 8429 N 823.302 -0.75937 -1.38099 0
M  V30 8430 C 824.232 -0.151077 -2.33011 0
M  V30 8431 C 825.213 0.697099 -1.5516 0
M  V30 8432 O 826.398 0.637101 -1.83452 0
M  V30 8433 C 823.528 0.738423 -3.39359 0
M  V30 8434 C 822.482 -0.0074741 -4.27999 0
M  V30 8435 C 821.808 1.00066 -5.25253 0
M  V30 8436 C 823.108 -1.17926 -5.08813 0
M  V30 8437 H 824.802 -0.943933 -2.84131 0
M  V30 8438 H 822.348 -0.455362 -1.36611 0
M  V30 8439 H 824.301 1.17369 -4.04725 0
M  V30 8440 H 823.025 1.56366 -2.86735 0
M  V30 8441 H 821.684 -0.423379 -3.64147 0
M  V30 8442 H 821.332 1.82012 -4.68914 0
M  V30 8443 H 821.032 0.506199 -5.85416 0
M  V30 8444 H 822.556 1.43512 -5.93495 0
M  V30 8445 H 823.97 -0.821262 -5.67387 0
M  V30 8446 H 822.367 -1.60497 -5.78239 0
M  V30 8447 H 823.437 -1.98938 -4.42212 0
M  V30 8448 N 824.78 1.49157 -0.508906 0
M  V30 8449 C 826.057 1.95363 0.0961913 0
M  V30 8450 C 826.437 1.45064 1.53362 0
M  V30 8451 O 825.785 0.667835 2.18523 0
M  V30 8452 C 825.995 3.49 0.000688881 0
M  V30 8453 C 827.343 4.24257 0.170632 0
M  V30 8454 O 828.367 3.5612 0.0754994 0
M  V30 8455 O 827.226 5.45267 0.366957 0
M  V30 8456 H 824.32 0.821984 0.0909489 0
M  V30 8457 H 826.866 1.59769 -0.572007 0
M  V30 8458 H 825.638 3.78269 -1.00143 0
M  V30 8459 H 825.261 3.91233 0.708682 0
M  V30 8460 N 826.258 0.243083 1.55714 0
M  V30 8461 C 827.191 -0.698623 2.17243 0
M  V30 8462 C 828.169 -1.1756 1.12331 0
M  V30 8463 O 829.353 -1.25444 1.40699 0
M  V30 8464 C 826.48 -1.94901 2.77004 0
M  V30 8465 C 825.526 -1.61022 3.94936 0
M  V30 8466 S 826.359 -0.716173 5.30689 0
M  V30 8467 C 827.515 -1.97565 5.93901 0
M  V30 8468 H 827.748 -0.175724 2.9678 0
M  V30 8469 H 825.281 0.0275727 1.54375 0
M  V30 8470 H 827.239 -2.66687 3.12071 0
M  V30 8471 H 825.9 -2.44304 1.9742 0
M  V30 8472 H 825.093 -2.5398 4.35328 0
M  V30 8473 H 824.695 -0.972829 3.61126 0
M  V30 8474 H 826.987 -2.92333 6.11186 0
M  V30 8475 H 827.93 -1.61528 6.8943 0
M  V30 8476 H 828.338 -2.126 5.22935 0
M  V30 8477 N 827.736 -1.57571 -0.0300757 0
M  V30 8478 C 829.147 -1.77567 -0.576802 0
M  V30 8479 C 829.498 -0.874034 -1.75656 0
M  V30 8480 O 828.623 -0.0686124 -2.16291 0
M  V30 8481 C 829.218 -3.22016 -1.05315 0
M  V30 8482 C 827.777 -3.43212 -1.5454 0
M  V30 8483 C 826.924 -2.73061 -0.483033 0
M  V30 8484 H 829.875 -1.57483 0.196151 0
M  V30 8485 H 829.896 -3.28474 -1.92055 0
M  V30 8486 H 829.408 -3.87613 -0.194298 0
M  V30 8487 H 827.509 -2.82788 -2.42615 0
M  V30 8488 H 827.622 -4.5182 -1.5936 0
M  V30 8489 H 825.986 -2.36805 -0.937835 0
M  V30 8490 H 826.769 -3.4134 0.366341 0
M  V30 8491 N 829.214 0.302327 -1.54673 0
M  V30 8492 C 830.461 1.0377 -1.73891 0
M  V30 8493 C 830.789 1.87309 -0.523979 0
M  V30 8494 O 830.044 1.8936 0.494084 0
M  V30 8495 C 830.343 1.97365 -2.97963 0
M  V30 8496 C 830.009 1.29812 -4.3181 0
M  V30 8497 C 828.671 1.11121 -4.68194 0
M  V30 8498 C 831.023 0.815073 -5.14787 0
M  V30 8499 C 828.351 0.428077 -5.85136 0
M  V30 8500 C 830.703 0.145665 -6.32432 0
M  V30 8501 C 829.367 -0.0532098 -6.67479 0
M  V30 8502 H 828.637 0.379721 -0.636312 0
M  V30 8503 H 831.284 0.312708 -1.8893 0
M  V30 8504 H 829.589 2.76387 -2.777 0
M  V30 8505 H 831.286 2.54331 -3.10027 0
M  V30 8506 H 827.876 1.45366 -4.03196 0
M  V30 8507 H 832.06 0.947191 -4.87178 0
M  V30 8508 H 827.316 0.262995 -6.10834 0
M  V30 8509 H 831.49 -0.236533 -6.95998 0
M  V30 8510 H 829.117 -0.58456 -7.57949 0
M  V30 8511 N 830.692 1.47107 0.565454 0
M  V30 8512 C 831.922 1.56681 1.34664 0
M  V30 8513 C 832.33 0.213011 1.87997 0
M  V30 8514 O 831.673 -0.802629 1.65238 0
M  V30 8515 C 831.735 2.52528 2.55871 0
M  V30 8516 C 831.399 3.98403 2.23883 0
M  V30 8517 C 832.396 4.87125 1.81673 0
M  V30 8518 C 830.081 4.43674 2.35496 0
M  V30 8519 C 832.075 6.19135 1.51494 0
M  V30 8520 C 829.762 5.75714 2.0493 0
M  V30 8521 C 830.76 6.63266 1.62996 0
M  V30 8522 O 830.448 7.92853 1.32813 0
M  V30 8523 H 830.18 0.531967 0.417117 0
M  V30 8524 H 832.734 1.93368 0.692669 0
M  V30 8525 H 830.964 2.10893 3.24131 0
M  V30 8526 H 832.653 2.5232 3.17945 0
M  V30 8527 H 833.419 4.534 1.72201 0
M  V30 8528 H 829.298 3.7574 2.67096 0
M  V30 8529 H 832.842 6.87429 1.1869 0
M  V30 8530 H 828.739 6.08983 2.14031 0
M  V30 8531 H 829.507 8.0528 1.46513 0
M  V30 8532 N 832.17 -0.811516 1.35101 0
M  V30 8533 C 833.08 -1.95475 1.29718 0
M  V30 8534 C 834.096 -1.72813 0.202909 0
M  V30 8535 O 835.272 -1.96725 0.431414 0
M  V30 8536 C 832.337 -3.29975 1.06385 0
M  V30 8537 C 831.398 -3.65566 2.25077 0
M  V30 8538 C 830.631 -4.93648 2.02848 0
M  V30 8539 O 830.854 -5.617 0.992442 0
M  V30 8540 O 829.788 -5.27384 2.90087 0
M  V30 8541 H 833.614 -2.02961 2.25921 0
M  V30 8542 H 831.199 -0.948583 1.15422 0
M  V30 8543 H 833.081 -4.10506 0.951999 0
M  V30 8544 H 831.756 -3.2343 0.132294 0
M  V30 8545 H 830.663 -2.85432 2.41825 0
M  V30 8546 H 831.996 -3.7681 3.16662 0
M  V30 8547 N 833.648 -1.19017 -1.03309 0
M  V30 8548 C 834.925 -0.899659 -1.73682 0
M  V30 8549 C 835.305 0.595677 -2.02521 0
M  V30 8550 O 834.653 1.55263 -1.67648 0
M  V30 8551 C 834.863 -1.75508 -3.01659 0
M  V30 8552 C 836.211 -1.98679 -3.75249 0
M  V30 8553 O 837.235 -1.72624 -3.11576 0
M  V30 8554 O 836.094 -2.42587 -4.89708 0
M  V30 8555 H 833.188 -0.334903 -0.756154 0
M  V30 8556 H 835.734 -1.29809 -1.09305 0
M  V30 8557 H 834.506 -2.7684 -2.76542 0
M  V30 8558 H 834.129 -1.35565 -3.73775 0
M  V30 8559 N 835.127 1.22348 -0.993418 0
M  V30 8560 C 836.074 2.24294 -0.544118 0
M  V30 8561 C 837.044 1.60602 0.42381 0
M  V30 8562 O 838.229 1.87952 0.328453 0
M  V30 8563 C 835.369 3.44837 0.134578 0
M  V30 8564 C 834.482 4.23043 -0.875151 0
M  V30 8565 C 833.617 5.30928 -0.169919 0
M  V30 8566 C 832.656 6.00853 -1.16798 0
M  V30 8567 N 831.793 7.00381 -0.491021 0
M  V30 8568 H 836.633 2.6209 -1.4182 0
M  V30 8569 H 834.17 1.2881 -0.710384 0
M  V30 8570 H 836.128 4.13625 0.544998 0
M  V30 8571 H 834.758 3.07804 0.972446 0
M  V30 8572 H 833.81 3.53546 -1.40389 0
M  V30 8573 H 835.122 4.71237 -1.63516 0
M  V30 8574 H 834.276 6.05972 0.297205 0
M  V30 8575 H 833.015 4.8371 0.622586 0
M  V30 8576 H 832.02 5.24591 -1.64573 0
M  V30 8577 H 833.245 6.50159 -1.96137 0
M  V30 8578 H 831.191 6.55393 0.282037 0
M  V30 8579 H 831.108 7.46584 -1.18947 0
M  V30 8580 H 832.376 7.79486 -0.0467169 0
M  V30 8581 N 836.605 0.766683 1.37694 0
M  V30 8582 C 837.83 0.338715 2.04615 0
M  V30 8583 C 838.255 -1.02918 1.57447 0
M  V30 8584 O 837.613 -1.65849 0.732386 0
M  V30 8585 C 837.661 0.385284 3.58536 0
M  V30 8586 O 836.765 -0.616081 4.07772 0
M  V30 8587 H 836.106 0.147527 0.647404 0
M  V30 8588 H 838.636 1.04146 1.7611 0
M  V30 8589 H 838.646 0.240782 4.07289 0
M  V30 8590 H 837.321 1.38325 3.92223 0
M  V30 8591 H 835.898 -0.435115 3.70353 0
M  V30 8592 N 838.083 -1.48885 0.516809 0
M  V30 8593 C 839.331 -2.02088 -0.0220166 0
M  V30 8594 C 839.652 -1.39735 -1.36011 0
M  V30 8595 O 838.922 -0.558119 -1.87781 0
M  V30 8596 H 837.502 -0.746917 -0.0111255 0
M  V30 8597 H 840.164 -1.8274 0.677647 0
M  V30 8598 H 839.26 -3.11786 -0.140067 0
M  V30 8599 N 839.561 -0.251338 -1.55583 0
M  V30 8600 C 840.494 0.687092 -2.1761 0
M  V30 8601 C 841.472 1.16963 -1.12953 0
M  V30 8602 O 842.656 1.24696 -1.41362 0
M  V30 8603 C 839.783 1.93429 -2.78034 0
M  V30 8604 C 838.829 1.58925 -3.95784 0
M  V30 8605 S 839.662 0.688019 -5.31062 0
M  V30 8606 C 840.818 1.94413 -5.94941 0
M  V30 8607 H 841.051 0.159982 -2.96869 0
M  V30 8608 H 838.584 -0.0357593 -1.54359 0
M  V30 8609 H 840.542 2.65028 -3.13481 0
M  V30 8610 H 839.203 2.43253 -1.98713 0
M  V30 8611 H 838.396 2.51668 -4.36668 0
M  V30 8612 H 837.998 0.953664 -3.61637 0
M  V30 8613 H 840.29 2.89087 -6.12727 0
M  V30 8614 H 841.233 1.5787 -6.90277 0
M  V30 8615 H 841.641 2.09824 -5.24056 0
M  V30 8616 N 841.039 1.57585 0.0217189 0
M  V30 8617 C 842.264 1.94267 0.726309 0
M  V30 8618 C 842.689 0.851904 1.67703 0
M  V30 8619 O 842.047 -0.191792 1.80283 0
M  V30 8620 C 842.095 3.30023 1.45318 0
M  V30 8621 O 841.199 3.22791 2.5667 0
M  V30 8622 H 840.54 0.634777 0.194818 0
M  V30 8623 H 843.07 2.04585 -0.0249985 0
M  V30 8624 H 843.08 3.65084 1.82147 0
M  V30 8625 H 841.755 4.08972 0.755962 0
M  V30 8626 H 840.332 2.99373 2.2233 0
M  V30 8627 N 842.517 -0.29412 1.54831 0
M  V30 8628 C 843.464 -1.36296 1.86258 0
M  V30 8629 C 844.434 -1.50061 0.712097 0
M  V30 8630 O 845.619 -1.64809 0.961381 0
M  V30 8631 C 842.759 -2.72187 2.12151 0
M  V30 8632 C 841.872 -2.66816 3.39755 0
M  V30 8633 C 841.007 -3.94747 3.55455 0
M  V30 8634 C 840.046 -3.838 4.76827 0
M  V30 8635 N 839.183 -5.03521 4.89296 0
M  V30 8636 H 844.023 -1.08796 2.7743 0
M  V30 8637 H 841.56 -0.526069 1.37371 0
M  V30 8638 H 843.518 -3.51225 2.25159 0
M  V30 8639 H 842.148 -2.97934 1.24237 0
M  V30 8640 H 841.2 -1.79605 3.3533 0
M  V30 8641 H 842.512 -2.5462 4.28917 0
M  V30 8642 H 841.666 -4.82223 3.68166 0
M  V30 8643 H 840.405 -4.09785 2.64438 0
M  V30 8644 H 839.41 -2.94708 4.64141 0
M  V30 8645 H 840.635 -3.70301 5.69258 0
M  V30 8646 H 838.581 -5.1901 4.01204 0
M  V30 8647 H 838.498 -4.93775 5.72471 0
M  V30 8648 H 839.766 -5.92629 5.06371 0
M  V30 8649 N 843.995 -1.47404 -0.557645 0
M  V30 8650 C 845.225 -1.57393 -1.33832 0
M  V30 8651 C 845.633 -0.222978 -1.87881 0
M  V30 8652 O 844.976 0.793854 -1.65661 0
M  V30 8653 C 845.038 -2.53882 -2.54528 0
M  V30 8654 C 844.702 -3.99585 -2.21767 0
M  V30 8655 C 845.699 -4.88082 -1.79087 0
M  V30 8656 C 843.384 -4.44917 -2.3314 0
M  V30 8657 C 845.378 -6.1993 -1.48209 0
M  V30 8658 C 843.065 -5.76793 -2.01874 0
M  V30 8659 C 844.063 -6.64121 -1.59476 0
M  V30 8660 O 843.751 -7.93546 -1.28607 0
M  V30 8661 H 843.483 -0.534172 -0.41429 0
M  V30 8662 H 846.037 -1.93733 -0.682404 0
M  V30 8663 H 844.267 -2.12609 -3.23009 0
M  V30 8664 H 845.956 -2.54003 -3.16603 0
M  V30 8665 H 846.722 -4.54307 -1.69794 0
M  V30 8666 H 842.601 -3.77152 -2.65099 0
M  V30 8667 H 846.145 -6.88049 -1.15043 0
M  V30 8668 H 842.042 -6.1011 -2.10799 0
M  V30 8669 H 842.81 -8.06046 -1.42241 0
M  V30 8670 N 845.473 0.80434 -1.35529 0
M  V30 8671 C 846.72 1.56154 -1.28927 0
M  V30 8672 C 847.048 1.94026 0.135682 0
M  V30 8673 O 846.303 1.61759 1.10148 0
M  V30 8674 C 846.602 2.85988 -2.14349 0
M  V30 8675 C 846.268 2.67323 -3.6311 0
M  V30 8676 C 844.93 2.61941 -4.03659 0
M  V30 8677 C 847.282 2.49699 -4.57493 0
M  V30 8678 C 844.61 2.3688 -5.36754 0
M  V30 8679 C 846.962 2.26168 -5.90788 0
M  V30 8680 C 845.626 2.19209 -6.30479 0
M  V30 8681 H 844.896 0.571407 -0.471779 0
M  V30 8682 H 847.543 0.929193 -1.67446 0
M  V30 8683 H 845.848 3.53612 -1.68718 0
M  V30 8684 H 847.545 3.43697 -2.06576 0
M  V30 8685 H 844.135 2.72361 -3.30934 0
M  V30 8686 H 848.319 2.52869 -4.27049 0
M  V30 8687 H 843.575 2.29964 -5.66504 0
M  V30 8688 H 847.749 2.11522 -6.63499 0
M  V30 8689 H 845.376 1.99553 -7.33541 0
M  V30 8690 N 846.951 1.19563 1.02676 0
M  V30 8691 C 847.861 0.950691 2.14474 0
M  V30 8692 C 848.877 -0.0900219 1.73767 0
M  V30 8693 O 850.053 0.0951063 2.01175 0
M  V30 8694 C 847.118 0.494917 3.43149 0
M  V30 8695 C 846.179 1.60527 3.98158 0
M  V30 8696 C 845.412 1.17115 5.20692 0
M  V30 8697 O 845.635 0.0355937 5.70389 0
M  V30 8698 O 844.569 1.97454 5.68591 0
M  V30 8699 H 848.395 1.88651 2.38001 0
M  V30 8700 H 845.98 0.978635 1.12885 0
M  V30 8701 H 847.862 0.249492 4.20661 0
M  V30 8702 H 846.537 -0.412434 3.21062 0
M  V30 8703 H 845.444 1.90487 3.21971 0
M  V30 8704 H 846.777 2.48925 4.24614 0
M  V30 8705 N 848.429 -1.21819 0.999893 0
M  V30 8706 C 849.657 -1.94758 0.698359 0
M  V30 8707 C 850.072 -1.73771 -0.738183 0
M  V30 8708 O 849.429 -1.04113 -1.49889 0
M  V30 8709 C 849.48 -3.47292 1.00353 0
M  V30 8710 O 849.201 -3.67579 2.38363 0
M  V30 8711 C 850.702 -4.37403 0.72068 0
M  V30 8712 H 847.922 -0.619512 0.257771 0
M  V30 8713 H 850.466 -1.54778 1.33656 0
M  V30 8714 H 848.621 -3.85213 0.411018 0
M  V30 8715 H 849.035 -4.61719 2.48829 0
M  V30 8716 H 850.509 -5.43151 0.984422 0
M  V30 8717 H 850.986 -4.3784 -0.345309 0
M  V30 8718 H 851.592 -4.05119 1.29456 0
M  V30 8719 N 849.908 -0.773975 -1.37286 0
M  V30 8720 C 851.133 -0.349561 -2.04433 0
M  V30 8721 C 851.558 1.02082 -1.5799 0
M  V30 8722 O 850.916 1.65458 -0.741172 0
M  V30 8723 C 850.964 -0.404292 -3.58326 0
M  V30 8724 O 850.068 0.594447 -4.08093 0
M  V30 8725 H 849.409 -0.150959 -0.646612 0
M  V30 8726 H 851.939 -1.05079 -1.75555 0
M  V30 8727 H 851.949 -0.262378 -4.07155 0
M  V30 8728 H 850.624 -1.40403 -3.91484 0
M  V30 8729 H 849.201 0.415468 -3.70578 0
M  V30 8730 N 851.386 1.48609 -0.524698 0
M  V30 8731 C 852.349 2.28041 0.230166 0
M  V30 8732 C 853.349 1.35065 0.872584 0
M  V30 8733 O 854.539 1.58007 0.73345 0
M  V30 8734 C 851.671 3.13778 1.33252 0
M  V30 8735 H 852.864 2.96239 -0.467161 0
M  V30 8736 H 850.417 1.53763 -0.280452 0
M  V30 8737 H 851.152 2.502 2.06327 0
M  V30 8738 H 850.937 3.82165 0.877058 0
M  V30 8739 H 852.427 3.7371 1.86362 0
M  V30 8740 N 852.864 0.259585 1.55447 0
M  V30 8741 C 853.794 -0.62852 2.24882 0
M  V30 8742 C 854.775 -1.17128 1.23349 0
M  V30 8743 O 855.96 -1.20829 1.52033 0
M  V30 8744 C 853.09 -1.81983 2.95803 0
M  V30 8745 C 852.044 -1.40929 4.04132 0
M  V30 8746 C 851.37 -2.68246 4.62545 0
M  V30 8747 C 852.67 -0.570956 5.1917 0
M  V30 8748 H 854.364 -0.0495021 2.99359 0
M  V30 8749 H 851.91 -0.0223688 1.43983 0
M  V30 8750 H 853.863 -2.44689 3.43082 0
M  V30 8751 H 852.587 -2.42444 2.18835 0
M  V30 8752 H 851.246 -0.805519 3.57641 0
M  V30 8753 H 850.894 -3.26931 3.82263 0
M  V30 8754 H 850.594 -2.41495 5.35681 0
M  V30 8755 H 852.118 -3.31827 5.12565 0
M  V30 8756 H 853.532 -1.10262 5.62597 0
M  V30 8757 H 851.929 -0.398979 5.98772 0
M  V30 8758 H 852.999 0.413918 4.8313 0
M  V30 8759 N 854.342 -1.57594 -0.0133615 0
M  V30 8760 C 855.289 -2.07574 -1.00905 0
M  V30 8761 C 856.259 -0.968231 -1.34961 0
M  V30 8762 O 857.444 -1.23981 -1.45028 0
M  V30 8763 C 854.584 -2.5728 -2.30002 0
M  V30 8764 C 853.697 -3.81881 -2.01967 0
M  V30 8765 C 852.832 -4.20139 -3.25049 0
M  V30 8766 C 851.871 -5.37614 -2.92639 0
M  V30 8767 N 851.008 -5.71229 -4.08218 0
M  V30 8768 H 855.848 -2.92382 -0.575899 0
M  V30 8769 H 853.385 -1.4455 -0.272722 0
M  V30 8770 H 855.343 -2.84171 -3.05454 0
M  V30 8771 H 853.973 -1.75365 -2.71011 0
M  V30 8772 H 853.025 -3.61979 -1.16942 0
M  V30 8773 H 854.337 -4.67441 -1.74069 0
M  V30 8774 H 853.491 -4.48242 -4.08857 0
M  V30 8775 H 852.23 -3.33262 -3.56073 0
M  V30 8776 H 851.235 -5.09248 -2.07235 0
M  V30 8777 H 852.46 -6.26157 -2.62876 0
M  V30 8778 H 850.406 -4.8731 -4.39164 0
M  V30 8779 H 850.323 -6.51333 -3.83799 0
M  V30 8780 H 851.591 -6.03917 -4.92854 0
M  V30 8781 N 855.82 0.285905 -1.54985 0
M  V30 8782 C 856.73 1.37534 -1.90057 0
M  V30 8783 C 857.746 1.54707 -0.796348 0
M  V30 8784 O 858.922 1.69082 -1.09423 0
M  V30 8785 C 855.987 2.7167 -2.15398 0
M  V30 8786 C 855.048 2.63354 -3.39033 0
M  V30 8787 C 854.281 3.91093 -3.63155 0
M  V30 8788 O 854.504 4.91169 -2.90015 0
M  V30 8789 O 853.438 3.92075 -4.56685 0
M  V30 8790 H 857.264 1.10791 -2.8277 0
M  V30 8791 H 854.849 0.483303 -1.41367 0
M  V30 8792 H 856.731 3.51006 -2.33179 0
M  V30 8793 H 855.406 2.98226 -1.25868 0
M  V30 8794 H 854.313 1.82438 -3.26599 0
M  V30 8795 H 855.646 2.41749 -4.2874 0
M  V30 8796 N 857.298 1.47698 0.54982 0
M  V30 8797 C 858.208 1.63386 1.68351 0
M  V30 8798 C 859.224 0.516583 1.66155 0
M  V30 8799 O 860.4 0.785088 1.85468 0
M  V30 8800 C 857.465 1.6513 3.04849 0
M  V30 8801 C 856.526 2.88338 3.18056 0
M  V30 8802 C 855.759 2.8999 4.48042 0
M  V30 8803 O 855.982 2.00633 5.3395 0
M  V30 8804 O 854.916 3.81938 4.65196 0
M  V30 8805 H 858.742 2.59329 1.58057 0
M  V30 8806 H 856.327 1.30869 0.72067 0
M  V30 8807 H 858.209 1.68913 3.86065 0
M  V30 8808 H 856.884 0.723555 3.1551 0
M  V30 8809 H 855.791 2.90097 2.36209 0
M  V30 8810 H 857.124 3.80431 3.12302 0
M  V30 8811 N 858.776 -0.797141 1.35954 0
M  V30 8812 C 859.739 -1.89104 1.29508 0
M  V30 8813 C 860.739 -1.59495 0.204444 0
M  V30 8814 O 861.929 -1.68051 0.458746 0
M  V30 8815 C 859.061 -3.25726 1.00576 0
M  V30 8816 H 860.254 -1.96237 2.26785 0
M  V30 8817 H 857.807 -0.994075 1.20614 0
M  V30 8818 H 858.542 -3.24279 0.0372519 0
M  V30 8819 H 858.327 -3.48604 1.79492 0
M  V30 8820 H 859.817 -4.0578 0.986508 0
M  V30 8821 N 860.254 -1.20106 -1.0204 0
M  V30 8822 C 861.482 -1.0344 -1.79186 0
M  V30 8823 C 861.897 0.416542 -1.84148 0
M  V30 8824 O 861.254 1.28925 -1.29168 0
M  V30 8825 C 861.305 -1.60663 -3.23836 0
M  V30 8826 O 861.026 -3.00079 -3.19193 0
M  V30 8827 C 862.527 -1.48897 -4.17546 0
M  V30 8828 H 859.747 -0.364093 -0.563629 0
M  V30 8829 H 862.291 -1.5911 -1.28469 0
M  V30 8830 H 860.446 -1.09122 -3.71714 0
M  V30 8831 H 860.86 -3.27162 -4.09958 0
M  V30 8832 H 862.334 -1.93703 -5.16898 0
M  V30 8833 H 862.811 -0.440843 -4.36982 0
M  V30 8834 H 863.417 -1.9961 -3.75547 0
M  V30 8835 N 861.732 1.21287 -1.00634 0
M  V30 8836 C 862.679 2.23705 -0.567876 0
M  V30 8837 C 863.649 1.61043 0.406753 0
M  V30 8838 O 864.834 1.88289 0.308499 0
M  V30 8839 C 861.974 3.44961 0.097996 0
M  V30 8840 C 861.087 4.22091 -0.919972 0
M  V30 8841 C 860.222 5.30718 -0.226222 0
M  V30 8842 C 859.261 5.99581 -1.23165 0
M  V30 8843 N 858.398 6.99821 -0.565278 0
M  V30 8844 H 863.238 2.60571 -1.44592 0
M  V30 8845 H 860.775 1.28049 -0.724006 0
M  V30 8846 H 862.733 4.1418 0.501097 0
M  V30 8847 H 861.363 3.08818 0.939744 0
M  V30 8848 H 860.415 3.52038 -1.44131 0
M  V30 8849 H 861.727 4.69476 -1.68505 0
M  V30 8850 H 860.881 6.06253 0.232917 0
M  V30 8851 H 859.62 4.84343 0.571247 0
M  V30 8852 H 858.625 5.22816 -1.70128 0
M  V30 8853 H 859.85 6.48042 -2.03022 0
M  V30 8854 H 857.796 6.55656 0.212508 0
M  V30 8855 H 857.713 7.4528 -1.26858 0
M  V30 8856 H 858.981 7.79393 -0.129389 0
M  V30 8857 N 863.21 0.781244 1.36873 0
M  V30 8858 C 864.435 0.360398 2.04245 0
M  V30 8859 C 864.86 -1.01242 1.58529 0
M  V30 8860 O 864.218 -1.65063 0.749936 0
M  V30 8861 C 864.266 0.42329 3.58107 0
M  V30 8862 O 863.37 -0.572796 4.08403 0
M  V30 8863 H 862.711 0.154386 0.645803 0
M  V30 8864 H 865.241 1.06008 1.74996 0
M  V30 8865 H 865.251 0.283967 4.07011 0
M  V30 8866 H 863.926 1.42477 3.90734 0
M  V30 8867 H 862.503 -0.395809 3.70793 0
M  V30 8868 N 864.689 -1.48329 0.532571 0
M  V30 8869 C 865.938 -2.017 -0.00259705 0
M  V30 8870 C 866.251 -1.41469 -1.35077 0
M  V30 8871 O 867.457 -1.86354 -1.97445 0
M  V30 8872 C 865.913 -3.59858 -0.0550179 0
M  V30 8873 C 865.521 -4.29073 1.28842 0
M  V30 8874 C 867.265 -4.21066 -0.538878 0
M  V30 8875 C 865.172 -5.79171 1.19644 0
M  V30 8876 H 864.102 -0.753985 -0.00474081 0
M  V30 8877 H 866.753 -1.70565 0.676739 0
M  V30 8878 H 865.135 -3.87846 -0.799486 0
M  V30 8879 H 866.309 -4.12755 2.04865 0
M  V30 8880 H 864.624 -3.79748 1.70822 0
M  V30 8881 H 867.221 -5.31026 -0.6257 0
M  V30 8882 H 867.564 -3.86559 -1.54525 0
M  V30 8883 H 868.097 -3.97517 0.149984 0
M  V30 8884 H 864.836 -6.18257 2.17805 0
M  V30 8885 H 864.356 -5.97895 0.477609 0
M  V30 8886 H 866.035 -6.40875 0.888186 0
M  V30 8887 N 866.167 -0.267825 -1.55308 0
M  V30 8888 C 867.077 0.633055 -2.25897 0
M  V30 8889 C 868.093 1.17613 -1.28231 0
M  V30 8890 O 869.269 1.20797 -1.61153 0
M  V30 8891 C 866.334 1.80397 -2.96071 0
M  V30 8892 C 865.395 1.29829 -4.09198 0
M  V30 8893 C 864.628 2.4134 -4.76016 0
M  V30 8894 O 864.851 3.60537 -4.42006 0
M  V30 8895 O 863.785 2.09909 -5.64111 0
M  V30 8896 H 867.611 0.0614381 -3.03638 0
M  V30 8897 H 865.196 -0.0355072 -1.49358 0
M  V30 8898 H 867.078 2.48685 -3.40197 0
M  V30 8899 H 865.753 2.36281 -2.21253 0
M  V30 8900 H 864.66 0.582086 -3.69544 0
M  V30 8901 H 865.993 0.785288 -4.85895 0
M  V30 8902 N 867.645 1.57599 0.00500368 0
M  V30 8903 C 869.056 1.78462 0.54848 0
M  V30 8904 C 869.407 0.901869 1.74243 0
M  V30 8905 O 868.532 0.103014 2.16155 0
M  V30 8906 C 869.127 3.2365 1.00179 0
M  V30 8907 C 867.686 3.45627 1.49061 0
M  V30 8908 C 866.833 2.73794 0.439531 0
M  V30 8909 H 869.784 1.57151 -0.22118 0
M  V30 8910 H 869.805 3.31488 1.86805 0
M  V30 8911 H 869.317 3.87873 0.132607 0
M  V30 8912 H 867.418 2.86612 2.38085 0
M  V30 8913 H 867.531 4.54298 1.52152 0
M  V30 8914 H 865.895 2.38267 0.900043 0
M  V30 8915 H 866.678 3.40714 -0.420599 0
M  V30 8916 N 869.123 -0.277682 1.55134 0
M  V30 8917 C 870.371 -1.00791 1.75173 0
M  V30 8918 C 870.692 -1.86987 0.553266 0
M  V30 8919 O 869.962 -1.91079 -0.43195 0
M  V30 8920 H 868.542 -0.375129 0.645978 0
M  V30 8921 H 871.204 -0.303041 1.9253 0
M  V30 8922 H 870.3 -1.64756 2.6507 0
M  V30 8923 N 870.601 -1.47988 -0.541979 0
M  V30 8924 C 871.826 -1.59286 -1.32826 0
M  V30 8925 C 872.251 -0.24894 -1.86445 0
M  V30 8926 O 871.609 0.777581 -1.63778 0
M  V30 8927 C 871.657 -2.6334 -2.46343 0
M  V30 8928 O 870.761 -2.19667 -3.49028 0
M  V30 8929 H 870.102 -0.534543 -0.393903 0
M  V30 8930 H 872.632 -1.93885 -0.653427 0
M  V30 8931 H 872.642 -2.84238 -2.92699 0
M  V30 8932 H 871.317 -3.60913 -2.06675 0
M  V30 8933 H 869.894 -2.08932 -3.08872 0
M  V30 8934 N 872.079 0.78992 -1.36375 0
M  V30 8935 C 873.356 1.53584 -1.21126 0
M  V30 8936 C 873.736 2.10124 0.202785 0
M  V30 8937 O 873.084 1.93936 1.20835 0
M  V30 8938 C 873.294 2.63117 -2.29282 0
M  V30 8939 C 874.642 3.31013 -2.65924 0
M  V30 8940 O 875.666 2.734 -2.28321 0
M  V30 8941 O 874.525 4.35129 -3.30643 0
M  V30 8942 H 871.619 0.679366 -0.471583 0
M  V30 8943 H 874.165 0.828446 -1.48104 0
M  V30 8944 H 872.937 2.19329 -3.24053 0
M  V30 8945 H 872.56 3.41476 -2.03666 0
M  V30 8946 N 873.557 1.20646 1.01402 0
M  V30 8947 C 874.787 1.04238 1.78376 0
M  V30 8948 C 875.195 -0.411327 1.84675 0
M  V30 8949 O 874.538 -1.29734 1.30057 0
M  V30 8950 C 874.6 1.55349 3.24202 0
M  V30 8951 C 874.264 3.03684 3.41504 0
M  V30 8952 C 875.261 4.01318 3.30514 0
M  V30 8953 C 872.946 3.42698 3.67237 0
M  V30 8954 C 874.94 5.35956 3.45007 0
M  V30 8955 C 872.627 4.77491 3.81373 0
M  V30 8956 C 873.625 5.73929 3.70263 0
M  V30 8957 O 873.313 7.06277 3.83963 0
M  V30 8958 H 873.045 0.366978 0.567718 0
M  V30 8959 H 875.599 1.60235 1.28506 0
M  V30 8960 H 873.829 0.93739 3.75166 0
M  V30 8961 H 875.518 1.34921 3.8282 0
M  V30 8962 H 876.284 3.72522 3.10568 0
M  V30 8963 H 872.163 2.68175 3.74971 0
M  V30 8964 H 875.707 6.11212 3.36252 0
M  V30 8965 H 871.604 5.05977 4.00821 0
M  V30 8966 H 872.372 7.13561 4.00965 0
M  V30 8967 N 875.035 -1.20752 1.01276 0
M  V30 8968 C 876.265 -1.93725 0.717934 0
M  V30 8969 C 876.673 -1.74769 -0.724732 0
M  V30 8970 O 876.016 -1.05642 -1.50285 0
M  V30 8971 C 876.078 -3.46196 0.968954 0
M  V30 8972 C 875.742 -3.88909 2.39998 0
M  V30 8973 C 876.739 -3.94982 3.38061 0
M  V30 8974 C 874.424 -4.21006 2.7397 0
M  V30 8975 C 876.418 -4.32558 4.68159 0
M  V30 8976 C 874.105 -4.58257 4.04282 0
M  V30 8977 C 875.103 -4.64004 5.01187 0
M  V30 8978 O 874.791 -5.00403 6.29168 0
M  V30 8979 H 874.523 -0.622663 0.263186 0
M  V30 8980 H 877.077 -1.54299 1.35577 0
M  V30 8981 H 875.307 -3.85728 0.273952 0
M  V30 8982 H 876.996 -4.00394 0.666312 0
M  V30 8983 H 877.762 -3.70353 3.13151 0
M  V30 8984 H 873.641 -4.15725 1.99233 0
M  V30 8985 H 877.185 -4.36959 5.43795 0
M  V30 8986 H 873.082 -4.82341 4.28973 0
M  V30 8987 H 873.85 -5.18409 6.33399 0
M  V30 8988 N 876.513 -0.788492 -1.36457 0
M  V30 8989 C 877.423 -0.187385 -2.3385 0
M  V30 8990 C 878.439 0.659984 -1.60998 0
M  V30 8991 O 879.615 0.575986 -1.92988 0
M  V30 8992 C 876.68 0.668525 -3.40194 0
M  V30 8993 C 875.741 -0.197234 -4.28847 0
M  V30 8994 C 874.974 0.61792 -5.30111 0
M  V30 8995 O 875.197 1.85396 -5.3943 0
M  V30 8996 O 874.131 0.0183016 -6.01897 0
M  V30 8997 H 877.957 -0.992617 -2.87021 0
M  V30 8998 H 875.542 -0.549934 -1.3891 0
M  V30 8999 H 877.424 1.15663 -4.05216 0
M  V30 9000 H 876.099 1.45166 -2.89324 0
M  V30 9001 H 875.006 -0.73207 -3.66867 0
M  V30 9002 H 876.339 -0.943863 -4.83065 0
M  V30 9003 N 877.991 1.48044 -0.54043 0
M  V30 9004 C 878.921 2.32597 0.205178 0
M  V30 9005 C 879.902 1.42748 0.925041 0
M  V30 9006 O 881.087 1.71624 0.908784 0
M  V30 9007 C 878.217 3.24175 1.24612 0
M  V30 9008 C 877.171 4.23131 0.64376 0
M  V30 9009 C 876.497 5.03915 1.78812 0
M  V30 9010 C 877.797 5.20831 -0.39144 0
M  V30 9011 H 879.491 2.95184 -0.500676 0
M  V30 9012 H 877.037 1.41948 -0.242225 0
M  V30 9013 H 878.99 3.82158 1.77576 0
M  V30 9014 H 877.714 2.59608 1.98169 0
M  V30 9015 H 876.373 3.66349 0.135554 0
M  V30 9016 H 876.021 4.35765 2.51232 0
M  V30 9017 H 875.721 5.709 1.39094 0
M  V30 9018 H 877.245 5.64753 2.32134 0
M  V30 9019 H 878.659 5.73277 0.0515064 0
M  V30 9020 H 877.056 5.95926 -0.706569 0
M  V30 9021 H 878.126 4.6733 -1.29345 0
M  V30 9022 N 879.47 0.276058 1.55163 0
M  V30 9023 C 880.695 -0.346648 2.04483 0
M  V30 9024 C 881.12 -1.48613 1.15308 0
M  V30 9025 O 880.478 -1.80663 0.151875 0
M  V30 9026 C 880.526 -0.804268 3.51517 0
M  V30 9027 O 879.63 -1.91143 3.65429 0
M  V30 9028 H 878.971 -0.0715251 0.660136 0
M  V30 9029 H 881.501 0.410631 2.00437 0
M  V30 9030 H 881.511 -1.09977 3.92898 0
M  V30 9031 H 880.186 0.0294123 4.1589 0
M  V30 9032 H 878.763 -1.61839 3.3595 0
M  V30 9033 N 880.948 -1.576 0.00335426 0
M  V30 9034 C 882.225 -1.81945 -0.718015 0
M  V30 9035 C 882.605 -0.881788 -1.91801 0
M  V30 9036 O 881.953 0.0687118 -2.28397 0
M  V30 9037 C 882.163 -3.30521 -1.12058 0
M  V30 9038 C 883.511 -3.96345 -1.52303 0
M  V30 9039 O 884.535 -3.34864 -1.21428 0
M  V30 9040 O 883.394 -5.04655 -2.09728 0
M  V30 9041 H 880.488 -0.749328 -0.34991 0
M  V30 9042 H 883.034 -1.69675 0.0290654 0
M  V30 9043 H 881.806 -3.90399 -0.265378 0
M  V30 9044 H 881.429 -3.47802 -1.92665 0
M  V30 9045 N 882.426 0.269451 -1.5528 0
M  V30 9046 C 883.654 1.01872 -1.80082 0
M  V30 9047 C 884.069 1.79802 -0.575917 0
M  V30 9048 O 883.426 1.76735 0.455081 0
M  V30 9049 C 883.477 1.9745 -3.02813 0
M  V30 9050 O 883.198 1.22677 -4.20573 0
M  V30 9051 C 884.699 2.8416 -3.40247 0
M  V30 9052 H 881.919 0.300781 -0.59981 0
M  V30 9053 H 884.463 0.29916 -2.023 0
M  V30 9054 H 882.618 2.64864 -2.82712 0
M  V30 9055 H 883.032 1.87129 -4.89982 0
M  V30 9056 H 884.506 3.47014 -4.29284 0
M  V30 9057 H 884.983 3.54113 -2.59809 0
M  V30 9058 H 885.589 2.22232 -3.6262 0
M  V30 9059 N 883.904 1.48273 0.534124 0
M  V30 9060 C 885.32 1.34302 0.862272 0
M  V30 9061 C 885.52 0.350902 1.98421 0
M  V30 9062 O 884.576 -0.229364 2.51456 0
M  V30 9063 C 885.889 2.74227 1.23371 0
M  V30 9064 C 887.437 2.82684 1.34383 0
M  V30 9065 C 887.912 4.23301 1.74871 0
M  V30 9066 N 889.403 4.25954 1.81981 0
M  V30 9067 C 890.138 5.31693 2.14686 0
M  V30 9068 N 889.634 6.47714 2.45844 0
M  V30 9069 N 891.427 5.19084 2.15657 0
M  V30 9070 H 883.578 2.11397 -0.206215 0
M  V30 9071 H 885.841 0.947537 -0.0296116 0
M  V30 9072 H 885.547 3.48368 0.482967 0
M  V30 9073 H 885.421 3.07485 2.18478 0
M  V30 9074 H 887.808 2.08801 2.08534 0
M  V30 9075 H 887.889 2.5305 0.374063 0
M  V30 9076 H 887.533 4.97699 1.01282 0
M  V30 9077 H 887.463 4.50376 2.7289 0
M  V30 9078 H 889.954 3.42266 1.60196 0
M  V30 9079 H 890.267 7.2414 2.69892 0
M  V30 9080 H 888.612 6.50995 2.43372 0
M  V30 9081 H 891.803 4.27463 1.9077 0
M  V30 9082 H 891.976 6.01592 2.40813 0
M  V30 9083 N 885.382 -0.782676 1.36792 0
M  V30 9084 C 886.292 -1.92679 1.33835 0
M  V30 9085 C 887.308 -1.72344 0.23952 0
M  V30 9086 O 888.484 -1.95766 0.473045 0
M  V30 9087 C 885.549 -3.27644 1.1336 0
M  V30 9088 C 884.61 -3.6071 2.32781 0
M  V30 9089 C 883.843 -4.89234 2.13273 0
M  V30 9090 O 884.066 -5.59468 1.11136 0
M  V30 9091 O 883 -5.21112 3.01208 0
M  V30 9092 H 886.826 -1.98124 2.30175 0
M  V30 9093 H 884.411 -0.923887 1.17408 0
M  V30 9094 H 886.293 -4.08394 1.03886 0
M  V30 9095 H 884.968 -3.23076 0.200868 0
M  V30 9096 H 883.875 -2.80238 2.47825 0
M  V30 9097 H 885.208 -3.70008 3.24584 0
M  V30 9098 N 886.86 -1.21182 -1.00761 0
M  V30 9099 C 888.085 -1.05411 -1.78615 0
M  V30 9100 C 888.51 0.391837 -1.83973 0
M  V30 9101 O 887.868 1.28256 -1.28141 0
M  V30 9102 C 887.916 -1.65285 -3.20489 0
M  V30 9103 O 887.02 -0.896558 -4.02536 0
M  V30 9104 H 886.361 -0.37116 -0.550578 0
M  V30 9105 H 888.891 -1.60669 -1.26676 0
M  V30 9106 H 888.901 -1.69397 -3.71172 0
M  V30 9107 H 887.576 -2.70514 -3.15904 0
M  V30 9108 H 886.153 -0.930335 -3.61108 0
M  V30 9109 N 888.338 1.20213 -1.01915 0
M  V30 9110 C 889.584 1.89928 -0.711007 0
M  V30 9111 C 889.917 1.7881 0.75767 0
M  V30 9112 O 889.192 1.17399 1.55073 0
M  V30 9113 C 889.475 3.41225 -1.15053 0
M  V30 9114 C 889.328 3.61264 -2.67971 0
M  V30 9115 C 890.647 4.34108 -0.72377 0
M  V30 9116 H 887.766 0.689702 -0.259768 0
M  V30 9117 H 890.408 1.41557 -1.26734 0
M  V30 9118 H 888.558 3.82552 -0.677199 0
M  V30 9119 H 890.23 3.29173 -3.23176 0
M  V30 9120 H 888.473 3.04647 -3.08824 0
M  V30 9121 H 889.144 4.67331 -2.93779 0
M  V30 9122 H 891.62 4.00442 -1.13073 0
M  V30 9123 H 890.496 5.38581 -1.05931 0
M  V30 9124 H 890.757 4.40512 0.374424 0
M  V30 9125 N 889.816 0.795718 1.36037 0
M  V30 9126 C 890.766 0.171437 2.27355 0
M  V30 9127 C 891.75 -0.648346 1.47259 0
M  V30 9128 O 892.942 -0.507386 1.69572 0
M  V30 9129 C 890.071 -0.687876 3.36338 0
M  V30 9130 C 889.157 0.141041 4.23865 0
M  V30 9131 N 889.548 1.19868 4.91391 0
M  V30 9132 C 887.846 -0.0791045 4.4593 0
M  V30 9133 C 888.547 1.70382 5.56188 0
M  V30 9134 N 887.523 1.01202 5.34097 0
M  V30 9135 H 891.325 0.980846 2.7705 0
M  V30 9136 H 888.839 0.635798 1.49437 0
M  V30 9137 H 890.836 -1.15107 4.00694 0
M  V30 9138 H 889.496 -1.49576 2.88196 0
M  V30 9139 H 890.507 1.58119 4.93172 0
M  V30 9140 H 887.184 -0.856993 4.0861 0
M  V30 9141 H 888.574 2.58715 6.20093 0
M  V30 9142 N 891.294 -1.47756 0.548274 0
M  V30 9143 C 892.204 -2.33678 -0.207773 0
M  V30 9144 C 893.22 -1.47636 -0.920843 0
M  V30 9145 O 894.396 -1.80583 -0.89173 0
M  V30 9146 C 891.461 -3.24147 -1.23003 0
M  V30 9147 C 890.522 -4.26073 -0.52535 0
M  V30 9148 C 889.755 -5.12219 -1.4989 0
M  V30 9149 O 889.978 -5.0066 -2.73305 0
M  V30 9150 O 888.912 -5.93051 -1.02828 0
M  V30 9151 H 892.738 -2.99609 0.496794 0
M  V30 9152 H 890.323 -1.4617 0.308982 0
M  V30 9153 H 892.205 -3.80055 -1.82034 0
M  V30 9154 H 890.88 -2.60855 -1.91668 0
M  V30 9155 H 889.787 -3.7395 0.105927 0
M  V30 9156 H 891.12 -4.92054 0.119686 0
M  V30 9157 N 892.772 -0.284283 -1.55015 0
M  V30 9158 C 893.997 0.335799 -2.04664 0
M  V30 9159 C 894.422 1.47999 -1.16094 0
M  V30 9160 O 893.78 1.8058 -0.161454 0
M  V30 9161 C 893.828 0.785615 -3.51938 0
M  V30 9162 O 892.932 1.89202 -3.66437 0
M  V30 9163 H 892.273 0.0680233 -0.660506 0
M  V30 9164 H 894.803 -0.421255 -2.00216 0
M  V30 9165 H 894.813 1.07892 -3.93476 0
M  V30 9166 H 893.488 -0.0514675 -4.15868 0
M  V30 9167 H 892.065 1.60055 -3.36804 0
M  V30 9168 N 894.251 1.57596 -0.0117121 0
M  V30 9169 C 895.5 1.9025 0.669921 0
M  V30 9170 C 895.813 0.887986 1.74282 0
M  V30 9171 O 897.019 1.10516 2.47989 0
M  V30 9172 C 895.475 3.37762 1.24277 0
M  V30 9173 C 895.083 4.47535 0.204076 0
M  V30 9174 C 896.827 3.79509 1.90192 0
M  V30 9175 C 894.734 5.86132 0.787577 0
M  V30 9176 H 893.664 0.709935 0.253984 0
M  V30 9177 H 896.315 1.8335 -0.0741718 0
M  V30 9178 H 894.697 3.39537 2.03791 0
M  V30 9179 H 895.871 4.57294 -0.56733 0
M  V30 9180 H 894.186 4.14881 -0.355305 0
M  V30 9181 H 896.783 4.80402 2.34773 0
M  V30 9182 H 897.126 3.13643 2.7374 0
M  V30 9183 H 897.659 3.80084 1.17394 0
M  V30 9184 H 894.398 6.55499 -0.00938418 0
M  V30 9185 H 893.918 5.80014 1.52787 0
M  V30 9186 H 895.597 6.34158 1.28265 0
M  V30 9187 N 895.729 -0.261212 1.5542 0
M  V30 9188 C 897.006 -1.01321 1.67312 0
M  V30 9189 C 897.386 -2.0388 0.547356 0
M  V30 9190 O 896.734 -2.24003 -0.451083 0
M  V30 9191 C 896.944 -1.65943 3.07024 0
M  V30 9192 C 898.292 -2.16666 3.65159 0
M  V30 9193 O 899.316 -1.75909 3.09733 0
M  V30 9194 O 898.175 -2.91455 4.62294 0
M  V30 9195 H 895.269 -0.470714 0.679968 0
M  V30 9196 H 897.815 -0.256133 1.67756 0
M  V30 9197 H 896.587 -0.916868 3.80407 0
M  V30 9198 H 896.21 -2.48308 3.1053 0
M  V30 9199 N 897.207 -1.48554 -0.526253 0
M  V30 9200 C 898.435 -1.60429 -1.30652 0
M  V30 9201 C 898.85 -0.265963 -1.86917 0
M  V30 9202 O 898.207 0.745262 -1.6659 0
M  V30 9203 C 898.258 -2.65377 -2.45473 0
M  V30 9204 O 897.979 -3.94017 -1.91527 0
M  V30 9205 C 899.48 -2.87726 -3.37237 0
M  V30 9206 H 896.7 -0.540817 -0.397187 0
M  V30 9207 H 899.244 -1.94409 -0.634461 0
M  V30 9208 H 897.399 -2.34246 -3.08557 0
M  V30 9209 H 897.813 -4.51623 -2.66715 0
M  V30 9210 H 899.287 -3.64951 -4.14144 0
M  V30 9211 H 899.764 -1.96688 -3.92696 0
M  V30 9212 H 900.37 -3.20176 -2.79942 0
M  V30 9213 N 898.685 0.775411 -1.37205 0
M  V30 9214 C 899.618 1.8957 -1.27037 0
M  V30 9215 C 900.596 1.61891 -0.151643 0
M  V30 9216 O 901.78 1.85673 -0.325218 0
M  V30 9217 C 898.907 3.24712 -0.963316 0
M  V30 9218 C 897.953 3.71306 -2.09842 0
M  V30 9219 S 898.786 3.8541 -3.71778 0
M  V30 9220 C 899.942 5.23406 -3.43216 0
M  V30 9221 H 900.175 1.97905 -2.21857 0
M  V30 9222 H 897.708 0.936127 -1.22784 0
M  V30 9223 H 899.666 4.02768 -0.792983 0
M  V30 9224 H 898.327 3.14083 -0.0326561 0
M  V30 9225 H 897.52 4.69271 -1.83849 0
M  V30 9226 H 897.122 3.00341 -2.2287 0
M  V30 9227 H 899.414 6.08454 -2.97977 0
M  V30 9228 H 900.357 5.54409 -4.40495 0
M  V30 9229 H 900.765 4.9117 -2.78231 0
M  V30 9230 N 900.163 1.21714 1.00117 0
M  V30 9231 C 901.388 1.06357 1.78054 0
M  V30 9232 C 901.813 -0.382075 1.84179 0
M  V30 9233 O 901.171 -1.27575 1.28819 0
M  V30 9234 C 901.219 1.66982 3.19608 0
M  V30 9235 O 900.323 0.917892 4.02055 0
M  V30 9236 H 899.664 0.374074 0.548602 0
M  V30 9237 H 902.194 1.61338 1.25822 0
M  V30 9238 H 902.204 1.71363 3.70268 0
M  V30 9239 H 900.879 2.72185 3.14465 0
M  V30 9240 H 899.456 0.949473 3.6061 0
M  V30 9241 N 901.641 -1.19671 1.02551 0
M  V30 9242 C 903.052 -1.70964 0.750208 0
M  V30 9243 C 903.403 -1.82095 -0.730461 0
M  V30 9244 O 902.528 -1.48974 -1.56958 0
M  V30 9245 C 903.123 -3.10516 1.35518 0
M  V30 9246 C 901.682 -3.59083 1.12854 0
M  V30 9247 C 900.829 -2.36041 1.45534 0
M  V30 9248 H 903.78 -1.04559 1.19386 0
M  V30 9249 H 903.801 -3.73028 0.750378 0
M  V30 9250 H 903.313 -3.02383 2.43282 0
M  V30 9251 H 901.414 -3.72536 0.0689627 0
M  V30 9252 H 901.527 -4.43395 1.81488 0
M  V30 9253 H 899.891 -2.39214 0.87458 0
M  V30 9254 H 900.674 -2.3054 2.54374 0
M  V30 9255 N 903.119 -0.802921 -1.35613 0
M  V30 9256 C 904.052 -0.156345 -2.27664 0
M  V30 9257 C 905.03 0.675517 -1.47904 0
M  V30 9258 O 906.214 0.643589 -1.77173 0
M  V30 9259 C 903.341 0.78348 -3.29514 0
M  V30 9260 C 902.387 0.0317062 -4.26488 0
M  V30 9261 S 903.22 -1.30183 -5.19435 0
M  V30 9262 C 904.376 -0.366354 -6.24827 0
M  V30 9263 H 904.609 -0.936803 -2.82155 0
M  V30 9264 H 902.142 -0.597799 -1.42358 0
M  V30 9265 H 904.1 1.32023 -3.8869 0
M  V30 9266 H 902.761 1.53729 -2.73909 0
M  V30 9267 H 901.954 0.745364 -4.98458 0
M  V30 9268 H 901.556 -0.43497 -3.71462 0
M  V30 9269 H 903.848 0.44976 -6.76005 0
M  V30 9270 H 904.791 -1.05513 -7.00195 0
M  V30 9271 H 905.199 0.0363203 -5.64488 0
M  V30 9272 N 904.597 1.47463 -0.556102 0
M  V30 9273 C 905.547 2.27007 0.212592 0
M  V30 9274 C 906.531 1.34288 0.886312 0
M  V30 9275 O 907.723 1.5865 0.784801 0
M  V30 9276 C 904.852 3.20021 1.24263 0
M  V30 9277 C 903.938 4.2022 0.572385 0
M  V30 9278 N 904.329 5.04539 -0.35691 0
M  V30 9279 C 902.627 4.38276 0.826441 0
M  V30 9280 C 903.328 5.76895 -0.746134 0
M  V30 9281 N 902.304 5.43506 -0.101225 0
M  V30 9282 H 906.106 2.89582 -0.501925 0
M  V30 9283 H 903.62 1.57988 -0.375961 0
M  V30 9284 H 905.617 3.7569 1.80728 0
M  V30 9285 H 904.277 2.59003 1.95826 0
M  V30 9286 H 905.288 5.12715 -0.731012 0
M  V30 9287 H 901.965 3.88429 1.53066 0
M  V30 9288 H 903.355 6.5472 -1.50967 0
M  V30 9289 N 906.075 0.2925 1.54862 0
M  V30 9290 C 907.022 -0.587365 2.23201 0
M  V30 9291 C 907.992 -1.13623 1.21157 0
M  V30 9292 O 909.177 -1.18233 1.49752 0
M  V30 9293 C 906.317 -1.75745 2.96998 0
M  V30 9294 C 905.43 -1.24078 4.13798 0
M  V30 9295 C 904.565 -2.37405 4.75197 0
M  V30 9296 C 903.604 -1.82829 5.84157 0
M  V30 9297 N 902.741 -2.89696 6.39547 0
M  V30 9298 H 907.581 0.00202207 2.98 0
M  V30 9299 H 905.118 0.012766 1.47094 0
M  V30 9300 H 907.076 -2.44549 3.38011 0
M  V30 9301 H 905.706 -2.3186 2.24591 0
M  V30 9302 H 904.758 -0.445268 3.77785 0
M  V30 9303 H 906.07 -0.801186 4.92324 0
M  V30 9304 H 905.224 -3.14172 5.19019 0
M  V30 9305 H 903.963 -2.84688 3.95985 0
M  V30 9306 H 902.968 -1.04548 5.39768 0
M  V30 9307 H 904.193 -1.36461 6.65248 0
M  V30 9308 H 902.139 -3.36328 5.63222 0
M  V30 9309 H 902.056 -2.50206 7.13395 0
M  V30 9310 H 903.324 -3.66386 6.88027 0
M  V30 9311 N 907.553 -1.57587 0.0200696 0
M  V30 9312 C 908.501 -2.10814 -0.982868 0
M  V30 9313 C 909.495 -1.03263 -1.34287 0
M  V30 9314 O 910.701 -1.21708 -1.32617 0
M  V30 9315 H 907.076 -0.673409 -0.334701 0
M  V30 9316 H 909.047 -2.94034 -0.50856 0
M  V30 9317 C 907.796 -2.64301 -2.25921 0
M  V30 9318 H 907.119 -3.46703 -1.99091 0
M  V30 9319 H 908.559 -3.052 -2.94328 0
M  V30 9320 C 907.018 -1.56628 -2.98277 0
M  V30 9321 O 907.548 -0.960825 -3.9004 0
M  V30 9322 N 905.754 -1.28889 -2.60453 0
M  V30 9323 H 905.301 -1.7831 -1.85912 0
M  V30 9324 H 905.259 -0.570697 -3.09177 0
M  V30 9325 N 909.032 0.252966 -1.55557 0
M  V30 9326 C 910.28 0.979912 -1.76754 0
M  V30 9327 C 910.601 1.86083 -0.582944 0
M  V30 9328 O 909.871 1.91742 0.401497 0
M  V30 9329 H 908.451 0.364805 -0.651864 0
M  V30 9330 H 911.113 0.272372 -1.92987 0
M  V30 9331 H 910.209 1.60518 -2.67657 0
M  V30 9332 N 910.51 1.48831 0.518367 0
M  V30 9333 C 911.787 1.47933 1.27966 0
M  V30 9334 C 912.167 0.197393 2.10175 0
M  V30 9335 O 911.515 -0.820656 2.13255 0
M  V30 9336 C 911.725 2.74816 2.15121 0
M  V30 9337 C 913.073 3.23613 2.74881 0
M  V30 9338 O 914.097 2.75814 2.254 0
M  V30 9339 O 912.956 4.06818 3.64913 0
M  V30 9340 H 910.05 0.591316 0.578164 0
M  V30 9341 H 912.596 1.61077 0.534065 0
M  V30 9342 H 911.368 3.59621 1.54234 0
M  V30 9343 H 910.991 2.64449 2.96905 0
M  V30 9344 N 911.988 -0.768124 1.37614 0
M  V30 9345 C 912.935 -1.88151 1.33671 0
M  V30 9346 C 913.905 -1.64871 0.201645 0
M  V30 9347 O 915.09 -1.86739 0.391582 0
M  V30 9348 C 912.23 -3.25264 1.15314 0
M  V30 9349 C 911.343 -3.60473 2.38082 0
M  V30 9350 C 910.478 -4.86814 2.12569 0
M  V30 9351 C 909.517 -5.14765 3.31184 0
M  V30 9352 N 908.654 -6.32295 3.052 0
M  V30 9353 H 913.494 -1.90857 2.28862 0
M  V30 9354 H 911.031 -0.933048 1.13722 0
M  V30 9355 H 912.989 -4.04364 1.02691 0
M  V30 9356 H 911.619 -3.21924 0.237689 0
M  V30 9357 H 910.671 -2.7633 2.61431 0
M  V30 9358 H 911.983 -3.77065 3.26532 0
M  V30 9359 H 911.137 -5.73826 1.96999 0
M  V30 9360 H 909.876 -4.72333 1.21462 0
M  V30 9361 H 908.881 -4.26227 3.4729 0
M  V30 9362 H 910.106 -5.31153 4.23147 0
M  V30 9363 H 908.052 -6.19166 2.16726 0
M  V30 9364 H 907.969 -6.4932 3.87195 0
M  V30 9365 H 909.237 -7.22234 2.93254 0
M  V30 9366 N 913.466 -1.22244 -0.994698 0
M  V30 9367 C 914.376 -1.00722 -2.11878 0
M  V30 9368 C 915.392 0.043919 -1.73945 0
M  V30 9369 O 916.568 -0.148411 -2.00852 0
M  V30 9370 C 913.633 -0.585723 -3.41717 0
M  V30 9371 C 912.694 -1.71027 -3.93762 0
M  V30 9372 C 911.927 -1.30879 -5.17403 0
M  V30 9373 O 912.15 -0.18681 -5.70094 0
M  V30 9374 O 911.084 -2.1246 -5.63156 0
M  V30 9375 H 914.91 -1.94894 -2.32916 0
M  V30 9376 H 912.495 -1.00822 -1.10251 0
M  V30 9377 H 914.377 -0.360935 -4.19851 0
M  V30 9378 H 913.052 0.327166 -3.22042 0
M  V30 9379 H 911.959 -1.98956 -3.16808 0
M  V30 9380 H 913.292 -2.60096 -4.17865 0
M  V30 9381 N 914.944 1.19125 -1.03184 0
M  V30 9382 C 916.191 1.88883 -0.730029 0
M  V30 9383 C 916.519 1.79807 0.741602 0
M  V30 9384 O 915.774 1.18686 1.55603 0
M  V30 9385 C 916.073 3.39052 -1.13041 0
M  V30 9386 C 915.739 3.68332 -2.60082 0
M  V30 9387 C 914.401 3.76033 -3.00254 0
M  V30 9388 C 916.753 3.81423 -3.55199 0
M  V30 9389 C 914.081 3.94296 -4.34451 0
M  V30 9390 C 916.433 4.012 -4.89103 0
M  V30 9391 C 915.097 4.07134 -5.28959 0
M  V30 9392 H 914.367 0.691172 -0.267137 0
M  V30 9393 H 917.014 1.41053 -1.29523 0
M  V30 9394 H 915.319 3.88801 -0.48386 0
M  V30 9395 H 917.016 3.91351 -0.874368 0
M  V30 9396 H 913.606 3.62948 -2.27961 0
M  V30 9397 H 917.79 3.74814 -3.25313 0
M  V30 9398 H 913.046 3.97131 -4.64863 0
M  V30 9399 H 917.22 4.10271 -5.62717 0
M  V30 9400 H 914.847 4.21038 -6.32954 0
M  V30 9401 N 916.422 0.810101 1.35185 0
M  V30 9402 C 917.354 0.180581 2.28488 0
M  V30 9403 C 918.367 -0.622154 1.50443 0
M  V30 9404 O 919.556 -0.453938 1.72632 0
M  V30 9405 C 916.656 -0.766447 3.30119 0
M  V30 9406 C 915.829 -0.00932028 4.37399 0
M  V30 9407 C 914.888 -0.875354 5.18868 0
M  V30 9408 O 913.914 -0.325012 5.68271 0
M  V30 9409 N 915.116 -2.19695 5.37321 0
M  V30 9410 H 917.881 0.98212 2.83151 0
M  V30 9411 H 915.442 0.665879 1.47573 0
M  V30 9412 H 917.434 -1.35012 3.81515 0
M  V30 9413 H 916.004 -1.46878 2.75945 0
M  V30 9414 H 915.224 0.755585 3.86891 0
M  V30 9415 H 916.512 0.512352 5.06214 0
M  V30 9416 H 915.91 -2.66797 4.98834 0
M  V30 9417 H 914.467 -2.72978 5.91884 0
M  V30 9418 N 917.9 -1.47166 0.563914 0
M  V30 9419 C 919.128 -2.06846 0.0474287 0
M  V30 9420 C 919.543 -1.41557 -1.24928 0
M  V30 9421 O 918.9 -0.514376 -1.75101 0
M  V30 9422 C 918.951 -3.6121 -0.144831 0
M  V30 9423 O 918.672 -4.24052 1.10053 0
M  V30 9424 C 920.173 -4.37773 -0.69783 0
M  V30 9425 H 917.393 -0.669217 0.0488896 0
M  V30 9426 H 919.937 -1.89072 0.779235 0
M  V30 9427 H 918.092 -3.78474 -0.82679 0
M  V30 9428 H 918.506 -5.16677 0.902481 0
M  V30 9429 H 919.98 -5.46438 -0.781616 0
M  V30 9430 H 920.457 -4.04517 -1.71063 0
M  V30 9431 H 921.063 -4.25269 -0.0513516 0
M  V30 9432 N 919.378 -0.300708 -1.54705 0
M  V30 9433 C 920.626 0.308044 -1.99739 0
M  V30 9434 C 920.947 1.54433 -1.19061 0
M  V30 9435 O 920.217 1.93794 -0.286507 0
M  V30 9436 H 918.797 0.116811 -0.73781 0
M  V30 9437 H 921.459 -0.41197 -1.90496 0
M  V30 9438 H 920.555 0.580287 -3.06658 0
M  V30 9439 N 920.856 1.57574 -0.0284266 0
M  V30 9440 C 921.803 2.10176 0.953658 0
M  V30 9441 C 922.773 1.00367 1.32347 0
M  V30 9442 O 923.958 1.27783 1.4169 0
M  V30 9443 C 921.098 2.63287 2.231 0
M  V30 9444 C 920.211 3.87102 1.91771 0
M  V30 9445 C 919.346 4.28609 3.13795 0
M  V30 9446 C 918.385 5.45184 2.78282 0
M  V30 9447 N 917.522 5.81851 3.92929 0
M  V30 9448 H 922.362 2.93806 0.498176 0
M  V30 9449 H 919.899 1.45222 0.234302 0
M  V30 9450 H 921.857 2.9217 2.97813 0
M  V30 9451 H 920.487 1.82489 2.66266 0
M  V30 9452 H 919.539 3.64952 1.07303 0
M  V30 9453 H 920.851 4.71892 1.61615 0
M  V30 9454 H 920.005 4.58925 3.96829 0
M  V30 9455 H 918.744 3.42585 3.47112 0
M  V30 9456 H 917.749 5.14563 1.93661 0
M  V30 9457 H 918.974 6.32907 2.46182 0
M  V30 9458 H 916.92 4.98782 4.2609 0
M  V30 9459 H 916.837 6.6128 3.66395 0
M  V30 9460 H 918.105 6.16772 4.76669 0
M  V30 9461 N 922.334 -0.244713 1.55689 0
M  V30 9462 C 923.244 -1.32447 1.93636 0
M  V30 9463 C 924.26 -1.52541 0.837086 0
M  V30 9464 O 925.436 -1.66121 1.13867 0
M  V30 9465 C 922.501 -2.65864 2.22525 0
M  V30 9466 C 921.562 -2.54273 3.45896 0
M  V30 9467 C 920.795 -3.81327 3.73397 0
M  V30 9468 O 921.018 -4.83307 3.02936 0
M  V30 9469 O 919.952 -3.79829 4.66919 0
M  V30 9470 H 923.778 -1.03255 2.85608 0
M  V30 9471 H 921.363 -0.445652 1.42598 0
M  V30 9472 H 923.245 -3.447 2.42404 0
M  V30 9473 H 921.92 -2.94784 1.33731 0
M  V30 9474 H 920.827 -1.73715 3.31321 0
M  V30 9475 H 922.16 -2.30297 4.34999 0
M  V30 9476 N 923.813 -1.49104 -0.510467 0
M  V30 9477 C 925.038 -1.62068 -1.29417 0
M  V30 9478 C 925.463 -0.288432 -1.85875 0
M  V30 9479 O 924.821 0.742667 -1.65391 0
M  V30 9480 C 924.869 -2.68506 -2.40701 0
M  V30 9481 O 923.973 -2.27021 -3.4429 0
M  V30 9482 H 923.314 -0.542778 -0.382476 0
M  V30 9483 H 925.844 -1.95228 -0.612154 0
M  V30 9484 H 925.854 -2.90383 -2.86604 0
M  V30 9485 H 924.529 -3.65216 -1.98973 0
M  V30 9486 H 923.106 -2.15436 -3.04371 0
M  V30 9487 N 925.291 0.760815 -1.38019 0
M  V30 9488 C 926.223 1.88387 -1.30549 0
M  V30 9489 C 927.236 1.61319 -0.219119 0
M  V30 9490 O 928.425 1.72033 -0.476122 0
M  V30 9491 C 925.525 3.23863 -0.998291 0
M  V30 9492 C 924.698 3.78492 -2.19232 0
M  V30 9493 C 923.757 4.92468 -1.85368 0
M  V30 9494 O 922.783 5.0748 -2.57785 0
M  V30 9495 N 923.985 5.74901 -0.804319 0
M  V30 9496 H 926.75 1.95308 -2.27322 0
M  V30 9497 H 924.311 0.940423 -1.31786 0
M  V30 9498 H 926.303 3.97644 -0.7524 0
M  V30 9499 H 924.873 3.12374 -0.11877 0
M  V30 9500 H 924.093 2.96361 -2.5993 0
M  V30 9501 H 925.381 4.11722 -2.98935 0
M  V30 9502 H 924.779 5.65333 -0.203628 0
M  V30 9503 H 923.336 6.48861 -0.618301 0
M  V30 9504 N 926.769 1.22769 0.988202 0
M  V30 9505 C 928.18 1.0512 1.54294 0
M  V30 9506 C 928.531 -0.383904 1.92407 0
M  V30 9507 O 927.656 -1.26955 1.75246 0
M  V30 9508 C 928.251 1.90198 2.80375 0
M  V30 9509 C 926.81 1.76831 3.32276 0
M  V30 9510 C 925.957 1.86377 2.05326 0
M  V30 9511 H 928.908 1.36546 0.808758 0
M  V30 9512 H 928.929 1.42216 3.52923 0
M  V30 9513 H 928.441 2.9464 2.52605 0
M  V30 9514 H 926.542 0.751412 3.64945 0
M  V30 9515 H 926.655 2.59771 4.02562 0
M  V30 9516 H 925.019 1.2987 2.19103 0
M  V30 9517 H 925.802 2.9236 1.79946 0
M  V30 9518 N 928.247 -1.18576 1.03814 0
M  V30 9519 C 929.472 -1.92978 0.759873 0
M  V30 9520 C 929.897 -1.75514 -0.676486 0
M  V30 9521 O 929.255 -1.06359 -1.46824 0
M  V30 9522 C 929.303 -3.42507 1.12788 0
M  V30 9523 O 928.407 -4.1163 0.251886 0
M  V30 9524 H 927.748 -0.602129 0.279886 0
M  V30 9525 H 930.278 -1.50383 1.3873 0
M  V30 9526 H 930.288 -3.93206 1.08872 0
M  V30 9527 H 928.963 -3.5454 2.17427 0
M  V30 9528 H 927.54 -3.7125 0.350441 0
M  V30 9529 N 929.725 -0.817259 -1.34754 0
M  V30 9530 C 931.136 -0.462215 -1.80888 0
M  V30 9531 C 931.487 1.01685 -1.67794 0
M  V30 9532 O 930.612 1.79094 -1.21468 0
M  V30 9533 C 931.207 -0.832204 -3.2842 0
M  V30 9534 C 929.766 -0.52961 -3.72655 0
M  V30 9535 C 928.913 -1.05214 -2.56564 0
M  V30 9536 H 931.864 -1.00795 -1.22581 0
M  V30 9537 H 931.885 -0.133804 -3.80265 0
M  V30 9538 H 931.397 -1.90873 -3.37919 0
M  V30 9539 H 929.498 0.537743 -3.68699 0
M  V30 9540 H 929.611 -1.06971 -4.67005 0
M  V30 9541 H 927.975 -0.473949 -2.50251 0
M  V30 9542 H 928.758 -2.135 -2.68836 0
M  V30 9543 N 931.203 1.46865 -0.571711 0
M  V30 9544 C 932.614 1.86158 -0.142181 0
M  V30 9545 C 932.965 1.47663 1.2919 0
M  V30 9546 O 932.09 0.886393 1.97413 0
M  V30 9547 C 932.685 3.37867 -0.251256 0
M  V30 9548 C 931.244 3.76198 0.123329 0
M  V30 9549 C 930.391 2.70902 -0.592232 0
M  V30 9550 H 933.342 1.38176 -0.780587 0
M  V30 9551 H 933.363 3.76842 0.526331 0
M  V30 9552 H 932.875 3.65853 -1.2951 0
M  V30 9553 H 930.976 3.53829 1.16773 0
M  V30 9554 H 931.089 4.78471 -0.24533 0
M  V30 9555 H 929.453 2.54678 -0.0336927 0
M  V30 9556 H 930.236 3.01729 -1.63751 0
M  V30 9557 N 932.681 0.308908 1.54543 0
M  V30 9558 C 933.644 -0.550857 2.22482 0
M  V30 9559 C 934.644 -1.0551 1.21344 0
M  V30 9560 O 935.834 -0.949866 1.46025 0
M  V30 9561 C 932.966 -1.76354 2.9174 0
M  V30 9562 H 934.159 0.0428395 2.99869 0
M  V30 9563 H 931.712 0.059825 1.56185 0
M  V30 9564 H 932.447 -2.39686 2.18451 0
M  V30 9565 H 932.232 -1.40954 3.65889 0
M  V30 9566 H 933.722 -2.37417 3.43545 0
M  V30 9567 N 934.159 -1.57557 0.0367827 0
M  V30 9568 C 935.091 -2.07597 -0.971395 0
M  V30 9569 C 936.104 -1.0009 -1.28397 0
M  V30 9570 O 937.293 -1.27692 -1.24728 0
M  V30 9571 C 934.393 -2.492 -2.2968 0
M  V30 9572 C 933.566 -3.79875 -2.16826 0
M  V30 9573 C 932.625 -4.07946 -3.32366 0
M  V30 9574 O 931.651 -4.78083 -3.0891 0
M  V30 9575 N 932.853 -3.58722 -4.56397 0
M  V30 9576 H 935.618 -2.94714 -0.544389 0
M  V30 9577 H 933.179 -1.61205 -0.1498 0
M  V30 9578 H 935.171 -2.65065 -3.05815 0
M  V30 9579 H 933.741 -1.67407 -2.63995 0
M  V30 9580 H 932.961 -3.73732 -1.2537 0
M  V30 9581 H 934.249 -4.65476 -2.0545 0
M  V30 9582 H 933.647 -3.01994 -4.78347 0
M  V30 9583 H 932.204 -3.79852 -5.29675 0
M  V30 9584 N 935.637 0.236453 -1.55816 0
M  V30 9585 C 936.547 1.31418 -1.94336 0
M  V30 9586 C 937.563 1.52095 -0.845164 0
M  V30 9587 O 938.739 1.65515 -1.14746 0
M  V30 9588 C 935.804 2.6468 -2.23932 0
M  V30 9589 C 934.865 2.52435 -3.47239 0
M  V30 9590 C 934.098 3.79342 -3.75414 0
M  V30 9591 O 934.321 4.81694 -3.05495 0
M  V30 9592 O 933.255 3.77347 -4.68927 0
M  V30 9593 H 937.081 1.01739 -2.86152 0
M  V30 9594 H 934.666 0.438084 -1.42833 0
M  V30 9595 H 936.548 3.4341 -2.44228 0
M  V30 9596 H 935.223 2.94071 -1.35292 0
M  V30 9597 H 934.13 1.71955 -3.32238 0
M  V30 9598 H 935.463 2.27987 -4.36214 0
M  V30 9599 N 937.115 1.49373 0.502552 0
M  V30 9600 C 938.078 1.65413 1.58654 0
M  V30 9601 C 939.078 0.526003 1.51953 0
M  V30 9602 O 940.268 0.792421 1.55133 0
M  V30 9603 C 937.4 1.65005 2.98306 0
M  V30 9604 H 938.593 2.62095 1.45762 0
M  V30 9605 H 936.146 1.38381 0.726672 0
M  V30 9606 H 936.881 0.699014 3.16677 0
M  V30 9607 H 936.666 2.46931 3.04578 0
M  V30 9608 H 938.156 1.79477 3.77065 0
M  V30 9609 N 938.594 -0.753485 1.38421 0
M  V30 9610 C 939.842 -1.50962 1.34368 0
M  V30 9611 C 940.163 -1.94889 -0.0656895 0
M  V30 9612 O 939.433 -1.67652 -1.01339 0
M  V30 9613 H 938.013 -0.559967 0.494415 0
M  V30 9614 H 940.675 -0.895665 1.73101 0
M  V30 9615 H 939.771 -2.40048 1.99458 0
M  V30 9616 N 940.072 -1.23292 -0.981677 0
M  V30 9617 C 941.302 -1.0893 -1.7555 0
M  V30 9618 C 941.71 0.362219 -1.857 0
M  V30 9619 O 941.053 1.2624 -1.33451 0
M  V30 9620 C 941.115 -1.6389 -3.19969 0
M  V30 9621 C 940.779 -3.12632 -3.33332 0
M  V30 9622 C 941.776 -4.0994 -3.19758 0
M  V30 9623 C 939.461 -3.52314 -3.58022 0
M  V30 9624 C 941.455 -5.44915 -3.30676 0
M  V30 9625 C 939.142 -4.87434 -3.6858 0
M  V30 9626 C 940.14 -5.83544 -3.54916 0
M  V30 9627 O 939.828 -7.16209 -3.65102 0
M  V30 9628 H 939.56 -0.381901 -0.557788 0
M  V30 9629 H 942.114 -1.63586 -1.24213 0
M  V30 9630 H 940.344 -1.03653 -3.72549 0
M  V30 9631 H 942.033 -1.45023 -3.79108 0
M  V30 9632 H 942.799 -3.80625 -3.00582 0
M  V30 9633 H 938.678 -2.78022 -3.67729 0
M  V30 9634 H 942.222 -6.19913 -3.19928 0
M  V30 9635 H 938.119 -5.16426 -3.87265 0
M  V30 9636 H 938.887 -7.23941 -3.81905 0
M  V30 9637 N 941.55 1.18024 -1.04442 0
M  V30 9638 C 942.775 1.92573 -0.770097 0
M  V30 9639 C 943.2 1.75871 0.667169 0
M  V30 9640 O 942.558 1.07136 1.46258 0
M  V30 9641 C 942.606 3.41904 -1.14602 0
M  V30 9642 O 941.71 4.11491 -0.273712 0
M  V30 9643 H 941.051 0.600636 -0.283076 0
M  V30 9644 H 943.581 1.49645 -1.39526 0
M  V30 9645 H 943.591 3.92623 -1.10956 0
M  V30 9646 H 942.266 3.53382 -2.19304 0
M  V30 9647 H 940.843 3.71059 -0.370124 0
M  V30 9648 N 943.028 0.824394 1.34319 0
M  V30 9649 C 944.256 0.426194 2.02463 0
M  V30 9650 C 944.671 -0.968298 1.62078 0
M  V30 9651 O 944.028 -1.62689 0.82696 0
M  V30 9652 C 944.079 0.520465 3.57734 0
M  V30 9653 O 943.8 1.86 3.96656 0
M  V30 9654 C 945.301 0.117353 4.43145 0
M  V30 9655 H 942.521 0.170864 0.648881 0
M  V30 9656 H 945.065 1.11296 1.71562 0
M  V30 9657 H 943.22 -0.118233 3.8722 0
M  V30 9658 H 943.634 1.83528 4.91343 0
M  V30 9659 H 945.108 0.234395 5.51502 0
M  V30 9660 H 945.585 -0.939271 4.29039 0
M  V30 9661 H 946.191 0.729908 4.1899 0
M  V30 9662 N 944.506 -1.46559 0.579492 0
M  V30 9663 C 945.436 -2.33059 -0.143437 0
M  V30 9664 C 946.417 -1.4515 -0.886868 0
M  V30 9665 O 947.602 -1.73973 -0.862961 0
M  V30 9666 C 944.732 -3.27364 -1.15973 0
M  V30 9667 C 943.686 -4.24689 -0.531348 0
M  V30 9668 C 943.012 -5.08479 -1.65388 0
M  V30 9669 C 944.312 -5.1961 0.529391 0
M  V30 9670 H 946.006 -2.93753 0.578762 0
M  V30 9671 H 943.552 -1.41256 0.279775 0
M  V30 9672 H 945.505 -3.86732 -1.67382 0
M  V30 9673 H 944.229 -2.64771 -1.91217 0
M  V30 9674 H 942.888 -3.6658 -0.0383749 0
M  V30 9675 H 942.536 -4.42273 -2.3959 0
M  V30 9676 H 942.236 -5.74387 -1.23909 0
M  V30 9677 H 943.76 -5.70709 -2.17079 0
M  V30 9678 H 945.174 -5.73212 0.100506 0
M  V30 9679 H 943.571 -5.93843 0.86432 0
M  V30 9680 H 944.641 -4.63737 1.4169 0
M  V30 9681 N 945.984 -0.3171 -1.54377 0
M  V30 9682 C 946.947 0.53905 -2.22771 0
M  V30 9683 C 947.947 1.04865 -1.21901 0
M  V30 9684 O 949.137 0.942108 -1.46526 0
M  V30 9685 C 946.269 1.74804 -2.92671 0
M  V30 9686 H 947.462 -0.0587417 -2.99842 0
M  V30 9687 H 945.015 -0.068107 -1.56152 0
M  V30 9688 H 945.75 2.38524 -2.1972 0
M  V30 9689 H 945.535 1.39011 -3.66631 0
M  V30 9690 H 947.025 2.35592 -3.44799 0
M  V30 9691 N 947.462 1.57535 -0.0451378 0
M  V30 9692 C 948.394 2.08109 0.960372 0
M  V30 9693 C 949.407 1.0077 1.27864 0
M  V30 9694 O 950.596 1.28351 1.24049 0
M  V30 9695 C 947.696 2.50414 2.28355 0
M  V30 9696 C 946.869 3.8102 2.14808 0
M  V30 9697 C 945.928 4.09702 3.30198 0
M  V30 9698 O 944.954 4.79715 3.0637 0
M  V30 9699 N 946.156 3.61138 4.54489 0
M  V30 9700 H 948.921 2.94999 0.528752 0
M  V30 9701 H 946.482 1.61283 0.141248 0
M  V30 9702 H 948.474 2.66683 3.04405 0
M  V30 9703 H 947.044 1.68805 2.63104 0
M  V30 9704 H 946.264 3.74392 1.23387 0
M  V30 9705 H 947.552 4.66559 2.02978 0
M  V30 9706 H 946.95 3.04527 4.76739 0
M  V30 9707 H 945.507 3.82656 5.27653 0
M  V30 9708 N 948.94 -0.228186 1.55939 0
M  V30 9709 C 950.165 -0.974795 1.83064 0
M  V30 9710 C 950.59 -1.77426 0.624624 0
M  V30 9711 O 949.948 -1.76211 -0.426556 0
M  V30 9712 C 949.996 -1.87342 3.08116 0
M  V30 9713 O 949.1 -2.96784 2.86344 0
M  V30 9714 H 948.441 -0.276379 0.603747 0
M  V30 9715 H 950.971 -0.243507 2.03146 0
M  V30 9716 H 950.981 -2.28451 3.38045 0
M  V30 9717 H 949.656 -1.28575 3.95526 0
M  V30 9718 H 948.233 -2.59669 2.67631 0
M  V30 9719 N 950.418 -1.49637 -0.494624 0
M  V30 9720 C 951.648 -1.62928 -1.27036 0
M  V30 9721 C 952.056 -0.302464 -1.86767 0
M  V30 9722 O 951.399 0.722878 -1.68879 0
M  V30 9723 C 951.461 -2.64449 -2.43531 0
M  V30 9724 C 951.125 -4.08632 -2.0462 0
M  V30 9725 C 952.122 -4.95238 -1.58225 0
M  V30 9726 C 949.807 -4.54405 -2.1406 0
M  V30 9727 C 951.801 -6.25658 -1.21782 0
M  V30 9728 C 949.488 -5.84836 -1.77228 0
M  V30 9729 C 950.486 -6.70287 -1.31165 0
M  V30 9730 O 950.174 -7.98287 -0.948339 0
M  V30 9731 H 949.906 -0.551263 -0.391261 0
M  V30 9732 H 952.46 -1.96453 -0.599621 0
M  V30 9733 H 950.69 -2.26117 -3.137 0
M  V30 9734 H 952.379 -2.67203 -3.05545 0
M  V30 9735 H 953.145 -4.611 -1.50373 0
M  V30 9736 H 949.024 -3.88056 -2.48865 0
M  V30 9737 H 952.568 -6.92309 -0.857566 0
M  V30 9738 H 948.465 -6.18502 -1.84732 0
M  V30 9739 H 949.233 -8.11353 -1.07925 0
M  V30 9740 N 951.896 0.746133 -1.38819 0
M  V30 9741 C 953.307 1.32384 -1.31648 0
M  V30 9742 C 953.658 1.96185 0.0243086 0
M  V30 9743 O 952.783 1.95567 0.92641 0
M  V30 9744 C 953.378 2.40712 -2.38418 0
M  V30 9745 C 951.937 2.94185 -2.34803 0
M  V30 9746 C 951.084 1.67639 -2.20891 0
M  V30 9747 H 954.035 0.544457 -1.49068 0
M  V30 9748 H 954.056 3.20833 -2.04564 0
M  V30 9749 H 953.568 1.94247 -3.3599 0
M  V30 9750 H 951.669 3.44959 -1.40834 0
M  V30 9751 H 951.782 3.48057 -3.29231 0
M  V30 9752 H 950.146 1.9155 -1.67871 0
M  V30 9753 H 950.929 1.23242 -3.20416 0
M  V30 9754 N 953.375 1.23811 0.975125 0
M  V30 9755 C 954.6 1.10109 1.75757 0
M  V30 9756 C 955.025 -0.342922 1.84948 0
M  V30 9757 O 954.383 -1.24814 1.31496 0
M  V30 9758 C 954.431 1.73724 3.15994 0
M  V30 9759 O 953.535 1.00297 4.00018 0
M  V30 9760 H 952.876 0.385627 0.540544 0
M  V30 9761 H 955.406 1.63971 1.22372 0
M  V30 9762 H 955.416 1.79178 3.6655 0
M  V30 9763 H 954.091 2.78794 3.0862 0
M  V30 9764 H 952.668 1.02575 3.58515 0
M  V30 9765 N 954.853 -1.17469 1.05066 0
M  V30 9766 C 956.13 -1.83625 0.673872 0
M  V30 9767 C 956.51 -1.93412 -0.845871 0
M  V30 9768 O 955.858 -1.4677 -1.75131 0
M  V30 9769 C 956.068 -3.21352 1.36139 0
M  V30 9770 C 957.416 -3.97274 1.49863 0
M  V30 9771 O 958.44 -3.30827 1.3203 0
M  V30 9772 O 957.299 -5.16349 1.79013 0
M  V30 9773 H 954.393 -0.792297 0.237055 0
M  V30 9774 H 956.939 -1.24776 1.15017 0
M  V30 9775 H 955.711 -3.0919 2.39827 0
M  V30 9776 H 955.334 -3.87867 0.874364 0
M  V30 9777 N 956.331 -0.831506 -1.3388 0
M  V30 9778 C 957.261 -0.274378 -2.31882 0
M  V30 9779 C 958.242 0.613872 -1.58637 0
M  V30 9780 O 959.427 0.538961 -1.86571 0
M  V30 9781 C 956.557 0.557498 -3.42796 0
M  V30 9782 C 955.511 -0.234337 -4.27358 0
M  V30 9783 C 954.837 0.720825 -5.29819 0
M  V30 9784 C 956.137 -1.44732 -5.01847 0
M  V30 9785 H 957.831 -1.09322 -2.78728 0
M  V30 9786 H 955.377 -0.527136 -1.34005 0
M  V30 9787 H 957.33 0.957501 -4.10378 0
M  V30 9788 H 956.054 1.40947 -2.94621 0
M  V30 9789 H 954.713 -0.61581 -3.61391 0
M  V30 9790 H 954.361 1.569 -4.77903 0
M  V30 9791 H 954.061 0.195171 -5.87276 0
M  V30 9792 H 955.585 1.1185 -6.00268 0
M  V30 9793 H 956.999 -1.12087 -5.62236 0
M  V30 9794 H 955.396 -1.90923 -5.68919 0
M  V30 9795 H 956.466 -2.22099 -4.31045 0
M  V30 9796 N 957.809 1.4625 -0.587256 0
M  V30 9797 C 959.22 1.85997 -0.161918 0
M  V30 9798 C 959.571 1.49025 1.27616 0
M  V30 9799 O 958.696 0.907282 1.96462 0
M  V30 9800 C 959.291 3.37582 -0.287077 0
M  V30 9801 C 957.85 3.76308 0.0834211 0
M  V30 9802 C 956.997 2.70259 -0.620932 0
M  V30 9803 H 959.948 1.3734 -0.795199 0
M  V30 9804 H 959.969 3.77379 0.486333 0
M  V30 9805 H 959.481 3.64459 -1.33383 0
M  V30 9806 H 957.582 3.55047 1.13013 0
M  V30 9807 H 957.695 4.78184 -0.296064 0
M  V30 9808 H 956.059 2.54628 -0.0607027 0
M  V30 9809 H 956.842 2.99975 -1.66942 0
M  V30 9810 N 959.287 0.325282 1.54207 0
M  V30 9811 C 960.197 -0.548778 2.28091 0
M  V30 9812 C 961.213 -1.12772 1.32508 0
M  V30 9813 O 962.389 -1.14732 1.65525 0
M  V30 9814 C 959.454 -1.69284 3.02562 0
M  V30 9815 C 958.515 -1.14553 4.13734 0
M  V30 9816 C 957.748 -2.23506 4.84645 0
M  V30 9817 O 957.971 -3.43884 4.55082 0
M  V30 9818 O 956.905 -1.88828 5.71513 0
M  V30 9819 H 960.731 0.0512974 3.03657 0
M  V30 9820 H 958.316 0.0909159 1.49123 0
M  V30 9821 H 960.198 -2.35887 3.49192 0
M  V30 9822 H 958.873 -2.27906 2.2987 0
M  V30 9823 H 957.78 -0.444532 3.71449 0
M  V30 9824 H 959.113 -0.60441 4.88475 0
M  V30 9825 N 960.765 -1.57509 0.0534917 0
M  V30 9826 C 961.675 -2.15152 -0.935249 0
M  V30 9827 C 962.691 -1.10991 -1.34003 0
M  V30 9828 O 963.867 -1.43171 -1.41648 0
M  V30 9829 C 960.932 -2.68699 -2.19093 0
M  V30 9830 C 959.993 -3.87666 -1.84428 0
M  V30 9831 C 959.226 -4.3865 -3.0401 0
M  V30 9832 O 959.449 -3.887 -4.17455 0
M  V30 9833 O 958.383 -5.30209 -2.84889 0
M  V30 9834 H 962.209 -2.99962 -0.475009 0
M  V30 9835 H 959.794 -1.48446 -0.16854 0
M  V30 9836 H 961.676 -3.03098 -2.92762 0
M  V30 9837 H 960.351 -1.86958 -2.6425 0
M  V30 9838 H 959.258 -3.58151 -1.08068 0
M  V30 9839 H 960.591 -4.70643 -1.44068 0
M  V30 9840 N 962.243 0.219913 -1.56058 0
M  V30 9841 C 963.654 0.786766 -1.69313 0
M  V30 9842 C 964.005 1.84916 -0.655782 0
M  V30 9843 O 963.13 2.1554 0.192772 0
M  V30 9844 C 963.725 1.43387 -3.06962 0
M  V30 9845 C 962.284 1.94809 -3.22066 0
M  V30 9846 C 961.431 0.808863 -2.65241 0
M  V30 9847 H 964.382 -0.00476777 -1.58699 0
M  V30 9848 H 964.403 2.30272 -3.02911 0
M  V30 9849 H 963.915 0.660405 -3.8244 0
M  V30 9850 H 962.016 2.74952 -2.5146 0
M  V30 9851 H 962.129 2.12694 -4.293 0
M  V30 9852 H 960.493 1.21661 -2.23765 0
M  V30 9853 H 961.276 0.0480458 -3.43266 0
M  V30 9854 N 963.721 1.49897 0.486681 0
M  V30 9855 C 964.946 1.64106 1.26823 0
M  V30 9856 C 965.371 0.317967 1.85393 0
M  V30 9857 O 964.729 -0.71626 1.66551 0
M  V30 9858 C 964.777 2.72301 2.36399 0
M  V30 9859 O 963.881 2.32469 3.40634 0
M  V30 9860 H 963.222 0.548794 0.373793 0
M  V30 9861 H 965.752 1.96177 0.581017 0
M  V30 9862 H 965.762 2.94906 2.81948 0
M  V30 9863 H 964.437 3.68335 1.93137 0
M  V30 9864 H 963.014 2.20251 3.00905 0
M  V30 9865 N 965.199 -0.738761 1.39212 0
M  V30 9866 C 966.424 -1.5331 1.39681 0
M  V30 9867 C 966.849 -1.88098 -0.00768715 0
M  V30 9868 O 966.207 -1.51642 -0.993699 0
M  V30 9869 C 966.255 -2.79958 2.27279 0
M  V30 9870 O 965.359 -3.75727 1.70008 0
M  V30 9871 H 964.7 -0.463131 0.475821 0
M  V30 9872 H 967.23 -0.911768 1.83161 0
M  V30 9873 H 967.24 -3.28732 2.41659 0
M  V30 9874 H 965.915 -2.5397 3.29351 0
M  V30 9875 H 964.492 -3.34483 1.64851 0
M  V30 9876 N 966.677 -1.24326 -0.968545 0
M  V30 9877 C 968.088 -1.07561 -1.52603 0
M  V30 9878 C 968.439 0.353245 -1.92994 0
M  V30 9879 O 967.564 1.24151 -1.77244 0
M  V30 9880 C 968.159 -1.94634 -2.77314 0
M  V30 9881 C 966.718 -1.82095 -3.29421 0
M  V30 9882 C 965.865 -1.8962 -2.02335 0
M  V30 9883 H 968.816 -1.37815 -0.786932 0
M  V30 9884 H 968.837 -1.47812 -3.50616 0
M  V30 9885 H 968.349 -2.98621 -2.47885 0
M  V30 9886 H 966.45 -0.809376 -3.63703 0
M  V30 9887 H 966.563 -2.66142 -3.98378 0
M  V30 9888 H 964.927 -1.33339 -2.17009 0
M  V30 9889 H 965.71 -2.95185 -1.75273 0
M  V30 9890 N 968.156 1.1691 -1.05688 0
M  V30 9891 C 969.088 2.20648 -0.620237 0
M  V30 9892 C 970.101 1.59652 0.318604 0
M  V30 9893 O 971.29 1.78157 0.110553 0
M  V30 9894 C 968.39 3.38716 0.111729 0
M  V30 9895 C 967.563 4.29277 -0.839062 0
M  V30 9896 C 966.622 5.25993 -0.147453 0
M  V30 9897 O 965.648 5.63787 -0.783151 0
M  V30 9898 N 966.85 5.69725 1.11327 0
M  V30 9899 H 969.615 2.58731 -1.51256 0
M  V30 9900 H 967.176 1.31858 -0.939412 0
M  V30 9901 H 969.168 4.00455 0.584657 0
M  V30 9902 H 967.738 2.99189 0.905784 0
M  V30 9903 H 966.958 3.64894 -1.4915 0
M  V30 9904 H 968.246 4.86669 -1.48428 0
M  V30 9905 H 967.644 5.41103 1.64999 0
M  V30 9906 H 966.201 6.33584 1.53018 0
M  V30 9907 N 969.634 0.838594 1.33437 0
M  V30 9908 C 970.544 0.274048 2.32994 0
M  V30 9909 C 971.56 -0.599776 1.63336 0
M  V30 9910 O 972.736 -0.503963 1.94993 0
M  V30 9911 C 969.801 -0.541804 3.4244 0
M  V30 9912 C 968.862 0.356262 4.27819 0
M  V30 9913 C 968.095 -0.420747 5.32039 0
M  V30 9914 O 968.318 -1.65247 5.45939 0
M  V30 9915 O 967.252 0.205101 6.0155 0
M  V30 9916 H 971.078 1.09846 2.83139 0
M  V30 9917 H 968.663 0.601111 1.36774 0
M  V30 9918 H 970.545 -1.00544 4.0923 0
M  V30 9919 H 969.22 -1.34328 2.94513 0
M  V30 9920 H 968.127 0.867726 3.63897 0
M  V30 9921 H 969.46 1.1225 4.79229 0
M  V30 9922 N 971.112 -1.45937 0.595003 0
M  V30 9923 C 972.528 -1.57507 0.257641 0
M  V30 9924 C 972.728 -1.58829 -1.23998 0
M  V30 9925 O 971.784 -1.51183 -2.02237 0
M  V30 9926 C 973.097 -2.86354 0.917708 0
M  V30 9927 C 974.645 -3.00007 0.892446 0
M  V30 9928 C 975.12 -4.31607 1.53229 0
M  V30 9929 N 976.611 -4.38336 1.49719 0
M  V30 9930 C 977.346 -5.38805 1.96154 0
M  V30 9931 N 976.842 -6.45882 2.50617 0
M  V30 9932 N 978.635 -5.30084 1.86997 0
M  V30 9933 H 970.786 -1.43322 1.56756 0
M  V30 9934 H 973.049 -0.684436 0.655936 0
M  V30 9935 H 972.755 -2.91233 1.97171 0
M  V30 9936 H 972.629 -3.74703 0.433344 0
M  V30 9937 H 975.016 -2.94703 -0.152975 0
M  V30 9938 H 975.097 -2.13103 1.41495 0
M  V30 9939 H 974.741 -4.3767 2.57697 0
M  V30 9940 H 974.671 -5.17308 0.984903 0
M  V30 9941 H 977.162 -3.6156 1.09921 0
M  V30 9942 H 977.475 -7.18774 2.83874 0
M  V30 9943 H 975.82 -6.46668 2.54649 0
M  V30 9944 H 979.011 -4.45337 1.44196 0
M  V30 9945 H 979.184 -6.08237 2.23499 0
M  V30 9946 N 972.59 -0.333456 -1.54032 0
M  V30 9947 C 973.523 0.570776 -2.20947 0
M  V30 9948 C 974.501 1.10811 -1.18994 0
M  V30 9949 O 975.685 1.17027 -1.47773 0
M  V30 9950 C 972.812 1.7842 -2.87896 0
M  V30 9951 C 971.858 1.37722 -4.03652 0
M  V30 9952 S 972.691 0.405548 -5.33962 0
M  V30 9953 C 973.847 1.62603 -6.0441 0
M  V30 9954 H 974.08 0.0023936 -2.973 0
M  V30 9955 H 971.613 -0.117531 -1.53952 0
M  V30 9956 H 973.571 2.48038 -3.27089 0
M  V30 9957 H 972.232 2.32378 -2.11327 0
M  V30 9958 H 971.425 2.28167 -4.49395 0
M  V30 9959 H 971.027 0.760628 -3.66184 0
M  V30 9960 H 973.319 2.56202 -6.2719 0
M  V30 9961 H 974.262 1.21058 -6.97675 0
M  V30 9962 H 974.67 1.8175 -5.34441 0
M  V30 9963 N 974.068 1.57479 -0.061844 0
M  V30 9964 C 975.315 1.93108 0.60954 0
M  V30 9965 C 975.643 0.941086 1.70217 0
M  V30 9966 O 974.898 -0.044914 1.95648 0
M  V30 9967 C 975.197 3.35394 1.23474 0
M  V30 9968 C 974.863 4.50095 0.269247 0
M  V30 9969 C 973.525 4.812 0.00360316 0
M  V30 9970 C 975.877 5.19725 -0.391839 0
M  V30 9971 C 973.205 5.79276 -0.930383 0
M  V30 9972 C 975.557 6.18801 -1.31408 0
M  V30 9973 C 974.221 6.48328 -1.58829 0
M  V30 9974 H 973.491 0.706634 0.223046 0
M  V30 9975 H 976.138 1.91054 -0.1306 0
M  V30 9976 H 974.443 3.33866 2.05039 0
M  V30 9977 H 976.14 3.60247 1.76134 0
M  V30 9978 H 972.73 4.2583 0.486477 0
M  V30 9979 H 976.914 4.95898 -0.199713 0
M  V30 9980 H 972.17 6.00484 -1.15019 0
M  V30 9981 H 976.344 6.71862 -1.83234 0
M  V30 9982 H 973.971 7.24137 -2.31363 0
M  V30 9983 N 975.546 -0.211634 1.56173 0
M  V30 9984 C 976.774 -0.951184 1.83739 0
M  V30 9985 C 977.189 -1.7754 0.642252 0
M  V30 9986 O 976.546 -1.78302 -0.389174 0
M  V30 9987 C 976.597 -1.86075 3.09933 0
M  V30 9988 O 976.318 -1.06983 4.24837 0
M  V30 9989 C 977.819 -2.71337 3.50559 0
M  V30 9990 H 975.039 -0.278312 0.61056 0
M  V30 9991 H 977.583 -0.223871 2.03271 0
M  V30 9992 H 975.738 -2.54189 2.92347 0
M  V30 9993 H 976.152 -1.68815 4.9659 0
M  V30 9994 H 977.626 -3.30843 4.41868 0
M  V30 9995 H 978.103 -3.44226 2.72773 0
M  V30 9996 H 978.709 -2.0862 3.70618 0
M  V30 9997 N 977.024 -1.50153 -0.478725 0
M  V30 9998 C 978.273 -1.60002 -1.22809 0
M  V30 9999 C 978.586 -0.302277 -1.9325 0
M  V30 10000 O 979.792 -0.279583 -2.70057 0
M  V30 10001 C 978.248 -2.82402 -2.23108 0
M  V30 10002 C 977.856 -4.19023 -1.58505 0
M  V30 10003 C 979.6 -3.01593 -2.98734 0
M  V30 10004 C 977.507 -5.32618 -2.57045 0
M  V30 10005 H 976.437 -0.595822 -0.462073 0
M  V30 10006 H 979.088 -1.76573 -0.499412 0
M  V30 10007 H 977.47 -2.59373 -2.99235 0
M  V30 10008 H 978.644 -4.52277 -0.882187 0
M  V30 10009 H 976.959 -4.05374 -0.951877 0
M  V30 10010 H 979.556 -3.8363 -3.72468 0
M  V30 10011 H 979.899 -2.1302 -3.57671 0
M  V30 10012 H 980.432 -3.24766 -2.29721 0
M  V30 10013 H 977.171 -6.23321 -2.02858 0
M  V30 10014 H 976.691 -5.03792 -3.25505 0
M  V30 10015 H 978.37 -5.62877 -3.19028 0
M  V30 10016 N 978.502 0.731368 -1.39602 0
M  V30 10017 C 979.779 1.48308 -1.27531 0
M  V30 10018 C 980.159 2.10795 0.113482 0
M  V30 10019 O 979.507 1.98886 1.12501 0
M  V30 10020 C 979.717 2.53156 -2.40235 0
M  V30 10021 C 981.065 3.19436 -2.79725 0
M  V30 10022 O 982.089 2.6347 -2.39712 0
M  V30 10023 O 980.948 4.20714 -3.48801 0
M  V30 10024 H 978.042 0.658753 -0.499973 0
M  V30 10025 H 980.588 0.764884 -1.51485 0
M  V30 10026 H 979.36 2.05387 -3.33064 0
M  V30 10027 H 978.983 3.3253 -2.17966 0
M  V30 10028 N 979.98 1.24838 0.961938 0
M  V30 10029 C 981.391 1.08369 1.5203 0
M  V30 10030 C 981.742 -0.343005 1.93178 0
M  V30 10031 O 980.867 -1.2321 1.779 0
M  V30 10032 C 981.462 1.96102 2.76278 0
M  V30 10033 C 980.021 1.8384 3.28451 0
M  V30 10034 C 979.168 1.9069 2.01327 0
M  V30 10035 H 982.119 1.38231 0.779613 0
M  V30 10036 H 982.14 1.4967 3.49827 0
M  V30 10037 H 981.652 2.99931 2.46298 0
M  V30 10038 H 979.753 0.828653 3.63269 0
M  V30 10039 H 979.866 2.68251 3.96961 0
M  V30 10040 H 978.23 1.34488 2.16299 0
M  V30 10041 H 979.013 2.96111 1.73705 0
M  V30 10042 N 981.458 -1.16348 1.06306 0
M  V30 10043 C 982.405 -2.20741 0.673962 0
M  V30 10044 C 983.375 -1.628 -0.329454 0
M  V30 10045 O 984.56 -1.89547 -0.218313 0
M  V30 10046 C 981.7 -3.45036 0.0667008 0
M  V30 10047 C 980.813 -4.17221 1.12031 0
M  V30 10048 C 979.948 -5.29034 0.479176 0
M  V30 10049 C 978.987 -5.93021 1.51631 0
M  V30 10050 N 978.124 -6.96327 0.898528 0
M  V30 10051 H 982.964 -2.53376 1.56859 0
M  V30 10052 H 980.501 -1.24449 0.784276 0
M  V30 10053 H 982.459 -4.16099 -0.302916 0
M  V30 10054 H 981.089 -3.1295 -0.791333 0
M  V30 10055 H 980.141 -3.4476 1.60763 0
M  V30 10056 H 981.453 -4.60902 1.90712 0
M  V30 10057 H 980.607 -6.06674 0.0565993 0
M  V30 10058 H 979.346 -4.86517 -0.33951 0
M  V30 10059 H 978.351 -5.14104 1.94878 0
M  V30 10060 H 979.576 -6.37618 2.3371 0
M  V30 10061 H 977.522 -6.55923 0.100555 0
M  V30 10062 H 977.439 -7.38379 1.62272 0
M  V30 10063 H 978.707 -7.77888 0.5011 0
M  V30 10064 N 982.937 -0.845659 -1.3299 0
M  V30 10065 C 984.183 -0.445311 -1.9785 0
M  V30 10066 C 984.516 0.994476 -1.66805 0
M  V30 10067 O 983.791 1.69636 -0.95151 0
M  V30 10068 C 984.074 -0.674371 -3.53729 0
M  V30 10069 C 983.927 -2.16192 -3.94437 0
M  V30 10070 C 985.246 -0.124908 -4.39923 0
M  V30 10071 H 982.365 -0.163269 -0.718688 0
M  V30 10072 H 985.007 -1.06242 -1.5752 0
M  V30 10073 H 983.157 -0.149091 -3.88214 0
M  V30 10074 H 984.829 -2.75259 -3.70176 0
M  V30 10075 H 983.072 -2.64386 -3.43922 0
M  V30 10076 H 983.743 -2.27292 -5.03033 0
M  V30 10077 H 986.219 -0.573986 -4.12122 0
M  V30 10078 H 985.095 -0.314816 -5.47996 0
M  V30 10079 H 985.356 0.971758 -4.31288 0
M  V30 10080 N 984.415 1.45619 -0.602734 0
M  V30 10081 C 985.645 2.06348 -0.102105 0
M  V30 10082 C 986.053 1.44884 1.21677 0
M  V30 10083 O 985.396 0.555559 1.75098 0
M  V30 10084 C 985.458 3.59309 0.117026 0
M  V30 10085 C 985.122 4.43081 -1.11931 0
M  V30 10086 C 986.119 4.78364 -2.03627 0
M  V30 10087 C 983.804 4.83908 -1.34677 0
M  V30 10088 C 985.798 5.53325 -3.16403 0
M  V30 10089 C 983.485 5.58624 -2.47754 0
M  V30 10090 C 984.483 5.93249 -3.38445 0
M  V30 10091 O 984.171 6.6645 -4.49555 0
M  V30 10092 H 983.903 0.672988 -0.0637478 0
M  V30 10093 H 986.457 1.87928 -0.828983 0
M  V30 10094 H 984.687 3.76111 0.898742 0
M  V30 10095 H 986.376 4.01897 0.568649 0
M  V30 10096 H 987.142 4.47384 -1.87277 0
M  V30 10097 H 983.021 4.56396 -0.649875 0
M  V30 10098 H 986.565 5.80268 -3.87214 0
M  V30 10099 H 982.462 5.89019 -2.64059 0
M  V30 10100 H 983.23 6.84895 -4.48175 0
M  V30 10101 N 985.893 0.34162 1.53853 0
M  V30 10102 C 987.141 -0.254979 2.00485 0
M  V30 10103 C 987.462 -1.51222 1.23114 0
M  V30 10104 O 986.732 -1.92966 0.337787 0
M  V30 10105 H 985.312 -0.0972084 0.740648 0
M  V30 10106 H 987.974 0.462332 1.89337 0
M  V30 10107 H 987.07 -0.498778 3.08089 0
M  V30 10108 N 987.371 -1.57444 0.0701946 0
M  V30 10109 C 988.281 -2.16132 -0.912377 0
M  V30 10110 C 989.297 -1.12406 -1.32819 0
M  V30 10111 O 990.473 -1.44665 -1.40121 0
M  V30 10112 C 987.538 -2.71008 -2.16231 0
M  V30 10113 C 986.599 -3.896 -1.80306 0
M  V30 10114 C 985.832 -4.4185 -2.9934 0
M  V30 10115 O 986.055 -3.93106 -4.13309 0
M  V30 10116 O 984.989 -5.33201 -2.7925 0
M  V30 10117 H 988.815 -3.00449 -0.443167 0
M  V30 10118 H 986.4 -1.48617 -0.152786 0
M  V30 10119 H 988.282 -3.06186 -2.8953 0
M  V30 10120 H 986.957 -1.8975 -2.62253 0
M  V30 10121 H 985.864 -3.59277 -1.04264 0
M  V30 10122 H 987.197 -4.72145 -1.39068 0
M  V30 10123 N 988.849 0.203349 -1.56283 0
M  V30 10124 C 989.796 1.25205 -1.93888 0
M  V30 10125 C 990.766 1.45654 -0.798376 0
M  V30 10126 O 991.951 1.58924 -1.05583 0
M  V30 10127 C 989.091 2.59355 -2.27659 0
M  V30 10128 C 988.204 2.46553 -3.54733 0
M  V30 10129 C 987.339 3.73351 -3.77865 0
M  V30 10130 C 986.378 3.55347 -4.98392 0
M  V30 10131 N 985.515 4.74137 -5.17821 0
M  V30 10132 H 990.355 0.924356 -2.83301 0
M  V30 10133 H 987.892 0.445082 -1.40205 0
M  V30 10134 H 989.85 3.375 -2.45254 0
M  V30 10135 H 988.48 2.90184 -1.41396 0
M  V30 10136 H 987.532 1.59749 -3.45231 0
M  V30 10137 H 988.844 2.2918 -4.43033 0
M  V30 10138 H 987.998 4.59937 -3.95655 0
M  V30 10139 H 986.737 3.9367 -2.8788 0
M  V30 10140 H 985.742 2.67146 -4.80534 0
M  V30 10141 H 986.967 3.36482 -5.89879 0
M  V30 10142 H 984.913 4.94735 -4.30782 0
M  V30 10143 H 984.83 4.59558 -6.00285 0
M  V30 10144 H 986.098 5.62098 -5.40061 0
M  V30 10145 N 990.327 1.50405 0.470755 0
M  V30 10146 C 991.743 1.37838 0.804534 0
M  V30 10147 C 991.943 0.434743 1.96754 0
M  V30 10148 O 990.999 -0.122507 2.52203 0
M  V30 10149 C 992.312 2.79212 1.11629 0
M  V30 10150 C 993.86 2.88129 1.22272 0
M  V30 10151 C 994.335 4.30337 1.5676 0
M  V30 10152 N 995.826 4.3329 1.63751 0
M  V30 10153 C 996.561 5.4032 1.91942 0
M  V30 10154 N 996.057 6.57558 2.18151 0
M  V30 10155 N 997.85 5.27764 1.93446 0
M  V30 10156 H 990.001 2.10332 -0.295689 0
M  V30 10157 H 992.264 0.945429 -0.0697733 0
M  V30 10158 H 991.97 3.50103 0.334778 0
M  V30 10159 H 991.844 3.16475 2.0524 0
M  V30 10160 H 994.231 2.17457 1.9949 0
M  V30 10161 H 994.312 2.54409 0.2664 0
M  V30 10162 H 993.956 5.01547 0.800817 0
M  V30 10163 H 993.886 4.61545 2.53543 0
M  V30 10164 H 996.377 3.48752 1.45535 0
M  V30 10165 H 996.69 7.34935 2.38936 0
M  V30 10166 H 995.035 6.60732 2.15542 0
M  V30 10167 H 998.226 4.35169 1.72468 0
M  V30 10168 H 998.399 6.11264 2.15081 0
M  V30 10169 N 991.805 -0.723954 1.39988 0
M  V30 10170 C 993.082 -1.4763 1.28316 0
M  V30 10171 C 993.462 -2.10852 -0.102302 0
M  V30 10172 O 992.81 -1.9948 -1.11445 0
M  V30 10173 C 993.02 -2.51878 2.41574 0
M  V30 10174 C 994.368 -3.17948 2.81415 0
M  V30 10175 O 995.392 -2.62195 2.41106 0
M  V30 10176 O 994.251 -4.18858 3.51027 0
M  V30 10177 H 991.345 -0.656092 0.50346 0
M  V30 10178 H 993.891 -0.75684 1.51888 0
M  V30 10179 H 992.663 -2.03618 3.34149 0
M  V30 10180 H 992.286 -3.3137 2.19727 0
M  V30 10181 N 993.283 -1.25346 -0.955304 0
M  V30 10182 C 994.213 -1.08152 -2.06943 0
M  V30 10183 C 995.194 0.00922598 -1.70097 0
M  V30 10184 O 996.379 -0.160181 -1.93538 0
M  V30 10185 C 993.509 -0.698745 -3.40198 0
M  V30 10186 C 992.463 -1.73965 -3.9105 0
M  V30 10187 C 991.789 -1.21158 -5.20792 0
M  V30 10188 C 993.089 -3.13829 -4.17503 0
M  V30 10189 H 994.783 -2.01345 -2.21586 0
M  V30 10190 H 992.329 -0.969459 -1.06478 0
M  V30 10191 H 994.282 -0.565394 -4.1759 0
M  V30 10192 H 993.006 0.268892 -3.25491 0
M  V30 10193 H 991.665 -1.86143 -3.15827 0
M  V30 10194 H 991.313 -0.234193 -5.02455 0
M  V30 10195 H 991.013 -1.90728 -5.55785 0
M  V30 10196 H 992.537 -1.09061 -6.00781 0
M  V30 10197 H 993.951 -3.04809 -4.85556 0
M  V30 10198 H 992.348 -3.80863 -4.63749 0
M  V30 10199 H 993.418 -3.6094 -3.23806 0
M  V30 10200 N 994.761 1.15782 -1.06922 0
M  V30 10201 C 995.711 2.18373 -0.655537 0
M  V30 10202 C 996.695 1.57745 0.317084 0
M  V30 10203 O 997.887 1.76511 0.131509 0
M  V30 10204 C 995.016 3.43263 -0.0502314 0
M  V30 10205 C 994.102 4.10954 -1.04773 0
M  V30 10206 N 994.493 4.542 -2.22567 0
M  V30 10207 C 992.791 4.3723 -0.880087 0
M  V30 10208 C 993.492 5.06641 -2.85815 0
M  V30 10209 N 992.468 4.99917 -2.13505 0
M  V30 10210 H 996.27 2.49533 -1.55276 0
M  V30 10211 H 993.784 1.32303 -0.941793 0
M  V30 10212 H 995.781 4.16063 0.264003 0
M  V30 10213 H 994.441 3.13588 0.842167 0
M  V30 10214 H 995.452 4.47727 -2.60309 0
M  V30 10215 H 992.129 4.17481 -0.0402148 0
M  V30 10216 H 993.519 5.50092 -3.85808 0
M  V30 10217 N 996.239 0.8527 1.3254 0
M  V30 10218 C 997.464 0.468157 2.02047 0
M  V30 10219 C 997.889 -0.926967 1.63673 0
M  V30 10220 O 997.247 -1.60855 0.836378 0
M  V30 10221 C 997.295 0.612519 3.5536 0
M  V30 10222 O 996.399 -0.355506 4.10865 0
M  V30 10223 H 995.74 0.188401 0.636711 0
M  V30 10224 H 998.27 1.15135 1.6913 0
M  V30 10225 H 998.28 0.499315 4.04933 0
M  V30 10226 H 996.955 1.62988 3.82632 0
M  V30 10227 H 995.532 -0.198703 3.7237 0
M  V30 10228 N 997.718 -1.45297 0.610449 0
M  V30 10229 C 998.665 -2.30553 -0.106718 0
M  V30 10230 C 999.635 -1.42272 -0.85719 0
M  V30 10231 O 1000.82 -1.71199 -0.842357 0
M  V30 10232 C 997.96 -3.27226 -1.09623 0
M  V30 10233 C 997.073 -4.3061 -0.346329 0
M  V30 10234 C 996.208 -5.14389 -1.32581 0
M  V30 10235 C 995.247 -6.09497 -0.563892 0
M  V30 10236 N 994.384 -6.86047 -1.4928 0
M  V30 10237 H 999.224 -2.91344 0.626296 0
M  V30 10238 H 996.761 -1.43563 0.32065 0
M  V30 10239 H 998.719 -3.81744 -1.68308 0
M  V30 10240 H 997.349 -2.68182 -1.79662 0
M  V30 10241 H 996.401 -3.7873 0.356084 0
M  V30 10242 H 997.713 -4.98183 0.248026 0
M  V30 10243 H 996.867 -5.73321 -1.98464 0
M  V30 10244 H 995.606 -4.4684 -1.9541 0
M  V30 10245 H 994.611 -5.49693 0.108551 0
M  V30 10246 H 995.836 -6.79074 0.0593872 0
M  V30 10247 H 993.782 -6.21185 -2.10868 0
M  V30 10248 H 993.699 -7.49983 -0.951953 0
M  V30 10249 H 994.967 -7.49518 -2.14112 0
M  V30 10250 N 999.196 -0.349774 -1.5367 0
M  V30 10251 C 1000.14 0.519396 -2.26727 0
M  V30 10252 C 1001.14 1.09673 -1.29105 0
M  V30 10253 O 1002.34 1.04176 -1.46791 0
M  V30 10254 H 998.719 0.186192 -0.728585 0
M  V30 10255 H 1000.69 -0.118736 -2.98164 0
M  V30 10256 C 999.439 1.65535 -3.05767 0
M  V30 10257 H 998.762 1.22038 -3.80719 0
M  V30 10258 H 1000.2 2.23856 -3.6009 0
M  V30 10259 C 998.661 2.58844 -2.15642 0
M  V30 10260 O 999.191 3.61254 -1.75665 0
M  V30 10261 N 997.397 2.27671 -1.80595 0
M  V30 10262 H 996.944 1.44429 -2.13302 0
M  V30 10263 H 996.902 2.90359 -1.20577 0
M  V30 10264 N 1000.67 1.57404 -0.0785433 0
M  V30 10265 C 1001.62 2.13104 0.88631 0
M  V30 10266 C 1002.59 1.04527 1.29086 0
M  V30 10267 O 1003.78 1.32226 1.37553 0
M  V30 10268 C 1000.92 2.70252 2.14611 0
M  V30 10269 C 1000.03 3.93007 1.79358 0
M  V30 10270 C 999.164 4.38376 3 0
M  V30 10271 C 998.203 5.53761 2.60796 0
M  V30 10272 N 997.34 5.94058 3.74219 0
M  V30 10273 H 1002.18 2.95243 0.404452 0
M  V30 10274 H 999.717 1.45894 0.187982 0
M  V30 10275 H 1001.67 3.01497 2.88367 0
M  V30 10276 H 1000.3 1.90868 2.60326 0
M  V30 10277 H 999.357 3.68181 0.956384 0
M  V30 10278 H 1000.67 4.76795 1.4652 0
M  V30 10279 H 999.823 4.71317 3.82027 0
M  V30 10280 H 998.562 3.53455 3.36037 0
M  V30 10281 H 997.567 5.20464 1.77192 0
M  V30 10282 H 998.792 6.40419 2.25922 0
M  V30 10283 H 996.738 5.12085 4.10005 0
M  V30 10284 H 996.655 6.72602 3.45171 0
M  V30 10285 H 997.923 6.31624 4.56805 0
M  V30 10286 N 1002.15 -0.195058 1.56388 0
M  V30 10287 C 1003.43 -0.941335 1.71459 0
M  V30 10288 C 1003.81 -2.01375 0.633336 0
M  V30 10289 O 1003.16 -2.25715 -0.35567 0
M  V30 10290 C 1003.37 -1.52772 3.13786 0
M  V30 10291 C 1004.71 -2.00983 3.7402 0
M  V30 10292 O 1005.74 -1.62614 3.16915 0
M  V30 10293 O 1004.6 -2.71586 4.7424 0
M  V30 10294 H 1001.69 -0.441451 0.699321 0
M  V30 10295 H 1004.24 -0.184752 1.68691 0
M  V30 10296 H 1003.01 -0.754699 3.83953 0
M  V30 10297 H 1002.63 -2.34914 3.20782 0
M  V30 10298 N 1003.63 -1.50653 -0.462772 0
M  V30 10299 C 1004.91 -1.5258 -1.22387 0
M  V30 10300 C 1005.29 -0.275263 -2.09298 0
M  V30 10301 O 1004.63 0.740943 -2.16153 0
M  V30 10302 C 1004.84 -2.82611 -2.04773 0
M  V30 10303 C 1006.19 -3.33592 -2.62681 0
M  V30 10304 O 1007.22 -2.83989 -2.15008 0
M  V30 10305 O 1006.08 -4.20081 -3.49563 0
M  V30 10306 H 1003.17 -0.612367 -0.55582 0
M  V30 10307 H 1005.72 -1.62948 -0.473914 0
M  V30 10308 H 1004.49 -3.65098 -1.40781 0
M  V30 10309 H 1004.11 -2.75286 -2.86886 0
M  V30 10310 N 1005.11 0.71652 -1.4037 0
M  V30 10311 C 1006.04 1.84345 -1.43315 0
M  V30 10312 C 1007.02 1.67537 -0.294186 0
M  V30 10313 O 1008.2 1.87582 -0.502671 0
M  V30 10314 C 1005.33 3.2229 -1.29408 0
M  V30 10315 C 1004.29 3.53769 -2.40897 0
M  V30 10316 C 1003.61 4.90847 -2.12068 0
M  V30 10317 C 1004.91 3.54862 -3.83237 0
M  V30 10318 H 1006.61 1.82138 -2.37626 0
M  V30 10319 H 1004.15 0.874873 -1.14376 0
M  V30 10320 H 1006.11 4.00819 -1.30085 0
M  V30 10321 H 1004.83 3.2507 -0.31573 0
M  V30 10322 H 1003.49 2.77579 -2.39469 0
M  V30 10323 H 1003.14 4.90229 -1.12626 0
M  V30 10324 H 1002.84 5.12875 -2.86762 0
M  V30 10325 H 1004.36 5.71711 -2.14426 0
M  V30 10326 H 1005.78 4.23432 -3.86494 0
M  V30 10327 H 1004.17 3.88416 -4.57442 0
M  V30 10328 H 1005.24 2.54266 -4.12888 0
M  V30 10329 N 1006.59 1.25851 0.948643 0
M  V30 10330 C 1007.81 1.13711 1.72851 0
M  V30 10331 C 1008.23 -0.308471 1.86263 0
M  V30 10332 O 1007.59 -1.21175 1.36465 0
M  V30 10333 C 1007.64 1.79271 3.13918 0
M  V30 10334 O 1007.36 3.18179 3.01154 0
M  V30 10335 C 1008.86 1.72988 4.08154 0
M  V30 10336 H 1006.08 0.396334 0.541443 0
M  V30 10337 H 1008.62 1.66329 1.18974 0
M  V30 10338 H 1006.78 1.30609 3.64719 0
M  V30 10339 H 1007.19 3.50507 3.90186 0
M  V30 10340 H 1008.67 2.2351 5.04725 0
M  V30 10341 H 1009.14 0.694866 4.33668 0
M  V30 10342 H 1009.75 2.21166 3.63271 0
M  V30 10343 N 1008.06 -1.15214 1.07534 0
M  V30 10344 C 1008.99 -2.2216 0.718837 0
M  V30 10345 C 1009.98 -1.6753 -0.29459 0
M  V30 10346 O 1011.16 -1.93481 -0.166931 0
M  V30 10347 C 1008.29 -3.471 0.117836 0
M  V30 10348 C 1007.24 -4.14701 1.05862 0
M  V30 10349 C 1006.57 -5.3374 0.320284 0
M  V30 10350 C 1007.87 -4.64254 2.39302 0
M  V30 10351 H 1009.56 -2.52237 1.61297 0
M  V30 10352 H 1007.11 -1.21239 0.776992 0
M  V30 10353 H 1009.06 -4.21156 -0.143519 0
M  V30 10354 H 1007.79 -3.16361 -0.811389 0
M  V30 10355 H 1006.45 -3.42589 1.30493 0
M  V30 10356 H 1006.09 -4.99257 -0.61246 0
M  V30 10357 H 1005.79 -5.79912 0.947381 0
M  V30 10358 H 1007.32 -6.10563 0.0667721 0
M  V30 10359 H 1008.73 -5.29827 2.18988 0
M  V30 10360 H 1007.13 -5.21095 2.97623 0
M  V30 10361 H 1008.2 -3.79793 3.01472 0
M  V30 10362 N 1009.54 -0.859717 -1.32086 0
M  V30 10363 C 1010.77 -0.478865 -2.01796 0
M  V30 10364 C 1011.19 0.918274 -1.64163 0
M  V30 10365 O 1010.55 1.60409 -0.844896 0
M  V30 10366 C 1010.6 -0.631356 -3.5503 0
M  V30 10367 O 1009.7 0.333712 -4.11048 0
M  V30 10368 H 1009.04 -0.191775 -0.635703 0
M  V30 10369 H 1011.57 -1.16031 -1.68517 0
M  V30 10370 H 1011.58 -0.520783 -4.04663 0
M  V30 10371 H 1010.26 -1.65015 -3.81763 0
M  V30 10372 H 1008.84 0.178953 -3.7247 0
M  V30 10373 N 1011.02 1.44971 -0.618145 0
M  V30 10374 C 1012.44 1.57077 -0.282666 0
M  V30 10375 C 1012.64 1.60782 1.21456 0
M  V30 10376 O 1011.69 1.54382 1.99806 0
M  V30 10377 C 1013.01 2.84858 -0.963148 0
M  V30 10378 C 1014.55 2.9855 -0.940062 0
M  V30 10379 C 1015.03 4.29115 -1.60076 0
M  V30 10380 N 1016.52 4.35899 -1.56674 0
M  V30 10381 C 1017.25 5.35617 -2.04701 0
M  V30 10382 N 1016.75 6.41813 -2.6086 0
M  V30 10383 N 1018.54 5.27042 -1.95406 0
M  V30 10384 H 1010.69 1.4081 -1.59017 0
M  V30 10385 H 1012.96 0.673914 -0.666741 0
M  V30 10386 H 1012.66 2.88059 -2.0178 0
M  V30 10387 H 1012.54 3.73966 -0.492901 0
M  V30 10388 H 1014.92 2.94909 0.10607 0
M  V30 10389 H 1015.01 2.10825 -1.44868 0
M  V30 10390 H 1014.65 4.33514 -2.64627 0
M  V30 10391 H 1014.58 5.15675 -1.06708 0
M  V30 10392 H 1017.07 3.59766 -1.15659 0
M  V30 10393 H 1017.38 7.14166 -2.95273 0
M  V30 10394 H 1015.73 6.42534 -2.64905 0
M  V30 10395 H 1018.92 4.42987 -1.51263 0
M  V30 10396 H 1019.09 6.04604 -2.33147 0
M  V30 10397 N 1012.5 0.357919 1.53482 0
M  V30 10398 C 1013.72 -0.237769 2.06033 0
M  V30 10399 C 1014.15 -1.42292 1.23023 0
M  V30 10400 O 1013.51 -1.79604 0.247427 0
M  V30 10401 C 1013.55 -0.616806 3.55286 0
M  V30 10402 O 1012.66 -1.71503 3.75047 0
M  V30 10403 H 1012 -0.0364322 0.663 0
M  V30 10404 H 1014.53 0.516301 1.97979 0
M  V30 10405 H 1014.54 -0.88996 3.98175 0
M  V30 10406 H 1013.21 0.249825 4.15149 0
M  V30 10407 H 1011.79 -1.43803 3.44057 0
M  V30 10408 N 1013.98 -1.5736 0.0868897 0
M  V30 10409 C 1014.91 -2.16596 -0.872252 0
M  V30 10410 C 1015.89 -1.09706 -1.29995 0
M  V30 10411 O 1017.07 -1.37808 -1.36831 0
M  V30 10412 C 1014.2 -2.73972 -2.1344 0
M  V30 10413 C 1013.16 -3.86163 -1.8456 0
M  V30 10414 C 1012.48 -4.30206 -3.17533 0
M  V30 10415 C 1013.78 -5.0973 -1.13899 0
M  V30 10416 H 1015.48 -2.96995 -0.378738 0
M  V30 10417 H 1013.02 -1.42861 -0.18073 0
M  V30 10418 H 1014.98 -3.14062 -2.80968 0
M  V30 10419 H 1013.7 -1.90817 -2.6506 0
M  V30 10420 H 1012.36 -3.466 -1.19432 0
M  V30 10421 H 1012.01 -3.43951 -3.67024 0
M  V30 10422 H 1011.71 -5.05841 -2.98996 0
M  V30 10423 H 1013.23 -4.72922 -3.86234 0
M  V30 10424 H 1014.64 -5.4704 -1.71523 0
M  V30 10425 H 1013.04 -5.90741 -1.05569 0
M  V30 10426 H 1014.11 -4.8475 -0.120432 0
M  V30 10427 N 1015.45 0.186762 -1.56489 0
M  V30 10428 C 1016.7 0.904063 -1.80752 0
M  V30 10429 C 1017.02 1.83443 -0.661343 0
M  V30 10430 O 1016.29 1.93272 0.319811 0
M  V30 10431 H 1014.87 0.336828 -0.66675 0
M  V30 10432 H 1017.54 0.190275 -1.93969 0
M  V30 10433 H 1016.63 1.49021 -2.74225 0
M  V30 10434 N 1016.93 1.50896 0.454776 0
M  V30 10435 C 1017.86 1.73885 1.5584 0
M  V30 10436 C 1018.84 0.588172 1.59607 0
M  V30 10437 O 1020.03 0.829054 1.75614 0
M  V30 10438 C 1017.16 1.84796 2.94054 0
M  V30 10439 C 1016.11 3.00111 3.05152 0
M  V30 10440 C 1015.44 2.96183 4.45174 0
M  V30 10441 C 1016.74 4.40365 2.80849 0
M  V30 10442 H 1018.43 2.66292 1.36854 0
M  V30 10443 H 1015.98 1.28142 0.656936 0
M  V30 10444 H 1017.93 1.99462 3.71204 0
M  V30 10445 H 1016.66 0.890235 3.14233 0
M  V30 10446 H 1015.31 2.85121 2.30438 0
M  V30 10447 H 1014.96 1.98224 4.62295 0
M  V30 10448 H 1014.66 3.73608 4.53532 0
M  V30 10449 H 1016.19 3.1292 5.24322 0
M  V30 10450 H 1017.6 4.55795 3.47741 0
M  V30 10451 H 1016 5.19363 3.00636 0
M  V30 10452 H 1017.07 4.51606 1.76579 0
M  V30 10453 N 1018.41 -0.709066 1.40748 0
M  V30 10454 C 1019.66 -1.46611 1.39103 0
M  V30 10455 C 1019.98 -1.95 -0.00365366 0
M  V30 10456 O 1019.25 -1.70791 -0.959541 0
M  V30 10457 H 1017.83 -0.543954 0.511979 0
M  V30 10458 H 1020.49 -0.840141 1.75863 0
M  V30 10459 H 1019.59 -2.33581 2.06994 0
M  V30 10460 N 1019.89 -1.26353 -0.941956 0
M  V30 10461 C 1021.14 -1.1163 -1.68473 0
M  V30 10462 C 1021.46 0.34108 -1.91994 0
M  V30 10463 O 1020.73 1.24065 -1.51607 0
M  V30 10464 H 1019.31 -0.410113 -0.624353 0
M  V30 10465 H 1021.97 -1.58669 -1.13182 0
M  V30 10466 H 1021.07 -1.63445 -2.6588 0
M  V30 10467 N 1021.37 1.14642 -1.08144 0
M  V30 10468 C 1022.78 1.37604 -0.808537 0
M  V30 10469 C 1022.98 1.92868 0.583452 0
M  V30 10470 O 1022.04 2.13964 1.34073 0
M  V30 10471 C 1023.35 2.3396 -1.889 0
M  V30 10472 C 1024.9 2.47605 -1.9147 0
M  V30 10473 C 1025.38 3.47258 -2.98623 0
M  V30 10474 N 1026.87 3.548 -2.97777 0
M  V30 10475 C 1027.6 4.31751 -3.77331 0
M  V30 10476 N 1027.1 5.11966 -4.66757 0
M  V30 10477 N 1028.89 4.2692 -3.65645 0
M  V30 10478 H 1021.04 0.771154 -1.97906 0
M  V30 10479 H 1023.3 0.401694 -0.858688 0
M  V30 10480 H 1023.01 2.00484 -2.88962 0
M  V30 10481 H 1022.88 3.33833 -1.756 0
M  V30 10482 H 1025.27 2.80375 -0.920548 0
M  V30 10483 H 1025.35 1.47702 -2.08848 0
M  V30 10484 H 1025 3.15223 -3.98243 0
M  V30 10485 H 1024.93 4.46935 -2.7849 0
M  V30 10486 H 1027.42 2.97553 -2.3296 0
M  V30 10487 H 1027.73 5.67951 -5.24072 0
M  V30 10488 H 1026.08 5.11245 -4.70801 0
M  V30 10489 H 1029.27 3.63322 -2.95152 0
M  V30 10490 H 1029.44 4.8664 -4.27885 0
M  V30 10491 N 1022.85 0.866709 1.31628 0
M  V30 10492 C 1024.07 0.48956 2.01539 0
M  V30 10493 C 1024.5 -0.909556 1.64647 0
M  V30 10494 O 1023.85 -1.59959 0.853391 0
M  V30 10495 C 1023.9 0.650176 3.5469 0
M  V30 10496 O 1023.01 -0.311908 4.11219 0
M  V30 10497 H 1022.35 0.195144 0.634677 0
M  V30 10498 H 1024.88 1.16923 1.679 0
M  V30 10499 H 1024.89 0.542236 4.04381 0
M  V30 10500 H 1023.56 1.67038 3.80882 0
M  V30 10501 H 1022.14 -0.159197 3.7256 0
M  V30 10502 N 1024.32 -1.44642 0.625825 0
M  V30 10503 C 1025.29 -2.29085 -0.072526 0
M  V30 10504 C 1026.29 -1.40755 -0.777467 0
M  V30 10505 O 1027.48 -1.62684 -0.622861 0
M  V30 10506 C 1024.61 -3.22212 -1.1132 0
M  V30 10507 H 1025.8 -2.92317 0.670124 0
M  V30 10508 H 1023.35 -1.51466 0.38571 0
M  V30 10509 H 1024.09 -2.63819 -1.88601 0
M  V30 10510 H 1023.87 -3.87299 -0.611709 0
M  V30 10511 H 1025.36 -3.8566 -1.60175 0
M  V30 10512 N 1025.8 -0.366053 -1.5329 0
M  V30 10513 C 1027.05 0.224614 -2.00445 0
M  V30 10514 C 1027.36 1.49829 -1.2574 0
M  V30 10515 O 1028.57 2.16759 -1.63487 0
M  V30 10516 C 1027.03 0.450818 -3.57065 0
M  V30 10517 C 1026.63 -0.808257 -4.40649 0
M  V30 10518 C 1028.38 0.999116 -4.12575 0
M  V30 10519 C 1026.28 -0.551612 -5.88822 0
M  V30 10520 H 1025.21 0.0877114 -0.748881 0
M  V30 10521 H 1027.87 -0.484866 -1.76978 0
M  V30 10522 H 1026.25 1.22157 -3.76688 0
M  V30 10523 H 1027.42 -1.58184 -4.32798 0
M  V30 10524 H 1025.74 -1.27981 -3.96245 0
M  V30 10525 H 1028.33 1.20646 -5.20911 0
M  V30 10526 H 1028.68 1.96139 -3.67199 0
M  V30 10527 H 1029.21 0.288518 -3.96752 0
M  V30 10528 H 1025.95 -1.48423 -6.38475 0
M  V30 10529 H 1025.47 0.183462 -5.99519 0
M  V30 10530 H 1027.15 -0.177307 -6.46757 0
M  V30 10531 N 1027.28 1.57312 -0.0952337 0
M  V30 10532 C 1028.19 2.17556 0.877877 0
M  V30 10533 C 1029.21 1.14505 1.31014 0
M  V30 10534 O 1030.38 1.46876 1.37802 0
M  V30 10535 C 1027.45 2.74413 2.11892 0
M  V30 10536 C 1026.51 3.92419 1.74085 0
M  V30 10537 C 1025.74 4.46556 2.92273 0
M  V30 10538 O 1025.96 3.99631 4.07002 0
M  V30 10539 O 1024.9 5.37576 2.70732 0
M  V30 10540 H 1028.72 3.01116 0.395312 0
M  V30 10541 H 1026.31 1.48841 0.129123 0
M  V30 10542 H 1028.19 3.10754 2.84622 0
M  V30 10543 H 1026.87 1.93899 2.59201 0
M  V30 10544 H 1025.77 3.6089 0.985346 0
M  V30 10545 H 1027.11 4.74298 1.31539 0
M  V30 10546 N 1028.76 -0.17846 1.56586 0
M  V30 10547 C 1029.69 -1.24547 1.92408 0
M  V30 10548 C 1030.7 -1.40849 0.816421 0
M  V30 10549 O 1031.89 -1.40979 1.09486 0
M  V30 10550 C 1028.99 -2.61523 2.15544 0
M  V30 10551 C 1028.16 -2.66613 3.46751 0
M  V30 10552 C 1027.22 -3.84901 3.588 0
M  V30 10553 O 1026.25 -3.71231 4.31482 0
M  V30 10554 N 1027.45 -5.0106 2.9312 0
M  V30 10555 H 1030.22 -0.941275 2.84535 0
M  V30 10556 H 1027.78 -0.368275 1.57656 0
M  V30 10557 H 1029.77 -3.3911 2.20876 0
M  V30 10558 H 1028.34 -2.84362 1.29835 0
M  V30 10559 H 1027.56 -1.75174 3.5314 0
M  V30 10560 H 1028.85 -2.67018 4.33104 0
M  V30 10561 H 1028.25 -5.15067 2.33928 0
M  V30 10562 H 1026.8 -5.76535 3.04057 0
M  V30 10563 N 1030.24 -1.51135 -0.446768 0
M  V30 10564 C 1031.65 -1.39101 -0.782504 0
M  V30 10565 C 1031.85 -0.46599 -1.96038 0
M  V30 10566 O 1030.91 0.0823679 -2.52366 0
M  V30 10567 C 1032.22 -2.80953 -1.07173 0
M  V30 10568 C 1033.77 -2.90038 -1.17673 0
M  V30 10569 C 1034.24 -4.32777 -1.49894 0
M  V30 10570 N 1035.73 -4.3584 -1.56837 0
M  V30 10571 C 1036.47 -5.43305 -1.83322 0
M  V30 10572 N 1035.97 -6.60945 -2.07662 0
M  V30 10573 N 1037.76 -5.30775 -1.85026 0
M  V30 10574 H 1029.91 -2.09835 0.329114 0
M  V30 10575 H 1032.17 -0.944199 0.0848054 0
M  V30 10576 H 1031.88 -3.50591 -0.279037 0
M  V30 10577 H 1031.75 -3.197 -2.00179 0
M  V30 10578 H 1034.14 -2.20603 -1.96005 0
M  V30 10579 H 1034.22 -2.54801 -0.225892 0
M  V30 10580 H 1033.86 -5.02757 -0.720924 0
M  V30 10581 H 1033.79 -4.6552 -2.46168 0
M  V30 10582 H 1036.29 -3.51023 -1.39968 0
M  V30 10583 H 1036.6 -7.38643 -2.27214 0
M  V30 10584 H 1034.94 -6.64077 -2.05003 0
M  V30 10585 H 1038.13 -4.37858 -1.65523 0
M  V30 10586 H 1038.31 -6.14609 -2.05329 0
M  V30 10587 N 1031.71 0.701592 -1.41122 0
M  V30 10588 C 1032.94 1.49553 -1.43696 0
M  V30 10589 C 1033.36 1.88053 -0.0421865 0
M  V30 10590 O 1032.72 1.54223 0.953144 0
M  V30 10591 C 1032.77 2.73834 -2.34622 0
M  V30 10592 O 1031.87 3.71088 -1.7991 0
M  V30 10593 H 1031.21 0.450352 -0.487933 0
M  V30 10594 H 1033.74 0.862886 -1.85514 0
M  V30 10595 H 1033.75 3.22209 -2.5029 0
M  V30 10596 H 1032.43 2.45149 -3.35969 0
M  V30 10597 H 1031.01 3.29994 -1.73661 0
M  V30 10598 N 1033.19 1.2685 0.935242 0
M  V30 10599 C 1034.12 1.03244 2.03509 0
M  V30 10600 C 1035.1 -0.0447323 1.62538 0
M  V30 10601 O 1036.29 0.0988905 1.8824 0
M  V30 10602 C 1033.41 0.564626 3.33961 0
M  V30 10603 C 1032.46 1.63524 3.93906 0
M  V30 10604 S 1033.29 3.22577 4.27439 0
M  V30 10605 C 1034.45 2.77579 5.60982 0
M  V30 10606 H 1034.68 1.96367 2.2322 0
M  V30 10607 H 1032.21 1.10597 1.07739 0
M  V30 10608 H 1034.17 0.301388 4.09392 0
M  V30 10609 H 1032.83 -0.346419 3.12184 0
M  V30 10610 H 1032.03 1.25905 4.8802 0
M  V30 10611 H 1031.63 1.85017 3.25031 0
M  V30 10612 H 1033.92 2.22412 6.39952 0
M  V30 10613 H 1034.86 3.70408 6.03493 0
M  V30 10614 H 1035.27 2.16956 5.21143 0
M  V30 10615 N 1034.67 -1.14067 1.0875 0
M  V30 10616 C 1035.9 -1.89582 0.841038 0
M  V30 10617 C 1036.32 -1.78226 -0.601436 0
M  V30 10618 O 1035.68 -1.12491 -1.42181 0
M  V30 10619 C 1035.73 -3.37415 1.27213 0
M  V30 10620 O 1034.83 -4.10191 0.426246 0
M  V30 10621 H 1034.17 -0.589716 0.305173 0
M  V30 10622 H 1036.7 -1.44364 1.44984 0
M  V30 10623 H 1036.71 -3.88234 1.25451 0
M  V30 10624 H 1035.39 -3.44999 2.32268 0
M  V30 10625 H 1033.96 -3.69429 0.507585 0
M  V30 10626 N 1036.15 -0.873678 -1.31166 0
M  V30 10627 C 1037.4 -0.482577 -1.95842 0
M  V30 10628 C 1037.71 0.970881 -1.69804 0
M  V30 10629 O 1038.92 1.4683 -2.28371 0
M  V30 10630 C 1037.37 -0.812074 -3.50619 0
M  V30 10631 C 1036.98 -2.28254 -3.85492 0
M  V30 10632 C 1038.72 -0.489624 -4.21667 0
M  V30 10633 C 1036.63 -2.55426 -5.33396 0
M  V30 10634 H 1035.56 -0.176736 -0.732994 0
M  V30 10635 H 1038.21 -1.06709 -1.49283 0
M  V30 10636 H 1036.59 -0.156769 -3.9569 0
M  V30 10637 H 1037.77 -2.98122 -3.51369 0
M  V30 10638 H 1036.08 -2.5714 -3.27518 0
M  V30 10639 H 1038.68 -0.669811 -5.30488 0
M  V30 10640 H 1039.02 0.570204 -4.12376 0
M  V30 10641 H 1039.56 -1.10163 -3.82242 0
M  V30 10642 H 1036.3 -3.60106 -5.47726 0
M  V30 10643 H 1035.82 -1.90156 -5.68859 0
M  V30 10644 H 1037.49 -2.40345 -6.00702 0
M  V30 10645 N 1037.63 1.44308 -0.633487 0
M  V30 10646 C 1038.57 2.32455 0.0821956 0
M  V30 10647 C 1039.57 1.47482 0.833388 0
M  V30 10648 O 1040.77 1.63812 0.746021 0
M  V30 10649 H 1037.15 0.750631 0.045352 0
M  V30 10650 H 1039.12 2.90566 -0.679282 0
M  V30 10651 C 1037.87 3.31512 1.04858 0
M  V30 10652 H 1037.19 3.96908 0.479979 0
M  V30 10653 H 1038.63 3.95865 1.51879 0
M  V30 10654 C 1037.09 2.60615 2.13498 0
M  V30 10655 O 1037.62 2.40682 3.21613 0
M  V30 10656 N 1035.83 2.20315 1.89499 0
M  V30 10657 H 1035.37 2.36726 1.01581 0
M  V30 10658 H 1035.33 1.73205 2.62388 0
M  V30 10659 N 1039.1 0.374177 1.53094 0
M  V30 10660 C 1040.03 -0.459976 2.28925 0
M  V30 10661 C 1041.02 -1.07656 1.31698 0
M  V30 10662 O 1042.2 -1.09219 1.60577 0
M  V30 10663 C 1039.33 -1.5954 3.08487 0
M  V30 10664 C 1038.28 -1.10563 4.13473 0
M  V30 10665 C 1037.61 -2.33196 4.81169 0
M  V30 10666 C 1038.91 -0.184275 5.21975 0
M  V30 10667 H 1040.6 0.172692 2.98902 0
M  V30 10668 H 1038.15 0.0844956 1.43752 0
M  V30 10669 H 1040.1 -2.18565 3.60288 0
M  V30 10670 H 1038.83 -2.25543 2.36216 0
M  V30 10671 H 1037.49 -0.53801 3.62631 0
M  V30 10672 H 1037.13 -2.97675 4.05461 0
M  V30 10673 H 1036.83 -2.01094 5.52119 0
M  V30 10674 H 1038.36 -2.92892 5.35767 0
M  V30 10675 H 1039.77 -0.682262 5.69226 0
M  V30 10676 H 1038.17 0.0462746 6.00082 0
M  V30 10677 H 1039.24 0.771152 4.78729 0
M  V30 10678 N 1040.58 -1.57259 0.103575 0
M  V30 10679 C 1041.99 -1.81816 -0.424239 0
M  V30 10680 C 1042.34 -1.01976 -1.67617 0
M  V30 10681 O 1041.47 -0.251673 -2.14932 0
M  V30 10682 C 1042.06 -3.29783 -0.776453 0
M  V30 10683 C 1040.62 -3.55074 -1.24897 0
M  V30 10684 C 1039.77 -2.76172 -0.249875 0
M  V30 10685 H 1042.72 -1.55254 0.328913 0
M  V30 10686 H 1042.74 -3.43569 -1.63526 0
M  V30 10687 H 1042.25 -3.87865 0.134906 0
M  V30 10688 H 1040.36 -3.02332 -2.17775 0
M  V30 10689 H 1040.47 -4.637 -1.20495 0
M  V30 10690 H 1038.83 -2.43902 -0.733767 0
M  V30 10691 H 1039.62 -3.37007 0.65431 0
M  V30 10692 N 1042.06 0.170153 -1.56679 0
M  V30 10693 C 1042.99 1.23945 -1.91606 0
M  V30 10694 C 1043.97 1.42725 -0.779004 0
M  V30 10695 O 1045.16 1.57712 -1.03243 0
M  V30 10696 C 1042.28 2.60222 -2.168 0
M  V30 10697 C 1041.33 2.58172 -3.39484 0
M  V30 10698 S 1042.16 2.0714 -4.93815 0
M  V30 10699 C 1043.32 3.45192 -5.22105 0
M  V30 10700 H 1043.55 0.941345 -2.82004 0
M  V30 10701 H 1041.08 0.374771 -1.49783 0
M  V30 10702 H 1043.04 3.38656 -2.31996 0
M  V30 10703 H 1041.7 2.87232 -1.27107 0
M  V30 10704 H 1040.9 3.58435 -3.54317 0
M  V30 10705 H 1040.5 1.87834 -3.2341 0
M  V30 10706 H 1042.79 4.41194 -5.14154 0
M  V30 10707 H 1043.73 3.35233 -6.23718 0
M  V30 10708 H 1044.14 3.41257 -4.49671 0
M  V30 10709 N 1043.54 1.5137 0.438746 0
M  V30 10710 C 1044.76 1.68058 1.21537 0
M  V30 10711 C 1045.19 0.376787 1.84288 0
M  V30 10712 O 1044.55 -0.662911 1.68746 0
M  V30 10713 C 1044.59 2.79684 2.27616 0
M  V30 10714 O 1043.7 2.43189 3.33066 0
M  V30 10715 H 1043.04 0.560408 0.356144 0
M  V30 10716 H 1045.57 1.97926 0.518311 0
M  V30 10717 H 1045.58 3.03726 2.72423 0
M  V30 10718 H 1044.25 3.74293 1.81321 0
M  V30 10719 H 1042.83 2.29713 2.93746 0
M  V30 10720 N 1045.02 -0.694098 1.41492 0
M  V30 10721 C 1046.26 -1.46637 1.42398 0
M  V30 10722 C 1046.62 -1.91973 0.0321256 0
M  V30 10723 O 1047.82 -2.68669 -0.0840324 0
M  V30 10724 C 1046.09 -2.64474 2.40392 0
M  V30 10725 S 1047.65 -3.53595 2.59838 0
M  V30 10726 H 1044.47 -0.501074 0.504427 0
M  V30 10727 H 1047.07 -0.809761 1.77941 0
M  V30 10728 H 1045.78 -2.29374 3.40317 0
M  V30 10729 H 1045.31 -3.35026 2.06206 0
M  V30 10730 H 1047.32 -4.59741 1.86689 0
M  V30 10731 N 1046.49 -1.27344 -0.928501 0
M  V30 10732 C 1047.42 -1.12517 -2.04602 0
M  V30 10733 C 1048.41 -0.0268563 -1.70079 0
M  V30 10734 O 1049.59 -0.201197 -1.93155 0
M  V30 10735 C 1046.72 -0.770749 -3.3864 0
M  V30 10736 C 1045.67 -1.8222 -3.87272 0
M  V30 10737 C 1045 -1.32178 -5.18105 0
M  V30 10738 C 1046.3 -3.22614 -4.10752 0
M  V30 10739 H 1047.99 -2.06 -2.17265 0
M  V30 10740 H 1045.54 -0.991827 -1.04397 0
M  V30 10741 H 1047.49 -0.653843 -4.16297 0
M  V30 10742 H 1046.22 0.19979 -3.25988 0
M  V30 10743 H 1044.88 -1.928 -3.11807 0
M  V30 10744 H 1044.52 -0.340719 -5.01845 0
M  V30 10745 H 1044.22 -2.02474 -5.51614 0
M  V30 10746 H 1045.75 -1.2178 -5.98333 0
M  V30 10747 H 1047.16 -3.1504 -4.78981 0
M  V30 10748 H 1045.56 -3.90614 -4.55566 0
M  V30 10749 H 1046.63 -3.67727 -3.16077 0
M  V30 10750 N 1047.97 1.13488 -1.09353 0
M  V30 10751 C 1049.25 1.80998 -0.741559 0
M  V30 10752 C 1049.63 1.96418 0.773505 0
M  V30 10753 O 1048.98 1.53168 1.69563 0
M  V30 10754 C 1049.19 3.16078 -1.47972 0
M  V30 10755 C 1050.54 3.91438 -1.64504 0
M  V30 10756 O 1051.56 3.25699 -1.44218 0
M  V30 10757 O 1050.42 5.0935 -1.98054 0
M  V30 10758 H 1047.51 0.782953 -0.266297 0
M  V30 10759 H 1050.06 1.20422 -1.19569 0
M  V30 10760 H 1048.83 3.00076 -2.51137 0
M  V30 10761 H 1048.45 3.84354 -1.01772 0
M  V30 10762 N 1049.45 0.880621 1.30701 0
M  V30 10763 C 1050.68 0.510909 2.01009 0
M  V30 10764 C 1051.1 -0.892041 1.65603 0
M  V30 10765 O 1050.46 -1.59045 0.870309 0
M  V30 10766 C 1050.51 0.687759 3.53981 0
M  V30 10767 O 1049.61 -0.268275 4.11526 0
M  V30 10768 H 1048.95 0.201864 0.632572 0
M  V30 10769 H 1051.48 1.18697 1.6665 0
M  V30 10770 H 1051.49 0.585095 4.03783 0
M  V30 10771 H 1050.17 1.71068 3.79089 0
M  V30 10772 H 1048.74 -0.119673 3.72708 0
M  V30 10773 N 1050.93 -1.4397 0.641131 0
M  V30 10774 C 1052.18 -2.01163 0.147026 0
M  V30 10775 C 1052.49 -1.51099 -1.24211 0
M  V30 10776 O 1053.7 -2.00487 -1.83078 0
M  V30 10777 C 1052.15 -3.59275 0.212068 0
M  V30 10778 C 1051.76 -4.18334 1.60314 0
M  V30 10779 C 1053.51 -4.23903 -0.225057 0
M  V30 10780 C 1051.41 -5.68701 1.62276 0
M  V30 10781 H 1050.34 -0.75226 0.051201 0
M  V30 10782 H 1052.99 -1.65075 0.801396 0
M  V30 10783 H 1051.38 -3.92708 -0.509589 0
M  V30 10784 H 1052.55 -3.96422 2.34918 0
M  V30 10785 H 1050.86 -3.66031 1.9852 0
M  V30 10786 H 1053.46 -5.34205 -0.230074 0
M  V30 10787 H 1053.8 -3.96956 -1.25426 0
M  V30 10788 H 1054.34 -3.95309 0.44444 0
M  V30 10789 H 1051.08 -6.00397 2.63066 0
M  V30 10790 H 1050.6 -5.92705 0.919797 0
M  V30 10791 H 1052.28 -6.32521 1.36112 0
M  V30 10792 N 1052.41 -0.382291 -1.52893 0
M  V30 10793 C 1053.37 0.44408 -2.24857 0
M  V30 10794 C 1054.37 0.996004 -1.26239 0
M  V30 10795 O 1055.56 0.879114 -1.5039 0
M  V30 10796 C 1052.69 1.62234 -2.99822 0
M  V30 10797 H 1053.89 -0.185862 -2.99324 0
M  V30 10798 H 1051.44 -0.134275 -1.55722 0
M  V30 10799 H 1052.17 2.28991 -2.29638 0
M  V30 10800 H 1051.96 1.23336 -3.72197 0
M  V30 10801 H 1053.45 2.20756 -3.54481 0
M  V30 10802 N 1053.89 1.57202 -0.111913 0
M  V30 10803 C 1054.82 2.17957 0.837683 0
M  V30 10804 C 1055.8 1.1176 1.28233 0
M  V30 10805 O 1056.98 1.39967 1.34621 0
M  V30 10806 C 1054.11 2.77333 2.09054 0
M  V30 10807 C 1053.07 3.8905 1.78393 0
M  V30 10808 C 1052.39 4.35203 3.10649 0
M  V30 10809 C 1053.69 5.11477 1.05775 0
M  V30 10810 H 1055.39 2.9756 0.331441 0
M  V30 10811 H 1052.93 1.43131 0.157979 0
M  V30 10812 H 1054.88 3.18492 2.75936 0
M  V30 10813 H 1053.61 1.95009 2.6199 0
M  V30 10814 H 1052.27 3.48456 1.13903 0
M  V30 10815 H 1051.92 3.49747 3.61506 0
M  V30 10816 H 1051.62 5.10534 2.9091 0
M  V30 10817 H 1053.14 4.79007 3.78661 0
M  V30 10818 H 1054.55 5.497 1.62798 0
M  V30 10819 H 1052.95 5.92346 0.961573 0
M  V30 10820 H 1054.02 4.84881 0.043297 0
M  V30 10821 N 1055.36 -0.161842 1.56767 0
M  V30 10822 C 1056.61 -0.875192 1.82167 0
M  V30 10823 C 1056.93 -1.82367 0.690444 0
M  V30 10824 O 1056.2 -1.93756 -0.289023 0
M  V30 10825 H 1054.78 -0.326178 0.672024 0
M  V30 10826 H 1057.44 -0.159392 1.94247 0
M  V30 10827 H 1056.54 -1.44639 2.76561 0
M  V30 10828 N 1056.84 -1.516 -0.430713 0
M  V30 10829 C 1058.09 -1.64596 -1.17959 0
M  V30 10830 C 1058.42 -0.365382 -1.91037 0
M  V30 10831 O 1057.67 0.650826 -1.84561 0
M  V30 10832 C 1057.97 -2.804 -2.21609 0
M  V30 10833 C 1057.64 -4.19431 -1.65495 0
M  V30 10834 C 1056.3 -4.57252 -1.49915 0
M  V30 10835 C 1058.65 -5.0616 -1.24304 0
M  V30 10836 C 1055.98 -5.79501 -0.916276 0
M  V30 10837 C 1058.33 -6.28995 -0.674437 0
M  V30 10838 C 1056.99 -6.65582 -0.505591 0
M  V30 10839 H 1056.26 -0.602301 -0.431642 0
M  V30 10840 H 1058.91 -1.8565 -0.469726 0
M  V30 10841 H 1057.22 -2.53595 -2.98658 0
M  V30 10842 H 1058.91 -2.87654 -2.79385 0
M  V30 10843 H 1055.5 -3.89615 -1.78599 0
M  V30 10844 H 1059.69 -4.77541 -1.35159 0
M  V30 10845 H 1054.94 -6.0649 -0.77328 0
M  V30 10846 H 1059.12 -6.95536 -0.346779 0
M  V30 10847 H 1056.74 -7.60182 -0.0518188 0
M  V30 10848 N 1058.32 0.686584 -1.41858 0
M  V30 10849 C 1059.27 1.82167 -1.4463 0
M  V30 10850 C 1060.26 1.66286 -0.323313 0
M  V30 10851 O 1061.47 1.73038 -0.495773 0
M  V30 10852 H 1057.84 0.600454 -0.452724 0
M  V30 10853 H 1059.81 1.76947 -2.40276 0
M  V30 10854 C 1058.56 3.20248 -1.35412 0
M  V30 10855 H 1057.89 3.33089 -2.21115 0
M  V30 10856 H 1059.33 3.99723 -1.41413 0
M  V30 10857 C 1057.78 3.36832 -0.0674972 0
M  V30 10858 O 1058.31 3.91845 0.884325 0
M  V30 10859 N 1056.52 2.90598 0.011519 0
M  V30 10860 H 1056.07 2.46016 -0.76381 0
M  V30 10861 H 1056.03 3.02072 0.871774 0
M  V30 10862 N 1059.8 1.27835 0.921735 0
M  V30 10863 C 1061.04 1.14523 1.67005 0
M  V30 10864 C 1061.37 -0.307776 1.92049 0
M  V30 10865 O 1060.63 -1.24103 1.51317 0
M  V30 10866 C 1060.93 1.88054 3.03925 0
M  V30 10867 C 1060.59 3.37886 2.9857 0
M  V30 10868 C 1059.25 3.78752 2.96817 0
M  V30 10869 C 1061.61 4.33462 2.89414 0
M  V30 10870 C 1058.93 5.13549 2.83698 0
M  V30 10871 C 1061.29 5.68322 2.77836 0
M  V30 10872 C 1059.95 6.08475 2.74436 0
M  V30 10873 H 1059.22 0.419068 0.611116 0
M  V30 10874 H 1061.87 1.58515 1.07449 0
M  V30 10875 H 1060.17 1.36587 3.67221 0
M  V30 10876 H 1061.87 1.75176 3.60714 0
M  V30 10877 H 1058.46 3.05389 3.00725 0
M  V30 10878 H 1062.64 4.02857 2.89862 0
M  V30 10879 H 1057.9 5.43796 2.79456 0
M  V30 10880 H 1062.07 6.42048 2.69717 0
M  V30 10881 H 1059.7 7.12877 2.64027 0
M  V30 10882 N 1061.28 -1.12907 1.09954 0
M  V30 10883 C 1062.52 -1.83941 0.837255 0
M  V30 10884 C 1062.84 -1.84234 -0.638984 0
M  V30 10885 O 1062.11 -1.30193 -1.46378 0
M  V30 10886 H 1060.69 -0.681115 0.306743 0
M  V30 10887 H 1063.36 -1.36743 1.38879 0
M  V30 10888 H 1062.45 -2.88289 1.19565 0
M  V30 10889 N 1062.75 -0.88754 -1.30232 0
M  V30 10890 C 1064.17 -0.581904 -1.48614 0
M  V30 10891 C 1064.37 0.879711 -1.81282 0
M  V30 10892 O 1063.43 1.66076 -1.90198 0
M  V30 10893 C 1064.74 -1.49726 -2.60773 0
M  V30 10894 C 1066.29 -1.50117 -2.74653 0
M  V30 10895 C 1066.76 -2.40251 -3.89927 0
M  V30 10896 N 1068.25 -2.38229 -3.97242 0
M  V30 10897 C 1068.99 -3.04682 -4.85754 0
M  V30 10898 N 1068.48 -3.80369 -5.79043 0
M  V30 10899 N 1070.28 -2.93901 -4.79144 0
M  V30 10900 H 1062.43 -1.83304 -1.073 0
M  V30 10901 H 1064.69 -0.78477 -0.531826 0
M  V30 10902 H 1064.4 -2.5381 -2.43462 0
M  V30 10903 H 1064.27 -1.20874 -3.57308 0
M  V30 10904 H 1066.66 -0.467832 -2.91368 0
M  V30 10905 H 1066.74 -1.83001 -1.7873 0
M  V30 10906 H 1066.38 -3.43671 -3.73969 0
M  V30 10907 H 1066.31 -2.04682 -4.85194 0
M  V30 10908 H 1068.8 -1.83229 -3.30508 0
M  V30 10909 H 1069.12 -4.28159 -6.4335 0
M  V30 10910 H 1067.46 -3.84477 -5.78967 0
M  V30 10911 H 1070.65 -2.34296 -4.05245 0
M  V30 10912 H 1070.83 -3.45967 -5.47915 0
M  V30 10913 N 1064.23 1.43628 -0.648757 0
M  V30 10914 C 1065.48 2.01465 -0.16002 0
M  V30 10915 C 1065.8 1.51413 1.22878 0
M  V30 10916 O 1065.07 0.724919 1.81994 0
M  V30 10917 H 1063.65 0.744885 -0.0561672 0
M  V30 10918 H 1066.31 1.75897 -0.839422 0
M  V30 10919 H 1065.41 3.1178 -0.141213 0
M  V30 10920 N 1065.71 0.390394 1.52688 0
M  V30 10921 C 1066.66 -0.461191 2.23287 0
M  V30 10922 C 1067.64 -1.02875 1.23716 0
M  V30 10923 O 1068.84 -0.954675 1.49047 0
M  V30 10924 C 1065.97 -1.58736 3.04397 0
M  V30 10925 C 1065.05 -1.03149 4.11365 0
M  V30 10926 N 1065.44 -0.20066 5.05402 0
M  V30 10927 C 1063.74 -1.30388 4.26515 0
M  V30 10928 C 1064.44 0.106548 5.81602 0
M  V30 10929 N 1063.42 -0.497687 5.41317 0
M  V30 10930 H 1067.22 0.1801 2.93348 0
M  V30 10931 H 1064.73 0.199761 1.61167 0
M  V30 10932 H 1066.73 -2.20986 3.53512 0
M  V30 10933 H 1065.39 -2.23147 2.35872 0
M  V30 10934 H 1066.4 0.162168 5.17646 0
M  V30 10935 H 1063.08 -1.94894 3.69219 0
M  V30 10936 H 1064.47 0.779778 6.6736 0
M  V30 10937 N 1067.19 -1.57141 0.120249 0
M  V30 10938 C 1068.47 -1.8677 -0.581075 0
M  V30 10939 C 1068.85 -1.02163 -1.84732 0
M  V30 10940 O 1068.19 -0.100897 -2.28277 0
M  V30 10941 C 1068.4 -3.37923 -0.872316 0
M  V30 10942 C 1069.75 -4.0655 -1.22483 0
M  V30 10943 O 1070.78 -3.42948 -0.962539 0
M  V30 10944 O 1069.63 -5.18821 -1.71717 0
M  V30 10945 H 1066.73 -0.773219 -0.293362 0
M  V30 10946 H 1069.27 -1.68992 0.154846 0
M  V30 10947 H 1068.05 -3.91292 0.0249416 0
M  V30 10948 H 1067.67 -3.61135 -1.66335 0
M  V30 10949 N 1068.67 0.153526 -1.5685 0
M  V30 10950 C 1069.6 1.19162 -2.00805 0
M  V30 10951 C 1070.58 1.45172 -0.886518 0
M  V30 10952 O 1071.76 1.56203 -1.15387 0
M  V30 10953 C 1068.89 2.52637 -2.38311 0
M  V30 10954 C 1067.85 2.41161 -3.53589 0
M  V30 10955 C 1067.17 3.79287 -3.76889 0
M  V30 10956 C 1068.47 1.90122 -4.86468 0
M  V30 10957 H 1070.17 0.82617 -2.87776 0
M  V30 10958 H 1067.71 0.395972 -1.38449 0
M  V30 10959 H 1069.67 3.25478 -2.6766 0
M  V30 10960 H 1068.39 2.91005 -1.4827 0
M  V30 10961 H 1067.05 1.70772 -3.24395 0
M  V30 10962 H 1066.7 4.15079 -2.84109 0
M  V30 10963 H 1066.4 3.72472 -4.54465 0
M  V30 10964 H 1067.92 4.53687 -4.08657 0
M  V30 10965 H 1069.33 2.52752 -5.14577 0
M  V30 10966 H 1067.73 1.94214 -5.67804 0
M  V30 10967 H 1068.8 0.856517 -4.77275 0
M  V30 10968 N 1070.14 1.51827 0.422667 0
M  V30 10969 C 1071.37 1.69337 1.19748 0
M  V30 10970 C 1071.79 0.396312 1.83878 0
M  V30 10971 O 1071.15 -0.644976 1.6944 0
M  V30 10972 C 1071.2 2.82082 2.24637 0
M  V30 10973 O 1070.3 2.46708 3.30468 0
M  V30 10974 H 1069.65 0.564154 0.35018 0
M  V30 10975 H 1072.18 1.98465 0.497289 0
M  V30 10976 H 1072.19 3.06599 2.69186 0
M  V30 10977 H 1070.86 3.76195 1.77341 0
M  V30 10978 H 1069.44 2.32815 2.91293 0
M  V30 10979 N 1071.62 -0.679052 1.4222 0
M  V30 10980 C 1073.03 -1.25953 1.37815 0
M  V30 10981 C 1073.38 -1.96077 0.0693215 0
M  V30 10982 O 1072.51 -1.99765 -0.832047 0
M  V30 10983 C 1073.1 -2.29063 2.49631 0
M  V30 10984 C 1071.66 -2.82647 2.48571 0
M  V30 10985 C 1070.81 -1.56909 2.28637 0
M  V30 10986 H 1073.76 -0.472714 1.51496 0
M  V30 10987 H 1073.78 -3.10708 2.19638 0
M  V30 10988 H 1073.29 -1.77996 3.44876 0
M  V30 10989 H 1071.4 -3.37846 1.57132 0
M  V30 10990 H 1071.51 -3.31952 3.45463 0
M  V30 10991 H 1069.87 -1.83323 1.76819 0
M  V30 10992 H 1070.66 -1.07814 3.25931 0
M  V30 10993 N 1073.1 -1.28322 -0.914942 0
M  V30 10994 C 1074.03 -1.14681 -2.03398 0
M  V30 10995 C 1075.01 -0.0448939 -1.70041 0
M  V30 10996 O 1076.2 -0.221672 -1.92931 0
M  V30 10997 C 1073.33 -0.806623 -3.37803 0
M  V30 10998 C 1072.28 -1.86318 -3.85318 0
M  V30 10999 C 1071.61 -1.37665 -5.16674 0
M  V30 11000 C 1072.91 -3.26953 -4.07307 0
M  V30 11001 H 1074.6 -2.08293 -2.15068 0
M  V30 11002 H 1072.15 -1.00284 -1.03339 0
M  V30 11003 H 1074.1 -0.69796 -4.1558 0
M  V30 11004 H 1072.82 0.165203 -3.26182 0
M  V30 11005 H 1071.48 -1.96096 -3.09745 0
M  V30 11006 H 1071.13 -0.393927 -5.01455 0
M  V30 11007 H 1070.83 -2.08313 -5.49435 0
M  V30 11008 H 1072.35 -1.28119 -5.97007 0
M  V30 11009 H 1073.77 -3.20102 -4.75613 0
M  V30 11010 H 1072.17 -3.95424 -4.51398 0
M  V30 11011 H 1073.24 -3.71059 -3.12159 0
M  V30 11012 N 1074.58 1.12322 -1.10551 0
M  V30 11013 C 1075.54 2.16273 -0.758844 0
M  V30 11014 C 1076.54 1.59325 0.217294 0
M  V30 11015 O 1077.73 1.74199 -0.00601346 0
M  V30 11016 C 1074.86 3.40674 -0.124238 0
M  V30 11017 H 1076.06 2.48454 -1.6796 0
M  V30 11018 H 1073.61 1.2735 -0.906188 0
M  V30 11019 H 1074.34 3.14094 0.807194 0
M  V30 11020 H 1074.13 3.83284 -0.826772 0
M  V30 11021 H 1075.62 4.17474 0.102502 0
M  V30 11022 N 1076.06 0.894434 1.2976 0
M  V30 11023 C 1077.28 0.5322 2.00455 0
M  V30 11024 C 1077.71 -0.874427 1.66539 0
M  V30 11025 O 1077.06 -1.58113 0.887129 0
M  V30 11026 C 1077.11 0.725264 3.53231 0
M  V30 11027 O 1076.22 -0.224612 4.11788 0
M  V30 11028 H 1075.56 0.208562 0.630395 0
M  V30 11029 H 1078.09 1.20458 1.65382 0
M  V30 11030 H 1078.1 0.627889 4.0314 0
M  V30 11031 H 1076.77 1.75079 3.77253 0
M  V30 11032 H 1075.35 -0.0801361 3.72814 0
M  V30 11033 N 1077.53 -1.43282 0.656365 0
M  V30 11034 C 1078.81 -1.9534 0.100816 0
M  V30 11035 C 1079.19 -1.59755 -1.37992 0
M  V30 11036 O 1078.54 -0.884264 -2.10697 0
M  V30 11037 C 1078.75 -3.47237 0.35038 0
M  V30 11038 C 1080.1 -4.23822 0.257001 0
M  V30 11039 O 1081.12 -3.55073 0.283111 0
M  V30 11040 O 1079.98 -5.46192 0.183397 0
M  V30 11041 H 1077.07 -0.826963 -0.00780287 0
M  V30 11042 H 1079.62 -1.53205 0.72982 0
M  V30 11043 H 1078.39 -3.66276 1.37685 0
M  V30 11044 H 1078.02 -3.96378 -0.311539 0
M  V30 11045 N 1079.01 -0.398486 -1.52479 0
M  V30 11046 C 1080.26 0.182046 -2.00877 0
M  V30 11047 C 1080.58 1.47128 -1.2889 0
M  V30 11048 O 1081.78 2.13242 -1.68048 0
M  V30 11049 C 1080.24 0.374978 -3.57941 0
M  V30 11050 C 1079.85 -0.901544 -4.38835 0
M  V30 11051 C 1081.59 0.911378 -4.14601 0
M  V30 11052 C 1079.5 -0.676385 -5.87519 0
M  V30 11053 H 1078.43 0.0718068 -0.750573 0
M  V30 11054 H 1081.08 -0.522297 -1.7591 0
M  V30 11055 H 1079.46 1.14139 -3.79194 0
M  V30 11056 H 1080.63 -1.67329 -4.29346 0
M  V30 11057 H 1078.95 -1.36357 -3.93441 0
M  V30 11058 H 1081.55 1.09569 -5.23353 0
M  V30 11059 H 1081.89 1.88306 -3.71277 0
M  V30 11060 H 1082.42 0.204296 -3.97275 0
M  V30 11061 H 1079.16 -1.61933 -6.35184 0
M  V30 11062 H 1078.68 0.0562542 -5.99774 0
M  V30 11063 H 1080.36 -0.314454 -6.46235 0
M  V30 11064 N 1080.49 1.57075 -0.12858 0
M  V30 11065 C 1081.42 2.18833 0.814519 0
M  V30 11066 C 1082.4 1.13114 1.2704 0
M  V30 11067 O 1083.59 1.41387 1.33129 0
M  V30 11068 C 1080.72 2.79535 2.06101 0
M  V30 11069 C 1079.67 3.9092 1.74257 0
M  V30 11070 C 1079 4.38473 3.06015 0
M  V30 11071 C 1080.3 5.1257 1.00345 0
M  V30 11072 H 1081.99 2.97895 0.299862 0
M  V30 11073 H 1079.54 1.4329 0.14279 0
M  V30 11074 H 1081.49 3.21401 2.72543 0
M  V30 11075 H 1080.21 1.97777 2.59907 0
M  V30 11076 H 1078.87 3.49645 1.102 0
M  V30 11077 H 1078.52 3.53561 3.57776 0
M  V30 11078 H 1078.22 5.13591 2.85479 0
M  V30 11079 H 1079.75 4.82997 3.7356 0
M  V30 11080 H 1081.16 5.51395 1.56959 0
M  V30 11081 H 1079.56 5.93333 0.898693 0
M  V30 11082 H 1080.63 4.84899 -0.0081335 0
M  V30 11083 N 1081.97 -0.145205 1.5693 0
M  V30 11084 C 1083.2 -0.872398 1.87608 0
M  V30 11085 C 1083.61 -1.74657 0.716975 0
M  V30 11086 O 1082.97 -1.79792 -0.3132 0
M  V30 11087 C 1083.02 -1.72762 3.17546 0
M  V30 11088 O 1082.74 -0.888681 4.28992 0
M  V30 11089 C 1084.24 -2.56224 3.61751 0
M  V30 11090 H 1081.46 -0.252166 0.621815 0
M  V30 11091 H 1084.01 -0.137456 2.04038 0
M  V30 11092 H 1082.16 -2.41561 3.02865 0
M  V30 11093 H 1082.58 -1.47601 5.03303 0
M  V30 11094 H 1084.05 -3.11804 4.55502 0
M  V30 11095 H 1084.53 -3.32347 2.87127 0
M  V30 11096 H 1085.13 -1.92714 3.79133 0
M  V30 11097 N 1083.45 -1.52049 -0.414609 0
M  V30 11098 C 1084.4 -1.75603 -1.52533 0
M  V30 11099 C 1085.39 -0.622965 -1.57529 0
M  V30 11100 O 1086.6 -0.804886 -1.61002 0
M  V30 11101 H 1082.97 -0.555222 -0.507181 0
M  V30 11102 H 1084.94 -2.68666 -1.2985 0
M  V30 11103 C 1083.69 -1.9188 -2.89961 0
M  V30 11104 H 1083.01 -2.78483 -2.86857 0
M  V30 11105 H 1084.45 -2.12363 -3.66985 0
M  V30 11106 C 1082.91 -0.684453 -3.29874 0
M  V30 11107 O 1083.44 0.150256 -4.01419 0
M  V30 11108 N 1081.65 -0.521936 -2.85874 0
M  V30 11109 H 1081.2 -1.20229 -2.27822 0
M  V30 11110 H 1081.15 0.302655 -3.1294 0
M  V30 11111 N 1084.93 0.6715 -1.42579 0
M  V30 11112 C 1086.15 1.45972 -1.46628 0
M  V30 11113 C 1086.57 1.88636 -0.0785986 0
M  V30 11114 O 1085.93 1.58345 0.907372 0
M  V30 11115 C 1085.98 2.70668 -2.39627 0
M  V30 11116 O 1085.7 2.29793 -3.72997 0
M  V30 11117 C 1087.2 3.64201 -2.52731 0
M  V30 11118 H 1084.42 0.449044 -0.498598 0
M  V30 11119 H 1086.96 0.824811 -1.87129 0
M  V30 11120 H 1085.12 3.3034 -2.02371 0
M  V30 11121 H 1085.53 3.10341 -4.22834 0
M  V30 11122 H 1087.01 4.48412 -3.21918 0
M  V30 11123 H 1087.48 4.10323 -1.56626 0
M  V30 11124 H 1088.09 3.1042 -2.90722 0
M  V30 11125 N 1086.4 1.28806 0.908124 0
M  V30 11126 C 1087.63 1.19271 1.69674 0
M  V30 11127 C 1088.05 -0.244403 1.86505 0
M  V30 11128 O 1087.41 -1.17668 1.37927 0
M  V30 11129 C 1087.46 1.9023 3.06341 0
M  V30 11130 O 1086.56 1.2136 3.94139 0
M  V30 11131 H 1085.9 0.413738 0.519343 0
M  V30 11132 H 1088.43 1.70227 1.13508 0
M  V30 11133 H 1088.44 1.98356 3.56537 0
M  V30 11134 H 1087.12 2.94762 2.93408 0
M  V30 11135 H 1085.7 1.21435 3.52573 0
M  V30 11136 N 1087.88 -1.11734 1.11145 0
M  V30 11137 C 1089.13 -1.83043 0.856717 0
M  V30 11138 C 1089.45 -1.84901 -0.619407 0
M  V30 11139 O 1088.72 -1.31738 -1.44989 0
M  V30 11140 H 1087.3 -0.677823 0.31395 0
M  V30 11141 H 1089.96 -1.35262 1.40322 0
M  V30 11142 H 1089.06 -2.87005 1.22616 0
M  V30 11143 N 1089.36 -0.901303 -1.29284 0
M  V30 11144 C 1090.58 -0.542823 -2.0017 0
M  V30 11145 C 1091.01 0.865583 -1.67001 0
M  V30 11146 O 1090.37 1.5764 -0.895502 0
M  V30 11147 C 1090.42 -0.743987 -3.52842 0
M  V30 11148 O 1089.52 0.202771 -4.11901 0
M  V30 11149 H 1088.86 -0.211903 -0.62928 0
M  V30 11150 H 1091.39 -1.21333 -1.64741 0
M  V30 11151 H 1091.4 -0.64926 -4.02801 0
M  V30 11152 H 1090.08 -1.77077 -3.7632 0
M  V30 11153 H 1088.65 0.0603637 -3.72851 0
M  V30 11154 N 1090.84 1.42931 -0.663954 0
M  V30 11155 C 1091.77 2.28089 0.0710318 0
M  V30 11156 C 1092.75 1.40446 0.819375 0
M  V30 11157 O 1093.93 1.69887 0.816738 0
M  V30 11158 C 1091.06 3.20079 1.10756 0
M  V30 11159 C 1090.11 4.24055 0.456045 0
M  V30 11160 S 1090.94 5.29813 -0.778356 0
M  V30 11161 C 1092.09 6.25371 0.257373 0
M  V30 11162 H 1092.33 2.90078 -0.651315 0
M  V30 11163 H 1089.86 1.47601 -0.453137 0
M  V30 11164 H 1091.82 3.7362 1.70055 0
M  V30 11165 H 1090.48 2.57248 1.80229 0
M  V30 11166 H 1089.67 4.88564 1.23779 0
M  V30 11167 H 1089.27 3.73947 -0.0630832 0
M  V30 11168 H 1091.57 6.68172 1.12037 0
M  V30 11169 H 1092.51 7.0722 -0.352969 0
M  V30 11170 H 1092.92 5.61324 0.597991 0
M  V30 11171 N 1092.32 0.406567 1.52266 0
M  V30 11172 C 1093.59 -0.228477 1.94261 0
M  V30 11173 C 1093.97 -1.62848 1.34328 0
M  V30 11174 O 1093.32 -2.22549 0.518082 0
M  V30 11175 C 1093.53 -0.237401 3.48192 0
M  V30 11176 C 1094.88 -0.457997 4.22123 0
M  V30 11177 O 1095.9 -0.316868 3.54788 0
M  V30 11178 O 1094.76 -0.735946 5.41522 0
M  V30 11179 H 1091.86 -0.146492 0.813922 0
M  V30 11180 H 1094.4 0.462325 1.63281 0
M  V30 11181 H 1093.17 0.742556 3.8419 0
M  V30 11182 H 1092.8 -0.972408 3.85526 0
M  V30 11183 N 1093.79 -1.57004 0.136909 0
M  V30 11184 C 1094.7 -2.19807 -0.819887 0
M  V30 11185 C 1095.72 -1.17939 -1.27932 0
M  V30 11186 O 1096.9 -1.50478 -1.3386 0
M  V30 11187 C 1093.96 -2.79935 -2.04542 0
M  V30 11188 C 1093.02 -3.96897 -1.6362 0
M  V30 11189 C 1092.26 -4.54148 -2.80331 0
M  V30 11190 O 1092.48 -4.10282 -3.96264 0
M  V30 11191 O 1091.41 -5.44565 -2.56384 0
M  V30 11192 H 1095.24 -3.02058 -0.315337 0
M  V30 11193 H 1092.82 -1.49131 -0.0896151 0
M  V30 11194 H 1094.71 -3.18191 -2.76283 0
M  V30 11195 H 1093.38 -2.00703 -2.53969 0
M  V30 11196 H 1092.29 -3.63376 -0.889316 0
M  V30 11197 H 1093.62 -4.77618 -1.18918 0
M  V30 11198 N 1095.27 0.136881 -1.57004 0
M  V30 11199 C 1096.52 0.8461 -1.83536 0
M  V30 11200 C 1096.84 1.81246 -0.71937 0
M  V30 11201 O 1096.11 1.94191 0.258161 0
M  V30 11202 H 1094.69 0.315446 -0.677128 0
M  V30 11203 H 1097.35 0.128469 -1.94476 0
M  V30 11204 H 1096.45 1.40221 -2.78827 0
M  V30 11205 N 1096.75 1.52266 0.40654 0
M  V30 11206 C 1098.03 1.57018 1.1664 0
M  V30 11207 C 1098.41 0.352752 2.08132 0
M  V30 11208 O 1097.76 -0.660208 2.18754 0
M  V30 11209 C 1097.97 2.90016 1.94143 0
M  V30 11210 C 1099.31 3.43112 2.50119 0
M  V30 11211 O 1100.34 2.91773 2.0432 0
M  V30 11212 O 1099.2 4.32765 3.33731 0
M  V30 11213 H 1096.29 0.632574 0.532709 0
M  V30 11214 H 1098.84 1.64595 0.413111 0
M  V30 11215 H 1097.61 3.70071 1.27134 0
M  V30 11216 H 1097.23 2.85744 2.76471 0
M  V30 11217 N 1098.23 -0.663929 1.42933 0
M  V30 11218 C 1099.51 -1.42054 1.34462 0
M  V30 11219 C 1099.89 -2.11096 -0.0127801 0
M  V30 11220 O 1099.23 -2.04027 -1.02884 0
M  V30 11221 C 1099.44 -2.41406 2.5204 0
M  V30 11222 C 1100.79 -3.05726 2.94647 0
M  V30 11223 O 1101.82 -2.51733 2.52009 0
M  V30 11224 O 1100.67 -4.03593 3.68477 0
M  V30 11225 H 1097.77 -0.634149 0.530834 0
M  V30 11226 H 1100.31 -0.691738 1.54962 0
M  V30 11227 H 1099.09 -1.89263 3.42484 0
M  V30 11228 H 1098.71 -3.21752 2.33584 0
M  V30 11229 N 1099.71 -1.29285 -0.901281 0
M  V30 11230 C 1100.94 -1.19874 -1.68267 0
M  V30 11231 C 1101.34 0.243387 -1.87628 0
M  V30 11232 O 1100.69 1.17497 -1.41209 0
M  V30 11233 C 1100.75 -1.83907 -3.08899 0
M  V30 11234 C 1100.41 -3.33198 -3.12775 0
M  V30 11235 C 1101.41 -4.29446 -2.9304 0
M  V30 11236 C 1099.1 -3.7437 -3.34892 0
M  V30 11237 C 1101.09 -5.64842 -2.95352 0
M  V30 11238 C 1098.78 -5.09888 -3.36834 0
M  V30 11239 C 1099.77 -6.04934 -3.17087 0
M  V30 11240 O 1099.46 -7.37979 -3.18815 0
M  V30 11241 H 1099.19 -0.416601 -0.532372 0
M  V30 11242 H 1101.75 -1.71154 -1.13558 0
M  V30 11243 H 1099.98 -1.27136 -3.65203 0
M  V30 11244 H 1101.67 -1.6884 -3.69118 0
M  V30 11245 H 1102.43 -3.9897 -2.75767 0
M  V30 11246 H 1098.31 -3.00846 -3.49303 0
M  V30 11247 H 1101.86 -6.39004 -2.79856 0
M  V30 11248 H 1097.75 -5.40009 -3.53638 0
M  V30 11249 H 1098.52 -7.46763 -3.35092 0
M  V30 11250 N 1101.18 1.11143 -1.11736 0
M  V30 11251 C 1102.11 2.19339 -0.800795 0
M  V30 11252 C 1103.1 1.68508 0.23221 0
M  V30 11253 O 1104.28 1.93967 0.0950063 0
M  V30 11254 C 1101.41 3.46424 -0.246579 0
M  V30 11255 C 1100.36 4.10487 -1.21181 0
M  V30 11256 C 1099.69 5.32183 -0.518158 0
M  V30 11257 C 1100.99 4.55052 -2.56368 0
M  V30 11258 H 1102.68 2.46077 -1.70548 0
M  V30 11259 H 1100.23 1.18271 -0.821454 0
M  V30 11260 H 1102.18 4.21398 -0.0128889 0
M  V30 11261 H 1100.91 3.19154 0.693415 0
M  V30 11262 H 1099.57 3.3751 -1.43118 0
M  V30 11263 H 1099.21 5.01187 0.426742 0
M  V30 11264 H 1098.91 5.75997 -1.16196 0
M  V30 11265 H 1100.44 6.09895 -0.293333 0
M  V30 11266 H 1101.85 5.21335 -2.38501 0
M  V30 11267 H 1100.25 5.0969 -3.16758 0
M  V30 11268 H 1101.32 3.68343 -3.1536 0
M  V30 11269 N 1102.66 0.908147 1.28804 0
M  V30 11270 C 1104.07 0.585727 1.77274 0
M  V30 11271 C 1104.42 -0.898842 1.744 0
M  V30 11272 O 1103.55 -1.70301 1.33516 0
M  V30 11273 C 1104.14 1.05647 3.21907 0
M  V30 11274 C 1102.7 0.785066 3.68122 0
M  V30 11275 C 1101.85 1.22638 2.48707 0
M  V30 11276 H 1104.8 1.09 1.15346 0
M  V30 11277 H 1104.82 0.395442 3.7844 0
M  V30 11278 H 1104.33 2.13698 3.23967 0
M  V30 11279 H 1102.44 -0.282477 3.71528 0
M  V30 11280 H 1102.55 1.38888 4.58527 0
M  V30 11281 H 1100.91 0.645217 2.46392 0
M  V30 11282 H 1101.7 2.31512 2.5349 0
M  V30 11283 N 1104.14 -1.42577 0.671525 0
M  V30 11284 C 1105.1 -2.292 0.000392482 0
M  V30 11285 C 1106.1 -1.43158 -0.732294 0
M  V30 11286 O 1107.29 -1.64583 -0.570789 0
M  V30 11287 C 1104.43 -3.25591 -1.01013 0
M  V30 11288 H 1105.62 -2.90037 0.762783 0
M  V30 11289 H 1103.17 -1.50162 0.433703 0
M  V30 11290 H 1103.91 -2.69685 -1.80112 0
M  V30 11291 H 1103.69 -3.89049 -0.488183 0
M  V30 11292 H 1105.18 -3.90561 -1.47824 0
M  V30 11293 N 1105.62 -0.414636 -1.52048 0
M  V30 11294 C 1106.85 0.158686 -2.06291 0
M  V30 11295 C 1107.26 1.38397 -1.2842 0
M  V30 11296 O 1106.62 1.79351 -0.337539 0
M  V30 11297 C 1106.67 0.503634 -3.57975 0
M  V30 11298 O 1106.39 -0.672996 -4.329 0
M  V30 11299 C 1107.89 1.13009 -4.28653 0
M  V30 11300 H 1105.11 0.0179622 -0.67076 0
M  V30 11301 H 1107.66 -0.587177 -1.95889 0
M  V30 11302 H 1105.81 1.19939 -3.68366 0
M  V30 11303 H 1106.22 -0.383735 -5.23094 0
M  V30 11304 H 1107.7 1.32162 -5.35945 0
M  V30 11305 H 1108.18 2.10476 -3.85482 0
M  V30 11306 H 1108.78 0.474379 -4.22646 0
M  V30 11307 N 1107.1 1.56929 -0.145233 0
M  V30 11308 C 1108.32 2.00431 0.513314 0
M  V30 11309 C 1108.74 1.0253 1.58534 0
M  V30 11310 O 1108.1 0.0220459 1.82487 0
M  V30 11311 C 1108.15 3.43856 1.11557 0
M  V30 11312 O 1107.87 4.38015 0.0863707 0
M  V30 11313 C 1109.37 4.02627 1.8549 0
M  V30 11314 H 1106.59 0.657529 0.133778 0
M  V30 11315 H 1109.13 2.03095 -0.239296 0
M  V30 11316 H 1107.29 3.4205 1.81881 0
M  V30 11317 H 1107.7 5.21842 0.527363 0
M  V30 11318 H 1109.18 5.04985 2.22923 0
M  V30 11319 H 1109.65 3.43239 2.74014 0
M  V30 11320 H 1110.26 4.08058 1.19869 0
M  V30 11321 N 1108.58 -0.128553 1.57075 0
M  V30 11322 C 1109.99 -0.686713 1.73612 0
M  V30 11323 C 1110.34 -1.80778 0.762478 0
M  V30 11324 O 1109.46 -2.16297 -0.0667779 0
M  V30 11325 C 1110.06 -1.25246 3.148 0
M  V30 11326 C 1108.62 -1.757 3.32876 0
M  V30 11327 C 1107.76 -0.652844 2.69506 0
M  V30 11328 H 1110.71 0.0972859 1.58402 0
M  V30 11329 H 1110.74 -2.1222 3.15821 0
M  V30 11330 H 1110.25 -0.436308 3.8564 0
M  V30 11331 H 1108.35 -2.59824 2.67063 0
M  V30 11332 H 1108.46 -1.87302 4.4097 0
M  V30 11333 H 1106.83 -1.08408 2.30477 0
M  V30 11334 H 1107.61 0.15217 3.42963 0
M  V30 11335 N 1110.05 -1.5248 -0.398459 0
M  V30 11336 C 1111.02 -1.75949 -1.46883 0
M  V30 11337 C 1112.02 -0.629431 -1.47969 0
M  V30 11338 O 1113.21 -0.897407 -1.49306 0
M  V30 11339 C 1110.34 -1.85162 -2.8623 0
M  V30 11340 H 1111.53 -2.71513 -1.2736 0
M  V30 11341 H 1109.08 -1.43058 -0.629619 0
M  V30 11342 H 1109.82 -0.915505 -3.11109 0
M  V30 11343 H 1109.6 -2.67326 -2.86844 0
M  V30 11344 H 1111.09 -2.05025 -3.63805 0
M  V30 11345 N 1111.53 0.65634 -1.43283 0
M  V30 11346 C 1112.46 1.78101 -1.51004 0
M  V30 11347 C 1113.44 1.66138 -0.36498 0
M  V30 11348 O 1114.63 1.85281 -0.581778 0
M  V30 11349 C 1111.76 3.16511 -1.42961 0
M  V30 11350 C 1110.71 3.43233 -2.55685 0
M  V30 11351 C 1110.04 4.81411 -2.32696 0
M  V30 11352 C 1111.34 3.38288 -3.97943 0
M  V30 11353 H 1113.03 1.71896 -2.45137 0
M  V30 11354 H 1110.58 0.825575 -1.17984 0
M  V30 11355 H 1112.53 3.94941 -1.46968 0
M  V30 11356 H 1111.25 3.23439 -0.45332 0
M  V30 11357 H 1109.91 2.67173 -2.51026 0
M  V30 11358 H 1109.56 4.85011 -1.33317 0
M  V30 11359 H 1109.26 5.00251 -3.08257 0
M  V30 11360 H 1110.79 5.62102 -2.38481 0
M  V30 11361 H 1112.2 4.06659 -4.04106 0
M  V30 11362 H 1110.6 3.68664 -4.73505 0
M  V30 11363 H 1111.67 2.36525 -4.23301 0
M  V30 11364 N 1113.01 1.29761 0.894412 0
M  V30 11365 C 1113.92 1.1724 2.03204 0
M  V30 11366 C 1114.94 0.0944452 1.73743 0
M  V30 11367 O 1116.11 0.307549 1.99038 0
M  V30 11368 C 1113.18 0.855416 3.35981 0
M  V30 11369 C 1112.24 2.01777 3.78926 0
M  V30 11370 C 1111.47 1.71581 5.05367 0
M  V30 11371 O 1111.69 0.639245 5.66807 0
M  V30 11372 O 1110.63 2.56539 5.44492 0
M  V30 11373 H 1114.45 2.12787 2.16692 0
M  V30 11374 H 1112.04 1.09264 1.0189 0
M  V30 11375 H 1113.92 0.693429 4.15656 0
M  V30 11376 H 1112.6 -0.0702195 3.23624 0
M  V30 11377 H 1111.5 2.23502 2.99996 0
M  V30 11378 H 1112.84 2.92479 3.95875 0
M  V30 11379 N 1114.49 -1.10549 1.12324 0
M  V30 11380 C 1115.43 -2.16858 0.790024 0
M  V30 11381 C 1116.4 -1.64317 -0.242694 0
M  V30 11382 O 1117.59 -1.90438 -0.117531 0
M  V30 11383 C 1114.73 -3.44197 0.249503 0
M  V30 11384 C 1113.84 -4.10696 1.33989 0
M  V30 11385 C 1112.98 -5.25751 0.758932 0
M  V30 11386 C 1112.02 -5.8415 1.82853 0
M  V30 11387 N 1111.15 -6.90585 1.26637 0
M  V30 11388 H 1115.99 -2.44705 1.7007 0
M  V30 11389 H 1113.53 -1.20117 0.849141 0
M  V30 11390 H 1115.49 -4.1712 -0.0819251 0
M  V30 11391 H 1114.12 -3.16705 -0.624332 0
M  V30 11392 H 1113.17 -3.35754 1.78812 0
M  V30 11393 H 1114.48 -4.50144 2.14875 0
M  V30 11394 H 1113.64 -6.05521 0.378104 0
M  V30 11395 H 1112.38 -4.87632 -0.0811405 0
M  V30 11396 H 1111.38 -5.03051 2.21856 0
M  V30 11397 H 1112.61 -6.24333 2.6718 0
M  V30 11398 H 1110.55 -6.54468 0.448105 0
M  V30 11399 H 1110.47 -7.28739 2.01184 0
M  V30 11400 H 1111.74 -7.74138 0.912737 0
M  V30 11401 N 1115.97 -0.914965 -1.28321 0
M  V30 11402 C 1116.93 -0.409024 -2.25521 0
M  V30 11403 C 1117.93 0.465327 -1.5392 0
M  V30 11404 O 1119.12 0.26821 -1.72123 0
M  V30 11405 C 1116.25 0.413452 -3.38383 0
M  V30 11406 H 1117.44 -1.26767 -2.71791 0
M  V30 11407 H 1115 -0.694477 -1.40024 0
M  V30 11408 H 1115.73 1.29145 -2.97476 0
M  V30 11409 H 1115.52 -0.213268 -3.9152 0
M  V30 11410 H 1117.01 0.758232 -4.10659 0
M  V30 11411 N 1117.44 1.42219 -0.679077 0
M  V30 11412 C 1118.85 1.8459 -0.279877 0
M  V30 11413 C 1119.21 1.56839 1.17881 0
M  V30 11414 O 1118.33 1.03039 1.90294 0
M  V30 11415 C 1118.93 3.35072 -0.501185 0
M  V30 11416 C 1117.48 3.76076 -0.156065 0
M  V30 11417 C 1116.63 2.65763 -0.791549 0
M  V30 11418 H 1119.58 1.32005 -0.880932 0
M  V30 11419 H 1119.6 3.79708 0.245349 0
M  V30 11420 H 1119.12 3.55239 -1.56291 0
M  V30 11421 H 1117.22 3.61516 0.90205 0
M  V30 11422 H 1117.33 4.75334 -0.599572 0
M  V30 11423 H 1115.69 2.53726 -0.222514 0
M  V30 11424 H 1116.48 2.88751 -1.85682 0
M  V30 11425 N 1118.92 0.422693 1.51826 0
M  V30 11426 C 1120.16 -0.147997 2.03864 0
M  V30 11427 C 1120.53 -1.41224 1.30076 0
M  V30 11428 O 1121.73 -2.06224 1.72409 0
M  V30 11429 C 1120 -0.376248 3.55414 0
M  V30 11430 S 1121.56 -0.912444 4.29208 0
M  V30 11431 H 1118.37 -0.0387084 0.709946 0
M  V30 11432 H 1120.98 0.578733 1.86738 0
M  V30 11433 H 1119.68 0.550451 4.06692 0
M  V30 11434 H 1119.21 -1.13047 3.76807 0
M  V30 11435 H 1121.23 -2.19161 4.45177 0
M  V30 11436 N 1120.4 -1.5685 0.153553 0
M  V30 11437 C 1121.65 -1.96334 -0.495915 0
M  V30 11438 C 1121.97 -1.03873 -1.64441 0
M  V30 11439 O 1121.23 -0.069231 -1.95578 0
M  V30 11440 C 1121.53 -3.42022 -1.0371 0
M  V30 11441 C 1121.19 -4.509 -0.00637049 0
M  V30 11442 C 1119.86 -4.80402 0.276956 0
M  V30 11443 C 1122.21 -5.16556 0.694187 0
M  V30 11444 C 1119.54 -5.72866 1.26653 0
M  V30 11445 C 1121.89 -6.10087 1.67263 0
M  V30 11446 C 1120.55 -6.37965 1.96359 0
M  V30 11447 H 1119.82 -0.718436 -0.181468 0
M  V30 11448 H 1122.47 -1.89968 0.241768 0
M  V30 11449 H 1120.77 -3.45252 -1.85225 0
M  V30 11450 H 1122.47 -3.69903 -1.54831 0
M  V30 11451 H 1119.06 -4.27942 -0.237378 0
M  V30 11452 H 1123.25 -4.9389 0.488496 0
M  V30 11453 H 1118.5 -5.92756 1.49833 0
M  V30 11454 H 1122.68 -6.60036 2.22094 0
M  V30 11455 H 1120.3 -7.09416 2.73189 0
M  V30 11456 N 1121.88 0.120221 -1.57141 0
M  V30 11457 C 1123.29 0.677497 -1.73974 0
M  V30 11458 C 1123.64 1.80371 -0.772055 0
M  V30 11459 O 1122.76 2.16329 0.0553062 0
M  V30 11460 C 1123.36 1.23575 -3.1546 0
M  V30 11461 C 1121.92 1.73933 -3.33803 0
M  V30 11462 C 1121.07 0.638542 -2.69848 0
M  V30 11463 H 1124.02 -0.105685 -1.58348 0
M  V30 11464 H 1124.04 2.10542 -3.16942 0
M  V30 11465 H 1123.55 0.415851 -3.85866 0
M  V30 11466 H 1121.65 2.58404 -2.68437 0
M  V30 11467 H 1121.76 1.84961 -4.41957 0
M  V30 11468 H 1120.13 1.07185 -2.31049 0
M  V30 11469 H 1120.91 -0.170356 -3.42877 0
M  V30 11470 N 1123.36 1.52689 0.390367 0
M  V30 11471 C 1124.6 1.67914 1.13722 0
M  V30 11472 C 1124.94 0.417159 1.89667 0
M  V30 11473 O 1124.21 -0.585005 1.85494 0
M  V30 11474 C 1124.49 2.91331 2.11656 0
M  V30 11475 C 1124.35 4.27626 1.39484 0
M  V30 11476 C 1125.67 3.10293 3.12099 0
M  V30 11477 H 1122.78 0.611047 0.412057 0
M  V30 11478 H 1125.43 1.85283 0.420753 0
M  V30 11479 H 1123.58 2.76654 2.72754 0
M  V30 11480 H 1125.25 4.54068 0.813607 0
M  V30 11481 H 1123.49 4.28169 0.69669 0
M  V30 11482 H 1124.16 5.10066 2.11038 0
M  V30 11483 H 1126.64 3.23992 2.6109 0
M  V30 11484 H 1125.51 3.98127 3.7787 0
M  V30 11485 H 1125.78 2.24448 3.80888 0
M  V30 11486 N 1124.83 -0.648732 1.43629 0
M  V30 11487 C 1125.74 -1.79046 1.51591 0
M  V30 11488 C 1126.76 -1.69276 0.402697 0
M  V30 11489 O 1127.94 -1.90366 0.657484 0
M  V30 11490 C 1125 -3.15347 1.44073 0
M  V30 11491 C 1124.06 -3.3688 2.66102 0
M  V30 11492 C 1123.3 -4.66679 2.58933 0
M  V30 11493 O 1123.52 -5.46328 1.63956 0
M  V30 11494 O 1122.45 -4.9003 3.49506 0
M  V30 11495 H 1126.28 -1.75283 2.48011 0
M  V30 11496 H 1123.86 -0.807774 1.2568 0
M  V30 11497 H 1125.75 -3.96633 1.42339 0
M  V30 11498 H 1124.42 -3.19691 0.50789 0
M  V30 11499 H 1123.33 -2.55341 2.73407 0
M  V30 11500 H 1124.66 -3.37386 3.58373 0
M  V30 11501 N 1126.31 -1.30234 -0.887518 0
M  V30 11502 C 1127.54 -1.21955 -1.67755 0
M  V30 11503 C 1127.96 0.214701 -1.86871 0
M  V30 11504 O 1127.32 1.15459 -1.39782 0
M  V30 11505 C 1127.37 -1.95079 -3.03276 0
M  V30 11506 O 1126.47 -1.27615 -3.92158 0
M  V30 11507 H 1125.81 -0.421948 -0.512695 0
M  V30 11508 H 1128.34 -1.72011 -1.10785 0
M  V30 11509 H 1128.35 -2.04004 -3.53336 0
M  V30 11510 H 1127.03 -2.99392 -2.88682 0
M  V30 11511 H 1125.61 -1.27029 -3.50597 0
M  V30 11512 N 1127.79 1.09952 -1.12909 0
M  V30 11513 C 1128.74 2.16436 -0.801514 0
M  V30 11514 C 1129.71 1.64444 0.233976 0
M  V30 11515 O 1130.89 1.90497 0.10743 0
M  V30 11516 C 1128.03 3.4406 -0.267753 0
M  V30 11517 C 1127.15 4.09979 -1.36165 0
M  V30 11518 C 1126.28 5.25341 -0.786803 0
M  V30 11519 C 1125.32 5.83172 -1.85948 0
M  V30 11520 N 1124.46 6.89904 -1.30298 0
M  V30 11521 H 1129.3 2.43799 -1.71365 0
M  V30 11522 H 1126.83 1.19665 -0.855499 0
M  V30 11523 H 1128.79 4.17157 0.0598031 0
M  V30 11524 H 1127.42 3.17031 0.607528 0
M  V30 11525 H 1126.47 3.34801 -1.8059 0
M  V30 11526 H 1127.79 4.48999 -2.17259 0
M  V30 11527 H 1126.94 6.05312 -0.410211 0
M  V30 11528 H 1125.68 4.87669 0.055279 0
M  V30 11529 H 1124.68 5.01867 -2.24521 0
M  V30 11530 H 1125.91 6.22907 -2.70487 0
M  V30 11531 H 1123.85 6.54221 -0.482806 0
M  V30 11532 H 1123.77 7.27662 -2.05046 0
M  V30 11533 H 1125.04 7.73643 -0.953779 0
M  V30 11534 N 1129.27 0.921757 1.27833 0
M  V30 11535 C 1130.18 0.421668 2.30779 0
M  V30 11536 C 1131.19 -0.494686 1.6682 0
M  V30 11537 O 1132.37 -0.378935 1.97803 0
M  V30 11538 C 1129.44 -0.322928 3.45193 0
M  V30 11539 C 1128.5 0.627618 4.24687 0
M  V30 11540 C 1127.73 -0.0815385 5.33638 0
M  V30 11541 O 1127.95 -1.30193 5.55343 0
M  V30 11542 O 1126.89 0.58725 5.99028 0
M  V30 11543 H 1130.71 1.2763 2.7558 0
M  V30 11544 H 1128.3 0.686877 1.32674 0
M  V30 11545 H 1130.18 -0.743145 4.14796 0
M  V30 11546 H 1128.85 -1.15326 3.02459 0
M  V30 11547 H 1127.76 1.09739 3.57642 0
M  V30 11548 H 1129.09 1.425 4.71121 0
M  V30 11549 N 1130.75 -1.41857 0.686609 0
M  V30 11550 C 1131.66 -2.34595 0.0159005 0
M  V30 11551 C 1132.67 -1.55741 -0.775933 0
M  V30 11552 O 1133.85 -1.8826 -0.71555 0
M  V30 11553 C 1130.91 -3.34395 -0.915473 0
M  V30 11554 C 1129.97 -4.29141 -0.116851 0
M  V30 11555 C 1129.21 -5.24174 -1.00386 0
M  V30 11556 O 1129.43 -5.24431 -2.2434 0
M  V30 11557 O 1128.36 -6.00152 -0.458337 0
M  V30 11558 H 1132.19 -2.9351 0.780101 0
M  V30 11559 H 1129.78 -1.42559 0.446896 0
M  V30 11560 H 1131.66 -3.95675 -1.44981 0
M  V30 11561 H 1130.33 -2.77936 -1.65932 0
M  V30 11562 H 1129.24 -3.71238 0.461871 0
M  V30 11563 H 1130.57 -4.88673 0.588138 0
M  V30 11564 N 1132.22 -0.430739 -1.51599 0
M  V30 11565 C 1133.13 0.390347 -2.3133 0
M  V30 11566 C 1134.15 1.03376 -1.39962 0
M  V30 11567 O 1135.33 1.03057 -1.73035 0
M  V30 11568 C 1132.39 1.48039 -3.13505 0
M  V30 11569 C 1131.45 0.857792 -4.20643 0
M  V30 11570 C 1130.69 1.89589 -4.9889 0
M  V30 11571 O 1130.91 3.11717 -4.77691 0
M  V30 11572 O 1129.84 1.49009 -5.83164 0
M  V30 11573 H 1133.67 -0.260358 -3.02582 0
M  V30 11574 H 1131.25 -0.193428 -1.48143 0
M  V30 11575 H 1133.14 2.11272 -3.64612 0
M  V30 11576 H 1131.81 2.1153 -2.45024 0
M  V30 11577 H 1130.72 0.187592 -3.73629 0
M  V30 11578 H 1132.05 0.266474 -4.91478 0
M  V30 11579 N 1133.7 1.56767 -0.161869 0
M  V30 11580 C 1134.63 2.1466 0.803356 0
M  V30 11581 C 1135.65 1.09977 1.20037 0
M  V30 11582 O 1136.84 1.37199 1.14187 0
M  V30 11583 C 1133.94 2.66663 2.09151 0
M  V30 11584 C 1133.11 3.95904 1.85953 0
M  V30 11585 C 1132.17 4.33067 2.98897 0
M  V30 11586 O 1131.19 5.01119 2.69942 0
M  V30 11587 N 1132.4 3.93856 4.26448 0
M  V30 11588 H 1135.16 2.98108 0.308472 0
M  V30 11589 H 1132.72 1.61886 0.0212238 0
M  V30 11590 H 1134.71 2.88528 2.83784 0
M  V30 11591 H 1133.28 1.87856 2.49857 0
M  V30 11592 H 1132.5 3.82513 0.952751 0
M  V30 11593 H 1133.79 4.8033 1.67811 0
M  V30 11594 H 1133.19 3.39051 4.52836 0
M  V30 11595 H 1131.75 4.20741 4.97815 0
M  V30 11596 N 1135.18 -0.111886 1.57202 0
M  V30 11597 C 1136.43 -0.817022 1.84412 0
M  V30 11598 C 1136.74 -1.80708 0.748608 0
M  V30 11599 O 1137.95 -2.55891 0.907319 0
M  V30 11600 C 1136.4 -1.50376 3.26979 0
M  V30 11601 C 1136.01 -0.554334 4.44557 0
M  V30 11602 C 1137.76 -2.19361 3.63429 0
M  V30 11603 C 1135.66 -1.24471 5.78153 0
M  V30 11604 H 1134.59 -0.308864 0.687836 0
M  V30 11605 H 1137.24 -0.0698109 1.83367 0
M  V30 11606 H 1135.63 -2.29785 3.22514 0
M  V30 11607 H 1136.8 0.207045 4.60335 0
M  V30 11608 H 1135.12 0.0289261 4.1639 0
M  V30 11609 H 1137.71 -2.71716 4.60515 0
M  V30 11610 H 1138.06 -2.97488 2.91215 0
M  V30 11611 H 1138.59 -1.46833 3.69709 0
M  V30 11612 H 1135.33 -0.504584 6.53555 0
M  V30 11613 H 1134.85 -1.97792 5.66249 0
M  V30 11614 H 1136.53 -1.77591 6.2215 0
M  V30 11615 N 1136.66 -1.52894 -0.382264 0
M  V30 11616 C 1137.57 -1.81084 -1.4915 0
M  V30 11617 C 1138.58 -0.698045 -1.59384 0
M  V30 11618 O 1139.76 -0.98635 -1.75594 0
M  V30 11619 C 1136.83 -1.97987 -2.84608 0
M  V30 11620 C 1135.89 -3.219 -2.8404 0
M  V30 11621 C 1135.12 -3.37988 -4.13037 0
M  V30 11622 O 1135.34 -2.58733 -5.08344 0
M  V30 11623 O 1134.28 -4.31273 -4.19866 0
M  V30 11624 H 1138.1 -2.75289 -1.28257 0
M  V30 11625 H 1135.69 -1.38068 -0.57076 0
M  V30 11626 H 1137.57 -2.10773 -3.64901 0
M  V30 11627 H 1136.24 -1.06972 -3.05514 0
M  V30 11628 H 1135.15 -3.14551 -2.02505 0
M  V30 11629 H 1136.48 -4.12783 -2.68087 0
M  V30 11630 N 1138.14 0.641106 -1.43971 0
M  V30 11631 C 1139.08 1.75352 -1.50068 0
M  V30 11632 C 1140.05 1.62386 -0.349266 0
M  V30 11633 O 1141.24 1.82455 -0.558118 0
M  V30 11634 C 1138.38 3.13561 -1.4413 0
M  V30 11635 C 1137.49 3.37574 -2.6957 0
M  V30 11636 C 1136.63 4.65698 -2.55535 0
M  V30 11637 C 1135.67 4.82857 -3.76186 0
M  V30 11638 N 1134.8 6.02249 -3.60888 0
M  V30 11639 H 1139.64 1.69477 -2.45116 0
M  V30 11640 H 1137.18 0.826871 -1.2166 0
M  V30 11641 H 1139.14 3.93476 -1.38681 0
M  V30 11642 H 1137.77 3.18476 -0.526563 0
M  V30 11643 H 1136.82 2.5167 -2.85248 0
M  V30 11644 H 1138.13 3.46135 -3.59154 0
M  V30 11645 H 1137.29 5.53759 -2.47862 0
M  V30 11646 H 1136.03 4.59479 -1.63495 0
M  V30 11647 H 1135.03 3.93229 -3.84254 0
M  V30 11648 H 1136.26 4.90898 -4.6925 0
M  V30 11649 H 1134.2 5.97138 -2.71591 0
M  V30 11650 H 1134.12 6.11822 -4.44083 0
M  V30 11651 H 1135.39 6.92898 -3.57088 0
M  V30 11652 N 1139.62 1.30703 0.880598 0
M  V30 11653 C 1140.86 1.19955 1.63519 0
M  V30 11654 C 1141.19 -0.244214 1.92658 0
M  V30 11655 O 1140.47 -1.17412 1.55063 0
M  V30 11656 C 1140.75 2.03302 2.97221 0
M  V30 11657 C 1140.61 3.55921 2.75028 0
M  V30 11658 C 1141.92 1.87421 3.98198 0
M  V30 11659 H 1139.04 0.43712 0.593376 0
M  V30 11660 H 1141.69 1.60382 1.01871 0
M  V30 11661 H 1139.84 1.68953 3.49839 0
M  V30 11662 H 1141.51 4.00352 2.29164 0
M  V30 11663 H 1139.75 3.79885 2.09452 0
M  V30 11664 H 1140.42 4.09533 3.70117 0
M  V30 11665 H 1142.9 2.17459 3.54755 0
M  V30 11666 H 1141.77 2.48057 4.89652 0
M  V30 11667 H 1142.03 0.834563 4.34151 0
M  V30 11668 N 1141.09 -1.09351 1.1349 0
M  V30 11669 C 1142.04 -2.16008 0.812981 0
M  V30 11670 C 1143.01 -1.64566 -0.225252 0
M  V30 11671 O 1144.2 -1.90552 -0.0973261 0
M  V30 11672 C 1141.34 -3.43913 0.285996 0
M  V30 11673 C 1140.45 -4.09251 1.38338 0
M  V30 11674 C 1139.58 -5.24916 0.814652 0
M  V30 11675 C 1138.62 -5.82178 1.89038 0
M  V30 11676 N 1137.76 -6.89203 1.33955 0
M  V30 11677 H 1142.6 -2.42887 1.72655 0
M  V30 11678 H 1140.14 -1.19209 0.861833 0
M  V30 11679 H 1142.09 -4.17183 -0.0376794 0
M  V30 11680 H 1140.72 -3.17349 -0.590707 0
M  V30 11681 H 1139.78 -3.33838 1.82363 0
M  V30 11682 H 1141.09 -4.4784 2.19638 0
M  V30 11683 H 1140.24 -6.05086 0.442306 0
M  V30 11684 H 1138.98 -4.87691 -0.029416 0
M  V30 11685 H 1137.99 -5.00669 2.27179 0
M  V30 11686 H 1139.21 -6.21464 2.73787 0
M  V30 11687 H 1137.16 -6.53956 0.517494 0
M  V30 11688 H 1137.07 -7.26565 2.08902 0
M  V30 11689 H 1138.34 -7.73126 0.994793 0
M  V30 11690 N 1142.57 -0.928524 -1.27343 0
M  V30 11691 C 1143.53 -0.43292 -2.25074 0
M  V30 11692 C 1144.53 0.448976 -1.54405 0
M  V30 11693 O 1145.72 0.249939 -1.72398 0
M  V30 11694 C 1142.86 0.377539 -3.38803 0
M  V30 11695 H 1144.05 -1.29642 -2.70431 0
M  V30 11696 H 1141.6 -0.709289 -1.3928 0
M  V30 11697 H 1142.34 1.25982 -2.98829 0
M  V30 11698 H 1142.12 -0.254782 -3.91271 0
M  V30 11699 H 1143.61 0.714634 -4.1144 0
M  V30 11700 N 1144.05 1.41491 -0.694123 0
M  V30 11701 C 1145.28 2.05579 -0.233466 0
M  V30 11702 C 1145.69 1.5223 1.11675 0
M  V30 11703 O 1145.05 0.669937 1.69759 0
M  V30 11704 C 1145.1 3.61047 -0.180967 0
M  V30 11705 O 1144.82 4.12421 -1.47785 0
M  V30 11706 C 1146.32 4.42278 0.300853 0
M  V30 11707 H 1143.54 0.662097 -0.108943 0
M  V30 11708 H 1146.09 1.81288 -0.946299 0
M  V30 11709 H 1144.24 3.84381 0.482678 0
M  V30 11710 H 1144.66 5.06454 -1.364 0
M  V30 11711 H 1146.13 5.51256 0.286464 0
M  V30 11712 H 1146.61 4.18276 1.33948 0
M  V30 11713 H 1147.21 4.24004 -0.331741 0
M  V30 11714 N 1145.53 0.438773 1.51369 0
M  V30 11715 C 1146.78 -0.126962 2.01701 0
M  V30 11716 C 1147.1 -1.43086 1.32481 0
M  V30 11717 O 1146.37 -1.90427 0.459823 0
M  V30 11718 H 1144.95 -0.0499092 0.745331 0
M  V30 11719 H 1147.61 0.581808 1.86013 0
M  V30 11720 H 1146.7 -0.301836 3.10637 0
M  V30 11721 N 1147.01 -1.56678 0.170181 0
M  V30 11722 C 1147.92 -2.21496 -0.773079 0
M  V30 11723 C 1148.93 -1.20626 -1.25401 0
M  V30 11724 O 1150.11 -1.53283 -1.30638 0
M  V30 11725 C 1147.17 -2.8421 -1.98558 0
M  V30 11726 C 1146.23 -4.00278 -1.55164 0
M  V30 11727 C 1145.47 -4.59992 -2.70634 0
M  V30 11728 O 1145.69 -4.18595 -3.87472 0
M  V30 11729 O 1144.62 -5.49881 -2.44775 0
M  V30 11730 H 1148.45 -3.02659 -0.251195 0
M  V30 11731 H 1146.03 -1.49288 -0.0579621 0
M  V30 11732 H 1147.92 -3.2398 -2.69472 0
M  V30 11733 H 1146.59 -2.06045 -2.49654 0
M  V30 11734 H 1145.5 -3.6518 -0.812038 0
M  V30 11735 H 1146.83 -4.80033 -1.0876 0
M  V30 11736 N 1148.48 0.103547 -1.57259 0
M  V30 11737 C 1149.39 1.14475 -2.04774 0
M  V30 11738 C 1150.41 1.44385 -0.971025 0
M  V30 11739 O 1151.59 1.55195 -1.28361 0
M  V30 11740 C 1148.65 2.4475 -2.45558 0
M  V30 11741 C 1147.71 2.22098 -3.67384 0
M  V30 11742 C 1146.94 3.4616 -4.06213 0
M  V30 11743 O 1147.17 4.5407 -3.45219 0
M  V30 11744 O 1146.1 3.36248 -4.9922 0
M  V30 11745 H 1149.93 0.771211 -2.93745 0
M  V30 11746 H 1147.51 0.315456 -1.46032 0
M  V30 11747 H 1149.39 3.21476 -2.72454 0
M  V30 11748 H 1148.07 2.81547 -1.59728 0
M  V30 11749 H 1146.98 1.43179 -3.45616 0
M  V30 11750 H 1148.31 1.90197 -4.53967 0
M  V30 11751 N 1149.96 1.53094 0.37415 0
M  V30 11752 C 1151.19 1.73061 1.143 0
M  V30 11753 C 1151.61 0.454611 1.82524 0
M  V30 11754 O 1150.97 -0.590743 1.71406 0
M  V30 11755 C 1151.02 2.89086 2.15549 0
M  V30 11756 O 1150.12 2.57096 3.22452 0
M  V30 11757 H 1149.46 0.575009 0.332055 0
M  V30 11758 H 1151.99 1.99946 0.433897 0
M  V30 11759 H 1152 3.15007 2.59296 0
M  V30 11760 H 1150.68 3.81647 1.65283 0
M  V30 11761 H 1149.25 2.41965 2.83738 0
M  V30 11762 N 1151.44 -0.633461 1.44309 0
M  V30 11763 C 1152.67 -1.42033 1.50447 0
M  V30 11764 C 1153.08 -1.88362 0.128585 0
M  V30 11765 O 1152.44 -1.60695 -0.865071 0
M  V30 11766 C 1152.49 -2.6422 2.46719 0
M  V30 11767 O 1152.21 -2.19823 3.78958 0
M  V30 11768 C 1153.71 -3.57372 2.62298 0
M  V30 11769 H 1150.93 -0.435667 0.510329 0
M  V30 11770 H 1153.48 -0.774907 1.8925 0
M  V30 11771 H 1151.63 -3.24859 2.11058 0
M  V30 11772 H 1152.05 -2.99022 4.30913 0
M  V30 11773 H 1153.52 -4.39719 3.33693 0
M  V30 11774 H 1154 -4.06026 1.67449 0
M  V30 11775 H 1154.6 -3.02603 2.9885 0
M  V30 11776 N 1152.92 -1.31168 -0.873655 0
M  V30 11777 C 1153.85 -1.14325 -1.98651 0
M  V30 11778 C 1154.86 -0.0833421 -1.62587 0
M  V30 11779 O 1156.05 -0.330477 -1.75414 0
M  V30 11780 C 1153.15 -0.723747 -3.31082 0
M  V30 11781 C 1152.33 -1.86787 -3.95512 0
M  V30 11782 C 1151.38 -1.43503 -5.06254 0
M  V30 11783 O 1150.41 -2.14409 -5.27273 0
M  V30 11784 N 1151.61 -0.320362 -5.79615 0
M  V30 11785 H 1154.38 -2.10179 -2.13647 0
M  V30 11786 H 1151.94 -1.23454 -1.04742 0
M  V30 11787 H 1153.93 -0.416971 -4.02546 0
M  V30 11788 H 1152.5 0.143073 -3.12272 0
M  V30 11789 H 1151.72 -2.34216 -3.17075 0
M  V30 11790 H 1153.01 -2.6343 -4.35296 0
M  V30 11791 H 1152.41 0.270215 -5.65054 0
M  V30 11792 H 1150.96 -0.0731 -6.51759 0
M  V30 11793 N 1154.4 1.08748 -1.14068 0
M  V30 11794 C 1155.36 2.1375 -0.827266 0
M  V30 11795 C 1156.36 1.59936 0.166496 0
M  V30 11796 O 1157.55 1.74092 -0.0614305 0
M  V30 11797 C 1154.68 3.40106 -0.232557 0
M  V30 11798 H 1155.87 2.42985 -1.7578 0
M  V30 11799 H 1153.43 1.24402 -0.946244 0
M  V30 11800 H 1154.16 3.16503 0.706859 0
M  V30 11801 H 1153.95 3.8046 -0.948293 0
M  V30 11802 H 1155.44 4.17589 -0.0303662 0
M  V30 11803 N 1155.87 0.935264 1.26849 0
M  V30 11804 C 1156.78 0.446122 2.30319 0
M  V30 11805 C 1157.8 -0.476965 1.67335 0
M  V30 11806 O 1158.98 -0.357934 1.98194 0
M  V30 11807 C 1156.04 -0.286297 3.45516 0
M  V30 11808 C 1155.1 0.672626 4.23998 0
M  V30 11809 C 1154.34 -0.0249345 5.33694 0
M  V30 11810 O 1154.56 -1.24296 5.56693 0
M  V30 11811 O 1153.49 0.650752 5.98372 0
M  V30 11812 H 1157.32 1.30546 2.74211 0
M  V30 11813 H 1154.9 0.70091 1.31938 0
M  V30 11814 H 1156.79 -0.699109 4.1556 0
M  V30 11815 H 1155.46 -1.12112 3.03665 0
M  V30 11816 H 1154.37 1.13527 3.56458 0
M  V30 11817 H 1155.7 1.47489 4.69583 0
M  V30 11818 N 1157.35 -1.41121 0.701616 0
M  V30 11819 C 1158.6 -2.00359 0.232214 0
M  V30 11820 C 1158.91 -1.56231 -1.17691 0
M  V30 11821 O 1160.12 -2.08071 -1.74409 0
M  V30 11822 C 1158.58 -3.58052 0.364257 0
M  V30 11823 C 1158.18 -4.11158 1.77913 0
M  V30 11824 C 1159.93 -4.24476 -0.0450628 0
M  V30 11825 C 1157.84 -5.61306 1.8625 0
M  V30 11826 H 1156.77 -0.749411 0.0830609 0
M  V30 11827 H 1159.42 -1.61528 0.870689 0
M  V30 11828 H 1157.8 -3.94515 -0.342569 0
M  V30 11829 H 1158.97 -3.86101 2.5152 0
M  V30 11830 H 1157.29 -3.57282 2.13866 0
M  V30 11831 H 1159.88 -5.347 -0.00329209 0
M  V30 11832 H 1160.23 -4.01919 -1.08477 0
M  V30 11833 H 1160.76 -3.93069 0.611704 0
M  V30 11834 H 1157.5 -5.88699 2.88294 0
M  V30 11835 H 1157.02 -5.88271 1.17036 0
M  V30 11836 H 1158.7 -6.26179 1.62817 0
M  V30 11837 N 1158.83 -0.446794 -1.51134 0
M  V30 11838 C 1160.06 0.117242 -2.07068 0
M  V30 11839 C 1160.48 1.34877 -1.3111 0
M  V30 11840 O 1159.84 1.77856 -0.35172 0
M  V30 11841 C 1159.89 0.408616 -3.58277 0
M  V30 11842 O 1158.99 1.49345 -3.84408 0
M  V30 11843 H 1158.33 -0.00228458 -0.663996 0
M  V30 11844 H 1160.86 -0.63085 -1.94632 0
M  V30 11845 H 1160.87 0.656298 -4.02687 0
M  V30 11846 H 1159.55 -0.491444 -4.12986 0
M  V30 11847 H 1158.12 1.23499 -3.51856 0
M  V30 11848 N 1160.31 1.56586 -0.178487 0
M  V30 11849 C 1161.55 1.98994 0.466987 0
M  V30 11850 C 1161.91 1.06229 1.59935 0
M  V30 11851 O 1163.11 1.37806 2.30788 0
M  V30 11852 C 1161.38 3.45064 0.930899 0
M  V30 11853 S 1162.94 4.095 1.57655 0
M  V30 11854 H 1159.76 0.695007 0.149955 0
M  V30 11855 H 1162.36 1.93519 -0.27764 0
M  V30 11856 H 1161.07 4.10287 0.0964476 0
M  V30 11857 H 1160.6 3.54321 1.70939 0
M  V30 11858 H 1162.61 4.05139 2.86491 0
M  V30 11859 N 1161.79 -0.095206 1.57312 0
M  V30 11860 C 1162.7 -1.13388 2.05379 0
M  V30 11861 C 1163.71 -1.43868 0.978668 0
M  V30 11862 O 1164.89 -1.54512 1.29182 0
M  V30 11863 C 1161.95 -2.43444 2.46852 0
M  V30 11864 C 1161.01 -2.20146 3.68557 0
M  V30 11865 C 1160.25 -3.44001 4.08043 0
M  V30 11866 O 1160.47 -4.52233 3.47623 0
M  V30 11867 O 1159.4 -3.33596 5.00997 0
M  V30 11868 H 1163.23 -0.755622 2.9415 0
M  V30 11869 H 1160.82 -0.307707 1.46197 0
M  V30 11870 H 1162.7 -3.20027 2.74155 0
M  V30 11871 H 1161.37 -2.80696 1.61219 0
M  V30 11872 H 1160.28 -1.41345 3.46371 0
M  V30 11873 H 1161.61 -1.87787 4.54969 0
M  V30 11874 N 1163.26 -1.53291 -0.366026 0
M  V30 11875 C 1164.49 -1.73665 -1.13381 0
M  V30 11876 C 1164.91 -0.464284 -1.8228 0
M  V30 11877 O 1164.27 0.581645 -1.71717 0
M  V30 11878 C 1164.32 -2.90225 -2.14013 0
M  V30 11879 O 1163.42 -2.58803 -3.21084 0
M  V30 11880 H 1162.77 -0.576762 -0.329 0
M  V30 11881 H 1165.3 -2.00174 -0.423287 0
M  V30 11882 H 1165.31 -3.16378 -2.57622 0
M  V30 11883 H 1163.98 -3.82518 -1.63257 0
M  V30 11884 H 1162.56 -2.43466 -2.82451 0
M  V30 11885 N 1164.74 0.6258 -1.44643 0
M  V30 11886 C 1166.15 1.20751 -1.42394 0
M  V30 11887 C 1166.5 1.95685 -0.142047 0
M  V30 11888 O 1165.63 2.02715 0.757332 0
M  V30 11889 C 1166.22 2.1964 -2.57961 0
M  V30 11890 C 1164.78 2.73227 -2.5889 0
M  V30 11891 C 1163.93 1.48315 -2.34303 0
M  V30 11892 H 1166.88 0.416162 -1.53146 0
M  V30 11893 H 1166.9 3.02342 -2.31019 0
M  V30 11894 H 1166.41 1.65073 -3.51244 0
M  V30 11895 H 1164.52 3.31782 -1.69563 0
M  V30 11896 H 1164.63 3.18902 -3.57545 0
M  V30 11897 H 1162.99 1.76634 -1.83501 0
M  V30 11898 H 1163.78 0.956427 -3.29708 0
M  V30 11899 N 1166.22 1.31629 0.866686 0
M  V30 11900 C 1167.47 1.21503 1.61998 0
M  V30 11901 C 1167.8 -0.226044 1.93182 0
M  V30 11902 O 1167.05 -1.17573 1.56445 0
M  V30 11903 C 1167.35 2.00775 2.95676 0
M  V30 11904 C 1167.02 3.50245 2.83971 0
M  V30 11905 C 1165.68 3.91 2.80485 0
M  V30 11906 C 1168.03 4.45347 2.70769 0
M  V30 11907 C 1165.36 5.25119 2.61661 0
M  V30 11908 C 1167.71 5.79595 2.53481 0
M  V30 11909 C 1166.37 6.19567 2.48381 0
M  V30 11910 H 1165.64 0.44461 0.592792 0
M  V30 11911 H 1168.29 1.62929 1.00629 0
M  V30 11912 H 1166.6 1.52039 3.61097 0
M  V30 11913 H 1168.29 1.90318 3.52959 0
M  V30 11914 H 1164.88 3.17869 2.87502 0
M  V30 11915 H 1169.07 4.14789 2.72514 0
M  V30 11916 H 1164.32 5.5516 2.5614 0
M  V30 11917 H 1168.5 6.5291 2.42243 0
M  V30 11918 H 1166.12 7.23434 2.33554 0
M  V30 11919 N 1167.7 -1.08142 1.14644 0
M  V30 11920 C 1168.63 -2.17139 0.858667 0
M  V30 11921 C 1169.61 -1.69064 -0.187452 0
M  V30 11922 O 1170.8 -1.94151 -0.0435458 0
M  V30 11923 C 1167.93 -3.45648 0.33834 0
M  V30 11924 C 1166.88 -4.07129 1.32021 0
M  V30 11925 C 1166.21 -5.30623 0.659075 0
M  V30 11926 C 1167.51 -4.48095 2.68343 0
M  V30 11927 H 1169.2 -2.41468 1.77012 0
M  V30 11928 H 1166.75 -1.16052 0.852523 0
M  V30 11929 H 1168.7 -4.21216 0.124611 0
M  V30 11930 H 1167.42 -3.2088 -0.608553 0
M  V30 11931 H 1166.08 -3.33596 1.52016 0
M  V30 11932 H 1165.73 -5.02142 -0.293711 0
M  V30 11933 H 1165.43 -5.72714 1.31427 0
M  V30 11934 H 1166.95 -6.08903 0.454933 0
M  V30 11935 H 1168.37 -5.14828 2.5224 0
M  V30 11936 H 1166.76 -5.01113 3.30161 0
M  V30 11937 H 1167.83 -3.59852 3.25015 0
M  V30 11938 N 1169.18 -0.941978 -1.26351 0
M  V30 11939 C 1170.14 -0.456768 -2.24602 0
M  V30 11940 C 1171.14 0.432574 -1.54872 0
M  V30 11941 O 1172.33 0.23164 -1.72653 0
M  V30 11942 C 1169.46 0.341583 -3.39184 0
M  V30 11943 H 1170.66 -1.32503 -2.69041 0
M  V30 11944 H 1168.21 -0.724021 -1.38519 0
M  V30 11945 H 1168.94 1.22806 -3.00149 0
M  V30 11946 H 1168.73 -0.296268 -3.90979 0
M  V30 11947 H 1170.22 0.670955 -4.12175 0
M  V30 11948 N 1170.66 1.40747 -0.709091 0
M  V30 11949 C 1171.6 2.30741 -0.0523584 0
M  V30 11950 C 1172.57 1.4784 0.757145 0
M  V30 11951 O 1173.76 1.76595 0.72242 0
M  V30 11952 C 1170.9 3.34 0.868203 0
M  V30 11953 C 1170.01 4.31972 0.0488686 0
M  V30 11954 C 1169.15 5.223 0.968311 0
M  V30 11955 C 1168.18 6.11934 0.142682 0
M  V30 11956 N 1167.32 6.947 1.01665 0
M  V30 11957 H 1172.16 2.86338 -0.825509 0
M  V30 11958 H 1169.7 1.41013 -0.418785 0
M  V30 11959 H 1171.66 3.92431 1.41611 0
M  V30 11960 H 1170.29 2.79921 1.6076 0
M  V30 11961 H 1169.34 3.75377 -0.616137 0
M  V30 11962 H 1170.65 4.95291 -0.590625 0
M  V30 11963 H 1169.8 5.85631 1.58498 0
M  V30 11964 H 1168.54 4.5924 1.64164 0
M  V30 11965 H 1167.55 5.47639 -0.486965 0
M  V30 11966 H 1168.77 6.77052 -0.527046 0
M  V30 11967 H 1166.72 6.34236 1.67575 0
M  V30 11968 H 1166.64 7.54759 0.433045 0
M  V30 11969 H 1167.9 7.62487 1.6197 0
M  V30 11970 N 1172.13 0.454803 1.50895 0
M  V30 11971 C 1173.41 -0.166559 1.9489 0
M  V30 11972 C 1173.79 -1.58492 1.3944 0
M  V30 11973 O 1173.14 -2.20788 0.588622 0
M  V30 11974 C 1173.35 -0.126506 3.48771 0
M  V30 11975 C 1174.7 -0.32347 4.23366 0
M  V30 11976 O 1175.72 -0.203835 3.55616 0
M  V30 11977 O 1174.58 -0.563292 5.43589 0
M  V30 11978 H 1171.67 -0.120523 0.818171 0
M  V30 11979 H 1174.22 0.514037 1.61727 0
M  V30 11980 H 1172.99 0.864407 3.81633 0
M  V30 11981 H 1172.61 -0.849264 3.88424 0
M  V30 11982 N 1173.61 -1.56489 0.186789 0
M  V30 11983 C 1174.86 -1.97341 -0.454158 0
M  V30 11984 C 1175.19 -1.07337 -1.622 0
M  V30 11985 O 1174.44 -0.1107 -1.95387 0
M  V30 11986 C 1174.74 -3.44145 -0.964315 0
M  V30 11987 C 1174.41 -4.50812 0.0892734 0
M  V30 11988 C 1173.07 -4.79707 0.378794 0
M  V30 11989 C 1175.42 -5.14968 0.8036 0
M  V30 11990 C 1172.75 -5.70051 1.38776 0
M  V30 11991 C 1175.1 -6.06402 1.80166 0
M  V30 11992 C 1173.76 -6.33657 2.09847 0
M  V30 11993 H 1173.03 -0.722124 -0.166188 0
M  V30 11994 H 1175.68 -1.89412 0.282008 0
M  V30 11995 H 1173.99 -3.49103 -1.7786 0
M  V30 11996 H 1175.68 -3.73104 -1.4695 0
M  V30 11997 H 1172.27 -4.28349 -0.146552 0
M  V30 11998 H 1176.46 -4.92743 0.593147 0
M  V30 11999 H 1171.71 -5.89445 1.62373 0
M  V30 12000 H 1175.89 -6.55176 2.36045 0
M  V30 12001 H 1173.51 -7.03462 2.88175 0
M  V30 12002 N 1175.09 0.086862 -1.5736 0
M  V30 12003 C 1176.32 0.801004 -1.9044 0
M  V30 12004 C 1176.73 1.72396 -0.779513 0
M  V30 12005 O 1176.07 1.81894 0.256972 0
M  V30 12006 C 1176.13 1.66055 -3.18851 0
M  V30 12007 C 1175.8 0.908561 -4.47877 0
M  V30 12008 C 1176.79 0.234621 -5.1937 0
M  V30 12009 C 1174.48 0.8802 -4.94528 0
M  V30 12010 C 1176.47 -0.45762 -6.35755 0
M  V30 12011 C 1174.16 0.184179 -6.10822 0
M  V30 12012 C 1175.16 -0.483545 -6.81286 0
M  V30 12013 O 1174.85 -1.16839 -7.95364 0
M  V30 12014 H 1174.58 0.233794 -0.634284 0
M  V30 12015 H 1177.13 0.0660113 -2.05294 0
M  V30 12016 H 1175.36 2.43798 -3.00165 0
M  V30 12017 H 1177.05 2.252 -3.37698 0
M  V30 12018 H 1177.82 0.247938 -4.84366 0
M  V30 12019 H 1173.7 1.38938 -4.39565 0
M  V30 12020 H 1177.24 -0.979369 -6.90691 0
M  V30 12021 H 1173.14 0.168737 -6.45279 0
M  V30 12022 H 1173.9 -1.07612 -8.11395 0
M  V30 12023 N 1176.57 1.53483 0.357892 0
M  V30 12024 C 1177.51 1.80463 1.43881 0
M  V30 12025 C 1178.48 0.649438 1.52877 0
M  V30 12026 O 1179.67 0.892409 1.68644 0
M  V30 12027 C 1176.81 2.00714 2.80727 0
M  V30 12028 C 1175.92 3.28431 2.80637 0
M  V30 12029 C 1175.06 3.38828 4.09107 0
M  V30 12030 C 1174.1 4.60549 4.03189 0
M  V30 12031 N 1173.23 4.68057 5.23323 0
M  V30 12032 H 1178.07 2.72694 1.20174 0
M  V30 12033 H 1175.61 1.35079 0.582422 0
M  V30 12034 H 1177.57 2.10444 3.60235 0
M  V30 12035 H 1176.2 1.11811 3.02817 0
M  V30 12036 H 1175.25 3.27617 1.93317 0
M  V30 12037 H 1176.56 4.18022 2.72138 0
M  V30 12038 H 1175.72 3.47911 4.97034 0
M  V30 12039 H 1174.46 2.47267 4.20369 0
M  V30 12040 H 1173.46 4.51558 3.13649 0
M  V30 12041 H 1174.69 5.53459 3.93523 0
M  V30 12042 H 1172.63 3.794 5.35156 0
M  V30 12043 H 1172.55 5.51563 5.17024 0
M  V30 12044 H 1173.82 4.81433 6.1306 0
M  V30 12045 N 1178.05 -0.61812 1.44973 0
M  V30 12046 C 1178.99 -1.75059 1.53157 0
M  V30 12047 C 1179.99 -1.64554 0.402282 0
M  V30 12048 O 1181.19 -1.70475 0.577767 0
M  V30 12049 H 1177.57 -0.57817 0.480856 0
M  V30 12050 H 1179.54 -1.65281 2.48445 0
M  V30 12051 C 1178.29 -3.13423 1.50538 0
M  V30 12052 H 1177.61 -3.2216 2.36755 0
M  V30 12053 H 1179.05 -3.92521 1.60323 0
M  V30 12054 C 1177.51 -3.36127 0.228127 0
M  V30 12055 O 1178.04 -3.95618 -0.696364 0
M  V30 12056 N 1176.25 -2.90322 0.127142 0
M  V30 12057 H 1175.79 -2.42091 0.880317 0
M  V30 12058 H 1175.75 -3.05887 -0.726659 0
M  V30 12059 N 1179.52 -1.32087 -0.859693 0
M  V30 12060 C 1180.77 -1.22119 -1.61033 0
M  V30 12061 C 1181.09 0.218289 -1.93774 0
M  V30 12062 O 1180.36 1.14172 -1.5919 0
M  V30 12063 H 1178.94 -0.448989 -0.597008 0
M  V30 12064 H 1181.6 -1.65545 -1.02863 0
M  V30 12065 H 1180.7 -1.80023 -2.54947 0
M  V30 12066 N 1181 1.07532 -1.15215 0
M  V30 12067 C 1182.23 1.83817 -0.949687 0
M  V30 12068 C 1182.64 1.82004 0.501991 0
M  V30 12069 O 1182 1.23014 1.34811 0
M  V30 12070 C 1182.05 3.30978 -1.45382 0
M  V30 12071 O 1181.77 3.32844 -2.84863 0
M  V30 12072 C 1183.27 4.24037 -1.29257 0
M  V30 12073 H 1180.49 0.58 -0.337404 0
M  V30 12074 H 1183.04 1.35752 -1.52944 0
M  V30 12075 H 1181.19 3.76399 -0.916638 0
M  V30 12076 H 1181.61 4.24773 -3.07682 0
M  V30 12077 H 1183.08 5.25371 -1.69379 0
M  V30 12078 H 1183.56 4.38563 -0.236519 0
M  V30 12079 H 1184.16 3.8445 -1.81874 0
M  V30 12080 N 1182.48 0.948665 1.2585 0
M  V30 12081 C 1183.73 0.601125 1.93686 0
M  V30 12082 C 1184.06 -0.858779 1.7418 0
M  V30 12083 O 1183.33 -1.61539 1.0833 0
M  V30 12084 C 1183.62 0.95333 3.47252 0
M  V30 12085 C 1183.47 2.46853 3.7601 0
M  V30 12086 C 1184.79 0.474098 4.37539 0
M  V30 12087 H 1181.91 0.219864 0.703441 0
M  V30 12088 H 1184.55 1.18424 1.48579 0
M  V30 12089 H 1182.7 0.457114 3.85801 0
M  V30 12090 H 1184.37 3.03804 3.47132 0
M  V30 12091 H 1182.62 2.9088 3.21825 0
M  V30 12092 H 1183.29 2.66547 4.83381 0
M  V30 12093 H 1185.76 0.899664 4.06258 0
M  V30 12094 H 1184.64 0.749287 5.43762 0
M  V30 12095 H 1184.9 -0.625961 4.37646 0
M  V30 12096 N 1183.96 -1.40369 0.716545 0
M  V30 12097 C 1184.89 -2.28196 0.013671 0
M  V30 12098 C 1185.87 -1.4339 -0.766685 0
M  V30 12099 O 1187.05 -1.72801 -0.753123 0
M  V30 12100 C 1184.18 -3.23969 -0.988006 0
M  V30 12101 C 1183.23 -4.25455 -0.298345 0
M  V30 12102 S 1184.06 -5.26559 0.974456 0
M  V30 12103 C 1185.22 -6.25895 -0.0250932 0
M  V30 12104 H 1185.45 -2.87461 0.758526 0
M  V30 12105 H 1182.98 -1.45817 0.507606 0
M  V30 12106 H 1184.94 -3.79674 -1.56071 0
M  V30 12107 H 1183.6 -2.63759 -1.70557 0
M  V30 12108 H 1182.79 -4.92821 -1.05561 0
M  V30 12109 H 1182.4 -3.73455 0.201828 0
M  V30 12110 H 1184.69 -6.7187 -0.871615 0
M  V30 12111 H 1185.63 -7.05422 0.615206 0
M  V30 12112 H 1186.04 -5.63156 -0.389248 0
M  V30 12113 N 1185.44 -0.462799 -1.50652 0
M  V30 12114 C 1186.4 0.324264 -2.26895 0
M  V30 12115 C 1187.4 0.927687 -1.31342 0
M  V30 12116 O 1188.59 0.798159 -1.54839 0
M  V30 12117 C 1185.72 1.46113 -3.08 0
M  V30 12118 H 1186.91 -0.344266 -2.97917 0
M  V30 12119 H 1184.47 -0.216631 -1.54791 0
M  V30 12120 H 1185.2 2.16496 -2.41454 0
M  V30 12121 H 1184.99 1.03433 -3.78212 0
M  V30 12122 H 1186.48 2.01655 -3.65684 0
M  V30 12123 N 1186.91 1.56388 -0.195085 0
M  V30 12124 C 1188.33 1.8398 0.317513 0
M  V30 12125 C 1188.68 1.11575 1.61386 0
M  V30 12126 O 1187.8 0.376557 2.13099 0
M  V30 12127 C 1188.4 3.33749 0.582859 0
M  V30 12128 C 1186.96 3.61752 1.03983 0
M  V30 12129 C 1186.1 2.77159 0.088434 0
M  V30 12130 H 1189.05 1.53072 -0.418871 0
M  V30 12131 H 1189.07 3.52519 1.43216 0
M  V30 12132 H 1188.59 3.86419 -0.360813 0
M  V30 12133 H 1186.69 3.14515 1.99778 0
M  V30 12134 H 1186.8 4.69937 0.932549 0
M  V30 12135 H 1185.16 2.47765 0.590317 0
M  V30 12136 H 1185.95 3.32619 -0.849682 0
M  V30 12137 N 1188.39 -0.0785156 1.57404 0
M  V30 12138 C 1189.67 -0.811557 1.77969 0
M  V30 12139 C 1190.05 -1.96123 0.780966 0
M  V30 12140 O 1189.4 -2.27731 -0.18726 0
M  V30 12141 C 1189.61 -1.29075 3.24254 0
M  V30 12142 C 1190.96 -1.72685 3.87898 0
M  V30 12143 O 1191.98 -1.38658 3.28104 0
M  V30 12144 O 1190.84 -2.3566 4.93079 0
M  V30 12145 H 1187.93 -0.388361 0.73014 0
M  V30 12146 H 1190.48 -0.0591118 1.69597 0
M  V30 12147 H 1189.25 -0.467813 3.88494 0
M  V30 12148 H 1188.87 -2.10472 3.37324 0
M  V30 12149 N 1189.87 -1.5367 -0.349747 0
M  V30 12150 C 1190.8 -1.84208 -1.43492 0
M  V30 12151 C 1191.78 -0.696725 -1.55177 0
M  V30 12152 O 1192.97 -0.948061 -1.69486 0
M  V30 12153 C 1190.1 -2.04613 -2.80625 0
M  V30 12154 C 1189.05 -3.20419 -2.83753 0
M  V30 12155 C 1188.38 -3.26147 -4.23713 0
M  V30 12156 C 1189.68 -4.58666 -2.49846 0
M  V30 12157 H 1191.37 -2.75087 -1.18185 0
M  V30 12158 H 1188.92 -1.32363 -0.567101 0
M  V30 12159 H 1190.87 -2.2456 -3.56582 0
M  V30 12160 H 1189.59 -1.10459 -3.07354 0
M  V30 12161 H 1188.25 -3.00318 -2.10249 0
M  V30 12162 H 1187.9 -2.29599 -4.47541 0
M  V30 12163 H 1187.6 -4.03963 -4.26717 0
M  V30 12164 H 1189.12 -3.48296 -5.0152 0
M  V30 12165 H 1190.54 -4.78668 -3.15516 0
M  V30 12166 H 1188.94 -5.3884 -2.64144 0
M  V30 12167 H 1190.01 -4.62697 -1.4505 0
M  V30 12168 N 1191.35 0.610423 -1.45298 0
M  V30 12169 C 1192.76 1.19234 -1.43667 0
M  V30 12170 C 1193.11 1.95523 -0.162794 0
M  V30 12171 O 1192.24 2.03507 0.735789 0
M  V30 12172 C 1192.83 2.16892 -2.60276 0
M  V30 12173 C 1191.39 2.70465 -2.61774 0
M  V30 12174 C 1190.54 1.45821 -2.35863 0
M  V30 12175 H 1193.49 0.399895 -1.53579 0
M  V30 12176 H 1193.51 2.99875 -2.34212 0
M  V30 12177 H 1193.02 1.61339 -3.52975 0
M  V30 12178 H 1191.12 3.29965 -1.73072 0
M  V30 12179 H 1191.23 3.15092 -3.60907 0
M  V30 12180 H 1189.6 1.74678 -1.85364 0
M  V30 12181 H 1190.38 0.921403 -3.30704 0
M  V30 12182 N 1192.83 1.32541 0.852676 0
M  V30 12183 C 1193.74 1.23646 1.99371 0
M  V30 12184 C 1194.75 0.149673 1.73355 0
M  V30 12185 O 1195.93 0.370716 1.97959 0
M  V30 12186 C 1192.99 0.961873 3.3309 0
M  V30 12187 C 1192.05 2.1373 3.72315 0
M  V30 12188 C 1191.29 1.87572 4.99652 0
M  V30 12189 O 1191.51 0.819247 5.64486 0
M  V30 12190 O 1190.44 2.73732 5.36054 0
M  V30 12191 H 1194.27 2.19573 2.09813 0
M  V30 12192 H 1191.86 1.12451 0.983627 0
M  V30 12193 H 1193.74 0.825316 4.13239 0
M  V30 12194 H 1192.41 0.0327745 3.23683 0
M  V30 12195 H 1191.32 2.32933 2.92733 0
M  V30 12196 H 1192.65 3.04925 3.86369 0
M  V30 12197 N 1194.3 -1.0692 1.15784 0
M  V30 12198 C 1195.24 -2.13637 0.802141 0
M  V30 12199 C 1196.22 -1.61058 -0.223384 0
M  V30 12200 O 1197.4 -1.88185 -0.108927 0
M  V30 12201 C 1194.53 -3.38146 0.193568 0
M  V30 12202 C 1193.57 -4.09513 1.19169 0
M  V30 12203 S 1194.41 -4.60351 2.73564 0
M  V30 12204 C 1195.56 -5.88129 2.14138 0
M  V30 12205 H 1195.79 -2.4348 1.70601 0
M  V30 12206 H 1193.33 -1.19259 0.980646 0
M  V30 12207 H 1195.29 -4.10222 -0.151106 0
M  V30 12208 H 1193.95 -3.06473 -0.687968 0
M  V30 12209 H 1193.14 -4.98914 0.714183 0
M  V30 12210 H 1192.74 -3.43422 1.48113 0
M  V30 12211 H 1195.03 -6.60547 1.50614 0
M  V30 12212 H 1195.98 -6.406 3.01724 0
M  V30 12213 H 1196.38 -5.41859 1.5827 0
M  V30 12214 N 1195.78 -0.955326 -1.25345 0
M  V30 12215 C 1196.71 -0.494145 -2.28211 0
M  V30 12216 C 1197.69 0.459875 -1.63766 0
M  V30 12217 O 1198.88 0.358679 -1.90859 0
M  V30 12218 C 1196.01 0.228228 -3.46549 0
M  V30 12219 C 1194.96 -0.640601 -4.23179 0
M  V30 12220 C 1194.29 0.212553 -5.34277 0
M  V30 12221 C 1195.59 -1.91906 -4.85767 0
M  V30 12222 H 1197.28 -1.35391 -2.67039 0
M  V30 12223 H 1194.83 -0.652462 -1.2837 0
M  V30 12224 H 1196.78 0.561995 -4.17636 0
M  V30 12225 H 1195.51 1.12224 -3.06714 0
M  V30 12226 H 1194.16 -0.957462 -3.53876 0
M  V30 12227 H 1193.81 1.10634 -4.90682 0
M  V30 12228 H 1193.51 -0.365473 -5.86462 0
M  V30 12229 H 1195.04 0.541271 -6.08196 0
M  V30 12230 H 1196.45 -1.65165 -5.48993 0
M  V30 12231 H 1194.85 -2.44279 -5.48131 0
M  V30 12232 H 1195.92 -2.62173 -4.07914 0
M  V30 12233 N 1197.26 1.39987 -0.723979 0
M  V30 12234 C 1198.54 1.94637 -0.1939 0
M  V30 12235 C 1198.92 1.66156 1.30212 0
M  V30 12236 O 1198.27 0.983783 2.06238 0
M  V30 12237 C 1198.48 3.4517 -0.515652 0
M  V30 12238 C 1199.82 4.22113 -0.458919 0
M  V30 12239 O 1200.85 3.53318 -0.452198 0
M  V30 12240 O 1199.71 5.44695 -0.443783 0
M  V30 12241 H 1196.8 0.826394 -0.0316615 0
M  V30 12242 H 1199.35 1.49548 -0.802085 0
M  V30 12243 H 1198.12 3.5929 -1.55004 0
M  V30 12244 H 1197.74 3.97413 0.122067 0
M  V30 12245 N 1198.74 0.470782 1.50404 0
M  V30 12246 C 1199.67 -0.313458 2.31386 0
M  V30 12247 C 1200.65 -0.990623 1.38278 0
M  V30 12248 O 1201.84 -0.987854 1.67198 0
M  V30 12249 C 1198.97 -1.39599 3.18009 0
M  V30 12250 C 1197.92 -0.840443 4.19667 0
M  V30 12251 C 1197.25 -2.02124 4.95025 0
M  V30 12252 C 1198.55 0.148055 5.2209 0
M  V30 12253 H 1200.24 0.362432 2.97198 0
M  V30 12254 H 1197.79 0.175745 1.42924 0
M  V30 12255 H 1199.74 -1.9521 3.73458 0
M  V30 12256 H 1198.46 -2.10064 2.50081 0
M  V30 12257 H 1197.12 -0.306302 3.65318 0
M  V30 12258 H 1196.77 -2.71286 4.23571 0
M  V30 12259 H 1196.47 -1.65574 5.6379 0
M  V30 12260 H 1197.99 -2.58226 5.5331 0
M  V30 12261 H 1199.41 -0.318874 5.72413 0
M  V30 12262 H 1197.8 0.427811 5.98573 0
M  V30 12263 H 1198.87 1.07404 4.72855 0
M  V30 12264 N 1200.22 -1.56282 0.203376 0
M  V30 12265 C 1201.18 -2.18233 -0.700489 0
M  V30 12266 C 1202.18 -1.13908 -1.13497 0
M  V30 12267 O 1203.37 -1.39246 -1.04672 0
M  V30 12268 C 1200.5 -2.79107 -1.95735 0
M  V30 12269 H 1201.7 -2.99469 -0.160649 0
M  V30 12270 H 1199.25 -1.56232 -0.0462475 0
M  V30 12271 H 1199.98 -2.01691 -2.53951 0
M  V30 12272 H 1199.77 -3.55486 -1.65446 0
M  V30 12273 H 1201.26 -3.2665 -2.60172 0
M  V30 12274 N 1201.7 0.070167 -1.57444 0
M  V30 12275 C 1202.94 0.767495 -1.8696 0
M  V30 12276 C 1203.26 1.78032 -0.795595 0
M  V30 12277 O 1202.53 1.95112 0.175566 0
M  V30 12278 H 1201.11 0.286443 -0.689898 0
M  V30 12279 H 1203.78 0.0458692 -1.94846 0
M  V30 12280 H 1202.87 1.28269 -2.84523 0
M  V30 12281 N 1203.17 1.53854 0.341593 0
M  V30 12282 C 1204.4 1.75134 1.10162 0
M  V30 12283 C 1204.82 0.491415 1.82292 0
M  V30 12284 O 1204.17 -0.53703 1.7442 0
M  V30 12285 C 1204.22 2.93273 2.1136 0
M  V30 12286 O 1203.95 4.14393 1.42162 0
M  V30 12287 C 1205.45 3.26621 2.99723 0
M  V30 12288 H 1202.67 0.585126 0.328434 0
M  V30 12289 H 1205.21 2.00684 0.393204 0
M  V30 12290 H 1203.37 2.70048 2.77764 0
M  V30 12291 H 1203.78 4.8072 2.09783 0
M  V30 12292 H 1205.25 4.12629 3.66662 0
M  V30 12293 H 1205.73 2.43008 3.65847 0
M  V30 12294 H 1206.34 3.51858 2.38906 0
M  V30 12295 N 1204.65 -0.602709 1.4562 0
M  V30 12296 C 1206.07 -0.923983 1.30133 0
M  V30 12297 C 1206.27 -1.99842 0.25796 0
M  V30 12298 O 1205.32 -2.50112 -0.346414 0
M  V30 12299 C 1206.64 -1.36029 2.68173 0
M  V30 12300 C 1208.18 -1.47423 2.76108 0
M  V30 12301 C 1208.66 -1.94427 4.14683 0
M  V30 12302 N 1210.15 -2.01653 4.17002 0
M  V30 12303 C 1210.89 -2.39255 5.211 0
M  V30 12304 N 1210.38 -2.75791 6.3554 0
M  V30 12305 N 1212.17 -2.39636 5.08459 0
M  V30 12306 H 1204.33 0.107377 2.12128 0
M  V30 12307 H 1206.59 -0.0146216 0.947887 0
M  V30 12308 H 1206.29 -0.644949 3.45736 0
M  V30 12309 H 1206.17 -2.32584 2.96959 0
M  V30 12310 H 1208.56 -2.18047 1.98845 0
M  V30 12311 H 1208.64 -0.4917 2.5103 0
M  V30 12312 H 1208.28 -1.24389 4.92433 0
M  V30 12313 H 1208.21 -2.93603 4.37156 0
M  V30 12314 H 1210.7 -1.75988 3.3442 0
M  V30 12315 H 1211.01 -3.03378 7.10761 0
M  V30 12316 H 1209.36 -2.73475 6.38934 0
M  V30 12317 H 1212.55 -2.10502 4.18098 0
M  V30 12318 H 1212.72 -2.68614 5.89704 0
M  V30 12319 N 1206.13 -1.32992 -0.845635 0
M  V30 12320 C 1207.35 -1.27231 -1.6379 0
M  V30 12321 C 1207.78 0.155141 -1.87459 0
M  V30 12322 O 1207.14 1.10953 -1.43384 0
M  V30 12323 C 1207.19 -2.04629 -2.96916 0
M  V30 12324 O 1206.29 -1.40027 -3.879 0
M  V30 12325 H 1205.63 -0.438045 -0.499011 0
M  V30 12326 H 1208.16 -1.75448 -1.05257 0
M  V30 12327 H 1208.17 -2.15141 -3.46667 0
M  V30 12328 H 1206.85 -3.08425 -2.79011 0
M  V30 12329 H 1205.42 -1.38118 -3.46378 0
M  V30 12330 N 1207.61 1.06304 -1.1635 0
M  V30 12331 C 1209.02 1.31227 -0.90838 0
M  V30 12332 C 1209.22 1.96665 0.438779 0
M  V30 12333 O 1208.28 2.2332 1.17833 0
M  V30 12334 C 1209.59 2.19303 -2.05734 0
M  V30 12335 C 1211.14 2.3272 -2.09309 0
M  V30 12336 C 1211.62 3.24151 -3.23559 0
M  V30 12337 N 1213.11 3.31734 -3.23275 0
M  V30 12338 C 1213.84 4.02572 -4.08318 0
M  V30 12339 N 1213.34 4.75933 -5.03448 0
M  V30 12340 N 1215.13 3.98621 -3.96305 0
M  V30 12341 H 1207.28 0.622228 -2.03081 0
M  V30 12342 H 1209.54 0.336892 -0.886119 0
M  V30 12343 H 1209.25 1.78497 -3.03037 0
M  V30 12344 H 1209.12 3.19888 -1.99879 0
M  V30 12345 H 1211.51 2.72774 -1.12599 0
M  V30 12346 H 1211.59 1.31804 -2.19229 0
M  V30 12347 H 1211.24 2.84813 -4.20528 0
M  V30 12348 H 1211.17 4.25046 -3.10875 0
M  V30 12349 H 1213.66 2.79453 -2.5439 0
M  V30 12350 H 1213.97 5.27512 -5.64758 0
M  V30 12351 H 1212.32 4.74913 -5.07427 0
M  V30 12352 H 1215.51 3.40427 -3.21289 0
M  V30 12353 H 1215.68 4.5356 -4.62804 0
M  V30 12354 N 1209.09 0.96196 1.24836 0
M  V30 12355 C 1210.02 0.506241 2.27946 0
M  V30 12356 C 1211 -0.451183 1.64007 0
M  V30 12357 O 1212.18 -0.348552 1.91046 0
M  V30 12358 C 1209.31 -0.209846 3.46665 0
M  V30 12359 C 1208.27 0.663035 4.22833 0
M  V30 12360 C 1207.59 -0.184216 5.34383 0
M  V30 12361 C 1208.89 1.94479 4.84742 0
M  V30 12362 H 1210.59 1.36805 2.66317 0
M  V30 12363 H 1208.13 0.65926 1.28023 0
M  V30 12364 H 1210.08 -0.539838 4.17928 0
M  V30 12365 H 1208.81 -1.10596 3.07305 0
M  V30 12366 H 1207.47 0.976216 3.53363 0
M  V30 12367 H 1207.12 -1.08031 4.91262 0
M  V30 12368 H 1206.82 0.39657 5.8626 0
M  V30 12369 H 1208.34 -0.509009 6.08475 0
M  V30 12370 H 1209.75 1.68074 5.48109 0
M  V30 12371 H 1208.15 2.47183 5.46828 0
M  V30 12372 H 1209.22 2.64332 4.06517 0
M  V30 12373 N 1210.56 -1.39601 0.731392 0
M  V30 12374 C 1211.53 -2.28992 0.0976037 0
M  V30 12375 C 1212.53 -1.46135 -0.670917 0
M  V30 12376 O 1213.72 -1.66856 -0.50047 0
M  V30 12377 C 1210.85 -3.29582 -0.871124 0
M  V30 12378 H 1212.04 -2.86541 0.885112 0
M  V30 12379 H 1209.59 -1.48188 0.497002 0
M  V30 12380 H 1210.33 -2.77082 -1.68512 0
M  V30 12381 H 1210.11 -3.9077 -0.322735 0
M  V30 12382 H 1211.6 -3.96479 -1.31126 0
M  V30 12383 N 1212.04 -0.478751 -1.50152 0
M  V30 12384 C 1213.27 0.0732929 -2.0727 0
M  V30 12385 C 1213.69 1.32066 -1.33941 0
M  V30 12386 O 1213.05 1.7707 -0.389367 0
M  V30 12387 C 1213.1 0.332528 -3.59064 0
M  V30 12388 O 1212.2 1.41158 -3.8749 0
M  V30 12389 H 1211.54 -0.0163684 -0.663798 0
M  V30 12390 H 1214.07 -0.671993 -1.9325 0
M  V30 12391 H 1214.08 0.570735 -4.03988 0
M  V30 12392 H 1212.76 -0.578934 -4.11851 0
M  V30 12393 H 1211.34 1.16008 -3.54396 0
M  V30 12394 N 1213.52 1.56172 -0.211661 0
M  V30 12395 C 1214.77 1.98332 0.423332 0
M  V30 12396 C 1215.1 1.09895 1.60115 0
M  V30 12397 O 1214.37 0.154477 1.93886 0
M  V30 12398 C 1214.66 3.49495 0.86747 0
M  V30 12399 C 1214.51 4.48708 -0.313302 0
M  V30 12400 C 1215.83 4.04793 1.72716 0
M  V30 12401 H 1212.95 0.72107 0.152402 0
M  V30 12402 H 1215.59 1.87521 -0.305912 0
M  V30 12403 H 1213.74 3.58839 1.48885 0
M  V30 12404 H 1215.41 4.51385 -0.951291 0
M  V30 12405 H 1213.66 4.2299 -0.96238 0
M  V30 12406 H 1214.33 5.51985 0.0402402 0
M  V30 12407 H 1216.8 3.98332 1.20296 0
M  V30 12408 H 1215.68 5.10898 2.00684 0
M  V30 12409 H 1215.94 3.51067 2.68709 0
M  V30 12410 N 1215 -0.0618163 1.57479 0
M  V30 12411 C 1216.22 -0.775513 1.92355 0
M  V30 12412 C 1216.65 -1.69816 0.808949 0
M  V30 12413 O 1216.01 -1.79736 -0.23761 0
M  V30 12414 C 1216.05 -1.5367 3.26218 0
M  V30 12415 O 1215.16 -2.64802 3.16155 0
M  V30 12416 H 1214.5 -0.210909 0.629614 0
M  V30 12417 H 1217.03 -0.0270752 2.04582 0
M  V30 12418 H 1217.04 -1.91379 3.6033 0
M  V30 12419 H 1215.71 -0.859798 4.06916 0
M  V30 12420 H 1214.29 -2.29876 2.93618 0
M  V30 12421 N 1216.48 -1.54033 -0.333429 0
M  V30 12422 C 1217.44 -1.82021 -1.39288 0
M  V30 12423 C 1218.44 -0.691623 -1.45166 0
M  V30 12424 O 1219.63 -0.959925 -1.45365 0
M  V30 12425 C 1216.76 -1.97136 -2.78119 0
M  V30 12426 H 1217.95 -2.76671 -1.1573 0
M  V30 12427 H 1215.51 -1.45599 -0.568376 0
M  V30 12428 H 1216.24 -1.04663 -3.06946 0
M  V30 12429 H 1216.03 -2.79251 -2.75247 0
M  V30 12430 H 1217.52 -2.20271 -3.54782 0
M  V30 12431 N 1217.95 0.594978 -1.45938 0
M  V30 12432 C 1219.23 1.35477 -1.41086 0
M  V30 12433 C 1219.61 2.10917 -0.0879512 0
M  V30 12434 O 1218.96 2.08704 0.930323 0
M  V30 12435 C 1219.17 2.29106 -2.63271 0
M  V30 12436 C 1220.52 2.9132 -3.08898 0
M  V30 12437 O 1221.54 2.39423 -2.63733 0
M  V30 12438 O 1220.4 3.85553 -3.87313 0
M  V30 12439 H 1217.49 0.6081 -0.560485 0
M  V30 12440 H 1220.04 0.617016 -1.58085 0
M  V30 12441 H 1218.81 1.72707 -3.51124 0
M  V30 12442 H 1218.44 3.10241 -2.48669 0
M  V30 12443 N 1219.43 1.33438 0.838571 0
M  V30 12444 C 1220.4 1.23632 1.92997 0
M  V30 12445 C 1221.4 0.155302 1.60048 0
M  V30 12446 O 1222.59 0.406852 1.69382 0
M  V30 12447 C 1219.72 0.90512 3.28665 0
M  V30 12448 H 1220.91 2.20643 2.03117 0
M  V30 12449 H 1218.46 1.17501 1.03069 0
M  V30 12450 H 1219.2 -0.0624833 3.2424 0
M  V30 12451 H 1218.98 1.68688 3.53959 0
M  V30 12452 H 1220.47 0.861262 4.08622 0
M  V30 12453 N 1220.91 -1.05686 1.16912 0
M  V30 12454 C 1221.82 -2.16824 0.8958 0
M  V30 12455 C 1222.84 -1.73482 -0.134215 0
M  V30 12456 O 1224.01 -2.01352 0.0438776 0
M  V30 12457 C 1221.08 -3.44298 0.407427 0
M  V30 12458 C 1220.14 -4.02114 1.50342 0
M  V30 12459 C 1219.37 -5.23503 1.03826 0
M  V30 12460 O 1219.59 -5.70295 -0.109579 0
M  V30 12461 O 1218.53 -5.73432 1.8292 0
M  V30 12462 H 1222.35 -2.42725 1.82533 0
M  V30 12463 H 1219.94 -1.15339 0.949589 0
M  V30 12464 H 1221.82 -4.21159 0.142356 0
M  V30 12465 H 1220.5 -3.19908 -0.494009 0
M  V30 12466 H 1219.4 -3.26715 1.82231 0
M  V30 12467 H 1220.74 -4.30811 2.38039 0
M  V30 12468 N 1222.39 -0.968567 -1.24324 0
M  V30 12469 C 1223.63 -0.631863 -1.92705 0
M  V30 12470 C 1223.97 0.83096 -1.75524 0
M  V30 12471 O 1223.24 1.59795 -1.10887 0
M  V30 12472 C 1223.53 -1.00845 -3.45691 0
M  V30 12473 C 1223.38 -2.52803 -3.72036 0
M  V30 12474 C 1224.7 -0.543647 -4.36729 0
M  V30 12475 H 1221.82 -0.231027 -0.699854 0
M  V30 12476 H 1224.46 -1.20773 -1.46676 0
M  V30 12477 H 1222.61 -0.518434 -3.85025 0
M  V30 12478 H 1224.28 -3.09289 -3.42255 0
M  V30 12479 H 1222.52 -2.95963 -3.17157 0
M  V30 12480 H 1223.19 -2.74203 -4.79079 0
M  V30 12481 H 1225.67 -0.964182 -4.04775 0
M  V30 12482 H 1224.55 -0.8357 -5.42501 0
M  V30 12483 H 1224.81 0.556256 -4.38587 0
M  V30 12484 N 1223.87 1.39211 -0.738786 0
M  V30 12485 C 1224.83 2.28937 -0.109746 0
M  V30 12486 C 1225.83 1.46488 0.663157 0
M  V30 12487 O 1227.02 1.67119 0.491614 0
M  V30 12488 C 1224.15 3.30039 0.853633 0
M  V30 12489 H 1225.34 2.86068 -0.900295 0
M  V30 12490 H 1222.9 1.47922 -0.504853 0
M  V30 12491 H 1223.63 2.77971 1.6704 0
M  V30 12492 H 1223.42 3.90935 0.302007 0
M  V30 12493 H 1224.91 3.97169 1.29022 0
M  V30 12494 N 1225.34 0.486708 1.49896 0
M  V30 12495 C 1226.76 0.141788 1.58969 0
M  V30 12496 C 1226.96 -1.35279 1.49338 0
M  V30 12497 O 1226.02 -2.1275 1.35992 0
M  V30 12498 C 1227.33 0.70588 2.92297 0
M  V30 12499 C 1228.88 0.670704 3.0573 0
M  V30 12500 C 1229.35 1.21261 4.41656 0
M  V30 12501 N 1230.84 1.17269 4.4811 0
M  V30 12502 C 1231.58 1.56233 5.51705 0
M  V30 12503 N 1231.07 2.02721 6.62477 0
M  V30 12504 N 1232.87 1.47738 5.42337 0
M  V30 12505 H 1225.02 1.45858 1.544 0
M  V30 12506 H 1227.28 0.604137 0.730563 0
M  V30 12507 H 1226.99 1.7535 3.04869 0
M  V30 12508 H 1226.86 0.158215 3.76868 0
M  V30 12509 H 1229.25 -0.368041 2.92796 0
M  V30 12510 H 1229.33 1.25535 2.22878 0
M  V30 12511 H 1228.97 2.25006 4.5534 0
M  V30 12512 H 1228.9 0.604031 5.23124 0
M  V30 12513 H 1231.39 0.831905 3.6863 0
M  V30 12514 H 1231.71 2.3056 7.37606 0
M  V30 12515 H 1230.05 2.06686 6.63556 0
M  V30 12516 H 1233.24 1.11249 4.54688 0
M  V30 12517 H 1233.42 1.78429 6.2295 0
M  V30 12518 N 1226.82 -1.56058 0.219941 0
M  V30 12519 C 1228.24 -1.59024 -0.135476 0
M  V30 12520 C 1228.44 -1.23672 -1.59083 0
M  V30 12521 O 1227.5 -0.971197 -2.33075 0
M  V30 12522 C 1228.81 -3.00103 0.189356 0
M  V30 12523 C 1230.36 -3.12724 0.131463 0
M  V30 12524 C 1230.83 -4.55977 0.429947 0
M  V30 12525 N 1232.32 -4.61643 0.37946 0
M  V30 12526 C 1233.06 -5.70419 0.58393 0
M  V30 12527 N 1232.55 -6.87565 0.850088 0
M  V30 12528 N 1234.35 -5.59722 0.516477 0
M  V30 12529 H 1226.5 -1.77313 1.16935 0
M  V30 12530 H 1228.76 -0.824096 0.468583 0
M  V30 12531 H 1228.47 -3.30616 1.19941 0
M  V30 12532 H 1228.34 -3.73919 -0.49641 0
M  V30 12533 H 1230.73 -2.82008 -0.869223 0
M  V30 12534 H 1230.81 -2.41241 0.85068 0
M  V30 12535 H 1230.45 -4.8741 1.42806 0
M  V30 12536 H 1230.38 -5.25684 -0.310444 0
M  V30 12537 H 1232.87 -3.77465 0.181373 0
M  V30 12538 H 1233.19 -7.66378 0.994251 0
M  V30 12539 H 1231.53 -6.89313 0.887265 0
M  V30 12540 H 1234.72 -4.6708 0.308784 0
M  V30 12541 H 1234.9 -6.4443 0.679236 0
M  V30 12542 N 1228.3 0.053464 -1.57509 0
M  V30 12543 C 1229.25 1.06155 -2.04939 0
M  V30 12544 C 1230.22 1.37382 -0.93357 0
M  V30 12545 O 1231.4 1.48137 -1.2025 0
M  V30 12546 C 1228.54 2.36476 -2.51343 0
M  V30 12547 C 1227.66 2.1162 -3.76618 0
M  V30 12548 C 1226.79 3.35636 -4.11731 0
M  V30 12549 C 1225.83 3.06226 -5.29993 0
M  V30 12550 N 1224.97 4.22623 -5.60655 0
M  V30 12551 H 1229.81 0.650122 -2.90822 0
M  V30 12552 H 1227.34 0.309421 -1.43809 0
M  V30 12553 H 1229.3 3.12588 -2.76306 0
M  V30 12554 H 1227.93 2.75386 -1.68411 0
M  V30 12555 H 1226.98 1.26116 -3.58886 0
M  V30 12556 H 1228.3 1.85909 -4.6286 0
M  V30 12557 H 1227.45 4.20132 -4.37692 0
M  V30 12558 H 1226.19 3.64439 -3.24092 0
M  V30 12559 H 1225.19 2.20128 -5.03809 0
M  V30 12560 H 1226.42 2.78726 -6.19265 0
M  V30 12561 H 1224.37 4.51424 -4.75976 0
M  V30 12562 H 1224.28 4.0025 -6.41355 0
M  V30 12563 H 1225.55 5.08063 -5.91178 0
M  V30 12564 N 1229.78 1.54207 0.325255 0
M  V30 12565 C 1231 1.7661 1.08736 0
M  V30 12566 C 1231.43 0.512449 1.80985 0
M  V30 12567 O 1230.79 -0.535913 1.73198 0
M  V30 12568 C 1230.84 2.95797 2.06243 0
M  V30 12569 O 1229.94 2.67225 3.14109 0
M  V30 12570 H 1229.28 0.585282 0.313593 0
M  V30 12571 H 1231.81 2.01225 0.370066 0
M  V30 12572 H 1231.82 3.23097 2.49143 0
M  V30 12573 H 1230.5 3.86712 1.53058 0
M  V30 12574 H 1229.07 2.50869 2.75897 0
M  V30 12575 N 1231.26 -0.58723 1.46251 0
M  V30 12576 C 1232.5 -1.3476 1.51551 0
M  V30 12577 C 1232.84 -1.93499 0.16483 0
M  V30 12578 O 1232.11 -1.7622 -0.823207 0
M  V30 12579 C 1232.39 -2.48033 2.61059 0
M  V30 12580 C 1232.25 -1.94358 4.05642 0
M  V30 12581 C 1233.57 -3.50096 2.66685 0
M  V30 12582 H 1230.69 -0.48863 0.551733 0
M  V30 12583 H 1233.33 -0.660097 1.78165 0
M  V30 12584 H 1231.48 -3.06679 2.38496 0
M  V30 12585 H 1233.15 -1.40204 4.39478 0
M  V30 12586 H 1231.39 -1.25217 4.15335 0
M  V30 12587 H 1232.06 -2.76105 4.77986 0
M  V30 12588 H 1234.54 -3.01324 2.86955 0
M  V30 12589 H 1233.42 -4.26817 3.45135 0
M  V30 12590 H 1233.68 -4.07032 1.7256 0
M  V30 12591 N 1232.74 -1.33881 -0.831482 0
M  V30 12592 C 1234.15 -1.23112 -1.40358 0
M  V30 12593 C 1234.5 0.146944 -1.95649 0
M  V30 12594 O 1233.62 1.04689 -1.89391 0
M  V30 12595 C 1234.22 -2.22899 -2.5515 0
M  V30 12596 C 1232.78 -2.15946 -3.08292 0
M  V30 12597 C 1231.92 -2.09975 -1.81124 0
M  V30 12598 H 1234.87 -1.45372 -0.63661 0
M  V30 12599 H 1234.9 -1.841 -3.32997 0
M  V30 12600 H 1234.41 -3.23186 -2.14878 0
M  V30 12601 H 1232.51 -1.18987 -3.53091 0
M  V30 12602 H 1232.62 -3.06822 -3.67964 0
M  V30 12603 H 1230.99 -1.55564 -2.01673 0
M  V30 12604 H 1231.77 -3.12082 -1.43037 0
M  V30 12605 N 1234.21 1.05064 -1.1747 0
M  V30 12606 C 1235.44 1.82299 -0.98903 0
M  V30 12607 C 1235.86 1.82441 0.457907 0
M  V30 12608 O 1235.22 1.23433 1.32793 0
M  V30 12609 C 1235.27 3.26239 -1.53624 0
M  V30 12610 O 1234.37 4.05507 -0.750857 0
M  V30 12611 H 1233.71 0.563601 -0.35107 0
M  V30 12612 H 1236.24 1.32386 -1.55997 0
M  V30 12613 H 1236.25 3.77038 -1.55906 0
M  V30 12614 H 1234.93 3.25451 -2.58949 0
M  V30 12615 H 1233.51 3.64227 -0.799548 0
M  V30 12616 N 1235.69 0.975146 1.23809 0
M  V30 12617 C 1236.6 0.51917 2.28783 0
M  V30 12618 C 1237.62 -0.423487 1.68768 0
M  V30 12619 O 1238.79 -0.294699 1.99232 0
M  V30 12620 C 1235.86 -0.176229 3.46252 0
M  V30 12621 C 1234.92 0.807177 4.21643 0
M  V30 12622 C 1234.15 0.144869 5.33503 0
M  V30 12623 O 1234.38 -1.06522 5.60365 0
M  V30 12624 O 1233.31 0.84079 5.95999 0
M  V30 12625 H 1237.14 1.39204 2.69919 0
M  V30 12626 H 1234.72 0.74253 1.29641 0
M  V30 12627 H 1236.6 -0.566547 4.17574 0
M  V30 12628 H 1235.28 -1.02394 3.07078 0
M  V30 12629 H 1234.18 1.2481 3.52666 0
M  V30 12630 H 1235.52 1.62354 4.64653 0
M  V30 12631 N 1237.17 -1.38817 0.746158 0
M  V30 12632 C 1238.4 -2.0457 0.309605 0
M  V30 12633 C 1238.81 -1.5627 -1.05948 0
M  V30 12634 O 1238.17 -0.73248 -1.67156 0
M  V30 12635 C 1238.22 -3.60126 0.314843 0
M  V30 12636 O 1237.94 -4.06652 1.6299 0
M  V30 12637 C 1239.44 -4.4309 -0.136497 0
M  V30 12638 H 1236.66 -0.657597 0.133441 0
M  V30 12639 H 1239.21 -1.77651 1.01293 0
M  V30 12640 H 1237.36 -3.85908 -0.339685 0
M  V30 12641 H 1237.78 -5.01042 1.55103 0
M  V30 12642 H 1239.25 -5.5194 -0.0816714 0
M  V30 12643 H 1239.73 -4.22959 -1.18332 0
M  V30 12644 H 1240.33 -4.22481 0.488879 0
M  V30 12645 N 1238.65 -0.49465 -1.49636 0
M  V30 12646 C 1239.89 0.0521945 -2.02733 0
M  V30 12647 C 1240.23 1.3723 -1.37411 0
M  V30 12648 O 1239.5 1.87758 -0.507642 0
M  V30 12649 C 1239.78 0.2114 -3.59479 0
M  V30 12650 C 1239.64 -1.13138 -4.35339 0
M  V30 12651 C 1240.96 0.955015 -4.29613 0
M  V30 12652 H 1238.08 0.0174946 -0.736792 0
M  V30 12653 H 1240.72 -0.644827 -1.78723 0
M  V30 12654 H 1238.87 0.805078 -3.80067 0
M  V30 12655 H 1240.54 -1.76345 -4.26263 0
M  V30 12656 H 1238.78 -1.72224 -3.98147 0
M  V30 12657 H 1239.45 -0.97336 -5.4335 0
M  V30 12658 H 1241.93 0.451575 -4.13642 0
M  V30 12659 H 1240.81 1.03524 -5.39049 0
M  V30 12660 H 1241.07 1.99724 -3.94414 0
M  V30 12661 N 1240.13 1.55939 -0.228214 0
M  V30 12662 C 1241.37 1.9877 0.402272 0
M  V30 12663 C 1241.7 1.11587 1.5894 0
M  V30 12664 O 1240.98 0.175032 1.93711 0
M  V30 12665 C 1241.26 3.50396 0.830353 0
M  V30 12666 C 1241.12 4.4835 -0.360876 0
M  V30 12667 C 1242.43 4.06602 1.68413 0
M  V30 12668 H 1239.55 0.722646 0.144746 0
M  V30 12669 H 1242.2 1.87186 -0.325784 0
M  V30 12670 H 1240.35 3.60398 1.4507 0
M  V30 12671 H 1242.02 4.5035 -0.999113 0
M  V30 12672 H 1240.26 4.21946 -1.00719 0
M  V30 12673 H 1240.93 5.51997 -0.0183074 0
M  V30 12674 H 1243.41 3.99585 1.16064 0
M  V30 12675 H 1242.28 5.12998 1.95254 0
M  V30 12676 H 1242.54 3.53897 2.64971 0
M  V30 12677 N 1241.6 -0.0451101 1.57535 0
M  V30 12678 C 1242.51 -1.06796 2.08882 0
M  V30 12679 C 1243.53 -1.40682 1.02394 0
M  V30 12680 O 1244.71 -1.50324 1.34033 0
M  V30 12681 C 1241.77 -2.35467 2.54472 0
M  V30 12682 C 1240.83 -2.0831 3.75374 0
M  V30 12683 C 1240.07 -3.30846 4.1878 0
M  V30 12684 O 1240.29 -4.40945 3.61834 0
M  V30 12685 O 1239.22 -3.17488 5.11356 0
M  V30 12686 H 1243.05 -0.661658 2.96405 0
M  V30 12687 H 1240.63 -0.26104 1.47102 0
M  V30 12688 H 1242.52 -3.11143 2.84198 0
M  V30 12689 H 1241.19 -2.75425 1.70068 0
M  V30 12690 H 1240.1 -1.30254 3.50692 0
M  V30 12691 H 1241.43 -1.73218 4.60713 0
M  V30 12692 N 1243.08 -1.54377 -0.317073 0
M  V30 12693 C 1244.36 -1.63551 -1.07287 0
M  V30 12694 C 1244.74 -0.473499 -2.05721 0
M  V30 12695 O 1244.09 0.531545 -2.22232 0
M  V30 12696 C 1244.3 -3.00842 -1.76904 0
M  V30 12697 C 1245.65 -3.57111 -2.29689 0
M  V30 12698 O 1246.67 -3.0319 -1.86961 0
M  V30 12699 O 1245.53 -4.51486 -3.07932 0
M  V30 12700 H 1242.62 -0.662557 -0.494922 0
M  V30 12701 H 1245.17 -1.66723 -0.316444 0
M  V30 12702 H 1243.94 -3.76854 -1.05341 0
M  V30 12703 H 1243.56 -3.01377 -2.59341 0
M  V30 12704 N 1244.56 0.579466 -1.4656 0
M  V30 12705 C 1245.79 1.36837 -1.55854 0
M  V30 12706 C 1246.21 1.87019 -0.20141 0
M  V30 12707 O 1245.57 1.61746 0.81901 0
M  V30 12708 C 1245.62 2.52965 -2.56985 0
M  V30 12709 O 1244.72 3.54505 -2.10713 0
M  V30 12710 H 1244.06 0.407379 -0.524345 0
M  V30 12711 H 1246.59 0.702558 -1.9216 0
M  V30 12712 H 1246.6 2.99838 -2.76697 0
M  V30 12713 H 1245.28 2.15793 -3.55536 0
M  V30 12714 H 1243.85 3.14089 -2.01003 0
M  V30 12715 N 1246.04 1.3432 0.824371 0
M  V30 12716 C 1247.45 1.1397 1.11727 0
M  V30 12717 C 1247.65 -0.0597597 2.01411 0
M  V30 12718 O 1246.71 -0.735717 2.41544 0
M  V30 12719 C 1248.02 2.43423 1.76538 0
M  V30 12720 C 1249.57 2.49466 1.89039 0
M  V30 12721 C 1250.05 3.78917 2.57266 0
M  V30 12722 N 1251.54 3.8007 2.64767 0
M  V30 12723 C 1252.27 4.76953 3.18282 0
M  V30 12724 N 1251.77 5.84217 3.72373 0
M  V30 12725 N 1253.56 4.6441 3.1667 0
M  V30 12726 H 1245.71 2.11175 0.227802 0
M  V30 12727 H 1247.98 0.933774 0.163615 0
M  V30 12728 H 1247.68 3.31278 1.18102 0
M  V30 12729 H 1247.56 2.56655 2.7642 0
M  V30 12730 H 1249.94 1.62052 2.46623 0
M  V30 12731 H 1250.02 2.40163 0.880635 0
M  V30 12732 H 1249.67 4.6672 2.00336 0
M  V30 12733 H 1249.6 3.85502 3.58742 0
M  V30 12734 H 1252.09 3.02556 2.26425 0
M  V30 12735 H 1252.4 6.54159 4.11455 0
M  V30 12736 H 1250.75 5.87933 3.70621 0
M  V30 12737 H 1253.94 3.7976 2.73678 0
M  V30 12738 H 1254.11 5.40081 3.58073 0
M  V30 12739 N 1247.52 -1.0444 1.18026 0
M  V30 12740 C 1248.74 -1.81234 0.998089 0
M  V30 12741 C 1249.16 -1.83271 -0.453559 0
M  V30 12742 O 1248.52 -1.26545 -1.31502 0
M  V30 12743 C 1248.57 -3.27007 1.54106 0
M  V30 12744 O 1248.29 -3.25174 2.93587 0
M  V30 12745 C 1249.79 -4.20461 1.40455 0
M  V30 12746 H 1247.01 -0.57085 0.352663 0
M  V30 12747 H 1249.55 -1.31649 1.56489 0
M  V30 12748 H 1247.71 -3.73837 1.01611 0
M  V30 12749 H 1248.12 -4.16466 3.18836 0
M  V30 12750 H 1249.6 -5.20695 1.83249 0
M  V30 12751 H 1250.07 -4.37781 0.352713 0
M  V30 12752 H 1250.68 -3.79493 1.92004 0
M  V30 12753 N 1248.99 -0.981699 -1.2329 0
M  V30 12754 C 1250.24 -0.650015 -1.91361 0
M  V30 12755 C 1250.56 0.819184 -1.76959 0
M  V30 12756 O 1249.83 1.5861 -1.14977 0
M  V30 12757 H 1248.41 -0.237427 -0.708264 0
M  V30 12758 H 1251.08 -1.24579 -1.49887 0
M  V30 12759 H 1250.17 -0.902772 -2.98758 0
M  V30 12760 N 1250.47 1.3842 -0.753509 0
M  V30 12761 C 1251.4 2.33073 -0.141198 0
M  V30 12762 C 1252.38 1.54863 0.70367 0
M  V30 12763 O 1253.57 1.8318 0.644872 0
M  V30 12764 C 1250.7 3.39043 0.752802 0
M  V30 12765 C 1249.65 4.27999 0.0106692 0
M  V30 12766 C 1248.98 5.24824 1.02291 0
M  V30 12767 C 1250.28 5.09308 -1.15768 0
M  V30 12768 H 1251.97 2.84528 -0.93188 0
M  V30 12769 H 1249.52 1.36802 -0.449567 0
M  V30 12770 H 1251.47 4.04224 1.19083 0
M  V30 12771 H 1250.2 2.8607 1.57581 0
M  V30 12772 H 1248.85 3.64323 -0.407939 0
M  V30 12773 H 1248.5 4.68139 1.83998 0
M  V30 12774 H 1248.2 5.85196 0.53101 0
M  V30 12775 H 1249.73 5.92882 1.46026 0
M  V30 12776 H 1251.14 5.6773 -0.797203 0
M  V30 12777 H 1249.54 5.78914 -1.58044 0
M  V30 12778 H 1250.61 4.43051 -1.97062 0
M  V30 12779 N 1251.95 0.502579 1.49372 0
M  V30 12780 C 1253.36 0.055187 1.86618 0
M  V30 12781 C 1253.71 -1.35938 1.41476 0
M  V30 12782 O 1252.84 -2.01333 0.793338 0
M  V30 12783 C 1253.43 0.0933734 3.38671 0
M  V30 12784 C 1251.99 -0.298685 3.75213 0
M  V30 12785 C 1251.14 0.465216 2.7337 0
M  V30 12786 H 1254.09 0.715281 1.41667 0
M  V30 12787 H 1254.11 -0.701549 3.73977 0
M  V30 12788 H 1253.62 1.12303 3.71497 0
M  V30 12789 H 1251.72 -1.33151 3.47996 0
M  V30 12790 H 1251.84 0.0218637 4.79095 0
M  V30 12791 H 1250.2 -0.0851469 2.54558 0
M  V30 12792 H 1250.98 1.49498 3.09039 0
M  V30 12793 N 1253.43 -1.55816 0.23648 0
M  V30 12794 C 1254.84 -1.84757 -0.268622 0
M  V30 12795 C 1255.19 -1.15815 -1.58371 0
M  V30 12796 O 1254.32 -0.432923 -2.12025 0
M  V30 12797 C 1254.91 -3.35177 -0.494167 0
M  V30 12798 C 1253.47 -3.64382 -0.943551 0
M  V30 12799 C 1252.62 -2.77296 -0.0149191 0
M  V30 12800 H 1255.57 -1.51908 0.459308 0
M  V30 12801 H 1255.59 -3.56192 -1.3382 0
M  V30 12802 H 1255.1 -3.85327 0.463138 0
M  V30 12803 H 1253.2 -3.19701 -1.91369 0
M  V30 12804 H 1253.31 -4.72244 -0.807626 0
M  V30 12805 H 1251.68 -2.49243 -0.524419 0
M  V30 12806 H 1252.46 -3.30249 0.937571 0
M  V30 12807 N 1254.91 0.036755 -1.57557 0
M  V30 12808 C 1256.15 0.730186 -1.89199 0
M  V30 12809 C 1256.49 1.75414 -0.833271 0
M  V30 12810 O 1255.76 1.93901 0.152579 0
M  V30 12811 C 1256.04 1.40669 -3.31488 0
M  V30 12812 C 1255.9 0.396764 -4.48047 0
M  V30 12813 C 1257.22 2.34268 -3.72567 0
M  V30 12814 H 1254.33 0.263983 -0.6881 0
M  V30 12815 H 1256.98 -0.0069847 -1.89999 0
M  V30 12816 H 1255.13 2.03502 -3.30937 0
M  V30 12817 H 1256.8 -0.229062 -4.60731 0
M  V30 12818 H 1255.04 -0.284698 -4.32865 0
M  V30 12819 H 1255.71 0.908436 -5.44474 0
M  V30 12820 H 1258.19 1.81485 -3.74436 0
M  V30 12821 H 1257.06 2.78587 -4.72949 0
M  V30 12822 H 1257.33 3.20611 -3.04403 0
M  V30 12823 N 1256.39 1.54543 0.308881 0
M  V30 12824 C 1257.61 1.77431 1.06422 0
M  V30 12825 C 1258.03 0.529972 1.81209 0
M  V30 12826 O 1257.39 -0.499912 1.7552 0
M  V30 12827 C 1257.44 2.9769 2.05092 0
M  V30 12828 O 1257.16 4.17315 1.33341 0
M  V30 12829 C 1258.66 3.32905 2.92727 0
M  V30 12830 H 1255.88 0.591961 0.315948 0
M  V30 12831 H 1258.42 2.01473 0.350547 0
M  V30 12832 H 1256.58 2.7588 2.71973 0
M  V30 12833 H 1256.99 4.85061 1.99539 0
M  V30 12834 H 1258.47 4.20314 3.57827 0
M  V30 12835 H 1258.94 2.50713 3.6061 0
M  V30 12836 H 1259.55 3.56847 2.31388 0
M  V30 12837 N 1257.86 -0.571685 1.46866 0
M  V30 12838 C 1259.14 -1.33216 1.43223 0
M  V30 12839 C 1259.52 -2.1075 0.121495 0
M  V30 12840 O 1258.87 -2.10157 -0.897003 0
M  V30 12841 C 1259.08 -2.24888 2.66882 0
M  V30 12842 C 1260.43 -2.86369 3.13493 0
M  V30 12843 O 1261.45 -2.35197 2.67509 0
M  V30 12844 O 1260.31 -3.79342 3.93398 0
M  V30 12845 H 1257.4 -0.599106 0.570089 0
M  V30 12846 H 1259.95 -0.591788 1.59047 0
M  V30 12847 H 1258.72 -1.67099 3.53827 0
M  V30 12848 H 1258.34 -3.06246 2.53573 0
M  V30 12849 N 1259.34 -1.34755 -0.817236 0
M  V30 12850 C 1260.25 -1.28888 -1.96023 0
M  V30 12851 C 1261.27 -0.195582 -1.72897 0
M  V30 12852 O 1262.44 -0.423071 -1.96906 0
M  V30 12853 C 1259.51 -1.04985 -3.30423 0
M  V30 12854 C 1258.57 -2.23526 -3.66517 0
M  V30 12855 C 1257.8 -2.00753 -4.94504 0
M  V30 12856 O 1258.03 -0.968622 -5.62116 0
M  V30 12857 O 1256.96 -2.87848 -5.28608 0
M  V30 12858 H 1260.79 -2.25059 -2.03917 0
M  V30 12859 H 1258.37 -1.15019 -0.953467 0
M  V30 12860 H 1260.25 -0.934589 -4.10906 0
M  V30 12861 H 1258.93 -0.118582 -3.23483 0
M  V30 12862 H 1257.83 -2.40613 -2.86455 0
M  V30 12863 H 1259.17 -3.15062 -3.78149 0
M  V30 12864 N 1260.82 1.03812 -1.18578 0
M  V30 12865 C 1261.77 2.13994 -0.911563 0
M  V30 12866 C 1262.76 1.68907 0.129131 0
M  V30 12867 O 1263.97 1.7999 -0.0192557 0
M  V30 12868 H 1260.34 0.698996 -0.277324 0
M  V30 12869 H 1262.31 2.34318 -1.84763 0
M  V30 12870 C 1261.06 3.44689 -0.456591 0
M  V30 12871 H 1260.39 3.79793 -1.2489 0
M  V30 12872 H 1261.83 4.22911 -0.303738 0
M  V30 12873 C 1260.28 3.26568 0.827961 0
M  V30 12874 O 1260.81 3.54376 1.89158 0
M  V30 12875 N 1259.02 2.79893 0.781567 0
M  V30 12876 H 1258.57 2.57462 -0.0842145 0
M  V30 12877 H 1258.53 2.68148 1.64146 0
M  V30 12878 N 1262.3 0.988223 1.22768 0
M  V30 12879 C 1263.25 0.505913 2.22316 0
M  V30 12880 C 1264.23 -0.423346 1.55231 0
M  V30 12881 O 1265.42 -0.250927 1.75212 0
M  V30 12882 C 1262.55 -0.182707 3.42813 0
M  V30 12883 C 1261.64 0.766582 4.17114 0
M  V30 12884 N 1262.03 1.91248 4.6825 0
M  V30 12885 C 1260.33 0.581503 4.42193 0
M  V30 12886 C 1261.03 2.50793 5.2486 0
M  V30 12887 N 1260 1.79106 5.13247 0
M  V30 12888 H 1263.81 1.37994 2.5949 0
M  V30 12889 H 1261.32 0.849888 1.38386 0
M  V30 12890 H 1263.32 -0.545595 4.13315 0
M  V30 12891 H 1261.98 -1.05292 3.07154 0
M  V30 12892 H 1262.99 2.29342 4.64352 0
M  V30 12893 H 1259.67 -0.243039 4.16792 0
M  V30 12894 H 1261.06 3.47609 5.74994 0
M  V30 12895 N 1263.78 -1.38018 0.760839 0
M  V30 12896 C 1265.02 -2.00248 0.320716 0
M  V30 12897 C 1265.35 -1.60259 -1.09684 0
M  V30 12898 O 1264.63 -0.843567 -1.75255 0
M  V30 12899 C 1264.91 -3.57254 0.451849 0
M  V30 12900 C 1264.77 -4.07185 1.91103 0
M  V30 12901 C 1266.08 -4.39843 -0.150439 0
M  V30 12902 H 1263.2 -0.727491 0.118007 0
M  V30 12903 H 1265.85 -1.63855 0.961842 0
M  V30 12904 H 1264 -3.88386 -0.0939672 0
M  V30 12905 H 1265.67 -3.86665 2.51571 0
M  V30 12906 H 1263.91 -3.59782 2.42362 0
M  V30 12907 H 1264.58 -5.16262 1.9539 0
M  V30 12908 H 1267.06 -4.14905 0.315145 0
M  V30 12909 H 1265.93 -5.48893 -0.0284853 0
M  V30 12910 H 1266.19 -4.24367 -1.23956 0
M  V30 12911 N 1265.25 -0.510493 -1.49103 0
M  V30 12912 C 1266.5 0.0325393 -2.01674 0
M  V30 12913 C 1266.82 1.37162 -1.39448 0
M  V30 12914 O 1268.02 2.00189 -1.83402 0
M  V30 12915 C 1266.48 0.108433 -3.59737 0
M  V30 12916 C 1266.09 -1.22458 -4.30939 0
M  V30 12917 C 1267.83 0.601326 -4.20219 0
M  V30 12918 C 1265.74 -1.11033 -5.80884 0
M  V30 12919 H 1264.67 0.0159333 -0.753832 0
M  V30 12920 H 1267.32 -0.651344 -1.71551 0
M  V30 12921 H 1265.7 0.856974 -3.86616 0
M  V30 12922 H 1266.87 -1.98715 -4.15751 0
M  V30 12923 H 1265.19 -1.65166 -3.82242 0
M  V30 12924 H 1267.79 0.704462 -5.30039 0
M  V30 12925 H 1268.13 1.60247 -3.84222 0
M  V30 12926 H 1268.66 -0.0909561 -3.97696 0
M  V30 12927 H 1265.4 -2.08603 -6.21422 0
M  V30 12928 H 1264.92 -0.388798 -5.98539 0
M  V30 12929 H 1266.6 -0.792949 -6.42123 0
M  V30 12930 N 1266.73 1.55688 -0.24474 0
M  V30 12931 C 1267.98 1.99186 0.381167 0
M  V30 12932 C 1268.31 1.13266 1.57748 0
M  V30 12933 O 1267.59 0.195568 1.93514 0
M  V30 12934 C 1267.87 3.51257 0.793142 0
M  V30 12935 C 1267.72 4.47942 -0.408409 0
M  V30 12936 C 1269.04 4.08365 1.64091 0
M  V30 12937 H 1266.16 0.724141 0.137073 0
M  V30 12938 H 1268.8 1.8683 -0.345619 0
M  V30 12939 H 1266.95 3.61917 1.4124 0
M  V30 12940 H 1268.62 4.49265 -1.04682 0
M  V30 12941 H 1266.87 4.20854 -1.05189 0
M  V30 12942 H 1267.54 5.51946 -0.0768531 0
M  V30 12943 H 1270.01 4.00794 1.1182 0
M  V30 12944 H 1268.89 5.1504 1.89802 0
M  V30 12945 H 1269.15 3.56687 2.61202 0
M  V30 12946 N 1268.21 -0.0283989 1.57574 0
M  V30 12947 C 1269.16 -1.02881 2.06601 0
M  V30 12948 C 1270.13 -1.35879 0.955308 0
M  V30 12949 O 1271.31 -1.46205 1.22592 0
M  V30 12950 C 1268.45 -2.32447 2.55073 0
M  V30 12951 C 1267.56 -2.05602 3.79937 0
M  V30 12952 C 1266.7 -3.29043 4.17018 0
M  V30 12953 C 1265.74 -2.97755 5.34797 0
M  V30 12954 N 1264.88 -4.1365 5.67308 0
M  V30 12955 H 1269.72 -0.603772 2.91819 0
M  V30 12956 H 1267.25 -0.286503 1.44283 0
M  V30 12957 H 1269.21 -3.08152 2.81244 0
M  V30 12958 H 1267.84 -2.72672 1.72771 0
M  V30 12959 H 1266.89 -1.2039 3.60847 0
M  V30 12960 H 1268.2 -1.78522 4.65759 0
M  V30 12961 H 1267.36 -4.13115 4.4432 0
M  V30 12962 H 1266.1 -3.59237 3.29849 0
M  V30 12963 H 1265.1 -2.12085 5.07247 0
M  V30 12964 H 1266.33 -2.68839 6.23621 0
M  V30 12965 H 1264.27 -4.43794 4.83097 0
M  V30 12966 H 1264.19 -3.89996 6.47641 0
M  V30 12967 H 1265.46 -4.98594 5.99186 0
M  V30 12968 N 1269.69 -1.54705 -0.300681 0
M  V30 12969 C 1270.92 -1.77993 -1.0548 0
M  V30 12970 C 1271.33 -0.539574 -1.80926 0
M  V30 12971 O 1270.69 0.490597 -1.75782 0
M  V30 12972 C 1270.74 -2.98774 -2.0351 0
M  V30 12973 O 1270.46 -4.18016 -1.31126 0
M  V30 12974 C 1271.96 -3.34452 -2.90958 0
M  V30 12975 H 1269.18 -0.593628 -0.312805 0
M  V30 12976 H 1271.72 -2.01656 -0.339858 0
M  V30 12977 H 1269.88 -2.77318 -2.70506 0
M  V30 12978 H 1270.29 -4.86113 -1.96963 0
M  V30 12979 H 1271.77 -4.22206 -3.55593 0
M  V30 12980 H 1272.24 -2.52622 -3.59275 0
M  V30 12981 H 1272.85 -3.58069 -2.29493 0
M  V30 12982 N 1271.17 0.563888 -1.47167 0
M  V30 12983 C 1272.44 1.32454 -1.43928 0
M  V30 12984 C 1272.82 2.10683 -0.13267 0
M  V30 12985 O 1272.17 2.1063 0.885845 0
M  V30 12986 C 1272.38 2.2347 -2.68071 0
M  V30 12987 C 1273.73 2.84702 -3.15008 0
M  V30 12988 O 1274.75 2.33775 -2.68752 0
M  V30 12989 O 1273.61 3.77251 -3.95404 0
M  V30 12990 H 1270.71 0.596074 -0.573258 0
M  V30 12991 H 1273.25 0.583345 -1.59359 0
M  V30 12992 H 1272.02 1.6522 -3.54708 0
M  V30 12993 H 1271.65 3.04897 -2.55193 0
M  V30 12994 N 1272.64 1.35187 0.810078 0
M  V30 12995 C 1273.87 1.31528 1.60359 0
M  V30 12996 C 1274.29 -0.105385 1.87805 0
M  V30 12997 O 1273.65 -1.07113 1.46276 0
M  V30 12998 C 1273.7 2.12429 2.91386 0
M  V30 12999 O 1272.8 1.50262 3.84051 0
M  V30 13000 H 1272.15 0.451122 0.487222 0
M  V30 13001 H 1274.68 1.78178 1.00568 0
M  V30 13002 H 1274.69 2.24257 3.40841 0
M  V30 13003 H 1273.36 3.15714 2.70735 0
M  V30 13004 H 1271.94 1.47253 3.42594 0
M  V30 13005 N 1274.12 -1.03182 1.19127 0
M  V30 13006 C 1275.05 -2.11462 0.884098 0
M  V30 13007 C 1276.07 -1.62342 -0.121984 0
M  V30 13008 O 1277.26 -1.78179 0.107038 0
M  V30 13009 C 1274.36 -3.37559 0.301227 0
M  V30 13010 C 1273.53 -4.15878 1.35514 0
M  V30 13011 C 1272.59 -5.20291 0.786349 0
M  V30 13012 O 1271.61 -5.50069 1.46331 0
M  V30 13013 N 1272.82 -5.79038 -0.411803 0
M  V30 13014 H 1275.58 -2.38405 1.81613 0
M  V30 13015 H 1273.14 -1.19449 1.09287 0
M  V30 13016 H 1275.13 -4.04593 -0.0930685 0
M  V30 13017 H 1273.7 -3.07987 -0.535022 0
M  V30 13018 H 1272.92 -3.44036 1.9244 0
M  V30 13019 H 1274.21 -4.64993 2.06539 0
M  V30 13020 H 1273.61 -5.57158 -0.979353 0
M  V30 13021 H 1272.17 -6.47495 -0.747912 0
M  V30 13022 N 1275.6 -0.99472 -1.22242 0
M  V30 13023 C 1276.53 -0.566499 -2.26524 0
M  V30 13024 C 1277.51 0.407541 -1.65146 0
M  V30 13025 O 1278.7 0.297777 -1.91903 0
M  V30 13026 C 1275.83 0.11786 -3.471 0
M  V30 13027 C 1274.78 -0.774908 -4.20927 0
M  V30 13028 C 1274.11 0.0424687 -5.34683 0
M  V30 13029 C 1275.41 -2.07263 -4.79416 0
M  V30 13030 H 1277.1 -1.43818 -2.62596 0
M  V30 13031 H 1274.65 -0.692971 -1.2623 0
M  V30 13032 H 1276.6 0.428842 -4.19212 0
M  V30 13033 H 1275.32 1.0241 -3.10129 0
M  V30 13034 H 1273.98 -1.06956 -3.50651 0
M  V30 13035 H 1273.63 0.949677 -4.93954 0
M  V30 13036 H 1273.33 -0.551867 -5.85003 0
M  V30 13037 H 1274.85 0.347504 -6.0961 0
M  V30 13038 H 1276.27 -1.82548 -5.4346 0
M  V30 13039 H 1274.67 -2.61594 -5.40082 0
M  V30 13040 H 1275.74 -2.75017 -3.99366 0
M  V30 13041 N 1277.08 1.37613 -0.768148 0
M  V30 13042 C 1277.99 2.34103 -0.152649 0
M  V30 13043 C 1279 1.6 0.683811 0
M  V30 13044 O 1280.18 1.92112 0.604572 0
M  V30 13045 C 1277.25 3.39164 0.718954 0
M  V30 13046 C 1276.31 4.29092 -0.13355 0
M  V30 13047 C 1275.54 5.29135 0.696547 0
M  V30 13048 O 1275.76 5.36618 1.93383 0
M  V30 13049 O 1274.7 6.01804 0.107652 0
M  V30 13050 H 1278.52 2.88462 -0.949899 0
M  V30 13051 H 1276.11 1.39711 -0.529252 0
M  V30 13052 H 1277.99 4.03454 1.21665 0
M  V30 13053 H 1276.66 2.87137 1.49445 0
M  V30 13054 H 1275.57 3.67914 -0.677528 0
M  V30 13055 H 1276.9 4.84413 -0.872048 0
M  V30 13056 N 1278.56 0.518393 1.4883 0
M  V30 13057 C 1279.83 -0.0837498 1.95421 0
M  V30 13058 C 1280.21 -1.52435 1.46037 0
M  V30 13059 O 1279.56 -2.18093 0.681736 0
M  V30 13060 C 1279.77 0.0215333 3.48993 0
M  V30 13061 C 1281.12 -0.143615 4.24357 0
M  V30 13062 O 1282.14 -0.0528223 3.56161 0
M  V30 13063 O 1281 -0.332231 5.45489 0
M  V30 13064 H 1278.1 -0.0857132 0.822546 0
M  V30 13065 H 1280.64 0.582169 1.59402 0
M  V30 13066 H 1279.41 1.02549 3.77623 0
M  V30 13067 H 1279.04 -0.683756 3.91677 0
M  V30 13068 N 1280.03 -1.55556 0.252993 0
M  V30 13069 C 1280.96 -2.24613 -0.638047 0
M  V30 13070 C 1281.95 -1.22852 -1.1765 0
M  V30 13071 O 1283.13 -1.51519 -1.21472 0
M  V30 13072 C 1280.26 -2.95029 -1.83236 0
M  V30 13073 C 1279.21 -4.03531 -1.42641 0
M  V30 13074 C 1278.54 -4.61404 -2.70204 0
M  V30 13075 C 1279.84 -5.18923 -0.592958 0
M  V30 13076 H 1281.53 -2.99335 -0.0621918 0
M  V30 13077 H 1279.08 -1.43972 -0.0284722 0
M  V30 13078 H 1281.03 -3.42042 -2.46141 0
M  V30 13079 H 1279.76 -2.17805 -2.43369 0
M  V30 13080 H 1278.42 -3.57296 -0.820672 0
M  V30 13081 H 1278.06 -3.80874 -3.28548 0
M  V30 13082 H 1277.76 -5.34652 -2.43764 0
M  V30 13083 H 1279.29 -5.11154 -3.33997 0
M  V30 13084 H 1280.7 -5.62124 -1.12646 0
M  V30 13085 H 1279.1 -5.98598 -0.424358 0
M  V30 13086 H 1280.17 -4.83301 0.393434 0
M  V30 13087 N 1281.51 0.0200419 -1.57587 0
M  V30 13088 C 1282.76 0.707627 -1.89307 0
M  V30 13089 C 1283.08 1.7541 -0.851831 0
M  V30 13090 O 1282.35 1.95571 0.113404 0
M  V30 13091 H 1280.93 0.264349 -0.698662 0
M  V30 13092 H 1283.59 -0.0161428 -1.94893 0
M  V30 13093 H 1282.69 1.19152 -2.8846 0
M  V30 13094 N 1282.99 1.54862 0.292472 0
M  V30 13095 C 1284.22 1.78291 1.04383 0
M  V30 13096 C 1284.63 0.546703 1.81129 0
M  V30 13097 O 1283.97 -0.493286 1.76953 0
M  V30 13098 C 1284.03 2.94321 2.06435 0
M  V30 13099 C 1283.7 4.32095 1.48806 0
M  V30 13100 C 1284.69 5.11808 0.91369 0
M  V30 13101 C 1282.38 4.78714 1.52112 0
M  V30 13102 C 1284.37 6.36266 0.380053 0
M  V30 13103 C 1282.06 6.03132 0.983613 0
M  V30 13104 C 1283.06 6.81744 0.41406 0
M  V30 13105 O 1282.75 8.03817 -0.115268 0
M  V30 13106 H 1282.48 0.598147 0.314954 0
M  V30 13107 H 1285.03 2.02655 0.334661 0
M  V30 13108 H 1283.26 2.65602 2.81056 0
M  V30 13109 H 1284.95 3.05249 2.67541 0
M  V30 13110 H 1285.72 4.76931 0.880988 0
M  V30 13111 H 1281.6 4.17549 1.95382 0
M  V30 13112 H 1285.14 6.9757 -0.0651481 0
M  V30 13113 H 1281.04 6.37494 1.01349 0
M  V30 13114 H 1281.81 8.185 -0.00277496 0
M  V30 13115 N 1284.47 -0.556076 1.47464 0
M  V30 13116 C 1285.71 -1.32397 1.55726 0
M  V30 13117 C 1286.07 -1.90793 0.214956 0
M  V30 13118 O 1287.27 -2.68246 0.172429 0
M  V30 13119 C 1285.54 -2.40358 2.64505 0
M  V30 13120 S 1287.1 -3.27219 2.92358 0
M  V30 13121 H 1283.92 -0.450713 0.549889 0
M  V30 13122 H 1286.52 -0.636471 1.84849 0
M  V30 13123 H 1285.23 -1.95893 3.6063 0
M  V30 13124 H 1284.76 -3.13847 2.372 0
M  V30 13125 H 1286.77 -4.39854 2.29659 0
M  V30 13126 N 1285.95 -1.35615 -0.802897 0
M  V30 13127 C 1287.19 -1.29285 -1.56247 0
M  V30 13128 C 1287.53 0.131474 -1.93754 0
M  V30 13129 O 1286.8 1.08172 -1.61645 0
M  V30 13130 C 1287.08 -2.20285 -2.84863 0
M  V30 13131 C 1286.94 -3.71351 -2.53808 0
M  V30 13132 C 1288.26 -2.10318 -3.86593 0
M  V30 13133 H 1285.38 -0.470972 -0.566882 0
M  V30 13134 H 1288.02 -1.66048 -0.923469 0
M  V30 13135 H 1286.17 -1.89063 -3.39393 0
M  V30 13136 H 1287.84 -4.13031 -2.05433 0
M  V30 13137 H 1286.08 -3.9145 -1.86947 0
M  V30 13138 H 1286.75 -4.30416 -3.4561 0
M  V30 13139 H 1289.23 -2.37772 -3.41473 0
M  V30 13140 H 1288.11 -2.76183 -4.74357 0
M  V30 13141 H 1288.37 -1.08627 -4.28547 0
M  V30 13142 N 1287.43 1.02549 -1.19673 0
M  V30 13143 C 1288.67 1.76004 -1.00144 0
M  V30 13144 C 1289 1.888 0.467423 0
M  V30 13145 O 1288.26 1.404 1.36331 0
M  V30 13146 C 1288.55 3.18597 -1.61959 0
M  V30 13147 C 1288.22 3.258 -3.11713 0
M  V30 13148 C 1286.88 3.27473 -3.52583 0
M  V30 13149 C 1289.23 3.24675 -4.0772 0
M  V30 13150 C 1286.56 3.25681 -4.88005 0
M  V30 13151 C 1288.91 3.24424 -5.43076 0
M  V30 13152 C 1287.58 3.24396 -5.83372 0
M  V30 13153 H 1286.85 0.644044 -0.366453 0
M  V30 13154 H 1289.5 1.20338 -1.48966 0
M  V30 13155 H 1287.8 3.77364 -1.05375 0
M  V30 13156 H 1289.5 3.74109 -1.44374 0
M  V30 13157 H 1286.09 3.25228 -2.7915 0
M  V30 13158 H 1290.27 3.2256 -3.77185 0
M  V30 13159 H 1285.53 3.23986 -5.18501 0
M  V30 13160 H 1289.7 3.22504 -6.17223 0
M  V30 13161 H 1287.33 3.22762 -6.8828 0
M  V30 13162 N 1288.9 1.00119 1.21713 0
M  V30 13163 C 1289.85 0.551452 2.25969 0
M  V30 13164 C 1290.85 -0.402075 1.64559 0
M  V30 13165 O 1292.05 -0.273685 1.77907 0
M  V30 13166 H 1288.43 0.159968 0.734789 0
M  V30 13167 H 1290.4 1.44201 2.61244 0
M  V30 13168 C 1289.15 -0.109992 3.47526 0
M  V30 13169 H 1288.47 0.614686 3.95046 0
M  V30 13170 H 1289.91 -0.388007 4.22221 0
M  V30 13171 C 1288.37 -1.34798 3.08757 0
M  V30 13172 O 1288.9 -2.44266 3.189 0
M  V30 13173 N 1287.1 -1.2263 2.63458 0
M  V30 13174 H 1286.65 -0.335571 2.55405 0
M  V30 13175 H 1286.61 -2.05565 2.37887 0
M  V30 13176 N 1290.38 -1.37203 0.775435 0
M  V30 13177 C 1291.33 -2.30228 0.162388 0
M  V30 13178 C 1292.3 -1.51284 -0.685747 0
M  V30 13179 O 1293.48 -1.7984 -0.637342 0
M  V30 13180 C 1290.62 -3.37762 -0.707858 0
M  V30 13181 C 1289.74 -4.31714 0.157287 0
M  V30 13182 C 1288.87 -5.26325 -0.718012 0
M  V30 13183 C 1287.91 -6.11918 0.149442 0
M  V30 13184 N 1287.05 -6.9876 -0.684043 0
M  V30 13185 H 1291.89 -2.82073 0.961184 0
M  V30 13186 H 1289.42 -1.38854 0.485587 0
M  V30 13187 H 1291.38 -3.98741 -1.22726 0
M  V30 13188 H 1290.01 -2.87273 -1.47222 0
M  V30 13189 H 1289.06 -3.7201 0.794533 0
M  V30 13190 H 1290.38 -4.91909 0.826262 0
M  V30 13191 H 1289.53 -5.92526 -1.30376 0
M  V30 13192 H 1288.27 -4.6655 -1.42066 0
M  V30 13193 H 1287.27 -5.44692 0.747697 0
M  V30 13194 H 1288.5 -6.73766 0.849476 0
M  V30 13195 H 1286.45 -6.41508 -1.37124 0
M  V30 13196 H 1286.36 -7.55965 -0.0724464 0
M  V30 13197 H 1287.63 -7.69346 -1.25407 0
M  V30 13198 N 1291.86 -0.526279 -1.48553 0
M  V30 13199 C 1293.09 0.00522012 -2.06599 0
M  V30 13200 C 1293.5 1.29039 -1.38368 0
M  V30 13201 O 1292.84 1.77747 -0.463854 0
M  V30 13202 C 1292.9 0.303512 -3.58216 0
M  V30 13203 C 1292.57 -0.887635 -4.48297 0
M  V30 13204 C 1293.56 -1.78504 -4.88295 0
M  V30 13205 C 1291.25 -1.09359 -4.90251 0
M  V30 13206 C 1293.24 -2.87233 -5.69013 0
M  V30 13207 C 1290.93 -2.18402 -5.7074 0
M  V30 13208 C 1291.93 -3.07172 -6.10028 0
M  V30 13209 O 1291.62 -4.14329 -6.88902 0
M  V30 13210 H 1291.35 -0.0287033 -0.67539 0
M  V30 13211 H 1293.9 -0.730244 -1.91981 0
M  V30 13212 H 1292.13 1.0929 -3.70935 0
M  V30 13213 H 1293.82 0.776647 -3.98401 0
M  V30 13214 H 1294.59 -1.63785 -4.56508 0
M  V30 13215 H 1290.47 -0.411922 -4.59156 0
M  V30 13216 H 1294.01 -3.56549 -5.99599 0
M  V30 13217 H 1289.91 -2.33106 -6.0194 0
M  V30 13218 H 1290.67 -4.11993 -7.07251 0
M  V30 13219 N 1293.34 1.5542 -0.261239 0
M  V30 13220 C 1294.57 2.03687 0.363225 0
M  V30 13221 C 1294.98 1.14007 1.50492 0
M  V30 13222 O 1294.34 0.157349 1.8182 0
M  V30 13223 C 1294.39 3.51184 0.857435 0
M  V30 13224 O 1294.11 4.37449 -0.238776 0
M  V30 13225 C 1295.61 4.15277 1.55113 0
M  V30 13226 H 1292.83 0.665641 0.0846356 0
M  V30 13227 H 1295.37 2.00761 -0.389288 0
M  V30 13228 H 1293.53 3.54599 1.56008 0
M  V30 13229 H 1293.94 5.24316 0.138821 0
M  V30 13230 H 1295.42 5.20129 1.8485 0
M  V30 13231 H 1295.89 3.62619 2.47799 0
M  V30 13232 H 1296.5 4.15826 0.892695 0
M  V30 13233 N 1294.82 -0.0116844 1.57596 0
M  V30 13234 C 1296.06 -0.699994 1.90336 0
M  V30 13235 C 1296.39 -1.74067 0.861072 0
M  V30 13236 O 1295.67 -1.94119 -0.121712 0
M  V30 13237 C 1295.95 -1.35377 3.33684 0
M  V30 13238 C 1295.81 -0.325434 4.48621 0
M  V30 13239 C 1297.12 -2.28312 3.76247 0
M  V30 13240 H 1294.24 -0.253002 0.692213 0
M  V30 13241 H 1296.89 0.037211 1.89964 0
M  V30 13242 H 1295.04 -1.98212 3.34132 0
M  V30 13243 H 1296.71 0.302331 4.60308 0
M  V30 13244 H 1294.95 0.353527 4.32357 0
M  V30 13245 H 1295.62 -0.8217 5.4585 0
M  V30 13246 H 1298.1 -1.75505 3.77276 0
M  V30 13247 H 1296.97 -2.71028 4.77321 0
M  V30 13248 H 1297.23 -3.15727 3.09465 0
M  V30 13249 N 1296.29 -1.55015 -0.284256 0
M  V30 13250 C 1297.7 -1.65915 -0.856104 0
M  V30 13251 C 1298.06 -0.578758 -1.8747 0
M  V30 13252 O 1297.18 0.281733 -2.14558 0
M  V30 13253 C 1297.78 -3.0077 -1.55957 0
M  V30 13254 C 1296.33 -3.13735 -2.0796 0
M  V30 13255 C 1295.48 -2.61669 -0.917849 0
M  V30 13256 H 1298.43 -1.58583 -0.0608587 0
M  V30 13257 H 1298.45 -2.9313 -2.42601 0
M  V30 13258 H 1297.97 -3.79382 -0.81798 0
M  V30 13259 H 1296.07 -2.39875 -2.85115 0
M  V30 13260 H 1296.18 -4.20138 -2.30263 0
M  V30 13261 H 1294.54 -2.18542 -1.3081 0
M  V30 13262 H 1295.33 -3.42774 -0.189946 0
M  V30 13263 N 1297.77 0.548248 -1.47757 0
M  V30 13264 C 1298.7 1.66409 -1.63799 0
M  V30 13265 C 1299.68 1.62973 -0.487211 0
M  V30 13266 O 1300.87 1.80455 -0.717612 0
M  V30 13267 C 1298 3.05035 -1.66046 0
M  V30 13268 C 1296.95 3.23322 -2.80441 0
M  V30 13269 C 1296.28 4.62824 -2.67765 0
M  V30 13270 C 1297.58 3.07837 -4.2194 0
M  V30 13271 H 1299.27 1.53239 -2.57212 0
M  V30 13272 H 1296.82 0.735783 -1.23783 0
M  V30 13273 H 1298.77 3.82951 -1.75859 0
M  V30 13274 H 1297.49 3.19185 -0.69199 0
M  V30 13275 H 1296.15 2.47816 -2.70153 0
M  V30 13276 H 1295.8 4.73786 -1.68927 0
M  V30 13277 H 1295.5 4.76007 -3.44515 0
M  V30 13278 H 1297.03 5.42864 -2.7952 0
M  V30 13279 H 1298.44 3.75563 -4.33157 0
M  V30 13280 H 1296.84 3.32525 -4.99547 0
M  V30 13281 H 1297.91 2.04474 -4.3968 0
M  V30 13282 N 1299.25 1.36039 0.795694 0
M  V30 13283 C 1300.66 1.2679 1.37044 0
M  V30 13284 C 1301.01 -0.0950192 1.9597 0
M  V30 13285 O 1300.14 -0.996311 1.921 0
M  V30 13286 C 1300.73 2.29585 2.49151 0
M  V30 13287 C 1299.29 2.24044 3.02458 0
M  V30 13288 C 1298.44 2.14703 1.75493 0
M  V30 13289 H 1301.39 1.47009 0.597843 0
M  V30 13290 H 1301.41 1.92864 3.27999 0
M  V30 13291 H 1300.92 3.28769 2.06234 0
M  V30 13292 H 1299.02 1.28307 3.49812 0
M  V30 13293 H 1299.14 3.1647 3.597 0
M  V30 13294 H 1297.5 1.60856 1.97478 0
M  V30 13295 H 1298.28 3.15765 1.34713 0
M  V30 13296 N 1300.73 -1.01913 1.20215 0
M  V30 13297 C 1301.95 -1.79613 1.03702 0
M  V30 13298 C 1302.38 -1.83591 -0.409374 0
M  V30 13299 O 1301.74 -1.26911 -1.29473 0
M  V30 13300 C 1301.78 -3.22052 1.62219 0
M  V30 13301 O 1300.89 -4.03374 0.858106 0
M  V30 13302 H 1300.23 -0.554095 0.365889 0
M  V30 13303 H 1302.76 -1.28203 1.59452 0
M  V30 13304 H 1302.77 -3.72772 1.65847 0
M  V30 13305 H 1301.44 -3.18471 2.67487 0
M  V30 13306 H 1300.02 -3.6198 0.895835 0
M  V30 13307 N 1302.21 -1.00763 -1.2118 0
M  V30 13308 C 1303.62 -0.724746 -1.72059 0
M  V30 13309 C 1303.97 0.757413 -1.80991 0
M  V30 13310 O 1303.09 1.59152 -1.46627 0
M  V30 13311 C 1303.69 -1.30893 -3.12494 0
M  V30 13312 C 1302.25 -1.07511 -3.60719 0
M  V30 13313 C 1301.39 -1.42014 -2.38175 0
M  V30 13314 H 1304.35 -1.17821 -1.0632 0
M  V30 13315 H 1304.37 -0.694919 -3.741 0
M  V30 13316 H 1303.88 -2.38767 -3.05961 0
M  V30 13317 H 1301.98 -0.0136518 -3.72597 0
M  V30 13318 H 1302.09 -1.74885 -4.4604 0
M  V30 13319 H 1300.46 -0.838972 -2.40486 0
M  V30 13320 H 1301.24 -2.50924 -2.34291 0
M  V30 13321 N 1303.68 1.3679 -0.7827 0
M  V30 13322 C 1304.93 1.99712 -0.352533 0
M  V30 13323 C 1305.26 1.61984 1.0712 0
M  V30 13324 O 1304.54 0.871342 1.7389 0
M  V30 13325 C 1304.82 3.5649 -0.508628 0
M  V30 13326 C 1304.67 4.04093 -1.97557 0
M  V30 13327 C 1305.99 4.40026 0.0804447 0
M  V30 13328 H 1303.11 0.725522 -0.129566 0
M  V30 13329 H 1305.75 1.62305 -0.987788 0
M  V30 13330 H 1303.9 3.88487 0.0321664 0
M  V30 13331 H 1305.58 3.82613 -2.57691 0
M  V30 13332 H 1303.82 3.55881 -2.48055 0
M  V30 13333 H 1304.49 5.13088 -2.03579 0
M  V30 13334 H 1306.97 4.14351 -0.381113 0
M  V30 13335 H 1305.84 5.48868 -0.0588424 0
M  V30 13336 H 1306.1 4.26285 1.17189 0
M  V30 13337 N 1305.16 0.53415 1.48272 0
M  V30 13338 C 1306.09 -0.263508 2.2768 0
M  V30 13339 C 1307.11 -0.90064 1.35618 0
M  V30 13340 O 1308.3 -0.778379 1.60635 0
M  V30 13341 C 1305.4 -1.38878 3.09138 0
M  V30 13342 C 1304.57 -0.852784 4.29006 0
M  V30 13343 C 1303.63 -1.85969 4.92242 0
M  V30 13344 O 1302.65 -1.41497 5.51332 0
M  V30 13345 N 1303.86 -3.19207 4.84858 0
M  V30 13346 H 1306.62 0.417548 2.96777 0
M  V30 13347 H 1304.18 0.368743 1.57645 0
M  V30 13348 H 1306.17 -2.06062 3.48311 0
M  V30 13349 H 1304.74 -1.97343 2.42434 0
M  V30 13350 H 1303.96 -0.0048227 3.942 0
M  V30 13351 H 1305.25 -0.473634 5.06591 0
M  V30 13352 H 1304.65 -3.58001 4.38009 0
M  V30 13353 H 1303.21 -3.82013 5.28119 0
M  V30 13354 N 1306.64 -1.55279 0.269478 0
M  V30 13355 C 1307.92 -1.91458 -0.400412 0
M  V30 13356 C 1308.3 -1.19306 -1.74153 0
M  V30 13357 O 1307.65 -0.318017 -2.26276 0
M  V30 13358 C 1307.86 -3.44698 -0.546258 0
M  V30 13359 C 1309.2 -4.16374 -0.831758 0
M  V30 13360 O 1310.23 -3.50561 -0.631279 0
M  V30 13361 O 1309.09 -5.32826 -1.21484 0
M  V30 13362 H 1306.18 -0.79766 -0.218328 0
M  V30 13363 H 1308.73 -1.66747 0.315214 0
M  V30 13364 H 1307.5 -3.89273 0.397784 0
M  V30 13365 H 1307.12 -3.75345 -1.31157 0
M  V30 13366 N 1308.12 0.00332656 -1.576 0
M  V30 13367 C 1309.34 0.703587 -1.95101 0
M  V30 13368 C 1309.77 1.66697 -0.871418 0
M  V30 13369 O 1309.13 1.80494 0.170739 0
M  V30 13370 C 1309.17 1.41457 -3.31696 0
M  V30 13371 O 1308.28 2.52885 -3.25765 0
M  V30 13372 H 1307.62 0.187396 -0.637008 0
M  V30 13373 H 1310.15 -0.0488727 -2.04542 0
M  V30 13374 H 1310.16 1.77874 -3.67185 0
M  V30 13375 H 1308.83 0.708182 -4.09826 0
M  V30 13376 H 1307.41 2.18821 -3.01947 0
M  V30 13377 N 1309.6 1.55164 0.276031 0
M  V30 13378 C 1310.51 1.90928 1.36321 0
M  V30 13379 C 1311.52 0.806183 1.54197 0
M  V30 13380 O 1312.7 1.10497 1.68382 0
M  V30 13381 C 1309.76 2.17123 2.70293 0
M  V30 13382 C 1308.82 3.40703 2.6119 0
M  V30 13383 C 1308.06 3.65638 3.88773 0
M  V30 13384 O 1308.28 2.93137 4.89313 0
M  V30 13385 O 1307.21 4.59172 3.89159 0
M  V30 13386 H 1311.04 2.8347 1.08988 0
M  V30 13387 H 1308.63 1.41672 0.474292 0
M  V30 13388 H 1310.51 2.3541 3.49514 0
M  V30 13389 H 1309.18 1.27765 2.97419 0
M  V30 13390 H 1308.09 3.27754 1.80355 0
M  V30 13391 H 1309.42 4.30271 2.39014 0
M  V30 13392 N 1311.07 -0.540404 1.48045 0
M  V30 13393 C 1312.02 -1.66695 1.62221 0
M  V30 13394 C 1313.02 -1.6219 0.488943 0
M  V30 13395 O 1314.22 -1.67173 0.66732 0
M  V30 13396 H 1310.6 -0.551868 0.510828 0
M  V30 13397 H 1312.57 -1.51879 2.56856 0
M  V30 13398 C 1311.32 -3.05002 1.6694 0
M  V30 13399 H 1310.64 -3.09157 2.53499 0
M  V30 13400 H 1312.08 -3.8347 1.80904 0
M  V30 13401 C 1310.54 -3.34445 0.40598 0
M  V30 13402 O 1311.07 -3.98753 -0.485676 0
M  V30 13403 N 1309.28 -2.8924 0.280857 0
M  V30 13404 H 1308.82 -2.37085 1.00741 0
M  V30 13405 H 1308.78 -3.09309 -0.563493 0
M  V30 13406 N 1312.55 -1.36459 -0.788468 0
M  V30 13407 C 1313.48 -1.33545 -1.91541 0
M  V30 13408 C 1314.46 -0.206762 -1.68839 0
M  V30 13409 O 1315.65 -0.404553 -1.89939 0
M  V30 13410 C 1312.78 -1.12492 -3.28577 0
M  V30 13411 C 1311.73 -2.22196 -3.65805 0
M  V30 13412 C 1311.06 -1.86285 -5.01201 0
M  V30 13413 C 1312.36 -3.64286 -3.7429 0
M  V30 13414 H 1314.05 -2.27844 -1.94236 0
M  V30 13415 H 1311.6 -1.09677 -0.933105 0
M  V30 13416 H 1313.55 -1.09089 -4.07035 0
M  V30 13417 H 1312.28 -0.146446 -3.26272 0
M  V30 13418 H 1310.93 -2.24727 -2.89644 0
M  V30 13419 H 1310.58 -0.87009 -4.95417 0
M  V30 13420 H 1310.28 -2.59734 -5.27079 0
M  V30 13421 H 1311.81 -1.84439 -5.82078 0
M  V30 13422 H 1313.22 -3.63977 -4.42937 0
M  V30 13423 H 1311.62 -4.36648 -4.11653 0
M  V30 13424 H 1312.69 -3.99123 -2.75371 0
M  V30 13425 N 1314.03 1.01274 -1.20754 0
M  V30 13426 C 1315.26 1.7906 -1.04653 0
M  V30 13427 C 1315.68 1.83806 0.399632 0
M  V30 13428 O 1315.04 1.27596 1.28798 0
M  V30 13429 C 1315.09 3.21187 -1.63925 0
M  V30 13430 O 1314.19 4.02913 -0.879486 0
M  V30 13431 H 1313.53 0.552147 -0.368823 0
M  V30 13432 H 1316.06 1.27356 -1.6013 0
M  V30 13433 H 1316.07 3.71887 -1.67822 0
M  V30 13434 H 1314.75 3.17048 -2.69172 0
M  V30 13435 H 1313.32 3.61499 -0.915019 0
M  V30 13436 N 1315.51 1.01404 1.20644 0
M  V30 13437 C 1316.76 0.700523 1.89571 0
M  V30 13438 C 1317.08 -0.771978 1.79068 0
M  V30 13439 O 1316.35 -1.55506 1.19142 0
M  V30 13440 H 1314.93 0.256122 0.70172 0
M  V30 13441 H 1317.59 1.28509 1.46531 0
M  V30 13442 H 1316.69 0.981665 2.9626 0
M  V30 13443 N 1316.99 -1.36373 0.789944 0
M  V30 13444 C 1317.9 -2.3383 0.189873 0
M  V30 13445 C 1318.91 -1.61068 -0.65827 0
M  V30 13446 O 1320.09 -1.93049 -0.573932 0
M  V30 13447 C 1317.15 -3.40264 -0.664905 0
M  V30 13448 C 1316.22 -4.28825 0.201798 0
M  V30 13449 C 1315.45 -5.30176 -0.612278 0
M  V30 13450 O 1315.67 -5.39627 -1.84821 0
M  V30 13451 O 1314.61 -6.01899 -0.0118964 0
M  V30 13452 H 1318.43 -2.86915 0.995671 0
M  V30 13453 H 1316.02 -1.38852 0.551412 0
M  V30 13454 H 1317.9 -4.05339 -1.15231 0
M  V30 13455 H 1316.57 -2.89478 -1.44858 0
M  V30 13456 H 1315.48 -3.66789 0.735974 0
M  V30 13457 H 1316.81 -4.82965 0.949003 0
M  V30 13458 N 1318.47 -0.542005 -1.47987 0
M  V30 13459 C 1319.69 -0.0146835 -2.07395 0
M  V30 13460 C 1320.12 1.26266 -1.39422 0
M  V30 13461 O 1319.47 1.75259 -0.464118 0
M  V30 13462 C 1319.52 0.179937 -3.60151 0
M  V30 13463 O 1318.63 1.24596 -3.93128 0
M  V30 13464 H 1317.97 -0.0445076 -0.662507 0
M  V30 13465 H 1320.5 -0.753352 -1.90226 0
M  V30 13466 H 1320.51 0.398876 -4.06046 0
M  V30 13467 H 1319.18 -0.753093 -4.09025 0
M  V30 13468 H 1317.76 1.00872 -3.58997 0
M  V30 13469 N 1319.94 1.55134 -0.277709 0
M  V30 13470 C 1321.19 1.99259 0.337662 0
M  V30 13471 C 1321.51 1.16755 1.56183 0
M  V30 13472 O 1320.78 0.257707 1.94198 0
M  V30 13473 H 1319.36 0.735995 0.127751 0
M  V30 13474 H 1322.02 1.91087 -0.383646 0
M  V30 13475 H 1321.12 3.05763 0.625747 0
M  V30 13476 N 1321.42 0.00503138 1.57599 0
M  V30 13477 C 1322.65 -0.689609 1.95069 0
M  V30 13478 C 1323.06 -1.67028 0.880183 0
M  V30 13479 O 1322.42 -1.81959 -0.140406 0
M  V30 13480 C 1322.47 -1.41709 3.32567 0
M  V30 13481 O 1322.19 -0.475746 4.35509 0
M  V30 13482 C 1323.69 -2.20578 3.84526 0
M  V30 13483 H 1320.91 -0.19175 0.643019 0
M  V30 13484 H 1323.46 0.057646 2.04419 0
M  V30 13485 H 1321.61 -2.11593 3.2451 0
M  V30 13486 H 1322.03 -0.989573 5.1508 0
M  V30 13487 H 1323.5 -2.66969 4.83148 0
M  V30 13488 H 1323.98 -3.03467 3.17497 0
M  V30 13489 H 1324.58 -1.557 3.95775 0
M  V30 13490 N 1322.9 -1.55308 -0.267798 0
M  V30 13491 C 1324.15 -1.76159 -0.998707 0
M  V30 13492 C 1324.47 -0.565573 -1.86095 0
M  V30 13493 O 1323.73 0.45178 -1.90414 0
M  V30 13494 C 1324.03 -3.02286 -1.90678 0
M  V30 13495 C 1323.69 -4.34594 -1.20161 0
M  V30 13496 C 1322.36 -4.70553 -1.00664 0
M  V30 13497 C 1324.71 -5.16475 -0.7002 0
M  V30 13498 C 1322.04 -5.85945 -0.297629 0
M  V30 13499 C 1324.39 -6.326 -0.00475187 0
M  V30 13500 C 1323.05 -6.67195 0.20188 0
M  V30 13501 H 1322.32 -0.644613 -0.365453 0
M  V30 13502 H 1324.97 -1.89579 -0.270545 0
M  V30 13503 H 1323.27 -2.83788 -2.70133 0
M  V30 13504 H 1324.97 -3.15615 -2.47362 0
M  V30 13505 H 1321.56 -4.06334 -1.36348 0
M  V30 13506 H 1325.75 -4.89167 -0.838435 0
M  V30 13507 H 1321 -6.11268 -0.126864 0
M  V30 13508 H 1325.18 -6.95299 0.39151 0
M  V30 13509 H 1322.8 -7.56459 0.753252 0
M  V30 13510 N 1324.38 0.532545 -1.4833 0
M  V30 13511 C 1325.61 1.31141 -1.59642 0
M  V30 13512 C 1326.02 1.87476 -0.254835 0
M  V30 13513 O 1325.36 1.66985 0.765622 0
M  V30 13514 C 1325.42 2.50182 -2.58165 0
M  V30 13515 C 1325.08 2.14953 -4.03292 0
M  V30 13516 C 1326.08 1.70777 -4.91051 0
M  V30 13517 C 1323.77 2.25555 -4.4881 0
M  V30 13518 C 1325.76 1.37665 -6.22356 0
M  V30 13519 C 1323.45 1.92055 -5.80136 0
M  V30 13520 C 1324.45 1.48181 -6.66732 0
M  V30 13521 O 1324.13 1.15119 -7.95615 0
M  V30 13522 H 1323.87 0.405164 -0.541127 0
M  V30 13523 H 1326.42 0.649423 -1.94863 0
M  V30 13524 H 1324.65 3.19353 -2.1806 0
M  V30 13525 H 1326.34 3.12246 -2.5934 0
M  V30 13526 H 1327.1 1.62059 -4.57124 0
M  V30 13527 H 1322.98 2.5866 -3.81597 0
M  V30 13528 H 1326.53 1.03348 -6.89902 0
M  V30 13529 H 1322.42 2.00413 -6.136 0
M  V30 13530 H 1323.19 1.28539 -8.08344 0
M  V30 13531 N 1325.86 1.36875 0.78122 0
M  V30 13532 C 1326.77 1.3404 1.92537 0
M  V30 13533 C 1327.78 0.241354 1.72318 0
M  V30 13534 O 1328.96 0.475128 1.95715 0
M  V30 13535 C 1326.02 1.13708 3.27523 0
M  V30 13536 C 1325.08 2.33165 3.60462 0
M  V30 13537 C 1324.32 2.13793 4.89007 0
M  V30 13538 O 1324.54 1.11732 5.5935 0
M  V30 13539 O 1323.47 3.01762 5.20791 0
M  V30 13540 H 1327.3 2.30386 1.97879 0
M  V30 13541 H 1324.88 1.17506 0.922637 0
M  V30 13542 H 1326.77 1.0432 4.08283 0
M  V30 13543 H 1325.44 0.204306 3.23055 0
M  V30 13544 H 1324.35 2.48123 2.79974 0
M  V30 13545 H 1325.68 3.24977 3.69663 0
M  V30 13546 N 1327.33 -1.00632 1.21289 0
M  V30 13547 C 1328.58 -1.74044 1.02728 0
M  V30 13548 C 1328.9 -1.89963 -0.440351 0
M  V30 13549 O 1328.17 -1.44958 -1.31772 0
M  V30 13550 H 1326.75 -0.644813 0.377127 0
M  V30 13551 H 1329.41 -1.21272 1.52575 0
M  V30 13552 H 1328.51 -2.74011 1.49413 0
M  V30 13553 N 1328.81 -1.02043 -1.20104 0
M  V30 13554 C 1330.04 -0.731315 -1.93544 0
M  V30 13555 C 1330.45 0.708582 -1.74999 0
M  V30 13556 O 1329.81 1.481 -1.06642 0
M  V30 13557 C 1329.86 -1.06233 -3.45538 0
M  V30 13558 O 1329.58 -2.44568 -3.63481 0
M  V30 13559 C 1331.08 -0.794818 -4.36116 0
M  V30 13560 H 1328.3 -0.268248 -0.615048 0
M  V30 13561 H 1330.85 -1.36264 -1.52488 0
M  V30 13562 H 1329 -0.476341 -3.8446 0
M  V30 13563 H 1329.42 -2.5663 -4.57429 0
M  V30 13564 H 1330.89 -1.07647 -5.41402 0
M  V30 13565 H 1331.37 0.270944 -4.38363 0
M  V30 13566 H 1331.97 -1.36314 -4.02863 0
M  V30 13567 N 1330.29 1.35952 -0.797165 0
M  V30 13568 C 1331.57 1.93335 -0.2968 0
M  V30 13569 C 1331.95 1.72825 1.21222 0
M  V30 13570 O 1331.3 1.09172 2.00733 0
M  V30 13571 C 1331.51 3.41951 -0.697894 0
M  V30 13572 C 1332.85 4.19087 -0.682026 0
M  V30 13573 O 1333.88 3.50424 -0.638849 0
M  V30 13574 O 1332.74 5.41577 -0.73189 0
M  V30 13575 H 1329.83 0.823554 -0.0754223 0
M  V30 13576 H 1332.38 1.45086 -0.88023 0
M  V30 13577 H 1331.15 3.50569 -1.73831 0
M  V30 13578 H 1330.77 3.97501 -0.088764 0
M  V30 13579 N 1331.77 0.549846 1.47697 0
M  V30 13580 C 1333.05 -0.0422793 1.95554 0
M  V30 13581 C 1333.43 -1.49303 1.49238 0
M  V30 13582 O 1332.77 -2.16598 0.727844 0
M  V30 13583 C 1332.98 0.0955552 3.48869 0
M  V30 13584 C 1334.33 -0.0535698 4.24566 0
M  V30 13585 O 1335.36 0.0227365 3.56193 0
M  V30 13586 O 1334.21 -0.21645 5.46071 0
M  V30 13587 H 1331.31 -0.0682465 0.824179 0
M  V30 13588 H 1333.85 0.615849 1.58131 0
M  V30 13589 H 1332.63 1.10536 3.75363 0
M  V30 13590 H 1332.25 -0.600522 3.93039 0
M  V30 13591 N 1333.25 -1.54984 0.285932 0
M  V30 13592 C 1334.19 -2.2295 -0.596822 0
M  V30 13593 C 1335.16 -1.20674 -1.14136 0
M  V30 13594 O 1336.35 -1.49249 -1.18867 0
M  V30 13595 C 1333.49 -2.9625 -1.77002 0
M  V30 13596 C 1332.6 -4.13268 -1.25831 0
M  V30 13597 C 1331.74 -4.74187 -2.39417 0
M  V30 13598 C 1330.78 -5.83377 -1.85304 0
M  V30 13599 N 1329.91 -6.38313 -2.92405 0
M  V30 13600 H 1334.75 -2.97998 -0.0106104 0
M  V30 13601 H 1332.29 -1.47099 0.00653041 0
M  V30 13602 H 1334.25 -3.36971 -2.4598 0
M  V30 13603 H 1332.88 -2.23606 -2.3281 0
M  V30 13604 H 1331.93 -3.77593 -0.461278 0
M  V30 13605 H 1333.24 -4.91979 -0.822049 0
M  V30 13606 H 1332.4 -5.17683 -3.16369 0
M  V30 13607 H 1331.13 -3.94775 -2.86364 0
M  V30 13608 H 1330.14 -5.3932 -1.06835 0
M  V30 13609 H 1331.36 -6.64664 -1.3928 0
M  V30 13610 H 1329.31 -5.61791 -3.38713 0
M  V30 13611 H 1329.23 -7.12328 -2.53228 0
M  V30 13612 H 1330.5 -6.86468 -3.69299 0
M  V30 13613 N 1334.72 -0.0133892 -1.57594 0
M  V30 13614 C 1335.97 0.669624 -1.91426 0
M  V30 13615 C 1336.3 1.72675 -0.888656 0
M  V30 13616 O 1335.58 1.94288 0.0908138 0
M  V30 13617 C 1335.86 1.30051 -3.35796 0
M  V30 13618 C 1335.71 0.254021 -4.49082 0
M  V30 13619 C 1337.03 2.22297 -3.79832 0
M  V30 13620 H 1334.15 0.241958 -0.69615 0
M  V30 13621 H 1336.79 -0.0674278 -1.8988 0
M  V30 13622 H 1334.94 1.92871 -3.37243 0
M  V30 13623 H 1336.62 -0.375524 -4.59769 0
M  V30 13624 H 1334.86 -0.422267 -4.3174 0
M  V30 13625 H 1335.53 0.734756 -5.47088 0
M  V30 13626 H 1338.01 1.69481 -3.8002 0
M  V30 13627 H 1336.88 2.634 -4.81572 0
M  V30 13628 H 1337.14 3.10764 -3.14449 0
M  V30 13629 N 1336.2 1.55448 0.259558 0
M  V30 13630 C 1337.62 1.47588 0.607442 0
M  V30 13631 C 1337.82 0.701053 1.88911 0
M  V30 13632 O 1336.87 0.225305 2.51493 0
M  V30 13633 C 1338.19 2.91905 0.72192 0
M  V30 13634 C 1339.74 3.02201 0.815087 0
M  V30 13635 C 1340.21 4.47799 0.961231 0
M  V30 13636 N 1341.7 4.51684 1.02642 0
M  V30 13637 C 1342.44 5.61574 1.15854 0
M  V30 13638 N 1341.93 6.81301 1.257 0
M  V30 13639 N 1343.73 5.49344 1.1907 0
M  V30 13640 H 1335.88 2.04271 -0.581981 0
M  V30 13641 H 1338.14 0.926865 -0.199059 0
M  V30 13642 H 1337.85 3.51382 -0.149611 0
M  V30 13643 H 1337.72 3.41681 1.59793 0
M  V30 13644 H 1340.11 2.42813 1.67708 0
M  V30 13645 H 1340.19 2.55656 -0.0858102 0
M  V30 13646 H 1339.83 5.07794 0.103848 0
M  V30 13647 H 1339.76 4.92013 1.87698 0
M  V30 13648 H 1342.25 3.65446 0.962184 0
M  V30 13649 H 1342.57 7.60801 1.35652 0
M  V30 13650 H 1340.91 6.84087 1.2268 0
M  V30 13651 H 1344.1 4.54745 1.11018 0
M  V30 13652 H 1344.27 6.35025 1.29022 0
M  V30 13653 N 1337.68 -0.524672 1.4861 0
M  V30 13654 C 1339.1 -0.853703 1.34848 0
M  V30 13655 C 1339.3 -1.98194 0.363529 0
M  V30 13656 O 1338.35 -2.51597 -0.213348 0
M  V30 13657 C 1339.67 -1.21622 2.75006 0
M  V30 13658 C 1341.21 -1.3258 2.83534 0
M  V30 13659 C 1341.69 -1.72172 4.24406 0
M  V30 13660 N 1343.18 -1.79265 4.27105 0
M  V30 13661 C 1343.91 -2.11296 5.33049 0
M  V30 13662 N 1343.41 -2.41714 6.49266 0
M  V30 13663 N 1345.2 -2.12347 5.20447 0
M  V30 13664 H 1337.35 0.219671 2.11261 0
M  V30 13665 H 1339.62 0.0356444 0.94733 0
M  V30 13666 H 1339.32 -0.460776 3.48669 0
M  V30 13667 H 1339.2 -2.16516 3.0887 0
M  V30 13668 H 1341.58 -2.072 2.10124 0
M  V30 13669 H 1341.67 -0.357943 2.53283 0
M  V30 13670 H 1341.31 -0.981108 4.98334 0
M  V30 13671 H 1341.24 -2.70017 4.52104 0
M  V30 13672 H 1343.73 -1.58013 3.43279 0
M  V30 13673 H 1344.04 -2.65276 7.25843 0
M  V30 13674 H 1342.39 -2.39222 6.52532 0
M  V30 13675 H 1345.58 -1.88044 4.28669 0
M  V30 13676 H 1345.75 -2.36978 6.03113 0
M  V30 13677 N 1339.16 -1.37287 -0.77395 0
M  V30 13678 C 1340.44 -1.2291 -1.52159 0
M  V30 13679 C 1340.82 0.178249 -2.10346 0
M  V30 13680 O 1340.16 1.18564 -1.95333 0
M  V30 13681 C 1340.37 -2.32337 -2.60424 0
M  V30 13682 C 1341.72 -2.69769 -3.27887 0
M  V30 13683 O 1342.75 -2.31497 -2.70717 0
M  V30 13684 O 1341.6 -3.35699 -4.31241 0
M  V30 13685 H 1338.7 -0.47948 -0.673816 0
M  V30 13686 H 1341.24 -1.49061 -0.811105 0
M  V30 13687 H 1340.02 -3.26591 -2.15532 0
M  V30 13688 H 1339.64 -2.07638 -3.39076 0
M  V30 13689 N 1340.64 0.999871 -1.21821 0
M  V30 13690 C 1341.57 2.10708 -1.00621 0
M  V30 13691 C 1342.55 1.69954 0.0705417 0
M  V30 13692 O 1343.73 1.9399 -0.0903042 0
M  V30 13693 C 1340.86 3.42496 -0.575646 0
M  V30 13694 C 1339.82 3.97068 -1.59754 0
M  V30 13695 C 1339.14 5.24822 -1.02304 0
M  V30 13696 C 1340.44 4.28545 -2.98574 0
M  V30 13697 H 1342.14 2.28701 -1.93226 0
M  V30 13698 H 1339.68 1.09903 -0.930443 0
M  V30 13699 H 1341.64 4.19357 -0.414481 0
M  V30 13700 H 1340.36 3.2431 0.386059 0
M  V30 13701 H 1339.02 3.22332 -1.74636 0
M  V30 13702 H 1338.67 5.02972 -0.0529016 0
M  V30 13703 H 1338.37 5.62299 -1.70567 0
M  V30 13704 H 1339.89 6.04322 -0.873312 0
M  V30 13705 H 1341.3 4.96229 -2.87106 0
M  V30 13706 H 1339.7 4.77178 -3.63897 0
M  V30 13707 H 1340.77 3.36607 -3.49032 0
M  V30 13708 N 1342.11 1.02678 1.19562 0
M  V30 13709 C 1343.08 0.610407 2.20922 0
M  V30 13710 C 1344.08 -0.324858 1.57484 0
M  V30 13711 O 1345.27 -0.112153 1.73839 0
M  V30 13712 C 1342.4 -0.107115 3.40732 0
M  V30 13713 H 1343.59 1.50722 2.59274 0
M  V30 13714 H 1341.15 0.817725 1.33203 0
M  V30 13715 H 1341.88 -1.01837 3.07896 0
M  V30 13716 H 1341.67 0.564901 3.88009 0
M  V30 13717 H 1343.16 -0.385423 4.15818 0
M  V30 13718 N 1343.59 -1.35528 0.804364 0
M  V30 13719 C 1344.82 -2.03073 0.396091 0
M  V30 13720 C 1345.24 -1.60623 -0.992252 0
M  V30 13721 O 1344.59 -0.802718 -1.63898 0
M  V30 13722 C 1344.64 -3.58467 0.467301 0
M  V30 13723 O 1344.36 -3.99373 1.80091 0
M  V30 13724 C 1345.87 -4.4327 0.0515549 0
M  V30 13725 H 1343.09 -0.651346 0.161212 0
M  V30 13726 H 1345.63 -1.73195 1.08737 0
M  V30 13727 H 1343.78 -3.87001 -0.175703 0
M  V30 13728 H 1344.2 -4.94013 1.76214 0
M  V30 13729 H 1345.67 -5.51789 0.152499 0
M  V30 13730 H 1346.15 -4.27597 -1.00286 0
M  V30 13731 H 1346.76 -4.20027 0.667628 0
M  V30 13732 N 1345.07 -0.557671 -1.47404 0
M  V30 13733 C 1346.35 0.031908 -1.95574 0
M  V30 13734 C 1346.73 1.48509 -1.50027 0
M  V30 13735 O 1346.08 2.16209 -0.73932 0
M  V30 13736 C 1346.29 -0.114055 -3.48814 0
M  V30 13737 C 1347.63 0.0310533 -4.24589 0
M  V30 13738 O 1348.66 -0.041626 -3.56176 0
M  V30 13739 O 1347.52 0.187487 -5.46178 0
M  V30 13740 H 1344.61 0.0638747 -0.82453 0
M  V30 13741 H 1347.16 -0.624227 -1.57802 0
M  V30 13742 H 1345.93 -1.12525 -3.74772 0
M  V30 13743 H 1345.55 0.57967 -3.93352 0
M  V30 13744 N 1346.55 1.54831 -0.294147 0
M  V30 13745 C 1347.48 2.26226 0.57827 0
M  V30 13746 C 1348.46 1.25928 1.14351 0
M  V30 13747 O 1349.65 1.54687 1.17412 0
M  V30 13748 C 1346.78 2.99783 1.75349 0
M  V30 13749 C 1345.73 4.07171 1.31892 0
M  V30 13750 C 1345.06 4.68406 2.57876 0
M  V30 13751 C 1346.36 5.20313 0.455167 0
M  V30 13752 H 1348.05 2.99395 -0.0171936 0
M  V30 13753 H 1345.6 1.43997 -0.00970944 0
M  V30 13754 H 1347.55 3.48448 2.36986 0
M  V30 13755 H 1346.27 2.24181 2.37509 0
M  V30 13756 H 1344.93 3.59346 0.725653 0
M  V30 13757 H 1344.58 3.89451 3.18335 0
M  V30 13758 H 1344.28 5.40927 2.29502 0
M  V30 13759 H 1345.8 5.1983 3.20327 0
M  V30 13760 H 1347.22 5.64913 0.977026 0
M  V30 13761 H 1345.61 5.99512 0.265501 0
M  V30 13762 H 1346.68 4.82088 -0.521434 0
M  V30 13763 N 1348.03 0.0217466 1.57585 0
M  V30 13764 C 1349.25 -0.67246 1.96196 0
M  V30 13765 C 1349.68 -1.6529 0.897827 0
M  V30 13766 O 1349.04 -1.80743 -0.142002 0
M  V30 13767 C 1349.08 -1.36162 3.33905 0
M  V30 13768 O 1348.19 -2.47671 3.29747 0
M  V30 13769 H 1347.53 -0.177238 0.639908 0
M  V30 13770 H 1350.06 0.0814073 2.04438 0
M  V30 13771 H 1350.07 -1.7201 3.69968 0
M  V30 13772 H 1348.74 -0.642893 4.10901 0
M  V30 13773 H 1347.32 -2.13989 3.0539 0
M  V30 13774 N 1349.51 -1.55583 -0.251311 0
M  V30 13775 C 1350.44 -1.9296 -1.31486 0
M  V30 13776 C 1351.42 -0.794001 -1.50431 0
M  V30 13777 O 1352.6 -1.05393 -1.63113 0
M  V30 13778 C 1349.73 -2.22046 -2.67045 0
M  V30 13779 C 1348.69 -3.37816 -2.62801 0
M  V30 13780 C 1348.01 -3.52433 -4.02113 0
M  V30 13781 C 1349.31 -4.73626 -2.20171 0
M  V30 13782 H 1351.01 -2.82046 -1.00451 0
M  V30 13783 H 1348.55 -1.35702 -0.481775 0
M  V30 13784 H 1350.5 -2.46783 -3.41579 0
M  V30 13785 H 1349.23 -1.29782 -2.99707 0
M  V30 13786 H 1347.89 -3.13081 -1.90724 0
M  V30 13787 H 1347.54 -2.57597 -4.32034 0
M  V30 13788 H 1347.24 -4.30283 -4.00163 0
M  V30 13789 H 1348.76 -3.79486 -4.78354 0
M  V30 13790 H 1350.17 -4.97764 -2.84436 0
M  V30 13791 H 1348.57 -5.54547 -2.29341 0
M  V30 13792 H 1349.64 -4.70985 -1.1533 0
M  V30 13793 N 1350.98 0.516783 -1.48886 0
M  V30 13794 C 1352.23 1.26841 -1.56825 0
M  V30 13795 C 1352.55 1.93957 -0.252998 0
M  V30 13796 O 1353.75 2.70681 -0.210765 0
M  V30 13797 C 1352.21 2.30223 -2.76633 0
M  V30 13798 C 1351.82 1.69117 -4.14853 0
M  V30 13799 C 1353.56 3.06313 -2.93893 0
M  V30 13800 C 1351.47 2.70516 -5.25904 0
M  V30 13801 H 1350.4 0.477087 -0.58387 0
M  V30 13802 H 1353.05 0.544187 -1.75245 0
M  V30 13803 H 1351.43 3.05739 -2.51674 0
M  V30 13804 H 1352.6 0.997003 -4.49885 0
M  V30 13805 H 1350.92 1.05473 -4.0282 0
M  V30 13806 H 1353.52 3.8211 -3.74027 0
M  V30 13807 H 1353.86 3.62976 -2.03848 0
M  V30 13808 H 1354.39 2.37911 -3.18815 0
M  V30 13809 H 1351.13 2.18655 -6.17956 0
M  V30 13810 H 1350.65 3.38221 -4.95345 0
M  V30 13811 H 1352.33 3.3325 -5.54575 0
M  V30 13812 N 1352.46 1.37696 0.766659 0
M  V30 13813 C 1353.37 1.36075 1.91104 0
M  V30 13814 C 1354.39 0.259617 1.72052 0
M  V30 13815 O 1355.56 0.49586 1.952 0
M  V30 13816 C 1352.63 1.17176 3.26298 0
M  V30 13817 C 1351.69 2.36975 3.57968 0
M  V30 13818 C 1350.92 2.18968 4.86712 0
M  V30 13819 O 1351.15 1.17658 5.58133 0
M  V30 13820 O 1350.08 3.07269 5.17561 0
M  V30 13821 H 1353.91 2.32472 1.95424 0
M  V30 13822 H 1351.49 1.18478 0.910122 0
M  V30 13823 H 1353.37 1.08645 4.07154 0
M  V30 13824 H 1352.05 0.238559 3.2282 0
M  V30 13825 H 1350.95 2.51079 2.77327 0
M  V30 13826 H 1352.29 3.2888 3.66195 0
M  V30 13827 N 1353.94 -0.993397 1.22349 0
M  V30 13828 C 1355.19 -1.73544 1.04931 0
M  V30 13829 C 1355.52 -1.89721 -0.414661 0
M  V30 13830 O 1354.79 -1.44001 -1.30743 0
M  V30 13831 C 1355.08 -3.14131 1.7605 0
M  V30 13832 C 1354.93 -3.05604 3.30039 0
M  V30 13833 C 1356.25 -4.13294 1.51249 0
M  V30 13834 H 1353.37 -0.629915 0.382591 0
M  V30 13835 H 1356.01 -1.15737 1.50682 0
M  V30 13836 H 1354.16 -3.63483 1.37157 0
M  V30 13837 H 1355.83 -2.63876 3.78374 0
M  V30 13838 H 1354.07 -2.42421 3.59742 0
M  V30 13839 H 1354.75 -4.05086 3.74979 0
M  V30 13840 H 1357.22 -3.72696 1.85033 0
M  V30 13841 H 1356.1 -5.09781 2.03507 0
M  V30 13842 H 1356.36 -4.39855 0.444973 0
M  V30 13843 N 1355.42 -1.03311 -1.19015 0
M  V30 13844 C 1356.36 -0.617567 -2.22384 0
M  V30 13845 C 1357.33 0.370779 -1.61909 0
M  V30 13846 O 1358.52 0.266481 -1.8893 0
M  V30 13847 C 1355.66 0.0211303 -3.45094 0
M  V30 13848 C 1354.77 -1.01377 -4.19937 0
M  V30 13849 C 1353.91 -0.344385 -5.30082 0
M  V30 13850 C 1352.95 -1.3649 -5.96688 0
M  V30 13851 N 1352.08 -0.721026 -6.98388 0
M  V30 13852 H 1356.92 -1.5036 -2.57286 0
M  V30 13853 H 1354.46 -0.75235 -1.26405 0
M  V30 13854 H 1356.42 0.408713 -4.15193 0
M  V30 13855 H 1355.05 0.870721 -3.10835 0
M  V30 13856 H 1354.1 -1.51937 -3.4874 0
M  V30 13857 H 1355.41 -1.78921 -4.65606 0
M  V30 13858 H 1354.57 0.097814 -6.06621 0
M  V30 13859 H 1353.31 0.463216 -4.85495 0
M  V30 13860 H 1352.31 -1.81732 -5.18897 0
M  V30 13861 H 1353.54 -2.17407 -6.43359 0
M  V30 13862 H 1351.48 0.0664057 -6.55966 0
M  V30 13863 H 1351.4 -1.43428 -7.4227 0
M  V30 13864 H 1352.67 -0.30297 -7.78911 0
M  V30 13865 N 1356.9 1.35099 -0.81154 0
M  V30 13866 C 1357.83 2.32264 -0.239925 0
M  V30 13867 C 1358.81 1.57708 0.637354 0
M  V30 13868 O 1359.99 1.85751 0.566598 0
M  V30 13869 C 1357.12 3.41931 0.608325 0
M  V30 13870 C 1356.08 4.27659 -0.170869 0
M  V30 13871 C 1355.4 5.28691 0.799398 0
M  V30 13872 C 1356.7 5.0394 -1.37266 0
M  V30 13873 H 1358.4 2.8032 -1.05172 0
M  V30 13874 H 1355.94 1.34773 -0.507185 0
M  V30 13875 H 1357.89 4.08911 1.01832 0
M  V30 13876 H 1356.62 2.92496 1.45306 0
M  V30 13877 H 1355.28 3.62265 -0.562094 0
M  V30 13878 H 1354.93 4.75521 1.63977 0
M  V30 13879 H 1354.63 5.86921 0.282331 0
M  V30 13880 H 1356.15 5.98542 1.20749 0
M  V30 13881 H 1357.56 5.63838 -1.03728 0
M  V30 13882 H 1355.96 5.7169 -1.82456 0
M  V30 13883 H 1357.03 4.34295 -2.15676 0
M  V30 13884 N 1358.37 0.56548 1.47106 0
M  V30 13885 C 1359.34 -0.167191 2.28589 0
M  V30 13886 C 1360.34 -0.835005 1.3742 0
M  V30 13887 O 1361.53 -0.689598 1.59969 0
M  V30 13888 C 1358.66 -1.24548 3.17333 0
M  V30 13889 H 1359.85 0.548677 2.94838 0
M  V30 13890 H 1357.4 0.322749 1.52931 0
M  V30 13891 H 1358.14 -1.99348 2.55794 0
M  V30 13892 H 1357.92 -0.771335 3.84438 0
M  V30 13893 H 1359.41 -1.75985 3.78707 0
M  V30 13894 N 1359.85 -1.54672 0.302354 0
M  V30 13895 C 1360.82 -2.22246 -0.560283 0
M  V30 13896 C 1361.82 -1.20895 -1.06023 0
M  V30 13897 O 1363.01 -1.45621 -0.956047 0
M  V30 13898 C 1360.14 -2.9099 -1.77589 0
M  V30 13899 H 1361.33 -2.99885 0.0301274 0
M  V30 13900 H 1358.88 -1.56209 0.0532036 0
M  V30 13901 H 1359.62 -2.17433 -2.4061 0
M  V30 13902 H 1359.4 -3.65288 -1.42503 0
M  V30 13903 H 1360.89 -3.42535 -2.38871 0
M  V30 13904 N 1361.33 -0.0301034 -1.57571 0
M  V30 13905 C 1362.29 0.936465 -2.09196 0
M  V30 13906 C 1363.29 1.25347 -1.00722 0
M  V30 13907 O 1364.48 1.19364 -1.26877 0
M  V30 13908 C 1361.62 2.2527 -2.55864 0
M  V30 13909 H 1362.81 0.489332 -2.95881 0
M  V30 13910 H 1360.36 0.217948 -1.54773 0
M  V30 13911 H 1361.1 2.7461 -1.72511 0
M  V30 13912 H 1360.88 2.03573 -3.35113 0
M  V30 13913 H 1362.37 2.94549 -2.96025 0
M  V30 13914 N 1362.81 1.55714 0.243056 0
M  V30 13915 C 1364.06 1.77375 0.968638 0
M  V30 13916 C 1364.38 0.594781 1.85708 0
M  V30 13917 O 1363.65 -0.38928 1.91993 0
M  V30 13918 H 1362.23 0.654174 0.360646 0
M  V30 13919 H 1364.89 1.93157 0.260079 0
M  V30 13920 H 1363.99 2.68674 1.5881 0
M  V30 13921 N 1364.29 -0.50888 1.49158 0
M  V30 13922 C 1365.7 -0.839353 1.35746 0
M  V30 13923 C 1365.9 -1.97797 0.38453 0
M  V30 13924 O 1364.96 -2.51809 -0.186651 0
M  V30 13925 C 1366.27 -1.18698 2.76281 0
M  V30 13926 C 1367.82 -1.29565 2.84924 0
M  V30 13927 C 1368.29 -1.67661 4.26209 0
M  V30 13928 N 1369.79 -1.74725 4.28982 0
M  V30 13929 C 1370.52 -2.05631 5.3526 0
M  V30 13930 N 1370.02 -2.34814 6.51793 0
M  V30 13931 N 1371.81 -2.06815 5.2267 0
M  V30 13932 H 1363.96 0.242065 2.11016 0
M  V30 13933 H 1366.22 0.0456901 0.946898 0
M  V30 13934 H 1365.93 -0.423769 3.49138 0
M  V30 13935 H 1365.8 -2.13227 3.11149 0
M  V30 13936 H 1368.19 -2.0496 2.1231 0
M  V30 13937 H 1368.27 -0.331059 2.53649 0
M  V30 13938 H 1367.92 -0.928198 4.99346 0
M  V30 13939 H 1367.85 -2.65207 4.54943 0
M  V30 13940 H 1370.34 -1.54364 3.44935 0
M  V30 13941 H 1370.65 -2.57562 7.28616 0
M  V30 13942 H 1368.99 -2.32288 6.55032 0
M  V30 13943 H 1372.19 -1.83487 4.30639 0
M  V30 13944 H 1372.36 -2.30568 6.05593 0
M  V30 13945 N 1365.76 -1.381 -0.759346 0
M  V30 13946 C 1367.01 -1.3419 -1.52055 0
M  V30 13947 C 1367.34 0.0697657 -1.94075 0
M  V30 13948 O 1366.62 1.02975 -1.65004 0
M  V30 13949 C 1366.9 -2.29236 -2.7771 0
M  V30 13950 C 1366.75 -3.79237 -2.41866 0
M  V30 13951 C 1368.07 -2.22511 -3.79706 0
M  V30 13952 H 1365.19 -0.488768 -0.551611 0
M  V30 13953 H 1367.83 -1.68902 -0.870174 0
M  V30 13954 H 1365.98 -1.99764 -3.33206 0
M  V30 13955 H 1367.66 -4.19358 -1.92189 0
M  V30 13956 H 1365.9 -3.97199 -1.74399 0
M  V30 13957 H 1366.57 -4.41193 -3.31742 0
M  V30 13958 H 1369.05 -2.48516 -3.33735 0
M  V30 13959 H 1367.92 -2.91134 -4.6533 0
M  V30 13960 H 1368.18 -1.22206 -4.24874 0
M  V30 13961 N 1367.24 0.986894 -1.22875 0
M  V30 13962 C 1368.19 2.07811 -1.00416 0
M  V30 13963 C 1369.16 1.65925 0.0761734 0
M  V30 13964 O 1370.34 1.90654 -0.0746294 0
M  V30 13965 C 1367.48 3.39941 -0.594471 0
M  V30 13966 C 1366.6 3.95134 -1.74622 0
M  V30 13967 C 1365.73 5.1545 -1.28394 0
M  V30 13968 C 1364.77 5.62794 -2.40686 0
M  V30 13969 N 1363.91 6.74343 -1.95462 0
M  V30 13970 H 1368.75 2.26356 -1.93822 0
M  V30 13971 H 1366.29 1.10966 -0.965661 0
M  V30 13972 H 1368.24 4.15828 -0.338078 0
M  V30 13973 H 1366.87 3.21379 0.302587 0
M  V30 13974 H 1365.93 3.16064 -2.11679 0
M  V30 13975 H 1367.24 4.26247 -2.59066 0
M  V30 13976 H 1366.39 5.98646 -0.98529 0
M  V30 13977 H 1365.13 4.85975 -0.409789 0
M  V30 13978 H 1364.14 4.78182 -2.71333 0
M  V30 13979 H 1365.36 5.9429 -3.28627 0
M  V30 13980 H 1363.31 6.46641 -1.10417 0
M  V30 13981 H 1363.22 7.04806 -2.73469 0
M  V30 13982 H 1364.49 7.6103 -1.68683 0
M  V30 13983 N 1368.72 1.0394 1.18466 0
M  V30 13984 C 1370 0.65632 1.8426 0
M  V30 13985 C 1370.38 -0.864288 1.92596 0
M  V30 13986 O 1369.73 -1.76524 1.45092 0
M  V30 13987 C 1369.94 1.33067 3.22636 0
M  V30 13988 C 1371.28 1.46065 3.98686 0
M  V30 13989 O 1372.31 1.28867 3.32072 0
M  V30 13990 O 1371.17 1.74078 5.18034 0
M  V30 13991 H 1368.26 0.229484 0.794523 0
M  V30 13992 H 1370.81 1.13821 1.25868 0
M  V30 13993 H 1369.58 2.36866 3.11465 0
M  V30 13994 H 1369.2 0.837313 3.88683 0
M  V30 13995 N 1370.2 -1.34667 0.818693 0
M  V30 13996 C 1371.11 -2.33375 0.239429 0
M  V30 13997 C 1372.12 -1.62428 -0.623957 0
M  V30 13998 O 1373.3 -1.94223 -0.532854 0
M  V30 13999 C 1370.37 -3.41598 -0.59258 0
M  V30 14000 C 1369.43 -4.28301 0.292712 0
M  V30 14001 C 1368.66 -5.31356 -0.499682 0
M  V30 14002 O 1368.88 -5.43426 -1.73334 0
M  V30 14003 O 1367.82 -6.01789 0.115778 0
M  V30 14004 H 1371.64 -2.84738 1.05631 0
M  V30 14005 H 1369.23 -1.37651 0.58074 0
M  V30 14006 H 1371.11 -4.07692 -1.06607 0
M  V30 14007 H 1369.78 -2.92486 -1.38685 0
M  V30 14008 H 1368.69 -3.65145 0.81361 0
M  V30 14009 H 1370.02 -4.80843 1.05123 0
M  V30 14010 N 1371.68 -0.573274 -1.46804 0
M  V30 14011 C 1372.92 -0.0552613 -2.02425 0
M  V30 14012 C 1373.25 1.30098 -1.44585 0
M  V30 14013 O 1372.51 1.86366 -0.597166 0
M  V30 14014 C 1372.81 0.0704285 -3.57331 0
M  V30 14015 C 1372.47 -1.217 -4.34166 0
M  V30 14016 C 1371.13 -1.56973 -4.54877 0
M  V30 14017 C 1373.49 -2.06939 -4.78357 0
M  V30 14018 C 1370.81 -2.77302 -5.1703 0
M  V30 14019 C 1373.17 -3.26486 -5.41839 0
M  V30 14020 C 1371.83 -3.62053 -5.6078 0
M  V30 14021 H 1371.1 -0.0202215 -0.740724 0
M  V30 14022 H 1373.75 -0.748016 -1.76287 0
M  V30 14023 H 1372.05 0.846254 -3.82552 0
M  V30 14024 H 1373.75 0.486841 -3.98034 0
M  V30 14025 H 1370.34 -0.932374 -4.18336 0
M  V30 14026 H 1374.52 -1.80992 -4.62121 0
M  V30 14027 H 1369.78 -3.05008 -5.29887 0
M  V30 14028 H 1373.95 -3.92811 -5.75042 0
M  V30 14029 H 1371.58 -4.55385 -6.08711 0
M  V30 14030 N 1373.15 1.5451 -0.310553 0
M  V30 14031 C 1374.38 2.05204 0.301013 0
M  V30 14032 C 1374.8 1.1859 1.46007 0
M  V30 14033 O 1374.16 0.192081 1.8028 0
M  V30 14034 C 1374.21 3.53221 0.725767 0
M  V30 14035 O 1373.31 3.69596 1.82955 0
M  V30 14036 H 1372.66 0.661566 0.0568026 0
M  V30 14037 H 1375.19 1.99473 -0.455178 0
M  V30 14038 H 1375.2 3.9525 1.01198 0
M  V30 14039 H 1373.87 4.15721 -0.122046 0
M  V30 14040 H 1372.45 3.39472 1.54315 0
M  V30 14041 N 1374.63 0.0384594 1.57553 0
M  V30 14042 C 1375.88 -0.639085 1.92467 0
M  V30 14043 C 1376.21 -1.71239 0.916014 0
M  V30 14044 O 1375.49 -1.94408 -0.0598928 0
M  V30 14045 C 1375.77 -1.24693 3.37822 0
M  V30 14046 C 1375.62 -0.182544 4.49429 0
M  V30 14047 C 1376.94 -2.16226 3.8332 0
M  V30 14048 H 1374.06 -0.230852 0.699912 0
M  V30 14049 H 1376.7 0.0976276 1.89749 0
M  V30 14050 H 1374.85 -1.87481 3.40269 0
M  V30 14051 H 1376.53 0.448622 4.59113 0
M  V30 14052 H 1374.77 0.4909 4.31013 0
M  V30 14053 H 1375.44 -0.647626 5.48188 0
M  V30 14054 H 1377.92 -1.63413 3.82669 0
M  V30 14055 H 1376.79 -2.55705 4.85702 0
M  V30 14056 H 1377.05 -3.05722 3.19353 0
M  V30 14057 N 1376.11 -1.55841 -0.234795 0
M  V30 14058 C 1377.39 -1.69008 -0.984665 0
M  V30 14059 C 1377.77 -0.581882 -2.02922 0
M  V30 14060 O 1377.12 0.412998 -2.24737 0
M  V30 14061 C 1377.33 -3.09796 -1.60708 0
M  V30 14062 C 1378.67 -3.68784 -2.10436 0
M  V30 14063 O 1379.7 -3.12674 -1.70627 0
M  V30 14064 O 1378.56 -4.67175 -2.83567 0
M  V30 14065 H 1375.65 -0.68786 -0.459105 0
M  V30 14066 H 1378.2 -1.68166 -0.227623 0
M  V30 14067 H 1376.97 -3.81908 -0.852169 0
M  V30 14068 H 1376.59 -3.147 -2.43001 0
M  V30 14069 N 1377.59 0.500963 -1.49426 0
M  V30 14070 C 1378.54 1.6025 -1.66098 0
M  V30 14071 C 1379.51 1.58318 -0.502453 0
M  V30 14072 O 1380.69 1.76304 -0.729482 0
M  V30 14073 C 1377.83 2.98396 -1.73361 0
M  V30 14074 C 1376.94 3.10343 -3.00518 0
M  V30 14075 C 1376.08 4.39222 -2.9876 0
M  V30 14076 C 1375.12 4.44803 -4.20496 0
M  V30 14077 N 1374.26 5.6511 -4.16648 0
M  V30 14078 H 1379.1 1.45342 -2.60153 0
M  V30 14079 H 1376.63 0.707147 -1.28988 0
M  V30 14080 H 1378.59 3.78467 -1.75553 0
M  V30 14081 H 1377.22 3.12007 -0.827718 0
M  V30 14082 H 1376.27 2.23336 -3.07937 0
M  V30 14083 H 1377.58 3.10327 -3.90511 0
M  V30 14084 H 1376.74 5.27613 -2.99515 0
M  V30 14085 H 1375.48 4.41804 -2.06545 0
M  V30 14086 H 1374.48 3.54814 -4.19985 0
M  V30 14087 H 1375.71 4.43937 -5.13903 0
M  V30 14088 H 1373.65 5.68533 -3.2727 0
M  V30 14089 H 1373.57 5.6671 -5.00376 0
M  V30 14090 H 1374.84 6.55708 -4.21506 0
M  V30 14091 N 1379.07 1.38501 0.752011 0
M  V30 14092 C 1379.98 1.38094 1.8965 0
M  V30 14093 C 1380.99 0.277851 1.71767 0
M  V30 14094 O 1382.17 0.516536 1.94663 0
M  V30 14095 C 1379.23 1.2063 3.25037 0
M  V30 14096 C 1378.3 2.40758 3.55435 0
M  V30 14097 C 1377.53 2.24118 4.84362 0
M  V30 14098 O 1377.75 1.23571 5.56854 0
M  V30 14099 O 1376.69 3.12741 5.14273 0
M  V30 14100 H 1380.51 2.34532 1.92947 0
M  V30 14101 H 1378.1 1.19437 0.897504 0
M  V30 14102 H 1379.98 1.12957 4.05979 0
M  V30 14103 H 1378.65 0.272785 3.22549 0
M  V30 14104 H 1377.56 2.54006 2.74648 0
M  V30 14105 H 1378.89 3.32745 3.62686 0
M  V30 14106 N 1380.55 -0.980364 1.23396 0
M  V30 14107 C 1381.51 -2.05433 1.01635 0
M  V30 14108 C 1382.51 -1.60785 -0.0218244 0
M  V30 14109 O 1383.7 -1.72832 0.217922 0
M  V30 14110 C 1380.83 -3.36631 0.537822 0
M  V30 14111 H 1382.02 -2.26172 1.96943 0
M  V30 14112 H 1379.58 -1.15378 1.05441 0
M  V30 14113 H 1380.31 -3.21581 -0.41903 0
M  V30 14114 H 1380.1 -3.70377 1.28698 0
M  V30 14115 H 1381.59 -4.1562 0.406213 0
M  V30 14116 N 1382.02 -1.04567 -1.17913 0
M  V30 14117 C 1383.25 -0.772146 -1.92491 0
M  V30 14118 C 1383.67 0.665297 -1.75942 0
M  V30 14119 O 1383.03 1.46144 -1.07292 0
M  V30 14120 C 1383.08 -1.14966 -3.41782 0
M  V30 14121 O 1382.18 -0.278091 -4.11461 0
M  V30 14122 H 1381.52 -0.283715 -0.600335 0
M  V30 14123 H 1384.05 -1.39685 -1.49496 0
M  V30 14124 H 1384.06 -1.11374 -3.92505 0
M  V30 14125 H 1382.74 -2.1968 -3.53148 0
M  V30 14126 H 1381.32 -0.374073 -3.71019 0
M  V30 14127 N 1383.5 1.34231 -0.825823 0
M  V30 14128 C 1384.46 2.27776 -0.25512 0
M  V30 14129 C 1385.46 1.50409 0.568654 0
M  V30 14130 O 1386.65 1.69907 0.384337 0
M  V30 14131 C 1383.79 3.348 0.642013 0
M  V30 14132 H 1384.98 2.79763 -1.0804 0
M  V30 14133 H 1382.53 1.44412 -0.597904 0
M  V30 14134 H 1383.27 2.88032 1.49024 0
M  V30 14135 H 1383.05 3.92064 0.0527756 0
M  V30 14136 H 1384.54 4.0457 1.03502 0
M  V30 14137 N 1384.98 0.581051 1.46498 0
M  V30 14138 C 1385.93 -0.174031 2.27335 0
M  V30 14139 C 1386.91 -0.863391 1.35773 0
M  V30 14140 O 1388.11 -0.75776 1.59959 0
M  V30 14141 C 1385.23 -1.18814 3.22084 0
M  V30 14142 C 1384.32 -0.500978 4.21131 0
M  V30 14143 N 1384.71 0.442495 5.03861 0
M  V30 14144 C 1383.01 -0.751932 4.39616 0
M  V30 14145 C 1383.71 0.843944 5.75545 0
M  V30 14146 N 1382.69 0.19346 5.43256 0
M  V30 14147 H 1386.49 0.551004 2.88689 0
M  V30 14148 H 1384 0.402722 1.57327 0
M  V30 14149 H 1386 -1.74325 3.78703 0
M  V30 14150 H 1384.66 -1.91401 2.62289 0
M  V30 14151 H 1385.67 0.817931 5.114 0
M  V30 14152 H 1382.35 -1.46451 3.90971 0
M  V30 14153 H 1383.74 1.62058 6.52063 0
M  V30 14154 N 1386.46 -1.54343 0.318742 0
M  V30 14155 C 1387.71 -1.9966 -0.286146 0
M  V30 14156 C 1388.02 -1.21073 -1.53625 0
M  V30 14157 O 1389.23 -1.56744 -2.21684 0
M  V30 14158 C 1387.68 -3.5551 -0.560405 0
M  V30 14159 C 1387.29 -4.42926 0.672373 0
M  V30 14160 C 1389.03 -4.09307 -1.12551 0
M  V30 14161 C 1386.94 -5.9024 0.370285 0
M  V30 14162 H 1385.87 -0.74583 -0.110698 0
M  V30 14163 H 1388.52 -1.78386 0.430215 0
M  V30 14164 H 1386.9 -3.72753 -1.33683 0
M  V30 14165 H 1388.08 -4.37458 1.448 0
M  V30 14166 H 1386.39 -3.99993 1.15736 0
M  V30 14167 H 1388.99 -5.16955 -1.36607 0
M  V30 14168 H 1389.33 -3.60994 -2.07338 0
M  V30 14169 H 1389.87 -3.95677 -0.410385 0
M  V30 14170 H 1386.6 -6.42738 1.28719 0
M  V30 14171 H 1386.12 -5.98672 -0.367731 0
M  V30 14172 H 1387.8 -6.46996 -0.0216582 0
M  V30 14173 N 1387.94 -0.0468143 -1.5753 0
M  V30 14174 C 1389.16 0.641161 -1.97241 0
M  V30 14175 C 1389.59 1.6384 -0.92401 0
M  V30 14176 O 1388.94 1.80946 0.113229 0
M  V30 14177 C 1388.99 1.30832 -3.36029 0
M  V30 14178 O 1388.1 2.42394 -3.33645 0
M  V30 14179 H 1387.44 0.167035 -0.642647 0
M  V30 14180 H 1389.97 -0.113921 -2.04283 0
M  V30 14181 H 1389.98 1.66102 -3.72658 0
M  V30 14182 H 1388.65 0.57744 -4.11872 0
M  V30 14183 H 1387.23 2.09104 -3.08756 0
M  V30 14184 N 1389.41 1.55964 0.226527 0
M  V30 14185 C 1390.66 1.78392 0.94977 0
M  V30 14186 C 1390.98 0.614444 1.85066 0
M  V30 14187 O 1390.25 -0.368894 1.92395 0
M  V30 14188 H 1388.83 0.657962 0.353688 0
M  V30 14189 H 1391.5 1.93422 0.239577 0
M  V30 14190 H 1390.59 2.70343 1.55952 0
M  V30 14191 N 1390.89 -0.493031 1.4969 0
M  V30 14192 C 1392.17 -1.25436 1.50084 0
M  V30 14193 C 1392.55 -2.0981 0.233038 0
M  V30 14194 O 1391.9 -2.14617 -0.784342 0
M  V30 14195 C 1392.11 -2.10425 2.78428 0
M  V30 14196 C 1393.46 -2.69349 3.28232 0
M  V30 14197 O 1394.48 -2.20686 2.796 0
M  V30 14198 O 1393.34 -3.57956 4.12953 0
M  V30 14199 H 1390.43 -0.568044 0.601045 0
M  V30 14200 H 1392.98 -0.506648 1.6196 0
M  V30 14201 H 1391.75 -1.48108 3.62187 0
M  V30 14202 H 1391.37 -2.92374 2.6945 0
M  V30 14203 N 1392.37 -1.38898 -0.744656 0
M  V30 14204 C 1393.32 -1.36845 -1.85855 0
M  V30 14205 C 1394.29 -0.2296 -1.64505 0
M  V30 14206 O 1395.47 -0.423221 -1.86047 0
M  V30 14207 C 1392.61 -1.20818 -3.2326 0
M  V30 14208 C 1391.73 -2.44166 -3.5638 0
M  V30 14209 C 1390.86 -2.20801 -4.83136 0
M  V30 14210 C 1389.9 -3.39874 -5.0907 0
M  V30 14211 N 1389.04 -3.15888 -6.27024 0
M  V30 14212 H 1393.88 -2.32068 -1.86945 0
M  V30 14213 H 1391.41 -1.15289 -0.913611 0
M  V30 14214 H 1393.37 -1.0954 -4.02563 0
M  V30 14215 H 1392 -0.292295 -3.21474 0
M  V30 14216 H 1391.05 -2.66083 -2.71852 0
M  V30 14217 H 1392.37 -3.32885 -3.71469 0
M  V30 14218 H 1391.52 -2.0671 -5.704 0
M  V30 14219 H 1390.26 -1.29462 -4.70203 0
M  V30 14220 H 1389.26 -3.54474 -4.20271 0
M  V30 14221 H 1390.49 -4.32102 -5.23894 0
M  V30 14222 H 1388.43 -2.27204 -6.15398 0
M  V30 14223 H 1388.35 -3.9816 -6.42655 0
M  V30 14224 H 1389.62 -3.0547 -7.17153 0
M  V30 14225 N 1393.85 0.973806 -1.23914 0
M  V30 14226 C 1395.07 1.7564 -1.10296 0
M  V30 14227 C 1395.5 1.84984 0.340954 0
M  V30 14228 O 1394.86 1.31629 1.24674 0
M  V30 14229 C 1394.9 3.15809 -1.7406 0
M  V30 14230 O 1394.01 3.99911 -1.00722 0
M  V30 14231 H 1393.35 0.540133 -0.386202 0
M  V30 14232 H 1395.88 1.22197 -1.64101 0
M  V30 14233 H 1395.89 3.66359 -1.79568 0
M  V30 14234 H 1394.56 3.08324 -2.79122 0
M  V30 14235 H 1393.14 3.58405 -1.02956 0
M  V30 14236 N 1395.33 1.05191 1.17357 0
M  V30 14237 C 1396.57 0.760479 1.87246 0
M  V30 14238 C 1396.9 -0.714618 1.81434 0
M  V30 14239 O 1396.17 -1.51636 1.24029 0
M  V30 14240 H 1394.75 0.278317 0.693216 0
M  V30 14241 H 1397.41 1.33106 1.42369 0
M  V30 14242 H 1396.5 1.07542 2.92987 0
M  V30 14243 N 1396.8 -1.33791 0.83293 0
M  V30 14244 C 1397.73 -2.31853 0.276846 0
M  V30 14245 C 1398.72 -1.58702 -0.612184 0
M  V30 14246 O 1399.9 -1.86629 -0.536975 0
M  V30 14247 C 1397.03 -3.42855 -0.55385 0
M  V30 14248 C 1395.98 -4.27333 0.238884 0
M  V30 14249 C 1395.31 -5.29895 -0.715187 0
M  V30 14250 C 1396.61 -5.01692 1.45265 0
M  V30 14251 H 1398.3 -2.78611 1.09618 0
M  V30 14252 H 1395.85 -1.33949 0.528562 0
M  V30 14253 H 1397.8 -4.10479 -0.953133 0
M  V30 14254 H 1396.53 -2.94771 -1.40634 0
M  V30 14255 H 1395.19 -3.61325 0.619656 0
M  V30 14256 H 1394.83 -4.7807 -1.56391 0
M  V30 14257 H 1394.53 -5.87296 -0.188921 0
M  V30 14258 H 1396.06 -6.00387 -1.11211 0
M  V30 14259 H 1397.47 -5.62117 1.12685 0
M  V30 14260 H 1395.87 -5.68715 1.91528 0
M  V30 14261 H 1396.94 -4.30809 2.22558 0
M  V30 14262 N 1398.28 -0.588812 -1.46187 0
M  V30 14263 C 1399.51 -0.0806571 -2.07243 0
M  V30 14264 C 1399.93 1.21766 -1.43369 0
M  V30 14265 O 1399.29 1.73694 -0.51964 0
M  V30 14266 C 1399.34 0.065267 -3.60541 0
M  V30 14267 O 1398.44 1.12026 -3.96893 0
M  V30 14268 H 1397.78 -0.0655622 -0.660755 0
M  V30 14269 H 1400.31 -0.813489 -1.87733 0
M  V30 14270 H 1400.32 0.269494 -4.07109 0
M  V30 14271 H 1399 -0.88284 -4.06422 0
M  V30 14272 H 1397.58 0.894 -3.62025 0
M  V30 14273 N 1399.76 1.54172 -0.326923 0
M  V30 14274 C 1400.71 2.24454 0.537501 0
M  V30 14275 C 1401.68 1.23658 1.10896 0
M  V30 14276 O 1402.86 1.52348 1.14868 0
M  V30 14277 C 1400 3.00839 1.69085 0
M  V30 14278 C 1399.12 4.16459 1.1483 0
M  V30 14279 C 1398.25 4.80368 2.26761 0
M  V30 14280 C 1397.29 5.88085 1.69771 0
M  V30 14281 N 1396.43 6.45842 2.75378 0
M  V30 14282 H 1401.27 2.97921 -0.0684022 0
M  V30 14283 H 1398.8 1.4703 -0.0455287 0
M  V30 14284 H 1400.76 3.43375 2.36959 0
M  V30 14285 H 1399.39 2.297 2.26799 0
M  V30 14286 H 1398.44 3.78683 0.361004 0
M  V30 14287 H 1399.76 4.93986 0.69132 0
M  V30 14288 H 1398.91 5.25889 3.02533 0
M  V30 14289 H 1397.65 4.02228 2.75796 0
M  V30 14290 H 1396.65 5.41963 0.924985 0
M  V30 14291 H 1397.88 6.68123 1.21609 0
M  V30 14292 H 1395.82 5.70574 3.23699 0
M  V30 14293 H 1395.74 7.18792 2.34253 0
M  V30 14294 H 1397.01 6.96018 3.50969 0
M  V30 14295 N 1401.24 0.0551678 1.57503 0
M  V30 14296 C 1402.15 -0.932959 2.15251 0
M  V30 14297 C 1403.16 -1.33885 1.11134 0
M  V30 14298 O 1404.34 -1.41495 1.43321 0
M  V30 14299 C 1401.41 -2.18807 2.68932 0
M  V30 14300 C 1400.47 -1.84016 3.87862 0
M  V30 14301 C 1399.7 -3.03543 4.38973 0
M  V30 14302 O 1399.92 -4.17041 3.89144 0
M  V30 14303 O 1398.86 -2.84325 5.30512 0
M  V30 14304 H 1402.68 -0.471816 3.00013 0
M  V30 14305 H 1400.27 -0.16696 1.48464 0
M  V30 14306 H 1402.15 -2.92439 3.0341 0
M  V30 14307 H 1400.82 -2.64051 1.87239 0
M  V30 14308 H 1399.73 -1.07687 3.58266 0
M  V30 14309 H 1401.06 -1.43567 4.70796 0
M  V30 14310 N 1402.72 -1.56081 -0.218252 0
M  V30 14311 C 1403.96 -1.79247 -0.942157 0
M  V30 14312 C 1404.29 -0.624492 -1.84202 0
M  V30 14313 O 1403.55 0.390973 -1.91755 0
M  V30 14314 C 1403.85 -3.08199 -1.80965 0
M  V30 14315 C 1403.51 -4.38197 -1.06274 0
M  V30 14316 C 1402.17 -4.73517 -0.856432 0
M  V30 14317 C 1404.53 -5.18441 -0.535532 0
M  V30 14318 C 1401.85 -5.86595 -0.111065 0
M  V30 14319 C 1404.21 -6.32295 0.196507 0
M  V30 14320 C 1402.87 -6.66215 0.414041 0
M  V30 14321 H 1402.14 -0.655913 -0.34476 0
M  V30 14322 H 1404.79 -1.90344 -0.210095 0
M  V30 14323 H 1403.09 -2.92238 -2.60967 0
M  V30 14324 H 1404.79 -3.23325 -2.37196 0
M  V30 14325 H 1401.38 -4.10466 -1.23352 0
M  V30 14326 H 1405.56 -4.91586 -0.682386 0
M  V30 14327 H 1400.82 -6.11363 0.0676711 0
M  V30 14328 H 1404.99 -6.93701 0.612516 0
M  V30 14329 H 1402.62 -7.5368 0.993532 0
M  V30 14330 N 1404.2 0.485086 -1.49949 0
M  V30 14331 C 1405.47 1.24639 -1.50747 0
M  V30 14332 C 1405.85 2.09683 -0.244162 0
M  V30 14333 O 1405.2 2.1503 0.772949 0
M  V30 14334 C 1405.41 2.08946 -2.7954 0
M  V30 14335 C 1406.76 2.67604 -3.29656 0
M  V30 14336 O 1407.78 2.192 -2.80766 0
M  V30 14337 O 1406.64 3.55761 -4.14845 0
M  V30 14338 H 1403.74 0.564849 -0.604049 0
M  V30 14339 H 1406.28 0.498052 -1.62227 0
M  V30 14340 H 1405.05 1.46185 -3.62968 0
M  V30 14341 H 1404.68 2.90941 -2.70997 0
M  V30 14342 N 1405.67 1.39291 0.737279 0
M  V30 14343 C 1406.61 1.33728 1.86144 0
M  V30 14344 C 1407.62 0.246468 1.60924 0
M  V30 14345 O 1408.81 0.505252 1.712 0
M  V30 14346 C 1405.91 1.05312 3.22122 0
M  V30 14347 C 1405.08 2.25624 3.74716 0
M  V30 14348 C 1404.14 1.937 4.89251 0
M  V30 14349 O 1403.17 2.66361 5.03031 0
M  V30 14350 N 1404.37 0.901782 5.73453 0
M  V30 14351 H 1407.13 2.30604 1.91421 0
M  V30 14352 H 1404.69 1.33364 0.917919 0
M  V30 14353 H 1406.69 0.819784 3.9631 0
M  V30 14354 H 1405.26 0.171773 3.12128 0
M  V30 14355 H 1404.48 2.64923 2.91906 0
M  V30 14356 H 1405.76 3.05881 4.06589 0
M  V30 14357 H 1405.16 0.299553 5.64906 0
M  V30 14358 H 1403.72 0.728344 6.47718 0
M  V30 14359 N 1407.15 -0.967221 1.24429 0
M  V30 14360 C 1408.06 -2.09582 1.05417 0
M  V30 14361 C 1409.08 -1.73999 -0.00516127 0
M  V30 14362 O 1410.25 -2.00472 0.193115 0
M  V30 14363 C 1407.32 -3.40327 0.661697 0
M  V30 14364 C 1406.38 -3.89854 1.79756 0
M  V30 14365 C 1405.61 -5.1436 1.42372 0
M  V30 14366 O 1405.84 -5.69536 0.313754 0
M  V30 14367 O 1404.77 -5.58283 2.24952 0
M  V30 14368 H 1408.6 -2.28517 2.00034 0
M  V30 14369 H 1406.18 -1.07978 1.03253 0
M  V30 14370 H 1408.06 -4.18943 0.454369 0
M  V30 14371 H 1406.74 -3.22691 -0.255348 0
M  V30 14372 H 1405.64 -3.12297 2.05964 0
M  V30 14373 H 1406.98 -4.11967 2.69339 0
M  V30 14374 N 1408.63 -1.05812 -1.16797 0
M  V30 14375 C 1409.58 -0.664599 -2.21024 0
M  V30 14376 C 1410.55 0.336352 -1.62659 0
M  V30 14377 O 1411.73 0.226346 -1.89453 0
M  V30 14378 C 1408.87 -0.0520739 -3.45061 0
M  V30 14379 C 1407.98 -1.10261 -4.17692 0
M  V30 14380 C 1407.12 -0.456746 -5.29233 0
M  V30 14381 C 1406.16 -1.49116 -5.93659 0
M  V30 14382 N 1405.3 -0.869002 -6.96701 0
M  V30 14383 H 1410.14 -1.55784 -2.54038 0
M  V30 14384 H 1407.67 -0.778993 -1.2478 0
M  V30 14385 H 1409.63 0.320552 -4.15967 0
M  V30 14386 H 1408.26 0.804592 -3.12612 0
M  V30 14387 H 1407.31 -1.593 -3.45438 0
M  V30 14388 H 1408.62 -1.88757 -4.61706 0
M  V30 14389 H 1407.78 -0.0308814 -6.06692 0
M  V30 14390 H 1406.52 0.360131 -4.86369 0
M  V30 14391 H 1405.52 -1.92697 -5.14925 0
M  V30 14392 H 1406.75 -2.31005 -6.38603 0
M  V30 14393 H 1404.69 -0.0727494 -6.5596 0
M  V30 14394 H 1404.61 -1.59141 -7.3906 0
M  V30 14395 H 1405.88 -0.46812 -7.78093 0
M  V30 14396 N 1410.11 1.33347 -0.840014 0
M  V30 14397 C 1411.05 2.29191 -0.272048 0
M  V30 14398 C 1412.02 1.54383 0.612787 0
M  V30 14399 O 1413.21 1.82676 0.550812 0
M  V30 14400 C 1410.35 3.40755 0.545901 0
M  V30 14401 C 1409.46 4.30471 -0.363084 0
M  V30 14402 C 1408.6 5.29151 0.466078 0
M  V30 14403 C 1407.64 6.10508 -0.441225 0
M  V30 14404 N 1406.77 7.01228 0.349877 0
M  V30 14405 H 1411.61 2.77166 -1.09467 0
M  V30 14406 H 1409.15 1.36379 -0.551284 0
M  V30 14407 H 1411.11 4.04142 1.03562 0
M  V30 14408 H 1409.74 2.9397 1.33348 0
M  V30 14409 H 1408.79 3.67795 -0.971119 0
M  V30 14410 H 1410.1 4.87406 -1.06002 0
M  V30 14411 H 1409.26 5.98072 1.01957 0
M  V30 14412 H 1408 4.72796 1.19644 0
M  V30 14413 H 1407 5.40504 -1.00672 0
M  V30 14414 H 1408.23 6.68946 -1.16997 0
M  V30 14415 H 1406.17 6.4732 1.0636 0
M  V30 14416 H 1406.09 7.5545 -0.288317 0
M  V30 14417 H 1407.36 7.74453 0.885573 0
M  V30 14418 N 1411.59 0.596556 1.45873 0
M  V30 14419 C 1412.55 -0.118666 2.28893 0
M  V30 14420 C 1413.55 -0.805668 1.3916 0
M  V30 14421 O 1414.74 -0.655511 1.61396 0
M  V30 14422 C 1411.87 -1.17789 3.19904 0
M  V30 14423 H 1413.06 0.611093 2.93608 0
M  V30 14424 H 1410.62 0.355115 1.52212 0
M  V30 14425 H 1411.35 -1.93878 2.59965 0
M  V30 14426 H 1411.14 -0.689616 3.85988 0
M  V30 14427 H 1412.63 -1.67912 3.82355 0
M  V30 14428 N 1413.06 -1.53996 0.335095 0
M  V30 14429 C 1414.01 -2.26221 -0.541007 0
M  V30 14430 C 1415.01 -1.28053 -1.109 0
M  V30 14431 O 1416.21 -1.4579 -1.05571 0
M  V30 14432 H 1412.59 -0.726775 -0.193136 0
M  V30 14433 H 1414.56 -2.98263 0.0902792 0
M  V30 14434 C 1413.31 -3.04173 -1.68445 0
M  V30 14435 H 1412.63 -3.79537 -1.25665 0
M  V30 14436 H 1414.07 -3.57937 -2.27282 0
M  V30 14437 C 1412.53 -2.13162 -2.6089 0
M  V30 14438 O 1413.06 -1.7221 -3.62914 0
M  V30 14439 N 1411.26 -1.78414 -2.29384 0
M  V30 14440 H 1410.81 -2.11914 -1.46458 0
M  V30 14441 H 1410.77 -1.178 -2.91497 0
M  V30 14442 N 1414.54 -0.0635198 -1.57472 0
M  V30 14443 C 1415.82 0.648029 -1.84553 0
M  V30 14444 C 1416.2 1.88295 -0.954371 0
M  V30 14445 O 1415.55 2.28492 -0.0185351 0
M  V30 14446 C 1415.76 0.993573 -3.34558 0
M  V30 14447 C 1417.1 1.3706 -4.0187 0
M  V30 14448 O 1418.13 1.08555 -3.39255 0
M  V30 14449 O 1416.99 1.90309 -5.12294 0
M  V30 14450 H 1414.08 0.321047 -0.76214 0
M  V30 14451 H 1416.63 -0.0938223 -1.6944 0
M  V30 14452 H 1415.4 0.116139 -3.91128 0
M  V30 14453 H 1415.02 1.79246 -3.54904 0
M  V30 14454 N 1416.02 1.56195 0.209972 0
M  V30 14455 C 1417.44 1.49446 0.56018 0
M  V30 14456 C 1417.64 0.760799 1.86585 0
M  V30 14457 O 1416.69 0.305201 2.50649 0
M  V30 14458 C 1418 2.94054 0.628687 0
M  V30 14459 C 1419.55 3.04641 0.718531 0
M  V30 14460 C 1420.03 4.50631 0.81828 0
M  V30 14461 N 1421.52 4.54721 0.8822 0
M  V30 14462 C 1422.25 5.64976 0.979292 0
M  V30 14463 N 1421.75 6.84955 1.03961 0
M  V30 14464 N 1423.54 5.52854 1.01533 0
M  V30 14465 H 1415.69 2.02316 -0.646674 0
M  V30 14466 H 1417.96 0.920063 -0.228446 0
M  V30 14467 H 1417.66 3.50728 -0.261324 0
M  V30 14468 H 1417.54 3.46592 1.48842 0
M  V30 14469 H 1419.92 2.48026 1.59898 0
M  V30 14470 H 1420 2.55254 -0.167102 0
M  V30 14471 H 1419.65 5.07867 -0.0577557 0
M  V30 14472 H 1419.58 4.97736 1.7195 0
M  V30 14473 H 1422.07 3.68322 0.845433 0
M  V30 14474 H 1422.38 7.64732 1.11379 0
M  V30 14475 H 1420.73 6.87643 1.00854 0
M  V30 14476 H 1423.92 4.58046 0.96494 0
M  V30 14477 H 1424.09 6.38809 1.08754 0
M  V30 14478 N 1417.5 -0.477127 1.50204 0
M  V30 14479 C 1418.43 -1.58405 1.71552 0
M  V30 14480 C 1419.41 -1.60463 0.564413 0
M  V30 14481 O 1420.59 -1.76826 0.802893 0
M  V30 14482 C 1417.72 -2.96765 1.8041 0
M  V30 14483 C 1416.68 -3.09573 2.95548 0
M  V30 14484 C 1416 -4.49522 2.89542 0
M  V30 14485 C 1417.3 -2.87356 4.36147 0
M  V30 14486 H 1419 -1.40792 2.64231 0
M  V30 14487 H 1416.54 -0.675886 1.27153 0
M  V30 14488 H 1418.5 -3.74125 1.9393 0
M  V30 14489 H 1417.22 -3.1552 0.843489 0
M  V30 14490 H 1415.88 -2.34645 2.81669 0
M  V30 14491 H 1415.53 -4.65186 1.91339 0
M  V30 14492 H 1415.23 -4.59028 3.66834 0
M  V30 14493 H 1416.75 -5.28909 3.05102 0
M  V30 14494 H 1418.17 -3.54469 4.50583 0
M  V30 14495 H 1416.56 -3.08313 5.14843 0
M  V30 14496 H 1417.63 -1.83264 4.48935 0
M  V30 14497 N 1418.98 -1.3968 -0.729882 0
M  V30 14498 C 1420.25 -1.27689 -1.48172 0
M  V30 14499 C 1420.63 0.111239 -2.10807 0
M  V30 14500 O 1419.98 1.12289 -1.99006 0
M  V30 14501 C 1420.19 -2.40505 -2.529 0
M  V30 14502 C 1421.54 -2.80064 -3.19138 0
M  V30 14503 O 1422.56 -2.39992 -2.63215 0
M  V30 14504 O 1421.42 -3.49248 -4.20342 0
M  V30 14505 H 1418.52 -0.500674 -0.658221 0
M  V30 14506 H 1421.06 -1.51566 -0.763272 0
M  V30 14507 H 1419.83 -3.33282 -2.05033 0
M  V30 14508 H 1419.46 -2.1832 -3.32298 0
M  V30 14509 N 1420.45 0.960609 -1.2494 0
M  V30 14510 C 1421.68 1.73928 -1.12057 0
M  V30 14511 C 1422.1 1.8596 0.32623 0
M  V30 14512 O 1421.45 1.35303 1.22472 0
M  V30 14513 C 1421.51 3.15614 -1.76267 0
M  V30 14514 O 1421.23 3.04177 -3.15291 0
M  V30 14515 C 1422.73 4.09786 -1.69086 0
M  V30 14516 H 1419.95 0.5452 -0.39115 0
M  V30 14517 H 1422.49 1.20556 -1.65186 0
M  V30 14518 H 1420.65 3.65949 -1.27123 0
M  V30 14519 H 1421.06 3.93513 -3.46768 0
M  V30 14520 H 1422.53 5.06835 -2.18683 0
M  V30 14521 H 1423.01 4.34312 -0.653453 0
M  V30 14522 H 1423.62 3.65365 -2.1769 0
M  V30 14523 N 1421.93 1.0643 1.16234 0
M  V30 14524 C 1423.18 0.782998 1.87075 0
M  V30 14525 C 1423.51 -0.688852 1.81572 0
M  V30 14526 O 1422.79 -1.50478 1.23234 0
M  V30 14527 C 1423.07 1.27997 3.36584 0
M  V30 14528 C 1422.92 2.81568 3.5077 0
M  V30 14529 C 1424.24 0.888975 4.31028 0
M  V30 14530 H 1421.36 0.28591 0.679282 0
M  V30 14531 H 1424 1.32046 1.36615 0
M  V30 14532 H 1422.15 0.822756 3.79688 0
M  V30 14533 H 1423.82 3.35508 3.16595 0
M  V30 14534 H 1422.07 3.2023 2.92635 0
M  V30 14535 H 1422.74 3.11406 4.55774 0
M  V30 14536 H 1425.21 1.28279 3.95833 0
M  V30 14537 H 1424.09 1.26416 5.34144 0
M  V30 14538 H 1424.35 -0.205973 4.4162 0
M  V30 14539 N 1423.41 -1.329 0.847073 0
M  V30 14540 C 1424.34 -2.31546 0.301422 0
M  V30 14541 C 1425.32 -1.59342 -0.595317 0
M  V30 14542 O 1426.51 -1.87188 -0.517151 0
M  V30 14543 C 1423.64 -3.43423 -0.517454 0
M  V30 14544 C 1422.59 -4.27055 0.284195 0
M  V30 14545 C 1421.92 -5.30624 -0.658944 0
M  V30 14546 C 1423.22 -5.00123 1.50578 0
M  V30 14547 H 1424.91 -2.77433 1.12567 0
M  V30 14548 H 1422.46 -1.3338 0.542739 0
M  V30 14549 H 1424.41 -4.11467 -0.909543 0
M  V30 14550 H 1423.13 -2.96246 -1.37499 0
M  V30 14551 H 1421.79 -3.60648 0.657944 0
M  V30 14552 H 1421.44 -4.79702 -1.51311 0
M  V30 14553 H 1421.14 -5.87464 -0.12662 0
M  V30 14554 H 1422.66 -6.01533 -1.04837 0
M  V30 14555 H 1424.08 -5.6089 1.18641 0
M  V30 14556 H 1422.48 -5.66652 1.97549 0
M  V30 14557 H 1423.55 -4.28424 2.27115 0
M  V30 14558 N 1424.89 -0.604284 -1.45555 0
M  V30 14559 C 1425.8 0.118409 -2.34301 0
M  V30 14560 C 1426.81 0.863807 -1.51044 0
M  V30 14561 O 1427.99 0.822138 -1.83856 0
M  V30 14562 C 1425.06 1.10538 -3.28606 0
M  V30 14563 C 1424.12 0.362301 -4.27768 0
M  V30 14564 C 1423.35 1.30226 -5.17568 0
M  V30 14565 O 1423.57 2.53991 -5.10729 0
M  V30 14566 O 1422.51 0.801116 -5.96545 0
M  V30 14567 H 1426.33 -0.610816 -2.97494 0
M  V30 14568 H 1423.92 -0.364562 -1.44884 0
M  V30 14569 H 1425.8 1.67392 -3.86727 0
M  V30 14570 H 1424.47 1.81569 -2.67982 0
M  V30 14571 H 1423.38 -0.248616 -3.73273 0
M  V30 14572 H 1424.71 -0.307454 -4.91239 0
M  V30 14573 N 1426.37 1.53816 -0.343257 0
M  V30 14574 C 1427.31 2.25011 0.513664 0
M  V30 14575 C 1428.28 1.24827 1.09578 0
M  V30 14576 O 1429.47 1.53558 1.13245 0
M  V30 14577 C 1426.61 3.02616 1.65885 0
M  V30 14578 C 1425.72 4.17653 1.10406 0
M  V30 14579 C 1424.86 4.82746 2.21653 0
M  V30 14580 C 1423.9 5.89853 1.63524 0
M  V30 14581 N 1423.03 6.48726 2.68512 0
M  V30 14582 H 1427.87 2.97832 -0.099997 0
M  V30 14583 H 1425.41 1.46973 -0.0611206 0
M  V30 14584 H 1427.37 3.45868 2.33304 0
M  V30 14585 H 1426 2.32092 2.2435 0
M  V30 14586 H 1425.05 3.79045 0.320819 0
M  V30 14587 H 1426.36 4.94691 0.638887 0
M  V30 14588 H 1425.52 5.29068 2.96938 0
M  V30 14589 H 1424.25 4.05131 2.71515 0
M  V30 14590 H 1423.26 5.42914 0.86745 0
M  V30 14591 H 1424.48 6.69375 1.14515 0
M  V30 14592 H 1422.43 5.73975 3.17629 0
M  V30 14593 H 1422.35 7.21236 2.26616 0
M  V30 14594 H 1423.62 6.99701 3.43567 0
M  V30 14595 N 1427.84 0.0718701 1.57436 0
M  V30 14596 C 1429.07 -0.609701 1.98236 0
M  V30 14597 C 1429.49 -1.6235 0.949959 0
M  V30 14598 O 1428.85 -1.81103 -0.0844281 0
M  V30 14599 C 1428.9 -1.2547 3.38068 0
M  V30 14600 O 1428 -2.37055 3.37459 0
M  V30 14601 H 1427.35 -0.15679 0.645223 0
M  V30 14602 H 1429.88 0.146407 2.04076 0
M  V30 14603 H 1429.89 -1.60152 3.75254 0
M  V30 14604 H 1428.56 -0.511842 4.12738 0
M  V30 14605 H 1427.14 -2.04165 3.12043 0
M  V30 14606 N 1429.32 -1.56304 -0.201686 0
M  V30 14607 C 1430.23 -1.97215 -1.27057 0
M  V30 14608 C 1431.25 -0.878834 -1.50175 0
M  V30 14609 O 1432.42 -1.18405 -1.62918 0
M  V30 14610 C 1429.49 -2.29772 -2.59626 0
M  V30 14611 C 1428.55 -3.52776 -2.44637 0
M  V30 14612 C 1427.78 -3.83771 -3.70885 0
M  V30 14613 O 1428.01 -3.16149 -4.7477 0
M  V30 14614 O 1426.94 -4.77216 -3.66808 0
M  V30 14615 H 1430.77 -2.88347 -0.953393 0
M  V30 14616 H 1428.35 -1.43773 -0.406158 0
M  V30 14617 H 1430.23 -2.51817 -3.37885 0
M  V30 14618 H 1428.91 -1.41809 -2.90984 0
M  V30 14619 H 1427.82 -3.35986 -1.64512 0
M  V30 14620 H 1429.15 -4.41184 -2.18214 0
M  V30 14621 N 1430.8 0.469154 -1.50455 0
M  V30 14622 C 1431.71 1.59271 -1.7225 0
M  V30 14623 C 1432.73 1.63119 -0.605668 0
M  V30 14624 O 1433.9 1.80952 -0.884222 0
M  V30 14625 C 1430.97 2.95475 -1.81372 0
M  V30 14626 C 1430.03 3.02 -3.05114 0
M  V30 14627 C 1429.26 4.31707 -3.13791 0
M  V30 14628 O 1429.48 5.2232 -2.29211 0
M  V30 14629 O 1428.42 4.43864 -4.06532 0
M  V30 14630 H 1432.24 1.43804 -2.67496 0
M  V30 14631 H 1429.83 0.648855 -1.34574 0
M  V30 14632 H 1431.71 3.76367 -1.89541 0
M  V30 14633 H 1430.39 3.11136 -0.893094 0
M  V30 14634 H 1429.29 2.20178 -3.02444 0
M  V30 14635 H 1430.63 2.91275 -3.96761 0
M  V30 14636 N 1432.28 1.40065 0.722464 0
M  V30 14637 C 1433.23 1.36267 1.82798 0
M  V30 14638 C 1434.21 0.241375 1.59079 0
M  V30 14639 O 1435.4 0.479929 1.70369 0
M  V30 14640 C 1432.53 1.22086 3.20858 0
M  V30 14641 C 1431.62 2.38969 3.50364 0
M  V30 14642 N 1432.01 3.6445 3.50727 0
M  V30 14643 C 1430.31 2.32199 3.80788 0
M  V30 14644 C 1431.01 4.41816 3.78383 0
M  V30 14645 N 1429.99 3.71565 3.96787 0
M  V30 14646 H 1433.79 2.31236 1.81403 0
M  V30 14647 H 1431.3 1.33739 0.92128 0
M  V30 14648 H 1433.3 1.17448 4.00014 0
M  V30 14649 H 1431.96 0.280787 3.23484 0
M  V30 14650 H 1432.97 3.97705 3.3174 0
M  V30 14651 H 1429.65 1.46521 3.90945 0
M  V30 14652 H 1431.04 5.5064 3.85027 0
M  V30 14653 N 1433.76 -0.95397 1.25448 0
M  V30 14654 C 1434.72 -2.03231 1.0597 0
M  V30 14655 C 1435.72 -1.60795 0.0122855 0
M  V30 14656 O 1436.91 -1.7233 0.254533 0
M  V30 14657 C 1434.04 -3.35414 0.609105 0
M  V30 14658 H 1435.24 -2.21943 2.01696 0
M  V30 14659 H 1432.79 -1.13115 1.07864 0
M  V30 14660 H 1433.52 -3.22398 -0.350723 0
M  V30 14661 H 1433.31 -3.67564 1.36526 0
M  V30 14662 H 1434.8 -4.14664 0.49428 0
M  V30 14663 N 1435.24 -1.07045 -1.15668 0
M  V30 14664 C 1436.51 -0.704942 -1.82455 0
M  V30 14665 C 1436.89 0.812921 -1.9482 0
M  V30 14666 O 1436.24 1.72615 -1.49721 0
M  V30 14667 C 1436.45 -1.41574 -3.18995 0
M  V30 14668 C 1437.8 -1.56584 -3.94673 0
M  V30 14669 O 1438.82 -1.37626 -3.28538 0
M  V30 14670 O 1437.68 -1.87751 -5.13237 0
M  V30 14671 H 1434.78 -0.250469 -0.788159 0
M  V30 14672 H 1437.32 -1.17118 -1.22806 0
M  V30 14673 H 1436.09 -2.4504 -3.05075 0
M  V30 14674 H 1435.72 -0.940071 -3.86327 0
M  V30 14675 N 1436.71 1.32449 -0.85411 0
M  V30 14676 C 1437.94 2.01997 -0.470307 0
M  V30 14677 C 1438.36 1.63772 0.925225 0
M  V30 14678 O 1437.72 0.838089 1.60766 0
M  V30 14679 C 1437.77 3.55294 -0.616301 0
M  V30 14680 O 1436.87 4.10902 0.351133 0
M  V30 14681 H 1436.21 0.63651 -0.189079 0
M  V30 14682 H 1438.74 1.69008 -1.15315 0
M  V30 14683 H 1438.75 4.0488 -0.503624 0
M  V30 14684 H 1437.43 3.82459 -1.63396 0
M  V30 14685 H 1436.01 3.72391 0.194741 0
M  V30 14686 N 1438.19 0.611994 1.45232 0
M  V30 14687 C 1439.14 -0.104265 2.30564 0
M  V30 14688 C 1440.11 -0.855676 1.42364 0
M  V30 14689 O 1441.29 -0.840534 1.71288 0
M  V30 14690 C 1438.43 -1.09274 3.27343 0
M  V30 14691 C 1437.55 -0.341747 4.30646 0
M  V30 14692 C 1436.68 -1.32034 5.14529 0
M  V30 14693 C 1435.72 -0.557405 6.09557 0
M  V30 14694 N 1434.86 -1.4855 6.86205 0
M  V30 14695 H 1439.7 0.629396 2.91278 0
M  V30 14696 H 1437.23 0.322177 1.43528 0
M  V30 14697 H 1439.19 -1.67902 3.81923 0
M  V30 14698 H 1437.82 -1.79376 2.68373 0
M  V30 14699 H 1436.87 0.360114 3.78692 0
M  V30 14700 H 1438.19 0.253328 4.98156 0
M  V30 14701 H 1437.34 -1.97854 5.73532 0
M  V30 14702 H 1436.08 -1.94934 4.47048 0
M  V30 14703 H 1435.08 0.114401 5.49681 0
M  V30 14704 H 1436.31 0.0666137 6.79067 0
M  V30 14705 H 1434.26 -2.10207 6.21409 0
M  V30 14706 H 1434.17 -0.943972 7.50083 0
M  V30 14707 H 1435.44 -2.13314 7.49745 0
M  V30 14708 N 1439.67 -1.53632 0.351409 0
M  V30 14709 C 1440.58 -2.2899 -0.509985 0
M  V30 14710 C 1441.6 -1.34403 -1.10507 0
M  V30 14711 O 1442.77 -1.67448 -1.11906 0
M  V30 14712 C 1439.84 -3.05392 -1.64124 0
M  V30 14713 C 1438.9 -4.15619 -1.07514 0
M  V30 14714 C 1438.13 -4.88369 -2.15248 0
M  V30 14715 O 1438.35 -4.60854 -3.3611 0
M  V30 14716 O 1437.29 -5.74636 -1.79101 0
M  V30 14717 H 1441.11 -3.03526 0.10283 0
M  V30 14718 H 1438.7 -1.48947 0.116214 0
M  V30 14719 H 1440.58 -3.53146 -2.29926 0
M  V30 14720 H 1439.26 -2.33705 -2.23972 0
M  V30 14721 H 1438.16 -3.7215 -0.381421 0
M  V30 14722 H 1439.5 -4.8943 -0.521413 0
M  V30 14723 N 1441.15 -0.0802183 -1.57396 0
M  V30 14724 C 1442.1 0.894334 -2.09728 0
M  V30 14725 C 1443.08 1.25342 -1.00887 0
M  V30 14726 O 1444.27 1.23099 -1.27184 0
M  V30 14727 C 1441.4 2.15885 -2.66924 0
M  V30 14728 C 1440.49 1.82587 -3.82783 0
M  V30 14729 N 1440.88 1.19777 -4.91413 0
M  V30 14730 C 1439.18 2.12287 -3.92237 0
M  V30 14731 C 1439.88 1.04758 -5.72189 0
M  V30 14732 N 1438.85 1.56005 -5.20733 0
M  V30 14733 H 1442.66 0.404523 -2.91103 0
M  V30 14734 H 1440.17 0.123432 -1.6193 0
M  V30 14735 H 1442.17 2.8663 -3.02736 0
M  V30 14736 H 1440.83 2.65446 -1.86998 0
M  V30 14737 H 1441.84 0.866384 -5.10602 0
M  V30 14738 H 1438.52 2.64166 -3.23299 0
M  V30 14739 H 1439.91 0.55756 -6.69583 0
M  V30 14740 N 1442.63 1.56409 0.193394 0
M  V30 14741 C 1443.59 1.93822 1.22334 0
M  V30 14742 C 1444.59 0.819513 1.3835 0
M  V30 14743 O 1445.78 1.0869 1.36132 0
M  V30 14744 C 1442.91 2.21375 2.59241 0
M  V30 14745 H 1444.1 2.85967 0.903502 0
M  V30 14746 H 1441.66 1.50125 0.43498 0
M  V30 14747 H 1442.39 1.31874 2.96277 0
M  V30 14748 H 1442.18 3.02899 2.48988 0
M  V30 14749 H 1443.67 2.51319 3.33509 0
M  V30 14750 N 1444.1 -0.461169 1.50702 0
M  V30 14751 C 1445.05 -1.5579 1.70288 0
M  V30 14752 C 1446.02 -1.5693 0.544251 0
M  V30 14753 O 1447.21 -1.74308 0.77597 0
M  V30 14754 C 1444.35 -2.93694 1.81212 0
M  V30 14755 C 1443.46 -3.02267 3.0864 0
M  V30 14756 C 1442.59 -4.31147 3.103 0
M  V30 14757 C 1441.63 -4.33498 4.32141 0
M  V30 14758 N 1440.77 -5.53864 4.31484 0
M  V30 14759 H 1445.61 -1.38393 2.63915 0
M  V30 14760 H 1443.15 -0.6727 1.30817 0
M  V30 14761 H 1445.1 -3.73679 1.85526 0
M  V30 14762 H 1443.73 -3.09703 0.91015 0
M  V30 14763 H 1442.79 -2.15093 3.1375 0
M  V30 14764 H 1444.1 -2.99864 3.98601 0
M  V30 14765 H 1443.25 -5.19487 3.13398 0
M  V30 14766 H 1441.99 -4.36172 2.18186 0
M  V30 14767 H 1441 -3.43554 4.29245 0
M  V30 14768 H 1442.22 -4.30156 5.25493 0
M  V30 14769 H 1440.17 -5.59657 3.42229 0
M  V30 14770 H 1440.08 -5.53244 5.15225 0
M  V30 14771 H 1441.35 -6.44302 4.38742 0
M  V30 14772 N 1445.58 -1.40446 -0.715026 0
M  V30 14773 C 1446.53 -1.40756 -1.82911 0
M  V30 14774 C 1447.5 -0.264443 -1.63981 0
M  V30 14775 O 1448.68 -0.462589 -1.85107 0
M  V30 14776 C 1445.82 -1.27648 -3.20624 0
M  V30 14777 C 1444.94 -2.5167 -3.51121 0
M  V30 14778 C 1444.07 -2.31 -4.78344 0
M  V30 14779 C 1443.11 -3.50596 -5.01746 0
M  V30 14780 N 1442.25 -3.29117 -6.20183 0
M  V30 14781 H 1447.09 -2.35981 -1.8198 0
M  V30 14782 H 1444.62 -1.17201 -0.888951 0
M  V30 14783 H 1446.58 -1.18054 -4.00149 0
M  V30 14784 H 1445.21 -0.360419 -3.20782 0
M  V30 14785 H 1444.26 -2.7179 -2.66147 0
M  V30 14786 H 1445.58 -3.4069 -3.64324 0
M  V30 14787 H 1444.73 -2.18763 -5.65887 0
M  V30 14788 H 1443.47 -1.39406 -4.67351 0
M  V30 14789 H 1442.47 -3.63309 -4.12658 0
M  V30 14790 H 1443.7 -4.43117 -5.14611 0
M  V30 14791 H 1441.65 -2.40206 -6.1044 0
M  V30 14792 H 1441.56 -4.11702 -6.34064 0
M  V30 14793 H 1442.83 -3.20614 -7.10512 0
M  V30 14794 N 1447.06 0.947303 -1.25952 0
M  V30 14795 C 1448.29 1.7273 -1.13895 0
M  V30 14796 C 1448.7 1.86296 0.306488 0
M  V30 14797 O 1448.06 1.36594 1.2103 0
M  V30 14798 C 1448.11 3.13727 -1.79604 0
M  V30 14799 O 1447.83 3.00816 -3.18499 0
M  V30 14800 C 1449.33 4.0797 -1.73422 0
M  V30 14801 H 1446.55 0.54102 -0.39691 0
M  V30 14802 H 1449.1 1.18797 -1.66456 0
M  V30 14803 H 1447.25 3.6458 -1.30997 0
M  V30 14804 H 1447.67 3.89813 -3.50922 0
M  V30 14805 H 1449.14 5.04487 -2.24047 0
M  V30 14806 H 1449.62 4.33594 -0.699481 0
M  V30 14807 H 1450.22 3.63035 -2.21553 0
M  V30 14808 N 1448.54 1.07657 1.15099 0
M  V30 14809 C 1449.45 0.711198 2.2356 0
M  V30 14810 C 1450.46 -0.278932 1.7175 0
M  V30 14811 O 1451.64 -0.124788 2.01013 0
M  V30 14812 C 1448.71 0.117855 3.465 0
M  V30 14813 C 1447.77 1.16162 4.13286 0
M  V30 14814 C 1447 0.596494 5.30356 0
M  V30 14815 O 1447.22 -0.586474 5.67377 0
M  V30 14816 O 1446.16 1.34288 5.86729 0
M  V30 14817 H 1449.98 1.61578 2.5715 0
M  V30 14818 H 1447.57 0.84973 1.22882 0
M  V30 14819 H 1449.45 -0.210613 4.20873 0
M  V30 14820 H 1448.12 -0.760008 3.14652 0
M  V30 14821 H 1447.03 1.54249 3.4082 0
M  V30 14822 H 1448.36 2.01149 4.49221 0
M  V30 14823 N 1450.02 -1.31994 0.861122 0
M  V30 14824 C 1450.93 -2.32495 0.313555 0
M  V30 14825 C 1451.94 -1.64331 -0.571966 0
M  V30 14826 O 1453.12 -1.9582 -0.470794 0
M  V30 14827 C 1450.18 -3.43311 -0.483603 0
M  V30 14828 C 1449.24 -4.27153 0.428825 0
M  V30 14829 C 1448.48 -5.32676 -0.330383 0
M  V30 14830 O 1448.7 -5.48665 -1.55957 0
M  V30 14831 O 1447.63 -6.01116 0.307174 0
M  V30 14832 H 1451.46 -2.81234 1.14636 0
M  V30 14833 H 1449.05 -1.35734 0.624239 0
M  V30 14834 H 1450.93 -4.10877 -0.935831 0
M  V30 14835 H 1449.6 -2.9675 -1.2931 0
M  V30 14836 H 1448.51 -3.62372 0.929366 0
M  V30 14837 H 1449.84 -4.77255 1.20368 0
M  V30 14838 N 1451.49 -0.619688 -1.44906 0
M  V30 14839 C 1452.46 0.0822364 -2.29052 0
M  V30 14840 C 1453.46 0.783427 -1.40425 0
M  V30 14841 O 1454.65 0.629751 -1.62419 0
M  V30 14842 C 1451.78 1.12685 -3.21737 0
M  V30 14843 H 1452.97 -0.657726 -2.92599 0
M  V30 14844 H 1450.53 -0.379286 -1.51628 0
M  V30 14845 H 1451.26 1.89717 -2.63017 0
M  V30 14846 H 1451.05 0.628122 -3.87036 0
M  V30 14847 H 1452.54 1.61808 -3.84978 0
M  V30 14848 N 1452.97 1.53444 -0.359552 0
M  V30 14849 C 1454.22 2.00769 0.231564 0
M  V30 14850 C 1454.54 1.2487 1.49775 0
M  V30 14851 O 1453.81 0.360284 1.92558 0
M  V30 14852 H 1452.39 0.741732 0.0885581 0
M  V30 14853 H 1455.05 1.88785 -0.484397 0
M  V30 14854 H 1454.15 3.0865 0.462789 0
M  V30 14855 N 1454.45 0.0885642 1.57351 0
M  V30 14856 C 1455.73 -0.618587 1.85561 0
M  V30 14857 C 1456.11 -1.86753 0.984206 0
M  V30 14858 O 1455.46 -2.28434 0.0548839 0
M  V30 14859 C 1455.67 -0.940222 3.36096 0
M  V30 14860 C 1457.01 -1.30649 4.04 0
M  V30 14861 O 1458.04 -1.03144 3.4094 0
M  V30 14862 O 1456.9 -1.82135 5.15256 0
M  V30 14863 H 1453.99 -0.308881 0.767152 0
M  V30 14864 H 1456.54 0.120767 1.6927 0
M  V30 14865 H 1455.31 -0.0538991 3.91263 0
M  V30 14866 H 1454.93 -1.73577 3.5771 0
M  V30 14867 N 1455.93 -1.56509 -0.185096 0
M  V30 14868 C 1456.84 -1.98552 -1.24958 0
M  V30 14869 C 1457.85 -0.894713 -1.49234 0
M  V30 14870 O 1459.03 -1.20126 -1.61653 0
M  V30 14871 C 1456.1 -2.32513 -2.57175 0
M  V30 14872 C 1455.16 -3.55351 -2.40882 0
M  V30 14873 C 1454.39 -3.87683 -3.66794 0
M  V30 14874 O 1454.61 -3.21167 -4.7139 0
M  V30 14875 O 1453.55 -4.8108 -3.61726 0
M  V30 14876 H 1457.37 -2.89342 -0.922756 0
M  V30 14877 H 1454.96 -1.44196 -0.390887 0
M  V30 14878 H 1456.84 -2.55387 -3.35195 0
M  V30 14879 H 1455.51 -1.44888 -2.89464 0
M  V30 14880 H 1454.42 -3.37712 -1.60939 0
M  V30 14881 H 1455.75 -4.43474 -2.13522 0
M  V30 14882 N 1457.41 0.45317 -1.50944 0
M  V30 14883 C 1458.66 1.20076 -1.62064 0
M  V30 14884 C 1458.97 1.92709 -0.335034 0
M  V30 14885 O 1460.17 2.69543 -0.32538 0
M  V30 14886 C 1458.63 2.18283 -2.86148 0
M  V30 14887 C 1458.24 1.5137 -4.21653 0
M  V30 14888 C 1459.98 2.93572 -3.0662 0
M  V30 14889 C 1457.89 2.47968 -5.36904 0
M  V30 14890 H 1456.82 0.451894 -0.603579 0
M  V30 14891 H 1459.47 0.46937 -1.77396 0
M  V30 14892 H 1457.85 2.94789 -2.64415 0
M  V30 14893 H 1459.03 0.805295 -4.53709 0
M  V30 14894 H 1457.34 0.882935 -4.06931 0
M  V30 14895 H 1459.94 3.65903 -3.89897 0
M  V30 14896 H 1460.28 3.54003 -2.1906 0
M  V30 14897 H 1460.81 2.24175 -3.28619 0
M  V30 14898 H 1457.55 1.92249 -6.26674 0
M  V30 14899 H 1457.07 3.16907 -5.09244 0
M  V30 14900 H 1458.75 3.09428 -5.6821 0
M  V30 14901 N 1458.88 1.40823 0.707568 0
M  V30 14902 C 1459.79 1.44058 1.85161 0
M  V30 14903 C 1460.81 0.332357 1.70796 0
M  V30 14904 O 1461.99 0.578205 1.92922 0
M  V30 14905 C 1459.05 1.3091 3.21035 0
M  V30 14906 C 1458.11 2.51944 3.47595 0
M  V30 14907 C 1457.35 2.39414 4.76987 0
M  V30 14908 O 1457.57 1.41224 5.52641 0
M  V30 14909 O 1456.5 3.28944 5.04063 0
M  V30 14910 H 1460.33 2.40551 1.85388 0
M  V30 14911 H 1457.91 1.22232 0.859052 0
M  V30 14912 H 1459.8 1.25816 4.02179 0
M  V30 14913 H 1458.47 0.375263 3.21517 0
M  V30 14914 H 1457.38 2.62615 2.66428 0
M  V30 14915 H 1458.71 3.44115 3.51917 0
M  V30 14916 N 1460.36 -0.94061 1.26453 0
M  V30 14917 C 1461.59 -1.72123 1.1481 0
M  V30 14918 C 1462.01 -1.86456 -0.296604 0
M  V30 14919 O 1461.36 -1.37234 -1.20304 0
M  V30 14920 C 1461.41 -3.1277 1.81266 0
M  V30 14921 O 1461.13 -2.99122 3.2009 0
M  V30 14922 C 1462.64 -4.07045 1.75584 0
M  V30 14923 H 1459.86 -0.538908 0.399774 0
M  V30 14924 H 1462.4 -1.17913 1.67083 0
M  V30 14925 H 1460.55 -3.6388 1.32928 0
M  V30 14926 H 1460.97 -3.87946 3.52984 0
M  V30 14927 H 1462.44 -5.03292 2.26719 0
M  V30 14928 H 1462.92 -4.33217 0.722466 0
M  V30 14929 H 1463.53 -3.61855 2.23475 0
M  V30 14930 N 1461.84 -1.08266 -1.14527 0
M  V30 14931 C 1463.09 -0.811459 -1.85531 0
M  V30 14932 C 1463.42 0.662726 -1.82861 0
M  V30 14933 O 1462.67 1.50296 -1.25338 0
M  V30 14934 C 1462.97 -1.27675 -3.33817 0
M  V30 14935 C 1462.64 -2.7585 -3.56676 0
M  V30 14936 C 1461.3 -3.16319 -3.62623 0
M  V30 14937 C 1463.65 -3.71446 -3.65619 0
M  V30 14938 C 1460.98 -4.51183 -3.75035 0
M  V30 14939 C 1463.33 -5.06083 -3.79556 0
M  V30 14940 C 1461.99 -5.4616 -3.83752 0
M  V30 14941 H 1461.26 -0.296934 -0.678904 0
M  V30 14942 H 1463.91 -1.35533 -1.35288 0
M  V30 14943 H 1462.22 -0.65244 -3.86329 0
M  V30 14944 H 1463.91 -1.04369 -3.8718 0
M  V30 14945 H 1460.5 -2.43526 -3.52694 0
M  V30 14946 H 1464.69 -3.41301 -3.60316 0
M  V30 14947 H 1459.94 -4.81689 -3.76545 0
M  V30 14948 H 1464.12 -5.80022 -3.85418 0
M  V30 14949 H 1461.74 -6.50661 -3.93121 0
M  V30 14950 N 1463.32 1.31536 -0.86811 0
M  V30 14951 C 1464.57 1.96386 -0.477176 0
M  V30 14952 C 1464.89 1.68968 0.973381 0
M  V30 14953 O 1464.16 1.00409 1.68211 0
M  V30 14954 H 1462.74 0.726579 -0.173468 0
M  V30 14955 H 1465.4 1.60377 -1.10749 0
M  V30 14956 H 1464.5 3.05606 -0.633376 0
M  V30 14957 N 1464.8 0.627364 1.44575 0
M  V30 14958 C 1465.73 -0.066735 2.33405 0
M  V30 14959 C 1466.71 -0.838666 1.47988 0
M  V30 14960 O 1467.89 -0.805296 1.76716 0
M  V30 14961 C 1465.02 -1.05148 3.31 0
M  V30 14962 C 1463.98 -0.391433 4.26206 0
M  V30 14963 C 1463.3 -1.48581 5.13642 0
M  V30 14964 C 1464.6 0.699942 5.17589 0
M  V30 14965 H 1466.3 0.675029 2.91691 0
M  V30 14966 H 1463.84 0.326066 1.4026 0
M  V30 14967 H 1465.8 -1.54576 3.92026 0
M  V30 14968 H 1464.52 -1.82408 2.70915 0
M  V30 14969 H 1463.18 0.0821694 3.66508 0
M  V30 14970 H 1462.83 -2.2492 4.49911 0
M  V30 14971 H 1462.53 -1.04957 5.7815 0
M  V30 14972 H 1464.05 -1.98198 5.77538 0
M  V30 14973 H 1465.47 0.288911 5.72572 0
M  V30 14974 H 1463.86 1.0591 5.9068 0
M  V30 14975 H 1464.93 1.5686 4.58828 0
M  V30 14976 N 1466.28 -1.53251 0.367684 0
M  V30 14977 C 1467.52 -2.00889 -0.220914 0
M  V30 14978 C 1467.84 -1.25662 -1.4911 0
M  V30 14979 O 1467.11 -0.370491 -1.92365 0
M  V30 14980 H 1465.69 -0.742191 -0.0846233 0
M  V30 14981 H 1468.36 -1.88525 0.494402 0
M  V30 14982 H 1467.45 -3.08891 -0.446414 0
M  V30 14983 N 1467.75 -0.0969077 -1.57302 0
M  V30 14984 C 1469 0.567212 -1.94706 0
M  V30 14985 C 1469.33 1.67721 -0.978937 0
M  V30 14986 O 1468.61 1.94496 -0.0123016 0
M  V30 14987 C 1468.89 1.12069 -3.42217 0
M  V30 14988 C 1468.74 0.015615 -4.49797 0
M  V30 14989 C 1470.06 2.0185 -3.91081 0
M  V30 14990 H 1467.18 0.204716 -0.707997 0
M  V30 14991 H 1469.82 -0.167984 -1.89256 0
M  V30 14992 H 1467.97 1.74723 -3.46993 0
M  V30 14993 H 1469.65 -0.61871 -4.57132 0
M  V30 14994 H 1467.89 -0.650529 -4.28895 0
M  V30 14995 H 1468.56 0.443724 -5.50214 0
M  V30 14996 H 1471.04 1.49098 -3.8847 0
M  V30 14997 H 1469.91 2.37502 -4.94858 0
M  V30 14998 H 1470.17 2.93659 -3.3048 0
M  V30 14999 N 1469.23 1.56605 0.176793 0
M  V30 15000 C 1470.46 1.85812 0.910019 0
M  V30 15001 C 1470.87 0.68164 1.76066 0
M  V30 15002 O 1470.23 -0.34936 1.79125 0
M  V30 15003 C 1470.28 3.14001 1.79125 0
M  V30 15004 O 1470 4.27114 0.974931 0
M  V30 15005 C 1471.5 3.56516 2.6346 0
M  V30 15006 H 1468.72 0.616608 0.264643 0
M  V30 15007 H 1471.27 2.03719 0.178537 0
M  V30 15008 H 1469.42 2.97937 2.47613 0
M  V30 15009 H 1469.84 5.00227 1.57711 0
M  V30 15010 H 1471.31 4.49128 3.20918 0
M  V30 15011 H 1471.79 2.80373 3.38065 0
M  V30 15012 H 1472.39 3.75173 2.00313 0
M  V30 15013 N 1470.71 -0.445159 1.51182 0
M  V30 15014 C 1471.94 -1.2161 1.67016 0
M  V30 15015 C 1472.35 -1.85671 0.363705 0
M  V30 15016 O 1471.69 -1.71165 -0.666963 0
M  V30 15017 C 1471.75 -2.34705 2.72312 0
M  V30 15018 C 1471.42 -1.91074 4.15138 0
M  V30 15019 C 1472.41 -1.41857 5.00173 0
M  V30 15020 C 1470.1 -1.99004 4.61197 0
M  V30 15021 C 1472.09 -1.01146 6.29324 0
M  V30 15022 C 1469.78 -1.57904 5.90347 0
M  V30 15023 C 1470.78 -1.09056 6.74237 0
M  V30 15024 O 1470.47 -0.685367 8.00973 0
M  V30 15025 H 1470.2 -0.372925 0.563829 0
M  V30 15026 H 1472.75 -0.534708 1.98318 0
M  V30 15027 H 1470.98 -3.06097 2.36309 0
M  V30 15028 H 1472.67 -2.96594 2.77104 0
M  V30 15029 H 1473.44 -1.35132 4.65794 0
M  V30 15030 H 1469.32 -2.35972 3.96028 0
M  V30 15031 H 1472.86 -0.629486 6.94754 0
M  V30 15032 H 1468.76 -1.64297 6.24241 0
M  V30 15033 H 1469.52 -0.811915 8.14463 0
M  V30 15034 N 1472.19 -1.41197 -0.700089 0
M  V30 15035 C 1473.1 -1.45038 -1.84394 0
M  V30 15036 C 1474.11 -0.34141 -1.70618 0
M  V30 15037 O 1475.29 -0.588428 -1.92612 0
M  V30 15038 C 1472.35 -1.32611 -3.20336 0
M  V30 15039 C 1471.42 -2.53784 -3.46254 0
M  V30 15040 C 1470.65 -2.4194 -4.75711 0
M  V30 15041 O 1470.87 -1.44153 -5.51884 0
M  V30 15042 O 1469.81 -3.31613 -5.02311 0
M  V30 15043 H 1473.63 -2.41531 -1.8411 0
M  V30 15044 H 1471.22 -1.22686 -0.852558 0
M  V30 15045 H 1473.1 -1.27947 -4.01507 0
M  V30 15046 H 1471.77 -0.392309 -3.21314 0
M  V30 15047 H 1470.68 -2.64024 -2.65032 0
M  V30 15048 H 1472.01 -3.45977 -3.50087 0
M  V30 15049 N 1473.67 0.933891 -1.2695 0
M  V30 15050 C 1474.6 2.03768 -1.04934 0
M  V30 15051 C 1475.61 1.62798 -0.00740752 0
M  V30 15052 O 1476.8 1.76765 -0.248289 0
M  V30 15053 C 1473.9 3.34097 -0.568515 0
M  V30 15054 C 1473.07 4.03794 -1.68133 0
M  V30 15055 C 1472.13 5.12397 -1.19731 0
M  V30 15056 O 1471.16 5.36701 -1.89579 0
M  V30 15057 N 1472.36 5.80479 -0.0496327 0
M  V30 15058 H 1475.12 2.23219 -1.99984 0
M  V30 15059 H 1472.69 1.10386 -1.18433 0
M  V30 15060 H 1474.68 4.04053 -0.228736 0
M  V30 15061 H 1473.25 3.11265 0.288587 0
M  V30 15062 H 1472.47 3.27655 -2.1917 0
M  V30 15063 H 1473.76 4.4711 -2.42837 0
M  V30 15064 H 1473.15 5.63179 0.533509 0
M  V30 15065 H 1471.71 6.5139 0.231014 0
M  V30 15066 N 1475.14 1.08871 1.13951 0
M  V30 15067 C 1476.11 0.726655 2.17376 0
M  V30 15068 C 1477.11 -0.240922 1.58985 0
M  V30 15069 O 1478.3 -0.0198472 1.74189 0
M  V30 15070 C 1475.43 0.0736505 3.4082 0
M  V30 15071 H 1476.62 1.64254 2.5092 0
M  V30 15072 H 1474.17 0.887183 1.28681 0
M  V30 15073 H 1474.91 -0.853733 3.12861 0
M  V30 15074 H 1474.69 0.769782 3.84469 0
M  V30 15075 H 1476.18 -0.164465 4.17276 0
M  V30 15076 N 1476.62 -1.31073 0.875073 0
M  V30 15077 C 1477.55 -2.30855 0.350468 0
M  V30 15078 C 1478.53 -1.60569 -0.561384 0
M  V30 15079 O 1479.72 -1.88242 -0.477329 0
M  V30 15080 C 1476.85 -3.44444 -0.444493 0
M  V30 15081 C 1475.8 -4.26357 0.374716 0
M  V30 15082 C 1475.13 -5.31903 -0.546243 0
M  V30 15083 C 1476.43 -4.96817 1.61153 0
M  V30 15084 H 1478.12 -2.74983 1.18427 0
M  V30 15085 H 1475.67 -1.32199 0.570909 0
M  V30 15086 H 1477.62 -4.13304 -0.82206 0
M  V30 15087 H 1476.34 -2.99096 -1.31185 0
M  V30 15088 H 1475 -3.59171 0.734295 0
M  V30 15089 H 1474.65 -4.82803 -1.41102 0
M  V30 15090 H 1474.35 -5.876 -0.00198173 0
M  V30 15091 H 1475.88 -6.03621 -0.920542 0
M  V30 15092 H 1477.29 -5.58247 1.30511 0
M  V30 15093 H 1475.69 -5.62334 2.09524 0
M  V30 15094 H 1476.76 -4.2351 2.36151 0
M  V30 15095 N 1478.1 -0.635022 -1.4424 0
M  V30 15096 C 1479.06 0.0579377 -2.29127 0
M  V30 15097 C 1480.06 0.768489 -1.41248 0
M  V30 15098 O 1481.25 0.612489 -1.63077 0
M  V30 15099 C 1478.39 1.09266 -3.22914 0
M  V30 15100 H 1479.58 -0.688723 -2.91885 0
M  V30 15101 H 1477.13 -0.395347 -1.51217 0
M  V30 15102 H 1477.87 1.86917 -2.65014 0
M  V30 15103 H 1477.65 0.587036 -3.87681 0
M  V30 15104 H 1479.14 1.57716 -3.86672 0
M  V30 15105 N 1479.58 1.53054 -0.375806 0
M  V30 15106 C 1480.53 2.2605 0.46582 0
M  V30 15107 C 1481.5 1.27123 1.06906 0
M  V30 15108 O 1482.68 1.55926 1.09963 0
M  V30 15109 C 1479.82 3.06066 1.59429 0
M  V30 15110 C 1478.93 4.19901 1.01523 0
M  V30 15111 C 1478.07 4.87339 2.11363 0
M  V30 15112 C 1477.11 5.93189 1.50976 0
M  V30 15113 N 1476.24 6.54276 2.54692 0
M  V30 15114 H 1481.08 2.97553 -0.163149 0
M  V30 15115 H 1478.62 1.4681 -0.092282 0
M  V30 15116 H 1480.58 3.50739 2.25915 0
M  V30 15117 H 1479.21 2.36799 2.19377 0
M  V30 15118 H 1478.26 3.7964 0.240346 0
M  V30 15119 H 1479.57 4.95935 0.533812 0
M  V30 15120 H 1478.73 5.35247 2.85649 0
M  V30 15121 H 1477.47 4.10799 2.6286 0
M  V30 15122 H 1476.47 5.44632 0.752095 0
M  V30 15123 H 1477.7 6.71654 1.00291 0
M  V30 15124 H 1475.64 5.80584 3.05383 0
M  V30 15125 H 1475.56 7.2588 2.11267 0
M  V30 15126 H 1476.83 7.06831 3.28648 0
M  V30 15127 N 1481.06 0.105248 1.57248 0
M  V30 15128 C 1482.33 -0.598871 1.86207 0
M  V30 15129 C 1482.71 -1.85698 1.00396 0
M  V30 15130 O 1482.06 -2.28363 0.0791093 0
M  V30 15131 C 1482.27 -0.904522 3.37075 0
M  V30 15132 C 1483.62 -1.26357 4.05363 0
M  V30 15133 O 1484.64 -0.99522 3.42014 0
M  V30 15134 O 1483.5 -1.76659 5.17159 0
M  V30 15135 H 1480.6 -0.300727 0.770384 0
M  V30 15136 H 1483.14 0.138713 1.69132 0
M  V30 15137 H 1481.91 -0.0123974 3.91298 0
M  V30 15138 H 1481.54 -1.69774 3.59531 0
M  V30 15139 N 1482.53 -1.56697 -0.168486 0
M  V30 15140 C 1483.46 -1.99659 -1.21073 0
M  V30 15141 C 1484.45 -0.872625 -1.46011 0
M  V30 15142 O 1485.63 -1.13891 -1.57297 0
M  V30 15143 C 1482.76 -2.35889 -2.54899 0
M  V30 15144 C 1481.71 -3.51272 -2.44524 0
M  V30 15145 C 1481.04 -3.73253 -3.82866 0
M  V30 15146 C 1482.34 -4.84631 -1.94756 0
M  V30 15147 H 1484.03 -2.86974 -0.853593 0
M  V30 15148 H 1481.58 -1.38065 -0.409165 0
M  V30 15149 H 1483.53 -2.64542 -3.28017 0
M  V30 15150 H 1482.26 -1.45486 -2.92406 0
M  V30 15151 H 1480.92 -3.22751 -1.7386 0
M  V30 15152 H 1480.56 -2.80136 -4.17772 0
M  V30 15153 H 1480.26 -4.5089 -3.76792 0
M  V30 15154 H 1481.79 -4.04309 -4.57566 0
M  V30 15155 H 1483.2 -5.12142 -2.5765 0
M  V30 15156 H 1481.6 -5.65925 -1.99623 0
M  V30 15157 H 1482.67 -4.76436 -0.902021 0
M  V30 15158 N 1484.01 0.437135 -1.51416 0
M  V30 15159 C 1485.24 1.21359 -1.68187 0
M  V30 15160 C 1485.66 1.84247 -0.378748 0
M  V30 15161 O 1485.02 1.68816 0.661115 0
M  V30 15162 C 1485.07 2.27319 -2.79926 0
M  V30 15163 O 1484.17 3.32807 -2.43543 0
M  V30 15164 H 1483.51 0.355547 -0.560787 0
M  V30 15165 H 1486.04 0.516204 -1.97981 0
M  V30 15166 H 1486.05 2.721 -3.04016 0
M  V30 15167 H 1484.73 1.80923 -3.74486 0
M  V30 15168 H 1483.31 2.93501 -2.30025 0
M  V30 15169 N 1485.49 1.41566 0.692592 0
M  V30 15170 C 1486.74 1.40381 1.44831 0
M  V30 15171 C 1487.05 0.0172068 1.95592 0
M  V30 15172 O 1488.26 -0.11726 2.71247 0
M  V30 15173 C 1486.71 2.46844 2.61908 0
M  V30 15174 C 1486.32 3.91426 2.17921 0
M  V30 15175 C 1488.07 2.548 3.39525 0
M  V30 15176 C 1485.97 4.89436 3.31974 0
M  V30 15177 H 1484.9 0.522062 0.544028 0
M  V30 15178 H 1487.55 1.67402 0.751589 0
M  V30 15179 H 1485.94 2.12959 3.33863 0
M  V30 15180 H 1487.11 4.34575 1.53236 0
M  V30 15181 H 1485.43 3.87158 1.5329 0
M  V30 15182 H 1488.02 3.25207 4.24434 0
M  V30 15183 H 1488.37 1.58579 3.84913 0
M  V30 15184 H 1488.9 2.87791 2.74629 0
M  V30 15185 H 1485.64 5.87071 2.91595 0
M  V30 15186 H 1485.16 4.50933 3.95499 0
M  V30 15187 H 1486.84 5.10331 3.97708 0
M  V30 15188 N 1486.97 -0.927146 1.27443 0
M  V30 15189 C 1488.38 -1.48984 1.1252 0
M  V30 15190 C 1488.73 -1.94051 -0.289602 0
M  V30 15191 O 1487.86 -1.8123 -1.18257 0
M  V30 15192 C 1488.45 -2.70765 2.03646 0
M  V30 15193 C 1487.01 -3.23256 1.92827 0
M  V30 15194 C 1486.16 -1.95991 1.9617 0
M  V30 15195 H 1489.11 -0.741196 1.40328 0
M  V30 15196 H 1489.13 -3.45567 1.5926 0
M  V30 15197 H 1488.64 -2.37933 3.0661 0
M  V30 15198 H 1486.74 -3.60845 0.928516 0
M  V30 15199 H 1486.85 -3.89413 2.79096 0
M  V30 15200 H 1485.22 -2.12508 1.40402 0
M  V30 15201 H 1486 -1.65473 3.00788 0
M  V30 15202 N 1488.45 -1.09474 -1.13372 0
M  V30 15203 C 1489.67 -0.852921 -1.88502 0
M  V30 15204 C 1490.09 0.595855 -1.79151 0
M  V30 15205 O 1489.45 1.41019 -1.15845 0
M  V30 15206 C 1489.5 -1.27993 -3.38083 0
M  V30 15207 O 1489.22 -2.67189 -3.47191 0
M  V30 15208 C 1490.72 -1.07056 -4.30179 0
M  V30 15209 H 1487.94 -0.30682 -0.596743 0
M  V30 15210 H 1490.48 -1.45685 -1.43513 0
M  V30 15211 H 1488.64 -0.719879 -3.80653 0
M  V30 15212 H 1489.05 -2.85202 -4.40182 0
M  V30 15213 H 1490.53 -1.4186 -5.3346 0
M  V30 15214 H 1491 -0.00838732 -4.39199 0
M  V30 15215 H 1491.61 -1.61659 -3.93378 0
M  V30 15216 N 1489.92 1.30607 -0.882012 0
M  V30 15217 C 1491.2 1.91056 -0.419153 0
M  V30 15218 C 1491.58 1.80185 1.09985 0
M  V30 15219 O 1490.93 1.21717 1.93384 0
M  V30 15220 C 1491.14 3.3682 -0.913949 0
M  V30 15221 C 1492.49 4.13901 -0.947169 0
M  V30 15222 O 1493.51 3.45652 -0.860412 0
M  V30 15223 O 1492.37 5.35826 -1.07483 0
M  V30 15224 H 1489.46 0.81709 -0.127645 0
M  V30 15225 H 1492.01 1.39195 -0.970717 0
M  V30 15226 H 1490.78 3.38804 -1.95774 0
M  V30 15227 H 1490.41 3.96132 -0.34138 0
M  V30 15228 N 1491.4 0.642663 1.43901 0
M  V30 15229 C 1492.37 -0.0457858 2.29154 0
M  V30 15230 C 1493.37 -0.760988 1.41653 0
M  V30 15231 O 1494.56 -0.603832 1.634 0
M  V30 15232 C 1491.69 -1.07552 3.23489 0
M  V30 15233 H 1492.88 0.704193 2.91515 0
M  V30 15234 H 1490.43 0.403361 1.51006 0
M  V30 15235 H 1491.17 -1.85509 2.66002 0
M  V30 15236 H 1490.95 -0.566468 3.87987 0
M  V30 15237 H 1492.44 -1.55663 3.87503 0
M  V30 15238 N 1492.88 -1.52852 0.383918 0
M  V30 15239 C 1494.11 -2.06406 -0.202764 0
M  V30 15240 C 1494.53 -1.25421 -1.40183 0
M  V30 15241 O 1493.89 -0.277876 -1.79158 0
M  V30 15242 C 1493.94 -3.56281 -0.556414 0
M  V30 15243 O 1493.04 -3.77904 -1.65113 0
M  V30 15244 H 1492.38 -0.663523 -0.0251737 0
M  V30 15245 H 1494.91 -1.97074 0.54983 0
M  V30 15246 H 1494.92 -3.99629 -0.822249 0
M  V30 15247 H 1493.6 -4.14665 0.320253 0
M  V30 15248 H 1492.17 -3.46448 -1.37943 0
M  V30 15249 N 1494.36 -0.113586 -1.5719 0
M  V30 15250 C 1495.58 0.556928 -1.99783 0
M  V30 15251 C 1496.01 1.59774 -0.992669 0
M  V30 15252 O 1495.37 1.81263 0.0363821 0
M  V30 15253 C 1495.42 1.16463 -3.41275 0
M  V30 15254 O 1494.52 2.28024 -3.43626 0
M  V30 15255 H 1493.86 0.139628 -0.649153 0
M  V30 15256 H 1496.39 -0.200462 -2.03616 0
M  V30 15257 H 1496.4 1.50147 -3.79368 0
M  V30 15258 H 1495.08 0.402232 -4.1395 0
M  V30 15259 H 1493.65 1.9582 -3.17347 0
M  V30 15260 N 1495.84 1.56784 0.160173 0
M  V30 15261 C 1496.75 2.00514 1.21783 0
M  V30 15262 C 1497.76 0.918341 1.47792 0
M  V30 15263 O 1498.94 1.22683 1.59721 0
M  V30 15264 C 1496 2.36575 2.53443 0
M  V30 15265 C 1495.07 3.59138 2.35198 0
M  V30 15266 C 1494.3 3.93469 3.6058 0
M  V30 15267 O 1494.52 3.28625 4.6622 0
M  V30 15268 O 1493.46 4.86774 3.54027 0
M  V30 15269 H 1497.28 2.90774 0.876607 0
M  V30 15270 H 1494.87 1.44799 0.367897 0
M  V30 15271 H 1496.75 2.60687 3.31089 0
M  V30 15272 H 1495.42 1.49474 2.87122 0
M  V30 15273 H 1494.33 3.4023 1.55546 0
M  V30 15274 H 1495.66 4.46815 2.0644 0
M  V30 15275 N 1497.32 -0.429099 1.51646 0
M  V30 15276 C 1498.26 -1.52143 1.73554 0
M  V30 15277 C 1499.23 -1.55741 0.577416 0
M  V30 15278 O 1500.42 -1.72623 0.812768 0
M  V30 15279 C 1497.56 -2.89785 1.874 0
M  V30 15280 C 1496.67 -2.95652 3.14982 0
M  V30 15281 C 1495.81 -4.24468 3.19375 0
M  V30 15282 C 1494.84 -4.24234 4.41239 0
M  V30 15283 N 1493.98 -5.44587 4.43135 0
M  V30 15284 H 1498.82 -1.32764 2.66791 0
M  V30 15285 H 1496.36 -0.6448 1.32215 0
M  V30 15286 H 1498.32 -3.6966 1.9341 0
M  V30 15287 H 1496.95 -3.07703 0.975638 0
M  V30 15288 H 1496 -2.0839 3.18242 0
M  V30 15289 H 1497.31 -2.91342 4.04872 0
M  V30 15290 H 1496.46 -5.12722 3.24347 0
M  V30 15291 H 1495.2 -4.31446 2.27389 0
M  V30 15292 H 1494.21 -3.34371 4.36435 0
M  V30 15293 H 1495.43 -4.18913 5.34499 0
M  V30 15294 H 1493.38 -5.52271 3.54023 0
M  V30 15295 H 1493.3 -5.42191 5.26845 0
M  V30 15296 H 1494.56 -6.34851 4.5231 0
M  V30 15297 N 1498.79 -1.41931 -0.685074 0
M  V30 15298 C 1499.76 -1.44315 -1.78061 0
M  V30 15299 C 1500.76 -0.332215 -1.57331 0
M  V30 15300 O 1501.95 -0.59258 -1.63811 0
M  V30 15301 C 1499.08 -1.26479 -3.16569 0
M  V30 15302 H 1500.27 -2.4185 -1.77337 0
M  V30 15303 H 1497.82 -1.28228 -0.893721 0
M  V30 15304 H 1498.56 -0.298259 -3.22926 0
M  V30 15305 H 1498.34 -2.06981 -3.33018 0
M  V30 15306 H 1499.83 -1.31006 -3.96519 0
M  V30 15307 N 1500.27 0.920374 -1.27933 0
M  V30 15308 C 1501.18 2.05525 -1.13123 0
M  V30 15309 C 1502.2 1.73899 -0.059421 0
M  V30 15310 O 1503.37 1.99617 -0.267386 0
M  V30 15311 C 1500.44 3.37637 -0.787551 0
M  V30 15312 C 1499.5 3.82914 -1.94101 0
M  V30 15313 C 1498.73 5.08721 -1.61364 0
M  V30 15314 O 1498.96 5.6798 -0.524918 0
M  V30 15315 O 1497.89 5.4955 -2.45517 0
M  V30 15316 H 1501.72 2.20935 -2.08378 0
M  V30 15317 H 1499.3 1.04071 -1.07189 0
M  V30 15318 H 1501.18 4.16968 -0.609544 0
M  V30 15319 H 1499.86 3.23417 0.135407 0
M  V30 15320 H 1498.76 3.04438 -2.17413 0
M  V30 15321 H 1500.1 4.01687 -2.84444 0
M  V30 15322 N 1501.75 1.10074 1.1279 0
M  V30 15323 C 1502.7 0.746173 2.18405 0
M  V30 15324 C 1503.67 -0.275751 1.63795 0
M  V30 15325 O 1504.85 -0.155876 1.90162 0
M  V30 15326 C 1501.99 0.180105 3.4463 0
M  V30 15327 C 1501.1 1.25688 4.13312 0
M  V30 15328 C 1500.24 0.652852 5.27173 0
M  V30 15329 C 1499.28 1.71046 5.87716 0
M  V30 15330 N 1498.42 1.12698 6.92996 0
M  V30 15331 H 1503.26 1.65105 2.48081 0
M  V30 15332 H 1500.79 0.824768 1.21803 0
M  V30 15333 H 1502.75 -0.165948 4.1687 0
M  V30 15334 H 1501.38 -0.688014 3.15383 0
M  V30 15335 H 1500.43 1.72011 3.39288 0
M  V30 15336 H 1501.74 2.05762 4.54382 0
M  V30 15337 H 1500.9 0.25603 6.0616 0
M  V30 15338 H 1499.64 -0.17937 4.8737 0
M  V30 15339 H 1498.64 2.11676 5.07418 0
M  V30 15340 H 1499.87 2.54547 6.29589 0
M  V30 15341 H 1497.81 0.316154 6.55238 0
M  V30 15342 H 1497.73 1.86461 7.32645 0
M  V30 15343 H 1499 0.756582 7.7582 0
M  V30 15344 N 1503.23 -1.30138 0.888926 0
M  V30 15345 C 1504.48 -1.95602 0.508359 0
M  V30 15346 C 1504.8 -1.70495 -0.946377 0
M  V30 15347 O 1504.07 -1.03073 -1.66592 0
M  V30 15348 H 1502.65 -0.723728 0.185006 0
M  V30 15349 H 1505.31 -1.58594 1.13286 0
M  V30 15350 H 1504.4 -3.04559 0.681915 0
M  V30 15351 N 1504.71 -0.650285 -1.43559 0
M  V30 15352 C 1505.64 0.0295939 -2.33481 0
M  V30 15353 C 1506.62 0.815017 -1.49303 0
M  V30 15354 O 1507.8 0.77708 -1.77975 0
M  V30 15355 C 1504.93 0.998683 -3.32631 0
M  V30 15356 C 1503.89 0.323577 -4.26775 0
M  V30 15357 C 1503.21 1.40391 -5.1594 0
M  V30 15358 C 1504.51 -0.782197 -5.1641 0
M  V30 15359 H 1506.21 -0.721349 -2.9058 0
M  V30 15360 H 1503.75 -0.348339 -1.39723 0
M  V30 15361 H 1505.7 1.4832 -3.94435 0
M  V30 15362 H 1504.43 1.78075 -2.73782 0
M  V30 15363 H 1503.09 -0.140467 -3.66331 0
M  V30 15364 H 1502.74 2.17734 -4.53432 0
M  V30 15365 H 1502.44 0.957462 -5.79747 0
M  V30 15366 H 1503.96 1.88985 -5.80618 0
M  V30 15367 H 1505.37 -0.379966 -5.72039 0
M  V30 15368 H 1503.77 -1.15293 -5.88921 0
M  V30 15369 H 1504.84 -1.6414 -4.56274 0
M  V30 15370 N 1506.18 1.52647 -0.392018 0
M  V30 15371 C 1507.41 2.06511 0.191815 0
M  V30 15372 C 1507.83 1.26162 1.39516 0
M  V30 15373 O 1507.19 0.287373 1.79008 0
M  V30 15374 C 1507.24 3.56571 0.537512 0
M  V30 15375 O 1506.34 3.78774 1.63106 0
M  V30 15376 H 1505.68 0.663647 0.0216546 0
M  V30 15377 H 1508.21 1.96779 -0.560274 0
M  V30 15378 H 1508.22 4.00059 0.801044 0
M  V30 15379 H 1506.9 4.14489 -0.342239 0
M  V30 15380 H 1505.48 3.47175 1.36103 0
M  V30 15381 N 1507.66 0.121921 1.57128 0
M  V30 15382 C 1508.89 -0.546325 2.00075 0
M  V30 15383 C 1509.31 -1.59245 1.00113 0
M  V30 15384 O 1508.67 -1.8128 -0.0267687 0
M  V30 15385 C 1508.72 -1.14651 3.41888 0
M  V30 15386 O 1507.82 -2.26199 3.4483 0
M  V30 15387 H 1507.16 -0.136184 0.649885 0
M  V30 15388 H 1509.69 0.211257 2.03506 0
M  V30 15389 H 1509.7 -1.48133 3.80159 0
M  V30 15390 H 1508.38 -0.380273 4.14158 0
M  V30 15391 H 1506.96 -1.94134 3.18381 0
M  V30 15392 N 1509.14 -1.56867 -0.151857 0
M  V30 15393 C 1510.39 -1.83353 -0.866566 0
M  V30 15394 C 1510.72 -0.702784 -1.81038 0
M  V30 15395 O 1509.99 0.293944 -1.92266 0
M  V30 15396 C 1510.28 -3.20316 -1.64529 0
M  V30 15397 C 1510.13 -4.43946 -0.723297 0
M  V30 15398 C 1511.45 -3.54441 -2.60882 0
M  V30 15399 H 1508.57 -0.666957 -0.313588 0
M  V30 15400 H 1511.21 -1.89541 -0.131954 0
M  V30 15401 H 1509.36 -3.15172 -2.27154 0
M  V30 15402 H 1511.03 -4.61173 -0.10842 0
M  V30 15403 H 1509.28 -4.33788 -0.0325582 0
M  V30 15404 H 1509.95 -5.36374 -1.3041 0
M  V30 15405 H 1512.42 -3.60164 -2.08377 0
M  V30 15406 H 1511.3 -4.51314 -3.12422 0
M  V30 15407 H 1511.56 -2.80146 -3.42009 0
M  V30 15408 N 1510.62 0.421051 -1.51871 0
M  V30 15409 C 1512.03 1.00033 -1.5764 0
M  V30 15410 C 1512.38 1.91875 -0.409665 0
M  V30 15411 O 1511.51 2.11201 0.471516 0
M  V30 15412 C 1512.1 1.82099 -2.85701 0
M  V30 15413 C 1510.66 2.35049 -2.93988 0
M  V30 15414 C 1509.81 1.14703 -2.52465 0
M  V30 15415 H 1512.76 0.201715 -1.57413 0
M  V30 15416 H 1512.78 2.67719 -2.70382 0
M  V30 15417 H 1512.29 1.15229 -3.706 0
M  V30 15418 H 1510.39 3.05327 -2.13556 0
M  V30 15419 H 1510.5 2.66731 -3.97984 0
M  V30 15420 H 1508.87 1.49736 -2.06037 0
M  V30 15421 H 1509.65 0.494171 -3.39725 0
M  V30 15422 N 1512.1 1.42293 0.677538 0
M  V30 15423 C 1513.01 1.47953 1.82063 0
M  V30 15424 C 1514.02 0.36851 1.70053 0
M  V30 15425 O 1515.2 0.618996 1.91652 0
M  V30 15426 C 1512.26 1.3769 3.18186 0
M  V30 15427 C 1511.32 2.59261 3.42173 0
M  V30 15428 C 1510.56 2.49478 4.71801 0
M  V30 15429 O 1510.78 1.52915 5.49521 0
M  V30 15430 O 1509.71 3.39562 4.96972 0
M  V30 15431 H 1513.54 2.4443 1.80244 0
M  V30 15432 H 1511.13 1.24027 0.832932 0
M  V30 15433 H 1513.01 1.34319 3.9942 0
M  V30 15434 H 1511.68 0.443377 3.20649 0
M  V30 15435 H 1510.59 2.68207 2.60798 0
M  V30 15436 H 1511.92 3.51503 3.44538 0
M  V30 15437 N 1513.57 -0.913576 1.28419 0
M  V30 15438 C 1514.82 -1.65731 1.14961 0
M  V30 15439 C 1515.14 -1.93269 -0.301079 0
M  V30 15440 O 1516.34 -2.6573 -0.556778 0
M  V30 15441 C 1514.8 -2.98562 2.00969 0
M  V30 15442 C 1514.41 -2.78671 3.5078 0
M  V30 15443 C 1516.15 -3.76439 1.96198 0
M  V30 15444 C 1514.06 -4.07144 4.28938 0
M  V30 15445 H 1512.99 -0.621681 0.426648 0
M  V30 15446 H 1515.64 -1.0138 1.52952 0
M  V30 15447 H 1514.02 -3.64049 1.55835 0
M  V30 15448 H 1515.19 -2.21864 4.03873 0
M  V30 15449 H 1513.51 -2.14206 3.57078 0
M  V30 15450 H 1516.11 -4.71668 2.51861 0
M  V30 15451 H 1516.45 -4.05577 0.938771 0
M  V30 15452 H 1516.98 -3.17772 2.39303 0
M  V30 15453 H 1513.72 -3.83178 5.31841 0
M  V30 15454 H 1513.24 -4.63562 3.80619 0
M  V30 15455 H 1514.92 -4.754 4.38866 0
M  V30 15456 N 1515.05 -1.1067 -1.12204 0
M  V30 15457 C 1516.02 -0.761145 -2.16193 0
M  V30 15458 C 1517.02 0.215599 -1.59348 0
M  V30 15459 O 1518.21 -0.00786723 -1.74198 0
M  V30 15460 C 1515.34 -0.127863 -3.4066 0
M  V30 15461 H 1516.53 -1.68225 -2.48275 0
M  V30 15462 H 1514.08 -0.907542 -1.27253 0
M  V30 15463 H 1514.82 0.803851 -3.14179 0
M  V30 15464 H 1514.6 -0.83085 -3.83196 0
M  V30 15465 H 1516.09 0.0980593 -4.17485 0
M  V30 15466 N 1516.53 1.29665 -0.895815 0
M  V30 15467 C 1517.44 2.31582 -0.375086 0
M  V30 15468 C 1518.46 1.65789 0.528196 0
M  V30 15469 O 1519.63 1.96999 0.41871 0
M  V30 15470 C 1516.7 3.44472 0.39241 0
M  V30 15471 C 1515.76 4.25866 -0.541926 0
M  V30 15472 C 1514.99 5.33365 0.189037 0
M  V30 15473 O 1515.21 5.52607 1.41355 0
M  V30 15474 O 1514.15 6.0009 -0.466441 0
M  V30 15475 H 1517.97 2.78095 -1.22052 0
M  V30 15476 H 1515.56 1.34031 -0.660007 0
M  V30 15477 H 1517.44 4.13214 0.826565 0
M  V30 15478 H 1516.12 3.00074 1.21397 0
M  V30 15479 H 1515.02 3.59781 -1.02512 0
M  V30 15480 H 1516.36 4.73896 -1.32979 0
M  V30 15481 N 1518.01 0.657889 1.43212 0
M  V30 15482 C 1519.25 0.173443 2.02057 0
M  V30 15483 C 1519.59 -1.21108 1.51811 0
M  V30 15484 O 1518.86 -1.80953 0.71317 0
M  V30 15485 C 1519.15 0.189429 3.59601 0
M  V30 15486 C 1519 1.6082 4.20068 0
M  V30 15487 C 1520.32 -0.471633 4.37566 0
M  V30 15488 H 1517.44 0.0644999 0.734172 0
M  V30 15489 H 1520.08 0.839462 1.7045 0
M  V30 15490 H 1518.23 -0.377689 3.8666 0
M  V30 15491 H 1519.9 2.22627 4.04024 0
M  V30 15492 H 1518.14 2.15407 3.7654 0
M  V30 15493 H 1518.81 1.5712 5.29167 0
M  V30 15494 H 1521.29 0.0109387 4.16099 0
M  V30 15495 H 1520.17 -0.429739 5.47215 0
M  V30 15496 H 1520.43 -1.54652 4.14168 0
M  V30 15497 N 1519.49 -1.52437 0.400108 0
M  V30 15498 C 1520.4 -2.30496 -0.436875 0
M  V30 15499 C 1521.41 -1.37851 -1.06175 0
M  V30 15500 O 1522.59 -1.70924 -1.06522 0
M  V30 15501 C 1519.65 -3.10459 -1.54325 0
M  V30 15502 C 1518.71 -4.18829 -0.942367 0
M  V30 15503 C 1517.95 -4.94969 -1.99602 0
M  V30 15504 O 1518.17 -4.71314 -3.21278 0
M  V30 15505 O 1517.1 -5.80043 -1.60728 0
M  V30 15506 H 1520.93 -3.03045 0.199343 0
M  V30 15507 H 1518.52 -1.48502 0.163541 0
M  V30 15508 H 1520.4 -3.60282 -2.18575 0
M  V30 15509 H 1519.07 -2.40713 -2.16423 0
M  V30 15510 H 1517.98 -3.73176 -0.262831 0
M  V30 15511 H 1519.31 -4.90841 -0.365441 0
M  V30 15512 N 1520.96 -0.130252 -1.57061 0
M  V30 15513 C 1522.38 0.393318 -1.8251 0
M  V30 15514 C 1522.73 1.65862 -1.04806 0
M  V30 15515 O 1521.85 2.14473 -0.288118 0
M  V30 15516 C 1522.45 0.720366 -3.31053 0
M  V30 15517 C 1521.01 1.18852 -3.57143 0
M  V30 15518 C 1520.15 0.202964 -2.76556 0
M  V30 15519 H 1523.1 -0.355217 -1.54674 0
M  V30 15520 H 1523.12 1.57671 -3.46295 0
M  V30 15521 H 1522.64 -0.200719 -3.87581 0
M  V30 15522 H 1520.74 2.12612 -3.05985 0
M  V30 15523 H 1520.85 1.12607 -4.65678 0
M  V30 15524 H 1519.21 0.692264 -2.45112 0
M  V30 15525 H 1520 -0.711417 -3.35848 0
M  V30 15526 N 1522.44 1.56945 0.143535 0
M  V30 15527 C 1523.67 1.88067 0.874385 0
M  V30 15528 C 1524.09 0.719645 1.73789 0
M  V30 15529 O 1523.45 -0.330654 1.78259 0
M  V30 15530 C 1523.5 3.17795 1.70408 0
M  V30 15531 O 1522.6 3.01973 2.80867 0
M  V30 15532 H 1521.94 0.617808 0.24333 0
M  V30 15533 H 1524.47 2.04165 0.133309 0
M  V30 15534 H 1524.48 3.49903 2.09838 0
M  V30 15535 H 1523.16 4.019 1.07001 0
M  V30 15536 H 1521.74 2.8128 2.44818 0
M  V30 15537 N 1523.92 -0.412991 1.52093 0
M  V30 15538 C 1524.87 -1.50294 1.75158 0
M  V30 15539 C 1525.84 -1.55119 0.593902 0
M  V30 15540 O 1527.02 -1.71751 0.831032 0
M  V30 15541 C 1524.16 -2.87781 1.90463 0
M  V30 15542 C 1523.28 -2.92295 3.181 0
M  V30 15543 C 1522.41 -4.21056 3.23859 0
M  V30 15544 C 1521.45 -4.1953 4.45714 0
M  V30 15545 N 1520.59 -5.39857 4.48886 0
M  V30 15546 H 1525.43 -1.29927 2.68185 0
M  V30 15547 H 1522.96 -0.630741 1.32891 0
M  V30 15548 H 1524.92 -3.67588 1.9732 0
M  V30 15549 H 1523.55 -3.06651 1.00822 0
M  V30 15550 H 1522.6 -2.05002 3.20434 0
M  V30 15551 H 1523.92 -2.87031 4.0794 0
M  V30 15552 H 1523.07 -5.09253 3.29767 0
M  V30 15553 H 1521.81 -4.2901 2.31952 0
M  V30 15554 H 1520.81 -3.29724 4.39957 0
M  V30 15555 H 1522.04 -4.1322 5.38912 0
M  V30 15556 H 1519.99 -5.48486 3.59861 0
M  V30 15557 H 1519.9 -5.36572 5.32566 0
M  V30 15558 H 1521.17 -6.30018 4.59018 0
M  V30 15559 N 1525.4 -1.4265 -0.669982 0
M  V30 15560 C 1526.35 -1.46504 -1.7834 0
M  V30 15561 C 1527.32 -0.316478 -1.63057 0
M  V30 15562 O 1528.5 -0.521245 -1.83542 0
M  V30 15563 C 1525.64 -1.37784 -3.16401 0
M  V30 15564 C 1524.75 -2.62714 -3.42937 0
M  V30 15565 C 1523.89 -2.46101 -4.70752 0
M  V30 15566 C 1522.93 -3.66381 -4.90338 0
M  V30 15567 N 1522.07 -3.48681 -6.09398 0
M  V30 15568 H 1526.91 -2.41651 -1.74381 0
M  V30 15569 H 1524.44 -1.1997 -0.851215 0
M  V30 15570 H 1526.4 -1.30725 -3.9619 0
M  V30 15571 H 1525.03 -0.462291 -3.19473 0
M  V30 15572 H 1524.08 -2.8012 -2.57366 0
M  V30 15573 H 1525.39 -3.52108 -3.53301 0
M  V30 15574 H 1524.55 -2.36655 -5.58641 0
M  V30 15575 H 1523.29 -1.54204 -4.6268 0
M  V30 15576 H 1522.29 -3.76254 -4.00891 0
M  V30 15577 H 1523.52 -4.59265 -5.00253 0
M  V30 15578 H 1521.46 -2.59505 -6.02489 0
M  V30 15579 H 1521.38 -4.31666 -6.20645 0
M  V30 15580 H 1522.65 -3.43056 -6.99952 0
M  V30 15581 N 1526.88 0.906753 -1.28902 0
M  V30 15582 C 1528.12 1.65903 -1.16636 0
M  V30 15583 C 1528.46 1.92127 0.282981 0
M  V30 15584 O 1527.73 1.52666 1.20513 0
M  V30 15585 C 1528.01 3.01257 -1.97272 0
M  V30 15586 C 1527.87 2.82143 -3.50308 0
M  V30 15587 C 1529.19 4.01893 -1.7936 0
M  V30 15588 H 1526.31 0.602063 -0.425076 0
M  V30 15589 H 1528.95 1.05081 -1.58297 0
M  V30 15590 H 1527.1 3.53172 -1.61871 0
M  V30 15591 H 1528.77 2.37184 -3.95653 0
M  V30 15592 H 1527.01 2.17063 -3.75588 0
M  V30 15593 H 1527.68 3.78293 -4.01993 0
M  V30 15594 H 1530.16 3.59064 -2.10267 0
M  V30 15595 H 1529.04 4.9455 -2.38141 0
M  V30 15596 H 1529.3 4.35745 -0.746923 0
M  V30 15597 N 1528.36 1.11264 1.11616 0
M  V30 15598 C 1529.27 0.781961 2.21184 0
M  V30 15599 C 1530.28 -0.224149 1.7255 0
M  V30 15600 O 1531.46 -0.0607743 2.01308 0
M  V30 15601 C 1528.52 0.228031 3.45949 0
M  V30 15602 C 1527.58 1.29251 4.09381 0
M  V30 15603 C 1526.82 0.764921 5.2819 0
M  V30 15604 O 1527.04 -0.405671 5.68956 0
M  V30 15605 O 1525.97 1.52886 5.82159 0
M  V30 15606 H 1529.8 1.69678 2.51879 0
M  V30 15607 H 1527.38 0.888394 1.20116 0
M  V30 15608 H 1529.27 -0.0766085 4.2133 0
M  V30 15609 H 1527.94 -0.659519 3.1691 0
M  V30 15610 H 1526.85 1.65014 3.3574 0
M  V30 15611 H 1528.18 2.15339 4.42595 0
M  V30 15612 N 1529.83 -1.29188 0.902679 0
M  V30 15613 C 1530.77 -2.26665 0.339964 0
M  V30 15614 C 1531.78 -1.54426 -0.515396 0
M  V30 15615 O 1532.97 -1.75384 -0.332071 0
M  V30 15616 C 1530.07 -3.34672 -0.533653 0
M  V30 15617 C 1529.24 -4.36393 0.296661 0
M  V30 15618 C 1528.3 -5.2372 -0.510264 0
M  V30 15619 O 1527.33 -5.69153 0.0732871 0
M  V30 15620 N 1528.53 -5.51373 -1.81572 0
M  V30 15621 H 1531.29 -2.75588 1.17778 0
M  V30 15622 H 1528.85 -1.42553 0.767474 0
M  V30 15623 H 1530.85 -3.90025 -1.07995 0
M  V30 15624 H 1529.42 -2.85543 -1.27216 0
M  V30 15625 H 1528.64 -3.80658 1.02436 0
M  V30 15626 H 1529.92 -5.0139 0.865191 0
M  V30 15627 H 1529.32 -5.16275 -2.31251 0
M  V30 15628 H 1527.88 -6.09528 -2.30908 0
M  V30 15629 N 1531.31 -0.665475 -1.42861 0
M  V30 15630 C 1532.56 -0.183521 -2.01265 0
M  V30 15631 C 1532.88 1.21103 -1.52837 0
M  V30 15632 O 1532.15 1.81135 -0.746109 0
M  V30 15633 H 1530.73 -0.0648565 -0.744179 0
M  V30 15634 H 1533.39 -0.859893 -1.74905 0
M  V30 15635 H 1532.49 -0.177589 -3.11594 0
M  V30 15636 N 1532.79 1.52222 -0.408187 0
M  V30 15637 C 1533.72 2.29892 0.408868 0
M  V30 15638 C 1534.7 1.34063 1.04695 0
M  V30 15639 O 1535.89 1.6297 1.05615 0
M  V30 15640 C 1533.02 3.11964 1.52629 0
M  V30 15641 C 1531.97 4.15833 1.01326 0
M  V30 15642 C 1531.3 4.86244 2.2242 0
M  V30 15643 C 1532.6 5.22256 0.0679573 0
M  V30 15644 H 1534.29 2.98443 -0.23923 0
M  V30 15645 H 1531.84 1.43528 -0.116496 0
M  V30 15646 H 1533.79 3.65067 2.10486 0
M  V30 15647 H 1532.51 2.41181 2.20225 0
M  V30 15648 H 1531.17 3.63739 0.4571 0
M  V30 15649 H 1530.82 4.11991 2.88569 0
M  V30 15650 H 1530.52 5.56461 1.88746 0
M  V30 15651 H 1532.04 5.42159 2.80885 0
M  V30 15652 H 1533.46 5.70604 0.555295 0
M  V30 15653 H 1531.85 5.9983 -0.179934 0
M  V30 15654 H 1532.92 4.76892 -0.877599 0
M  V30 15655 N 1534.27 0.138579 1.5699 0
M  V30 15656 C 1535.54 -0.559239 1.87435 0
M  V30 15657 C 1535.92 -1.83527 1.04312 0
M  V30 15658 O 1535.27 -2.28144 0.127531 0
M  V30 15659 C 1535.48 -0.83282 3.38918 0
M  V30 15660 C 1536.83 -1.1773 4.07952 0
M  V30 15661 O 1537.85 -0.92245 3.44048 0
M  V30 15662 O 1536.71 -1.6565 5.2079 0
M  V30 15663 H 1533.81 -0.284318 0.77659 0
M  V30 15664 H 1536.35 0.174558 1.688 0
M  V30 15665 H 1535.13 0.0706054 3.91236 0
M  V30 15666 H 1534.75 -1.62109 3.63051 0
M  V30 15667 N 1535.75 -1.57019 -0.13521 0
M  V30 15668 C 1536.99 -1.8399 -0.845818 0
M  V30 15669 C 1537.32 -0.721255 -1.80633 0
M  V30 15670 O 1536.58 0.288778 -1.93558 0
M  V30 15671 C 1536.87 -3.17358 -1.64373 0
M  V30 15672 C 1536.54 -4.43214 -0.828967 0
M  V30 15673 C 1535.2 -4.77391 -0.604226 0
M  V30 15674 C 1537.55 -5.20551 -0.259965 0
M  V30 15675 C 1534.88 -5.86359 0.200033 0
M  V30 15676 C 1537.23 -6.30364 0.531397 0
M  V30 15677 C 1535.9 -6.63083 0.766605 0
M  V30 15678 H 1535.17 -0.673266 -0.309507 0
M  V30 15679 H 1537.82 -1.9119 -0.108903 0
M  V30 15680 H 1536.12 -3.05661 -2.4511 0
M  V30 15681 H 1537.82 -3.35444 -2.19724 0
M  V30 15682 H 1534.41 -4.16427 -1.01421 0
M  V30 15683 H 1538.59 -4.94512 -0.420847 0
M  V30 15684 H 1533.85 -6.10144 0.391646 0
M  V30 15685 H 1538.02 -6.89479 0.979371 0
M  V30 15686 H 1535.65 -7.47354 1.39164 0
M  V30 15687 N 1537.22 0.404919 -1.52309 0
M  V30 15688 C 1538.19 1.47627 -1.75325 0
M  V30 15689 C 1539.19 1.48234 -0.623153 0
M  V30 15690 O 1540.38 1.49685 -0.891069 0
M  V30 15691 C 1537.51 2.87013 -1.83947 0
M  V30 15692 H 1538.7 1.2851 -2.70971 0
M  V30 15693 H 1536.26 0.635677 -1.42789 0
M  V30 15694 H 1536.99 3.11495 -0.902309 0
M  V30 15695 H 1536.78 2.87974 -2.66108 0
M  V30 15696 H 1538.27 3.64671 -2.03481 0
M  V30 15697 N 1538.7 1.43003 0.662408 0
M  V30 15698 C 1539.95 1.44346 1.4245 0
M  V30 15699 C 1540.28 0.064094 1.94094 0
M  V30 15700 O 1539.56 -0.913633 1.71706 0
M  V30 15701 C 1539.84 2.47822 2.61259 0
M  V30 15702 C 1539.69 3.94998 2.15166 0
M  V30 15703 C 1541.01 2.48139 3.63476 0
M  V30 15704 H 1538.13 0.525606 0.51663 0
M  V30 15705 H 1540.77 1.74495 0.751754 0
M  V30 15706 H 1538.92 2.22244 3.18653 0
M  V30 15707 H 1540.59 4.31601 1.62843 0
M  V30 15708 H 1538.84 4.0827 1.46622 0
M  V30 15709 H 1539.51 4.62998 3.00561 0
M  V30 15710 H 1541.98 2.70916 3.15823 0
M  V30 15711 H 1540.86 3.22498 4.44169 0
M  V30 15712 H 1541.12 1.51184 4.15447 0
M  V30 15713 N 1540.18 -0.899904 1.29381 0
M  V30 15714 C 1541.11 -2.00914 1.103 0
M  V30 15715 C 1542.13 -1.62721 0.050568 0
M  V30 15716 O 1543.31 -1.76044 0.295068 0
M  V30 15717 C 1540.41 -3.32473 0.656896 0
M  V30 15718 C 1539.59 -3.99195 1.7878 0
M  V30 15719 C 1538.65 -5.09043 1.33274 0
M  V30 15720 O 1537.67 -5.31486 2.03742 0
M  V30 15721 N 1538.87 -5.80143 0.203519 0
M  V30 15722 H 1541.64 -2.17838 2.05832 0
M  V30 15723 H 1539.2 -1.07208 1.21318 0
M  V30 15724 H 1541.19 -4.03305 0.335783 0
M  V30 15725 H 1539.76 -3.11921 -0.205959 0
M  V30 15726 H 1538.98 -3.21729 2.2778 0
M  V30 15727 H 1540.27 -4.40515 2.54606 0
M  V30 15728 H 1539.67 -5.64395 -0.384005 0
M  V30 15729 H 1538.23 -6.51774 -0.0582282 0
M  V30 15730 N 1541.66 -1.11854 -1.11024 0
M  V30 15731 C 1542.91 -0.868355 -1.82494 0
M  V30 15732 C 1543.23 0.607622 -1.85292 0
M  V30 15733 O 1542.5 1.44147 -1.32659 0
M  V30 15734 H 1541.08 -0.31826 -0.67581 0
M  V30 15735 H 1543.74 -1.4118 -1.34366 0
M  V30 15736 H 1542.84 -1.24441 -2.86218 0
M  V30 15737 N 1543.14 1.28707 -0.909517 0
M  V30 15738 C 1544.07 2.26481 -0.35198 0
M  V30 15739 C 1545.08 1.54698 0.507199 0
M  V30 15740 O 1546.27 1.75558 0.322765 0
M  V30 15741 C 1543.37 3.3495 0.515897 0
M  V30 15742 C 1542.54 4.36229 -0.3198 0
M  V30 15743 C 1541.6 5.23983 0.482483 0
M  V30 15744 O 1540.63 5.69106 -0.10347 0
M  V30 15745 N 1541.83 5.52328 1.78645 0
M  V30 15746 H 1544.6 2.74959 -1.19238 0
M  V30 15747 H 1542.16 1.42144 -0.775023 0
M  V30 15748 H 1544.15 3.90592 1.05925 0
M  V30 15749 H 1542.72 2.86214 1.257 0
M  V30 15750 H 1541.94 3.80109 -1.04454 0
M  V30 15751 H 1543.23 5.00924 -0.891769 0
M  V30 15752 H 1542.62 5.17494 2.28509 0
M  V30 15753 H 1541.18 6.10744 2.27672 0
M  V30 15754 N 1544.61 0.673042 1.42506 0
M  V30 15755 C 1545.54 0.00755467 2.33499 0
M  V30 15756 C 1546.53 -0.791161 1.50581 0
M  V30 15757 O 1547.71 -0.748668 1.79189 0
M  V30 15758 C 1544.84 -0.945638 3.34178 0
M  V30 15759 C 1543.79 -0.25564 4.27236 0
M  V30 15760 C 1543.12 -1.32165 5.18109 0
M  V30 15761 C 1544.42 0.864254 5.151 0
M  V30 15762 H 1546.11 0.767487 2.89396 0
M  V30 15763 H 1543.66 0.370524 1.39151 0
M  V30 15764 H 1545.61 -1.42026 3.96745 0
M  V30 15765 H 1544.34 -1.73697 2.76581 0
M  V30 15766 H 1543 0.19873 3.66061 0
M  V30 15767 H 1542.64 -2.10492 4.56839 0
M  V30 15768 H 1542.34 -0.865109 5.81197 0
M  V30 15769 H 1543.87 -1.79724 5.83551 0
M  V30 15770 H 1545.28 0.470924 5.71363 0
M  V30 15771 H 1543.68 1.24648 5.87012 0
M  V30 15772 H 1544.75 1.71378 4.53605 0
M  V30 15773 N 1546.09 -1.52004 0.416254 0
M  V30 15774 C 1547.37 -1.94403 -0.216103 0
M  V30 15775 C 1547.75 -1.35362 -1.61989 0
M  V30 15776 O 1547.1 -0.532242 -2.22215 0
M  V30 15777 C 1547.31 -3.48336 -0.215225 0
M  V30 15778 C 1548.66 -4.22406 -0.431109 0
M  V30 15779 O 1549.68 -3.54982 -0.294271 0
M  V30 15780 O 1548.54 -5.4198 -0.70145 0
M  V30 15781 H 1545.63 -0.814838 -0.141306 0
M  V30 15782 H 1548.18 -1.62983 0.472712 0
M  V30 15783 H 1546.95 -3.83709 0.767004 0
M  V30 15784 H 1546.57 -3.86137 -0.947841 0
M  V30 15785 N 1547.57 -0.146903 -1.56914 0
M  V30 15786 C 1548.82 0.504981 -1.96412 0
M  V30 15787 C 1549.15 1.64522 -1.0318 0
M  V30 15788 O 1548.42 1.94359 -0.0741728 0
M  V30 15789 C 1548.71 1.01125 -3.45609 0
M  V30 15790 C 1548.56 -0.127493 -4.49619 0
M  V30 15791 C 1549.88 1.89306 -3.97305 0
M  V30 15792 H 1547 0.182088 -0.714152 0
M  V30 15793 H 1549.64 -0.22811 -1.88626 0
M  V30 15794 H 1547.79 1.63595 -3.52376 0
M  V30 15795 H 1549.46 -0.763829 -4.54932 0
M  V30 15796 H 1547.71 -0.786649 -4.26608 0
M  V30 15797 H 1548.38 0.268453 -5.51347 0
M  V30 15798 H 1550.85 1.36664 -3.93017 0
M  V30 15799 H 1549.73 2.21638 -5.02163 0
M  V30 15800 H 1549.99 2.82996 -3.39655 0
M  V30 15801 N 1549.05 1.57088 0.126881 0
M  V30 15802 C 1550 1.99764 1.15599 0
M  V30 15803 C 1550.97 0.868468 1.41587 0
M  V30 15804 O 1552.15 1.13209 1.53585 0
M  V30 15805 C 1549.29 2.40038 2.47943 0
M  V30 15806 C 1548.4 3.66336 2.28958 0
M  V30 15807 C 1547.54 3.95626 3.54477 0
M  V30 15808 C 1546.58 5.15131 3.30616 0
M  V30 15809 N 1545.71 5.4033 4.48317 0
M  V30 15810 H 1550.55 2.87473 0.785078 0
M  V30 15811 H 1548.09 1.42209 0.376169 0
M  V30 15812 H 1550.05 2.61423 3.25136 0
M  V30 15813 H 1548.68 1.55382 2.82942 0
M  V30 15814 H 1547.73 3.52612 1.4272 0
M  V30 15815 H 1549.04 4.53684 2.07298 0
M  V30 15816 H 1548.2 4.17617 4.40092 0
M  V30 15817 H 1546.94 3.06738 3.79161 0
M  V30 15818 H 1545.94 4.92992 2.43391 0
M  V30 15819 H 1547.17 6.05588 3.0731 0
M  V30 15820 H 1545.11 4.54399 4.73136 0
M  V30 15821 H 1545.03 6.21985 4.29733 0
M  V30 15822 H 1546.3 5.66835 5.35088 0
M  V30 15823 N 1550.53 -0.396836 1.52522 0
M  V30 15824 C 1551.78 -1.13978 1.66409 0
M  V30 15825 C 1552.09 -1.91333 0.406326 0
M  V30 15826 O 1553.29 -2.6815 0.425195 0
M  V30 15827 C 1551.75 -2.07512 2.94052 0
M  V30 15828 C 1551.36 -1.35616 4.2698 0
M  V30 15829 C 1553.1 -2.8199 3.17304 0
M  V30 15830 C 1551.01 -2.2787 5.45737 0
M  V30 15831 H 1549.94 -0.429181 0.619935 0
M  V30 15832 H 1552.59 -0.403207 1.79015 0
M  V30 15833 H 1550.97 -2.84773 2.75174 0
M  V30 15834 H 1552.15 -0.636349 4.56385 0
M  V30 15835 H 1550.46 -0.731297 4.09928 0
M  V30 15836 H 1553.06 -3.5118 4.03208 0
M  V30 15837 H 1553.4 -3.45629 2.32048 0
M  V30 15838 H 1553.93 -2.11824 3.36712 0
M  V30 15839 H 1550.67 -1.68858 6.33378 0
M  V30 15840 H 1550.19 -2.97789 5.20655 0
M  V30 15841 H 1551.87 -2.88126 5.79303 0
M  V30 15842 N 1552.01 -1.43353 -0.654814 0
M  V30 15843 C 1553.23 -1.48536 -1.44748 0
M  V30 15844 C 1553.66 -0.103991 -1.87812 0
M  V30 15845 O 1553.01 0.901924 -1.57274 0
M  V30 15846 C 1553.06 -2.43498 -2.65972 0
M  V30 15847 O 1552.17 -1.92014 -3.64972 0
M  V30 15848 H 1551.51 -0.502476 -0.434067 0
M  V30 15849 H 1554.04 -1.88251 -0.801427 0
M  V30 15850 H 1554.05 -2.60748 -3.13806 0
M  V30 15851 H 1552.72 -3.43847 -2.3397 0
M  V30 15852 H 1551.3 -1.84417 -3.24106 0
M  V30 15853 N 1553.48 0.89303 -1.29857 0
M  V30 15854 C 1554.76 1.62492 -1.08884 0
M  V30 15855 C 1555.14 2.07926 0.364695 0
M  V30 15856 O 1554.49 1.84009 1.35473 0
M  V30 15857 C 1554.7 2.80063 -2.08245 0
M  V30 15858 C 1556.05 3.50589 -2.39526 0
M  V30 15859 O 1557.07 2.90241 -2.06492 0
M  V30 15860 O 1555.93 4.59399 -2.95998 0
M  V30 15861 H 1553.02 0.713805 -0.417626 0
M  V30 15862 H 1555.57 0.940513 -1.41253 0
M  V30 15863 H 1554.34 2.43735 -3.06119 0
M  V30 15864 H 1553.96 3.56205 -1.76645 0
M  V30 15865 N 1554.96 1.12442 1.10429 0
M  V30 15866 C 1556.21 0.879758 1.82391 0
M  V30 15867 C 1556.54 -0.594402 1.85195 0
M  V30 15868 O 1555.79 -1.4554 1.3083 0
M  V30 15869 C 1556.09 1.39976 3.28849 0
M  V30 15870 C 1555.76 2.88897 3.46192 0
M  V30 15871 C 1554.42 3.2956 3.50633 0
M  V30 15872 C 1556.77 3.8476 3.51581 0
M  V30 15873 C 1554.1 4.64791 3.58031 0
M  V30 15874 C 1556.45 5.19821 3.60512 0
M  V30 15875 C 1555.11 5.60026 3.63217 0
M  V30 15876 H 1554.38 0.321926 0.667416 0
M  V30 15877 H 1557.03 1.40461 1.30165 0
M  V30 15878 H 1555.34 0.795374 3.83642 0
M  V30 15879 H 1557.03 1.18667 3.83039 0
M  V30 15880 H 1553.62 2.56448 3.43413 0
M  V30 15881 H 1557.81 3.54439 3.474 0
M  V30 15882 H 1553.06 4.95332 3.58408 0
M  V30 15883 H 1557.24 5.93927 3.63625 0
M  V30 15884 H 1554.86 6.64803 3.68702 0
M  V30 15885 N 1556.44 -1.28223 0.91633 0
M  V30 15886 C 1557.69 -1.9448 0.549734 0
M  V30 15887 C 1558.01 -1.72465 -0.909999 0
M  V30 15888 O 1557.28 -1.06583 -1.64368 0
M  V30 15889 H 1555.86 -0.719641 0.200315 0
M  V30 15890 H 1558.52 -1.56156 1.16625 0
M  V30 15891 H 1557.62 -3.03044 0.746363 0
M  V30 15892 N 1557.92 -0.68059 -1.42147 0
M  V30 15893 C 1558.85 0.0331442 -2.29176 0
M  V30 15894 C 1559.86 0.759652 -1.4399 0
M  V30 15895 O 1561.05 0.612846 -1.6765 0
M  V30 15896 C 1558.15 1.07077 -3.2154 0
M  V30 15897 C 1557.32 0.416914 -4.35409 0
M  V30 15898 C 1556.38 1.3551 -5.08452 0
M  V30 15899 O 1555.41 0.853198 -5.62769 0
M  V30 15900 N 1556.61 2.68815 -5.14508 0
M  V30 15901 H 1559.38 -0.713963 -2.91072 0
M  V30 15902 H 1556.94 -0.525451 -1.53136 0
M  V30 15903 H 1558.93 1.6998 -3.67272 0
M  V30 15904 H 1557.5 1.71955 -2.61056 0
M  V30 15905 H 1556.72 -0.391734 -3.92249 0
M  V30 15906 H 1558.01 -0.0383564 -5.08786 0
M  V30 15907 H 1557.41 3.12125 -4.71799 0
M  V30 15908 H 1555.96 3.26951 -5.63867 0
M  V30 15909 N 1559.4 1.51781 -0.424309 0
M  V30 15910 C 1560.33 2.23945 0.438604 0
M  V30 15911 C 1561.31 1.25363 1.03552 0
M  V30 15912 O 1562.49 1.5446 1.08048 0
M  V30 15913 C 1559.62 2.9798 1.61014 0
M  V30 15914 C 1558.66 4.11116 1.13516 0
M  V30 15915 S 1559.5 5.35428 0.0878448 0
M  V30 15916 C 1560.65 6.12997 1.26435 0
M  V30 15917 H 1560.89 2.9679 -0.174103 0
M  V30 15918 H 1558.42 1.52983 -0.208718 0
M  V30 15919 H 1560.38 3.41237 2.28183 0
M  V30 15920 H 1559.04 2.2475 2.19423 0
M  V30 15921 H 1558.23 4.62147 2.01086 0
M  V30 15922 H 1557.83 3.70053 0.5419 0
M  V30 15923 H 1560.12 6.41293 2.18517 0
M  V30 15924 H 1561.07 7.03631 0.794265 0
M  V30 15925 H 1561.48 5.44288 1.49702 0
M  V30 15926 N 1560.87 0.155222 1.56834 0
M  V30 15927 C 1561.84 -0.767266 2.15976 0
M  V30 15928 C 1562.84 -1.16946 1.10364 0
M  V30 15929 O 1564.03 -1.08905 1.35961 0
M  V30 15930 C 1561.16 -2.04226 2.72956 0
M  V30 15931 H 1562.35 -0.252662 2.98834 0
M  V30 15932 H 1559.9 -0.0942677 1.56015 0
M  V30 15933 H 1560.64 -2.60033 1.93787 0
M  V30 15934 H 1560.42 -1.76299 3.5023 0
M  V30 15935 H 1561.91 -2.70093 3.18495 0
M  V30 15936 N 1562.35 -1.57153 -0.118549 0
M  V30 15937 C 1563.58 -1.89434 -0.844355 0
M  V30 15938 C 1564 -0.747203 -1.72622 0
M  V30 15939 O 1563.36 0.302252 -1.78763 0
M  V30 15940 C 1563.41 -3.20466 -1.65331 0
M  V30 15941 O 1562.51 -3.06403 -2.76027 0
M  V30 15942 H 1561.85 -0.621601 -0.23347 0
M  V30 15943 H 1564.38 -2.04351 -0.100811 0
M  V30 15944 H 1564.39 -3.53197 -2.04245 0
M  V30 15945 H 1563.07 -4.03551 -1.00594 0
M  V30 15946 H 1561.64 -2.85139 -2.40312 0
M  V30 15947 N 1563.83 0.388742 -1.5273 0
M  V30 15948 C 1565.08 1.13151 -1.67455 0
M  V30 15949 C 1565.4 1.90487 -0.417095 0
M  V30 15950 O 1564.67 1.87469 0.568509 0
M  V30 15951 H 1563.25 0.4207 -0.617269 0
M  V30 15952 H 1565.91 0.44098 -1.89846 0
M  V30 15953 H 1565.01 1.83427 -2.52509 0
M  V30 15954 N 1565.31 1.43698 0.647203 0
M  V30 15955 C 1566.24 1.52135 1.77136 0
M  V30 15956 C 1567.22 0.375551 1.65902 0
M  V30 15957 O 1568.4 0.593564 1.84907 0
M  V30 15958 C 1565.53 1.44974 3.15594 0
M  V30 15959 C 1564.49 2.57866 3.41598 0
M  V30 15960 C 1563.81 2.35757 4.7992 0
M  V30 15961 C 1565.11 4.00089 3.35747 0
M  V30 15962 H 1566.81 2.46227 1.70332 0
M  V30 15963 H 1564.35 1.18507 0.818046 0
M  V30 15964 H 1566.31 1.4948 3.93997 0
M  V30 15965 H 1565.03 0.473905 3.23143 0
M  V30 15966 H 1563.69 2.52722 2.65569 0
M  V30 15967 H 1563.34 1.36403 4.84152 0
M  V30 15968 H 1563.04 3.11436 4.98278 0
M  V30 15969 H 1564.56 2.42055 5.60572 0
M  V30 15970 H 1565.98 4.06687 4.04078 0
M  V30 15971 H 1564.37 4.75842 3.65642 0
M  V30 15972 H 1565.44 4.24798 2.33825 0
M  V30 15973 N 1566.79 -0.886131 1.30328 0
M  V30 15974 C 1567.73 -2.01312 1.16516 0
M  V30 15975 C 1568.73 -1.69223 0.0773431 0
M  V30 15976 O 1569.93 -1.78418 0.238111 0
M  V30 15977 H 1566.31 -0.66006 0.360312 0
M  V30 15978 H 1568.28 -2.10097 2.11901 0
M  V30 15979 C 1567.03 -3.36573 0.872592 0
M  V30 15980 H 1566.35 -3.61775 1.70172 0
M  V30 15981 H 1567.79 -4.16073 0.816049 0
M  V30 15982 C 1566.25 -3.34215 -0.424465 0
M  V30 15983 O 1566.78 -3.74758 -1.44634 0
M  V30 15984 N 1564.99 -2.87323 -0.435207 0
M  V30 15985 H 1564.53 -2.54525 0.396851 0
M  V30 15986 H 1564.49 -2.86128 -1.303 0
M  V30 15987 N 1568.26 -1.13026 -1.09832 0
M  V30 15988 C 1569.51 -0.884093 -1.81292 0
M  V30 15989 C 1569.83 0.591608 -1.86439 0
M  V30 15990 O 1571.03 0.954571 -2.54166 0
M  V30 15991 C 1569.49 -1.53207 -3.25662 0
M  V30 15992 C 1569.1 -3.043 -3.28794 0
M  V30 15993 C 1570.84 -1.36644 -4.01906 0
M  V30 15994 C 1568.75 -3.62003 -4.67662 0
M  V30 15995 H 1567.68 -0.327101 -0.679353 0
M  V30 15996 H 1570.33 -1.35748 -1.2347 0
M  V30 15997 H 1568.71 -0.986353 -3.83519 0
M  V30 15998 H 1569.88 -3.65418 -2.80725 0
M  V30 15999 H 1568.2 -3.20332 -2.66038 0
M  V30 16000 H 1570.8 -1.7717 -5.04495 0
M  V30 16001 H 1571.14 -0.310809 -4.15138 0
M  V30 16002 H 1571.67 -1.88172 -3.5048 0
M  V30 16003 H 1568.41 -4.67354 -4.59631 0
M  V30 16004 H 1567.93 -3.05663 -5.16072 0
M  V30 16005 H 1569.61 -3.61432 -5.36634 0
M  V30 16006 N 1569.74 1.27735 -0.923117 0
M  V30 16007 C 1571.02 1.89626 -0.479724 0
M  V30 16008 C 1571.4 1.83592 1.04197 0
M  V30 16009 O 1570.75 1.27808 1.89413 0
M  V30 16010 C 1570.96 3.33742 -1.02064 0
M  V30 16011 C 1572.31 4.10678 -1.07837 0
M  V30 16012 O 1573.33 3.4274 -0.969943 0
M  V30 16013 O 1572.19 5.32135 -1.24476 0
M  V30 16014 H 1569.28 0.812615 -0.153575 0
M  V30 16015 H 1571.83 1.36036 -1.01451 0
M  V30 16016 H 1570.6 3.32404 -2.06454 0
M  V30 16017 H 1570.22 3.94845 -0.467234 0
M  V30 16018 N 1571.22 0.688118 1.41784 0
M  V30 16019 C 1572.5 0.144304 1.95067 0
M  V30 16020 C 1572.88 -1.34399 1.62789 0
M  V30 16021 O 1572.23 -2.08675 0.930978 0
M  V30 16022 C 1572.44 0.427641 3.4637 0
M  V30 16023 C 1573.78 0.351345 4.23144 0
M  V30 16024 O 1574.81 0.362134 3.54354 0
M  V30 16025 O 1573.67 0.305018 5.45648 0
M  V30 16026 H 1570.76 0.01062 0.826932 0
M  V30 16027 H 1573.31 0.763766 1.51541 0
M  V30 16028 H 1572.08 1.4581 3.63119 0
M  V30 16029 H 1571.7 -0.223167 3.96973 0
M  V30 16030 N 1572.7 -1.51554 0.432352 0
M  V30 16031 C 1574.11 -1.59377 0.0843863 0
M  V30 16032 C 1574.31 -1.44364 -1.40575 0
M  V30 16033 O 1573.37 -1.28234 -2.17514 0
M  V30 16034 C 1574.68 -2.94652 0.600046 0
M  V30 16035 C 1576.23 -3.07949 0.560049 0
M  V30 16036 C 1576.71 -4.4574 1.0526 0
M  V30 16037 N 1578.2 -4.52046 1.01038 0
M  V30 16038 C 1578.93 -5.56979 1.36242 0
M  V30 16039 N 1578.43 -6.69355 1.78707 0
M  V30 16040 N 1580.22 -5.47311 1.2809 0
M  V30 16041 H 1572.37 -1.59558 1.40197 0
M  V30 16042 H 1574.64 -0.751868 0.577406 0
M  V30 16043 H 1574.34 -3.10993 1.64245 0
M  V30 16044 H 1574.22 -3.77193 0.0222482 0
M  V30 16045 H 1576.6 -2.91279 -0.473357 0
M  V30 16046 H 1576.68 -2.27259 1.17419 0
M  V30 16047 H 1576.33 -4.63156 2.08445 0
M  V30 16048 H 1576.26 -5.24962 0.415047 0
M  V30 16049 H 1578.75 -3.71389 0.69847 0
M  V30 16050 H 1579.06 -7.45438 2.03819 0
M  V30 16051 H 1577.41 -6.70576 1.82629 0
M  V30 16052 H 1580.6 -4.58403 0.947848 0
M  V30 16053 H 1580.77 -6.28978 1.55855 0
M  V30 16054 N 1574.18 -0.163538 -1.56749 0
M  V30 16055 C 1575.59 0.192717 -1.58432 0
M  V30 16056 C 1575.79 1.63438 -1.17856 0
M  V30 16057 O 1574.85 2.36425 -0.88654 0
M  V30 16058 C 1576.16 -0.0810427 -3.00591 0
M  V30 16059 C 1577.71 -0.0186378 -3.12994 0
M  V30 16060 C 1578.18 -0.265283 -4.57231 0
M  V30 16061 N 1579.68 -0.212787 -4.62711 0
M  V30 16062 C 1580.41 -0.37791 -5.72153 0
M  V30 16063 N 1579.91 -0.601663 -6.90182 0
M  V30 16064 N 1581.7 -0.314357 -5.6122 0
M  V30 16065 H 1573.85 -1.10467 -1.81413 0
M  V30 16066 H 1576.11 -0.438569 -0.840453 0
M  V30 16067 H 1575.82 -1.07944 -3.34725 0
M  V30 16068 H 1575.69 0.630888 -3.71887 0
M  V30 16069 H 1578.08 0.970324 -2.78691 0
M  V30 16070 H 1578.16 -0.763158 -2.44151 0
M  V30 16071 H 1577.81 -1.25142 -4.92242 0
M  V30 16072 H 1577.74 0.499756 -5.24223 0
M  V30 16073 H 1580.23 -0.0451754 -3.77873 0
M  V30 16074 H 1580.54 -0.717319 -7.69464 0
M  V30 16075 H 1578.88 -0.638184 -6.92064 0
M  V30 16076 H 1582.08 -0.140197 -4.6789 0
M  V30 16077 H 1582.25 -0.446472 -6.4646 0
M  V30 16078 N 1575.65 1.57214 0.110213 0
M  V30 16079 C 1576.62 2.00034 1.11888 0
M  V30 16080 C 1577.62 0.891697 1.33811 0
M  V30 16081 O 1578.81 1.15754 1.3018 0
M  V30 16082 C 1575.94 2.34806 2.47142 0
M  V30 16083 H 1577.13 2.90354 0.750647 0
M  V30 16084 H 1574.69 1.5222 0.35479 0
M  V30 16085 H 1575.42 1.47393 2.8887 0
M  V30 16086 H 1575.21 3.15671 2.32581 0
M  V30 16087 H 1576.7 2.68644 3.19719 0
M  V30 16088 N 1577.13 -0.380637 1.52934 0
M  V30 16089 C 1578.36 -1.14583 1.72274 0
M  V30 16090 C 1578.78 -1.83484 0.444864 0
M  V30 16091 O 1578.13 -1.72997 -0.581245 0
M  V30 16092 C 1578.18 -2.18756 2.87799 0
M  V30 16093 O 1577.9 -1.52662 4.10641 0
M  V30 16094 C 1579.41 -3.07938 3.18887 0
M  V30 16095 H 1576.63 -0.343218 0.576578 0
M  V30 16096 H 1579.17 -0.444149 1.99619 0
M  V30 16097 H 1577.32 -2.84546 2.62892 0
M  V30 16098 H 1577.74 -2.21949 4.75225 0
M  V30 16099 H 1579.21 -3.77045 4.03164 0
M  V30 16100 H 1579.69 -3.71913 2.33618 0
M  V30 16101 H 1580.3 -2.47783 3.45664 0
M  V30 16102 N 1578.61 -1.44039 -0.639573 0
M  V30 16103 C 1579.52 -1.52728 -1.78077 0
M  V30 16104 C 1580.54 -0.413467 -1.69016 0
M  V30 16105 O 1581.71 -0.669592 -1.89943 0
M  V30 16106 C 1578.78 -1.46078 -3.14424 0
M  V30 16107 C 1577.84 -2.68242 -3.35179 0
M  V30 16108 C 1577.07 -2.61899 -4.65021 0
M  V30 16109 O 1577.29 -1.67431 -5.45273 0
M  V30 16110 O 1576.23 -3.52619 -4.87795 0
M  V30 16111 H 1580.05 -2.49122 -1.737 0
M  V30 16112 H 1577.64 -1.26191 -0.799755 0
M  V30 16113 H 1579.52 -1.44861 -3.95719 0
M  V30 16114 H 1578.2 -0.528236 -3.19361 0
M  V30 16115 H 1577.1 -2.75028 -2.53595 0
M  V30 16116 H 1578.44 -3.60514 -3.35098 0
M  V30 16117 N 1580.09 0.879207 -1.30796 0
M  V30 16118 C 1581.02 2.00158 -1.20246 0
M  V30 16119 C 1582 1.69852 -0.091769 0
M  V30 16120 O 1583.18 1.92246 -0.274792 0
M  V30 16121 C 1580.31 3.3545 -0.899472 0
M  V30 16122 C 1579.27 3.80033 -1.96873 0
M  V30 16123 C 1578.59 5.12681 -1.51861 0
M  V30 16124 C 1579.89 3.98136 -3.38061 0
M  V30 16125 H 1581.59 2.09242 -2.14145 0
M  V30 16126 H 1579.13 1.00535 -1.03096 0
M  V30 16127 H 1581.09 4.13497 -0.812299 0
M  V30 16128 H 1579.81 3.26513 0.075189 0
M  V30 16129 H 1578.47 3.04219 -2.04564 0
M  V30 16130 H 1578.12 5.00178 -0.532063 0
M  V30 16131 H 1577.82 5.43482 -2.23386 0
M  V30 16132 H 1579.34 5.93247 -1.44534 0
M  V30 16133 H 1580.76 4.66604 -3.33096 0
M  V30 16134 H 1579.15 4.40321 -4.07722 0
M  V30 16135 H 1580.22 3.01807 -3.79526 0
M  V30 16136 N 1581.57 1.13606 1.09231 0
M  V30 16137 C 1582.51 0.815279 2.15921 0
M  V30 16138 C 1583.48 -0.223501 1.64589 0
M  V30 16139 O 1584.67 -0.0952982 1.90562 0
M  V30 16140 C 1581.81 0.289655 3.43882 0
M  V30 16141 C 1580.92 1.38773 4.09104 0
M  V30 16142 C 1580.06 0.820238 5.24829 0
M  V30 16143 C 1579.1 1.89658 5.81976 0
M  V30 16144 N 1578.23 1.34688 6.8906 0
M  V30 16145 H 1583.07 1.72914 2.42703 0
M  V30 16146 H 1580.61 0.863101 1.19117 0
M  V30 16147 H 1582.57 -0.0332398 4.17187 0
M  V30 16148 H 1581.2 -0.587329 3.17412 0
M  V30 16149 H 1580.25 1.82718 3.33644 0
M  V30 16150 H 1581.56 2.20114 4.47606 0
M  V30 16151 H 1580.72 0.448745 6.05038 0
M  V30 16152 H 1579.46 -0.0242261 4.87694 0
M  V30 16153 H 1578.46 2.27712 5.00427 0
M  V30 16154 H 1579.69 2.74448 6.21172 0
M  V30 16155 H 1577.63 0.524453 6.539 0
M  V30 16156 H 1577.55 2.09675 7.26342 0
M  V30 16157 H 1578.82 1.00302 7.7302 0
M  V30 16158 N 1583.05 -1.27244 0.929878 0
M  V30 16159 C 1583.98 -2.29161 0.448066 0
M  V30 16160 C 1584.96 -1.62806 -0.492776 0
M  V30 16161 O 1586.14 -1.90098 -0.39706 0
M  V30 16162 C 1583.27 -3.46019 -0.298002 0
M  V30 16163 C 1582.23 -4.24384 0.555211 0
M  V30 16164 C 1581.55 -5.33741 -0.320153 0
M  V30 16165 C 1582.85 -4.89535 1.8208 0
M  V30 16166 H 1584.55 -2.69712 1.29983 0
M  V30 16167 H 1582.09 -1.29659 0.626466 0
M  V30 16168 H 1584.04 -4.16419 -0.646024 0
M  V30 16169 H 1582.77 -3.0439 -1.18381 0
M  V30 16170 H 1581.43 -3.55733 0.885971 0
M  V30 16171 H 1581.08 -4.88354 -1.20498 0
M  V30 16172 H 1580.78 -5.8708 0.247241 0
M  V30 16173 H 1582.3 -6.06982 -0.663697 0
M  V30 16174 H 1583.71 -5.52209 1.54071 0
M  V30 16175 H 1582.11 -5.52941 2.33186 0
M  V30 16176 H 1583.18 -4.13113 2.53901 0
M  V30 16177 N 1584.52 -0.695628 -1.41417 0
M  V30 16178 C 1585.43 -0.0308378 -2.3458 0
M  V30 16179 C 1586.45 0.766 -1.56232 0
M  V30 16180 O 1587.63 0.703548 -1.88712 0
M  V30 16181 C 1584.69 0.894162 -3.34971 0
M  V30 16182 C 1583.75 0.0895231 -4.29207 0
M  V30 16183 C 1582.98 0.970467 -5.24802 0
M  V30 16184 O 1583.21 2.20997 -5.25848 0
M  V30 16185 O 1582.14 0.420114 -6.00432 0
M  V30 16186 H 1585.97 -0.798775 -2.93007 0
M  V30 16187 H 1583.55 -0.455964 -1.42272 0
M  V30 16188 H 1585.43 1.42458 -3.9659 0
M  V30 16189 H 1584.11 1.64159 -2.78987 0
M  V30 16190 H 1583.02 -0.4855 -3.70936 0
M  V30 16191 H 1584.35 -0.619241 -4.88289 0
M  V30 16192 N 1586 1.51322 -0.440383 0
M  V30 16193 C 1586.96 2.26388 0.357911 0
M  V30 16194 C 1587.96 1.2995 0.947083 0
M  V30 16195 O 1589.15 1.53637 0.821057 0
M  V30 16196 C 1586.29 3.05797 1.50669 0
M  V30 16197 H 1587.48 2.98396 -0.300002 0
M  V30 16198 H 1585.03 1.55096 -0.193628 0
M  V30 16199 H 1585.77 2.38213 2.20057 0
M  V30 16200 H 1585.55 3.76634 1.09037 0
M  V30 16201 H 1587.04 3.6265 2.07062 0
M  V30 16202 N 1587.48 0.171848 1.5666 0
M  V30 16203 C 1588.71 -0.479221 2.01274 0
M  V30 16204 C 1589.12 -1.56771 1.05206 0
M  V30 16205 O 1588.48 -1.82423 0.0530164 0
M  V30 16206 C 1588.53 -1.05705 3.457 0
M  V30 16207 O 1588.25 -0.0120133 4.38098 0
M  V30 16208 C 1589.75 -1.78629 4.05717 0
M  V30 16209 H 1586.97 -0.122598 0.659705 0
M  V30 16210 H 1589.52 0.273733 2.0266 0
M  V30 16211 H 1587.67 -1.7605 3.45087 0
M  V30 16212 H 1588.09 -0.438714 5.22662 0
M  V30 16213 H 1589.56 -2.14319 5.08696 0
M  V30 16214 H 1590.04 -2.68149 3.4784 0
M  V30 16215 H 1590.64 -1.12925 4.10034 0
M  V30 16216 N 1588.96 -1.5727 -0.101874 0
M  V30 16217 C 1589.89 -1.98253 -1.15014 0
M  V30 16218 C 1590.9 -0.884147 -1.36699 0
M  V30 16219 O 1592.09 -1.16232 -1.35471 0
M  V30 16220 C 1589.19 -2.28043 -2.50698 0
M  V30 16221 C 1588.36 -3.59343 -2.49383 0
M  V30 16222 C 1587.42 -3.77147 -3.66943 0
M  V30 16223 O 1586.45 -4.49075 -3.49744 0
M  V30 16224 N 1587.65 -3.1721 -4.86167 0
M  V30 16225 H 1590.42 -2.88787 -0.801375 0
M  V30 16226 H 1587.98 -1.59264 -0.290941 0
M  V30 16227 H 1589.97 -2.37153 -3.27934 0
M  V30 16228 H 1588.54 -1.4355 -2.77691 0
M  V30 16229 H 1587.76 -3.61264 -1.57741 0
M  V30 16230 H 1589.05 -4.45612 -2.45576 0
M  V30 16231 H 1588.45 -2.58772 -5.03044 0
M  V30 16232 H 1587 -3.31816 -5.61018 0
M  V30 16233 N 1590.44 0.372521 -1.53134 0
M  V30 16234 C 1591.71 1.13113 -1.59577 0
M  V30 16235 C 1592.09 2.07294 -0.399027 0
M  V30 16236 O 1591.44 2.20171 0.611316 0
M  V30 16237 C 1591.65 1.87635 -2.94269 0
M  V30 16238 C 1593 2.42414 -3.48598 0
M  V30 16239 O 1594.02 1.9777 -2.96252 0
M  V30 16240 O 1592.88 3.24008 -4.40092 0
M  V30 16241 H 1589.98 0.518486 -0.644284 0
M  V30 16242 H 1592.52 0.376344 -1.65474 0
M  V30 16243 H 1591.29 1.18859 -3.72811 0
M  V30 16244 H 1590.92 2.70037 -2.91831 0
M  V30 16245 N 1591.91 1.44376 0.631925 0
M  V30 16246 C 1592.85 1.45649 1.75675 0
M  V30 16247 C 1593.82 0.31542 1.59511 0
M  V30 16248 O 1595.01 0.512271 1.81406 0
M  V30 16249 C 1592.14 1.2884 3.13238 0
M  V30 16250 C 1591.18 2.46499 3.48053 0
M  V30 16251 S 1592.01 4.0903 3.45622 0
M  V30 16252 C 1593.17 3.94643 4.85807 0
M  V30 16253 H 1593.4 2.40825 1.74328 0
M  V30 16254 H 1590.94 1.31664 0.806467 0
M  V30 16255 H 1592.89 1.19829 3.92621 0
M  V30 16256 H 1591.56 0.351754 3.12124 0
M  V30 16257 H 1590.75 2.30599 4.48152 0
M  V30 16258 H 1590.35 2.52245 2.76131 0
M  V30 16259 H 1592.64 3.58283 5.75012 0
M  V30 16260 H 1593.59 4.94569 5.06761 0
M  V30 16261 H 1593.99 3.26717 4.60343 0
M  V30 16262 N 1593.39 -0.872258 1.31261 0
M  V30 16263 C 1594.62 -1.65795 1.23772 0
M  V30 16264 C 1595.03 -1.87766 -0.197351 0
M  V30 16265 O 1594.39 -1.43418 -1.1286 0
M  V30 16266 C 1594.44 -3.02722 1.9759 0
M  V30 16267 O 1594.16 -2.81734 3.35496 0
M  V30 16268 C 1595.66 -3.97165 1.96913 0
M  V30 16269 H 1592.88 -0.516959 0.427778 0
M  V30 16270 H 1595.43 -1.0889 1.73099 0
M  V30 16271 H 1593.58 -3.56322 1.5203 0
M  V30 16272 H 1594 -3.6869 3.73052 0
M  V30 16273 H 1595.47 -4.90566 2.53079 0
M  V30 16274 H 1595.95 -4.28778 0.951089 0
M  V30 16275 H 1596.55 -3.495 2.42342 0
M  V30 16276 N 1594.87 -1.14184 -1.08627 0
M  V30 16277 C 1596.28 -0.920108 -1.62453 0
M  V30 16278 C 1596.63 0.541577 -1.88577 0
M  V30 16279 O 1595.76 1.41002 -1.64157 0
M  V30 16280 C 1596.35 -1.6638 -2.95132 0
M  V30 16281 C 1594.91 -1.48771 -3.45752 0
M  V30 16282 C 1594.06 -1.68774 -2.20024 0
M  V30 16283 H 1597.01 -1.29396 -0.91882 0
M  V30 16284 H 1597.03 -1.12568 -3.63468 0
M  V30 16285 H 1596.54 -2.72759 -2.76087 0
M  V30 16286 H 1594.64 -0.44729 -3.69905 0
M  V30 16287 H 1594.76 -2.25619 -4.2265 0
M  V30 16288 H 1593.12 -1.11321 -2.29084 0
M  V30 16289 H 1593.9 -2.76491 -2.03489 0
M  V30 16290 N 1596.35 1.26749 -0.936613 0
M  V30 16291 C 1597.57 1.98597 -0.597817 0
M  V30 16292 C 1598 1.69324 0.8192 0
M  V30 16293 O 1597.36 0.938634 1.55111 0
M  V30 16294 C 1597.4 3.50656 -0.841007 0
M  V30 16295 O 1596.51 4.12304 0.0891038 0
M  V30 16296 H 1595.85 0.623197 -0.229176 0
M  V30 16297 H 1598.38 1.61332 -1.2583 0
M  V30 16298 H 1598.39 4.00857 -0.760093 0
M  V30 16299 H 1597.06 3.71293 -1.87388 0
M  V30 16300 H 1595.64 3.72876 -0.0424804 0
M  V30 16301 N 1597.83 0.703118 1.41046 0
M  V30 16302 C 1599.05 0.245088 2.05947 0
M  V30 16303 C 1599.48 -1.09988 1.52592 0
M  V30 16304 O 1598.83 -1.69015 0.656023 0
M  V30 16305 C 1598.88 0.221444 3.59919 0
M  V30 16306 O 1597.99 -0.801324 4.0454 0
M  V30 16307 H 1597.33 0.117862 0.653456 0
M  V30 16308 H 1599.86 0.960099 1.80674 0
M  V30 16309 H 1599.87 0.0548681 4.07963 0
M  V30 16310 H 1598.54 1.20301 3.98121 0
M  V30 16311 H 1597.12 -0.603489 3.67984 0
M  V30 16312 N 1599.3 -1.51086 0.448402 0
M  V30 16313 C 1600.25 -2.28015 -0.357438 0
M  V30 16314 C 1601.22 -1.32079 -1.00719 0
M  V30 16315 O 1602.41 -1.60995 -1.02398 0
M  V30 16316 C 1599.55 -3.13324 -1.44644 0
M  V30 16317 C 1598.66 -4.24267 -0.813729 0
M  V30 16318 C 1597.79 -4.96868 -1.87871 0
M  V30 16319 C 1596.83 -5.99716 -1.22502 0
M  V30 16320 N 1595.97 -6.65682 -2.23185 0
M  V30 16321 H 1600.81 -2.96436 0.30493 0
M  V30 16322 H 1598.35 -1.46203 0.162222 0
M  V30 16323 H 1600.31 -3.61119 -2.08924 0
M  V30 16324 H 1598.94 -2.46996 -2.07829 0
M  V30 16325 H 1597.99 -3.80354 -0.0589414 0
M  V30 16326 H 1599.3 -4.97917 -0.296587 0
M  V30 16327 H 1598.45 -5.48266 -2.59786 0
M  V30 16328 H 1597.19 -4.22873 -2.42961 0
M  V30 16329 H 1596.2 -5.476 -0.491388 0
M  V30 16330 H 1597.42 -6.75674 -0.681315 0
M  V30 16331 H 1595.37 -5.94493 -2.77334 0
M  V30 16332 H 1595.29 -7.35134 -1.76393 0
M  V30 16333 H 1596.55 -7.21707 -2.9455 0
M  V30 16334 N 1600.78 -0.180154 -1.56567 0
M  V30 16335 C 1601.75 0.732809 -2.17169 0
M  V30 16336 C 1602.75 1.15176 -1.1221 0
M  V30 16337 O 1603.94 1.06728 -1.37677 0
M  V30 16338 C 1601.07 1.99857 -2.7617 0
M  V30 16339 H 1602.26 0.205088 -2.99198 0
M  V30 16340 H 1599.81 0.0694351 -1.56146 0
M  V30 16341 H 1600.55 2.56917 -1.97899 0
M  V30 16342 H 1600.33 1.70705 -3.5299 0
M  V30 16343 H 1601.82 2.64992 -3.22752 0
M  V30 16344 N 1602.26 1.57322 0.0935319 0
M  V30 16345 C 1603.67 1.75099 0.64787 0
M  V30 16346 C 1604.02 0.802558 1.79035 0
M  V30 16347 O 1603.15 -0.0185803 2.16392 0
M  V30 16348 C 1603.74 3.17512 1.18203 0
M  V30 16349 C 1602.3 3.36707 1.68242 0
M  V30 16350 C 1601.45 2.70893 0.592649 0
M  V30 16351 H 1604.4 1.58146 -0.132546 0
M  V30 16352 H 1604.42 3.2047 2.05132 0
M  V30 16353 H 1603.93 3.86516 0.350297 0
M  V30 16354 H 1602.03 2.72784 2.5381 0
M  V30 16355 H 1602.15 4.45033 1.77433 0
M  V30 16356 H 1600.51 2.32835 1.03248 0
M  V30 16357 H 1601.29 3.42539 -0.228529 0
M  V30 16358 N 1603.74 -0.364395 1.53329 0
M  V30 16359 C 1604.67 -1.46658 1.76137 0
M  V30 16360 C 1605.68 -1.496 0.642166 0
M  V30 16361 O 1606.87 -1.53058 0.918452 0
M  V30 16362 C 1603.97 -2.85417 1.8273 0
M  V30 16363 C 1603.15 -3.06158 3.12388 0
M  V30 16364 C 1602.2 -4.25038 3.10208 0
M  V30 16365 O 1601.23 -4.20156 3.84002 0
M  V30 16366 N 1602.43 -5.32511 2.31111 0
M  V30 16367 H 1605.2 -1.27471 2.7124 0
M  V30 16368 H 1602.76 -0.554127 1.52122 0
M  V30 16369 H 1604.75 -3.63086 1.78748 0
M  V30 16370 H 1603.32 -2.97845 0.949058 0
M  V30 16371 H 1602.54 -2.16139 3.29663 0
M  V30 16372 H 1603.83 -3.16885 3.98072 0
M  V30 16373 H 1603.23 -5.39341 1.70669 0
M  V30 16374 H 1601.78 -6.08752 2.32946 0
M  V30 16375 N 1605.22 -1.44709 -0.62426 0
M  V30 16376 C 1606.13 -1.54608 -1.76447 0
M  V30 16377 C 1607.14 -0.43137 -1.68568 0
M  V30 16378 O 1608.32 -0.6897 -1.89222 0
M  V30 16379 C 1605.38 -1.49404 -3.12857 0
M  V30 16380 C 1604.44 -2.71782 -3.32315 0
M  V30 16381 C 1603.68 -2.66817 -4.62217 0
M  V30 16382 O 1603.9 -1.73205 -5.43467 0
M  V30 16383 O 1602.83 -3.57773 -4.84027 0
M  V30 16384 H 1606.66 -2.50951 -1.71048 0
M  V30 16385 H 1604.25 -1.27033 -0.786326 0
M  V30 16386 H 1606.13 -1.4905 -3.9416 0
M  V30 16387 H 1604.8 -0.562078 -3.18783 0
M  V30 16388 H 1603.71 -2.77702 -2.50664 0
M  V30 16389 H 1605.04 -3.64048 -3.31255 0
M  V30 16390 N 1606.69 0.865285 -1.31722 0
M  V30 16391 C 1607.66 1.95449 -1.19718 0
M  V30 16392 C 1608.66 1.60329 -0.123025 0
M  V30 16393 O 1609.85 1.70168 -0.372643 0
M  V30 16394 C 1606.98 3.30421 -0.838718 0
M  V30 16395 H 1608.17 2.07522 -2.16506 0
M  V30 16396 H 1605.73 1.05416 -1.154 0
M  V30 16397 H 1606.46 3.24048 0.127797 0
M  V30 16398 H 1606.25 3.57286 -1.61522 0
M  V30 16399 H 1607.74 4.10274 -0.77876 0
M  V30 16400 N 1608.17 1.14759 1.0802 0
M  V30 16401 C 1609.45 0.828957 1.77166 0
M  V30 16402 C 1609.83 -0.676783 1.99957 0
M  V30 16403 O 1609.18 -1.61891 1.61256 0
M  V30 16404 C 1609.39 1.63213 3.08484 0
M  V30 16405 C 1610.74 1.834 3.82948 0
M  V30 16406 O 1611.76 1.59932 3.18277 0
M  V30 16407 O 1610.62 2.22661 4.99083 0
M  V30 16408 H 1607.71 0.304168 0.769032 0
M  V30 16409 H 1610.26 1.253 1.14446 0
M  V30 16410 H 1609.03 2.65474 2.8747 0
M  V30 16411 H 1608.65 1.20397 3.78933 0
M  V30 16412 N 1609.65 -1.26251 0.943322 0
M  V30 16413 C 1610.61 -2.24554 0.459158 0
M  V30 16414 C 1611.61 -1.54918 -0.430926 0
M  V30 16415 O 1612.8 -1.72678 -0.229803 0
M  V30 16416 C 1609.94 -3.39221 -0.337973 0
M  V30 16417 H 1611.13 -2.689 1.32789 0
M  V30 16418 H 1608.68 -1.38442 0.725495 0
M  V30 16419 H 1609.42 -3.00279 -1.22486 0
M  V30 16420 H 1609.2 -3.90947 0.300428 0
M  V30 16421 H 1610.69 -4.12246 -0.666568 0
M  V30 16422 N 1611.13 -0.710588 -1.40671 0
M  V30 16423 C 1612.38 -0.247949 -2.00976 0
M  V30 16424 C 1612.7 1.15725 -1.56327 0
M  V30 16425 O 1611.96 1.79826 -0.77208 0
M  V30 16426 C 1612.26 -0.270478 -3.56375 0
M  V30 16427 C 1611.92 -1.62528 -4.2059 0
M  V30 16428 C 1610.59 -1.99614 -4.37844 0
M  V30 16429 C 1612.94 -2.51591 -4.56455 0
M  V30 16430 C 1610.27 -3.2532 -4.88246 0
M  V30 16431 C 1612.62 -3.76644 -5.08254 0
M  V30 16432 C 1611.28 -4.13855 -5.23718 0
M  V30 16433 H 1610.55 -0.0907308 -0.735424 0
M  V30 16434 H 1613.2 -0.912636 -1.68354 0
M  V30 16435 H 1611.5 0.477777 -3.88876 0
M  V30 16436 H 1613.2 0.105243 -4.00862 0
M  V30 16437 H 1609.79 -1.32686 -4.07544 0
M  V30 16438 H 1613.98 -2.24215 -4.42766 0
M  V30 16439 H 1609.23 -3.54125 -4.98403 0
M  V30 16440 H 1613.41 -4.45832 -5.34983 0
M  V30 16441 H 1611.03 -5.1133 -5.62535 0
M  V30 16442 N 1612.61 1.50847 -0.456408 0
M  V30 16443 C 1613.54 2.24825 0.391003 0
M  V30 16444 C 1614.52 1.27531 1.00869 0
M  V30 16445 O 1615.7 1.56717 1.04747 0
M  V30 16446 C 1612.83 3.01329 1.54657 0
M  V30 16447 C 1611.88 4.13431 1.0477 0
M  V30 16448 S 1612.71 5.35494 -0.0257471 0
M  V30 16449 C 1613.86 6.15541 1.13404 0
M  V30 16450 H 1614.1 2.96354 -0.237018 0
M  V30 16451 H 1611.63 1.52506 -0.241121 0
M  V30 16452 H 1613.59 3.46 2.20894 0
M  V30 16453 H 1612.25 2.29354 2.14606 0
M  V30 16454 H 1611.44 4.66309 1.91238 0
M  V30 16455 H 1611.04 3.71119 0.463285 0
M  V30 16456 H 1613.34 6.45784 2.04865 0
M  V30 16457 H 1614.28 7.05158 0.644835 0
M  V30 16458 H 1614.69 5.47341 1.38123 0
M  V30 16459 N 1614.09 0.188454 1.56469 0
M  V30 16460 C 1615.33 -0.451165 1.97 0
M  V30 16461 C 1615.65 -1.6261 1.07624 0
M  V30 16462 O 1614.92 -1.95354 0.146125 0
M  V30 16463 H 1613.5 -0.16967 0.727476 0
M  V30 16464 H 1616.17 0.273638 1.9297 0
M  V30 16465 H 1615.26 -0.799741 3.0168 0
M  V30 16466 N 1615.56 -1.5737 -0.0851874 0
M  V30 16467 C 1616.81 -1.86864 -0.78802 0
M  V30 16468 C 1617.14 -0.778936 -1.77894 0
M  V30 16469 O 1616.42 0.212132 -1.9334 0
M  V30 16470 C 1616.7 -3.27006 -1.50795 0
M  V30 16471 C 1616.55 -4.46615 -0.534354 0
M  V30 16472 C 1617.87 -3.65187 -2.45614 0
M  V30 16473 H 1614.99 -0.679657 -0.285017 0
M  V30 16474 H 1617.63 -1.8993 -0.0514443 0
M  V30 16475 H 1615.78 -3.24522 -2.13583 0
M  V30 16476 H 1617.46 -4.61217 0.0872761 0
M  V30 16477 H 1615.7 -4.33536 0.151455 0
M  V30 16478 H 1616.37 -5.41423 -1.07544 0
M  V30 16479 H 1618.85 -3.68678 -1.92913 0
M  V30 16480 H 1617.72 -4.64158 -2.92999 0
M  V30 16481 H 1617.98 -2.944 -3.2982 0
M  V30 16482 N 1617.04 0.356258 -1.53521 0
M  V30 16483 C 1617.95 1.46055 -1.83589 0
M  V30 16484 C 1618.97 1.58176 -0.724997 0
M  V30 16485 O 1620.14 1.73894 -1.01601 0
M  V30 16486 C 1617.21 2.81207 -2.0279 0
M  V30 16487 C 1616.27 2.78535 -3.26675 0
M  V30 16488 C 1615.5 4.07241 -3.4495 0
M  V30 16489 O 1615.73 5.03879 -2.67324 0
M  V30 16490 O 1614.66 4.12485 -4.38337 0
M  V30 16491 H 1618.49 1.23566 -2.77426 0
M  V30 16492 H 1616.07 0.547243 -1.39017 0
M  V30 16493 H 1617.95 3.61271 -2.16936 0
M  V30 16494 H 1616.63 3.03654 -1.12143 0
M  V30 16495 H 1615.53 1.97137 -3.17943 0
M  V30 16496 H 1616.87 2.61042 -4.17274 0
M  V30 16497 N 1618.52 1.45038 0.616577 0
M  V30 16498 C 1619.74 1.52321 1.40759 0
M  V30 16499 C 1620.17 0.15375 1.87471 0
M  V30 16500 O 1619.53 -0.859908 1.5961 0
M  V30 16501 C 1619.58 2.50464 2.59423 0
M  V30 16502 O 1618.68 2.01623 3.59753 0
M  V30 16503 H 1618.02 0.513808 0.420592 0
M  V30 16504 H 1620.55 1.90309 0.751234 0
M  V30 16505 H 1620.56 2.68977 3.06783 0
M  V30 16506 H 1619.24 3.4993 2.24771 0
M  V30 16507 H 1617.81 1.92945 3.19103 0
M  V30 16508 N 1620 -0.858287 1.32179 0
M  V30 16509 C 1621.25 -1.60902 1.2229 0
M  V30 16510 C 1621.57 -1.93797 -0.216227 0
M  V30 16511 O 1620.84 -1.59312 -1.14002 0
M  V30 16512 H 1619.42 -0.596529 0.449624 0
M  V30 16513 H 1622.08 -1.02686 1.65655 0
M  V30 16514 H 1621.17 -2.54755 1.80295 0
M  V30 16515 N 1621.48 -1.1533 -1.07409 0
M  V30 16516 C 1622.43 -0.81798 -2.12822 0
M  V30 16517 C 1623.41 0.1975 -1.59683 0
M  V30 16518 O 1624.6 -0.00166798 -1.77 0
M  V30 16519 C 1621.73 -0.308356 -3.41912 0
M  V30 16520 C 1620.82 -1.35396 -4.01906 0
M  V30 16521 N 1621.21 -2.5611 -4.36167 0
M  V30 16522 C 1619.51 -1.20656 -4.29369 0
M  V30 16523 C 1620.21 -3.23124 -4.837 0
M  V30 16524 N 1619.18 -2.50513 -4.82436 0
M  V30 16525 H 1622.98 -1.73611 -2.37143 0
M  V30 16526 H 1620.5 -1.03867 -1.24842 0
M  V30 16527 H 1622.5 -0.0497865 -4.1687 0
M  V30 16528 H 1621.16 0.60384 -3.19036 0
M  V30 16529 H 1622.17 -2.93258 -4.26873 0
M  V30 16530 H 1618.84 -0.354208 -4.15995 0
M  V30 16531 H 1620.23 -4.26103 -5.19505 0
M  V30 16532 N 1622.95 1.25748 -0.950004 0
M  V30 16533 C 1623.89 2.24472 -0.410787 0
M  V30 16534 C 1624.86 1.54549 0.505309 0
M  V30 16535 O 1626.05 1.83275 0.440744 0
M  V30 16536 C 1623.18 3.36224 0.408832 0
M  V30 16537 C 1622.22 4.24151 -0.446997 0
M  V30 16538 S 1623.05 5.01549 -1.87639 0
M  V30 16539 C 1624.21 6.16771 -1.06507 0
M  V30 16540 H 1624.44 2.69863 -1.24745 0
M  V30 16541 H 1621.98 1.34752 -0.753744 0
M  V30 16542 H 1623.93 4.01049 0.875796 0
M  V30 16543 H 1622.6 2.89427 1.22027 0
M  V30 16544 H 1621.79 5.03673 0.181407 0
M  V30 16545 H 1621.39 3.64236 -0.848989 0
M  V30 16546 H 1623.68 6.76783 -0.311531 0
M  V30 16547 H 1624.63 6.83936 -1.83406 0
M  V30 16548 H 1625.03 5.61332 -0.597243 0
M  V30 16549 N 1624.43 0.718038 1.40292 0
M  V30 16550 C 1625.38 0.0670495 2.30703 0
M  V30 16551 C 1626.35 -0.747716 1.48319 0
M  V30 16552 O 1627.53 -0.711161 1.77051 0
M  V30 16553 C 1624.67 -0.846918 3.34546 0
M  V30 16554 C 1623.79 -0.0213622 4.31995 0
M  V30 16555 C 1622.92 -0.935035 5.22906 0
M  V30 16556 C 1621.96 -0.103715 6.12012 0
M  V30 16557 N 1621.1 -0.972397 6.95334 0
M  V30 16558 H 1625.94 0.843724 2.85806 0
M  V30 16559 H 1623.47 0.427756 1.40743 0
M  V30 16560 H 1625.43 -1.39109 3.93325 0
M  V30 16561 H 1624.06 -1.58975 2.80939 0
M  V30 16562 H 1623.11 0.640026 3.74977 0
M  V30 16563 H 1624.43 0.62215 4.94905 0
M  V30 16564 H 1623.58 -1.54766 5.86628 0
M  V30 16565 H 1622.32 -1.61236 4.60276 0
M  V30 16566 H 1621.32 0.521826 5.47318 0
M  V30 16567 H 1622.55 0.570146 6.76702 0
M  V30 16568 H 1620.5 -1.63533 6.3529 0
M  V30 16569 H 1620.41 -0.384977 7.55019 0
M  V30 16570 H 1621.68 -1.57112 7.63503 0
M  V30 16571 N 1625.91 -1.50602 0.464402 0
M  V30 16572 C 1626.82 -2.32142 -0.338721 0
M  V30 16573 C 1627.84 -1.4223 -1.00233 0
M  V30 16574 O 1629.01 -1.75288 -0.99177 0
M  V30 16575 C 1626.08 -3.16725 -1.41019 0
M  V30 16576 C 1625.14 -4.22449 -0.76388 0
M  V30 16577 C 1624.37 -5.0299 -1.78429 0
M  V30 16578 O 1624.59 -4.84516 -3.00999 0
M  V30 16579 O 1623.53 -5.86338 -1.35982 0
M  V30 16580 H 1627.35 -3.01927 0.327695 0
M  V30 16581 H 1624.94 -1.47675 0.226379 0
M  V30 16582 H 1626.82 -3.69228 -2.03097 0
M  V30 16583 H 1625.5 -2.49675 -2.06019 0
M  V30 16584 H 1624.4 -3.73955 -0.104318 0
M  V30 16585 H 1625.74 -4.9195 -0.156929 0
M  V30 16586 N 1627.39 -0.19675 -1.56367 0
M  V30 16587 C 1628.64 0.440711 -1.97236 0
M  V30 16588 C 1628.96 1.62037 -1.08485 0
M  V30 16589 O 1628.23 1.95274 -0.156483 0
M  V30 16590 H 1626.81 0.16581 -0.728365 0
M  V30 16591 H 1629.47 -0.283867 -1.92822 0
M  V30 16592 H 1628.57 0.783731 -3.02099 0
M  V30 16593 N 1628.87 1.57413 0.0768405 0
M  V30 16594 C 1630.09 1.91224 0.790007 0
M  V30 16595 C 1630.51 0.792232 1.71374 0
M  V30 16596 O 1629.87 -0.234736 1.80984 0
M  V30 16597 C 1629.92 3.24757 1.58793 0
M  V30 16598 O 1629.64 4.3245 0.701329 0
M  V30 16599 C 1631.14 3.72549 2.40254 0
M  V30 16600 H 1628.36 0.63219 0.224893 0
M  V30 16601 H 1630.9 2.04442 0.0486173 0
M  V30 16602 H 1629.06 3.13081 2.28165 0
M  V30 16603 H 1629.47 5.09245 1.2558 0
M  V30 16604 H 1630.95 4.68628 2.91705 0
M  V30 16605 H 1631.42 3.01305 3.1955 0
M  V30 16606 H 1632.03 3.87153 1.76048 0
M  V30 16607 N 1630.34 -0.348112 1.53707 0
M  V30 16608 C 1631.29 -1.42729 1.81375 0
M  V30 16609 C 1632.26 -1.52461 0.659159 0
M  V30 16610 O 1633.45 -1.68072 0.903129 0
M  V30 16611 C 1630.59 -2.79443 2.02498 0
M  V30 16612 C 1629.7 -2.7854 3.30211 0
M  V30 16613 C 1628.83 -4.06942 3.41426 0
M  V30 16614 C 1627.87 -4.00248 4.63106 0
M  V30 16615 N 1627.01 -5.20332 4.7138 0
M  V30 16616 H 1631.85 -1.18436 2.73454 0
M  V30 16617 H 1629.39 -0.573809 1.35447 0
M  V30 16618 H 1631.35 -3.58888 2.12733 0
M  V30 16619 H 1629.98 -3.02099 1.13737 0
M  V30 16620 H 1629.03 -1.91227 3.28841 0
M  V30 16621 H 1630.34 -2.69471 4.19746 0
M  V30 16622 H 1629.49 -4.94808 3.51069 0
M  V30 16623 H 1628.23 -4.18786 2.49939 0
M  V30 16624 H 1627.24 -3.10767 4.53546 0
M  V30 16625 H 1628.46 -3.89991 5.55953 0
M  V30 16626 H 1626.41 -5.32729 3.828 0
M  V30 16627 H 1626.33 -5.13502 5.54844 0
M  V30 16628 H 1627.59 -6.09982 4.85326 0
M  V30 16629 N 1631.82 -1.45363 -0.608876 0
M  V30 16630 C 1633.07 -1.49534 -1.36995 0
M  V30 16631 C 1633.4 -0.136087 -1.93723 0
M  V30 16632 O 1632.68 0.849276 -1.74979 0
M  V30 16633 C 1632.96 -2.57348 -2.51881 0
M  V30 16634 C 1632.81 -4.02712 -2.00358 0
M  V30 16635 C 1634.13 -2.61459 -3.54016 0
M  V30 16636 H 1631.25 -0.544419 -0.496767 0
M  V30 16637 H 1633.89 -1.77165 -0.686473 0
M  V30 16638 H 1632.04 -2.33917 -3.10185 0
M  V30 16639 H 1633.71 -4.37348 -1.46713 0
M  V30 16640 H 1631.96 -4.1343 -1.31369 0
M  V30 16641 H 1632.63 -4.73834 -2.8317 0
M  V30 16642 H 1635.1 -2.8245 -3.0555 0
M  V30 16643 H 1633.98 -3.38761 -4.31894 0
M  V30 16644 H 1634.24 -1.66499 -4.09549 0
M  V30 16645 N 1633.3 0.851265 -1.32632 0
M  V30 16646 C 1634.53 1.64328 -1.26535 0
M  V30 16647 C 1634.95 1.87392 0.163086 0
M  V30 16648 O 1634.31 1.42913 1.1156 0
M  V30 16649 C 1634.36 2.97781 -2.03369 0
M  V30 16650 O 1633.46 3.8849 -1.38381 0
M  V30 16651 H 1632.8 0.500864 -0.435926 0
M  V30 16652 H 1635.33 1.06 -1.75001 0
M  V30 16653 H 1635.34 3.47576 -2.1367 0
M  V30 16654 H 1634.02 2.80316 -3.07239 0
M  V30 16655 H 1632.59 3.4696 -1.36649 0
M  V30 16656 N 1634.78 1.15898 1.06796 0
M  V30 16657 C 1635.69 0.87507 2.17669 0
M  V30 16658 C 1636.7 -0.150763 1.73346 0
M  V30 16659 O 1637.88 0.0246621 2.01385 0
M  V30 16660 C 1634.95 0.374555 3.44671 0
M  V30 16661 C 1634.01 1.46498 4.0353 0
M  V30 16662 C 1633.24 0.988256 5.2447 0
M  V30 16663 O 1633.46 -0.163992 5.70164 0
M  V30 16664 O 1632.4 1.7744 5.75151 0
M  V30 16665 H 1636.22 1.80208 2.44456 0
M  V30 16666 H 1633.81 0.93854 1.1624 0
M  V30 16667 H 1635.69 0.102161 4.21276 0
M  V30 16668 H 1634.36 -0.524513 3.19422 0
M  V30 16669 H 1633.27 1.79105 3.28439 0
M  V30 16670 H 1634.6 2.33917 4.33063 0
M  V30 16671 N 1636.26 -1.25243 0.956659 0
M  V30 16672 C 1637.48 -1.97082 0.629791 0
M  V30 16673 C 1637.9 -1.71082 -0.798529 0
M  V30 16674 O 1637.26 -0.98805 -1.5344 0
M  V30 16675 C 1637.31 -3.5059 0.881406 0
M  V30 16676 O 1637.03 -3.75694 2.25356 0
M  V30 16677 C 1638.53 -4.39656 0.567203 0
M  V30 16678 H 1635.75 -0.628152 0.235938 0
M  V30 16679 H 1638.29 -1.5936 1.28159 0
M  V30 16680 H 1636.45 -3.86416 0.27599 0
M  V30 16681 H 1636.86 -4.70142 2.32523 0
M  V30 16682 H 1638.34 -5.46263 0.793785 0
M  V30 16683 H 1638.81 -4.36364 -0.498287 0
M  V30 16684 H 1639.42 -4.094 1.15203 0
M  V30 16685 N 1637.73 -0.725468 -1.3991 0
M  V30 16686 C 1638.64 -0.0805887 -2.34462 0
M  V30 16687 C 1639.66 0.732689 -1.57822 0
M  V30 16688 O 1640.84 0.663362 -1.90162 0
M  V30 16689 C 1637.9 0.822908 -3.36792 0
M  V30 16690 C 1636.96 -0.00153812 -4.293 0
M  V30 16691 C 1636.2 0.85893 -5.26743 0
M  V30 16692 O 1636.42 2.09793 -5.30418 0
M  V30 16693 O 1635.35 0.292659 -6.01188 0
M  V30 16694 H 1639.18 -0.860746 -2.91247 0
M  V30 16695 H 1636.76 -0.48604 -1.41273 0
M  V30 16696 H 1638.65 1.34014 -3.99522 0
M  V30 16697 H 1637.32 1.58204 -2.82406 0
M  V30 16698 H 1636.23 -0.564072 -3.69823 0
M  V30 16699 H 1637.56 -0.722675 -4.86866 0
M  V30 16700 N 1639.21 1.50354 -0.472382 0
M  V30 16701 C 1640.46 2.02633 0.0822846 0
M  V30 16702 C 1640.79 1.35358 1.39254 0
M  V30 16703 O 1640.07 0.479714 1.88491 0
M  V30 16704 C 1640.35 3.59126 0.264742 0
M  V30 16705 C 1640.2 4.3697 -1.06663 0
M  V30 16706 C 1641.52 4.28148 1.01869 0
M  V30 16707 H 1638.64 0.736451 0.0284304 0
M  V30 16708 H 1641.28 1.79661 -0.618224 0
M  V30 16709 H 1639.43 3.7883 0.86141 0
M  V30 16710 H 1641.1 4.28834 -1.69997 0
M  V30 16711 H 1639.35 4.0066 -1.66295 0
M  V30 16712 H 1640.02 5.44736 -0.892592 0
M  V30 16713 H 1642.49 4.12926 0.512931 0
M  V30 16714 H 1641.37 5.37453 1.11515 0
M  V30 16715 H 1641.63 3.91406 2.05557 0
M  V30 16716 N 1640.69 0.205039 1.56261 0
M  V30 16717 C 1641.64 -0.711828 2.19549 0
M  V30 16718 C 1642.61 -1.2025 1.14582 0
M  V30 16719 O 1643.79 -1.26459 1.42873 0
M  V30 16720 C 1640.93 -1.92152 2.86656 0
M  V30 16721 C 1640.05 -1.47129 4.06174 0
M  V30 16722 C 1639.18 -2.63726 4.6111 0
M  V30 16723 C 1638.22 -2.15357 5.72964 0
M  V30 16724 N 1637.36 -3.25167 6.22263 0
M  V30 16725 H 1642.2 -0.165392 2.97541 0
M  V30 16726 H 1639.73 -0.0698889 1.46934 0
M  V30 16727 H 1641.69 -2.63152 3.23739 0
M  V30 16728 H 1640.32 -2.4411 2.11211 0
M  V30 16729 H 1639.37 -0.656797 3.74687 0
M  V30 16730 H 1640.69 -1.0765 4.87045 0
M  V30 16731 H 1639.84 -3.42833 5.0055 0
M  V30 16732 H 1638.58 -3.06484 3.79367 0
M  V30 16733 H 1637.58 -1.34706 5.33043 0
M  V30 16734 H 1638.81 -1.73618 6.56532 0
M  V30 16735 H 1636.76 -3.67438 5.43439 0
M  V30 16736 H 1636.67 -2.89888 6.98213 0
M  V30 16737 H 1637.94 -4.0446 6.66358 0
M  V30 16738 N 1642.17 -1.57451 -0.0684915 0
M  V30 16739 C 1643.08 -2.07274 -1.09885 0
M  V30 16740 C 1644.1 -1.00295 -1.42186 0
M  V30 16741 O 1645.27 -1.31786 -1.52297 0
M  V30 16742 C 1642.34 -2.50949 -2.39219 0
M  V30 16743 C 1641.4 -3.7224 -2.13859 0
M  V30 16744 C 1640.63 -4.13823 -3.37026 0
M  V30 16745 O 1640.85 -3.55248 -4.46268 0
M  V30 16746 O 1639.79 -5.06587 -3.25044 0
M  V30 16747 H 1643.61 -2.9539 -0.705587 0
M  V30 16748 H 1641.2 -1.46698 -0.282849 0
M  V30 16749 H 1643.08 -2.79547 -3.15327 0
M  V30 16750 H 1641.76 -1.6596 -2.77919 0
M  V30 16751 H 1640.66 -3.4872 -1.35445 0
M  V30 16752 H 1642 -4.58091 -1.80038 0
M  V30 16753 N 1643.65 0.339955 -1.5389 0
M  V30 16754 C 1644.59 1.41765 -1.8213 0
M  V30 16755 C 1645.56 1.52109 -0.667235 0
M  V30 16756 O 1646.75 1.67591 -0.91203 0
M  V30 16757 C 1643.89 2.78366 -2.03977 0
M  V30 16758 C 1643 2.76785 -3.31684 0
M  V30 16759 C 1642.14 4.05125 -3.4358 0
M  V30 16760 C 1641.18 3.97787 -4.65223 0
M  V30 16761 N 1640.31 5.17825 -4.74133 0
M  V30 16762 H 1645.15 1.16984 -2.74078 0
M  V30 16763 H 1642.69 0.566618 -1.35749 0
M  V30 16764 H 1644.65 3.57755 -2.14633 0
M  V30 16765 H 1643.28 3.01491 -1.15338 0
M  V30 16766 H 1642.33 1.89481 -3.2985 0
M  V30 16767 H 1643.64 2.67241 -4.2117 0
M  V30 16768 H 1642.8 4.9294 -3.53688 0
M  V30 16769 H 1641.54 4.17455 -2.52157 0
M  V30 16770 H 1640.54 3.08357 -4.55188 0
M  V30 16771 H 1641.77 3.87037 -5.58014 0
M  V30 16772 H 1639.71 5.30691 -3.8562 0
M  V30 16773 H 1639.63 5.10552 -5.5756 0
M  V30 16774 H 1640.9 6.074 -4.88554 0
M  V30 16775 N 1645.13 1.45684 0.601159 0
M  V30 16776 C 1646.37 1.50258 1.362 0
M  V30 16777 C 1646.7 0.146358 1.93648 0
M  V30 16778 O 1645.98 -0.839985 1.75427 0
M  V30 16779 C 1646.26 2.5868 2.50513 0
M  V30 16780 C 1646.12 4.03769 1.98219 0
M  V30 16781 C 1647.43 2.63332 3.52624 0
M  V30 16782 H 1644.55 0.547045 0.493873 0
M  V30 16783 H 1647.2 1.77527 0.677068 0
M  V30 16784 H 1645.35 2.35559 3.08941 0
M  V30 16785 H 1647.02 4.3812 1.44391 0
M  V30 16786 H 1645.26 4.14121 1.29174 0
M  V30 16787 H 1645.93 4.75329 2.80653 0
M  V30 16788 H 1648.41 2.84067 3.04048 0
M  V30 16789 H 1647.28 3.41047 4.30091 0
M  V30 16790 H 1647.54 1.68668 4.0866 0
M  V30 16791 N 1646.6 -0.84422 1.33082 0
M  V30 16792 C 1647.57 -1.93519 1.22813 0
M  V30 16793 C 1648.57 -1.60113 0.148516 0
M  V30 16794 O 1649.76 -1.69553 0.399668 0
M  V30 16795 C 1646.89 -3.29045 0.891179 0
M  V30 16796 H 1648.08 -2.04051 2.1978 0
M  V30 16797 H 1645.63 -1.03567 1.17063 0
M  V30 16798 H 1646.37 -3.2421 -0.0762276 0
M  V30 16799 H 1646.15 -3.54671 1.67186 0
M  V30 16800 H 1647.64 -4.08984 0.843932 0
M  V30 16801 N 1648.08 -1.16463 -1.0618 0
M  V30 16802 C 1649.03 -0.87224 -2.13683 0
M  V30 16803 C 1650 0.179784 -1.65124 0
M  V30 16804 O 1651.18 0.0447406 -1.90748 0
M  V30 16805 C 1648.32 -0.380728 -3.42993 0
M  V30 16806 C 1647.44 -1.49571 -4.05281 0
M  V30 16807 C 1646.57 -0.959099 -5.2247 0
M  V30 16808 C 1645.61 -2.05021 -5.76743 0
M  V30 16809 N 1644.75 -1.5291 -6.85247 0
M  V30 16810 H 1649.59 -1.79288 -2.38033 0
M  V30 16811 H 1647.12 -0.894379 -1.16787 0
M  V30 16812 H 1649.08 -0.0773816 -4.17128 0
M  V30 16813 H 1647.71 0.502966 -3.18857 0
M  V30 16814 H 1646.76 -1.915 -3.28682 0
M  V30 16815 H 1648.08 -2.31904 -4.41613 0
M  V30 16816 H 1647.23 -0.609003 -6.03636 0
M  V30 16817 H 1645.97 -0.105086 -4.87587 0
M  V30 16818 H 1644.97 -2.40899 -4.94214 0
M  V30 16819 H 1646.2 -2.90821 -6.13678 0
M  V30 16820 H 1644.15 -0.697639 -6.5228 0
M  V30 16821 H 1644.06 -2.28859 -7.20527 0
M  V30 16822 H 1645.33 -1.20762 -7.70089 0
M  V30 16823 N 1649.56 1.24734 -0.963288 0
M  V30 16824 C 1650.97 1.7456 -0.662246 0
M  V30 16825 C 1651.32 1.78143 0.822169 0
M  V30 16826 O 1650.45 1.40794 1.64335 0
M  V30 16827 C 1651.04 3.1701 -1.19542 0
M  V30 16828 C 1649.6 3.64361 -0.944371 0
M  V30 16829 C 1648.75 2.4314 -1.33335 0
M  V30 16830 H 1651.7 1.10498 -1.13911 0
M  V30 16831 H 1651.72 3.76362 -0.559601 0
M  V30 16832 H 1651.23 3.1437 -2.27581 0
M  V30 16833 H 1649.33 3.72405 0.120682 0
M  V30 16834 H 1649.45 4.52055 -1.58692 0
M  V30 16835 H 1647.81 2.43354 -0.751729 0
M  V30 16836 H 1648.59 2.43185 -2.42314 0
M  V30 16837 N 1651.04 0.732878 1.39523 0
M  V30 16838 C 1652.31 0.20629 1.94509 0
M  V30 16839 C 1652.69 -1.29152 1.66982 0
M  V30 16840 O 1652.04 -2.05607 0.996895 0
M  V30 16841 C 1652.25 0.537619 3.44834 0
M  V30 16842 C 1653.6 0.485787 4.21812 0
M  V30 16843 O 1654.62 0.474686 3.53023 0
M  V30 16844 O 1653.48 0.478457 5.44402 0
M  V30 16845 H 1650.58 0.0369228 0.826175 0
M  V30 16846 H 1653.12 0.811591 1.49035 0
M  V30 16847 H 1651.9 1.57289 3.58296 0
M  V30 16848 H 1651.52 -0.0967601 3.97482 0
M  V30 16849 N 1652.52 -1.50101 0.480349 0
M  V30 16850 C 1653.45 -2.31581 -0.298718 0
M  V30 16851 C 1654.43 -1.38905 -0.981798 0
M  V30 16852 O 1655.61 -1.67823 -0.977188 0
M  V30 16853 C 1652.74 -3.18891 -1.37571 0
M  V30 16854 C 1651.7 -4.20194 -0.813704 0
M  V30 16855 C 1651.02 -4.96302 -1.98968 0
M  V30 16856 C 1652.32 -5.21985 0.181295 0
M  V30 16857 H 1654.02 -2.96961 0.381349 0
M  V30 16858 H 1651.56 -1.42809 0.184842 0
M  V30 16859 H 1653.51 -3.74694 -1.92828 0
M  V30 16860 H 1652.24 -2.51414 -2.08467 0
M  V30 16861 H 1650.9 -3.65506 -0.283034 0
M  V30 16862 H 1650.55 -4.2529 -2.68584 0
M  V30 16863 H 1650.25 -5.64833 -1.61981 0
M  V30 16864 H 1651.77 -5.54943 -2.54698 0
M  V30 16865 H 1653.18 -5.72604 -0.28242 0
M  V30 16866 H 1651.58 -5.98289 0.465916 0
M  V30 16867 H 1652.65 -4.72162 1.10413 0
M  V30 16868 N 1653.99 -0.213323 -1.5615 0
M  V30 16869 C 1655.24 0.421221 -1.98377 0
M  V30 16870 C 1655.57 1.59998 -1.10065 0
M  V30 16871 O 1654.85 1.93869 -0.15654 0
M  V30 16872 C 1655.13 0.86375 -3.49587 0
M  V30 16873 C 1654.98 -0.318077 -4.48674 0
M  V30 16874 C 1656.3 1.72285 -4.04976 0
M  V30 16875 H 1653.42 0.151635 -0.721232 0
M  V30 16876 H 1656.06 -0.307907 -1.87488 0
M  V30 16877 H 1654.21 1.48503 -3.58998 0
M  V30 16878 H 1655.89 -0.956094 -4.51283 0
M  V30 16879 H 1654.13 -0.966881 -4.22888 0
M  V30 16880 H 1654.8 0.0343662 -5.51989 0
M  V30 16881 H 1657.28 1.19872 -3.98459 0
M  V30 16882 H 1656.15 2.0014 -5.11112 0
M  V30 16883 H 1656.41 2.68336 -3.51352 0
M  V30 16884 N 1655.47 1.57485 0.0601405 0
M  V30 16885 C 1656.42 2.00939 1.07739 0
M  V30 16886 C 1657.41 0.893348 1.33821 0
M  V30 16887 O 1658.6 1.15727 1.33927 0
M  V30 16888 C 1655.73 2.46657 2.38778 0
M  V30 16889 C 1654.81 3.65019 2.1592 0
M  V30 16890 N 1655.2 4.78807 1.63025 0
M  V30 16891 C 1653.5 3.71794 2.46344 0
M  V30 16892 C 1654.2 5.60599 1.55253 0
M  V30 16893 N 1653.18 5.04788 2.01718 0
M  V30 16894 H 1656.98 2.86349 0.661923 0
M  V30 16895 H 1654.5 1.6019 0.267017 0
M  V30 16896 H 1656.49 2.76032 3.12429 0
M  V30 16897 H 1655.15 1.62639 2.81031 0
M  V30 16898 H 1656.16 5.00868 1.31725 0
M  V30 16899 H 1652.84 2.98513 2.91884 0
M  V30 16900 H 1654.23 6.61966 1.1511 0
M  V30 16901 N 1656.95 -0.331789 1.54068 0
M  V30 16902 C 1657.88 -1.42889 1.79208 0
M  V30 16903 C 1658.9 -1.48204 0.673754 0
M  V30 16904 O 1660.08 -1.51075 0.950712 0
M  V30 16905 C 1657.18 -2.81477 1.88743 0
M  V30 16906 C 1656.36 -2.99463 3.18812 0
M  V30 16907 C 1655.42 -4.18363 3.19154 0
M  V30 16908 O 1654.44 -4.11916 3.92828 0
M  V30 16909 N 1655.64 -5.27489 2.42354 0
M  V30 16910 H 1658.41 -1.21689 2.73883 0
M  V30 16911 H 1655.97 -0.521735 1.53263 0
M  V30 16912 H 1657.96 -3.59213 1.86409 0
M  V30 16913 H 1656.53 -2.95765 1.01202 0
M  V30 16914 H 1655.75 -2.09097 3.34174 0
M  V30 16915 H 1657.04 -3.0837 4.04704 0
M  V30 16916 H 1656.44 -5.35599 1.82071 0
M  V30 16917 H 1655 -6.03674 2.45806 0
M  V30 16918 N 1658.43 -1.46001 -0.593424 0
M  V30 16919 C 1659.34 -1.58316 -1.73128 0
M  V30 16920 C 1660.35 -0.467029 -1.67615 0
M  V30 16921 O 1661.53 -0.729682 -1.87717 0
M  V30 16922 C 1658.6 -1.56007 -3.09617 0
M  V30 16923 C 1657.66 -2.78769 -3.26475 0
M  V30 16924 C 1656.89 -2.76561 -4.56453 0
M  V30 16925 O 1657.11 -1.84694 -5.39671 0
M  V30 16926 O 1656.05 -3.67959 -4.76329 0
M  V30 16927 H 1659.87 -2.54522 -1.65686 0
M  V30 16928 H 1657.46 -1.28672 -0.759204 0
M  V30 16929 H 1659.34 -1.57377 -3.9091 0
M  V30 16930 H 1658.01 -0.629571 -3.17519 0
M  V30 16931 H 1656.92 -2.82956 -2.44717 0
M  V30 16932 H 1658.25 -3.70992 -3.23459 0
M  V30 16933 N 1659.91 0.83715 -1.33527 0
M  V30 16934 C 1660.87 1.92865 -1.23837 0
M  V30 16935 C 1661.87 1.60032 -0.157005 0
M  V30 16936 O 1663.06 1.69339 -0.408654 0
M  V30 16937 C 1660.19 3.28568 -0.908617 0
M  V30 16938 H 1661.38 2.02883 -2.20859 0
M  V30 16939 H 1658.94 1.02944 -1.1761 0
M  V30 16940 H 1659.67 3.24246 0.0590328 0
M  V30 16941 H 1659.46 3.53779 -1.69064 0
M  V30 16942 H 1660.95 4.0853 -0.86561 0
M  V30 16943 N 1661.38 1.17024 1.05561 0
M  V30 16944 C 1662.63 0.957742 1.7876 0
M  V30 16945 C 1662.96 -0.512652 1.87311 0
M  V30 16946 O 1662.24 -1.38047 1.37016 0
M  V30 16947 C 1662.52 1.59495 3.22852 0
M  V30 16948 C 1662.37 3.13719 3.22336 0
M  V30 16949 C 1663.69 1.29576 4.20593 0
M  V30 16950 H 1660.81 0.349354 0.648938 0
M  V30 16951 H 1663.45 1.44467 1.23408 0
M  V30 16952 H 1661.6 1.18091 3.70117 0
M  V30 16953 H 1663.28 3.64156 2.83175 0
M  V30 16954 H 1661.52 3.46664 2.60781 0
M  V30 16955 H 1662.19 3.5343 4.24018 0
M  V30 16956 H 1664.67 1.65423 3.81804 0
M  V30 16957 H 1663.54 1.76751 5.19663 0
M  V30 16958 H 1663.8 0.21589 4.41573 0
M  V30 16959 N 1662.86 -1.24221 0.969889 0
M  V30 16960 C 1664.14 -1.87715 0.549772 0
M  V30 16961 C 1664.52 -1.87333 -0.973114 0
M  V30 16962 O 1663.87 -1.3475 -1.84539 0
M  V30 16963 C 1664.08 -3.29724 1.14381 0
M  V30 16964 C 1665.43 -4.06393 1.23005 0
M  V30 16965 O 1666.45 -3.38904 1.09648 0
M  V30 16966 O 1665.31 -5.27149 1.4414 0
M  V30 16967 H 1662.4 -0.806356 0.183629 0
M  V30 16968 H 1664.95 -1.32177 1.0643 0
M  V30 16969 H 1663.72 -3.24513 2.18649 0
M  V30 16970 H 1663.34 -3.92839 0.613456 0
M  V30 16971 N 1664.34 -0.740267 -1.39132 0
M  V30 16972 C 1665.29 -0.103744 -2.30567 0
M  V30 16973 C 1666.26 0.724026 -1.49489 0
M  V30 16974 O 1667.44 0.682904 -1.7816 0
M  V30 16975 C 1664.58 0.793587 -3.35851 0
M  V30 16976 C 1663.7 -0.0473671 -4.31974 0
M  V30 16977 C 1662.83 0.851726 -5.24327 0
M  V30 16978 C 1661.87 0.00633633 -6.121 0
M  V30 16979 N 1661.01 0.861652 -6.96793 0
M  V30 16980 H 1665.85 -0.889087 -2.84428 0
M  V30 16981 H 1663.38 -0.450093 -1.40045 0
M  V30 16982 H 1665.34 1.32834 -3.95488 0
M  V30 16983 H 1663.97 1.54485 -2.83433 0
M  V30 16984 H 1663.02 -0.699601 -3.73911 0
M  V30 16985 H 1664.34 -0.700806 -4.93852 0
M  V30 16986 H 1663.49 1.45413 -5.89016 0
M  V30 16987 H 1662.23 1.53893 -4.62783 0
M  V30 16988 H 1661.23 -0.608833 -5.46419 0
M  V30 16989 H 1662.46 -0.677731 -6.7571 0
M  V30 16990 H 1660.4 1.53405 -6.37811 0
M  V30 16991 H 1660.32 0.264812 -7.55536 0
M  V30 16992 H 1661.59 1.44945 -7.65905 0
M  V30 16993 N 1665.82 1.49844 -0.488302 0
M  V30 16994 C 1666.73 2.32651 0.301746 0
M  V30 16995 C 1667.74 1.43807 0.979573 0
M  V30 16996 O 1668.92 1.76844 0.963758 0
M  V30 16997 C 1665.99 3.18928 1.35962 0
M  V30 16998 C 1665.05 4.23611 0.696575 0
M  V30 16999 C 1664.28 5.05765 1.70404 0
M  V30 17000 O 1664.5 4.89243 2.93253 0
M  V30 17001 O 1663.44 5.88427 1.26637 0
M  V30 17002 H 1667.26 3.01367 -0.375687 0
M  V30 17003 H 1664.85 1.47296 -0.249844 0
M  V30 17004 H 1666.73 3.72413 1.97198 0
M  V30 17005 H 1665.4 2.52921 2.02021 0
M  V30 17006 H 1664.31 3.74073 0.0448118 0
M  V30 17007 H 1665.64 4.92137 0.0786446 0
M  V30 17008 N 1667.3 0.221601 1.56034 0
M  V30 17009 C 1668.21 -0.699837 2.23918 0
M  V30 17010 C 1669.22 -1.21367 1.24683 0
M  V30 17011 O 1670.4 -1.25527 1.57495 0
M  V30 17012 C 1667.46 -1.89107 2.90585 0
M  V30 17013 C 1666.52 -1.4192 4.05163 0
M  V30 17014 C 1665.76 -2.55365 4.68641 0
M  V30 17015 O 1665.98 -3.735 4.31108 0
M  V30 17016 O 1664.91 -2.26564 5.57631 0
M  V30 17017 H 1668.74 -0.151552 3.03322 0
M  V30 17018 H 1666.33 -0.0088482 1.49397 0
M  V30 17019 H 1668.21 -2.58674 3.32664 0
M  V30 17020 H 1666.88 -2.42745 2.14141 0
M  V30 17021 H 1665.79 -0.691536 3.67653 0
M  V30 17022 H 1667.12 -0.929189 4.8335 0
M  V30 17023 N 1668.77 -1.57515 -0.0517878 0
M  V30 17024 C 1670 -1.92845 -0.763249 0
M  V30 17025 C 1670.42 -0.819745 -1.69298 0
M  V30 17026 O 1669.78 0.226161 -1.79884 0
M  V30 17027 C 1669.83 -3.27189 -1.5159 0
M  V30 17028 O 1668.93 -3.17834 -2.62783 0
M  V30 17029 H 1668.28 -0.630944 -0.206896 0
M  V30 17030 H 1670.81 -2.04595 -0.0140481 0
M  V30 17031 H 1670.82 -3.61542 -1.89081 0
M  V30 17032 H 1669.49 -4.07455 -0.833871 0
M  V30 17033 H 1668.07 -2.95075 -2.28002 0
M  V30 17034 N 1670.25 0.323614 -1.54242 0
M  V30 17035 C 1671.48 1.07954 -1.76152 0
M  V30 17036 C 1671.89 1.82194 -0.510099 0
M  V30 17037 O 1671.23 1.75923 0.528838 0
M  V30 17038 C 1671.3 2.12323 -2.90102 0
M  V30 17039 C 1670.96 1.57481 -4.29009 0
M  V30 17040 C 1671.96 1.01662 -5.09864 0
M  V30 17041 C 1669.64 1.61726 -4.75552 0
M  V30 17042 C 1671.64 0.508168 -6.35371 0
M  V30 17043 C 1669.32 1.10493 -6.01028 0
M  V30 17044 C 1670.32 0.551331 -6.80771 0
M  V30 17045 O 1670.01 0.0467053 -8.03886 0
M  V30 17046 H 1669.74 0.326941 -0.59168 0
M  V30 17047 H 1672.3 0.375423 -2.0194 0
M  V30 17048 H 1670.53 2.8635 -2.59885 0
M  V30 17049 H 1672.21 2.73636 -2.99796 0
M  V30 17050 H 1672.98 0.976899 -4.7506 0
M  V30 17051 H 1668.86 2.03755 -4.13527 0
M  V30 17052 H 1672.4 0.0754082 -6.97559 0
M  V30 17053 H 1668.3 1.14172 -6.35323 0
M  V30 17054 H 1669.07 0.162133 -8.18339 0
M  V30 17055 N 1671.73 1.46313 0.585673 0
M  V30 17056 C 1672.64 1.59232 1.72286 0
M  V30 17057 C 1673.66 0.475912 1.67365 0
M  V30 17058 O 1674.83 0.739627 1.87327 0
M  V30 17059 C 1671.9 1.57647 3.08785 0
M  V30 17060 C 1670.96 2.80497 3.24992 0
M  V30 17061 C 1670.19 2.78978 4.5498 0
M  V30 17062 O 1670.42 1.87553 5.38684 0
M  V30 17063 O 1669.35 3.7048 4.74371 0
M  V30 17064 H 1673.18 2.55398 1.64334 0
M  V30 17065 H 1670.76 1.29073 0.752369 0
M  V30 17066 H 1672.64 1.59448 3.90069 0
M  V30 17067 H 1671.32 0.6464 3.1718 0
M  V30 17068 H 1670.22 2.8425 2.43213 0
M  V30 17069 H 1671.56 3.72703 3.21487 0
M  V30 17070 N 1673.21 -0.830057 1.33969 0
M  V30 17071 C 1674.43 -1.62294 1.29133 0
M  V30 17072 C 1674.86 -1.87627 -0.133253 0
M  V30 17073 O 1674.22 -1.44669 -1.09272 0
M  V30 17074 C 1674.27 -2.94508 2.0808 0
M  V30 17075 O 1673.37 -3.86239 1.44544 0
M  V30 17076 H 1672.71 -0.493865 0.443839 0
M  V30 17077 H 1675.24 -1.03202 1.76665 0
M  V30 17078 H 1675.25 -3.44133 2.19173 0
M  V30 17079 H 1673.93 -2.75392 3.1166 0
M  V30 17080 H 1672.5 -3.44743 1.42151 0
M  V30 17081 N 1674.69 -1.17582 -1.04939 0
M  V30 17082 C 1675.91 -0.99097 -1.82194 0
M  V30 17083 C 1676.34 0.455965 -1.8249 0
M  V30 17084 O 1675.7 1.32661 -1.23575 0
M  V30 17085 C 1675.74 -1.53971 -3.26076 0
M  V30 17086 O 1674.85 -0.755172 -4.05427 0
M  V30 17087 H 1674.19 -0.351669 -0.563227 0
M  V30 17088 H 1676.72 -1.56138 -1.3222 0
M  V30 17089 H 1676.73 -1.56307 -3.76872 0
M  V30 17090 H 1675.4 -2.59295 -3.25175 0
M  V30 17091 H 1673.98 -0.803423 -3.64142 0
M  V30 17092 N 1676.17 1.23705 -0.976463 0
M  V30 17093 C 1677.41 1.91635 -0.641897 0
M  V30 17094 C 1677.73 1.7661 0.826678 0
M  V30 17095 O 1677 1.14304 1.59096 0
M  V30 17096 H 1675.58 0.709264 -0.234422 0
M  V30 17097 H 1678.25 1.50414 -1.23943 0
M  V30 17098 H 1677.34 2.99138 -0.890099 0
M  V30 17099 N 1677.64 0.747635 1.38738 0
M  V30 17100 C 1678.55 0.117879 2.34304 0
M  V30 17101 C 1679.57 -0.707488 1.58967 0
M  V30 17102 O 1680.75 -0.633025 1.91193 0
M  V30 17103 C 1677.81 -0.769223 3.38059 0
M  V30 17104 C 1676.87 0.0698358 4.29243 0
M  V30 17105 C 1676.1 -0.775021 5.28043 0
M  V30 17106 O 1676.33 -2.01328 5.33688 0
M  V30 17107 O 1675.26 -0.196978 6.01578 0
M  V30 17108 H 1679.09 0.906972 2.89841 0
M  V30 17109 H 1676.67 0.508453 1.40482 0
M  V30 17110 H 1678.55 -1.27641 4.01604 0
M  V30 17111 H 1677.23 -1.53691 2.84887 0
M  V30 17112 H 1676.14 0.622836 3.68879 0
M  V30 17113 H 1677.47 0.80004 4.85654 0
M  V30 17114 N 1679.12 -1.49583 0.496242 0
M  V30 17115 C 1680.07 -2.25966 -0.303873 0
M  V30 17116 C 1681.06 -1.30609 -0.939693 0
M  V30 17117 O 1682.25 -1.5536 -0.848079 0
M  V30 17118 C 1679.38 -3.14755 -1.37055 0
M  V30 17119 C 1678.46 -4.17573 -0.741214 0
M  V30 17120 N 1678.85 -5.05567 0.153357 0
M  V30 17121 C 1677.15 -4.34591 -1.00234 0
M  V30 17122 C 1677.85 -5.79432 0.513115 0
M  V30 17123 N 1676.83 -5.43472 -0.117819 0
M  V30 17124 H 1680.63 -2.91369 0.384854 0
M  V30 17125 H 1678.14 -1.59375 0.312007 0
M  V30 17126 H 1680.14 -3.68104 -1.95717 0
M  V30 17127 H 1678.8 -2.50903 -2.06101 0
M  V30 17128 H 1679.81 -5.15244 0.523862 0
M  V30 17129 H 1676.49 -3.81947 -1.6859 0
M  V30 17130 H 1677.88 -6.60271 1.24468 0
M  V30 17131 N 1680.6 -0.229873 -1.55915 0
M  V30 17132 C 1681.51 0.687953 -2.24286 0
M  V30 17133 C 1682.53 1.20705 -1.25325 0
M  V30 17134 O 1683.7 1.2469 -1.58159 0
M  V30 17135 C 1680.77 1.87563 -2.91584 0
M  V30 17136 C 1679.83 1.39769 -4.0591 0
M  V30 17137 C 1679.06 2.52876 -4.69989 0
M  V30 17138 O 1679.28 3.71208 -4.33083 0
M  V30 17139 O 1678.22 2.23603 -5.58825 0
M  V30 17140 H 1682.04 0.135464 -3.03398 0
M  V30 17141 H 1679.63 0.000925172 -1.494 0
M  V30 17142 H 1681.51 2.56907 -3.34031 0
M  V30 17143 H 1680.19 2.41606 -2.15426 0
M  V30 17144 H 1679.09 0.672029 -3.68014 0
M  V30 17145 H 1680.43 0.903543 -4.83836 0
M  V30 17146 N 1682.08 1.5754 0.0434337 0
M  V30 17147 C 1683.3 1.93247 0.753012 0
M  V30 17148 C 1683.73 0.828712 1.68861 0
M  V30 17149 O 1683.09 -0.216618 1.80001 0
M  V30 17150 C 1683.13 3.27989 1.49852 0
M  V30 17151 O 1682.24 3.19223 2.61094 0
M  V30 17152 H 1681.58 0.632032 0.203547 0
M  V30 17153 H 1684.11 2.046 0.00319776 0
M  V30 17154 H 1684.12 3.62539 1.87161 0
M  V30 17155 H 1682.79 4.07891 0.812251 0
M  V30 17156 H 1681.37 2.9628 2.26434 0
M  V30 17157 N 1683.56 -0.31543 1.54411 0
M  V30 17158 C 1684.49 -1.39353 1.87358 0
M  V30 17159 C 1685.47 -1.53586 0.731118 0
M  V30 17160 O 1686.65 -1.67332 0.98558 0
M  V30 17161 C 1683.78 -2.75998 2.10814 0
M  V30 17162 C 1682.74 -2.76545 3.2666 0
M  V30 17163 C 1682.06 -4.16343 3.35504 0
M  V30 17164 C 1683.36 -2.39567 4.64117 0
M  V30 17165 H 1685.06 -1.12028 2.77651 0
M  V30 17166 H 1682.6 -0.537476 1.33593 0
M  V30 17167 H 1684.55 -3.51491 2.32447 0
M  V30 17168 H 1683.28 -3.04817 1.17278 0
M  V30 17169 H 1681.94 -2.03507 3.04927 0
M  V30 17170 H 1681.59 -4.42316 2.39512 0
M  V30 17171 H 1681.29 -4.17613 4.13368 0
M  V30 17172 H 1682.81 -4.93637 3.59381 0
M  V30 17173 H 1684.22 -3.04775 4.85577 0
M  V30 17174 H 1682.62 -2.52075 5.4459 0
M  V30 17175 H 1683.69 -1.34707 4.65813 0
M  V30 17176 N 1685.03 -1.46622 -0.577906 0
M  V30 17177 C 1686.26 -1.5576 -1.36185 0
M  V30 17178 C 1686.68 -0.200403 -1.87733 0
M  V30 17179 O 1686.03 0.803091 -1.6388 0
M  V30 17180 C 1686.09 -2.56626 -2.54608 0
M  V30 17181 O 1685.81 -3.87074 -2.05195 0
M  V30 17182 C 1687.31 -2.75751 -3.47097 0
M  V30 17183 H 1684.53 -0.526589 -0.415866 0
M  V30 17184 H 1687.07 -1.9207 -0.702091 0
M  V30 17185 H 1685.23 -2.23307 -3.16564 0
M  V30 17186 H 1685.64 -4.42015 -2.82352 0
M  V30 17187 H 1687.11 -3.50237 -4.26659 0
M  V30 17188 H 1687.59 -1.82829 -3.99337 0
M  V30 17189 H 1688.2 -3.10185 -2.90973 0
M  V30 17190 N 1686.51 0.822941 -1.34408 0
M  V30 17191 C 1687.45 1.93899 -1.20326 0
M  V30 17192 C 1688.42 1.62323 -0.0949083 0
M  V30 17193 O 1689.61 1.86698 -0.260056 0
M  V30 17194 C 1686.73 3.27884 -0.849118 0
M  V30 17195 C 1685.78 3.78421 -1.96723 0
M  V30 17196 S 1686.61 3.98182 -3.58066 0
M  V30 17197 C 1687.77 5.35094 -3.24693 0
M  V30 17198 H 1688 2.05547 -2.14797 0
M  V30 17199 H 1685.54 0.978513 -1.19434 0
M  V30 17200 H 1687.49 4.05296 -0.651579 0
M  V30 17201 H 1686.15 3.14005 0.0772533 0
M  V30 17202 H 1685.35 4.75416 -1.67318 0
M  V30 17203 H 1684.95 3.07955 -2.12225 0
M  V30 17204 H 1687.24 6.18507 -2.76507 0
M  V30 17205 H 1688.18 5.69482 -4.20828 0
M  V30 17206 H 1688.59 5.00604 -2.60876 0
M  V30 17207 N 1687.99 1.18137 1.04314 0
M  V30 17208 C 1688.9 0.921044 2.15764 0
M  V30 17209 C 1689.92 -0.11396 1.73626 0
M  V30 17210 O 1691.09 0.0673733 2.01287 0
M  V30 17211 C 1688.16 0.447581 3.43799 0
M  V30 17212 C 1687.22 1.55025 4.00332 0
M  V30 17213 C 1686.45 1.09928 5.22256 0
M  V30 17214 O 1686.67 -0.0430152 5.70384 0
M  V30 17215 O 1685.61 1.896 5.71258 0
M  V30 17216 H 1689.43 1.85353 2.40579 0
M  V30 17217 H 1687.02 0.962985 1.14223 0
M  V30 17218 H 1688.9 0.191497 4.20965 0
M  V30 17219 H 1687.58 -0.456641 3.20463 0
M  V30 17220 H 1686.48 1.86032 3.24566 0
M  V30 17221 H 1687.82 2.4305 4.28004 0
M  V30 17222 N 1689.47 -1.23186 0.98301 0
M  V30 17223 C 1690.69 -1.96242 0.671114 0
M  V30 17224 C 1691.12 -1.72248 -0.755792 0
M  V30 17225 O 1690.48 -0.995555 -1.5152 0
M  V30 17226 C 1690.52 -3.47293 0.970571 0
M  V30 17227 O 1689.63 -4.1235 0.0639814 0
M  V30 17228 H 1688.97 -0.614262 0.252147 0
M  V30 17229 H 1691.5 -1.56551 1.31731 0
M  V30 17230 H 1691.51 -3.9776 0.908345 0
M  V30 17231 H 1690.18 -3.64083 2.01039 0
M  V30 17232 H 1688.76 -3.72461 0.180842 0
M  V30 17233 N 1690.95 -0.754982 -1.38339 0
M  V30 17234 C 1691.88 -0.143678 -2.33058 0
M  V30 17235 C 1692.86 0.702022 -1.54938 0
M  V30 17236 O 1694.04 0.642922 -1.83249 0
M  V30 17237 C 1691.17 0.749194 -3.39123 0
M  V30 17238 C 1690.13 0.00611459 -4.28 0
M  V30 17239 C 1689.45 1.01733 -5.24933 0
M  V30 17240 C 1690.75 -1.1631 -5.09185 0
M  V30 17241 H 1692.45 -0.934907 -2.84429 0
M  V30 17242 H 1689.99 -0.451023 -1.36754 0
M  V30 17243 H 1691.95 1.18653 -4.04351 0
M  V30 17244 H 1690.67 1.57276 -2.86237 0
M  V30 17245 H 1689.33 -0.411816 -3.6428 0
M  V30 17246 H 1688.98 1.83499 -4.68334 0
M  V30 17247 H 1688.68 0.524783 -5.85252 0
M  V30 17248 H 1690.2 1.45395 -5.93037 0
M  V30 17249 H 1691.61 -0.803244 -5.67645 0
M  V30 17250 H 1690.01 -1.5866 -5.78746 0
M  V30 17251 H 1691.08 -1.97533 -4.42842 0
M  V30 17252 N 1692.42 1.49318 -0.504168 0
M  V30 17253 C 1693.37 2.29185 0.272566 0
M  V30 17254 C 1694.34 1.35726 0.957476 0
M  V30 17255 O 1695.53 1.64684 0.963524 0
M  V30 17256 C 1692.67 3.18477 1.32916 0
M  V30 17257 C 1691.78 4.26995 0.655704 0
M  V30 17258 C 1690.91 5.03498 1.69301 0
M  V30 17259 C 1689.95 6.0385 1.0016 0
M  V30 17260 N 1689.09 6.73507 1.98325 0
M  V30 17261 H 1693.93 2.951 -0.41474 0
M  V30 17262 H 1691.47 1.455 -0.216372 0
M  V30 17263 H 1693.43 3.68624 1.95377 0
M  V30 17264 H 1692.06 2.54539 1.98519 0
M  V30 17265 H 1691.11 3.80311 -0.0822653 0
M  V30 17266 H 1692.42 4.98675 0.111584 0
M  V30 17267 H 1691.57 5.5753 2.39259 0
M  V30 17268 H 1690.31 4.31599 2.27099 0
M  V30 17269 H 1689.32 5.49046 0.287811 0
M  V30 17270 H 1690.54 6.77737 0.430073 0
M  V30 17271 H 1688.49 6.04376 2.55079 0
M  V30 17272 H 1688.41 7.41174 1.48988 0
M  V30 17273 H 1689.67 7.32141 2.67561 0
M  V30 17274 N 1693.9 0.238138 1.5579 0
M  V30 17275 C 1694.87 -0.651703 2.1974 0
M  V30 17276 C 1695.87 -1.10932 1.16408 0
M  V30 17277 O 1697.06 -1.01544 1.41543 0
M  V30 17278 C 1694.19 -1.8947 2.83397 0
M  V30 17279 H 1695.38 -0.0939013 2.99753 0
M  V30 17280 H 1692.93 -0.0114348 1.56296 0
M  V30 17281 H 1693.67 -2.49395 2.07298 0
M  V30 17282 H 1693.45 -1.57486 3.59083 0
M  V30 17283 H 1694.94 -2.52831 3.32365 0
M  V30 17284 N 1695.38 -1.57561 -0.0350783 0
M  V30 17285 C 1696.66 -1.8014 -0.76217 0
M  V30 17286 C 1697.04 -0.834754 -1.93894 0
M  V30 17287 O 1696.39 0.124387 -2.28161 0
M  V30 17288 C 1696.6 -3.2769 -1.20084 0
M  V30 17289 C 1697.94 -3.92513 -1.61923 0
M  V30 17290 O 1698.97 -3.31803 -1.29558 0
M  V30 17291 O 1697.83 -4.9939 -2.21972 0
M  V30 17292 H 1694.92 -0.740572 -0.368078 0
M  V30 17293 H 1697.47 -1.69696 -0.0123195 0
M  V30 17294 H 1696.24 -3.89636 -0.3605 0
M  V30 17295 H 1695.86 -3.43 -2.01089 0
M  V30 17296 N 1696.86 0.307236 -1.54576 0
M  V30 17297 C 1697.77 1.4014 -1.88143 0
M  V30 17298 C 1698.78 1.5579 -0.774952 0
M  V30 17299 O 1699.96 1.70574 -1.07082 0
M  V30 17300 C 1697.03 2.74613 -2.11633 0
M  V30 17301 C 1696.09 2.68001 -3.35371 0
M  V30 17302 C 1695.32 3.96061 -3.57731 0
M  V30 17303 O 1695.54 4.95119 -2.83219 0
M  V30 17304 O 1694.48 3.98331 -4.51238 0
M  V30 17305 H 1698.3 1.14677 -2.81217 0
M  V30 17306 H 1695.89 0.502739 -1.40687 0
M  V30 17307 H 1697.77 3.54186 -2.2832 0
M  V30 17308 H 1696.44 2.99933 -1.21746 0
M  V30 17309 H 1695.35 1.86922 -3.24054 0
M  V30 17310 H 1696.68 2.47635 -4.25368 0
M  V30 17311 N 1698.34 1.46926 0.570122 0
M  V30 17312 C 1699.58 1.52585 1.32523 0
M  V30 17313 C 1699.91 0.184291 1.94127 0
M  V30 17314 O 1699.18 -0.790478 1.79244 0
M  V30 17315 H 1697.76 0.562019 0.492081 0
M  V30 17316 H 1700.42 1.83141 0.666746 0
M  V30 17317 H 1699.51 2.28541 2.12545 0
M  V30 17318 N 1699.82 -0.815801 1.34842 0
M  V30 17319 C 1700.76 -1.92713 1.27006 0
M  V30 17320 C 1701.73 -1.65476 0.143838 0
M  V30 17321 O 1702.92 -1.87994 0.326007 0
M  V30 17322 C 1700.06 -3.29099 1.03863 0
M  V30 17323 C 1699.17 -3.68583 2.25324 0
M  V30 17324 C 1698.31 -4.93953 1.95407 0
M  V30 17325 C 1697.34 -5.26037 3.12971 0
M  V30 17326 N 1696.48 -6.42586 2.82891 0
M  V30 17327 H 1701.32 -1.98747 2.22044 0
M  V30 17328 H 1698.86 -0.972265 1.10388 0
M  V30 17329 H 1700.82 -4.07709 0.884809 0
M  V30 17330 H 1699.45 -3.22558 0.124911 0
M  V30 17331 H 1698.5 -2.85307 2.51603 0
M  V30 17332 H 1699.81 -3.88259 3.1314 0
M  V30 17333 H 1698.96 -5.80367 1.76801 0
M  V30 17334 H 1697.7 -4.76293 1.04862 0
M  V30 17335 H 1696.71 -4.38117 3.32165 0
M  V30 17336 H 1697.93 -5.45632 4.04305 0
M  V30 17337 H 1695.88 -6.26369 1.9493 0
M  V30 17338 H 1695.8 -6.62469 3.64239 0
M  V30 17339 H 1697.06 -7.32052 2.67805 0
M  V30 17340 N 1701.29 -1.18689 -1.03686 0
M  V30 17341 C 1702.24 -0.917369 -2.11785 0
M  V30 17342 C 1703.21 0.144719 -1.65468 0
M  V30 17343 O 1704.4 0.00427016 -1.908 0
M  V30 17344 C 1701.54 -0.453396 -3.42109 0
M  V30 17345 C 1700.65 -1.58134 -4.02017 0
M  V30 17346 C 1699.78 -1.06971 -5.20318 0
M  V30 17347 C 1698.82 -2.17208 -5.72265 0
M  V30 17348 N 1697.96 -1.67411 -6.81849 0
M  V30 17349 H 1702.8 -1.84297 -2.34177 0
M  V30 17350 H 1700.34 -0.918951 -1.14864 0
M  V30 17351 H 1702.29 -0.165843 -4.1687 0
M  V30 17352 H 1700.92 0.435219 -3.19853 0
M  V30 17353 H 1699.98 -1.98429 -3.24546 0
M  V30 17354 H 1701.29 -2.41219 -4.36594 0
M  V30 17355 H 1700.44 -0.736906 -6.02208 0
M  V30 17356 H 1699.18 -0.208487 -4.87254 0
M  V30 17357 H 1698.19 -2.51328 -4.88993 0
M  V30 17358 H 1699.41 -3.03772 -6.07371 0
M  V30 17359 H 1697.36 -0.83584 -6.50653 0
M  V30 17360 H 1697.27 -2.44091 -7.15511 0
M  V30 17361 H 1698.54 -1.3707 -7.67354 0
M  V30 17362 N 1702.77 1.22662 -0.989529 0
M  V30 17363 C 1703.68 2.28162 -0.545835 0
M  V30 17364 C 1704.7 1.69251 0.403762 0
M  V30 17365 O 1705.87 1.99563 0.271428 0
M  V30 17366 C 1702.94 3.46434 0.135808 0
M  V30 17367 C 1702 4.20673 -0.85633 0
M  V30 17368 C 1701.23 5.33298 -0.207121 0
M  V30 17369 O 1701.46 5.6157 0.99975 0
M  V30 17370 O 1700.39 5.94977 -0.910288 0
M  V30 17371 H 1704.22 2.68276 -1.42344 0
M  V30 17372 H 1701.8 1.28766 -0.757609 0
M  V30 17373 H 1703.68 4.18207 0.517776 0
M  V30 17374 H 1702.36 3.08252 0.988035 0
M  V30 17375 H 1701.26 3.51186 -1.28917 0
M  V30 17376 H 1702.6 4.62726 -1.67765 0
M  V30 17377 N 1704.25 0.762308 1.37937 0
M  V30 17378 C 1705.48 0.333458 2.04195 0
M  V30 17379 C 1705.89 -1.04118 1.57496 0
M  V30 17380 O 1705.25 -1.66289 0.751938 0
M  V30 17381 C 1705.3 0.35685 3.59734 0
M  V30 17382 O 1705.02 1.67725 4.04722 0
M  V30 17383 C 1706.52 -0.0847776 4.43219 0
M  V30 17384 H 1703.74 0.141107 0.655995 0
M  V30 17385 H 1706.29 1.03359 1.76457 0
M  V30 17386 H 1704.44 -0.294625 3.86278 0
M  V30 17387 H 1704.86 1.60939 4.99198 0
M  V30 17388 H 1706.33 -0.017252 5.51997 0
M  V30 17389 H 1706.81 -1.13387 4.24311 0
M  V30 17390 H 1707.41 0.538151 4.21882 0
M  V30 17391 N 1705.73 -1.49049 0.51208 0
M  V30 17392 C 1706.95 -2.07382 -0.0271044 0
M  V30 17393 C 1707.38 -1.3685 -1.29049 0
M  V30 17394 O 1706.74 -0.428713 -1.76158 0
M  V30 17395 C 1706.78 -3.59715 -0.252462 0
M  V30 17396 O 1705.89 -3.90538 -1.32491 0
M  V30 17397 H 1705.23 -0.663269 0.0311507 0
M  V30 17398 H 1707.76 -1.91705 0.714873 0
M  V30 17399 H 1707.77 -4.05159 -0.480603 0
M  V30 17400 H 1706.44 -4.10459 0.670531 0
M  V30 17401 H 1705.02 -3.56892 -1.08085 0
M  V30 17402 N 1707.21 -0.246397 -1.55662 0
M  V30 17403 C 1708.62 0.256853 -1.84925 0
M  V30 17404 C 1708.97 1.5763 -1.16821 0
M  V30 17405 O 1708.09 2.11745 -0.446415 0
M  V30 17406 C 1708.69 0.472815 -3.35485 0
M  V30 17407 C 1707.25 0.92033 -3.64975 0
M  V30 17408 C 1706.39 -0.00273772 -2.773 0
M  V30 17409 H 1709.34 -0.468971 -1.51612 0
M  V30 17410 H 1709.37 1.31549 -3.57037 0
M  V30 17411 H 1708.88 -0.487664 -3.85024 0
M  V30 17412 H 1706.98 1.89329 -3.20913 0
M  V30 17413 H 1707.09 0.77754 -4.72748 0
M  V30 17414 H 1705.46 0.508539 -2.49572 0
M  V30 17415 H 1706.24 -0.958581 -3.29645 0
M  V30 17416 N 1708.68 1.57577 0.026722 0
M  V30 17417 C 1709.59 2.10114 1.04351 0
M  V30 17418 C 1710.61 1.04029 1.39477 0
M  V30 17419 O 1711.79 1.35778 1.48749 0
M  V30 17420 C 1708.85 2.57203 2.32481 0
M  V30 17421 C 1707.91 3.77779 2.03915 0
M  V30 17422 C 1707.14 4.22613 3.25936 0
M  V30 17423 O 1707.37 3.66955 4.36692 0
M  V30 17424 O 1706.3 5.15026 3.11499 0
M  V30 17425 H 1710.13 2.97157 0.627021 0
M  V30 17426 H 1707.71 1.47396 0.243855 0
M  V30 17427 H 1709.59 2.87809 3.07805 0
M  V30 17428 H 1708.27 1.7327 2.73421 0
M  V30 17429 H 1707.18 3.52188 1.26152 0
M  V30 17430 H 1708.51 4.62703 1.67829 0
M  V30 17431 N 1710.16 -0.299034 1.54737 0
M  V30 17432 C 1711.39 -1.05723 1.7843 0
M  V30 17433 C 1711.81 -1.80089 0.543094 0
M  V30 17434 O 1711.17 -1.74083 -0.506438 0
M  V30 17435 C 1711.22 -2.01193 2.99255 0
M  V30 17436 O 1710.32 -3.09528 2.72518 0
M  V30 17437 H 1709.66 -0.303614 0.590521 0
M  V30 17438 H 1712.19 -0.335859 2.01825 0
M  V30 17439 H 1712.2 -2.43623 3.27279 0
M  V30 17440 H 1710.88 -1.46472 3.89254 0
M  V30 17441 H 1709.45 -2.71599 2.55516 0
M  V30 17442 N 1711.64 -1.47227 -0.562322 0
M  V30 17443 C 1712.86 -1.5744 -1.35008 0
M  V30 17444 C 1713.29 -0.223223 -1.86771 0
M  V30 17445 O 1712.65 0.800078 -1.62691 0
M  V30 17446 C 1712.7 -2.5992 -2.49948 0
M  V30 17447 O 1711.8 -2.14836 -3.52022 0
M  V30 17448 H 1711.14 -0.529064 -0.401232 0
M  V30 17449 H 1713.67 -1.92966 -0.680084 0
M  V30 17450 H 1713.68 -2.80177 -2.96588 0
M  V30 17451 H 1712.36 -3.58031 -2.11629 0
M  V30 17452 H 1710.93 -2.04655 -3.11722 0
M  V30 17453 N 1713.12 0.808639 -1.35273 0
M  V30 17454 C 1714.05 1.93502 -1.30687 0
M  V30 17455 C 1715.03 1.69127 -0.181675 0
M  V30 17456 O 1716.21 1.90519 -0.376312 0
M  V30 17457 C 1713.34 3.30211 -1.07602 0
M  V30 17458 C 1712.3 3.69063 -2.16741 0
M  V30 17459 C 1711.62 5.03911 -1.78824 0
M  V30 17460 C 1712.92 3.79656 -3.5869 0
M  V30 17461 H 1714.62 1.97597 -2.24935 0
M  V30 17462 H 1712.16 0.949284 -1.0828 0
M  V30 17463 H 1714.12 4.0861 -1.03034 0
M  V30 17464 H 1712.84 3.26453 -0.0979944 0
M  V30 17465 H 1711.5 2.92948 -2.20402 0
M  V30 17466 H 1711.15 4.96655 -0.796449 0
M  V30 17467 H 1710.85 5.30877 -2.51881 0
M  V30 17468 H 1712.37 5.84752 -1.75777 0
M  V30 17469 H 1713.79 4.48292 -3.57362 0
M  V30 17470 H 1712.18 4.1809 -4.30489 0
M  V30 17471 H 1713.25 2.81265 -3.94991 0
M  V30 17472 N 1714.6 1.19237 1.03055 0
M  V30 17473 C 1715.85 0.988287 1.75829 0
M  V30 17474 C 1716.16 -0.481903 1.89571 0
M  V30 17475 O 1717.36 -0.804762 2.59299 0
M  V30 17476 C 1715.82 1.71934 3.16175 0
M  V30 17477 C 1715.43 3.22952 3.10493 0
M  V30 17478 C 1717.17 1.59844 3.93256 0
M  V30 17479 C 1715.08 3.88654 4.4576 0
M  V30 17480 H 1714.01 0.366153 0.659127 0
M  V30 17481 H 1716.66 1.42716 1.15345 0
M  V30 17482 H 1715.04 1.20828 3.77116 0
M  V30 17483 H 1716.22 3.81163 2.58943 0
M  V30 17484 H 1714.53 3.35298 2.46909 0
M  V30 17485 H 1717.13 2.06283 4.93307 0
M  V30 17486 H 1717.47 0.552317 4.1262 0
M  V30 17487 H 1718 2.08286 3.38913 0
M  V30 17488 H 1714.74 4.93357 4.31601 0
M  V30 17489 H 1714.26 3.35231 4.97373 0
M  V30 17490 H 1715.94 3.92104 5.14649 0
M  V30 17491 N 1716.07 -1.22136 0.99602 0
M  V30 17492 C 1717.01 -2.23518 0.507162 0
M  V30 17493 C 1718.02 -1.57824 -0.399426 0
M  V30 17494 O 1719.21 -1.77364 -0.20106 0
M  V30 17495 C 1716.31 -3.37709 -0.283931 0
M  V30 17496 C 1715.48 -4.3299 0.619549 0
M  V30 17497 C 1714.54 -5.26062 -0.120376 0
M  V30 17498 O 1713.57 -5.67041 0.495269 0
M  V30 17499 N 1714.77 -5.63322 -1.40172 0
M  V30 17500 H 1717.53 -2.66092 1.37896 0
M  V30 17501 H 1715.09 -1.36468 0.871102 0
M  V30 17502 H 1717.09 -3.96961 -0.787661 0
M  V30 17503 H 1715.66 -2.94193 -1.05685 0
M  V30 17504 H 1714.88 -3.72011 1.3039 0
M  V30 17505 H 1716.16 -4.93591 1.23473 0
M  V30 17506 H 1715.56 -5.32006 -1.92318 0
M  V30 17507 H 1714.12 -6.24977 -1.85058 0
M  V30 17508 N 1717.55 -0.769612 -1.37531 0
M  V30 17509 C 1718.83 -0.257788 -1.93894 0
M  V30 17510 C 1719.21 1.24679 -1.70348 0
M  V30 17511 O 1718.56 2.02892 -1.05106 0
M  V30 17512 C 1718.77 -0.628857 -3.43288 0
M  V30 17513 C 1720.12 -0.597452 -4.20376 0
M  V30 17514 O 1721.14 -0.568117 -3.5164 0
M  V30 17515 O 1720 -0.622627 -5.42942 0
M  V30 17516 H 1717.09 -0.0588144 -0.824906 0
M  V30 17517 H 1719.64 -0.85082 -1.4683 0
M  V30 17518 H 1718.41 -1.66733 -3.54 0
M  V30 17519 H 1718.03 -0.00865929 -3.97599 0
M  V30 17520 N 1719.03 1.48775 -0.519977 0
M  V30 17521 C 1719.94 2.33239 0.252329 0
M  V30 17522 C 1720.96 1.45852 0.948849 0
M  V30 17523 O 1722.13 1.78848 0.92603 0
M  V30 17524 C 1719.2 3.2174 1.29166 0
M  V30 17525 C 1718.26 4.24993 0.606564 0
M  V30 17526 C 1717.49 5.09266 1.59638 0
M  V30 17527 O 1717.71 4.95353 2.82809 0
M  V30 17528 O 1716.65 5.90981 1.14127 0
M  V30 17529 H 1720.47 3.00503 -0.439527 0
M  V30 17530 H 1718.06 1.46733 -0.281032 0
M  V30 17531 H 1719.94 3.76512 1.89254 0
M  V30 17532 H 1718.62 2.5715 1.96611 0
M  V30 17533 H 1717.52 3.74084 -0.0345447 0
M  V30 17534 H 1718.86 4.92193 -0.0257627 0
M  V30 17535 N 1720.51 0.254649 1.55529 0
M  V30 17536 C 1721.76 -0.368461 1.98306 0
M  V30 17537 C 1722.07 -1.585 1.14617 0
M  V30 17538 O 1723.28 -2.27975 1.47443 0
M  V30 17539 C 1721.73 -0.70693 3.52889 0
M  V30 17540 C 1721.34 0.488648 4.45327 0
M  V30 17541 C 1723.08 -1.2938 4.04303 0
M  V30 17542 C 1720.99 0.125903 5.91266 0
M  V30 17543 H 1719.92 -0.141444 0.740614 0
M  V30 17544 H 1722.57 0.356085 1.80012 0
M  V30 17545 H 1720.95 -1.48982 3.66907 0
M  V30 17546 H 1722.13 1.26587 4.43071 0
M  V30 17547 H 1720.44 0.990969 4.04436 0
M  V30 17548 H 1723.04 -1.57866 5.10864 0
M  V30 17549 H 1723.38 -2.22088 3.52112 0
M  V30 17550 H 1723.92 -0.573647 3.93642 0
M  V30 17551 H 1720.66 1.02032 6.4751 0
M  V30 17552 H 1720.18 -0.614969 5.96639 0
M  V30 17553 H 1721.85 -0.289174 6.46353 0
M  V30 17554 N 1721.99 -1.57589 -0.0183649 0
M  V30 17555 C 1722.95 -2.06217 -1.00035 0
M  V30 17556 C 1723.95 -0.968195 -1.28385 0
M  V30 17557 O 1725.14 -1.23147 -1.23209 0
M  V30 17558 C 1722.27 -2.48815 -2.33032 0
M  V30 17559 H 1723.46 -2.94236 -0.580085 0
M  V30 17560 H 1721.02 -1.5403 -0.265438 0
M  V30 17561 H 1721.75 -1.63985 -2.79785 0
M  V30 17562 H 1721.54 -3.28694 -2.13781 0
M  V30 17563 H 1723.03 -2.86828 -3.03512 0
M  V30 17564 N 1723.46 0.290824 -1.54893 0
M  V30 17565 C 1724.71 1.02627 -1.74916 0
M  V30 17566 C 1725.04 1.86572 -0.538921 0
M  V30 17567 O 1724.32 1.88888 0.463844 0
M  V30 17568 C 1724.6 1.92376 -3.04407 0
M  V30 17569 C 1724.45 1.11542 -4.3575 0
M  V30 17570 C 1725.77 2.91383 -3.29824 0
M  V30 17571 H 1722.89 0.371685 -0.636411 0
M  V30 17572 H 1725.53 0.300072 -1.87615 0
M  V30 17573 H 1723.68 2.54295 -2.93711 0
M  V30 17574 H 1725.36 0.518312 -4.58379 0
M  V30 17575 H 1723.6 0.418386 -4.31778 0
M  V30 17576 H 1724.27 1.77616 -5.22644 0
M  V30 17577 H 1726.75 2.39595 -3.40196 0
M  V30 17578 H 1725.62 3.51338 -4.21726 0
M  V30 17579 H 1725.88 3.65579 -2.48606 0
M  V30 17580 N 1724.94 1.47523 0.554506 0
M  V30 17581 C 1725.89 1.60213 1.66134 0
M  V30 17582 C 1726.86 0.445051 1.60027 0
M  V30 17583 O 1728.04 0.665449 1.7882 0
M  V30 17584 C 1725.18 1.62491 3.04452 0
M  V30 17585 C 1724.3 2.89134 3.20976 0
M  V30 17586 C 1723.43 2.82731 4.49707 0
M  V30 17587 C 1722.47 4.04187 4.59673 0
M  V30 17588 N 1721.61 3.96004 5.79763 0
M  V30 17589 H 1726.45 2.54744 1.54626 0
M  V30 17590 H 1723.99 1.26355 0.753189 0
M  V30 17591 H 1725.94 1.61795 3.84549 0
M  V30 17592 H 1724.57 0.714698 3.14789 0
M  V30 17593 H 1723.63 2.99685 2.34292 0
M  V30 17594 H 1724.94 3.79069 3.24203 0
M  V30 17595 H 1724.09 2.80299 5.38068 0
M  V30 17596 H 1722.83 1.90483 4.48963 0
M  V30 17597 H 1721.84 4.06921 3.69724 0
M  V30 17598 H 1723.06 4.97565 4.62175 0
M  V30 17599 H 1721.01 3.06561 5.79962 0
M  V30 17600 H 1720.92 4.7962 5.8438 0
M  V30 17601 H 1722.19 3.97593 6.70478 0
M  V30 17602 N 1726.42 -0.801453 1.357 0
M  V30 17603 C 1727.35 -1.92807 1.31711 0
M  V30 17604 C 1728.33 -1.69028 0.190642 0
M  V30 17605 O 1729.52 -1.90317 0.38641 0
M  V30 17606 C 1726.65 -3.29635 1.09352 0
M  V30 17607 C 1725.6 -3.67908 2.18695 0
M  V30 17608 C 1724.93 -5.02955 1.81494 0
M  V30 17609 C 1726.23 -3.77749 3.60698 0
M  V30 17610 H 1727.92 -1.96401 2.2598 0
M  V30 17611 H 1725.47 -0.943528 1.08782 0
M  V30 17612 H 1727.42 -4.08058 1.052 0
M  V30 17613 H 1726.14 -3.26396 0.115306 0
M  V30 17614 H 1724.8 -2.91775 2.21952 0
M  V30 17615 H 1724.45 -4.96225 0.822776 0
M  V30 17616 H 1724.15 -5.29533 2.54692 0
M  V30 17617 H 1725.67 -5.83811 1.78876 0
M  V30 17618 H 1727.09 -4.4639 3.59734 0
M  V30 17619 H 1725.49 -4.15801 4.327 0
M  V30 17620 H 1726.56 -2.79167 3.96477 0
M  V30 17621 N 1727.9 -1.19782 -1.02421 0
M  V30 17622 C 1729.12 -1.02939 -1.80051 0
M  V30 17623 C 1729.55 0.417153 -1.83416 0
M  V30 17624 O 1728.91 1.3001 -1.26361 0
M  V30 17625 C 1728.95 -1.60853 -3.22736 0
M  V30 17626 O 1728.06 -0.840999 -4.03734 0
M  V30 17627 H 1727.4 -0.363537 -0.555641 0
M  V30 17628 H 1729.93 -1.58908 -1.28878 0
M  V30 17629 H 1729.94 -1.64266 -3.73471 0
M  V30 17630 H 1728.61 -2.66135 -3.19602 0
M  V30 17631 H 1727.19 -0.880482 -3.62356 0
M  V30 17632 N 1729.38 1.21606 -1.00248 0
M  V30 17633 C 1730.62 1.9089 -0.684765 0
M  V30 17634 C 1730.96 1.77749 0.78224 0
M  V30 17635 O 1730.23 1.15251 1.56676 0
M  V30 17636 C 1730.51 3.42778 -1.1034 0
M  V30 17637 C 1730.37 3.64923 -2.62967 0
M  V30 17638 C 1731.69 4.35064 -0.663877 0
M  V30 17639 H 1728.81 0.693217 -0.250239 0
M  V30 17640 H 1731.45 1.4329 -1.24772 0
M  V30 17641 H 1729.6 3.83449 -0.624415 0
M  V30 17642 H 1731.27 3.33595 -3.18609 0
M  V30 17643 H 1729.51 3.08874 -3.04596 0
M  V30 17644 H 1730.18 4.71335 -2.87311 0
M  V30 17645 H 1732.66 4.01962 -1.07544 0
M  V30 17646 H 1731.54 5.3999 -0.984987 0
M  V30 17647 H 1731.8 4.39954 0.435095 0
M  V30 17648 N 1730.86 0.776895 1.37121 0
M  V30 17649 C 1731.77 0.167552 2.34001 0
M  V30 17650 C 1732.78 -0.673609 1.60432 0
M  V30 17651 O 1733.96 -0.592327 1.92493 0
M  V30 17652 C 1731.02 -0.697343 3.39615 0
M  V30 17653 C 1730.08 0.160869 4.28998 0
M  V30 17654 C 1729.32 -0.662841 5.29568 0
M  V30 17655 O 1729.54 -1.89962 5.37839 0
M  V30 17656 O 1728.47 -0.0693304 6.0186 0
M  V30 17657 H 1732.3 0.968247 2.87852 0
M  V30 17658 H 1729.88 0.538137 1.39372 0
M  V30 17659 H 1731.77 -1.19094 4.04221 0
M  V30 17660 H 1730.44 -1.47614 2.88083 0
M  V30 17661 H 1729.35 0.700941 3.67475 0
M  V30 17662 H 1730.68 0.902875 4.83848 0
M  V30 17663 N 1732.33 -1.48497 0.527859 0
M  V30 17664 C 1733.58 -2.01698 -0.00900086 0
M  V30 17665 C 1733.9 -1.4104 -1.35525 0
M  V30 17666 O 1735.1 -1.85726 -1.98035 0
M  V30 17667 C 1733.56 -3.59839 -0.0664428 0
M  V30 17668 C 1733.17 -4.2948 1.27479 0
M  V30 17669 C 1734.91 -4.20893 -0.552244 0
M  V30 17670 C 1732.82 -5.79548 1.17805 0
M  V30 17671 H 1731.75 -0.753966 -0.00713463 0
M  V30 17672 H 1734.4 -1.70779 0.67132 0
M  V30 17673 H 1732.78 -3.8759 -0.811795 0
M  V30 17674 H 1733.95 -4.13403 2.03554 0
M  V30 17675 H 1732.27 -3.80289 1.69616 0
M  V30 17676 H 1734.87 -5.30825 -0.642556 0
M  V30 17677 H 1735.21 -3.86066 -1.55752 0
M  V30 17678 H 1735.74 -3.97563 0.137363 0
M  V30 17679 H 1732.48 -6.18945 2.15841 0
M  V30 17680 H 1732 -5.98044 0.458624 0
M  V30 17681 H 1733.68 -6.41153 0.867834 0
M  V30 17682 N 1733.81 -0.262893 -1.55392 0
M  V30 17683 C 1735.22 0.237224 -1.85187 0
M  V30 17684 C 1735.57 1.56383 -1.18486 0
M  V30 17685 O 1734.7 2.1126 -0.468849 0
M  V30 17686 C 1735.29 0.437206 -3.35967 0
M  V30 17687 C 1733.85 0.881568 -3.65931 0
M  V30 17688 C 1733 -0.0321489 -2.77281 0
M  V30 17689 H 1735.95 -0.485025 -1.51107 0
M  V30 17690 H 1735.97 1.27755 -3.58412 0
M  V30 17691 H 1735.48 -0.528474 -3.84485 0
M  V30 17692 H 1733.58 1.85915 -3.22903 0
M  V30 17693 H 1733.7 0.727355 -4.73547 0
M  V30 17694 H 1732.06 0.48204 -2.50097 0
M  V30 17695 H 1732.84 -0.99349 -3.2861 0
M  V30 17696 N 1735.29 1.57597 0.0100073 0
M  V30 17697 C 1736.53 1.91983 0.701555 0
M  V30 17698 C 1736.89 0.863453 1.71489 0
M  V30 17699 O 1738.09 1.09225 2.45608 0
M  V30 17700 C 1736.37 3.31459 1.33678 0
M  V30 17701 S 1737.92 3.87714 2.05484 0
M  V30 17702 H 1734.74 0.672093 0.231975 0
M  V30 17703 H 1737.34 1.9545 -0.0442772 0
M  V30 17704 H 1736.05 4.06191 0.586295 0
M  V30 17705 H 1735.58 3.31342 2.12076 0
M  V30 17706 H 1737.59 3.6798 3.32874 0
M  V30 17707 N 1736.77 -0.282606 1.55045 0
M  V30 17708 C 1738.18 -0.854338 1.66006 0
M  V30 17709 C 1738.53 -1.87408 0.580753 0
M  V30 17710 O 1737.65 -2.14588 -0.279449 0
M  V30 17711 C 1738.25 -1.55637 3.00936 0
M  V30 17712 C 1736.81 -2.07626 3.13956 0
M  V30 17713 C 1735.96 -0.915064 2.61767 0
M  V30 17714 H 1738.91 -0.0591711 1.5859 0
M  V30 17715 H 1738.93 -2.42289 2.93388 0
M  V30 17716 H 1738.44 -0.813942 3.79469 0
M  V30 17717 H 1736.54 -2.84859 2.40179 0
M  V30 17718 H 1736.65 -2.29816 4.20382 0
M  V30 17719 H 1735.02 -1.30577 2.18682 0
M  V30 17720 H 1735.8 -0.186298 3.42794 0
M  V30 17721 N 1738.25 -1.47815 -0.546675 0
M  V30 17722 C 1739.66 -1.48715 -1.12875 0
M  V30 17723 C 1740.01 -0.247647 -1.94631 0
M  V30 17724 O 1739.13 0.646615 -2.06514 0
M  V30 17725 C 1739.73 -2.69459 -2.05371 0
M  V30 17726 C 1738.29 -2.73285 -2.58829 0
M  V30 17727 C 1737.43 -2.4198 -1.35429 0
M  V30 17728 H 1740.38 -1.55172 -0.332746 0
M  V30 17729 H 1740.41 -2.47028 -2.89408 0
M  V30 17730 H 1739.92 -3.59656 -1.4584 0
M  V30 17731 H 1738.02 -1.87254 -3.22128 0
M  V30 17732 H 1738.13 -3.74265 -2.99103 0
M  V30 17733 H 1736.5 -1.92783 -1.66454 0
M  V30 17734 H 1737.28 -3.34397 -0.776753 0
M  V30 17735 N 1739.72 0.794246 -1.36123 0
M  V30 17736 C 1740.69 1.88828 -1.2991 0
M  V30 17737 C 1741.69 1.59451 -0.207839 0
M  V30 17738 O 1742.88 1.67953 -0.462321 0
M  V30 17739 C 1740.01 3.25511 -1.01269 0
M  V30 17740 H 1741.2 1.95753 -2.27202 0
M  V30 17741 H 1738.75 0.991505 -1.20826 0
M  V30 17742 H 1739.49 3.2427 -0.0441535 0
M  V30 17743 H 1739.27 3.48221 -1.80234 0
M  V30 17744 H 1740.76 4.0557 -0.995142 0
M  V30 17745 N 1741.2 1.20323 1.01785 0
M  V30 17746 C 1742.45 1.01413 1.75623 0
M  V30 17747 C 1742.78 -0.452801 1.88847 0
M  V30 17748 O 1742.06 -1.33618 1.41338 0
M  V30 17749 C 1742.34 1.69686 3.17614 0
M  V30 17750 C 1742.19 3.23815 3.12192 0
M  V30 17751 C 1743.51 1.42891 4.16257 0
M  V30 17752 H 1740.63 0.369822 0.637495 0
M  V30 17753 H 1743.27 1.4832 1.18749 0
M  V30 17754 H 1741.42 1.29806 3.66173 0
M  V30 17755 H 1743.09 3.72981 2.71446 0
M  V30 17756 H 1741.34 3.54785 2.4962 0
M  V30 17757 H 1742.01 3.66741 4.12559 0
M  V30 17758 H 1744.48 1.77486 3.76348 0
M  V30 17759 H 1743.36 1.93195 5.13777 0
M  V30 17760 H 1743.62 0.356263 4.40662 0
M  V30 17761 N 1742.68 -1.21073 1.00892 0
M  V30 17762 C 1743.9 -1.94774 0.712588 0
M  V30 17763 C 1744.33 -1.73812 -0.719085 0
M  V30 17764 O 1743.69 -1.02747 -1.49374 0
M  V30 17765 C 1743.74 -3.45156 1.04402 0
M  V30 17766 O 1742.84 -4.12122 0.151433 0
M  V30 17767 H 1742.18 -0.608775 0.26512 0
M  V30 17768 H 1744.71 -1.53721 1.35022 0
M  V30 17769 H 1744.72 -3.95744 0.992511 0
M  V30 17770 H 1743.4 -3.59736 2.08716 0
M  V30 17771 H 1741.97 -3.71994 0.259805 0
M  V30 17772 N 1744.16 -0.784156 -1.36707 0
M  V30 17773 C 1745.07 -0.179959 -2.33909 0
M  V30 17774 C 1746.08 0.665092 -1.60787 0
M  V30 17775 O 1747.26 0.582111 -1.92804 0
M  V30 17776 C 1744.33 0.679323 -3.3998 0
M  V30 17777 C 1743.39 -0.183618 -4.28907 0
M  V30 17778 C 1742.62 0.634747 -5.29912 0
M  V30 17779 O 1742.84 1.87107 -5.38839 0
M  V30 17780 O 1741.78 0.0374113 -6.01888 0
M  V30 17781 H 1745.6 -0.983499 -2.87334 0
M  V30 17782 H 1743.19 -0.545521 -1.39084 0
M  V30 17783 H 1745.07 1.16948 -4.04847 0
M  V30 17784 H 1743.74 1.46084 -2.88862 0
M  V30 17785 H 1742.65 -0.720419 -3.67098 0
M  V30 17786 H 1743.98 -0.928522 -4.83363 0
M  V30 17787 N 1745.64 1.48215 -0.535727 0
M  V30 17788 C 1746.6 2.28206 0.213212 0
M  V30 17789 C 1747.6 1.3571 0.862522 0
M  V30 17790 O 1748.79 1.58547 0.721688 0
M  V30 17791 C 1745.92 3.1476 1.30917 0
M  V30 17792 H 1747.11 2.95884 -0.489163 0
M  V30 17793 H 1744.67 1.53551 -0.291872 0
M  V30 17794 H 1745.4 2.51726 2.04462 0
M  V30 17795 H 1745.19 3.82806 0.848633 0
M  V30 17796 H 1746.68 3.75085 1.83579 0
M  V30 17797 N 1747.11 0.27113 1.5525 0
M  V30 17798 C 1748.39 -0.398374 1.915 0
M  V30 17799 C 1748.77 -1.74026 1.19491 0
M  V30 17800 O 1748.12 -2.26242 0.320425 0
M  V30 17801 C 1748.33 -0.542589 3.44756 0
M  V30 17802 C 1749.68 -0.827326 4.16462 0
M  V30 17803 O 1750.7 -0.627548 3.50628 0
M  V30 17804 O 1749.56 -1.20917 5.32955 0
M  V30 17805 H 1746.65 -0.217479 0.797892 0
M  V30 17806 H 1749.2 0.316988 1.66713 0
M  V30 17807 H 1747.97 0.401926 3.8923 0
M  V30 17808 H 1747.6 -1.30757 3.75484 0
M  V30 17809 N 1748.59 -1.576 -0.00164943 0
M  V30 17810 C 1749.52 -2.11354 -0.992554 0
M  V30 17811 C 1750.5 -1.0223 -1.35952 0
M  V30 17812 O 1751.69 -1.29904 -1.44356 0
M  V30 17813 C 1748.82 -2.61549 -2.28494 0
M  V30 17814 C 1747.77 -3.75185 -2.05962 0
M  V30 17815 C 1747.1 -4.11688 -3.412 0
M  V30 17816 C 1748.4 -5.02526 -1.42355 0
M  V30 17817 H 1750.09 -2.94398 -0.544986 0
M  V30 17818 H 1747.64 -1.4162 -0.260702 0
M  V30 17819 H 1749.59 -2.97782 -2.98168 0
M  V30 17820 H 1748.32 -1.75625 -2.75361 0
M  V30 17821 H 1746.97 -3.39343 -1.38714 0
M  V30 17822 H 1746.62 -3.22789 -3.85767 0
M  V30 17823 H 1746.32 -4.88246 -3.2694 0
M  V30 17824 H 1747.85 -4.50478 -4.12192 0
M  V30 17825 H 1749.26 -5.3654 -2.01984 0
M  V30 17826 H 1747.66 -5.83878 -1.38589 0
M  V30 17827 H 1748.73 -4.83308 -0.392565 0
M  V30 17828 N 1750.07 0.274379 -1.55193 0
M  V30 17829 C 1751.03 1.32237 -1.87206 0
M  V30 17830 C 1752.03 1.4242 -0.74654 0
M  V30 17831 O 1753.22 1.41595 -1.01472 0
M  V30 17832 C 1750.36 2.7039 -2.0761 0
M  V30 17833 H 1751.55 1.05083 -2.80887 0
M  V30 17834 H 1749.1 0.512375 -1.47663 0
M  V30 17835 H 1749.84 3.02727 -1.16306 0
M  V30 17836 H 1749.62 2.64385 -2.89556 0
M  V30 17837 H 1751.11 3.46114 -2.33655 0
M  V30 17838 N 1751.55 1.48103 0.538828 0
M  V30 17839 C 1752.78 1.59316 1.32008 0
M  V30 17840 C 1753.19 0.250107 1.87136 0
M  V30 17841 O 1752.55 -0.759358 1.65952 0
M  V30 17842 C 1752.6 2.63287 2.47714 0
M  V30 17843 O 1752.32 3.92379 1.9486 0
M  V30 17844 C 1753.82 2.84856 3.39664 0
M  V30 17845 H 1751.04 0.53743 0.401758 0
M  V30 17846 H 1753.59 1.93864 0.65092 0
M  V30 17847 H 1751.74 2.31621 3.10532 0
M  V30 17848 H 1752.15 4.49346 2.70534 0
M  V30 17849 H 1753.63 3.61426 4.17223 0
M  V30 17850 H 1754.11 1.93352 3.9435 0
M  V30 17851 H 1754.71 3.17791 2.82647 0
M  V30 17852 N 1753.03 -0.787016 1.36542 0
M  V30 17853 C 1754.3 -1.53325 1.21452 0
M  V30 17854 C 1754.68 -2.10166 -0.198313 0
M  V30 17855 O 1754.03 -1.94192 -1.20422 0
M  V30 17856 C 1754.24 -2.62629 2.29841 0
M  V30 17857 C 1755.59 -3.30446 2.66628 0
M  V30 17858 O 1756.61 -2.72914 2.28903 0
M  V30 17859 O 1755.47 -4.34424 3.31569 0
M  V30 17860 H 1752.57 -0.678361 0.473028 0
M  V30 17861 H 1755.11 -0.825292 1.4828 0
M  V30 17862 H 1753.88 -2.18639 3.24519 0
M  V30 17863 H 1753.51 -3.41042 2.04393 0
M  V30 17864 N 1754.5 -1.20861 -1.01145 0
M  V30 17865 C 1755.41 -0.977926 -2.13246 0
M  V30 17866 C 1756.43 0.0678862 -1.73868 0
M  V30 17867 O 1757.61 -0.120717 -2.01038 0
M  V30 17868 C 1754.67 -0.538575 -3.42491 0
M  V30 17869 C 1753.73 -1.65584 -3.96081 0
M  V30 17870 C 1752.97 -1.23736 -5.19158 0
M  V30 17871 O 1753.19 -0.108227 -5.70297 0
M  V30 17872 O 1752.12 -2.04679 -5.6603 0
M  V30 17873 H 1755.95 -1.91666 -2.3558 0
M  V30 17874 H 1753.53 -0.992931 -1.1163 0
M  V30 17875 H 1755.42 -0.303041 -4.20309 0
M  V30 17876 H 1754.09 0.371515 -3.21561 0
M  V30 17877 H 1753 -1.94572 -3.19519 0
M  V30 17878 H 1754.33 -2.54313 -4.21409 0
M  V30 17879 N 1755.98 1.20536 -1.01532 0
M  V30 17880 C 1757.4 1.41929 -0.729957 0
M  V30 17881 C 1757.6 1.89286 0.69088 0
M  V30 17882 O 1756.65 2.06094 1.45882 0
M  V30 17883 C 1757.97 2.44202 -1.75458 0
M  V30 17884 C 1759.52 2.57971 -1.77257 0
M  V30 17885 C 1759.99 3.63486 -2.78643 0
M  V30 17886 N 1761.48 3.70968 -2.77375 0
M  V30 17887 C 1762.22 4.52266 -3.52481 0
M  V30 17888 N 1761.71 5.37379 -4.37259 0
M  V30 17889 N 1763.51 4.46787 -3.41084 0
M  V30 17890 H 1755.66 0.881116 -1.93262 0
M  V30 17891 H 1757.92 0.449299 -0.834766 0
M  V30 17892 H 1757.63 2.16401 -2.77243 0
M  V30 17893 H 1757.5 3.43171 -1.56568 0
M  V30 17894 H 1759.89 2.85103 -0.761586 0
M  V30 17895 H 1759.97 1.59202 -2.00221 0
M  V30 17896 H 1759.61 3.37097 -3.79905 0
M  V30 17897 H 1759.54 4.61874 -2.52942 0
M  V30 17898 H 1762.03 3.10171 -2.15876 0
M  V30 17899 H 1762.35 5.96495 -4.91338 0
M  V30 17900 H 1760.69 5.36886 -4.41337 0
M  V30 17901 H 1763.88 3.79329 -2.74275 0
M  V30 17902 H 1764.05 5.0991 -3.9987 0
M  V30 17903 N 1757.46 0.791395 1.36289 0
M  V30 17904 C 1758.42 0.197069 2.28351 0
M  V30 17905 C 1759.42 -0.606748 1.48913 0
M  V30 17906 O 1760.61 -0.427453 1.68874 0
M  V30 17907 C 1757.75 -0.727009 3.33058 0
M  V30 17908 H 1758.94 1.00885 2.82422 0
M  V30 17909 H 1756.49 0.560959 1.45887 0
M  V30 17910 H 1757.23 -1.56306 2.84146 0
M  V30 17911 H 1757.01 -0.152537 3.91803 0
M  V30 17912 H 1758.5 -1.13765 4.01805 0
M  V30 17913 N 1758.94 -1.47929 0.54358 0
M  V30 17914 C 1760.22 -1.95535 -0.0505687 0
M  V30 17915 C 1760.6 -1.48603 -1.49934 0
M  V30 17916 O 1759.94 -0.718655 -2.16905 0
M  V30 17917 C 1760.15 -3.48907 0.0807654 0
M  V30 17918 C 1761.5 -4.2454 -0.0715671 0
M  V30 17919 O 1762.53 -3.56199 0.007637 0
M  V30 17920 O 1761.39 -5.45975 -0.239596 0
M  V30 17921 H 1758.48 -0.823883 -0.0717396 0
M  V30 17922 H 1761.03 -1.58391 0.60914 0
M  V30 17923 H 1759.8 -3.75828 1.08944 0
M  V30 17924 H 1759.42 -3.92781 -0.617178 0
M  V30 17925 N 1760.42 -0.27936 -1.55104 0
M  V30 17926 C 1761.66 0.336703 -1.99985 0
M  V30 17927 C 1762 1.55186 -1.16752 0
M  V30 17928 O 1761.27 1.93031 -0.238626 0
M  V30 17929 C 1761.55 0.714701 -3.52936 0
M  V30 17930 C 1761.41 -0.508088 -4.46921 0
M  V30 17931 C 1762.73 1.54953 -4.11919 0
M  V30 17932 H 1759.85 0.120908 -0.727015 0
M  V30 17933 H 1762.49 -0.38715 -1.86014 0
M  V30 17934 H 1760.64 1.33143 -3.64973 0
M  V30 17935 H 1762.31 -1.14664 -4.46822 0
M  V30 17936 H 1760.55 -1.14537 -4.18406 0
M  V30 17937 H 1761.22 -0.199782 -5.51638 0
M  V30 17938 H 1763.7 1.02864 -4.03185 0
M  V30 17939 H 1762.58 1.78282 -5.1914 0
M  V30 17940 H 1762.84 2.53192 -3.62417 0
M  V30 17941 N 1761.9 1.57599 -0.0067085 0
M  V30 17942 C 1762.83 2.05706 1.01084 0
M  V30 17943 C 1763.84 0.976216 1.30284 0
M  V30 17944 O 1765.03 1.25288 1.27142 0
M  V30 17945 C 1762.13 2.44771 2.34393 0
M  V30 17946 C 1761.3 3.75668 2.24036 0
M  V30 17947 C 1760.36 4.01528 3.4009 0
M  V30 17948 O 1759.39 4.72101 3.17977 0
M  V30 17949 N 1760.59 3.49947 4.6316 0
M  V30 17950 H 1763.35 2.93622 0.600532 0
M  V30 17951 H 1760.92 1.6089 0.180536 0
M  V30 17952 H 1762.91 2.5918 3.10818 0
M  V30 17953 H 1761.48 1.62339 2.67142 0
M  V30 17954 H 1760.7 3.71272 1.3248 0
M  V30 17955 H 1761.99 4.6147 2.14295 0
M  V30 17956 H 1761.38 2.92811 4.84023 0
M  V30 17957 H 1759.94 3.69675 5.36828 0
M  V30 17958 N 1763.37 -0.266145 1.55336 0
M  V30 17959 C 1764.31 -1.35489 1.83624 0
M  V30 17960 C 1765.28 -1.47243 0.689795 0
M  V30 17961 O 1766.47 -1.63761 0.933525 0
M  V30 17962 C 1763.6 -2.73057 2.00393 0
M  V30 17963 C 1762.64 -2.78552 3.22972 0
M  V30 17964 S 1763.47 -2.37104 4.80148 0
M  V30 17965 C 1764.63 -3.76634 4.99898 0
M  V30 17966 H 1764.86 -1.11292 2.75684 0
M  V30 17967 H 1762.4 -0.466137 1.47196 0
M  V30 17968 H 1764.35 -3.52277 2.10739 0
M  V30 17969 H 1763.02 -2.94503 1.0921 0
M  V30 17970 H 1762.21 -3.79538 3.31613 0
M  V30 17971 H 1761.81 -2.0736 3.11252 0
M  V30 17972 H 1764.1 -4.71966 4.8606 0
M  V30 17973 H 1765.05 -3.7294 6.01931 0
M  V30 17974 H 1765.45 -3.68254 4.27842 0
M  V30 17975 N 1764.85 -1.48386 -0.530967 0
M  V30 17976 C 1765.76 -1.65516 -1.66257 0
M  V30 17977 C 1766.78 -0.5377 -1.65483 0
M  V30 17978 O 1767.95 -0.808642 -1.84453 0
M  V30 17979 C 1765.02 -1.68999 -3.02722 0
M  V30 17980 C 1764.08 -2.92365 -3.14358 0
M  V30 17981 C 1763.31 -2.95672 -4.44313 0
M  V30 17982 O 1763.54 -2.07417 -5.31352 0
M  V30 17983 O 1762.47 -3.87831 -4.60294 0
M  V30 17984 H 1766.3 -2.61321 -1.54742 0
M  V30 17985 H 1763.88 -1.31776 -0.703946 0
M  V30 17986 H 1765.76 -1.73816 -3.83883 0
M  V30 17987 H 1764.44 -0.763675 -3.14563 0
M  V30 17988 H 1763.34 -2.93081 -2.32496 0
M  V30 17989 H 1764.68 -3.84378 -3.07433 0
M  V30 17990 N 1766.33 0.779763 -1.36958 0
M  V30 17991 C 1767.58 1.53803 -1.31723 0
M  V30 17992 C 1767.9 1.94239 0.100663 0
M  V30 17993 O 1767.16 1.6372 1.07212 0
M  V30 17994 C 1767.46 2.82075 -2.19473 0
M  V30 17995 C 1767.12 2.6073 -3.67873 0
M  V30 17996 C 1765.79 2.54617 -4.08318 0
M  V30 17997 C 1768.14 2.41407 -4.61922 0
M  V30 17998 C 1765.47 2.2716 -5.40939 0
M  V30 17999 C 1767.82 2.15475 -5.94772 0
M  V30 18000 C 1766.48 2.07801 -6.3433 0
M  V30 18001 H 1765.75 0.562804 -0.482009 0
M  V30 18002 H 1768.4 0.898839 -1.69095 0
M  V30 18003 H 1766.7 3.50511 -1.75069 0
M  V30 18004 H 1768.4 3.39915 -2.12741 0
M  V30 18005 H 1764.99 2.66347 -3.35793 0
M  V30 18006 H 1769.18 2.45125 -4.31541 0
M  V30 18007 H 1764.43 2.19708 -5.7056 0
M  V30 18008 H 1768.61 1.9952 -6.67207 0
M  V30 18009 H 1766.23 1.86289 -7.37021 0
M  V30 18010 N 1767.81 1.21396 1.00503 0
M  V30 18011 C 1769.06 1.02536 1.73693 0
M  V30 18012 C 1769.37 -0.441584 1.9055 0
M  V30 18013 O 1770.58 -0.749579 2.60947 0
M  V30 18014 C 1769.03 1.78602 3.12457 0
M  V30 18015 C 1768.64 3.29466 3.03573 0
M  V30 18016 C 1770.38 1.68149 3.89777 0
M  V30 18017 C 1768.29 3.98021 4.37416 0
M  V30 18018 H 1767.22 0.380052 0.651212 0
M  V30 18019 H 1769.87 1.4513 1.12292 0
M  V30 18020 H 1768.25 1.288 3.74468 0
M  V30 18021 H 1769.43 3.8657 2.50799 0
M  V30 18022 H 1767.74 3.4046 2.39741 0
M  V30 18023 H 1770.34 2.167 4.8882 0
M  V30 18024 H 1770.68 0.639716 4.11355 0
M  V30 18025 H 1771.22 2.15428 3.34418 0
M  V30 18026 H 1767.95 5.02401 4.21039 0
M  V30 18027 H 1767.47 3.45706 4.9015 0
M  V30 18028 H 1769.15 4.02932 5.06216 0
M  V30 18029 N 1769.29 -1.19996 1.0217 0
M  V30 18030 C 1770.22 -2.22392 0.55446 0
M  V30 18031 C 1771.23 -1.58636 -0.36586 0
M  V30 18032 O 1772.42 -1.77751 -0.163394 0
M  V30 18033 C 1769.52 -3.38235 -0.212234 0
M  V30 18034 C 1768.69 -4.31578 0.711253 0
M  V30 18035 C 1767.75 -5.26199 -0.00876314 0
M  V30 18036 O 1766.78 -5.65863 0.615435 0
M  V30 18037 N 1767.98 -5.66169 -1.28192 0
M  V30 18038 H 1770.74 -2.63107 1.43509 0
M  V30 18039 H 1768.31 -1.34589 0.899853 0
M  V30 18040 H 1770.3 -3.98542 -0.703282 0
M  V30 18041 H 1768.87 -2.96369 -0.994205 0
M  V30 18042 H 1768.09 -3.69161 1.38252 0
M  V30 18043 H 1769.38 -4.90861 1.33915 0
M  V30 18044 H 1768.77 -5.35966 -1.8099 0
M  V30 18045 H 1767.33 -6.28762 -1.7176 0
M  V30 18046 N 1770.76 -0.798611 -1.35867 0
M  V30 18047 C 1772.01 -0.374519 -1.986 0
M  V30 18048 C 1772.33 1.05984 -1.63684 0
M  V30 18049 O 1771.6 1.73199 -0.915359 0
M  V30 18050 H 1770.18 -0.135492 -0.734609 0
M  V30 18051 H 1772.84 -1.02269 -1.65913 0
M  V30 18052 H 1771.94 -0.473773 -3.08483 0
M  V30 18053 N 1772.24 1.47639 -0.551417 0
M  V30 18054 C 1773.65 1.86336 -0.116513 0
M  V30 18055 C 1774 1.45869 1.31213 0
M  V30 18056 O 1773.13 0.859103 1.98616 0
M  V30 18057 C 1773.72 3.38181 -0.204671 0
M  V30 18058 C 1772.28 3.75992 0.175161 0
M  V30 18059 C 1771.43 2.71692 -0.554843 0
M  V30 18060 H 1774.38 1.39238 -0.761471 0
M  V30 18061 H 1774.4 3.76081 0.578214 0
M  V30 18062 H 1773.91 3.67604 -1.24456 0
M  V30 18063 H 1772.01 3.52186 1.21638 0
M  V30 18064 H 1772.13 4.78764 -0.179368 0
M  V30 18065 H 1770.49 2.547 0.00140775 0
M  V30 18066 H 1771.27 3.03957 -1.59578 0
M  V30 18067 N 1773.72 0.287581 1.54954 0
M  V30 18068 C 1774.67 -0.594449 2.23013 0
M  V30 18069 C 1775.64 -1.14007 1.20795 0
M  V30 18070 O 1776.82 -1.18708 1.49376 0
M  V30 18071 C 1773.96 -1.76687 2.96439 0
M  V30 18072 C 1773.08 -1.25391 4.13402 0
M  V30 18073 C 1772.21 -2.38912 4.74441 0
M  V30 18074 C 1771.25 -1.84683 5.83574 0
M  V30 18075 N 1770.39 -2.91725 6.38624 0
M  V30 18076 H 1775.23 -0.00743921 2.97999 0
M  V30 18077 H 1772.76 0.00809578 1.47098 0
M  V30 18078 H 1774.72 -2.45621 3.37233 0
M  V30 18079 H 1773.35 -2.32571 2.23853 0
M  V30 18080 H 1772.4 -0.45726 3.77642 0
M  V30 18081 H 1773.72 -0.816813 4.92067 0
M  V30 18082 H 1772.87 -3.15818 5.18019 0
M  V30 18083 H 1771.61 -2.85943 3.95079 0
M  V30 18084 H 1770.61 -1.06261 5.39434 0
M  V30 18085 H 1771.84 -1.38572 6.64812 0
M  V30 18086 H 1769.78 -3.38115 5.62152 0
M  V30 18087 H 1769.7 -2.5247 7.12597 0
M  V30 18088 H 1770.97 -3.68569 6.86861 0
M  V30 18089 N 1775.2 -1.57593 0.0150662 0
M  V30 18090 C 1776.11 -2.12807 -0.987437 0
M  V30 18091 C 1777.12 -1.07691 -1.3667 0
M  V30 18092 O 1778.3 -1.39674 -1.45097 0
M  V30 18093 C 1775.37 -2.63276 -2.2558 0
M  V30 18094 C 1774.43 -3.83053 -1.93827 0
M  V30 18095 C 1773.66 -4.31106 -3.14616 0
M  V30 18096 O 1773.88 -3.78405 -4.26809 0
M  V30 18097 O 1772.82 -5.23104 -2.97734 0
M  V30 18098 H 1776.64 -2.98715 -0.548015 0
M  V30 18099 H 1774.23 -1.47991 -0.20469 0
M  V30 18100 H 1776.11 -2.95869 -3.00066 0
M  V30 18101 H 1774.78 -1.80459 -2.68731 0
M  V30 18102 H 1773.69 -3.55409 -1.1677 0
M  V30 18103 H 1775.02 -4.6699 -1.55502 0
M  V30 18104 N 1776.68 0.257904 -1.55475 0
M  V30 18105 C 1777.59 1.34084 -1.92506 0
M  V30 18106 C 1778.6 1.53246 -0.824123 0
M  V30 18107 O 1779.78 1.67081 -1.12455 0
M  V30 18108 C 1776.84 2.67741 -2.20263 0
M  V30 18109 C 1775.9 2.57196 -3.43728 0
M  V30 18110 C 1775.14 3.84479 -3.7015 0
M  V30 18111 O 1775.36 4.85858 -2.98827 0
M  V30 18112 O 1774.29 3.83774 -4.63682 0
M  V30 18113 H 1778.12 1.05672 -2.84723 0
M  V30 18114 H 1775.71 0.457726 -1.42215 0
M  V30 18115 H 1777.59 3.46743 -2.39473 0
M  V30 18116 H 1776.26 2.95907 -1.31227 0
M  V30 18117 H 1775.17 1.76518 -3.29837 0
M  V30 18118 H 1776.5 2.33977 -4.33031 0
M  V30 18119 N 1778.15 1.48666 0.52309 0
M  V30 18120 C 1779.38 1.60965 1.30787 0
M  V30 18121 C 1779.8 0.272663 1.86113 0
M  V30 18122 O 1779.16 -0.756662 1.64755 0
M  V30 18123 C 1779.21 2.66455 2.42969 0
M  V30 18124 O 1778.31 2.24094 3.46202 0
M  V30 18125 H 1777.66 0.539516 0.387064 0
M  V30 18126 H 1780.19 1.94702 0.628683 0
M  V30 18127 H 1780.2 2.87942 2.89056 0
M  V30 18128 H 1778.87 3.63516 2.02062 0
M  V30 18129 H 1777.45 2.12848 3.06186 0
M  V30 18130 N 1779.63 -0.772489 1.37369 0
M  V30 18131 C 1780.58 -1.88575 1.33073 0
M  V30 18132 C 1781.55 -1.64935 0.19641 0
M  V30 18133 O 1782.73 -1.86862 0.385651 0
M  V30 18134 C 1779.87 -3.25628 1.14281 0
M  V30 18135 C 1778.99 -3.61227 2.36936 0
M  V30 18136 C 1778.12 -4.87486 2.11023 0
M  V30 18137 C 1777.16 -5.15814 3.29548 0
M  V30 18138 N 1776.3 -6.33261 3.03191 0
M  V30 18139 H 1781.14 -1.91583 2.28255 0
M  V30 18140 H 1778.68 -0.936654 1.13425 0
M  V30 18141 H 1780.63 -4.04688 1.01407 0
M  V30 18142 H 1779.26 -3.21998 0.227467 0
M  V30 18143 H 1778.32 -2.77158 2.60552 0
M  V30 18144 H 1779.63 -3.781 3.25333 0
M  V30 18145 H 1778.78 -5.74449 1.95176 0
M  V30 18146 H 1777.52 -4.72716 1.19962 0
M  V30 18147 H 1776.53 -4.27328 3.45935 0
M  V30 18148 H 1777.75 -5.32493 4.21459 0
M  V30 18149 H 1775.7 -6.19851 2.14759 0
M  V30 18150 H 1775.61 -6.50546 3.85131 0
M  V30 18151 H 1776.88 -7.23162 2.9096 0
M  V30 18152 N 1781.11 -1.21927 -0.998575 0
M  V30 18153 C 1782.02 -1.00049 -2.12197 0
M  V30 18154 C 1783.04 0.0494414 -1.7393 0
M  V30 18155 O 1784.21 -0.142033 -2.00899 0
M  V30 18156 C 1781.28 -0.574871 -3.41901 0
M  V30 18157 C 1780.34 -1.69776 -3.94303 0
M  V30 18158 C 1779.57 -1.29236 -5.17816 0
M  V30 18159 O 1779.79 -0.168709 -5.7015 0
M  V30 18160 O 1778.73 -2.10671 -5.63827 0
M  V30 18161 H 1782.55 -1.94154 -2.33534 0
M  V30 18162 H 1780.14 -1.00472 -1.10571 0
M  V30 18163 H 1782.02 -0.347603 -4.19964 0
M  V30 18164 H 1780.7 0.337389 -3.21937 0
M  V30 18165 H 1779.6 -1.9795 -3.17438 0
M  V30 18166 H 1780.94 -2.58768 -4.18688 0
M  V30 18167 N 1782.59 1.19452 -1.02805 0
M  V30 18168 C 1783.82 1.93075 -0.743624 0
M  V30 18169 C 1784.23 1.75446 0.697425 0
M  V30 18170 O 1783.59 1.07583 1.47418 0
M  V30 18171 C 1783.64 3.44855 -1.08431 0
M  V30 18172 O 1783.36 3.61916 -2.46877 0
M  V30 18173 C 1784.86 4.35601 -0.822571 0
M  V30 18174 H 1782.08 0.613327 -0.272159 0
M  V30 18175 H 1784.63 1.51617 -1.37232 0
M  V30 18176 H 1782.78 3.84149 -0.500812 0
M  V30 18177 H 1783.19 4.55785 -2.59538 0
M  V30 18178 H 1784.67 5.40706 -1.11092 0
M  V30 18179 H 1785.15 4.38527 0.243026 0
M  V30 18180 H 1785.75 4.01987 -1.38876 0
M  V30 18181 N 1784.07 0.805805 1.35442 0
M  V30 18182 C 1785.48 0.446863 1.81273 0
M  V30 18183 C 1785.83 -1.03104 1.66925 0
M  V30 18184 O 1784.95 -1.80117 1.19945 0
M  V30 18185 C 1785.55 0.80433 3.29114 0
M  V30 18186 C 1784.11 0.497997 3.73091 0
M  V30 18187 C 1783.25 1.03035 2.57447 0
M  V30 18188 H 1786.21 0.997517 1.23431 0
M  V30 18189 H 1786.23 0.101559 3.80364 0
M  V30 18190 H 1785.74 1.88001 3.39525 0
M  V30 18191 H 1783.84 -0.568982 3.6823 0
M  V30 18192 H 1783.95 1.03008 4.67896 0
M  V30 18193 H 1782.32 0.452716 2.50644 0
M  V30 18194 H 1783.1 2.11213 2.70636 0
M  V30 18195 N 1785.54 -1.47344 0.559239 0
M  V30 18196 C 1786.82 -1.95577 -0.0298268 0
M  V30 18197 C 1787.2 -1.50185 -1.4835 0
M  V30 18198 O 1786.55 -0.74162 -2.1613 0
M  V30 18199 C 1786.76 -3.48801 0.117767 0
M  V30 18200 C 1788.11 -4.24592 -0.026535 0
M  V30 18201 O 1789.13 -3.56171 0.0454163 0
M  V30 18202 O 1787.99 -5.46198 -0.181675 0
M  V30 18203 H 1785.08 -0.824597 -0.0629972 0
M  V30 18204 H 1787.63 -1.57736 0.625905 0
M  V30 18205 H 1786.4 -3.74652 1.12924 0
M  V30 18206 H 1786.03 -3.93413 -0.575483 0
M  V30 18207 N 1787.02 -0.295795 -1.54799 0
M  V30 18208 C 1788.27 0.315754 -1.99213 0
M  V30 18209 C 1788.58 1.55405 -1.18779 0
M  V30 18210 O 1789.79 2.23986 -1.53436 0
M  V30 18211 C 1788.25 0.613119 -3.54639 0
M  V30 18212 C 1787.85 -0.606546 -4.43875 0
M  V30 18213 C 1789.6 1.18615 -4.07591 0
M  V30 18214 C 1787.51 -0.282622 -5.90724 0
M  V30 18215 H 1786.44 0.121758 -0.744104 0
M  V30 18216 H 1789.09 -0.403686 -1.79005 0
M  V30 18217 H 1787.47 1.39202 -3.70728 0
M  V30 18218 H 1788.64 -1.3829 -4.39559 0
M  V30 18219 H 1786.96 -1.09785 -4.01667 0
M  V30 18220 H 1789.55 1.44266 -5.1487 0
M  V30 18221 H 1789.9 2.12674 -3.57876 0
M  V30 18222 H 1790.43 0.469078 -3.95025 0
M  V30 18223 H 1787.17 -1.19164 -6.44578 0
M  V30 18224 H 1786.69 0.456564 -5.9806 0
M  V30 18225 H 1788.37 0.117703 -6.46893 0
M  V30 18226 N 1788.5 1.57583 -0.0234236 0
M  V30 18227 C 1789.73 1.96267 0.670371 0
M  V30 18228 C 1790.15 0.899586 1.65194 0
M  V30 18229 O 1789.51 -0.140079 1.80758 0
M  V30 18230 C 1789.56 3.34049 1.35806 0
M  V30 18231 O 1788.66 3.3001 2.4732 0
M  V30 18232 H 1788 0.640097 0.176557 0
M  V30 18233 H 1790.53 2.04429 -0.0835829 0
M  V30 18234 H 1790.54 3.70151 1.71616 0
M  V30 18235 H 1789.22 4.10969 0.63852 0
M  V30 18236 H 1787.79 3.05618 2.13664 0
M  V30 18237 N 1789.98 -0.249655 1.5561 0
M  V30 18238 C 1791.23 -0.975982 1.76515 0
M  V30 18239 C 1791.54 -1.86589 0.586843 0
M  V30 18240 O 1792.75 -2.62876 0.678844 0
M  V30 18241 C 1791.2 -1.7854 3.12492 0
M  V30 18242 C 1790.81 -0.943014 4.37963 0
M  V30 18243 C 1792.56 -2.50462 3.42737 0
M  V30 18244 C 1790.46 -1.74816 5.64972 0
M  V30 18245 H 1789.39 -0.368139 0.65802 0
M  V30 18246 H 1792.04 -0.230745 1.82043 0
M  V30 18247 H 1790.43 -2.57248 3.01064 0
M  V30 18248 H 1791.6 -0.198453 4.60372 0
M  V30 18249 H 1789.91 -0.337249 4.15032 0
M  V30 18250 H 1792.51 -3.1115 4.34845 0
M  V30 18251 H 1792.85 -3.21938 2.63935 0
M  V30 18252 H 1793.39 -1.78767 3.55369 0
M  V30 18253 H 1790.13 -1.07719 6.46589 0
M  V30 18254 H 1789.65 -2.46807 5.46668 0
M  V30 18255 H 1791.33 -2.31599 6.04128 0
M  V30 18256 N 1791.46 -1.48941 -0.515198 0
M  V30 18257 C 1792.69 -1.61396 -1.29457 0
M  V30 18258 C 1793.1 -0.279847 -1.86714 0
M  V30 18259 O 1792.46 0.732861 -1.67139 0
M  V30 18260 C 1792.51 -2.67194 -2.43494 0
M  V30 18261 O 1792.23 -3.95429 -1.88593 0
M  V30 18262 C 1793.73 -2.90224 -3.35089 0
M  V30 18263 H 1790.95 -0.543754 -0.393157 0
M  V30 18264 H 1793.49 -1.94875 -0.619996 0
M  V30 18265 H 1791.65 -2.36532 -3.06808 0
M  V30 18266 H 1792.06 -4.53593 -2.63351 0
M  V30 18267 H 1793.54 -3.68018 -4.1142 0
M  V30 18268 H 1794.01 -1.99601 -3.91224 0
M  V30 18269 H 1794.62 -3.22247 -2.77555 0
M  V30 18270 N 1792.94 0.765193 -1.37777 0
M  V30 18271 C 1794.35 1.34186 -1.29811 0
M  V30 18272 C 1794.7 1.96133 0.0513426 0
M  V30 18273 O 1793.82 1.94272 0.953273 0
M  V30 18274 C 1794.42 2.43975 -2.35078 0
M  V30 18275 C 1792.98 2.97393 -2.30726 0
M  V30 18276 C 1792.12 1.70667 -2.18559 0
M  V30 18277 H 1795.07 0.564948 -1.48304 0
M  V30 18278 H 1795.1 3.23622 -2.00123 0
M  V30 18279 H 1794.61 1.98859 -3.33282 0
M  V30 18280 H 1792.71 3.46867 -1.36067 0
M  V30 18281 H 1792.82 3.52561 -3.24403 0
M  V30 18282 H 1791.19 1.93846 -1.65215 0
M  V30 18283 H 1791.97 1.27645 -3.18687 0
M  V30 18284 N 1794.41 1.22455 0.992094 0
M  V30 18285 C 1795.64 1.07677 1.77258 0
M  V30 18286 C 1796.06 -0.368377 1.84458 0
M  V30 18287 O 1795.42 -1.26614 1.29763 0
M  V30 18288 C 1795.47 1.69353 3.18358 0
M  V30 18289 O 1794.57 0.947746 4.01362 0
M  V30 18290 H 1793.91 0.378141 0.545807 0
M  V30 18291 H 1796.44 1.62269 1.2462 0
M  V30 18292 H 1796.45 1.7411 3.68985 0
M  V30 18293 H 1795.13 2.74515 3.12433 0
M  V30 18294 H 1793.71 0.976245 3.59894 0
M  V30 18295 N 1795.89 -1.18905 1.03437 0
M  V30 18296 C 1797.17 -1.84537 0.648503 0
M  V30 18297 C 1797.55 -1.92228 -0.872445 0
M  V30 18298 O 1796.9 -1.44342 -1.77137 0
M  V30 18299 C 1797.11 -3.23198 1.31698 0
M  V30 18300 C 1798.45 -3.99301 1.44374 0
M  V30 18301 O 1799.48 -3.32615 1.27458 0
M  V30 18302 O 1798.34 -5.18767 1.7188 0
M  V30 18303 H 1795.43 -0.795488 0.226114 0
M  V30 18304 H 1797.98 -1.2635 1.13287 0
M  V30 18305 H 1796.75 -3.12466 2.35543 0
M  V30 18306 H 1796.37 -3.89035 0.820829 0
M  V30 18307 N 1797.37 -0.812977 -1.35013 0
M  V30 18308 C 1798.62 -0.396932 -1.98878 0
M  V30 18309 C 1798.95 1.03486 -1.6433 0
M  V30 18310 O 1798.22 1.71906 -0.90986 0
M  V30 18311 C 1798.51 -0.587911 -3.55268 0
M  V30 18312 C 1798.36 -2.06509 -3.99592 0
M  V30 18313 C 1799.68 -0.017593 -4.40096 0
M  V30 18314 H 1796.8 -0.145695 -0.722455 0
M  V30 18315 H 1799.44 -1.0237 -1.60064 0
M  V30 18316 H 1797.59 -0.0543785 -3.88462 0
M  V30 18317 H 1799.26 -2.6615 -3.76778 0
M  V30 18318 H 1797.5 -2.55921 -3.50267 0
M  V30 18319 H 1798.18 -2.14958 -5.08426 0
M  V30 18320 H 1800.65 -0.473317 -4.13399 0
M  V30 18321 H 1799.53 -0.18109 -5.48601 0
M  V30 18322 H 1799.79 1.07664 -4.2879 0
M  V30 18323 N 1798.85 1.47045 -0.567045 0
M  V30 18324 C 1799.81 2.28607 0.164758 0
M  V30 18325 C 1800.81 1.37509 0.833542 0
M  V30 18326 O 1802 1.60043 0.687895 0
M  V30 18327 C 1799.13 3.17466 1.24211 0
M  V30 18328 H 1800.33 2.9478 -0.551814 0
M  V30 18329 H 1797.88 1.52897 -0.324376 0
M  V30 18330 H 1798.61 2.56006 1.99076 0
M  V30 18331 H 1798.4 3.8452 0.767243 0
M  V30 18332 H 1799.89 3.78894 1.75582 0
M  V30 18333 N 1800.33 0.304 1.5464 0
M  V30 18334 C 1801.24 -0.580159 2.27313 0
M  V30 18335 C 1802.25 -1.14588 1.30941 0
M  V30 18336 O 1803.43 -1.17002 1.63928 0
M  V30 18337 C 1800.49 -1.73437 3.00201 0
M  V30 18338 C 1799.55 -1.20243 4.12116 0
M  V30 18339 C 1798.79 -2.30164 4.81519 0
M  V30 18340 O 1799.01 -3.50123 4.503 0
M  V30 18341 O 1797.94 -1.96686 5.68857 0
M  V30 18342 H 1801.77 0.00944552 3.03699 0
M  V30 18343 H 1799.35 0.0703565 1.49234 0
M  V30 18344 H 1801.24 -2.40677 3.45908 0
M  V30 18345 H 1799.91 -2.31053 2.26708 0
M  V30 18346 H 1798.82 -0.495679 3.70802 0
M  V30 18347 H 1800.15 -0.67167 4.87596 0
M  V30 18348 N 1801.8 -1.57568 0.0317802 0
M  V30 18349 C 1803.21 -1.79693 -0.506679 0
M  V30 18350 C 1803.57 -0.94229 -1.72091 0
M  V30 18351 O 1802.69 -0.153435 -2.15855 0
M  V30 18352 C 1803.29 -3.259 -0.925978 0
M  V30 18353 C 1801.84 -3.49012 -1.40953 0
M  V30 18354 C 1800.99 -2.74746 -0.375509 0
M  V30 18355 H 1803.94 -1.56592 0.257798 0
M  V30 18356 H 1803.96 -3.35757 -1.79017 0
M  V30 18357 H 1803.48 -3.88077 -0.0420441 0
M  V30 18358 H 1801.58 -2.9209 -2.31331 0
M  V30 18359 H 1801.69 -4.57725 -1.41508 0
M  V30 18360 H 1800.05 -2.40303 -0.844187 0
M  V30 18361 H 1800.84 -3.39639 0.500005 0
M  V30 18362 N 1803.28 0.241399 -1.5574 0
M  V30 18363 C 1804.21 1.30255 -1.93793 0
M  V30 18364 C 1805.19 1.49923 -0.803563 0
M  V30 18365 O 1806.38 1.62439 -1.06429 0
M  V30 18366 C 1803.51 2.65625 -2.23742 0
M  V30 18367 C 1802.46 2.60645 -3.39483 0
M  V30 18368 C 1801.79 3.99861 -3.54986 0
M  V30 18369 C 1803.09 2.17151 -4.75019 0
M  V30 18370 H 1804.78 0.986532 -2.8268 0
M  V30 18371 H 1802.33 0.473125 -1.36006 0
M  V30 18372 H 1804.28 3.40001 -2.48953 0
M  V30 18373 H 1803.01 2.98874 -1.31688 0
M  V30 18374 H 1801.66 1.88727 -3.14289 0
M  V30 18375 H 1801.31 4.30385 -2.60342 0
M  V30 18376 H 1801.01 3.97415 -4.32822 0
M  V30 18377 H 1802.54 4.75928 -3.82524 0
M  V30 18378 H 1803.95 2.8126 -4.99565 0
M  V30 18379 H 1802.35 2.25805 -5.55996 0
M  V30 18380 H 1803.42 1.12329 -4.7171 0
M  V30 18381 N 1804.76 1.49212 0.507292 0
M  V30 18382 C 1805.71 1.61812 1.60626 0
M  V30 18383 C 1806.69 0.474071 1.53758 0
M  V30 18384 O 1807.89 0.726703 1.61394 0
M  V30 18385 C 1805.02 1.68213 2.99265 0
M  V30 18386 C 1804.1 2.88174 3.11153 0
M  V30 18387 N 1804.49 4.12328 2.92949 0
M  V30 18388 C 1802.79 2.8598 3.42245 0
M  V30 18389 C 1803.49 4.92935 3.08853 0
M  V30 18390 N 1802.47 4.2618 3.37449 0
M  V30 18391 H 1806.27 2.5553 1.45196 0
M  V30 18392 H 1803.78 1.45898 0.71328 0
M  V30 18393 H 1805.78 1.75336 3.78236 0
M  V30 18394 H 1804.44 0.756279 3.1577 0
M  V30 18395 H 1805.45 4.42408 2.6925 0
M  V30 18396 H 1802.13 2.02748 3.64965 0
M  V30 18397 H 1803.52 6.01543 2.99324 0
M  V30 18398 N 1806.24 -0.757876 1.38181 0
M  V30 18399 C 1807.15 -1.90234 1.37289 0
M  V30 18400 C 1808.16 -1.71883 0.270567 0
M  V30 18401 O 1809.34 -1.94881 0.508279 0
M  V30 18402 C 1806.41 -3.25546 1.19251 0
M  V30 18403 C 1805.47 -3.56452 2.39249 0
M  V30 18404 C 1804.7 -4.85308 2.22063 0
M  V30 18405 O 1804.92 -5.57373 1.2121 0
M  V30 18406 O 1803.86 -5.15594 3.10558 0
M  V30 18407 H 1807.68 -1.9394 2.33711 0
M  V30 18408 H 1805.27 -0.902559 1.19056 0
M  V30 18409 H 1807.15 -4.06454 1.11235 0
M  V30 18410 H 1805.82 -3.22661 0.259109 0
M  V30 18411 H 1804.73 -2.75723 2.52839 0
M  V30 18412 H 1806.06 -3.64094 3.31205 0
M  V30 18413 N 1807.72 -1.22979 -0.985586 0
M  V30 18414 C 1808.94 -1.0853 -1.7615 0
M  V30 18415 C 1809.36 0.36363 -1.85265 0
M  V30 18416 O 1808.72 1.25173 -1.32808 0
M  V30 18417 C 1808.77 -1.69872 -3.19101 0
M  V30 18418 O 1808.49 -3.09098 -3.10467 0
M  V30 18419 C 1809.99 -1.60795 -4.1311 0
M  V30 18420 H 1807.21 -0.380086 -0.55297 0
M  V30 18421 H 1809.75 -1.62724 -1.2386 0
M  V30 18422 H 1807.91 -1.19724 -3.68436 0
M  V30 18423 H 1808.32 -3.38769 -4.00419 0
M  V30 18424 H 1809.8 -2.08428 -5.11138 0
M  V30 18425 H 1810.27 -0.565817 -4.3554 0
M  V30 18426 H 1810.88 -2.10284 -3.69676 0
M  V30 18427 N 1809.19 1.18355 -1.04066 0
M  V30 18428 C 1810.44 1.87665 -0.73923 0
M  V30 18429 C 1810.76 1.81226 0.735963 0
M  V30 18430 O 1811.96 2.45899 1.15091 0
M  V30 18431 C 1810.42 3.36671 -1.27203 0
M  V30 18432 C 1810.03 3.5164 -2.77585 0
M  V30 18433 C 1811.77 4.11383 -1.04712 0
M  V30 18434 C 1809.68 4.94605 -3.24222 0
M  V30 18435 H 1808.61 0.702908 -0.27283 0
M  V30 18436 H 1811.26 1.33733 -1.25649 0
M  V30 18437 H 1809.64 3.90072 -0.682621 0
M  V30 18438 H 1810.81 3.08511 -3.42283 0
M  V30 18439 H 1809.13 2.90334 -2.98488 0
M  V30 18440 H 1811.73 5.16832 -1.37071 0
M  V30 18441 H 1812.07 4.16297 0.0156344 0
M  V30 18442 H 1812.6 3.64154 -1.60114 0
M  V30 18443 H 1809.34 4.94859 -4.29878 0
M  V30 18444 H 1808.86 5.38449 -2.6426 0
M  V30 18445 H 1810.54 5.6332 -3.18245 0
M  V30 18446 N 1810.67 0.820125 1.3458 0
M  V30 18447 C 1811.92 0.407473 1.98664 0
M  V30 18448 C 1812.25 -1.02613 1.64877 0
M  V30 18449 O 1811.53 -1.71421 0.918964 0
M  V30 18450 C 1811.81 0.606744 3.54952 0
M  V30 18451 C 1811.66 2.08626 3.98491 0
M  V30 18452 C 1812.98 0.0409321 4.40081 0
M  V30 18453 H 1810.1 0.149524 0.721673 0
M  V30 18454 H 1812.74 1.03217 1.59519 0
M  V30 18455 H 1810.89 0.0749788 3.88428 0
M  V30 18456 H 1812.56 2.68144 3.75361 0
M  V30 18457 H 1810.81 2.57774 3.48905 0
M  V30 18458 H 1811.48 2.17651 5.07279 0
M  V30 18459 H 1813.95 0.495234 4.13142 0
M  V30 18460 H 1812.83 0.210182 5.48497 0
M  V30 18461 H 1813.09 -1.05389 4.29355 0
M  V30 18462 N 1812.15 -1.46743 0.574835 0
M  V30 18463 C 1813.38 -2.07311 0.0608779 0
M  V30 18464 C 1813.8 -1.422 -1.23129 0
M  V30 18465 O 1813.16 -0.503042 -1.74181 0
M  V30 18466 C 1813.21 -3.60462 -0.0996676 0
M  V30 18467 O 1812.31 -3.95806 -1.15808 0
M  V30 18468 H 1811.65 -0.661351 0.0592542 0
M  V30 18469 H 1814.18 -1.885 0.795538 0
M  V30 18470 H 1814.19 -4.06833 -0.308329 0
M  V30 18471 H 1812.87 -4.07246 0.844018 0
M  V30 18472 H 1811.44 -3.61155 -0.928504 0
M  V30 18473 N 1813.63 -0.312197 -1.54477 0
M  V30 18474 C 1814.54 0.568096 -2.27618 0
M  V30 18475 C 1815.55 1.13892 -1.31547 0
M  V30 18476 O 1816.73 1.16131 -1.64546 0
M  V30 18477 C 1813.8 1.71843 -3.01116 0
M  V30 18478 C 1812.86 1.18056 -4.12748 0
M  V30 18479 C 1812.09 2.27607 -4.82733 0
M  V30 18480 O 1812.31 3.4773 -4.52151 0
M  V30 18481 O 1811.25 1.93667 -5.69892 0
M  V30 18482 H 1815.07 -0.0255513 -3.03689 0
M  V30 18483 H 1812.66 -0.0782698 -1.49195 0
M  V30 18484 H 1814.54 2.38839 -3.4718 0
M  V30 18485 H 1813.21 2.29847 -2.2793 0
M  V30 18486 H 1812.12 0.476007 -3.71059 0
M  V30 18487 H 1813.45 0.645802 -4.87945 0
M  V30 18488 N 1815.11 1.57549 -0.040136 0
M  V30 18489 C 1816.52 1.79959 0.497142 0
M  V30 18490 C 1816.87 0.951403 1.71589 0
M  V30 18491 O 1815.99 0.16488 2.15771 0
M  V30 18492 C 1816.59 3.26387 0.908682 0
M  V30 18493 C 1815.15 3.49754 1.39101 0
M  V30 18494 C 1814.29 2.74941 0.360933 0
M  V30 18495 H 1817.25 1.56453 -0.266099 0
M  V30 18496 H 1817.27 3.36702 1.77234 0
M  V30 18497 H 1816.78 3.88094 0.0214628 0
M  V30 18498 H 1814.88 2.93313 2.29778 0
M  V30 18499 H 1814.99 4.58469 1.39078 0
M  V30 18500 H 1813.36 2.40747 0.831432 0
M  V30 18501 H 1814.14 3.39369 -0.51801 0
M  V30 18502 N 1816.58 -0.233136 1.55866 0
M  V30 18503 C 1817.55 -1.27227 1.90646 0
M  V30 18504 C 1818.55 -1.4039 0.784038 0
M  V30 18505 O 1819.74 -1.38854 1.05191 0
M  V30 18506 C 1816.87 -2.64791 2.14706 0
M  V30 18507 H 1818.06 -0.975986 2.83575 0
M  V30 18508 H 1815.62 -0.473045 1.4897 0
M  V30 18509 H 1816.35 -2.99537 1.24291 0
M  V30 18510 H 1816.14 -2.56615 2.96464 0
M  V30 18511 H 1817.63 -3.39797 2.4275 0
M  V30 18512 N 1818.06 -1.49479 -0.499372 0
M  V30 18513 C 1818.97 -1.69006 -1.62709 0
M  V30 18514 C 1819.99 -0.572681 -1.64306 0
M  V30 18515 O 1821.17 -0.847586 -1.82696 0
M  V30 18516 C 1818.23 -1.75382 -2.99069 0
M  V30 18517 C 1817.29 -2.98968 -3.08086 0
M  V30 18518 C 1816.52 -3.0503 -4.37941 0
M  V30 18519 O 1816.75 -2.18641 -5.26832 0
M  V30 18520 O 1815.68 -3.97507 -4.51964 0
M  V30 18521 H 1819.51 -2.64544 -1.49164 0
M  V30 18522 H 1817.09 -1.3324 -0.675836 0
M  V30 18523 H 1818.97 -1.81919 -3.8011 0
M  V30 18524 H 1817.65 -0.830226 -3.12872 0
M  V30 18525 H 1816.56 -2.97947 -2.26227 0
M  V30 18526 H 1817.89 -3.90812 -2.9921 0
M  V30 18527 N 1819.54 0.750537 -1.38581 0
M  V30 18528 C 1820.79 1.50512 -1.34272 0
M  V30 18529 C 1821.1 1.95496 0.0636858 0
M  V30 18530 O 1822.31 2.7053 0.22932 0
M  V30 18531 C 1820.77 2.71891 -2.35803 0
M  V30 18532 C 1820.37 2.3392 -3.8208 0
M  V30 18533 C 1822.12 3.4977 -2.40543 0
M  V30 18534 C 1820.02 3.51928 -4.7529 0
M  V30 18535 H 1818.95 0.56515 -0.49912 0
M  V30 18536 H 1821.61 0.820167 -1.64151 0
M  V30 18537 H 1819.99 3.42383 -1.98972 0
M  V30 18538 H 1821.16 1.71075 -4.27867 0
M  V30 18539 H 1819.48 1.69168 -3.80488 0
M  V30 18540 H 1822.07 4.37519 -3.07379 0
M  V30 18541 H 1822.42 3.91141 -1.42527 0
M  V30 18542 H 1822.95 2.86294 -2.76189 0
M  V30 18543 H 1819.69 3.15621 -5.74512 0
M  V30 18544 H 1819.21 4.13807 -4.34194 0
M  V30 18545 H 1820.89 4.1847 -4.93449 0
M  V30 18546 N 1821.02 1.235 0.979051 0
M  V30 18547 C 1821.95 0.975198 2.07419 0
M  V30 18548 C 1822.96 -0.0512875 1.62719 0
M  V30 18549 O 1824.15 0.184403 1.77545 0
M  V30 18550 C 1821.25 0.447701 3.3593 0
M  V30 18551 C 1820.43 1.53467 4.09593 0
M  V30 18552 C 1819.49 1.01181 5.16381 0
M  V30 18553 O 1818.51 1.70108 5.43187 0
M  V30 18554 N 1819.71 -0.159667 5.8028 0
M  V30 18555 H 1822.48 1.91806 2.30283 0
M  V30 18556 H 1820.04 1.14377 1.14584 0
M  V30 18557 H 1822.03 0.0829228 4.04615 0
M  V30 18558 H 1820.6 -0.400613 3.10022 0
M  V30 18559 H 1819.82 2.07215 3.35344 0
M  V30 18560 H 1821.11 2.2656 4.55574 0
M  V30 18561 H 1820.51 -0.736193 5.60889 0
M  V30 18562 H 1819.06 -0.465696 6.50134 0
M  V30 18563 N 1822.5 -1.17802 1.04693 0
M  V30 18564 C 1823.72 -1.92408 0.774194 0
M  V30 18565 C 1824.15 -1.76012 -0.663424 0
M  V30 18566 O 1823.51 -1.07447 -1.4603 0
M  V30 18567 C 1823.55 -3.4166 1.1533 0
M  V30 18568 O 1822.66 -4.11431 0.282469 0
M  V30 18569 H 1822 -0.600033 0.284353 0
M  V30 18570 H 1824.53 -1.49348 1.39844 0
M  V30 18571 H 1824.54 -3.92386 1.11791 0
M  V30 18572 H 1823.21 -3.52914 2.20056 0
M  V30 18573 H 1821.79 -3.70979 0.378021 0
M  V30 18574 N 1823.98 -0.827251 -1.34143 0
M  V30 18575 C 1824.89 -0.254285 -2.33218 0
M  V30 18576 C 1825.9 0.613602 -1.62822 0
M  V30 18577 O 1827.08 0.520477 -1.94558 0
M  V30 18578 C 1824.14 0.570817 -3.41969 0
M  V30 18579 C 1823.2 -0.319978 -4.28106 0
M  V30 18580 C 1822.44 0.465839 -5.31663 0
M  V30 18581 O 1822.66 1.6987 -5.44518 0
M  V30 18582 O 1821.59 -0.154094 -6.01703 0
M  V30 18583 H 1825.42 -1.07441 -2.8406 0
M  V30 18584 H 1823 -0.589493 -1.37278 0
M  V30 18585 H 1824.89 1.04009 -4.08363 0
M  V30 18586 H 1823.56 1.3682 -2.93363 0
M  V30 18587 H 1822.47 -0.836843 -3.6462 0
M  V30 18588 H 1823.8 -1.08183 -4.80164 0
M  V30 18589 N 1825.45 1.46436 -0.582609 0
M  V30 18590 C 1826.36 2.34099 0.153178 0
M  V30 18591 C 1827.38 1.49745 0.886135 0
M  V30 18592 O 1828.56 1.82615 0.849341 0
M  V30 18593 C 1825.62 3.26929 1.15404 0
M  V30 18594 C 1824.68 4.27183 0.425764 0
M  V30 18595 C 1823.91 5.15578 1.37895 0
M  V30 18596 O 1824.14 5.06903 2.61545 0
M  V30 18597 O 1823.07 5.9529 0.889585 0
M  V30 18598 H 1826.9 2.98368 -0.566585 0
M  V30 18599 H 1824.48 1.45409 -0.343013 0
M  V30 18600 H 1826.36 3.842 1.73114 0
M  V30 18601 H 1825.04 2.65257 1.85527 0
M  V30 18602 H 1823.95 3.73601 -0.193175 0
M  V30 18603 H 1825.28 4.91641 -0.234496 0
M  V30 18604 N 1826.93 0.320385 1.54309 0
M  V30 18605 C 1827.84 -0.556017 2.27916 0
M  V30 18606 C 1828.86 -1.13192 1.32149 0
M  V30 18607 O 1830.03 -1.15257 1.6516 0
M  V30 18608 C 1827.1 -1.70244 3.02023 0
M  V30 18609 C 1826.16 -1.15866 4.13369 0
M  V30 18610 C 1825.39 -2.25044 4.83933 0
M  V30 18611 O 1825.62 -3.45327 4.53988 0
M  V30 18612 O 1824.55 -1.90642 5.70911 0
M  V30 18613 H 1828.38 0.0416563 3.03671 0
M  V30 18614 H 1825.96 0.0861809 1.49151 0
M  V30 18615 H 1827.84 -2.36995 3.48442 0
M  V30 18616 H 1826.52 -2.28635 2.29146 0
M  V30 18617 H 1825.42 -0.456323 3.71306 0
M  V30 18618 H 1826.76 -0.619916 4.88281 0
M  V30 18619 N 1828.41 -1.57525 0.0484906 0
M  V30 18620 C 1829.32 -2.14854 -0.942076 0
M  V30 18621 C 1830.34 -1.10565 -1.34355 0
M  V30 18622 O 1831.51 -1.4272 -1.42102 0
M  V30 18623 C 1828.58 -2.68002 -2.19945 0
M  V30 18624 C 1827.64 -3.87078 -1.85658 0
M  V30 18625 C 1826.87 -4.37682 -3.05401 0
M  V30 18626 O 1827.09 -3.87373 -4.18687 0
M  V30 18627 O 1826.03 -5.29302 -2.86571 0
M  V30 18628 H 1829.85 -2.9981 -0.48453 0
M  V30 18629 H 1827.44 -1.48392 -0.173252 0
M  V30 18630 H 1829.32 -3.02167 -2.93722 0
M  V30 18631 H 1828 -1.86118 -2.64843 0
M  V30 18632 H 1826.9 -3.57806 -1.09205 0
M  V30 18633 H 1828.24 -4.70184 -1.45562 0
M  V30 18634 N 1829.89 0.224867 -1.55988 0
M  V30 18635 C 1831.14 0.947776 -1.78045 0
M  V30 18636 C 1831.45 1.85632 -0.616454 0
M  V30 18637 O 1832.66 2.61763 -0.720579 0
M  V30 18638 C 1831.11 1.73546 -3.15293 0
M  V30 18639 C 1830.72 0.873219 -4.39407 0
M  V30 18640 C 1832.46 2.44978 -3.46679 0
M  V30 18641 C 1830.37 1.65806 -5.67682 0
M  V30 18642 H 1829.3 0.357623 -0.663793 0
M  V30 18643 H 1831.95 0.201754 -1.82388 0
M  V30 18644 H 1830.33 2.52426 -3.05118 0
M  V30 18645 H 1831.51 0.125187 -4.6063 0
M  V30 18646 H 1829.82 0.271179 -4.15516 0
M  V30 18647 H 1832.42 3.04192 -4.3974 0
M  V30 18648 H 1832.76 3.17699 -2.69023 0
M  V30 18649 H 1833.3 1.7309 -3.58168 0
M  V30 18650 H 1830.03 0.974191 -6.4822 0
M  V30 18651 H 1829.55 2.38079 -5.50526 0
M  V30 18652 H 1831.23 2.21959 -6.07736 0
M  V30 18653 N 1831.37 1.49742 0.491438 0
M  V30 18654 C 1832.28 1.69866 1.6181 0
M  V30 18655 C 1833.29 0.581386 1.64 0
M  V30 18656 O 1834.47 0.857263 1.82244 0
M  V30 18657 C 1831.53 1.76965 2.98135 0
M  V30 18658 C 1830.59 3.00597 3.06496 0
M  V30 18659 C 1829.83 3.07348 4.36317 0
M  V30 18660 O 1830.05 2.21432 5.25665 0
M  V30 18661 O 1828.98 3.99898 4.4985 0
M  V30 18662 H 1832.81 2.65332 1.47759 0
M  V30 18663 H 1830.39 1.33596 0.668761 0
M  V30 18664 H 1832.28 1.83932 3.7914 0
M  V30 18665 H 1830.95 0.846807 3.12427 0
M  V30 18666 H 1829.86 2.99142 2.24643 0
M  V30 18667 H 1831.19 3.92393 2.97133 0
M  V30 18668 N 1832.84 -0.743177 1.38977 0
M  V30 18669 C 1833.81 -1.83876 1.36829 0
M  V30 18670 C 1834.81 -1.5857 0.266875 0
M  V30 18671 O 1836 -1.66121 0.524337 0
M  V30 18672 C 1833.13 -3.21528 1.1328 0
M  V30 18673 H 1834.32 -1.87186 2.3431 0
M  V30 18674 H 1831.88 -0.945979 1.24422 0
M  V30 18675 H 1832.61 -3.23883 0.164474 0
M  V30 18676 H 1832.4 -3.41292 1.93034 0
M  V30 18677 H 1833.89 -4.01597 1.14498 0
M  V30 18678 N 1834.32 -1.24018 -0.972487 0
M  V30 18679 C 1835.25 -0.986185 -2.06899 0
M  V30 18680 C 1836.27 0.0426574 -1.62744 0
M  V30 18681 O 1837.46 -0.193816 -1.77445 0
M  V30 18682 C 1834.56 -0.46551 -3.35688 0
M  V30 18683 C 1833.73 -1.55637 -4.08774 0
M  V30 18684 C 1832.79 -1.03918 -5.15837 0
M  V30 18685 O 1831.81 -1.72986 -5.42277 0
M  V30 18686 N 1833.02 0.128891 -5.80357 0
M  V30 18687 H 1835.78 -1.93025 -2.29263 0
M  V30 18688 H 1833.34 -1.14983 -1.13976 0
M  V30 18689 H 1835.33 -0.104379 -4.04565 0
M  V30 18690 H 1833.9 0.384166 -3.1023 0
M  V30 18691 H 1833.12 -2.08991 -3.3424 0
M  V30 18692 H 1834.41 -2.28973 -4.54366 0
M  V30 18693 H 1833.81 0.706438 -5.61272 0
M  V30 18694 H 1832.37 0.431211 -6.50372 0
M  V30 18695 N 1835.8 1.17245 -1.05316 0
M  V30 18696 C 1837.05 1.87165 -0.762471 0
M  V30 18697 C 1837.37 1.8151 0.712687 0
M  V30 18698 O 1836.64 1.2419 1.51504 0
M  V30 18699 H 1835.22 0.69292 -0.279054 0
M  V30 18700 H 1837.88 1.42227 -1.33257 0
M  V30 18701 H 1836.98 2.92872 -1.07854 0
M  V30 18702 N 1837.28 0.834353 1.33702 0
M  V30 18703 C 1838.19 0.266649 2.3308 0
M  V30 18704 C 1839.2 -0.604958 1.63145 0
M  V30 18705 O 1840.38 -0.510151 1.94832 0
M  V30 18706 C 1837.45 -0.552673 3.42267 0
M  V30 18707 C 1836.51 0.342677 4.2793 0
M  V30 18708 C 1835.74 -0.437637 5.31903 0
M  V30 18709 O 1835.96 -1.6698 5.45412 0
M  V30 18710 O 1834.9 0.186001 6.01613 0
M  V30 18711 H 1838.72 1.08946 2.83486 0
M  V30 18712 H 1836.31 0.596765 1.36964 0
M  V30 18713 H 1838.19 -1.01842 4.08908 0
M  V30 18714 H 1836.86 -1.35263 2.94085 0
M  V30 18715 H 1835.77 0.856168 3.64171 0
M  V30 18716 H 1837.1 1.10728 4.79583 0
M  V30 18717 N 1838.76 -1.46125 0.590367 0
M  V30 18718 C 1839.99 -2.06427 0.0846072 0
M  V30 18719 C 1840.39 -1.43847 -1.22901 0
M  V30 18720 O 1839.74 -0.540694 -1.75562 0
M  V30 18721 C 1839.8 -3.59197 -0.147484 0
M  V30 18722 C 1839.46 -4.44014 1.0817 0
M  V30 18723 C 1840.46 -4.80073 1.99564 0
M  V30 18724 C 1838.15 -4.85033 1.3057 0
M  V30 18725 C 1840.14 -5.55987 3.117 0
M  V30 18726 C 1837.83 -5.60705 2.43009 0
M  V30 18727 C 1838.82 -5.96097 3.33403 0
M  V30 18728 O 1838.51 -6.70237 4.43889 0
M  V30 18729 H 1838.24 -0.673504 0.0580399 0
M  V30 18730 H 1840.8 -1.88624 0.81302 0
M  V30 18731 H 1839.03 -3.75336 -0.930597 0
M  V30 18732 H 1840.72 -4.014 -0.602702 0
M  V30 18733 H 1841.48 -4.48955 1.83478 0
M  V30 18734 H 1837.36 -4.56931 0.611158 0
M  V30 18735 H 1840.91 -5.8353 3.8228 0
M  V30 18736 H 1836.8 -5.91236 2.59056 0
M  V30 18737 H 1837.57 -6.8867 4.42353 0
M  V30 18738 N 1840.23 -0.328564 -1.54137 0
M  V30 18739 C 1841.51 0.327026 -1.92847 0
M  V30 18740 C 1841.89 1.69472 -1.25867 0
M  V30 18741 O 1841.24 2.24897 -0.404172 0
M  V30 18742 C 1841.45 0.414261 -3.46533 0
M  V30 18743 C 1842.8 0.672189 -4.19245 0
M  V30 18744 O 1843.82 0.496982 -3.52716 0
M  V30 18745 O 1842.68 1.01053 -5.37076 0
M  V30 18746 H 1839.77 0.187716 -0.805414 0
M  V30 18747 H 1842.32 -0.378645 -1.65422 0
M  V30 18748 H 1841.09 -0.54611 -3.8747 0
M  V30 18749 H 1840.72 1.16731 -3.80078 0
M  V30 18750 N 1841.71 1.57497 -0.0568439 0
M  V30 18751 C 1842.66 2.11862 0.915593 0
M  V30 18752 C 1843.63 1.02738 1.30515 0
M  V30 18753 O 1844.81 1.30318 1.39362 0
M  V30 18754 C 1841.95 2.67269 2.18315 0
M  V30 18755 C 1841.07 3.90498 1.84757 0
M  V30 18756 C 1840.2 4.342 3.06013 0
M  V30 18757 C 1839.24 5.50115 2.68403 0
M  V30 18758 N 1838.38 5.88844 3.8237 0
M  V30 18759 H 1843.22 2.94657 0.445101 0
M  V30 18760 H 1840.76 1.45621 0.20807 0
M  V30 18761 H 1842.71 2.97494 2.92494 0
M  V30 18762 H 1841.34 1.87262 2.62931 0
M  V30 18763 H 1840.4 3.66828 1.00703 0
M  V30 18764 H 1841.71 4.7473 1.53077 0
M  V30 18765 H 1840.86 4.66008 3.88486 0
M  V30 18766 H 1839.6 3.4879 3.40876 0
M  V30 18767 H 1838.61 5.17973 1.84348 0
M  V30 18768 H 1839.83 6.37244 2.34726 0
M  V30 18769 H 1837.78 5.06387 4.17024 0
M  V30 18770 H 1837.69 6.67781 3.54407 0
M  V30 18771 H 1838.96 6.25269 4.65466 0
M  V30 18772 N 1843.19 -0.216591 1.56105 0
M  V30 18773 C 1844.12 -1.27155 1.95841 0
M  V30 18774 C 1845.1 -1.48626 0.827313 0
M  V30 18775 O 1846.29 -1.60725 1.09 0
M  V30 18776 C 1843.42 -2.62032 2.27939 0
M  V30 18777 C 1842.37 -2.55211 3.43586 0
M  V30 18778 C 1841.7 -3.94163 3.61303 0
M  V30 18779 C 1843 -2.09566 4.78413 0
M  V30 18780 H 1844.69 -0.941435 2.84214 0
M  V30 18781 H 1842.24 -0.451427 1.36741 0
M  V30 18782 H 1844.19 -3.35997 2.5433 0
M  V30 18783 H 1842.91 -2.96742 1.36426 0
M  V30 18784 H 1841.57 -1.83703 3.17252 0
M  V30 18785 H 1841.22 -4.26188 2.67156 0
M  V30 18786 H 1840.92 -3.90479 4.3909 0
M  V30 18787 H 1842.44 -4.69782 3.90047 0
M  V30 18788 H 1843.86 -2.73277 5.03977 0
M  V30 18789 H 1842.26 -2.16931 5.59518 0
M  V30 18790 H 1843.33 -1.0481 4.73437 0
M  V30 18791 N 1844.67 -1.5 -0.48349 0
M  V30 18792 C 1845.6 -1.70879 -1.5913 0
M  V30 18793 C 1846.58 -0.557606 -1.60701 0
M  V30 18794 O 1847.76 -0.79539 -1.77164 0
M  V30 18795 C 1844.89 -1.7915 -2.97527 0
M  V30 18796 C 1843.85 -2.94233 -3.10823 0
M  V30 18797 C 1843.17 -2.87634 -4.50745 0
M  V30 18798 C 1844.47 -4.34925 -2.89202 0
M  V30 18799 H 1846.17 -2.63632 -1.41911 0
M  V30 18800 H 1843.71 -1.26865 -0.68127 0
M  V30 18801 H 1845.67 -1.92342 -3.74943 0
M  V30 18802 H 1844.39 -0.830106 -3.15875 0
M  V30 18803 H 1843.05 -2.80672 -2.35837 0
M  V30 18804 H 1842.7 -1.89365 -4.65993 0
M  V30 18805 H 1842.4 -3.64885 -4.60579 0
M  V30 18806 H 1843.92 -3.02857 -5.30198 0
M  V30 18807 H 1845.34 -4.49076 -3.56376 0
M  V30 18808 H 1843.73 -5.13531 -3.10492 0
M  V30 18809 H 1844.8 -4.48154 -1.85165 0
M  V30 18810 N 1846.15 0.735796 -1.39369 0
M  V30 18811 C 1847.39 1.49534 -1.3655 0
M  V30 18812 C 1847.72 1.94461 0.0388165 0
M  V30 18813 O 1846.98 1.67048 1.01949 0
M  V30 18814 C 1847.28 2.7495 -2.28336 0
M  V30 18815 C 1846.94 2.48894 -3.75982 0
M  V30 18816 C 1845.6 2.41498 -4.16212 0
M  V30 18817 C 1847.96 2.26589 -4.69369 0
M  V30 18818 C 1845.28 2.09836 -5.47892 0
M  V30 18819 C 1847.64 1.96444 -6.01326 0
M  V30 18820 C 1846.3 1.87515 -6.4062 0
M  V30 18821 H 1845.57 0.547184 -0.49967 0
M  V30 18822 H 1848.22 0.844587 -1.71869 0
M  V30 18823 H 1846.52 3.44764 -1.86132 0
M  V30 18824 H 1848.22 3.32975 -2.23448 0
M  V30 18825 H 1844.81 2.5553 -3.44097 0
M  V30 18826 H 1848.99 2.31272 -4.39121 0
M  V30 18827 H 1844.25 2.01445 -5.77261 0
M  V30 18828 H 1848.42 1.78193 -6.73216 0
M  V30 18829 H 1846.05 1.62747 -7.42575 0
M  V30 18830 N 1847.63 1.24532 0.965897 0
M  V30 18831 C 1849.04 1.0111 1.23486 0
M  V30 18832 C 1849.24 -0.278989 1.99559 0
M  V30 18833 O 1848.3 -0.99467 2.32083 0
M  V30 18834 C 1849.61 2.22726 2.02024 0
M  V30 18835 C 1851.16 2.27369 2.1511 0
M  V30 18836 C 1851.63 3.48611 2.97043 0
M  V30 18837 N 1853.12 3.48938 3.04625 0
M  V30 18838 C 1853.86 4.3941 3.68384 0
M  V30 18839 N 1853.36 5.40138 4.33847 0
M  V30 18840 N 1855.15 4.27117 3.65414 0
M  V30 18841 H 1847.3 2.07433 0.456674 0
M  V30 18842 H 1849.56 0.91037 0.264443 0
M  V30 18843 H 1849.27 3.16427 1.53515 0
M  V30 18844 H 1849.14 2.24989 3.02754 0
M  V30 18845 H 1851.53 1.34198 2.62821 0
M  V30 18846 H 1851.61 2.29131 1.13722 0
M  V30 18847 H 1851.25 4.42097 2.50025 0
M  V30 18848 H 1851.18 3.44093 3.98632 0
M  V30 18849 H 1853.68 2.76067 2.58061 0
M  V30 18850 H 1853.99 6.05402 4.80321 0
M  V30 18851 H 1852.33 5.44022 4.3251 0
M  V30 18852 H 1855.52 3.47659 3.1345 0
M  V30 18853 H 1855.7 4.97824 4.1482 0
M  V30 18854 N 1849.1 -1.16685 1.05936 0
M  V30 18855 C 1850.33 -1.91576 0.794558 0
M  V30 18856 C 1850.75 -1.76706 -0.644718 0
M  V30 18857 O 1850.11 -1.0899 -1.44882 0
M  V30 18858 C 1850.16 -3.40417 1.18947 0
M  V30 18859 O 1849.26 -4.11109 0.326091 0
M  V30 18860 H 1848.6 -0.596983 0.290702 0
M  V30 18861 H 1851.13 -1.47856 1.4142 0
M  V30 18862 H 1851.14 -3.91178 1.15947 0
M  V30 18863 H 1849.82 -3.5056 2.23786 0
M  V30 18864 H 1848.4 -3.70557 0.417347 0
M  V30 18865 N 1850.58 -0.841432 -1.33258 0
M  V30 18866 C 1851.86 -0.360204 -1.92255 0
M  V30 18867 C 1852.24 1.15474 -1.76717 0
M  V30 18868 O 1851.59 1.97035 -1.15713 0
M  V30 18869 C 1851.8 -0.809942 -3.39472 0
M  V30 18870 C 1853.14 -0.819444 -4.16618 0
M  V30 18871 O 1854.17 -0.753715 -3.48134 0
M  V30 18872 O 1853.03 -0.909553 -5.38878 0
M  V30 18873 H 1850.12 -0.102458 -0.820629 0
M  V30 18874 H 1852.67 -0.927455 -1.42114 0
M  V30 18875 H 1851.44 -1.85263 -3.44664 0
M  V30 18876 H 1851.06 -0.219406 -3.96994 0
M  V30 18877 N 1852.06 1.4581 -0.598108 0
M  V30 18878 C 1853.29 2.06679 -0.0956921 0
M  V30 18879 C 1853.7 1.44435 1.2159 0
M  V30 18880 O 1853.06 0.555104 1.73853 0
M  V30 18881 C 1853.11 3.61449 0.0604873 0
M  V30 18882 O 1852.83 4.21368 -1.1992 0
M  V30 18883 C 1854.33 4.39282 0.595466 0
M  V30 18884 H 1851.55 0.667893 -0.0644954 0
M  V30 18885 H 1854.1 1.87202 -0.823151 0
M  V30 18886 H 1852.25 3.80301 0.738231 0
M  V30 18887 H 1852.67 5.1443 -1.02282 0
M  V30 18888 H 1854.14 5.48114 0.653868 0
M  V30 18889 H 1854.62 4.084 1.61575 0
M  V30 18890 H 1855.22 4.25273 -0.0479171 0
M  V30 18891 N 1853.54 0.336733 1.53961 0
M  V30 18892 C 1854.47 -0.515664 2.27735 0
M  V30 18893 C 1855.45 -1.10835 1.29033 0
M  V30 18894 O 1856.63 -1.13102 1.57866 0
M  V30 18895 C 1853.76 -1.67015 3.04505 0
M  V30 18896 C 1852.72 -1.20613 4.10654 0
M  V30 18897 C 1852.04 -2.44861 4.75339 0
M  V30 18898 C 1853.34 -0.311507 5.2137 0
M  V30 18899 H 1855.04 0.0997513 2.99234 0
M  V30 18900 H 1852.58 0.0494157 1.43915 0
M  V30 18901 H 1854.54 -2.27286 3.54851 0
M  V30 18902 H 1853.26 -2.31236 2.30646 0
M  V30 18903 H 1851.92 -0.62628 3.61211 0
M  V30 18904 H 1851.57 -3.07474 3.98081 0
M  V30 18905 H 1851.27 -2.14498 5.47051 0
M  V30 18906 H 1852.79 -3.0587 5.28466 0
M  V30 18907 H 1854.21 -0.820868 5.67393 0
M  V30 18908 H 1852.6 -0.100073 6.00017 0
M  V30 18909 H 1853.67 0.654181 4.80467 0
M  V30 18910 N 1855.02 -1.57465 0.0651956 0
M  V30 18911 C 1855.95 -2.09315 -0.933793 0
M  V30 18912 C 1856.96 -1.0239 -1.26571 0
M  V30 18913 O 1858.15 -1.29921 -1.22405 0
M  V30 18914 C 1855.25 -2.53302 -2.25147 0
M  V30 18915 C 1854.42 -3.83724 -2.09939 0
M  V30 18916 C 1853.48 -4.13874 -3.24953 0
M  V30 18917 O 1852.51 -4.83577 -3.00236 0
M  V30 18918 N 1853.71 -3.66896 -4.49853 0
M  V30 18919 H 1856.47 -2.95648 -0.491142 0
M  V30 18920 H 1854.04 -1.61449 -0.120698 0
M  V30 18921 H 1856.03 -2.70538 -3.00984 0
M  V30 18922 H 1854.6 -1.72142 -2.60933 0
M  V30 18923 H 1853.82 -3.75933 -1.18609 0
M  V30 18924 H 1855.11 -4.69106 -1.9702 0
M  V30 18925 H 1854.5 -3.10573 -4.72822 0
M  V30 18926 H 1853.06 -3.89344 -5.22738 0
M  V30 18927 N 1856.49 0.20831 -1.56217 0
M  V30 18928 C 1857.74 0.928839 -1.7904 0
M  V30 18929 C 1858.06 1.84968 -0.636108 0
M  V30 18930 O 1859.26 2.60984 -0.748302 0
M  V30 18931 C 1857.72 1.70192 -3.17116 0
M  V30 18932 C 1857.33 0.826564 -4.40309 0
M  V30 18933 C 1859.07 2.41287 -3.49257 0
M  V30 18934 C 1856.98 1.59775 -5.69408 0
M  V30 18935 H 1855.91 0.350563 -0.667549 0
M  V30 18936 H 1858.56 0.182398 -1.82591 0
M  V30 18937 H 1856.94 2.49176 -3.07778 0
M  V30 18938 H 1858.11 0.076324 -4.60737 0
M  V30 18939 H 1856.43 0.227092 -4.1578 0
M  V30 18940 H 1859.03 2.99511 -4.42942 0
M  V30 18941 H 1859.37 3.14827 -2.72377 0
M  V30 18942 H 1859.9 1.69282 -3.59984 0
M  V30 18943 H 1856.64 0.905384 -6.49217 0
M  V30 18944 H 1856.16 2.32227 -5.5302 0
M  V30 18945 H 1857.84 2.155 -6.10056 0
M  V30 18946 N 1857.97 1.50255 0.475528 0
M  V30 18947 C 1859.2 1.64771 1.25132 0
M  V30 18948 C 1859.61 0.329253 1.85907 0
M  V30 18949 O 1858.97 -0.688289 1.69023 0
M  V30 18950 C 1859.02 2.73556 2.36325 0
M  V30 18951 O 1858.74 4.0029 1.78043 0
M  V30 18952 C 1860.24 2.99006 3.27277 0
M  V30 18953 H 1857.46 0.553987 0.378602 0
M  V30 18954 H 1860.01 1.9645 0.56811 0
M  V30 18955 H 1858.16 2.44584 3.00429 0
M  V30 18956 H 1858.58 4.60416 2.51232 0
M  V30 18957 H 1860.05 3.78797 4.01518 0
M  V30 18958 H 1860.53 2.09904 3.85794 0
M  V30 18959 H 1861.13 3.29493 2.68914 0
M  V30 18960 N 1859.45 -0.728395 1.39758 0
M  V30 18961 C 1860.73 -1.48036 1.27846 0
M  V30 18962 C 1861.11 -2.10818 -0.108996 0
M  V30 18963 O 1860.45 -1.99125 -1.12078 0
M  V30 18964 C 1860.66 -2.52644 2.40774 0
M  V30 18965 C 1862.01 -3.1884 2.80404 0
M  V30 18966 O 1863.04 -2.6296 2.40272 0
M  V30 18967 O 1861.9 -4.19971 3.49696 0
M  V30 18968 H 1858.99 -0.657688 0.501374 0
M  V30 18969 H 1861.54 -0.761658 1.51647 0
M  V30 18970 H 1860.31 -2.04678 3.335 0
M  V30 18971 H 1859.93 -3.32066 2.18674 0
M  V30 18972 N 1860.93 -1.25042 -0.959279 0
M  V30 18973 C 1861.86 -1.07494 -2.07285 0
M  V30 18974 C 1862.84 0.0146264 -1.70094 0
M  V30 18975 O 1864.02 -0.154035 -1.93588 0
M  V30 18976 C 1861.15 -0.68794 -3.40418 0
M  V30 18977 C 1860.11 -1.72722 -3.91601 0
M  V30 18978 C 1859.43 -1.19504 -5.21175 0
M  V30 18979 C 1860.73 -3.12502 -4.18497 0
M  V30 18980 H 1862.43 -2.00641 -2.22224 0
M  V30 18981 H 1859.97 -0.966074 -1.06785 0
M  V30 18982 H 1861.93 -0.552133 -4.17767 0
M  V30 18983 H 1860.65 0.279224 -3.25404 0
M  V30 18984 H 1859.31 -1.85139 -3.16416 0
M  V30 18985 H 1858.96 -0.218239 -5.02526 0
M  V30 18986 H 1858.66 -1.88962 -5.56387 0
M  V30 18987 H 1860.18 -1.07153 -6.01124 0
M  V30 18988 H 1861.6 -3.03266 -4.86521 0
M  V30 18989 H 1859.99 -3.79389 -4.64956 0
M  V30 18990 H 1861.06 -3.5991 -3.2495 0
M  V30 18991 N 1862.41 1.16121 -1.06553 0
M  V30 18992 C 1863.65 1.86346 -0.782279 0
M  V30 18993 C 1863.98 1.82255 0.693395 0
M  V30 18994 O 1863.25 1.2579 1.50179 0
M  V30 18995 H 1861.83 0.689921 -0.286388 0
M  V30 18996 H 1864.49 1.40805 -1.34758 0
M  V30 18997 H 1863.58 2.91712 -1.10954 0
M  V30 18998 N 1863.88 0.848487 1.3281 0
M  V30 18999 C 1865.13 0.449521 1.97755 0
M  V30 19000 C 1865.46 -0.990923 1.67016 0
M  V30 19001 O 1864.74 -1.69434 0.955119 0
M  V30 19002 C 1865.02 0.681898 3.53585 0
M  V30 19003 C 1864.87 2.17031 3.93976 0
M  V30 19004 C 1866.19 0.134271 4.39895 0
M  V30 19005 H 1863.31 0.164799 0.718339 0
M  V30 19006 H 1865.95 1.06578 1.57293 0
M  V30 19007 H 1864.1 0.157353 3.88181 0
M  V30 19008 H 1865.78 2.76046 3.69589 0
M  V30 19009 H 1864.02 2.65117 3.43359 0
M  V30 19010 H 1864.69 2.28362 5.02548 0
M  V30 19011 H 1867.17 0.582756 4.11999 0
M  V30 19012 H 1866.04 0.326479 5.47928 0
M  V30 19013 H 1866.3 -0.962576 4.31494 0
M  V30 19014 N 1865.36 -1.4549 0.605832 0
M  V30 19015 C 1866.59 -2.07135 0.104838 0
M  V30 19016 C 1867.01 -1.4478 -1.20085 0
M  V30 19017 O 1866.37 -0.539875 -1.73075 0
M  V30 19018 C 1866.42 -3.60593 -0.0231858 0
M  V30 19019 O 1865.52 -3.98173 -1.07386 0
M  V30 19020 H 1864.86 -0.659945 0.0732691 0
M  V30 19021 H 1867.39 -1.8677 0.835343 0
M  V30 19022 H 1867.4 -4.07396 -0.221964 0
M  V30 19023 H 1866.08 -4.05364 0.930211 0
M  V30 19024 H 1864.66 -3.63044 -0.851689 0
M  V30 19025 N 1866.84 -0.344893 -1.5378 0
M  V30 19026 C 1868.09 0.250711 -2.00539 0
M  V30 19027 C 1868.41 1.5096 -1.23435 0
M  V30 19028 O 1867.68 1.92893 -0.341893 0
M  V30 19029 H 1866.26 0.0956318 -0.740853 0
M  V30 19030 H 1868.92 -0.466361 -1.89238 0
M  V30 19031 H 1868.02 0.49222 -3.08194 0
M  V30 19032 N 1868.32 1.57428 -0.0735454 0
M  V30 19033 C 1869.28 2.11699 0.878419 0
M  V30 19034 C 1870.28 1.0414 1.22521 0
M  V30 19035 O 1871.47 1.30121 1.1582 0
M  V30 19036 C 1868.6 2.61979 2.18129 0
M  V30 19037 H 1869.8 2.97118 0.40755 0
M  V30 19038 H 1867.35 1.55315 0.175183 0
M  V30 19039 H 1868.08 1.80018 2.69748 0
M  V30 19040 H 1867.87 3.40599 1.94254 0
M  V30 19041 H 1869.36 3.04035 2.86273 0
M  V30 19042 N 1869.8 -0.200022 1.56326 0
M  V30 19043 C 1871.21 -0.550653 1.498 0
M  V30 19044 C 1871.41 -1.86097 0.772664 0
M  V30 19045 O 1870.47 -2.50449 0.321155 0
M  V30 19046 C 1871.78 -0.60995 2.94449 0
M  V30 19047 C 1873.33 -0.699119 3.05092 0
M  V30 19048 C 1873.8 -0.78957 4.51143 0
M  V30 19049 N 1875.3 -0.853228 4.55274 0
M  V30 19050 C 1876.03 -0.943298 5.65588 0
M  V30 19051 N 1875.53 -0.995976 6.85603 0
M  V30 19052 N 1877.32 -0.980106 5.53489 0
M  V30 19053 H 1869.47 0.659543 2.019 0
M  V30 19054 H 1871.73 0.234299 0.91859 0
M  V30 19055 H 1871.44 0.283651 3.50554 0
M  V30 19056 H 1871.31 -1.46632 3.47533 0
M  V30 19057 H 1873.7 -1.58315 2.49039 0
M  V30 19058 H 1873.78 0.183351 2.55142 0
M  V30 19059 H 1873.43 0.0900924 5.0782 0
M  V30 19060 H 1873.36 -1.68777 4.9882 0
M  V30 19061 H 1875.85 -0.821964 3.68853 0
M  V30 19062 H 1876.16 -1.06508 7.65425 0
M  V30 19063 H 1874.5 -0.964738 6.88272 0
M  V30 19064 H 1877.7 -0.935755 4.58652 0
M  V30 19065 H 1877.87 -1.04684 6.39488 0
M  V30 19066 N 1871.27 -1.50505 -0.467553 0
M  V30 19067 C 1872.18 -1.72419 -1.59087 0
M  V30 19068 C 1873.2 -0.607403 -1.63054 0
M  V30 19069 O 1874.38 -0.886148 -1.80857 0
M  V30 19070 C 1871.44 -1.81686 -2.95281 0
M  V30 19071 C 1870.5 -3.05435 -3.01675 0
M  V30 19072 C 1869.74 -3.1425 -4.31373 0
M  V30 19073 O 1869.96 -2.29766 -5.22076 0
M  V30 19074 O 1868.89 -4.07005 -4.43431 0
M  V30 19075 H 1872.72 -2.67649 -1.43519 0
M  V30 19076 H 1870.3 -1.34643 -0.647422 0
M  V30 19077 H 1872.19 -1.89941 -3.76165 0
M  V30 19078 H 1870.86 -0.896404 -3.11041 0
M  V30 19079 H 1869.77 -3.02678 -2.19856 0
M  V30 19080 H 1871.1 -3.97071 -2.90853 0
M  V30 19081 N 1872.75 0.720973 -1.40142 0
M  V30 19082 C 1873.66 1.86527 -1.42284 0
M  V30 19083 C 1874.68 1.71106 -0.316044 0
M  V30 19084 O 1875.85 1.93465 -0.55977 0
M  V30 19085 C 1872.92 3.2227 -1.27841 0
M  V30 19086 C 1871.98 3.49984 -2.48616 0
M  V30 19087 C 1871.21 4.7925 -2.34852 0
M  V30 19088 O 1871.44 5.53963 -1.35945 0
M  V30 19089 O 1870.37 5.07179 -3.24119 0
M  V30 19090 H 1874.2 1.87675 -2.38771 0
M  V30 19091 H 1871.78 0.870677 -1.21407 0
M  V30 19092 H 1873.66 4.03362 -1.21973 0
M  V30 19093 H 1872.34 3.21861 -0.344566 0
M  V30 19094 H 1871.25 2.68922 -2.60061 0
M  V30 19095 H 1872.58 3.55184 -3.40742 0
M  V30 19096 N 1874.23 1.25549 0.952634 0
M  V30 19097 C 1875.48 1.10416 1.69748 0
M  V30 19098 C 1875.81 -0.354517 1.91242 0
M  V30 19099 O 1875.06 -1.27756 1.48246 0
M  V30 19100 C 1875.36 1.80586 3.08421 0
M  V30 19101 C 1875.03 3.30504 3.06721 0
M  V30 19102 C 1873.69 3.71402 3.05965 0
M  V30 19103 C 1876.04 4.26275 2.99898 0
M  V30 19104 C 1873.37 5.06478 2.96137 0
M  V30 19105 C 1875.72 5.61378 2.91612 0
M  V30 19106 C 1874.38 6.01601 2.89192 0
M  V30 19107 H 1873.65 0.404041 0.621154 0
M  V30 19108 H 1876.3 1.55848 1.11283 0
M  V30 19109 H 1874.61 1.27592 3.70442 0
M  V30 19110 H 1876.3 1.66328 3.64878 0
M  V30 19111 H 1872.89 2.97965 3.08083 0
M  V30 19112 H 1877.08 3.95669 2.996 0
M  V30 19113 H 1872.33 5.3682 2.92633 0
M  V30 19114 H 1876.51 6.3528 2.85294 0
M  V30 19115 H 1874.13 7.06227 2.81333 0
M  V30 19116 N 1875.71 -1.15554 1.07168 0
M  V30 19117 C 1876.95 -1.86572 0.794894 0
M  V30 19118 C 1877.29 -1.82007 -0.677276 0
M  V30 19119 O 1876.56 -1.2419 -1.4969 0
M  V30 19120 C 1876.85 -3.35762 1.30137 0
M  V30 19121 C 1876.7 -3.4897 2.83796 0
M  V30 19122 C 1878.02 -4.30453 0.916402 0
M  V30 19123 H 1875.14 -0.677448 0.29023 0
M  V30 19124 H 1877.78 -1.35772 1.32914 0
M  V30 19125 H 1875.93 -3.79156 0.846915 0
M  V30 19126 H 1877.6 -3.14452 3.37517 0
M  V30 19127 H 1875.84 -2.9059 3.22087 0
M  V30 19128 H 1876.51 -4.53782 3.14302 0
M  V30 19129 H 1878.99 -3.95008 1.30797 0
M  V30 19130 H 1877.87 -5.33329 1.29814 0
M  V30 19131 H 1878.13 -4.41742 -0.17785 0
M  V30 19132 N 1877.19 -0.855519 -1.32358 0
M  V30 19133 C 1878.1 -0.303696 -2.32626 0
M  V30 19134 C 1879.11 0.578927 -1.64087 0
M  V30 19135 O 1880.29 0.479091 -1.95619 0
M  V30 19136 C 1877.35 0.498152 -3.43103 0
M  V30 19137 C 1876.42 -0.410714 -4.27331 0
M  V30 19138 C 1875.65 0.35296 -5.32532 0
M  V30 19139 O 1875.87 1.58282 -5.47999 0
M  V30 19140 O 1874.81 -0.281689 -6.0124 0
M  V30 19141 H 1878.63 -1.13443 -2.81717 0
M  V30 19142 H 1876.22 -0.618479 -1.35997 0
M  V30 19143 H 1878.1 0.95324 -4.10477 0
M  V30 19144 H 1876.77 1.30567 -2.96199 0
M  V30 19145 H 1875.68 -0.913997 -3.62763 0
M  V30 19146 H 1877.01 -1.18344 -4.77761 0
M  V30 19147 N 1878.67 1.45167 -0.61354 0
M  V30 19148 C 1879.89 2.06565 -0.117608 0
M  V30 19149 C 1880.31 1.45716 1.20051 0
M  V30 19150 O 1879.67 0.573512 1.73254 0
M  V30 19151 C 1879.72 3.61493 0.0221474 0
M  V30 19152 O 1879.44 4.20072 -1.24383 0
M  V30 19153 C 1880.94 4.39889 0.548841 0
M  V30 19154 H 1878.16 0.667172 -0.0715756 0
M  V30 19155 H 1880.7 1.86318 -0.84296 0
M  V30 19156 H 1878.86 3.81063 0.697854 0
M  V30 19157 H 1879.27 5.13317 -1.07733 0
M  V30 19158 H 1880.75 5.48776 0.595696 0
M  V30 19159 H 1881.22 4.1009 1.57234 0
M  V30 19160 H 1881.83 4.25198 -0.0930203 0
M  V30 19161 N 1880.14 0.353044 1.53595 0
M  V30 19162 C 1881.38 -0.240775 2.02977 0
M  V30 19163 C 1881.75 -1.47007 1.23503 0
M  V30 19164 O 1882.95 -2.13869 1.62829 0
M  V30 19165 C 1881.22 -0.537874 3.53329 0
M  V30 19166 S 1882.78 -1.10715 4.24603 0
M  V30 19167 H 1879.6 -0.0710312 0.707443 0
M  V30 19168 H 1882.2 0.493007 1.89182 0
M  V30 19169 H 1880.9 0.364487 4.08778 0
M  V30 19170 H 1880.43 -1.30107 3.71262 0
M  V30 19171 H 1882.45 -2.39227 4.34724 0
M  V30 19172 N 1881.62 -1.57387 0.0818932 0
M  V30 19173 C 1883.03 -1.81214 -0.449254 0
M  V30 19174 C 1883.38 -0.996563 -1.69006 0
M  V30 19175 O 1882.51 -0.22203 -2.15258 0
M  V30 19176 C 1883.1 -3.28681 -0.821827 0
M  V30 19177 C 1881.66 -3.53319 -1.29779 0
M  V30 19178 C 1880.81 -2.75801 -0.287911 0
M  V30 19179 H 1883.76 -1.55693 0.307486 0
M  V30 19180 H 1883.78 -3.41283 -1.68245 0
M  V30 19181 H 1883.29 -3.88015 0.081441 0
M  V30 19182 H 1881.39 -2.99302 -2.21921 0
M  V30 19183 H 1881.51 -4.61996 -1.26874 0
M  V30 19184 H 1879.87 -2.42867 -0.76731 0
M  V30 19185 H 1880.65 -3.37877 0.607805 0
M  V30 19186 N 1883.1 0.191729 -1.56429 0
M  V30 19187 C 1884.32 0.931804 -1.85289 0
M  V30 19188 C 1884.75 1.7592 -0.665864 0
M  V30 19189 O 1884.11 1.77158 0.385313 0
M  V30 19190 C 1884.16 1.801 -3.12404 0
M  V30 19191 O 1883.26 2.9002 -2.93193 0
M  V30 19192 H 1882.6 0.262213 -0.610033 0
M  V30 19193 H 1885.13 0.196028 -2.03659 0
M  V30 19194 H 1885.14 2.20499 -3.43285 0
M  V30 19195 H 1883.82 1.19309 -3.9842 0
M  V30 19196 H 1882.39 2.53352 -2.73619 0
M  V30 19197 N 1884.58 1.50751 0.459565 0
M  V30 19198 C 1885.49 1.7326 1.58171 0
M  V30 19199 C 1886.5 0.616042 1.6273 0
M  V30 19200 O 1887.68 0.895726 1.80385 0
M  V30 19201 C 1884.74 1.83249 2.94314 0
M  V30 19202 C 1883.81 3.07031 3.00051 0
M  V30 19203 C 1883.04 3.16534 4.297 0
M  V30 19204 O 1883.26 2.32532 5.2085 0
M  V30 19205 O 1882.2 4.0935 4.41266 0
M  V30 19206 H 1886.02 2.68406 1.42098 0
M  V30 19207 H 1883.61 1.34985 0.640273 0
M  V30 19208 H 1885.49 1.91933 3.75153 0
M  V30 19209 H 1884.16 0.912887 3.10561 0
M  V30 19210 H 1883.07 3.0384 2.18248 0
M  V30 19211 H 1884.4 3.98608 2.88743 0
M  V30 19212 N 1886.06 -0.713531 1.40522 0
M  V30 19213 C 1887.01 -1.81927 1.37429 0
M  V30 19214 C 1887.99 -1.58922 0.251499 0
M  V30 19215 O 1889.18 -1.7006 0.490768 0
M  V30 19216 C 1886.31 -3.20074 1.24127 0
M  V30 19217 C 1885.4 -3.48835 2.41195 0
M  V30 19218 N 1885.79 -3.484 3.66676 0
M  V30 19219 C 1884.09 -3.79302 2.34619 0
M  V30 19220 C 1884.79 -3.75562 4.44217 0
M  V30 19221 N 1883.76 -3.94413 3.74084 0
M  V30 19222 H 1887.56 -1.79927 2.32387 0
M  V30 19223 H 1885.08 -0.912746 1.34323 0
M  V30 19224 H 1887.08 -3.99258 1.19993 0
M  V30 19225 H 1885.74 -3.23298 0.301379 0
M  V30 19226 H 1886.75 -3.29201 3.99809 0
M  V30 19227 H 1883.42 -3.90004 1.49007 0
M  V30 19228 H 1884.81 -3.81513 5.5308 0
M  V30 19229 N 1887.53 -1.26053 -0.945962 0
M  V30 19230 C 1888.48 -1.07194 -2.04397 0
M  V30 19231 C 1889.45 0.0215796 -1.66086 0
M  V30 19232 O 1890.64 -0.137272 -1.90306 0
M  V30 19233 C 1887.78 -0.705915 -3.37803 0
M  V30 19234 C 1886.89 -1.87519 -3.89179 0
M  V30 19235 C 1886.02 -1.45272 -5.1095 0
M  V30 19236 C 1885.06 -2.59059 -5.54576 0
M  V30 19237 N 1884.2 -2.17527 -6.67552 0
M  V30 19238 H 1889.04 -2.01159 -2.19861 0
M  V30 19239 H 1886.58 -1.00162 -1.07731 0
M  V30 19240 H 1888.53 -0.474611 -4.14492 0
M  V30 19241 H 1887.16 0.196761 -3.222 0
M  V30 19242 H 1886.22 -2.21956 -3.08933 0
M  V30 19243 H 1887.53 -2.7294 -4.17499 0
M  V30 19244 H 1886.68 -1.18158 -5.95083 0
M  V30 19245 H 1885.42 -0.569345 -4.84365 0
M  V30 19246 H 1884.43 -2.86908 -4.69003 0
M  V30 19247 H 1885.65 -3.47989 -5.83164 0
M  V30 19248 H 1883.6 -1.31618 -6.42661 0
M  V30 19249 H 1883.51 -2.96493 -6.95433 0
M  V30 19250 H 1884.78 -1.93612 -7.55073 0
M  V30 19251 N 1889.01 1.14984 -1.07779 0
M  V30 19252 C 1890.26 1.85506 -0.802 0
M  V30 19253 C 1890.58 1.82981 0.674026 0
M  V30 19254 O 1889.85 1.27376 1.48836 0
M  V30 19255 H 1888.43 0.686845 -0.293689 0
M  V30 19256 H 1891.09 1.39368 -1.36244 0
M  V30 19257 H 1890.19 2.90518 -1.14042 0
M  V30 19258 N 1890.49 0.862526 1.31902 0
M  V30 19259 C 1891.74 0.470471 1.97267 0
M  V30 19260 C 1892.07 -0.973153 1.68058 0
M  V30 19261 O 1891.34 -1.68411 0.973035 0
M  V30 19262 C 1891.63 0.719362 3.52842 0
M  V30 19263 C 1891.48 2.21198 3.91652 0
M  V30 19264 C 1892.8 0.18092 4.39728 0
M  V30 19265 H 1889.92 0.172408 0.71655 0
M  V30 19266 H 1892.56 1.0824 1.56154 0
M  V30 19267 H 1890.71 0.198516 3.87992 0
M  V30 19268 H 1892.38 2.79951 3.66641 0
M  V30 19269 H 1890.62 2.68744 3.40528 0
M  V30 19270 H 1891.3 2.33679 5.00098 0
M  V30 19271 H 1893.77 0.626421 4.11358 0
M  V30 19272 H 1892.65 0.384575 5.47551 0
M  V30 19273 H 1892.91 -0.916756 4.3249 0
M  V30 19274 N 1891.97 -1.4484 0.62123 0
M  V30 19275 C 1893.22 -2.01347 0.11929 0
M  V30 19276 C 1893.53 -1.49373 -1.26282 0
M  V30 19277 O 1894.74 -1.97945 -1.85823 0
M  V30 19278 C 1893.19 -3.59533 0.162536 0
M  V30 19279 C 1892.8 -4.20504 1.54534 0
M  V30 19280 C 1894.54 -4.23553 -0.283454 0
M  V30 19281 C 1892.45 -5.70883 1.54423 0
M  V30 19282 H 1891.38 -0.752894 0.0408293 0
M  V30 19283 H 1894.03 -1.66164 0.778571 0
M  V30 19284 H 1892.41 -3.91968 -0.563659 0
M  V30 19285 H 1893.59 -3.99621 2.29433 0
M  V30 19286 H 1891.9 -3.68732 1.93457 0
M  V30 19287 H 1894.5 -5.33837 -0.303671 0
M  V30 19288 H 1894.84 -3.9519 -1.30884 0
M  V30 19289 H 1895.38 -3.95884 0.38992 0
M  V30 19290 H 1892.12 -6.03965 2.54767 0
M  V30 19291 H 1891.64 -5.93917 0.838029 0
M  V30 19292 H 1893.31 -6.34336 1.27383 0
M  V30 19293 N 1893.45 -0.361184 -1.53405 0
M  V30 19294 C 1894.36 0.495394 -2.2931 0
M  V30 19295 C 1895.37 1.09649 -1.35104 0
M  V30 19296 O 1896.55 1.10838 -1.68158 0
M  V30 19297 C 1893.61 1.62176 -3.06431 0
M  V30 19298 C 1892.67 1.04865 -4.16295 0
M  V30 19299 C 1891.91 2.12134 -4.89729 0
M  V30 19300 O 1892.13 3.33169 -4.62985 0
M  V30 19301 O 1891.06 1.75438 -5.75765 0
M  V30 19302 H 1894.89 -0.122155 -3.03454 0
M  V30 19303 H 1892.48 -0.125695 -1.4887 0
M  V30 19304 H 1894.36 2.27673 -3.54603 0
M  V30 19305 H 1893.03 2.22479 -2.35127 0
M  V30 19306 H 1891.94 0.357717 -3.72386 0
M  V30 19307 H 1893.27 0.490239 -4.89752 0
M  V30 19308 N 1894.92 1.57341 -0.0902386 0
M  V30 19309 C 1896.15 1.98934 0.586524 0
M  V30 19310 C 1896.57 0.968841 1.6123 0
M  V30 19311 O 1895.93 -0.0632868 1.8119 0
M  V30 19312 C 1895.98 3.39509 1.21516 0
M  V30 19313 O 1895.08 3.40203 2.331 0
M  V30 19314 H 1894.43 0.647009 0.14925 0
M  V30 19315 H 1896.96 2.03891 -0.170213 0
M  V30 19316 H 1896.97 3.77097 1.55762 0
M  V30 19317 H 1895.64 4.13308 0.463639 0
M  V30 19318 H 1894.22 3.14405 2.0051 0
M  V30 19319 N 1896.4 -0.183431 1.56529 0
M  V30 19320 C 1897.65 -0.903332 1.8157 0
M  V30 19321 C 1897.98 -1.82417 0.666167 0
M  V30 19322 O 1897.26 -1.91635 -0.332621 0
M  V30 19323 C 1897.54 -1.70949 3.16936 0
M  V30 19324 C 1897.39 -0.812595 4.42399 0
M  V30 19325 C 1898.71 -2.6797 3.49113 0
M  V30 19326 H 1895.83 -0.326961 0.660504 0
M  V30 19327 H 1898.47 -0.170115 1.89237 0
M  V30 19328 H 1896.62 -2.33458 3.10531 0
M  V30 19329 H 1898.29 -0.201313 4.60861 0
M  V30 19330 H 1896.54 -0.119949 4.33634 0
M  V30 19331 H 1897.21 -1.4119 5.33638 0
M  V30 19332 H 1899.68 -2.15591 3.55893 0
M  V30 19333 H 1898.56 -3.21451 4.44927 0
M  V30 19334 H 1898.82 -3.47584 2.73199 0
M  V30 19335 N 1897.88 -1.50992 -0.451564 0
M  V30 19336 C 1899.13 -1.63197 -1.20394 0
M  V30 19337 C 1899.46 -0.340409 -1.91193 0
M  V30 19338 O 1898.73 0.65926 -1.82986 0
M  V30 19339 C 1899.02 -2.82567 -2.23221 0
M  V30 19340 C 1898.87 -4.2166 -1.56598 0
M  V30 19341 C 1900.19 -2.97468 -3.24347 0
M  V30 19342 H 1897.31 -0.59395 -0.43634 0
M  V30 19343 H 1899.95 -1.83437 -0.495056 0
M  V30 19344 H 1898.1 -2.65441 -2.83678 0
M  V30 19345 H 1899.77 -4.50422 -0.995877 0
M  V30 19346 H 1898.02 -4.25015 -0.86862 0
M  V30 19347 H 1898.69 -5.0115 -2.31415 0
M  V30 19348 H 1901.16 -3.13211 -2.73931 0
M  V30 19349 H 1900.04 -3.82581 -3.93603 0
M  V30 19350 H 1900.3 -2.08921 -3.89621 0
M  V30 19351 N 1899.36 0.706069 -1.40899 0
M  V30 19352 C 1900.59 1.49504 -1.43025 0
M  V30 19353 C 1901 1.88772 -0.0325752 0
M  V30 19354 O 1900.36 1.56085 0.945716 0
M  V30 19355 C 1900.41 2.76431 -2.32955 0
M  V30 19356 O 1900.13 2.38821 -3.67282 0
M  V30 19357 C 1901.63 3.70255 -2.43774 0
M  V30 19358 H 1898.85 0.461069 -0.4875 0
M  V30 19359 H 1901.4 0.870198 -1.85062 0
M  V30 19360 H 1899.55 3.35177 -1.94255 0
M  V30 19361 H 1899.96 3.2056 -4.1514 0
M  V30 19362 H 1901.44 4.56129 -3.10887 0
M  V30 19363 H 1901.92 4.14021 -1.46573 0
M  V30 19364 H 1902.52 3.17417 -2.83066 0
M  V30 19365 N 1900.84 1.26553 0.939264 0
M  V30 19366 C 1902.09 1.11599 1.68014 0
M  V30 19367 C 1902.4 -0.339956 1.92623 0
M  V30 19368 O 1903.6 -0.610203 2.64554 0
M  V30 19369 C 1902.06 1.94913 3.02551 0
M  V30 19370 C 1901.67 3.45094 2.85682 0
M  V30 19371 C 1903.41 1.88574 3.80316 0
M  V30 19372 C 1901.32 4.20648 4.15703 0
M  V30 19373 H 1900.25 0.414037 0.630151 0
M  V30 19374 H 1902.9 1.50878 1.04441 0
M  V30 19375 H 1901.28 1.48469 3.67115 0
M  V30 19376 H 1902.46 3.99321 2.29956 0
M  V30 19377 H 1900.77 3.5269 2.21357 0
M  V30 19378 H 1903.37 2.42307 4.76646 0
M  V30 19379 H 1903.71 0.856867 4.07386 0
M  V30 19380 H 1904.24 2.32852 3.22529 0
M  V30 19381 H 1900.98 5.24013 3.93816 0
M  V30 19382 H 1900.5 3.71202 4.71136 0
M  V30 19383 H 1902.18 4.29199 4.84146 0
M  V30 19384 N 1902.31 -1.14411 1.08387 0
M  V30 19385 C 1903.22 -2.23103 0.725418 0
M  V30 19386 C 1904.24 -1.71924 -0.26799 0
M  V30 19387 O 1905.42 -2.01088 -0.111986 0
M  V30 19388 C 1902.48 -3.46418 0.139915 0
M  V30 19389 C 1901.54 -4.12537 1.18791 0
M  V30 19390 C 1900.78 -5.29966 0.630252 0
M  V30 19391 O 1901 -5.67739 -0.550335 0
M  V30 19392 O 1899.93 -5.85862 1.38021 0
M  V30 19393 H 1903.76 -2.56116 1.63213 0
M  V30 19394 H 1901.34 -1.22338 0.857538 0
M  V30 19395 H 1903.23 -4.20999 -0.18381 0
M  V30 19396 H 1901.9 -3.15129 -0.739957 0
M  V30 19397 H 1900.81 -3.39831 1.56416 0
M  V30 19398 H 1902.14 -4.47932 2.04005 0
M  V30 19399 N 1903.79 -0.869509 -1.31443 0
M  V30 19400 C 1905.07 -0.400903 -1.91447 0
M  V30 19401 C 1905.45 1.117 -1.79127 0
M  V30 19402 O 1904.8 1.94536 -1.19866 0
M  V30 19403 C 1905.01 -0.881767 -3.37677 0
M  V30 19404 C 1906.36 -0.90763 -4.14786 0
M  V30 19405 O 1907.38 -0.82739 -3.46457 0
M  V30 19406 O 1906.24 -1.02365 -5.36827 0
M  V30 19407 H 1903.33 -0.119842 -0.818271 0
M  V30 19408 H 1905.88 -0.957391 -1.40115 0
M  V30 19409 H 1904.65 -1.92533 -3.40657 0
M  V30 19410 H 1904.27 -0.303565 -3.96439 0
M  V30 19411 N 1905.27 1.44508 -0.628902 0
M  V30 19412 C 1906.55 1.95497 -0.0635197 0
M  V30 19413 C 1906.93 1.57092 1.41015 0
M  V30 19414 O 1906.28 0.843894 2.12346 0
M  V30 19415 C 1906.49 3.47842 -0.284051 0
M  V30 19416 C 1907.83 4.24235 -0.176073 0
M  V30 19417 O 1908.86 3.55549 -0.215298 0
M  V30 19418 O 1907.72 5.46443 -0.0791303 0
M  V30 19419 H 1904.81 0.826664 0.0235829 0
M  V30 19420 H 1907.36 1.5457 -0.70045 0
M  V30 19421 H 1906.13 3.68837 -1.30671 0
M  V30 19422 H 1905.75 3.95711 0.387125 0
M  V30 19423 N 1906.75 0.369315 1.53212 0
M  V30 19424 C 1908 -0.219209 2.0131 0
M  V30 19425 C 1908.32 -1.48469 1.25647 0
M  V30 19426 O 1907.58 -1.92734 0.339443 0
M  V30 19427 C 1907.88 -0.553392 3.5309 0
M  V30 19428 C 1907.54 0.618198 4.46642 0
M  V30 19429 C 1906.21 0.939656 4.71936 0
M  V30 19430 C 1908.56 1.40294 5.01963 0
M  V30 19431 C 1905.89 2.04776 5.49803 0
M  V30 19432 C 1908.24 2.50149 5.81041 0
M  V30 19433 C 1906.9 2.82826 6.0462 0
M  V30 19434 H 1906.17 -0.0802141 0.736646 0
M  V30 19435 H 1908.82 0.502547 1.84788 0
M  V30 19436 H 1907.12 -1.35621 3.67579 0
M  V30 19437 H 1908.82 -1.02106 3.87783 0
M  V30 19438 H 1905.41 0.35762 4.27105 0
M  V30 19439 H 1909.6 1.16784 4.82364 0
M  V30 19440 H 1904.85 2.30487 5.66291 0
M  V30 19441 H 1909.03 3.1137 6.22914 0
M  V30 19442 H 1906.65 3.68812 6.64742 0
M  V30 19443 N 1908.23 -1.57291 0.0985816 0
M  V30 19444 C 1909.48 -1.93654 -0.564011 0
M  V30 19445 C 1909.79 -0.982723 -1.69121 0
M  V30 19446 O 1911 -1.2402 -2.41519 0
M  V30 19447 C 1909.45 -3.441 -1.05466 0
M  V30 19448 C 1909.06 -4.47979 0.0429743 0
M  V30 19449 C 1910.8 -3.89418 -1.68979 0
M  V30 19450 C 1908.71 -5.89583 -0.463226 0
M  V30 19451 H 1907.64 -0.722858 -0.214457 0
M  V30 19452 H 1910.29 -1.82662 0.175145 0
M  V30 19453 H 1908.67 -3.50256 -1.84761 0
M  V30 19454 H 1909.85 -4.53471 0.818587 0
M  V30 19455 H 1908.16 -4.12291 0.583501 0
M  V30 19456 H 1910.76 -4.92615 -2.0793 0
M  V30 19457 H 1911.1 -3.28258 -2.56032 0
M  V30 19458 H 1911.64 -3.85978 -0.962602 0
M  V30 19459 H 1908.37 -6.54451 0.370767 0
M  V30 19460 H 1907.89 -5.87555 -1.20577 0
M  V30 19461 H 1909.57 -6.40266 -0.931072 0
M  V30 19462 N 1909.71 0.175127 -1.56624 0
M  V30 19463 C 1910.93 0.908041 -1.85909 0
M  V30 19464 C 1911.35 1.75993 -0.683514 0
M  V30 19465 O 1910.71 1.79162 0.347453 0
M  V30 19466 C 1910.76 1.78791 -3.14191 0
M  V30 19467 O 1910.48 0.970386 -4.27218 0
M  V30 19468 C 1911.98 2.63081 -3.56796 0
M  V30 19469 H 1909.2 0.263986 -0.616889 0
M  V30 19470 H 1911.74 0.176369 -2.03738 0
M  V30 19471 H 1909.9 2.47296 -2.982 0
M  V30 19472 H 1910.31 1.57179 -5.00395 0
M  V30 19473 H 1911.79 3.2044 -4.49469 0
M  V30 19474 H 1912.26 3.37766 -2.80732 0
M  V30 19475 H 1912.87 1.99914 -3.75386 0
M  V30 19476 N 1911.18 1.5123 0.44355 0
M  V30 19477 C 1912.43 1.63833 1.19527 0
M  V30 19478 C 1912.76 0.350544 1.9101 0
M  V30 19479 O 1912.04 -0.649546 1.83333 0
M  V30 19480 C 1912.32 2.83747 2.21719 0
M  V30 19481 C 1912.17 4.22484 1.5436 0
M  V30 19482 C 1913.49 2.99184 3.22765 0
M  V30 19483 H 1910.61 0.596256 0.433184 0
M  V30 19484 H 1913.25 1.83697 0.485321 0
M  V30 19485 H 1911.4 2.66942 2.82267 0
M  V30 19486 H 1913.08 4.50944 0.971976 0
M  V30 19487 H 1911.32 4.25469 0.846069 0
M  V30 19488 H 1911.99 5.0237 2.28754 0
M  V30 19489 H 1914.47 3.14659 2.72266 0
M  V30 19490 H 1913.34 3.84663 3.91569 0
M  V30 19491 H 1913.6 2.10984 3.88508 0
M  V30 19492 N 1912.66 -0.698586 1.41271 0
M  V30 19493 C 1913.91 -1.46077 1.40674 0
M  V30 19494 C 1914.24 -1.94194 0.0146774 0
M  V30 19495 O 1913.52 -1.69325 -0.957036 0
M  V30 19496 C 1913.8 -2.67481 2.41093 0
M  V30 19497 C 1913.65 -2.25149 3.89394 0
M  V30 19498 C 1914.97 -3.69673 2.38809 0
M  V30 19499 H 1912.09 -0.529839 0.512288 0
M  V30 19500 H 1914.73 -0.795918 1.72526 0
M  V30 19501 H 1912.88 -3.24206 2.14062 0
M  V30 19502 H 1914.55 -1.73775 4.27317 0
M  V30 19503 H 1912.8 -1.56965 4.04406 0
M  V30 19504 H 1913.47 -3.12247 4.55199 0
M  V30 19505 H 1915.94 -3.22615 2.6279 0
M  V30 19506 H 1914.82 -4.52232 3.1109 0
M  V30 19507 H 1915.08 -4.1916 1.40562 0
M  V30 19508 N 1914.14 -1.27049 -0.93254 0
M  V30 19509 C 1915.07 -1.05151 -2.03656 0
M  V30 19510 C 1916.08 -0.00913996 -1.62797 0
M  V30 19511 O 1917.27 -0.25017 -1.76738 0
M  V30 19512 C 1914.37 -0.572071 -3.34037 0
M  V30 19513 C 1913.55 -1.68563 -4.03615 0
M  V30 19514 C 1912.61 -1.20276 -5.12269 0
M  V30 19515 O 1911.63 -1.9015 -5.36499 0
M  V30 19516 N 1912.83 -0.0558099 -5.80473 0
M  V30 19517 H 1915.6 -2.00221 -2.23006 0
M  V30 19518 H 1913.16 -1.18551 -1.1026 0
M  V30 19519 H 1915.15 -0.233036 -4.04029 0
M  V30 19520 H 1913.72 0.285274 -3.11296 0
M  V30 19521 H 1912.94 -2.19519 -3.27422 0
M  V30 19522 H 1914.23 -2.43313 -4.46852 0
M  V30 19523 H 1913.63 0.527516 -5.63235 0
M  V30 19524 H 1912.18 0.224082 -6.51415 0
M  V30 19525 N 1915.62 1.13835 -1.08993 0
M  V30 19526 C 1916.85 1.88861 -0.844923 0
M  V30 19527 C 1917.26 1.78897 0.603444 0
M  V30 19528 O 1916.62 1.15246 1.41508 0
M  V30 19529 C 1916.67 3.38622 -1.26559 0
M  V30 19530 O 1916.39 3.48321 -2.65714 0
M  V30 19531 C 1917.89 4.30629 -1.05232 0
M  V30 19532 H 1915.11 0.598038 -0.304288 0
M  V30 19533 H 1917.65 1.44129 -1.45076 0
M  V30 19534 H 1915.81 3.80954 -0.703737 0
M  V30 19535 H 1916.22 4.41387 -2.83333 0
M  V30 19536 H 1917.7 5.34057 -1.39598 0
M  V30 19537 H 1918.17 4.39199 0.0102308 0
M  V30 19538 H 1918.78 3.9406 -1.5999 0
M  V30 19539 N 1917.1 0.876467 1.3098 0
M  V30 19540 C 1918.32 0.505315 2.00634 0
M  V30 19541 C 1918.74 -0.903951 1.65753 0
M  V30 19542 O 1918.1 -1.59318 0.890164 0
M  V30 19543 C 1918.15 0.660442 3.55416 0
M  V30 19544 O 1917.87 2.01422 3.89051 0
M  V30 19545 C 1919.37 0.291158 4.42343 0
M  V30 19546 H 1916.59 0.196195 0.641676 0
M  V30 19547 H 1919.13 1.17942 1.67062 0
M  V30 19548 H 1917.29 0.0338076 3.87385 0
M  V30 19549 H 1917.7 2.02668 4.83762 0
M  V30 19550 H 1919.18 0.450631 5.50158 0
M  V30 19551 H 1919.65 -0.770188 4.32394 0
M  V30 19552 H 1920.26 0.893762 4.15803 0
M  V30 19553 N 1918.57 -1.44173 0.636557 0
M  V30 19554 C 1919.8 -2.06352 0.150456 0
M  V30 19555 C 1920.22 -1.47608 -1.17718 0
M  V30 19556 O 1919.57 -0.601003 -1.7232 0
M  V30 19557 C 1919.62 -3.61483 0.0353658 0
M  V30 19558 O 1919.35 -4.1804 1.3105 0
M  V30 19559 C 1920.85 -4.40707 -0.478789 0
M  V30 19560 H 1918.07 -0.665948 0.0821807 0
M  V30 19561 H 1920.61 -1.84953 0.872495 0
M  V30 19562 H 1918.77 -3.82125 -0.637142 0
M  V30 19563 H 1919.18 -5.11538 1.15886 0
M  V30 19564 H 1920.65 -5.49655 -0.508315 0
M  V30 19565 H 1921.13 -4.1254 -1.5069 0
M  V30 19566 H 1921.74 -4.24996 0.160654 0
M  V30 19567 N 1920.05 -0.377435 -1.53014 0
M  V30 19568 C 1921.33 0.265508 -1.9379 0
M  V30 19569 C 1921.71 1.65381 -1.31195 0
M  V30 19570 O 1921.06 2.23497 -0.475517 0
M  V30 19571 C 1921.27 0.303805 -3.47675 0
M  V30 19572 C 1922.61 0.538469 -4.21172 0
M  V30 19573 O 1923.64 0.384517 -3.54118 0
M  V30 19574 O 1922.5 0.839154 -5.40019 0
M  V30 19575 H 1919.59 0.161997 -0.810978 0
M  V30 19576 H 1922.14 -0.431081 -1.64133 0
M  V30 19577 H 1920.91 -0.669104 -3.85537 0
M  V30 19578 H 1920.53 1.0458 -3.836 0
M  V30 19579 N 1921.53 1.57237 -0.106922 0
M  V30 19580 C 1922.44 2.18202 0.861685 0
M  V30 19581 C 1923.46 1.15476 1.30159 0
M  V30 19582 O 1924.63 1.47896 1.36707 0
M  V30 19583 C 1921.7 2.7598 2.09847 0
M  V30 19584 C 1920.76 3.93702 1.71164 0
M  V30 19585 C 1919.99 4.48716 2.88946 0
M  V30 19586 O 1920.21 4.02645 4.04021 0
M  V30 19587 O 1919.15 5.39573 2.66729 0
M  V30 19588 H 1922.97 3.01402 0.372924 0
M  V30 19589 H 1920.56 1.48933 0.118058 0
M  V30 19590 H 1922.44 3.12861 2.82305 0
M  V30 19591 H 1921.12 1.9582 2.57753 0
M  V30 19592 H 1920.02 3.61613 0.958499 0
M  V30 19593 H 1921.36 4.75262 1.28011 0
M  V30 19594 N 1923.01 -0.166818 1.56715 0
M  V30 19595 C 1924.26 -0.880972 1.81888 0
M  V30 19596 C 1924.58 -1.82586 0.68465 0
M  V30 19597 O 1923.85 -1.93663 -0.295173 0
M  V30 19598 H 1922.43 -0.32831 0.670985 0
M  V30 19599 H 1925.09 -0.165558 1.94196 0
M  V30 19600 H 1924.19 -1.45517 2.761 0
M  V30 19601 N 1924.49 -1.51463 -0.435524 0
M  V30 19602 C 1925.4 -1.75755 -1.55394 0
M  V30 19603 C 1926.41 -0.641853 -1.61729 0
M  V30 19604 O 1927.59 -0.924311 -1.78937 0
M  V30 19605 C 1924.65 -1.87908 -2.91361 0
M  V30 19606 C 1923.71 -3.11766 -2.95128 0
M  V30 19607 C 1922.95 -3.2333 -4.2461 0
M  V30 19608 O 1923.17 -2.40789 -5.17085 0
M  V30 19609 O 1922.1 -4.16319 -4.34698 0
M  V30 19610 H 1925.93 -2.70633 -1.3781 0
M  V30 19611 H 1923.52 -1.35986 -0.618717 0
M  V30 19612 H 1925.4 -1.97877 -3.72052 0
M  V30 19613 H 1924.07 -0.962179 -3.09069 0
M  V30 19614 H 1922.98 -3.07274 -2.13386 0
M  V30 19615 H 1924.31 -4.03151 -2.82365 0
M  V30 19616 N 1925.96 0.691085 -1.4164 0
M  V30 19617 C 1927.19 1.48481 -1.44804 0
M  V30 19618 C 1927.61 1.88016 -0.0561606 0
M  V30 19619 O 1926.97 1.54927 0.941657 0
M  V30 19620 C 1927.02 2.72083 -2.3665 0
M  V30 19621 O 1926.12 3.6974 -1.82663 0
M  V30 19622 H 1925.47 0.446714 -0.491267 0
M  V30 19623 H 1928 0.849076 -1.8615 0
M  V30 19624 H 1928.01 3.2034 -2.52678 0
M  V30 19625 H 1926.68 2.42645 -3.37781 0
M  V30 19626 H 1925.26 3.28695 -1.76108 0
M  V30 19627 N 1927.44 1.27542 0.925789 0
M  V30 19628 C 1928.69 1.13767 1.67038 0
M  V30 19629 C 1929.01 -0.316603 1.92413 0
M  V30 19630 O 1928.28 -1.22124 1.53175 0
M  V30 19631 H 1926.86 0.41803 0.61908 0
M  V30 19632 H 1929.52 1.60097 1.11153 0
M  V30 19633 H 1928.62 1.66818 2.63777 0
M  V30 19634 N 1928.92 -1.13255 1.09595 0
M  V30 19635 C 1930.15 -1.88952 0.855104 0
M  V30 19636 C 1930.57 -1.78668 -0.588174 0
M  V30 19637 O 1929.93 -1.13544 -1.41341 0
M  V30 19638 C 1929.98 -3.36461 1.29717 0
M  V30 19639 O 1929.08 -4.09863 0.456717 0
M  V30 19640 H 1928.42 -0.587432 0.309547 0
M  V30 19641 H 1930.95 -1.43282 1.46053 0
M  V30 19642 H 1930.96 -3.87291 1.28333 0
M  V30 19643 H 1929.64 -3.43263 2.34826 0
M  V30 19644 H 1928.21 -3.69042 0.535026 0
M  V30 19645 N 1930.4 -0.883401 -1.30514 0
M  V30 19646 C 1931.35 -0.320484 -2.25736 0
M  V30 19647 C 1932.33 0.550165 -1.51202 0
M  V30 19648 O 1933.52 0.394846 -1.7254 0
M  V30 19649 C 1930.65 0.465347 -3.40131 0
M  V30 19650 C 1929.74 -0.419301 -4.22022 0
M  V30 19651 N 1930.13 -1.51903 -4.82451 0
M  V30 19652 C 1928.43 -0.214132 -4.45486 0
M  V30 19653 C 1929.13 -2.06567 -5.43788 0
M  V30 19654 N 1928.11 -1.36084 -5.26291 0
M  V30 19655 H 1931.91 -1.1608 -2.70005 0
M  V30 19656 H 1929.42 -0.732634 -1.44935 0
M  V30 19657 H 1931.42 0.885249 -4.07393 0
M  V30 19658 H 1930.08 1.30312 -2.97403 0
M  V30 19659 H 1931.09 -1.90189 -4.81714 0
M  V30 19660 H 1927.77 0.586602 -4.13358 0
M  V30 19661 H 1929.16 -2.98909 -6.0175 0
M  V30 19662 N 1931.88 1.43833 -0.644194 0
M  V30 19663 C 1933.1 2.06784 -0.159719 0
M  V30 19664 C 1933.53 1.47913 1.16204 0
M  V30 19665 O 1932.88 0.585574 1.71583 0
M  V30 19666 C 1932.93 3.60527 -0.0724271 0
M  V30 19667 O 1932.04 4.0088 0.967917 0
M  V30 19668 H 1931.38 0.657771 -0.0907406 0
M  V30 19669 H 1933.91 1.8449 -0.884568 0
M  V30 19670 H 1933.92 4.07841 0.113872 0
M  V30 19671 H 1932.59 4.02755 -1.03736 0
M  V30 19672 H 1931.17 3.65174 0.755135 0
M  V30 19673 N 1933.35 0.385544 1.52811 0
M  V30 19674 C 1934.6 -0.198138 2.0183 0
M  V30 19675 C 1934.93 -1.46774 1.27165 0
M  V30 19676 O 1934.21 -1.90928 0.371034 0
M  V30 19677 C 1934.49 -0.469873 3.57021 0
M  V30 19678 C 1934.34 0.814756 4.42359 0
M  V30 19679 C 1935.66 -1.26209 4.21615 0
M  V30 19680 H 1932.78 -0.0705386 0.733617 0
M  V30 19681 H 1935.42 0.514372 1.82905 0
M  V30 19682 H 1933.57 -1.07684 3.73278 0
M  V30 19683 H 1935.25 1.45172 4.37862 0
M  V30 19684 H 1933.49 1.43088 4.09522 0
M  V30 19685 H 1934.16 0.57932 5.48952 0
M  V30 19686 H 1936.64 -0.748451 4.09313 0
M  V30 19687 H 1935.51 -1.42096 5.30188 0
M  V30 19688 H 1935.77 -2.27624 3.78998 0
M  V30 19689 N 1934.83 -1.57178 0.115259 0
M  V30 19690 C 1936.25 -1.57765 -0.241345 0
M  V30 19691 C 1936.45 -1.12775 -1.66985 0
M  V30 19692 O 1935.5 -0.813419 -2.39039 0
M  V30 19693 C 1936.82 -3.00698 -0.0114291 0
M  V30 19694 C 1938.37 -3.12904 -0.0776187 0
M  V30 19695 C 1938.84 -4.57831 0.124557 0
M  V30 19696 N 1940.33 -4.63146 0.0703998 0
M  V30 19697 C 1941.07 -5.73045 0.20179 0
M  V30 19698 N 1940.56 -6.91706 0.389143 0
M  V30 19699 N 1942.36 -5.61922 0.141629 0
M  V30 19700 H 1934.51 -1.84725 1.04836 0
M  V30 19701 H 1936.77 -0.853542 0.412517 0
M  V30 19702 H 1936.48 -3.37886 0.975995 0
M  V30 19703 H 1936.35 -3.69771 -0.744947 0
M  V30 19704 H 1938.74 -2.75575 -1.05556 0
M  V30 19705 H 1938.82 -2.46382 0.687719 0
M  V30 19706 H 1938.46 -4.95857 1.09946 0
M  V30 19707 H 1938.39 -5.22439 -0.660721 0
M  V30 19708 H 1940.88 -3.77833 -0.0710442 0
M  V30 19709 H 1941.2 -7.71306 0.480365 0
M  V30 19710 H 1939.54 -6.93699 0.425069 0
M  V30 19711 H 1942.73 -4.681 -0.00374873 0
M  V30 19712 H 1942.9 -6.47527 0.24747 0
M  V30 19713 N 1936.31 0.158505 -1.56801 0
M  V30 19714 C 1937.56 0.873038 -1.82714 0
M  V30 19715 C 1937.89 1.81683 -0.694361 0
M  V30 19716 O 1937.14 1.93108 0.31748 0
M  V30 19717 C 1937.44 1.69067 -3.14883 0
M  V30 19718 C 1937.11 0.894671 -4.41935 0
M  V30 19719 C 1935.77 0.675029 -4.76442 0
M  V30 19720 C 1938.12 0.337213 -5.20108 0
M  V30 19721 C 1935.45 -0.112965 -5.86591 0
M  V30 19722 C 1937.8 -0.43776 -6.31084 0
M  V30 19723 C 1936.46 -0.668085 -6.64148 0
M  V30 19724 H 1935.73 0.319467 -0.668597 0
M  V30 19725 H 1938.38 0.137273 -1.91007 0
M  V30 19726 H 1936.69 2.4962 -3.01988 0
M  V30 19727 H 1938.38 2.24679 -3.32145 0
M  V30 19728 H 1934.97 1.07592 -4.14876 0
M  V30 19729 H 1939.16 0.494212 -4.93833 0
M  V30 19730 H 1934.41 -0.301026 -6.10658 0
M  V30 19731 H 1938.59 -0.876909 -6.90857 0
M  V30 19732 H 1936.21 -1.28055 -7.49337 0
M  V30 19733 N 1937.79 1.51692 0.427485 0
M  V30 19734 C 1938.75 1.73114 1.50214 0
M  V30 19735 C 1939.75 0.601079 1.49143 0
M  V30 19736 O 1940.94 0.86875 1.50991 0
M  V30 19737 C 1938.07 1.79666 2.89712 0
M  V30 19738 H 1939.27 2.69033 1.32518 0
M  V30 19739 H 1936.82 1.4183 0.656804 0
M  V30 19740 H 1937.56 0.855968 3.128 0
M  V30 19741 H 1937.34 2.61803 2.91893 0
M  V30 19742 H 1938.83 1.98045 3.67652 0
M  V30 19743 N 1939.27 -0.683564 1.42004 0
M  V30 19744 C 1940.23 -1.77907 1.44505 0
M  V30 19745 C 1941.23 -1.57295 0.333889 0
M  V30 19746 O 1942.42 -1.63748 0.594323 0
M  V30 19747 C 1939.55 -3.16434 1.26815 0
M  V30 19748 H 1940.75 -1.7708 2.42039 0
M  V30 19749 H 1938.3 -0.892355 1.28323 0
M  V30 19750 H 1939.03 -3.22894 0.301695 0
M  V30 19751 H 1938.82 -3.32798 2.07335 0
M  V30 19752 H 1940.31 -3.96379 1.31428 0
M  V30 19753 N 1940.75 -1.28031 -0.919012 0
M  V30 19754 C 1941.68 -1.14034 -2.03761 0
M  V30 19755 C 1942.66 -0.039495 -1.70054 0
M  V30 19756 O 1943.84 -0.215546 -1.93 0
M  V30 19757 C 1940.97 -0.795894 -3.38057 0
M  V30 19758 C 1939.93 -1.85093 -3.85907 0
M  V30 19759 C 1939.25 -1.36024 -5.17109 0
M  V30 19760 C 1940.55 -3.25658 -4.08343 0
M  V30 19761 H 1942.25 -2.07609 -2.15729 0
M  V30 19762 H 1939.79 -0.999558 -1.03657 0
M  V30 19763 H 1941.74 -0.684762 -4.15799 0
M  V30 19764 H 1940.47 0.175558 -3.26128 0
M  V30 19765 H 1939.13 -1.95112 -3.10366 0
M  V30 19766 H 1938.78 -0.378004 -5.01578 0
M  V30 19767 H 1938.48 -2.06568 -5.50094 0
M  V30 19768 H 1940 -1.26223 -5.97411 0
M  V30 19769 H 1941.41 -3.1859 -4.76627 0
M  V30 19770 H 1939.81 -3.93989 -4.52651 0
M  V30 19771 H 1940.88 -3.70066 -3.13335 0
M  V30 19772 N 1942.22 1.12672 -1.10194 0
M  V30 19773 C 1943.13 2.2192 -0.76082 0
M  V30 19774 C 1944.15 1.72328 0.240604 0
M  V30 19775 O 1945.33 2.01241 0.0799808 0
M  V30 19776 C 1942.39 3.46151 -0.19501 0
M  V30 19777 C 1941.45 4.10595 -1.25339 0
M  V30 19778 C 1940.68 5.28896 -0.714485 0
M  V30 19779 O 1940.91 5.68543 0.459943 0
M  V30 19780 O 1939.84 5.83592 -1.47324 0
M  V30 19781 H 1943.67 2.53487 -1.67266 0
M  V30 19782 H 1941.25 1.20959 -0.876892 0
M  V30 19783 H 1943.13 4.21238 0.116809 0
M  V30 19784 H 1941.81 3.16266 0.689729 0
M  V30 19785 H 1940.72 3.37299 -1.61803 0
M  V30 19786 H 1942.05 4.44629 -2.11106 0
M  V30 19787 N 1943.7 0.89031 1.30043 0
M  V30 19788 C 1944.63 0.31832 2.26979 0
M  V30 19789 C 1945.65 -0.530108 1.53928 0
M  V30 19790 O 1946.84 -0.348791 1.75059 0
M  V30 19791 C 1943.94 -0.565563 3.34148 0
M  V30 19792 C 1943.11 0.255006 4.36656 0
M  V30 19793 C 1942.17 -0.560216 5.23209 0
M  V30 19794 O 1941.19 0.0189739 5.69197 0
M  V30 19795 N 1942.4 -1.86825 5.49615 0
M  V30 19796 H 1945.16 1.15143 2.76699 0
M  V30 19797 H 1942.72 0.753836 1.43279 0
M  V30 19798 H 1944.71 -1.11711 3.88976 0
M  V30 19799 H 1943.28 -1.29935 2.84316 0
M  V30 19800 H 1942.5 0.987993 3.81618 0
M  V30 19801 H 1943.79 0.817308 5.02193 0
M  V30 19802 H 1943.19 -2.36167 5.14045 0
M  V30 19803 H 1941.75 -2.36713 6.07297 0
M  V30 19804 N 1945.18 -1.43489 0.651812 0
M  V30 19805 C 1946.59 -1.85091 0.2446 0
M  V30 19806 C 1946.94 -1.54561 -1.20852 0
M  V30 19807 O 1946.07 -0.993885 -1.92226 0
M  V30 19808 C 1946.66 -3.35968 0.43715 0
M  V30 19809 C 1945.22 -3.76306 0.0842681 0
M  V30 19810 C 1944.37 -2.67225 0.740688 0
M  V30 19811 H 1947.32 -1.33662 0.855581 0
M  V30 19812 H 1947.34 -3.79171 -0.317766 0
M  V30 19813 H 1946.85 -3.58157 1.49484 0
M  V30 19814 H 1944.95 -3.59729 -0.970875 0
M  V30 19815 H 1945.07 -4.76391 0.508752 0
M  V30 19816 H 1943.43 -2.54105 0.174053 0
M  V30 19817 H 1944.21 -2.92242 1.80137 0
M  V30 19818 N 1946.66 -0.393643 -1.52605 0
M  V30 19819 C 1947.57 0.446642 -2.30309 0
M  V30 19820 C 1948.58 1.06758 -1.374 0
M  V30 19821 O 1949.76 1.07246 -1.70471 0
M  V30 19822 C 1946.82 1.5564 -3.09802 0
M  V30 19823 C 1945.89 0.960113 -4.18426 0
M  V30 19824 C 1945.12 2.01698 -4.94119 0
M  V30 19825 O 1945.34 3.23273 -4.69947 0
M  V30 19826 O 1944.28 1.63186 -5.79357 0
M  V30 19827 H 1948.1 -0.186494 -3.03127 0
M  V30 19828 H 1945.69 -0.157245 -1.4857 0
M  V30 19829 H 1947.57 2.201 -3.59352 0
M  V30 19830 H 1946.24 2.17442 -2.39793 0
M  V30 19831 H 1945.15 0.278648 -3.73061 0
M  V30 19832 H 1946.48 0.386245 -4.90682 0
M  V30 19833 N 1948.14 1.57115 -0.123593 0
M  V30 19834 C 1949.38 1.95641 0.534082 0
M  V30 19835 C 1949.71 1.00726 1.66036 0
M  V30 19836 O 1948.99 0.045312 1.94447 0
M  V30 19837 C 1949.27 3.4407 1.06244 0
M  V30 19838 C 1949.13 4.49759 -0.0607321 0
M  V30 19839 C 1950.44 3.94451 1.95183 0
M  V30 19840 H 1947.56 0.71137 0.19267 0
M  V30 19841 H 1950.21 1.88944 -0.200083 0
M  V30 19842 H 1948.36 3.49909 1.68808 0
M  V30 19843 H 1950.03 4.56016 -0.69621 0
M  V30 19844 H 1948.27 4.27729 -0.723232 0
M  V30 19845 H 1948.94 5.50888 0.350271 0
M  V30 19846 H 1951.42 3.90945 1.42483 0
M  V30 19847 H 1950.29 4.98817 2.29069 0
M  V30 19848 H 1950.55 3.35417 2.88007 0
M  V30 19849 N 1949.61 -0.150187 1.56883 0
M  V30 19850 C 1950.52 -1.20504 2.01286 0
M  V30 19851 C 1951.54 -1.47204 0.927733 0
M  V30 19852 O 1952.72 -1.58937 1.23697 0
M  V30 19853 C 1949.78 -2.51932 2.38184 0
M  V30 19854 C 1948.84 -2.32906 3.60629 0
M  V30 19855 C 1948.07 -3.58067 3.95757 0
M  V30 19856 O 1948.3 -4.64119 3.31587 0
M  V30 19857 O 1947.23 -3.5092 4.89018 0
M  V30 19858 H 1951.06 -0.858075 2.91326 0
M  V30 19859 H 1948.64 -0.358669 1.45031 0
M  V30 19860 H 1950.52 -3.29423 2.6279 0
M  V30 19861 H 1949.2 -2.86165 1.513 0
M  V30 19862 H 1948.11 -1.53377 3.41213 0
M  V30 19863 H 1949.44 -2.0359 4.4812 0
M  V30 19864 N 1951.09 -1.51916 -0.419434 0
M  V30 19865 C 1952.51 -1.4049 -0.757287 0
M  V30 19866 C 1952.71 -0.501274 -1.95165 0
M  V30 19867 O 1951.76 0.0368349 -2.52473 0
M  V30 19868 C 1953.08 -2.8284 -1.02088 0
M  V30 19869 C 1954.63 -2.92113 -1.12422 0
M  V30 19870 C 1955.1 -4.3541 -1.42064 0
M  V30 19871 N 1956.59 -4.38598 -1.4895 0
M  V30 19872 C 1957.33 -5.46524 -1.73492 0
M  V30 19873 N 1956.82 -6.64583 -1.95706 0
M  V30 19874 N 1958.62 -5.34026 -1.75422 0
M  V30 19875 H 1950.77 -2.09207 0.366909 0
M  V30 19876 H 1953.03 -0.942516 0.101822 0
M  V30 19877 H 1952.74 -3.51038 -0.215755 0
M  V30 19878 H 1952.61 -3.23259 -1.9438 0
M  V30 19879 H 1955 -2.24103 -1.91994 0
M  V30 19880 H 1955.08 -2.55167 -0.179896 0
M  V30 19881 H 1954.72 -5.03976 -0.630123 0
M  V30 19882 H 1954.65 -4.69884 -2.37731 0
M  V30 19883 H 1957.14 -3.53491 -1.33614 0
M  V30 19884 H 1957.46 -7.42621 -2.13854 0
M  V30 19885 H 1955.8 -6.67667 -1.92992 0
M  V30 19886 H 1958.99 -4.40773 -1.57598 0
M  V30 19887 H 1959.16 -6.18212 -1.9421 0
M  V30 19888 N 1952.57 0.676023 -1.42365 0
M  V30 19889 C 1953.99 0.989001 -1.25263 0
M  V30 19890 C 1954.19 2.00896 -0.155941 0
M  V30 19891 O 1953.24 2.48026 0.473229 0
M  V30 19892 C 1954.56 1.49498 -2.60904 0
M  V30 19893 C 1956.1 1.61281 -2.68249 0
M  V30 19894 C 1956.58 2.15275 -4.04253 0
M  V30 19895 N 1958.07 2.2261 -4.06201 0
M  V30 19896 C 1958.8 2.6546 -5.08251 0
M  V30 19897 N 1958.3 3.07771 -6.20684 0
M  V30 19898 N 1960.09 2.65198 -4.95607 0
M  V30 19899 H 1952.24 0.000697929 -2.124 0
M  V30 19900 H 1954.51 0.0628334 -0.945915 0
M  V30 19901 H 1954.21 0.820033 -3.42006 0
M  V30 19902 H 1954.09 2.47392 -2.8474 0
M  V30 19903 H 1956.47 2.27882 -1.87493 0
M  V30 19904 H 1956.56 0.618793 -2.48203 0
M  V30 19905 H 1956.2 1.49284 -4.85466 0
M  V30 19906 H 1956.13 3.15466 -4.2165 0
M  V30 19907 H 1958.62 1.92776 -3.25032 0
M  V30 19908 H 1958.93 3.3915 -6.94404 0
M  V30 19909 H 1957.28 3.05631 -6.24191 0
M  V30 19910 H 1960.47 2.31504 -4.06846 0
M  V30 19911 H 1960.64 2.98272 -5.75272 0
M  V30 19912 N 1954.05 1.28517 0.912209 0
M  V30 19913 C 1955.46 1.14251 1.4766 0
M  V30 19914 C 1955.81 -0.266935 1.94376 0
M  V30 19915 O 1954.94 -1.16134 1.82598 0
M  V30 19916 C 1955.53 2.06792 2.6837 0
M  V30 19917 C 1954.09 1.96587 3.20984 0
M  V30 19918 C 1953.24 1.98444 1.93689 0
M  V30 19919 H 1956.19 1.41184 0.724769 0
M  V30 19920 H 1956.21 1.63282 3.43685 0
M  V30 19921 H 1955.72 3.09365 2.34339 0
M  V30 19922 H 1953.82 0.970565 3.59737 0
M  V30 19923 H 1953.93 2.83622 3.86129 0
M  V30 19924 H 1952.3 1.42872 2.10855 0
M  V30 19925 H 1953.08 3.02699 1.61951 0
M  V30 19926 N 1955.53 -1.12086 1.1079 0
M  V30 19927 C 1956.75 -1.88034 0.875097 0
M  V30 19928 C 1957.18 -1.79281 -0.569191 0
M  V30 19929 O 1956.53 -1.15037 -1.40129 0
M  V30 19930 C 1956.58 -3.35066 1.33278 0
M  V30 19931 O 1955.69 -4.09356 0.500163 0
M  V30 19932 H 1955.03 -0.584116 0.31576 0
M  V30 19933 H 1957.56 -1.41725 1.47564 0
M  V30 19934 H 1957.57 -3.85908 1.32434 0
M  V30 19935 H 1956.24 -3.40753 2.38453 0
M  V30 19936 H 1954.82 -3.68454 0.574137 0
M  V30 19937 N 1957 -0.897194 -1.29569 0
M  V30 19938 C 1958.42 -0.570676 -1.77764 0
M  V30 19939 C 1958.77 0.913595 -1.73631 0
M  V30 19940 O 1957.89 1.71426 -1.32068 0
M  V30 19941 C 1958.49 -1.02914 -3.22791 0
M  V30 19942 C 1957.05 -0.753828 -3.68774 0
M  V30 19943 C 1956.19 -1.20525 -2.49738 0
M  V30 19944 H 1959.14 -1.08018 -1.16266 0
M  V30 19945 H 1959.16 -0.363343 -3.78761 0
M  V30 19946 H 1958.68 -2.10944 -3.25767 0
M  V30 19947 H 1956.78 0.313965 -3.71275 0
M  V30 19948 H 1956.89 -1.34995 -4.59688 0
M  V30 19949 H 1955.25 -0.624304 -2.4693 0
M  V30 19950 H 1956.04 -2.29355 -2.55443 0
M  V30 19951 N 1958.48 1.43142 -0.659413 0
M  V30 19952 C 1959.43 2.27943 0.0508556 0
M  V30 19953 C 1960.42 1.40243 0.788715 0
M  V30 19954 O 1961.61 1.63823 0.670161 0
M  V30 19955 C 1958.74 3.28037 1.01225 0
M  V30 19956 C 1957.82 4.23223 0.272538 0
M  V30 19957 N 1958.21 5.00731 -0.714288 0
M  V30 19958 C 1956.51 4.43038 0.51313 0
M  V30 19959 C 1957.21 5.7014 -1.15391 0
M  V30 19960 N 1956.19 5.41415 -0.486918 0
M  V30 19961 H 1959.99 2.85287 -0.706293 0
M  V30 19962 H 1957.51 1.5492 -0.487201 0
M  V30 19963 H 1959.5 3.87575 1.53594 0
M  V30 19964 H 1958.16 2.72255 1.76939 0
M  V30 19965 H 1959.17 5.0623 -1.09325 0
M  V30 19966 H 1955.85 3.98318 1.25096 0
M  V30 19967 H 1957.24 6.42347 -1.97079 0
M  V30 19968 N 1959.96 0.40173 1.52394 0
M  V30 19969 C 1961.24 -0.234644 1.94187 0
M  V30 19970 C 1961.62 -1.63273 1.3381 0
M  V30 19971 O 1960.97 -2.22713 0.511013 0
M  V30 19972 C 1961.18 -0.248454 3.48114 0
M  V30 19973 C 1962.52 -0.471396 4.21975 0
M  V30 19974 O 1963.55 -0.328131 3.54685 0
M  V30 19975 O 1962.41 -0.753135 5.41286 0
M  V30 19976 H 1959.5 -0.149075 0.813453 0
M  V30 19977 H 1962.05 0.457138 1.63427 0
M  V30 19978 H 1960.82 0.730355 3.84424 0
M  V30 19979 H 1960.44 -0.984644 3.85215 0
M  V30 19980 N 1961.44 -1.57047 0.131923 0
M  V30 19981 C 1962.35 -2.19545 -0.826862 0
M  V30 19982 C 1963.36 -1.17532 -1.28305 0
M  V30 19983 O 1964.54 -1.50052 -1.34337 0
M  V30 19984 C 1961.61 -2.79284 -2.0543 0
M  V30 19985 C 1960.67 -3.96375 -1.64879 0
M  V30 19986 C 1959.9 -4.53256 -2.81771 0
M  V30 19987 O 1960.12 -4.09022 -3.97564 0
M  V30 19988 O 1959.06 -5.43748 -2.58111 0
M  V30 19989 H 1962.88 -3.01957 -0.324926 0
M  V30 19990 H 1960.47 -1.49102 -0.0943495 0
M  V30 19991 H 1962.35 -3.17312 -2.77292 0
M  V30 19992 H 1961.02 -1.99895 -2.54605 0
M  V30 19993 H 1959.93 -3.63092 -0.900848 0
M  V30 19994 H 1961.26 -4.77238 -1.20434 0
M  V30 19995 N 1962.92 0.141865 -1.5696 0
M  V30 19996 C 1963.83 1.19435 -2.01922 0
M  V30 19997 C 1964.84 1.4671 -0.935527 0
M  V30 19998 O 1966.02 1.58279 -1.24538 0
M  V30 19999 C 1963.08 2.50665 -2.39516 0
M  V30 20000 C 1962.14 2.30991 -3.61859 0
M  V30 20001 C 1961.38 3.55963 -3.9765 0
M  V30 20002 O 1961.6 4.62354 -3.34044 0
M  V30 20003 O 1960.53 3.48322 -4.90872 0
M  V30 20004 H 1964.36 0.842613 -2.91777 0
M  V30 20005 H 1961.95 0.350973 -1.45219 0
M  V30 20006 H 1963.83 3.28024 -2.64534 0
M  V30 20007 H 1962.5 2.85358 -1.52815 0
M  V30 20008 H 1961.41 1.51565 -3.42022 0
M  V30 20009 H 1962.74 2.01211 -4.49194 0
M  V30 20010 N 1964.39 1.52136 0.411372 0
M  V30 20011 C 1965.3 1.78205 1.52579 0
M  V30 20012 C 1966.32 0.667501 1.60687 0
M  V30 20013 O 1967.5 0.952661 1.77444 0
M  V30 20014 C 1964.56 1.9252 2.88335 0
M  V30 20015 C 1963.62 3.16421 2.90131 0
M  V30 20016 C 1962.86 3.30044 4.19412 0
M  V30 20017 O 1963.08 2.48985 5.13189 0
M  V30 20018 O 1962.01 4.23182 4.2802 0
M  V30 20019 H 1965.84 2.72791 1.33487 0
M  V30 20020 H 1963.42 1.36953 0.597004 0
M  V30 20021 H 1965.31 2.03771 3.68857 0
M  V30 20022 H 1963.98 1.01123 3.07499 0
M  V30 20023 H 1962.89 3.1063 2.08471 0
M  V30 20024 H 1964.22 4.07592 2.75916 0
M  V30 20025 N 1965.87 -0.668464 1.42721 0
M  V30 20026 C 1967.12 -1.42849 1.43528 0
M  V30 20027 C 1967.45 -1.94425 0.0540077 0
M  V30 20028 O 1966.7 -1.71721 -0.938629 0
M  V30 20029 C 1967 -2.63743 2.41194 0
M  V30 20030 C 1966.67 -2.30672 3.87429 0
M  V30 20031 C 1965.33 -2.21365 4.2726 0
M  V30 20032 C 1967.68 -2.03937 4.79645 0
M  V30 20033 C 1965.01 -1.83456 5.5728 0
M  V30 20034 C 1967.36 -1.6753 6.10013 0
M  V30 20035 C 1966.03 -1.56737 6.48837 0
M  V30 20036 H 1965.3 -0.522721 0.525208 0
M  V30 20037 H 1967.94 -0.761625 1.75703 0
M  V30 20038 H 1966.25 -3.35491 2.02369 0
M  V30 20039 H 1967.95 -3.21934 2.3908 0
M  V30 20040 H 1964.54 -2.38821 3.55896 0
M  V30 20041 H 1968.72 -2.10057 4.49655 0
M  V30 20042 H 1963.98 -1.73674 5.86214 0
M  V30 20043 H 1968.15 -1.4587 6.80952 0
M  V30 20044 H 1965.78 -1.27133 7.49494 0
M  V30 20045 N 1967.35 -1.28999 -0.905381 0
M  V30 20046 C 1968.26 -1.15513 -2.04191 0
M  V30 20047 C 1969.28 -0.0797116 -1.73817 0
M  V30 20048 O 1970.45 -0.290664 -1.99292 0
M  V30 20049 C 1967.52 -0.826901 -3.36695 0
M  V30 20050 C 1966.58 -1.98557 -3.80623 0
M  V30 20051 C 1965.81 -1.6729 -5.06803 0
M  V30 20052 O 1966.04 -0.591168 -5.67328 0
M  V30 20053 O 1964.97 -2.51914 -5.46647 0
M  V30 20054 H 1968.8 -2.10942 -2.18488 0
M  V30 20055 H 1966.38 -1.08397 -1.02813 0
M  V30 20056 H 1968.26 -0.658165 -4.16228 0
M  V30 20057 H 1966.94 0.0976541 -3.23553 0
M  V30 20058 H 1965.84 -2.20951 -3.0188 0
M  V30 20059 H 1967.18 -2.89112 -3.9834 0
M  V30 20060 N 1968.83 1.11497 -1.11383 0
M  V30 20061 C 1970.08 1.83494 -0.863592 0
M  V30 20062 C 1970.41 1.84395 0.609259 0
M  V30 20063 O 1969.68 1.2966 1.44978 0
M  V30 20064 C 1969.97 3.30701 -1.42509 0
M  V30 20065 C 1969.82 3.38197 -2.96552 0
M  V30 20066 C 1971.14 4.26756 -1.07553 0
M  V30 20067 H 1968.26 0.666209 -0.315173 0
M  V30 20068 H 1970.9 1.30745 -1.37861 0
M  V30 20069 H 1969.05 3.75752 -0.987053 0
M  V30 20070 H 1970.72 3.01709 -3.48955 0
M  V30 20071 H 1968.96 2.78436 -3.3265 0
M  V30 20072 H 1969.64 4.41804 -3.30927 0
M  V30 20073 H 1972.11 3.89882 -1.45367 0
M  V30 20074 H 1970.99 5.28143 -1.49519 0
M  V30 20075 H 1971.25 4.42098 0.0137773 0
M  V30 20076 N 1970.31 0.904053 1.29092 0
M  V30 20077 C 1971.22 0.389825 2.31339 0
M  V30 20078 C 1972.23 -0.517628 1.66122 0
M  V30 20079 O 1973.41 -0.406158 1.97262 0
M  V30 20080 C 1970.47 -0.370468 3.44715 0
M  V30 20081 C 1969.54 0.569032 4.25512 0
M  V30 20082 C 1968.77 -0.155071 5.33475 0
M  V30 20083 O 1968.99 -1.37834 5.53496 0
M  V30 20084 O 1967.93 0.504642 5.99781 0
M  V30 20085 H 1971.75 1.2382 2.77313 0
M  V30 20086 H 1969.34 0.668528 1.33608 0
M  V30 20087 H 1971.22 -0.800237 4.13732 0
M  V30 20088 H 1969.89 -1.19484 3.00841 0
M  V30 20089 H 1968.8 1.048 3.59121 0
M  V30 20090 H 1970.13 1.35994 4.7304 0
M  V30 20091 N 1971.79 -1.4279 0.666995 0
M  V30 20092 C 1972.7 -2.34594 -0.0164305 0
M  V30 20093 C 1973.71 -1.54657 -0.797322 0
M  V30 20094 O 1974.89 -1.87256 -0.741426 0
M  V30 20095 C 1971.95 -3.33102 -0.961469 0
M  V30 20096 C 1971.01 -4.28939 -0.17598 0
M  V30 20097 C 1970.25 -5.22741 -1.076 0
M  V30 20098 O 1970.47 -5.21289 -2.31546 0
M  V30 20099 O 1969.4 -5.99464 -0.541001 0
M  V30 20100 H 1973.23 -2.94557 0.739579 0
M  V30 20101 H 1970.81 -1.43162 0.427207 0
M  V30 20102 H 1972.7 -3.93639 -1.5042 0
M  V30 20103 H 1971.37 -2.75623 -1.69746 0
M  V30 20104 H 1970.28 -3.71839 0.410667 0
M  V30 20105 H 1971.61 -4.89438 0.520737 0
M  V30 20106 N 1973.26 -0.409806 -1.52179 0
M  V30 20107 C 1974.23 0.40345 -2.25621 0
M  V30 20108 C 1975.23 0.973072 -1.28015 0
M  V30 20109 O 1976.42 0.851845 -1.51951 0
M  V30 20110 C 1973.55 1.568 -3.02699 0
M  V30 20111 H 1974.74 -0.239822 -2.9894 0
M  V30 20112 H 1972.29 -0.162341 -1.55455 0
M  V30 20113 H 1973.03 2.24811 -2.33731 0
M  V30 20114 H 1972.81 1.16603 -3.74361 0
M  V30 20115 H 1974.3 2.14326 -3.58405 0
M  V30 20116 N 1974.74 1.56975 -0.14025 0
M  V30 20117 C 1975.7 2.15234 0.78784 0
M  V30 20118 C 1976.7 1.09243 1.17994 0
M  V30 20119 O 1977.89 1.34916 1.10197 0
M  V30 20120 C 1975.03 2.70994 2.06821 0
M  V30 20121 H 1976.22 2.98579 0.281166 0
M  V30 20122 H 1973.77 1.55918 0.109151 0
M  V30 20123 H 1974.51 1.91297 2.6187 0
M  V30 20124 H 1974.29 3.48532 1.79633 0
M  V30 20125 H 1975.78 3.15904 2.7312 0
M  V30 20126 N 1976.22 -0.133539 1.57033 0
M  V30 20127 C 1977.13 -1.18362 2.02553 0
M  V30 20128 C 1978.15 -1.46212 0.943294 0
M  V30 20129 O 1979.32 -1.57616 1.25376 0
M  V30 20130 C 1976.39 -2.49391 2.40842 0
M  V30 20131 C 1975.45 -2.29068 3.63079 0
M  V30 20132 C 1974.68 -3.53849 3.99533 0
M  V30 20133 O 1974.9 -4.60576 3.36491 0
M  V30 20134 O 1973.84 -3.45713 4.92713 0
M  V30 20135 H 1977.66 -0.827128 2.9222 0
M  V30 20136 H 1975.25 -0.343267 1.45403 0
M  V30 20137 H 1977.13 -3.26617 2.66269 0
M  V30 20138 H 1975.81 -2.84544 1.54326 0
M  V30 20139 H 1974.71 -1.49749 3.42821 0
M  V30 20140 H 1976.05 -1.98826 4.50254 0
M  V30 20141 N 1977.7 -1.52352 -0.403298 0
M  V30 20142 C 1978.66 -1.75482 -1.4744 0
M  V30 20143 C 1979.66 -0.62473 -1.48168 0
M  V30 20144 O 1980.85 -0.892662 -1.4959 0
M  V30 20145 C 1977.98 -1.84253 -2.86817 0
M  V30 20146 H 1979.18 -2.71107 -1.28222 0
M  V30 20147 H 1976.73 -1.42857 -0.634157 0
M  V30 20148 H 1977.46 -0.905623 -3.11398 0
M  V30 20149 H 1977.25 -2.66414 -2.87691 0
M  V30 20150 H 1978.74 -2.03869 -3.64454 0
M  V30 20151 N 1979.18 0.660885 -1.43074 0
M  V30 20152 C 1980.11 1.78641 -1.43597 0
M  V30 20153 C 1981.12 1.59355 -0.333119 0
M  V30 20154 O 1982.31 1.68218 -0.597082 0
M  V30 20155 C 1979.41 3.15957 -1.22575 0
M  V30 20156 C 1978.58 3.61969 -2.45556 0
M  V30 20157 C 1977.64 4.78062 -2.19871 0
M  V30 20158 O 1976.67 4.87893 -2.93171 0
M  V30 20159 N 1977.87 5.67738 -1.21053 0
M  V30 20160 H 1980.63 1.78672 -2.40617 0
M  V30 20161 H 1978.2 0.844466 -1.38132 0
M  V30 20162 H 1980.19 3.91298 -1.03287 0
M  V30 20163 H 1978.76 3.10742 -0.34029 0
M  V30 20164 H 1977.98 2.77155 -2.80319 0
M  V30 20165 H 1979.27 3.89455 -3.27418 0
M  V30 20166 H 1978.66 5.6246 -0.604562 0
M  V30 20167 H 1977.22 6.42832 -1.0775 0
M  V30 20168 N 1980.65 1.29477 0.898527 0
M  V30 20169 C 1981.62 1.14706 1.98432 0
M  V30 20170 C 1982.62 0.0821822 1.6059 0
M  V30 20171 O 1983.81 0.329216 1.71061 0
M  V30 20172 C 1980.94 0.754356 3.32449 0
M  V30 20173 H 1982.13 2.11154 2.12964 0
M  V30 20174 H 1979.69 1.1268 1.08319 0
M  V30 20175 H 1980.42 -0.210224 3.23618 0
M  V30 20176 H 1980.21 1.52377 3.61281 0
M  V30 20177 H 1981.7 0.674095 4.12123 0
M  V30 20178 N 1982.13 -1.10905 1.11972 0
M  V30 20179 C 1983.04 -2.20682 0.796029 0
M  V30 20180 C 1984.06 -1.72689 -0.213158 0
M  V30 20181 O 1985.23 -2.01343 -0.047955 0
M  V30 20182 C 1982.3 -3.45797 0.250055 0
M  V30 20183 C 1981.36 -4.08549 1.31855 0
M  V30 20184 C 1980.59 -5.27692 0.798538 0
M  V30 20185 O 1980.82 -5.69202 -0.369435 0
M  V30 20186 O 1979.75 -5.81174 1.5659 0
M  V30 20187 H 1983.58 -2.50794 1.71278 0
M  V30 20188 H 1981.16 -1.19548 0.896024 0
M  V30 20189 H 1983.04 -4.21371 -0.0497791 0
M  V30 20190 H 1981.72 -3.17324 -0.639327 0
M  V30 20191 H 1980.63 -3.34682 1.67148 0
M  V30 20192 H 1981.96 -4.41215 2.18153 0
M  V30 20193 N 1983.61 -0.910886 -1.2861 0
M  V30 20194 C 1985.02 -0.589499 -1.77149 0
M  V30 20195 C 1985.37 0.895128 -1.74591 0
M  V30 20196 O 1984.5 1.70016 -1.33879 0
M  V30 20197 C 1985.09 -1.06332 -3.21682 0
M  V30 20198 C 1983.65 -0.792899 -3.67954 0
M  V30 20199 C 1982.8 -1.23167 -2.48445 0
M  V30 20200 H 1985.75 -1.09245 -1.15114 0
M  V30 20201 H 1985.77 -0.403495 -3.78355 0
M  V30 20202 H 1985.28 -2.14387 -3.23512 0
M  V30 20203 H 1983.38 0.274569 -3.71587 0
M  V30 20204 H 1983.5 -1.39863 -4.5823 0
M  V30 20205 H 1981.86 -0.650459 -2.46254 0
M  V30 20206 H 1982.64 -2.32051 -2.52996 0
M  V30 20207 N 1985.09 1.42434 -0.674558 0
M  V30 20208 C 1986.04 2.308 0.00392457 0
M  V30 20209 C 1987.01 1.45949 0.792972 0
M  V30 20210 O 1988.19 1.74781 0.765269 0
M  V30 20211 C 1985.33 3.31784 0.949392 0
M  V30 20212 C 1984.44 4.31725 0.154193 0
M  V30 20213 C 1983.58 5.19783 1.09539 0
M  V30 20214 C 1982.62 6.11404 0.291864 0
M  V30 20215 N 1981.75 6.92015 1.18576 0
M  V30 20216 H 1986.59 2.88266 -0.755438 0
M  V30 20217 H 1984.13 1.41992 -0.384274 0
M  V30 20218 H 1986.09 3.88861 1.51138 0
M  V30 20219 H 1984.72 2.75918 1.67539 0
M  V30 20220 H 1983.77 3.76768 -0.524416 0
M  V30 20221 H 1985.08 4.96584 -0.469669 0
M  V30 20222 H 1984.24 5.81592 1.72732 0
M  V30 20223 H 1982.98 4.551 1.75314 0
M  V30 20224 H 1981.98 5.48664 -0.353276 0
M  V30 20225 H 1983.21 6.78136 -0.361786 0
M  V30 20226 H 1981.15 6.29961 1.82991 0
M  V30 20227 H 1981.07 7.53478 0.616968 0
M  V30 20228 H 1982.34 7.5831 1.80516 0
M  V30 20229 N 1986.57 0.417871 1.51959 0
M  V30 20230 C 1987.84 -0.214034 1.94425 0
M  V30 20231 C 1988.22 -1.61845 1.35534 0
M  V30 20232 O 1987.57 -2.22158 0.534606 0
M  V30 20233 C 1987.78 -0.211518 3.48358 0
M  V30 20234 C 1989.13 -0.426614 4.22451 0
M  V30 20235 O 1990.15 -0.290493 3.55013 0
M  V30 20236 O 1989.01 -0.695682 5.42054 0
M  V30 20237 H 1986.11 -0.140439 0.814988 0
M  V30 20238 H 1988.65 0.474446 1.62933 0
M  V30 20239 H 1987.42 0.771087 3.83627 0
M  V30 20240 H 1987.05 -0.943731 3.86238 0
M  V30 20241 N 1988.04 -1.56898 0.148573 0
M  V30 20242 C 1989.29 -1.95788 -0.501154 0
M  V30 20243 C 1989.61 -1.03451 -1.65297 0
M  V30 20244 O 1988.88 -0.0963607 -1.95663 0
M  V30 20245 H 1987.46 -0.722922 -0.188129 0
M  V30 20246 H 1990.13 -1.93603 0.224439 0
M  V30 20247 H 1989.22 -2.99547 -0.876258 0
M  V30 20248 N 1989.52 0.125209 -1.57102 0
M  V30 20249 C 1990.75 0.852378 -1.89075 0
M  V30 20250 C 1991.17 1.72938 -0.739878 0
M  V30 20251 O 1990.53 1.78633 0.309828 0
M  V30 20252 C 1990.58 1.66688 -3.19762 0
M  V30 20253 O 1989.68 2.77324 -3.0523 0
M  V30 20254 H 1989.02 0.236103 -0.620606 0
M  V30 20255 H 1991.55 0.109473 -2.04307 0
M  V30 20256 H 1991.56 2.0574 -3.52328 0
M  V30 20257 H 1990.24 1.02303 -4.03121 0
M  V30 20258 H 1988.82 2.41519 -2.84118 0
M  V30 20259 N 1991 1.52564 0.395213 0
M  V30 20260 C 1992.41 1.59315 0.973429 0
M  V30 20261 C 1992.76 0.442173 1.91152 0
M  V30 20262 O 1991.89 -0.4356 2.1197 0
M  V30 20263 C 1992.48 2.88751 1.77224 0
M  V30 20264 C 1991.04 2.97935 2.30026 0
M  V30 20265 C 1990.19 2.54376 1.10401 0
M  V30 20266 H 1993.14 1.57733 0.174968 0
M  V30 20267 H 1993.16 2.74887 2.63091 0
M  V30 20268 H 1992.67 3.72502 1.08922 0
M  V30 20269 H 1990.77 2.18708 3.01658 0
M  V30 20270 H 1990.89 4.02454 2.59938 0
M  V30 20271 H 1989.25 2.08549 1.46217 0
M  V30 20272 H 1990.03 3.40514 0.436438 0
M  V30 20273 N 1992.48 -0.653289 1.43422 0
M  V30 20274 C 1993.39 -1.79526 1.51022 0
M  V30 20275 C 1994.4 -1.69403 0.39732 0
M  V30 20276 O 1995.58 -1.90574 0.651437 0
M  V30 20277 C 1992.65 -3.15803 1.43071 0
M  V30 20278 C 1991.71 -3.37723 2.65031 0
M  V30 20279 C 1990.94 -4.67499 2.5745 0
M  V30 20280 O 1991.16 -5.46846 1.6222 0
M  V30 20281 O 1990.1 -4.91137 3.47948 0
M  V30 20282 H 1993.92 -1.76069 2.47454 0
M  V30 20283 H 1991.51 -0.81176 1.25423 0
M  V30 20284 H 1993.39 -3.97083 1.41079 0
M  V30 20285 H 1992.06 -3.1985 0.497738 0
M  V30 20286 H 1990.97 -2.56208 2.72595 0
M  V30 20287 H 1992.3 -3.38523 3.573 0
M  V30 20288 N 1993.96 -1.29952 -0.891648 0
M  V30 20289 C 1994.92 -1.15756 -1.97821 0
M  V30 20290 C 1995.92 -0.0906975 -1.60544 0
M  V30 20291 O 1997.11 -0.338283 -1.70884 0
M  V30 20292 C 1994.24 -0.771976 -3.32044 0
M  V30 20293 H 1995.43 -2.12281 -2.11842 0
M  V30 20294 H 1992.99 -1.13253 -1.07719 0
M  V30 20295 H 1993.72 0.193059 -3.23725 0
M  V30 20296 H 1993.51 -1.54291 -3.60467 0
M  V30 20297 H 1995 -0.695941 -4.1176 0
M  V30 20298 N 1995.44 1.1031 -1.12559 0
M  V30 20299 C 1996.85 1.63801 -0.895891 0
M  V30 20300 C 1997.2 1.87753 0.569511 0
M  V30 20301 O 1996.32 1.62046 1.43423 0
M  V30 20302 C 1996.92 2.9757 -1.6198 0
M  V30 20303 C 1995.48 3.47922 -1.43622 0
M  V30 20304 C 1994.62 2.22506 -1.65489 0
M  V30 20305 H 1997.57 0.937927 -1.28018 0
M  V30 20306 H 1997.6 3.65099 -1.07159 0
M  V30 20307 H 1997.11 2.80105 -2.68631 0
M  V30 20308 H 1995.21 3.70529 -0.392328 0
M  V30 20309 H 1995.32 4.25953 -2.1932 0
M  V30 20310 H 1993.69 2.30712 -1.07908 0
M  V30 20311 H 1994.47 2.07571 -2.7344 0
M  V30 20312 N 1996.91 0.917694 1.28125 0
M  V30 20313 C 1997.88 0.413823 2.25433 0
M  V30 20314 C 1998.88 -0.46205 1.54019 0
M  V30 20315 O 2000.07 -0.264546 1.7218 0
M  V30 20316 C 1997.2 -0.406249 3.38471 0
M  V30 20317 H 1998.39 1.27345 2.7152 0
M  V30 20318 H 1995.94 0.697455 1.39876 0
M  V30 20319 H 1996.68 -1.28511 2.97751 0
M  V30 20320 H 1996.46 0.221601 3.91473 0
M  V30 20321 H 1997.95 -0.749491 4.10819 0
M  V30 20322 N 1998.39 -1.42074 0.682102 0
M  V30 20323 C 1999.62 -2.06288 0.214488 0
M  V30 20324 C 2000.04 -1.50942 -1.12241 0
M  V30 20325 O 1999.4 -0.63086 -1.6997 0
M  V30 20326 C 1999.45 -3.60208 0.167989 0
M  V30 20327 O 1998.55 -4.03306 -0.86129 0
M  V30 20328 H 1997.89 -0.655134 0.108148 0
M  V30 20329 H 2000.42 -1.8208 0.933171 0
M  V30 20330 H 2000.43 -4.08 -0.00570039 0
M  V30 20331 H 1999.11 -3.99863 1.14378 0
M  V30 20332 H 1997.68 -3.67048 -0.65805 0
M  V30 20333 N 1999.87 -0.425924 -1.51735 0
M  V30 20334 C 2001.28 0.0398403 -1.86657 0
M  V30 20335 C 2001.63 1.4296 -1.34376 0
M  V30 20336 O 2000.76 2.05109 -0.689867 0
M  V30 20337 C 2001.35 0.0790715 -3.38708 0
M  V30 20338 C 1999.91 0.489215 -3.73207 0
M  V30 20339 C 1999.06 -0.325517 -2.75383 0
M  V30 20340 H 2002.01 -0.642271 -1.45123 0
M  V30 20341 H 2002.03 0.890928 -3.69923 0
M  V30 20342 H 2001.54 -0.932545 -3.7673 0
M  V30 20343 H 1999.64 1.50686 -3.40771 0
M  V30 20344 H 1999.76 0.221939 -4.78586 0
M  V30 20345 H 1998.12 0.214561 -2.53795 0
M  V30 20346 H 1998.9 -1.3358 -3.16246 0
M  V30 20347 N 2001.35 1.56817 -0.156891 0
M  V30 20348 C 2002.26 2.20833 0.79183 0
M  V30 20349 C 2003.27 1.19558 1.26419 0
M  V30 20350 O 2004.45 1.5217 1.31933 0
M  V30 20351 C 2001.51 2.82517 2.00961 0
M  V30 20352 C 2000.58 3.98948 1.58552 0
M  V30 20353 C 1999.81 4.57681 2.74525 0
M  V30 20354 O 2000.03 4.15295 3.91007 0
M  V30 20355 O 1998.97 5.47786 2.49428 0
M  V30 20356 H 2002.79 3.02436 0.276846 0
M  V30 20357 H 2000.38 1.49233 0.0706167 0
M  V30 20358 H 2002.26 3.21683 2.72209 0
M  V30 20359 H 2000.93 2.03921 2.51392 0
M  V30 20360 H 1999.84 3.64479 0.84297 0
M  V30 20361 H 2001.17 4.79094 1.12826 0
M  V30 20362 N 2002.83 -0.116876 1.57166 0
M  V30 20363 C 2004.24 -0.470473 1.52508 0
M  V30 20364 C 2004.44 -1.8174 0.870224 0
M  V30 20365 O 2003.5 -2.48395 0.453461 0
M  V30 20366 C 2004.81 -0.453012 2.97268 0
M  V30 20367 C 2006.36 -0.536413 3.08369 0
M  V30 20368 C 2006.83 -0.549319 4.54694 0
M  V30 20369 N 2008.32 -0.610698 4.59157 0
M  V30 20370 C 2009.06 -0.642166 5.69793 0
M  V30 20371 N 2008.56 -0.631152 6.89919 0
M  V30 20372 N 2010.35 -0.685335 5.57906 0
M  V30 20373 H 2002.5 0.765638 1.98121 0
M  V30 20374 H 2004.76 0.282662 0.904879 0
M  V30 20375 H 2004.47 0.469074 3.48558 0
M  V30 20376 H 2004.34 -1.28004 3.54817 0
M  V30 20377 H 2006.73 -1.44892 2.57081 0
M  V30 20378 H 2006.81 0.318339 2.53811 0
M  V30 20379 H 2006.45 0.35915 5.06629 0
M  V30 20380 H 2006.38 -1.42098 5.07066 0
M  V30 20381 H 2008.88 -0.625287 3.72691 0
M  V30 20382 H 2009.19 -0.657846 7.69995 0
M  V30 20383 H 2007.53 -0.598543 6.92418 0
M  V30 20384 H 2010.72 -0.691318 4.62967 0
M  V30 20385 H 2010.9 -0.706392 6.44138 0
M  V30 20386 N 2004.3 -1.52772 -0.387116 0
M  V30 20387 C 2005.21 -1.8061 -1.49724 0
M  V30 20388 C 2006.23 -0.692981 -1.59605 0
M  V30 20389 O 2007.41 -0.98077 -1.75906 0
M  V30 20390 C 2004.47 -1.97083 -2.85236 0
M  V30 20391 C 2003.53 -3.20997 -2.8506 0
M  V30 20392 C 2002.76 -3.36675 -4.14108 0
M  V30 20393 O 2002.99 -2.57118 -5.09163 0
M  V30 20394 O 2001.92 -4.29938 -4.21233 0
M  V30 20395 H 2005.75 -2.7488 -1.2913 0
M  V30 20396 H 2003.33 -1.37886 -0.57514 0
M  V30 20397 H 2005.21 -2.09614 -3.65568 0
M  V30 20398 H 2003.89 -1.06002 -3.05852 0
M  V30 20399 H 2002.8 -3.13907 -2.03503 0
M  V30 20400 H 2004.13 -4.1193 -2.69396 0
M  V30 20401 N 2005.78 0.645673 -1.43767 0
M  V30 20402 C 2006.69 1.78723 -1.51972 0
M  V30 20403 C 2007.71 1.6919 -0.406299 0
M  V30 20404 O 2008.88 1.90225 -0.661534 0
M  V30 20405 C 2005.95 3.1504 -1.44744 0
M  V30 20406 C 2005.01 3.36313 -2.66818 0
M  V30 20407 C 2004.24 4.66127 -2.59926 0
M  V30 20408 O 2004.47 5.45978 -1.65118 0
M  V30 20409 O 2003.4 4.89285 -3.50548 0
M  V30 20410 H 2007.23 1.74755 -2.48384 0
M  V30 20411 H 2004.81 0.805097 -1.25851 0
M  V30 20412 H 2006.69 3.96329 -1.43182 0
M  V30 20413 H 2005.37 3.19582 -0.514693 0
M  V30 20414 H 2004.27 2.54759 -2.7395 0
M  V30 20415 H 2005.61 3.36623 -3.5909 0
M  V30 20416 N 2007.26 1.30423 0.884744 0
M  V30 20417 C 2008.51 1.19435 1.63899 0
M  V30 20418 C 2008.84 -0.25033 1.9258 0
M  V30 20419 O 2008.11 -1.17904 1.5469 0
M  V30 20420 C 2008.4 2.02357 2.97865 0
M  V30 20421 C 2008.25 3.55046 2.76156 0
M  V30 20422 C 2009.57 1.86156 3.98791 0
M  V30 20423 H 2006.69 0.435234 0.594761 0
M  V30 20424 H 2009.33 1.60058 1.0238 0
M  V30 20425 H 2007.48 1.67842 3.50373 0
M  V30 20426 H 2009.15 3.99622 2.30434 0
M  V30 20427 H 2007.39 3.79218 2.10657 0
M  V30 20428 H 2008.07 4.08356 3.71415 0
M  V30 20429 H 2010.54 2.16332 3.55443 0
M  V30 20430 H 2009.42 2.46501 4.90437 0
M  V30 20431 H 2009.68 0.820775 4.34414 0
M  V30 20432 N 2008.74 -1.09711 1.13142 0
M  V30 20433 C 2009.7 -2.14443 0.809114 0
M  V30 20434 C 2010.7 -1.59789 -0.18005 0
M  V30 20435 O 2011.89 -1.74137 0.0466686 0
M  V30 20436 C 2009.02 -3.40291 0.203714 0
M  V30 20437 H 2010.22 -2.44466 1.73713 0
M  V30 20438 H 2007.77 -1.252 0.935663 0
M  V30 20439 H 2008.5 -3.15892 -0.733667 0
M  V30 20440 H 2008.29 -3.8125 0.916003 0
M  V30 20441 H 2009.78 -4.176 -0.00503851 0
M  V30 20442 N 2010.22 -0.924476 -1.27637 0
M  V30 20443 C 2011.15 -0.438348 -2.29349 0
M  V30 20444 C 2012.13 0.499673 -1.62595 0
M  V30 20445 O 2013.31 0.405114 -1.89928 0
M  V30 20446 C 2010.44 0.312668 -3.4589 0
M  V30 20447 C 2009.4 -0.537216 -4.24615 0
M  V30 20448 C 2008.72 0.342776 -5.336 0
M  V30 20449 C 2010.02 -1.80003 -4.90302 0
M  V30 20450 H 2011.72 -1.28838 -2.70261 0
M  V30 20451 H 2009.26 -0.620964 -1.29923 0
M  V30 20452 H 2011.22 0.66367 -4.16141 0
M  V30 20453 H 2009.94 1.1967 -3.03886 0
M  V30 20454 H 2008.6 -0.870883 -3.56106 0
M  V30 20455 H 2008.25 1.22567 -4.87838 0
M  V30 20456 H 2007.95 -0.222352 -5.87179 0
M  V30 20457 H 2009.47 0.689422 -6.06695 0
M  V30 20458 H 2010.88 -1.51729 -5.52857 0
M  V30 20459 H 2009.28 -2.3084 -5.53925 0
M  V30 20460 H 2010.35 -2.52148 -4.14186 0
M  V30 20461 N 2011.69 1.41711 -0.689627 0
M  V30 20462 C 2012.92 2.06171 -0.225425 0
M  V30 20463 C 2013.34 1.51535 1.11439 0
M  V30 20464 O 2012.7 0.639865 1.69633 0
M  V30 20465 C 2012.75 3.60114 -0.187089 0
M  V30 20466 O 2011.85 4.03757 0.83989 0
M  V30 20467 H 2011.2 0.654551 -0.111621 0
M  V30 20468 H 2013.73 1.81582 -0.942814 0
M  V30 20469 H 2013.74 4.07997 -0.0159369 0
M  V30 20470 H 2012.41 3.99251 -1.16497 0
M  V30 20471 H 2010.99 3.67392 0.638575 0
M  V30 20472 N 2013.17 0.433965 1.51507 0
M  V30 20473 C 2014.08 -0.385423 2.31412 0
M  V30 20474 C 2015.1 -1.03078 1.40182 0
M  V30 20475 O 2016.27 -1.02688 1.73254 0
M  V30 20476 C 2013.34 -1.47371 3.13819 0
M  V30 20477 C 2012.4 -0.848838 4.20824 0
M  V30 20478 C 2011.63 -1.88527 4.99293 0
M  V30 20479 O 2011.86 -3.107 4.78353 0
M  V30 20480 O 2010.79 -1.47768 5.83479 0
M  V30 20481 H 2014.62 0.266798 3.02526 0
M  V30 20482 H 2012.2 0.19658 1.48101 0
M  V30 20483 H 2014.08 -2.10495 3.65061 0
M  V30 20484 H 2012.76 -2.11008 2.45474 0
M  V30 20485 H 2011.67 -0.179639 3.73668 0
M  V30 20486 H 2013 -0.256013 4.91534 0
M  V30 20487 N 2014.65 -1.56732 0.165206 0
M  V30 20488 C 2015.88 -2.00777 -0.487041 0
M  V30 20489 C 2016.29 -1.04447 -1.57758 0
M  V30 20490 O 2015.63 -0.0363979 -1.83664 0
M  V30 20491 C 2015.69 -3.41252 -1.1308 0
M  V30 20492 C 2015.36 -4.56635 -0.182666 0
M  V30 20493 C 2016.35 -5.16465 0.596665 0
M  V30 20494 C 2014.04 -5.02236 -0.0802703 0
M  V30 20495 C 2016.03 -6.2032 1.46565 0
M  V30 20496 C 2013.72 -6.05942 0.792308 0
M  V30 20497 C 2014.72 -6.64855 1.56386 0
M  V30 20498 O 2014.41 -7.66551 2.42187 0
M  V30 20499 H 2014.14 -0.663451 -0.129647 0
M  V30 20500 H 2016.69 -2.03719 0.262233 0
M  V30 20501 H 2014.92 -3.35204 -1.92808 0
M  V30 20502 H 2016.61 -3.6929 -1.68463 0
M  V30 20503 H 2017.38 -4.82121 0.527694 0
M  V30 20504 H 2013.26 -4.56097 -0.670586 0
M  V30 20505 H 2016.8 -6.66232 2.06834 0
M  V30 20506 H 2012.7 -6.39712 0.862504 0
M  V30 20507 H 2013.47 -7.83849 2.35635 0
M  V30 20508 N 2016.13 0.10854 -1.57226 0
M  V30 20509 C 2017.08 1.1326 -2.01099 0
M  V30 20510 C 2018.05 1.40564 -0.884932 0
M  V30 20511 O 2019.23 1.52253 -1.14994 0
M  V30 20512 C 2016.37 2.45125 -2.42915 0
M  V30 20513 C 2015.48 2.24667 -3.68983 0
M  V30 20514 C 2014.62 3.49836 -3.99736 0
M  V30 20515 C 2013.66 3.24581 -5.18954 0
M  V30 20516 N 2012.79 4.4198 -5.45525 0
M  V30 20517 H 2017.63 0.751475 -2.88369 0
M  V30 20518 H 2015.17 0.359547 -1.42638 0
M  V30 20519 H 2017.13 3.22063 -2.652 0
M  V30 20520 H 2015.76 2.8111 -1.58673 0
M  V30 20521 H 2014.81 1.38595 -3.54253 0
M  V30 20522 H 2016.12 2.01989 -4.56072 0
M  V30 20523 H 2015.28 4.35188 -4.22725 0
M  V30 20524 H 2014.02 3.75555 -3.11143 0
M  V30 20525 H 2013.02 2.37621 -4.95799 0
M  V30 20526 H 2014.25 3.00222 -6.09134 0
M  V30 20527 H 2012.19 4.678 -4.5989 0
M  V30 20528 H 2012.11 4.22445 -6.26958 0
M  V30 20529 H 2013.38 5.28436 -5.73041 0
M  V30 20530 N 2017.61 1.52975 0.379009 0
M  V30 20531 C 2018.83 1.72396 1.144 0
M  V30 20532 C 2019.25 0.446816 1.83437 0
M  V30 20533 O 2018.61 -0.579403 1.73058 0
M  V30 20534 C 2018.66 2.88032 2.18449 0
M  V30 20535 O 2018.38 4.10803 1.52225 0
M  V30 20536 C 2019.88 3.19215 3.07599 0
M  V30 20537 H 2017.1 0.576943 0.342605 0
M  V30 20538 H 2019.64 1.99666 0.442025 0
M  V30 20539 H 2017.8 2.63195 2.84266 0
M  V30 20540 H 2018.21 4.75461 2.21443 0
M  V30 20541 H 2019.69 4.03565 3.76615 0
M  V30 20542 H 2020.16 2.34014 3.71664 0
M  V30 20543 H 2020.77 3.45928 2.47415 0
M  V30 20544 N 2019.08 -0.63804 1.44107 0
M  V30 20545 C 2019.99 -1.77914 1.52917 0
M  V30 20546 C 2021.01 -1.68972 0.415266 0
M  V30 20547 O 2022.19 -1.89872 0.671613 0
M  V30 20548 C 2019.25 -3.14268 1.46412 0
M  V30 20549 C 2018.31 -3.34893 2.68598 0
M  V30 20550 C 2017.55 -4.64742 2.62394 0
M  V30 20551 O 2017.77 -5.45095 1.68011 0
M  V30 20552 O 2016.7 -4.87419 3.53138 0
M  V30 20553 H 2020.53 -1.73435 2.49307 0
M  V30 20554 H 2018.11 -0.798412 1.26276 0
M  V30 20555 H 2020 -3.95564 1.45282 0
M  V30 20556 H 2018.67 -3.19304 0.531634 0
M  V30 20557 H 2017.58 -2.53302 2.75297 0
M  V30 20558 H 2018.91 -3.34714 3.6087 0
M  V30 20559 N 2020.56 -1.3089 -0.877815 0
M  V30 20560 C 2021.79 -1.23068 -1.66319 0
M  V30 20561 C 2022.21 0.205309 -1.8768 0
M  V30 20562 O 2021.56 1.13467 -1.42939 0
M  V30 20563 C 2021.61 -1.96305 -3.03557 0
M  V30 20564 O 2021.33 -3.34298 -2.83154 0
M  V30 20565 C 2022.84 -1.95228 -3.97996 0
M  V30 20566 H 2020.06 -0.425583 -0.518768 0
M  V30 20567 H 2022.6 -1.72636 -1.09623 0
M  V30 20568 H 2020.75 -1.50518 -3.56964 0
M  V30 20569 H 2021.17 -3.71486 -3.70268 0
M  V30 20570 H 2022.64 -2.50997 -4.91635 0
M  V30 20571 H 2023.12 -0.932904 -4.29178 0
M  V30 20572 H 2023.73 -2.40858 -3.50525 0
M  V30 20573 N 2022.04 1.0911 -1.13723 0
M  V30 20574 C 2023.27 1.8484 -0.922925 0
M  V30 20575 C 2023.68 1.81573 0.531774 0
M  V30 20576 O 2023.02 1.21252 1.37998 0
M  V30 20577 C 2023.08 3.33708 -1.33712 0
M  V30 20578 C 2022.75 3.60719 -2.8059 0
M  V30 20579 C 2023.74 3.56168 -3.78735 0
M  V30 20580 C 2021.43 3.8896 -3.17829 0
M  V30 20581 C 2023.42 3.79475 -5.1213 0
M  V30 20582 C 2021.11 4.11922 -4.51402 0
M  V30 20583 C 2022.11 4.07172 -5.48361 0
M  V30 20584 O 2021.8 4.29537 -6.79524 0
M  V30 20585 H 2021.53 0.590602 -0.328884 0
M  V30 20586 H 2024.08 1.38756 -1.51446 0
M  V30 20587 H 2022.31 3.80515 -0.688871 0
M  V30 20588 H 2024 3.90857 -1.09477 0
M  V30 20589 H 2024.77 3.34373 -3.51312 0
M  V30 20590 H 2020.65 3.91781 -2.42959 0
M  V30 20591 H 2024.19 3.75683 -5.87799 0
M  V30 20592 H 2020.09 4.33199 -4.78549 0
M  V30 20593 H 2020.86 4.46981 -6.85675 0
M  V30 20594 N 2023.52 0.931232 1.27145 0
M  V30 20595 C 2024.8 0.491789 1.89317 0
M  V30 20596 C 2025.18 -1.03026 1.84252 0
M  V30 20597 O 2024.52 -1.88596 1.29011 0
M  V30 20598 C 2024.73 1.04187 3.33086 0
M  V30 20599 C 2026.08 1.1045 4.09983 0
M  V30 20600 O 2027.11 0.991747 3.42115 0
M  V30 20601 O 2025.96 1.27861 5.31332 0
M  V30 20602 H 2023.06 0.158746 0.811621 0
M  V30 20603 H 2025.6 1.02315 1.35387 0
M  V30 20604 H 2024.38 2.08566 3.31083 0
M  V30 20605 H 2024 0.492365 3.9454 0
M  V30 20606 N 2025 -1.41343 0.697132 0
M  V30 20607 C 2026.27 -1.94971 0.156721 0
M  V30 20608 C 2026.65 -1.63641 -1.33359 0
M  V30 20609 O 2026 -0.944246 -2.08077 0
M  V30 20610 C 2026.21 -3.46091 0.449687 0
M  V30 20611 C 2027.56 -4.22912 0.378281 0
M  V30 20612 O 2028.58 -3.54117 0.38469 0
M  V30 20613 O 2027.44 -5.45443 0.339755 0
M  V30 20614 H 2024.54 -0.826847 0.0158852 0
M  V30 20615 H 2027.08 -1.51052 0.7734 0
M  V30 20616 H 2025.86 -3.62183 1.48119 0
M  V30 20617 H 2025.48 -3.97107 -0.197886 0
M  V30 20618 N 2026.48 -0.441993 -1.51275 0
M  V30 20619 C 2027.71 0.121275 -2.06244 0
M  V30 20620 C 2028.11 1.36608 -1.309 0
M  V30 20621 O 2027.46 1.80072 -0.363267 0
M  V30 20622 C 2027.52 0.504271 -3.55946 0
M  V30 20623 C 2027.18 -0.634389 -4.52575 0
M  V30 20624 C 2028.18 -1.5079 -4.97552 0
M  V30 20625 C 2025.86 -0.816445 -4.9562 0
M  V30 20626 C 2027.86 -2.54813 -5.84251 0
M  V30 20627 C 2025.55 -1.85994 -5.82108 0
M  V30 20628 C 2026.54 -2.72417 -6.26321 0
M  V30 20629 O 2026.23 -3.74974 -7.11091 0
M  V30 20630 H 2025.96 0.00928409 -0.675936 0
M  V30 20631 H 2028.52 -0.62124 -1.9578 0
M  V30 20632 H 2026.75 1.29956 -3.64209 0
M  V30 20633 H 2028.44 0.999234 -3.93408 0
M  V30 20634 H 2029.2 -1.37881 -4.64988 0
M  V30 20635 H 2025.08 -0.153327 -4.60745 0
M  V30 20636 H 2028.63 -3.22302 -6.18682 0
M  V30 20637 H 2024.52 -1.98922 -6.14085 0
M  V30 20638 H 2025.29 -3.71611 -7.29279 0
M  V30 20639 N 2027.95 1.56642 -0.173515 0
M  V30 20640 C 2028.9 2.1807 0.755917 0
M  V30 20641 C 2029.87 1.12136 1.22534 0
M  V30 20642 O 2031.06 1.40296 1.29312 0
M  V30 20643 C 2028.2 2.82726 1.97888 0
M  V30 20644 C 2027.31 4.03127 1.55282 0
M  V30 20645 C 2026.44 4.55703 2.72962 0
M  V30 20646 C 2025.48 5.68509 2.26857 0
M  V30 20647 N 2024.62 6.15585 3.37638 0
M  V30 20648 H 2029.46 2.97147 0.225305 0
M  V30 20649 H 2027 1.46763 0.0994783 0
M  V30 20650 H 2028.95 3.18371 2.69621 0
M  V30 20651 H 2027.58 2.0625 2.48316 0
M  V30 20652 H 2026.64 3.73288 0.732154 0
M  V30 20653 H 2027.95 4.84777 1.17441 0
M  V30 20654 H 2027.1 4.93541 3.52849 0
M  V30 20655 H 2025.84 3.73115 3.14065 0
M  V30 20656 H 2024.85 5.3022 1.45418 0
M  V30 20657 H 2026.07 6.529 1.8681 0
M  V30 20658 H 2024.02 5.35925 3.78312 0
M  V30 20659 H 2023.93 6.9223 3.03897 0
M  V30 20660 H 2025.2 6.58074 4.17803 0
M  V30 20661 N 2029.43 -0.1002 1.57281 0
M  V30 20662 C 2030.71 -0.836006 1.76834 0
M  V30 20663 C 2031.09 -1.9718 0.753864 0
M  V30 20664 O 2030.44 -2.27452 -0.218626 0
M  V30 20665 C 2030.65 -1.33532 3.22444 0
M  V30 20666 C 2031.99 -1.78015 3.85481 0
M  V30 20667 O 2033.02 -1.43167 3.26162 0
M  V30 20668 O 2031.88 -2.42432 4.89784 0
M  V30 20669 H 2028.97 -0.398386 0.724719 0
M  V30 20670 H 2031.52 -0.0824784 1.69499 0
M  V30 20671 H 2030.29 -0.521307 3.87812 0
M  V30 20672 H 2029.91 -2.151 3.34391 0
M  V30 20673 N 2030.91 -1.53174 -0.370891 0
M  V30 20674 C 2031.82 -1.82187 -1.478 0
M  V30 20675 C 2032.84 -0.70987 -1.58861 0
M  V30 20676 O 2034.01 -0.999372 -1.74856 0
M  V30 20677 C 2031.08 -2.00097 -2.83129 0
M  V30 20678 C 2030.14 -3.24002 -2.8164 0
M  V30 20679 C 2029.37 -3.41048 -4.10514 0
M  V30 20680 O 2029.59 -2.62503 -5.06407 0
M  V30 20681 O 2028.53 -4.34381 -4.16649 0
M  V30 20682 H 2032.35 -2.76234 -1.26207 0
M  V30 20683 H 2029.94 -1.38488 -0.560483 0
M  V30 20684 H 2031.82 -2.13479 -3.63324 0
M  V30 20685 H 2030.5 -1.0924 -3.0471 0
M  V30 20686 H 2029.4 -3.16048 -2.00162 0
M  V30 20687 H 2030.74 -4.14764 -2.65012 0
M  V30 20688 N 2032.39 0.630389 -1.44443 0
M  V30 20689 C 2033.62 1.41712 -1.50749 0
M  V30 20690 C 2034.03 1.88334 -0.132593 0
M  V30 20691 O 2033.39 1.60878 0.861649 0
M  V30 20692 C 2033.44 2.63694 -2.47281 0
M  V30 20693 O 2033.16 2.19016 -3.79425 0
M  V30 20694 C 2034.66 3.56813 -2.63058 0
M  V30 20695 H 2031.88 0.43458 -0.511255 0
M  V30 20696 H 2034.42 0.770878 -1.89414 0
M  V30 20697 H 2032.58 3.24409 -2.11749 0
M  V30 20698 H 2032.99 2.98104 -4.31549 0
M  V30 20699 H 2034.47 4.39008 -3.34628 0
M  V30 20700 H 2034.94 4.05669 -1.68313 0
M  V30 20701 H 2035.55 3.01966 -2.99494 0
M  V30 20702 N 2033.87 1.31354 0.870861 0
M  V30 20703 C 2035.09 1.23948 1.65664 0
M  V30 20704 C 2035.51 -0.195353 1.87787 0
M  V30 20705 O 2034.87 -1.12708 1.43538 0
M  V30 20706 C 2034.92 1.97912 3.02511 0
M  V30 20707 O 2034.64 3.35795 2.81377 0
M  V30 20708 C 2036.14 1.97336 3.96955 0
M  V30 20709 H 2033.36 0.428328 0.516504 0
M  V30 20710 H 2035.9 1.73214 1.08706 0
M  V30 20711 H 2034.06 1.52409 3.5616 0
M  V30 20712 H 2034.47 3.73444 3.68293 0
M  V30 20713 H 2035.95 2.53601 4.90297 0
M  V30 20714 H 2036.42 0.955651 4.28677 0
M  V30 20715 H 2037.03 2.42714 3.49242 0
M  V30 20716 N 2035.34 -1.08505 1.143 0
M  V30 20717 C 2036.59 -1.80248 0.90519 0
M  V30 20718 C 2036.91 -1.87116 -0.56981 0
M  V30 20719 O 2038.11 -2.55262 -0.924844 0
M  V30 20720 C 2036.57 -3.23851 1.56998 0
M  V30 20721 C 2036.18 -3.2522 3.08117 0
M  V30 20722 C 2037.92 -4.00284 1.41325 0
M  V30 20723 C 2035.83 -4.63405 3.67437 0
M  V30 20724 H 2034.76 -0.67549 0.335007 0
M  V30 20725 H 2037.41 -1.21877 1.3718 0
M  V30 20726 H 2035.79 -3.82342 1.03104 0
M  V30 20727 H 2036.96 -2.76441 3.68669 0
M  V30 20728 H 2035.28 -2.62281 3.23415 0
M  V30 20729 H 2037.88 -5.02393 1.83046 0
M  V30 20730 H 2038.22 -4.14747 0.359236 0
M  V30 20731 H 2038.75 -3.4826 1.9225 0
M  V30 20732 H 2035.49 -4.54145 4.72686 0
M  V30 20733 H 2035.01 -5.1247 3.11665 0
M  V30 20734 H 2036.69 -5.3238 3.6767 0
M  V30 20735 N 2036.82 -0.937962 -1.26649 0
M  V30 20736 C 2038.1 -0.501822 -1.89053 0
M  V30 20737 C 2038.48 1.02047 -1.84796 0
M  V30 20738 O 2037.83 1.87909 -1.3001 0
M  V30 20739 C 2038.04 -1.05952 -3.32528 0
M  V30 20740 C 2039.38 -1.12622 -4.09391 0
M  V30 20741 O 2040.41 -1.00988 -3.41584 0
M  V30 20742 O 2039.27 -1.30677 -5.30646 0
M  V30 20743 H 2036.36 -0.163048 -0.810768 0
M  V30 20744 H 2038.91 -1.03032 -1.34843 0
M  V30 20745 H 2037.68 -2.10319 -3.29972 0
M  V30 20746 H 2037.3 -0.513282 -3.94273 0
M  V30 20747 N 2038.3 1.40971 -0.704618 0
M  V30 20748 C 2039.58 1.94885 -0.167059 0
M  V30 20749 C 2039.96 1.64346 1.3249 0
M  V30 20750 O 2039.3 0.955268 2.07574 0
M  V30 20751 C 2039.51 3.45847 -0.468035 0
M  V30 20752 C 2040.86 4.22705 -0.400704 0
M  V30 20753 O 2041.89 3.53908 -0.403464 0
M  V30 20754 O 2040.75 5.45255 -0.368676 0
M  V30 20755 H 2037.84 0.826752 -0.0202699 0
M  V30 20756 H 2040.39 1.50639 -0.7814 0
M  V30 20757 H 2039.16 3.61392 -1.50038 0
M  V30 20758 H 2038.78 3.97207 0.176823 0
M  V30 20759 N 2039.78 0.45001 1.51039 0
M  V30 20760 C 2041 -0.112834 2.07093 0
M  V30 20761 C 2041.43 -1.34598 1.31397 0
M  V30 20762 O 2040.79 -1.7778 0.355505 0
M  V30 20763 C 2040.83 -0.400989 3.58364 0
M  V30 20764 O 2039.94 -1.48527 3.84725 0
M  V30 20765 H 2039.28 0.00369778 0.66399 0
M  V30 20766 H 2041.81 0.634991 1.94497 0
M  V30 20767 H 2041.82 -0.647726 4.02826 0
M  V30 20768 H 2040.49 0.500232 4.12881 0
M  V30 20769 H 2039.07 -1.2275 3.52118 0
M  V30 20770 N 2041.26 -1.56548 0.18182 0
M  V30 20771 C 2042.51 -1.96371 -0.460566 0
M  V30 20772 C 2042.82 -1.07099 -1.63674 0
M  V30 20773 O 2044.02 -1.36648 -2.34605 0
M  V30 20774 C 2042.48 -3.49207 -0.870777 0
M  V30 20775 C 2042.09 -4.47122 0.280378 0
M  V30 20776 C 2043.83 -3.97828 -1.48099 0
M  V30 20777 C 2041.74 -5.9121 -0.15005 0
M  V30 20778 H 2040.67 -0.73321 -0.175838 0
M  V30 20779 H 2043.32 -1.81477 0.271724 0
M  V30 20780 H 2041.7 -3.59557 -1.65935 0
M  V30 20781 H 2042.88 -4.48494 1.05781 0
M  V30 20782 H 2041.19 -4.08619 0.801227 0
M  V30 20783 H 2043.79 -5.02944 -1.81525 0
M  V30 20784 H 2044.13 -3.41369 -2.38271 0
M  V30 20785 H 2044.66 -3.90538 -0.75665 0
M  V30 20786 H 2041.4 -6.51565 0.717155 0
M  V30 20787 H 2040.92 -5.93121 -0.892621 0
M  V30 20788 H 2042.6 -6.44301 -0.590372 0
M  V30 20789 N 2042.73 0.0918577 -1.57332 0
M  V30 20790 C 2043.67 1.14242 -1.97545 0
M  V30 20791 C 2044.65 1.38665 -0.849166 0
M  V30 20792 O 2045.83 1.52371 -1.10974 0
M  V30 20793 C 2042.96 2.49094 -2.29499 0
M  V30 20794 C 2042 2.40932 -3.51929 0
M  V30 20795 S 2042.84 1.82272 -5.03525 0
M  V30 20796 C 2043.99 3.18742 -5.3866 0
M  V30 20797 H 2044.22 0.799633 -2.86344 0
M  V30 20798 H 2041.76 0.299658 -1.51464 0
M  V30 20799 H 2043.72 3.26674 -2.48585 0
M  V30 20800 H 2042.38 2.80541 -1.41264 0
M  V30 20801 H 2041.57 3.40331 -3.7174 0
M  V30 20802 H 2041.17 1.71483 -3.3237 0
M  V30 20803 H 2043.46 4.15022 -5.35503 0
M  V30 20804 H 2044.41 3.03732 -6.3965 0
M  V30 20805 H 2044.81 3.18423 -4.66119 0
M  V30 20806 N 2044.21 1.53368 0.362763 0
M  V30 20807 C 2045.49 1.60294 1.12095 0
M  V30 20808 C 2045.87 0.412218 2.07036 0
M  V30 20809 O 2045.22 -0.597284 2.20556 0
M  V30 20810 C 2045.43 2.95458 1.85757 0
M  V30 20811 C 2046.78 3.50135 2.40189 0
M  V30 20812 O 2047.8 2.97506 1.9588 0
M  V30 20813 O 2046.66 4.42146 3.212 0
M  V30 20814 H 2043.75 0.647572 0.514373 0
M  V30 20815 H 2046.3 1.65711 0.3658 0
M  V30 20816 H 2045.07 3.73561 1.16482 0
M  V30 20817 H 2044.69 2.93545 2.68174 0
M  V30 20818 N 2045.69 -0.62272 1.44776 0
M  V30 20819 C 2046.65 -1.71618 1.5192 0
M  V30 20820 C 2047.65 -1.55738 0.400303 0
M  V30 20821 O 2048.84 -1.6108 0.66324 0
M  V30 20822 C 2045.98 -3.10771 1.40122 0
M  V30 20823 H 2047.17 -1.66655 2.49332 0
M  V30 20824 H 2044.72 -0.837126 1.31992 0
M  V30 20825 H 2045.46 -3.21323 0.438374 0
M  V30 20826 H 2045.24 -3.23705 2.21264 0
M  V30 20827 H 2046.73 -3.90448 1.48122 0
M  V30 20828 N 2047.17 -1.31814 -0.863883 0
M  V30 20829 C 2048.45 -1.12477 -1.60026 0
M  V30 20830 C 2048.83 0.318288 -2.08687 0
M  V30 20831 O 2048.17 1.31341 -1.86981 0
M  V30 20832 C 2048.38 -2.14432 -2.75355 0
M  V30 20833 C 2049.73 -2.47276 -3.45166 0
M  V30 20834 O 2050.76 -2.12906 -2.85569 0
M  V30 20835 O 2049.61 -3.06158 -4.52691 0
M  V30 20836 H 2046.71 -0.433423 -0.704325 0
M  V30 20837 H 2049.25 -1.43313 -0.908815 0
M  V30 20838 H 2048.03 -3.11472 -2.36856 0
M  V30 20839 H 2047.65 -1.84536 -3.52182 0
M  V30 20840 N 2048.65 1.07897 -1.14873 0
M  V30 20841 C 2049.87 1.84657 -0.944281 0
M  V30 20842 C 2050.3 1.8127 0.50226 0
M  V30 20843 O 2049.65 1.20159 1.35763 0
M  V30 20844 C 2049.7 3.29889 -1.45622 0
M  V30 20845 O 2048.81 4.07217 -0.651748 0
M  V30 20846 H 2048.15 0.571994 -0.337222 0
M  V30 20847 H 2050.68 1.36151 -1.52723 0
M  V30 20848 H 2050.69 3.80727 -1.46665 0
M  V30 20849 H 2049.36 3.31668 -2.50936 0
M  V30 20850 H 2047.94 3.66069 -0.710491 0
M  V30 20851 N 2050.12 0.944665 1.2615 0
M  V30 20852 C 2051.05 0.47478 2.28622 0
M  V30 20853 C 2052.04 -0.473742 1.6337 0
M  V30 20854 O 2053.22 -0.374847 1.90548 0
M  V30 20855 C 2050.35 -0.2576 3.46343 0
M  V30 20856 C 2049.3 0.604701 4.23707 0
M  V30 20857 C 2048.63 -0.257841 5.34078 0
M  V30 20858 C 2049.93 1.8778 4.87377 0
M  V30 20859 H 2051.62 1.33122 2.68177 0
M  V30 20860 H 2049.17 0.641555 1.28919 0
M  V30 20861 H 2051.12 -0.597382 4.17144 0
M  V30 20862 H 2049.85 -1.14821 3.05751 0
M  V30 20863 H 2048.51 0.927426 3.54675 0
M  V30 20864 H 2048.15 -1.1479 4.89727 0
M  V30 20865 H 2047.85 0.315739 5.86751 0
M  V30 20866 H 2049.38 -0.592815 6.07715 0
M  V30 20867 H 2050.79 1.60505 5.50374 0
M  V30 20868 H 2049.19 2.39623 5.50182 0
M  V30 20869 H 2050.26 2.58705 4.10122 0
M  V30 20870 N 2051.6 -1.40596 0.712085 0
M  V30 20871 C 2052.85 -2.01741 0.25927 0
M  V30 20872 C 2053.2 -1.55444 -1.1338 0
M  V30 20873 O 2052.5 -0.763054 -1.7575 0
M  V30 20874 C 2052.69 -3.56346 0.27427 0
M  V30 20875 C 2052.52 -4.17651 1.66726 0
M  V30 20876 C 2051.29 -4.51236 2.27408 0
M  V30 20877 C 2053.49 -4.42746 2.61687 0
M  V30 20878 N 2051.47 -4.97916 3.591 0
M  V30 20879 C 2052.84 -4.91381 3.7808 0
M  V30 20880 C 2054.9 -4.2478 2.59743 0
M  V30 20881 C 2053.6 -5.23936 4.92832 0
M  V30 20882 C 2055.62 -4.58434 3.7362 0
M  V30 20883 C 2054.99 -5.07255 4.88745 0
M  V30 20884 H 2051.09 -0.769251 0.140629 0
M  V30 20885 H 2053.67 -1.70883 0.933127 0
M  V30 20886 H 2051.84 -3.86642 -0.369137 0
M  V30 20887 H 2053.57 -4.0423 -0.194926 0
M  V30 20888 H 2050.33 -4.3825 1.79538 0
M  V30 20889 H 2050.75 -5.25643 4.26648 0
M  V30 20890 H 2055.39 -3.86258 1.71944 0
M  V30 20891 H 2053.11 -5.61374 5.81279 0
M  V30 20892 H 2056.7 -4.46176 3.73387 0
M  V30 20893 H 2055.58 -5.32806 5.75402 0
M  V30 20894 N 2053.08 -0.458013 -1.50798 0
M  V30 20895 C 2054.33 0.101617 -2.02545 0
M  V30 20896 C 2054.66 1.4054 -1.34023 0
M  V30 20897 O 2053.93 1.88941 -0.461705 0
M  V30 20898 C 2054.22 0.298998 -3.58857 0
M  V30 20899 C 2054.07 -1.02488 -4.37968 0
M  V30 20900 C 2055.39 1.05949 -4.27157 0
M  V30 20901 H 2052.51 0.0354565 -0.736147 0
M  V30 20902 H 2055.15 -0.601052 -1.80243 0
M  V30 20903 H 2053.3 0.89752 -3.77991 0
M  V30 20904 H 2054.97 -1.65898 -4.30437 0
M  V30 20905 H 2053.22 -1.62464 -4.02229 0
M  V30 20906 H 2053.89 -0.840572 -5.45562 0
M  V30 20907 H 2056.36 0.55231 -4.12418 0
M  V30 20908 H 2055.24 1.16639 -5.36364 0
M  V30 20909 H 2055.5 2.09283 -3.89427 0
M  V30 20910 N 2054.56 1.56449 -0.190119 0
M  V30 20911 C 2055.84 1.89172 0.497312 0
M  V30 20912 C 2056.22 1.1029 1.79998 0
M  V30 20913 O 2055.56 0.202471 2.27601 0
M  V30 20914 C 2055.77 3.41472 0.720941 0
M  V30 20915 C 2057.12 4.11602 1.04254 0
M  V30 20916 O 2058.15 3.46895 0.808835 0
M  V30 20917 O 2057.01 5.25955 1.48438 0
M  V30 20918 H 2054.1 0.785518 0.258632 0
M  V30 20919 H 2056.65 1.68135 -0.229961 0
M  V30 20920 H 2055.42 3.90793 -0.199197 0
M  V30 20921 H 2055.04 3.68185 1.50085 0
M  V30 20922 N 2056.04 -0.0835127 1.57379 0
M  V30 20923 C 2057.27 -0.798106 1.90887 0
M  V30 20924 C 2057.68 -1.71709 0.78496 0
M  V30 20925 O 2057.04 -1.80883 -0.242406 0
M  V30 20926 C 2057.09 -1.60168 3.24081 0
M  V30 20927 O 2056.81 -0.719655 4.32149 0
M  V30 20928 C 2058.31 -2.41831 3.71527 0
M  V30 20929 H 2055.53 -0.227571 0.631231 0
M  V30 20930 H 2058.07 -0.0572834 2.0442 0
M  V30 20931 H 2056.23 -2.2949 3.12111 0
M  V30 20932 H 2056.64 -1.27737 5.08708 0
M  V30 20933 H 2058.12 -2.93689 4.67387 0
M  V30 20934 H 2058.59 -3.20824 2.99948 0
M  V30 20935 H 2059.2 -1.77687 3.86403 0
M  V30 20936 N 2057.52 -1.53558 -0.354624 0
M  V30 20937 C 2058.45 -1.77067 -1.45533 0
M  V30 20938 C 2059.46 -0.651678 -1.49188 0
M  V30 20939 O 2060.65 -0.92818 -1.5247 0
M  V30 20940 C 2057.75 -1.84544 -2.84248 0
M  V30 20941 C 2056.92 -3.14331 -3.04162 0
M  V30 20942 C 2055.98 -3.12908 -4.23054 0
M  V30 20943 O 2055.01 -3.8667 -4.17702 0
M  V30 20944 N 2056.21 -2.34497 -5.31029 0
M  V30 20945 H 2058.97 -2.72046 -1.25742 0
M  V30 20946 H 2056.54 -1.52472 -0.544429 0
M  V30 20947 H 2058.53 -1.81056 -3.6194 0
M  V30 20948 H 2057.1 -0.968003 -2.97235 0
M  V30 20949 H 2056.32 -3.31033 -2.14035 0
M  V30 20950 H 2057.61 -4.00082 -3.14343 0
M  V30 20951 H 2057 -1.741 -5.38243 0
M  V30 20952 H 2055.56 -2.36817 -6.07257 0
M  V30 20953 N 2058.99 0.615033 -1.45104 0
M  V30 20954 C 2060.27 1.37409 -1.39206 0
M  V30 20955 C 2060.65 2.11018 -0.0588763 0
M  V30 20956 O 2060 2.07402 0.958997 0
M  V30 20957 C 2060.21 2.32712 -2.60089 0
M  V30 20958 C 2061.56 2.95549 -3.04854 0
M  V30 20959 O 2062.58 2.43035 -2.60408 0
M  V30 20960 O 2061.44 3.90854 -3.81963 0
M  V30 20961 H 2058.53 0.615766 -0.552052 0
M  V30 20962 H 2061.08 0.638743 -1.5722 0
M  V30 20963 H 2059.85 1.77529 -3.48711 0
M  V30 20964 H 2059.47 3.13639 -2.4437 0
M  V30 20965 N 2060.47 1.3227 0.85688 0
M  V30 20966 C 2061.75 1.13324 1.59427 0
M  V30 20967 C 2062.13 -0.307216 2.08853 0
M  V30 20968 O 2061.48 -1.30347 1.87675 0
M  V30 20969 C 2061.69 2.15889 2.74213 0
M  V30 20970 C 2063.03 2.49103 3.4385 0
M  V30 20971 O 2064.06 2.14417 2.84436 0
M  V30 20972 O 2062.92 3.08555 4.51061 0
M  V30 20973 H 2060.01 0.437152 0.702016 0
M  V30 20974 H 2062.56 1.43793 0.901202 0
M  V30 20975 H 2061.33 3.12724 2.35201 0
M  V30 20976 H 2060.95 1.86401 3.51198 0
M  V30 20977 N 2061.95 -1.07287 1.15444 0
M  V30 20978 C 2063.23 -1.76634 0.840221 0
M  V30 20979 C 2063.61 -2.00384 -0.664037 0
M  V30 20980 O 2062.95 -1.62284 -1.60861 0
M  V30 20981 C 2063.16 -3.07439 1.65174 0
M  V30 20982 C 2064.51 -3.81773 1.85835 0
M  V30 20983 O 2065.54 -3.17252 1.61955 0
M  V30 20984 O 2064.4 -4.97656 2.25834 0
M  V30 20985 H 2061.49 -0.76708 0.309059 0
M  V30 20986 H 2064.04 -1.13646 1.26026 0
M  V30 20987 H 2062.81 -2.85774 2.67299 0
M  V30 20988 H 2062.43 -3.78159 1.22807 0
M  V30 20989 N 2063.43 -0.951342 -1.25647 0
M  V30 20990 C 2064.84 -0.655246 -1.45529 0
M  V30 20991 C 2065.04 0.788272 -1.85441 0
M  V30 20992 O 2064.1 1.5639 -1.98238 0
M  V30 20993 C 2065.41 -1.62536 -2.52987 0
M  V30 20994 C 2066.96 -1.63618 -2.6683 0
M  V30 20995 C 2067.44 -2.59385 -3.77469 0
M  V30 20996 N 2068.93 -2.57731 -3.84876 0
M  V30 20997 C 2069.66 -3.28512 -4.69966 0
M  V30 20998 N 2069.16 -4.08754 -5.59367 0
M  V30 20999 N 2070.95 -3.17415 -4.63901 0
M  V30 21000 H 2063.1 -1.88424 -0.980317 0
M  V30 21001 H 2065.36 -0.8103 -0.492055 0
M  V30 21002 H 2065.07 -2.65628 -2.3051 0
M  V30 21003 H 2064.94 -1.38531 -3.5084 0
M  V30 21004 H 2067.33 -0.61246 -2.88674 0
M  V30 21005 H 2067.41 -1.91681 -1.69387 0
M  V30 21006 H 2067.06 -3.61882 -3.56376 0
M  V30 21007 H 2066.99 -2.28608 -4.7439 0
M  V30 21008 H 2069.48 -1.99473 -3.20966 0
M  V30 21009 H 2069.79 -4.5969 -6.21212 0
M  V30 21010 H 2068.14 -4.12853 -5.59086 0
M  V30 21011 H 2071.33 -2.54201 -3.93064 0
M  V30 21012 H 2071.5 -3.72843 -5.29992 0
M  V30 21013 N 2064.91 1.40216 -0.719531 0
M  V30 21014 C 2066.13 2.05647 -0.269106 0
M  V30 21015 C 2066.56 1.53865 1.082 0
M  V30 21016 O 2065.91 0.675703 1.68238 0
M  V30 21017 C 2065.96 3.59636 -0.263433 0
M  V30 21018 O 2065.07 4.05448 0.754058 0
M  V30 21019 H 2064.41 0.652036 -0.12548 0
M  V30 21020 H 2066.94 1.79542 -0.981119 0
M  V30 21021 H 2066.95 4.07871 -0.102475 0
M  V30 21022 H 2065.62 3.9669 -1.24939 0
M  V30 21023 H 2064.2 3.68664 0.560502 0
M  V30 21024 N 2066.38 0.466004 1.50553 0
M  V30 21025 C 2067.63 -0.0923956 2.01488 0
M  V30 21026 C 2067.95 -1.41242 1.35315 0
M  V30 21027 O 2069.15 -2.05546 1.77379 0
M  V30 21028 C 2067.61 -0.21518 3.59256 0
M  V30 21029 C 2067.22 1.09611 4.34384 0
M  V30 21030 C 2068.96 -0.725811 4.18249 0
M  V30 21031 C 2066.87 0.937394 5.83924 0
M  V30 21032 H 2065.8 -0.0383052 0.753026 0
M  V30 21033 H 2068.45 0.600129 1.73409 0
M  V30 21034 H 2066.83 -0.97137 3.83902 0
M  V30 21035 H 2068 1.86285 4.21467 0
M  V30 21036 H 2066.32 1.53746 3.86977 0
M  V30 21037 H 2068.92 -0.861504 5.27714 0
M  V30 21038 H 2069.26 -1.71583 3.79296 0
M  V30 21039 H 2069.79 -0.0271476 3.97791 0
M  V30 21040 H 2066.53 1.90063 6.27341 0
M  V30 21041 H 2066.05 0.210939 5.99429 0
M  V30 21042 H 2067.73 0.601974 6.44194 0
M  V30 21043 N 2067.86 -1.56346 0.198413 0
M  V30 21044 C 2068.79 -2.15154 -0.760519 0
M  V30 21045 C 2069.77 -1.0892 -1.20728 0
M  V30 21046 O 2070.96 -1.37051 -1.29419 0
M  V30 21047 C 2068.08 -2.71312 -2.0275 0
M  V30 21048 C 2067.13 -3.90165 -1.7226 0
M  V30 21049 S 2067.96 -5.28422 -0.86778 0
M  V30 21050 C 2069.12 -5.88003 -2.14483 0
M  V30 21051 H 2069.35 -2.96156 -0.2606 0
M  V30 21052 H 2066.88 -1.54391 -0.0166257 0
M  V30 21053 H 2068.84 -3.0431 -2.7551 0
M  V30 21054 H 2067.5 -1.90346 -2.49854 0
M  V30 21055 H 2066.7 -4.2788 -2.66336 0
M  V30 21056 H 2066.3 -3.58194 -1.0758 0
M  V30 21057 H 2068.59 -6.02568 -3.09707 0
M  V30 21058 H 2069.53 -6.84524 -1.81196 0
M  V30 21059 H 2069.94 -5.16636 -2.27481 0
M  V30 21060 N 2069.34 0.0751653 -1.57421 0
M  V30 21061 C 2070.57 0.787972 -1.91308 0
M  V30 21062 C 2070.98 1.7129 -0.794055 0
M  V30 21063 O 2070.34 1.81009 0.23281 0
M  V30 21064 C 2070.39 1.58447 -3.24926 0
M  V30 21065 O 2070.11 0.696727 -4.32524 0
M  V30 21066 C 2071.61 2.39857 -3.72805 0
M  V30 21067 H 2068.83 0.22422 -0.632429 0
M  V30 21068 H 2071.38 0.0464417 -2.04447 0
M  V30 21069 H 2069.53 2.27831 -3.13324 0
M  V30 21070 H 2069.95 1.25038 -5.09378 0
M  V30 21071 H 2071.42 2.91207 -4.68938 0
M  V30 21072 H 2071.9 3.19229 -3.01645 0
M  V30 21073 H 2072.5 1.75636 -3.8734 0
M  V30 21074 N 2070.82 1.53744 0.346476 0
M  V30 21075 C 2071.73 1.84516 1.44883 0
M  V30 21076 C 2072.74 0.735054 1.57712 0
M  V30 21077 O 2073.92 1.02706 1.73244 0
M  V30 21078 C 2070.99 2.04576 2.7991 0
M  V30 21079 C 2070.05 3.28442 2.7645 0
M  V30 21080 C 2069.28 3.47536 4.05036 0
M  V30 21081 O 2069.5 2.70527 5.02167 0
M  V30 21082 O 2068.44 4.40955 4.09686 0
M  V30 21083 H 2072.26 2.78207 1.21797 0
M  V30 21084 H 2069.85 1.39362 0.53838 0
M  V30 21085 H 2071.73 2.19232 3.59882 0
M  V30 21086 H 2070.4 1.14074 3.02934 0
M  V30 21087 H 2069.31 3.19192 1.95108 0
M  V30 21088 H 2070.64 4.18928 2.5838 0
M  V30 21089 N 2072.3 -0.607329 1.45428 0
M  V30 21090 C 2073.23 -1.73188 1.50129 0
M  V30 21091 C 2074.24 -1.58009 0.392034 0
M  V30 21092 O 2075.43 -1.65886 0.659103 0
M  V30 21093 C 2072.53 -3.1119 1.34217 0
M  V30 21094 C 2071.7 -3.52606 2.58821 0
M  V30 21095 C 2070.76 -4.69572 2.37463 0
M  V30 21096 O 2069.79 -4.76676 3.11076 0
M  V30 21097 N 2070.99 -5.62854 1.42041 0
M  V30 21098 H 2073.76 -1.69619 2.47082 0
M  V30 21099 H 2071.32 -0.792618 1.41171 0
M  V30 21100 H 2073.31 -3.87195 1.17739 0
M  V30 21101 H 2071.88 -3.09265 0.455386 0
M  V30 21102 H 2071.1 -2.6656 2.90412 0
M  V30 21103 H 2072.39 -3.77035 3.41646 0
M  V30 21104 H 2071.78 -5.59829 0.812899 0
M  V30 21105 H 2070.34 -6.3839 1.31534 0
M  V30 21106 N 2073.77 -1.32722 -0.849853 0
M  V30 21107 C 2074.7 -1.24675 -1.97429 0
M  V30 21108 C 2075.69 -0.129581 -1.69606 0
M  V30 21109 O 2076.87 -0.317548 -1.91586 0
M  V30 21110 C 2074 -0.973971 -3.33363 0
M  V30 21111 C 2072.95 -2.05289 -3.75553 0
M  V30 21112 C 2072.28 -1.63244 -5.09171 0
M  V30 21113 C 2073.58 -3.46845 -3.90507 0
M  V30 21114 H 2075.27 -2.18753 -2.0442 0
M  V30 21115 H 2072.82 -1.0531 -0.982132 0
M  V30 21116 H 2074.77 -0.904206 -4.11585 0
M  V30 21117 H 2073.5 0.00243816 -3.266 0
M  V30 21118 H 2072.16 -2.11289 -2.99587 0
M  V30 21119 H 2071.8 -0.643348 -4.98869 0
M  V30 21120 H 2071.5 -2.35437 -5.38371 0
M  V30 21121 H 2073.03 -1.57713 -5.8988 0
M  V30 21122 H 2074.44 -3.43408 -4.59069 0
M  V30 21123 H 2072.84 -4.17429 -4.3113 0
M  V30 21124 H 2073.91 -3.86155 -2.93278 0
M  V30 21125 N 2075.25 1.06673 -1.16011 0
M  V30 21126 C 2076.16 2.17576 -0.877386 0
M  V30 21127 C 2077.18 1.73362 0.148919 0
M  V30 21128 O 2078.35 2.01382 -0.0268051 0
M  V30 21129 C 2075.42 3.44631 -0.378223 0
M  V30 21130 C 2074.48 4.03374 -1.46928 0
M  V30 21131 C 2073.71 5.24365 -0.993837 0
M  V30 21132 O 2073.94 5.70181 0.157925 0
M  V30 21133 O 2072.87 5.74962 -1.78052 0
M  V30 21134 H 2076.7 2.44264 -1.80468 0
M  V30 21135 H 2074.28 1.1614 -0.939777 0
M  V30 21136 H 2076.16 4.21265 -0.106644 0
M  V30 21137 H 2074.84 3.19478 0.521114 0
M  V30 21138 H 2073.75 3.28248 -1.79455 0
M  V30 21139 H 2075.08 4.32814 -2.34378 0
M  V30 21140 N 2076.73 0.957992 1.25141 0
M  V30 21141 C 2077.96 0.631888 1.97015 0
M  V30 21142 C 2078.37 -0.796708 1.71167 0
M  V30 21143 O 2077.73 -1.53335 0.989683 0
M  V30 21144 C 2077.78 0.885137 3.50496 0
M  V30 21145 O 2077.5 2.25756 3.75454 0
M  V30 21146 C 2079 0.571882 4.39596 0
M  V30 21147 H 2076.22 0.236606 0.6279 0
M  V30 21148 H 2078.77 1.28328 1.59224 0
M  V30 21149 H 2076.92 0.280102 3.86386 0
M  V30 21150 H 2077.34 2.33023 4.69894 0
M  V30 21151 H 2078.81 0.799598 5.46178 0
M  V30 21152 H 2079.29 -0.493643 4.36417 0
M  V30 21153 H 2079.89 1.15639 4.09277 0
M  V30 21154 N 2078.21 -1.39832 0.726957 0
M  V30 21155 C 2079.46 -1.99907 0.268315 0
M  V30 21156 C 2079.77 -1.58329 -1.14854 0
M  V30 21157 O 2080.98 -2.11183 -1.70628 0
M  V30 21158 C 2079.43 -3.57337 0.428781 0
M  V30 21159 C 2079.04 -4.07882 1.853 0
M  V30 21160 C 2080.78 -4.24488 0.031508 0
M  V30 21161 C 2078.69 -5.57856 1.96344 0
M  V30 21162 H 2077.62 -0.747791 0.0965646 0
M  V30 21163 H 2080.27 -1.59931 0.899682 0
M  V30 21164 H 2078.65 -3.95069 -0.271354 0
M  V30 21165 H 2079.83 -3.81502 2.58444 0
M  V30 21166 H 2078.14 -3.53366 2.20276 0
M  V30 21167 H 2080.74 -5.34619 0.0931531 0
M  V30 21168 H 2081.08 -4.0381 -1.01209 0
M  V30 21169 H 2081.62 -3.91901 0.682503 0
M  V30 21170 H 2078.36 -5.83404 2.98865 0
M  V30 21171 H 2077.88 -5.86064 1.27627 0
M  V30 21172 H 2079.55 -6.2314 1.74085 0
M  V30 21173 N 2079.69 -0.473982 -1.50304 0
M  V30 21174 C 2081.1 -0.0195635 -1.8669 0
M  V30 21175 C 2081.45 1.38613 -1.38856 0
M  V30 21176 O 2080.57 2.02811 -0.754772 0
M  V30 21177 C 2081.17 -0.0287258 -3.38788 0
M  V30 21178 C 2079.73 0.370234 -3.74575 0
M  V30 21179 C 2078.87 -0.412963 -2.74208 0
M  V30 21180 H 2081.83 -0.688116 -1.43006 0
M  V30 21181 H 2081.85 0.772789 -3.7257 0
M  V30 21182 H 2081.36 -1.05193 -3.73572 0
M  V30 21183 H 2079.46 1.39768 -3.45392 0
M  V30 21184 H 2079.57 0.0695687 -4.79049 0
M  V30 21185 H 2077.94 0.13371 -2.54349 0
M  V30 21186 H 2078.72 -1.43573 -3.11836 0
M  V30 21187 N 2081.16 1.56239 -0.206702 0
M  V30 21188 C 2082.11 2.19624 0.709491 0
M  V30 21189 C 2083.08 1.1471 1.20128 0
M  V30 21190 O 2084.27 1.43008 1.26307 0
M  V30 21191 C 2081.41 2.8686 1.91847 0
M  V30 21192 C 2080.52 4.0633 1.46696 0
M  V30 21193 C 2079.65 4.6139 2.63235 0
M  V30 21194 C 2078.69 5.73193 2.14747 0
M  V30 21195 N 2077.83 6.22608 3.24505 0
M  V30 21196 H 2082.67 2.97558 0.162225 0
M  V30 21197 H 2080.21 1.46941 0.0683253 0
M  V30 21198 H 2082.17 3.24019 2.62807 0
M  V30 21199 H 2080.8 2.1147 2.43886 0
M  V30 21200 H 2079.85 3.74757 0.652809 0
M  V30 21201 H 2081.16 4.87159 1.07131 0
M  V30 21202 H 2080.31 5.00914 3.42301 0
M  V30 21203 H 2079.05 3.79693 3.0608 0
M  V30 21204 H 2078.06 5.33186 1.34139 0
M  V30 21205 H 2079.28 6.56716 1.72919 0
M  V30 21206 H 2077.23 5.43829 3.66859 0
M  V30 21207 H 2077.15 6.98521 2.89145 0
M  V30 21208 H 2078.41 6.66788 4.0375 0
M  V30 21209 N 2082.64 -0.0668159 1.57458 0
M  V30 21210 C 2083.55 -1.09665 2.0739 0
M  V30 21211 C 2084.57 -1.4208 1.00446 0
M  V30 21212 O 2085.74 -1.52157 1.31948 0
M  V30 21213 C 2082.81 -2.38952 2.51203 0
M  V30 21214 C 2081.87 -2.13463 3.72468 0
M  V30 21215 C 2081.1 -3.36585 4.14181 0
M  V30 21216 O 2081.33 -4.45889 3.55723 0
M  V30 21217 O 2080.26 -3.24505 5.06932 0
M  V30 21218 H 2084.09 -0.702443 2.95465 0
M  V30 21219 H 2081.67 -0.281287 1.46728 0
M  V30 21220 H 2083.55 -3.1503 2.79883 0
M  V30 21221 H 2082.23 -2.77742 1.66256 0
M  V30 21222 H 2081.14 -1.35074 3.48864 0
M  V30 21223 H 2082.47 -1.7955 4.58282 0
M  V30 21224 N 2084.12 -1.53926 -0.338317 0
M  V30 21225 C 2085.03 -1.85282 -1.43902 0
M  V30 21226 C 2086.05 -0.743407 -1.5732 0
M  V30 21227 O 2087.22 -1.03624 -1.72697 0
M  V30 21228 C 2084.29 -2.06058 -2.78821 0
M  V30 21229 C 2083.35 -3.29903 -2.74704 0
M  V30 21230 C 2082.58 -3.49679 -4.03188 0
M  V30 21231 O 2082.81 -2.73186 -5.00725 0
M  V30 21232 O 2081.74 -4.43121 -4.07342 0
M  V30 21233 H 2085.57 -2.78849 -1.2032 0
M  V30 21234 H 2083.15 -1.39646 -0.530982 0
M  V30 21235 H 2085.03 -2.21138 -3.58714 0
M  V30 21236 H 2083.71 -1.15679 -3.02325 0
M  V30 21237 H 2082.61 -3.20222 -1.93413 0
M  V30 21238 H 2083.95 -4.20292 -2.56155 0
M  V30 21239 N 2085.6 0.599608 -1.45748 0
M  V30 21240 C 2086.55 1.70982 -1.55028 0
M  V30 21241 C 2087.52 1.61319 -0.395631 0
M  V30 21242 O 2088.7 1.80781 -0.610146 0
M  V30 21243 C 2085.84 3.09304 -1.53052 0
M  V30 21244 C 2084.95 3.29715 -2.79127 0
M  V30 21245 C 2084.09 4.58189 -2.68769 0
M  V30 21246 C 2083.13 4.71885 -3.89861 0
M  V30 21247 N 2082.27 5.91666 -3.77989 0
M  V30 21248 H 2087.11 1.62387 -2.49869 0
M  V30 21249 H 2084.64 0.791687 -1.23979 0
M  V30 21250 H 2086.6 3.89343 -1.49893 0
M  V30 21251 H 2085.23 3.16838 -0.617561 0
M  V30 21252 H 2084.28 2.43397 -2.92339 0
M  V30 21253 H 2085.59 3.35707 -3.68921 0
M  V30 21254 H 2084.75 5.46433 -2.63621 0
M  V30 21255 H 2083.49 4.54608 -1.76587 0
M  V30 21256 H 2082.49 3.82062 -3.95359 0
M  V30 21257 H 2083.72 4.77257 -4.83118 0
M  V30 21258 H 2081.66 5.89115 -2.88582 0
M  V30 21259 H 2081.58 5.98853 -4.61423 0
M  V30 21260 H 2082.85 6.82387 -3.76787 0
M  V30 21261 N 2087.08 1.33171 0.842803 0
M  V30 21262 C 2088.04 1.23019 1.93388 0
M  V30 21263 C 2089.04 0.15022 1.60097 0
M  V30 21264 O 2090.23 0.401472 1.69511 0
M  V30 21265 C 2087.36 0.89468 3.2895 0
M  V30 21266 H 2088.56 2.19997 2.03817 0
M  V30 21267 H 2086.11 1.17173 1.03442 0
M  V30 21268 H 2086.84 -0.0727774 3.24218 0
M  V30 21269 H 2086.63 1.67563 3.54493 0
M  V30 21270 H 2088.12 0.848284 4.08894 0
M  V30 21271 N 2088.56 -1.06056 1.16576 0
M  V30 21272 C 2089.47 -2.17107 0.888912 0
M  V30 21273 C 2090.48 -1.73438 -0.139723 0
M  V30 21274 O 2091.66 -2.01365 0.0374846 0
M  V30 21275 C 2088.72 -3.44425 0.396494 0
M  V30 21276 C 2087.78 -4.02589 1.49065 0
M  V30 21277 C 2087.02 -5.2383 1.02163 0
M  V30 21278 O 2087.24 -5.70257 -0.127684 0
M  V30 21279 O 2086.17 -5.7401 1.81098 0
M  V30 21280 H 2090 -2.43304 1.81761 0
M  V30 21281 H 2087.58 -1.1564 0.945923 0
M  V30 21282 H 2089.47 -4.21203 0.128983 0
M  V30 21283 H 2088.14 -3.1975 -0.504164 0
M  V30 21284 H 2087.05 -3.27292 1.81193 0
M  V30 21285 H 2088.38 -4.31565 2.3667 0
M  V30 21286 N 2090.03 -0.964615 -1.24631 0
M  V30 21287 C 2090.98 -0.49166 -2.25502 0
M  V30 21288 C 2091.95 0.46115 -1.5957 0
M  V30 21289 O 2093.14 0.372197 -1.87135 0
M  V30 21290 C 2090.28 0.214964 -3.4443 0
M  V30 21291 C 2089.39 -0.776253 -4.24969 0
M  V30 21292 C 2088.52 -0.0460512 -5.3118 0
M  V30 21293 C 2087.56 -1.02754 -6.03414 0
M  V30 21294 N 2086.7 -0.327547 -7.01336 0
M  V30 21295 H 2091.54 -1.35669 -2.65326 0
M  V30 21296 H 2089.08 -0.68015 -1.30431 0
M  V30 21297 H 2091.03 0.641314 -4.12241 0
M  V30 21298 H 2089.66 1.04397 -3.05452 0
M  V30 21299 H 2088.72 -1.32105 -3.56724 0
M  V30 21300 H 2090.03 -1.52481 -4.74922 0
M  V30 21301 H 2089.18 0.438447 -6.05114 0
M  V30 21302 H 2087.92 0.735226 -4.82126 0
M  V30 21303 H 2086.93 -1.52294 -5.28286 0
M  V30 21304 H 2088.15 -1.80921 -6.54557 0
M  V30 21305 H 2086.1 0.43481 -6.54557 0
M  V30 21306 H 2086.01 -1.01503 -7.49155 0
M  V30 21307 H 2087.28 0.135085 -7.79383 0
M  V30 21308 N 2091.51 1.39445 -0.734362 0
M  V30 21309 C 2092.42 2.34405 -0.0955161 0
M  V30 21310 C 2093.44 1.58285 0.722625 0
M  V30 21311 O 2094.61 1.9058 0.65124 0
M  V30 21312 C 2091.68 3.3731 0.801447 0
M  V30 21313 C 2090.74 4.2929 -0.0288733 0
M  V30 21314 C 2089.97 5.27279 0.825373 0
M  V30 21315 O 2090.2 5.31743 2.06411 0
M  V30 21316 O 2089.13 6.01362 0.254373 0
M  V30 21317 H 2092.96 2.90693 -0.879273 0
M  V30 21318 H 2090.54 1.4096 -0.495025 0
M  V30 21319 H 2092.42 4.00368 1.31468 0
M  V30 21320 H 2091.1 2.83408 1.56403 0
M  V30 21321 H 2090 3.69456 -0.587608 0
M  V30 21322 H 2091.34 4.86396 -0.753661 0
M  V30 21323 N 2092.99 0.481946 1.5005 0
M  V30 21324 C 2093.95 -0.295344 2.27289 0
M  V30 21325 C 2094.95 -0.910886 1.32512 0
M  V30 21326 O 2096.14 -0.778377 1.55843 0
M  V30 21327 C 2093.27 -1.42179 3.09835 0
M  V30 21328 H 2094.47 0.382176 2.97455 0
M  V30 21329 H 2092.02 0.236325 1.54503 0
M  V30 21330 H 2092.76 -2.13404 2.44191 0
M  V30 21331 H 2092.54 -0.986087 3.79498 0
M  V30 21332 H 2094.03 -1.96982 3.68223 0
M  V30 21333 N 2094.47 -1.56127 0.214985 0
M  V30 21334 C 2095.88 -1.5898 -0.140524 0
M  V30 21335 C 2096.08 -1.23166 -1.59475 0
M  V30 21336 O 2095.14 -0.963792 -2.33382 0
M  V30 21337 C 2096.45 -3.00162 0.179827 0
M  V30 21338 C 2098 -3.12764 0.121534 0
M  V30 21339 C 2098.48 -4.56112 0.415468 0
M  V30 21340 N 2099.97 -4.61761 0.364801 0
M  V30 21341 C 2100.7 -5.70602 0.565817 0
M  V30 21342 N 2100.2 -6.87831 0.828254 0
M  V30 21343 N 2101.99 -5.59883 0.498704 0
M  V30 21344 H 2094.14 -1.77683 1.16372 0
M  V30 21345 H 2096.4 -0.825579 0.465964 0
M  V30 21346 H 2096.11 -3.30995 1.1889 0
M  V30 21347 H 2095.98 -3.7376 -0.508279 0
M  V30 21348 H 2098.37 -2.81731 -0.878172 0
M  V30 21349 H 2098.45 -2.4151 0.843017 0
M  V30 21350 H 2098.1 -4.87861 1.41258 0
M  V30 21351 H 2098.03 -5.25583 -0.327132 0
M  V30 21352 H 2100.52 -3.7752 0.169387 0
M  V30 21353 H 2100.83 -7.66689 0.969914 0
M  V30 21354 H 2099.18 -6.89591 0.865375 0
M  V30 21355 H 2102.37 -4.67176 0.293953 0
M  V30 21356 H 2102.54 -6.44643 0.658773 0
M  V30 21357 N 2095.95 0.0584645 -1.57492 0
M  V30 21358 C 2097.36 0.413547 -1.54149 0
M  V30 21359 C 2097.56 1.78385 -0.937076 0
M  V30 21360 O 2096.62 2.46541 -0.545339 0
M  V30 21361 C 2097.93 0.342371 -2.98745 0
M  V30 21362 C 2099.48 0.421594 -3.10148 0
M  V30 21363 C 2099.95 0.380184 -4.56419 0
M  V30 21364 N 2101.44 0.439864 -4.61107 0
M  V30 21365 C 2102.18 0.430249 -5.71784 0
M  V30 21366 N 2101.68 0.374659 -6.91786 0
M  V30 21367 N 2103.47 0.4778 -5.60066 0
M  V30 21368 H 2095.62 -0.838642 -1.95142 0
M  V30 21369 H 2097.88 -0.316052 -0.893765 0
M  V30 21370 H 2097.59 -0.598115 -3.46577 0
M  V30 21371 H 2097.46 1.14747 -3.59323 0
M  V30 21372 H 2099.85 1.35251 -2.62281 0
M  V30 21373 H 2099.93 -0.41232 -2.52455 0
M  V30 21374 H 2099.57 -0.546935 -5.04947 0
M  V30 21375 H 2099.5 1.23181 -5.1199 0
M  V30 21376 H 2102 0.486535 -3.74755 0
M  V30 21377 H 2102.31 0.371614 -7.71906 0
M  V30 21378 H 2100.65 0.341145 -6.94162 0
M  V30 21379 H 2103.84 0.519015 -4.65214 0
M  V30 21380 H 2104.02 0.466838 -6.46316 0
M  V30 21381 N 2097.42 1.54103 0.330149 0
M  V30 21382 C 2098.65 1.76264 1.09297 0
M  V30 21383 C 2099.07 0.5067 1.81147 0
M  V30 21384 O 2098.43 -0.541409 1.73027 0
M  V30 21385 C 2098.48 2.95141 2.07181 0
M  V30 21386 O 2097.58 2.66226 3.14956 0
M  V30 21387 H 2096.92 0.584284 0.31545 0
M  V30 21388 H 2099.45 2.01107 0.376453 0
M  V30 21389 H 2099.46 3.22305 2.50167 0
M  V30 21390 H 2098.14 3.86224 1.54285 0
M  V30 21391 H 2096.72 2.49992 2.76692 0
M  V30 21392 N 2098.9 -0.59187 1.46064 0
M  V30 21393 C 2100.13 -1.38153 1.54688 0
M  V30 21394 C 2100.55 -1.87183 0.185547 0
M  V30 21395 O 2099.91 -1.61046 -0.832694 0
M  V30 21396 C 2099.96 -2.55134 2.54831 0
M  V30 21397 O 2099.06 -3.56279 2.077 0
M  V30 21398 H 2098.4 -0.41181 0.520873 0
M  V30 21399 H 2100.93 -0.718824 1.91557 0
M  V30 21400 H 2100.94 -3.02173 2.74145 0
M  V30 21401 H 2099.62 -2.188 3.53694 0
M  V30 21402 H 2098.2 -3.15782 1.98333 0
M  V30 21403 N 2100.38 -1.33616 -0.835729 0
M  V30 21404 C 2101.31 -1.26762 -1.96096 0
M  V30 21405 C 2102.29 -0.147563 -1.69459 0
M  V30 21406 O 2103.48 -0.33785 -1.91239 0
M  V30 21407 C 2100.61 -1.00927 -3.32312 0
M  V30 21408 C 2099.56 -2.09261 -3.73355 0
M  V30 21409 C 2098.89 -1.68635 -5.07411 0
M  V30 21410 C 2100.19 -3.50968 -3.86806 0
M  V30 21411 H 2101.88 -2.20908 -2.02089 0
M  V30 21412 H 2099.43 -1.06346 -0.970907 0
M  V30 21413 H 2101.38 -0.947809 -4.10603 0
M  V30 21414 H 2100.1 -0.0322023 -3.26584 0
M  V30 21415 H 2098.76 -2.14455 -2.97329 0
M  V30 21416 H 2098.41 -0.696223 -4.98158 0
M  V30 21417 H 2098.11 -2.41134 -5.35844 0
M  V30 21418 H 2099.63 -1.63961 -5.88175 0
M  V30 21419 H 2101.05 -3.48257 -4.55401 0
M  V30 21420 H 2099.45 -4.21978 -4.26678 0
M  V30 21421 H 2100.52 -3.89244 -2.89166 0
M  V30 21422 N 2101.86 1.05436 -1.17136 0
M  V30 21423 C 2102.77 2.16633 -0.900413 0
M  V30 21424 C 2103.78 1.7351 0.130523 0
M  V30 21425 O 2104.96 2.01342 -0.0481629 0
M  V30 21426 C 2102.03 3.4421 -0.414754 0
M  V30 21427 C 2101.09 4.01793 -1.51198 0
M  V30 21428 C 2100.32 5.23281 -1.0494 0
M  V30 21429 O 2100.54 5.70317 0.0974405 0
M  V30 21430 O 2099.48 5.73041 -1.8414 0
M  V30 21431 H 2103.3 2.42336 -1.83049 0
M  V30 21432 H 2100.89 1.15137 -0.952042 0
M  V30 21433 H 2102.77 4.21128 -0.151319 0
M  V30 21434 H 2101.44 3.20013 0.487199 0
M  V30 21435 H 2100.35 3.26326 -1.82926 0
M  V30 21436 H 2101.68 4.30304 -2.38955 0
M  V30 21437 N 2103.34 0.971211 1.24118 0
M  V30 21438 C 2104.28 0.503612 2.25239 0
M  V30 21439 C 2105.25 -0.452682 1.59812 0
M  V30 21440 O 2106.44 -0.362267 1.87329 0
M  V30 21441 C 2103.58 -0.196695 3.44539 0
M  V30 21442 C 2102.69 0.798779 4.24551 0
M  V30 21443 C 2101.83 0.0742204 5.31148 0
M  V30 21444 C 2100.87 1.05952 6.0286 0
M  V30 21445 N 2100 0.364736 7.01152 0
M  V30 21446 H 2104.84 1.37074 2.64603 0
M  V30 21447 H 2102.38 0.687058 1.30069 0
M  V30 21448 H 2104.34 -0.619443 4.12576 0
M  V30 21449 H 2102.97 -1.02775 3.06002 0
M  V30 21450 H 2102.02 1.33995 3.56019 0
M  V30 21451 H 2103.33 1.54998 4.74107 0
M  V30 21452 H 2102.49 -0.40635 6.05338 0
M  V30 21453 H 2101.22 -0.709647 4.82509 0
M  V30 21454 H 2100.23 1.55093 5.27471 0
M  V30 21455 H 2101.45 1.8439 6.53588 0
M  V30 21456 H 2099.4 -0.400091 6.54779 0
M  V30 21457 H 2099.32 1.05474 7.48606 0
M  V30 21458 H 2100.59 -0.0937508 7.79444 0
M  V30 21459 N 2104.81 -1.39054 0.741747 0
M  V30 21460 C 2105.76 -2.27852 0.0821283 0
M  V30 21461 C 2106.75 -1.44603 -0.705607 0
M  V30 21462 O 2107.94 -1.67451 -0.573508 0
M  V30 21463 C 2105.07 -3.33381 -0.819271 0
M  V30 21464 C 2104.16 -4.24092 -0.0253229 0
M  V30 21465 N 2104.55 -4.95715 1.00501 0
M  V30 21466 C 2102.84 -4.45276 -0.253953 0
M  V30 21467 C 2103.55 -5.62443 1.48435 0
M  V30 21468 N 2102.52 -5.37655 0.80175 0
M  V30 21469 H 2106.32 -2.80684 0.871423 0
M  V30 21470 H 2103.84 -1.51816 0.576694 0
M  V30 21471 H 2105.83 -3.95871 -1.30736 0
M  V30 21472 H 2104.49 -2.82108 -1.60765 0
M  V30 21473 H 2105.51 -4.98995 1.38654 0
M  V30 21474 H 2102.18 -4.04934 -1.01661 0
M  V30 21475 H 2103.57 -6.29764 2.34194 0
M  V30 21476 N 2106.29 -0.489897 -1.49792 0
M  V30 21477 C 2107.71 -0.145171 -1.58938 0
M  V30 21478 C 2107.91 1.34961 -1.49625 0
M  V30 21479 O 2106.96 2.1246 -1.36444 0
M  V30 21480 C 2108.28 -0.7121 -2.92147 0
M  V30 21481 C 2109.83 -0.677209 -3.05586 0
M  V30 21482 C 2110.3 -1.22201 -4.41397 0
M  V30 21483 N 2111.79 -1.18222 -4.47859 0
M  V30 21484 C 2112.53 -1.57407 -5.51372 0
M  V30 21485 N 2112.02 -2.04131 -6.62044 0
M  V30 21486 N 2113.82 -1.48892 -5.42022 0
M  V30 21487 H 2105.97 -1.46186 -1.54089 0
M  V30 21488 H 2108.23 -0.60569 -0.729276 0
M  V30 21489 H 2107.94 -1.75998 -3.04496 0
M  V30 21490 H 2107.81 -0.166236 -3.76834 0
M  V30 21491 H 2110.2 0.361809 -2.92874 0
M  V30 21492 H 2110.28 -1.26009 -2.2261 0
M  V30 21493 H 2109.92 -2.25975 -4.5486 0
M  V30 21494 H 2109.85 -0.615163 -5.22995 0
M  V30 21495 H 2112.34 -0.839749 -3.68452 0
M  V30 21496 H 2112.66 -2.32129 -7.37113 0
M  V30 21497 H 2111 -2.08097 -6.63114 0
M  V30 21498 H 2114.19 -1.12217 -4.5445 0
M  V30 21499 H 2114.36 -1.79754 -6.22569 0
M  V30 21500 N 2107.77 1.56011 -0.223262 0
M  V30 21501 C 2108.72 2.20365 0.686157 0
M  V30 21502 C 2109.69 1.15978 1.18905 0
M  V30 21503 O 2110.87 1.44339 1.24783 0
M  V30 21504 C 2108.01 2.88879 1.88793 0
M  V30 21505 C 2107.13 4.07863 1.42378 0
M  V30 21506 C 2106.26 4.64156 2.58326 0
M  V30 21507 C 2105.3 5.75438 2.08656 0
M  V30 21508 N 2104.44 6.26015 3.17883 0
M  V30 21509 H 2109.28 2.97713 0.130656 0
M  V30 21510 H 2106.81 1.47005 0.0527363 0
M  V30 21511 H 2108.77 3.26788 2.59356 0
M  V30 21512 H 2107.4 2.14045 2.41629 0
M  V30 21513 H 2106.45 3.75428 0.613024 0
M  V30 21514 H 2107.77 4.88268 1.01958 0
M  V30 21515 H 2106.92 5.04517 3.36968 0
M  V30 21516 H 2105.66 3.82918 3.02035 0
M  V30 21517 H 2104.66 5.34578 1.28476 0
M  V30 21518 H 2105.89 6.58513 1.65944 0
M  V30 21519 H 2103.83 5.4769 3.61071 0
M  V30 21520 H 2103.75 7.01548 2.8172 0
M  V30 21521 H 2105.02 6.71033 3.96655 0
M  V30 21522 N 2109.25 -0.0501116 1.5752 0
M  V30 21523 C 2110.16 -1.07459 2.08542 0
M  V30 21524 C 2111.17 -1.41006 1.01947 0
M  V30 21525 O 2112.35 -1.50749 1.33555 0
M  V30 21526 C 2109.42 -2.36274 2.53723 0
M  V30 21527 C 2108.48 -2.095 3.74711 0
M  V30 21528 C 2107.71 -3.32174 4.17728 0
M  V30 21529 O 2107.93 -4.42091 3.60432 0
M  V30 21530 O 2106.87 -3.1911 5.10346 0
M  V30 21531 H 2110.69 -0.671065 2.96193 0
M  V30 21532 H 2108.28 -0.265709 1.47018 0
M  V30 21533 H 2110.16 -3.12043 2.83208 0
M  V30 21534 H 2108.83 -2.75963 1.69192 0
M  V30 21535 H 2107.74 -1.31366 3.50277 0
M  V30 21536 H 2109.07 -1.74679 4.60161 0
M  V30 21537 N 2110.73 -1.54276 -0.321972 0
M  V30 21538 C 2111.67 -1.83772 -1.3963 0
M  V30 21539 C 2112.64 -0.684941 -1.5132 0
M  V30 21540 O 2113.83 -0.931526 -1.66515 0
M  V30 21541 C 2110.97 -2.07212 -2.75966 0
M  V30 21542 C 2110.08 -3.34892 -2.72895 0
M  V30 21543 C 2109.22 -3.48284 -4.01088 0
M  V30 21544 C 2108.26 -4.69833 -3.9233 0
M  V30 21545 N 2107.39 -4.80144 -5.12256 0
M  V30 21546 H 2112.23 -2.75425 -1.13777 0
M  V30 21547 H 2109.77 -1.36401 -0.550737 0
M  V30 21548 H 2111.73 -2.18794 -3.55225 0
M  V30 21549 H 2110.36 -1.18848 -3.00125 0
M  V30 21550 H 2109.41 -3.32039 -1.85618 0
M  V30 21551 H 2110.72 -4.2426 -2.62307 0
M  V30 21552 H 2109.88 -3.59417 -4.88778 0
M  V30 21553 H 2108.61 -2.57011 -4.14483 0
M  V30 21554 H 2107.62 -4.58755 -3.03024 0
M  V30 21555 H 2108.84 -5.62492 -3.80498 0
M  V30 21556 H 2106.79 -3.91787 -5.26155 0
M  V30 21557 H 2106.71 -5.6348 -5.0401 0
M  V30 21558 H 2107.98 -4.9561 -6.01657 0
M  V30 21559 N 2112.2 0.584116 -1.46376 0
M  V30 21560 C 2113.62 1.16623 -1.45794 0
M  V30 21561 C 2113.97 1.95198 -0.198034 0
M  V30 21562 O 2113.09 2.04801 0.698962 0
M  V30 21563 C 2113.69 2.12162 -2.64145 0
M  V30 21564 C 2112.25 2.657 -2.66609 0
M  V30 21565 C 2111.39 1.41543 -2.38455 0
M  V30 21566 H 2114.34 0.372129 -1.54275 0
M  V30 21567 H 2114.36 2.95601 -2.39583 0
M  V30 21568 H 2113.88 1.54946 -3.55828 0
M  V30 21569 H 2111.98 3.26789 -1.78996 0
M  V30 21570 H 2112.09 3.08531 -3.66532 0
M  V30 21571 H 2110.45 1.71306 -1.88484 0
M  V30 21572 H 2111.24 0.861604 -3.32312 0
M  V30 21573 N 2113.68 1.34058 0.828631 0
M  V30 21574 C 2114.93 1.26093 1.58451 0
M  V30 21575 C 2115.26 -0.170623 1.9375 0
M  V30 21576 O 2114.51 -1.13044 1.59748 0
M  V30 21577 C 2114.81 2.09161 2.89804 0
M  V30 21578 C 2114.48 3.58234 2.73823 0
M  V30 21579 C 2113.14 3.98873 2.69172 0
M  V30 21580 C 2115.49 4.52919 2.57903 0
M  V30 21581 C 2112.82 5.32398 2.46514 0
M  V30 21582 C 2115.17 5.86617 2.36777 0
M  V30 21583 C 2113.84 6.26426 2.30534 0
M  V30 21584 H 2113.11 0.461406 0.579815 0
M  V30 21585 H 2115.75 1.65745 0.959215 0
M  V30 21586 H 2114.06 1.62319 3.56595 0
M  V30 21587 H 2115.76 2.00349 3.47363 0
M  V30 21588 H 2112.35 3.25973 2.7828 0
M  V30 21589 H 2116.53 4.22423 2.60523 0
M  V30 21590 H 2111.79 5.62268 2.40135 0
M  V30 21591 H 2115.96 6.5958 2.23444 0
M  V30 21592 H 2113.59 7.29826 2.12738 0
M  V30 21593 N 2115.16 -1.04814 1.17694 0
M  V30 21594 C 2116.11 -2.12651 0.897118 0
M  V30 21595 C 2117.08 -1.65323 -0.160501 0
M  V30 21596 O 2118.26 -1.90787 -0.0224765 0
M  V30 21597 C 2115.4 -3.42526 0.420731 0
M  V30 21598 C 2114.52 -4.03508 1.54291 0
M  V30 21599 C 2113.65 -5.21315 1.02001 0
M  V30 21600 C 2112.69 -5.74311 2.11738 0
M  V30 21601 N 2111.83 -6.83415 1.60897 0
M  V30 21602 H 2116.67 -2.35925 1.82054 0
M  V30 21603 H 2114.2 -1.15736 0.907948 0
M  V30 21604 H 2116.16 -4.1701 0.126057 0
M  V30 21605 H 2114.79 -3.19423 -0.46572 0
M  V30 21606 H 2113.84 -3.26425 1.95323 0
M  V30 21607 H 2115.16 -4.38876 2.37042 0
M  V30 21608 H 2114.31 -6.02884 0.679408 0
M  V30 21609 H 2113.05 -4.87431 0.161982 0
M  V30 21610 H 2112.05 -4.91369 2.46651 0
M  V30 21611 H 2113.28 -6.10242 2.97963 0
M  V30 21612 H 2111.23 -6.51421 0.773715 0
M  V30 21613 H 2111.14 -7.17807 2.37252 0
M  V30 21614 H 2112.41 -7.68627 1.29741 0
M  V30 21615 N 2116.64 -0.977779 -1.23601 0
M  V30 21616 C 2117.87 -0.663151 -1.95984 0
M  V30 21617 C 2118.28 0.769376 -1.72412 0
M  V30 21618 O 2117.64 1.51741 -1.01395 0
M  V30 21619 C 2117.69 -0.940786 -3.49044 0
M  V30 21620 O 2117.41 -2.31701 -3.71815 0
M  V30 21621 C 2118.91 -0.641745 -4.3863 0
M  V30 21622 H 2116.13 -0.246565 -0.624057 0
M  V30 21623 H 2118.68 -1.30845 -1.57162 0
M  V30 21624 H 2116.83 -0.341537 -3.85892 0
M  V30 21625 H 2117.25 -2.40469 -4.66128 0
M  V30 21626 H 2118.72 -0.886389 -5.44837 0
M  V30 21627 H 2119.2 0.42415 -4.37147 0
M  V30 21628 H 2119.8 -1.22135 -4.07386 0
M  V30 21629 N 2118.12 1.38658 -0.749111 0
M  V30 21630 C 2119.37 1.99821 -0.302678 0
M  V30 21631 C 2119.69 1.59757 1.11816 0
M  V30 21632 O 2118.96 0.852324 1.76387 0
M  V30 21633 H 2117.54 0.739016 -0.108921 0
M  V30 21634 H 2120.2 1.69492 -0.962209 0
M  V30 21635 H 2119.29 3.09991 -0.362255 0
M  V30 21636 N 2119.6 0.497834 1.49531 0
M  V30 21637 C 2121.01 0.153598 1.58859 0
M  V30 21638 C 2121.21 -1.34166 1.50339 0
M  V30 21639 O 2120.27 -2.11733 1.37569 0
M  V30 21640 C 2121.58 0.727583 2.91765 0
M  V30 21641 C 2123.13 0.693405 3.05223 0
M  V30 21642 C 2123.6 1.2454 4.40742 0
M  V30 21643 N 2125.09 1.20596 4.47226 0
M  V30 21644 C 2125.83 1.60329 5.50529 0
M  V30 21645 N 2125.33 2.07639 6.60952 0
M  V30 21646 N 2127.12 1.51765 5.41224 0
M  V30 21647 H 2119.27 1.47001 1.53312 0
M  V30 21648 H 2121.53 0.609549 0.726054 0
M  V30 21649 H 2121.24 1.77611 3.03558 0
M  V30 21650 H 2121.11 0.186218 3.7674 0
M  V30 21651 H 2123.5 -0.346272 2.93061 0
M  V30 21652 H 2123.58 1.27188 2.21939 0
M  V30 21653 H 2123.22 2.28384 4.53655 0
M  V30 21654 H 2123.15 0.642891 5.22661 0
M  V30 21655 H 2125.65 0.859277 3.68001 0
M  V30 21656 H 2125.96 2.36035 7.35872 0
M  V30 21657 H 2124.3 2.11611 6.62001 0
M  V30 21658 H 2127.49 1.14625 4.53849 0
M  V30 21659 H 2127.67 1.83053 6.21607 0
M  V30 21660 N 2121.07 -1.5589 0.231532 0
M  V30 21661 C 2122.32 -1.98169 -0.396667 0
M  V30 21662 C 2122.64 -1.12067 -1.59581 0
M  V30 21663 O 2121.91 -0.199942 -1.94877 0
M  V30 21664 H 2120.49 -0.731878 -0.149544 0
M  V30 21665 H 2123.15 -1.92142 0.326749 0
M  V30 21666 H 2122.25 -3.0377 -0.716243 0
M  V30 21667 N 2122.55 0.0417572 -1.57545 0
M  V30 21668 C 2123.97 0.397174 -1.54579 0
M  V30 21669 C 2124.17 1.77381 -0.955943 0
M  V30 21670 O 2123.22 2.45948 -0.571457 0
M  V30 21671 C 2124.54 0.310665 -2.99091 0
M  V30 21672 C 2126.08 0.388675 -3.10577 0
M  V30 21673 C 2126.56 0.331754 -4.56797 0
M  V30 21674 N 2128.05 0.390933 -4.61547 0
M  V30 21675 C 2128.79 0.36958 -5.72208 0
M  V30 21676 N 2128.28 0.301264 -6.92145 0
M  V30 21677 N 2130.07 0.41837 -5.60541 0
M  V30 21678 H 2122.23 -0.859292 -1.94242 0
M  V30 21679 H 2124.49 -0.325513 -0.890362 0
M  V30 21680 H 2124.19 -0.634841 -3.45923 0
M  V30 21681 H 2124.07 1.10929 -3.6052 0
M  V30 21682 H 2126.46 1.32461 -2.63701 0
M  V30 21683 H 2126.54 -0.439073 -2.52004 0
M  V30 21684 H 2126.18 -0.60046 -5.04338 0
M  V30 21685 H 2126.11 1.17744 -5.13268 0
M  V30 21686 H 2128.6 0.44676 -3.7525 0
M  V30 21687 H 2128.91 0.289723 -7.72257 0
M  V30 21688 H 2127.26 0.2675 -6.94485 0
M  V30 21689 H 2130.45 0.469643 -4.65738 0
M  V30 21690 H 2130.62 0.398261 -6.46775 0
M  V30 21691 N 2124.03 1.54445 0.313786 0
M  V30 21692 C 2125.28 1.72328 1.04814 0
M  V30 21693 C 2125.59 0.509186 1.88856 0
M  V30 21694 O 2126.8 0.569563 2.65459 0
M  V30 21695 C 2125.25 3.04843 1.91309 0
M  V30 21696 C 2124.86 4.33689 1.12331 0
M  V30 21697 C 2126.61 3.32087 2.6442 0
M  V30 21698 C 2124.51 5.5726 1.98028 0
M  V30 21699 H 2123.44 0.642234 0.395033 0
M  V30 21700 H 2126.09 1.80934 0.305823 0
M  V30 21701 H 2124.48 2.90169 2.69477 0
M  V30 21702 H 2125.65 4.59158 0.388648 0
M  V30 21703 H 2123.96 4.13283 0.508577 0
M  V30 21704 H 2126.56 4.21607 3.28864 0
M  V30 21705 H 2126.9 2.50397 3.32577 0
M  V30 21706 H 2127.44 3.47673 1.93308 0
M  V30 21707 H 2124.18 6.41581 1.34364 0
M  V30 21708 H 2123.7 5.35995 2.69201 0
M  V30 21709 H 2125.38 5.94035 2.56382 0
M  V30 21710 N 2125.51 -0.576345 1.46683 0
M  V30 21711 C 2126.73 -1.36505 1.56145 0
M  V30 21712 C 2127.16 -1.86975 0.20539 0
M  V30 21713 O 2126.52 -1.6192 -0.815566 0
M  V30 21714 C 2126.56 -2.52417 2.57523 0
M  V30 21715 O 2125.67 -3.54056 2.11467 0
M  V30 21716 H 2125.01 -0.406262 0.525211 0
M  V30 21717 H 2127.54 -0.698466 1.92309 0
M  V30 21718 H 2127.55 -2.99248 2.77335 0
M  V30 21719 H 2126.22 -2.15036 3.55995 0
M  V30 21720 H 2124.8 -3.13661 2.01671 0
M  V30 21721 N 2126.99 -1.34495 -0.82151 0
M  V30 21722 C 2128.21 -1.30011 -1.60949 0
M  V30 21723 C 2128.63 0.125523 -1.88382 0
M  V30 21724 O 2127.99 1.07303 -1.47623 0
M  V30 21725 C 2128.04 -2.09003 -2.94957 0
M  V30 21726 O 2127.76 -3.46007 -2.68721 0
M  V30 21727 C 2129.26 -2.11933 -3.89358 0
M  V30 21728 H 2126.48 -0.447203 -0.500251 0
M  V30 21729 H 2129.02 -1.7713 -1.02202 0
M  V30 21730 H 2127.18 -1.65523 -3.50258 0
M  V30 21731 H 2127.59 -3.86856 -3.54179 0
M  V30 21732 H 2129.07 -2.71623 -4.80547 0
M  V30 21733 H 2129.54 -1.11409 -4.24835 0
M  V30 21734 H 2130.15 -2.55508 -3.39993 0
M  V30 21735 N 2128.46 1.04188 -1.18248 0
M  V30 21736 C 2129.88 1.58822 -0.981458 0
M  V30 21737 C 2130.23 1.90507 0.469187 0
M  V30 21738 O 2129.35 1.6942 1.34632 0
M  V30 21739 C 2129.95 2.88565 -1.77526 0
M  V30 21740 C 2128.51 3.3982 -1.61862 0
M  V30 21741 C 2127.65 2.13421 -1.77051 0
M  V30 21742 H 2130.6 0.868749 -1.3281 0
M  V30 21743 H 2130.62 3.58905 -1.26362 0
M  V30 21744 H 2130.14 2.65472 -2.83101 0
M  V30 21745 H 2128.24 3.67928 -0.588186 0
M  V30 21746 H 2128.35 4.13728 -2.4159 0
M  V30 21747 H 2126.71 2.24667 -1.19986 0
M  V30 21748 H 2127.5 1.92785 -2.84058 0
M  V30 21749 N 2129.94 0.98432 1.23081 0
M  V30 21750 C 2130.85 0.536158 2.28391 0
M  V30 21751 C 2131.87 -0.410933 1.69078 0
M  V30 21752 O 2133.04 -0.279885 1.99446 0
M  V30 21753 C 2130.11 -0.150493 3.46373 0
M  V30 21754 C 2129.17 0.83849 4.21032 0
M  V30 21755 C 2128.4 0.184512 5.33381 0
M  V30 21756 O 2128.63 -1.02355 5.61141 0
M  V30 21757 O 2127.56 0.885058 5.95357 0
M  V30 21758 H 2131.39 1.41206 2.68877 0
M  V30 21759 H 2128.97 0.752144 1.29086 0
M  V30 21760 H 2130.85 -0.535499 4.17984 0
M  V30 21761 H 2129.53 -1.00109 3.07831 0
M  V30 21762 H 2128.44 1.27427 3.51729 0
M  V30 21763 H 2129.77 1.65802 4.63433 0
M  V30 21764 N 2131.42 -1.38259 0.756453 0
M  V30 21765 C 2132.84 -1.53575 0.434365 0
M  V30 21766 C 2133.04 -1.71851 -1.05212 0
M  V30 21767 O 2132.09 -1.73115 -1.83814 0
M  V30 21768 C 2133.41 -2.74118 1.23611 0
M  V30 21769 C 2134.95 -2.8797 1.22647 0
M  V30 21770 C 2135.43 -4.11477 2.01124 0
M  V30 21771 N 2136.92 -4.1856 1.98399 0
M  V30 21772 C 2137.65 -5.13124 2.55913 0
M  V30 21773 N 2137.15 -6.13343 3.22153 0
M  V30 21774 N 2138.94 -5.05495 2.45827 0
M  V30 21775 H 2131.09 -1.24647 1.7198 0
M  V30 21776 H 2133.36 -0.605745 0.72923 0
M  V30 21777 H 2133.06 -2.67028 2.28886 0
M  V30 21778 H 2132.94 -3.67384 0.854919 0
M  V30 21779 H 2135.32 -2.9454 0.181771 0
M  V30 21780 H 2135.41 -1.95707 1.6472 0
M  V30 21781 H 2135.05 -4.05669 3.05607 0
M  V30 21782 H 2134.98 -5.02825 1.56444 0
M  V30 21783 H 2137.47 -3.46785 1.50161 0
M  V30 21784 H 2137.78 -6.81999 3.63451 0
M  V30 21785 H 2136.13 -6.13667 3.26248 0
M  V30 21786 H 2139.32 -4.26141 1.93705 0
M  V30 21787 H 2139.49 -5.79012 2.90946 0
M  V30 21788 N 2132.9 -0.505757 -1.49264 0
M  V30 21789 C 2133.85 0.270127 -2.29214 0
M  V30 21790 C 2134.82 0.956031 -1.35828 0
M  V30 21791 O 2136 0.961771 -1.64787 0
M  V30 21792 C 2133.14 1.32577 -3.18618 0
M  V30 21793 C 2132.25 0.65116 -4.27064 0
M  V30 21794 C 2131.39 1.68765 -5.03678 0
M  V30 21795 C 2130.43 0.995172 -6.03956 0
M  V30 21796 N 2129.56 1.97608 -6.73718 0
M  V30 21797 H 2134.4 -0.41788 -2.95056 0
M  V30 21798 H 2131.94 -0.217921 -1.45477 0
M  V30 21799 H 2133.9 1.94985 -3.68832 0
M  V30 21800 H 2132.53 1.98248 -2.5475 0
M  V30 21801 H 2131.58 -0.0863124 -3.80302 0
M  V30 21802 H 2132.89 0.106277 -4.98687 0
M  V30 21803 H 2132.05 2.38665 -5.57785 0
M  V30 21804 H 2130.79 2.2664 -4.3184 0
M  V30 21805 H 2129.79 0.281968 -5.49076 0
M  V30 21806 H 2131.02 0.422861 -6.77782 0
M  V30 21807 H 2128.96 2.54436 -6.04647 0
M  V30 21808 H 2128.88 1.48199 -7.41332 0
M  V30 21809 H 2130.15 2.66782 -7.32426 0
M  V30 21810 N 2134.38 1.55765 -0.239796 0
M  V30 21811 C 2135.62 1.99064 0.387489 0
M  V30 21812 C 2135.96 1.12765 1.58107 0
M  V30 21813 O 2135.23 0.189423 1.93575 0
M  V30 21814 C 2135.51 3.51003 0.80429 0
M  V30 21815 C 2135.37 4.48069 -0.394185 0
M  V30 21816 C 2136.69 4.07842 1.65386 0
M  V30 21817 H 2133.8 0.723702 0.139371 0
M  V30 21818 H 2136.45 1.86939 -0.339685 0
M  V30 21819 H 2134.6 3.61466 1.42388 0
M  V30 21820 H 2136.27 4.49595 -1.03255 0
M  V30 21821 H 2134.51 4.21186 -1.03852 0
M  V30 21822 H 2135.18 5.51968 -0.0593288 0
M  V30 21823 H 2137.66 4.00437 1.13092 0
M  V30 21824 H 2136.53 5.14435 1.91436 0
M  V30 21825 H 2136.8 3.55856 2.62333 0
M  V30 21826 N 2135.85 -0.0334016 1.57565 0
M  V30 21827 C 2136.82 -1.01998 2.05253 0
M  V30 21828 C 2137.82 -1.29303 0.955901 0
M  V30 21829 O 2139.01 -1.24379 1.21965 0
M  V30 21830 C 2136.14 -2.35395 2.4658 0
M  V30 21831 H 2137.33 -0.608136 2.93669 0
M  V30 21832 H 2134.89 -0.280124 1.53769 0
M  V30 21833 H 2135.62 -2.81337 1.61307 0
M  V30 21834 H 2135.41 -2.16908 3.26639 0
M  V30 21835 H 2136.9 -3.06235 2.83918 0
M  V30 21836 N 2137.33 -1.54609 -0.305591 0
M  V30 21837 C 2138.28 -1.85242 -1.37673 0
M  V30 21838 C 2139.25 -0.700952 -1.50585 0
M  V30 21839 O 2140.43 -0.949135 -1.65518 0
M  V30 21840 C 2137.57 -2.10127 -2.73753 0
M  V30 21841 C 2136.69 -3.37767 -2.69328 0
M  V30 21842 C 2135.82 -3.52519 -3.97371 0
M  V30 21843 C 2134.86 -4.73968 -3.87325 0
M  V30 21844 N 2134 -4.8555 -5.07135 0
M  V30 21845 H 2138.84 -2.76616 -1.10849 0
M  V30 21846 H 2136.38 -1.36978 -0.536239 0
M  V30 21847 H 2138.33 -2.22549 -3.52885 0
M  V30 21848 H 2136.96 -1.22025 -2.98847 0
M  V30 21849 H 2136.02 -3.33989 -1.82086 0
M  V30 21850 H 2137.33 -4.27018 -2.57793 0
M  V30 21851 H 2136.48 -3.64581 -4.84939 0
M  V30 21852 H 2135.22 -2.61393 -4.11734 0
M  V30 21853 H 2134.23 -4.61944 -2.98141 0
M  V30 21854 H 2135.45 -5.66496 -3.74511 0
M  V30 21855 H 2133.4 -3.97345 -5.2197 0
M  V30 21856 H 2133.31 -5.68794 -4.98005 0
M  V30 21857 H 2134.58 -5.01963 -5.96367 0
M  V30 21858 N 2138.81 0.568558 -1.46987 0
M  V30 21859 C 2139.76 1.67655 -1.5862 0
M  V30 21860 C 2140.73 1.60444 -0.429761 0
M  V30 21861 O 2141.91 1.79446 -0.648355 0
M  V30 21862 C 2139.05 3.05988 -1.59578 0
M  V30 21863 C 2138.17 3.2372 -2.86058 0
M  V30 21864 C 2137.3 4.52385 -2.78427 0
M  V30 21865 C 2136.34 4.63509 -3.99782 0
M  V30 21866 N 2135.48 5.83515 -3.90454 0
M  V30 21867 H 2140.32 1.5705 -2.53257 0
M  V30 21868 H 2137.85 0.765211 -1.2563 0
M  V30 21869 H 2139.81 3.86076 -1.58118 0
M  V30 21870 H 2138.44 3.15456 -0.684628 0
M  V30 21871 H 2137.49 2.37141 -2.97436 0
M  V30 21872 H 2138.81 3.27806 -3.75959 0
M  V30 21873 H 2137.96 5.40718 -2.75152 0
M  V30 21874 H 2136.7 4.5076 -1.86191 0
M  V30 21875 H 2135.7 3.7359 -4.03374 0
M  V30 21876 H 2136.93 4.66902 -4.93132 0
M  V30 21877 H 2134.87 5.82861 -3.01013 0
M  V30 21878 H 2134.79 5.8893 -4.74022 0
M  V30 21879 H 2136.06 6.74241 -3.91177 0
M  V30 21880 N 2140.29 1.34929 0.814366 0
M  V30 21881 C 2141.2 1.29305 1.95748 0
M  V30 21882 C 2142.21 0.199261 1.72855 0
M  V30 21883 O 2143.39 0.427261 1.96816 0
M  V30 21884 C 2140.46 1.05688 3.30198 0
M  V30 21885 C 2139.52 2.24305 3.6604 0
M  V30 21886 C 2138.75 2.01805 4.94075 0
M  V30 21887 O 2138.97 0.980584 5.61908 0
M  V30 21888 O 2137.91 2.88973 5.27995 0
M  V30 21889 H 2141.73 2.25492 2.03438 0
M  V30 21890 H 2139.32 1.15222 0.951017 0
M  V30 21891 H 2141.2 0.943332 4.10706 0
M  V30 21892 H 2139.87 0.125466 3.23457 0
M  V30 21893 H 2138.78 2.41222 2.85942 0
M  V30 21894 H 2140.11 3.15866 3.77478 0
M  V30 21895 N 2141.77 -1.0356 1.18799 0
M  V30 21896 C 2143.18 -1.58299 0.989867 0
M  V30 21897 C 2143.53 -1.90754 -0.459077 0
M  V30 21898 O 2142.65 -1.70132 -1.33731 0
M  V30 21899 C 2143.25 -2.8762 1.79054 0
M  V30 21900 C 2141.81 -3.38957 1.63662 0
M  V30 21901 C 2140.95 -2.12479 1.7818 0
M  V30 21902 H 2143.91 -0.861694 1.33269 0
M  V30 21903 H 2143.93 -3.5823 1.28263 0
M  V30 21904 H 2143.44 -2.63967 2.84505 0
M  V30 21905 H 2141.54 -3.67611 0.607689 0
M  V30 21906 H 2141.65 -4.12441 2.43781 0
M  V30 21907 H 2140.02 -2.24028 1.21176 0
M  V30 21908 H 2140.8 -1.91275 2.85076 0
M  V30 21909 N 2143.25 -0.990834 -1.22557 0
M  V30 21910 C 2144.47 -0.683595 -1.9581 0
M  V30 21911 C 2144.9 0.744808 -1.72726 0
M  V30 21912 O 2144.25 1.50883 -1.00518 0
M  V30 21913 C 2144.3 -0.992665 -3.46668 0
M  V30 21914 O 2143.41 -0.0902361 -4.12301 0
M  V30 21915 H 2142.75 -0.256053 -0.612644 0
M  V30 21916 H 2145.28 -1.32725 -1.55709 0
M  V30 21917 H 2145.29 -0.933654 -3.97174 0
M  V30 21918 H 2143.96 -2.03353 -3.62795 0
M  V30 21919 H 2142.54 -0.204554 -3.72339 0
M  V30 21920 N 2144.72 1.37856 -0.763775 0
M  V30 21921 C 2145.95 2.0416 -0.335631 0
M  V30 21922 C 2146.37 1.57607 1.0395 0
M  V30 21923 O 2145.72 0.753707 1.66209 0
M  V30 21924 C 2145.77 3.59696 -0.360678 0
M  V30 21925 O 2145.5 4.04543 -1.68155 0
M  V30 21926 C 2147 4.43228 0.080061 0
M  V30 21927 H 2144.22 0.655845 -0.141805 0
M  V30 21928 H 2146.76 1.76347 -1.03547 0
M  V30 21929 H 2144.92 3.86309 0.290514 0
M  V30 21930 H 2145.33 4.99027 -1.6147 0
M  V30 21931 H 2146.8 5.51999 0.0113779 0
M  V30 21932 H 2147.28 4.24432 1.12936 0
M  V30 21933 H 2147.89 4.21824 -0.542641 0
M  V30 21934 N 2146.2 0.513665 1.48994 0
M  V30 21935 C 2147.45 -0.0263732 2.02783 0
M  V30 21936 C 2147.78 -1.35469 1.39147 0
M  V30 21937 O 2147.06 -1.87097 0.531511 0
M  V30 21938 C 2147.34 -0.165605 3.59719 0
M  V30 21939 C 2147.19 1.18673 4.33863 0
M  V30 21940 C 2148.51 -0.900228 4.30794 0
M  V30 21941 H 2145.63 -0.00811043 0.736955 0
M  V30 21942 H 2148.27 0.667534 1.77888 0
M  V30 21943 H 2146.42 -0.756613 3.81061 0
M  V30 21944 H 2148.09 1.81759 4.23983 0
M  V30 21945 H 2146.34 1.77281 3.95922 0
M  V30 21946 H 2147.01 1.04247 5.42067 0
M  V30 21947 H 2149.48 -0.398863 4.14184 0
M  V30 21948 H 2148.36 -0.966514 5.40324 0
M  V30 21949 H 2148.62 -1.94685 3.96926 0
M  V30 21950 N 2147.68 -1.55636 0.248053 0
M  V30 21951 C 2148.9 -2.03825 -0.383439 0
M  V30 21952 C 2149.33 -1.12611 -1.50666 0
M  V30 21953 O 2148.69 -0.119296 -1.80907 0
M  V30 21954 C 2148.74 -3.5001 -0.86748 0
M  V30 21955 O 2147.84 -3.61925 -1.97696 0
M  V30 21956 H 2147.18 -0.65874 -0.0834089 0
M  V30 21957 H 2149.71 -2.01144 0.374447 0
M  V30 21958 H 2149.72 -3.90853 -1.17039 0
M  V30 21959 H 2148.4 -4.15875 -0.0455341 0
M  V30 21960 H 2146.97 -3.3298 -1.67866 0
M  V30 21961 N 2149.16 0.0250451 -1.5758 0
M  V30 21962 C 2150.57 0.380756 -1.54992 0
M  V30 21963 C 2150.77 1.76357 -0.974703 0
M  V30 21964 O 2149.83 2.45328 -0.597511 0
M  V30 21965 C 2151.14 0.278925 -2.99404 0
M  V30 21966 C 2152.69 0.355712 -3.10972 0
M  V30 21967 C 2153.17 0.283285 -4.57123 0
M  V30 21968 N 2154.66 0.341957 -4.61936 0
M  V30 21969 C 2155.39 0.308868 -5.72568 0
M  V30 21970 N 2154.89 0.227836 -6.92425 0
M  V30 21971 N 2156.68 0.358894 -5.60953 0
M  V30 21972 H 2148.83 -0.879846 -1.9332 0
M  V30 21973 H 2151.09 -0.334939 -0.88686 0
M  V30 21974 H 2150.8 -0.671495 -3.4523 0
M  V30 21975 H 2150.67 1.07099 -3.61676 0
M  V30 21976 H 2153.06 1.29657 -2.65091 0
M  V30 21977 H 2153.14 -0.465777 -2.51524 0
M  V30 21978 H 2152.79 -0.653918 -5.03673 0
M  V30 21979 H 2152.72 1.12293 -5.14488 0
M  V30 21980 H 2155.21 0.406934 -3.75703 0
M  V30 21981 H 2155.52 0.207798 -7.72521 0
M  V30 21982 H 2153.87 0.193826 -6.9473 0
M  V30 21983 H 2157.06 0.420219 -4.6621 0
M  V30 21984 H 2157.23 0.329639 -6.47161 0
M  V30 21985 N 2150.64 1.54769 0.297388 0
M  V30 21986 C 2151.91 1.64904 1.05195 0
M  V30 21987 C 2152.29 0.499658 2.05102 0
M  V30 21988 O 2151.64 -0.503202 2.2289 0
M  V30 21989 C 2151.85 3.03071 1.73058 0
M  V30 21990 C 2153.2 3.60007 2.25123 0
M  V30 21991 O 2154.22 3.05546 1.83085 0
M  V30 21992 O 2153.08 4.55371 3.02158 0
M  V30 21993 H 2150.18 0.668805 0.486444 0
M  V30 21994 H 2152.72 1.67113 0.295187 0
M  V30 21995 H 2151.49 3.78165 1.00534 0
M  V30 21996 H 2151.12 3.04655 2.55482 0
M  V30 21997 N 2152.11 -0.560755 1.47286 0
M  V30 21998 C 2153.02 -1.69558 1.62133 0
M  V30 21999 C 2154.04 -1.66533 0.50425 0
M  V30 22000 O 2155.22 -1.86045 0.771315 0
M  V30 22001 C 2152.28 -3.06065 1.62865 0
M  V30 22002 C 2151.34 -3.20185 2.85972 0
M  V30 22003 C 2150.57 -4.5018 2.8666 0
M  V30 22004 O 2150.8 -5.35423 1.96669 0
M  V30 22005 O 2149.73 -4.68015 3.78478 0
M  V30 22006 H 2153.56 -1.59976 2.5815 0
M  V30 22007 H 2151.14 -0.730353 1.30331 0
M  V30 22008 H 2153.02 -3.87307 1.66046 0
M  V30 22009 H 2151.7 -3.16037 0.700143 0
M  V30 22010 H 2150.61 -2.38353 2.88337 0
M  V30 22011 H 2151.94 -3.15114 3.78106 0
M  V30 22012 N 2153.59 -1.35359 -0.807199 0
M  V30 22013 C 2154.84 -1.28788 -1.56657 0
M  V30 22014 C 2155.17 0.137625 -1.93712 0
M  V30 22015 O 2154.45 1.08685 -1.61301 0
M  V30 22016 C 2154.73 -2.19379 -2.85561 0
M  V30 22017 C 2154.58 -3.70543 -2.54986 0
M  V30 22018 C 2155.9 -2.0909 -3.87259 0
M  V30 22019 H 2153.02 -0.469169 -0.568374 0
M  V30 22020 H 2155.66 -1.65754 -0.928736 0
M  V30 22021 H 2153.81 -1.87984 -3.39992 0
M  V30 22022 H 2155.48 -4.12377 -2.06743 0
M  V30 22023 H 2153.73 -3.90855 -1.88189 0
M  V30 22024 H 2154.4 -4.29316 -3.46975 0
M  V30 22025 H 2156.87 -2.36687 -3.42226 0
M  V30 22026 H 2155.75 -2.74675 -4.75231 0
M  V30 22027 H 2156.01 -1.07265 -4.2889 0
M  V30 22028 N 2155.07 1.02928 -1.19346 0
M  V30 22029 C 2156.49 1.28572 -0.945592 0
M  V30 22030 C 2156.69 1.97841 0.382273 0
M  V30 22031 O 2155.74 2.26603 1.11388 0
M  V30 22032 C 2157.05 2.13321 -2.11931 0
M  V30 22033 C 2158.6 2.2663 -2.15889 0
M  V30 22034 C 2159.08 3.14751 -3.3271 0
M  V30 22035 N 2160.57 3.22339 -3.32644 0
M  V30 22036 C 2161.3 3.90712 -4.19681 0
M  V30 22037 N 2160.8 4.61319 -5.16872 0
M  V30 22038 N 2162.59 3.87107 -4.07559 0
M  V30 22039 H 2154.74 0.563808 -2.0478 0
M  V30 22040 H 2157.01 0.311375 -0.895405 0
M  V30 22041 H 2156.71 1.69745 -3.08025 0
M  V30 22042 H 2156.59 3.14032 -2.08959 0
M  V30 22043 H 2158.97 2.69437 -1.20365 0
M  V30 22044 H 2159.05 1.25471 -2.22914 0
M  V30 22045 H 2158.7 2.72652 -4.28513 0
M  V30 22046 H 2158.63 4.15968 -3.22921 0
M  V30 22047 H 2161.12 2.72052 -2.6229 0
M  V30 22048 H 2161.43 5.1112 -5.79634 0
M  V30 22049 H 2159.78 4.60185 -5.20821 0
M  V30 22050 H 2162.97 3.31086 -3.30908 0
M  V30 22051 H 2163.14 4.40119 -4.75604 0
M  V30 22052 N 2156.55 0.997319 1.2203 0
M  V30 22053 C 2157.96 0.708807 1.42997 0
M  V30 22054 C 2158.16 -0.718903 1.88239 0
M  V30 22055 O 2157.22 -1.48925 2.03906 0
M  V30 22056 C 2158.53 1.71814 2.4678 0
M  V30 22057 C 2160.08 1.73408 2.60573 0
M  V30 22058 C 2160.56 2.73216 3.67582 0
M  V30 22059 N 2162.05 2.71837 3.75045 0
M  V30 22060 C 2162.78 3.45728 4.57449 0
M  V30 22061 N 2162.28 4.29233 5.43811 0
M  V30 22062 N 2164.07 3.34413 4.51801 0
M  V30 22063 H 2156.22 1.91932 0.909709 0
M  V30 22064 H 2158.48 0.828004 0.461642 0
M  V30 22065 H 2158.19 2.74 2.20492 0
M  V30 22066 H 2158.06 1.51457 3.45457 0
M  V30 22067 H 2160.45 0.719178 2.86202 0
M  V30 22068 H 2160.53 1.97835 1.62157 0
M  V30 22069 H 2160.18 3.74859 3.427 0
M  V30 22070 H 2160.11 2.46058 4.65578 0
M  V30 22071 H 2162.6 2.11248 3.13341 0
M  V30 22072 H 2162.91 4.82429 6.03723 0
M  V30 22073 H 2161.26 4.33319 5.43378 0
M  V30 22074 H 2164.45 2.68614 3.83359 0
M  V30 22075 H 2164.62 3.92257 5.15789 0
M  V30 22076 N 2158.03 -1.37449 0.771075 0
M  V30 22077 C 2158.97 -2.30278 0.155078 0
M  V30 22078 C 2159.94 -1.51065 -0.690547 0
M  V30 22079 O 2161.13 -1.79637 -0.643049 0
M  V30 22080 C 2158.27 -3.37536 -0.718578 0
M  V30 22081 C 2157.38 -4.31761 0.143579 0
M  V30 22082 C 2156.52 -5.26094 -0.734719 0
M  V30 22083 C 2155.56 -6.11962 0.130013 0
M  V30 22084 N 2154.69 -6.98539 -0.706225 0
M  V30 22085 H 2159.53 -2.82377 0.952224 0
M  V30 22086 H 2157.07 -1.39008 0.481177 0
M  V30 22087 H 2159.03 -3.98349 -1.23991 0
M  V30 22088 H 2157.66 -2.86804 -1.48133 0
M  V30 22089 H 2156.71 -3.7226 0.782718 0
M  V30 22090 H 2158.02 -4.92169 0.81064 0
M  V30 22091 H 2157.18 -5.92109 -1.32257 0
M  V30 22092 H 2155.91 -4.66096 -1.43546 0
M  V30 22093 H 2154.92 -5.44927 0.730399 0
M  V30 22094 H 2156.14 -6.74032 0.82808 0
M  V30 22095 H 2154.09 -6.4107 -1.3916 0
M  V30 22096 H 2154.01 -7.55938 -0.0964474 0
M  V30 22097 H 2155.28 -7.68944 -1.27849 0
M  V30 22098 N 2159.5 -0.52156 -1.4872 0
M  V30 22099 C 2160.45 0.2458 -2.29487 0
M  V30 22100 C 2161.42 0.941571 -1.36834 0
M  V30 22101 O 2162.61 0.944239 -1.65797 0
M  V30 22102 C 2159.75 1.2919 -3.20006 0
M  V30 22103 C 2158.86 0.605827 -4.27731 0
M  V30 22104 C 2157.99 1.63413 -5.0544 0
M  V30 22105 C 2157.03 0.931058 -6.04977 0
M  V30 22106 N 2156.17 1.90451 -6.75776 0
M  V30 22107 H 2161.01 -0.449151 -2.94596 0
M  V30 22108 H 2158.55 -0.233338 -1.45238 0
M  V30 22109 H 2160.51 1.91062 -3.70879 0
M  V30 22110 H 2159.14 1.95534 -2.56839 0
M  V30 22111 H 2158.19 -0.126644 -3.80189 0
M  V30 22112 H 2159.5 0.0533786 -4.98771 0
M  V30 22113 H 2158.65 2.32736 -5.60285 0
M  V30 22114 H 2157.39 2.22047 -4.3422 0
M  V30 22115 H 2156.4 0.223716 -5.49345 0
M  V30 22116 H 2157.62 0.350949 -6.78193 0
M  V30 22117 H 2155.57 2.48008 -6.07312 0
M  V30 22118 H 2155.49 1.40328 -7.42862 0
M  V30 22119 H 2156.75 2.58999 -7.35214 0
M  V30 22120 N 2160.98 1.55502 -0.256304 0
M  V30 22121 C 2161.95 2.20485 0.626014 0
M  V30 22122 C 2162.95 1.17694 1.09566 0
M  V30 22123 O 2164.14 1.42718 0.998856 0
M  V30 22124 C 2161.27 2.85589 1.86149 0
M  V30 22125 H 2162.46 2.99842 0.0589124 0
M  V30 22126 H 2160.01 1.56299 -0.0068064 0
M  V30 22127 H 2160.75 2.10195 2.46959 0
M  V30 22128 H 2160.53 3.60896 1.53285 0
M  V30 22129 H 2162.02 3.35293 2.48935 0
M  V30 22130 N 2162.46 -0.0166879 1.57591 0
M  V30 22131 C 2163.71 -0.706033 1.90113 0
M  V30 22132 C 2164.04 -1.74339 0.855541 0
M  V30 22133 O 2163.31 -1.94079 -0.127874 0
M  V30 22134 C 2163.6 -1.36436 3.33253 0
M  V30 22135 C 2163.45 -0.339675 4.48516 0
M  V30 22136 C 2164.77 -2.29505 3.7552 0
M  V30 22137 H 2161.89 -0.255199 0.691406 0
M  V30 22138 H 2164.53 0.0311796 1.89974 0
M  V30 22139 H 2162.68 -1.99271 3.33501 0
M  V30 22140 H 2164.35 0.287715 4.60402 0
M  V30 22141 H 2162.6 0.339799 4.32467 0
M  V30 22142 H 2163.27 -0.839026 5.45586 0
M  V30 22143 H 2165.74 -1.76702 3.76717 0
M  V30 22144 H 2164.62 -2.72542 4.76458 0
M  V30 22145 H 2164.88 -3.16708 3.08461 0
M  V30 22146 N 2163.94 -1.54924 -0.289176 0
M  V30 22147 C 2165.17 -1.78513 -1.04003 0
M  V30 22148 C 2165.58 -0.550557 -1.81012 0
M  V30 22149 O 2164.92 0.489519 -1.77058 0
M  V30 22150 C 2164.98 -2.9476 -2.05808 0
M  V30 22151 C 2164.65 -4.32411 -1.47886 0
M  V30 22152 C 2165.64 -5.12002 -0.902795 0
M  V30 22153 C 2163.33 -4.79037 -1.51092 0
M  V30 22154 C 2165.32 -6.36345 -0.366511 0
M  V30 22155 C 2163.01 -6.0334 -0.970774 0
M  V30 22156 C 2164.01 -6.8183 -0.39955 0
M  V30 22157 O 2163.69 -8.03791 0.132375 0
M  V30 22158 H 2163.43 -0.598816 -0.31368 0
M  V30 22159 H 2165.98 -2.02726 -0.330347 0
M  V30 22160 H 2164.21 -2.66199 -2.8049 0
M  V30 22161 H 2165.9 -3.05817 -2.6689 0
M  V30 22162 H 2166.67 -4.77118 -0.870835 0
M  V30 22163 H 2162.54 -4.17964 -1.94493 0
M  V30 22164 H 2166.09 -6.97554 0.0799946 0
M  V30 22165 H 2161.99 -6.37708 -0.99992 0
M  V30 22166 H 2162.75 -8.18498 0.0201954 0
M  V30 22167 N 2165.42 0.552936 -1.47582 0
M  V30 22168 C 2166.36 1.65963 -1.60389 0
M  V30 22169 C 2167.33 1.59979 -0.446754 0
M  V30 22170 O 2168.52 1.78749 -0.667351 0
M  V30 22171 C 2165.66 3.04278 -1.62815 0
M  V30 22172 C 2164.77 3.20668 -2.89476 0
M  V30 22173 C 2163.91 4.49406 -2.8321 0
M  V30 22174 C 2162.95 4.59243 -4.04676 0
M  V30 22175 N 2162.08 5.79341 -3.96621 0
M  V30 22176 H 2166.92 1.54355 -2.54909 0
M  V30 22177 H 2164.46 0.751844 -1.26435 0
M  V30 22178 H 2166.42 3.84377 -1.62204 0
M  V30 22179 H 2165.05 3.14712 -0.718048 0
M  V30 22180 H 2164.1 2.33973 -2.99935 0
M  V30 22181 H 2165.41 3.238 -3.79414 0
M  V30 22182 H 2164.57 5.3777 -2.80872 0
M  V30 22183 H 2163.3 4.4876 -1.90961 0
M  V30 22184 H 2162.31 3.69291 -4.07314 0
M  V30 22185 H 2163.53 4.61645 -4.98057 0
M  V30 22186 H 2161.48 5.79636 -3.07178 0
M  V30 22187 H 2161.4 5.8387 -4.80242 0
M  V30 22188 H 2162.67 6.70054 -3.98306 0
M  V30 22189 N 2166.89 1.35785 0.800009 0
M  V30 22190 C 2167.84 1.29246 1.91217 0
M  V30 22191 C 2168.81 0.16314 1.65297 0
M  V30 22192 O 2170 0.347924 1.87601 0
M  V30 22193 C 2167.14 1.07697 3.27865 0
M  V30 22194 C 2166.25 2.2961 3.65928 0
M  V30 22195 C 2165.38 2.01158 4.91639 0
M  V30 22196 C 2164.42 3.19089 5.22349 0
M  V30 22197 N 2163.56 2.90371 6.39241 0
M  V30 22198 H 2168.4 2.24348 1.96142 0
M  V30 22199 H 2165.94 1.11515 0.959316 0
M  V30 22200 H 2167.9 0.93233 4.06649 0
M  V30 22201 H 2166.53 0.162546 3.2239 0
M  V30 22202 H 2165.58 2.54915 2.82351 0
M  V30 22203 H 2166.89 3.1765 3.84578 0
M  V30 22204 H 2166.04 1.83563 5.78264 0
M  V30 22205 H 2164.78 1.10413 4.75037 0
M  V30 22206 H 2163.79 3.37255 4.34211 0
M  V30 22207 H 2165.01 4.10645 5.40877 0
M  V30 22208 H 2162.96 2.02227 6.24052 0
M  V30 22209 H 2162.88 3.71946 6.58173 0
M  V30 22210 H 2164.14 2.76331 7.28877 0
M  V30 22211 N 2168.37 -1.02294 1.19891 0
M  V30 22212 C 2169.34 -2.08864 0.943854 0
M  V30 22213 C 2170.34 -1.6061 -0.0780656 0
M  V30 22214 O 2171.53 -1.73488 0.157319 0
M  V30 22215 C 2168.66 -3.38306 0.419714 0
M  V30 22216 H 2169.85 -2.32924 1.88909 0
M  V30 22217 H 2167.4 -1.18996 1.01339 0
M  V30 22218 H 2168.14 -3.19918 -0.531286 0
M  V30 22219 H 2167.92 -3.74653 1.15661 0
M  V30 22220 H 2169.41 -4.16786 0.26055 0
M  V30 22221 N 2169.85 -1.00378 -1.21499 0
M  V30 22222 C 2170.76 -0.572425 -2.27509 0
M  V30 22223 C 2171.78 0.383982 -1.6971 0
M  V30 22224 O 2172.95 0.248119 -1.99866 0
M  V30 22225 C 2170.02 0.0953686 -3.46569 0
M  V30 22226 C 2169.08 -0.905366 -4.19645 0
M  V30 22227 C 2168.31 -0.269345 -5.3302 0
M  V30 22228 O 2168.53 0.934144 -5.62699 0
M  V30 22229 O 2167.47 -0.979662 -5.93874 0
M  V30 22230 H 2171.29 -1.45465 -2.66596 0
M  V30 22231 H 2168.88 -0.772585 -1.27873 0
M  V30 22232 H 2170.76 0.468934 -4.18783 0
M  V30 22233 H 2169.44 0.951993 -3.09385 0
M  V30 22234 H 2168.34 -1.33007 -3.49657 0
M  V30 22235 H 2169.68 -1.73154 -4.60737 0
M  V30 22236 N 2171.33 1.37038 -0.778354 0
M  V30 22237 C 2172.26 2.3278 -0.183215 0
M  V30 22238 C 2173.24 1.56107 0.675623 0
M  V30 22239 O 2174.42 1.84314 0.611726 0
M  V30 22240 C 2171.55 3.40346 0.691526 0
M  V30 22241 C 2170.51 4.27948 -0.0665313 0
M  V30 22242 C 2169.83 5.26584 0.928085 0
M  V30 22243 C 2171.13 5.07137 -1.24936 0
M  V30 22244 H 2172.83 2.82801 -0.983049 0
M  V30 22245 H 2170.37 1.35969 -0.474169 0
M  V30 22246 H 2172.33 4.06306 1.11773 0
M  V30 22247 H 2171.05 2.88866 1.52395 0
M  V30 22248 H 2169.71 3.63528 -0.473586 0
M  V30 22249 H 2169.36 4.71381 1.75524 0
M  V30 22250 H 2169.06 5.86058 0.425371 0
M  V30 22251 H 2170.58 5.95419 1.35309 0
M  V30 22252 H 2172 5.662 -0.899476 0
M  V30 22253 H 2170.39 5.7597 -1.68461 0
M  V30 22254 H 2171.46 4.39425 -2.05021 0
M  V30 22255 N 2172.81 0.529439 1.48441 0
M  V30 22256 C 2173.77 -0.222884 2.28114 0
M  V30 22257 C 2174.77 -0.868268 1.35343 0
M  V30 22258 O 2175.96 -0.728402 1.5824 0
M  V30 22259 C 2173.09 -1.3225 3.14202 0
M  V30 22260 H 2174.29 0.476616 2.96088 0
M  V30 22261 H 2171.84 0.28536 1.53673 0
M  V30 22262 H 2172.57 -2.05527 2.50857 0
M  V30 22263 H 2172.36 -0.864853 3.82443 0
M  V30 22264 H 2173.85 -1.85168 3.74303 0
M  V30 22265 N 2174.29 -1.55364 0.264547 0
M  V30 22266 C 2175.23 -2.22106 -0.62749 0
M  V30 22267 C 2176.2 -1.1909 -1.15788 0
M  V30 22268 O 2177.39 -1.47597 -1.20912 0
M  V30 22269 C 2174.53 -2.93783 -1.81068 0
M  V30 22270 C 2173.64 -4.11495 -1.31515 0
M  V30 22271 C 2172.78 -4.70842 -2.45929 0
M  V30 22272 C 2171.81 -5.80768 -1.93326 0
M  V30 22273 N 2170.95 -6.34223 -3.01173 0
M  V30 22274 H 2175.79 -2.97955 -0.0516766 0
M  V30 22275 H 2173.33 -1.47094 -0.0137419 0
M  V30 22276 H 2175.29 -3.33549 -2.50601 0
M  V30 22277 H 2173.92 -2.20376 -2.35869 0
M  V30 22278 H 2172.97 -3.76921 -0.513271 0
M  V30 22279 H 2174.28 -4.908 -0.88977 0
M  V30 22280 H 2173.43 -5.13274 -3.23474 0
M  V30 22281 H 2172.17 -3.90791 -2.91777 0
M  V30 22282 H 2171.18 -5.37797 -1.14257 0
M  V30 22283 H 2172.4 -6.62681 -1.48426 0
M  V30 22284 H 2170.35 -5.5707 -3.46423 0
M  V30 22285 H 2170.27 -7.08771 -2.63021 0
M  V30 22286 H 2171.53 -6.81313 -3.78725 0
M  V30 22287 N 2175.76 0.00833021 -1.57598 0
M  V30 22288 C 2176.71 1.00242 -2.07895 0
M  V30 22289 C 2177.68 1.34651 -0.972534 0
M  V30 22290 O 2178.87 1.44632 -1.24444 0
M  V30 22291 C 2176.01 2.2918 -2.58013 0
M  V30 22292 C 2175.12 2.00747 -3.82524 0
M  V30 22293 C 2174.25 3.23706 -4.21175 0
M  V30 22294 C 2173.29 2.90921 -5.38546 0
M  V30 22295 N 2172.43 4.06392 -5.72529 0
M  V30 22296 H 2177.27 0.566561 -2.92565 0
M  V30 22297 H 2174.81 0.268106 -1.44636 0
M  V30 22298 H 2176.76 3.04546 -2.85145 0
M  V30 22299 H 2175.39 2.7045 -1.76229 0
M  V30 22300 H 2174.45 1.15786 -3.6235 0
M  V30 22301 H 2175.76 1.72576 -4.67995 0
M  V30 22302 H 2174.91 4.07424 -4.49545 0
M  V30 22303 H 2173.65 3.55007 -3.34397 0
M  V30 22304 H 2172.66 2.05609 -5.09907 0
M  V30 22305 H 2173.88 2.60875 -6.26993 0
M  V30 22306 H 2171.83 4.37606 -4.88709 0
M  V30 22307 H 2171.74 3.81717 -6.52555 0
M  V30 22308 H 2173.01 4.90923 -6.05487 0
M  V30 22309 N 2177.24 1.55075 0.280956 0
M  V30 22310 C 2178.47 1.79322 1.03205 0
M  V30 22311 C 2178.88 0.56257 1.80224 0
M  V30 22312 O 2178.24 -0.468172 1.76393 0
M  V30 22313 C 2178.29 3.01341 1.99689 0
M  V30 22314 O 2178.01 4.19652 1.25792 0
M  V30 22315 C 2179.51 3.38131 2.86675 0
M  V30 22316 H 2176.73 0.597563 0.30522 0
M  V30 22317 H 2179.28 2.02073 0.31415 0
M  V30 22318 H 2177.43 2.8074 2.66953 0
M  V30 22319 H 2177.85 4.88582 1.90757 0
M  V30 22320 H 2179.32 4.267 3.50188 0
M  V30 22321 H 2179.8 2.57177 3.56029 0
M  V30 22322 H 2180.4 3.60962 2.24914 0
M  V30 22323 N 2178.72 -0.545102 1.47873 0
M  V30 22324 C 2179.63 -1.67829 1.63922 0
M  V30 22325 C 2180.65 -1.65989 0.521885 0
M  V30 22326 O 2181.82 -1.85216 0.791005 0
M  V30 22327 C 2178.89 -3.0432 1.66102 0
M  V30 22328 C 2177.95 -3.17134 2.89352 0
M  V30 22329 C 2177.18 -4.47114 2.91419 0
M  V30 22330 O 2177.4 -5.33307 2.02337 0
M  V30 22331 O 2176.34 -4.63974 3.83421 0
M  V30 22332 H 2180.16 -1.57229 2.59832 0
M  V30 22333 H 2177.75 -0.716489 1.31098 0
M  V30 22334 H 2179.63 -3.85524 1.70145 0
M  V30 22335 H 2178.31 -3.15277 0.733623 0
M  V30 22336 H 2177.21 -2.35282 2.90849 0
M  V30 22337 H 2178.55 -3.11086 3.81426 0
M  V30 22338 N 2180.2 -1.36208 -0.792797 0
M  V30 22339 C 2181.44 -1.30442 -1.55282 0
M  V30 22340 C 2181.78 0.117071 -1.93847 0
M  V30 22341 O 2181.05 1.06968 -1.62444 0
M  V30 22342 C 2181.33 -2.22396 -2.83218 0
M  V30 22343 C 2181.19 -3.73227 -2.51042 0
M  V30 22344 C 2182.51 -2.13185 -3.85019 0
M  V30 22345 H 2179.63 -0.475171 -0.563366 0
M  V30 22346 H 2182.27 -1.6673 -0.911103 0
M  V30 22347 H 2180.42 -1.9158 -3.37979 0
M  V30 22348 H 2182.09 -4.14547 -2.02358 0
M  V30 22349 H 2180.33 -3.92829 -1.84033 0
M  V30 22350 H 2181 -4.32972 -3.42402 0
M  V30 22351 H 2183.48 -2.40303 -3.39696 0
M  V30 22352 H 2182.36 -2.797 -4.72291 0
M  V30 22353 H 2182.62 -1.11808 -4.27728 0
M  V30 22354 N 2181.68 1.01656 -1.20431 0
M  V30 22355 C 2182.61 2.10319 -0.910955 0
M  V30 22356 C 2183.62 1.62485 0.1013 0
M  V30 22357 O 2184.81 1.78028 -0.129719 0
M  V30 22358 C 2181.91 3.37148 -0.344189 0
M  V30 22359 C 2181.08 4.14119 -1.40799 0
M  V30 22360 C 2180.14 5.19248 -0.852542 0
M  V30 22361 O 2179.17 5.48161 -1.53324 0
M  V30 22362 N 2180.37 5.79515 0.338032 0
M  V30 22363 H 2183.13 2.36073 -1.84634 0
M  V30 22364 H 2180.7 1.18047 -1.10799 0
M  V30 22365 H 2182.69 4.04679 0.0415379 0
M  V30 22366 H 2181.26 3.08644 0.495757 0
M  V30 22367 H 2180.48 3.41557 -1.96805 0
M  V30 22368 H 2181.77 4.62326 -2.12444 0
M  V30 22369 H 2181.16 5.5836 0.908322 0
M  V30 22370 H 2179.72 6.48395 0.665396 0
M  V30 22371 N 2183.15 1.01021 1.20965 0
M  V30 22372 C 2184.12 0.579903 2.21743 0
M  V30 22373 C 2185.12 -0.34653 1.57022 0
M  V30 22374 O 2186.31 -0.136099 1.73668 0
M  V30 22375 C 2183.44 -0.154061 3.40552 0
M  V30 22376 H 2184.63 1.47135 2.61326 0
M  V30 22377 H 2182.18 0.79929 1.34317 0
M  V30 22378 H 2182.92 -1.06071 3.06463 0
M  V30 22379 H 2182.7 0.511376 3.88751 0
M  V30 22380 H 2184.19 -0.44269 4.15247 0
M  V30 22381 N 2184.63 -1.36623 0.78561 0
M  V30 22382 C 2185.58 -2.27475 0.154576 0
M  V30 22383 C 2186.57 -1.46775 -0.659246 0
M  V30 22384 O 2187.76 -1.69191 -0.519944 0
M  V30 22385 C 2184.89 -3.35819 -0.712793 0
M  V30 22386 C 2183.97 -4.23958 0.109612 0
M  V30 22387 N 2184.36 -4.92266 1.16221 0
M  V30 22388 C 2182.66 -4.45859 -0.112163 0
M  V30 22389 C 2183.36 -5.57436 1.66254 0
M  V30 22390 N 2182.34 -5.34832 0.972395 0
M  V30 22391 H 2186.14 -2.77769 0.960279 0
M  V30 22392 H 2183.65 -1.49904 0.624702 0
M  V30 22393 H 2185.65 -3.9983 -1.18075 0
M  V30 22394 H 2184.31 -2.87079 -1.51708 0
M  V30 22395 H 2185.32 -4.94331 1.54459 0
M  V30 22396 H 2182 -4.07963 -0.887264 0
M  V30 22397 H 2183.39 -6.21995 2.54111 0
M  V30 22398 N 2186.11 -0.537304 -1.48158 0
M  V30 22399 C 2187.33 -0.00809879 -2.07398 0
M  V30 22400 C 2187.76 1.26708 -1.39021 0
M  V30 22401 O 2187.12 1.75405 -0.458551 0
M  V30 22402 C 2187.17 0.191371 -3.60092 0
M  V30 22403 O 2186.27 1.25844 -3.9273 0
M  V30 22404 H 2185.61 -0.042404 -0.662645 0
M  V30 22405 H 2188.14 -0.747308 -1.90464 0
M  V30 22406 H 2188.15 0.411766 -4.05917 0
M  V30 22407 H 2186.83 -0.740103 -4.09262 0
M  V30 22408 H 2185.4 1.02012 -3.58675 0
M  V30 22409 N 2187.59 1.55221 -0.272782 0
M  V30 22410 C 2189 1.85334 0.225428 0
M  V30 22411 C 2189.35 1.19479 1.55625 0
M  V30 22412 O 2188.48 0.482291 2.10957 0
M  V30 22413 C 2189.07 3.36239 0.415804 0
M  V30 22414 C 2187.63 3.66485 0.858249 0
M  V30 22415 C 2186.78 2.77255 -0.0498039 0
M  V30 22416 H 2189.73 1.50795 -0.494637 0
M  V30 22417 H 2189.75 3.59218 1.2547 0
M  V30 22418 H 2189.26 3.84141 -0.552945 0
M  V30 22419 H 2187.36 3.2408 1.83855 0
M  V30 22420 H 2187.47 4.74 0.697187 0
M  V30 22421 H 2185.84 2.50399 0.466105 0
M  V30 22422 H 2186.62 3.27971 -1.01439 0
M  V30 22423 N 2189.07 2.77022e-05 1.576 0
M  V30 22424 C 2190.29 -0.699433 1.9525 0
M  V30 22425 C 2190.72 -1.66511 0.874964 0
M  V30 22426 O 2190.07 -1.8053 -0.166897 0
M  V30 22427 C 2190.12 -1.4075 3.31996 0
M  V30 22428 O 2189.23 -2.52192 3.26302 0
M  V30 22429 H 2188.57 -0.18604 0.637405 0
M  V30 22430 H 2191.1 0.053226 2.04531 0
M  V30 22431 H 2191.11 -1.77092 3.67563 0
M  V30 22432 H 2189.78 -0.699458 4.09976 0
M  V30 22433 H 2188.36 -2.18177 3.02412 0
M  V30 22434 N 2190.54 -1.55222 -0.272728 0
M  V30 22435 C 2191.96 -1.47068 -0.619933 0
M  V30 22436 C 2192.16 -0.685012 -1.89499 0
M  V30 22437 O 2191.22 -0.203975 -2.51675 0
M  V30 22438 C 2192.53 -2.91283 -0.746642 0
M  V30 22439 C 2194.08 -3.01499 -0.840678 0
M  V30 22440 C 2194.55 -4.46968 -0.999161 0
M  V30 22441 N 2196.04 -4.50798 -1.06468 0
M  V30 22442 C 2196.78 -5.60572 -1.20611 0
M  V30 22443 N 2196.27 -6.80211 -1.31471 0
M  V30 22444 N 2198.07 -5.48315 -1.23723 0
M  V30 22445 H 2190.22 -2.04757 0.564642 0
M  V30 22446 H 2192.48 -0.92852 0.191194 0
M  V30 22447 H 2192.19 -3.51496 0.119815 0
M  V30 22448 H 2192.06 -3.40314 -1.62684 0
M  V30 22449 H 2194.45 -2.41382 -1.6976 0
M  V30 22450 H 2194.53 -2.5572 0.0641323 0
M  V30 22451 H 2194.17 -5.07688 -0.146895 0
M  V30 22452 H 2194.1 -4.90404 -1.91862 0
M  V30 22453 H 2196.59 -3.64617 -0.993132 0
M  V30 22454 H 2196.91 -7.59624 -1.42098 0
M  V30 22455 H 2195.25 -6.83022 -1.28475 0
M  V30 22456 H 2198.44 -4.53787 -1.14869 0
M  V30 22457 H 2198.62 -6.33909 -1.34401 0
M  V30 22458 N 2192.02 0.537252 -1.4816 0
M  V30 22459 C 2192.97 1.64253 -1.62141 0
M  V30 22460 C 2193.94 1.59496 -0.463696 0
M  V30 22461 O 2195.12 1.78031 -0.686272 0
M  V30 22462 C 2192.26 3.02534 -1.66033 0
M  V30 22463 C 2191.38 3.17579 -2.9286 0
M  V30 22464 C 2190.51 4.46377 -2.8796 0
M  V30 22465 C 2189.55 4.54925 -4.09524 0
M  V30 22466 N 2188.69 5.75102 -4.02743 0
M  V30 22467 H 2193.53 1.51643 -2.56532 0
M  V30 22468 H 2191.07 0.738391 -1.27225 0
M  V30 22469 H 2193.02 3.82635 -1.66272 0
M  V30 22470 H 2191.65 3.13933 -0.751387 0
M  V30 22471 H 2190.71 2.30779 -3.02399 0
M  V30 22472 H 2192.02 3.19757 -3.82827 0
M  V30 22473 H 2191.17 5.3476 -2.8656 0
M  V30 22474 H 2189.91 4.46709 -1.9571 0
M  V30 22475 H 2188.92 3.6495 -4.11208 0
M  V30 22476 H 2190.14 4.56337 -5.02925 0
M  V30 22477 H 2188.09 5.76345 -3.13309 0
M  V30 22478 H 2188 5.78743 -4.86408 0
M  V30 22479 H 2189.27 6.65792 -4.0539 0
M  V30 22480 N 2193.5 1.36626 0.785562 0
M  V30 22481 C 2194.75 1.3107 1.5436 0
M  V30 22482 C 2195.08 -0.108896 1.94195 0
M  V30 22483 O 2194.33 -1.07905 1.63264 0
M  V30 22484 C 2194.63 2.18275 2.83003 0
M  V30 22485 C 2194.3 3.66765 2.62287 0
M  V30 22486 C 2192.96 4.07235 2.56346 0
M  V30 22487 C 2195.31 4.60895 2.43363 0
M  V30 22488 C 2192.64 5.39971 2.29451 0
M  V30 22489 C 2194.99 5.93853 2.17994 0
M  V30 22490 C 2193.65 6.33444 2.10489 0
M  V30 22491 H 2192.92 0.479619 0.564842 0
M  V30 22492 H 2195.57 1.68713 0.905999 0
M  V30 22493 H 2193.88 1.73582 3.5125 0
M  V30 22494 H 2195.57 2.11298 3.40814 0
M  V30 22495 H 2192.16 3.34661 2.67769 0
M  V30 22496 H 2196.35 4.30498 2.46952 0
M  V30 22497 H 2191.6 5.69623 2.22125 0
M  V30 22498 H 2195.78 6.66355 2.02347 0
M  V30 22499 H 2193.4 7.36225 1.89412 0
M  V30 22500 N 2194.98 -1.01016 1.20969 0
M  V30 22501 C 2196.23 -1.74126 1.01799 0
M  V30 22502 C 2196.54 -1.90361 -0.449657 0
M  V30 22503 O 2197.75 -2.60627 -0.760634 0
M  V30 22504 C 2196.2 -3.13211 1.77276 0
M  V30 22505 C 2195.81 -3.04967 3.28176 0
M  V30 22506 C 2197.55 -3.90486 1.66496 0
M  V30 22507 C 2195.46 -4.391 3.96164 0
M  V30 22508 H 2194.39 -0.652817 0.377288 0
M  V30 22509 H 2197.04 -1.12906 1.44653 0
M  V30 22510 H 2195.42 -3.75011 1.27211 0
M  V30 22511 H 2196.6 -2.52436 3.85503 0
M  V30 22512 H 2194.91 -2.41182 3.39441 0
M  V30 22513 H 2197.51 -4.89734 2.14626 0
M  V30 22514 H 2197.85 -4.11623 0.622272 0
M  V30 22515 H 2198.39 -3.35328 2.14009 0
M  V30 22516 H 2195.13 -4.23165 5.00611 0
M  V30 22517 H 2194.65 -4.91611 3.43625 0
M  V30 22518 H 2196.32 -5.07919 4.00783 0
M  V30 22519 N 2196.46 -1.01661 -1.20428 0
M  V30 22520 C 2197.39 -0.607265 -2.25465 0
M  V30 22521 C 2198.37 0.377687 -1.65854 0
M  V30 22522 O 2199.55 0.263115 -1.92409 0
M  V30 22523 C 2196.68 0.0552339 -3.47256 0
M  V30 22524 C 2195.64 -0.850705 -4.1946 0
M  V30 22525 C 2194.96 -0.0539799 -5.34673 0
M  V30 22526 C 2196.26 -2.15876 -4.75599 0
M  V30 22527 H 2197.96 -1.48531 -2.5996 0
M  V30 22528 H 2195.5 -0.715627 -1.24959 0
M  V30 22529 H 2197.46 0.353159 -4.19918 0
M  V30 22530 H 2196.18 0.967991 -3.11925 0
M  V30 22531 H 2194.84 -1.13263 -3.48665 0
M  V30 22532 H 2194.49 0.860427 -4.95586 0
M  V30 22533 H 2194.19 -0.657295 -5.83912 0
M  V30 22534 H 2195.71 0.237491 -6.10138 0
M  V30 22535 H 2197.12 -1.9232 -5.40079 0
M  V30 22536 H 2195.52 -2.71293 -5.35276 0
M  V30 22537 H 2196.59 -2.82176 -3.94341 0
M  V30 22538 N 2197.93 1.36205 -0.792844 0
M  V30 22539 C 2198.88 2.30003 -0.191693 0
M  V30 22540 C 2199.85 1.52145 0.666426 0
M  V30 22541 O 2201.04 1.80638 0.614388 0
M  V30 22542 C 2198.18 3.38636 0.664788 0
M  V30 22543 C 2197.29 4.31478 -0.212251 0
M  V30 22544 C 2196.42 5.27197 0.650929 0
M  V30 22545 C 2195.46 6.11678 -0.227354 0
M  V30 22546 N 2194.6 6.99574 0.595004 0
M  V30 22547 H 2199.44 2.80826 -0.997027 0
M  V30 22548 H 2196.98 1.38224 -0.503231 0
M  V30 22549 H 2198.94 4.00271 1.17638 0
M  V30 22550 H 2197.57 2.89124 1.43552 0
M  V30 22551 H 2196.62 3.70968 -0.841842 0
M  V30 22552 H 2197.93 4.90817 -0.888837 0
M  V30 22553 H 2197.08 5.94138 1.2282 0
M  V30 22554 H 2195.82 4.68321 1.36113 0
M  V30 22555 H 2194.83 5.43696 -0.817 0
M  V30 22556 H 2196.05 6.7263 -0.935208 0
M  V30 22557 H 2194 6.43203 1.28943 0
M  V30 22558 H 2193.92 7.55996 -0.0238281 0
M  V30 22559 H 2195.18 7.70881 1.15599 0
M  V30 22560 N 2199.41 0.545154 1.47871 0
M  V30 22561 C 2200.82 0.108613 1.86384 0
M  V30 22562 C 2201.17 -1.3183 1.45311 0
M  V30 22563 O 2200.3 -1.98979 0.850676 0
M  V30 22564 C 2200.89 0.190333 3.38265 0
M  V30 22565 C 2199.45 -0.191098 3.75915 0
M  V30 22566 C 2198.6 0.543321 2.71925 0
M  V30 22567 H 2201.55 0.755562 1.3956 0
M  V30 22568 H 2201.57 -0.594151 3.75833 0
M  V30 22569 H 2201.08 1.22896 3.68128 0
M  V30 22570 H 2199.19 -1.2313 3.51667 0
M  V30 22571 H 2199.3 0.159071 4.78836 0
M  V30 22572 H 2197.66 -0.0122047 2.54697 0
M  V30 22573 H 2198.45 1.58288 3.04631 0
M  V30 22574 N 2200.89 -1.55074 0.28101 0
M  V30 22575 C 2201.85 -2.21453 -0.590858 0
M  V30 22576 C 2202.85 -1.19423 -1.07679 0
M  V30 22577 O 2204.04 -1.44289 -0.976025 0
M  V30 22578 C 2201.18 -2.88515 -1.81582 0
M  V30 22579 H 2202.37 -2.99898 -0.0112027 0
M  V30 22580 H 2199.92 -1.56268 0.0316713 0
M  V30 22581 H 2200.66 -2.14097 -2.43584 0
M  V30 22582 H 2200.44 -3.63289 -1.47524 0
M  V30 22583 H 2201.93 -3.39211 -2.43569 0
M  V30 22584 N 2202.37 -0.00838561 -1.57598 0
M  V30 22585 C 2203.62 0.673935 -1.90108 0
M  V30 22586 C 2203.93 1.74469 -0.884306 0
M  V30 22587 O 2205.14 2.48222 -1.09992 0
M  V30 22588 C 2203.59 1.24989 -3.37499 0
M  V30 22589 C 2203.2 0.213522 -4.47491 0
M  V30 22590 C 2204.95 1.90992 -3.79107 0
M  V30 22591 C 2202.85 0.799947 -5.85965 0
M  V30 22592 H 2201.78 0.255482 -0.709398 0
M  V30 22593 H 2204.43 -0.0703015 -1.83365 0
M  V30 22594 H 2202.82 2.04507 -3.39106 0
M  V30 22595 H 2203.99 -0.557676 -4.57413 0
M  V30 22596 H 2202.3 -0.346547 -4.14955 0
M  V30 22597 H 2204.9 2.35787 -4.79905 0
M  V30 22598 H 2205.24 2.74401 -3.13065 0
M  V30 22599 H 2205.78 1.18196 -3.79835 0
M  V30 22600 H 2202.52 0.00445186 -6.555 0
M  V30 22601 H 2202.04 1.54011 -5.7969 0
M  V30 22602 H 2203.72 1.29604 -6.33886 0
M  V30 22603 N 2203.85 1.55365 0.264492 0
M  V30 22604 C 2204.79 1.88827 1.32714 0
M  V30 22605 C 2205.76 0.740631 1.48674 0
M  V30 22606 O 2206.95 0.992686 1.62943 0
M  V30 22607 C 2204.09 2.17311 2.68086 0
M  V30 22608 C 2203.2 3.44789 2.60278 0
M  V30 22609 C 2202.34 3.6293 3.87885 0
M  V30 22610 C 2201.38 4.84071 3.74623 0
M  V30 22611 N 2200.51 4.98825 4.94083 0
M  V30 22612 H 2205.35 2.79458 1.03477 0
M  V30 22613 H 2202.89 1.38351 0.499733 0
M  V30 22614 H 2204.85 2.31827 3.4686 0
M  V30 22615 H 2203.48 1.29906 2.95507 0
M  V30 22616 H 2202.53 3.387 1.73167 0
M  V30 22617 H 2203.84 4.33703 2.46381 0
M  V30 22618 H 2203 3.7731 4.75102 0
M  V30 22619 H 2201.74 2.72217 4.04659 0
M  V30 22620 H 2200.74 4.69686 2.85789 0
M  V30 22621 H 2201.97 5.76227 3.5936 0
M  V30 22622 H 2199.91 4.11045 5.11252 0
M  V30 22623 H 2199.83 5.81798 4.8275 0
M  V30 22624 H 2201.1 5.17598 5.82848 0
M  V30 22625 N 2205.33 -0.529387 1.48443 0
M  V30 22626 C 2206.56 -1.30801 1.59921 0
M  V30 22627 C 2206.96 -1.87421 0.258825 0
M  V30 22628 O 2206.31 -1.67147 -0.762066 0
M  V30 22629 C 2206.37 -2.49632 2.58697 0
M  V30 22630 C 2206.03 -2.14094 4.03748 0
M  V30 22631 C 2207.03 -1.69732 4.91413 0
M  V30 22632 C 2204.71 -2.24599 4.49289 0
M  V30 22633 C 2206.71 -1.3634 6.22648 0
M  V30 22634 C 2204.4 -1.90819 5.80544 0
M  V30 22635 C 2205.39 -1.46761 6.67046 0
M  V30 22636 O 2205.08 -1.13426 7.95858 0
M  V30 22637 H 2204.81 -0.404011 0.541988 0
M  V30 22638 H 2207.37 -0.645274 1.95001 0
M  V30 22639 H 2205.6 -3.18889 2.1874 0
M  V30 22640 H 2207.29 -3.11693 2.60004 0
M  V30 22641 H 2208.05 -1.61086 4.57467 0
M  V30 22642 H 2203.93 -2.57847 3.82146 0
M  V30 22643 H 2207.48 -1.01879 6.90121 0
M  V30 22644 H 2203.37 -1.99107 6.14025 0
M  V30 22645 H 2204.14 -1.26818 8.08616 0
M  V30 22646 N 2206.8 -1.37041 -0.778305 0
M  V30 22647 C 2208.03 -1.35066 -1.56731 0
M  V30 22648 C 2208.45 0.0655266 -1.88686 0
M  V30 22649 O 2207.8 1.02552 -1.50962 0
M  V30 22650 C 2207.85 -2.18281 -2.88159 0
M  V30 22651 O 2207.58 -3.54381 -2.57577 0
M  V30 22652 C 2209.08 -2.24212 -3.82418 0
M  V30 22653 H 2206.3 -0.462891 -0.48577 0
M  V30 22654 H 2208.84 -1.80292 -0.965154 0
M  V30 22655 H 2207 -1.76582 -3.44815 0
M  V30 22656 H 2207.41 -3.97928 -3.41692 0
M  V30 22657 H 2208.88 -2.86774 -4.71662 0
M  V30 22658 H 2209.36 -1.24869 -4.21075 0
M  V30 22659 H 2209.97 -2.66196 -3.31693 0
M  V30 22660 N 2208.28 1.00373 -1.21503 0
M  V30 22661 C 2209.7 1.26537 -0.972652 0
M  V30 22662 C 2209.9 1.98607 0.340222 0
M  V30 22663 O 2208.95 2.28915 1.06557 0
M  V30 22664 C 2210.27 2.08778 -2.16408 0
M  V30 22665 C 2211.81 2.22 -2.20647 0
M  V30 22666 C 2212.29 3.07623 -3.39312 0
M  V30 22667 N 2213.78 3.15211 -3.39406 0
M  V30 22668 C 2214.52 3.81722 -4.27874 0
M  V30 22669 N 2214.01 4.50251 -5.26541 0
M  V30 22670 N 2215.8 3.78375 -4.15679 0
M  V30 22671 H 2207.96 0.520244 -2.0593 0
M  V30 22672 H 2210.22 0.292312 -0.901808 0
M  V30 22673 H 2209.92 1.63173 -3.11557 0
M  V30 22674 H 2209.8 3.09529 -2.15573 0
M  V30 22675 H 2212.19 2.66823 -1.26053 0
M  V30 22676 H 2212.27 1.20714 -2.25525 0
M  V30 22677 H 2211.91 2.63502 -4.342 0
M  V30 22678 H 2211.84 4.09025 -3.31672 0
M  V30 22679 H 2214.33 2.66428 -2.68001 0
M  V30 22680 H 2214.64 4.9871 -5.90346 0
M  V30 22681 H 2212.99 4.49034 -5.30465 0
M  V30 22682 H 2216.18 3.23992 -3.37856 0
M  V30 22683 H 2216.35 4.29932 -4.84833 0
M  V30 22684 N 2209.76 1.02298 1.19887 0
M  V30 22685 C 2211.17 0.746598 1.71122 0
M  V30 22686 C 2211.52 -0.734303 1.81941 0
M  V30 22687 O 2210.65 -1.57272 1.48642 0
M  V30 22688 C 2211.24 1.34862 3.10802 0
M  V30 22689 C 2209.8 1.12096 3.59321 0
M  V30 22690 C 2208.95 1.45035 2.36347 0
M  V30 22691 H 2211.9 1.19165 1.04811 0
M  V30 22692 H 2211.92 0.742503 3.73185 0
M  V30 22693 H 2211.43 2.42643 3.02896 0
M  V30 22694 H 2209.53 0.0610992 3.7255 0
M  V30 22695 H 2209.65 1.80551 4.43777 0
M  V30 22696 H 2208.01 0.869529 2.39398 0
M  V30 22697 H 2208.79 2.53887 2.31076 0
M  V30 22698 N 2211.24 -1.35782 0.800057 0
M  V30 22699 C 2212.47 -2.03198 0.389642 0
M  V30 22700 C 2212.88 -1.60307 -0.997347 0
M  V30 22701 O 2212.24 -0.79751 -1.64152 0
M  V30 22702 C 2212.29 -3.58613 0.455918 0
M  V30 22703 O 2212.01 -3.99943 1.78822 0
M  V30 22704 C 2213.51 -4.43284 0.0374812 0
M  V30 22705 H 2210.73 -0.651855 0.159143 0
M  V30 22706 H 2213.27 -1.7354 1.08186 0
M  V30 22707 H 2211.43 -3.86944 -0.187989 0
M  V30 22708 H 2211.84 -4.9457 1.74645 0
M  V30 22709 H 2213.32 -5.51835 0.134979 0
M  V30 22710 H 2213.79 -4.27277 -1.01643 0
M  V30 22711 H 2214.4 -4.20237 0.654289 0
M  V30 22712 N 2212.72 -0.552988 -1.4758 0
M  V30 22713 C 2213.67 0.217383 -2.26961 0
M  V30 22714 C 2214.65 0.889144 -1.34101 0
M  V30 22715 O 2215.84 0.788148 -1.58484 0
M  V30 22716 C 2212.97 1.24939 -3.19758 0
M  V30 22717 C 2212.06 0.581254 -4.20098 0
M  V30 22718 N 2212.45 -0.34626 -5.04613 0
M  V30 22719 C 2210.75 0.83569 -4.38101 0
M  V30 22720 C 2211.45 -0.733956 -5.77051 0
M  V30 22721 N 2210.42 -0.0897522 -5.43526 0
M  V30 22722 H 2214.22 -0.495812 -2.89688 0
M  V30 22723 H 2211.74 -0.372625 -1.58067 0
M  V30 22724 H 2213.74 1.81521 -3.75308 0
M  V30 22725 H 2212.4 1.96372 -2.58589 0
M  V30 22726 H 2213.41 -0.720188 -5.12868 0
M  V30 22727 H 2210.08 1.53885 -3.88105 0
M  V30 22728 H 2211.47 -1.49585 -6.55037 0
M  V30 22729 N 2214.19 1.54923 -0.28923 0
M  V30 22730 C 2215.12 2.26041 0.58545 0
M  V30 22731 C 2216.1 1.25564 1.14751 0
M  V30 22732 O 2217.29 1.54313 1.17903 0
M  V30 22733 C 2214.42 2.99225 1.763 0
M  V30 22734 C 2213.37 4.06751 1.33184 0
M  V30 22735 C 2212.7 4.67585 2.59362 0
M  V30 22736 C 2214 5.20166 0.471684 0
M  V30 22737 H 2215.69 2.99399 -0.00768794 0
M  V30 22738 H 2213.24 1.43999 -0.0051376 0
M  V30 22739 H 2215.19 3.47694 2.38091 0
M  V30 22740 H 2213.92 2.23426 2.38219 0
M  V30 22741 H 2212.58 3.59114 0.737058 0
M  V30 22742 H 2212.22 3.88438 3.1957 0
M  V30 22743 H 2211.92 5.40196 2.31219 0
M  V30 22744 H 2213.45 5.1881 3.21976 0
M  V30 22745 H 2214.86 5.646 0.994956 0
M  V30 22746 H 2213.26 5.99425 0.284534 0
M  V30 22747 H 2214.33 4.82251 -0.506126 0
M  V30 22748 N 2215.67 0.0167433 1.57591 0
M  V30 22749 C 2216.9 -0.678685 1.95981 0
M  V30 22750 C 2217.32 -1.65574 0.892575 0
M  V30 22751 O 2216.68 -1.80697 -0.14774 0
M  V30 22752 C 2216.73 -1.37221 3.33471 0
M  V30 22753 O 2215.83 -2.48717 3.28959 0
M  V30 22754 H 2215.17 -0.179269 0.639342 0
M  V30 22755 H 2217.7 0.0749162 2.04463 0
M  V30 22756 H 2217.71 -1.73184 3.6942 0
M  V30 22757 H 2216.39 -0.655935 4.10695 0
M  V30 22758 H 2214.96 -2.14958 3.04709 0
M  V30 22759 N 2217.15 -1.55503 -0.256249 0
M  V30 22760 C 2218.39 -1.78656 -0.993049 0
M  V30 22761 C 2218.75 -0.584756 -1.82879 0
M  V30 22762 O 2219.96 -0.694868 -2.59663 0
M  V30 22763 C 2218.23 -3.06486 -1.8385 0
M  V30 22764 S 2219.79 -3.50824 -2.63567 0
M  V30 22765 H 2216.6 -0.627566 -0.334188 0
M  V30 22766 H 2219.21 -1.93739 -0.261806 0
M  V30 22767 H 2217.91 -3.92031 -1.21407 0
M  V30 22768 H 2217.44 -2.94115 -2.61266 0
M  V30 22769 H 2219.46 -3.11419 -3.86306 0
M  V30 22770 N 2218.63 0.521507 -1.48721 0
M  V30 22771 C 2219.87 1.27876 -1.57403 0
M  V30 22772 C 2220.21 1.92573 -0.25085 0
M  V30 22773 O 2219.48 1.79712 0.743902 0
M  V30 22774 C 2219.77 2.36159 -2.71847 0
M  V30 22775 C 2219.62 1.76098 -4.13896 0
M  V30 22776 C 2220.94 3.3787 -2.82014 0
M  V30 22777 H 2218.06 0.463571 -0.572949 0
M  V30 22778 H 2220.7 0.580088 -1.80928 0
M  V30 22779 H 2218.85 2.95752 -2.51919 0
M  V30 22780 H 2220.52 1.20491 -4.45286 0
M  V30 22781 H 2218.76 1.06594 -4.205 0
M  V30 22782 H 2219.43 2.54541 -4.89809 0
M  V30 22783 H 2221.91 2.88244 -3.00091 0
M  V30 22784 H 2220.79 4.11021 -3.63803 0
M  V30 22785 H 2221.05 3.98943 -1.90518 0
M  V30 22786 N 2220.11 1.37452 0.771027 0
M  V30 22787 C 2221.05 1.33273 1.88433 0
M  V30 22788 C 2222.02 0.198165 1.64914 0
M  V30 22789 O 2223.21 0.387639 1.86821 0
M  V30 22790 C 2220.35 1.14627 3.25507 0
M  V30 22791 C 2219.46 2.3732 3.60975 0
M  V30 22792 C 2218.6 2.11541 4.87261 0
M  V30 22793 C 2217.64 3.30097 5.15463 0
M  V30 22794 N 2216.77 3.03864 6.32938 0
M  V30 22795 H 2221.61 2.28458 1.9134 0
M  V30 22796 H 2219.15 1.13525 0.935446 0
M  V30 22797 H 2221.11 1.01838 4.0458 0
M  V30 22798 H 2219.74 0.230893 3.21973 0
M  V30 22799 H 2218.79 2.60847 2.76881 0
M  V30 22800 H 2220.1 3.25736 3.77754 0
M  V30 22801 H 2219.26 1.95787 5.74241 0
M  V30 22802 H 2217.99 1.20465 4.72588 0
M  V30 22803 H 2217 3.46389 4.26959 0
M  V30 22804 H 2218.22 4.22025 5.32045 0
M  V30 22805 H 2216.17 2.15418 6.19622 0
M  V30 22806 H 2216.09 3.85823 6.50136 0
M  V30 22807 H 2217.36 2.91729 7.22852 0
M  V30 22808 N 2221.58 -0.997276 1.22033 0
M  V30 22809 C 2223 -1.2602 0.979348 0
M  V30 22810 C 2223.2 -1.98785 -0.329685 0
M  V30 22811 O 2222.26 -2.29477 -1.05341 0
M  V30 22812 C 2223.57 -2.07627 2.17512 0
M  V30 22813 C 2225.12 -2.20826 2.21821 0
M  V30 22814 C 2225.59 -3.05819 3.40938 0
M  V30 22815 N 2227.08 -3.13406 3.41073 0
M  V30 22816 C 2227.82 -3.79447 4.29892 0
M  V30 22817 N 2227.31 -4.47453 5.28922 0
M  V30 22818 N 2229.11 -3.76165 4.17679 0
M  V30 22819 H 2221.26 -0.509316 2.06203 0
M  V30 22820 H 2223.52 -0.287525 0.903346 0
M  V30 22821 H 2223.23 -1.61518 3.12418 0
M  V30 22822 H 2223.1 -3.08381 2.17211 0
M  V30 22823 H 2225.49 -2.66151 1.27466 0
M  V30 22824 H 2225.57 -1.19516 2.26162 0
M  V30 22825 H 2225.21 -2.61195 4.35591 0
M  V30 22826 H 2225.14 -4.0726 3.33836 0
M  V30 22827 H 2227.63 -2.65003 2.6941 0
M  V30 22828 H 2227.95 -4.95572 5.92982 0
M  V30 22829 H 2226.29 -4.46215 5.32839 0
M  V30 22830 H 2229.48 -3.22196 3.3957 0
M  V30 22831 H 2229.66 -4.27355 4.87106 0
M  V30 22832 N 2223.06 -1.02932 -1.19343 0
M  V30 22833 C 2224.01 -0.610503 -2.22579 0
M  V30 22834 C 2224.98 0.375917 -1.6179 0
M  V30 22835 O 2226.16 0.272478 -1.88844 0
M  V30 22836 C 2223.3 0.0320867 -3.45085 0
M  V30 22837 C 2222.42 -1.00043 -4.20256 0
M  V30 22838 C 2221.55 -0.327553 -5.30189 0
M  V30 22839 C 2220.59 -1.34595 -5.97119 0
M  V30 22840 N 2219.73 -0.698849 -6.98613 0
M  V30 22841 H 2224.57 -1.49542 -2.57762 0
M  V30 22842 H 2222.11 -0.748333 -1.26643 0
M  V30 22843 H 2224.06 0.421893 -4.15061 0
M  V30 22844 H 2222.69 0.880585 -3.10557 0
M  V30 22845 H 2221.75 -1.50829 -3.4922 0
M  V30 22846 H 2223.06 -1.77441 -4.66172 0
M  V30 22847 H 2222.21 0.117073 -6.06587 0
M  V30 22848 H 2220.95 0.478627 -4.85346 0
M  V30 22849 H 2219.96 -1.80083 -5.19471 0
M  V30 22850 H 2221.18 -2.15363 -6.44046 0
M  V30 22851 H 2219.13 0.0872318 -6.55942 0
M  V30 22852 H 2219.04 -1.41071 -7.42721 0
M  V30 22853 H 2220.31 -0.278239 -7.79003 0
M  V30 22854 N 2224.54 1.35356 -0.807246 0
M  V30 22855 C 2225.77 2.02988 -0.400413 0
M  V30 22856 C 2226.18 1.60834 0.988831 0
M  V30 22857 O 2225.54 0.806204 1.63727 0
M  V30 22858 C 2225.59 3.58367 -0.47493 0
M  V30 22859 O 2225.31 3.98989 -1.8094 0
M  V30 22860 C 2226.81 4.43258 -0.0609891 0
M  V30 22861 H 2224.03 0.651001 -0.162598 0
M  V30 22862 H 2226.58 1.72963 -1.09105 0
M  V30 22863 H 2224.73 3.87038 0.167466 0
M  V30 22864 H 2225.15 4.93637 -1.77265 0
M  V30 22865 H 2226.62 5.51756 -0.164242 0
M  V30 22866 H 2227.1 4.2781 0.993756 0
M  V30 22867 H 2227.7 4.19884 -0.676566 0
M  V30 22868 N 2226.02 0.560807 1.47284 0
M  V30 22869 C 2227.25 0.0430626 2.06855 0
M  V30 22870 C 2227.66 -1.25226 1.41293 0
M  V30 22871 O 2227.02 -1.75209 0.510679 0
M  V30 22872 C 2227.07 -0.152455 3.61178 0
M  V30 22873 O 2226.79 1.09158 4.24283 0
M  V30 22874 C 2228.29 -0.707068 4.37625 0
M  V30 22875 H 2225.51 0.047477 0.669318 0
M  V30 22876 H 2228.06 0.775243 1.89236 0
M  V30 22877 H 2226.21 -0.834777 3.78299 0
M  V30 22878 H 2226.62 0.891573 5.16867 0
M  V30 22879 H 2228.1 -0.793148 5.46272 0
M  V30 22880 H 2228.58 -1.71916 4.04155 0
M  V30 22881 H 2229.18 -0.0603279 4.25257 0
M  V30 22882 N 2227.5 -1.54768 0.297442 0
M  V30 22883 C 2228.46 -2.22067 -0.567336 0
M  V30 22884 C 2229.46 -1.20558 -1.06407 0
M  V30 22885 O 2230.65 -1.45316 -0.960666 0
M  V30 22886 C 2227.78 -2.90424 -1.78512 0
M  V30 22887 H 2228.97 -2.99893 0.0206061 0
M  V30 22888 H 2226.53 -1.56226 0.0482438 0
M  V30 22889 H 2227.26 -2.16668 -2.41299 0
M  V30 22890 H 2227.05 -3.64834 -1.43663 0
M  V30 22891 H 2228.54 -3.41775 -2.39958 0
M  V30 22892 N 2228.97 -0.0251005 -1.5758 0
M  V30 22893 C 2229.94 0.943102 -2.08898 0
M  V30 22894 C 2230.94 1.25666 -1.00323 0
M  V30 22895 O 2232.13 1.19767 -1.26498 0
M  V30 22896 C 2229.26 2.26081 -2.55147 0
M  V30 22897 H 2230.45 0.498723 -2.95724 0
M  V30 22898 H 2228.01 0.22286 -1.54703 0
M  V30 22899 H 2228.74 2.75156 -1.71638 0
M  V30 22900 H 2228.53 2.04636 -3.34465 0
M  V30 22901 H 2230.02 2.95487 -2.95089 0
M  V30 22902 N 2230.45 1.55637 0.247999 0
M  V30 22903 C 2231.7 1.77066 0.974264 0
M  V30 22904 C 2232.02 0.588882 1.85896 0
M  V30 22905 O 2231.29 -0.395373 1.91869 0
M  V30 22906 H 2229.87 0.653025 0.362722 0
M  V30 22907 H 2232.53 1.93073 0.26621 0
M  V30 22908 H 2231.63 2.68168 1.59662 0
M  V30 22909 N 2231.93 -0.513613 1.48996 0
M  V30 22910 C 2233.18 -1.26601 1.57533 0
M  V30 22911 C 2233.5 -1.93282 0.25827 0
M  V30 22912 O 2232.77 -1.82131 -0.72147 0
M  V30 22913 H 2231.35 -0.470266 0.580396 0
M  V30 22914 H 2234.01 -0.596341 1.85553 0
M  V30 22915 H 2233.11 -2.03664 2.36489 0
M  V30 22916 N 2233.41 -1.37859 -0.763727 0
M  V30 22917 C 2234.32 -1.36481 -1.90814 0
M  V30 22918 C 2235.34 -0.263278 -1.71997 0
M  V30 22919 O 2236.51 -0.500013 -1.95094 0
M  V30 22920 C 2233.58 -1.1787 -3.26048 0
M  V30 22921 C 2232.64 -2.37736 -3.57463 0
M  V30 22922 C 2231.87 -2.20003 -4.86245 0
M  V30 22923 O 2232.09 -1.18846 -5.57882 0
M  V30 22924 O 2231.03 -3.0837 -5.16906 0
M  V30 22925 H 2234.85 -2.32887 -1.94929 0
M  V30 22926 H 2232.44 -1.18672 -0.907598 0
M  V30 22927 H 2234.32 -1.09511 -4.06922 0
M  V30 22928 H 2233 -0.245429 -3.22768 0
M  V30 22929 H 2231.9 -2.51668 -2.76792 0
M  V30 22930 H 2233.24 -3.29658 -3.65494 0
M  V30 22931 N 2234.89 0.990791 -1.22561 0
M  V30 22932 C 2236.11 1.77144 -1.07865 0
M  V30 22933 C 2236.54 1.84497 0.366414 0
M  V30 22934 O 2235.9 1.29898 1.26476 0
M  V30 22935 C 2235.94 3.18178 -1.69691 0
M  V30 22936 O 2235.05 4.01261 -0.952017 0
M  V30 22937 H 2234.39 0.545404 -0.378722 0
M  V30 22938 H 2236.92 1.24447 -1.62401 0
M  V30 22939 H 2236.93 3.68799 -1.74502 0
M  V30 22940 H 2235.6 3.12141 -2.74847 0
M  V30 22941 H 2234.18 3.5979 -0.980075 0
M  V30 22942 N 2236.37 1.03564 1.18795 0
M  V30 22943 C 2237.33 0.626808 2.20463 0
M  V30 22944 C 2238.33 -0.313146 1.57721 0
M  V30 22945 O 2239.52 -0.099231 1.73917 0
M  V30 22946 C 2236.65 -0.0817899 3.40802 0
M  V30 22947 H 2237.84 1.52645 2.58147 0
M  V30 22948 H 2235.4 0.827601 1.32591 0
M  V30 22949 H 2236.13 -0.995464 3.08644 0
M  V30 22950 H 2235.92 0.59372 3.87579 0
M  V30 22951 H 2237.41 -0.35451 4.16093 0
M  V30 22952 N 2237.84 -1.34926 0.814413 0
M  V30 22953 C 2238.77 -2.32213 0.244868 0
M  V30 22954 C 2239.75 -1.57843 -0.633996 0
M  V30 22955 O 2240.94 -1.85871 -0.562644 0
M  V30 22956 C 2238.07 -3.4206 -0.601046 0
M  V30 22957 C 2237.02 -4.27621 0.179971 0
M  V30 22958 C 2236.35 -5.2886 -0.788144 0
M  V30 22959 C 2237.65 -5.03647 1.38338 0
M  V30 22960 H 2239.34 -2.80095 1.05768 0
M  V30 22961 H 2236.89 -1.34664 0.510052 0
M  V30 22962 H 2238.84 -4.09127 -1.00961 0
M  V30 22963 H 2237.57 -2.92805 -1.44683 0
M  V30 22964 H 2236.23 -3.62145 0.569803 0
M  V30 22965 H 2235.87 -4.75869 -1.62964 0
M  V30 22966 H 2235.57 -5.8698 -0.269839 0
M  V30 22967 H 2237.1 -5.98797 -1.19475 0
M  V30 22968 H 2238.51 -5.63616 1.04928 0
M  V30 22969 H 2236.91 -5.71301 1.83672 0
M  V30 22970 H 2237.98 -4.33835 2.166 0
M  V30 22971 N 2239.32 -0.56861 -1.46985 0
M  V30 22972 C 2240.28 0.162326 -2.28624 0
M  V30 22973 C 2241.28 0.832078 -1.37598 0
M  V30 22974 O 2242.47 0.686192 -1.60116 0
M  V30 22975 C 2239.61 1.23873 -3.17598 0
M  V30 22976 H 2240.8 -0.554951 -2.94721 0
M  V30 22977 H 2238.35 -0.326003 -1.52862 0
M  V30 22978 H 2239.09 1.98804 -2.56218 0
M  V30 22979 H 2238.87 0.763151 -3.84602 0
M  V30 22980 H 2240.36 1.75178 -3.79081 0
M  V30 22981 N 2240.8 1.54608 -0.305646 0
M  V30 22982 C 2242.21 1.85771 0.186065 0
M  V30 22983 C 2242.56 1.22753 1.53056 0
M  V30 22984 O 2241.69 0.526929 2.09887 0
M  V30 22985 C 2242.28 3.37045 0.34439 0
M  V30 22986 C 2240.84 3.68223 0.780319 0
M  V30 22987 C 2239.99 2.77087 -0.108603 0
M  V30 22988 H 2242.94 1.49712 -0.526512 0
M  V30 22989 H 2242.96 3.61799 1.17822 0
M  V30 22990 H 2242.47 3.82881 -0.634302 0
M  V30 22991 H 2240.57 3.27907 1.7694 0
M  V30 22992 H 2240.69 4.75372 0.596488 0
M  V30 22993 H 2239.05 2.51331 0.412887 0
M  V30 22994 H 2239.83 3.25745 -1.08373 0
M  V30 22995 N 2242.28 0.033457 1.57564 0
M  V30 22996 C 2243.5 -0.657861 1.9669 0
M  V30 22997 C 2243.93 -1.64618 0.910086 0
M  V30 22998 O 2243.29 -1.80844 -0.128566 0
M  V30 22999 C 2243.33 -1.33677 3.34907 0
M  V30 23000 O 2242.44 -2.45213 3.31578 0
M  V30 23001 H 2241.78 -0.172478 0.641208 0
M  V30 23002 H 2244.31 0.096598 2.04372 0
M  V30 23003 H 2244.32 -1.69256 3.71236 0
M  V30 23004 H 2242.99 -0.612339 4.11368 0
M  V30 23005 H 2241.57 -2.11714 3.06972 0
M  V30 23006 N 2243.76 -1.55766 -0.239741 0
M  V30 23007 C 2245 -1.78196 -0.968202 0
M  V30 23008 C 2245.33 -0.599971 -1.847 0
M  V30 23009 O 2244.61 0.401491 -1.90311 0
M  V30 23010 C 2244.89 -3.10567 -1.82264 0
M  V30 23011 C 2244.75 -4.39182 -0.971555 0
M  V30 23012 C 2246.06 -3.39226 -2.80382 0
M  V30 23013 H 2243.18 -0.648287 -0.350561 0
M  V30 23014 H 2245.83 -1.88501 -0.238226 0
M  V30 23015 H 2243.98 -3.01913 -2.44501 0
M  V30 23016 H 2245.65 -4.59835 -0.367327 0
M  V30 23017 H 2243.89 -4.3292 -0.2762 0
M  V30 23018 H 2244.56 -5.28201 -1.60337 0
M  V30 23019 H 2247.04 -3.47889 -2.28281 0
M  V30 23020 H 2245.91 -4.3305 -3.37282 0
M  V30 23021 H 2246.17 -2.60491 -3.57207 0
M  V30 23022 N 2245.23 0.505704 -1.49266 0
M  V30 23023 C 2246.48 1.26012 -1.58515 0
M  V30 23024 C 2246.81 1.9262 -0.269754 0
M  V30 23025 O 2246.06 1.81089 0.741965 0
M  V30 23026 C 2246.36 2.35303 -2.69012 0
M  V30 23027 C 2246.03 1.86185 -4.10665 0
M  V30 23028 C 2244.69 1.72508 -4.49215 0
M  V30 23029 C 2247.04 1.49366 -4.99339 0
M  V30 23030 C 2244.37 1.20384 -5.74216 0
M  V30 23031 C 2246.72 0.986962 -6.24853 0
M  V30 23032 C 2245.39 0.836553 -6.62237 0
M  V30 23033 H 2244.66 0.461112 -0.580049 0
M  V30 23034 H 2247.3 0.561633 -1.83079 0
M  V30 23035 H 2245.61 3.10921 -2.38401 0
M  V30 23036 H 2247.31 2.93369 -2.73378 0
M  V30 23037 H 2243.9 1.97788 -3.80234 0
M  V30 23038 H 2248.08 1.58782 -4.70215 0
M  V30 23039 H 2243.34 1.07447 -6.01885 0
M  V30 23040 H 2247.51 0.692861 -6.92945 0
M  V30 23041 H 2245.14 0.430474 -7.5898 0
M  V30 23042 N 2246.71 1.38262 0.756405 0
M  V30 23043 C 2247.66 1.35264 1.87009 0
M  V30 23044 C 2248.63 0.215645 1.64694 0
M  V30 23045 O 2249.81 0.407432 1.86399 0
M  V30 23046 C 2246.95 1.18073 3.24273 0
M  V30 23047 C 2246.07 2.41136 3.58438 0
M  V30 23048 C 2245.2 2.16697 4.8499 0
M  V30 23049 C 2244.24 3.35546 5.11933 0
M  V30 23050 N 2243.38 3.10561 6.2968 0
M  V30 23051 H 2248.22 2.30475 1.88906 0
M  V30 23052 H 2245.76 1.1451 0.923353 0
M  V30 23053 H 2247.71 1.06123 4.03477 0
M  V30 23054 H 2246.34 0.26503 3.2171 0
M  V30 23055 H 2245.4 2.63769 2.74099 0
M  V30 23056 H 2246.71 3.29724 3.74278 0
M  V30 23057 H 2245.86 2.01867 5.72132 0
M  V30 23058 H 2244.6 1.25471 4.71284 0
M  V30 23059 H 2243.61 3.50898 4.23262 0
M  V30 23060 H 2244.83 4.27645 5.27539 0
M  V30 23061 H 2242.78 2.21978 6.17302 0
M  V30 23062 H 2242.69 3.92697 6.46007 0
M  V30 23063 H 2243.96 2.99379 7.19717 0
M  V30 23064 N 2248.19 -0.984277 1.23084 0
M  V30 23065 C 2249.12 -2.0783 0.966397 0
M  V30 23066 C 2250.14 -1.62696 -0.0581849 0
M  V30 23067 O 2251.32 -1.77622 0.176875 0
M  V30 23068 C 2248.42 -3.36117 0.433456 0
M  V30 23069 C 2247.6 -4.1024 1.51729 0
M  V30 23070 C 2246.66 -5.16805 0.989912 0
M  V30 23071 O 2245.68 -5.43903 1.67803 0
M  V30 23072 N 2246.88 -5.80207 -0.184265 0
M  V30 23073 H 2249.65 -2.31094 1.90829 0
M  V30 23074 H 2247.21 -1.15068 1.1389 0
M  V30 23075 H 2249.2 -4.04647 0.0657701 0
M  V30 23076 H 2247.77 -3.0985 -0.413752 0
M  V30 23077 H 2246.99 -3.36219 2.05792 0
M  V30 23078 H 2248.28 -4.5653 2.24627 0
M  V30 23079 H 2247.68 -5.60572 -0.759963 0
M  V30 23080 H 2246.24 -6.49931 -0.493252 0
M  V30 23081 N 2249.67 -1.04192 -1.18244 0
M  V30 23082 C 2250.63 -0.638491 -2.20127 0
M  V30 23083 C 2251.63 0.304777 -1.57885 0
M  V30 23084 O 2252.82 0.0900063 -1.73967 0
M  V30 23085 C 2249.95 0.0637152 -3.4084 0
M  V30 23086 H 2251.15 -1.54012 -2.57333 0
M  V30 23087 H 2248.7 -0.834621 -1.32151 0
M  V30 23088 H 2249.43 0.979081 -3.09167 0
M  V30 23089 H 2249.22 -0.614266 -3.87259 0
M  V30 23090 H 2250.71 0.332439 -4.16275 0
M  V30 23091 N 2251.15 1.34492 -0.821557 0
M  V30 23092 C 2252.09 2.29544 -0.240437 0
M  V30 23093 C 2253.06 1.53524 0.634004 0
M  V30 23094 O 2254.25 1.819 0.575934 0
M  V30 23095 C 2251.39 3.3997 0.592809 0
M  V30 23096 C 2250.5 4.30931 -0.303726 0
M  V30 23097 C 2249.64 5.28459 0.538956 0
M  V30 23098 C 2248.68 6.11058 -0.357049 0
M  V30 23099 N 2247.81 7.00679 0.44648 0
M  V30 23100 H 2252.65 2.78648 -1.05637 0
M  V30 23101 H 2250.19 1.37126 -0.532437 0
M  V30 23102 H 2252.15 4.02676 1.09122 0
M  V30 23103 H 2250.78 2.92104 1.37387 0
M  V30 23104 H 2249.83 3.69099 -0.92034 0
M  V30 23105 H 2251.14 4.88821 -0.992747 0
M  V30 23106 H 2250.3 5.9661 1.1019 0
M  V30 23107 H 2249.03 4.71103 1.26149 0
M  V30 23108 H 2248.04 5.41841 -0.932142 0
M  V30 23109 H 2249.26 6.70495 -1.07767 0
M  V30 23110 H 2247.21 6.45793 1.15271 0
M  V30 23111 H 2247.13 7.55776 -0.184181 0
M  V30 23112 H 2248.4 7.73159 0.992216 0
M  V30 23113 N 2252.62 0.576397 1.46681 0
M  V30 23114 C 2253.9 -0.00699999 1.95599 0
M  V30 23115 C 2254.28 -1.46587 1.51906 0
M  V30 23116 O 2253.63 -2.1525 0.766793 0
M  V30 23117 C 2253.84 0.158466 3.4864 0
M  V30 23118 C 2255.19 0.0230186 4.24594 0
M  V30 23119 O 2256.21 0.0869799 3.56094 0
M  V30 23120 O 2255.07 -0.117919 5.46373 0
M  V30 23121 H 2252.16 -0.0533695 0.825276 0
M  V30 23122 H 2254.71 0.644271 1.56994 0
M  V30 23123 H 2253.48 1.17289 3.73308 0
M  V30 23124 H 2253.11 -0.529531 3.94058 0
M  V30 23125 N 2254.1 -1.54444 0.313841 0
M  V30 23126 C 2255.05 -2.2399 -0.556511 0
M  V30 23127 C 2256.02 -1.22713 -1.11941 0
M  V30 23128 O 2257.2 -1.51369 -1.16155 0
M  V30 23129 C 2254.34 -2.99395 -1.7163 0
M  V30 23130 C 2253.46 -4.1547 -1.18357 0
M  V30 23131 C 2252.59 -4.78428 -2.30825 0
M  V30 23132 C 2251.63 -5.86625 -1.74751 0
M  V30 23133 N 2250.77 -6.43484 -2.80844 0
M  V30 23134 H 2255.61 -2.97969 0.0431417 0
M  V30 23135 H 2253.15 -1.47063 0.0330618 0
M  V30 23136 H 2255.1 -3.41353 -2.39862 0
M  V30 23137 H 2253.73 -2.27769 -2.28738 0
M  V30 23138 H 2252.79 -3.78363 -0.393096 0
M  V30 23139 H 2254.1 -4.93382 -0.733176 0
M  V30 23140 H 2253.25 -5.23305 -3.0698 0
M  V30 23141 H 2251.99 -3.99876 -2.79197 0
M  V30 23142 H 2251 -5.41159 -0.9709 0
M  V30 23143 H 2252.22 -6.67068 -1.27269 0
M  V30 23144 H 2250.17 -5.67809 -3.28525 0
M  V30 23145 H 2250.08 -7.1678 -2.40339 0
M  V30 23146 H 2251.35 -6.93017 -3.56857 0
M  V30 23147 N 2255.58 -0.0418125 -1.57545 0
M  V30 23148 C 2256.83 0.634987 -1.92603 0
M  V30 23149 C 2257.16 1.71044 -0.919657 0
M  V30 23150 O 2256.43 1.9442 0.055755 0
M  V30 23151 C 2256.72 1.23973 -3.38087 0
M  V30 23152 C 2256.57 0.172978 -4.49467 0
M  V30 23153 C 2257.89 2.1541 -3.83779 0
M  V30 23154 H 2255.01 0.229362 -0.700401 0
M  V30 23155 H 2257.65 -0.101666 -1.89728 0
M  V30 23156 H 2255.8 1.86756 -3.40667 0
M  V30 23157 H 2257.47 -0.458392 -4.59017 0
M  V30 23158 H 2255.72 -0.500072 -4.30908 0
M  V30 23159 H 2256.39 0.635957 -5.48324 0
M  V30 23160 H 2258.86 1.62599 -3.83016 0
M  V30 23161 H 2257.74 2.5467 -4.86245 0
M  V30 23162 H 2258 3.05042 -3.20003 0
M  V30 23163 N 2257.06 1.55891 0.231477 0
M  V30 23164 C 2258.28 1.82858 0.978657 0
M  V30 23165 C 2258.71 0.620877 1.77558 0
M  V30 23166 O 2258.07 -0.430274 1.7612 0
M  V30 23167 C 2258.11 3.0772 1.87992 0
M  V30 23168 O 2257.22 2.85717 2.97388 0
M  V30 23169 H 2256.56 0.603162 0.277653 0
M  V30 23170 H 2259.09 2.03094 0.247795 0
M  V30 23171 H 2259.1 3.37562 2.29164 0
M  V30 23172 H 2257.77 3.95254 1.2941 0
M  V30 23173 H 2256.35 2.67083 2.60233 0
M  V30 23174 N 2258.54 -0.497781 1.49532 0
M  V30 23175 C 2259.81 -1.25912 1.49685 0
M  V30 23176 C 2260.19 -2.09883 0.226376 0
M  V30 23177 O 2259.54 -2.14367 -0.791152 0
M  V30 23178 C 2259.75 -2.11308 2.77759 0
M  V30 23179 C 2261.1 -2.70389 3.27376 0
M  V30 23180 O 2262.12 -2.21573 2.78898 0
M  V30 23181 O 2260.98 -3.59265 4.11814 0
M  V30 23182 H 2258.08 -0.56995 0.599238 0
M  V30 23183 H 2260.62 -0.511788 1.61799 0
M  V30 23184 H 2259.39 -1.49257 3.61715 0
M  V30 23185 H 2259.02 -2.93228 2.6852 0
M  V30 23186 N 2260.01 -1.38661 -0.749062 0
M  V30 23187 C 2261.26 -1.3485 -1.50532 0
M  V30 23188 C 2261.58 0.0594673 -1.94909 0
M  V30 23189 O 2260.85 1.00803 -1.67975 0
M  V30 23190 H 2259.43 -0.4962 -0.558386 0
M  V30 23191 H 2262.1 -1.73386 -0.890134 0
M  V30 23192 H 2261.19 -2.00223 -2.3941 0
M  V30 23193 N 2261.49 0.977736 -1.23605 0
M  V30 23194 C 2262.74 1.72193 -1.07132 0
M  V30 23195 C 2263.07 1.90234 0.390467 0
M  V30 23196 O 2262.35 1.45655 1.28899 0
M  V30 23197 C 2262.63 3.11864 -1.80037 0
M  V30 23198 C 2262.48 3.01377 -3.33904 0
M  V30 23199 C 2263.8 4.11334 -1.56499 0
M  V30 23200 H 2260.92 0.624992 -0.390582 0
M  V30 23201 H 2263.56 1.13808 -1.52144 0
M  V30 23202 H 2261.71 3.61707 -1.41775 0
M  V30 23203 H 2263.39 2.59036 -3.81704 0
M  V30 23204 H 2261.63 2.3782 -3.628 0
M  V30 23205 H 2262.3 4.00278 -3.80107 0
M  V30 23206 H 2264.78 3.70309 -1.89764 0
M  V30 23207 H 2263.65 5.07148 -2.09982 0
M  V30 23208 H 2263.91 4.39253 -0.500951 0
M  V30 23209 N 2262.97 1.04818 1.1769 0
M  V30 23210 C 2264.2 0.776288 1.91785 0
M  V30 23211 C 2264.61 -0.667546 1.76605 0
M  V30 23212 O 2263.97 -1.45571 1.1007 0
M  V30 23213 C 2264.02 1.14269 3.42965 0
M  V30 23214 O 2263.74 2.52984 3.57674 0
M  V30 23215 C 2265.24 0.896388 4.34143 0
M  V30 23216 H 2262.46 0.28253 0.60862 0
M  V30 23217 H 2265.01 1.39785 1.49266 0
M  V30 23218 H 2263.16 0.565942 3.83244 0
M  V30 23219 H 2263.58 2.67236 4.51315 0
M  V30 23220 H 2265.05 1.20254 5.38742 0
M  V30 23221 H 2265.53 -0.168559 4.38876 0
M  V30 23222 H 2266.13 1.45679 3.99572 0
M  V30 23223 N 2264.45 -1.34055 0.828678 0
M  V30 23224 C 2265.4 -2.29413 0.252607 0
M  V30 23225 C 2266.37 -1.53858 -0.625853 0
M  V30 23226 O 2267.55 -1.82203 -0.56628 0
M  V30 23227 C 2264.69 -3.4028 -0.574771 0
M  V30 23228 C 2263.8 -4.30764 0.326575 0
M  V30 23229 C 2262.94 -5.28737 -0.510923 0
M  V30 23230 C 2261.98 -6.1086 0.38945 0
M  V30 23231 N 2261.12 -7.00906 -0.409315 0
M  V30 23232 H 2265.96 -2.78084 1.07113 0
M  V30 23233 H 2263.49 -1.36842 0.539701 0
M  V30 23234 H 2265.45 -4.03249 -1.06985 0
M  V30 23235 H 2264.08 -2.92828 -1.35836 0
M  V30 23236 H 2263.13 -3.68605 0.939902 0
M  V30 23237 H 2264.44 -4.88288 1.01866 0
M  V30 23238 H 2263.6 -5.97186 -1.07024 0
M  V30 23239 H 2262.34 -4.71765 -1.23648 0
M  V30 23240 H 2261.34 -5.41339 0.960864 0
M  V30 23241 H 2262.57 -6.69914 1.11321 0
M  V30 23242 H 2260.51 -6.46395 -1.11845 0
M  V30 23243 H 2260.43 -7.55667 0.224259 0
M  V30 23244 H 2261.7 -7.73675 -0.9512 0
M  V30 23245 N 2265.93 -0.584167 -1.46374 0
M  V30 23246 C 2267.15 -0.0740769 -2.07268 0
M  V30 23247 C 2267.58 1.22221 -1.42981 0
M  V30 23248 O 2266.94 1.73858 -0.514123 0
M  V30 23249 C 2266.98 0.0767136 -3.60518 0
M  V30 23250 O 2266.09 1.13285 -3.96535 0
M  V30 23251 H 2265.43 -0.0634641 -0.66096 0
M  V30 23252 H 2267.96 -0.807525 -1.8799 0
M  V30 23253 H 2267.97 0.282418 -4.07021 0
M  V30 23254 H 2266.64 -0.869932 -4.067 0
M  V30 23255 H 2265.22 0.905489 -3.61739 0
M  V30 23256 N 2267.41 1.54275 -0.322027 0
M  V30 23257 C 2268.82 1.85957 0.166351 0
M  V30 23258 C 2269.17 1.2437 1.51745 0
M  V30 23259 O 2268.29 0.549161 2.09316 0
M  V30 23260 C 2268.89 3.37391 0.308622 0
M  V30 23261 C 2267.45 3.6903 0.741221 0
M  V30 23262 C 2266.59 2.76956 -0.137985 0
M  V30 23263 H 2269.54 1.49145 -0.542361 0
M  V30 23264 H 2269.57 3.63028 1.13978 0
M  V30 23265 H 2269.08 3.82187 -0.674876 0
M  V30 23266 H 2267.18 3.29765 1.73452 0
M  V30 23267 H 2267.29 4.75978 0.546035 0
M  V30 23268 H 2265.66 2.51755 0.386207 0
M  V30 23269 H 2266.44 3.24578 -1.11822 0
M  V30 23270 N 2268.88 0.0501669 1.5752 0
M  V30 23271 C 2269.79 -0.939789 2.14954 0
M  V30 23272 C 2270.81 -1.34237 1.10708 0
M  V30 23273 O 2271.99 -1.4195 1.42871 0
M  V30 23274 C 2269.05 -2.1966 2.68236 0
M  V30 23275 C 2268.11 -1.85246 3.87276 0
M  V30 23276 C 2267.34 -3.04935 4.38007 0
M  V30 23277 O 2267.57 -4.18274 3.87818 0
M  V30 23278 O 2266.5 -2.86008 5.29607 0
M  V30 23279 H 2270.33 -0.481339 2.99861 0
M  V30 23280 H 2267.91 -0.171673 1.4841 0
M  V30 23281 H 2269.79 -2.93401 3.0248 0
M  V30 23282 H 2268.47 -2.64645 1.864 0
M  V30 23283 H 2267.38 -1.08824 3.57922 0
M  V30 23284 H 2268.71 -1.45061 4.70338 0
M  V30 23285 N 2270.36 -1.56011 -0.223207 0
M  V30 23286 C 2271.31 -1.9228 -1.2766 0
M  V30 23287 C 2272.28 -0.779789 -1.46658 0
M  V30 23288 O 2273.46 -1.03554 -1.60254 0
M  V30 23289 C 2270.6 -2.24343 -2.6223 0
M  V30 23290 C 2269.72 -3.51569 -2.51045 0
M  V30 23291 C 2268.85 -3.73087 -3.78126 0
M  V30 23292 C 2267.89 -4.93833 -3.61657 0
M  V30 23293 N 2267.03 -5.11749 -4.80684 0
M  V30 23294 H 2271.87 -2.82103 -0.960308 0
M  V30 23295 H 2269.4 -1.39628 -0.462876 0
M  V30 23296 H 2271.36 -2.40942 -3.40592 0
M  V30 23297 H 2269.99 -1.37695 -2.91959 0
M  V30 23298 H 2269.04 -3.43172 -1.64126 0
M  V30 23299 H 2270.36 -4.40083 -2.34795 0
M  V30 23300 H 2269.51 -3.89774 -4.64931 0
M  V30 23301 H 2268.25 -2.82851 -3.97299 0
M  V30 23302 H 2267.25 -4.77098 -2.73236 0
M  V30 23303 H 2268.48 -5.85552 -3.43956 0
M  V30 23304 H 2266.43 -4.24455 -5.00174 0
M  V30 23305 H 2266.34 -5.94393 -4.67155 0
M  V30 23306 H 2267.61 -5.3287 -5.6892 0
M  V30 23307 N 2271.84 0.489844 -1.49794 0
M  V30 23308 C 2273.26 0.821998 -1.36804 0
M  V30 23309 C 2273.46 1.97291 -0.409687 0
M  V30 23310 O 2272.51 2.52026 0.154569 0
M  V30 23311 C 2273.82 1.1517 -2.7777 0
M  V30 23312 C 2275.37 1.25926 -2.86551 0
M  V30 23313 C 2275.85 1.6222 -4.28309 0
M  V30 23314 N 2277.34 1.69248 -4.31172 0
M  V30 23315 C 2278.07 1.98798 -5.37836 0
M  V30 23316 N 2277.57 2.26495 -6.5473 0
M  V30 23317 N 2279.36 2.00142 -5.25261 0
M  V30 23318 H 2271.51 -0.268918 -2.10691 0
M  V30 23319 H 2273.78 -0.0577447 -0.94624 0
M  V30 23320 H 2273.48 0.379273 -3.49649 0
M  V30 23321 H 2273.36 2.09248 -3.13839 0
M  V30 23322 H 2275.74 2.02239 -2.14903 0
M  V30 23323 H 2275.82 0.298731 -2.5405 0
M  V30 23324 H 2275.47 0.864534 -5.00488 0
M  V30 23325 H 2275.4 2.59392 -4.58283 0
M  V30 23326 H 2277.89 1.49958 -3.46873 0
M  V30 23327 H 2278.2 2.48263 -7.31837 0
M  V30 23328 H 2276.55 2.23927 -6.57937 0
M  V30 23329 H 2279.74 1.77988 -4.32941 0
M  V30 23330 H 2279.91 2.22837 -6.0848 0
M  V30 23331 N 2273.32 1.39056 0.741698 0
M  V30 23332 C 2274.54 1.39357 1.53605 0
M  V30 23333 C 2274.97 -0.0116574 1.88096 0
M  V30 23334 O 2274.33 -0.996898 1.51432 0
M  V30 23335 C 2274.37 2.26687 2.80438 0
M  V30 23336 O 2273.48 1.69215 3.76085 0
M  V30 23337 H 2272.82 0.474843 0.464134 0
M  V30 23338 H 2275.35 1.82968 0.915633 0
M  V30 23339 H 2275.36 2.40965 3.29241 0
M  V30 23340 H 2274.03 3.28814 2.54665 0
M  V30 23341 H 2272.61 1.64144 3.3483 0
M  V30 23342 N 2274.8 -0.971167 1.24121 0
M  V30 23343 C 2276.02 -1.75405 1.1067 0
M  V30 23344 C 2276.45 -1.85056 -0.337016 0
M  V30 23345 O 2275.8 -1.31894 -1.24393 0
M  V30 23346 C 2275.85 -3.15438 1.74732 0
M  V30 23347 O 2274.96 -3.99696 1.01573 0
M  V30 23348 H 2274.3 -0.53931 0.387351 0
M  V30 23349 H 2276.83 -1.21847 1.6436 0
M  V30 23350 H 2276.84 -3.65976 1.80348 0
M  V30 23351 H 2275.51 -3.07729 2.79778 0
M  V30 23352 H 2274.09 -3.58185 1.03719 0
M  V30 23353 N 2276.27 -1.05441 -1.17133 0
M  V30 23354 C 2277.2 -0.678688 -2.23419 0
M  V30 23355 C 2278.19 0.324731 -1.66972 0
M  V30 23356 O 2279.37 0.201768 -1.93149 0
M  V30 23357 C 2276.5 -0.055271 -3.47256 0
M  V30 23358 C 2275.45 -0.983723 -4.16542 0
M  V30 23359 C 2274.78 -0.224055 -5.3423 0
M  V30 23360 C 2276.08 -2.30898 -4.68491 0
M  V30 23361 H 2277.77 -1.56726 -2.55103 0
M  V30 23362 H 2275.32 -0.755019 -1.22619 0
M  V30 23363 H 2277.27 0.219386 -4.20829 0
M  V30 23364 H 2276 0.868264 -3.14847 0
M  V30 23365 H 2274.66 -1.24299 -3.44885 0
M  V30 23366 H 2274.3 0.702325 -4.98073 0
M  V30 23367 H 2274 -0.842729 -5.81525 0
M  V30 23368 H 2275.53 0.0432598 -6.10585 0
M  V30 23369 H 2276.94 -2.09405 -5.33688 0
M  V30 23370 H 2275.34 -2.88185 -5.26374 0
M  V30 23371 H 2276.41 -2.94579 -3.85164 0
M  V30 23372 N 2277.75 1.33613 -0.835776 0
M  V30 23373 C 2279.16 1.80233 -0.487131 0
M  V30 23374 C 2279.51 1.69181 0.993597 0
M  V30 23375 O 2278.64 1.23927 1.77401 0
M  V30 23376 C 2279.23 3.27241 -0.877442 0
M  V30 23377 C 2277.79 3.71889 -0.580981 0
M  V30 23378 C 2276.94 2.55088 -1.08744 0
M  V30 23379 H 2279.89 1.21179 -1.02476 0
M  V30 23380 H 2279.91 3.80044 -0.186262 0
M  V30 23381 H 2279.42 3.35253 -1.95518 0
M  V30 23382 H 2277.53 3.69406 0.486817 0
M  V30 23383 H 2277.64 4.65485 -1.13405 0
M  V30 23384 H 2276 2.49574 -0.508436 0
M  V30 23385 H 2276.79 2.65864 -2.17189 0
M  V30 23386 N 2279.23 0.591922 1.46062 0
M  V30 23387 C 2280.65 0.254316 1.57561 0
M  V30 23388 C 2280.85 -1.24333 1.58567 0
M  V30 23389 O 2279.9 -2.02556 1.50756 0
M  V30 23390 C 2281.22 0.911662 2.86547 0
M  V30 23391 C 2282.76 0.886112 3.00195 0
M  V30 23392 C 2283.24 1.52317 4.3193 0
M  V30 23393 N 2284.73 1.48794 4.38651 0
M  V30 23394 C 2285.46 1.95016 5.39218 0
M  V30 23395 N 2284.96 2.49253 6.46409 0
M  V30 23396 N 2286.75 1.85877 5.30477 0
M  V30 23397 H 2278.9 1.56454 1.43652 0
M  V30 23398 H 2281.17 0.65449 0.685819 0
M  V30 23399 H 2280.87 1.96556 2.91648 0
M  V30 23400 H 2280.75 0.425434 3.74793 0
M  V30 23401 H 2283.13 -0.159195 2.9467 0
M  V30 23402 H 2283.22 1.41045 2.13401 0
M  V30 23403 H 2282.86 2.56773 4.38213 0
M  V30 23404 H 2282.79 0.973982 5.17514 0
M  V30 23405 H 2285.28 1.09157 3.61792 0
M  V30 23406 H 2285.59 2.82356 7.19371 0
M  V30 23407 H 2283.94 2.53283 6.47204 0
M  V30 23408 H 2287.13 1.43256 4.4564 0
M  V30 23409 H 2287.3 2.22215 6.08707 0
M  V30 23410 N 2280.71 -1.54102 0.330204 0
M  V30 23411 C 2282.12 -1.86043 -0.156487 0
M  V30 23412 C 2282.47 -1.25173 -1.51083 0
M  V30 23413 O 2281.6 -0.560254 -2.09022 0
M  V30 23414 C 2282.19 -3.3755 -0.290725 0
M  V30 23415 C 2280.75 -3.69418 -0.72164 0
M  V30 23416 C 2279.9 -2.76879 0.152671 0
M  V30 23417 H 2282.85 -1.48855 0.550263 0
M  V30 23418 H 2282.87 -3.63627 -1.12051 0
M  V30 23419 H 2282.38 -3.81824 0.695135 0
M  V30 23420 H 2280.48 -3.30681 -1.71701 0
M  V30 23421 H 2280.59 -4.76261 -0.520785 0
M  V30 23422 H 2278.96 -2.51956 -0.37285 0
M  V30 23423 H 2279.74 -3.2398 1.13542 0
M  V30 23424 N 2282.19 -0.0585199 -1.57491 0
M  V30 23425 C 2283.41 0.626486 -1.97712 0
M  V30 23426 C 2283.84 1.63149 -0.93616 0
M  V30 23427 O 2283.19 1.81025 0.0997792 0
M  V30 23428 C 2283.24 1.28332 -3.36992 0
M  V30 23429 O 2282.35 2.39907 -3.35437 0
M  V30 23430 H 2281.69 0.162255 -0.643871 0
M  V30 23431 H 2284.22 -0.1291 -2.04192 0
M  V30 23432 H 2284.23 1.63328 -3.73882 0
M  V30 23433 H 2282.9 0.546816 -4.1229 0
M  V30 23434 H 2281.48 2.06803 -3.10301 0
M  V30 23435 N 2283.66 1.56128 0.21493 0
M  V30 23436 C 2284.89 1.83886 0.959207 0
M  V30 23437 C 2285.31 0.639675 1.76889 0
M  V30 23438 O 2284.67 -0.41157 1.76567 0
M  V30 23439 C 2284.72 3.09696 1.84718 0
M  V30 23440 O 2283.82 2.88855 2.94341 0
M  V30 23441 H 2283.17 0.606073 0.27124 0
M  V30 23442 H 2285.7 2.03345 0.22624 0
M  V30 23443 H 2285.71 3.39973 2.2557 0
M  V30 23444 H 2284.38 3.96605 1.25211 0
M  V30 23445 H 2282.96 2.69828 2.57386 0
M  V30 23446 N 2285.14 -0.481893 1.50052 0
M  V30 23447 C 2286.39 -1.23147 1.59743 0
M  V30 23448 C 2286.7 -1.93314 0.298197 0
M  V30 23449 O 2287.91 -2.70115 0.273883 0
M  V30 23450 C 2286.37 -2.23703 2.8193 0
M  V30 23451 C 2285.97 -1.59389 4.18688 0
M  V30 23452 C 2287.72 -2.9937 3.00962 0
M  V30 23453 C 2285.63 -2.58168 5.32074 0
M  V30 23454 H 2284.56 -0.46333 0.594846 0
M  V30 23455 H 2287.21 -0.503138 1.76467 0
M  V30 23456 H 2285.59 -2.99782 2.58741 0
M  V30 23457 H 2286.76 -0.891732 4.52089 0
M  V30 23458 H 2285.08 -0.960432 4.05172 0
M  V30 23459 H 2287.67 -3.73277 3.82843 0
M  V30 23460 H 2288.02 -3.58119 2.12265 0
M  V30 23461 H 2288.55 -2.30406 3.24281 0
M  V30 23462 H 2285.29 -2.04173 6.22891 0
M  V30 23463 H 2284.81 -3.26568 5.03104 0
M  V30 23464 H 2286.49 -3.20216 5.62202 0
M  V30 23465 N 2286.62 -1.39448 -0.734313 0
M  V30 23466 C 2287.55 -1.40959 -1.86153 0
M  V30 23467 C 2288.53 -0.272857 -1.67897 0
M  V30 23468 O 2289.72 -0.478776 -1.88206 0
M  V30 23469 C 2286.85 -1.25299 -3.23909 0
M  V30 23470 C 2285.8 -2.36379 -3.56804 0
M  V30 23471 C 2285.13 -2.05809 -4.93504 0
M  V30 23472 C 2286.43 -3.78693 -3.59707 0
M  V30 23473 H 2288.12 -2.3529 -1.85146 0
M  V30 23474 H 2285.67 -1.13255 -0.889347 0
M  V30 23475 H 2287.62 -1.24977 -4.02441 0
M  V30 23476 H 2286.34 -0.274366 -3.25446 0
M  V30 23477 H 2285 -2.35919 -2.80602 0
M  V30 23478 H 2284.65 -1.06383 -4.91622 0
M  V30 23479 H 2284.35 -2.80217 -5.16481 0
M  V30 23480 H 2285.87 -2.07138 -5.74392 0
M  V30 23481 H 2287.29 -3.81078 -4.28313 0
M  V30 23482 H 2285.69 -4.52466 -3.94201 0
M  V30 23483 H 2286.76 -4.09621 -2.59496 0
M  V30 23484 N 2288.1 0.964571 -1.24635 0
M  V30 23485 C 2289.51 1.52258 -1.08048 0
M  V30 23486 C 2289.86 1.93106 0.347082 0
M  V30 23487 O 2288.99 1.77639 1.23585 0
M  V30 23488 C 2289.58 2.76691 -1.95518 0
M  V30 23489 C 2288.14 3.28838 -1.83146 0
M  V30 23490 C 2287.29 2.01729 -1.90265 0
M  V30 23491 H 2290.24 0.782529 -1.38066 0
M  V30 23492 H 2290.26 3.50143 -1.48931 0
M  V30 23493 H 2289.77 2.46931 -2.99411 0
M  V30 23494 H 2287.87 3.63443 -0.820983 0
M  V30 23495 H 2287.98 3.97526 -2.67413 0
M  V30 23496 H 2286.35 2.16582 -1.34031 0
M  V30 23497 H 2287.13 1.74329 -2.95743 0
M  V30 23498 N 2289.58 1.0606 1.16572 0
M  V30 23499 C 2290.99 0.800661 1.6866 0
M  V30 23500 C 2291.34 -0.676048 1.84185 0
M  V30 23501 O 2290.46 -1.52464 1.5357 0
M  V30 23502 C 2291.06 1.44682 3.06354 0
M  V30 23503 C 2289.62 1.23471 3.55573 0
M  V30 23504 C 2288.76 1.52481 2.31613 0
M  V30 23505 H 2291.72 1.22439 1.00967 0
M  V30 23506 H 2291.74 0.860853 3.70634 0
M  V30 23507 H 2291.25 2.52157 2.95023 0
M  V30 23508 H 2289.35 0.179592 3.72167 0
M  V30 23509 H 2289.46 1.94578 4.37808 0
M  V30 23510 H 2287.83 0.945251 2.3651 0
M  V30 23511 H 2288.61 2.6111 2.22882 0
M  V30 23512 N 2291.06 -1.33168 0.84285 0
M  V30 23513 C 2292.47 -1.50502 0.531154 0
M  V30 23514 C 2292.67 -1.78194 -0.940702 0
M  V30 23515 O 2291.73 -1.84454 -1.72432 0
M  V30 23516 C 2293.04 -2.65702 1.40794 0
M  V30 23517 C 2294.59 -2.79587 1.40713 0
M  V30 23518 C 2295.06 -3.97853 2.26885 0
M  V30 23519 N 2296.55 -4.05095 2.24616 0
M  V30 23520 C 2297.29 -4.9581 2.88028 0
M  V30 23521 N 2296.79 -5.91614 3.60507 0
M  V30 23522 N 2298.58 -4.88838 2.77477 0
M  V30 23523 H 2290.73 -1.13457 1.79559 0
M  V30 23524 H 2292.99 -0.558143 0.766277 0
M  V30 23525 H 2292.7 -2.51932 2.45404 0
M  V30 23526 H 2292.57 -3.61203 1.08683 0
M  V30 23527 H 2294.96 -2.92787 0.36872 0
M  V30 23528 H 2295.04 -1.84835 1.76832 0
M  V30 23529 H 2294.68 -3.85412 3.30787 0
M  V30 23530 H 2294.61 -4.91858 1.88105 0
M  V30 23531 H 2297.11 -3.36533 1.71912 0
M  V30 23532 H 2297.42 -6.57505 4.06088 0
M  V30 23533 H 2295.76 -5.91677 3.64614 0
M  V30 23534 H 2298.95 -4.12959 2.20413 0
M  V30 23535 H 2299.13 -5.59336 3.2718 0
M  V30 23536 N 2292.53 -0.599659 -1.45746 0
M  V30 23537 C 2293.95 -0.262668 -1.57424 0
M  V30 23538 C 2294.15 1.2349 -1.59224 0
M  V30 23539 O 2293.21 2.01753 -1.51828 0
M  V30 23540 C 2294.52 -0.926845 -2.8606 0
M  V30 23541 C 2296.07 -0.90202 -2.99721 0
M  V30 23542 C 2296.54 -1.54606 -4.31116 0
M  V30 23543 N 2298.03 -1.51118 -4.37856 0
M  V30 23544 C 2298.77 -1.97873 -5.38177 0
M  V30 23545 N 2298.26 -2.52677 -6.45078 0
M  V30 23546 N 2300.06 -1.88688 -5.29484 0
M  V30 23547 H 2292.21 -1.57213 -1.42821 0
M  V30 23548 H 2294.47 -0.658117 -0.682338 0
M  V30 23549 H 2294.18 -1.981 -2.90602 0
M  V30 23550 H 2294.05 -0.445304 -3.74562 0
M  V30 23551 H 2296.44 0.143565 -2.94751 0
M  V30 23552 H 2296.52 -1.42175 -2.1265 0
M  V30 23553 H 2296.16 -2.59093 -4.36845 0
M  V30 23554 H 2296.09 -1.00141 -5.16991 0
M  V30 23555 H 2298.58 -1.11074 -3.61208 0
M  V30 23556 H 2298.9 -2.86167 -7.17864 0
M  V30 23557 H 2297.24 -2.56712 -6.45851 0
M  V30 23558 H 2300.43 -1.45617 -4.44874 0
M  V30 23559 H 2300.61 -2.2544 -6.0752 0
M  V30 23560 N 2294.01 1.53925 -0.338371 0
M  V30 23561 C 2295.26 2.00431 0.25921 0
M  V30 23562 C 2295.58 1.22794 1.51481 0
M  V30 23563 O 2294.85 0.333713 1.93037 0
M  V30 23564 H 2293.43 0.740441 0.0987715 0
M  V30 23565 H 2296.09 1.89434 -0.458335 0
M  V30 23566 H 2295.19 3.07983 0.50528 0
M  V30 23567 N 2295.49 0.0668712 1.57458 0
M  V30 23568 C 2296.74 -0.604266 1.93588 0
M  V30 23569 C 2297.07 -1.69559 0.946752 0
M  V30 23570 O 2296.34 -1.94484 -0.0248174 0
M  V30 23571 C 2296.63 -1.18579 3.40016 0
M  V30 23572 C 2296.48 -0.10145 4.49686 0
M  V30 23573 C 2297.8 -2.09277 3.87158 0
M  V30 23574 H 2294.92 -0.21819 0.703962 0
M  V30 23575 H 2297.56 0.131837 1.89542 0
M  V30 23576 H 2295.71 -1.81313 3.43595 0
M  V30 23577 H 2297.38 0.53136 4.58229 0
M  V30 23578 H 2295.62 0.568562 4.30058 0
M  V30 23579 H 2296.3 -0.548643 5.49267 0
M  V30 23580 H 2298.77 -1.56485 3.85554 0
M  V30 23581 H 2297.65 -2.46903 4.90235 0
M  V30 23582 H 2297.91 -2.99912 3.24816 0
M  V30 23583 N 2296.97 -1.56239 -0.206647 0
M  V30 23584 C 2298.19 -1.84392 -0.949442 0
M  V30 23585 C 2298.62 -0.649047 -1.76547 0
M  V30 23586 O 2297.98 0.4022 -1.76782 0
M  V30 23587 C 2298.02 -3.10672 -1.83073 0
M  V30 23588 O 2297.13 -2.90412 -2.92805 0
M  V30 23589 H 2296.47 -0.607503 -0.268022 0
M  V30 23590 H 2299 -2.03462 -0.215453 0
M  V30 23591 H 2299.01 -3.41165 -2.23764 0
M  V30 23592 H 2297.68 -3.97263 -1.23105 0
M  V30 23593 H 2296.26 -2.71189 -2.55951 0
M  V30 23594 N 2298.45 0.473929 -1.50305 0
M  V30 23595 C 2299.69 1.2238 -1.60834 0
M  V30 23596 C 2300.01 1.92529 -0.309424 0
M  V30 23597 O 2299.28 1.8398 0.672928 0
M  V30 23598 H 2297.86 0.454712 -0.59266 0
M  V30 23599 H 2300.53 0.546935 -1.87069 0
M  V30 23600 H 2299.62 1.97323 -2.41806 0
M  V30 23601 N 2299.92 1.39835 0.726907 0
M  V30 23602 C 2301.2 1.28004 1.479 0
M  V30 23603 C 2301.58 -0.106752 2.1083 0
M  V30 23604 O 2300.93 -1.11866 1.99244 0
M  V30 23605 C 2301.14 2.41042 2.52388 0
M  V30 23606 C 2302.49 2.80743 3.18541 0
M  V30 23607 O 2303.51 2.40552 2.62704 0
M  V30 23608 O 2302.37 3.50142 4.19598 0
M  V30 23609 H 2299.46 0.502074 0.657154 0
M  V30 23610 H 2302.01 1.51728 0.760044 0
M  V30 23611 H 2300.78 3.33718 2.04323 0
M  V30 23612 H 2300.4 2.19027 3.31833 0
M  V30 23613 N 2301.4 -0.957948 1.25144 0
M  V30 23614 C 2302.82 -1.2284 1.01894 0
M  V30 23615 C 2303.02 -1.99733 -0.266276 0
M  V30 23616 O 2302.07 -2.32712 -0.979872 0
M  V30 23617 C 2303.39 -2.00602 2.24008 0
M  V30 23618 C 2304.93 -2.13658 2.28734 0
M  V30 23619 C 2305.41 -2.94817 3.50495 0
M  V30 23620 N 2306.9 -3.02397 3.50871 0
M  V30 23621 C 2307.64 -3.65579 4.41746 0
M  V30 23622 N 2307.13 -4.30399 5.42889 0
M  V30 23623 N 2308.92 -3.62687 4.29435 0
M  V30 23624 H 2301.08 -0.443456 2.07719 0
M  V30 23625 H 2303.34 -0.258641 0.912036 0
M  V30 23626 H 2303.04 -1.51497 3.17398 0
M  V30 23627 H 2302.92 -3.01315 2.26912 0
M  V30 23628 H 2305.31 -2.61961 1.35869 0
M  V30 23629 H 2305.39 -1.12261 2.2985 0
M  V30 23630 H 2305.03 -2.47205 4.4368 0
M  V30 23631 H 2304.96 -3.96433 3.46624 0
M  V30 23632 H 2307.45 -2.56297 2.77705 0
M  V30 23633 H 2307.76 -4.76456 6.08448 0
M  V30 23634 H 2306.11 -4.29037 5.46765 0
M  V30 23635 H 2309.3 -3.1123 3.49648 0
M  V30 23636 H 2309.47 -4.11641 5.00455 0
M  V30 23637 N 2302.88 -1.06677 -1.16008 0
M  V30 23638 C 2304.16 -0.699146 -1.82678 0
M  V30 23639 C 2304.54 0.819102 -1.94561 0
M  V30 23640 O 2303.88 1.73089 -1.49172 0
M  V30 23641 C 2304.09 -1.40561 -3.19443 0
M  V30 23642 C 2305.44 -1.5533 -3.95168 0
M  V30 23643 O 2306.47 -1.36582 -3.28974 0
M  V30 23644 O 2305.33 -1.86121 -5.1383 0
M  V30 23645 H 2302.42 -0.247965 -0.78895 0
M  V30 23646 H 2304.97 -1.16728 -1.23177 0
M  V30 23647 H 2303.74 -2.4407 -3.05852 0
M  V30 23648 H 2303.36 -0.927801 -3.86623 0
M  V30 23649 N 2304.36 1.32719 -0.8499 0
M  V30 23650 C 2305.27 2.32753 -0.293832 0
M  V30 23651 C 2306.28 1.6384 0.585878 0
M  V30 23652 O 2307.46 1.95414 0.487379 0
M  V30 23653 C 2304.52 3.42888 0.512692 0
M  V30 23654 C 2303.59 4.27501 -0.392595 0
M  V30 23655 C 2302.82 5.32377 0.375532 0
M  V30 23656 O 2303.04 5.47323 1.60603 0
M  V30 23657 O 2301.98 6.01354 -0.2562 0
M  V30 23658 H 2305.8 2.82195 -1.12247 0
M  V30 23659 H 2303.39 1.36258 -0.612709 0
M  V30 23660 H 2305.27 4.10069 0.970632 0
M  V30 23661 H 2303.94 2.95643 1.31821 0
M  V30 23662 H 2302.85 3.63147 -0.89861 0
M  V30 23663 H 2304.18 4.78258 -1.16317 0
M  V30 23664 N 2305.84 0.60738 1.45426 0
M  V30 23665 C 2306.78 -0.12407 2.32269 0
M  V30 23666 C 2307.78 -0.859829 1.45957 0
M  V30 23667 O 2308.98 -0.775418 1.62442 0
M  V30 23668 H 2305.36 -0.0588707 0.749692 0
M  V30 23669 H 2307.33 0.626813 2.91742 0
M  V30 23670 C 2306.08 -1.10815 3.29569 0
M  V30 23671 H 2305.4 -0.551422 3.95979 0
M  V30 23672 H 2306.84 -1.58988 3.93063 0
M  V30 23673 C 2305.3 -2.1816 2.56725 0
M  V30 23674 O 2305.83 -3.25898 2.34848 0
M  V30 23675 N 2304.04 -1.93438 2.16864 0
M  V30 23676 H 2303.58 -1.0583 2.34857 0
M  V30 23677 H 2303.54 -2.65466 1.68449 0
M  V30 23678 N 2307.31 -1.53743 0.34653 0
M  V30 23679 C 2308.54 -2.05851 -0.253038 0
M  V30 23680 C 2308.96 -1.21965 -1.432 0
M  V30 23681 O 2308.32 -0.234104 -1.79782 0
M  V30 23682 C 2308.37 -3.54819 -0.64313 0
M  V30 23683 O 2307.47 -3.73765 -1.74279 0
M  V30 23684 H 2306.82 -0.662711 -0.0413466 0
M  V30 23685 H 2309.35 -1.98356 0.501609 0
M  V30 23686 H 2309.36 -3.97505 -0.919456 0
M  V30 23687 H 2308.03 -4.15323 0.219039 0
M  V30 23688 H 2306.61 -3.42981 -1.4635 0
M  V30 23689 N 2308.79 -0.0752207 -1.5742 0
M  V30 23690 C 2310.04 0.593112 -1.93619 0
M  V30 23691 C 2310.37 1.69411 -0.955514 0
M  V30 23692 O 2309.62 1.9568 0.0282907 0
M  V30 23693 C 2309.92 1.2062 -3.36431 0
M  V30 23694 C 2309.59 0.230999 -4.50308 0
M  V30 23695 C 2308.25 -0.0372781 -4.81186 0
M  V30 23696 C 2310.6 -0.435979 -5.19373 0
M  V30 23697 C 2307.93 -0.979562 -5.78465 0
M  V30 23698 C 2310.28 -1.36661 -6.17662 0
M  V30 23699 C 2308.95 -1.64332 -6.46955 0
M  V30 23700 H 2308.22 0.217035 -0.708503 0
M  V30 23701 H 2310.86 -0.146826 -1.90936 0
M  V30 23702 H 2309.17 2.02195 -3.35596 0
M  V30 23703 H 2310.86 1.73067 -3.6173 0
M  V30 23704 H 2307.45 0.450282 -4.26228 0
M  V30 23705 H 2311.64 -0.241836 -4.9571 0
M  V30 23706 H 2306.89 -1.20116 -5.99485 0
M  V30 23707 H 2311.07 -1.88936 -6.70281 0
M  V30 23708 H 2308.7 -2.37507 -7.22146 0
M  V30 23709 N 2310.27 1.56347 0.198358 0
M  V30 23710 C 2311.5 1.84893 0.93965 0
M  V30 23711 C 2311.92 0.6584 1.76201 0
M  V30 23712 O 2311.28 -0.39282 1.76993 0
M  V30 23713 C 2311.33 3.11638 1.81422 0
M  V30 23714 O 2310.43 2.91961 2.9126 0
M  V30 23715 H 2309.77 0.608916 0.264796 0
M  V30 23716 H 2312.3 2.03574 0.20466 0
M  V30 23717 H 2312.31 3.42347 2.21952 0
M  V30 23718 H 2310.99 3.9791 1.20997 0
M  V30 23719 H 2309.56 2.72542 2.54509 0
M  V30 23720 N 2311.75 -0.465951 1.50554 0
M  V30 23721 C 2312.68 -1.57125 1.72725 0
M  V30 23722 C 2313.66 -1.60039 0.576322 0
M  V30 23723 O 2314.84 -1.76224 0.816011 0
M  V30 23724 C 2311.97 -2.95416 1.82611 0
M  V30 23725 C 2310.93 -3.07368 2.9784 0
M  V30 23726 C 2310.25 -4.47357 2.92875 0
M  V30 23727 C 2311.55 -2.84106 4.3827 0
M  V30 23728 H 2313.25 -1.38825 2.6527 0
M  V30 23729 H 2310.79 -0.666418 1.27651 0
M  V30 23730 H 2312.75 -3.72673 1.96705 0
M  V30 23731 H 2311.47 -3.14884 0.866914 0
M  V30 23732 H 2310.13 -2.32545 2.83405 0
M  V30 23733 H 2309.78 -4.63752 1.94791 0
M  V30 23734 H 2309.48 -4.56289 3.70235 0
M  V30 23735 H 2311 -5.26627 3.09024 0
M  V30 23736 H 2312.42 -3.5111 4.53205 0
M  V30 23737 H 2310.81 -3.04478 5.1712 0
M  V30 23738 H 2311.88 -1.79923 4.50284 0
M  V30 23739 N 2313.23 -1.40218 -0.719481 0
M  V30 23740 C 2314.17 -1.40342 -1.85491 0
M  V30 23741 C 2315.17 -0.284445 -1.66995 0
M  V30 23742 O 2316.37 -0.455282 -1.74147 0
M  V30 23743 H 2312.75 -0.438597 -0.610849 0
M  V30 23744 H 2314.72 -2.36084 -1.82502 0
M  V30 23745 C 2313.47 -1.27907 -3.23319 0
M  V30 23746 H 2312.79 -2.13286 -3.38155 0
M  V30 23747 H 2314.23 -1.32052 -4.02912 0
M  V30 23748 C 2312.69 0.0110763 -3.36898 0
M  V30 23749 O 2313.22 0.97547 -3.89676 0
M  V30 23750 N 2311.43 0.0792882 -2.90492 0
M  V30 23751 H 2310.97 -0.706227 -2.4773 0
M  V30 23752 H 2310.93 0.941985 -2.99957 0
M  V30 23753 N 2314.7 0.951297 -1.25651 0
M  V30 23754 C 2315.93 1.73622 -1.13446 0
M  V30 23755 C 2316.35 1.85569 0.307532 0
M  V30 23756 O 2315.71 1.33856 1.22279 0
M  V30 23757 C 2315.76 3.12618 -1.79728 0
M  V30 23758 O 2314.86 3.98029 -1.07919 0
M  V30 23759 H 2314.21 0.533079 -0.395882 0
M  V30 23760 H 2316.74 1.19217 -1.66278 0
M  V30 23761 H 2316.75 3.63061 -1.86147 0
M  V30 23762 H 2315.42 3.03239 -2.84638 0
M  V30 23763 H 2314 3.5649 -1.09404 0
M  V30 23764 N 2316.18 1.07291 1.1544 0
M  V30 23765 C 2317.41 0.816861 1.90636 0
M  V30 23766 C 2317.83 -0.624052 1.77446 0
M  V30 23767 O 2317.19 -1.436 1.10674 0
M  V30 23768 C 2317.24 1.22912 3.39006 0
M  V30 23769 O 2316.34 0.374047 4.107 0
M  V30 23770 H 2315.68 0.297649 0.59355 0
M  V30 23771 H 2318.21 1.43136 1.46196 0
M  V30 23772 H 2318.22 1.20504 3.89798 0
M  V30 23773 H 2316.9 2.27862 3.47925 0
M  V30 23774 H 2315.48 0.460564 3.70045 0
M  V30 23775 N 2317.66 -1.32267 0.856927 0
M  V30 23776 C 2318.91 -1.9644 0.457633 0
M  V30 23777 C 2319.22 -1.68555 -0.992397 0
M  V30 23778 O 2320.43 -2.26485 -1.49723 0
M  V30 23779 C 2318.88 -3.51623 0.76742 0
M  V30 23780 C 2318.49 -3.88364 2.23333 0
M  V30 23781 C 2320.24 -4.22255 0.435961 0
M  V30 23782 C 2318.14 -5.36601 2.48622 0
M  V30 23783 H 2317.07 -0.735182 0.1674 0
M  V30 23784 H 2319.72 -1.50628 1.04802 0
M  V30 23785 H 2318.11 -3.95857 0.106437 0
M  V30 23786 H 2319.28 -3.55132 2.93629 0
M  V30 23787 H 2317.6 -3.30762 2.52954 0
M  V30 23788 H 2320.19 -5.31297 0.602295 0
M  V30 23789 H 2320.54 -4.11618 -0.6226 0
M  V30 23790 H 2321.07 -3.83612 1.05293 0
M  V30 23791 H 2317.81 -5.52261 3.53111 0
M  V30 23792 H 2317.33 -5.71231 1.82906 0
M  V30 23793 H 2319.01 -6.0371 2.32687 0
M  V30 23794 N 2319.14 -0.615084 -1.45102 0
M  V30 23795 C 2320.36 -0.118025 -2.07064 0
M  V30 23796 C 2320.79 1.1916 -1.45542 0
M  V30 23797 O 2320.15 1.72728 -0.550885 0
M  V30 23798 C 2320.19 0.000225002 -3.606 0
M  V30 23799 O 2319.3 1.04849 -3.98849 0
M  V30 23800 H 2318.64 -0.0774697 -0.659465 0
M  V30 23801 H 2321.17 -0.847218 -1.86235 0
M  V30 23802 H 2321.18 0.196019 -4.07529 0
M  V30 23803 H 2319.85 -0.956003 -4.04763 0
M  V30 23804 H 2318.43 0.828555 -3.63579 0
M  V30 23805 N 2320.62 1.53557 -0.354678 0
M  V30 23806 C 2321.84 2.05982 0.242117 0
M  V30 23807 C 2322.27 1.22723 1.42551 0
M  V30 23808 O 2321.63 0.243635 1.79656 0
M  V30 23809 C 2321.67 3.55155 0.624304 0
M  V30 23810 O 2320.78 3.74684 1.72295 0
M  V30 23811 H 2320.12 0.662921 0.0378315 0
M  V30 23812 H 2322.65 1.98087 -0.512121 0
M  V30 23813 H 2322.66 3.97987 0.898363 0
M  V30 23814 H 2321.33 4.15201 -0.241062 0
M  V30 23815 H 2319.91 3.43753 1.44529 0
M  V30 23816 N 2322.1 0.083568 1.57378 0
M  V30 23817 C 2323.32 -0.594952 1.98683 0
M  V30 23818 C 2323.75 -1.61639 0.961997 0
M  V30 23819 O 2323.1 -1.81161 -0.070967 0
M  V30 23820 C 2323.15 -1.22954 3.38991 0
M  V30 23821 O 2322.26 -2.3454 3.39212 0
M  V30 23822 H 2321.6 -0.151991 0.64637 0
M  V30 23823 H 2324.13 0.161568 2.03961 0
M  V30 23824 H 2324.14 -1.57359 3.76433 0
M  V30 23825 H 2322.81 -0.481155 4.13107 0
M  V30 23826 H 2321.39 -2.01841 3.13552 0
M  V30 23827 N 2323.57 -1.5645 -0.190064 0
M  V30 23828 C 2324.54 -1.94082 -1.21921 0
M  V30 23829 C 2325.54 -0.822455 -1.38175 0
M  V30 23830 O 2326.73 -1.0898 -1.35901 0
M  V30 23831 C 2323.86 -2.21926 -2.58769 0
M  V30 23832 H 2325.05 -2.86158 -0.897413 0
M  V30 23833 H 2322.6 -1.50218 -0.431784 0
M  V30 23834 H 2323.34 -1.32504 -2.95995 0
M  V30 23835 H 2323.12 -3.03428 -2.48342 0
M  V30 23836 H 2324.61 -2.52028 -3.32974 0
M  V30 23837 N 2325.05 0.45796 -1.50799 0
M  V30 23838 C 2326.47 0.792795 -1.38517 0
M  V30 23839 C 2326.67 1.96378 -0.451443 0
M  V30 23840 O 2325.72 2.52298 0.101076 0
M  V30 23841 C 2327.04 1.09253 -2.80151 0
M  V30 23842 C 2328.58 1.1982 -2.89158 0
M  V30 23843 C 2329.06 1.53098 -4.31654 0
M  V30 23844 N 2330.55 1.60064 -4.34665 0
M  V30 23845 C 2331.29 1.87345 -5.41931 0
M  V30 23846 N 2330.78 2.12556 -6.59387 0
M  V30 23847 N 2332.57 1.88956 -5.29388 0
M  V30 23848 H 2324.73 -0.313548 -2.10073 0
M  V30 23849 H 2326.99 -0.0778028 -0.944802 0
M  V30 23850 H 2326.69 0.305022 -3.50375 0
M  V30 23851 H 2326.57 2.02544 -3.18207 0
M  V30 23852 H 2328.96 1.97636 -2.19144 0
M  V30 23853 H 2329.04 0.244776 -2.54626 0
M  V30 23854 H 2328.68 0.758178 -5.02209 0
M  V30 23855 H 2328.61 2.49613 -4.63682 0
M  V30 23856 H 2331.1 1.42567 -3.49976 0
M  V30 23857 H 2331.41 2.32684 -7.36938 0
M  V30 23858 H 2329.76 2.09921 -6.62539 0
M  V30 23859 H 2332.95 1.68765 -4.36619 0
M  V30 23860 H 2333.12 2.0988 -6.1307 0
M  V30 23861 N 2326.53 1.40598 0.712035 0
M  V30 23862 C 2327.95 1.22706 1.02056 0
M  V30 23863 C 2328.15 0.104764 2.01227 0
M  V30 23864 O 2327.2 -0.536197 2.46741 0
M  V30 23865 C 2328.51 2.57015 1.56089 0
M  V30 23866 C 2330.06 2.64057 1.68056 0
M  V30 23867 C 2330.54 3.98644 2.25494 0
M  V30 23868 N 2332.03 4.00404 2.32875 0
M  V30 23869 C 2332.76 5.0133 2.78308 0
M  V30 23870 N 2332.26 6.1265 3.23468 0
M  V30 23871 N 2334.05 4.88698 2.77725 0
M  V30 23872 H 2326.2 2.12329 0.0547523 0
M  V30 23873 H 2328.47 0.94401 0.0868861 0
M  V30 23874 H 2328.17 3.39809 0.906806 0
M  V30 23875 H 2328.05 2.78352 2.54559 0
M  V30 23876 H 2330.43 1.81633 2.3258 0
M  V30 23877 H 2330.51 2.46548 0.681759 0
M  V30 23878 H 2330.16 4.81509 1.6159 0
M  V30 23879 H 2330.09 4.13485 3.26094 0
M  V30 23880 H 2332.58 3.20021 2.00985 0
M  V30 23881 H 2332.89 6.85548 3.56713 0
M  V30 23882 H 2331.24 6.16211 3.21418 0
M  V30 23883 H 2334.43 4.00823 2.41783 0
M  V30 23884 H 2334.6 5.67495 3.12816 0
M  V30 23885 N 2328.01 -0.94462 1.26153 0
M  V30 23886 C 2329.24 -1.72487 1.14262 0
M  V30 23887 C 2329.65 -1.86361 -0.302523 0
M  V30 23888 O 2329.01 -1.36852 -1.20739 0
M  V30 23889 C 2329.06 -3.13344 1.80272 0
M  V30 23890 O 2328.78 -3.00137 3.19138 0
M  V30 23891 C 2330.28 -4.076 1.7429 0
M  V30 23892 H 2327.5 -0.540174 0.398061 0
M  V30 23893 H 2330.04 -1.18443 1.66708 0
M  V30 23894 H 2328.2 -3.643 1.31772 0
M  V30 23895 H 2328.61 -3.89065 3.51751 0
M  V30 23896 H 2330.09 -5.04009 2.2512 0
M  V30 23897 H 2330.56 -4.33444 0.708708 0
M  V30 23898 H 2331.17 -3.62563 2.22325 0
M  V30 23899 N 2329.49 -1.07901 -1.1487 0
M  V30 23900 C 2330.71 -0.826863 -1.89659 0
M  V30 23901 C 2331.13 0.620488 -1.78313 0
M  V30 23902 O 2330.49 1.42602 -1.1389 0
M  V30 23903 C 2330.54 -1.23322 -3.39815 0
M  V30 23904 O 2330.26 -2.62379 -3.50841 0
M  V30 23905 C 2331.76 -1.01118 -4.31613 0
M  V30 23906 H 2328.98 -0.298567 -0.600915 0
M  V30 23907 H 2331.52 -1.43694 -1.45507 0
M  V30 23908 H 2329.68 -0.667353 -3.81609 0
M  V30 23909 H 2330.09 -2.79108 -4.44071 0
M  V30 23910 H 2331.57 -1.34495 -5.35364 0
M  V30 23911 H 2332.04 0.0521396 -4.39169 0
M  V30 23912 H 2332.65 -1.56222 -3.95569 0
M  V30 23913 N 2330.96 1.31811 -0.863929 0
M  V30 23914 C 2332.38 1.49638 -0.55503 0
M  V30 23915 C 2332.58 1.79668 0.912234 0
M  V30 23916 O 2331.64 1.87174 1.69476 0
M  V30 23917 C 2332.95 2.63429 -1.45003 0
M  V30 23918 C 2334.5 2.77313 -1.45143 0
M  V30 23919 C 2334.97 3.94193 -2.33186 0
M  V30 23920 N 2336.46 4.0147 -2.31032 0
M  V30 23921 C 2337.2 4.91165 -2.95879 0
M  V30 23922 N 2336.69 5.85803 -3.69873 0
M  V30 23923 N 2338.49 4.84362 -2.85219 0
M  V30 23924 H 2330.64 1.10586 -1.81341 0
M  V30 23925 H 2332.9 0.545881 -0.77506 0
M  V30 23926 H 2332.61 2.47996 -2.49381 0
M  V30 23927 H 2332.48 3.59429 -1.14416 0
M  V30 23928 H 2334.87 2.92164 -0.415253 0
M  V30 23929 H 2334.95 1.81998 -1.79751 0
M  V30 23930 H 2334.59 3.80101 -3.36877 0
M  V30 23931 H 2334.52 4.88803 -1.95906 0
M  V30 23932 H 2337.01 3.33756 -1.77244 0
M  V30 23933 H 2337.33 6.50961 -4.16497 0
M  V30 23934 H 2335.67 5.85801 -3.73981 0
M  V30 23935 H 2338.86 4.09401 -2.26955 0
M  V30 23936 H 2339.04 5.5406 -3.36037 0
M  V30 23937 N 2332.44 0.62277 1.44773 0
M  V30 23938 C 2333.67 0.129004 2.06998 0
M  V30 23939 C 2334.09 -1.18387 1.46172 0
M  V30 23940 O 2333.45 -1.72433 0.560037 0
M  V30 23941 C 2333.5 0.0188985 3.60595 0
M  V30 23942 O 2332.6 -1.02732 3.99399 0
M  V30 23943 H 2331.94 0.0809659 0.659045 0
M  V30 23944 H 2334.47 0.857083 1.85783 0
M  V30 23945 H 2334.48 -0.174404 4.07627 0
M  V30 23946 H 2333.16 0.977455 4.04251 0
M  V30 23947 H 2331.73 -0.809262 3.64013 0
M  V30 23948 N 2333.92 -1.53367 0.362817 0
M  V30 23949 C 2334.83 -2.29362 -0.492953 0
M  V30 23950 C 2335.85 -1.35221 -1.09505 0
M  V30 23951 O 2337.02 -1.68275 -1.10659 0
M  V30 23952 C 2334.09 -3.06603 -1.6185 0
M  V30 23953 C 2333.15 -4.16407 -1.04422 0
M  V30 23954 C 2332.38 -4.89955 -2.11613 0
M  V30 23955 O 2332.6 -4.63339 -3.32676 0
M  V30 23956 O 2331.54 -5.75951 -1.74825 0
M  V30 23957 H 2335.36 -3.03441 0.125384 0
M  V30 23958 H 2332.95 -1.48857 0.12728 0
M  V30 23959 H 2334.83 -3.54845 -2.27295 0
M  V30 23960 H 2333.51 -2.35363 -2.22229 0
M  V30 23961 H 2332.41 -3.72424 -0.353754 0
M  V30 23962 H 2333.75 -4.89804 -0.485027 0
M  V30 23963 N 2335.4 -0.091913 -1.57332 0
M  V30 23964 C 2336.81 0.437707 -1.81497 0
M  V30 23965 C 2337.16 1.68368 -1.0073 0
M  V30 23966 O 2336.29 2.15112 -0.235732 0
M  V30 23967 C 2336.88 0.800881 -3.29198 0
M  V30 23968 C 2335.44 1.27526 -3.54138 0
M  V30 23969 C 2334.59 0.270344 -2.75979 0
M  V30 23970 H 2337.54 -0.317393 -1.55494 0
M  V30 23971 H 2337.56 1.66068 -3.42347 0
M  V30 23972 H 2337.07 -0.106146 -3.87955 0
M  V30 23973 H 2335.17 2.20011 -3.00709 0
M  V30 23974 H 2335.28 1.23929 -4.62794 0
M  V30 23975 H 2333.65 0.75183 -2.43351 0
M  V30 23976 H 2334.43 -0.629307 -3.37483 0
M  V30 23977 N 2336.88 1.56548 0.181765 0
M  V30 23978 C 2338.13 1.80591 0.898316 0
M  V30 23979 C 2338.44 0.667411 1.83861 0
M  V30 23980 O 2339.64 0.792491 2.59676 0
M  V30 23981 C 2338.1 3.19959 1.64785 0
M  V30 23982 C 2337.71 4.41648 0.751711 0
M  V30 23983 C 2339.45 3.53302 2.35325 0
M  V30 23984 C 2337.36 5.72038 1.50088 0
M  V30 23985 H 2336.29 0.673403 0.339182 0
M  V30 23986 H 2338.94 1.82875 0.151381 0
M  V30 23987 H 2337.32 3.11963 2.43916 0
M  V30 23988 H 2338.5 4.608 -0.0018886 0
M  V30 23989 H 2336.81 4.16106 0.156489 0
M  V30 23990 H 2339.41 4.47961 2.9195 0
M  V30 23991 H 2339.75 2.77682 3.10159 0
M  V30 23992 H 2340.28 3.62805 1.63147 0
M  V30 23993 H 2337.02 6.5066 0.795061 0
M  V30 23994 H 2336.54 5.56882 2.22807 0
M  V30 23995 H 2338.22 6.13626 2.05115 0
M  V30 23996 N 2338.35 -0.449957 1.5104 0
M  V30 23997 C 2339.77 -0.785438 1.38935 0
M  V30 23998 C 2339.97 -1.96136 0.461851 0
M  V30 23999 O 2339.03 -2.52348 -0.0876945 0
M  V30 24000 C 2340.34 -1.07765 2.80726 0
M  V30 24001 C 2341.89 -1.18285 2.89789 0
M  V30 24002 C 2342.36 -1.50807 4.32459 0
M  V30 24003 N 2343.85 -1.57757 4.35508 0
M  V30 24004 C 2344.59 -1.84468 5.42917 0
M  V30 24005 N 2344.08 -2.09056 6.60505 0
M  V30 24006 N 2345.88 -1.86146 5.30383 0
M  V30 24007 H 2338.03 0.324684 2.09904 0
M  V30 24008 H 2340.29 0.0828123 0.944376 0
M  V30 24009 H 2340 -0.286437 3.50532 0
M  V30 24010 H 2339.87 -2.00853 3.19277 0
M  V30 24011 H 2342.26 -1.96471 2.20189 0
M  V30 24012 H 2342.34 -0.231269 2.54752 0
M  V30 24013 H 2341.98 -0.731534 5.02604 0
M  V30 24014 H 2341.91 -2.4715 4.64999 0
M  V30 24015 H 2344.4 -1.40709 3.50727 0
M  V30 24016 H 2344.72 -2.28772 7.38162 0
M  V30 24017 H 2343.06 -2.06405 6.63643 0
M  V30 24018 H 2346.25 -1.66447 4.37508 0
M  V30 24019 H 2346.43 -2.06626 6.14174 0
M  V30 24020 N 2339.83 -1.40974 -0.704569 0
M  V30 24021 C 2341.25 -1.23245 -1.01404 0
M  V30 24022 C 2341.45 -0.115434 -2.01169 0
M  V30 24023 O 2340.5 0.523104 -2.47022 0
M  V30 24024 C 2341.82 -2.57839 -1.54724 0
M  V30 24025 C 2343.37 -2.64945 -1.66653 0
M  V30 24026 C 2343.84 -3.99834 -2.23376 0
M  V30 24027 N 2345.33 -4.01633 -2.30749 0
M  V30 24028 C 2346.07 -5.02799 -2.75646 0
M  V30 24029 N 2345.56 -6.14357 -3.20214 0
M  V30 24030 N 2347.36 -4.90164 -2.75129 0
M  V30 24031 H 2339.51 -2.12355 -0.0434912 0
M  V30 24032 H 2341.77 -0.944457 -0.0818785 0
M  V30 24033 H 2341.48 -3.40285 -0.888772 0
M  V30 24034 H 2341.35 -2.79698 -2.53079 0
M  V30 24035 H 2343.74 -1.82864 -2.31614 0
M  V30 24036 H 2343.82 -2.46906 -0.668674 0
M  V30 24037 H 2343.46 -4.82359 -1.59034 0
M  V30 24038 H 2343.39 -4.15209 -3.23897 0
M  V30 24039 H 2345.88 -3.21082 -1.99285 0
M  V30 24040 H 2346.2 -6.8743 -3.53072 0
M  V30 24041 H 2344.54 -6.17907 -3.18145 0
M  V30 24042 H 2347.73 -4.02099 -2.39654 0
M  V30 24043 H 2347.9 -5.69146 -3.09802 0
M  V30 24044 N 2341.31 0.937917 -1.26653 0
M  V30 24045 C 2342.27 2.01865 -1.08549 0
M  V30 24046 C 2343.27 1.60767 -0.032761 0
M  V30 24047 O 2344.46 1.71992 -0.276458 0
M  V30 24048 C 2341.6 3.34611 -0.651769 0
M  V30 24049 H 2342.79 2.19357 -2.04506 0
M  V30 24050 H 2340.34 1.11732 -1.09296 0
M  V30 24051 H 2341.08 3.22818 0.309639 0
M  V30 24052 H 2340.86 3.65795 -1.41195 0
M  V30 24053 H 2342.35 4.14001 -0.547046 0
M  V30 24054 N 2342.79 1.08509 1.14296 0
M  V30 24055 C 2344.04 0.813795 1.84991 0
M  V30 24056 C 2344.36 -0.662361 1.83406 0
M  V30 24057 O 2343.63 -1.48022 1.28321 0
M  V30 24058 H 2342.21 0.298057 0.684961 0
M  V30 24059 H 2344.87 1.37129 1.38498 0
M  V30 24060 H 2343.97 1.15889 2.89786 0
M  V30 24061 N 2344.27 -1.31351 0.870907 0
M  V30 24062 C 2345.21 -2.28494 0.325465 0
M  V30 24063 C 2346.18 -1.55771 -0.576588 0
M  V30 24064 O 2347.37 -1.83912 -0.508026 0
M  V30 24065 C 2344.51 -3.41936 -0.466223 0
M  V30 24066 C 2343.62 -4.29507 0.463454 0
M  V30 24067 C 2342.76 -5.30095 -0.342451 0
M  V30 24068 C 2341.8 -6.09312 0.583593 0
M  V30 24069 N 2340.93 -7.01853 -0.18612 0
M  V30 24070 H 2345.77 -2.74536 1.15906 0
M  V30 24071 H 2343.31 -1.35055 0.582963 0
M  V30 24072 H 2345.27 -4.06449 -0.941013 0
M  V30 24073 H 2343.9 -2.97002 -1.26451 0
M  V30 24074 H 2342.95 -3.65429 1.05669 0
M  V30 24075 H 2344.26 -4.848 1.17349 0
M  V30 24076 H 2343.42 -6.00288 -0.87971 0
M  V30 24077 H 2342.15 -4.7546 -1.08577 0
M  V30 24078 H 2341.16 -5.38008 1.1326 0
M  V30 24079 H 2342.38 -6.66033 1.32578 0
M  V30 24080 H 2340.33 -6.49626 -0.912234 0
M  V30 24081 H 2340.25 -7.54571 0.464555 0
M  V30 24082 H 2341.52 -7.76309 -0.70458 0
M  V30 24083 N 2345.74 -0.630439 -1.44441 0
M  V30 24084 C 2346.97 -0.13998 -2.06927 0
M  V30 24085 C 2347.39 1.1761 -1.46797 0
M  V30 24086 O 2346.75 1.72134 -0.569174 0
M  V30 24087 C 2346.8 -0.0380215 -3.6058 0
M  V30 24088 O 2345.9 1.00613 -3.99939 0
M  V30 24089 H 2345.25 -0.0844599 -0.658607 0
M  V30 24090 H 2347.78 -0.866923 -1.85326 0
M  V30 24091 H 2347.79 0.152784 -4.07714 0
M  V30 24092 H 2346.46 -0.99888 -4.03727 0
M  V30 24093 H 2345.04 0.789946 -3.64437 0
M  V30 24094 N 2347.22 1.53172 -0.370945 0
M  V30 24095 C 2348.47 2.00936 0.216637 0
M  V30 24096 C 2348.79 1.2598 1.48843 0
M  V30 24097 O 2348.06 0.374584 1.92285 0
M  V30 24098 H 2346.64 0.74237 0.0830434 0
M  V30 24099 H 2349.3 1.88419 -0.498413 0
M  V30 24100 H 2348.4 3.08985 0.439839 0
M  V30 24101 N 2348.7 0.100255 1.57281 0
M  V30 24102 C 2349.93 -0.570474 1.9888 0
M  V30 24103 C 2350.34 -1.61404 0.979505 0
M  V30 24104 O 2349.7 -1.82475 -0.0301967 0
M  V30 24105 C 2349.75 -1.21354 3.40522 0
M  V30 24106 O 2349.47 -0.211709 4.37588 0
M  V30 24107 C 2350.97 -1.96939 3.97153 0
M  V30 24108 H 2348.19 -0.152544 0.65343 0
M  V30 24109 H 2350.74 0.181066 2.03697 0
M  V30 24110 H 2348.89 -1.91597 3.36703 0
M  V30 24111 H 2349.31 -0.676515 5.20119 0
M  V30 24112 H 2350.78 -2.37285 4.98397 0
M  V30 24113 H 2351.26 -2.83727 3.35255 0
M  V30 24114 H 2351.86 -1.31499 4.0446 0
M  V30 24115 N 2350.18 -1.56643 -0.17346 0
M  V30 24116 C 2351.4 -1.86364 -0.910116 0
M  V30 24117 C 2351.83 -0.686349 -1.75131 0
M  V30 24118 O 2351.19 0.364612 -1.77596 0
M  V30 24119 C 2351.24 -3.14485 -1.76442 0
M  V30 24120 O 2350.34 -2.96558 -2.86579 0
M  V30 24121 H 2349.68 -0.613052 -0.255076 0
M  V30 24122 H 2352.21 -2.03874 -0.172247 0
M  V30 24123 H 2352.22 -3.45835 -2.16477 0
M  V30 24124 H 2350.9 -3.99785 -1.14651 0
M  V30 24125 H 2349.47 -2.76557 -2.50141 0
M  V30 24126 N 2351.66 0.44194 -1.51277 0
M  V30 24127 C 2352.89 1.21431 -1.67518 0
M  V30 24128 C 2353.3 1.85127 -0.370582 0
M  V30 24129 O 2352.66 1.70514 0.650468 0
M  V30 24130 C 2352.71 2.30172 -2.78752 0
M  V30 24131 O 2352.43 1.69082 -4.04157 0
M  V30 24132 C 2353.93 3.20535 -3.06222 0
M  V30 24133 H 2351.15 0.366168 -0.562283 0
M  V30 24134 H 2353.69 0.524209 -1.97667 0
M  V30 24135 H 2351.85 2.94906 -2.51215 0
M  V30 24136 H 2352.26 2.40914 -4.65898 0
M  V30 24137 H 2353.74 3.92981 -3.87647 0
M  V30 24138 H 2354.21 3.81023 -2.18445 0
M  V30 24139 H 2354.82 2.61507 -3.35401 0
M  V30 24140 N 2353.14 1.41345 0.697083 0
M  V30 24141 C 2354.55 1.36202 1.27695 0
M  V30 24142 C 2354.9 0.0443808 1.9615 0
M  V30 24143 O 2354.02 -0.857384 1.9869 0
M  V30 24144 C 2354.62 2.46698 2.32219 0
M  V30 24145 C 2353.18 2.44957 2.85785 0
M  V30 24146 C 2352.32 2.26623 1.59804 0
M  V30 24147 H 2355.27 1.50883 0.491942 0
M  V30 24148 H 2355.3 2.15669 3.13476 0
M  V30 24149 H 2354.81 3.42584 1.82367 0
M  V30 24150 H 2352.91 1.52823 3.39817 0
M  V30 24151 H 2353.02 3.41213 3.36319 0
M  V30 24152 H 2351.39 1.74473 1.85557 0
M  V30 24153 H 2352.17 3.24534 1.1195 0
M  V30 24154 N 2354.61 -0.931187 1.27148 0
M  V30 24155 C 2355.84 -1.71265 1.16085 0
M  V30 24156 C 2356.26 -1.86671 -0.282739 0
M  V30 24157 O 2355.61 -1.38124 -1.19281 0
M  V30 24158 C 2355.66 -3.11414 1.83585 0
M  V30 24159 O 2355.39 -2.96735 3.22304 0
M  V30 24160 C 2356.89 -4.05729 1.78604 0
M  V30 24161 H 2354.11 -0.535922 0.403768 0
M  V30 24162 H 2356.65 -1.16668 1.67955 0
M  V30 24163 H 2354.81 -3.62882 1.35629 0
M  V30 24164 H 2355.22 -3.85312 3.55858 0
M  V30 24165 H 2356.69 -5.01593 2.30453 0
M  V30 24166 H 2357.17 -4.32668 0.75464 0
M  V30 24167 H 2357.78 -3.60184 2.26158 0
M  V30 24168 N 2356.09 -1.09114 -1.13719 0
M  V30 24169 C 2357.32 -0.846932 -1.88771 0
M  V30 24170 C 2357.73 0.60154 -1.78961 0
M  V30 24171 O 2357.09 1.41386 -1.15397 0
M  V30 24172 C 2357.14 -1.26919 -3.38488 0
M  V30 24173 O 2356.86 -2.66085 -3.48038 0
M  V30 24174 C 2358.36 -1.0569 -4.30517 0
M  V30 24175 H 2355.58 -0.304924 -0.597714 0
M  V30 24176 H 2358.13 -1.45229 -1.43975 0
M  V30 24177 H 2356.28 -0.70779 -3.80879 0
M  V30 24178 H 2356.7 -2.83803 -4.41085 0
M  V30 24179 H 2358.17 -1.40166 -5.33908 0
M  V30 24180 H 2358.65 0.00555696 -4.392 0
M  V30 24181 H 2359.25 -1.60409 -3.9389 0
M  V30 24182 N 2357.57 1.30887 -0.877861 0
M  V30 24183 C 2358.98 1.78592 -0.544224 0
M  V30 24184 C 2359.33 1.72256 0.939271 0
M  V30 24185 O 2358.46 1.29508 1.73368 0
M  V30 24186 C 2359.05 3.24283 -0.981107 0
M  V30 24187 C 2357.61 3.69853 -0.699 0
M  V30 24188 C 2356.76 2.51499 -1.16805 0
M  V30 24189 H 2359.71 1.17857 -1.0628 0
M  V30 24190 H 2359.73 3.79259 -0.307076 0
M  V30 24191 H 2359.24 3.28863 -2.06085 0
M  V30 24192 H 2357.34 3.70768 0.369046 0
M  V30 24193 H 2357.46 4.61641 -1.28156 0
M  V30 24194 H 2355.82 2.4783 -0.587578 0
M  V30 24195 H 2356.6 2.5882 -2.25537 0
M  V30 24196 N 2359.05 0.638091 1.44105 0
M  V30 24197 C 2360.3 0.145079 2.01579 0
M  V30 24198 C 2360.62 -1.23997 1.50498 0
M  V30 24199 O 2359.89 -1.82526 0.711406 0
M  V30 24200 H 2358.47 0.0506431 0.745281 0
M  V30 24201 H 2361.13 0.826358 1.76514 0
M  V30 24202 H 2360.22 0.118094 3.11876 0
M  V30 24203 N 2360.53 -1.52973 0.379063 0
M  V30 24204 C 2361.75 -2.06341 -0.209317 0
M  V30 24205 C 2362.18 -1.24975 -1.4058 0
M  V30 24206 O 2361.53 -0.272186 -1.79245 0
M  V30 24207 C 2361.58 -3.56103 -0.567723 0
M  V30 24208 O 2360.69 -3.77378 -1.66312 0
M  V30 24209 H 2360.03 -0.663439 -0.0272802 0
M  V30 24210 H 2362.56 -1.97247 0.54357 0
M  V30 24211 H 2362.57 -3.99366 -0.834933 0
M  V30 24212 H 2361.24 -4.14765 0.307086 0
M  V30 24213 H 2359.82 -3.46008 -1.39042 0
M  V30 24214 N 2362 -0.108595 -1.57225 0
M  V30 24215 C 2363.23 0.559919 -1.9918 0
M  V30 24216 C 2363.65 1.60882 -0.988051 0
M  V30 24217 O 2363 1.82488 0.0205192 0
M  V30 24218 C 2363.05 1.19546 -3.41161 0
M  V30 24219 O 2362.78 0.1885 -4.37694 0
M  V30 24220 C 2364.28 1.9483 -3.98191 0
M  V30 24221 H 2361.5 0.149076 -0.65423 0
M  V30 24222 H 2364.04 -0.191866 -2.03598 0
M  V30 24223 H 2362.2 1.89809 -3.37715 0
M  V30 24224 H 2362.61 0.648922 -5.2047 0
M  V30 24225 H 2364.08 2.34639 -4.99648 0
M  V30 24226 H 2364.56 2.81945 -3.36755 0
M  V30 24227 H 2365.17 1.29353 -4.05152 0
M  V30 24228 N 2363.48 1.56732 0.16515 0
M  V30 24229 C 2364.44 1.95997 1.18818 0
M  V30 24230 C 2365.44 0.844334 1.36849 0
M  V30 24231 O 2366.63 1.11128 1.3415 0
M  V30 24232 C 2363.77 2.26015 2.55206 0
M  V30 24233 H 2364.96 2.8755 0.851774 0
M  V30 24234 H 2362.51 1.50885 0.407831 0
M  V30 24235 H 2363.25 1.37196 2.9385 0
M  V30 24236 H 2363.03 3.0734 2.43484 0
M  V30 24237 H 2364.52 2.57294 3.28922 0
M  V30 24238 N 2364.96 -0.433911 1.51509 0
M  V30 24239 C 2366.21 -1.18002 1.6358 0
M  V30 24240 C 2366.52 -1.92267 0.359548 0
M  V30 24241 O 2367.73 -2.69107 0.359679 0
M  V30 24242 C 2366.18 -2.14621 2.88905 0
M  V30 24243 C 2365.79 -1.45988 4.23546 0
M  V30 24244 C 2367.54 -2.89644 3.10333 0
M  V30 24245 C 2365.44 -2.4111 5.40018 0
M  V30 24246 H 2364.37 -0.444171 0.609285 0
M  V30 24247 H 2367.02 -0.446741 1.77979 0
M  V30 24248 H 2365.41 -2.91398 2.68147 0
M  V30 24249 H 2366.58 -0.747452 4.54697 0
M  V30 24250 H 2364.89 -0.831043 4.08023 0
M  V30 24251 H 2367.49 -3.60908 3.94525 0
M  V30 24252 H 2367.84 -3.51185 2.2355 0
M  V30 24253 H 2368.37 -2.19972 3.31447 0
M  V30 24254 H 2365.11 -1.84253 6.29072 0
M  V30 24255 H 2364.63 -3.10397 5.13239 0
M  V30 24256 H 2366.31 -3.02167 5.72105 0
M  V30 24257 N 2366.44 -1.41713 -0.689577 0
M  V30 24258 C 2367.67 -1.4476 -1.47825 0
M  V30 24259 C 2368.08 -0.0546035 -1.88721 0
M  V30 24260 O 2367.44 0.927435 -1.57178 0
M  V30 24261 C 2367.49 -2.36165 -2.73694 0
M  V30 24262 O 2367.21 -3.70045 -2.34518 0
M  V30 24263 C 2368.71 -2.48079 -3.67385 0
M  V30 24264 H 2365.93 -0.492848 -0.455349 0
M  V30 24265 H 2368.48 -1.86065 -0.848541 0
M  V30 24266 H 2366.63 -1.98154 -3.32887 0
M  V30 24267 H 2367.04 -4.18853 -3.15694 0
M  V30 24268 H 2368.52 -3.16189 -4.52469 0
M  V30 24269 H 2369 -1.51395 -4.12282 0
M  V30 24270 H 2369.6 -2.86751 -3.14092 0
M  V30 24271 N 2367.92 0.924431 -1.2764 0
M  V30 24272 C 2369.33 1.48744 -1.12837 0
M  V30 24273 C 2369.68 1.94112 0.285471 0
M  V30 24274 O 2368.8 1.81481 1.17871 0
M  V30 24275 C 2369.4 2.70331 -2.04222 0
M  V30 24276 C 2367.96 3.22845 -1.93515 0
M  V30 24277 C 2367.1 1.95573 -1.96587 0
M  V30 24278 H 2370.06 0.738208 -1.40486 0
M  V30 24279 H 2370.08 3.45227 -1.59995 0
M  V30 24280 H 2369.59 2.3728 -3.07115 0
M  V30 24281 H 2367.69 3.60647 -0.936194 0
M  V30 24282 H 2367.8 3.88818 -2.79924 0
M  V30 24283 H 2366.17 2.12208 -1.40854 0
M  V30 24284 H 2366.95 1.64832 -3.0114 0
M  V30 24285 N 2369.39 1.09715 1.13139 0
M  V30 24286 C 2370.64 0.83337 1.84118 0
M  V30 24287 C 2370.96 -0.642871 1.84098 0
M  V30 24288 O 2370.23 -1.46653 1.29884 0
M  V30 24289 H 2368.81 0.305305 0.681761 0
M  V30 24290 H 2371.48 1.3859 1.37036 0
M  V30 24291 H 2370.57 1.18956 2.88541 0
M  V30 24292 N 2370.87 -1.30419 0.88479 0
M  V30 24293 C 2372.1 -2.00309 0.51808 0
M  V30 24294 C 2372.52 -1.66326 -0.893378 0
M  V30 24295 O 2371.87 -0.90029 -1.58748 0
M  V30 24296 C 2371.92 -3.54988 0.68306 0
M  V30 24297 O 2371.64 -3.87761 2.03895 0
M  V30 24298 C 2373.15 -4.42148 0.319317 0
M  V30 24299 H 2370.37 -0.640414 0.200277 0
M  V30 24300 H 2372.91 -1.66308 1.19004 0
M  V30 24301 H 2371.06 -3.87356 0.0584733 0
M  V30 24302 H 2371.48 -4.82462 2.05744 0
M  V30 24303 H 2372.95 -5.49859 0.485652 0
M  V30 24304 H 2373.43 -4.32876 -0.74264 0
M  V30 24305 H 2374.04 -4.15225 0.92022 0
M  V30 24306 N 2372.35 -0.645724 -1.43764 0
M  V30 24307 C 2373.76 -0.236751 -1.85193 0
M  V30 24308 C 2374.11 1.21506 -1.54047 0
M  V30 24309 O 2373.24 1.92646 -0.985727 0
M  V30 24310 C 2373.83 -0.422904 -3.3615 0
M  V30 24311 C 2372.39 -0.0683154 -3.76338 0
M  V30 24312 C 2371.54 -0.729353 -2.67536 0
M  V30 24313 H 2374.49 -0.849907 -1.34023 0
M  V30 24314 H 2374.51 0.333837 -3.79033 0
M  V30 24315 H 2374.02 -1.47964 -3.58787 0
M  V30 24316 H 2372.12 0.986116 -3.59314 0
M  V30 24317 H 2372.24 -0.488553 -4.76603 0
M  V30 24318 H 2370.6 -0.16328 -2.54176 0
M  V30 24319 H 2371.38 -1.78897 -2.93003 0
M  V30 24320 N 2373.83 1.5277 -0.38717 0
M  V30 24321 C 2375.24 1.86496 0.0873306 0
M  V30 24322 C 2375.59 1.30694 1.46334 0
M  V30 24323 O 2374.72 0.637445 2.06798 0
M  V30 24324 C 2375.31 3.38397 0.165245 0
M  V30 24325 C 2373.87 3.71841 0.584036 0
M  V30 24326 C 2373.02 2.76122 -0.255328 0
M  V30 24327 H 2375.97 1.4671 -0.60513 0
M  V30 24328 H 2375.99 3.67535 0.984783 0
M  V30 24329 H 2375.5 3.78981 -0.836368 0
M  V30 24330 H 2373.6 3.36825 1.59309 0
M  V30 24331 H 2373.71 4.77866 0.343665 0
M  V30 24332 H 2372.08 2.53166 0.279081 0
M  V30 24333 H 2372.86 3.19543 -1.25488 0
M  V30 24334 N 2375.31 0.116931 1.57166 0
M  V30 24335 C 2376.53 -0.552675 1.99901 0
M  V30 24336 C 2376.96 -1.59562 0.996067 0
M  V30 24337 O 2376.31 -1.81271 -0.0325241 0
M  V30 24338 C 2376.36 -1.15736 3.41522 0
M  V30 24339 O 2375.47 -2.27292 3.4411 0
M  V30 24340 H 2374.81 -0.138246 0.649449 0
M  V30 24341 H 2377.34 0.204795 2.03572 0
M  V30 24342 H 2377.35 -1.49339 3.79686 0
M  V30 24343 H 2376.02 -0.393421 4.14035 0
M  V30 24344 H 2374.6 -1.95144 3.17763 0
M  V30 24345 N 2376.78 -1.56818 -0.156836 0
M  V30 24346 C 2378.01 -1.86685 -0.884998 0
M  V30 24347 C 2378.42 -0.701985 -1.75695 0
M  V30 24348 O 2377.77 0.3377 -1.80569 0
M  V30 24349 C 2377.83 -3.11142 -1.80087 0
M  V30 24350 C 2377.49 -4.43388 -1.10707 0
M  V30 24351 C 2378.49 -5.17811 -0.465623 0
M  V30 24352 C 2376.17 -4.90119 -1.0995 0
M  V30 24353 C 2378.17 -6.37162 0.174114 0
M  V30 24354 C 2375.85 -6.09397 -0.455947 0
M  V30 24355 C 2376.85 -6.82763 0.179742 0
M  V30 24356 O 2376.54 -7.99777 0.813116 0
M  V30 24357 H 2376.27 -0.623246 -0.261802 0
M  V30 24358 H 2378.83 -2.04796 -0.157347 0
M  V30 24359 H 2377.06 -2.89013 -2.5692 0
M  V30 24360 H 2378.75 -3.27336 -2.40012 0
M  V30 24361 H 2379.51 -4.82782 -0.463342 0
M  V30 24362 H 2375.39 -4.32943 -1.5837 0
M  V30 24363 H 2378.93 -6.94367 0.670887 0
M  V30 24364 H 2374.83 -6.43888 -0.455862 0
M  V30 24365 H 2375.6 -8.15382 0.713803 0
M  V30 24366 N 2378.26 0.425871 -1.51737 0
M  V30 24367 C 2379.49 1.20105 -1.69084 0
M  V30 24368 C 2379.91 1.83961 -0.39243 0
M  V30 24369 O 2379.27 1.69303 0.648551 0
M  V30 24370 C 2379.32 2.25232 -2.81608 0
M  V30 24371 O 2378.42 3.30988 -2.4601 0
M  V30 24372 H 2377.76 0.35137 -0.563414 0
M  V30 24373 H 2380.29 0.501477 -1.98359 0
M  V30 24374 H 2380.3 2.69833 -3.0603 0
M  V30 24375 H 2378.98 1.78135 -3.7582 0
M  V30 24376 H 2377.56 2.91783 -2.322 0
M  V30 24377 N 2379.74 1.42077 0.682052 0
M  V30 24378 C 2380.97 1.45746 1.47556 0
M  V30 24379 C 2381.39 0.0681312 1.87977 0
M  V30 24380 O 2380.75 -0.931773 1.55524 0
M  V30 24381 C 2380.8 2.38378 2.70571 0
M  V30 24382 O 2379.9 1.85014 3.6857 0
M  V30 24383 H 2379.24 0.494101 0.443577 0
M  V30 24384 H 2381.77 1.86687 0.837206 0
M  V30 24385 H 2381.78 2.54712 3.18725 0
M  V30 24386 H 2380.46 3.39319 2.40489 0
M  V30 24387 H 2379.03 1.78198 3.27567 0
M  V30 24388 N 2381.22 -0.917649 1.28129 0
M  V30 24389 C 2382.64 -1.19536 1.05751 0
M  V30 24390 C 2382.84 -2.00479 -0.202598 0
M  V30 24391 O 2381.89 -2.35711 -0.905341 0
M  V30 24392 C 2383.2 -1.93374 2.30276 0
M  V30 24393 C 2384.75 -2.06272 2.35416 0
M  V30 24394 C 2385.23 -2.83517 3.59697 0
M  V30 24395 N 2386.72 -2.91081 3.60314 0
M  V30 24396 C 2387.45 -3.5134 4.53153 0
M  V30 24397 N 2386.95 -4.12909 5.56307 0
M  V30 24398 N 2388.74 -3.48841 4.40757 0
M  V30 24399 H 2380.89 -0.377148 2.09025 0
M  V30 24400 H 2383.16 -0.229494 0.919802 0
M  V30 24401 H 2382.86 -1.41323 3.22057 0
M  V30 24402 H 2382.74 -2.93943 2.36384 0
M  V30 24403 H 2385.12 -2.57506 1.44134 0
M  V30 24404 H 2385.2 -1.04891 2.33305 0
M  V30 24405 H 2384.85 -2.32965 4.5132 0
M  V30 24406 H 2384.78 -3.85205 3.59061 0
M  V30 24407 H 2387.27 -2.47333 2.85718 0
M  V30 24408 H 2387.58 -4.56858 6.23298 0
M  V30 24409 H 2385.93 -4.11425 5.60138 0
M  V30 24410 H 2389.12 -2.99948 3.59373 0
M  V30 24411 H 2389.29 -3.95511 5.13298 0
M  V30 24412 N 2382.7 -1.10314 -1.12555 0
M  V30 24413 C 2383.93 -0.866906 -1.87863 0
M  V30 24414 C 2384.34 0.582525 -1.79589 0
M  V30 24415 O 2383.7 1.40154 -1.1689 0
M  V30 24416 C 2383.75 -1.30502 -3.37122 0
M  V30 24417 O 2383.47 -2.69761 -3.45196 0
M  V30 24418 C 2384.97 -1.1025 -4.29371 0
M  V30 24419 H 2382.19 -0.311246 -0.594447 0
M  V30 24420 H 2384.73 -1.46748 -1.42426 0
M  V30 24421 H 2382.89 -0.748148 -3.80107 0
M  V30 24422 H 2383.3 -2.88465 -4.3805 0
M  V30 24423 H 2384.78 -1.45821 -5.32391 0
M  V30 24424 H 2385.25 -0.0410263 -4.39181 0
M  V30 24425 H 2385.86 -1.64578 -3.92166 0
M  V30 24426 N 2384.18 1.29948 -0.891694 0
M  V30 24427 C 2385.59 1.78005 -0.563136 0
M  V30 24428 C 2385.94 1.73243 0.920948 0
M  V30 24429 O 2385.06 1.3134 1.71985 0
M  V30 24430 C 2385.66 3.23225 -1.01545 0
M  V30 24431 C 2384.22 3.6909 -0.738189 0
M  V30 24432 C 2383.36 2.50246 -1.19465 0
M  V30 24433 H 2386.31 1.16723 -1.07524 0
M  V30 24434 H 2386.34 3.78912 -0.347284 0
M  V30 24435 H 2385.85 3.26658 -2.09561 0
M  V30 24436 H 2383.95 3.71138 0.329701 0
M  V30 24437 H 2384.06 4.60256 -1.33045 0
M  V30 24438 H 2382.43 2.47193 -0.613831 0
M  V30 24439 H 2383.21 2.56413 -2.2827 0
M  V30 24440 N 2385.65 0.653339 1.4342 0
M  V30 24441 C 2386.9 0.166451 2.01413 0
M  V30 24442 C 2387.22 -1.22394 1.51805 0
M  V30 24443 O 2386.49 -1.81761 0.730725 0
M  V30 24444 H 2385.07 0.058545 0.744702 0
M  V30 24445 H 2387.73 0.845034 1.75628 0
M  V30 24446 H 2386.83 0.151166 3.11734 0
M  V30 24447 N 2387.13 -1.52563 0.395266 0
M  V30 24448 C 2388.36 -2.06072 -0.184907 0
M  V30 24449 C 2388.77 -1.2665 -1.40019 0
M  V30 24450 O 2388.13 -0.314704 -1.79766 0
M  V30 24451 C 2388.18 -3.57305 -0.549116 0
M  V30 24452 O 2387.9 -4.33721 0.617889 0
M  V30 24453 C 2389.4 -4.27182 -1.18451 0
M  V30 24454 H 2386.62 -0.670477 -0.0264907 0
M  V30 24455 H 2389.17 -1.9662 0.562219 0
M  V30 24456 H 2387.32 -3.66811 -1.24614 0
M  V30 24457 H 2387.74 -5.2354 0.317183 0
M  V30 24458 H 2389.21 -5.34221 -1.38967 0
M  V30 24459 H 2389.69 -3.82774 -2.15361 0
M  V30 24460 H 2390.29 -4.22009 -0.528088 0
M  V30 24461 N 2388.61 -0.125265 -1.57101 0
M  V30 24462 C 2390.02 0.39911 -1.82384 0
M  V30 24463 C 2390.37 1.66194 -1.04279 0
M  V30 24464 O 2389.5 2.14564 -0.281307 0
M  V30 24465 C 2390.09 0.730873 -3.30823 0
M  V30 24466 C 2388.65 1.19986 -3.56764 0
M  V30 24467 C 2387.8 0.211744 -2.7649 0
M  V30 24468 H 2390.75 -0.350304 -1.54786 0
M  V30 24469 H 2390.77 1.58769 -3.45793 0
M  V30 24470 H 2390.28 -0.188413 -3.87642 0
M  V30 24471 H 2388.38 2.13583 -3.05308 0
M  V30 24472 H 2388.5 1.14085 -4.65319 0
M  V30 24473 H 2386.86 0.700042 -2.44891 0
M  V30 24474 H 2387.64 -0.70075 -3.36072 0
M  V30 24475 N 2390.09 1.56899 0.148518 0
M  V30 24476 C 2391.34 1.82904 0.859684 0
M  V30 24477 C 2391.66 0.705912 1.81774 0
M  V30 24478 O 2390.93 -0.272552 1.93995 0
M  V30 24479 H 2389.51 0.674771 0.320457 0
M  V30 24480 H 2392.17 1.94376 0.142884 0
M  V30 24481 H 2391.26 2.7778 1.42285 0
M  V30 24482 N 2391.57 -0.417818 1.51961 0
M  V30 24483 C 2392.79 -1.1875 1.69428 0
M  V30 24484 C 2393.21 -1.84514 0.399988 0
M  V30 24485 O 2392.57 -1.71528 -0.623258 0
M  V30 24486 C 2392.62 -2.25709 2.82379 0
M  V30 24487 O 2392.34 -1.62631 4.06796 0
M  V30 24488 C 2393.84 -3.15623 3.11283 0
M  V30 24489 H 2391.06 -0.357176 0.568037 0
M  V30 24490 H 2393.6 -0.492695 1.98476 0
M  V30 24491 H 2391.76 -2.90872 2.55875 0
M  V30 24492 H 2392.17 -2.33471 4.69672 0
M  V30 24493 H 2393.65 -3.86764 3.9385 0
M  V30 24494 H 2394.12 -3.77499 2.24479 0
M  V30 24495 H 2394.73 -2.56138 3.39519 0
M  V30 24496 N 2393.04 -1.42436 -0.674508 0
M  V30 24497 C 2394.45 -1.38216 -1.25512 0
M  V30 24498 C 2394.81 -0.0755809 -1.96054 0
M  V30 24499 O 2393.93 0.825665 -2.00029 0
M  V30 24500 C 2394.53 -2.50361 -2.28265 0
M  V30 24501 C 2393.08 -2.49472 -2.81852 0
M  V30 24502 C 2392.23 -2.29137 -1.56178 0
M  V30 24503 H 2395.18 -1.51646 -0.467875 0
M  V30 24504 H 2395.2 -2.20629 -3.10005 0
M  V30 24505 H 2394.72 -3.45442 -1.76894 0
M  V30 24506 H 2392.82 -1.5821 -3.37343 0
M  V30 24507 H 2392.93 -3.46521 -3.30848 0
M  V30 24508 H 2391.29 -1.77403 -1.82758 0
M  V30 24509 H 2392.08 -3.26274 -1.06773 0
M  V30 24510 N 2394.52 0.910841 -1.28614 0
M  V30 24511 C 2395.75 1.69925 -1.18913 0
M  V30 24512 C 2396.17 1.86453 0.248339 0
M  V30 24513 O 2395.53 1.37679 1.17959 0
M  V30 24514 C 2395.58 3.06742 -1.89583 0
M  V30 24515 O 2394.68 3.94394 -1.20528 0
M  V30 24516 H 2394.02 0.520215 -0.412641 0
M  V30 24517 H 2396.55 1.13867 -1.69987 0
M  V30 24518 H 2396.56 3.56955 -1.97603 0
M  V30 24519 H 2395.24 2.9403 -2.94142 0
M  V30 24520 H 2393.81 3.52829 -1.2069 0
M  V30 24521 N 2396 1.10909 1.11969 0
M  V30 24522 C 2397.23 0.875586 1.87128 0
M  V30 24523 C 2397.64 -0.577811 1.80161 0
M  V30 24524 O 2396.98 -1.4104 1.17701 0
M  V30 24525 C 2397.04 1.25176 3.37003 0
M  V30 24526 C 2396.71 2.71319 3.67743 0
M  V30 24527 C 2397.7 3.69548 3.65691 0
M  V30 24528 C 2395.39 3.07828 3.96923 0
M  V30 24529 C 2397.38 5.02307 3.92386 0
M  V30 24530 C 2395.07 4.40773 4.23276 0
M  V30 24531 C 2396.07 5.37821 4.20995 0
M  V30 24532 O 2395.76 6.68372 4.46692 0
M  V30 24533 H 2395.49 0.313747 0.598781 0
M  V30 24534 H 2398.04 1.47866 1.42566 0
M  V30 24535 H 2396.27 0.591809 3.82145 0
M  V30 24536 H 2397.96 0.994946 3.93517 0
M  V30 24537 H 2398.73 3.42688 3.43205 0
M  V30 24538 H 2394.61 2.32909 3.97837 0
M  V30 24539 H 2398.15 5.78048 3.90521 0
M  V30 24540 H 2394.05 4.67369 4.45237 0
M  V30 24541 H 2394.82 6.74077 4.64287 0
M  V30 24542 N 2397.48 -1.29474 0.898573 0
M  V30 24543 C 2398.89 -1.77704 0.572568 0
M  V30 24544 C 2399.24 -1.73729 -0.911747 0
M  V30 24545 O 2398.37 -1.3225 -1.71286 0
M  V30 24546 C 2398.96 -3.22682 1.03257 0
M  V30 24547 C 2397.52 -3.68694 0.757752 0
M  V30 24548 C 2396.67 -2.49609 1.20791 0
M  V30 24549 H 2399.62 -1.16151 1.08141 0
M  V30 24550 H 2399.64 -3.78722 0.367374 0
M  V30 24551 H 2399.15 -3.25543 2.11291 0
M  V30 24552 H 2397.25 -3.71308 -0.310014 0
M  V30 24553 H 2397.36 -4.59544 1.35484 0
M  V30 24554 H 2395.73 -2.46864 0.626931 0
M  V30 24555 H 2396.51 -2.55199 2.29626 0
M  V30 24556 N 2398.96 -0.660936 -1.43071 0
M  V30 24557 C 2400.37 -0.3292 -1.56168 0
M  V30 24558 C 2400.57 1.16626 -1.64319 0
M  V30 24559 O 2399.63 1.95132 -1.60249 0
M  V30 24560 C 2400.94 -1.04734 -2.81871 0
M  V30 24561 C 2402.49 -1.02833 -2.95625 0
M  V30 24562 C 2402.96 -1.72752 -4.24171 0
M  V30 24563 N 2404.46 -1.69553 -4.31052 0
M  V30 24564 C 2405.19 -2.20521 -5.293 0
M  V30 24565 N 2404.69 -2.7981 -6.33781 0
M  V30 24566 N 2406.48 -2.10975 -5.21005 0
M  V30 24567 H 2398.63 -1.63129 -1.36024 0
M  V30 24568 H 2400.89 -0.686466 -0.653811 0
M  V30 24569 H 2400.6 -2.10247 -2.81938 0
M  V30 24570 H 2400.47 -0.603768 -3.72337 0
M  V30 24571 H 2402.86 0.0184224 -2.95094 0
M  V30 24572 H 2402.94 -1.51066 -2.06428 0
M  V30 24573 H 2402.59 -2.77388 -4.25463 0
M  V30 24574 H 2402.52 -1.21979 -5.12278 0
M  V30 24575 H 2405.01 -1.26295 -3.56171 0
M  V30 24576 H 2405.32 -3.16357 -7.0508 0
M  V30 24577 H 2403.66 -2.83874 -6.34382 0
M  V30 24578 H 2406.86 -1.64355 -4.38298 0
M  V30 24579 H 2407.03 -2.51004 -5.97412 0
M  V30 24580 N 2400.43 1.52351 -0.403352 0
M  V30 24581 C 2401.66 2.06167 0.173976 0
M  V30 24582 C 2402.08 1.27391 1.39345 0
M  V30 24583 O 2401.43 0.324233 1.79597 0
M  V30 24584 C 2401.49 3.57591 0.53016 0
M  V30 24585 O 2401.21 4.33387 -0.640882 0
M  V30 24586 C 2402.71 4.27804 1.16184 0
M  V30 24587 H 2399.93 0.670608 0.0229346 0
M  V30 24588 H 2402.47 1.96319 -0.572638 0
M  V30 24589 H 2400.63 3.67466 1.22667 0
M  V30 24590 H 2401.04 5.23364 -0.344943 0
M  V30 24591 H 2402.51 5.34951 1.36132 0
M  V30 24592 H 2402.99 3.83911 2.13328 0
M  V30 24593 H 2403.6 4.22283 0.505701 0
M  V30 24594 N 2401.91 0.133594 1.57033 0
M  V30 24595 C 2403.32 -0.389432 1.82593 0
M  V30 24596 C 2403.67 -1.65638 1.05159 0
M  V30 24597 O 2402.8 -2.14412 0.292682 0
M  V30 24598 C 2403.39 -0.713319 3.31206 0
M  V30 24599 C 2401.95 -1.18092 3.57395 0
M  V30 24600 C 2401.1 -0.197078 2.76599 0
M  V30 24601 H 2404.05 0.358508 1.54598 0
M  V30 24602 H 2404.07 -1.56933 3.4663 0
M  V30 24603 H 2403.58 0.208968 3.87537 0
M  V30 24604 H 2401.69 -2.11961 3.06437 0
M  V30 24605 H 2401.8 -1.11616 4.65917 0
M  V30 24606 H 2400.16 -0.687045 2.45259 0
M  V30 24607 H 2400.95 0.718563 3.35696 0
M  V30 24608 N 2403.39 -1.56975 -0.140195 0
M  V30 24609 C 2404.34 -1.95196 -1.17824 0
M  V30 24610 C 2405.32 -0.8241 -1.38193 0
M  V30 24611 O 2406.52 -1.08762 -1.39641 0
M  V30 24612 C 2403.65 -2.34188 -2.5102 0
M  V30 24613 C 2402.73 -3.5356 -2.34214 0
M  V30 24614 N 2403.12 -4.69892 -1.87176 0
M  V30 24615 C 2401.42 -3.58778 -2.64943 0
M  V30 24616 C 2402.12 -5.51973 -1.83576 0
M  V30 24617 N 2401.1 -4.9387 -2.27141 0
M  V30 24618 H 2404.9 -2.8261 -0.806767 0
M  V30 24619 H 2402.41 -1.58624 -0.34818 0
M  V30 24620 H 2404.41 -2.59778 -3.26069 0
M  V30 24621 H 2403.07 -1.48129 -2.88943 0
M  V30 24622 H 2404.08 -4.93517 -1.5704 0
M  V30 24623 H 2400.76 -2.83275 -3.06695 0
M  V30 24624 H 2402.15 -6.55252 -1.48643 0
M  V30 24625 N 2404.87 0.409753 -1.5218 0
M  V30 24626 C 2406.1 1.1785 -1.70056 0
M  V30 24627 C 2406.51 1.843 -0.409767 0
M  V30 24628 O 2405.87 1.71856 0.614153 0
M  V30 24629 C 2405.92 2.24208 -2.83572 0
M  V30 24630 O 2405.64 1.60471 -4.07653 0
M  V30 24631 C 2407.14 3.13968 -3.12952 0
M  V30 24632 H 2404.36 0.354159 -0.569923 0
M  V30 24633 H 2406.91 0.482163 -1.98735 0
M  V30 24634 H 2405.06 2.89511 -2.57414 0
M  V30 24635 H 2405.47 2.30977 -4.70903 0
M  V30 24636 H 2406.95 3.8467 -3.95896 0
M  V30 24637 H 2407.43 3.76303 -2.26478 0
M  V30 24638 H 2408.03 2.54334 -3.40873 0
M  V30 24639 N 2406.35 1.42792 0.666944 0
M  V30 24640 C 2407.76 1.3888 1.24777 0
M  V30 24641 C 2408.11 0.0859771 1.96012 0
M  V30 24642 O 2407.23 -0.815046 2.00464 0
M  V30 24643 C 2407.83 2.51568 2.26934 0
M  V30 24644 C 2406.39 2.50963 2.80525 0
M  V30 24645 C 2405.53 2.29962 1.54961 0
M  V30 24646 H 2408.49 1.51892 0.459826 0
M  V30 24647 H 2408.51 2.2227 3.08831 0
M  V30 24648 H 2408.02 3.46375 1.75059 0
M  V30 24649 H 2406.12 1.59997 3.36499 0
M  V30 24650 H 2406.23 3.4827 3.29005 0
M  V30 24651 H 2404.6 1.7837 1.81814 0
M  V30 24652 H 2405.38 3.26835 1.05041 0
M  V30 24653 N 2407.82 -0.904008 1.29095 0
M  V30 24654 C 2409.07 -1.65083 1.16585 0
M  V30 24655 C 2409.39 -1.92922 -0.283899 0
M  V30 24656 O 2408.66 -1.55226 -1.19506 0
M  V30 24657 H 2407.24 -0.611895 0.428478 0
M  V30 24658 H 2409.91 -1.08419 1.61961 0
M  V30 24659 H 2409 -2.60907 1.71271 0
M  V30 24660 N 2409.3 -1.11501 -1.11379 0
M  V30 24661 C 2410.53 -0.886783 -1.86933 0
M  V30 24662 C 2410.95 0.563445 -1.80196 0
M  V30 24663 O 2410.3 1.38906 -1.1837 0
M  V30 24664 C 2410.35 -1.3407 -3.35719 0
M  V30 24665 O 2410.07 -2.73407 -3.42316 0
M  V30 24666 C 2411.58 -1.14798 -4.28178 0
M  V30 24667 H 2408.8 -0.317534 -0.591112 0
M  V30 24668 H 2411.34 -1.4825 -1.40862 0
M  V30 24669 H 2409.49 -0.788421 -3.79292 0
M  V30 24670 H 2409.91 -2.93095 -4.34966 0
M  V30 24671 H 2411.38 -1.51459 -5.30815 0
M  V30 24672 H 2411.86 -0.087605 -4.39113 0
M  V30 24673 H 2412.47 -1.68728 -3.90399 0
M  V30 24674 N 2410.78 1.28995 -0.905426 0
M  V30 24675 C 2412.19 1.77397 -0.581984 0
M  V30 24676 C 2412.54 1.7421 0.902521 0
M  V30 24677 O 2411.67 1.33157 1.70582 0
M  V30 24678 C 2412.26 3.22129 -1.04967 0
M  V30 24679 C 2410.82 3.68287 -0.777294 0
M  V30 24680 C 2409.97 2.48965 -1.22113 0
M  V30 24681 H 2412.92 1.15576 -1.08756 0
M  V30 24682 H 2412.94 3.78522 -0.387453 0
M  V30 24683 H 2412.45 3.24417 -2.13014 0
M  V30 24684 H 2410.55 3.71467 0.290318 0
M  V30 24685 H 2410.67 4.58819 -1.3792 0
M  V30 24686 H 2409.03 2.46528 -0.640014 0
M  V30 24687 H 2409.81 2.53978 -2.30977 0
M  V30 24688 N 2412.26 0.668514 1.42719 0
M  V30 24689 C 2413.21 -0.0137083 2.30796 0
M  V30 24690 C 2414.18 -0.799151 1.45612 0
M  V30 24691 O 2415.36 -0.772671 1.74455 0
M  V30 24692 C 2412.5 -0.963448 3.31378 0
M  V30 24693 C 2411.61 -0.172493 4.31655 0
M  V30 24694 C 2410.75 -1.11741 5.19314 0
M  V30 24695 C 2409.79 -0.317779 6.11275 0
M  V30 24696 N 2408.93 -1.21508 6.91506 0
M  V30 24697 H 2413.77 0.743212 2.88583 0
M  V30 24698 H 2411.3 0.378251 1.42154 0
M  V30 24699 H 2413.26 -1.52785 3.88217 0
M  V30 24700 H 2411.89 -1.68707 2.75205 0
M  V30 24701 H 2410.94 0.50844 3.76987 0
M  V30 24702 H 2412.25 0.448615 4.96779 0
M  V30 24703 H 2411.41 -1.75195 5.80854 0
M  V30 24704 H 2410.15 -1.77241 4.54353 0
M  V30 24705 H 2409.15 0.330014 5.48809 0
M  V30 24706 H 2410.38 0.333036 6.78283 0
M  V30 24707 H 2408.32 -1.8566 6.29179 0
M  V30 24708 H 2408.24 -0.648903 7.5321 0
M  V30 24709 H 2409.51 -1.83729 7.57538 0
M  V30 24710 N 2413.74 -1.52135 0.411426 0
M  V30 24711 C 2414.96 -2.06739 -0.165502 0
M  V30 24712 C 2415.39 -1.27929 -1.37898 0
M  V30 24713 O 2414.75 -0.310146 -1.78628 0
M  V30 24714 C 2414.79 -3.57227 -0.492061 0
M  V30 24715 O 2413.9 -3.80821 -1.5827 0
M  V30 24716 H 2413.24 -0.663869 -0.0132016 0
M  V30 24717 H 2415.77 -1.9605 0.585287 0
M  V30 24718 H 2415.78 -4.01047 -0.750033 0
M  V30 24719 H 2414.45 -4.1402 0.394995 0
M  V30 24720 H 2413.03 -3.4888 -1.31671 0
M  V30 24721 N 2415.22 -0.14192 -1.5696 0
M  V30 24722 C 2416.18 0.785549 -2.15318 0
M  V30 24723 C 2417.18 1.17878 -1.09368 0
M  V30 24724 O 2418.37 1.10053 -1.35033 0
M  V30 24725 C 2415.5 2.06532 -2.71214 0
M  V30 24726 H 2416.69 0.277988 -2.98609 0
M  V30 24727 H 2414.25 0.107491 -1.5593 0
M  V30 24728 H 2414.98 2.61667 -1.91575 0
M  V30 24729 H 2414.77 1.79262 -3.48723 0
M  V30 24730 H 2416.26 2.72784 -3.16194 0
M  V30 24731 N 2416.69 1.57047 0.131868 0
M  V30 24732 C 2417.94 1.83358 0.840408 0
M  V30 24733 C 2418.26 0.725567 1.81645 0
M  V30 24734 O 2419.46 0.874704 2.57024 0
M  V30 24735 C 2417.92 3.2504 1.54522 0
M  V30 24736 C 2417.53 4.43816 0.610823 0
M  V30 24737 C 2419.27 3.6061 2.23965 0
M  V30 24738 C 2417.18 5.76523 1.31813 0
M  V30 24739 H 2416.11 0.683853 0.317587 0
M  V30 24740 H 2418.76 1.83264 0.0931239 0
M  V30 24741 H 2417.14 3.19565 2.33867 0
M  V30 24742 H 2418.31 4.60561 -0.148488 0
M  V30 24743 H 2416.63 4.16393 0.0240284 0
M  V30 24744 H 2419.23 4.57023 2.7755 0
M  V30 24745 H 2419.57 2.87409 3.01168 0
M  V30 24746 H 2420.1 3.67812 1.51522 0
M  V30 24747 H 2416.84 6.52861 0.587656 0
M  V30 24748 H 2416.36 5.63688 2.04977 0
M  V30 24749 H 2418.04 6.19841 1.85489 0
M  V30 24750 N 2418.17 -0.401677 1.52395 0
M  V30 24751 C 2419.1 -1.49658 1.79234 0
M  V30 24752 C 2420.08 -1.57451 0.643682 0
M  V30 24753 O 2421.27 -1.72604 0.89002 0
M  V30 24754 C 2418.4 -2.87405 1.94976 0
M  V30 24755 C 2417.35 -2.94459 3.10609 0
M  V30 24756 C 2416.68 -4.34533 3.11585 0
M  V30 24757 C 2417.98 -2.65262 4.49926 0
M  V30 24758 H 2419.67 -1.27449 2.70919 0
M  V30 24759 H 2417.22 -0.611677 1.30363 0
M  V30 24760 H 2419.17 -3.63995 2.12334 0
M  V30 24761 H 2417.89 -3.10924 0.999687 0
M  V30 24762 H 2416.55 -2.20316 2.93013 0
M  V30 24763 H 2416.2 -4.55072 2.14285 0
M  V30 24764 H 2415.9 -4.40176 3.89255 0
M  V30 24765 H 2417.43 -5.13047 3.31082 0
M  V30 24766 H 2418.84 -3.31573 4.67689 0
M  V30 24767 H 2417.24 -2.82271 5.29569 0
M  V30 24768 H 2418.31 -1.60663 4.5751 0
M  V30 24769 N 2419.65 -1.43144 -0.659362 0
M  V30 24770 C 2420.9 -1.44649 -1.42142 0
M  V30 24771 C 2421.23 -0.0682248 -1.9408 0
M  V30 24772 O 2420.5 0.909977 -1.719 0
M  V30 24773 C 2420.79 -2.48378 -2.60731 0
M  V30 24774 C 2420.64 -3.95455 -2.14325 0
M  V30 24775 C 2421.96 -2.48913 -3.62947 0
M  V30 24776 H 2419.08 -0.526705 -0.515511 0
M  V30 24777 H 2421.72 -1.74655 -0.748038 0
M  V30 24778 H 2419.87 -2.22921 -3.1818 0
M  V30 24779 H 2421.54 -4.31947 -1.61925 0
M  V30 24780 H 2419.78 -4.08581 -1.45753 0
M  V30 24781 H 2420.46 -4.63637 -2.99575 0
M  V30 24782 H 2422.93 -2.71587 -3.15245 0
M  V30 24783 H 2421.81 -3.23443 -4.43482 0
M  V30 24784 H 2422.07 -1.52068 -4.15124 0
M  V30 24785 N 2421.13 0.897149 -1.29572 0
M  V30 24786 C 2422.54 1.46317 -1.15967 0
M  V30 24787 C 2422.89 1.94674 0.244233 0
M  V30 24788 O 2422.01 1.83941 1.13995 0
M  V30 24789 C 2422.61 2.65938 -2.0991 0
M  V30 24790 C 2421.17 3.18668 -2.00319 0
M  V30 24791 C 2420.32 1.9136 -2.00691 0
M  V30 24792 H 2423.27 0.708243 -1.4202 0
M  V30 24793 H 2423.29 3.41756 -1.67282 0
M  V30 24794 H 2422.8 2.30712 -3.12079 0
M  V30 24795 H 2420.9 3.5858 -1.01248 0
M  V30 24796 H 2421.01 3.82793 -2.88109 0
M  V30 24797 H 2419.38 2.09173 -1.45323 0
M  V30 24798 H 2420.16 1.58407 -3.04568 0
M  V30 24799 N 2422.61 1.1209 1.10786 0
M  V30 24800 C 2423.83 0.896981 1.87 0
M  V30 24801 C 2424.26 -0.548229 1.79933 0
M  V30 24802 O 2423.61 -1.38777 1.16665 0
M  V30 24803 C 2423.66 1.3718 3.33488 0
M  V30 24804 O 2422.77 0.547903 4.08744 0
M  V30 24805 H 2422.11 0.322555 0.580391 0
M  V30 24806 H 2424.64 1.49208 1.39993 0
M  V30 24807 H 2424.65 1.36928 3.84337 0
M  V30 24808 H 2423.32 2.42414 3.37947 0
M  V30 24809 H 2421.9 0.617098 3.67758 0
M  V30 24810 N 2424.08 -1.28513 0.912254 0
M  V30 24811 C 2424.99 -2.31086 0.404547 0
M  V30 24812 C 2426.01 -1.66448 -0.50704 0
M  V30 24813 O 2427.19 -1.97517 -0.393589 0
M  V30 24814 C 2424.25 -3.44944 -0.348512 0
M  V30 24815 C 2423.31 -4.25141 0.596114 0
M  V30 24816 C 2422.54 -5.33563 -0.1211 0
M  V30 24817 O 2422.77 -5.54363 -1.34307 0
M  V30 24818 O 2421.7 -5.99447 0.542822 0
M  V30 24819 H 2425.53 -2.76519 1.25583 0
M  V30 24820 H 2423.11 -1.33179 0.677022 0
M  V30 24821 H 2424.99 -4.14233 -0.773877 0
M  V30 24822 H 2423.67 -3.01596 -1.17566 0
M  V30 24823 H 2422.58 -3.58446 1.07085 0
M  V30 24824 H 2423.91 -4.72164 1.39003 0
M  V30 24825 N 2425.56 -0.676073 -1.42362 0
M  V30 24826 C 2426.51 0.00146847 -2.308 0
M  V30 24827 C 2427.48 0.791418 -1.46034 0
M  V30 24828 O 2428.66 0.763409 -1.74862 0
M  V30 24829 C 2425.8 0.945861 -3.31885 0
M  V30 24830 C 2424.92 0.149599 -4.31741 0
M  V30 24831 C 2424.05 1.08986 -5.199 0
M  V30 24832 C 2423.09 0.285357 -6.11434 0
M  V30 24833 N 2422.23 1.17839 -6.9214 0
M  V30 24834 H 2427.07 -0.758505 -2.88185 0
M  V30 24835 H 2424.61 -0.385785 -1.41951 0
M  V30 24836 H 2426.56 1.50724 -3.89022 0
M  V30 24837 H 2425.19 1.67245 -2.76096 0
M  V30 24838 H 2424.25 -0.528425 -3.76712 0
M  V30 24839 H 2425.56 -0.474954 -4.96534 0
M  V30 24840 H 2424.71 1.72113 -5.81775 0
M  V30 24841 H 2423.45 1.74829 -4.55287 0
M  V30 24842 H 2422.46 -0.359114 -5.48626 0
M  V30 24843 H 2423.68 -0.369002 -6.78097 0
M  V30 24844 H 2421.63 1.82321 -6.30155 0
M  V30 24845 H 2421.54 0.60895 -7.53543 0
M  V30 24846 H 2422.81 1.79709 -7.58502 0
M  V30 24847 N 2427.04 1.51915 -0.419488 0
M  V30 24848 C 2427.99 2.27292 0.400887 0
M  V30 24849 C 2428.96 1.30133 1.03221 0
M  V30 24850 O 2430.14 1.59011 1.05452 0
M  V30 24851 C 2427.28 3.10507 1.50597 0
M  V30 24852 C 2426.4 4.22637 0.894546 0
M  V30 24853 C 2425.53 4.93192 1.97319 0
M  V30 24854 C 2424.57 5.97269 1.33925 0
M  V30 24855 N 2423.71 6.61302 2.35848 0
M  V30 24856 H 2428.55 2.96964 -0.248304 0
M  V30 24857 H 2426.08 1.46486 -0.134292 0
M  V30 24858 H 2428.04 3.57066 2.15777 0
M  V30 24859 H 2426.67 2.42985 2.12505 0
M  V30 24860 H 2425.72 3.80173 0.131516 0
M  V30 24861 H 2427.04 4.97261 0.391553 0
M  V30 24862 H 2426.19 5.43209 2.70202 0
M  V30 24863 H 2424.93 4.18159 2.50987 0
M  V30 24864 H 2423.93 5.46562 0.5958 0
M  V30 24865 H 2425.16 6.7425 0.810133 0
M  V30 24866 H 2423.1 5.89092 2.88629 0
M  V30 24867 H 2423.02 7.31633 1.9039 0
M  V30 24868 H 2424.29 7.15954 3.08269 0
M  V30 24869 N 2428.52 0.150242 1.56882 0
M  V30 24870 C 2429.76 -0.500799 1.96519 0
M  V30 24871 C 2430.1 -1.64302 1.0353 0
M  V30 24872 O 2429.37 -1.94342 0.0783093 0
M  V30 24873 C 2429.66 -1.00389 3.45824 0
M  V30 24874 C 2429.51 0.137062 4.49591 0
M  V30 24875 C 2430.83 -1.8846 3.97707 0
M  V30 24876 H 2427.95 -0.180568 0.714538 0
M  V30 24877 H 2430.59 0.232124 1.88577 0
M  V30 24878 H 2428.74 -1.62845 3.52723 0
M  V30 24879 H 2430.41 0.77351 4.54769 0
M  V30 24880 H 2428.65 0.795727 4.26439 0
M  V30 24881 H 2429.32 -0.256718 5.51403 0
M  V30 24882 H 2431.8 -1.35827 3.93307 0
M  V30 24883 H 2430.68 -2.20569 5.02634 0
M  V30 24884 H 2430.94 -2.82273 3.40257 0
M  V30 24885 N 2430 -1.57115 -0.123538 0
M  V30 24886 C 2430.96 -1.99078 -1.1358 0
M  V30 24887 C 2431.96 -0.88032 -1.34562 0
M  V30 24888 O 2433.15 -1.14646 -1.31156 0
M  V30 24889 C 2430.28 -2.32702 -2.49124 0
M  V30 24890 H 2431.47 -2.89707 -0.775236 0
M  V30 24891 H 2429.03 -1.51914 -0.367683 0
M  V30 24892 H 2429.76 -1.44939 -2.90109 0
M  V30 24893 H 2429.55 -3.13688 -2.35249 0
M  V30 24894 H 2431.04 -2.65924 -3.21985 0
M  V30 24895 N 2431.47 0.393589 -1.52606 0
M  V30 24896 C 2432.72 1.13624 -1.66651 0
M  V30 24897 C 2433.04 1.91246 -0.410397 0
M  V30 24898 O 2434.24 2.68059 -0.430901 0
M  V30 24899 C 2432.7 2.06886 -2.94493 0
M  V30 24900 C 2432.31 1.34707 -4.27268 0
M  V30 24901 C 2434.05 2.81314 -3.17904 0
M  V30 24902 C 2431.96 2.26708 -5.46221 0
M  V30 24903 H 2430.89 0.427861 -0.620847 0
M  V30 24904 H 2433.54 0.399396 -1.79101 0
M  V30 24905 H 2431.92 2.84186 -2.75779 0
M  V30 24906 H 2433.09 0.626634 -4.56519 0
M  V30 24907 H 2431.41 0.722571 -4.10083 0
M  V30 24908 H 2434.01 3.50321 -4.03955 0
M  V30 24909 H 2434.35 3.45135 -2.32783 0
M  V30 24910 H 2434.88 2.11107 -3.37162 0
M  V30 24911 H 2431.62 1.67509 -6.33736 0
M  V30 24912 H 2431.14 2.9668 -5.21288 0
M  V30 24913 H 2432.82 2.86893 -5.79915 0
M  V30 24914 N 2432.95 1.43492 0.651762 0
M  V30 24915 C 2434.2 1.44472 1.40751 0
M  V30 24916 C 2434.51 0.0732189 1.95463 0
M  V30 24917 O 2435.72 -0.0395244 2.71471 0
M  V30 24918 C 2434.18 2.54244 2.54731 0
M  V30 24919 C 2433.78 3.97507 2.06621 0
M  V30 24920 C 2435.53 2.6442 3.32088 0
M  V30 24921 C 2433.44 4.98743 3.1782 0
M  V30 24922 H 2432.37 0.53743 0.528853 0
M  V30 24923 H 2435.02 1.69486 0.703335 0
M  V30 24924 H 2433.4 2.22434 3.27626 0
M  V30 24925 H 2434.57 4.38785 1.40727 0
M  V30 24926 H 2432.89 3.91389 1.42139 0
M  V30 24927 H 2435.48 3.3723 4.14946 0
M  V30 24928 H 2435.83 1.69538 3.80214 0
M  V30 24929 H 2436.36 2.95539 2.66274 0
M  V30 24930 H 2433.1 5.95182 2.74661 0
M  V30 24931 H 2432.62 4.62076 3.82421 0
M  V30 24932 H 2434.3 5.21512 3.82928 0
M  V30 24933 N 2434.43 -0.890264 1.30046 0
M  V30 24934 C 2435.85 -1.17266 1.08263 0
M  V30 24935 C 2436.05 -2.00864 -0.160028 0
M  V30 24936 O 2435.1 -2.37579 -0.855139 0
M  V30 24937 C 2436.42 -1.88446 2.34326 0
M  V30 24938 C 2437.96 -2.01232 2.39738 0
M  V30 24939 C 2438.44 -2.75824 3.6563 0
M  V30 24940 N 2439.93 -2.83373 3.66407 0
M  V30 24941 C 2440.66 -3.41649 4.60504 0
M  V30 24942 N 2440.16 -4.01016 5.6494 0
M  V30 24943 N 2441.95 -3.39413 4.48057 0
M  V30 24944 H 2434.1 -0.332726 2.09778 0
M  V30 24945 H 2436.37 -0.209932 0.924463 0
M  V30 24946 H 2436.07 -1.3446 3.24982 0
M  V30 24947 H 2435.95 -2.88863 2.42565 0
M  V30 24948 H 2438.33 -2.54391 1.49564 0
M  V30 24949 H 2438.42 -0.99919 2.35478 0
M  V30 24950 H 2438.06 -2.23339 4.5616 0
M  V30 24951 H 2437.99 -3.77502 3.67151 0
M  V30 24952 H 2440.48 -2.41217 2.909 0
M  V30 24953 H 2440.79 -4.43534 6.32849 0
M  V30 24954 H 2439.14 -3.99451 5.68739 0
M  V30 24955 H 2442.33 -2.92258 3.65654 0
M  V30 24956 H 2442.5 -3.84535 5.21572 0
M  V30 24957 N 2435.91 -1.12676 -1.1019 0
M  V30 24958 C 2437.14 -0.90656 -1.85981 0
M  V30 24959 C 2437.55 0.544301 -1.80784 0
M  V30 24960 O 2436.91 1.37643 -1.19836 0
M  V30 24961 C 2436.96 -1.37623 -3.34278 0
M  V30 24962 O 2436.68 -2.77023 -3.39396 0
M  V30 24963 C 2438.18 -1.19333 -4.26936 0
M  V30 24964 H 2435.4 -0.323786 -0.587711 0
M  V30 24965 H 2437.95 -1.49736 -1.39282 0
M  V30 24966 H 2436.1 -0.828606 -3.78435 0
M  V30 24967 H 2436.51 -2.97692 -4.31833 0
M  V30 24968 H 2437.99 -1.57081 -5.29178 0
M  V30 24969 H 2438.47 -0.134174 -4.38995 0
M  V30 24970 H 2439.07 -1.72859 -3.88587 0
M  V30 24971 N 2437.39 1.28028 -0.919057 0
M  V30 24972 C 2438.8 1.7677 -0.600766 0
M  V30 24973 C 2439.15 1.75157 0.883993 0
M  V30 24974 O 2438.27 1.34958 1.6916 0
M  V30 24975 C 2438.87 3.20998 -1.08378 0
M  V30 24976 C 2437.43 3.67442 -0.816312 0
M  V30 24977 C 2436.57 2.47656 -1.24747 0
M  V30 24978 H 2439.53 1.14416 -1.09976 0
M  V30 24979 H 2439.55 3.7809 -0.427579 0
M  V30 24980 H 2439.06 3.2214 -2.16443 0
M  V30 24981 H 2437.16 3.71754 0.250903 0
M  V30 24982 H 2437.27 4.57331 -1.42778 0
M  V30 24983 H 2435.64 2.45835 -0.666126 0
M  V30 24984 H 2436.42 2.51514 -2.33657 0
M  V30 24985 N 2438.86 0.683613 1.42002 0
M  V30 24986 C 2440.28 0.285769 1.845 0
M  V30 24987 C 2440.63 -1.17379 1.57215 0
M  V30 24988 O 2439.75 -1.89965 1.03646 0
M  V30 24989 C 2440.35 0.51188 3.34911 0
M  V30 24990 C 2438.91 0.168071 3.76025 0
M  V30 24991 C 2438.05 0.80003 2.65509 0
M  V30 24992 H 2441 0.885142 1.31723 0
M  V30 24993 H 2441.02 -0.233226 3.79785 0
M  V30 24994 H 2440.54 1.57425 3.54738 0
M  V30 24995 H 2438.64 -0.890504 3.61802 0
M  V30 24996 H 2438.75 0.614744 4.7514 0
M  V30 24997 H 2437.11 0.230613 2.53654 0
M  V30 24998 H 2437.9 1.86603 2.88157 0
M  V30 24999 N 2440.34 -1.5169 0.427538 0
M  V30 25000 C 2441.29 -2.27501 -0.388827 0
M  V30 25001 C 2442.26 -1.30679 -1.0253 0
M  V30 25002 O 2443.45 -1.59568 -1.04607 0
M  V30 25003 C 2440.59 -3.11301 -1.48949 0
M  V30 25004 C 2439.7 -4.23105 -0.87212 0
M  V30 25005 C 2438.83 -4.94232 -1.94701 0
M  V30 25006 C 2437.87 -5.97971 -1.30755 0
M  V30 25007 N 2437.01 -6.62543 -2.32338 0
M  V30 25008 H 2441.85 -2.96828 0.264049 0
M  V30 25009 H 2439.39 -1.46412 0.142058 0
M  V30 25010 H 2441.34 -3.58205 -2.13881 0
M  V30 25011 H 2439.97 -2.44108 -2.11213 0
M  V30 25012 H 2439.03 -3.80237 -0.111352 0
M  V30 25013 H 2440.34 -4.97461 -0.365177 0
M  V30 25014 H 2439.49 -5.44634 -2.67317 0
M  V30 25015 H 2438.23 -4.19484 -2.48766 0
M  V30 25016 H 2437.24 -5.46871 -0.566806 0
M  V30 25017 H 2438.46 -6.74671 -0.774365 0
M  V30 25018 H 2436.41 -5.90614 -2.85501 0
M  V30 25019 H 2436.32 -7.32633 -1.86507 0
M  V30 25020 H 2437.59 -7.17579 -3.04468 0
M  V30 25021 N 2441.82 -0.15856 -1.568 0
M  V30 25022 C 2443.05 0.49948 -2.01296 0
M  V30 25023 C 2443.47 1.56865 -1.03802 0
M  V30 25024 O 2442.83 1.81293 -0.0155481 0
M  V30 25025 C 2442.88 1.0664 -3.44471 0
M  V30 25026 O 2441.98 2.18089 -3.50016 0
M  V30 25027 H 2441.32 0.120979 -0.652886 0
M  V30 25028 H 2443.85 -0.258697 -2.02958 0
M  V30 25029 H 2443.86 1.3922 -3.83512 0
M  V30 25030 H 2442.54 0.283508 -4.14933 0
M  V30 25031 H 2441.11 1.86651 -3.22825 0
M  V30 25032 N 2443.3 1.57178 0.115204 0
M  V30 25033 C 2444.71 1.74189 0.671939 0
M  V30 25034 C 2445.06 0.777809 1.80124 0
M  V30 25035 O 2444.19 -0.0483996 2.16346 0
M  V30 25036 C 2444.78 3.15852 1.22567 0
M  V30 25037 C 2443.34 3.34356 1.72866 0
M  V30 25038 C 2442.49 2.7005 0.629924 0
M  V30 25039 H 2445.44 1.58313 -0.11074 0
M  V30 25040 H 2445.46 3.17613 2.09529 0
M  V30 25041 H 2444.97 3.85996 0.40353 0
M  V30 25042 H 2443.07 2.6926 2.57545 0
M  V30 25043 H 2443.19 4.42545 1.83549 0
M  V30 25044 H 2441.55 2.3139 1.06446 0
M  V30 25045 H 2442.33 3.42821 -0.181302 0
M  V30 25046 N 2444.78 -0.38549 1.52813 0
M  V30 25047 C 2445.74 -1.45382 1.77191 0
M  V30 25048 C 2446.74 -1.47429 0.641979 0
M  V30 25049 O 2447.93 -1.48538 0.910059 0
M  V30 25050 C 2445.06 -2.84647 1.87587 0
M  V30 25051 H 2446.26 -1.25049 2.72585 0
M  V30 25052 H 2443.81 -0.617442 1.43587 0
M  V30 25053 H 2444.54 -3.1032 0.941903 0
M  V30 25054 H 2444.33 -2.84562 2.69753 0
M  V30 25055 H 2445.82 -3.6205 2.08109 0
M  V30 25056 N 2446.26 -1.43835 -0.644143 0
M  V30 25057 C 2447.48 -1.4939 -1.43144 0
M  V30 25058 C 2447.9 -0.114616 -1.88452 0
M  V30 25059 O 2447.26 0.876961 -1.60049 0
M  V30 25060 C 2447.31 -2.44753 -2.66042 0
M  V30 25061 O 2447.03 -3.77318 -2.22627 0
M  V30 25062 C 2448.53 -2.59641 -3.59307 0
M  V30 25063 H 2445.75 -0.507085 -0.439438 0
M  V30 25064 H 2448.29 -1.8867 -0.788917 0
M  V30 25065 H 2446.45 -2.08644 -3.26415 0
M  V30 25066 H 2446.86 -4.28685 -3.02208 0
M  V30 25067 H 2448.34 -3.30424 -4.42181 0
M  V30 25068 H 2448.81 -1.64435 -4.07257 0
M  V30 25069 H 2449.42 -2.96599 -3.0481 0
M  V30 25070 N 2447.73 0.883355 -1.30517 0
M  V30 25071 C 2449.14 1.45079 -1.17512 0
M  V30 25072 C 2449.5 1.94922 0.223571 0
M  V30 25073 O 2448.62 1.85139 1.12037 0
M  V30 25074 C 2449.22 2.63697 -2.12719 0
M  V30 25075 C 2447.77 3.16525 -2.03688 0
M  V30 25076 C 2446.92 1.8922 -2.02709 0
M  V30 25077 H 2449.87 0.69314 -1.42763 0
M  V30 25078 H 2449.89 3.39962 -1.70897 0
M  V30 25079 H 2449.41 2.27389 -3.14509 0
M  V30 25080 H 2447.51 3.57486 -1.05046 0
M  V30 25081 H 2447.62 3.79715 -2.92153 0
M  V30 25082 H 2445.98 2.0762 -1.47534 0
M  V30 25083 H 2446.77 1.55168 -3.06231 0
M  V30 25084 N 2449.21 1.13259 1.09591 0
M  V30 25085 C 2450.16 0.808419 2.16179 0
M  V30 25086 C 2451.13 -0.228725 1.64518 0
M  V30 25087 O 2452.31 -0.101348 1.90531 0
M  V30 25088 C 2449.45 0.278736 3.43972 0
M  V30 25089 C 2448.57 1.37474 4.09542 0
M  V30 25090 C 2447.7 0.803571 5.25087 0
M  V30 25091 C 2446.74 1.87809 5.82576 0
M  V30 25092 N 2445.88 1.325 6.89484 0
M  V30 25093 H 2450.72 1.72142 2.43251 0
M  V30 25094 H 2448.25 0.859315 1.19391 0
M  V30 25095 H 2450.21 -0.046485 4.17174 0
M  V30 25096 H 2448.84 -0.597404 3.17224 0
M  V30 25097 H 2447.89 1.81658 3.34222 0
M  V30 25098 H 2449.21 2.18692 4.48303 0
M  V30 25099 H 2448.36 0.429534 6.05178 0
M  V30 25100 H 2447.1 -0.0397099 4.87684 0
M  V30 25101 H 2446.1 2.26122 5.01148 0
M  V30 25102 H 2447.33 2.72474 6.22041 0
M  V30 25103 H 2445.28 0.50369 6.54063 0
M  V30 25104 H 2445.19 2.07368 7.27004 0
M  V30 25105 H 2446.46 0.978472 7.73334 0
M  V30 25106 N 2450.69 -1.27539 0.925834 0
M  V30 25107 C 2451.62 -2.26015 0.380793 0
M  V30 25108 C 2452.63 -1.55331 -0.487458 0
M  V30 25109 O 2453.82 -1.75954 -0.300382 0
M  V30 25110 C 2450.92 -3.3558 -0.4732 0
M  V30 25111 C 2450.1 -4.35787 0.375326 0
M  V30 25112 C 2449.16 -5.24555 -0.415717 0
M  V30 25113 O 2448.18 -5.68928 0.175934 0
M  V30 25114 N 2449.38 -5.54558 -1.71597 0
M  V30 25115 H 2452.15 -2.73418 1.22729 0
M  V30 25116 H 2449.71 -1.41146 0.793062 0
M  V30 25117 H 2451.7 -3.91909 -1.00942 0
M  V30 25118 H 2450.27 -2.87791 -1.22045 0
M  V30 25119 H 2449.49 -3.78748 1.09286 0
M  V30 25120 H 2450.78 -4.99748 0.955487 0
M  V30 25121 H 2450.18 -5.20362 -2.21901 0
M  V30 25122 H 2448.73 -6.13594 -2.19876 0
M  V30 25123 N 2452.17 -0.691135 -1.41637 0
M  V30 25124 C 2453.1 -0.037289 -2.3347 0
M  V30 25125 C 2454.08 0.771921 -1.51576 0
M  V30 25126 O 2455.26 0.725788 -1.80128 0
M  V30 25127 C 2452.39 0.903005 -3.35355 0
M  V30 25128 C 2451.35 0.201213 -4.27527 0
M  V30 25129 C 2450.67 1.25556 -5.1975 0
M  V30 25130 C 2451.97 -0.92978 -5.13958 0
M  V30 25131 H 2453.67 -0.804278 -2.88395 0
M  V30 25132 H 2451.21 -0.388214 -1.38668 0
M  V30 25133 H 2453.17 1.36962 -3.98521 0
M  V30 25134 H 2451.89 1.70161 -2.7877 0
M  V30 25135 H 2450.55 -0.24533 -3.65778 0
M  V30 25136 H 2450.2 2.04658 -4.59483 0
M  V30 25137 H 2449.9 0.791026 -5.82251 0
M  V30 25138 H 2451.42 1.72278 -5.85792 0
M  V30 25139 H 2452.84 -0.543647 -5.70717 0
M  V30 25140 H 2451.23 -1.32113 -5.85377 0
M  V30 25141 H 2452.3 -1.77141 -4.51386 0
M  V30 25142 N 2453.65 1.51461 -0.435577 0
M  V30 25143 C 2455.06 1.59358 -0.0877782 0
M  V30 25144 C 2455.26 1.44663 1.40267 0
M  V30 25145 O 2454.32 1.28696 2.17241 0
M  V30 25146 C 2455.63 2.94524 -0.606316 0
M  V30 25147 C 2457.18 3.07829 -0.566602 0
M  V30 25148 C 2457.65 4.45515 -1.06208 0
M  V30 25149 N 2459.14 4.5183 -1.02 0
M  V30 25150 C 2459.88 5.56688 -1.37427 0
M  V30 25151 N 2459.38 6.68973 -1.80131 0
M  V30 25152 N 2461.17 5.47037 -1.29255 0
M  V30 25153 H 2453.32 1.59259 -1.40536 0
M  V30 25154 H 2455.58 0.750638 -0.579005 0
M  V30 25155 H 2455.29 3.10642 -1.64906 0
M  V30 25156 H 2455.16 3.77188 -0.030276 0
M  V30 25157 H 2457.55 2.91379 0.467157 0
M  V30 25158 H 2457.63 2.27008 -1.17902 0
M  V30 25159 H 2457.27 4.62711 -2.0943 0
M  V30 25160 H 2457.2 5.24872 -0.426219 0
M  V30 25161 H 2459.7 3.7124 -0.706373 0
M  V30 25162 H 2460.01 7.45002 -2.05405 0
M  V30 25163 H 2458.35 6.70185 -1.84056 0
M  V30 25164 H 2461.54 4.582 -0.957602 0
M  V30 25165 H 2461.72 6.28645 -1.57193 0
M  V30 25166 N 2455.12 0.166873 1.56714 0
M  V30 25167 C 2456.05 -0.760874 2.20755 0
M  V30 25168 C 2457.04 -1.24242 1.1618 0
M  V30 25169 O 2458.22 -1.29639 1.44594 0
M  V30 25170 C 2455.35 -1.99218 2.84481 0
M  V30 25171 C 2454.3 -1.64665 3.95056 0
M  V30 25172 C 2453.63 -2.95224 4.4581 0
M  V30 25173 C 2454.93 -0.878064 5.14866 0
M  V30 25174 H 2456.62 -0.227077 2.98538 0
M  V30 25175 H 2454.17 -0.10778 1.43596 0
M  V30 25176 H 2456.12 -2.64618 3.27956 0
M  V30 25177 H 2454.85 -2.55004 2.04061 0
M  V30 25178 H 2453.51 -1.01635 3.5223 0
M  V30 25179 H 2453.15 -3.49041 3.62187 0
M  V30 25180 H 2452.85 -2.72861 5.20404 0
M  V30 25181 H 2454.38 -3.61662 4.91969 0
M  V30 25182 H 2455.79 -1.43456 5.55061 0
M  V30 25183 H 2454.19 -0.753633 5.95349 0
M  V30 25184 H 2455.26 0.126462 4.84735 0
M  V30 25185 N 2456.6 -1.57237 -0.106866 0
M  V30 25186 C 2457.85 -1.84671 -0.811131 0
M  V30 25187 C 2458.16 -0.754374 -1.80468 0
M  V30 25188 O 2459.37 -0.915484 -2.556 0
M  V30 25189 C 2457.83 -3.27457 -1.49332 0
M  V30 25190 C 2457.43 -4.44732 -0.540139 0
M  V30 25191 C 2459.18 -3.64128 -2.182 0
M  V30 25192 C 2457.09 -5.78548 -1.22624 0
M  V30 25193 H 2456.02 -0.688819 -0.306667 0
M  V30 25194 H 2458.67 -1.83389 -0.0639565 0
M  V30 25195 H 2457.05 -3.23246 -2.28754 0
M  V30 25196 H 2458.22 -4.60266 0.22174 0
M  V30 25197 H 2456.54 -4.16379 0.0422192 0
M  V30 25198 H 2459.13 -4.61381 -2.70244 0
M  V30 25199 H 2459.48 -2.92164 -2.96557 0
M  V30 25200 H 2460.01 -3.70176 -1.45652 0
M  V30 25201 H 2456.75 -6.53713 -0.483717 0
M  V30 25202 H 2456.27 -5.66878 -1.95983 0
M  V30 25203 H 2457.95 -6.22714 -1.75604 0
M  V30 25204 N 2458.08 0.377381 -1.53015 0
M  V30 25205 C 2459.03 1.48203 -1.79273 0
M  V30 25206 C 2460.02 1.55962 -0.661222 0
M  V30 25207 O 2461.23 1.5899 -0.843936 0
M  V30 25208 H 2457.6 0.493481 -0.567433 0
M  V30 25209 H 2459.57 1.23255 -2.71755 0
M  V30 25210 C 2458.32 2.85192 -1.98899 0
M  V30 25211 H 2457.65 2.79976 -2.854 0
M  V30 25212 H 2459.09 3.61694 -2.21255 0
M  V30 25213 C 2457.55 3.28105 -0.764749 0
M  V30 25214 O 2458.08 4.01666 0.052252 0
M  V30 25215 N 2456.28 2.84516 -0.591543 0
M  V30 25216 H 2455.83 2.2482 -1.25753 0
M  V30 25217 H 2455.79 3.13585 0.226198 0
M  V30 25218 N 2459.56 1.44175 0.636506 0
M  V30 25219 C 2460.49 1.46609 1.76178 0
M  V30 25220 C 2461.5 0.360119 1.58767 0
M  V30 25221 O 2462.69 0.625548 1.6718 0
M  V30 25222 C 2459.79 1.2792 3.13831 0
M  V30 25223 C 2458.97 2.51664 3.57749 0
M  V30 25224 C 2458.02 2.27954 4.74261 0
M  V30 25225 O 2457.05 3.01409 4.82847 0
M  V30 25226 N 2458.25 1.30672 5.65602 0
M  V30 25227 H 2461.02 2.43615 1.74562 0
M  V30 25228 H 2458.58 1.39545 0.820899 0
M  V30 25229 H 2460.57 1.09914 3.89488 0
M  V30 25230 H 2459.14 0.392984 3.1012 0
M  V30 25231 H 2458.36 2.84983 2.72357 0
M  V30 25232 H 2459.65 3.33981 3.83842 0
M  V30 25233 H 2459.05 0.699943 5.61353 0
M  V30 25234 H 2457.6 1.18646 6.40911 0
M  V30 25235 N 2461.04 -0.876421 1.30983 0
M  V30 25236 C 2462.45 -1.44453 1.1828 0
M  V30 25237 C 2462.8 -1.95038 -0.213231 0
M  V30 25238 O 2461.92 -1.85731 -1.11054 0
M  V30 25239 C 2462.52 -2.62565 2.14115 0
M  V30 25240 C 2461.08 -3.1544 2.05364 0
M  V30 25241 C 2460.22 -1.88143 2.0371 0
M  V30 25242 H 2463.18 -0.685559 1.43129 0
M  V30 25243 H 2463.2 -3.39051 1.72698 0
M  V30 25244 H 2462.71 -2.25718 3.1571 0
M  V30 25245 H 2460.81 -3.56924 1.0694 0
M  V30 25246 H 2460.92 -3.78161 2.94162 0
M  V30 25247 H 2459.29 -2.06834 1.48633 0
M  V30 25248 H 2460.07 -1.53542 3.0705 0
M  V30 25249 N 2462.51 -1.13839 -1.08989 0
M  V30 25250 C 2463.44 -0.842545 -2.17769 0
M  V30 25251 C 2464.43 0.199981 -1.6892 0
M  V30 25252 O 2465.61 0.0579389 -1.94114 0
M  V30 25253 C 2462.74 -0.312705 -3.45889 0
M  V30 25254 C 2461.69 -1.28999 -4.08097 0
M  V30 25255 C 2461.02 -0.619716 -5.31097 0
M  V30 25256 C 2462.32 -2.65013 -4.50073 0
M  V30 25257 H 2464.01 -1.75217 -2.42774 0
M  V30 25258 H 2461.56 -0.843895 -1.16681 0
M  V30 25259 H 2463.51 -0.0933784 -4.21297 0
M  V30 25260 H 2462.24 0.632326 -3.2042 0
M  V30 25261 H 2460.9 -1.49539 -3.34714 0
M  V30 25262 H 2460.54 0.330931 -5.0191 0
M  V30 25263 H 2460.24 -1.27177 -5.73672 0
M  V30 25264 H 2461.77 -0.409776 -6.09223 0
M  V30 25265 H 2463.18 -2.48416 -5.16684 0
M  V30 25266 H 2461.58 -3.26436 -5.03547 0
M  V30 25267 H 2462.65 -3.22338 -3.62252 0
M  V30 25268 N 2463.99 1.27046 -0.932584 0
M  V30 25269 C 2465.4 1.76123 -0.619482 0
M  V30 25270 C 2465.75 1.76085 0.865366 0
M  V30 25271 O 2464.88 1.36745 1.67719 0
M  V30 25272 C 2465.47 3.1983 -1.11776 0
M  V30 25273 C 2464.03 3.66555 -0.855238 0
M  V30 25274 C 2463.18 2.46319 -1.27366 0
M  V30 25275 H 2466.13 1.13243 -1.11183 0
M  V30 25276 H 2466.15 3.77615 -0.467656 0
M  V30 25277 H 2465.66 3.19826 -2.19847 0
M  V30 25278 H 2463.77 3.71999 0.211459 0
M  V30 25279 H 2463.88 4.5579 -1.47621 0
M  V30 25280 H 2462.24 2.45115 -0.692163 0
M  V30 25281 H 2463.03 2.49021 -2.36312 0
M  V30 25282 N 2465.47 0.698636 1.41269 0
M  V30 25283 C 2466.75 0.158796 1.94954 0
M  V30 25284 C 2467.13 -1.33185 1.63783 0
M  V30 25285 O 2466.48 -2.07977 0.94646 0
M  V30 25286 C 2466.69 0.45337 3.46043 0
M  V30 25287 C 2468.03 0.382781 4.22871 0
M  V30 25288 O 2469.06 0.388458 3.54075 0
M  V30 25289 O 2467.92 0.345559 5.45406 0
M  V30 25290 H 2465.01 0.0167651 0.82683 0
M  V30 25291 H 2467.56 0.775007 1.50969 0
M  V30 25292 H 2466.33 1.48505 3.62025 0
M  V30 25293 H 2465.95 -0.19366 3.97128 0
M  V30 25294 N 2466.95 -1.51228 0.443603 0
M  V30 25295 C 2467.88 -2.30784 -0.355102 0
M  V30 25296 C 2468.86 -1.3647 -1.01538 0
M  V30 25297 O 2470.04 -1.65391 -1.01782 0
M  V30 25298 C 2467.17 -3.15442 -1.45306 0
M  V30 25299 C 2466.13 -4.18085 -0.915929 0
M  V30 25300 C 2465.45 -4.91303 -2.11011 0
M  V30 25301 C 2466.75 -5.22272 0.053952 0
M  V30 25302 H 2468.45 -2.97803 0.308819 0
M  V30 25303 H 2465.99 -1.43217 0.149963 0
M  V30 25304 H 2467.95 -3.6988 -2.01908 0
M  V30 25305 H 2466.67 -2.46255 -2.14536 0
M  V30 25306 H 2465.33 -3.64707 -0.372081 0
M  V30 25307 H 2464.98 -4.18614 -2.78875 0
M  V30 25308 H 2464.68 -5.60715 -1.75707 0
M  V30 25309 H 2466.2 -5.48567 -2.68155 0
M  V30 25310 H 2467.62 -5.71745 -0.421969 0
M  V30 25311 H 2466.01 -5.99247 0.319881 0
M  V30 25312 H 2467.08 -4.74714 0.988663 0
M  V30 25313 N 2468.43 -0.175182 -1.56623 0
M  V30 25314 C 2469.37 0.753596 -2.1815 0
M  V30 25315 C 2470.34 1.22415 -1.12267 0
M  V30 25316 O 2471.53 1.29162 -1.40434 0
M  V30 25317 C 2468.67 1.97587 -2.82937 0
M  V30 25318 C 2467.78 1.54853 -4.03292 0
M  V30 25319 C 2466.92 2.72477 -4.55993 0
M  V30 25320 C 2465.96 2.26252 -5.6875 0
M  V30 25321 N 2465.09 3.36983 -6.15944 0
M  V30 25322 H 2469.93 0.222143 -2.97171 0
M  V30 25323 H 2467.47 0.0979164 -1.46774 0
M  V30 25324 H 2469.43 2.69282 -3.18658 0
M  V30 25325 H 2468.06 2.48097 -2.06514 0
M  V30 25326 H 2467.11 0.728181 -3.73365 0
M  V30 25327 H 2468.42 1.16925 -4.84902 0
M  V30 25328 H 2467.58 3.52323 -4.93916 0
M  V30 25329 H 2466.31 3.13668 -3.73449 0
M  V30 25330 H 2465.32 1.44854 -5.30375 0
M  V30 25331 H 2466.54 1.86115 -6.53099 0
M  V30 25332 H 2464.49 3.77742 -5.36328 0
M  V30 25333 H 2464.41 3.0316 -6.92553 0
M  V30 25334 H 2465.68 4.17102 -6.58518 0
M  V30 25335 N 2469.91 1.57292 0.0985263 0
M  V30 25336 C 2470.85 2.02823 1.13866 0
M  V30 25337 C 2471.85 0.928691 1.41675 0
M  V30 25338 O 2473.05 1.11387 1.41396 0
M  V30 25339 H 2469.43 0.646324 0.384408 0
M  V30 25340 H 2471.4 2.89376 0.728296 0
M  V30 25341 C 2470.15 2.46558 2.45162 0
M  V30 25342 H 2469.47 3.30744 2.24607 0
M  V30 25343 H 2470.91 2.82196 3.16451 0
M  V30 25344 C 2469.37 1.33747 3.09214 0
M  V30 25345 O 2469.9 0.66471 3.96162 0
M  V30 25346 N 2468.11 1.08932 2.69411 0
M  V30 25347 H 2467.65 1.63821 1.98798 0
M  V30 25348 H 2467.61 0.336513 3.12594 0
M  V30 25349 N 2471.38 -0.369261 1.53213 0
M  V30 25350 C 2472.63 -1.11394 1.69468 0
M  V30 25351 C 2472.96 -1.89073 0.44329 0
M  V30 25352 O 2472.24 -1.86283 -0.559354 0
M  V30 25353 C 2472.52 -2.07616 2.94224 0
M  V30 25354 C 2472.37 -1.3357 4.2951 0
M  V30 25355 C 2473.69 -3.07788 3.1457 0
M  V30 25356 H 2470.81 -0.403586 0.616674 0
M  V30 25357 H 2473.45 -0.395147 1.85846 0
M  V30 25358 H 2471.6 -2.68911 2.80391 0
M  V30 25359 H 2473.28 -0.750875 4.55148 0
M  V30 25360 H 2471.52 -0.637542 4.2909 0
M  V30 25361 H 2472.19 -2.0398 5.12929 0
M  V30 25362 H 2474.67 -2.56595 3.27564 0
M  V30 25363 H 2473.54 -3.72341 4.03303 0
M  V30 25364 H 2473.8 -3.77755 2.29682 0
M  V30 25365 N 2472.86 -1.4451 -0.628851 0
M  V30 25366 C 2473.81 -1.51552 -1.74071 0
M  V30 25367 C 2474.78 -0.363049 -1.62084 0
M  V30 25368 O 2475.96 -0.573599 -1.81974 0
M  V30 25369 C 2473.1 -1.46789 -3.12325 0
M  V30 25370 C 2472.22 -2.72428 -3.35272 0
M  V30 25371 C 2471.35 -2.59483 -4.63511 0
M  V30 25372 C 2470.39 -3.80274 -4.79644 0
M  V30 25373 N 2469.53 -3.65991 -5.99162 0
M  V30 25374 H 2474.37 -2.46547 -1.67388 0
M  V30 25375 H 2471.9 -1.22359 -0.816505 0
M  V30 25376 H 2473.86 -1.42019 -3.92284 0
M  V30 25377 H 2472.49 -0.5536 -3.18017 0
M  V30 25378 H 2471.54 -2.87376 -2.49237 0
M  V30 25379 H 2472.86 -3.62082 -3.43071 0
M  V30 25380 H 2472.01 -2.52558 -5.51633 0
M  V30 25381 H 2470.75 -1.67392 -4.58073 0
M  V30 25382 H 2469.75 -3.87581 -3.8995 0
M  V30 25383 H 2470.98 -4.73404 -4.86894 0
M  V30 25384 H 2468.93 -2.76654 -5.9481 0
M  V30 25385 H 2468.84 -4.49264 -6.08028 0
M  V30 25386 H 2470.11 -3.62962 -6.8984 0
M  V30 25387 N 2474.34 0.869463 -1.31446 0
M  V30 25388 C 2475.56 1.66056 -1.24259 0
M  V30 25389 C 2475.99 1.87149 0.188895 0
M  V30 25390 O 2475.35 1.41362 1.13519 0
M  V30 25391 C 2475.4 3.00555 -1.99246 0
M  V30 25392 O 2474.5 3.9036 -1.33014 0
M  V30 25393 H 2473.84 0.506824 -0.428982 0
M  V30 25394 H 2476.37 1.08401 -1.73523 0
M  V30 25395 H 2476.38 3.50488 -2.0886 0
M  V30 25396 H 2475.06 2.84523 -3.03347 0
M  V30 25397 H 2473.63 3.48811 -1.31854 0
M  V30 25398 N 2475.82 1.14415 1.08383 0
M  V30 25399 C 2476.76 0.831303 2.15309 0
M  V30 25400 C 2477.73 -0.211263 1.64751 0
M  V30 25401 O 2478.92 -0.0811339 1.90627 0
M  V30 25402 C 2476.06 0.315203 3.43658 0
M  V30 25403 C 2475.17 1.4181 4.08061 0
M  V30 25404 C 2474.31 0.859218 5.24205 0
M  V30 25405 C 2473.35 1.93977 5.80551 0
M  V30 25406 N 2472.48 1.39805 6.8804 0
M  V30 25407 H 2477.32 1.74713 2.41411 0
M  V30 25408 H 2474.86 0.871929 1.18473 0
M  V30 25409 H 2476.82 -0.0022355 4.172 0
M  V30 25410 H 2475.45 -0.563724 3.1784 0
M  V30 25411 H 2474.5 1.85193 3.32277 0
M  V30 25412 H 2475.81 2.23434 4.45958 0
M  V30 25413 H 2474.97 0.493697 6.04688 0
M  V30 25414 H 2473.71 0.0120177 4.87699 0
M  V30 25415 H 2472.71 2.31424 4.98721 0
M  V30 25416 H 2473.94 2.79057 6.19116 0
M  V30 25417 H 2471.88 0.573034 6.53492 0
M  V30 25418 H 2471.8 2.15067 7.24764 0
M  V30 25419 H 2473.07 1.06044 7.72253 0
M  V30 25420 N 2477.3 -1.26549 0.939309 0
M  V30 25421 C 2478.54 -1.93132 0.581635 0
M  V30 25422 C 2478.86 -1.74525 -0.883193 0
M  V30 25423 O 2480.06 -2.35548 -1.35016 0
M  V30 25424 C 2478.52 -3.46031 0.989486 0
M  V30 25425 C 2478.13 -3.73374 2.4758 0
M  V30 25426 C 2479.87 -4.18628 0.703617 0
M  V30 25427 C 2477.78 -5.19704 2.82245 0
M  V30 25428 H 2476.71 -0.723048 0.213816 0
M  V30 25429 H 2479.36 -1.43658 1.14169 0
M  V30 25430 H 2477.74 -3.94379 0.357972 0
M  V30 25431 H 2478.92 -3.35739 3.1562 0
M  V30 25432 H 2477.23 -3.14005 2.73477 0
M  V30 25433 H 2479.83 -5.26391 0.938961 0
M  V30 25434 H 2480.17 -4.14744 -0.359566 0
M  V30 25435 H 2480.7 -3.76139 1.29476 0
M  V30 25436 H 2477.44 -5.28687 3.87518 0
M  V30 25437 H 2476.96 -5.58443 2.18864 0
M  V30 25438 H 2478.64 -5.8769 2.70609 0
M  V30 25439 N 2478.77 -0.706118 -1.40896 0
M  V30 25440 C 2480.02 -0.241089 -2.00657 0
M  V30 25441 C 2480.34 1.16676 -1.56243 0
M  V30 25442 O 2479.61 1.78924 -0.797681 0
M  V30 25443 H 2478.19 -0.0861438 -0.742016 0
M  V30 25444 H 2480.85 -0.909635 -1.72371 0
M  V30 25445 H 2479.95 -0.266759 -3.10958 0
M  V30 25446 N 2480.25 1.50991 -0.451617 0
M  V30 25447 C 2481.48 2.07105 0.11063 0
M  V30 25448 C 2481.9 1.3154 1.34458 0
M  V30 25449 O 2481.26 0.357396 1.77742 0
M  V30 25450 C 2481.31 3.58406 0.397175 0
M  V30 25451 O 2480.41 3.84883 1.48117 0
M  V30 25452 H 2479.75 0.663985 -0.00440438 0
M  V30 25453 H 2482.28 1.94429 -0.637061 0
M  V30 25454 H 2482.29 4.02894 0.643439 0
M  V30 25455 H 2480.97 4.12827 -0.504626 0
M  V30 25456 H 2479.54 3.52248 1.22375 0
M  V30 25457 N 2481.73 0.183486 1.56528 0
M  V30 25458 C 2482.96 -0.46425 2.01624 0
M  V30 25459 C 2483.37 -1.55985 1.06368 0
M  V30 25460 O 2482.73 -1.82379 0.0665718 0
M  V30 25461 C 2482.78 -1.03133 3.46476 0
M  V30 25462 O 2482.5 0.0205445 4.38095 0
M  V30 25463 C 2484 -1.75609 4.07033 0
M  V30 25464 H 2481.22 -0.117692 0.660598 0
M  V30 25465 H 2483.77 0.288786 2.02451 0
M  V30 25466 H 2481.92 -1.7348 3.46386 0
M  V30 25467 H 2482.34 -0.39986 5.22974 0
M  V30 25468 H 2483.81 -2.10533 5.10274 0
M  V30 25469 H 2484.29 -2.65557 3.49823 0
M  V30 25470 H 2484.89 -1.09875 4.10862 0
M  V30 25471 N 2483.21 -1.57342 -0.0901833 0
M  V30 25472 C 2484.48 -1.77363 -0.82473 0
M  V30 25473 C 2484.86 -0.766404 -1.96696 0
M  V30 25474 O 2484.21 0.204139 -2.27586 0
M  V30 25475 C 2484.42 -3.23288 -1.31476 0
M  V30 25476 C 2485.77 -3.86607 -1.75556 0
M  V30 25477 O 2486.79 -3.27067 -1.41087 0
M  V30 25478 O 2485.65 -4.91318 -2.39309 0
M  V30 25479 H 2482.75 -0.727241 -0.393764 0
M  V30 25480 H 2485.29 -1.69549 -0.071684 0
M  V30 25481 H 2484.07 -3.88136 -0.496603 0
M  V30 25482 H 2483.69 -3.35754 -2.12967 0
M  V30 25483 N 2484.69 0.36113 -1.53407 0
M  V30 25484 C 2485.63 1.46293 -1.80834 0
M  V30 25485 C 2486.63 1.55252 -0.677727 0
M  V30 25486 O 2487.83 1.58086 -0.860751 0
M  V30 25487 H 2484.21 0.487435 -0.572635 0
M  V30 25488 H 2486.18 1.20366 -2.73047 0
M  V30 25489 C 2484.93 2.83067 -2.01912 0
M  V30 25490 H 2484.25 2.76933 -2.88354 0
M  V30 25491 H 2485.69 3.59327 -2.25079 0
M  V30 25492 C 2484.15 3.27276 -0.799506 0
M  V30 25493 O 2484.68 4.01699 0.00964701 0
M  V30 25494 N 2482.89 2.83872 -0.621687 0
M  V30 25495 H 2482.43 2.23474 -1.2813 0
M  V30 25496 H 2482.39 3.13808 0.192925 0
M  V30 25497 N 2486.16 1.44842 0.621179 0
M  V30 25498 C 2487.41 1.47425 1.37655 0
M  V30 25499 C 2487.73 0.114663 1.95264 0
M  V30 25500 O 2488.93 0.0180676 2.71494 0
M  V30 25501 C 2487.39 2.5959 2.49281 0
M  V30 25502 C 2487 4.018 1.98142 0
M  V30 25503 C 2488.74 2.71405 3.26404 0
M  V30 25504 C 2486.65 5.05372 3.0717 0
M  V30 25505 H 2485.58 0.548527 0.517334 0
M  V30 25506 H 2488.23 1.7094 0.667227 0
M  V30 25507 H 2486.61 2.29333 3.22835 0
M  V30 25508 H 2487.78 4.41672 1.31388 0
M  V30 25509 H 2486.1 3.94316 1.33805 0
M  V30 25510 H 2488.7 3.45956 4.07699 0
M  V30 25511 H 2489.04 1.77565 3.76532 0
M  V30 25512 H 2489.57 3.0112 2.59945 0
M  V30 25513 H 2486.31 6.00874 2.61975 0
M  V30 25514 H 2485.83 4.70084 3.72534 0
M  V30 25515 H 2487.51 5.29517 3.7178 0
M  V30 25516 N 2487.64 -0.862479 1.31905 0
M  V30 25517 C 2488.59 -1.97038 1.20186 0
M  V30 25518 C 2489.56 -1.65878 0.0858539 0
M  V30 25519 O 2490.74 -1.8902 0.260033 0
M  V30 25520 C 2487.88 -3.32532 0.922855 0
M  V30 25521 C 2487 -3.7624 2.1229 0
M  V30 25522 C 2486.13 -5.00487 1.78005 0
M  V30 25523 C 2485.17 -5.36665 2.94375 0
M  V30 25524 N 2484.31 -6.52091 2.60235 0
M  V30 25525 H 2489.15 -2.06394 2.14954 0
M  V30 25526 H 2486.69 -1.01029 1.06918 0
M  V30 25527 H 2488.64 -4.10556 0.74162 0
M  V30 25528 H 2487.27 -3.22798 0.0119794 0
M  V30 25529 H 2486.33 -2.93935 2.41467 0
M  V30 25530 H 2487.64 -3.98977 2.99364 0
M  V30 25531 H 2486.79 -5.86198 1.56388 0
M  V30 25532 H 2485.53 -4.7967 0.881336 0
M  V30 25533 H 2484.54 -4.49471 3.16633 0
M  V30 25534 H 2485.76 -5.59444 3.84967 0
M  V30 25535 H 2483.71 -6.32806 1.72896 0
M  V30 25536 H 2483.62 -6.74808 3.40838 0
M  V30 25537 H 2484.89 -7.40974 2.42029 0
M  V30 25538 N 2489.12 -1.14988 -1.07775 0
M  V30 25539 C 2490.35 -0.944434 -1.8375 0
M  V30 25540 C 2490.76 0.510548 -1.82181 0
M  V30 25541 O 2490.1 1.36574 -1.22854 0
M  V30 25542 C 2490.16 -1.37597 -3.32125 0
M  V30 25543 C 2489.83 -2.84781 -3.5742 0
M  V30 25544 C 2490.82 -3.82866 -3.51724 0
M  V30 25545 C 2488.51 -3.22347 -3.85224 0
M  V30 25546 C 2490.5 -5.16524 -3.73473 0
M  V30 25547 C 2488.19 -4.56178 -4.06626 0
M  V30 25548 C 2489.19 -5.53076 -4.00744 0
M  V30 25549 O 2488.88 -6.84491 -4.21578 0
M  V30 25550 H 2488.61 -0.335755 -0.586724 0
M  V30 25551 H 2491.16 -1.53055 -1.36979 0
M  V30 25552 H 2489.39 -0.733231 -3.79685 0
M  V30 25553 H 2491.08 -1.14031 -3.89553 0
M  V30 25554 H 2491.85 -3.5519 -3.3025 0
M  V30 25555 H 2487.73 -2.47514 -3.88918 0
M  V30 25556 H 2491.27 -5.92144 -3.68798 0
M  V30 25557 H 2487.17 -4.83572 -4.27585 0
M  V30 25558 H 2487.94 -6.90845 -4.38949 0
M  V30 25559 N 2490.6 1.26049 -0.946007 0
M  V30 25560 C 2491.53 2.2538 -0.416702 0
M  V30 25561 C 2492.54 1.56087 0.462684 0
M  V30 25562 O 2493.73 1.7641 0.272352 0
M  V30 25563 C 2490.83 3.3629 0.419753 0
M  V30 25564 C 2490.01 4.35134 -0.444608 0
M  V30 25565 C 2489.06 5.2515 0.332212 0
M  V30 25566 O 2488.09 5.68576 -0.266423 0
M  V30 25567 N 2489.29 5.57218 1.62753 0
M  V30 25568 H 2492.06 2.71431 -1.27064 0
M  V30 25569 H 2489.62 1.39866 -0.815417 0
M  V30 25570 H 2491.61 3.93465 0.946944 0
M  V30 25571 H 2490.18 2.89696 1.17451 0
M  V30 25572 H 2489.4 3.76962 -1.15297 0
M  V30 25573 H 2490.69 4.98164 -1.03487 0
M  V30 25574 H 2490.09 5.23826 2.13594 0
M  V30 25575 H 2488.64 6.17015 2.10086 0
M  V30 25576 N 2492.08 0.71358 1.4052 0
M  V30 25577 C 2493.49 0.324839 1.83852 0
M  V30 25578 C 2493.84 -1.14018 1.59669 0
M  V30 25579 O 2492.96 -1.87723 1.07652 0
M  V30 25580 C 2493.56 0.582804 3.3375 0
M  V30 25581 C 2492.12 0.247793 3.75583 0
M  V30 25582 C 2491.26 0.856168 2.63752 0
M  V30 25583 H 2494.22 0.912883 1.29816 0
M  V30 25584 H 2494.24 -0.152615 3.80194 0
M  V30 25585 H 2493.75 1.64914 3.51319 0
M  V30 25586 H 2491.85 -0.81356 3.6361 0
M  V30 25587 H 2491.96 0.71539 4.73729 0
M  V30 25588 H 2490.33 0.284364 2.53108 0
M  V30 25589 H 2491.11 1.92673 2.84134 0
M  V30 25590 N 2493.55 -1.50749 0.459618 0
M  V30 25591 C 2494.5 -2.28275 -0.340484 0
M  V30 25592 C 2495.47 -1.32824 -0.997347 0
M  V30 25593 O 2496.66 -1.61751 -1.01199 0
M  V30 25594 C 2493.8 -3.1439 -1.42312 0
M  V30 25595 C 2492.91 -4.2486 -0.782177 0
M  V30 25596 C 2492.04 -4.9825 -1.84174 0
M  V30 25597 C 2491.08 -6.0061 -1.18042 0
M  V30 25598 N 2490.22 -6.67322 -2.18232 0
M  V30 25599 H 2495.06 -2.96201 0.326951 0
M  V30 25600 H 2492.6 -1.46078 0.173083 0
M  V30 25601 H 2494.56 -3.62661 -2.06234 0
M  V30 25602 H 2493.19 -2.48534 -2.05988 0
M  V30 25603 H 2492.24 -3.80388 -0.0306736 0
M  V30 25604 H 2493.55 -4.98124 -0.259576 0
M  V30 25605 H 2492.7 -5.50182 -2.55705 0
M  V30 25606 H 2491.44 -4.24667 -2.39812 0
M  V30 25607 H 2490.45 -5.4795 -0.450679 0
M  V30 25608 H 2491.67 -6.76161 -0.631083 0
M  V30 25609 H 2489.62 -5.96537 -2.72909 0
M  V30 25610 H 2489.54 -7.36424 -1.70925 0
M  V30 25611 H 2490.8 -7.23876 -2.89179 0
M  V30 25612 N 2495.03 -0.191784 -1.56429 0
M  V30 25613 C 2496.28 0.446971 -1.97095 0
M  V30 25614 C 2496.6 1.62381 -1.0797 0
M  V30 25615 O 2495.87 1.95323 -0.150282 0
M  V30 25616 H 2494.45 0.168122 -0.727835 0
M  V30 25617 H 2497.11 -0.277744 -1.92911 0
M  V30 25618 H 2496.21 0.793318 -3.01849 0
M  V30 25619 N 2496.51 1.57387 0.0818378 0
M  V30 25620 C 2497.76 1.86386 0.781335 0
M  V30 25621 C 2498.08 0.782374 1.78617 0
M  V30 25622 O 2497.35 -0.190027 1.94976 0
M  V30 25623 H 2495.93 0.687756 0.29155 0
M  V30 25624 H 2498.59 1.94807 0.0603137 0
M  V30 25625 H 2497.69 2.83564 1.30375 0
M  V30 25626 N 2497.99 -0.35299 1.53596 0
M  V30 25627 C 2498.92 -1.45345 1.77222 0
M  V30 25628 C 2499.93 -1.49118 0.653266 0
M  V30 25629 O 2501.12 -1.52371 0.929802 0
M  V30 25630 C 2498.22 -2.84051 1.84846 0
M  V30 25631 C 2497.4 -3.03828 3.14655 0
M  V30 25632 C 2496.45 -4.22721 3.13358 0
M  V30 25633 O 2495.48 -4.1729 3.87114 0
M  V30 25634 N 2496.68 -5.30779 2.35062 0
M  V30 25635 H 2499.45 -1.25452 2.7218 0
M  V30 25636 H 2497.01 -0.542806 1.52529 0
M  V30 25637 H 2499 -3.61747 1.81441 0
M  V30 25638 H 2497.57 -2.97131 0.971166 0
M  V30 25639 H 2496.79 -2.13683 3.3126 0
M  V30 25640 H 2498.08 -3.13917 4.00416 0
M  V30 25641 H 2497.48 -5.38058 1.74672 0
M  V30 25642 H 2496.03 -6.07004 2.37463 0
M  V30 25643 N 2499.47 -1.45169 -0.613489 0
M  V30 25644 C 2500.71 -1.49098 -1.37469 0
M  V30 25645 C 2501.05 -0.129935 -1.93765 0
M  V30 25646 O 2500.32 0.854827 -1.74708 0
M  V30 25647 C 2500.6 -2.56547 -2.52697 0
M  V30 25648 C 2500.46 -4.02074 -2.01636 0
M  V30 25649 C 2501.78 -2.60333 -3.54844 0
M  V30 25650 H 2498.9 -0.542839 -0.498493 0
M  V30 25651 H 2501.54 -1.76946 -0.692094 0
M  V30 25652 H 2499.69 -2.32931 -3.10927 0
M  V30 25653 H 2501.36 -4.3688 -1.481 0
M  V30 25654 H 2499.6 -4.13011 -1.32681 0
M  V30 25655 H 2500.27 -4.72933 -2.84673 0
M  V30 25656 H 2502.75 -2.81479 -3.06445 0
M  V30 25657 H 2501.63 -3.37388 -4.32967 0
M  V30 25658 H 2501.89 -1.65198 -4.10076 0
M  V30 25659 N 2500.95 0.855472 -1.32361 0
M  V30 25660 C 2501.88 1.97055 -1.17056 0
M  V30 25661 C 2502.89 1.62456 -0.105769 0
M  V30 25662 O 2504.08 1.74941 -0.35465 0
M  V30 25663 C 2501.18 3.30052 -0.769363 0
M  V30 25664 C 2500.35 3.92897 -1.92226 0
M  V30 25665 C 2499.41 5.04226 -1.50475 0
M  V30 25666 O 2498.44 5.24265 -2.21664 0
M  V30 25667 N 2499.64 5.79118 -0.40031 0
M  V30 25668 H 2502.4 2.10726 -2.13107 0
M  V30 25669 H 2499.97 1.03028 -1.24887 0
M  V30 25670 H 2501.96 4.01933 -0.472477 0
M  V30 25671 H 2500.53 3.1244 0.09997 0
M  V30 25672 H 2499.75 3.13813 -2.38569 0
M  V30 25673 H 2501.04 4.31619 -2.69411 0
M  V30 25674 H 2500.43 5.65373 0.19222 0
M  V30 25675 H 2498.99 6.51596 -0.163027 0
M  V30 25676 N 2502.42 1.15558 1.07164 0
M  V30 25677 C 2503.67 0.926164 1.79179 0
M  V30 25678 C 2503.99 -0.547934 1.87769 0
M  V30 25679 O 2505.19 -0.894991 2.56324 0
M  V30 25680 C 2503.65 1.60766 3.21997 0
M  V30 25681 C 2503.26 3.11891 3.21602 0
M  V30 25682 C 2505 1.45987 3.98608 0
M  V30 25683 C 2502.91 3.7282 4.59085 0
M  V30 25684 H 2501.84 0.342868 0.671534 0
M  V30 25685 H 2504.49 1.38593 1.20268 0
M  V30 25686 H 2502.87 1.0756 3.81113 0
M  V30 25687 H 2504.04 3.7187 2.7212 0
M  V30 25688 H 2502.36 3.26454 2.58489 0
M  V30 25689 H 2504.96 1.88897 5.00222 0
M  V30 25690 H 2505.3 0.407614 4.143 0
M  V30 25691 H 2505.83 1.96301 3.45992 0
M  V30 25692 H 2502.57 4.77954 4.48598 0
M  V30 25693 H 2502.09 3.17624 5.08797 0
M  V30 25694 H 2503.77 3.73858 5.28052 0
M  V30 25695 N 2503.9 -1.25546 0.952678 0
M  V30 25696 C 2505.15 -1.93493 0.607306 0
M  V30 25697 C 2505.48 -1.74453 -0.853214 0
M  V30 25698 O 2504.76 -1.08845 -1.61192 0
M  V30 25699 C 2505.04 -3.46945 0.964411 0
M  V30 25700 C 2504.89 -3.7522 2.48052 0
M  V30 25701 C 2506.21 -4.37385 0.488064 0
M  V30 25702 H 2503.33 -0.702735 0.222108 0
M  V30 25703 H 2505.97 -1.482 1.18898 0
M  V30 25704 H 2504.12 -3.85653 0.469429 0
M  V30 25705 H 2505.79 -3.4616 3.04911 0
M  V30 25706 H 2504.04 -3.20895 2.91906 0
M  V30 25707 H 2504.71 -4.82527 2.68089 0
M  V30 25708 H 2507.18 -4.05968 0.912629 0
M  V30 25709 H 2506.06 -5.4352 0.766643 0
M  V30 25710 H 2506.32 -4.37844 -0.611986 0
M  V30 25711 N 2505.38 -0.721022 -1.40139 0
M  V30 25712 C 2506.61 -0.272692 -2.05095 0
M  V30 25713 C 2507.02 1.08747 -1.54336 0
M  V30 25714 O 2506.38 1.68448 -0.702241 0
M  V30 25715 C 2506.43 -0.249898 -3.60635 0
M  V30 25716 O 2506.15 -1.55636 -4.09523 0
M  V30 25717 C 2507.65 0.216318 -4.42772 0
M  V30 25718 H 2504.87 -0.12157 -0.659895 0
M  V30 25719 H 2507.42 -0.980754 -1.79448 0
M  V30 25720 H 2505.57 0.409169 -3.85233 0
M  V30 25721 H 2505.99 -1.46049 -5.03756 0
M  V30 25722 H 2507.46 0.181115 -5.51703 0
M  V30 25723 H 2507.94 1.25934 -4.20758 0
M  V30 25724 H 2508.54 -0.412671 -4.23293 0
M  V30 25725 N 2506.86 1.50503 -0.467606 0
M  V30 25726 C 2507.8 2.28452 0.328373 0
M  V30 25727 C 2508.77 1.33351 0.990289 0
M  V30 25728 O 2509.96 1.62286 1.0034 0
M  V30 25729 C 2507.1 3.15141 1.40643 0
M  V30 25730 C 2506.21 4.25269 0.759634 0
M  V30 25731 C 2505.35 4.9922 1.81529 0
M  V30 25732 C 2504.39 6.01228 1.14855 0
M  V30 25733 N 2503.52 6.6847 2.1469 0
M  V30 25734 H 2508.36 2.96023 -0.342655 0
M  V30 25735 H 2505.9 1.45984 -0.180827 0
M  V30 25736 H 2507.86 3.6375 2.04308 0
M  V30 25737 H 2506.49 2.49623 2.04667 0
M  V30 25738 H 2505.54 3.80399 0.0105002 0
M  V30 25739 H 2506.85 4.98255 0.233155 0
M  V30 25740 H 2506.01 5.5153 2.52783 0
M  V30 25741 H 2504.75 4.25932 2.37556 0
M  V30 25742 H 2503.75 5.48181 0.421614 0
M  V30 25743 H 2504.98 6.76487 0.595216 0
M  V30 25744 H 2502.92 5.97976 2.69741 0
M  V30 25745 H 2502.84 7.3732 1.67017 0
M  V30 25746 H 2504.11 7.25399 2.85336 0
M  V30 25747 N 2508.34 0.200077 1.56325 0
M  V30 25748 C 2509.28 -0.718795 2.19322 0
M  V30 25749 C 2510.25 -1.20613 1.142 0
M  V30 25750 O 2511.44 -1.26912 1.42471 0
M  V30 25751 C 2508.58 -1.93061 2.86044 0
M  V30 25752 C 2507.69 -1.48418 4.05705 0
M  V30 25753 C 2506.83 -2.65188 4.6027 0
M  V30 25754 C 2505.86 -2.17175 5.72277 0
M  V30 25755 N 2505 -3.27141 6.21227 0
M  V30 25756 H 2509.84 -0.174837 2.97487 0
M  V30 25757 H 2507.38 -0.0745536 1.46911 0
M  V30 25758 H 2509.34 -2.64179 3.22902 0
M  V30 25759 H 2507.97 -2.4478 2.10435 0
M  V30 25760 H 2507.02 -0.668689 3.74477 0
M  V30 25761 H 2508.33 -1.09196 4.86701 0
M  V30 25762 H 2507.48 -3.44421 4.99459 0
M  V30 25763 H 2506.22 -3.07687 3.78392 0
M  V30 25764 H 2505.23 -1.36398 5.32612 0
M  V30 25765 H 2506.45 -1.75701 6.55977 0
M  V30 25766 H 2504.4 -3.69161 5.42269 0
M  V30 25767 H 2504.32 -2.92104 6.97289 0
M  V30 25768 H 2505.58 -4.06573 6.6507 0
M  V30 25769 N 2509.81 -1.57429 -0.0734901 0
M  V30 25770 C 2511.06 -1.8635 -0.771777 0
M  V30 25771 C 2511.38 -0.792484 -1.78827 0
M  V30 25772 O 2512.58 -0.969494 -2.536 0
M  V30 25773 C 2511.04 -3.30551 -1.42352 0
M  V30 25774 C 2510.65 -4.45778 -0.445683 0
M  V30 25775 C 2512.39 -3.68674 -2.10427 0
M  V30 25776 C 2510.3 -5.81018 -1.10325 0
M  V30 25777 H 2509.23 -0.695169 -0.291987 0
M  V30 25778 H 2511.88 -1.83483 -0.0250427 0
M  V30 25779 H 2510.26 -3.28025 -2.21846 0
M  V30 25780 H 2511.43 -4.59692 0.319319 0
M  V30 25781 H 2509.75 -4.16195 0.13053 0
M  V30 25782 H 2512.35 -4.67009 -2.60397 0
M  V30 25783 H 2512.69 -2.98388 -2.90293 0
M  V30 25784 H 2513.22 -3.73182 -1.37767 0
M  V30 25785 H 2509.96 -6.54592 -0.344946 0
M  V30 25786 H 2509.48 -5.70907 -1.83915 0
M  V30 25787 H 2511.16 -6.26298 -1.62356 0
M  V30 25788 N 2511.29 0.344839 -1.53781 0
M  V30 25789 C 2512.57 1.10217 -1.61591 0
M  V30 25790 C 2512.95 2.06541 -0.436352 0
M  V30 25791 O 2512.3 2.21238 0.571504 0
M  V30 25792 C 2512.51 1.82296 -2.97606 0
M  V30 25793 C 2513.85 2.36087 -3.52914 0
M  V30 25794 O 2514.88 1.92394 -2.99771 0
M  V30 25795 O 2513.74 3.16018 -4.45864 0
M  V30 25796 H 2510.83 0.506781 -0.653531 0
M  V30 25797 H 2513.38 0.346436 -1.66126 0
M  V30 25798 H 2512.15 1.12115 -3.74895 0
M  V30 25799 H 2511.77 2.6473 -2.96655 0
M  V30 25800 N 2512.77 1.45492 0.605781 0
M  V30 25801 C 2513.7 1.57146 1.72706 0
M  V30 25802 C 2514.68 0.422913 1.64759 0
M  V30 25803 O 2515.87 0.646279 1.83131 0
M  V30 25804 C 2513 1.53953 3.11313 0
M  V30 25805 C 2511.95 2.67543 3.34073 0
M  V30 25806 C 2511.28 2.49405 4.72971 0
M  V30 25807 C 2512.58 4.09541 3.24151 0
M  V30 25808 H 2514.27 2.51004 1.6321 0
M  V30 25809 H 2511.82 1.20802 0.783769 0
M  V30 25810 H 2513.77 1.60703 3.89554 0
M  V30 25811 H 2512.49 0.566261 3.21654 0
M  V30 25812 H 2511.15 2.60225 2.58222 0
M  V30 25813 H 2510.8 1.50213 4.80047 0
M  V30 25814 H 2510.5 3.25579 4.89154 0
M  V30 25815 H 2512.02 2.58011 5.5341 0
M  V30 25816 H 2513.44 4.18093 3.92264 0
M  V30 25817 H 2511.83 4.86119 3.51863 0
M  V30 25818 H 2512.9 4.31321 2.21563 0
M  V30 25819 N 2514.25 -0.848441 1.32813 0
M  V30 25820 C 2515.47 -1.64058 1.26885 0
M  V30 25821 C 2515.9 -1.87426 -0.159097 0
M  V30 25822 O 2515.26 -1.4315 -1.11256 0
M  V30 25823 C 2515.3 -2.97347 2.04002 0
M  V30 25824 O 2514.41 -3.88195 1.39207 0
M  V30 25825 H 2513.75 -0.499935 0.436991 0
M  V30 25826 H 2516.28 -1.05627 1.75226 0
M  V30 25827 H 2516.29 -3.47121 2.14409 0
M  V30 25828 H 2514.96 -2.79661 3.07835 0
M  V30 25829 H 2513.54 -3.46669 1.37387 0
M  V30 25830 N 2515.73 -1.16125 -1.06549 0
M  V30 25831 C 2516.68 -0.833773 -2.12208 0
M  V30 25832 C 2517.66 0.185628 -1.59826 0
M  V30 25833 O 2518.85 -0.0148218 -1.76994 0
M  V30 25834 C 2515.98 -0.333757 -3.41674 0
M  V30 25835 C 2515.07 -1.38379 -4.00889 0
M  V30 25836 N 2515.46 -2.59344 -4.34251 0
M  V30 25837 C 2513.76 -1.23843 -4.28461 0
M  V30 25838 C 2514.46 -3.2671 -4.81286 0
M  V30 25839 N 2513.43 -2.54091 -4.80561 0
M  V30 25840 H 2517.24 -1.75368 -2.35846 0
M  V30 25841 H 2514.75 -1.04792 -1.24067 0
M  V30 25842 H 2516.75 -0.080765 -4.16822 0
M  V30 25843 H 2515.41 0.580114 -3.19476 0
M  V30 25844 H 2516.42 -2.96422 -4.24681 0
M  V30 25845 H 2513.09 -0.385113 -4.1572 0
M  V30 25846 H 2514.48 -4.29952 -5.16325 0
M  V30 25847 N 2517.2 1.25039 -0.959323 0
M  V30 25848 C 2518.45 1.93168 -0.617559 0
M  V30 25849 C 2518.78 1.74903 0.843951 0
M  V30 25850 O 2518.06 1.09699 1.60613 0
M  V30 25851 C 2518.34 3.46429 -0.982796 0
M  V30 25852 C 2518.19 3.739 -2.50038 0
M  V30 25853 C 2519.51 4.3712 -0.511253 0
M  V30 25854 H 2516.63 0.701548 -0.225832 0
M  V30 25855 H 2519.27 1.47568 -1.19682 0
M  V30 25856 H 2517.42 3.85399 -0.489874 0
M  V30 25857 H 2519.1 3.44538 -3.06743 0
M  V30 25858 H 2517.34 3.19342 -2.93603 0
M  V30 25859 H 2518.01 4.81099 -2.70644 0
M  V30 25860 H 2520.49 4.05479 -0.934146 0
M  V30 25861 H 2519.36 5.43106 -0.795456 0
M  V30 25862 H 2519.62 4.38162 0.588757 0
M  V30 25863 N 2518.68 0.728444 1.39755 0
M  V30 25864 C 2519.91 0.283564 2.04948 0
M  V30 25865 C 2520.33 -1.07927 1.5491 0
M  V30 25866 O 2519.68 -1.68074 0.711164 0
M  V30 25867 C 2519.73 0.26902 3.60498 0
M  V30 25868 O 2519.45 1.57805 4.08692 0
M  V30 25869 C 2520.96 -0.192834 4.4288 0
M  V30 25870 H 2518.18 0.125068 0.659241 0
M  V30 25871 H 2520.72 0.990257 1.78925 0
M  V30 25872 H 2518.87 -0.388733 3.85445 0
M  V30 25873 H 2519.29 1.48718 5.02974 0
M  V30 25874 H 2520.76 -0.151855 5.51791 0
M  V30 25875 H 2521.24 -1.23701 4.2142 0
M  V30 25876 H 2521.85 0.435113 4.23068 0
M  V30 25877 N 2520.16 -1.50253 0.475581 0
M  V30 25878 C 2521.39 -2.07255 -0.0776678 0
M  V30 25879 C 2521.81 -1.33662 -1.32348 0
M  V30 25880 O 2521.17 -0.385628 -1.77151 0
M  V30 25881 C 2521.22 -3.58993 -0.340106 0
M  V30 25882 O 2520.32 -3.87191 -1.41975 0
M  V30 25883 H 2519.66 -0.663831 0.0149673 0
M  V30 25884 H 2522.19 -1.93391 0.667912 0
M  V30 25885 H 2522.2 -4.03867 -0.579261 0
M  V30 25886 H 2520.88 -4.11972 0.570239 0
M  V30 25887 H 2519.45 -3.5415 -1.16756 0
M  V30 25888 N 2521.64 -0.208365 -1.56217 0
M  V30 25889 C 2522.59 0.707153 -2.197 0
M  V30 25890 C 2523.56 1.20006 -1.14838 0
M  V30 25891 O 2524.74 1.26155 -1.43142 0
M  V30 25892 C 2521.88 1.91541 -2.87064 0
M  V30 25893 C 2520.99 1.46264 -4.06486 0
M  V30 25894 C 2520.13 2.62744 -4.6167 0
M  V30 25895 C 2519.17 2.14137 -5.73421 0
M  V30 25896 N 2518.3 3.23842 -6.22953 0
M  V30 25897 H 2523.14 0.159059 -2.97575 0
M  V30 25898 H 2520.68 0.0667615 -1.46948 0
M  V30 25899 H 2522.64 2.62462 -3.24298 0
M  V30 25900 H 2521.27 2.4366 -2.1173 0
M  V30 25901 H 2520.32 0.648821 -3.74826 0
M  V30 25902 H 2521.63 1.06613 -4.87273 0
M  V30 25903 H 2520.79 3.41767 -5.01278 0
M  V30 25904 H 2519.53 3.05676 -3.80018 0
M  V30 25905 H 2518.53 1.33571 -5.33328 0
M  V30 25906 H 2519.76 1.7222 -6.569 0
M  V30 25907 H 2517.7 3.6628 -5.44219 0
M  V30 25908 H 2517.62 2.88402 -6.98828 0
M  V30 25909 H 2518.89 4.0304 -6.67217 0
M  V30 25910 N 2523.12 1.57465 0.0651402 0
M  V30 25911 C 2524.36 1.89411 0.768295 0
M  V30 25912 C 2524.72 0.802925 1.74405 0
M  V30 25913 O 2525.92 1.00565 2.49279 0
M  V30 25914 C 2524.19 3.26579 1.45193 0
M  V30 25915 S 2525.75 3.80287 2.18923 0
M  V30 25916 H 2522.57 0.663565 0.255347 0
M  V30 25917 H 2525.17 1.95485 0.0241327 0
M  V30 25918 H 2523.88 4.03891 0.728052 0
M  V30 25919 H 2523.41 3.23719 2.23539 0
M  V30 25920 H 2525.42 3.56108 3.45545 0
M  V30 25921 N 2524.59 -0.336679 1.53962 0
M  V30 25922 C 2525.84 -1.07402 1.71199 0
M  V30 25923 C 2526.16 -1.88962 0.481509 0
M  V30 25924 O 2525.43 -1.89291 -0.504552 0
M  V30 25925 H 2524.01 -0.399506 0.631192 0
M  V30 25926 H 2526.68 -0.37629 1.91233 0
M  V30 25927 H 2525.77 -1.74751 2.5859 0
M  V30 25928 N 2526.07 -1.45812 -0.598057 0
M  V30 25929 C 2527.3 -1.54101 -1.38808 0
M  V30 25930 C 2527.72 -0.177611 -1.8726 0
M  V30 25931 O 2527.08 0.839513 -1.60692 0
M  V30 25932 C 2527.13 -2.53747 -2.56212 0
M  V30 25933 O 2526.23 -2.06188 -3.57156 0
M  V30 25934 H 2525.57 -0.519122 -0.414015 0
M  V30 25935 H 2528.1 -1.91251 -0.726938 0
M  V30 25936 H 2528.11 -2.72862 -3.03332 0
M  V30 25937 H 2526.79 -3.52763 -2.20297 0
M  V30 25938 H 2525.37 -1.96993 -3.1662 0
M  V30 25939 N 2527.55 0.841385 -1.33261 0
M  V30 25940 C 2528.48 1.96632 -1.2593 0
M  V30 25941 C 2529.46 1.6952 -0.140378 0
M  V30 25942 O 2530.65 1.9138 -0.32974 0
M  V30 25943 C 2527.78 3.32736 -0.995178 0
M  V30 25944 C 2526.73 3.74239 -2.07676 0
M  V30 25945 C 2526.06 5.08122 -1.66483 0
M  V30 25946 C 2527.36 3.8829 -3.49325 0
M  V30 25947 H 2529.05 2.03023 -2.2005 0
M  V30 25948 H 2526.6 0.975406 -1.05933 0
M  V30 25949 H 2528.55 4.11001 -0.930395 0
M  V30 25950 H 2527.27 3.26595 -0.0183578 0
M  V30 25951 H 2525.93 2.98236 -2.13193 0
M  V30 25952 H 2525.58 4.98449 -0.6751 0
M  V30 25953 H 2525.28 5.36861 -2.3886 0
M  V30 25954 H 2526.8 5.88864 -1.61466 0
M  V30 25955 H 2528.22 4.56873 -3.46324 0
M  V30 25956 H 2526.62 4.28463 -4.20166 0
M  V30 25957 H 2527.69 2.90814 -3.88015 0
M  V30 25958 N 2529.03 1.16688 1.05932 0
M  V30 25959 C 2529.98 0.876786 2.13497 0
M  V30 25960 C 2530.95 -0.17627 1.65162 0
M  V30 25961 O 2532.13 -0.0406807 1.90757 0
M  V30 25962 C 2529.27 0.388027 3.42912 0
M  V30 25963 C 2528.38 1.50433 4.04961 0
M  V30 25964 C 2527.52 0.970217 5.22265 0
M  V30 25965 C 2526.56 2.06248 5.76306 0
M  V30 25966 N 2525.7 1.54368 6.8492 0
M  V30 25967 H 2530.54 1.79794 2.37651 0
M  V30 25968 H 2528.07 0.896863 1.16597 0
M  V30 25969 H 2530.03 0.0862593 4.17111 0
M  V30 25970 H 2528.66 -0.496179 3.18964 0
M  V30 25971 H 2527.71 1.92199 3.28274 0
M  V30 25972 H 2529.02 2.32844 4.41118 0
M  V30 25973 H 2528.18 0.621849 6.03505 0
M  V30 25974 H 2526.92 0.115463 4.87563 0
M  V30 25975 H 2525.92 2.41951 4.937 0
M  V30 25976 H 2527.15 2.92126 6.13057 0
M  V30 25977 H 2525.09 0.71152 6.5213 0
M  V30 25978 H 2525.01 2.30392 7.20039 0
M  V30 25979 H 2526.28 1.22401 7.6983 0
M  V30 25980 N 2530.51 -1.24529 0.96594 0
M  V30 25981 C 2531.46 -2.27454 0.486546 0
M  V30 25982 C 2532.45 -1.63341 -0.449012 0
M  V30 25983 O 2533.66 -1.77051 -0.324496 0
M  V30 25984 H 2530.03 -0.739066 0.13887 0
M  V30 25985 H 2532 -2.65265 1.36664 0
M  V30 25986 C 2530.75 -3.47069 -0.20942 0
M  V30 25987 H 2530.07 -3.96644 0.501359 0
M  V30 25988 H 2531.51 -4.20937 -0.508701 0
M  V30 25989 C 2529.97 -3.04773 -1.4358 0
M  V30 25990 O 2530.5 -3.11778 -2.53293 0
M  V30 25991 N 2528.71 -2.5984 -1.30121 0
M  V30 25992 H 2528.26 -2.5434 -0.408538 0
M  V30 25993 H 2528.21 -2.31906 -2.1229 0
M  V30 25994 N 2531.99 -0.735845 -1.39367 0
M  V30 25995 C 2533.23 -0.281039 -1.99732 0
M  V30 25996 C 2533.55 1.13843 -1.59057 0
M  V30 25997 O 2534.75 1.6928 -2.12265 0
M  V30 25998 C 2533.21 -0.451525 -3.57056 0
M  V30 25999 C 2532.82 -1.87893 -4.06694 0
M  V30 26000 C 2534.56 -0.0585362 -4.2446 0
M  V30 26001 C 2532.47 -1.99893 -5.56594 0
M  V30 26002 H 2531.4 -0.101324 -0.747161 0
M  V30 26003 H 2534.05 -0.909847 -1.59355 0
M  V30 26004 H 2532.43 0.246193 -3.95234 0
M  V30 26005 H 2533.61 -2.60868 -3.79848 0
M  V30 26006 H 2531.92 -2.22521 -3.51956 0
M  V30 26007 H 2534.52 -0.127193 -5.34549 0
M  V30 26008 H 2534.86 0.986362 -4.04446 0
M  V30 26009 H 2535.39 -0.707443 -3.91459 0
M  V30 26010 H 2532.13 -3.02574 -5.81489 0
M  V30 26011 H 2531.65 -1.31356 -5.8524 0
M  V30 26012 H 2533.33 -1.7805 -6.22019 0
M  V30 26013 N 2533.46 1.49999 -0.483543 0
M  V30 26014 C 2534.88 1.58999 -0.138432 0
M  V30 26015 C 2535.08 1.49052 1.35594 0
M  V30 26016 O 2534.14 1.35543 2.13036 0
M  V30 26017 C 2535.45 2.92446 -0.699709 0
M  V30 26018 C 2537 3.0587 -0.664249 0
M  V30 26019 C 2537.47 4.41911 -1.20328 0
M  V30 26020 N 2538.96 4.48356 -1.16323 0
M  V30 26021 C 2539.7 5.52034 -1.55068 0
M  V30 26022 N 2539.19 6.62903 -2.01323 0
M  V30 26023 N 2540.99 5.42648 -1.46593 0
M  V30 26024 H 2533.14 1.54707 -1.45532 0
M  V30 26025 H 2535.4 0.731837 -0.602593 0
M  V30 26026 H 2535.11 3.05239 -1.74706 0
M  V30 26027 H 2534.98 3.76901 -0.15026 0
M  V30 26028 H 2537.37 2.92718 0.374221 0
M  V30 26029 H 2537.45 2.23142 -1.25065 0
M  V30 26030 H 2537.09 4.55814 -2.24045 0
M  V30 26031 H 2537.02 5.23251 -0.592988 0
M  V30 26032 H 2539.51 3.68804 -0.824123 0
M  V30 26033 H 2539.83 7.38091 -2.29003 0
M  V30 26034 H 2538.17 6.6399 -2.05284 0
M  V30 26035 H 2541.36 4.54922 -1.10289 0
M  V30 26036 H 2541.54 6.23326 -1.77114 0
M  V30 26037 N 2534.94 0.216646 1.56104 0
M  V30 26038 C 2535.89 -0.70876 2.16704 0
M  V30 26039 C 2536.88 -1.16104 1.11394 0
M  V30 26040 O 2538.07 -1.11585 1.37397 0
M  V30 26041 C 2535.2 -1.91881 2.84669 0
M  V30 26042 C 2534.28 -1.48644 3.97197 0
M  V30 26043 N 2534.67 -0.766346 4.99961 0
M  V30 26044 C 2532.97 -1.77411 4.09196 0
M  V30 26045 C 2533.67 -0.546557 5.79127 0
M  V30 26046 N 2532.65 -1.10179 5.32317 0
M  V30 26047 H 2536.45 -0.15011 2.93516 0
M  V30 26048 H 2533.96 0.0177054 1.6239 0
M  V30 26049 H 2535.96 -2.59248 3.26491 0
M  V30 26050 H 2534.62 -2.48198 2.09351 0
M  V30 26051 H 2535.63 -0.419543 5.16198 0
M  V30 26052 H 2532.31 -2.35082 3.45025 0
M  V30 26053 H 2533.7 0.0262211 6.71895 0
M  V30 26054 N 2536.42 -1.57498 -0.0567885 0
M  V30 26055 C 2537.84 -1.54193 -0.411906 0
M  V30 26056 C 2538.04 -0.938973 -1.78285 0
M  V30 26057 O 2537.09 -0.547962 -2.46483 0
M  V30 26058 C 2538.4 -2.98781 -0.339191 0
M  V30 26059 C 2539.95 -3.10192 -0.418294 0
M  V30 26060 C 2540.43 -4.5646 -0.375327 0
M  V30 26061 N 2541.92 -4.61153 -0.434957 0
M  V30 26062 C 2542.65 -5.71829 -0.424164 0
M  V30 26063 N 2542.15 -6.91826 -0.367297 0
M  V30 26064 N 2543.94 -5.60116 -0.471839 0
M  V30 26065 H 2536.09 -1.95053 0.840718 0
M  V30 26066 H 2538.36 -0.893428 0.317003 0
M  V30 26067 H 2538.06 -3.46513 0.601803 0
M  V30 26068 H 2537.94 -3.59445 -1.14364 0
M  V30 26069 H 2540.32 -2.62425 -1.34971 0
M  V30 26070 H 2540.4 -2.52411 0.415006 0
M  V30 26071 H 2540.05 -5.04888 0.552308 0
M  V30 26072 H 2539.98 -5.12121 -1.22636 0
M  V30 26073 H 2542.47 -3.74806 -0.482546 0
M  V30 26074 H 2542.78 -7.71945 -0.3634 0
M  V30 26075 H 2541.13 -6.94198 -0.333757 0
M  V30 26076 H 2544.32 -4.65269 -0.514064 0
M  V30 26077 H 2544.49 -6.46366 -0.459959 0
M  V30 26078 N 2537.9 0.328509 -1.54138 0
M  V30 26079 C 2539.31 0.903244 -1.63396 0
M  V30 26080 C 2539.66 1.89049 -0.524861 0
M  V30 26081 O 2538.78 2.13664 0.343031 0
M  V30 26082 C 2539.38 1.64502 -2.96183 0
M  V30 26083 C 2537.94 2.16855 -3.07654 0
M  V30 26084 C 2537.09 0.992371 -2.58935 0
M  V30 26085 H 2540.04 0.106225 -1.58344 0
M  V30 26086 H 2540.06 2.50892 -2.86066 0
M  V30 26087 H 2539.57 0.926236 -3.76885 0
M  V30 26088 H 2537.67 2.91864 -2.31616 0
M  V30 26089 H 2537.78 2.42195 -4.13375 0
M  V30 26090 H 2536.15 1.37012 -2.14709 0
M  V30 26091 H 2536.93 0.287981 -3.4209 0
M  V30 26092 N 2539.38 1.46127 0.590316 0
M  V30 26093 C 2540.62 1.50744 1.34613 0
M  V30 26094 C 2540.94 0.15752 1.94363 0
M  V30 26095 O 2540.21 -0.815104 1.78137 0
M  V30 26096 H 2538.79 0.555184 0.49978 0
M  V30 26097 H 2541.46 1.82204 0.691921 0
M  V30 26098 H 2540.55 2.25591 2.15674 0
M  V30 26099 N 2540.85 -0.834306 1.33705 0
M  V30 26100 C 2542.1 -1.58671 1.25172 0
M  V30 26101 C 2542.42 -1.94156 -0.181236 0
M  V30 26102 O 2541.69 -1.61342 -1.1111 0
M  V30 26103 H 2540.27 -0.588322 0.460311 0
M  V30 26104 H 2542.93 -0.996817 1.6748 0
M  V30 26105 H 2542.03 -2.51462 1.8486 0
M  V30 26106 N 2542.33 -1.17248 -1.05312 0
M  V30 26107 C 2543.58 -0.958225 -1.77939 0
M  V30 26108 C 2543.9 0.514523 -1.8809 0
M  V30 26109 O 2543.17 1.37357 -1.39678 0
M  V30 26110 H 2541.75 -0.351545 -0.659109 0
M  V30 26111 H 2544.41 -1.47701 -1.27163 0
M  V30 26112 H 2543.51 -1.38551 -2.79661 0
M  V30 26113 N 2543.81 1.24015 -0.972531 0
M  V30 26114 C 2545.23 1.44396 -0.679853 0
M  V30 26115 C 2545.43 1.86753 0.756683 0
M  V30 26116 O 2544.48 2.00864 1.53003 0
M  V30 26117 C 2545.8 2.50192 -1.66807 0
M  V30 26118 C 2547.34 2.64014 -1.68123 0
M  V30 26119 C 2547.82 3.73012 -2.65755 0
M  V30 26120 N 2549.31 3.80446 -2.64226 0
M  V30 26121 C 2550.04 4.64322 -3.36441 0
M  V30 26122 N 2549.54 5.52349 -4.1819 0
M  V30 26123 N 2551.33 4.58447 -3.25243 0
M  V30 26124 H 2543.48 0.948194 -1.90061 0
M  V30 26125 H 2545.75 0.478231 -0.818535 0
M  V30 26126 H 2545.45 2.25968 -2.69502 0
M  V30 26127 H 2545.33 3.48439 -1.44466 0
M  V30 26128 H 2547.71 2.87593 -0.661369 0
M  V30 26129 H 2547.8 1.6611 -1.94528 0
M  V30 26130 H 2547.44 3.50183 -3.67878 0
M  V30 26131 H 2547.37 4.70441 -2.36627 0
M  V30 26132 H 2549.86 3.17534 -2.04892 0
M  V30 26133 H 2550.17 6.13321 -4.70168 0
M  V30 26134 H 2548.52 5.51998 -4.22283 0
M  V30 26135 H 2551.71 3.88693 -2.60836 0
M  V30 26136 H 2551.88 5.23588 -3.81785 0
M  V30 26137 N 2545.29 0.743226 1.38974 0
M  V30 26138 C 2546.53 0.295224 2.0064 0
M  V30 26139 C 2546.87 -1.11713 1.58852 0
M  V30 26140 O 2546.14 -1.76313 0.821212 0
M  V30 26141 C 2546.43 0.406381 3.578 0
M  V30 26142 C 2546.28 1.8591 4.09582 0
M  V30 26143 C 2547.6 -0.206361 4.39616 0
M  V30 26144 H 2544.72 0.108746 0.728933 0
M  V30 26145 H 2547.36 0.940926 1.65065 0
M  V30 26146 H 2545.51 -0.143351 3.88235 0
M  V30 26147 H 2547.18 2.46634 3.89833 0
M  V30 26148 H 2545.42 2.37767 3.62835 0
M  V30 26149 H 2546.09 1.88809 5.18705 0
M  V30 26150 H 2548.57 0.262356 4.15272 0
M  V30 26151 H 2547.45 -0.0982854 5.48812 0
M  V30 26152 H 2547.71 -1.29342 4.22756 0
M  V30 26153 N 2546.77 -1.4974 0.491491 0
M  V30 26154 C 2547.71 -2.28946 -0.291986 0
M  V30 26155 C 2548.68 -1.3491 -0.968949 0
M  V30 26156 O 2549.87 -1.63861 -0.977452 0
M  V30 26157 C 2547.01 -3.17338 -1.35611 0
M  V30 26158 C 2546.12 -4.26423 -0.691882 0
M  V30 26159 C 2545.26 -5.02045 -1.73563 0
M  V30 26160 C 2544.3 -6.02979 -1.05276 0
M  V30 26161 N 2543.43 -6.71801 -2.04028 0
M  V30 26162 H 2548.27 -2.95441 0.389706 0
M  V30 26163 H 2545.81 -1.45678 0.204029 0
M  V30 26164 H 2547.77 -3.66954 -1.98495 0
M  V30 26165 H 2546.4 -2.52847 -2.00669 0
M  V30 26166 H 2545.45 -3.80367 0.0500192 0
M  V30 26167 H 2546.76 -4.98563 -0.153858 0
M  V30 26168 H 2545.92 -5.55482 -2.43977 0
M  V30 26169 H 2544.65 -4.29658 -2.3075 0
M  V30 26170 H 2543.66 -5.48782 -0.33435 0
M  V30 26171 H 2544.88 -6.77348 -0.487517 0
M  V30 26172 H 2542.83 -6.02192 -2.60194 0
M  V30 26173 H 2542.75 -7.39884 -1.55266 0
M  V30 26174 H 2544.02 -7.29847 -2.73759 0
M  V30 26175 N 2548.24 -0.224922 -1.55987 0
M  V30 26176 C 2549.49 0.406238 -1.97567 0
M  V30 26177 C 2549.81 1.60658 -1.11572 0
M  V30 26178 O 2551.01 2.30748 -1.43066 0
M  V30 26179 C 2549.47 0.774145 -3.51475 0
M  V30 26180 C 2549.08 -0.403574 -4.46179 0
M  V30 26181 C 2550.82 1.37072 -4.01761 0
M  V30 26182 C 2548.73 -0.0130452 -5.91399 0
M  V30 26183 H 2547.66 0.155552 -0.73778 0
M  V30 26184 H 2550.31 -0.321667 -1.80659 0
M  V30 26185 H 2548.69 1.55957 -3.63997 0
M  V30 26186 H 2549.86 -1.18109 -4.45406 0
M  V30 26187 H 2548.18 -0.913607 -4.06254 0
M  V30 26188 H 2550.78 1.67587 -5.07759 0
M  V30 26189 H 2551.12 2.28767 -3.4781 0
M  V30 26190 H 2551.65 0.648664 -3.92476 0
M  V30 26191 H 2548.39 -0.896565 -6.4934 0
M  V30 26192 H 2547.91 0.728717 -5.95357 0
M  V30 26193 H 2549.59 0.412468 -6.45684 0
M  V30 26194 N 2549.72 1.57526 0.0484352 0
M  V30 26195 C 2550.63 2.08656 1.07237 0
M  V30 26196 C 2551.65 1.02097 1.40898 0
M  V30 26197 O 2552.82 1.33715 1.50606 0
M  V30 26198 C 2549.89 2.53975 2.36004 0
M  V30 26199 C 2548.95 3.74933 2.09101 0
M  V30 26200 C 2548.18 4.18081 3.31729 0
M  V30 26201 O 2548.41 3.60903 4.41708 0
M  V30 26202 O 2547.34 5.10685 3.18567 0
M  V30 26203 H 2551.17 2.96264 0.667913 0
M  V30 26204 H 2548.75 1.47046 0.264144 0
M  V30 26205 H 2550.63 2.8354 3.11742 0
M  V30 26206 H 2549.31 1.69486 2.75783 0
M  V30 26207 H 2548.22 3.50416 1.30993 0
M  V30 26208 H 2549.55 4.60346 1.7419 0
M  V30 26209 N 2551.2 -0.32033 1.5431 0
M  V30 26210 C 2552.43 -1.08172 1.76956 0
M  V30 26211 C 2552.85 -1.8082 0.518225 0
M  V30 26212 O 2552.21 -1.73369 -0.530381 0
M  V30 26213 C 2552.26 -2.05298 2.96454 0
M  V30 26214 O 2551.36 -3.13255 2.68226 0
M  V30 26215 H 2550.7 -0.311723 0.586281 0
M  V30 26216 H 2553.23 -0.36364 2.01343 0
M  V30 26217 H 2553.24 -2.4811 3.23891 0
M  V30 26218 H 2551.92 -1.51822 3.87199 0
M  V30 26219 H 2550.49 -2.75094 2.51749 0
M  V30 26220 N 2552.68 -1.46438 -0.582558 0
M  V30 26221 C 2553.92 -1.5198 -1.34275 0
M  V30 26222 C 2554.26 -0.171007 -1.93446 0
M  V30 26223 O 2553.53 0.817577 -1.76482 0
M  V30 26224 C 2553.82 -2.61849 -2.47198 0
M  V30 26225 C 2553.67 -4.0626 -1.93062 0
M  V30 26226 C 2554.99 -2.67802 -3.49242 0
M  V30 26227 H 2552.11 -0.55329 -0.486866 0
M  V30 26228 H 2554.75 -1.78375 -0.654406 0
M  V30 26229 H 2552.9 -2.39474 -3.05916 0
M  V30 26230 H 2554.57 -4.39923 -1.388 0
M  V30 26231 H 2552.81 -4.15733 -1.2389 0
M  V30 26232 H 2553.48 -4.78865 -2.74577 0
M  V30 26233 H 2555.96 -2.87916 -3.00406 0
M  V30 26234 H 2554.84 -3.46496 -4.25713 0
M  V30 26235 H 2555.1 -1.73859 -4.06479 0
M  V30 26236 N 2554.16 0.827204 -1.34146 0
M  V30 26237 C 2555.1 1.93782 -1.25367 0
M  V30 26238 C 2556.07 1.65592 -0.129803 0
M  V30 26239 O 2557.26 1.88264 -0.310057 0
M  V30 26240 C 2554.4 3.29968 -1.0107 0
M  V30 26241 C 2553.51 3.7048 -2.22191 0
M  V30 26242 C 2552.65 4.95592 -1.91212 0
M  V30 26243 C 2551.69 5.28672 -3.085 0
M  V30 26244 N 2550.82 6.44962 -2.77432 0
M  V30 26245 H 2555.66 2.00623 -2.20351 0
M  V30 26246 H 2553.2 0.981589 -1.09559 0
M  V30 26247 H 2555.16 4.08445 -0.850211 0
M  V30 26248 H 2553.79 3.22653 -0.0975593 0
M  V30 26249 H 2552.84 2.8743 -2.49175 0
M  V30 26250 H 2554.15 3.909 -3.09837 0
M  V30 26251 H 2553.31 5.81845 -1.71875 0
M  V30 26252 H 2552.04 4.77165 -1.0082 0
M  V30 26253 H 2551.05 4.40918 -3.28438 0
M  V30 26254 H 2552.27 5.4904 -3.99664 0
M  V30 26255 H 2550.22 6.27999 -1.89612 0
M  V30 26256 H 2550.14 6.65534 -3.5861 0
M  V30 26257 H 2551.41 7.34296 -2.61589 0
M  V30 26258 N 2555.63 1.17805 1.04688 0
M  V30 26259 C 2556.56 0.922788 2.14492 0
M  V30 26260 C 2557.55 -0.137149 1.69546 0
M  V30 26261 O 2558.73 0.014145 1.94195 0
M  V30 26262 C 2555.86 0.440864 3.4449 0
M  V30 26263 C 2554.81 1.44057 4.03028 0
M  V30 26264 C 2554.14 0.816403 5.28431 0
M  V30 26265 C 2555.44 2.81535 4.39927 0
M  V30 26266 H 2557.13 1.84107 2.36104 0
M  V30 26267 H 2554.68 0.886619 1.13468 0
M  V30 26268 H 2556.63 0.249676 4.2066 0
M  V30 26269 H 2555.36 -0.512968 3.22546 0
M  V30 26270 H 2554.02 1.61859 3.28934 0
M  V30 26271 H 2553.66 -0.144423 5.02793 0
M  V30 26272 H 2553.36 1.48381 5.68557 0
M  V30 26273 H 2554.89 0.635603 6.07283 0
M  V30 26274 H 2556.3 2.67421 5.07108 0
M  V30 26275 H 2554.7 3.449 4.91084 0
M  V30 26276 H 2555.77 3.35561 3.50039 0
M  V30 26277 N 2557.11 -1.23497 0.979094 0
M  V30 26278 C 2558.39 -1.87301 0.563707 0
M  V30 26279 C 2558.77 -1.88051 -0.959166 0
M  V30 26280 O 2558.12 -1.36117 -1.83533 0
M  V30 26281 C 2558.33 -3.28865 1.16828 0
M  V30 26282 C 2559.68 -4.05467 1.26021 0
M  V30 26283 O 2560.7 -3.3808 1.12164 0
M  V30 26284 O 2559.56 -5.26063 1.48053 0
M  V30 26285 H 2556.65 -0.804969 0.189616 0
M  V30 26286 H 2559.2 -1.31382 1.07409 0
M  V30 26287 H 2557.97 -3.22879 2.21054 0
M  V30 26288 H 2557.59 -3.92372 0.642633 0
M  V30 26289 N 2558.59 -0.750586 -1.38578 0
M  V30 26290 C 2559.84 -0.305408 -2.00184 0
M  V30 26291 C 2560.17 1.112 -1.59577 0
M  V30 26292 O 2559.42 1.77541 -0.823267 0
M  V30 26293 C 2559.72 -0.372435 -3.55454 0
M  V30 26294 C 2559.39 -1.74507 -4.15762 0
M  V30 26295 C 2558.05 -2.12073 -4.31947 0
M  V30 26296 C 2560.4 -2.64561 -4.49062 0
M  V30 26297 C 2557.73 -3.3917 -4.78728 0
M  V30 26298 C 2560.08 -3.91046 -4.97258 0
M  V30 26299 C 2558.74 -4.28685 -5.1165 0
M  V30 26300 H 2558.01 -0.111757 -0.732524 0
M  V30 26301 H 2560.66 -0.96048 -1.65671 0
M  V30 26302 H 2558.97 0.366203 -3.90085 0
M  V30 26303 H 2560.66 -0.00960966 -4.00999 0
M  V30 26304 H 2557.25 -1.44304 -4.03577 0
M  V30 26305 H 2561.44 -2.36804 -4.36162 0
M  V30 26306 H 2556.69 -3.68255 -4.88056 0
M  V30 26307 H 2560.87 -4.60971 -5.21995 0
M  V30 26308 H 2558.49 -5.27232 -5.47659 0
M  V30 26309 N 2560.07 1.49477 -0.499425 0
M  V30 26310 C 2561.02 2.29097 0.279841 0
M  V30 26311 C 2561.99 1.35422 0.961781 0
M  V30 26312 O 2563.17 1.64377 0.968748 0
M  V30 26313 C 2560.31 3.18053 1.33926 0
M  V30 26314 C 2559.42 4.26784 0.669258 0
M  V30 26315 C 2558.56 5.02958 1.70899 0
M  V30 26316 C 2557.6 6.03529 1.02077 0
M  V30 26317 N 2556.74 6.72874 2.00462 0
M  V30 26318 H 2561.58 2.9523 -0.405369 0
M  V30 26319 H 2559.11 1.45568 -0.211752 0
M  V30 26320 H 2561.07 3.68002 1.96547 0
M  V30 26321 H 2559.7 2.53908 1.99326 0
M  V30 26322 H 2558.75 3.80335 -0.0701903 0
M  V30 26323 H 2560.06 4.98637 0.127416 0
M  V30 26324 H 2559.22 5.56768 2.41028 0
M  V30 26325 H 2557.96 4.30875 2.28468 0
M  V30 26326 H 2556.96 5.48952 0.305242 0
M  V30 26327 H 2558.19 6.77597 0.451589 0
M  V30 26328 H 2556.13 6.03563 2.56997 0
M  V30 26329 H 2556.05 7.40697 1.5134 0
M  V30 26330 H 2557.32 7.31288 2.69885 0
M  V30 26331 N 2561.55 0.233191 1.55865 0
M  V30 26332 C 2562.46 -0.683178 2.24432 0
M  V30 26333 C 2563.47 -1.20438 1.25582 0
M  V30 26334 O 2564.65 -1.24353 1.58424 0
M  V30 26335 C 2561.71 -1.86942 2.91982 0
M  V30 26336 C 2560.78 -1.38905 4.06207 0
M  V30 26337 C 2560.01 -2.51875 4.70526 0
M  V30 26338 O 2560.23 -3.70286 4.33872 0
M  V30 26339 O 2559.17 -2.22413 5.593 0
M  V30 26340 H 2562.99 -0.129006 3.03426 0
M  V30 26341 H 2560.58 0.00225456 1.494 0
M  V30 26342 H 2562.46 -2.56195 3.34577 0
M  V30 26343 H 2561.13 -2.41147 2.15939 0
M  V30 26344 H 2560.04 -0.664195 3.68157 0
M  V30 26345 H 2561.37 -0.893243 4.84027 0
M  V30 26346 N 2563.03 -1.57549 -0.0400806 0
M  V30 26347 C 2563.97 -2.05833 -1.0441 0
M  V30 26348 C 2564.94 -0.945208 -1.36583 0
M  V30 26349 O 2566.13 -1.21505 -1.4711 0
M  V30 26350 C 2563.27 -2.53343 -2.34332 0
M  V30 26351 C 2562.38 -3.78402 -2.08413 0
M  V30 26352 C 2561.52 -4.14567 -3.32126 0
M  V30 26353 C 2560.55 -5.32575 -3.01712 0
M  V30 26354 N 2559.69 -5.64225 -4.17845 0
M  V30 26355 H 2564.53 -2.91364 -0.625391 0
M  V30 26356 H 2562.07 -1.44067 -0.297192 0
M  V30 26357 H 2564.03 -2.78951 -3.10229 0
M  V30 26358 H 2562.66 -1.70745 -2.73945 0
M  V30 26359 H 2561.71 -3.59944 -1.23062 0
M  V30 26360 H 2563.02 -4.64423 -1.8197 0
M  V30 26361 H 2562.17 -4.41245 -4.16398 0
M  V30 26362 H 2560.91 -3.27176 -3.61673 0
M  V30 26363 H 2559.92 -5.05661 -2.1584 0
M  V30 26364 H 2561.14 -6.2161 -2.73455 0
M  V30 26365 H 2559.09 -4.79794 -4.47364 0
M  V30 26366 H 2559.01 -6.44732 -3.94787 0
M  V30 26367 H 2560.27 -5.95473 -5.03022 0
M  V30 26368 N 2564.5 0.312142 -1.54478 0
M  V30 26369 C 2565.47 1.36763 -1.83925 0
M  V30 26370 C 2566.47 1.44198 -0.711588 0
M  V30 26371 O 2567.66 1.44027 -0.979892 0
M  V30 26372 C 2564.79 2.75373 -2.00955 0
M  V30 26373 H 2565.98 1.11901 -2.78241 0
M  V30 26374 H 2563.53 0.548232 -1.4637 0
M  V30 26375 H 2564.27 3.05473 -1.08889 0
M  V30 26376 H 2564.05 2.71368 -2.83023 0
M  V30 26377 H 2565.54 3.51709 -2.25146 0
M  V30 26378 N 2565.98 1.46745 0.574784 0
M  V30 26379 C 2566.91 1.53949 1.69801 0
M  V30 26380 C 2567.93 0.427134 1.57097 0
M  V30 26381 O 2569.12 0.695892 1.64376 0
M  V30 26382 C 2566.22 1.41116 3.08123 0
M  V30 26383 C 2565.39 2.66611 3.46753 0
M  V30 26384 C 2564.45 2.47864 4.64166 0
M  V30 26385 O 2563.47 3.21617 4.69629 0
M  V30 26386 N 2564.68 1.54544 5.5955 0
M  V30 26387 H 2567.44 2.50799 1.64073 0
M  V30 26388 H 2565 1.42901 0.760975 0
M  V30 26389 H 2566.99 1.26334 3.84476 0
M  V30 26390 H 2565.56 0.524163 3.08174 0
M  V30 26391 H 2564.78 2.96278 2.60025 0
M  V30 26392 H 2566.07 3.4996 3.69331 0
M  V30 26393 H 2565.47 0.937402 5.57879 0
M  V30 26394 H 2564.03 1.45722 6.35302 0
M  V30 26395 N 2567.46 -0.820078 1.34583 0
M  V30 26396 C 2568.42 -1.91273 1.26283 0
M  V30 26397 C 2569.42 -1.59819 0.177372 0
M  V30 26398 O 2570.61 -1.68805 0.430186 0
M  V30 26399 C 2567.74 -3.27384 0.950385 0
M  V30 26400 H 2568.94 -2.00054 2.23425 0
M  V30 26401 H 2566.49 -1.01438 1.18912 0
M  V30 26402 H 2567.23 -3.24295 -0.0177368 0
M  V30 26403 H 2567.01 -3.51598 1.73556 0
M  V30 26404 H 2568.5 -4.07395 0.917564 0
M  V30 26405 N 2568.94 -1.18359 -1.04062 0
M  V30 26406 C 2569.88 -0.91064 -2.12075 0
M  V30 26407 C 2570.85 0.149971 -1.65422 0
M  V30 26408 O 2572.04 0.0103279 -1.90797 0
M  V30 26409 C 2569.18 -0.442532 -3.42251 0
M  V30 26410 C 2568.29 -1.56857 -4.02517 0
M  V30 26411 C 2567.43 -1.05318 -5.20655 0
M  V30 26412 C 2566.47 -2.1539 -5.72951 0
M  V30 26413 N 2565.6 -1.65245 -6.82377 0
M  V30 26414 H 2570.44 -1.83552 -2.34761 0
M  V30 26415 H 2567.98 -0.915299 -1.15155 0
M  V30 26416 H 2569.94 -0.152607 -4.16921 0
M  V30 26417 H 2568.57 0.445372 -3.19713 0
M  V30 26418 H 2567.62 -1.97397 -3.25175 0
M  V30 26419 H 2568.93 -2.39832 -4.37358 0
M  V30 26420 H 2568.09 -0.717782 -6.02439 0
M  V30 26421 H 2566.83 -0.193016 -4.87318 0
M  V30 26422 H 2565.83 -2.49775 -4.89788 0
M  V30 26423 H 2567.06 -3.01842 -6.08332 0
M  V30 26424 H 2565 -0.815178 -6.50915 0
M  V30 26425 H 2564.92 -2.41818 -7.16282 0
M  V30 26426 H 2566.19 -1.34633 -7.67785 0
M  V30 26427 N 2570.42 1.22976 -0.98563 0
M  V30 26428 C 2571.66 1.91815 -0.658393 0
M  V30 26429 C 2571.99 1.76654 0.806661 0
M  V30 26430 O 2571.27 1.13081 1.5825 0
M  V30 26431 C 2571.55 3.44266 -1.05606 0
M  V30 26432 C 2571.41 3.68512 -2.57913 0
M  V30 26433 C 2572.72 4.35938 -0.603857 0
M  V30 26434 H 2569.84 0.696599 -0.240662 0
M  V30 26435 H 2572.49 1.44996 -1.22785 0
M  V30 26436 H 2570.64 3.84273 -0.571513 0
M  V30 26437 H 2572.31 3.37954 -3.13982 0
M  V30 26438 H 2570.55 3.13043 -3.00311 0
M  V30 26439 H 2571.22 4.7525 -2.80788 0
M  V30 26440 H 2573.7 4.03406 -1.01994 0
M  V30 26441 H 2572.57 5.41296 -0.910478 0
M  V30 26442 H 2572.83 4.39312 0.495684 0
M  V30 26443 N 2571.89 0.757924 1.38178 0
M  V30 26444 C 2573.14 0.315396 1.99624 0
M  V30 26445 C 2573.46 -1.10796 1.60465 0
M  V30 26446 O 2572.73 -1.7584 0.863538 0
M  V30 26447 H 2571.31 0.113624 0.738308 0
M  V30 26448 H 2573.97 0.972982 1.68876 0
M  V30 26449 H 2573.07 0.381986 3.09754 0
M  V30 26450 N 2573.37 -1.4921 0.507345 0
M  V30 26451 C 2574.6 -2.07373 -0.0336885 0
M  V30 26452 C 2575.02 -1.3644 -1.29483 0
M  V30 26453 O 2574.38 -0.423118 -1.76294 0
M  V30 26454 C 2574.43 -3.59633 -0.263882 0
M  V30 26455 O 2573.53 -3.90115 -1.33731 0
M  V30 26456 H 2572.87 -0.663364 0.0290447 0
M  V30 26457 H 2575.4 -1.91931 0.708783 0
M  V30 26458 H 2575.41 -4.05005 -0.493464 0
M  V30 26459 H 2574.09 -4.1067 0.657496 0
M  V30 26460 H 2572.67 -3.56547 -1.09217 0
M  V30 26461 N 2574.85 -0.241454 -1.55739 0
M  V30 26462 C 2575.78 0.654682 -2.24134 0
M  V30 26463 C 2576.76 1.18558 -1.21976 0
M  V30 26464 O 2577.95 1.22592 -1.50615 0
M  V30 26465 C 2575.08 1.85418 -2.93662 0
M  V30 26466 C 2574.03 1.45629 -4.02463 0
M  V30 26467 C 2573.36 2.73618 -4.59388 0
M  V30 26468 C 2574.66 0.631415 -5.18469 0
M  V30 26469 H 2576.35 0.0843827 -2.99281 0
M  V30 26470 H 2573.9 0.0391454 -1.43947 0
M  V30 26471 H 2575.85 2.4867 -3.40208 0
M  V30 26472 H 2574.57 2.44977 -2.15995 0
M  V30 26473 H 2573.23 0.84714 -3.56678 0
M  V30 26474 H 2572.88 3.31363 -3.78428 0
M  V30 26475 H 2572.58 2.47721 -5.3283 0
M  V30 26476 H 2574.1 3.37777 -5.08664 0
M  V30 26477 H 2575.52 1.1681 -5.61274 0
M  V30 26478 H 2573.92 0.468726 -5.98267 0
M  V30 26479 H 2574.99 -0.357591 -4.8358 0
M  V30 26480 N 2576.33 1.57568 0.0317248 0
M  V30 26481 C 2577.61 1.80302 0.758334 0
M  V30 26482 C 2577.99 0.838879 1.93716 0
M  V30 26483 O 2577.33 -0.119531 2.28187 0
M  V30 26484 C 2577.54 3.27945 1.19387 0
M  V30 26485 C 2578.89 3.92856 1.61087 0
M  V30 26486 O 2579.92 3.32078 1.28851 0
M  V30 26487 O 2578.77 4.99861 2.20909 0
M  V30 26488 H 2575.87 0.741354 0.366501 0
M  V30 26489 H 2578.41 1.69698 0.00870782 0
M  V30 26490 H 2577.19 3.89712 0.352207 0
M  V30 26491 H 2576.81 3.43427 2.00359 0
M  V30 26492 N 2577.81 -0.303946 1.54641 0
M  V30 26493 C 2578.75 -1.39481 1.86139 0
M  V30 26494 C 2579.75 -1.5263 0.734881 0
M  V30 26495 O 2580.95 -1.54782 0.918831 0
M  V30 26496 H 2577.33 -0.465846 0.590332 0
M  V30 26497 H 2579.3 -1.10149 2.77326 0
M  V30 26498 C 2578.05 -2.75378 2.12279 0
M  V30 26499 H 2577.37 -2.6604 2.98433 0
M  V30 26500 H 2578.81 -3.50725 2.3826 0
M  V30 26501 C 2577.27 -3.24083 0.920422 0
M  V30 26502 O 2577.8 -4.01458 0.139448 0
M  V30 26503 N 2576.01 -2.81369 0.726616 0
M  V30 26504 H 2575.55 -2.18564 1.36336 0
M  V30 26505 H 2575.51 -3.14307 -0.0763246 0
M  V30 26506 N 2579.28 -1.47047 -0.566994 0
M  V30 26507 C 2580.25 -1.58362 -1.65693 0
M  V30 26508 C 2581.25 -0.459469 -1.54096 0
M  V30 26509 O 2582.44 -0.724253 -1.5843 0
M  V30 26510 C 2579.57 -1.51885 -3.05195 0
M  V30 26511 H 2580.76 -2.55512 -1.57014 0
M  V30 26512 H 2578.32 -1.35092 -0.786125 0
M  V30 26513 H 2579.05 -0.560729 -3.19416 0
M  V30 26514 H 2578.84 -2.33461 -3.15021 0
M  V30 26515 H 2580.33 -1.6292 -3.84508 0
M  V30 26516 N 2580.76 0.812929 -1.35016 0
M  V30 26517 C 2581.71 1.91356 -1.23963 0
M  V30 26518 C 2582.7 1.60321 -0.136334 0
M  V30 26519 O 2583.89 1.73154 -0.366955 0
M  V30 26520 C 2581.02 3.28186 -1.00741 0
M  V30 26521 C 2580.1 3.65307 -2.15433 0
M  V30 26522 N 2580.49 3.73915 -3.40619 0
M  V30 26523 C 2578.79 3.95221 -2.06679 0
M  V30 26524 C 2579.49 4.06593 -4.16001 0
M  V30 26525 N 2578.47 4.20343 -3.44693 0
M  V30 26526 H 2582.27 1.96204 -2.18818 0
M  V30 26527 H 2579.79 1.00716 -1.27397 0
M  V30 26528 H 2581.78 4.06867 -0.909124 0
M  V30 26529 H 2580.44 3.2463 -0.067643 0
M  V30 26530 H 2581.45 3.57154 -3.75049 0
M  V30 26531 H 2578.13 3.99727 -1.20518 0
M  V30 26532 H 2579.52 4.20373 -5.24153 0
M  V30 26533 N 2582.24 1.18909 1.03433 0
M  V30 26534 C 2583.19 0.889743 2.09923 0
M  V30 26535 C 2584.17 -0.143188 1.60262 0
M  V30 26536 O 2585.37 0.0617433 1.76892 0
M  V30 26537 C 2582.5 0.424228 3.40669 0
M  V30 26538 C 2581.58 1.48959 3.97079 0
M  V30 26539 N 2581.97 2.70766 4.27223 0
M  V30 26540 C 2580.27 1.3516 4.25027 0
M  V30 26541 C 2580.97 3.39355 4.72454 0
M  V30 26542 N 2579.95 2.66743 4.73655 0
M  V30 26543 H 2583.75 1.8156 2.31113 0
M  V30 26544 H 2581.26 1.08044 1.21245 0
M  V30 26545 H 2583.26 0.19125 4.16461 0
M  V30 26546 H 2581.92 -0.495207 3.20902 0
M  V30 26547 H 2582.93 3.07578 4.16673 0
M  V30 26548 H 2579.61 0.495199 4.14553 0
M  V30 26549 H 2581 4.4349 5.04744 0
M  V30 26550 N 2583.72 -1.22452 0.992137 0
M  V30 26551 C 2584.96 -1.91463 0.668557 0
M  V30 26552 C 2585.3 -1.77079 -0.797281 0
M  V30 26553 O 2584.57 -1.13919 -1.57648 0
M  V30 26554 C 2584.86 -3.43702 1.0743 0
M  V30 26555 C 2584.71 -3.67139 2.59864 0
M  V30 26556 C 2586.03 -4.35611 0.626968 0
M  V30 26557 H 2583.15 -0.695313 0.244353 0
M  V30 26558 H 2585.79 -1.44343 1.23552 0
M  V30 26559 H 2583.94 -3.83965 0.591884 0
M  V30 26560 H 2585.61 -3.36284 3.1577 0
M  V30 26561 H 2583.85 -3.11446 3.01967 0
M  V30 26562 H 2584.52 -4.73754 2.83304 0
M  V30 26563 H 2587 -4.02859 1.04132 0
M  V30 26564 H 2585.88 -5.40806 0.939171 0
M  V30 26565 H 2586.14 -4.39569 -0.472379 0
M  V30 26566 N 2585.2 -0.765242 -1.37774 0
M  V30 26567 C 2586.61 -0.392851 -1.8252 0
M  V30 26568 C 2586.96 1.08014 -1.63791 0
M  V30 26569 O 2586.08 1.83599 -1.14545 0
M  V30 26570 C 2586.68 -0.706272 -3.31357 0
M  V30 26571 C 2585.24 -0.387018 -3.74405 0
M  V30 26572 C 2584.38 -0.953468 -2.60393 0
M  V30 26573 H 2587.34 -0.960435 -1.26338 0
M  V30 26574 H 2587.36 0.0114037 -3.80498 0
M  V30 26575 H 2586.87 -1.77839 -3.44956 0
M  V30 26576 H 2584.97 0.678048 -3.66379 0
M  V30 26577 H 2585.08 -0.890719 -4.70747 0
M  V30 26578 H 2583.45 -0.378108 -2.51878 0
M  V30 26579 H 2584.23 -2.03085 -2.76787 0
M  V30 26580 N 2586.67 1.48939 -0.515251 0
M  V30 26581 C 2587.92 2.02086 0.0241316 0
M  V30 26582 C 2588.24 1.39593 1.36157 0
M  V30 26583 O 2587.51 0.556154 1.8784 0
M  V30 26584 H 2586.09 0.746905 0.0119072 0
M  V30 26585 H 2588.76 1.82811 -0.675734 0
M  V30 26586 H 2587.85 3.11771 0.143331 0
M  V30 26587 N 2588.15 0.249709 1.55609 0
M  V30 26588 C 2589.4 -0.373513 1.98618 0
M  V30 26589 C 2589.72 -1.58262 1.13922 0
M  V30 26590 O 2588.99 -1.9463 0.222671 0
M  V30 26591 H 2587.57 -0.140993 0.733573 0
M  V30 26592 H 2590.23 0.34915 1.91747 0
M  V30 26593 H 2589.33 -0.680743 3.04585 0
M  V30 26594 N 2589.63 -1.57583 -0.0233682 0
M  V30 26595 C 2590.88 -1.89157 -0.711621 0
M  V30 26596 C 2591.2 -0.848127 -1.7559 0
M  V30 26597 O 2590.47 0.117532 -1.95547 0
M  V30 26598 H 2589.05 -0.698102 -0.265823 0
M  V30 26599 H 2591.71 -1.94896 0.012029 0
M  V30 26600 H 2590.81 -2.88208 -1.19761 0
M  V30 26601 N 2591.11 0.29574 -1.548 0
M  V30 26602 C 2592.06 1.38492 -1.86877 0
M  V30 26603 C 2593.05 1.52238 -0.742965 0
M  V30 26604 O 2594.26 1.54293 -0.927026 0
M  V30 26605 H 2590.63 0.462709 -0.592794 0
M  V30 26606 H 2592.6 1.08677 -2.77906 0
M  V30 26607 C 2591.35 2.74248 -2.13736 0
M  V30 26608 H 2590.68 2.64454 -2.9984 0
M  V30 26609 H 2592.12 3.49457 -2.40116 0
M  V30 26610 C 2590.57 3.2359 -0.937595 0
M  V30 26611 O 2591.1 4.01378 -0.160736 0
M  V30 26612 N 2589.31 2.8098 -0.741527 0
M  V30 26613 H 2588.86 2.17838 -1.37493 0
M  V30 26614 H 2588.82 3.14343 0.0596551 0
M  V30 26615 N 2592.59 1.47346 0.559187 0
M  V30 26616 C 2593.83 1.54097 1.3184 0
M  V30 26617 C 2594.17 0.20176 1.93149 0
M  V30 26618 O 2593.44 -0.789397 1.7776 0
M  V30 26619 C 2593.72 2.65749 2.43001 0
M  V30 26620 C 2593.58 4.0928 1.86574 0
M  V30 26621 C 2594.9 2.73324 3.44938 0
M  V30 26622 H 2592.02 0.560966 0.478002 0
M  V30 26623 H 2594.66 1.79393 0.625945 0
M  V30 26624 H 2592.81 2.44311 3.02067 0
M  V30 26625 H 2594.48 4.42075 1.31784 0
M  V30 26626 H 2592.72 4.17651 1.17261 0
M  V30 26627 H 2593.39 4.83172 2.66924 0
M  V30 26628 H 2595.87 2.92659 2.95787 0
M  V30 26629 H 2594.75 3.53225 4.20147 0
M  V30 26630 H 2595.01 1.80304 4.03662 0
M  V30 26631 N 2594.07 -0.805758 1.35445 0
M  V30 26632 C 2595.01 -1.91763 1.28434 0
M  V30 26633 C 2595.98 -1.65365 0.156131 0
M  V30 26634 O 2597.17 -1.87747 0.339969 0
M  V30 26635 C 2594.31 -3.28318 1.06306 0
M  V30 26636 C 2593.42 -3.66898 2.28057 0
M  V30 26637 C 2592.56 -4.92487 1.99072 0
M  V30 26638 C 2591.59 -5.23697 3.16872 0
M  V30 26639 N 2590.73 -6.40466 2.87658 0
M  V30 26640 H 2595.57 -1.97092 2.23515 0
M  V30 26641 H 2593.11 -0.964034 1.11107 0
M  V30 26642 H 2595.07 -4.07041 0.915084 0
M  V30 26643 H 2593.7 -3.22456 0.148878 0
M  V30 26644 H 2592.75 -2.8343 2.53716 0
M  V30 26645 H 2594.06 -3.85921 3.16016 0
M  V30 26646 H 2593.21 -5.79037 1.8111 0
M  V30 26647 H 2591.95 -4.75501 1.08399 0
M  V30 26648 H 2590.96 -4.35637 3.35411 0
M  V30 26649 H 2592.18 -5.42613 4.08348 0
M  V30 26650 H 2590.13 -6.24903 1.99579 0
M  V30 26651 H 2590.05 -6.59744 3.69153 0
M  V30 26652 H 2591.31 -7.30042 2.73238 0
M  V30 26653 N 2595.54 -1.19456 -1.02801 0
M  V30 26654 C 2596.79 -0.992027 -1.75618 0
M  V30 26655 C 2597.11 0.477867 -1.89673 0
M  V30 26656 O 2598.31 0.799241 -2.59469 0
M  V30 26657 C 2596.77 -1.72606 -3.15809 0
M  V30 26658 C 2596.38 -3.23612 -3.09805 0
M  V30 26659 C 2598.12 -1.6068 -3.92915 0
M  V30 26660 C 2596.03 -3.89601 -4.44932 0
M  V30 26661 H 2594.96 -0.367555 -0.658346 0
M  V30 26662 H 2597.61 -1.42961 -1.15041 0
M  V30 26663 H 2595.99 -1.2163 -3.76858 0
M  V30 26664 H 2597.16 -3.81713 -2.58131 0
M  V30 26665 H 2595.48 -3.35823 -2.46195 0
M  V30 26666 H 2598.08 -2.07332 -4.92867 0
M  V30 26667 H 2598.42 -0.561098 -4.12501 0
M  V30 26668 H 2598.95 -2.09007 -3.38469 0
M  V30 26669 H 2595.69 -4.94274 -4.3055 0
M  V30 26670 H 2595.21 -3.36289 -4.96658 0
M  V30 26671 H 2596.89 -3.93199 -5.13813 0
M  V30 26672 N 2597.02 1.21924 -0.998617 0
M  V30 26673 C 2598.3 1.86381 -0.593434 0
M  V30 26674 C 2598.68 1.89553 0.929127 0
M  V30 26675 O 2598.03 1.3902 1.81344 0
M  V30 26676 C 2598.24 3.26965 -1.22045 0
M  V30 26677 C 2599.58 4.03411 -1.32456 0
M  V30 26678 O 2600.61 3.36252 -1.17528 0
M  V30 26679 O 2599.47 5.23641 -1.56404 0
M  V30 26680 H 2596.56 0.80185 -0.202399 0
M  V30 26681 H 2599.11 1.29657 -1.09486 0
M  V30 26682 H 2597.88 3.19321 -2.26163 0
M  V30 26683 H 2597.5 3.913 -0.704975 0
M  V30 26684 N 2598.5 0.772537 1.37367 0
M  V30 26685 C 2599.72 0.347421 2.04469 0
M  V30 26686 C 2600.15 -1.02247 1.57883 0
M  V30 26687 O 2599.51 -1.65535 0.739439 0
M  V30 26688 C 2599.56 0.400542 3.58369 0
M  V30 26689 O 2598.66 -0.598718 4.08031 0
M  V30 26690 H 2598 0.150282 0.64677 0
M  V30 26691 H 2600.53 1.04895 1.75665 0
M  V30 26692 H 2600.54 0.258117 4.07183 0
M  V30 26693 H 2599.22 1.39993 3.91631 0
M  V30 26694 H 2597.79 -0.419346 3.70535 0
M  V30 26695 N 2599.98 -1.48664 0.523142 0
M  V30 26696 C 2600.91 -2.27479 -0.280381 0
M  V30 26697 C 2601.92 -1.34947 -0.91067 0
M  V30 26698 O 2603.11 -1.60053 -0.790267 0
M  V30 26699 C 2600.21 -3.081 -1.41166 0
M  V30 26700 C 2599.38 -4.28362 -0.884567 0
M  V30 26701 C 2598.44 -4.90849 -1.89613 0
M  V30 26702 O 2597.47 -5.50268 -1.45581 0
M  V30 26703 N 2598.67 -4.82478 -3.22793 0
M  V30 26704 H 2601.44 -2.97078 0.395533 0
M  V30 26705 H 2599 -1.57914 0.357046 0
M  V30 26706 H 2600.99 -3.46774 -2.08639 0
M  V30 26707 H 2599.56 -2.40965 -1.99135 0
M  V30 26708 H 2598.78 -3.94185 -0.0340484 0
M  V30 26709 H 2600.07 -5.06226 -0.511179 0
M  V30 26710 H 2599.47 -4.35343 -3.61239 0
M  V30 26711 H 2598.02 -5.25272 -3.85918 0
M  V30 26712 N 2601.46 -0.257958 -1.55475 0
M  V30 26713 C 2602.4 0.6369 -2.21838 0
M  V30 26714 C 2603.37 1.16292 -1.18598 0
M  V30 26715 O 2604.56 1.21537 -1.47083 0
M  V30 26716 C 2601.7 1.82312 -2.93013 0
M  V30 26717 C 2600.81 1.33258 -4.10934 0
M  V30 26718 C 2599.95 2.47923 -4.69795 0
M  V30 26719 C 2598.98 1.95786 -5.79943 0
M  V30 26720 N 2598.12 3.03859 -6.32941 0
M  V30 26721 H 2602.96 0.0643067 -2.97931 0
M  V30 26722 H 2600.5 0.0199772 -1.47086 0
M  V30 26723 H 2602.46 2.52012 -3.32484 0
M  V30 26724 H 2601.09 2.36801 -2.19374 0
M  V30 26725 H 2600.14 0.529244 -3.767 0
M  V30 26726 H 2601.45 0.910568 -4.90418 0
M  V30 26727 H 2600.6 3.25647 -5.11898 0
M  V30 26728 H 2599.34 2.93431 -3.89551 0
M  V30 26729 H 2598.35 1.16536 -5.37308 0
M  V30 26730 H 2599.57 1.51234 -6.62046 0
M  V30 26731 H 2597.52 3.48781 -5.55597 0
M  V30 26732 H 2597.44 2.66023 -7.07649 0
M  V30 26733 H 2598.7 3.81609 -6.79702 0
M  V30 26734 N 2602.93 1.57593 0.0150108 0
M  V30 26735 C 2603.86 2.10505 1.01044 0
M  V30 26736 C 2604.85 1.01074 1.36814 0
M  V30 26737 O 2606.03 1.28675 1.45452 0
M  V30 26738 C 2603.16 2.59602 2.30703 0
M  V30 26739 C 2602.11 3.73425 2.09136 0
M  V30 26740 C 2601.44 4.0878 3.44678 0
M  V30 26741 C 2602.74 5.01301 1.4661 0
M  V30 26742 H 2604.43 2.93926 0.569926 0
M  V30 26743 H 2601.98 1.41394 0.272699 0
M  V30 26744 H 2603.93 2.95243 3.00682 0
M  V30 26745 H 2602.66 1.73284 2.7684 0
M  V30 26746 H 2601.32 3.38155 1.41586 0
M  V30 26747 H 2600.96 3.19507 3.8849 0
M  V30 26748 H 2600.66 4.85456 3.31068 0
M  V30 26749 H 2602.19 4.46967 4.15996 0
M  V30 26750 H 2603.6 5.34809 2.06525 0
M  V30 26751 H 2602 5.82682 1.43534 0
M  V30 26752 H 2603.07 4.82958 0.433526 0
M  V30 26753 N 2604.41 -0.287527 1.54955 0
M  V30 26754 C 2605.36 -1.37499 1.87608 0
M  V30 26755 C 2606.35 -1.51842 0.751028 0
M  V30 26756 O 2607.56 -1.53799 0.935196 0
M  V30 26757 H 2603.94 -0.459558 0.595239 0
M  V30 26758 H 2605.91 -1.07201 2.78479 0
M  V30 26759 C 2604.66 -2.73111 2.15188 0
M  V30 26760 H 2603.98 -2.6286 3.01238 0
M  V30 26761 H 2605.42 -3.48179 2.41966 0
M  V30 26762 C 2603.88 -3.23089 0.954743 0
M  V30 26763 O 2604.41 -4.01287 0.18202 0
M  V30 26764 N 2602.61 -2.80583 0.756418 0
M  V30 26765 H 2602.16 -2.17106 1.38646 0
M  V30 26766 H 2602.12 -3.14371 -0.0429839 0
M  V30 26767 N 2605.89 -1.47641 -0.551365 0
M  V30 26768 C 2607.14 -1.54565 -1.30827 0
M  V30 26769 C 2607.47 -0.210395 -1.93359 0
M  V30 26770 O 2606.72 0.797301 -1.78722 0
M  V30 26771 C 2607.02 -2.61649 -2.43464 0
M  V30 26772 C 2606.69 -4.04746 -1.98725 0
M  V30 26773 C 2605.35 -4.43698 -1.86241 0
M  V30 26774 C 2607.7 -4.94509 -1.64651 0
M  V30 26775 C 2605.03 -5.70243 -1.37985 0
M  V30 26776 C 2607.38 -6.21523 -1.17864 0
M  V30 26777 C 2606.04 -6.59352 -1.0398 0
M  V30 26778 H 2605.31 -0.565595 -0.478731 0
M  V30 26779 H 2607.96 -1.81265 -0.617665 0
M  V30 26780 H 2606.27 -2.28727 -3.18105 0
M  V30 26781 H 2607.96 -2.64228 -3.01637 0
M  V30 26782 H 2604.55 -3.73972 -2.09387 0
M  V30 26783 H 2608.74 -4.6511 -1.73166 0
M  V30 26784 H 2603.99 -5.98296 -1.25904 0
M  V30 26785 H 2608.17 -6.90486 -0.905618 0
M  V30 26786 H 2605.79 -7.57298 -0.663661 0
M  V30 26787 N 2607.37 0.798563 -1.3587 0
M  V30 26788 C 2608.78 1.0953 -1.16084 0
M  V30 26789 C 2608.98 2.01489 0.021277 0
M  V30 26790 O 2608.04 2.42905 0.689445 0
M  V30 26791 C 2609.35 1.71856 -2.46751 0
M  V30 26792 C 2610.9 1.84239 -2.53031 0
M  V30 26793 C 2611.38 2.49981 -3.83762 0
M  V30 26794 N 2612.87 2.57458 -3.85058 0
M  V30 26795 C 2613.6 3.09114 -4.82945 0
M  V30 26796 N 2613.1 3.61146 -5.91224 0
M  V30 26797 N 2614.89 3.07741 -4.70374 0
M  V30 26798 H 2607.04 0.187424 -2.11571 0
M  V30 26799 H 2609.31 0.145749 -0.936729 0
M  V30 26800 H 2609.01 1.11753 -3.33473 0
M  V30 26801 H 2608.89 2.71467 -2.61888 0
M  V30 26802 H 2611.27 2.43483 -1.66733 0
M  V30 26803 H 2611.35 0.834601 -2.41802 0
M  V30 26804 H 2611 1.91385 -4.70462 0
M  V30 26805 H 2610.93 3.51313 -3.92284 0
M  V30 26806 H 2613.42 2.20604 -3.06826 0
M  V30 26807 H 2613.73 3.98885 -6.61899 0
M  V30 26808 H 2612.08 3.59323 -5.94905 0
M  V30 26809 H 2615.27 2.66375 -3.84918 0
M  V30 26810 H 2615.44 3.47691 -5.46823 0
M  V30 26811 N 2608.85 1.19999 1.02166 0
M  V30 26812 C 2609.76 0.959811 2.14067 0
M  V30 26813 C 2610.77 -0.0826244 1.73804 0
M  V30 26814 O 2611.95 0.103669 2.01133 0
M  V30 26815 C 2609.01 0.509519 3.42936 0
M  V30 26816 C 2608.07 1.6222 3.97471 0
M  V30 26817 C 2607.31 1.1933 5.20188 0
M  V30 26818 O 2607.53 0.0598729 5.70369 0
M  V30 26819 O 2606.46 1.99873 5.67745 0
M  V30 26820 H 2610.29 1.89662 2.37196 0
M  V30 26821 H 2607.88 0.983431 1.12468 0
M  V30 26822 H 2609.76 0.267396 4.20551 0
M  V30 26823 H 2608.43 -0.398764 3.21234 0
M  V30 26824 H 2607.34 1.91856 3.21158 0
M  V30 26825 H 2608.67 2.50731 4.2355 0
M  V30 26826 N 2610.32 -1.21392 1.00507 0
M  V30 26827 C 2611.27 -2.21597 0.536542 0
M  V30 26828 C 2612.26 -1.558 -0.401886 0
M  V30 26829 O 2613.45 -1.75542 -0.226726 0
M  V30 26830 C 2610.58 -3.43033 -0.135386 0
M  V30 26831 C 2609.67 -4.16017 0.824065 0
M  V30 26832 N 2610.06 -4.65566 1.97691 0
M  V30 26833 C 2608.35 -4.41348 0.642464 0
M  V30 26834 C 2609.06 -5.21349 2.58012 0
M  V30 26835 N 2608.03 -5.10726 1.86171 0
M  V30 26836 H 2611.83 -2.57561 1.41561 0
M  V30 26837 H 2609.35 -1.372 0.868902 0
M  V30 26838 H 2611.34 -4.14028 -0.488511 0
M  V30 26839 H 2610 -3.08578 -1.01044 0
M  V30 26840 H 2611.02 -4.61143 2.35728 0
M  V30 26841 H 2607.69 -4.17088 -0.185504 0
M  V30 26842 H 2609.08 -5.70142 3.5551 0
M  V30 26843 N 2611.8 -0.779811 -1.36955 0
M  V30 26844 C 2612.77 -0.177702 -2.2851 0
M  V30 26845 C 2613.77 0.619351 -1.48394 0
M  V30 26846 O 2614.96 0.441755 -1.68506 0
M  V30 26847 C 2612.09 0.75522 -3.32429 0
M  V30 26848 H 2613.28 -0.984873 -2.83267 0
M  V30 26849 H 2610.83 -0.54857 -1.46357 0
M  V30 26850 H 2611.57 1.58709 -2.82811 0
M  V30 26851 H 2611.35 0.185749 -3.9166 0
M  V30 26852 H 2612.84 1.17167 -4.00826 0
M  V30 26853 N 2613.28 1.48384 -0.531019 0
M  V30 26854 C 2614.23 2.29639 0.231183 0
M  V30 26855 C 2615.2 1.37431 0.932839 0
M  V30 26856 O 2616.38 1.66395 0.933663 0
M  V30 26857 C 2613.52 3.20822 1.2715 0
M  V30 26858 C 2612.64 4.28108 0.57858 0
M  V30 26859 C 2611.77 5.0647 1.60192 0
M  V30 26860 C 2610.81 6.05558 0.892518 0
M  V30 26861 N 2609.95 6.76975 1.86145 0
M  V30 26862 H 2614.79 2.94304 -0.4679 0
M  V30 26863 H 2612.32 1.45086 -0.242581 0
M  V30 26864 H 2614.28 3.72088 1.88696 0
M  V30 26865 H 2612.91 2.58079 1.93895 0
M  V30 26866 H 2611.96 3.80101 -0.150849 0
M  V30 26867 H 2613.28 4.98795 0.0216188 0
M  V30 26868 H 2612.43 5.61755 2.29164 0
M  V30 26869 H 2611.17 4.35625 2.19277 0
M  V30 26870 H 2610.17 5.49476 0.188732 0
M  V30 26871 H 2611.4 6.78402 0.307759 0
M  V30 26872 H 2609.34 6.08879 2.44136 0
M  V30 26873 H 2609.26 7.43741 1.35595 0
M  V30 26874 H 2610.53 7.36848 2.54312 0
M  V30 26875 N 2614.76 0.2662 1.55336 0
M  V30 26876 C 2615.72 -0.611962 2.20879 0
M  V30 26877 C 2616.72 -1.08814 1.1839 0
M  V30 26878 O 2617.91 -0.989749 1.43351 0
M  V30 26879 C 2615.04 -1.84327 2.86769 0
M  V30 26880 H 2616.24 -0.0398191 2.99874 0
M  V30 26881 H 2613.79 0.0167584 1.56291 0
M  V30 26882 H 2614.52 -2.45615 2.11763 0
M  V30 26883 H 2614.31 -1.50984 3.61865 0
M  V30 26884 H 2615.8 -2.46795 3.36871 0
M  V30 26885 N 2616.24 -1.57599 -0.0066531 0
M  V30 26886 C 2617.65 -1.55425 -0.362642 0
M  V30 26887 C 2617.85 -0.995218 -1.75207 0
M  V30 26888 O 2616.91 -0.626101 -2.44614 0
M  V30 26889 C 2618.22 -2.99709 -0.243965 0
M  V30 26890 C 2619.77 -3.11366 -0.319396 0
M  V30 26891 C 2620.24 -4.57423 -0.229918 0
M  V30 26892 N 2621.74 -4.62304 -0.288024 0
M  V30 26893 C 2622.47 -5.72889 -0.242026 0
M  V30 26894 N 2621.97 -6.92644 -0.147012 0
M  V30 26895 N 2623.76 -5.61334 -0.293404 0
M  V30 26896 H 2615.91 -1.9228 0.902347 0
M  V30 26897 H 2618.17 -0.88289 0.345266 0
M  V30 26898 H 2617.88 -3.44423 0.711739 0
M  V30 26899 H 2617.75 -3.62901 -1.02871 0
M  V30 26900 H 2620.14 -2.66586 -1.26554 0
M  V30 26901 H 2620.22 -2.50963 0.495099 0
M  V30 26902 H 2619.87 -5.02875 0.712654 0
M  V30 26903 H 2619.8 -5.15763 -1.06281 0
M  V30 26904 H 2622.29 -3.76152 -0.36306 0
M  V30 26905 H 2622.6 -7.7271 -0.117627 0
M  V30 26906 H 2620.94 -6.94909 -0.112735 0
M  V30 26907 H 2624.14 -4.66669 -0.365782 0
M  V30 26908 H 2624.31 -6.47502 -0.25409 0
M  V30 26909 N 2617.72 0.279305 -1.55105 0
M  V30 26910 C 2618.96 1.01324 -1.75674 0
M  V30 26911 C 2619.29 1.86167 -0.552771 0
M  V30 26912 O 2618.57 1.89228 0.449794 0
M  V30 26913 C 2618.85 1.90109 -3.05828 0
M  V30 26914 C 2618.71 1.08301 -4.36567 0
M  V30 26915 C 2620.02 2.88924 -3.3198 0
M  V30 26916 H 2617.14 0.366946 -0.639156 0
M  V30 26917 H 2619.79 0.286121 -1.87833 0
M  V30 26918 H 2617.94 2.52106 -2.95593 0
M  V30 26919 H 2619.61 0.484233 -4.58751 0
M  V30 26920 H 2617.85 0.386286 -4.32077 0
M  V30 26921 H 2618.52 1.73727 -5.23949 0
M  V30 26922 H 2621 2.37061 -3.41967 0
M  V30 26923 H 2619.87 3.48194 -4.24326 0
M  V30 26924 H 2620.13 3.63721 -2.51316 0
M  V30 26925 N 2619.19 1.47931 0.543528 0
M  V30 26926 C 2620.47 1.45742 1.30456 0
M  V30 26927 C 2620.85 0.161729 2.1048 0
M  V30 26928 O 2620.2 -0.856697 2.11832 0
M  V30 26929 C 2620.41 2.71129 2.1975 0
M  V30 26930 C 2621.76 3.18906 2.80329 0
M  V30 26931 O 2622.78 2.71952 2.30044 0
M  V30 26932 O 2621.64 4.00572 3.71759 0
M  V30 26933 H 2618.73 0.581428 0.588107 0
M  V30 26934 H 2621.28 1.60148 0.5613 0
M  V30 26935 H 2620.05 3.56954 1.6031 0
M  V30 26936 H 2619.67 2.59376 3.01346 0
M  V30 26937 N 2620.67 -0.791347 1.36292 0
M  V30 26938 C 2621.62 -1.8936 1.26991 0
M  V30 26939 C 2622.61 -1.60084 0.161823 0
M  V30 26940 O 2623.8 -1.72549 0.394456 0
M  V30 26941 C 2620.93 -3.26542 1.0595 0
M  V30 26942 C 2620.01 -3.61834 2.21217 0
M  V30 26943 N 2620.4 -3.68449 3.46525 0
M  V30 26944 C 2618.7 -3.91883 2.1294 0
M  V30 26945 C 2619.4 -3.99924 4.22417 0
M  V30 26946 N 2618.38 -4.14806 3.51336 0
M  V30 26947 H 2622.18 -1.92698 2.21912 0
M  V30 26948 H 2619.69 -0.986765 1.28983 0
M  V30 26949 H 2621.69 -4.05369 0.973738 0
M  V30 26950 H 2620.35 -3.24481 0.11928 0
M  V30 26951 H 2621.36 -3.51142 3.80684 0
M  V30 26952 H 2618.04 -3.97759 1.26862 0
M  V30 26953 H 2619.43 -4.11981 5.30774 0
M  V30 26954 N 2622.15 -1.2054 -1.01528 0
M  V30 26955 C 2623.4 -1.01435 -1.74801 0
M  V30 26956 C 2623.72 0.454423 -1.89631 0
M  V30 26957 O 2622.99 1.32843 -1.43977 0
M  V30 26958 H 2621.57 -0.372336 -0.647592 0
M  V30 26959 H 2624.23 -1.51672 -1.224 0
M  V30 26960 H 2623.33 -1.47378 -2.75111 0
M  V30 26961 N 2623.63 1.20858 -1.01149 0
M  V30 26962 C 2624.59 2.21681 -0.582263 0
M  V30 26963 C 2625.59 1.57058 0.344859 0
M  V30 26964 O 2626.78 1.73682 0.134251 0
M  V30 26965 C 2623.91 3.40568 0.150437 0
M  V30 26966 H 2625.11 2.6117 -1.47413 0
M  V30 26967 H 2622.66 1.34232 -0.800719 0
M  V30 26968 H 2623.39 3.06576 1.05745 0
M  V30 26969 H 2623.18 3.88696 -0.515512 0
M  V30 26970 H 2624.67 4.15294 0.438271 0
M  V30 26971 N 2625.11 0.787064 1.3654 0
M  V30 26972 C 2626.02 0.184937 2.3387 0
M  V30 26973 C 2627.03 -0.661668 1.60928 0
M  V30 26974 O 2628.21 -0.578006 1.92928 0
M  V30 26975 C 2625.27 -0.672085 3.40123 0
M  V30 26976 C 2624.33 0.192746 4.28867 0
M  V30 26977 C 2623.57 -0.623468 5.30046 0
M  V30 26978 O 2623.79 -1.8596 5.39236 0
M  V30 26979 O 2622.72 -0.024601 6.01895 0
M  V30 26980 H 2626.55 0.989613 2.87124 0
M  V30 26981 H 2624.13 0.54848 1.38968 0
M  V30 26982 H 2626.02 -1.16087 4.05095 0
M  V30 26983 H 2624.69 -1.45469 2.89172 0
M  V30 26984 H 2623.6 0.72823 3.66944 0
M  V30 26985 H 2624.93 0.938807 4.83164 0
M  V30 26986 N 2626.58 -1.48101 0.53888 0
M  V30 26987 C 2627.83 -2.01699 0.00598865 0
M  V30 26988 C 2628.15 -1.42043 -1.34474 0
M  V30 26989 O 2629.35 -1.87193 -1.9665 0
M  V30 26990 C 2627.81 -3.59878 -0.0396994 0
M  V30 26991 C 2627.42 -4.28521 1.30667 0
M  V30 26992 C 2629.16 -4.21291 -0.52095 0
M  V30 26993 C 2627.07 -5.78657 1.22108 0
M  V30 26994 H 2626 -0.753998 -0.0015313 0
M  V30 26995 H 2628.65 -1.70276 0.683993 0
M  V30 26996 H 2627.03 -3.88182 -0.782969 0
M  V30 26997 H 2628.2 -4.11879 2.0662 0
M  V30 26998 H 2626.52 -3.79018 1.72437 0
M  V30 26999 H 2629.12 -5.31288 -0.60309 0
M  V30 27000 H 2629.46 -3.87213 -1.52879 0
M  V30 27001 H 2629.99 -3.9745 0.166904 0
M  V30 27002 H 2626.73 -6.17324 2.20435 0
M  V30 27003 H 2626.25 -5.97687 0.503055 0
M  V30 27004 H 2627.93 -6.40491 0.915458 0
M  V30 27005 N 2628.06 -0.274434 -1.55192 0
M  V30 27006 C 2629.31 0.343178 -1.98759 0
M  V30 27007 C 2629.62 1.57027 -1.16626 0
M  V30 27008 O 2630.83 2.26079 -1.50334 0
M  V30 27009 C 2629.29 0.661934 -3.5376 0
M  V30 27010 C 2628.89 -0.545318 -4.44669 0
M  V30 27011 C 2630.64 1.24221 -4.05918 0
M  V30 27012 C 2628.54 -0.201188 -5.91058 0
M  V30 27013 H 2627.47 0.132001 -0.742356 0
M  V30 27014 H 2630.13 -0.378979 -1.79544 0
M  V30 27015 H 2628.51 1.44297 -3.68774 0
M  V30 27016 H 2629.68 -1.32219 -4.41423 0
M  V30 27017 H 2628 -1.04239 -4.03142 0
M  V30 27018 H 2630.59 1.51348 -5.12833 0
M  V30 27019 H 2630.94 2.17586 -3.54911 0
M  V30 27020 H 2631.47 0.523472 -3.94341 0
M  V30 27021 H 2628.21 -1.10269 -6.46159 0
M  V30 27022 H 2627.73 0.53894 -5.97374 0
M  V30 27023 H 2629.41 0.20684 -6.46669 0
M  V30 27024 N 2629.54 1.576 -0.00170483 0
M  V30 27025 C 2630.77 1.94923 0.693725 0
M  V30 27026 C 2631.18 0.876655 1.67213 0
M  V30 27027 O 2630.54 -0.144247 1.81929 0
M  V30 27028 C 2630.59 3.32267 1.42411 0
M  V30 27029 O 2630.31 4.35408 0.484937 0
M  V30 27030 C 2631.81 3.8406 2.21389 0
M  V30 27031 H 2629.03 0.642612 0.193107 0
M  V30 27032 H 2631.58 2.0443 -0.0533311 0
M  V30 27033 H 2629.73 3.24063 2.12278 0
M  V30 27034 H 2630.15 5.1487 1.00044 0
M  V30 27035 H 2631.62 4.82583 2.67988 0
M  V30 27036 H 2632.1 3.16856 3.04136 0
M  V30 27037 H 2632.7 3.95445 1.56535 0
M  V30 27038 N 2631.02 -0.271076 1.55251 0
M  V30 27039 C 2631.95 -1.35746 1.84677 0
M  V30 27040 C 2632.96 -1.45446 0.731392 0
M  V30 27041 O 2634.15 -1.47228 1.00926 0
M  V30 27042 C 2631.25 -2.73854 1.99643 0
M  V30 27043 C 2630.42 -2.86721 3.30317 0
M  V30 27044 C 2629.48 -4.05517 3.35325 0
M  V30 27045 O 2628.51 -3.96184 4.08689 0
M  V30 27046 N 2629.71 -5.17573 2.62867 0
M  V30 27047 H 2632.48 -1.10848 2.78447 0
M  V30 27048 H 2630.04 -0.461191 1.55192 0
M  V30 27049 H 2632.03 -3.51621 2.00362 0
M  V30 27050 H 2630.6 -2.91566 1.1273 0
M  V30 27051 H 2629.82 -1.95823 3.42121 0
M  V30 27052 H 2631.11 -2.92251 4.16493 0
M  V30 27053 H 2630.51 -5.28042 2.02948 0
M  V30 27054 H 2629.06 -5.93564 2.69305 0
M  V30 27055 N 2632.5 -1.48217 -0.535675 0
M  V30 27056 C 2633.72 -1.5985 -1.32147 0
M  V30 27057 C 2634.15 -0.256874 -1.86338 0
M  V30 27058 O 2633.5 0.770603 -1.64108 0
M  V30 27059 C 2633.55 -2.64386 -2.45219 0
M  V30 27060 O 2632.66 -2.2115 -3.48089 0
M  V30 27061 H 2632 -0.536215 -0.391624 0
M  V30 27062 H 2634.53 -1.94162 -0.645168 0
M  V30 27063 H 2634.54 -2.85481 -2.91486 0
M  V30 27064 H 2633.21 -3.6179 -2.05137 0
M  V30 27065 H 2631.79 -2.10244 -3.0798 0
M  V30 27066 N 2633.97 0.784108 -1.3671 0
M  V30 27067 C 2635.39 1.35962 -1.2795 0
M  V30 27068 C 2635.74 1.96043 0.0783668 0
M  V30 27069 O 2634.86 1.9294 0.979955 0
M  V30 27070 C 2635.46 2.47191 -2.31693 0
M  V30 27071 C 2634.02 3.00544 -2.26606 0
M  V30 27072 C 2633.16 1.73662 -2.16187 0
M  V30 27073 H 2636.11 0.585332 -1.47511 0
M  V30 27074 H 2636.13 3.26349 -1.95644 0
M  V30 27075 H 2635.65 2.03433 -3.30509 0
M  V30 27076 H 2633.75 3.48709 -1.31274 0
M  V30 27077 H 2633.86 3.56998 -3.19514 0
M  V30 27078 H 2632.22 1.96104 -1.62528 0
M  V30 27079 H 2633.01 1.32025 -3.16898 0
M  V30 27080 N 2635.45 1.21076 1.00888 0
M  V30 27081 C 2636.7 1.02361 1.7426 0
M  V30 27082 C 2637.02 -0.44436 1.8987 0
M  V30 27083 O 2636.29 -1.32078 1.4468 0
M  V30 27084 H 2634.87 0.375765 0.645608 0
M  V30 27085 H 2637.53 1.52319 1.21594 0
M  V30 27086 H 2636.63 1.48835 2.74326 0
M  V30 27087 N 2636.93 -1.2032 1.01789 0
M  V30 27088 C 2638.35 -1.41773 0.732976 0
M  V30 27089 C 2638.55 -1.89432 -0.68685 0
M  V30 27090 O 2637.6 -2.06404 -1.45443 0
M  V30 27091 C 2638.92 -2.43829 1.75978 0
M  V30 27092 C 2640.46 -2.57593 1.77806 0
M  V30 27093 C 2640.94 -3.62892 2.79416 0
M  V30 27094 N 2642.43 -3.70377 2.78164 0
M  V30 27095 C 2643.16 -4.51515 3.53442 0
M  V30 27096 N 2642.66 -5.36448 4.38402 0
M  V30 27097 N 2644.45 -4.4606 3.42034 0
M  V30 27098 H 2636.6 -0.877001 1.93449 0
M  V30 27099 H 2638.87 -0.447522 0.83572 0
M  V30 27100 H 2638.57 -2.1581 2.77703 0
M  V30 27101 H 2638.45 -3.42837 1.57298 0
M  V30 27102 H 2640.83 -2.84941 0.767652 0
M  V30 27103 H 2640.92 -1.58775 2.00559 0
M  V30 27104 H 2640.56 -3.36288 3.80622 0
M  V30 27105 H 2640.49 -4.61335 2.53924 0
M  V30 27106 H 2642.98 -3.0971 2.16536 0
M  V30 27107 H 2643.29 -5.95448 4.92607 0
M  V30 27108 H 2641.64 -5.35945 4.42479 0
M  V30 27109 H 2644.83 -3.78745 2.75082 0
M  V30 27110 H 2645 -5.09057 4.00955 0
M  V30 27111 N 2638.41 -0.794293 -1.3612 0
M  V30 27112 C 2639.63 -0.379907 -2.03891 0
M  V30 27113 C 2640.06 0.997223 -1.5949 0
M  V30 27114 O 2639.42 1.64338 -0.765681 0
M  V30 27115 C 2639.46 -0.457505 -3.57686 0
M  V30 27116 O 2638.57 0.533728 -4.08932 0
M  V30 27117 H 2637.91 -0.160552 -0.644297 0
M  V30 27118 H 2640.44 -1.07676 -1.73974 0
M  V30 27119 H 2640.45 -0.322864 -4.06721 0
M  V30 27120 H 2639.12 -1.46206 -3.89354 0
M  V30 27121 H 2637.7 0.360344 -3.71155 0
M  V30 27122 N 2639.89 1.47813 -0.546727 0
M  V30 27123 C 2641.11 2.07389 -0.0213045 0
M  V30 27124 C 2641.54 1.39825 1.2582 0
M  V30 27125 O 2640.89 0.469711 1.7511 0
M  V30 27126 C 2640.94 3.60206 0.168439 0
M  V30 27127 O 2640.05 3.93524 1.2334 0
M  V30 27128 H 2639.39 0.662361 -0.0466225 0
M  V30 27129 H 2641.92 1.89984 -0.759421 0
M  V30 27130 H 2641.93 4.06171 0.385911 0
M  V30 27131 H 2640.6 4.08782 -0.766147 0
M  V30 27132 H 2639.18 3.59318 0.997256 0
M  V30 27133 N 2641.36 0.28266 1.55044 0
M  V30 27134 C 2642.61 -0.332446 2.00057 0
M  V30 27135 C 2642.94 -1.54937 1.17082 0
M  V30 27136 O 2642.22 -1.92979 0.242734 0
M  V30 27137 C 2642.5 -0.707188 3.53088 0
M  V30 27138 C 2642.35 0.517599 4.46812 0
M  V30 27139 C 2643.67 -1.54076 4.12248 0
M  V30 27140 H 2640.79 -0.119361 0.72727 0
M  V30 27141 H 2643.43 0.391108 1.85931 0
M  V30 27142 H 2641.58 -1.32366 3.65256 0
M  V30 27143 H 2643.26 1.15615 4.46577 0
M  V30 27144 H 2641.5 1.15427 4.18161 0
M  V30 27145 H 2642.17 0.211523 5.51595 0
M  V30 27146 H 2644.65 -1.02006 4.03403 0
M  V30 27147 H 2643.52 -1.77177 5.19519 0
M  V30 27148 H 2643.78 -2.5242 3.62955 0
M  V30 27149 N 2642.84 -1.57597 0.0100627 0
M  V30 27150 C 2643.81 -2.07988 -0.962993 0
M  V30 27151 C 2644.81 -0.991195 -1.26617 0
M  V30 27152 O 2646 -1.25349 -1.20968 0
M  V30 27153 C 2643.13 -2.52978 -2.28506 0
M  V30 27154 H 2644.32 -2.95235 -0.526919 0
M  V30 27155 H 2641.87 -1.54483 -0.237612 0
M  V30 27156 H 2642.61 -1.69004 -2.76782 0
M  V30 27157 H 2642.39 -3.32497 -2.07818 0
M  V30 27158 H 2643.88 -2.92256 -2.98289 0
M  V30 27159 N 2644.32 0.262839 -1.55393 0
M  V30 27160 C 2645.55 1.0153 -1.80849 0
M  V30 27161 C 2645.97 1.78773 -0.584978 0
M  V30 27162 O 2645.33 1.75218 0.465671 0
M  V30 27163 C 2645.38 1.94154 -3.0387 0
M  V30 27164 O 2644.48 3.03084 -2.79668 0
M  V30 27165 H 2643.82 0.289749 -0.597446 0
M  V30 27166 H 2646.35 0.288663 -2.02553 0
M  V30 27167 H 2646.36 2.35918 -3.32876 0
M  V30 27168 H 2645.04 1.37347 -3.92567 0
M  V30 27169 H 2643.61 2.65561 -2.61785 0
M  V30 27170 N 2645.8 1.48499 0.527807 0
M  V30 27171 C 2647.21 1.5014 1.10972 0
M  V30 27172 C 2647.56 0.272412 1.943 0
M  V30 27173 O 2646.69 -0.620264 2.0732 0
M  V30 27174 C 2647.28 2.72053 2.01923 0
M  V30 27175 C 2645.84 2.76559 2.55328 0
M  V30 27176 C 2644.99 2.43685 1.32336 0
M  V30 27177 H 2647.94 1.55584 0.312958 0
M  V30 27178 H 2647.96 2.50694 2.86239 0
M  V30 27179 H 2647.47 3.61484 1.41248 0
M  V30 27180 H 2645.57 1.91341 3.19717 0
M  V30 27181 H 2645.68 3.78044 2.94313 0
M  V30 27182 H 2644.05 1.94887 1.63985 0
M  V30 27183 H 2644.83 3.35359 0.734106 0
M  V30 27184 N 2647.28 -0.776847 1.37123 0
M  V30 27185 C 2648.69 -1.07669 1.17812 0
M  V30 27186 C 2648.89 -2.01497 0.0107808 0
M  V30 27187 O 2647.95 -2.43971 -0.650714 0
M  V30 27188 C 2649.26 -1.67908 2.49454 0
M  V30 27189 C 2650.81 -1.80191 2.5593 0
M  V30 27190 C 2651.29 -2.43844 3.87691 0
M  V30 27191 N 2652.78 -2.513 3.89105 0
M  V30 27192 C 2653.51 -3.01392 4.87802 0
M  V30 27193 N 2653.01 -3.51695 5.96894 0
M  V30 27194 N 2654.8 -3.00219 4.7521 0
M  V30 27195 H 2646.95 -0.153741 2.11843 0
M  V30 27196 H 2649.21 -0.130828 0.938929 0
M  V30 27197 H 2648.92 -1.06433 3.35209 0
M  V30 27198 H 2648.79 -2.67266 2.66174 0
M  V30 27199 H 2651.18 -2.408 1.70586 0
M  V30 27200 H 2651.26 -0.796027 2.43099 0
M  V30 27201 H 2650.91 -1.83876 4.73447 0
M  V30 27202 H 2650.84 -3.45028 3.97823 0
M  V30 27203 H 2653.33 -2.15695 3.10297 0
M  V30 27204 H 2653.64 -3.88304 6.68162 0
M  V30 27205 H 2651.99 -3.49813 6.00546 0
M  V30 27206 H 2655.18 -2.60217 3.89108 0
M  V30 27207 H 2655.35 -3.38948 5.52285 0
M  V30 27208 N 2648.76 -1.2161 -1.00244 0
M  V30 27209 C 2650.17 -0.973998 -1.26434 0
M  V30 27210 C 2650.37 0.338109 -1.98643 0
M  V30 27211 O 2649.43 1.06313 -2.29028 0
M  V30 27212 C 2650.74 -2.1663 -2.08547 0
M  V30 27213 C 2652.29 -2.20883 -2.21765 0
M  V30 27214 C 2652.76 -3.39639 -3.07261 0
M  V30 27215 N 2654.25 -3.39741 -3.14849 0
M  V30 27216 C 2654.99 -4.2828 -3.81266 0
M  V30 27217 N 2654.49 -5.2702 -4.49691 0
M  V30 27218 N 2656.28 -4.16081 -3.77932 0
M  V30 27219 H 2648.43 -2.05985 -0.518053 0
M  V30 27220 H 2650.69 -0.902119 -0.291352 0
M  V30 27221 H 2650.4 -3.1173 -1.62841 0
M  V30 27222 H 2650.27 -2.15902 -3.09299 0
M  V30 27223 H 2652.66 -1.26337 -2.66689 0
M  V30 27224 H 2652.74 -2.25654 -1.20474 0
M  V30 27225 H 2652.38 -4.3448 -2.63039 0
M  V30 27226 H 2652.31 -3.32107 -4.08672 0
M  V30 27227 H 2654.81 -2.68285 -2.66142 0
M  V30 27228 H 2655.12 -5.90876 -4.98082 0
M  V30 27229 H 2653.46 -5.30943 -4.4847 0
M  V30 27230 H 2656.65 -3.38201 -3.23632 0
M  V30 27231 H 2656.83 -4.8529 -4.29416 0
M  V30 27232 N 2650.23 1.19778 -1.02425 0
M  V30 27233 C 2651.16 2.25074 -0.621609 0
M  V30 27234 C 2652.14 1.66091 0.367119 0
M  V30 27235 O 2653.33 1.92573 0.250858 0
M  V30 27236 C 2650.46 3.47284 0.0331216 0
M  V30 27237 C 2649.41 4.1891 -0.877397 0
M  V30 27238 C 2648.74 5.34628 -0.0880236 0
M  V30 27239 C 2650.04 4.74215 -2.189 0
M  V30 27240 H 2651.73 2.59008 -1.50183 0
M  V30 27241 H 2649.28 1.24501 -0.723569 0
M  V30 27242 H 2651.23 4.20134 0.326414 0
M  V30 27243 H 2649.96 3.12536 0.948109 0
M  V30 27244 H 2648.62 3.47936 -1.15481 0
M  V30 27245 H 2648.26 4.96124 0.828854 0
M  V30 27246 H 2647.96 5.83482 -0.694461 0
M  V30 27247 H 2649.49 6.10277 0.198636 0
M  V30 27248 H 2650.9 5.38844 -1.95755 0
M  V30 27249 H 2649.3 5.33537 -2.74696 0
M  V30 27250 H 2650.37 3.92536 -2.84681 0
M  V30 27251 N 2651.71 0.801501 1.35697 0
M  V30 27252 C 2652.94 0.390714 2.03686 0
M  V30 27253 C 2653.36 -0.98875 1.60017 0
M  V30 27254 O 2652.72 -1.6393 0.774386 0
M  V30 27255 C 2652.77 0.476467 3.57438 0
M  V30 27256 O 2651.87 -0.512034 4.09209 0
M  V30 27257 H 2651.21 0.163967 0.643437 0
M  V30 27258 H 2653.74 1.08597 1.73401 0
M  V30 27259 H 2653.75 0.344428 4.06544 0
M  V30 27260 H 2652.43 1.48268 3.88573 0
M  V30 27261 H 2651 -0.340656 3.71341 0
M  V30 27262 N 2653.19 -1.47521 0.554558 0
M  V30 27263 C 2654.14 -2.31671 -0.207724 0
M  V30 27264 C 2655.13 -1.42762 -0.911888 0
M  V30 27265 O 2656.34 -1.59541 -0.833476 0
M  V30 27266 H 2652.71 -0.747082 -0.0858595 0
M  V30 27267 H 2654.68 -2.93812 0.52123 0
M  V30 27268 C 2653.43 -3.25359 -1.22624 0
M  V30 27269 H 2652.76 -3.93734 -0.693818 0
M  V30 27270 H 2654.2 -3.87076 -1.73055 0
M  V30 27271 C 2652.65 -2.48694 -2.27273 0
M  V30 27272 O 2653.18 -2.22947 -3.34152 0
M  V30 27273 N 2651.39 -2.0975 -2.01131 0
M  V30 27274 H 2650.94 -2.30889 -1.14228 0
M  V30 27275 H 2650.9 -1.58769 -2.71366 0
M  V30 27276 N 2654.67 -0.290879 -1.54892 0
M  V30 27277 C 2655.91 0.321832 -2.0023 0
M  V30 27278 C 2656.25 1.54314 -1.17902 0
M  V30 27279 O 2655.52 1.92848 -0.252964 0
M  V30 27280 C 2655.8 0.688453 -3.53458 0
M  V30 27281 C 2655.66 -0.541287 -4.46531 0
M  V30 27282 C 2656.98 1.51888 -4.13059 0
M  V30 27283 H 2654.1 0.115502 -0.727893 0
M  V30 27284 H 2656.74 -0.400963 -1.85721 0
M  V30 27285 H 2654.89 1.30427 -3.65952 0
M  V30 27286 H 2656.56 -1.17981 -4.45958 0
M  V30 27287 H 2654.8 -1.17643 -4.17543 0
M  V30 27288 H 2655.47 -0.240772 -5.51475 0
M  V30 27289 H 2657.95 0.998649 -4.03938 0
M  V30 27290 H 2656.83 1.74419 -5.20451 0
M  V30 27291 H 2657.09 2.50492 -3.64289 0
M  V30 27292 N 2656.15 1.57589 -0.0184203 0
M  V30 27293 C 2657.37 1.96053 0.676599 0
M  V30 27294 C 2657.8 0.894337 1.65479 0
M  V30 27295 O 2657.15 -0.145817 1.80713 0
M  V30 27296 C 2657.2 3.33616 1.36866 0
M  V30 27297 O 2656.31 3.29223 2.48366 0
M  V30 27298 H 2655.65 0.639533 0.178589 0
M  V30 27299 H 2658.18 2.04455 -0.077092 0
M  V30 27300 H 2658.19 3.69605 1.7279 0
M  V30 27301 H 2656.86 4.10764 0.651564 0
M  V30 27302 H 2655.44 3.04938 2.14633 0
M  V30 27303 N 2657.62 -0.254594 1.5553 0
M  V30 27304 C 2658.85 -1.00569 1.81385 0
M  V30 27305 C 2659.27 -1.7846 0.59445 0
M  V30 27306 O 2658.63 -1.75462 -0.456372 0
M  V30 27307 C 2658.68 -1.92539 3.04895 0
M  V30 27308 O 2657.78 -3.01596 2.81271 0
M  V30 27309 H 2657.12 -0.286576 0.598974 0
M  V30 27310 H 2659.65 -0.277917 2.02704 0
M  V30 27311 H 2659.66 -2.3415 3.34123 0
M  V30 27312 H 2658.34 -1.35263 3.9329 0
M  V30 27313 H 2656.92 -2.64169 2.6319 0
M  V30 27314 N 2659.1 -1.48777 -0.519925 0
M  V30 27315 C 2660.33 -1.61243 -1.30444 0
M  V30 27316 C 2660.75 -0.276624 -1.86055 0
M  V30 27317 O 2660.11 0.753154 -1.64916 0
M  V30 27318 C 2660.16 -2.66972 -2.42401 0
M  V30 27319 O 2659.26 -2.2483 -3.45724 0
M  V30 27320 H 2658.6 -0.540338 -0.385915 0
M  V30 27321 H 2661.13 -1.94835 -0.624538 0
M  V30 27322 H 2661.14 -2.88557 -2.88442 0
M  V30 27323 H 2659.82 -3.63945 -2.01288 0
M  V30 27324 H 2658.39 -2.13499 -3.05733 0
M  V30 27325 N 2660.58 0.769564 -1.37534 0
M  V30 27326 C 2661.83 1.52518 -1.326 0
M  V30 27327 C 2662.15 1.948 0.0883952 0
M  V30 27328 O 2661.42 1.6646 1.03286 0
M  V30 27329 H 2660 0.56569 -0.487856 0
M  V30 27330 H 2662.66 0.915775 -1.72045 0
M  V30 27331 H 2661.76 2.42356 -1.96647 0
M  V30 27332 N 2662.06 1.22139 0.995977 0
M  V30 27333 C 2663.28 1.07113 1.77599 0
M  V30 27334 C 2663.71 -0.374232 1.8434 0
M  V30 27335 O 2663.07 -1.27026 1.29361 0
M  V30 27336 C 2663.11 1.68341 3.18894 0
M  V30 27337 O 2662.22 0.934998 4.01661 0
M  V30 27338 H 2661.56 0.376406 0.547005 0
M  V30 27339 H 2664.09 1.61872 1.25134 0
M  V30 27340 H 2664.1 1.72937 3.69536 0
M  V30 27341 H 2662.77 2.73521 3.13303 0
M  V30 27342 H 2661.35 0.964814 3.60202 0
M  V30 27343 N 2663.54 -1.19233 1.03059 0
M  V30 27344 C 2664.79 -1.88285 0.723293 0
M  V30 27345 C 2665.1 -1.80596 -0.751301 0
M  V30 27346 O 2666.3 -2.44914 -1.17172 0
M  V30 27347 C 2664.76 -3.37738 1.24344 0
M  V30 27348 C 2664.37 -3.53981 2.74594 0
M  V30 27349 C 2666.11 -4.12256 1.01221 0
M  V30 27350 C 2664.02 -4.97336 3.20017 0
M  V30 27351 H 2662.95 -0.705196 0.266861 0
M  V30 27352 H 2665.6 -1.34793 1.24511 0
M  V30 27353 H 2663.98 -3.90637 0.649526 0
M  V30 27354 H 2665.16 -3.11402 3.39655 0
M  V30 27355 H 2663.47 -2.92854 2.96016 0
M  V30 27356 H 2666.07 -5.17976 1.32684 0
M  V30 27357 H 2666.41 -4.16269 -0.0509279 0
M  V30 27358 H 2666.94 -3.65499 1.57021 0
M  V30 27359 H 2663.68 -4.98485 4.25667 0
M  V30 27360 H 2663.2 -5.4067 2.59685 0
M  V30 27361 H 2664.88 -5.65998 3.13457 0
M  V30 27362 N 2665.01 -0.808686 -1.3527 0
M  V30 27363 C 2665.96 -0.208646 -2.31662 0
M  V30 27364 C 2666.96 0.64275 -1.56733 0
M  V30 27365 O 2668.16 0.535679 -1.71844 0
M  V30 27366 H 2664.54 -0.0487124 -0.750421 0
M  V30 27367 H 2666.51 -1.03671 -2.79812 0
M  V30 27368 C 2665.26 0.626513 -3.42009 0
M  V30 27369 H 2664.58 -0.0192806 -3.99795 0
M  V30 27370 H 2666.02 1.01271 -4.11728 0
M  V30 27371 C 2664.48 1.79293 -2.85229 0
M  V30 27372 O 2665.01 2.8905 -2.7895 0
M  V30 27373 N 2663.22 1.60512 -2.42248 0
M  V30 27374 H 2662.76 0.712331 -2.47555 0
M  V30 27375 H 2662.72 2.38712 -2.04607 0
M  V30 27376 N 2666.49 1.47225 -0.562374 0
M  V30 27377 C 2667.42 2.32876 0.170586 0
M  V30 27378 C 2668.4 1.44107 0.903722 0
M  V30 27379 O 2669.59 1.72956 0.883176 0
M  V30 27380 C 2666.72 3.25991 1.1978 0
M  V30 27381 C 2665.67 4.24041 0.580801 0
M  V30 27382 C 2665 5.06517 1.71302 0
M  V30 27383 C 2666.3 5.20192 -0.468806 0
M  V30 27384 H 2667.99 2.94407 -0.544492 0
M  V30 27385 H 2665.54 1.41572 -0.263296 0
M  V30 27386 H 2667.49 3.84755 1.71877 0
M  V30 27387 H 2666.22 2.62525 1.94289 0
M  V30 27388 H 2664.87 3.6651 0.0810894 0
M  V30 27389 H 2664.52 4.39451 2.44728 0
M  V30 27390 H 2664.22 5.72904 1.30594 0
M  V30 27391 H 2665.75 5.68141 2.23715 0
M  V30 27392 H 2667.16 5.7329 -0.0337035 0
M  V30 27393 H 2665.56 5.9481 -0.795062 0
M  V30 27394 H 2666.63 4.65356 -1.36277 0
M  V30 27395 N 2667.97 0.299089 1.54736 0
M  V30 27396 C 2668.9 -0.571045 2.2641 0
M  V30 27397 C 2669.88 -1.13949 1.26292 0
M  V30 27398 O 2671.07 -1.16918 1.55061 0
M  V30 27399 C 2668.2 -1.74391 3.00341 0
M  V30 27400 C 2667.15 -1.30591 4.0759 0
M  V30 27401 C 2666.48 -2.56379 4.69227 0
M  V30 27402 C 2667.78 -0.438553 5.20456 0
M  V30 27403 H 2669.47 0.0267517 2.99388 0
M  V30 27404 H 2667.02 0.0143065 1.43993 0
M  V30 27405 H 2668.97 -2.35872 3.49203 0
M  V30 27406 H 2667.69 -2.36792 2.24938 0
M  V30 27407 H 2666.35 -0.714177 3.59576 0
M  V30 27408 H 2666 -3.1709 3.90465 0
M  V30 27409 H 2665.7 -2.27774 5.41657 0
M  V30 27410 H 2667.22 -3.18666 5.2085 0
M  V30 27411 H 2668.64 -0.958986 5.65222 0
M  V30 27412 H 2667.04 -0.24636 5.99594 0
M  V30 27413 H 2668.11 0.536822 4.81919 0
M  V30 27414 N 2669.45 -1.57577 0.0267774 0
M  V30 27415 C 2670.36 -2.13535 -0.971595 0
M  V30 27416 C 2671.37 -1.08703 -1.35866 0
M  V30 27417 O 2672.55 -1.40748 -1.44055 0
M  V30 27418 C 2669.62 -2.64945 -2.23618 0
M  V30 27419 C 2668.68 -3.84483 -1.90975 0
M  V30 27420 C 2667.91 -4.33432 -3.11404 0
M  V30 27421 O 2668.13 -3.81566 -4.23985 0
M  V30 27422 O 2667.07 -5.25302 -2.93838 0
M  V30 27423 H 2670.89 -2.99114 -0.525801 0
M  V30 27424 H 2668.48 -1.48139 -0.193686 0
M  V30 27425 H 2670.36 -2.98091 -2.97859 0
M  V30 27426 H 2669.03 -1.82451 -2.67382 0
M  V30 27427 H 2667.94 -3.56267 -1.14125 0
M  V30 27428 H 2669.27 -4.68133 -1.52028 0
M  V30 27429 N 2670.93 0.246342 -1.55663 0
M  V30 27430 C 2672.15 0.996061 -1.81916 0
M  V30 27431 C 2672.58 1.78142 -0.603906 0
M  V30 27432 O 2671.93 1.75702 0.44706 0
M  V30 27433 C 2671.98 1.9092 -3.05912 0
M  V30 27434 O 2671.09 3.001 -2.82866 0
M  V30 27435 H 2670.43 0.283396 -0.600486 0
M  V30 27436 H 2672.96 0.267163 -2.02848 0
M  V30 27437 H 2672.97 2.32374 -3.3536 0
M  V30 27438 H 2671.64 1.33176 -3.94001 0
M  V30 27439 H 2670.22 2.6277 -2.64587 0
M  V30 27440 N 2672.4 1.4905 0.512027 0
M  V30 27441 C 2673.82 1.51309 1.09373 0
M  V30 27442 C 2674.17 0.293005 1.94 0
M  V30 27443 O 2673.29 -0.59824 2.07966 0
M  V30 27444 C 2673.89 2.74179 1.99026 0
M  V30 27445 C 2672.45 2.79251 2.5238 0
M  V30 27446 C 2671.59 2.45075 1.29744 0
M  V30 27447 H 2674.54 1.55907 0.296439 0
M  V30 27448 H 2674.56 2.53716 2.83564 0
M  V30 27449 H 2674.08 3.62962 1.37406 0
M  V30 27450 H 2672.18 1.94722 3.1767 0
M  V30 27451 H 2672.29 3.81144 2.90286 0
M  V30 27452 H 2670.65 1.96615 1.61909 0
M  V30 27453 H 2671.44 3.36119 0.698496 0
M  V30 27454 N 2673.88 -0.762259 1.3794 0
M  V30 27455 C 2674.81 -1.88523 1.30352 0
M  V30 27456 C 2675.83 -1.61342 0.21743 0
M  V30 27457 O 2677.02 -1.72083 0.474321 0
M  V30 27458 C 2674.12 -3.23967 0.994901 0
M  V30 27459 C 2673.29 -3.78721 2.18836 0
M  V30 27460 C 2672.35 -4.92662 1.84853 0
M  V30 27461 O 2671.37 -5.07749 2.57253 0
M  V30 27462 N 2672.58 -5.74985 0.798302 0
M  V30 27463 H 2675.34 -1.95545 2.27117 0
M  V30 27464 H 2672.9 -0.941802 1.31688 0
M  V30 27465 H 2674.89 -3.97723 0.748238 0
M  V30 27466 H 2673.46 -3.12387 0.115501 0
M  V30 27467 H 2672.68 -2.96633 2.5962 0
M  V30 27468 H 2673.97 -4.12035 2.98504 0
M  V30 27469 H 2673.37 -5.65354 0.197711 0
M  V30 27470 H 2671.93 -6.48925 0.61151 0
M  V30 27471 N 2675.36 -1.22666 -0.989486 0
M  V30 27472 C 2676.29 -1.02407 -2.09845 0
M  V30 27473 C 2677.27 0.0561004 -1.70007 0
M  V30 27474 O 2678.46 -0.106782 -1.93906 0
M  V30 27475 C 2675.59 -0.604723 -3.41995 0
M  V30 27476 C 2674.54 -1.63122 -3.95696 0
M  V30 27477 C 2673.87 -1.06759 -5.23934 0
M  V30 27478 C 2675.17 -3.02204 -4.25993 0
M  V30 27479 H 2676.86 -1.95162 -2.27051 0
M  V30 27480 H 2674.41 -0.939747 -1.09109 0
M  V30 27481 H 2676.36 -0.450093 -4.18989 0
M  V30 27482 H 2675.08 0.358493 -3.24627 0
M  V30 27483 H 2673.74 -1.77368 -3.20837 0
M  V30 27484 H 2673.39 -0.0956306 -5.02909 0
M  V30 27485 H 2673.09 -1.75338 -5.6083 0
M  V30 27486 H 2674.61 -0.924622 -6.03559 0
M  V30 27487 H 2676.03 -2.91311 -4.93772 0
M  V30 27488 H 2674.43 -3.67938 -4.74069 0
M  V30 27489 H 2675.5 -3.51879 -3.3363 0
M  V30 27490 N 2676.84 1.18685 -1.0369 0
M  V30 27491 C 2677.8 2.20396 -0.629154 0
M  V30 27492 C 2678.8 1.57755 0.311467 0
M  V30 27493 O 2679.99 1.73928 0.0973801 0
M  V30 27494 C 2677.12 3.4081 0.0781632 0
M  V30 27495 H 2678.32 2.57984 -1.52919 0
M  V30 27496 H 2675.87 1.32503 -0.829011 0
M  V30 27497 H 2676.61 3.0875 0.992178 0
M  V30 27498 H 2676.39 3.87515 -0.597845 0
M  V30 27499 H 2677.88 4.1613 0.350082 0
M  V30 27500 N 2678.32 0.815849 1.34839 0
M  V30 27501 C 2679.55 0.41333 2.02729 0
M  V30 27502 C 2679.96 -0.97857 1.6146 0
M  V30 27503 O 2679.32 -1.63211 0.816613 0
M  V30 27504 C 2679.37 0.497739 3.58057 0
M  V30 27505 O 2679.09 1.83477 3.97829 0
M  V30 27506 C 2680.59 0.0892118 4.4321 0
M  V30 27507 H 2677.81 0.16674 0.649953 0
M  V30 27508 H 2680.35 1.10204 1.72265 0
M  V30 27509 H 2678.51 -0.142818 3.87137 0
M  V30 27510 H 2678.92 1.80404 4.92498 0
M  V30 27511 H 2680.4 0.199371 5.5164 0
M  V30 27512 H 2680.87 -0.966496 4.28434 0
M  V30 27513 H 2681.48 0.703288 4.19445 0
M  V30 27514 N 2679.8 -1.46924 0.570174 0
M  V30 27515 C 2680.73 -2.32963 -0.158233 0
M  V30 27516 C 2681.71 -1.44584 -0.896067 0
M  V30 27517 O 2682.89 -1.73422 -0.873991 0
M  V30 27518 C 2680.02 -3.26621 -1.1805 0
M  V30 27519 C 2678.98 -4.24343 -0.558305 0
M  V30 27520 C 2678.3 -5.07418 -1.68614 0
M  V30 27521 C 2679.6 -5.19936 0.496386 0
M  V30 27522 H 2681.3 -2.94114 0.560098 0
M  V30 27523 H 2678.84 -1.41431 0.2708 0
M  V30 27524 H 2680.79 -3.85661 -1.69834 0
M  V30 27525 H 2679.52 -2.63552 -1.92894 0
M  V30 27526 H 2678.18 -3.66548 -0.0616513 0
M  V30 27527 H 2677.83 -4.40743 -2.42394 0
M  V30 27528 H 2677.53 -5.73589 -1.27554 0
M  V30 27529 H 2679.05 -5.69319 -2.20699 0
M  V30 27530 H 2680.46 -5.73264 0.064106 0
M  V30 27531 H 2678.86 -5.9438 0.826595 0
M  V30 27532 H 2679.93 -4.64627 1.38743 0
M  V30 27533 N 2681.27 -0.307291 -1.54575 0
M  V30 27534 C 2682.24 0.553185 -2.22424 0
M  V30 27535 C 2683.24 1.05637 -1.21233 0
M  V30 27536 O 2684.43 0.951394 -1.45925 0
M  V30 27537 C 2681.56 1.76659 -2.91555 0
M  V30 27538 H 2682.75 -0.0397011 -2.99874 0
M  V30 27539 H 2680.3 -0.0581903 -1.56192 0
M  V30 27540 H 2681.04 2.39915 -2.18201 0
M  V30 27541 H 2680.82 1.41337 -3.65741 0
M  V30 27542 H 2682.31 2.37777 -3.43296 0
M  V30 27543 N 2682.75 1.57561 -0.0351337 0
M  V30 27544 C 2683.66 2.14047 0.960257 0
M  V30 27545 C 2684.68 1.09422 1.35288 0
M  V30 27546 O 2685.85 1.4151 1.43307 0
M  V30 27547 C 2682.92 2.66128 2.22209 0
M  V30 27548 C 2681.98 3.8549 1.88933 0
M  V30 27549 C 2681.21 4.35077 3.09101 0
M  V30 27550 O 2681.44 3.83809 4.21956 0
M  V30 27551 O 2680.37 5.26853 2.91048 0
M  V30 27552 H 2684.2 2.99388 0.509931 0
M  V30 27553 H 2681.78 1.4824 0.185827 0
M  V30 27554 H 2683.66 2.99666 2.96274 0
M  V30 27555 H 2682.34 1.83866 2.66411 0
M  V30 27556 H 2681.24 3.56867 1.12234 0
M  V30 27557 H 2682.58 4.68933 1.49543 0
M  V30 27558 N 2684.23 -0.238084 1.55791 0
M  V30 27559 C 2685.51 -0.988231 1.688 0
M  V30 27560 C 2685.89 -2.03044 0.577597 0
M  V30 27561 O 2685.23 -2.24649 -0.41774 0
M  V30 27562 C 2685.44 -1.61362 3.09457 0
M  V30 27563 C 2686.79 -2.11214 3.68339 0
M  V30 27564 O 2687.82 -1.71287 3.12313 0
M  V30 27565 O 2686.68 -2.84552 4.66575 0
M  V30 27566 H 2683.77 -0.460556 0.686889 0
M  V30 27567 H 2686.32 -0.231172 1.68118 0
M  V30 27568 H 2685.09 -0.860228 3.81727 0
M  V30 27569 H 2684.71 -2.43665 3.14186 0
M  V30 27570 N 2685.71 -1.4932 -0.504115 0
M  V30 27571 C 2686.95 -1.58884 -1.2603 0
M  V30 27572 C 2687.29 -0.273307 -1.92267 0
M  V30 27573 O 2686.56 0.722878 -1.80568 0
M  V30 27574 C 2686.84 -2.74584 -2.32971 0
M  V30 27575 C 2686.7 -4.15923 -1.71255 0
M  V30 27576 C 2688.02 -2.85938 -3.34556 0
M  V30 27577 H 2685.14 -0.57832 -0.456853 0
M  V30 27578 H 2687.78 -1.81593 -0.558933 0
M  V30 27579 H 2685.93 -2.55353 -2.92792 0
M  V30 27580 H 2687.6 -4.46662 -1.15286 0
M  V30 27581 H 2685.84 -4.21715 -1.01679 0
M  V30 27582 H 2686.51 -4.92746 -2.48808 0
M  V30 27583 H 2688.99 -3.03435 -2.84722 0
M  V30 27584 H 2687.87 -3.68575 -4.06748 0
M  V30 27585 H 2688.13 -1.95161 -3.96692 0
M  V30 27586 N 2687.19 0.754933 -1.38342 0
M  V30 27587 C 2688.41 1.54416 -1.37707 0
M  V30 27588 C 2688.83 1.8877 0.0334911 0
M  V30 27589 O 2688.19 1.5268 0.999747 0
M  V30 27590 C 2688.24 2.84412 -2.23141 0
M  V30 27591 O 2687.96 2.51525 -3.58702 0
M  V30 27592 C 2689.46 3.78558 -2.30671 0
M  V30 27593 H 2686.68 0.477843 -0.47107 0
M  V30 27594 H 2689.22 0.934414 -1.81904 0
M  V30 27595 H 2687.38 3.41768 -1.82409 0
M  V30 27596 H 2687.79 3.34889 -4.0367 0
M  V30 27597 H 2689.27 4.66726 -2.94738 0
M  V30 27598 H 2689.74 4.18895 -1.31998 0
M  V30 27599 H 2690.35 3.27127 -2.71787 0
M  V30 27600 N 2688.66 1.23189 0.982967 0
M  V30 27601 C 2689.63 1.01201 2.05648 0
M  V30 27602 C 2690.63 -0.0252181 1.6078 0
M  V30 27603 O 2691.82 0.214273 1.72877 0
M  V30 27604 C 2688.95 0.530715 3.36744 0
M  V30 27605 H 2690.14 1.96465 2.26587 0
M  V30 27606 H 2687.69 1.05197 1.156 0
M  V30 27607 H 2688.43 -0.425817 3.21492 0
M  V30 27608 H 2688.21 1.27916 3.70648 0
M  V30 27609 H 2689.7 0.397439 4.15704 0
M  V30 27610 N 2690.14 -1.18133 1.04318 0
M  V30 27611 C 2691.1 -2.20059 0.640833 0
M  V30 27612 C 2692.1 -1.57918 -0.303096 0
M  V30 27613 O 2693.29 -1.73977 -0.0881549 0
M  V30 27614 C 2690.43 -3.40847 -0.0600881 0
M  V30 27615 H 2691.62 -2.57169 1.54285 0
M  V30 27616 H 2689.17 -1.32062 0.836027 0
M  V30 27617 H 2689.91 -3.09271 -0.975791 0
M  V30 27618 H 2689.69 -3.87193 0.618387 0
M  V30 27619 H 2691.18 -4.1631 -0.328009 0
M  V30 27620 N 2691.62 -0.822988 -1.34405 0
M  V30 27621 C 2692.55 -0.259649 -2.32052 0
M  V30 27622 C 2693.53 0.623933 -1.58244 0
M  V30 27623 O 2694.72 0.550797 -1.86225 0
M  V30 27624 C 2691.85 0.579254 -3.42435 0
M  V30 27625 C 2690.8 -0.207196 -4.27498 0
M  V30 27626 C 2690.13 0.754453 -5.29351 0
M  V30 27627 C 2691.43 -1.41542 -5.02756 0
M  V30 27628 H 2693.12 -1.0755 -2.79416 0
M  V30 27629 H 2690.67 -0.518617 -1.34337 0
M  V30 27630 H 2692.62 0.98354 -4.09761 0
M  V30 27631 H 2691.34 1.42815 -2.9372 0
M  V30 27632 H 2690 -0.59285 -3.61775 0
M  V30 27633 H 2689.65 1.59931 -4.76897 0
M  V30 27634 H 2689.35 0.232458 -5.8714 0
M  V30 27635 H 2690.87 1.1566 -5.99546 0
M  V30 27636 H 2692.29 -1.08514 -5.62937 0
M  V30 27637 H 2690.69 -1.87306 -5.7012 0
M  V30 27638 H 2691.76 -2.19358 -4.32447 0
M  V30 27639 N 2693.1 1.4662 -0.577957 0
M  V30 27640 C 2694.06 2.28723 0.147765 0
M  V30 27641 C 2695.06 1.38125 0.8233 0
M  V30 27642 O 2696.25 1.60549 0.675983 0
M  V30 27643 C 2693.38 3.1838 1.21848 0
M  V30 27644 H 2694.58 2.94361 -0.573706 0
M  V30 27645 H 2692.13 1.52652 -0.33573 0
M  V30 27646 H 2692.86 2.57479 1.97168 0
M  V30 27647 H 2692.65 3.8508 0.738647 0
M  V30 27648 H 2694.14 3.80189 1.72761 0
M  V30 27649 N 2694.58 0.315484 1.5441 0
M  V30 27650 C 2695.52 -0.554127 2.24049 0
M  V30 27651 C 2696.49 -1.1181 1.22832 0
M  V30 27652 O 2697.68 -1.15994 1.51493 0
M  V30 27653 C 2694.82 -1.71311 2.99577 0
M  V30 27654 C 2693.93 -1.17914 4.15596 0
M  V30 27655 C 2693.07 -2.30316 4.78673 0
M  V30 27656 C 2692.11 -1.74127 5.8681 0
M  V30 27657 N 2691.24 -2.80159 6.43782 0
M  V30 27658 H 2696.08 0.0463126 2.97964 0
M  V30 27659 H 2693.62 0.0346267 1.47059 0
M  V30 27660 H 2695.58 -2.39499 3.41608 0
M  V30 27661 H 2694.21 -2.28496 2.28012 0
M  V30 27662 H 2693.26 -0.38907 3.78405 0
M  V30 27663 H 2694.57 -0.727925 4.9346 0
M  V30 27664 H 2693.73 -3.06423 5.23631 0
M  V30 27665 H 2692.46 -2.78771 4.00173 0
M  V30 27666 H 2691.47 -0.96514 5.41262 0
M  V30 27667 H 2692.69 -1.26559 6.67203 0
M  V30 27668 H 2690.64 -3.2792 5.68159 0
M  V30 27669 H 2690.56 -2.39576 7.17035 0
M  V30 27670 H 2691.83 -3.5612 6.93397 0
M  V30 27671 N 2696.05 -1.5754 0.0434891 0
M  V30 27672 C 2696.99 -2.08009 -0.96255 0
M  V30 27673 C 2698 -1.00636 -1.2797 0
M  V30 27674 O 2699.19 -1.28221 -1.24183 0
M  V30 27675 C 2696.29 -2.50175 -2.28617 0
M  V30 27676 C 2695.46 -3.80795 -2.15207 0
M  V30 27677 C 2694.52 -4.09357 -3.30626 0
M  V30 27678 O 2693.55 -4.79394 -3.06872 0
M  V30 27679 N 2694.75 -3.60662 -4.54866 0
M  V30 27680 H 2697.51 -2.94943 -0.531839 0
M  V30 27681 H 2695.07 -1.61268 -0.142936 0
M  V30 27682 H 2697.07 -2.66364 -3.04684 0
M  V30 27683 H 2695.64 -1.6853 -2.6328 0
M  V30 27684 H 2694.86 -3.74263 -1.23778 0
M  V30 27685 H 2696.14 -4.66346 -2.03466 0
M  V30 27686 H 2695.54 -3.04028 -4.77057 0
M  V30 27687 H 2694.1 -3.82103 -5.28053 0
M  V30 27688 N 2697.53 0.229818 -1.55915 0
M  V30 27689 C 2698.78 0.953534 -1.78191 0
M  V30 27690 C 2699.1 1.85196 -0.610536 0
M  V30 27691 O 2698.37 1.92317 0.372955 0
M  V30 27692 H 2696.95 0.355076 -0.657214 0
M  V30 27693 H 2699.61 0.243659 -1.93371 0
M  V30 27694 H 2698.71 1.56522 -2.70014 0
M  V30 27695 N 2699.01 1.49585 0.49619 0
M  V30 27696 C 2699.94 1.69524 1.60573 0
M  V30 27697 C 2700.92 0.543962 1.61168 0
M  V30 27698 O 2702.11 0.780341 1.77832 0
M  V30 27699 C 2699.24 1.76622 2.99035 0
M  V30 27700 C 2698.19 2.91587 3.13307 0
M  V30 27701 C 2697.52 2.83802 4.53167 0
M  V30 27702 C 2698.82 4.32457 2.92879 0
M  V30 27703 H 2700.51 2.62419 1.44141 0
M  V30 27704 H 2698.06 1.26283 0.692001 0
M  V30 27705 H 2700.01 1.89156 3.76561 0
M  V30 27706 H 2698.73 0.803296 3.16567 0
M  V30 27707 H 2697.39 2.78662 2.38208 0
M  V30 27708 H 2697.04 1.85408 4.67582 0
M  V30 27709 H 2696.74 3.60967 4.63656 0
M  V30 27710 H 2698.26 2.98351 5.32747 0
M  V30 27711 H 2699.68 4.46039 3.6017 0
M  V30 27712 H 2698.08 5.10881 3.14835 0
M  V30 27713 H 2699.15 4.46568 1.88958 0
M  V30 27714 O 2700.53 -0.641521 1.48212 0
M  V30 27715 H 2701.22 -1.29532 1.44018 0
M  V30 END ATOM
M  V30 BEGIN BOND
M  V30 END BOND
M  V30 END CTAB
M  END
$$$$
