drugbank_target|Q00534 Cyclin-dependent kinase 6 (DB03496; DB07379; DB07795; DB09073; DB11730; DB12001)
 OpenBabel12092120073D

  0  0  0     0  0            999 V3000
M  V30 BEGIN CTAB
M  V30 COUNTS 5207 5262 0 0 0
M  V30 BEGIN ATOM
M  V30 1 H -0.908 1.98254 -0.117106 0
M  V30 2 N 0 1.576 0 0
M  V30 3 C 0.933 2.03868 1.02534 0
M  V30 4 C 1.911 0.928543 1.3348 0
M  V30 5 O 3.095 1.19667 1.45644 0
M  V30 6 C 0.222 2.43627 2.35294 0
M  V30 7 C -0.732 3.65373 2.2001 0
M  V30 8 S 0.101 5.13292 1.52614 0
M  V30 9 C 1.257 5.56322 2.86805 0
M  V30 10 H 1.49 2.90518 0.631377 0
M  V30 11 H -0.977 1.52953 0.210867 0
M  V30 12 H 0.981 2.67203 3.11629 0
M  V30 13 H -0.358 1.57376 2.7183 0
M  V30 14 H -1.165 3.90944 3.18086 0
M  V30 15 H -1.563 3.418 1.51819 0
M  V30 16 H 0.729 5.58782 3.83104 0
M  V30 17 H 1.672 6.56266 2.65933 0
M  V30 18 H 2.08 4.83886 2.90714 0
M  V30 19 N 1.4781 -0.272755 1.55222 0
M  V30 20 C 2.3881 -1.35918 1.91216 0
M  V30 21 C 3.4041 -1.54026 0.809436 0
M  V30 22 O 4.5801 -1.68148 1.10852 0
M  V30 23 C 1.6451 -2.69834 2.17693 0
M  V30 24 C 0.7061 -2.6047 3.41253 0
M  V30 25 C -0.0609 -3.88 3.66458 0
M  V30 26 O 0.1621 -4.88693 2.94169 0
M  V30 27 O -0.9039 -3.88189 4.59992 0
M  V30 28 H 2.9221 -1.0839 2.83699 0
M  V30 29 H 0.5071 -0.471301 1.41771 0
M  V30 30 H 2.3891 -3.49017 2.36147 0
M  V30 31 H 1.0641 -2.97148 1.28392 0
M  V30 32 H -0.0289 -1.79663 3.28134 0
M  V30 33 H 1.3041 -2.38106 4.30774 0
M  V30 34 N 2.9562 -1.48159 -0.537278 0
M  V30 35 C 3.9032 -1.62138 -1.64256 0
M  V30 36 C 4.8732 -0.463668 -1.59497 0
M  V30 37 O 6.0582 -0.686241 -1.78032 0
M  V30 38 C 3.1982 -1.66028 -3.02537 0
M  V30 39 C 2.3112 -2.92855 -3.17585 0
M  V30 40 C 1.4462 -2.87952 -4.46382 0
M  V30 41 C 0.4852 -4.09516 -4.54932 0
M  V30 42 N -0.3778 -4.02733 -5.75109 0
M  V30 43 H 4.4622 -2.56529 -1.51647 0
M  V30 44 H 1.9992 -1.27224 -0.738414 0
M  V30 45 H 3.9572 -1.66265 -3.82638 0
M  V30 46 H 2.5872 -0.751331 -3.13934 0
M  V30 47 H 1.6392 -3.02395 -2.30784 0
M  V30 48 H 2.9512 -3.82822 -3.19764 0
M  V30 49 H 2.1052 -2.8655 -5.34765 0
M  V30 50 H 0.8442 -1.95702 -4.46712 0
M  V30 51 H -0.1508 -4.11201 -3.64957 0
M  V30 52 H 1.0742 -5.02917 -4.56346 0
M  V30 53 H -0.9798 -3.13299 -5.76351 0
M  V30 54 H -1.0628 -4.86397 -5.78752 0
M  V30 55 H 0.2052 -4.05379 -6.65799 0
M  V30 56 N 4.4343 0.785586 -1.36625 0
M  V30 57 C 5.7113 1.53198 -1.21613 0
M  V30 58 C 6.0913 2.10187 0.196113 0
M  V30 59 O 5.4393 1.94318 1.20219 0
M  V30 60 C 5.6493 2.62388 -2.30116 0
M  V30 61 C 6.9973 3.30167 -2.66974 0
M  V30 62 O 8.0213 2.72674 -2.29188 0
M  V30 63 O 6.8803 4.34077 -3.32023 0
M  V30 64 H 3.9743 0.677865 -0.473738 0
M  V30 65 H 6.5203 0.823739 -1.48367 0
M  V30 66 H 5.2923 2.18299 -3.24748 0
M  V30 67 H 4.9153 3.40827 -2.0475 0
M  V30 68 N 5.9124 1.20967 1.01018 0
M  V30 69 C 7.1604 1.02172 1.74371 0
M  V30 70 C 7.4814 -0.446414 1.89821 0
M  V30 71 O 6.7514 -1.32234 1.44537 0
M  V30 72 H 5.3314 0.375066 0.646014 0
M  V30 73 H 7.9934 1.52187 1.21758 0
M  V30 74 H 7.0894 1.48538 2.74487 0
M  V30 75 N 7.3905 -1.2043 1.01659 0
M  V30 76 C 8.3205 -2.25466 0.607226 0
M  V30 77 C 9.3015 -1.65853 -0.377716 0
M  V30 78 O 10.4865 -1.92409 -0.263149 0
M  V30 79 C 7.6165 -3.47256 -0.0552949 0
M  V30 80 C 6.5705 -4.19462 0.850632 0
M  V30 81 C 5.8965 -5.34673 0.0538859 0
M  V30 82 C 7.1965 -4.75603 2.15868 0
M  V30 83 H 8.8905 -2.59962 1.48526 0
M  V30 84 H 6.4365 -1.2496 0.715605 0
M  V30 85 H 8.3895 -4.19917 -0.353233 0
M  V30 86 H 7.1135 -3.11924 -0.968045 0
M  V30 87 H 5.7725 -3.48667 1.13257 0
M  V30 88 H 5.4205 -4.95585 -0.860514 0
M  V30 89 H 5.1205 -5.83913 0.657192 0
M  V30 90 H 6.6445 -6.10138 -0.237598 0
M  V30 91 H 8.0585 -5.40083 1.92311 0
M  V30 92 H 6.4555 -5.3528 2.71284 0
M  V30 93 H 7.5255 -3.94346 2.82169 0
M  V30 94 N 8.8686 -0.792821 -1.36206 0
M  V30 95 C 10.1086 -0.372238 -2.00982 0
M  V30 96 C 10.4726 1.03749 -1.61555 0
M  V30 97 O 11.6736 1.55934 -2.18948 0
M  V30 98 C 9.9446 -0.534566 -3.5338 0
M  V30 99 S 11.5036 -0.202365 -4.38333 0
M  V30 100 H 8.3216 -0.142044 -0.696667 0
M  V30 101 H 10.9236 -1.03206 -1.66039 0
M  V30 102 H 9.6276 -1.5608 -3.79562 0
M  V30 103 H 9.1586 0.141065 -3.93147 0
M  V30 104 H 11.1736 0.994869 -4.86124 0
M  V30 105 N 10.3467 1.47872 -0.545128 0
M  V30 106 C 11.7627 1.5829 -0.204032 0
M  V30 107 C 11.9627 1.54529 1.29317 0
M  V30 108 O 11.0187 1.44232 2.07252 0
M  V30 109 C 12.3317 2.89304 -0.819987 0
M  V30 110 C 13.8797 3.02864 -0.790105 0
M  V30 111 C 14.3547 4.3656 -1.38491 0
M  V30 112 N 15.8457 4.43165 -1.34755 0
M  V30 113 C 16.5807 5.45153 -1.77753 0
M  V30 114 N 16.0767 6.54016 -2.2855 0
M  V30 115 N 17.8697 5.36125 -1.68897 0
M  V30 116 H 10.0207 1.4856 -1.51802 0
M  V30 117 H 12.2837 0.706305 -0.632327 0
M  V30 118 H 11.9897 2.97757 -1.87173 0
M  V30 119 H 11.8637 3.75957 -0.305915 0
M  V30 120 H 14.2507 2.94014 0.252913 0
M  V30 121 H 14.3317 2.17782 -1.34181 0
M  V30 122 H 13.9757 4.46164 -2.42693 0
M  V30 123 H 13.9057 5.20353 -0.808754 0
M  V30 124 H 16.3967 3.65083 -0.975855 0
M  V30 125 H 16.7097 7.27994 -2.59314 0
M  V30 126 H 15.0547 6.54938 -2.32553 0
M  V30 127 H 18.2457 4.49975 -1.28998 0
M  V30 128 H 18.4187 6.15472 -2.02726 0
M  V30 129 N 11.8248 0.280983 1.55075 0
M  V30 130 C 12.7878 -0.590896 2.21452 0
M  V30 131 C 13.7878 -1.07682 1.19421 0
M  V30 132 O 14.9778 -0.97605 1.44288 0
M  V30 133 C 12.1098 -1.81587 2.88511 0
M  V30 134 H 13.3028 -0.0112554 2.99898 0
M  V30 135 H 10.8558 0.0316438 1.56268 0
M  V30 136 H 11.5908 -2.43587 2.14093 0
M  V30 137 H 11.3758 -1.4753 3.63287 0
M  V30 138 H 12.8658 -2.43575 3.39206 0
M  V30 139 N 13.3029 -1.57598 0.00835791 0
M  V30 140 C 14.5799 -1.82172 -0.712235 0
M  V30 141 C 14.9599 -0.887873 -1.9152 0
M  V30 142 O 14.3079 0.06146 -2.28417 0
M  V30 143 C 14.5179 -3.30875 -1.11008 0
M  V30 144 C 15.8659 -3.96826 -1.51044 0
M  V30 145 O 16.8899 -3.35248 -1.20364 0
M  V30 146 O 15.7489 -5.05318 -2.08125 0
M  V30 147 H 12.8429 -0.750435 -0.347529 0
M  V30 148 H 15.3889 -1.69665 0.0344523 0
M  V30 149 H 14.1609 -3.90481 -0.252982 0
M  V30 150 H 13.7839 -3.48412 -1.9156 0
M  V30 151 N 14.781 0.264519 -1.55364 0
M  V30 152 C 15.713 1.34965 -1.85248 0
M  V30 153 C 16.726 1.45136 -0.737525 0
M  V30 154 O 17.915 1.46801 -1.01547 0
M  V30 155 C 15.015 2.73008 -2.00797 0
M  V30 156 C 14.188 2.85324 -3.31525 0
M  V30 157 C 13.247 4.04097 -3.37034 0
M  V30 158 O 12.273 3.94455 -4.10358 0
M  V30 159 N 13.475 5.16458 -2.65049 0
M  V30 160 H 16.24 1.09672 -2.78913 0
M  V30 161 H 13.801 0.454635 -1.55386 0
M  V30 162 H 15.793 3.50772 -2.01844 0
M  V30 163 H 14.363 2.91087 -1.1396 0
M  V30 164 H 13.583 1.94377 -3.42945 0
M  V30 165 H 14.871 2.9049 -4.17724 0
M  V30 166 H 14.269 5.27181 -2.05175 0
M  V30 167 H 12.826 5.92422 -2.71809 0
M  V30 168 N 16.2591 1.48442 0.529413 0
M  V30 169 C 17.1911 1.59095 1.64989 0
M  V30 170 C 18.2041 0.475212 1.5571 0
M  V30 171 O 19.3931 0.746081 1.6216 0
M  V30 172 C 16.4931 1.50518 3.0364 0
M  V30 173 C 15.6661 2.77142 3.38395 0
M  V30 174 C 14.7251 2.62012 4.56329 0
M  V30 175 O 13.7511 3.35898 4.59522 0
M  V30 176 N 14.9531 1.71667 5.54536 0
M  V30 177 H 17.7181 2.55723 1.56287 0
M  V30 178 H 15.2791 1.45173 0.716697 0
M  V30 179 H 17.2711 1.38091 3.80412 0
M  V30 180 H 15.8411 0.618627 3.06418 0
M  V30 181 H 15.0611 3.0413 2.50796 0
M  V30 182 H 16.3491 3.61146 3.58401 0
M  V30 183 H 15.7471 1.10841 5.54735 0
M  V30 184 H 14.3041 1.65178 6.30523 0
M  V30 185 N 17.7372 -0.778329 1.37039 0
M  V30 186 C 18.9672 -1.56507 1.34868 0
M  V30 187 C 19.3752 -1.89072 -0.0694802 0
M  V30 188 O 18.7182 -1.51434 -1.03987 0
M  V30 189 C 18.7802 -2.90641 2.11585 0
M  V30 190 C 18.4442 -2.80746 3.60598 0
M  V30 191 C 19.4412 -2.52226 4.54618 0
M  V30 192 C 17.1262 -2.98974 4.03633 0
M  V30 193 C 19.1202 -2.42054 5.89651 0
M  V30 194 C 16.8072 -2.88423 5.38754 0
M  V30 195 C 17.8052 -2.60002 6.31576 0
M  V30 196 O 17.4932 -2.49465 7.64214 0
M  V30 197 H 17.2252 -0.491723 0.463879 0
M  V30 198 H 19.7792 -0.973053 1.80889 0
M  V30 199 H 18.0092 -3.51936 1.60243 0
M  V30 200 H 19.6982 -3.51992 2.0213 0
M  V30 201 H 20.4642 -2.37835 4.22681 0
M  V30 202 H 16.3432 -3.20099 3.31749 0
M  V30 203 H 19.8872 -2.19791 6.62071 0
M  V30 204 H 15.7842 -3.0238 5.70295 0
M  V30 205 H 16.5522 -2.64864 7.74461 0
M  V30 206 N 19.2153 -1.21501 -1.00376 0
M  V30 207 C 20.1253 -0.991447 -2.12621 0
M  V30 208 C 21.1413 0.0568446 -1.73907 0
M  V30 209 O 22.3173 -0.13348 -2.00957 0
M  V30 210 C 19.3823 -0.560312 -3.42142 0
M  V30 211 C 18.4433 -1.68096 -3.95022 0
M  V30 212 C 17.6763 -1.2703 -5.18362 0
M  V30 213 O 17.8993 -0.144438 -5.70217 0
M  V30 214 O 16.8333 -2.08269 -5.64719 0
M  V30 215 H 20.6593 -1.93158 -2.34358 0
M  V30 216 H 18.2443 -0.999999 -1.10997 0
M  V30 217 H 20.1263 -0.329724 -4.20108 0
M  V30 218 H 18.8013 0.351089 -3.2179 0
M  V30 219 H 17.7083 -1.96597 -3.18278 0
M  V30 220 H 19.0413 -2.56983 -4.19786 0
M  V30 221 N 20.6934 1.19889 -1.02296 0
M  V30 222 C 21.9334 1.91125 -0.724602 0
M  V30 223 C 22.2974 1.77464 0.732835 0
M  V30 224 O 23.4984 2.43241 1.144 0
M  V30 225 C 21.7694 3.38187 -1.15604 0
M  V30 226 S 23.3284 4.27702 -0.980621 0
M  V30 227 H 20.1464 0.66018 -0.263976 0
M  V30 228 H 22.7484 1.44978 -1.31155 0
M  V30 229 H 21.4524 3.45653 -2.21251 0
M  V30 230 H 20.9834 3.89363 -0.562131 0
M  V30 231 H 22.9984 4.96073 0.112225 0
M  V30 232 N 22.1715 0.800033 1.35784 0
M  V30 233 C 23.4175 0.377901 1.99248 0
M  V30 234 C 23.7505 -1.05052 1.63333 0
M  V30 235 O 23.0255 -1.72768 0.893385 0
M  V30 236 C 23.3085 0.553922 3.55814 0
M  V30 237 C 23.1615 2.0268 4.01548 0
M  V30 238 C 24.4805 -0.0244802 4.40093 0
M  V30 239 H 21.5995 0.138782 0.723815 0
M  V30 240 H 24.2415 1.00835 1.61035 0
M  V30 241 H 22.3915 0.0172398 3.88496 0
M  V30 242 H 24.0635 2.62536 3.79305 0
M  V30 243 H 22.3065 2.5256 3.52698 0
M  V30 244 H 22.9775 2.10087 5.10458 0
M  V30 245 H 25.4535 0.433775 4.13833 0
M  V30 246 H 24.3295 0.128637 5.48749 0
M  V30 247 H 24.5905 -1.11758 4.27741 0
M  V30 248 N 23.6496 -1.47581 0.552962 0
M  V30 249 C 24.6126 -2.28439 -0.186605 0
M  V30 250 C 25.6126 -1.36706 -0.84665 0
M  V30 251 O 26.8026 -1.59378 -0.703164 0
M  V30 252 C 23.9346 -3.16264 -1.2724 0
M  V30 253 H 25.1276 -2.95294 0.523609 0
M  V30 254 H 22.6806 -1.532 0.309745 0
M  V30 255 H 23.4156 -2.54091 -2.01514 0
M  V30 256 H 23.2006 -3.83769 -0.803968 0
M  V30 257 H 24.6906 -3.77198 -1.79196 0
M  V30 258 N 25.1277 -0.289203 -1.54924 0
M  V30 259 C 26.0377 0.601863 -2.26748 0
M  V30 260 C 27.0537 1.15834 -1.2984 0
M  V30 261 O 28.2297 1.18564 -1.62802 0
M  V30 262 C 25.2947 1.76299 -2.98529 0
M  V30 263 C 24.3557 1.24178 -4.10948 0
M  V30 264 C 23.5887 2.34757 -4.79296 0
M  V30 265 O 23.8117 3.54411 -4.46933 0
M  V30 266 O 22.7457 2.02115 -5.66951 0
M  V30 267 H 26.5717 0.0195879 -3.03694 0
M  V30 268 H 24.1567 -0.0560868 -1.49295 0
M  V30 269 H 26.0387 2.43973 -3.43592 0
M  V30 270 H 24.7137 2.33209 -2.24488 0
M  V30 271 H 23.6207 0.531104 -3.70311 0
M  V30 272 H 24.9537 0.718252 -4.86931 0
M  V30 273 N 26.6058 1.57591 -0.0167156 0
M  V30 274 C 27.8548 1.90461 0.663877 0
M  V30 275 C 28.1678 0.893515 1.73999 0
M  V30 276 O 29.3738 1.11302 2.47637 0
M  V30 277 C 27.8298 3.38155 1.23204 0
M  V30 278 C 27.4378 4.47597 0.189866 0
M  V30 279 C 29.1818 3.80111 1.88986 0
M  V30 280 C 27.0888 5.86379 0.768964 0
M  V30 281 H 26.0188 0.710738 0.251729 0
M  V30 282 H 28.6698 1.83326 -0.0799926 0
M  V30 283 H 27.0518 3.40182 2.02712 0
M  V30 284 H 28.2258 4.57112 -0.581846 0
M  V30 285 H 26.5408 4.14766 -0.368475 0
M  V30 286 H 29.1378 4.81145 2.33247 0
M  V30 287 H 29.4808 3.14511 2.72743 0
M  V30 288 H 30.0138 3.80454 1.16187 0
M  V30 289 H 26.7528 6.55493 -0.0301957 0
M  V30 290 H 26.2728 5.80496 1.50945 0
M  V30 291 H 27.9518 6.34563 1.26251 0
M  V30 292 N 28.0839 -0.256276 1.55502 0
M  V30 293 C 29.3319 -0.983672 1.76545 0
M  V30 294 C 29.6529 -1.86206 0.578982 0
M  V30 295 O 28.9229 -1.91656 -0.405577 0
M  V30 296 H 27.5029 -0.366191 0.651086 0
M  V30 297 H 30.1649 -0.276479 1.92929 0
M  V30 298 H 29.2609 -1.61087 2.67315 0
M  V30 299 N 29.562 -1.4872 -0.521534 0
M  V30 300 C 30.472 -1.66569 -1.65203 0
M  V30 301 C 31.488 -0.548197 -1.65139 0
M  V30 302 O 32.664 -0.820339 -1.83936 0
M  V30 303 C 29.729 -1.70917 -3.01642 0
M  V30 304 C 28.79 -2.94356 -3.12495 0
M  V30 305 C 28.023 -2.98487 -4.42426 0
M  V30 306 O 28.246 -2.10786 -5.30024 0
M  V30 307 O 27.18 -3.90746 -4.57822 0
M  V30 308 H 31.006 -2.62298 -1.5308 0
M  V30 309 H 28.591 -1.3222 -0.695565 0
M  V30 310 H 30.473 -1.7625 -3.82771 0
M  V30 311 H 29.148 -0.783633 -3.14071 0
M  V30 312 H 28.055 -2.94552 -2.3063 0
M  V30 313 H 29.388 -3.86322 -3.04986 0
M  V30 314 N 31.0401 0.771051 -1.3745 0
M  V30 315 C 32.2881 1.52661 -1.32435 0
M  V30 316 C 32.6091 1.9479 0.0905024 0
M  V30 317 O 31.8791 1.66348 1.03466 0
M  V30 318 H 30.4591 0.566218 -0.487244 0
M  V30 319 H 33.1211 0.917636 -1.71946 0
M  V30 320 H 32.2171 2.42568 -1.96385 0
M  V30 321 N 32.5182 1.22032 0.997298 0
M  V30 322 C 33.4812 0.987909 2.06816 0
M  V30 323 C 34.4812 -0.0440084 1.6074 0
M  V30 324 O 35.6712 0.194053 1.73116 0
M  V30 325 C 32.8032 0.49132 3.37341 0
M  V30 326 H 33.9962 1.93803 2.28868 0
M  V30 327 H 31.5492 1.03838 1.16822 0
M  V30 328 H 32.2842 -0.463364 3.20973 0
M  V30 329 H 32.0692 1.23575 3.72118 0
M  V30 330 H 33.5592 0.348824 4.16141 0
M  V30 331 N 33.9963 -1.19345 1.0293 0
M  V30 332 C 35.2263 -1.92717 0.744563 0
M  V30 333 C 35.6343 -1.75751 -0.700579 0
M  V30 334 O 34.9773 -1.07703 -1.48815 0
M  V30 335 C 35.0393 -3.44828 1.01657 0
M  V30 336 C 34.7033 -3.85564 2.45335 0
M  V30 337 C 35.7003 -3.90286 3.43472 0
M  V30 338 C 33.3853 -4.1719 2.79746 0
M  V30 339 C 35.3793 -4.26065 4.74075 0
M  V30 340 C 33.0663 -4.52642 4.10559 0
M  V30 341 C 34.0643 -4.57054 5.07534 0
M  V30 342 O 33.7523 -4.91685 6.36004 0
M  V30 343 H 33.4843 -0.618977 0.271742 0
M  V30 344 H 36.0383 -1.52415 1.37691 0
M  V30 345 H 34.2683 -3.85314 0.327084 0
M  V30 346 H 35.9573 -3.99437 0.721427 0
M  V30 347 H 36.7233 -3.66002 3.18225 0
M  V30 348 H 32.6023 -4.1294 2.04943 0
M  V30 349 H 36.1463 -4.29423 5.49765 0
M  V30 350 H 32.0433 -4.76383 4.35579 0
M  V30 351 H 32.8113 -5.09631 6.40483 0
M  V30 352 N 35.4744 -0.807222 -1.35358 0
M  V30 353 C 36.7224 -0.387122 -1.98358 0
M  V30 354 C 37.0434 1.04942 -1.64354 0
M  V30 355 O 36.3134 1.72615 -0.926339 0
M  V30 356 H 34.8934 -0.140154 -0.733734 0
M  V30 357 H 37.5554 -1.0332 -1.6526 0
M  V30 358 H 36.6514 -0.493352 -3.08176 0
M  V30 359 N 36.9525 1.47285 -0.560781 0
M  V30 360 C 37.8995 2.30058 0.18491 0
M  V30 361 C 38.8695 1.39281 0.904986 0
M  V30 362 O 40.0545 1.68241 0.899979 0
M  V30 363 C 37.1945 3.23317 1.20666 0
M  V30 364 C 36.3075 4.29186 0.492285 0
M  V30 365 C 35.4425 5.09592 1.49964 0
M  V30 366 C 34.4815 6.07232 0.770439 0
M  V30 367 N 33.6185 6.80584 1.72479 0
M  V30 368 H 38.4585 2.93302 -0.527048 0
M  V30 369 H 35.9955 1.44568 -0.271738 0
M  V30 370 H 37.9535 3.75811 1.81168 0
M  V30 371 H 36.5835 2.61929 1.88661 0
M  V30 372 H 35.6355 3.7972 -0.227333 0
M  V30 373 H 36.9475 4.98738 -0.0787929 0
M  V30 374 H 36.1015 5.66254 2.17809 0
M  V30 375 H 34.8405 4.3995 2.10464 0
M  V30 376 H 33.8455 5.49745 0.0780846 0
M  V30 377 H 35.0705 6.78884 0.171134 0
M  V30 378 H 33.0165 6.1367 2.3183 0
M  V30 379 H 32.9335 7.46319 1.20596 0
M  V30 380 H 34.2015 7.41818 2.39428 0
M  V30 381 N 38.4306 0.297415 1.54768 0
M  V30 382 C 39.6766 -0.313376 2.00364 0
M  V30 383 C 40.0096 -1.53815 1.18553 0
M  V30 384 O 39.2846 -1.92739 0.261103 0
M  V30 385 C 39.5676 -0.673525 3.53745 0
M  V30 386 C 39.4206 0.560133 4.46299 0
M  V30 387 C 40.7396 -1.50143 4.13697 0
M  V30 388 H 37.8586 -0.112428 0.728374 0
M  V30 389 H 40.5006 0.4088 1.8555 0
M  V30 390 H 38.6506 -1.28881 3.665 0
M  V30 391 H 40.3226 1.19863 4.45455 0
M  V30 392 H 38.5656 1.19405 4.17043 0
M  V30 393 H 39.2366 0.26405 5.51368 0
M  V30 394 H 41.7126 -0.981588 4.04356 0
M  V30 395 H 40.5886 -1.72221 5.21182 0
M  V30 396 H 40.8496 -2.48952 3.65343 0
M  V30 397 N 39.9087 -1.5758 0.0250728 0
M  V30 398 C 41.1557 -1.91633 -0.654444 0
M  V30 399 C 41.4837 -0.901103 -1.72367 0
M  V30 400 O 40.7387 0.0905647 -1.9549 0
M  V30 401 C 41.0377 -3.32421 -1.31268 0
M  V30 402 C 40.7037 -4.49344 -0.374223 0
M  V30 403 C 39.3657 -4.8106 -0.115911 0
M  V30 404 C 41.7177 -5.20498 0.270432 0
M  V30 405 C 39.0457 -5.8129 0.79493 0
M  V30 406 C 41.3977 -6.21699 1.1693 0
M  V30 407 C 40.0617 -6.51859 1.43655 0
M  V30 408 H 39.3317 -0.701236 -0.239478 0
M  V30 409 H 41.9787 -1.91307 0.0859734 0
M  V30 410 H 40.2837 -3.28989 -2.12775 0
M  V30 411 H 41.9807 -3.56038 -1.84494 0
M  V30 412 H 38.5707 -4.24579 -0.58573 0
M  V30 413 H 42.7547 -4.96229 0.0839194 0
M  V30 414 H 38.0107 -6.03005 1.00973 0
M  V30 415 H 42.1847 -6.75955 1.67504 0
M  V30 416 H 39.8117 -7.2934 2.144 0
M  V30 417 N 41.3868 0.248026 -1.55636 0
M  V30 418 C 42.3338 1.30707 -1.90222 0
M  V30 419 C 43.3038 1.47881 -0.756332 0
M  V30 420 O 44.4888 1.61883 -1.00988 0
M  V30 421 C 41.6288 2.65769 -2.20138 0
M  V30 422 C 40.7418 2.56612 -3.47526 0
M  V30 423 C 39.8768 3.8402 -3.67017 0
M  V30 424 C 38.9158 3.69476 -4.8801 0
M  V30 425 N 38.0528 4.88774 -5.04029 0
M  V30 426 H 42.8928 1.00512 -2.80538 0
M  V30 427 H 40.4298 0.485055 -1.38873 0
M  V30 428 H 42.3878 3.44386 -2.35487 0
M  V30 429 H 41.0178 2.94115 -1.33027 0
M  V30 430 H 40.0698 1.69571 -3.40514 0
M  V30 431 H 41.3818 2.41774 -4.36287 0
M  V30 432 H 40.5358 4.7108 -3.8232 0
M  V30 433 H 39.2748 4.01754 -2.76487 0
M  V30 434 H 38.2798 2.80799 -4.72686 0
M  V30 435 H 39.5048 3.53238 -5.8 0
M  V30 436 H 37.4508 5.0687 -4.16435 0
M  V30 437 H 37.3678 4.76562 -5.86877 0
M  V30 438 H 38.6358 5.77335 -5.23741 0
M  V30 439 N 42.8649 1.48995 0.513639 0
M  V30 440 C 43.8279 1.64229 1.59879 0
M  V30 441 C 44.8279 0.514696 1.5234 0
M  V30 442 O 46.0179 0.78087 1.55718 0
M  V30 443 C 43.1499 1.62783 2.99524 0
M  V30 444 H 44.3429 2.61004 1.47705 0
M  V30 445 H 41.8959 1.37837 0.736936 0
M  V30 446 H 42.6309 0.675461 3.17188 0
M  V30 447 H 42.4159 2.4466 3.06404 0
M  V30 448 H 43.9059 1.76669 3.78388 0
M  V30 449 N 44.343 -0.763751 1.37857 0
M  V30 450 C 45.759 -1.06542 1.18832 0
M  V30 451 C 45.959 -2.01478 0.0299722 0
M  V30 452 O 45.015 -2.4458 -0.627447 0
M  V30 453 C 46.328 -1.65525 2.51042 0
M  V30 454 C 47.876 -1.77745 2.57635 0
M  V30 455 C 48.351 -2.4014 3.89996 0
M  V30 456 N 49.842 -2.47582 3.91481 0
M  V30 457 C 50.577 -2.96732 4.9065 0
M  V30 458 N 50.073 -3.45993 6.00217 0
M  V30 459 N 51.866 -2.95679 4.78048 0
M  V30 460 H 44.017 -0.133556 2.1198 0
M  V30 461 H 46.28 -0.121879 0.940133 0
M  V30 462 H 45.986 -1.03236 3.36207 0
M  V30 463 H 45.86 -2.64719 2.68707 0
M  V30 464 H 48.247 -2.39164 1.72872 0
M  V30 465 H 48.328 -0.772836 2.43846 0
M  V30 466 H 47.972 -1.79358 4.75177 0
M  V30 467 H 47.902 -3.41223 4.01092 0
M  V30 468 H 50.393 -2.1273 3.12337 0
M  V30 469 H 50.706 -3.81922 6.7183 0
M  V30 470 H 49.051 -3.44077 6.03851 0
M  V30 471 H 52.242 -2.56499 3.91568 0
M  V30 472 H 52.415 -3.33672 5.55488 0
M  V30 473 N 45.8211 -1.22559 -0.990812 0
M  V30 474 C 47.0981 -0.959875 -1.70428 0
M  V30 475 C 47.4781 0.524455 -2.04481 0
M  V30 476 O 46.8261 1.49302 -1.72977 0
M  V30 477 C 47.0361 -1.85955 -2.95333 0
M  V30 478 C 48.3841 -2.11687 -3.68068 0
M  V30 479 O 49.4081 -1.8342 -3.05345 0
M  V30 480 O 48.2671 -2.59572 -4.80921 0
M  V30 481 H 45.3611 -0.361154 -0.743974 0
M  V30 482 H 47.9071 -1.33554 -1.04697 0
M  V30 483 H 46.6791 -2.86346 -2.66687 0
M  V30 484 H 46.3021 -1.4856 -3.68803 0
M  V30 485 N 47.2992 1.18797 -1.03562 0
M  V30 486 C 48.2292 2.24472 -0.643019 0
M  V30 487 C 49.2102 1.66433 0.351283 0
M  V30 488 O 50.3952 1.92803 0.232505 0
M  V30 489 C 47.5252 3.473 4.24935e-05 0
M  V30 490 C 46.4792 4.18055 -0.917257 0
M  V30 491 C 45.8052 5.34519 -0.138941 0
M  V30 492 C 47.1052 4.72109 -2.23407 0
M  V30 493 H 48.7992 2.57566 -1.52643 0
M  V30 494 H 46.3452 1.23806 -0.735394 0
M  V30 495 H 48.2982 4.20426 0.286383 0
M  V30 496 H 47.0222 3.13424 0.918299 0
M  V30 497 H 45.6812 3.46821 -1.1879 0
M  V30 498 H 45.3292 4.96891 0.781562 0
M  V30 499 H 45.0292 5.82794 -0.750005 0
M  V30 500 H 46.5532 6.10438 0.1405 0
M  V30 501 H 47.9672 5.36955 -2.00879 0
M  V30 502 H 46.3642 5.30897 -2.79765 0
M  V30 503 H 47.4342 3.89807 -2.88407 0
M  V30 504 N 48.7773 0.814389 1.34928 0
M  V30 505 C 49.7243 0.22822 2.29669 0
M  V30 506 C 50.6943 -0.642164 1.53184 0
M  V30 507 O 51.8793 -0.585605 1.81591 0
M  V30 508 C 49.0193 -0.61089 3.3965 0
M  V30 509 C 48.1323 0.280792 4.31086 0
M  V30 510 C 47.2673 -0.567067 5.28165 0
M  V30 511 C 46.3063 0.324531 6.11239 0
M  V30 512 N 45.4433 -0.483756 7.00431 0
M  V30 513 H 50.2833 1.04153 2.79206 0
M  V30 514 H 47.8203 0.525133 1.37407 0
M  V30 515 H 49.7783 -1.11263 4.0209 0
M  V30 516 H 48.4083 -1.38939 2.91369 0
M  V30 517 H 47.4603 0.900688 3.69583 0
M  V30 518 H 48.7723 0.966723 4.89342 0
M  V30 519 H 47.9263 -1.13363 5.96015 0
M  V30 520 H 46.6653 -1.28654 4.70425 0
M  V30 521 H 45.6703 0.903298 5.42329 0
M  V30 522 H 46.8953 1.04198 6.71059 0
M  V30 523 H 44.8413 -1.18706 6.45171 0
M  V30 524 H 44.7583 0.143965 7.55863 0
M  V30 525 H 46.0263 -1.03334 7.7262 0
M  V30 526 N 50.2554 -1.46986 0.568584 0
M  V30 527 C 51.2034 -2.31858 -0.185649 0
M  V30 528 C 52.1974 -1.43624 -0.898249 0
M  V30 529 O 53.4034 -1.60327 -0.818242 0
M  V30 530 H 49.7784 -0.747866 -0.0787399 0
M  V30 531 H 51.7494 -2.93303 0.549191 0
M  V30 532 C 50.4984 -3.26513 -1.19519 0
M  V30 533 H 49.8214 -3.94377 -0.656285 0
M  V30 534 H 51.2614 -3.88707 -1.6936 0
M  V30 535 C 49.7204 -2.50847 -2.24894 0
M  V30 536 O 50.2504 -2.26119 -3.32014 0
M  V30 537 N 48.4564 -2.11656 -1.99124 0
M  V30 538 H 48.0034 -2.31966 -1.12024 0
M  V30 539 H 47.9614 -1.61347 -2.69842 0
M  V30 540 N 51.7335 -0.305618 -1.54608 0
M  V30 541 C 52.9815 0.301701 -1.99835 0
M  V30 542 C 53.3025 1.54054 -1.19551 0
M  V30 543 O 52.5725 1.93702 -0.292658 0
M  V30 544 H 51.1525 0.114468 -0.738178 0
M  V30 545 H 53.8145 -0.418016 -1.90364 0
M  V30 546 H 52.9105 0.570548 -3.06841 0
M  V30 547 N 53.2116 1.57565 -0.0334293 0
M  V30 548 C 54.4596 1.91598 0.642999 0
M  V30 549 C 54.7806 0.910847 1.7242 0
M  V30 550 O 54.0506 -0.0469931 1.95844 0
M  V30 551 H 52.6306 0.707228 0.240496 0
M  V30 552 H 55.2926 1.94726 -0.0822488 0
M  V30 553 H 54.3886 2.92336 1.09298 0
M  V30 554 N 54.6897 -0.239769 1.55765 0
M  V30 555 C 56.1057 -0.588624 1.48349 0
M  V30 556 C 56.3057 -1.88005 0.72502 0
M  V30 557 O 55.3617 -2.51186 0.257269 0
M  V30 558 C 56.6747 -0.68474 2.928 0
M  V30 559 C 58.2227 -0.77659 3.03213 0
M  V30 560 C 58.6977 -0.904207 4.48986 0
M  V30 561 N 60.1887 -0.968896 4.52953 0
M  V30 562 C 60.9237 -1.08703 5.63002 0
M  V30 563 N 60.4197 -1.17026 6.82845 0
M  V30 564 N 62.2127 -1.12074 5.50814 0
M  V30 565 H 54.3637 0.607911 2.03515 0
M  V30 566 H 56.6267 0.21083 0.924259 0
M  V30 567 H 56.3327 0.194284 3.51163 0
M  V30 568 H 56.2067 -1.55435 3.43686 0
M  V30 569 H 58.5937 -1.64606 2.44926 0
M  V30 570 H 58.6747 0.118315 2.55526 0
M  V30 571 H 58.3187 -0.0392633 5.07885 0
M  V30 572 H 58.2487 -1.81426 4.9436 0
M  V30 573 H 60.7397 -0.915633 3.6664 0
M  V30 574 H 61.0527 -1.25966 7.62465 0
M  V30 575 H 59.3977 -1.13971 6.85591 0
M  V30 576 H 62.5887 -1.05226 4.5612 0
M  V30 577 H 62.7617 -1.20936 6.36615 0
M  V30 578 N 56.1678 -1.49265 -0.50573 0
M  V30 579 C 57.4148 -1.58513 -1.26015 0
M  V30 580 C 57.7428 -0.26972 -1.92621 0
M  V30 581 O 56.9978 0.741997 -1.81088 0
M  V30 582 C 57.2968 -2.69008 -2.35308 0
M  V30 583 C 56.9628 -4.10662 -1.86192 0
M  V30 584 C 55.6248 -4.49212 -1.72516 0
M  V30 585 C 57.9768 -4.99336 -1.49375 0
M  V30 586 C 55.3048 -5.74214 -1.20394 0
M  V30 587 C 57.6568 -6.24852 -0.987072 0
M  V30 588 C 56.3208 -6.62236 -0.836669 0
M  V30 589 H 55.5908 -0.580041 -0.461122 0
M  V30 590 H 58.2378 -1.83078 -0.561665 0
M  V30 591 H 56.5428 -2.38396 -3.10926 0
M  V30 592 H 58.2398 -2.73373 -2.93374 0
M  V30 593 H 54.8298 -3.8023 -1.97795 0
M  V30 594 H 59.0138 -4.70212 -1.5879 0
M  V30 595 H 54.2698 -6.01883 -1.07458 0
M  V30 596 H 58.4438 -6.92944 -0.692983 0
M  V30 597 H 56.0708 -7.58979 -0.430607 0
M  V30 598 N 57.6459 0.756429 -1.3826 0
M  V30 599 C 58.8919 1.51772 -1.34511 0
M  V30 600 C 59.2249 1.94089 0.0656691 0
M  V30 601 O 58.4999 1.65221 1.02626 0
M  V30 602 C 58.7829 2.77226 -2.29821 0
M  V30 603 C 58.6359 2.41065 -3.79747 0
M  V30 604 C 59.9549 3.79236 -2.23312 0
M  V30 605 H 57.0739 0.550578 -0.489931 0
M  V30 606 H 59.7159 0.866607 -1.69086 0
M  V30 607 H 57.8659 3.32784 -2.00467 0
M  V30 608 H 59.5379 1.91303 -4.19763 0
M  V30 609 H 57.7809 1.7356 -3.97567 0
M  V30 610 H 58.4519 3.3081 -4.41892 0
M  V30 611 H 60.9279 3.3321 -2.49219 0
M  V30 612 H 59.8039 4.64714 -2.92116 0
M  V30 613 H 60.0649 4.24615 -1.23102 0
M  V30 614 N 59.124 1.23083 0.984299 0
M  V30 615 C 60.087 1.00979 2.05757 0
M  V30 616 C 61.087 -0.0269573 1.60777 0
M  V30 617 O 62.277 0.212403 1.729 0
M  V30 618 C 59.409 0.527072 3.36801 0
M  V30 619 H 60.602 1.9622 2.26799 0
M  V30 620 H 58.155 1.05072 1.15714 0
M  V30 621 H 58.89 -0.429294 3.21446 0
M  V30 622 H 58.675 1.27515 3.70786 0
M  V30 623 H 60.165 0.392942 4.15747 0
M  V30 624 N 60.6021 -1.18246 1.0419 0
M  V30 625 C 61.5321 -2.24127 0.654914 0
M  V30 626 C 62.5131 -1.66617 -0.342451 0
M  V30 627 O 63.6981 -1.92924 -0.222277 0
M  V30 628 C 60.8281 -3.47295 0.0183757 0
M  V30 629 C 59.7821 -4.17563 0.939414 0
M  V30 630 C 59.1081 -5.34438 0.167286 0
M  V30 631 C 60.4081 -4.70917 2.25908 0
M  V30 632 H 62.1021 -2.56753 1.54007 0
M  V30 633 H 59.6481 -1.23414 0.74195 0
M  V30 634 H 61.6011 -4.20572 -0.264082 0
M  V30 635 H 60.3251 -3.13907 -0.901664 0
M  V30 636 H 58.9841 -3.46186 1.20628 0
M  V30 637 H 58.6321 -4.97298 -0.7552 0
M  V30 638 H 58.3321 -5.82388 0.780901 0
M  V30 639 H 59.8561 -6.10504 -0.108125 0
M  V30 640 H 61.2701 -5.35882 2.03724 0
M  V30 641 H 59.6671 -5.29406 2.82577 0
M  V30 642 H 60.7371 -3.88272 2.9047 0
M  V30 643 N 62.0802 -0.821533 -1.34494 0
M  V30 644 C 63.0272 -0.240397 -2.29545 0
M  V30 645 C 63.9972 0.634031 -1.53523 0
M  V30 646 O 65.1822 0.575966 -1.81899 0
M  V30 647 C 62.3222 0.592869 -3.39969 0
M  V30 648 C 61.4352 -0.30365 -4.30932 0
M  V30 649 C 60.5702 0.539049 -5.28458 0
M  V30 650 C 59.6092 -0.356942 -6.11058 0
M  V30 651 N 58.7462 0.446603 -7.00678 0
M  V30 652 H 63.5862 -1.05632 -2.7865 0
M  V30 653 H 61.1232 -0.532413 -1.37127 0
M  V30 654 H 63.0812 1.09129 -4.02675 0
M  V30 655 H 61.7112 1.37392 -2.92102 0
M  V30 656 H 60.7632 -0.920276 -3.691 0
M  V30 657 H 62.0752 -0.992661 -4.88823 0
M  V30 658 H 61.2292 1.102 -5.96608 0
M  V30 659 H 59.9682 1.26157 -4.71101 0
M  V30 660 H 58.9732 -0.932047 -5.41842 0
M  V30 661 H 60.1982 -1.07755 -6.70497 0
M  V30 662 H 58.1442 1.15282 -6.45791 0
M  V30 663 H 58.0612 -0.184048 -7.55776 0
M  V30 664 H 59.3292 0.992352 -7.73158 0
M  V30 665 N 63.5583 1.46682 -0.576371 0
M  V30 666 C 64.9743 1.57822 -0.237562 0
M  V30 667 C 65.1743 1.57237 1.26011 0
M  V30 668 O 64.2303 1.48596 2.04146 0
M  V30 669 C 65.5433 2.87499 -0.881168 0
M  V30 670 C 67.0913 3.01119 -0.85417 0
M  V30 671 C 67.5663 4.33524 -1.4772 0
M  V30 672 N 69.0573 4.40207 -1.44125 0
M  V30 673 C 69.7923 5.4126 -1.89276 0
M  V30 674 N 69.2883 6.49021 -2.42371 0
M  V30 675 N 71.0813 5.32422 -1.80231 0
M  V30 676 H 63.2323 1.45306 -1.54919 0
M  V30 677 H 65.4953 0.692733 -0.647167 0
M  V30 678 H 65.2013 2.9372 -1.93447 0
M  V30 679 H 65.0753 3.75224 -0.385592 0
M  V30 680 H 67.4623 2.94485 0.190491 0
M  V30 681 H 67.5433 2.14887 -1.3877 0
M  V30 682 H 67.1873 4.40916 -2.52103 0
M  V30 683 H 67.1173 5.1852 -0.918947 0
M  V30 684 H 69.6083 3.62931 -1.05307 0
M  V30 685 H 69.9213 7.2233 -2.74698 0
M  V30 686 H 68.2663 6.49858 -2.46393 0
M  V30 687 H 71.4573 4.47137 -1.38514 0
M  V30 688 H 71.6303 6.11034 -2.15735 0
M  V30 689 N 65.0364 0.313813 1.54444 0
M  V30 690 C 66.2824 -0.292108 2.00685 0
M  V30 691 C 66.6154 -1.52548 1.20177 0
M  V30 692 O 65.8904 -1.92452 0.281531 0
M  V30 693 C 66.1734 -0.635968 3.5444 0
M  V30 694 C 66.0264 0.607437 4.4568 0
M  V30 695 C 67.3454 -1.45747 4.15266 0
M  V30 696 H 64.4644 -0.104697 0.729526 0
M  V30 697 H 67.1064 0.428457 1.85106 0
M  V30 698 H 65.2564 -1.24986 3.67846 0
M  V30 699 H 66.9284 1.24581 4.44159 0
M  V30 700 H 65.1714 1.23822 4.15753 0
M  V30 701 H 65.8424 0.322515 5.51057 0
M  V30 702 H 68.3184 -0.938645 4.05375 0
M  V30 703 H 67.1944 -1.66683 5.2298 0
M  V30 704 H 67.4554 -2.45063 3.67963 0
M  V30 705 N 66.5145 -1.57545 0.0417849 0
M  V30 706 C 67.9305 -1.56467 -0.314704 0
M  V30 707 C 68.1305 -1.04859 -1.72066 0
M  V30 708 O 67.1865 -0.700983 -2.42575 0
M  V30 709 C 68.4995 -3.00317 -0.15174 0
M  V30 710 C 70.0475 -3.12201 -0.223553 0
M  V30 711 C 70.5225 -4.57913 -0.0892295 0
M  V30 712 N 72.0135 -4.6297 -0.145808 0
M  V30 713 C 72.7485 -5.73362 -0.0658459 0
M  V30 714 N 72.2445 -6.92769 0.0659282 0
M  V30 715 N 74.0375 -5.6197 -0.12075 0
M  V30 716 H 66.1885 -1.89416 0.961014 0
M  V30 717 H 68.4515 -0.871862 0.372237 0
M  V30 718 H 68.1575 -3.42073 0.817254 0
M  V30 719 H 68.0315 -3.65892 -0.916692 0
M  V30 720 H 70.4185 -2.70349 -1.18301 0
M  V30 721 H 70.4995 -2.49323 0.571994 0
M  V30 722 H 70.1435 -5.00448 0.866867 0
M  V30 723 H 70.0735 -5.18786 -0.903802 0
M  V30 724 H 72.5645 -3.7709 -0.247286 0
M  V30 725 H 72.8775 -7.72707 0.119905 0
M  V30 726 H 71.2225 -6.94927 0.100885 0
M  V30 727 H 74.4135 -4.67572 -0.222187 0
M  V30 728 H 74.5865 -6.47977 -0.0549735 0
M  V30 729 N 67.9926 0.231505 -1.5589 0
M  V30 730 C 69.2386 0.95877 -1.78705 0
M  V30 731 C 69.5716 1.8438 -0.609725 0
M  V30 732 O 68.8466 1.90521 0.391426 0
M  V30 733 C 69.1296 1.8062 -3.11526 0
M  V30 734 C 68.9826 0.948328 -4.39689 0
M  V30 735 C 70.3016 2.78585 -3.40703 0
M  V30 736 H 67.4206 0.347129 -0.650131 0
M  V30 737 H 70.0626 0.228259 -1.88624 0
M  V30 738 H 68.2126 2.42902 -3.03201 0
M  V30 739 H 69.8846 0.343016 -4.60023 0
M  V30 740 H 68.1276 0.253314 -4.3306 0
M  V30 741 H 68.7986 1.57543 -5.29041 0
M  V30 742 H 71.2746 2.26439 -3.49091 0
M  V30 743 H 70.1506 3.34988 -4.34826 0
M  V30 744 H 70.4116 3.55825 -2.62375 0
M  V30 745 N 69.4707 1.49531 0.497807 0
M  V30 746 C 70.4027 1.62559 1.61578 0
M  V30 747 C 71.4157 0.508134 1.54667 0
M  V30 748 O 72.6047 0.780309 1.60541 0
M  V30 749 C 69.7047 1.56925 3.00379 0
M  V30 750 C 68.8777 2.84257 3.3244 0
M  V30 751 C 67.9367 2.71632 4.50669 0
M  V30 752 O 66.9627 3.4557 4.52294 0
M  V30 753 N 68.1647 1.83391 5.5077 0
M  V30 754 H 70.9297 2.58981 1.50828 0
M  V30 755 H 68.4907 1.4666 0.685743 0
M  V30 756 H 70.4827 1.46129 3.77397 0
M  V30 757 H 69.0527 0.683483 3.05037 0
M  V30 758 H 68.2727 3.09381 2.44289 0
M  V30 759 H 69.5607 3.68666 3.5066 0
M  V30 760 H 68.9587 1.22583 5.52259 0
M  V30 761 H 67.5157 1.78515 6.26878 0
M  V30 762 N 70.9488 -0.749086 1.3866 0
M  V30 763 C 72.1768 -1.53834 1.38358 0
M  V30 764 C 72.5918 -1.88783 -0.0255219 0
M  V30 765 O 71.9488 -1.53101 -0.993292 0
M  V30 766 C 71.9998 -2.83468 2.2434 0
M  V30 767 O 71.7208 -2.50008 3.5976 0
M  V30 768 C 73.2218 -3.7758 2.32267 0
M  V30 769 H 70.4418 -0.47585 0.473083 0
M  V30 770 H 72.9858 -0.926726 1.82297 0
M  V30 771 H 71.1408 -3.40995 1.83851 0
M  V30 772 H 71.5548 -3.33182 4.05081 0
M  V30 773 H 73.0288 -4.65478 2.96706 0
M  V30 774 H 73.5058 -4.18334 1.33765 0
M  V30 775 H 74.1118 -3.25976 2.73166 0
M  V30 776 N 72.4269 -1.23603 -0.977757 0
M  V30 777 C 73.6749 -1.06759 -1.71601 0
M  V30 778 C 73.9959 0.395929 -1.90938 0
M  V30 779 O 73.2659 1.28356 -1.47992 0
M  V30 780 H 71.8459 -0.392062 -0.635843 0
M  V30 781 H 74.5079 -1.55362 -1.1768 0
M  V30 782 H 73.6039 -1.55763 -2.70452 0
M  V30 783 N 73.905 1.17692 -1.04816 0
M  V30 784 C 74.815 2.25229 -0.65643 0
M  V30 785 C 75.831 1.71018 0.320761 0
M  V30 786 O 77.007 2.00649 0.173805 0
M  V30 787 C 74.072 3.46684 -0.0332629 0
M  V30 788 C 73.133 4.15997 -1.06042 0
M  V30 789 C 72.366 5.31654 -0.466893 0
M  V30 790 O 72.589 5.65777 0.724758 0
M  V30 791 O 71.523 5.89831 -1.1993 0
M  V30 792 H 75.349 2.61016 -1.55255 0
M  V30 793 H 72.934 1.24919 -0.81949 0
M  V30 794 H 74.816 4.20234 0.313256 0
M  V30 795 H 73.491 3.12703 0.836566 0
M  V30 796 H 72.398 3.44482 -1.45886 0
M  V30 797 H 73.731 4.53996 -1.90127 0
M  V30 798 N 75.3831 0.828654 1.34056 0
M  V30 799 C 76.2931 0.256725 2.33191 0
M  V30 800 C 77.3091 -0.611898 1.62886 0
M  V30 801 O 78.4851 -0.51844 1.94613 0
M  V30 802 C 75.5501 -0.567238 3.42028 0
M  V30 803 C 74.6111 0.324458 4.28072 0
M  V30 804 C 73.8441 -0.460274 5.31712 0
M  V30 805 O 74.0671 -1.693 5.44696 0
M  V30 806 O 73.0011 0.160391 6.01686 0
M  V30 807 H 76.8271 1.07739 2.83947 0
M  V30 808 H 74.4121 0.59093 1.37217 0
M  V30 809 H 76.2941 -1.03582 4.08471 0
M  V30 810 H 74.9691 -1.36513 2.93506 0
M  V30 811 H 73.8761 0.840659 3.64532 0
M  V30 812 H 75.2091 1.08685 4.8005 0
M  V30 813 N 76.8612 -1.46375 0.584142 0
M  V30 814 C 78.1092 -2.01978 0.0701287 0
M  V30 815 C 78.4302 -1.4579 -1.295 0
M  V30 816 O 77.7002 -0.64314 -1.85042 0
M  V30 817 H 76.2802 -0.746648 0.0229345 0
M  V30 818 H 78.9422 -1.79461 0.760245 0
M  V30 819 H 78.0382 -3.121 0.0022064 0
M  V30 820 N 78.3393 -0.321999 -1.54275 0
M  V30 821 C 79.2723 0.58718 -2.20516 0
M  V30 822 C 80.2503 1.11693 -1.18167 0
M  V30 823 O 81.4343 1.18122 -1.46899 0
M  V30 824 C 78.5613 1.80554 -2.86562 0
M  V30 825 C 77.6073 1.40718 -4.02617 0
M  V30 826 S 78.4403 0.445218 -5.33646 0
M  V30 827 C 79.5963 1.6709 -6.03185 0
M  V30 828 H 79.8293 0.0244875 -2.9729 0
M  V30 829 H 77.3623 -0.106087 -1.54035 0
M  V30 830 H 79.3203 2.50462 -3.25237 0
M  V30 831 H 77.9813 2.33942 -2.09595 0
M  V30 832 H 77.1743 2.31501 -4.47687 0
M  V30 833 H 76.7763 0.78782 -3.65608 0
M  V30 834 H 79.0683 2.60856 -6.25268 0
M  V30 835 H 80.0113 1.26239 -6.96756 0
M  V30 836 H 80.4193 1.85716 -5.33076 0
M  V30 837 N 79.8174 1.5752 -0.0501392 0
M  V30 838 C 81.2284 1.80271 0.485705 0
M  V30 839 C 81.5794 0.96228 1.70981 0
M  V30 840 O 80.7044 0.178578 2.15662 0
M  V30 841 C 81.2994 3.26957 0.887938 0
M  V30 842 C 79.8584 3.5063 1.36877 0
M  V30 843 C 79.0054 2.75165 0.343468 0
M  V30 844 H 81.9564 1.56281 -0.276028 0
M  V30 845 H 81.9774 3.37821 1.75093 0
M  V30 846 H 81.4894 3.881 -0.0031809 0
M  V30 847 H 79.5904 2.94766 2.27911 0
M  V30 848 H 79.7034 4.59343 1.36164 0
M  V30 849 H 78.0674 2.4127 0.816128 0
M  V30 850 H 78.8504 3.39034 -0.539548 0
M  V30 851 N 81.2955 -0.223234 1.56011 0
M  V30 852 C 82.2255 -1.27988 1.95298 0
M  V30 853 C 83.2065 -1.48976 0.820979 0
M  V30 854 O 84.3915 -1.61188 1.08315 0
M  V30 855 C 81.5215 -2.63 2.26822 0
M  V30 856 C 80.4755 -2.56671 3.42497 0
M  V30 857 C 79.8015 -3.95697 3.59622 0
M  V30 858 C 81.1015 -2.11601 4.77517 0
M  V30 859 H 82.7955 -0.953525 2.8381 0
M  V30 860 H 80.3415 -0.457244 1.36548 0
M  V30 861 H 82.2945 -3.37077 2.52898 0
M  V30 862 H 81.0185 -2.9732 1.35161 0
M  V30 863 H 79.6775 -1.85051 3.16467 0
M  V30 864 H 79.3255 -4.27322 2.6534 0
M  V30 865 H 79.0255 -3.92345 4.37424 0
M  V30 866 H 80.5495 -4.71438 3.88044 0
M  V30 867 H 81.9635 -2.7542 5.02809 0
M  V30 868 H 80.3605 -2.19311 5.5859 0
M  V30 869 H 81.4305 -1.06824 4.72987 0
M  V30 870 N 82.7736 -1.49793 -0.48987 0
M  V30 871 C 83.9986 -1.63836 -1.27172 0
M  V30 872 C 84.4236 -0.31402 -1.8546 0
M  V30 873 O 83.7816 0.719803 -1.66399 0
M  V30 874 C 83.8296 -2.71797 -2.36978 0
M  V30 875 O 82.9336 -2.31744 -3.41128 0
M  V30 876 H 82.2746 -0.547997 -0.37496 0
M  V30 877 H 84.8046 -1.96053 -0.585191 0
M  V30 878 H 84.8146 -2.94305 -2.82575 0
M  V30 879 H 83.4896 -3.67923 -1.93921 0
M  V30 880 H 82.0666 -2.1961 -3.01373 0
M  V30 881 N 84.2517 0.741722 -1.39055 0
M  V30 882 C 85.4797 1.53098 -1.39171 0
M  V30 883 C 85.8947 1.88794 0.0155099 0
M  V30 884 O 85.2517 1.53626 0.985159 0
M  V30 885 C 85.3027 2.82274 -2.2584 0
M  V30 886 O 85.0237 2.48097 -3.61081 0
M  V30 887 C 86.5247 3.76343 -2.34266 0
M  V30 888 H 83.7447 0.473335 -0.4756 0
M  V30 889 H 86.2887 0.917045 -1.82785 0
M  V30 890 H 84.4437 3.40015 -1.85656 0
M  V30 891 H 84.8577 3.31029 -4.06842 0
M  V30 892 H 86.3317 4.63898 -2.9917 0
M  V30 893 H 86.8087 4.17619 -1.35982 0
M  V30 894 H 87.4147 3.24523 -2.74891 0
M  V30 895 N 85.7298 1.2412 0.971189 0
M  V30 896 C 86.9788 1.07284 1.70801 0
M  V30 897 C 87.2918 -0.388902 1.91695 0
M  V30 898 O 88.4978 -0.677379 2.62914 0
M  V30 899 C 86.9538 1.87145 3.07416 0
M  V30 900 C 86.5618 3.37707 2.94377 0
M  V30 901 C 88.3058 1.78828 3.84995 0
M  V30 902 C 86.2128 4.09925 4.26281 0
M  V30 903 H 85.1428 0.397854 0.64049 0
M  V30 904 H 87.7938 1.4817 1.0825 0
M  V30 905 H 86.1758 1.39071 3.70777 0
M  V30 906 H 87.3498 3.93335 2.4005 0
M  V30 907 H 85.6648 3.46938 2.30267 0
M  V30 908 H 88.2618 2.30089 4.82662 0
M  V30 909 H 88.6048 0.75284 4.09436 0
M  V30 910 H 89.1378 2.24563 3.28354 0
M  V30 911 H 85.8768 5.13813 4.07033 0
M  V30 912 H 85.3968 3.59083 4.80437 0
M  V30 913 H 87.0758 4.1673 4.94919 0
M  V30 914 N 87.2079 -1.17134 1.05439 0
M  V30 915 C 88.6239 -1.39454 0.776201 0
M  V30 916 C 88.8239 -1.91454 -0.628307 0
M  V30 917 O 87.8799 -2.10777 -1.39031 0
M  V30 918 C 89.1929 -2.38305 1.83388 0
M  V30 919 C 90.7409 -2.52006 1.85639 0
M  V30 920 C 91.2159 -3.54133 2.90437 0
M  V30 921 N 92.7069 -3.61653 2.89415 0
M  V30 922 C 93.4419 -4.4044 3.67152 0
M  V30 923 N 92.9379 -5.22721 4.54681 0
M  V30 924 N 94.7309 -4.35337 3.55581 0
M  V30 925 H 86.8819 -0.817134 1.96053 0
M  V30 926 H 89.1449 -0.421626 0.849079 0
M  V30 927 H 88.8509 -2.07173 2.84204 0
M  V30 928 H 88.7249 -3.37841 1.67761 0
M  V30 929 H 91.1119 -2.82447 0.85486 0
M  V30 930 H 91.1929 -1.52537 2.05344 0
M  V30 931 H 90.8369 -3.24431 3.90777 0
M  V30 932 H 90.7669 -4.53313 2.67983 0
M  V30 933 H 93.2579 -3.02909 2.25952 0
M  V30 934 H 93.5709 -5.80027 5.10674 0
M  V30 935 H 91.9159 -5.22093 4.58741 0
M  V30 936 H 95.1069 -3.70112 2.86592 0
M  V30 937 H 95.2799 -4.96494 4.1641 0
M  V30 938 N 88.686 -0.835752 -1.33615 0
M  V30 939 C 89.596 -0.269088 -2.33052 0
M  V30 940 C 90.612 0.603251 -1.63208 0
M  V30 941 O 91.788 0.508112 -1.94885 0
M  V30 942 C 88.853 0.549091 -3.42324 0
M  V30 943 C 87.914 -0.347156 -4.27894 0
M  V30 944 C 87.147 0.43207 -5.31948 0
M  V30 945 O 87.37 1.66409 -5.45586 0
M  V30 946 O 86.304 -0.192298 -6.01593 0
M  V30 947 H 90.13 -1.09243 -2.83372 0
M  V30 948 H 87.715 -0.598198 -1.36901 0
M  V30 949 H 89.597 1.01414 -4.09015 0
M  V30 950 H 88.272 1.34955 -2.94226 0
M  V30 951 H 87.179 -0.859979 -3.64081 0
M  V30 952 H 88.512 -1.1123 -4.79467 0
M  V30 953 N 90.1641 1.46063 -0.591896 0
M  V30 954 C 91.4101 2.02638 -0.0811191 0
M  V30 955 C 91.7431 1.4613 1.27905 0
M  V30 956 O 91.0181 0.629908 1.84017 0
M  V30 957 C 91.3011 3.60091 -0.0252436 0
M  V30 958 C 91.1541 4.26965 -1.41496 0
M  V30 959 C 92.4731 4.3496 0.670685 0
M  V30 960 H 89.5921 0.73635 -0.0309524 0
M  V30 961 H 92.2341 1.741 -0.760859 0
M  V30 962 H 90.3841 3.84535 0.553624 0
M  V30 963 H 92.0561 4.13756 -2.0397 0
M  V30 964 H 90.2991 3.85971 -1.98011 0
M  V30 965 H 90.9701 5.35781 -1.32825 0
M  V30 966 H 93.4461 4.15716 0.178825 0
M  V30 967 H 92.3221 5.44686 0.678837 0
M  V30 968 H 92.5831 4.06685 1.73379 0
M  V30 969 N 91.6422 0.330177 1.54103 0
M  V30 970 C 92.6052 -0.520144 2.2322 0
M  V30 971 C 93.6052 -1.03828 1.22786 0
M  V30 972 O 94.7952 -0.929652 1.4732 0
M  V30 973 C 91.9272 -1.72317 2.94142 0
M  V30 974 H 93.1202 0.0841605 2.99782 0
M  V30 975 H 90.6732 0.0813433 1.56088 0
M  V30 976 H 91.4082 -2.36653 2.21734 0
M  V30 977 H 91.1932 -1.35898 3.67796 0
M  V30 978 H 92.6832 -2.3266 3.46784 0
M  V30 979 N 93.1203 -1.57491 0.0584922 0
M  V30 980 C 94.3663 -1.93264 -0.614558 0
M  V30 981 C 94.6993 -0.937717 -1.7006 0
M  V30 982 O 93.9743 0.0351652 -1.94468 0
M  V30 983 C 94.2573 -3.3938 -1.20386 0
M  V30 984 C 94.1103 -4.49625 -0.125375 0
M  V30 985 C 95.4293 -3.86039 -2.11334 0
M  V30 986 H 92.5483 -0.702791 -0.221933 0
M  V30 987 H 95.1903 -1.8961 0.12175 0
M  V30 988 H 93.3403 -3.42626 -1.83139 0
M  V30 989 H 95.0123 -4.58506 0.506971 0
M  V30 990 H 93.2553 -4.30354 0.545672 0
M  V30 991 H 93.9263 -5.48967 -0.577861 0
M  V30 992 H 96.4023 -3.84716 -1.58534 0
M  V30 993 H 95.2783 -4.88914 -2.49507 0
M  V30 994 H 95.5393 -3.23215 -3.01636 0
M  V30 995 N 94.5984 0.214957 -1.56127 0
M  V30 996 C 95.5284 1.2695 -1.95974 0
M  V30 997 C 96.5094 1.48539 -0.828868 0
M  V30 998 O 97.6944 1.60611 -1.09168 0
M  V30 999 C 94.8244 2.61794 -2.28214 0
M  V30 1000 C 93.7784 2.54851 -3.43853 0
M  V30 1001 C 93.1044 3.93785 -3.61715 0
M  V30 1002 C 94.4044 2.09065 -4.78632 0
M  V30 1003 H 96.0984 0.93846 -2.84312 0
M  V30 1004 H 93.6444 0.449996 -1.36788 0
M  V30 1005 H 95.5974 3.35731 -2.54682 0
M  V30 1006 H 94.3214 2.96599 -1.36736 0
M  V30 1007 H 92.9804 1.8337 -3.17444 0
M  V30 1008 H 92.6284 4.25908 -2.67602 0
M  V30 1009 H 92.3284 3.90019 -4.39498 0
M  V30 1010 H 93.8524 4.69374 -3.90539 0
M  V30 1011 H 95.2664 2.7275 -5.04262 0
M  V30 1012 H 93.6634 2.16346 -5.59745 0
M  V30 1013 H 94.7334 1.04315 -4.73547 0
M  V30 1014 N 96.0765 1.50051 0.48192 0
M  V30 1015 C 97.4925 1.37237 0.814756 0
M  V30 1016 C 97.6925 0.420109 1.97072 0
M  V30 1017 O 96.7485 -0.141246 2.52105 0
M  V30 1018 C 98.0615 2.78375 1.13701 0
M  V30 1019 C 99.6095 2.87213 1.2441 0
M  V30 1020 C 100.084 4.29161 1.59954 0
M  V30 1021 N 101.575 4.32061 1.66967 0
M  V30 1022 C 102.31 5.38879 1.95952 0
M  V30 1023 N 101.806 6.55918 2.23031 0
M  V30 1024 N 103.599 5.26312 1.97363 0
M  V30 1025 H 95.7505 2.10546 -0.28005 0
M  V30 1026 H 98.0135 0.945921 -0.0627454 0
M  V30 1027 H 97.7195 3.49845 0.360787 0
M  V30 1028 H 97.5935 3.14941 2.07586 0
M  V30 1029 H 99.9805 2.15969 2.01101 0
M  V30 1030 H 100.061 2.54204 0.285299 0
M  V30 1031 H 99.7055 5.00938 0.838067 0
M  V30 1032 H 99.6355 4.59648 2.56966 0
M  V30 1033 H 102.126 3.47661 1.48123 0
M  V30 1034 H 102.439 7.33139 2.44391 0
M  V30 1035 H 100.784 6.59112 2.20447 0
M  V30 1036 H 103.975 4.33876 1.75697 0
M  V30 1037 H 104.148 6.09649 2.19618 0
M  V30 1038 N 97.5546 -0.734337 1.39446 0
M  V30 1039 C 98.5046 -1.83949 1.34709 0
M  V30 1040 C 99.4886 -1.59279 0.227851 0
M  V30 1041 O 100.681 -1.70771 0.465438 0
M  V30 1042 C 97.8096 -3.21884 1.19356 0
M  V30 1043 C 96.8956 -3.52381 2.35984 0
M  V30 1044 N 97.2866 -3.53811 3.61457 0
M  V30 1045 C 95.5846 -3.82747 2.28956 0
M  V30 1046 C 96.2856 -3.82122 4.38586 0
M  V30 1047 N 95.2616 -3.9993 3.68181 0
M  V30 1048 H 99.0636 -1.83361 2.29687 0
M  V30 1049 H 96.5776 -0.932609 1.32952 0
M  V30 1050 H 98.5746 -4.00998 1.14046 0
M  V30 1051 H 97.2346 -3.23711 0.253295 0
M  V30 1052 H 98.2456 -3.35107 3.94872 0
M  V30 1053 H 94.9226 -3.92175 1.43194 0
M  V30 1054 H 96.3126 -3.89691 5.47349 0
M  V30 1055 N 99.0327 -1.24633 -0.964593 0
M  V30 1056 C 99.9627 -1.06611 -2.07741 0
M  V30 1057 C 100.944 0.0218666 -1.70086 0
M  V30 1058 O 102.129 -0.145793 -1.93652 0
M  V30 1059 C 99.2587 -0.673444 -3.40708 0
M  V30 1060 C 98.2127 -1.71054 -3.92332 0
M  V30 1061 C 97.5387 -1.17285 -5.21678 0
M  V30 1062 C 98.8387 -3.10718 -4.19824 0
M  V30 1063 H 100.533 -1.99693 -2.23076 0
M  V30 1064 H 98.0787 -0.96152 -1.07195 0
M  V30 1065 H 100.032 -0.534345 -4.17998 0
M  V30 1066 H 98.7557 0.293073 -3.25282 0
M  V30 1067 H 97.4147 -1.83791 -3.17201 0
M  V30 1068 H 97.0627 -0.196847 -5.02615 0
M  V30 1069 H 96.7627 -1.86592 -5.57187 0
M  V30 1070 H 98.2867 -1.04593 -6.01575 0
M  V30 1071 H 99.7007 -3.01192 -4.87808 0
M  V30 1072 H 98.0977 -3.77406 -4.66567 0
M  V30 1073 H 99.1677 -3.58524 -3.26479 0
M  V30 1074 N 100.511 1.16574 -1.06058 0
M  V30 1075 C 101.421 2.2452 -0.680282 0
M  V30 1076 C 102.437 1.71348 0.302604 0
M  V30 1077 O 103.613 2.00822 0.152513 0
M  V30 1078 C 100.678 3.46629 -0.0700315 0
M  V30 1079 C 99.7388 4.14849 -1.10448 0
M  V30 1080 C 98.9718 5.31129 -0.523256 0
M  V30 1081 O 99.1948 5.66514 0.664709 0
M  V30 1082 O 98.1288 5.88526 -1.26179 0
M  V30 1083 H 101.955 2.59355 -1.58015 0
M  V30 1084 H 99.5398 1.24043 -0.832694 0
M  V30 1085 H 101.422 4.20543 0.268667 0
M  V30 1086 H 100.097 3.13573 0.803353 0
M  V30 1087 H 99.0038 3.42916 -1.49532 0
M  V30 1088 H 100.337 4.51954 -1.94931 0
M  V30 1089 N 101.989 0.842826 1.3317 0
M  V30 1090 C 103.217 0.454055 2.01856 0
M  V30 1091 C 103.632 -0.94587 1.63397 0
M  V30 1092 O 102.989 -1.61534 0.849302 0
M  V30 1093 C 103.04 0.569715 3.56982 0
M  V30 1094 O 102.761 1.91448 3.94055 0
M  V30 1095 C 104.262 0.178412 4.42941 0
M  V30 1096 H 101.482 0.17979 0.646465 0
M  V30 1097 H 104.026 1.1365 1.70012 0
M  V30 1098 H 102.181 -0.0648587 3.87346 0
M  V30 1099 H 102.595 1.90282 4.88767 0
M  V30 1100 H 104.069 0.310376 5.51127 0
M  V30 1101 H 104.546 -0.880056 4.30293 0
M  V30 1102 H 105.152 0.787579 4.17944 0
M  V30 1103 N 103.467 -1.45747 0.599634 0
M  V30 1104 C 104.714 -2.02292 0.0917284 0
M  V30 1105 C 105.042 -1.46906 -1.27472 0
M  V30 1106 O 104.297 -0.630652 -1.8526 0
M  V30 1107 C 104.596 -3.57399 -0.00602758 0
M  V30 1108 C 104.262 -4.31902 1.29503 0
M  V30 1109 C 102.924 -4.51974 1.65144 0
M  V30 1110 C 105.276 -4.74551 2.15525 0
M  V30 1111 C 102.604 -5.11949 2.86574 0
M  V30 1112 C 104.956 -5.35868 3.36196 0
M  V30 1113 C 103.62 -5.54165 3.72099 0
M  V30 1114 H 102.89 -0.740239 0.0335658 0
M  V30 1115 H 105.537 -1.7491 0.779661 0
M  V30 1116 H 103.842 -3.84014 -0.777183 0
M  V30 1117 H 105.539 -3.98846 -0.415038 0
M  V30 1118 H 102.129 -4.16588 1.00761 0
M  V30 1119 H 106.313 -4.58784 1.8929 0
M  V30 1120 H 101.569 -5.24305 3.14507 0
M  V30 1121 H 105.743 -5.6787 4.03109 0
M  V30 1122 H 103.37 -6.00406 4.6628 0
M  V30 1123 N 104.945 -0.338344 -1.53925 0
M  V30 1124 C 105.855 0.529421 -2.28548 0
M  V30 1125 C 106.871 1.11645 -1.3346 0
M  V30 1126 O 108.047 1.13325 -1.66492 0
M  V30 1127 C 105.112 1.66713 -3.03987 0
M  V30 1128 C 104.173 1.11041 -4.14691 0
M  V30 1129 C 103.406 2.19389 -4.86522 0
M  V30 1130 O 103.629 3.40013 -4.57982 0
M  V30 1131 O 102.563 1.83976 -5.73094 0
M  V30 1132 H 106.389 -0.0770399 -3.03602 0
M  V30 1133 H 103.974 -0.103555 -1.49041 0
M  V30 1134 H 105.856 2.32918 -3.5118 0
M  V30 1135 H 104.531 2.25949 -2.31794 0
M  V30 1136 H 103.438 0.413024 -3.71813 0
M  V30 1137 H 104.771 0.562975 -4.8897 0
M  V30 1138 N 106.423 1.57458 -0.0668435 0
M  V30 1139 C 107.373 2.0896 0.912119 0
M  V30 1140 C 108.357 0.998186 1.26195 0
M  V30 1141 O 109.549 1.26133 1.24175 0
M  V30 1142 C 106.678 2.6508 2.18145 0
M  V30 1143 C 105.764 3.81218 1.85832 0
M  V30 1144 N 106.155 4.90378 1.23948 0
M  V30 1145 C 104.453 3.9042 2.15612 0
M  V30 1146 C 105.154 5.71279 1.09616 0
M  V30 1147 N 104.13 5.19389 1.60423 0
M  V30 1148 H 107.932 2.90749 0.42924 0
M  V30 1149 H 105.446 1.6182 0.137184 0
M  V30 1150 H 107.443 3.0029 2.89192 0
M  V30 1151 H 106.103 1.84736 2.67025 0
M  V30 1152 H 107.114 5.09847 0.909731 0
M  V30 1153 H 103.791 3.21043 2.66903 0
M  V30 1154 H 105.181 6.69085 0.614425 0
M  V30 1155 N 107.901 -0.206675 1.56239 0
M  V30 1156 C 109.312 -0.772383 1.69974 0
M  V30 1157 C 109.663 -1.84353 0.671436 0
M  V30 1158 O 108.788 -2.15695 -0.174491 0
M  V30 1159 C 109.383 -1.40779 3.08167 0
M  V30 1160 C 107.942 -1.92072 3.23706 0
M  V30 1161 C 107.089 -0.786347 2.65917 0
M  V30 1162 H 110.04 0.0182223 1.5869 0
M  V30 1163 H 110.061 -2.27696 3.04852 0
M  V30 1164 H 109.573 -0.627958 3.82986 0
M  V30 1165 H 107.674 -2.7281 2.53782 0
M  V30 1166 H 107.787 -2.09046 4.31087 0
M  V30 1167 H 106.151 -1.1976 2.24788 0
M  V30 1168 H 106.934 -0.0189416 3.43295 0
M  V30 1169 N 109.379 -1.50304 -0.473955 0
M  V30 1170 C 110.327 -1.69482 -1.59307 0
M  V30 1171 C 111.321 -0.560669 -1.59853 0
M  V30 1172 O 112.527 -0.741087 -1.64036 0
M  V30 1173 H 108.902 -0.534892 -0.528578 0
M  V30 1174 H 110.873 -2.63364 -1.40293 0
M  V30 1175 C 109.622 -1.80354 -2.97267 0
M  V30 1176 H 108.945 -2.67012 -2.97564 0
M  V30 1177 H 110.385 -1.97798 -3.75036 0
M  V30 1178 C 108.844 -0.55448 -3.32306 0
M  V30 1179 O 109.374 0.307661 -4.0052 0
M  V30 1180 N 107.58 -0.409354 -2.87702 0
M  V30 1181 H 107.127 -1.11196 -2.32364 0
M  V30 1182 H 107.085 0.425223 -3.11511 0
M  V30 1183 N 110.857 0.726932 -1.39834 0
M  V30 1184 C 112.103 1.48884 -1.377 0
M  V30 1185 C 112.436 1.94185 0.0244852 0
M  V30 1186 O 111.711 1.67361 0.990986 0
M  V30 1187 C 111.994 2.72288 -2.3565 0
M  V30 1188 C 111.847 2.32956 -3.84775 0
M  V30 1189 C 113.166 3.74414 -2.31306 0
M  V30 1190 H 110.285 0.540062 -0.5015 0
M  V30 1191 H 112.927 0.830547 -1.70886 0
M  V30 1192 H 111.077 3.28457 -2.07481 0
M  V30 1193 H 112.749 1.82356 -4.23726 0
M  V30 1194 H 110.992 1.65088 -4.01159 0
M  V30 1195 H 111.663 3.21362 -4.4881 0
M  V30 1196 H 114.139 3.27849 -2.56231 0
M  V30 1197 H 113.015 4.58414 -3.01907 0
M  V30 1198 H 113.276 4.21909 -1.32081 0
M  V30 1199 N 112.336 1.25143 0.95797 0
M  V30 1200 C 113.582 1.09855 1.70469 0
M  V30 1201 C 113.915 -0.360187 1.90831 0
M  V30 1202 O 113.19 -1.26568 1.47685 0
M  V30 1203 C 113.473 1.8497 3.08963 0
M  V30 1204 C 113.326 3.38652 2.96032 0
M  V30 1205 C 114.645 1.63016 4.08795 0
M  V30 1206 H 111.764 0.400465 0.618706 0
M  V30 1207 H 114.406 1.53933 1.11376 0
M  V30 1208 H 112.556 1.47505 3.59409 0
M  V30 1209 H 114.228 3.85772 2.52938 0
M  V30 1210 H 112.471 3.66534 2.32025 0
M  V30 1211 H 113.142 3.8642 3.94187 0
M  V30 1212 H 115.618 1.95625 3.67247 0
M  V30 1213 H 114.494 2.18015 5.03747 0
M  V30 1214 H 114.755 0.570692 4.38401 0
M  V30 1215 N 113.814 -1.1601 1.06675 0
M  V30 1216 C 115.23 -1.38622 0.790948 0
M  V30 1217 C 115.43 -1.92109 -0.607965 0
M  V30 1218 O 114.486 -2.12239 -1.36787 0
M  V30 1219 C 115.799 -2.36347 1.85905 0
M  V30 1220 C 117.347 -2.50023 1.88301 0
M  V30 1221 C 117.822 -3.51033 2.94176 0
M  V30 1222 N 119.313 -3.58563 2.93235 0
M  V30 1223 C 120.048 -4.36521 3.71803 0
M  V30 1224 N 119.544 -5.17869 4.602 0
M  V30 1225 N 121.337 -4.31541 3.60178 0
M  V30 1226 H 113.488 -0.796294 1.96908 0
M  V30 1227 H 115.751 -0.412597 0.853503 0
M  V30 1228 H 115.457 -2.04147 2.86386 0
M  V30 1229 H 115.331 -3.36042 1.71334 0
M  V30 1230 H 117.718 -2.81524 0.884769 0
M  V30 1231 H 117.799 -1.5035 2.06951 0
M  V30 1232 H 117.443 -3.20268 3.94196 0
M  V30 1233 H 117.373 -4.50445 2.72776 0
M  V30 1234 H 119.864 -3.00496 2.29152 0
M  V30 1235 H 120.177 -5.74578 5.16797 0
M  V30 1236 H 118.522 -5.17199 4.64253 0
M  V30 1237 H 121.713 -3.67051 2.90502 0
M  V30 1238 H 121.886 -4.9205 4.21653 0
M  V30 1239 N 115.292 -0.849877 -1.32721 0
M  V30 1240 C 116.222 -0.306308 -2.31482 0
M  V30 1241 C 117.203 0.591952 -1.59468 0
M  V30 1242 O 118.388 0.513199 -1.87296 0
M  V30 1243 C 115.518 0.510204 -3.43532 0
M  V30 1244 C 114.472 -0.293209 -4.26994 0
M  V30 1245 C 113.798 0.647743 -5.30762 0
M  V30 1246 C 115.098 -1.51634 -4.99804 0
M  V30 1247 H 116.792 -1.13153 -2.77195 0
M  V30 1248 H 114.338 -0.545553 -1.33266 0
M  V30 1249 H 116.291 0.900856 -4.11658 0
M  V30 1250 H 115.015 1.36874 -2.96535 0
M  V30 1251 H 113.674 -0.665555 -3.60508 0
M  V30 1252 H 113.322 1.50299 -4.8002 0
M  V30 1253 H 113.022 0.11422 -5.87489 0
M  V30 1254 H 114.546 1.03567 -6.01753 0
M  V30 1255 H 115.96 -1.19824 -5.60638 0
M  V30 1256 H 114.357 -1.98745 -5.66234 0
M  V30 1257 H 115.427 -2.28018 -4.27943 0
M  V30 1258 N 116.77 1.45427 -0.607355 0
M  V30 1259 C 118.017 2.02241 -0.102455 0
M  V30 1260 C 118.345 1.4758 1.26691 0
M  V30 1261 O 117.6 0.640468 1.84923 0
M  V30 1262 C 117.899 3.57398 -0.0129263 0
M  V30 1263 C 117.565 4.3121 -1.31792 0
M  V30 1264 C 116.227 4.51092 -1.67539 0
M  V30 1265 C 118.579 4.73401 -2.18039 0
M  V30 1266 C 115.907 5.10422 -2.89285 0
M  V30 1267 C 118.259 5.34078 -3.39034 0
M  V30 1268 C 116.923 5.52184 -3.75033 0
M  V30 1269 H 116.193 0.740051 -0.037491 0
M  V30 1270 H 118.84 1.74494 -0.788926 0
M  V30 1271 H 117.145 3.84421 0.756806 0
M  V30 1272 H 118.842 3.99061 0.393881 0
M  V30 1273 H 115.432 4.16047 -1.02968 0
M  V30 1274 H 119.616 4.57774 -1.91721 0
M  V30 1275 H 114.872 5.22629 -3.17283 0
M  V30 1276 H 119.046 5.65724 -4.06115 0
M  V30 1277 H 116.673 5.97925 -4.69457 0
M  V30 1278 N 118.248 0.346503 1.53744 0
M  V30 1279 C 119.525 -0.304532 1.93215 0
M  V30 1280 C 119.905 -1.67993 1.27834 0
M  V30 1281 O 119.253 -2.24411 0.430352 0
M  V30 1282 C 119.463 -0.373852 3.46992 0
M  V30 1283 C 120.811 -0.62329 4.2 0
M  V30 1284 O 121.835 -0.455847 3.53271 0
M  V30 1285 O 120.694 -0.947879 5.38217 0
M  V30 1286 H 117.788 -0.178318 0.807547 0
M  V30 1287 H 120.334 0.397895 1.64969 0
M  V30 1288 H 119.106 0.591224 3.86808 0
M  V30 1289 H 118.729 -1.12294 3.81413 0
M  V30 1290 N 119.726 -1.57421 0.075193 0
M  V30 1291 C 120.972 -1.93905 -0.594025 0
M  V30 1292 C 121.305 -0.955701 -1.69056 0
M  V30 1293 O 120.58 0.0145373 -1.94495 0
M  V30 1294 C 120.863 -3.40638 -1.1678 0
M  V30 1295 C 120.716 -4.49733 -0.0776792 0
M  V30 1296 C 122.035 -3.88259 -2.07228 0
M  V30 1297 H 119.154 -0.705105 -0.214466 0
M  V30 1298 H 121.796 -1.8947 0.141854 0
M  V30 1299 H 119.946 -3.44549 -1.79494 0
M  V30 1300 H 121.618 -4.57942 0.555573 0
M  V30 1301 H 119.861 -4.29751 0.591286 0
M  V30 1302 H 120.532 -5.49549 -0.519603 0
M  V30 1303 H 123.008 -3.86376 -1.54445 0
M  V30 1304 H 121.884 -4.91533 -2.44308 0
M  V30 1305 H 122.145 -3.26396 -2.98191 0
M  V30 1306 N 121.204 0.198386 -1.56346 0
M  V30 1307 C 122.444 0.92609 -1.82217 0
M  V30 1308 C 122.808 1.80584 -0.652195 0
M  V30 1309 O 124.009 2.56907 -0.790716 0
M  V30 1310 C 122.28 1.72354 -3.13096 0
M  V30 1311 S 123.839 2.50371 -3.6036 0
M  V30 1312 H 120.657 0.310677 -0.639532 0
M  V30 1313 H 123.259 0.189755 -1.94577 0
M  V30 1314 H 121.963 1.0678 -3.96265 0
M  V30 1315 H 121.494 2.50175 -3.03605 0
M  V30 1316 H 123.509 3.74488 -3.25535 0
M  V30 1317 N 122.682 1.50554 0.465978 0
M  V30 1318 C 123.91 1.65563 1.24083 0
M  V30 1319 C 124.325 0.341051 1.85694 0
M  V30 1320 O 123.682 -0.677543 1.69457 0
M  V30 1321 C 123.733 2.75051 2.34583 0
M  V30 1322 O 123.454 4.01413 1.75497 0
M  V30 1323 C 124.955 3.01078 3.25372 0
M  V30 1324 H 122.175 0.55638 0.375077 0
M  V30 1325 H 124.719 1.96807 0.555624 0
M  V30 1326 H 122.874 2.46486 2.9887 0
M  V30 1327 H 123.288 4.62002 2.48303 0
M  V30 1328 H 124.762 3.81339 3.99105 0
M  V30 1329 H 125.239 2.12349 3.84453 0
M  V30 1330 H 125.845 3.31194 2.66816 0
M  V30 1331 N 124.16 -0.719506 1.40217 0
M  V30 1332 C 125.406 -1.48152 1.38488 0
M  V30 1333 C 125.739 -1.94195 -0.0141867 0
M  V30 1334 O 125.014 -1.67884 -0.982096 0
M  V30 1335 C 125.297 -2.71035 2.37091 0
M  V30 1336 C 125.15 -2.30912 3.86005 0
M  V30 1337 C 126.469 -3.73182 2.33288 0
M  V30 1338 H 123.588 -0.537395 0.504357 0
M  V30 1339 H 126.23 -0.821472 1.71324 0
M  V30 1340 H 124.38 -3.27352 2.0922 0
M  V30 1341 H 126.052 -1.80107 4.24687 0
M  V30 1342 H 124.295 -1.62958 4.02029 0
M  V30 1343 H 124.966 -3.18978 4.50508 0
M  V30 1344 H 127.442 -3.26485 2.57966 0
M  V30 1345 H 126.318 -4.56806 3.04334 0
M  V30 1346 H 126.579 -4.21202 1.34317 0
M  V30 1347 N 125.638 -1.25649 -0.95132 0
M  V30 1348 C 126.863 -1.13443 -1.73624 0
M  V30 1349 C 127.288 0.307565 -1.85568 0
M  V30 1350 O 126.646 1.22282 -1.33854 0
M  V30 1351 C 126.694 -1.79723 -3.12621 0
M  V30 1352 O 125.798 -1.07912 -3.98031 0
M  V30 1353 H 125.139 -0.395872 -0.533086 0
M  V30 1354 H 127.669 -1.66276 -1.1922 0
M  V30 1355 H 127.679 -1.86141 -3.63064 0
M  V30 1356 H 126.354 -2.84633 -3.03244 0
M  V30 1357 H 124.931 -1.09398 -3.56492 0
M  V30 1358 N 127.117 1.15442 -1.07289 0
M  V30 1359 C 128.533 1.38201 -0.798288 0
M  V30 1360 C 128.733 1.92429 0.597769 0
M  V30 1361 O 127.789 2.12962 1.3566 0
M  V30 1362 C 129.102 2.35357 -1.87156 0
M  V30 1363 C 130.65 2.49021 -1.89624 0
M  V30 1364 C 131.125 3.49468 -2.96034 0
M  V30 1365 N 132.616 3.57003 -2.95132 0
M  V30 1366 C 133.351 4.34543 -3.74112 0
M  V30 1367 N 132.847 5.15421 -4.6294 0
M  V30 1368 N 134.64 4.29625 -3.62462 0
M  V30 1369 H 126.791 0.78584 -1.97328 0
M  V30 1370 H 129.054 0.408065 -0.855679 0
M  V30 1371 H 128.76 2.02626 -2.87464 0
M  V30 1372 H 128.634 3.35129 -1.73114 0
M  V30 1373 H 131.021 2.81051 -0.899687 0
M  V30 1374 H 131.102 1.4925 -2.07745 0
M  V30 1375 H 130.746 3.18173 -3.95889 0
M  V30 1376 H 130.676 4.48992 -2.75161 0
M  V30 1377 H 133.167 2.99276 -2.30743 0
M  V30 1378 H 133.48 5.7183 -5.19837 0
M  V30 1379 H 131.825 5.14729 -4.66989 0
M  V30 1380 H 135.016 3.65505 -2.92444 0
M  V30 1381 H 135.189 4.89807 -4.24256 0
M  V30 1382 N 128.595 0.856903 1.32268 0
M  V30 1383 C 129.823 0.475439 2.01363 0
M  V30 1384 C 130.238 -0.928486 1.64392 0
M  V30 1385 O 129.595 -1.60624 0.866387 0
M  V30 1386 C 129.646 0.607545 3.56358 0
M  V30 1387 O 129.367 1.95617 3.92002 0
M  V30 1388 C 130.868 0.225382 4.42727 0
M  V30 1389 H 128.088 0.186636 0.644521 0
M  V30 1390 H 130.632 1.15446 1.68797 0
M  V30 1391 H 128.787 -0.0237719 3.87393 0
M  V30 1392 H 129.201 1.95455 4.86721 0
M  V30 1393 H 130.675 0.368813 5.50767 0
M  V30 1394 H 131.152 -0.834369 4.31202 0
M  V30 1395 H 131.758 0.831864 4.17085 0
M  V30 1396 N 130.073 -1.45103 0.615059 0
M  V30 1397 C 131.35 -1.95549 0.0448276 0
M  V30 1398 C 131.73 -1.55737 -1.4251 0
M  V30 1399 O 131.078 -0.823556 -2.13143 0
M  V30 1400 C 131.288 -3.48098 0.250785 0
M  V30 1401 C 132.636 -4.24384 0.135509 0
M  V30 1402 O 133.66 -3.55738 0.181299 0
M  V30 1403 O 132.519 -5.46493 0.0268878 0
M  V30 1404 H 129.613 -0.8264 -0.0314845 0
M  V30 1405 H 132.159 -1.55232 0.685642 0
M  V30 1406 H 130.931 -3.7007 1.27139 0
M  V30 1407 H 130.554 -3.95323 -0.424937 0
M  V30 1408 N 131.551 -0.354651 -1.53558 0
M  V30 1409 C 132.967 -0.00315426 -1.596 0
M  V30 1410 C 133.167 1.47741 -1.37021 0
M  V30 1411 O 132.223 2.23759 -1.16996 0
M  V30 1412 C 133.536 -0.44929 -2.97325 0
M  V30 1413 C 135.084 -0.402578 -3.104 0
M  V30 1414 C 135.559 -0.824355 -4.5052 0
M  V30 1415 N 137.05 -0.778979 -4.56603 0
M  V30 1416 C 137.785 -1.07715 -5.63192 0
M  V30 1417 N 137.281 -1.44405 -6.77583 0
M  V30 1418 N 139.074 -1.00066 -5.53121 0
M  V30 1419 H 131.225 -1.31893 -1.66487 0
M  V30 1420 H 133.488 -0.538388 -0.780284 0
M  V30 1421 H 133.194 -1.48202 -3.1895 0
M  V30 1422 H 133.068 0.169772 -3.76818 0
M  V30 1423 H 135.455 0.621004 -2.88492 0
M  V30 1424 H 135.536 -1.05699 -2.32941 0
M  V30 1425 H 135.18 -1.846 -4.73165 0
M  V30 1426 H 135.11 -0.147304 -5.26394 0
M  V30 1427 H 137.601 -0.508528 -3.74463 0
M  V30 1428 H 137.914 -1.65612 -7.54846 0
M  V30 1429 H 136.259 -1.4826 -6.79002 0
M  V30 1430 H 139.45 -0.713293 -4.62633 0
M  V30 1431 H 139.623 -1.23638 -6.36096 0
M  V30 1432 N 133.029 1.57378 -0.0835403 0
M  V30 1433 C 133.939 2.16897 0.894021 0
M  V30 1434 C 134.955 1.13528 1.31861 0
M  V30 1435 O 136.131 1.45848 1.3889 0
M  V30 1436 C 133.196 2.72831 2.13925 0
M  V30 1437 C 132.257 3.91115 1.76997 0
M  V30 1438 C 131.49 4.44371 2.95584 0
M  V30 1439 O 131.713 3.96596 4.09961 0
M  V30 1440 O 130.647 5.35549 2.74719 0
M  V30 1441 H 134.473 3.00814 0.417679 0
M  V30 1442 H 132.058 1.48741 0.140181 0
M  V30 1443 H 133.94 3.0863 2.86924 0
M  V30 1444 H 132.615 1.91967 2.60635 0
M  V30 1445 H 131.522 3.60148 1.01214 0
M  V30 1446 H 132.855 4.73307 1.3506 0
M  V30 1447 N 134.507 -0.190092 1.56449 0
M  V30 1448 C 135.735 -0.925772 1.85033 0
M  V30 1449 C 136.15 -1.76638 0.666658 0
M  V30 1450 O 135.507 -1.78822 -0.364565 0
M  V30 1451 C 135.558 -1.81786 3.12468 0
M  V30 1452 O 135.279 -1.01118 4.26271 0
M  V30 1453 C 136.78 -2.6648 3.54265 0
M  V30 1454 H 134 -0.269872 0.614337 0
M  V30 1455 H 136.544 -0.195837 2.0356 0
M  V30 1456 H 134.699 -2.50136 2.95822 0
M  V30 1457 H 135.113 -1.61956 4.98869 0
M  V30 1458 H 136.587 -3.24722 4.46385 0
M  V30 1459 H 137.064 -3.40434 2.77491 0
M  V30 1460 H 137.67 -2.03493 3.73458 0
M  V30 1461 N 135.985 -1.50799 -0.457987 0
M  V30 1462 C 136.932 -1.70617 -1.5543 0
M  V30 1463 C 137.902 -0.547562 -1.56815 0
M  V30 1464 O 139.087 -0.779647 -1.74144 0
M  V30 1465 C 136.227 -1.81831 -2.93311 0
M  V30 1466 C 135.34 -3.09278 -3.01615 0
M  V30 1467 C 134.475 -3.11209 -4.30491 0
M  V30 1468 C 133.514 -4.33055 -4.32585 0
M  V30 1469 N 132.651 -4.32652 -5.52952 0
M  V30 1470 H 137.491 -2.64207 -1.37836 0
M  V30 1471 H 135.028 -1.30959 -0.669937 0
M  V30 1472 H 136.986 -1.86314 -3.73287 0
M  V30 1473 H 135.616 -0.916685 -3.0951 0
M  V30 1474 H 134.668 -3.14203 -2.1443 0
M  V30 1475 H 135.98 -3.99233 -2.99022 0
M  V30 1476 H 135.134 -3.14494 -5.18824 0
M  V30 1477 H 133.873 -2.19106 -4.35711 0
M  V30 1478 H 132.878 -4.29969 -3.42647 0
M  V30 1479 H 134.103 -5.264 -4.29046 0
M  V30 1480 H 132.049 -3.43409 -5.58933 0
M  V30 1481 H 131.966 -5.16392 -5.52155 0
M  V30 1482 H 133.234 -4.40101 -6.43375 0
M  V30 1483 N 137.463 0.71206 -1.40597 0
M  V30 1484 C 138.393 1.83889 -1.43899 0
M  V30 1485 C 139.374 1.67442 -0.299504 0
M  V30 1486 O 140.559 1.87421 -0.508624 0
M  V30 1487 C 137.689 3.21877 -1.30431 0
M  V30 1488 C 136.643 3.53002 -2.42019 0
M  V30 1489 C 135.969 4.90172 -2.13626 0
M  V30 1490 C 137.269 3.53643 -3.84362 0
M  V30 1491 H 138.963 1.81383 -2.38203 0
M  V30 1492 H 136.509 0.871237 -1.14654 0
M  V30 1493 H 138.462 4.00404 -1.31357 0
M  V30 1494 H 137.186 3.24968 -0.326049 0
M  V30 1495 H 135.845 2.76818 -2.40349 0
M  V30 1496 H 135.493 4.89869 -1.14182 0
M  V30 1497 H 135.193 5.11962 -2.88389 0
M  V30 1498 H 136.717 5.71028 -2.1624 0
M  V30 1499 H 138.131 4.22203 -3.87837 0
M  V30 1500 H 136.528 3.86961 -4.58673 0
M  V30 1501 H 137.598 2.52954 -4.13693 0
M  V30 1502 N 138.941 1.26152 0.944643 0
M  V30 1503 C 140.169 1.14259 1.72489 0
M  V30 1504 C 140.584 -0.302555 1.8636 0
M  V30 1505 O 139.941 -1.20741 1.36849 0
M  V30 1506 C 139.992 1.80266 3.13347 0
M  V30 1507 O 139.713 3.19133 3.00143 0
M  V30 1508 C 141.214 1.74283 4.07603 0
M  V30 1509 H 138.434 0.398051 0.540181 0
M  V30 1510 H 140.978 1.66706 1.18446 0
M  V30 1511 H 139.133 1.31766 3.64303 0
M  V30 1512 H 139.547 3.51744 3.89071 0
M  V30 1513 H 141.021 2.25111 5.04013 0
M  V30 1514 H 141.498 0.708631 4.33446 0
M  V30 1515 H 142.104 2.22319 3.62567 0
M  V30 1516 N 140.419 -1.14872 1.07899 0
M  V30 1517 C 141.349 -2.2193 0.725887 0
M  V30 1518 C 142.33 -1.67622 -0.28927 0
M  V30 1519 O 143.515 -1.93533 -0.160787 0
M  V30 1520 C 140.645 -3.47061 0.128856 0
M  V30 1521 C 139.599 -4.14363 1.07178 0
M  V30 1522 C 138.925 -5.33636 0.337229 0
M  V30 1523 C 140.225 -4.63492 2.40775 0
M  V30 1524 H 141.919 -2.51724 1.62097 0
M  V30 1525 H 139.465 -1.20991 0.780838 0
M  V30 1526 H 141.418 -4.21199 -0.130147 0
M  V30 1527 H 140.142 -3.16617 -0.80134 0
M  V30 1528 H 138.801 -3.42173 1.3158 0
M  V30 1529 H 138.449 -4.99449 -0.596606 0
M  V30 1530 H 138.149 -5.79609 0.965788 0
M  V30 1531 H 139.673 -6.10539 0.0861567 0
M  V30 1532 H 141.087 -5.2913 2.20669 0
M  V30 1533 H 139.484 -5.20148 2.99276 0
M  V30 1534 H 140.554 -3.78834 3.02676 0
M  V30 1535 N 141.898 -0.863906 -1.31812 0
M  V30 1536 C 143.144 -0.472535 -1.97218 0
M  V30 1537 C 143.477 0.971394 -1.68159 0
M  V30 1538 O 142.752 1.68309 -0.974798 0
M  V30 1539 C 143.035 -0.723054 -3.52766 0
M  V30 1540 C 142.888 -2.21608 -3.91421 0
M  V30 1541 C 144.207 -0.185522 -4.39709 0
M  V30 1542 H 141.326 -0.173158 -0.71637 0
M  V30 1543 H 143.968 -1.08403 -1.56041 0
M  V30 1544 H 142.118 -0.202577 -3.87971 0
M  V30 1545 H 143.79 -2.80334 -3.66347 0
M  V30 1546 H 142.033 -2.691 -3.40246 0
M  V30 1547 H 142.704 -2.34203 -4.99853 0
M  V30 1548 H 145.18 -0.630726 -4.11292 0
M  V30 1549 H 144.056 -0.390306 -5.47511 0
M  V30 1550 H 144.317 0.912229 -4.32586 0
M  V30 1551 N 143.376 1.44774 -0.622745 0
M  V30 1552 C 144.623 2.02121 -0.1239 0
M  V30 1553 C 144.951 1.48915 1.25118 0
M  V30 1554 O 144.206 0.660045 1.84233 0
M  V30 1555 C 144.505 3.57364 -0.0508323 0
M  V30 1556 C 144.171 4.29787 -1.36358 0
M  V30 1557 C 142.833 4.4929 -1.72314 0
M  V30 1558 C 145.185 4.71062 -2.23048 0
M  V30 1559 C 142.513 5.07325 -2.94682 0
M  V30 1560 C 144.865 5.30452 -3.44679 0
M  V30 1561 C 143.529 5.48175 -3.80868 0
M  V30 1562 H 142.799 0.739612 -0.0453381 0
M  V30 1563 H 145.446 1.73648 -0.807389 0
M  V30 1564 H 143.751 3.85202 0.715991 0
M  V30 1565 H 145.448 3.99456 0.351533 0
M  V30 1566 H 142.038 4.14932 -1.07375 0
M  V30 1567 H 146.222 4.55715 -1.96565 0
M  V30 1568 H 141.478 5.19235 -3.22809 0
M  V30 1569 H 145.652 5.61385 -4.12092 0
M  V30 1570 H 143.279 5.92912 -4.75773 0
M  V30 1571 N 144.854 0.36279 1.53368 0
M  V30 1572 C 145.764 -0.492994 2.29362 0
M  V30 1573 C 146.78 -1.09507 1.35219 0
M  V30 1574 O 147.956 -1.10662 1.68273 0
M  V30 1575 C 145.021 -1.61855 3.066 0
M  V30 1576 C 144.082 -1.04429 4.16405 0
M  V30 1577 C 143.315 -2.11621 4.89951 0
M  V30 1578 O 143.538 -3.32684 4.63333 0
M  V30 1579 O 142.472 -1.74835 5.75948 0
M  V30 1580 H 146.298 0.125331 3.03441 0
M  V30 1581 H 143.883 0.127253 1.48857 0
M  V30 1582 H 145.765 -2.27302 3.54841 0
M  V30 1583 H 144.44 -2.22233 2.3536 0
M  V30 1584 H 143.347 -0.353819 3.72423 0
M  V30 1585 H 144.68 -0.485113 4.89804 0
M  V30 1586 N 146.332 -1.57332 0.0918853 0
M  V30 1587 C 147.282 -2.10385 -0.87876 0
M  V30 1588 C 148.266 -1.01814 -1.24591 0
M  V30 1589 O 149.458 -1.28093 -1.22152 0
M  V30 1590 C 146.587 -2.68517 -2.13901 0
M  V30 1591 C 145.673 -3.84126 -1.79744 0
M  V30 1592 N 146.064 -4.92288 -1.1613 0
M  V30 1593 C 144.362 -3.93801 -2.09373 0
M  V30 1594 C 145.063 -5.7295 -1.00513 0
M  V30 1595 N 144.039 -5.21876 -1.5214 0
M  V30 1596 H 147.841 -2.91395 -0.38293 0
M  V30 1597 H 145.355 -1.62017 -0.111423 0
M  V30 1598 H 147.352 -3.04852 -2.84378 0
M  V30 1599 H 146.012 -1.88961 -2.64053 0
M  V30 1600 H 147.023 -5.1123 -0.828504 0
M  V30 1601 H 143.7 -3.25249 -2.61762 0
M  V30 1602 H 145.09 -6.69978 -0.507902 0
M  V30 1603 N 147.81 0.181792 -1.56548 0
M  V30 1604 C 149.056 0.901431 -1.81665 0
M  V30 1605 C 149.389 1.82347 -0.668075 0
M  V30 1606 O 148.664 1.91669 0.330615 0
M  V30 1607 C 148.947 1.70618 -3.17115 0
M  V30 1608 C 148.8 0.807964 -4.42484 0
M  V30 1609 C 150.119 2.67605 -3.49393 0
M  V30 1610 H 147.238 0.32627 -0.660846 0
M  V30 1611 H 149.88 0.168134 -1.89255 0
M  V30 1612 H 148.03 2.33133 -3.10775 0
M  V30 1613 H 149.702 0.19649 -4.60881 0
M  V30 1614 H 147.945 0.115411 -4.33646 0
M  V30 1615 H 148.616 1.40632 -5.33785 0
M  V30 1616 H 151.092 2.15218 -3.56118 0
M  V30 1617 H 149.968 3.20985 -4.45264 0
M  V30 1618 H 150.229 3.47298 -2.73563 0
M  V30 1619 N 149.288 1.51039 0.449983 0
M  V30 1620 C 150.565 1.53612 1.21089 0
M  V30 1621 C 150.945 0.292997 2.09057 0
M  V30 1622 O 150.293 -0.72259 2.16774 0
M  V30 1623 C 150.503 2.84337 2.0237 0
M  V30 1624 C 151.851 3.35807 2.59843 0
M  V30 1625 O 152.875 2.85802 2.12593 0
M  V30 1626 O 151.734 4.23029 3.45989 0
M  V30 1627 H 148.828 0.617057 0.550608 0
M  V30 1628 H 151.374 1.63344 0.460082 0
M  V30 1629 H 150.146 3.66278 1.37681 0
M  V30 1630 H 149.769 2.77708 2.84542 0
M  V30 1631 N 150.766 -0.704594 1.40972 0
M  V30 1632 C 151.698 -1.82974 1.38033 0
M  V30 1633 C 152.711 -1.60305 0.283931 0
M  V30 1634 O 153.9 -1.69975 0.545042 0
M  V30 1635 C 151 -3.19578 1.12795 0
M  V30 1636 C 150.173 -3.69352 2.34302 0
M  V30 1637 C 149.232 -4.84601 2.05058 0
M  V30 1638 O 148.258 -4.96682 2.7802 0
M  V30 1639 N 149.46 -5.71194 1.03528 0
M  V30 1640 H 152.225 -1.85991 2.35005 0
M  V30 1641 H 149.786 -0.886567 1.35468 0
M  V30 1642 H 151.778 -3.9429 0.911987 0
M  V30 1643 H 150.348 -3.11642 0.24452 0
M  V30 1644 H 149.568 -2.85649 2.71659 0
M  V30 1645 H 150.856 -3.99345 3.1528 0
M  V30 1646 H 150.254 -5.64054 0.431217 0
M  V30 1647 H 148.811 -6.45843 0.879205 0
M  V30 1648 N 152.244 -1.26651 -0.937939 0
M  V30 1649 C 153.521 -1.0313 -1.66204 0
M  V30 1650 C 153.901 0.437256 -2.06522 0
M  V30 1651 O 153.249 1.41831 -1.79154 0
M  V30 1652 C 153.459 -1.98314 -2.87181 0
M  V30 1653 C 154.807 -2.27107 -3.58758 0
M  V30 1654 O 155.831 -1.96205 -2.97291 0
M  V30 1655 O 154.69 -2.79736 -4.69479 0
M  V30 1656 H 151.784 -0.392384 -0.727986 0
M  V30 1657 H 154.33 -1.37874 -0.989382 0
M  V30 1658 H 153.102 -2.97399 -2.54302 0
M  V30 1659 H 152.725 -1.64068 -3.6217 0
M  V30 1660 N 153.722 1.14298 -1.08507 0
M  V30 1661 C 154.652 2.21542 -0.737646 0
M  V30 1662 C 155.633 1.67773 0.280377 0
M  V30 1663 O 156.818 1.93616 0.150521 0
M  V30 1664 C 153.948 3.46988 -0.147259 0
M  V30 1665 C 152.902 4.13789 -1.09374 0
M  V30 1666 C 152.228 5.33449 -0.365524 0
M  V30 1667 C 153.528 4.62208 -2.4323 0
M  V30 1668 H 155.222 2.5086 -1.6343 0
M  V30 1669 H 152.768 1.20576 -0.787243 0
M  V30 1670 H 154.721 4.21262 0.107808 0
M  V30 1671 H 153.445 3.17037 0.784538 0
M  V30 1672 H 152.104 3.4147 -1.33393 0
M  V30 1673 H 151.752 4.99759 0.57011 0
M  V30 1674 H 151.452 5.79088 -0.996512 0
M  V30 1675 H 152.976 6.10485 -0.118534 0
M  V30 1676 H 154.39 5.27952 -2.23472 0
M  V30 1677 H 152.787 5.18553 -3.02031 0
M  V30 1678 H 153.857 3.77224 -3.04681 0
M  V30 1679 N 155.201 0.870884 1.31352 0
M  V30 1680 C 156.429 0.49677 2.00848 0
M  V30 1681 C 156.844 -0.910998 1.65367 0
M  V30 1682 O 156.201 -1.59696 0.883374 0
M  V30 1683 C 156.252 0.645308 3.55694 0
M  V30 1684 O 155.973 1.99764 3.89905 0
M  V30 1685 C 157.474 0.272326 4.42463 0
M  V30 1686 H 154.694 0.193462 0.642506 0
M  V30 1687 H 157.238 1.1723 1.67563 0
M  V30 1688 H 155.393 0.0173176 3.87396 0
M  V30 1689 H 155.807 2.00607 4.84621 0
M  V30 1690 H 157.281 0.427208 5.50344 0
M  V30 1691 H 157.758 -0.788587 4.32062 0
M  V30 1692 H 158.364 0.876054 4.1618 0
M  V30 1693 N 156.679 -1.44442 0.630414 0
M  V30 1694 C 157.907 -2.06414 0.141671 0
M  V30 1695 C 158.322 -1.47105 -1.18345 0
M  V30 1696 O 157.679 -0.593662 -1.72574 0
M  V30 1697 C 157.73 -3.61494 0.0199784 0
M  V30 1698 O 157.451 -4.18594 1.29269 0
M  V30 1699 C 158.952 -4.40499 -0.497544 0
M  V30 1700 H 156.172 -0.666292 0.0793452 0
M  V30 1701 H 158.716 -1.85323 0.864614 0
M  V30 1702 H 156.871 -3.8185 -0.653402 0
M  V30 1703 H 157.285 -5.12026 1.13707 0
M  V30 1704 H 158.759 -5.49433 -0.531708 0
M  V30 1705 H 159.236 -4.11895 -1.52445 0
M  V30 1706 H 159.842 -4.25061 0.142562 0
M  V30 1707 N 158.157 -0.370918 -1.53173 0
M  V30 1708 C 159.387 0.217389 -2.05453 0
M  V30 1709 C 159.795 1.42568 -1.24382 0
M  V30 1710 O 159.138 1.81571 -0.278839 0
M  V30 1711 C 159.2 0.669827 -3.53205 0
M  V30 1712 C 158.864 -0.4225 -4.55043 0
M  V30 1713 C 159.861 -1.27407 -5.04047 0
M  V30 1714 C 157.546 -0.58427 -4.9889 0
M  V30 1715 C 159.54 -2.27271 -5.95505 0
M  V30 1716 C 157.227 -1.58627 -5.90153 0
M  V30 1717 C 158.225 -2.42892 -6.38351 0
M  V30 1718 O 157.913 -3.41382 -7.27814 0
M  V30 1719 H 157.645 0.0408171 -0.674767 0
M  V30 1720 H 160.199 -0.5292 -1.98466 0
M  V30 1721 H 158.429 1.4681 -3.57748 0
M  V30 1722 H 160.118 1.18173 -3.88317 0
M  V30 1723 H 160.884 -1.16031 -4.70916 0
M  V30 1724 H 156.763 0.061851 -4.60959 0
M  V30 1725 H 160.307 -2.93079 -6.33049 0
M  V30 1726 H 156.204 -1.70048 -6.22699 0
M  V30 1727 H 156.972 -3.37173 -7.45826 0
M  V30 1728 N 159.635 1.57281 -0.100228 0
M  V30 1729 C 160.565 2.17328 0.853857 0
M  V30 1730 C 161.546 1.10804 1.2906 0
M  V30 1731 O 162.731 1.38963 1.35657 0
M  V30 1732 C 159.861 2.75772 2.11109 0
M  V30 1733 C 158.815 3.87713 1.81279 0
M  V30 1734 C 158.141 4.32882 3.13874 0
M  V30 1735 C 159.441 5.10677 1.09574 0
M  V30 1736 H 161.135 2.97305 0.353545 0
M  V30 1737 H 158.681 1.43009 0.168612 0
M  V30 1738 H 160.634 3.16433 2.78296 0
M  V30 1739 H 159.358 1.93057 2.63432 0
M  V30 1740 H 158.017 3.476 1.16489 0
M  V30 1741 H 157.665 3.47051 3.64095 0
M  V30 1742 H 157.365 5.08358 2.94696 0
M  V30 1743 H 158.889 4.7618 3.82211 0
M  V30 1744 H 160.303 5.48474 1.66879 0
M  V30 1745 H 158.7 5.91615 1.00557 0
M  V30 1746 H 159.77 4.84835 0.0793299 0
M  V30 1747 N 161.113 -0.173488 1.56642 0
M  V30 1748 C 162.39 -0.917617 1.7274 0
M  V30 1749 C 162.77 -2.00484 0.661027 0
M  V30 1750 O 162.118 -2.26184 -0.32453 0
M  V30 1751 C 162.328 -1.48433 3.15862 0
M  V30 1752 C 163.676 -1.95809 3.76754 0
M  V30 1753 O 164.7 -1.58231 3.19126 0
M  V30 1754 O 163.559 -2.65024 4.77938 0
M  V30 1755 H 160.653 -0.431772 0.705338 0
M  V30 1756 H 163.199 -0.161487 1.6893 0
M  V30 1757 H 161.971 -0.701715 3.84957 0
M  V30 1758 H 161.594 -2.30471 3.23989 0
M  V30 1759 N 162.591 -1.51276 -0.441967 0
M  V30 1760 C 163.538 -1.72256 -1.53612 0
M  V30 1761 C 164.508 -0.564164 -1.56225 0
M  V30 1762 O 165.693 -0.798074 -1.73307 0
M  V30 1763 C 162.833 -1.84932 -2.91366 0
M  V30 1764 C 161.946 -3.12459 -2.98317 0
M  V30 1765 C 161.081 -3.15758 -4.27166 0
M  V30 1766 C 160.12 -4.37619 -4.27967 0
M  V30 1767 N 159.257 -4.38493 -5.48333 0
M  V30 1768 H 164.097 -2.65654 -1.35026 0
M  V30 1769 H 161.634 -1.31662 -0.656009 0
M  V30 1770 H 163.592 -1.90263 -3.7129 0
M  V30 1771 H 162.222 -0.949461 -3.08521 0
M  V30 1772 H 161.274 -3.1646 -2.11086 0
M  V30 1773 H 162.586 -4.02382 -2.94771 0
M  V30 1774 H 161.74 -3.19979 -5.15459 0
M  V30 1775 H 160.479 -2.23715 -4.33362 0
M  V30 1776 H 159.484 -4.33579 -3.38067 0
M  V30 1777 H 160.709 -5.30921 -4.23438 0
M  V30 1778 H 158.655 -3.49318 -5.55259 0
M  V30 1779 H 158.572 -5.22219 -5.46647 0
M  V30 1780 H 159.84 -4.469 -6.38671 0
M  V30 1781 N 164.069 0.697108 -1.41344 0
M  V30 1782 C 165.315 1.4593 -1.40827 0
M  V30 1783 C 165.648 1.94193 -0.0167098 0
M  V30 1784 O 164.923 1.69425 0.955263 0
M  V30 1785 C 165.206 2.67229 -2.41373 0
M  V30 1786 C 165.059 2.24741 -3.8963 0
M  V30 1787 C 166.378 3.69423 -2.39196 0
M  V30 1788 H 163.497 0.529303 -0.512842 0
M  V30 1789 H 166.139 0.794112 -1.72609 0
M  V30 1790 H 164.289 3.23982 -2.14401 0
M  V30 1791 H 165.961 1.73327 -4.27499 0
M  V30 1792 H 164.204 1.56542 -4.0457 0
M  V30 1793 H 164.875 3.1177 -4.55525 0
M  V30 1794 H 167.351 3.2234 -2.63128 0
M  V30 1795 H 166.227 4.51907 -3.11563 0
M  V30 1796 H 166.488 4.19012 -1.41001 0
M  V30 1797 N 165.547 1.27147 0.931209 0
M  V30 1798 C 166.958 1.12044 1.49342 0
M  V30 1799 C 167.309 -0.295795 1.93957 0
M  V30 1800 O 166.434 -1.18835 1.80852 0
M  V30 1801 C 167.029 2.02781 2.71414 0
M  V30 1802 C 165.588 1.91794 3.2387 0
M  V30 1803 C 164.735 1.95543 1.96617 0
M  V30 1804 H 167.686 1.40091 0.745672 0
M  V30 1805 H 167.707 1.58156 3.46074 0
M  V30 1806 H 167.219 3.05848 2.38911 0
M  V30 1807 H 165.32 0.916992 3.6114 0
M  V30 1808 H 165.433 2.77852 3.90302 0
M  V30 1809 H 163.797 1.39722 2.12955 0
M  V30 1810 H 164.58 3.00259 1.66432 0
M  V30 1811 N 167.025 -1.13721 1.09112 0
M  V30 1812 C 167.935 -2.22638 0.73957 0
M  V30 1813 C 168.951 -1.72091 -0.257068 0
M  V30 1814 O 170.127 -2.01155 -0.0992154 0
M  V30 1815 C 167.192 -3.46322 0.16191 0
M  V30 1816 C 166.253 -4.11775 1.21408 0
M  V30 1817 C 165.486 -5.29555 0.663891 0
M  V30 1818 O 165.709 -5.68077 -0.514274 0
M  V30 1819 O 164.643 -5.84973 1.41738 0
M  V30 1820 H 168.469 -2.55074 1.64836 0
M  V30 1821 H 166.054 -1.21791 0.865289 0
M  V30 1822 H 167.936 -4.21107 -0.157073 0
M  V30 1823 H 166.611 -3.15593 -0.719932 0
M  V30 1824 H 165.518 -3.3883 1.58571 0
M  V30 1825 H 166.851 -4.46627 2.06845 0
M  V30 1826 N 168.503 -0.877838 -1.30888 0
M  V30 1827 C 169.914 -0.544193 -1.78593 0
M  V30 1828 C 170.265 0.939301 -1.72254 0
M  V30 1829 O 169.39 1.7337 -1.29505 0
M  V30 1830 C 169.985 -0.98105 -3.24285 0
M  V30 1831 C 168.544 -0.698935 -3.69854 0
M  V30 1832 C 167.691 -1.168 -2.51502 0
M  V30 1833 H 170.642 -1.06278 -1.17859 0
M  V30 1834 H 170.663 -0.307009 -3.79259 0
M  V30 1835 H 170.175 -2.06079 -3.28866 0
M  V30 1836 H 168.276 0.369112 -3.70767 0
M  V30 1837 H 168.389 -1.28148 -4.61644 0
M  V30 1838 H 166.753 -0.587535 -2.47831 0
M  V30 1839 H 167.536 -2.25533 -2.58824 0
M  V30 1840 N 169.982 1.44106 -0.638065 0
M  V30 1841 C 171.23 2.01579 -0.145043 0
M  V30 1842 C 171.551 1.50496 1.24 0
M  V30 1843 O 170.821 0.711374 1.82527 0
M  V30 1844 H 169.401 0.745282 -0.05063 0
M  V30 1845 H 172.063 1.76516 -0.826327 0
M  V30 1846 H 171.159 3.11877 -0.118039 0
M  V30 1847 N 171.46 0.379036 1.52974 0
M  V30 1848 C 172.706 -0.206727 2.01744 0
M  V30 1849 C 173.039 -1.47314 1.26539 0
M  V30 1850 O 172.314 -1.91084 0.362903 0
M  V30 1851 C 172.597 -0.485066 3.56818 0
M  V30 1852 C 172.45 0.795919 4.42702 0
M  V30 1853 C 173.769 -1.28003 4.21074 0
M  V30 1854 H 170.888 -0.0736607 0.73331 0
M  V30 1855 H 173.53 0.506581 1.83122 0
M  V30 1856 H 171.68 -1.09272 3.72816 0
M  V30 1857 H 173.352 1.43307 4.38476 0
M  V30 1858 H 171.595 1.41344 4.10127 0
M  V30 1859 H 172.266 0.555947 5.49193 0
M  V30 1860 H 174.742 -0.765867 4.08991 0
M  V30 1861 H 173.618 -1.44352 5.29579 0
M  V30 1862 H 173.879 -2.29236 3.78026 0
M  V30 1863 N 172.938 -1.57226 0.108567 0
M  V30 1864 C 174.349 -1.8195 -0.418464 0
M  V30 1865 C 174.7 -1.02508 -1.67292 0
M  V30 1866 O 173.825 -0.258496 -2.14851 0
M  V30 1867 C 174.42 -3.30028 -0.765979 0
M  V30 1868 C 172.979 -3.55469 -1.23769 0
M  V30 1869 C 172.126 -2.7625 -0.241106 0
M  V30 1870 H 175.077 -1.55149 0.33384 0
M  V30 1871 H 175.098 -3.44086 -1.62434 0
M  V30 1872 H 174.61 -3.87821 0.147219 0
M  V30 1873 H 172.711 -3.03022 -2.16814 0
M  V30 1874 H 172.824 -4.6408 -1.19022 0
M  V30 1875 H 171.188 -2.44133 -0.72602 0
M  V30 1876 H 171.971 -3.36797 0.665007 0
M  V30 1877 N 174.416 0.165178 -1.56732 0
M  V30 1878 C 175.644 0.896218 -1.86482 0
M  V30 1879 C 176.059 1.75555 -0.694675 0
M  V30 1880 O 175.416 1.79379 0.33607 0
M  V30 1881 C 175.467 1.76792 -3.1532 0
M  V30 1882 O 175.188 0.943239 -4.27825 0
M  V30 1883 C 176.689 2.6081 -3.58459 0
M  V30 1884 H 173.909 0.260064 -0.618553 0
M  V30 1885 H 176.453 0.163428 -2.03846 0
M  V30 1886 H 174.608 2.45398 -2.99764 0
M  V30 1887 H 175.022 1.53998 -5.01383 0
M  V30 1888 H 176.496 3.17579 -4.51495 0
M  V30 1889 H 176.973 3.35977 -2.82872 0
M  V30 1890 H 177.579 1.97526 -3.76648 0
M  V30 1891 N 175.894 1.51508 0.433938 0
M  V30 1892 C 176.804 1.75917 1.5521 0
M  V30 1893 C 177.82 0.643545 1.61662 0
M  V30 1894 O 178.996 0.926183 1.7884 0
M  V30 1895 C 176.061 1.88213 2.91164 0
M  V30 1896 C 175.122 3.12074 2.94802 0
M  V30 1897 C 174.355 3.23774 4.24271 0
M  V30 1898 O 174.578 2.4133 5.16833 0
M  V30 1899 O 173.512 4.16774 4.34262 0
M  V30 1900 H 177.338 2.70777 1.37527 0
M  V30 1901 H 174.923 1.36051 0.617293 0
M  V30 1902 H 176.805 1.98267 3.71845 0
M  V30 1903 H 175.48 0.965413 3.08968 0
M  V30 1904 H 174.387 3.07497 2.13065 0
M  V30 1905 H 175.72 4.03446 2.81943 0
M  V30 1906 N 177.372 -0.689602 1.41712 0
M  V30 1907 C 178.6 -1.47827 1.44758 0
M  V30 1908 C 179.015 -1.88721 0.0545703 0
M  V30 1909 O 178.372 -1.57176 -0.927463 0
M  V30 1910 C 178.423 -2.73698 2.3616 0
M  V30 1911 O 178.144 -2.34524 3.7004 0
M  V30 1912 C 179.645 -3.67389 2.48072 0
M  V30 1913 H 176.865 -0.455357 0.49284 0
M  V30 1914 H 179.409 -0.848574 1.86063 0
M  V30 1915 H 177.564 -3.32891 1.98148 0
M  V30 1916 H 177.978 -3.15701 4.18847 0
M  V30 1917 H 179.452 -4.52475 3.16181 0
M  V30 1918 H 179.929 -4.12284 1.51388 0
M  V30 1919 H 180.535 -3.14097 2.86746 0
M  V30 1920 N 178.85 -1.27639 -0.924453 0
M  V30 1921 C 180.099 -1.13549 -1.66702 0
M  V30 1922 C 180.412 0.317487 -1.93006 0
M  V30 1923 O 181.618 0.579333 -2.65247 0
M  V30 1924 C 180.074 -1.98426 -3.00259 0
M  V30 1925 C 179.682 -3.484 -2.81641 0
M  V30 1926 C 181.426 -1.92993 -3.78092 0
M  V30 1927 C 179.333 -4.25464 -4.10773 0
M  V30 1928 H 178.263 -0.421351 -0.625283 0
M  V30 1929 H 180.914 -1.52085 -1.02676 0
M  V30 1930 H 179.296 -1.52736 -3.6536 0
M  V30 1931 H 180.47 -4.01973 -2.25287 0
M  V30 1932 H 178.785 -3.55245 -2.17232 0
M  V30 1933 H 181.382 -2.47844 -4.7379 0
M  V30 1934 H 181.725 -0.904281 -4.0636 0
M  V30 1935 H 182.258 -2.36595 -3.19793 0
M  V30 1936 H 178.997 -5.28566 -3.87683 0
M  V30 1937 H 178.517 -3.76667 -4.66779 0
M  V30 1938 H 180.196 -4.34812 -4.79111 0
M  V30 1939 N 180.328 1.1314 -1.09713 0
M  V30 1940 C 181.275 2.18642 -0.739196 0
M  V30 1941 C 182.245 1.63706 0.280978 0
M  V30 1942 O 183.43 1.90111 0.161946 0
M  V30 1943 C 180.57 3.44685 -0.169102 0
M  V30 1944 C 179.683 4.13711 -1.24367 0
M  V30 1945 C 178.818 5.27379 -0.636019 0
M  V30 1946 C 177.857 5.88259 -1.69169 0
M  V30 1947 N 176.994 6.93352 -1.10485 0
M  V30 1948 H 181.834 2.48607 -1.64312 0
M  V30 1949 H 179.371 1.22066 -0.820875 0
M  V30 1950 H 181.329 4.16815 0.179256 0
M  V30 1951 H 179.959 3.15161 0.698079 0
M  V30 1952 H 179.011 3.39835 -1.70927 0
M  V30 1953 H 180.323 4.55037 -2.04311 0
M  V30 1954 H 179.477 6.06238 -0.236677 0
M  V30 1955 H 178.216 4.8731 0.194928 0
M  V30 1956 H 177.221 5.08092 -2.10055 0
M  V30 1957 H 178.446 6.30399 -2.52536 0
M  V30 1958 H 176.392 6.55335 -0.295234 0
M  V30 1959 H 176.309 7.33236 -1.84121 0
M  V30 1960 H 177.577 7.76057 -0.73181 0
M  V30 1961 N 181.806 0.884767 1.30421 0
M  V30 1962 C 183.083 0.423185 1.90967 0
M  V30 1963 C 183.463 -1.09605 1.80416 0
M  V30 1964 O 182.811 -1.93126 1.22125 0
M  V30 1965 C 183.021 0.921056 3.36627 0
M  V30 1966 C 184.369 0.955903 4.137 0
M  V30 1967 O 185.393 0.867706 3.4547 0
M  V30 1968 O 184.252 1.08614 5.35598 0
M  V30 1969 H 181.346 0.129369 0.816819 0
M  V30 1970 H 183.892 0.973653 1.3899 0
M  V30 1971 H 182.664 1.96489 3.3839 0
M  V30 1972 H 182.287 0.349741 3.96059 0
M  V30 1973 N 183.284 -1.43765 0.645699 0
M  V30 1974 C 184.217 -2.2798 -0.100072 0
M  V30 1975 C 185.195 -1.39391 -0.837194 0
M  V30 1976 O 186.379 -1.68833 -0.838306 0
M  V30 1977 C 183.506 -3.18643 -1.14823 0
M  V30 1978 C 182.552 -4.2344 -0.510009 0
M  V30 1979 S 183.385 -5.30761 0.710824 0
M  V30 1980 C 184.541 -6.24992 -0.33699 0
M  V30 1981 H 184.774 -2.90884 0.614322 0
M  V30 1982 H 182.307 -1.48166 0.434304 0
M  V30 1983 H 184.265 -3.71424 -1.74799 0
M  V30 1984 H 182.926 -2.54932 -1.8349 0
M  V30 1985 H 182.119 -4.86948 -1.29991 0
M  V30 1986 H 181.721 -3.73997 0.0154577 0
M  V30 1987 H 184.013 -6.66691 -1.20537 0
M  V30 1988 H 184.956 -7.07612 0.262879 0
M  V30 1989 H 185.364 -5.60517 -0.669425 0
M  V30 1990 N 184.763 -0.387143 -1.52771 0
M  V30 1991 C 185.696 0.493123 -2.22808 0
M  V30 1992 C 186.674 1.0658 -1.22798 0
M  V30 1993 O 187.858 1.11785 -1.51777 0
M  V30 1994 C 184.985 1.68238 -2.93962 0
M  V30 1995 C 184.031 1.23515 -4.08223 0
M  V30 1996 S 184.864 0.21848 -5.35054 0
M  V30 1997 C 186.02 1.41357 -6.09729 0
M  V30 1998 H 186.253 -0.101625 -2.97126 0
M  V30 1999 H 183.786 -0.171323 -1.53447 0
M  V30 2000 H 185.744 2.36443 -3.35567 0
M  V30 2001 H 184.405 2.24842 -2.19328 0
M  V30 2002 H 183.598 2.12304 -4.57103 0
M  V30 2003 H 183.2 0.632044 -3.68621 0
M  V30 2004 H 185.492 2.34101 -6.3577 0
M  V30 2005 H 186.435 0.965736 -7.01484 0
M  V30 2006 H 186.843 1.6294 -5.40473 0
M  V30 2007 N 186.241 1.57166 -0.116904 0
M  V30 2008 C 187.488 1.95123 0.541603 0
M  V30 2009 C 187.816 1.00006 1.6682 0
M  V30 2010 O 187.071 0.0235658 1.95686 0
M  V30 2011 C 187.37 3.39508 1.11664 0
M  V30 2012 C 187.036 4.50762 0.111606 0
M  V30 2013 C 185.698 4.80918 -0.164758 0
M  V30 2014 C 188.05 5.18036 -0.573438 0
M  V30 2015 C 185.378 5.75666 -1.13249 0
M  V30 2016 C 187.73 6.13824 -1.52978 0
M  V30 2017 C 186.394 6.42374 -1.81415 0
M  V30 2018 H 185.664 0.714005 0.198187 0
M  V30 2019 H 188.311 1.9048 -0.197365 0
M  V30 2020 H 186.616 3.40835 1.93232 0
M  V30 2021 H 188.313 3.66189 1.63422 0
M  V30 2022 H 184.903 4.27272 0.337192 0
M  V30 2023 H 189.087 4.94896 -0.373092 0
M  V30 2024 H 184.343 5.96092 -1.35958 0
M  V30 2025 H 188.517 6.65039 -2.06629 0
M  V30 2026 H 186.144 7.15599 -2.56557 0
M  V30 2027 N 187.719 -0.156864 1.56817 0
M  V30 2028 C 188.651 -1.21883 1.94106 0
M  V30 2029 C 189.664 -1.3971 0.835754 0
M  V30 2030 O 190.853 -1.39457 1.11418 0
M  V30 2031 C 187.953 -2.58527 2.19127 0
M  V30 2032 C 187.126 -2.61809 3.50393 0
M  V30 2033 C 186.185 -3.7992 3.64071 0
M  V30 2034 O 185.211 -3.65249 4.36557 0
M  V30 2035 N 186.413 -4.96973 2.99997 0
M  V30 2036 H 189.178 -0.901974 2.85805 0
M  V30 2037 H 186.739 -0.346513 1.58148 0
M  V30 2038 H 188.731 -3.36034 2.25529 0
M  V30 2039 H 187.301 -2.82545 1.33742 0
M  V30 2040 H 186.521 -1.7029 3.5552 0
M  V30 2041 H 187.809 -2.61024 4.36742 0
M  V30 2042 H 187.207 -5.11794 2.41004 0
M  V30 2043 H 185.764 -5.7229 3.11974 0
M  V30 2044 N 189.197 -1.51736 -0.425897 0
M  V30 2045 C 190.127 -1.76827 -1.52494 0
M  V30 2046 C 191.108 -0.618524 -1.58456 0
M  V30 2047 O 192.293 -0.862416 -1.74 0
M  V30 2048 C 189.423 -1.90374 -2.90474 0
M  V30 2049 C 188.377 -3.0588 -2.99369 0
M  V30 2050 C 187.703 -3.04625 -4.3944 0
M  V30 2051 C 189.003 -4.45644 -2.72394 0
M  V30 2052 H 190.697 -2.68855 -1.31748 0
M  V30 2053 H 188.243 -1.29372 -0.632362 0
M  V30 2054 H 190.196 -2.0651 -3.6733 0
M  V30 2055 H 188.92 -0.95004 -3.12477 0
M  V30 2056 H 187.579 -2.89467 -2.24954 0
M  V30 2057 H 187.227 -2.0701 -4.58428 0
M  V30 2058 H 186.927 -3.82195 -4.46319 0
M  V30 2059 H 188.451 -3.22869 -5.18255 0
M  V30 2060 H 189.865 -4.62348 -3.38979 0
M  V30 2061 H 188.262 -5.25006 -2.9067 0
M  V30 2062 H 189.332 -4.54893 -1.67929 0
M  V30 2063 N 190.675 0.682077 -1.42076 0
M  V30 2064 C 191.605 1.80796 -1.47767 0
M  V30 2065 C 192.586 1.6677 -0.334954 0
M  V30 2066 O 193.771 1.863 -0.548264 0
M  V30 2067 C 190.901 3.19038 -1.37229 0
M  V30 2068 C 189.855 3.47789 -2.49453 0
M  V30 2069 C 189.181 4.8553 -2.23975 0
M  V30 2070 C 190.481 3.45411 -3.91776 0
M  V30 2071 H 192.175 1.7629 -2.41997 0
M  V30 2072 H 189.721 0.846721 -1.16476 0
M  V30 2073 H 191.674 3.97528 -1.39821 0
M  V30 2074 H 190.398 3.24204 -0.394907 0
M  V30 2075 H 189.057 2.71657 -2.46166 0
M  V30 2076 H 188.705 4.87337 -1.24547 0
M  V30 2077 H 188.405 5.0573 -2.99184 0
M  V30 2078 H 189.929 5.66312 -2.28304 0
M  V30 2079 H 191.343 4.13882 -3.96705 0
M  V30 2080 H 189.74 3.77145 -4.66778 0
M  V30 2081 H 190.81 2.44122 -4.18966 0
M  V30 2082 N 192.153 1.28127 0.917671 0
M  V30 2083 C 193.569 1.05749 1.19538 0
M  V30 2084 C 193.769 -0.202633 2.00479 0
M  V30 2085 O 192.825 -0.905382 2.3571 0
M  V30 2086 C 194.138 2.30273 1.93378 0
M  V30 2087 C 195.686 2.35412 2.06277 0
M  V30 2088 C 196.161 3.59692 2.83524 0
M  V30 2089 N 197.652 3.60309 2.91087 0
M  V30 2090 C 198.387 4.53147 3.51348 0
M  V30 2091 N 197.883 5.563 4.12919 0
M  V30 2092 N 199.676 4.40751 3.48849 0
M  V30 2093 H 191.827 2.09024 0.377184 0
M  V30 2094 H 194.09 0.919798 0.22951 0
M  V30 2095 H 193.796 3.22055 1.41328 0
M  V30 2096 H 193.67 2.36378 2.93947 0
M  V30 2097 H 196.057 1.4413 2.57508 0
M  V30 2098 H 196.138 2.33304 1.04895 0
M  V30 2099 H 195.782 4.51316 2.32973 0
M  V30 2100 H 195.712 3.59054 3.85211 0
M  V30 2101 H 198.203 2.85714 2.47338 0
M  V30 2102 H 198.516 6.2329 4.56869 0
M  V30 2103 H 196.861 5.60131 4.11435 0
M  V30 2104 H 200.052 3.59367 2.99955 0
M  V30 2105 H 200.225 5.13291 3.9552 0
M  V30 2106 N 193.631 -1.12557 1.10312 0
M  V30 2107 C 194.879 -1.83675 0.843091 0
M  V30 2108 C 195.2 -1.84435 -0.633131 0
M  V30 2109 O 194.47 -1.30657 -1.45964 0
M  V30 2110 H 193.05 -0.680138 0.308904 0
M  V30 2111 H 195.712 -1.36301 1.39313 0
M  V30 2112 H 194.808 -2.87908 1.2048 0
M  V30 2113 N 195.109 -0.891671 -1.2995 0
M  V30 2114 C 196.039 -0.379797 -2.30391 0
M  V30 2115 C 197.02 0.540919 -1.6127 0
M  V30 2116 O 198.205 0.453352 -1.88834 0
M  V30 2117 C 195.335 0.400654 -3.44981 0
M  V30 2118 C 194.289 -0.428905 -4.25846 0
M  V30 2119 C 193.615 0.478557 -5.32554 0
M  V30 2120 C 194.915 -1.67458 -4.94727 0
M  V30 2121 H 196.609 -1.21914 -2.73454 0
M  V30 2122 H 194.155 -0.587675 -1.31462 0
M  V30 2123 H 196.108 0.769434 -4.14316 0
M  V30 2124 H 194.832 1.27371 -3.0074 0
M  V30 2125 H 193.491 -0.779911 -3.58208 0
M  V30 2126 H 193.139 1.34951 -4.84559 0
M  V30 2127 H 192.839 -0.0727433 -5.87555 0
M  V30 2128 H 194.363 0.843705 -6.04743 0
M  V30 2129 H 195.777 -1.376 -5.56542 0
M  V30 2130 H 194.174 -2.16659 -5.59624 0
M  V30 2131 H 195.244 -2.41518 -4.20473 0
M  V30 2132 N 196.587 1.43421 -0.653314 0
M  V30 2133 C 197.864 1.95361 -0.0966581 0
M  V30 2134 C 198.244 1.59461 1.38331 0
M  V30 2135 O 197.592 0.879777 2.10884 0
M  V30 2136 C 197.802 3.47311 -0.342988 0
M  V30 2137 C 199.15 4.23875 -0.24798 0
M  V30 2138 O 200.174 3.55133 -0.275553 0
M  V30 2139 O 199.033 5.4623 -0.171771 0
M  V30 2140 H 196.127 0.826945 0.00956291 0
M  V30 2141 H 198.673 1.5336 -0.726558 0
M  V30 2142 H 197.445 3.66569 -1.36906 0
M  V30 2143 H 197.068 3.9631 0.319975 0
M  V30 2144 N 198.065 0.39524 1.52563 0
M  V30 2145 C 199.312 -0.185044 2.01653 0
M  V30 2146 C 199.64 -1.46317 1.28146 0
M  V30 2147 O 198.895 -1.9213 0.372074 0
M  V30 2148 C 199.194 -0.493444 3.53977 0
M  V30 2149 C 198.86 0.69384 4.4553 0
M  V30 2150 C 197.522 1.01954 4.70275 0
M  V30 2151 C 199.874 1.48785 4.99512 0
M  V30 2152 C 197.202 2.14069 5.46252 0
M  V30 2153 C 199.554 2.59965 5.76716 0
M  V30 2154 C 198.218 2.93037 5.99738 0
M  V30 2155 H 197.488 -0.0677123 0.7379 0
M  V30 2156 H 200.135 0.533807 1.8391 0
M  V30 2157 H 198.44 -1.29369 3.69825 0
M  V30 2158 H 200.137 -0.955163 3.89458 0
M  V30 2159 H 196.727 0.429987 4.26438 0
M  V30 2160 H 200.911 1.24946 4.80315 0
M  V30 2161 H 196.167 2.40056 5.62302 0
M  V30 2162 H 200.341 3.21887 6.17545 0
M  V30 2163 H 197.968 3.8003 6.58393 0
M  V30 2164 N 199.544 -1.57102 0.125237 0
M  V30 2165 C 200.474 -2.18659 -0.819174 0
M  V30 2166 C 201.455 -1.12843 -1.27281 0
M  V30 2167 O 202.64 -1.41104 -1.33429 0
M  V30 2168 C 199.77 -2.79096 -2.06695 0
M  V30 2169 C 198.724 -3.90548 -1.75088 0
M  V30 2170 C 198.05 -4.37821 -3.06948 0
M  V30 2171 C 199.35 -5.12356 -1.01435 0
M  V30 2172 H 201.044 -2.9783 -0.306202 0
M  V30 2173 H 198.59 -1.4326 -0.145839 0
M  V30 2174 H 200.543 -3.2082 -2.73226 0
M  V30 2175 H 199.267 -1.97223 -2.60328 0
M  V30 2176 H 197.926 -3.49409 -1.10944 0
M  V30 2177 H 197.574 -3.52799 -3.58527 0
M  V30 2178 H 197.274 -5.12982 -2.86571 0
M  V30 2179 H 198.798 -4.822 -3.74587 0
M  V30 2180 H 200.212 -5.5106 -1.58132 0
M  V30 2181 H 198.609 -5.9314 -0.911319 0
M  V30 2182 H 199.679 -4.849 -0.00218681 0
M  V30 2183 N 201.022 0.148545 -1.56898 0
M  V30 2184 C 201.972 1.1886 -1.94567 0
M  V30 2185 C 202.956 1.3863 -0.816735 0
M  V30 2186 O 204.148 1.40218 -1.08018 0
M  V30 2187 C 201.277 2.52262 -2.32849 0
M  V30 2188 C 200.363 2.36092 -3.52309 0
M  V30 2189 N 200.754 1.89674 -4.6889 0
M  V30 2190 C 199.052 2.66848 -3.57363 0
M  V30 2191 C 199.753 1.86511 -5.50989 0
M  V30 2192 N 198.729 2.29766 -4.92655 0
M  V30 2193 H 202.531 0.821793 -2.82177 0
M  V30 2194 H 200.045 0.356615 -1.58436 0
M  V30 2195 H 202.042 3.27447 -2.58039 0
M  V30 2196 H 200.702 2.89727 -1.46589 0
M  V30 2197 H 201.713 1.59663 -4.92674 0
M  V30 2198 H 198.39 3.08198 -2.81639 0
M  V30 2199 H 199.78 1.52128 -6.54452 0
M  V30 2200 N 202.5 1.5196 0.417844 0
M  V30 2201 C 203.725 1.69717 1.1921 0
M  V30 2202 C 204.15 0.402148 1.83751 0
M  V30 2203 O 203.508 -0.639593 1.69643 0
M  V30 2204 C 203.556 2.82794 2.2374 0
M  V30 2205 O 202.66 2.47756 3.29683 0
M  V30 2206 H 202.001 0.565263 0.348387 0
M  V30 2207 H 204.531 1.98621 0.490985 0
M  V30 2208 H 204.541 3.07452 2.68212 0
M  V30 2209 H 203.216 3.76756 1.76146 0
M  V30 2210 H 201.793 2.33739 2.90552 0
M  V30 2211 N 203.978 -0.674533 1.42435 0
M  V30 2212 C 204.928 -1.7807 1.4239 0
M  V30 2213 C 205.912 -1.58169 0.295202 0
M  V30 2214 O 207.104 -1.68643 0.537449 0
M  V30 2215 C 204.233 -3.16532 1.32901 0
M  V30 2216 C 203.319 -3.42055 2.50717 0
M  V30 2217 N 203.71 -3.38162 3.76139 0
M  V30 2218 C 202.008 -3.72692 2.44983 0
M  V30 2219 C 202.709 -3.63177 4.54398 0
M  V30 2220 N 201.685 -3.83954 3.84812 0
M  V30 2221 H 205.487 -1.73454 2.37257 0
M  V30 2222 H 203.001 -0.875381 1.36788 0
M  V30 2223 H 204.998 -3.958 1.30951 0
M  V30 2224 H 203.658 -3.22345 0.390363 0
M  V30 2225 H 204.669 -3.18057 4.0873 0
M  V30 2226 H 201.346 -3.85749 1.59699 0
M  V30 2227 H 202.736 -3.66125 5.63384 0
M  V30 2228 N 205.456 -1.28612 -0.910864 0
M  V30 2229 C 206.872 -1.06381 -1.18976 0
M  V30 2230 C 207.072 0.191998 -2.00583 0
M  V30 2231 O 206.128 0.892869 -2.36187 0
M  V30 2232 C 207.441 -2.31295 -1.92154 0
M  V30 2233 C 208.989 -2.36503 -2.05025 0
M  V30 2234 C 209.464 -3.61191 -2.81612 0
M  V30 2235 N 210.955 -3.61847 -2.89172 0
M  V30 2236 C 211.69 -4.55004 -3.4894 0
M  V30 2237 N 211.186 -5.58482 -4.09963 0
M  V30 2238 N 212.979 -4.42594 -3.46506 0
M  V30 2239 H 205.13 -2.09221 -0.366094 0
M  V30 2240 H 207.393 -0.921003 -0.224629 0
M  V30 2241 H 207.099 -3.228 -1.39618 0
M  V30 2242 H 206.973 -2.37934 -2.9269 0
M  V30 2243 H 209.36 -1.45494 -2.5674 0
M  V30 2244 H 209.441 -2.33857 -1.03657 0
M  V30 2245 H 209.085 -4.52545 -2.30576 0
M  V30 2246 H 209.015 -3.61092 -3.83302 0
M  V30 2247 H 211.506 -2.87022 -2.45819 0
M  V30 2248 H 211.819 -6.25704 -4.53557 0
M  V30 2249 H 210.164 -5.62305 -4.08459 0
M  V30 2250 H 213.355 -3.60953 -2.98045 0
M  V30 2251 H 213.528 -5.15381 -3.92793 0
M  V30 2252 N 206.934 1.1197 -1.10907 0
M  V30 2253 C 208.18 1.8386 -0.855773 0
M  V30 2254 C 208.513 1.84134 0.617103 0
M  V30 2255 O 207.788 1.29041 1.45529 0
M  V30 2256 C 208.071 3.31305 -1.411 0
M  V30 2257 C 207.924 3.39456 -2.9511 0
M  V30 2258 C 209.243 4.2721 -1.05736 0
M  V30 2259 H 206.362 0.667545 -0.312334 0
M  V30 2260 H 209.004 1.31331 -1.37303 0
M  V30 2261 H 207.154 3.76169 -0.97105 0
M  V30 2262 H 208.826 3.03191 -3.47668 0
M  V30 2263 H 207.069 2.79849 -3.31462 0
M  V30 2264 H 207.74 4.43209 -3.29044 0
M  V30 2265 H 210.216 3.90497 -1.43706 0
M  V30 2266 H 209.092 5.28775 -1.47269 0
M  V30 2267 H 209.353 4.42088 0.0325958 0
M  V30 2268 N 208.412 0.89855 1.29475 0
M  V30 2269 C 209.658 0.524658 1.95896 0
M  V30 2270 C 209.991 -0.926468 1.70676 0
M  V30 2271 O 209.266 -1.65665 1.01908 0
M  V30 2272 C 209.549 0.81633 3.50725 0
M  V30 2273 C 209.402 2.31907 3.85408 0
M  V30 2274 C 210.721 0.302038 4.39062 0
M  V30 2275 H 207.84 0.19209 0.711527 0
M  V30 2276 H 210.482 1.12502 1.53112 0
M  V30 2277 H 208.632 0.305369 3.87298 0
M  V30 2278 H 210.304 2.89949 3.58786 0
M  V30 2279 H 208.547 2.78027 3.32992 0
M  V30 2280 H 209.218 2.47373 4.93468 0
M  V30 2281 H 211.694 0.739551 4.09475 0
M  V30 2282 H 210.57 0.535331 5.46283 0
M  V30 2283 H 210.831 -0.797216 4.34853 0
M  V30 2284 N 209.89 -1.43072 0.660911 0
M  V30 2285 C 210.84 -2.27948 -0.04847 0
M  V30 2286 C 211.824 -1.40325 -0.787246 0
M  V30 2287 O 213.016 -1.63893 -0.668446 0
M  V30 2288 C 210.145 -3.28143 -1.00881 0
M  V30 2289 C 209.231 -4.23252 -0.268108 0
M  V30 2290 N 209.622 -5.00656 0.719528 0
M  V30 2291 C 207.92 -4.43092 -0.508493 0
M  V30 2292 C 208.621 -5.70019 1.15988 0
M  V30 2293 N 207.597 -5.41364 0.492584 0
M  V30 2294 H 211.399 -2.85213 0.709279 0
M  V30 2295 H 208.913 -1.54869 0.488822 0
M  V30 2296 H 210.91 -3.87736 -1.53188 0
M  V30 2297 H 209.57 -2.7244 -1.76654 0
M  V30 2298 H 210.581 -5.06115 1.09855 0
M  V30 2299 H 207.258 -3.98449 -1.24679 0
M  V30 2300 H 208.648 -6.4214 1.97751 0
M  V30 2301 N 211.368 -0.403325 -1.52352 0
M  V30 2302 C 212.784 -0.0539281 -1.59509 0
M  V30 2303 C 212.984 1.43307 -1.41652 0
M  V30 2304 O 212.04 2.19924 -1.24056 0
M  V30 2305 C 213.353 -0.543654 -2.95745 0
M  V30 2306 C 214.901 -0.501125 -3.08962 0
M  V30 2307 C 215.376 -0.967267 -4.47669 0
M  V30 2308 N 216.867 -0.923849 -4.53893 0
M  V30 2309 C 217.602 -1.25578 -5.5948 0
M  V30 2310 N 217.098 -1.65889 -6.72646 0
M  V30 2311 N 218.891 -1.17613 -5.49658 0
M  V30 2312 H 211.042 -1.37123 -1.62206 0
M  V30 2313 H 213.305 -0.56294 -0.76276 0
M  V30 2314 H 213.011 -1.58275 -3.14073 0
M  V30 2315 H 212.885 0.0498042 -3.77167 0
M  V30 2316 H 215.272 0.528909 -2.90321 0
M  V30 2317 H 215.353 -1.13056 -2.2946 0
M  V30 2318 H 214.997 -1.9956 -4.67053 0
M  V30 2319 H 214.927 -0.314698 -5.25659 0
M  V30 2320 H 217.418 -0.627403 -3.72655 0
M  V30 2321 H 217.731 -1.89543 -7.49195 0
M  V30 2322 H 216.076 -1.69787 -6.73942 0
M  V30 2323 H 219.267 -0.860115 -4.6013 0
M  V30 2324 H 219.44 -1.43812 -6.3184 0
M  V30 2325 N 212.846 1.57033 -0.133567 0
M  V30 2326 C 214.123 1.87256 0.56522 0
M  V30 2327 C 214.503 1.03726 1.83859 0
M  V30 2328 O 213.851 0.120247 2.28183 0
M  V30 2329 C 214.061 3.3865 0.843636 0
M  V30 2330 C 215.409 4.07574 1.19032 0
M  V30 2331 O 216.433 3.43752 0.933429 0
M  V30 2332 O 215.292 5.20259 1.67312 0
M  V30 2333 H 212.386 0.775678 0.286796 0
M  V30 2334 H 214.932 1.68855 -0.169168 0
M  V30 2335 H 213.704 3.91257 -0.0581149 0
M  V30 2336 H 213.327 3.62532 1.63268 0
M  V30 2337 N 214.325 -0.140222 1.56975 0
M  V30 2338 C 215.255 -1.17456 2.01808 0
M  V30 2339 C 216.236 -1.44415 0.898794 0
M  V30 2340 O 217.421 -1.5522 1.16707 0
M  V30 2341 C 214.551 -2.50607 2.40444 0
M  V30 2342 C 213.505 -2.38155 3.55621 0
M  V30 2343 C 212.831 -3.76078 3.80091 0
M  V30 2344 C 214.131 -1.85991 4.88062 0
M  V30 2345 H 215.825 -0.801743 2.88466 0
M  V30 2346 H 213.371 -0.38422 1.38779 0
M  V30 2347 H 215.324 -3.23197 2.7041 0
M  V30 2348 H 214.048 -2.89737 1.50732 0
M  V30 2349 H 212.707 -1.68016 3.25832 0
M  V30 2350 H 212.355 -4.12656 2.87618 0
M  V30 2351 H 212.055 -3.68606 4.57606 0
M  V30 2352 H 213.579 -4.50206 4.12488 0
M  V30 2353 H 214.993 -2.4838 5.16701 0
M  V30 2354 H 213.39 -1.89393 5.6943 0
M  V30 2355 H 214.46 -0.816023 4.77984 0
M  V30 2356 N 215.803 -1.52179 -0.40978 0
M  V30 2357 C 216.75 -1.75475 -1.49924 0
M  V30 2358 C 217.72 -0.597175 -1.54994 0
M  V30 2359 O 218.905 -0.834655 -1.71575 0
M  V30 2360 C 216.045 -1.9107 -2.87378 0
M  V30 2361 C 215.158 -3.18717 -2.91622 0
M  V30 2362 C 214.293 -3.24747 -4.20372 0
M  V30 2363 C 213.332 -4.46598 -4.18588 0
M  V30 2364 N 212.469 -4.50025 -5.38908 0
M  V30 2365 H 217.309 -2.68458 -1.29361 0
M  V30 2366 H 214.846 -1.33024 -0.627934 0
M  V30 2367 H 216.804 -1.98096 -3.6717 0
M  V30 2368 H 215.434 -1.01469 -3.06437 0
M  V30 2369 H 214.486 -3.20866 -2.04326 0
M  V30 2370 H 215.798 -4.08544 -2.86169 0
M  V30 2371 H 214.952 -3.30841 -5.08556 0
M  V30 2372 H 213.691 -2.32857 -4.28519 0
M  V30 2373 H 212.696 -4.40652 -3.28794 0
M  V30 2374 H 213.921 -5.39783 -4.12081 0
M  V30 2375 H 211.867 -3.61017 -5.47725 0
M  V30 2376 H 211.784 -5.33697 -5.35447 0
M  V30 2377 H 213.052 -4.60347 -6.29048 0
M  V30 2378 N 217.281 0.66697 -1.42791 0
M  V30 2379 C 218.692 1.2478 -1.38877 0
M  V30 2380 C 219.043 1.96012 -0.0859426 0
M  V30 2381 O 218.168 2.00463 0.815081 0
M  V30 2382 C 218.763 2.26938 -2.51564 0
M  V30 2383 C 217.322 2.80529 -2.50959 0
M  V30 2384 C 216.469 1.54965 -2.29959 0
M  V30 2385 H 219.42 0.459853 -1.51892 0
M  V30 2386 H 219.441 3.08834 -2.22265 0
M  V30 2387 H 218.953 1.75065 -3.46372 0
M  V30 2388 H 217.054 3.36502 -1.59991 0
M  V30 2389 H 217.167 3.29012 -3.48265 0
M  V30 2390 H 215.531 1.81817 -1.78366 0
M  V30 2391 H 216.314 1.05047 -3.26833 0
M  V30 2392 N 218.759 1.29093 0.90403 0
M  V30 2393 C 219.691 1.09658 2.01266 0
M  V30 2394 C 220.704 0.0453729 1.62737 0
M  V30 2395 O 221.893 0.289446 1.76138 0
M  V30 2396 C 218.993 0.646278 3.32681 0
M  V30 2397 C 218.166 1.77505 3.99763 0
M  V30 2398 C 217.225 1.31649 5.09465 0
M  V30 2399 O 216.251 2.02045 5.32134 0
M  V30 2400 N 217.453 0.184997 5.80205 0
M  V30 2401 H 220.218 2.05135 2.18494 0
M  V30 2402 H 217.779 1.20975 1.07594 0
M  V30 2403 H 219.771 0.322906 4.0341 0
M  V30 2404 H 218.341 -0.215916 3.11853 0
M  V30 2405 H 217.561 2.26752 3.22455 0
M  V30 2406 H 218.849 2.53198 4.41325 0
M  V30 2407 H 218.247 -0.402021 5.6427 0
M  V30 2408 H 216.804 -0.0790358 6.51752 0
M  V30 2409 N 220.237 -1.11381 1.11499 0
M  V30 2410 C 221.185 -2.19522 0.768956 0
M  V30 2411 C 222.179 -1.67693 -0.239857 0
M  V30 2412 O 223.385 -1.79727 -0.0990755 0
M  V30 2413 H 219.76 -0.715711 0.230786 0
M  V30 2414 H 221.731 -2.45954 1.68964 0
M  V30 2415 C 220.48 -3.46945 0.229073 0
M  V30 2416 H 219.803 -3.8718 0.996596 0
M  V30 2417 H 221.243 -4.23993 0.0251441 0
M  V30 2418 C 219.702 -3.2042 -1.04079 0
M  V30 2419 O 220.232 -3.41178 -2.12038 0
M  V30 2420 N 218.438 -2.74151 -0.963823 0
M  V30 2421 H 217.985 -2.57459 -0.0851722 0
M  V30 2422 H 217.943 -2.56781 -1.81414 0
M  V30 2423 N 221.715 -0.905404 -1.28997 0
M  V30 2424 C 222.964 -0.530191 -1.94607 0
M  V30 2425 C 223.277 0.929185 -1.72121 0
M  V30 2426 O 224.483 1.41218 -2.31883 0
M  V30 2427 C 222.939 -0.897333 -3.48534 0
M  V30 2428 C 222.547 -2.37587 -3.79811 0
M  V30 2429 C 224.291 -0.592304 -4.20347 0
M  V30 2430 C 222.198 -2.68357 -5.27009 0
M  V30 2431 H 221.128 -0.194558 -0.728466 0
M  V30 2432 H 223.779 -1.10318 -1.46636 0
M  V30 2433 H 222.161 -0.253214 -3.9519 0
M  V30 2434 H 223.335 -3.06602 -3.43994 0
M  V30 2435 H 221.65 -2.6505 -3.2115 0
M  V30 2436 H 224.247 -0.798975 -5.28697 0
M  V30 2437 H 224.59 0.469474 -4.13644 0
M  V30 2438 H 225.123 -1.19452 -3.79442 0
M  V30 2439 H 221.862 -3.73355 -5.38782 0
M  V30 2440 H 221.382 -2.03971 -5.64053 0
M  V30 2441 H 223.061 -2.54922 -5.94663 0
M  V30 2442 N 223.193 1.4272 -0.668489 0
M  V30 2443 C 224.123 2.335 -0.000100175 0
M  V30 2444 C 225.104 1.50328 0.795964 0
M  V30 2445 O 226.289 1.78949 0.754385 0
M  V30 2446 C 223.419 3.33874 0.956302 0
M  V30 2447 C 222.373 4.27152 0.269278 0
M  V30 2448 C 221.699 5.17684 1.33818 0
M  V30 2449 C 222.999 5.15373 -0.847805 0
M  V30 2450 H 224.693 2.89639 -0.758244 0
M  V30 2451 H 222.239 1.39269 -0.366079 0
M  V30 2452 H 224.192 3.9629 1.43292 0
M  V30 2453 H 222.916 2.76025 1.74579 0
M  V30 2454 H 221.575 3.66123 -0.187042 0
M  V30 2455 H 221.223 4.56165 2.1195 0
M  V30 2456 H 220.923 5.80918 0.883659 0
M  V30 2457 H 222.447 5.82974 1.81586 0
M  V30 2458 H 223.861 5.7151 -0.452681 0
M  V30 2459 H 222.258 5.87407 -1.22773 0
M  V30 2460 H 223.328 4.5415 -1.69929 0
M  V30 2461 N 224.671 0.411399 1.52136 0
M  V30 2462 C 225.917 -0.163888 2.02137 0
M  V30 2463 C 226.25 -1.44597 1.29636 0
M  V30 2464 O 225.525 -1.90272 0.403353 0
M  V30 2465 C 225.808 -0.40927 3.57767 0
M  V30 2466 C 225.661 0.889643 4.40914 0
M  V30 2467 C 226.98 -1.19042 4.23694 0
M  V30 2468 H 224.099 -0.0580896 0.734707 0
M  V30 2469 H 226.741 0.54531 1.82007 0
M  V30 2470 H 224.891 -1.0134 3.7505 0
M  V30 2471 H 226.563 1.52575 4.35337 0
M  V30 2472 H 224.806 1.50011 4.07037 0
M  V30 2473 H 225.477 0.672314 5.4789 0
M  V30 2474 H 227.953 -0.678942 4.10524 0
M  V30 2475 H 226.829 -1.33086 5.32522 0
M  V30 2476 H 227.09 -2.21166 3.82803 0
M  V30 2477 N 226.149 -1.5696 0.141893 0
M  V30 2478 C 227.377 -2.00322 -0.517579 0
M  V30 2479 C 227.792 -1.02193 -1.58752 0
M  V30 2480 O 227.149 -0.0181619 -1.82491 0
M  V30 2481 C 227.2 -3.43618 -1.12289 0
M  V30 2482 O 226.921 -4.37995 -0.0956929 0
M  V30 2483 C 228.422 -4.02231 -1.86347 0
M  V30 2484 H 225.642 -0.657243 -0.135177 0
M  V30 2485 H 228.186 -2.03146 0.234973 0
M  V30 2486 H 226.341 -3.41662 -1.82609 0
M  V30 2487 H 226.755 -5.21729 -0.538469 0
M  V30 2488 H 228.229 -5.04509 -2.23997 0
M  V30 2489 H 228.706 -3.42655 -2.74744 0
M  V30 2490 H 229.312 -4.07802 -1.20737 0
M  V30 2491 N 227.627 0.131896 -1.57047 0
M  V30 2492 C 228.852 0.860418 -1.8871 0
M  V30 2493 C 229.277 1.73251 -0.73251 0
M  V30 2494 O 228.635 1.785 0.317429 0
M  V30 2495 C 228.683 1.68047 -3.19049 0
M  V30 2496 O 227.787 2.7862 -3.04047 0
M  V30 2497 H 227.128 0.238743 -0.619595 0
M  V30 2498 H 229.658 0.118169 -2.04258 0
M  V30 2499 H 229.668 2.07238 -3.51449 0
M  V30 2500 H 228.343 1.04018 -4.02682 0
M  V30 2501 H 226.92 2.42726 -2.83088 0
M  V30 2502 N 229.106 1.52395 0.401703 0
M  V30 2503 C 230.331 1.70972 1.17403 0
M  V30 2504 C 230.756 0.421615 1.83314 0
M  V30 2505 O 230.114 -0.621564 1.70312 0
M  V30 2506 C 230.162 2.85151 2.20728 0
M  V30 2507 O 229.266 2.51238 3.27037 0
M  V30 2508 H 228.607 0.568927 0.342372 0
M  V30 2509 H 231.137 1.99131 0.469891 0
M  V30 2510 H 231.147 3.10279 2.64936 0
M  V30 2511 H 229.822 3.78603 1.7214 0
M  V30 2512 H 228.399 2.36808 2.88057 0
M  V30 2513 N 230.584 -0.659388 1.43143 0
M  V30 2514 C 231.832 -1.41654 1.44147 0
M  V30 2515 C 232.153 -1.94893 0.0645739 0
M  V30 2516 O 231.423 -1.74044 -0.899198 0
M  V30 2517 H 230.003 -0.525708 0.530697 0
M  V30 2518 H 232.665 -0.778097 1.78694 0
M  V30 2519 H 231.761 -2.26195 2.1504 0
M  V30 2520 N 232.062 -1.29571 -0.897171 0
M  V30 2521 C 232.994 -1.10724 -2.00681 0
M  V30 2522 C 234.007 -0.0540026 -1.6271 0
M  V30 2523 O 235.196 -0.298783 -1.75982 0
M  V30 2524 C 232.296 -0.663912 -3.32333 0
M  V30 2525 C 231.469 -1.79622 -3.98816 0
M  V30 2526 C 230.528 -1.34349 -5.0876 0
M  V30 2527 O 229.554 -2.04864 -5.31055 0
M  V30 2528 N 230.756 -0.215764 -5.80099 0
M  V30 2529 H 233.521 -2.06291 -2.17403 0
M  V30 2530 H 231.082 -1.21544 -1.06951 0
M  V30 2531 H 233.074 -0.344295 -4.03233 0
M  V30 2532 H 231.644 0.199375 -3.11964 0
M  V30 2533 H 230.864 -2.28459 -3.21248 0
M  V30 2534 H 232.152 -2.55535 -4.39976 0
M  V30 2535 H 231.55 0.372091 -5.64475 0
M  V30 2536 H 230.107 0.0444707 -6.51785 0
M  V30 2537 N 233.54 1.10788 -1.12088 0
M  V30 2538 C 234.789 1.82036 -0.868659 0
M  V30 2539 C 235.102 1.85929 0.607426 0
M  V30 2540 O 236.308 2.53346 0.97613 0
M  V30 2541 C 234.764 3.26951 -1.50435 0
M  V30 2542 C 234.372 3.31367 -3.01496 0
M  V30 2543 C 236.116 4.03053 -1.33225 0
M  V30 2544 C 234.023 4.7072 -3.58017 0
M  V30 2545 H 232.953 0.682108 -0.321318 0
M  V30 2546 H 235.604 1.24618 -1.34694 0
M  V30 2547 H 233.986 3.84343 -0.953735 0
M  V30 2548 H 235.16 2.83819 -3.6302 0
M  V30 2549 H 233.475 2.6875 -3.18061 0
M  V30 2550 H 236.072 5.05981 -1.72878 0
M  V30 2551 H 236.415 4.15387 -0.275529 0
M  V30 2552 H 236.948 3.52066 -1.85188 0
M  V30 2553 H 233.687 4.63585 -4.63432 0
M  V30 2554 H 233.207 5.1865 -3.01268 0
M  V30 2555 H 234.886 5.39685 -3.56859 0
M  V30 2556 N 235.018 0.912232 1.28515 0
M  V30 2557 C 235.965 0.397954 2.27343 0
M  V30 2558 C 236.935 -0.526766 1.57526 0
M  V30 2559 O 238.12 -0.449292 1.85435 0
M  V30 2560 C 235.26 -0.357263 3.43246 0
M  V30 2561 C 234.373 0.599788 4.27816 0
M  V30 2562 C 233.508 -0.173725 5.30916 0
M  V30 2563 C 232.547 0.777039 6.07148 0
M  V30 2564 N 231.684 0.0371398 7.0209 0
M  V30 2565 H 236.524 1.24577 2.70711 0
M  V30 2566 H 234.061 0.625612 1.33133 0
M  V30 2567 H 236.019 -0.8113 4.09236 0
M  V30 2568 H 234.649 -1.16943 3.00872 0
M  V30 2569 H 233.701 1.17235 3.61884 0
M  V30 2570 H 235.013 1.32704 4.80823 0
M  V30 2571 H 234.167 -0.688394 6.02782 0
M  V30 2572 H 232.906 -0.934041 4.78672 0
M  V30 2573 H 231.911 1.3031 5.34134 0
M  V30 2574 H 233.136 1.53689 6.61481 0
M  V30 2575 H 231.082 -0.705213 6.52198 0
M  V30 2576 H 230.999 0.704249 7.52713 0
M  V30 2577 H 232.267 -0.457383 7.78157 0
M  V30 2578 N 236.496 -1.42363 0.676048 0
M  V30 2579 C 237.426 -2.33497 0.0124832 0
M  V30 2580 C 238.407 -1.50748 -0.787981 0
M  V30 2581 O 239.592 -1.79346 -0.744884 0
M  V30 2582 C 236.722 -3.34377 -0.938582 0
M  V30 2583 C 235.676 -4.27289 -0.246622 0
M  V30 2584 C 235.002 -5.18386 -1.31071 0
M  V30 2585 C 236.302 -5.14916 0.875125 0
M  V30 2586 H 237.996 -2.89233 0.773593 0
M  V30 2587 H 235.542 -1.39073 0.37346 0
M  V30 2588 H 237.495 -3.97044 -1.41188 0
M  V30 2589 H 236.219 -2.76947 -1.73113 0
M  V30 2590 H 234.878 -3.66018 0.206456 0
M  V30 2591 H 234.526 -4.57282 -2.09528 0
M  V30 2592 H 234.226 -5.81378 -0.852839 0
M  V30 2593 H 235.75 -5.83929 -1.78492 0
M  V30 2594 H 237.164 -5.71262 0.482983 0
M  V30 2595 H 235.561 -5.86747 1.25887 0
M  V30 2596 H 236.631 -4.53242 1.72335 0
M  V30 2597 N 237.974 -0.419461 -1.51915 0
M  V30 2598 C 238.937 0.389116 -2.25873 0
M  V30 2599 C 239.937 0.964924 -1.28631 0
M  V30 2600 O 241.127 0.842179 -1.52489 0
M  V30 2601 C 238.259 1.54874 -3.03689 0
M  V30 2602 H 239.452 -0.258799 -2.98781 0
M  V30 2603 H 237.005 -0.172209 -1.55348 0
M  V30 2604 H 237.74 2.23323 -2.35154 0
M  V30 2605 H 237.525 1.14223 -3.75094 0
M  V30 2606 H 239.015 2.12046 -3.59759 0
M  V30 2607 N 239.452 1.56882 -0.150215 0
M  V30 2608 C 240.729 1.87844 0.545327 0
M  V30 2609 C 241.109 1.0567 1.82749 0
M  V30 2610 O 240.457 0.144442 2.28043 0
M  V30 2611 C 240.667 3.39526 0.80767 0
M  V30 2612 C 242.015 4.08814 1.14703 0
M  V30 2613 O 243.039 3.44723 0.896917 0
M  V30 2614 O 241.898 5.22004 1.61784 0
M  V30 2615 H 238.992 0.778677 0.278553 0
M  V30 2616 H 241.538 1.68666 -0.187068 0
M  V30 2617 H 240.31 3.91173 -0.0996096 0
M  V30 2618 H 239.933 3.64243 1.59413 0
M  V30 2619 N 240.93 -0.123565 1.57115 0
M  V30 2620 C 242.177 -0.832153 1.84612 0
M  V30 2621 C 242.505 -1.80093 0.734627 0
M  V30 2622 O 241.76 -1.93766 -0.27442 0
M  V30 2623 C 242.059 -1.62016 3.18568 0
M  V30 2624 C 241.725 -0.796084 4.43817 0
M  V30 2625 C 240.387 -0.568816 4.77826 0
M  V30 2626 C 242.739 -0.221364 5.2073 0
M  V30 2627 C 240.067 0.243499 5.86194 0
M  V30 2628 C 242.419 0.578117 6.29953 0
M  V30 2629 C 241.083 0.815744 6.62497 0
M  V30 2630 H 240.353 -0.304507 0.675542 0
M  V30 2631 H 243 -0.0947248 1.91266 0
M  V30 2632 H 241.305 -2.42837 3.0747 0
M  V30 2633 H 243.002 -2.17231 3.37064 0
M  V30 2634 H 239.592 -0.983307 4.17168 0
M  V30 2635 H 243.776 -0.384173 4.94811 0
M  V30 2636 H 239.032 0.436871 6.09837 0
M  V30 2637 H 243.206 1.03046 6.88734 0
M  V30 2638 H 240.833 1.44701 7.46301 0
M  V30 2639 N 242.408 -1.52605 -0.393616 0
M  V30 2640 C 243.656 -1.67093 -1.13685 0
M  V30 2641 C 243.977 -0.411011 -1.90619 0
M  V30 2642 O 243.247 0.574491 -1.87287 0
M  V30 2643 H 241.827 -0.615923 -0.422668 0
M  V30 2644 H 244.489 -1.89704 -0.447039 0
M  V30 2645 H 243.585 -2.51922 -1.84232 0
M  V30 2646 N 243.887 0.651787 -1.4349 0
M  V30 2647 C 244.817 1.77621 -1.51569 0
M  V30 2648 C 245.798 1.66022 -0.370253 0
M  V30 2649 O 246.983 1.85095 -0.587658 0
M  V30 2650 C 244.113 3.16056 -1.43966 0
M  V30 2651 C 243.067 3.4242 -2.56774 0
M  V30 2652 C 242.393 4.8067 -2.34223 0
M  V30 2653 C 243.693 3.37023 -3.99015 0
M  V30 2654 H 245.387 1.71117 -2.45681 0
M  V30 2655 H 242.933 0.821825 -1.18246 0
M  V30 2656 H 244.886 3.94472 -1.48221 0
M  V30 2657 H 243.61 3.23293 -0.463586 0
M  V30 2658 H 242.269 2.66375 -2.51873 0
M  V30 2659 H 241.917 4.84585 -1.34856 0
M  V30 2660 H 241.617 4.9927 -3.09844 0
M  V30 2661 H 243.141 5.61342 -2.40265 0
M  V30 2662 H 244.555 4.05374 -4.05395 0
M  V30 2663 H 242.952 3.67159 -4.74673 0
M  V30 2664 H 244.022 2.3518 -4.2405 0
M  V30 2665 N 245.365 1.30045 0.890287 0
M  V30 2666 C 246.328 1.15963 1.977 0
M  V30 2667 C 247.328 0.0923777 1.60534 0
M  V30 2668 O 248.518 0.340071 1.70848 0
M  V30 2669 C 245.65 0.775451 3.31963 0
M  V30 2670 H 246.843 2.12502 2.11619 0
M  V30 2671 H 244.396 1.13366 1.07601 0
M  V30 2672 H 245.131 -0.189671 3.23745 0
M  V30 2673 H 244.916 1.54668 3.60306 0
M  V30 2674 H 246.406 0.700251 4.11687 0
M  V30 2675 N 246.843 -1.10192 1.12674 0
M  V30 2676 C 248.259 -1.34235 0.863317 0
M  V30 2677 C 248.459 -1.95062 -0.505277 0
M  V30 2678 O 247.515 -2.19192 -1.25345 0
M  V30 2679 C 248.828 -2.2616 1.98172 0
M  V30 2680 C 250.376 -2.3969 2.0129 0
M  V30 2681 C 250.851 -3.34946 3.1237 0
M  V30 2682 N 252.342 -3.42515 3.11829 0
M  V30 2683 C 253.077 -4.16199 3.94419 0
M  V30 2684 N 252.573 -4.92747 4.87004 0
M  V30 2685 N 254.366 -4.11843 3.82547 0
M  V30 2686 H 246.517 -0.690798 2.00853 0
M  V30 2687 H 248.78 -0.366774 0.874174 0
M  V30 2688 H 248.486 -1.8868 2.96804 0
M  V30 2689 H 248.36 -3.26488 1.88906 0
M  V30 2690 H 250.747 -2.76438 1.03276 0
M  V30 2691 H 250.828 -1.39169 2.14629 0
M  V30 2692 H 250.472 -2.98923 4.10619 0
M  V30 2693 H 250.402 -4.35353 2.96269 0
M  V30 2694 H 252.893 -2.87926 2.44759 0
M  V30 2695 H 253.206 -5.46376 5.46528 0
M  V30 2696 H 251.551 -4.91862 4.91016 0
M  V30 2697 H 254.742 -3.51136 3.0955 0
M  V30 2698 H 254.915 -4.69007 4.47142 0
M  V30 2699 N 248.321 -0.919034 -1.28029 0
M  V30 2700 C 249.57 -0.550802 -1.94034 0
M  V30 2701 C 249.883 0.910877 -1.73096 0
M  V30 2702 O 251.089 1.3875 -2.33368 0
M  V30 2703 C 249.545 -0.934249 -3.47563 0
M  V30 2704 C 249.153 -2.41602 -3.7727 0
M  V30 2705 C 250.897 -0.636854 -4.19696 0
M  V30 2706 C 248.804 -2.73932 -5.24133 0
M  V30 2707 H 247.734 -0.202273 -0.726362 0
M  V30 2708 H 250.385 -1.11867 -1.45458 0
M  V30 2709 H 248.767 -0.295115 -3.94899 0
M  V30 2710 H 249.941 -3.10233 -3.40723 0
M  V30 2711 H 248.256 -2.68441 -3.18321 0
M  V30 2712 H 250.853 -0.855005 -5.2782 0
M  V30 2713 H 251.196 0.425575 -4.14119 0
M  V30 2714 H 251.729 -1.23469 -3.78154 0
M  V30 2715 H 248.468 -3.79049 -5.34792 0
M  V30 2716 H 247.988 -2.09942 -5.61858 0
M  V30 2717 H 249.667 -2.61215 -5.91925 0
M  V30 2718 N 249.799 1.42003 -0.683588 0
M  V30 2719 C 251.029 2.05448 -0.217866 0
M  V30 2720 C 251.437 1.51491 1.13346 0
M  V30 2721 O 250.78 0.653048 1.717 0
M  V30 2722 C 250.842 3.59399 -0.0850118 0
M  V30 2723 C 250.506 4.36093 -1.36645 0
M  V30 2724 C 251.503 4.66169 -2.30179 0
M  V30 2725 C 249.188 4.75578 -1.61649 0
M  V30 2726 C 251.182 5.34676 -3.46988 0
M  V30 2727 C 248.869 5.43824 -2.78745 0
M  V30 2728 C 249.867 5.73299 -3.71238 0
M  V30 2729 O 249.555 6.40142 -4.86285 0
M  V30 2730 H 249.287 0.668344 -0.101454 0
M  V30 2731 H 251.841 1.82974 -0.933248 0
M  V30 2732 H 250.071 3.80566 0.686031 0
M  V30 2733 H 251.76 4.04457 0.341973 0
M  V30 2734 H 252.526 4.36156 -2.12115 0
M  V30 2735 H 248.405 4.52025 -0.905243 0
M  V30 2736 H 251.949 5.57599 -4.19201 0
M  V30 2737 H 247.846 5.73254 -2.96732 0
M  V30 2738 H 248.614 6.58636 -4.85944 0
M  V30 2739 N 251.277 0.427512 1.51691 0
M  V30 2740 C 252.502 -0.143601 2.06902 0
M  V30 2741 C 252.927 -1.36536 1.29382 0
M  V30 2742 O 252.285 -1.78289 0.329043 0
M  V30 2743 C 252.333 -0.454207 3.57728 0
M  V30 2744 O 251.437 -1.54228 3.82475 0
M  V30 2745 H 250.778 -0.00617128 0.663971 0
M  V30 2746 H 253.308 0.606014 1.95419 0
M  V30 2747 H 253.318 -0.707525 4.01818 0
M  V30 2748 H 251.993 0.438812 4.13579 0
M  V30 2749 H 250.57 -1.2797 3.50254 0
M  V30 2750 N 252.755 -1.56801 0.158532 0
M  V30 2751 C 254.002 -1.9649 -0.489679 0
M  V30 2752 C 254.33 -1.04394 -1.6411 0
M  V30 2753 O 253.585 -0.0754401 -1.95555 0
M  V30 2754 C 253.884 -3.4235 -1.02623 0
M  V30 2755 C 253.55 -4.50899 0.00794526 0
M  V30 2756 C 252.212 -4.80312 0.292207 0
M  V30 2757 C 254.564 -5.16333 0.710584 0
M  V30 2758 C 251.892 -5.72461 1.28472 0
M  V30 2759 C 254.244 -6.09553 1.69199 0
M  V30 2760 C 252.908 -6.37339 1.98383 0
M  V30 2761 H 252.178 -0.719009 -0.179186 0
M  V30 2762 H 254.825 -1.8989 0.247798 0
M  V30 2763 H 253.13 -3.45838 -1.84128 0
M  V30 2764 H 254.827 -3.70393 -1.53656 0
M  V30 2765 H 251.417 -4.28015 -0.22379 0
M  V30 2766 H 255.601 -4.93732 0.504174 0
M  V30 2767 H 250.857 -5.92278 1.51714 0
M  V30 2768 H 255.031 -6.59327 2.24189 0
M  V30 2769 H 252.658 -7.08546 2.7544 0
M  V30 2770 N 254.233 0.115231 -1.57178 0
M  V30 2771 C 255.165 1.16694 -1.97269 0
M  V30 2772 C 256.178 1.37445 -0.872502 0
M  V30 2773 O 257.367 1.36454 -1.15077 0
M  V30 2774 C 254.467 2.52627 -2.25905 0
M  V30 2775 C 253.64 2.52427 -3.57211 0
M  V30 2776 C 252.699 3.70134 -3.74016 0
M  V30 2777 O 251.725 3.53546 -4.46087 0
M  V30 2778 N 252.927 4.88844 -3.13068 0
M  V30 2779 H 255.692 0.82588 -2.88096 0
M  V30 2780 H 253.253 0.304461 -1.59011 0
M  V30 2781 H 255.245 3.29937 -2.34359 0
M  V30 2782 H 253.815 2.789 -1.41186 0
M  V30 2783 H 253.035 1.60805 -3.5991 0
M  V30 2784 H 254.323 2.49353 -4.43509 0
M  V30 2785 H 253.721 5.05225 -2.54489 0
M  V30 2786 H 252.278 5.63817 -3.27037 0
M  V30 2787 N 255.711 1.52812 0.385517 0
M  V30 2788 C 256.644 1.72592 1.49289 0
M  V30 2789 C 257.622 0.573819 1.52138 0
M  V30 2790 O 258.806 0.80404 1.70492 0
M  V30 2791 C 255.933 1.78669 2.87741 0
M  V30 2792 C 254.979 3.00455 3.02703 0
M  V30 2793 S 255.812 4.60366 2.73538 0
M  V30 2794 C 256.968 4.69263 4.14177 0
M  V30 2795 H 257.201 2.66248 1.32285 0
M  V30 2796 H 254.734 1.43148 0.578611 0
M  V30 2797 H 256.692 1.82855 3.67524 0
M  V30 2798 H 255.353 0.861 3.02069 0
M  V30 2799 H 254.546 3.01258 4.04054 0
M  V30 2800 H 254.148 2.94278 2.30817 0
M  V30 2801 H 256.44 4.48092 5.08153 0
M  V30 2802 H 257.383 5.71276 4.18388 0
M  V30 2803 H 257.791 3.98072 4.00249 0
M  V30 2804 N 257.189 -0.644168 1.43834 0
M  V30 2805 C 258.152 -1.73857 1.49353 0
M  V30 2806 C 259.152 -1.56315 0.377112 0
M  V30 2807 O 260.342 -1.62048 0.639226 0
M  V30 2808 C 257.474 -3.12819 1.35488 0
M  V30 2809 H 258.667 -1.70342 2.46827 0
M  V30 2810 H 256.22 -0.856652 1.30733 0
M  V30 2811 H 256.955 -3.2194 0.390569 0
M  V30 2812 H 256.74 -3.26958 2.16428 0
M  V30 2813 H 258.23 -3.92606 1.42302 0
M  V30 2814 N 258.668 -1.30515 -0.883378 0
M  V30 2815 C 259.598 -1.19607 -2.00541 0
M  V30 2816 C 260.579 -0.086346 -1.69881 0
M  V30 2817 O 261.764 -0.268654 -1.92333 0
M  V30 2818 C 258.894 -0.888758 -3.35736 0
M  V30 2819 C 257.848 -1.95659 -3.8066 0
M  V30 2820 C 257.174 -1.50224 -5.13164 0
M  V30 2821 C 258.474 -3.36788 -3.99213 0
M  V30 2822 H 260.168 -2.13476 -2.09925 0
M  V30 2823 H 257.714 -1.02775 -1.00863 0
M  V30 2824 H 259.667 -0.799094 -4.13754 0
M  V30 2825 H 258.391 0.0856125 -3.26488 0
M  V30 2826 H 257.05 -2.03591 -3.04871 0
M  V30 2827 H 256.698 -0.516092 -5.00345 0
M  V30 2828 H 256.398 -2.2165 -5.44192 0
M  V30 2829 H 257.922 -1.42639 -5.93706 0
M  V30 2830 H 259.336 -3.31605 -4.67665 0
M  V30 2831 H 257.733 -4.06314 -4.41621 0
M  V30 2832 H 258.803 -3.78561 -3.03017 0
M  V30 2833 N 260.146 1.09593 -1.13257 0
M  V30 2834 C 261.374 1.855 -0.916378 0
M  V30 2835 C 261.789 1.81069 0.534738 0
M  V30 2836 O 261.146 1.20562 1.37007 0
M  V30 2837 C 261.197 3.33546 -1.39388 0
M  V30 2838 O 260.918 3.37927 -2.78813 0
M  V30 2839 C 262.419 4.26299 -1.21588 0
M  V30 2840 H 259.639 0.585991 -0.326887 0
M  V30 2841 H 262.183 1.38488 -1.5047 0
M  V30 2842 H 260.338 3.77992 -0.848597 0
M  V30 2843 H 260.752 4.30254 -2.9997 0
M  V30 2844 H 262.226 5.28341 -1.59876 0
M  V30 2845 H 262.703 4.38918 -0.157376 0
M  V30 2846 H 263.309 3.87668 -1.7491 0
M  V30 2847 N 261.624 0.925811 1.2754 0
M  V30 2848 C 262.849 0.580924 1.99098 0
M  V30 2849 C 263.274 -0.833555 1.68622 0
M  V30 2850 O 262.632 -1.55903 0.925422 0
M  V30 2851 C 262.68 0.811186 3.51358 0
M  V30 2852 O 261.784 -0.124129 4.12213 0
M  V30 2853 H 261.125 0.223873 0.625122 0
M  V30 2854 H 263.655 1.24455 1.62395 0
M  V30 2855 H 263.665 0.72601 4.01489 0
M  V30 2856 H 262.34 1.84227 3.72872 0
M  V30 2857 H 260.917 0.0108006 3.72898 0
M  V30 2858 N 263.102 -1.41638 0.69111 0
M  V30 2859 C 264.348 -2.01598 0.220519 0
M  V30 2860 C 264.681 -1.54594 -1.17535 0
M  V30 2861 O 263.956 -0.755177 -1.79241 0
M  V30 2862 C 264.239 -3.59062 0.273243 0
M  V30 2863 C 264.092 -4.16203 1.70573 0
M  V30 2864 C 265.411 -4.38546 -0.369457 0
M  V30 2865 H 262.53 -0.732468 0.0816045 0
M  V30 2866 H 265.172 -1.68445 0.878986 0
M  V30 2867 H 263.322 -3.87435 -0.287411 0
M  V30 2868 H 264.994 -3.98722 2.31989 0
M  V30 2869 H 263.237 -3.71414 2.2413 0
M  V30 2870 H 263.908 -5.25358 1.69419 0
M  V30 2871 H 266.384 -4.1596 0.107977 0
M  V30 2872 H 265.26 -5.48069 -0.302002 0
M  V30 2873 H 265.521 -4.17662 -1.44951 0
M  V30 2874 N 264.58 -0.43555 -1.51462 0
M  V30 2875 C 265.826 0.131709 -2.02372 0
M  V30 2876 C 266.159 1.42516 -1.3192 0
M  V30 2877 O 265.434 1.89606 -0.433573 0
M  V30 2878 C 265.717 0.352301 -3.58373 0
M  V30 2879 C 265.57 -0.959676 -4.39443 0
M  V30 2880 C 266.889 1.12286 -4.25535 0
M  V30 2881 H 264.008 0.0463936 -0.735538 0
M  V30 2882 H 266.65 -0.574197 -1.81116 0
M  V30 2883 H 264.8 0.9536 -3.76615 0
M  V30 2884 H 266.472 -1.59482 -4.32855 0
M  V30 2885 H 264.715 -1.56468 -4.04599 0
M  V30 2886 H 265.386 -0.759394 -5.46752 0
M  V30 2887 H 267.862 0.613545 -4.11552 0
M  V30 2888 H 266.738 1.24598 -5.34571 0
M  V30 2889 H 266.999 2.15048 -3.86273 0
M  V30 2890 N 266.058 1.56714 -0.166846 0
M  V30 2891 C 267.304 1.97039 0.479962 0
M  V30 2892 C 267.637 1.05264 1.63197 0
M  V30 2893 O 266.912 0.0988833 1.94248 0
M  V30 2894 C 267.195 3.46867 0.967212 0
M  V30 2895 C 267.048 4.49421 -0.18466 0
M  V30 2896 C 268.367 3.9968 1.84238 0
M  V30 2897 H 265.486 0.71641 0.172992 0
M  V30 2898 H 268.128 1.8832 -0.252079 0
M  V30 2899 H 266.278 3.54428 1.59101 0
M  V30 2900 H 267.95 4.53924 -0.821621 0
M  V30 2901 H 266.193 4.25573 -0.840837 0
M  V30 2902 H 266.864 5.51644 0.198317 0
M  V30 2903 H 269.34 3.94723 1.31655 0
M  V30 2904 H 268.216 5.04941 2.15234 0
M  V30 2905 H 268.477 3.43226 2.78654 0
M  V30 2906 N 267.536 -0.106894 1.57237 0
M  V30 2907 C 268.764 -0.826389 1.8968 0
M  V30 2908 C 269.179 -1.72856 0.759353 0
M  V30 2909 O 268.536 -1.80503 -0.269263 0
M  V30 2910 C 268.587 -1.64967 3.21665 0
M  V30 2911 O 268.308 -0.783804 4.31031 0
M  V30 2912 C 269.809 -2.47326 3.67892 0
M  V30 2913 H 267.029 -0.236927 0.627779 0
M  V30 2914 H 269.573 -0.0876593 2.04312 0
M  V30 2915 H 267.728 -2.34103 3.08666 0
M  V30 2916 H 268.142 -1.35284 5.06753 0
M  V30 2917 H 269.616 -3.00604 4.6297 0
M  V30 2918 H 270.093 -3.25247 2.95146 0
M  V30 2919 H 270.699 -1.83411 3.83719 0
M  V30 2920 N 269.014 -1.53014 -0.377408 0
M  V30 2921 C 269.944 -1.81589 -1.46791 0
M  V30 2922 C 270.925 -0.668622 -1.56408 0
M  V30 2923 O 272.11 -0.917337 -1.71168 0
M  V30 2924 C 269.24 -1.99519 -2.8427 0
M  V30 2925 C 268.194 -3.15249 -2.89486 0
M  V30 2926 C 267.52 -3.18451 -4.29527 0
M  V30 2927 C 268.82 -4.54084 -2.58079 0
M  V30 2928 H 270.514 -2.7291 -1.23127 0
M  V30 2929 H 268.06 -1.31319 -0.590883 0
M  V30 2930 H 270.013 -2.18092 -3.60575 0
M  V30 2931 H 268.737 -1.04897 -3.09296 0
M  V30 2932 H 267.396 -2.96477 -2.15631 0
M  V30 2933 H 267.044 -2.2149 -4.5161 0
M  V30 2934 H 266.744 -3.962 -4.33934 0
M  V30 2935 H 268.268 -3.39193 -5.07721 0
M  V30 2936 H 269.682 -4.72899 -3.24098 0
M  V30 2937 H 268.079 -5.33987 -2.7382 0
M  V30 2938 H 269.149 -4.60006 -1.53372 0
M  V30 2939 N 270.492 0.636531 -1.44174 0
M  V30 2940 C 271.738 1.39649 -1.47884 0
M  V30 2941 C 272.093 1.92098 -0.107747 0
M  V30 2942 O 271.386 1.70391 0.876208 0
M  V30 2943 C 271.58 2.58309 -2.47005 0
M  V30 2944 C 271.409 2.17476 -3.93617 0
M  V30 2945 C 270.179 2.0501 -4.61843 0
M  V30 2946 C 272.377 1.76722 -4.82984 0
M  V30 2947 N 270.359 1.57683 -5.93304 0
M  V30 2948 C 271.73 1.40601 -6.03847 0
M  V30 2949 C 273.785 1.64054 -4.70096 0
M  V30 2950 C 272.488 0.930787 -7.13252 0
M  V30 2951 C 274.514 1.17937 -5.79521 0
M  V30 2952 C 273.876 0.827625 -6.99521 0
M  V30 2953 H 269.975 0.506027 -0.596205 0
M  V30 2954 H 272.559 0.730791 -1.80465 0
M  V30 2955 H 270.73 3.22514 -2.16423 0
M  V30 2956 H 272.462 3.25083 -2.41045 0
M  V30 2957 H 269.217 2.25294 -4.16581 0
M  V30 2958 H 269.641 1.36334 -6.63131 0
M  V30 2959 H 274.283 1.89882 -3.77762 0
M  V30 2960 H 272.001 0.660012 -8.054 0
M  V30 2961 H 275.587 1.08601 -5.71574 0
M  V30 2962 H 274.467 0.476231 -7.82753 0
M  V30 2963 N 271.97 1.30982 0.876444 0
M  V30 2964 C 273.2 1.23063 1.65949 0
M  V30 2965 C 273.608 -0.207537 1.88058 0
M  V30 2966 O 272.951 -1.14781 1.43426 0
M  V30 2967 C 273.013 1.89768 3.05333 0
M  V30 2968 C 272.677 3.39106 3.0636 0
M  V30 2969 C 273.674 4.3496 2.84791 0
M  V30 2970 C 271.359 3.80693 3.27686 0
M  V30 2971 C 273.353 5.70375 2.84519 0
M  V30 2972 C 271.04 5.16223 3.27043 0
M  V30 2973 C 272.038 6.10875 3.05485 0
M  V30 2974 O 271.726 7.43928 3.04674 0
M  V30 2975 H 271.458 0.426685 0.524324 0
M  V30 2976 H 274.012 1.7329 1.10271 0
M  V30 2977 H 272.242 1.34082 3.6271 0
M  V30 2978 H 273.931 1.75853 3.65829 0
M  V30 2979 H 274.697 4.0416 2.68103 0
M  V30 2980 H 270.576 3.07457 3.43499 0
M  V30 2981 H 274.12 6.44228 2.67611 0
M  V30 2982 H 270.017 5.4666 3.43269 0
M  V30 2983 H 270.785 7.53022 3.2078 0
M  V30 2984 N 273.449 -1.08991 1.13837 0
M  V30 2985 C 274.865 -1.33312 0.877506 0
M  V30 2986 C 275.065 -1.95587 -0.48456 0
M  V30 2987 O 274.121 -2.20509 -1.23013 0
M  V30 2988 C 275.434 -2.24045 2.0056 0
M  V30 2989 C 276.982 -2.37542 2.03821 0
M  V30 2990 C 277.457 -3.31614 3.15905 0
M  V30 2991 N 278.948 -3.39189 3.15445 0
M  V30 2992 C 279.683 -4.11992 3.98811 0
M  V30 2993 N 279.179 -4.87553 4.92203 0
M  V30 2994 N 280.972 -4.07762 3.86894 0
M  V30 2995 H 273.123 -0.669456 2.01574 0
M  V30 2996 H 275.386 -0.357482 0.878015 0
M  V30 2997 H 275.092 -1.85521 2.98789 0
M  V30 2998 H 274.966 -3.24466 1.92359 0
M  V30 2999 H 277.353 -2.75327 1.06202 0
M  V30 3000 H 277.434 -1.36884 2.16093 0
M  V30 3001 H 277.078 -2.94551 4.13766 0
M  V30 3002 H 277.008 -4.32186 3.0087 0
M  V30 3003 H 279.499 -2.85314 2.47799 0
M  V30 3004 H 279.812 -5.40549 5.52292 0
M  V30 3005 H 278.157 -4.86627 4.96205 0
M  V30 3006 H 281.348 -3.47833 3.13257 0
M  V30 3007 H 281.521 -4.64238 4.52092 0
M  V30 3008 N 274.927 -0.932562 -1.27047 0
M  V30 3009 C 275.89 -0.440064 -2.24936 0
M  V30 3010 C 276.89 0.444071 -1.54547 0
M  V30 3011 O 278.08 0.244465 -1.72476 0
M  V30 3012 C 275.212 0.36678 -3.38921 0
M  V30 3013 H 276.405 -1.305 -2.70018 0
M  V30 3014 H 273.958 -0.713707 -1.39054 0
M  V30 3015 H 274.693 1.25033 -2.99228 0
M  V30 3016 H 274.478 -0.267204 -3.91188 0
M  V30 3017 H 275.968 0.701567 -4.11665 0
M  V30 3018 N 276.405 1.4127 -0.698611 0
M  V30 3019 C 277.816 1.84187 -0.305289 0
M  V30 3020 C 278.167 1.58449 1.15708 0
M  V30 3021 O 277.292 1.05651 1.88856 0
M  V30 3022 C 277.887 3.3435 -0.547314 0
M  V30 3023 C 276.446 3.75826 -0.207878 0
M  V30 3024 C 275.593 2.64647 -0.828099 0
M  V30 3025 H 278.544 1.30778 -0.89904 0
M  V30 3026 H 278.565 3.8001 0.192998 0
M  V30 3027 H 278.077 3.53051 -1.61172 0
M  V30 3028 H 276.178 3.62725 0.852143 0
M  V30 3029 H 276.291 4.74462 -0.665021 0
M  V30 3030 H 274.655 2.53395 -0.257458 0
M  V30 3031 H 275.438 2.86165 -1.89643 0
M  V30 3032 N 277.883 0.443576 1.51229 0
M  V30 3033 C 278.793 -0.370721 2.31652 0
M  V30 3034 C 279.809 -1.02186 1.40833 0
M  V30 3035 O 280.985 -1.01586 1.73903 0
M  V30 3036 C 278.05 -1.45376 3.14749 0
M  V30 3037 C 277.111 -0.822099 4.21355 0
M  V30 3038 C 276.344 -1.85353 5.0048 0
M  V30 3039 O 276.567 -3.07656 4.80316 0
M  V30 3040 O 275.501 -1.4406 5.84406 0
M  V30 3041 H 279.327 0.286002 3.0235 0
M  V30 3042 H 276.912 0.20598 1.47973 0
M  V30 3043 H 278.794 -2.08173 3.66391 0
M  V30 3044 H 277.469 -2.09445 2.46809 0
M  V30 3045 H 276.376 -0.155909 3.73775 0
M  V30 3046 H 277.709 -0.224797 4.91686 0
M  V30 3047 N 279.361 -1.56624 0.175154 0
M  V30 3048 C 280.607 -1.9729 -0.469506 0
M  V30 3049 C 280.94 -1.06128 -1.62636 0
M  V30 3050 O 280.215 -0.109183 -1.94193 0
M  V30 3051 C 280.498 -3.47375 -0.948804 0
M  V30 3052 C 280.351 -4.49317 0.208491 0
M  V30 3053 C 281.67 -4.00652 -1.82116 0
M  V30 3054 H 278.789 -0.717317 -0.16919 0
M  V30 3055 H 281.431 -1.88184 0.262062 0
M  V30 3056 H 279.581 -3.55267 -1.57219 0
M  V30 3057 H 281.253 -4.53482 0.845682 0
M  V30 3058 H 279.496 -4.25121 0.863395 0
M  V30 3059 H 280.167 -5.51741 -0.169059 0
M  V30 3060 H 282.643 -3.95416 -1.2956 0
M  V30 3061 H 281.519 -5.06075 -2.12554 0
M  V30 3062 H 281.78 -3.44699 -2.7683 0
M  V30 3063 N 280.839 0.0985539 -1.57292 0
M  V30 3064 C 281.769 1.12064 -2.04851 0
M  V30 3065 C 282.75 1.41981 -0.936767 0
M  V30 3066 O 283.935 1.52071 -1.20781 0
M  V30 3067 C 281.065 2.44144 -2.47004 0
M  V30 3068 C 280.019 2.28643 -3.6181 0
M  V30 3069 C 279.345 3.65869 -3.89929 0
M  V30 3070 C 280.645 1.72986 -4.92822 0
M  V30 3071 H 282.339 0.724979 -2.9049 0
M  V30 3072 H 279.885 0.34729 -1.39749 0
M  V30 3073 H 281.838 3.15914 -2.78884 0
M  V30 3074 H 280.562 2.85639 -1.5836 0
M  V30 3075 H 279.221 1.59318 -3.30172 0
M  V30 3076 H 278.869 4.04885 -2.98458 0
M  V30 3077 H 278.569 3.56344 -4.67218 0
M  V30 3078 H 280.093 4.39112 -4.2428 0
M  V30 3079 H 281.507 2.34593 -5.23105 0
M  V30 3080 H 279.904 1.74229 -5.74251 0
M  V30 3081 H 280.974 0.689007 -4.7998 0
M  V30 3082 N 282.317 1.53212 0.369288 0
M  V30 3083 C 283.247 1.82365 1.45826 0
M  V30 3084 C 284.228 0.676907 1.56051 0
M  V30 3085 O 285.413 0.926401 1.70679 0
M  V30 3086 C 282.543 2.01023 2.83208 0
M  V30 3087 C 281.497 3.1678 2.8781 0
M  V30 3088 C 280.823 3.20724 4.27832 0
M  V30 3089 C 282.123 4.55447 2.55667 0
M  V30 3090 H 283.817 2.73559 1.21678 0
M  V30 3091 H 281.363 1.3163 0.583911 0
M  V30 3092 H 283.316 2.20001 3.59413 0
M  V30 3093 H 282.04 1.06536 3.08736 0
M  V30 3094 H 280.699 2.97616 2.14056 0
M  V30 3095 H 280.347 2.23882 4.50429 0
M  V30 3096 H 280.047 3.98496 4.31827 0
M  V30 3097 H 281.571 3.41881 5.05915 0
M  V30 3098 H 282.985 4.74611 3.21586 0
M  V30 3099 H 281.382 5.35432 2.70984 0
M  V30 3100 H 282.452 4.60812 1.5093 0
M  V30 3101 N 283.795 -0.628877 1.44509 0
M  V30 3102 C 284.727 -1.754 1.47538 0
M  V30 3103 C 285.74 -1.58575 0.368506 0
M  V30 3104 O 286.929 -1.66847 0.634376 0
M  V30 3105 C 284.029 -3.1315 1.29577 0
M  V30 3106 C 283.202 -3.56413 2.53551 0
M  V30 3107 C 282.261 -4.7305 2.30457 0
M  V30 3108 O 281.287 -4.81247 3.03957 0
M  V30 3109 N 282.489 -5.64903 1.3366 0
M  V30 3110 H 285.254 -1.73272 2.44534 0
M  V30 3111 H 282.815 -0.813512 1.39977 0
M  V30 3112 H 284.807 -3.88902 1.11971 0
M  V30 3113 H 283.377 -3.09908 0.409371 0
M  V30 3114 H 282.597 -2.70847 2.86419 0
M  V30 3115 H 283.885 -3.82071 3.36005 0
M  V30 3116 H 283.283 -5.60975 0.729604 0
M  V30 3117 H 281.84 -6.40275 1.22032 0
M  V30 3118 N 285.273 -1.31445 -0.869486 0
M  V30 3119 C 286.498 -1.24256 -1.66058 0
M  V30 3120 C 286.923 0.188928 -1.87149 0
M  V30 3121 O 286.281 1.13522 -1.4136 0
M  V30 3122 C 286.329 -1.9924 -3.00559 0
M  V30 3123 O 285.433 -1.33007 -3.90362 0
M  V30 3124 H 284.774 -0.428973 -0.506831 0
M  V30 3125 H 287.304 -1.73521 -1.08404 0
M  V30 3126 H 287.314 -2.08854 -3.50491 0
M  V30 3127 H 285.989 -3.03342 -2.84528 0
M  V30 3128 H 284.566 -1.31848 -3.48813 0
M  V30 3129 N 286.751 1.08385 -1.14413 0
M  V30 3130 C 287.976 1.85057 -0.936413 0
M  V30 3131 C 288.401 1.81055 0.509971 0
M  V30 3132 O 287.759 1.1958 1.36273 0
M  V30 3133 C 287.807 3.30505 -1.44217 0
M  V30 3134 O 286.911 4.07491 -0.634409 0
M  V30 3135 H 286.252 0.573425 -0.334784 0
M  V30 3136 H 288.782 1.36799 -1.52142 0
M  V30 3137 H 288.792 3.81348 -1.45043 0
M  V30 3138 H 287.467 3.32734 -2.49522 0
M  V30 3139 H 286.044 3.66368 -0.694902 0
M  V30 3140 N 288.23 0.939286 1.26551 0
M  V30 3141 C 289.46 0.601663 1.97645 0
M  V30 3142 C 289.868 -0.827206 1.70159 0
M  V30 3143 O 289.211 -1.56291 0.965338 0
M  V30 3144 C 289.273 0.761725 3.51337 0
M  V30 3145 C 288.937 2.16487 4.0247 0
M  V30 3146 C 289.934 3.14016 4.14355 0
M  V30 3147 C 287.619 2.48494 4.36527 0
M  V30 3148 C 289.613 4.41654 4.59587 0
M  V30 3149 C 287.3 3.76364 4.81449 0
M  V30 3150 C 288.298 4.72758 4.92939 0
M  V30 3151 O 287.986 5.98352 5.36871 0
M  V30 3152 H 287.718 0.225758 0.637189 0
M  V30 3153 H 290.272 1.26178 1.62075 0
M  V30 3154 H 288.502 0.0444808 3.86674 0
M  V30 3155 H 290.191 0.427442 4.03643 0
M  V30 3156 H 290.957 2.90613 3.8829 0
M  V30 3157 H 286.836 1.74202 4.26819 0
M  V30 3158 H 290.38 5.16896 4.68471 0
M  V30 3159 H 286.277 3.99582 5.06956 0
M  V30 3160 H 287.045 6.01507 5.55096 0
M  V30 3161 N 289.708 -1.40897 0.706093 0
M  V30 3162 C 290.671 -2.29131 0.0562841 0
M  V30 3163 C 291.671 -1.44901 -0.697166 0
M  V30 3164 O 292.861 -1.65926 -0.530484 0
M  V30 3165 C 289.993 -3.27957 -0.93043 0
M  V30 3166 H 291.186 -2.88091 0.833284 0
M  V30 3167 H 288.739 -1.4906 0.470192 0
M  V30 3168 H 289.474 -2.73997 -1.73482 0
M  V30 3169 H 289.259 -3.90124 -0.393166 0
M  V30 3170 H 290.749 -3.94049 -1.38256 0
M  V30 3171 N 291.186 -0.45159 -1.50991 0
M  V30 3172 C 292.414 0.108334 -2.06616 0
M  V30 3173 C 292.829 1.35224 -1.31757 0
M  V30 3174 O 292.186 1.78475 -0.381174 0
M  V30 3175 C 292.237 0.41619 -3.59096 0
M  V30 3176 O 291.958 -0.778361 -4.3113 0
M  V30 3177 C 293.459 1.02523 -4.31282 0
M  V30 3178 H 290.679 0.00159995 -0.670998 0
M  V30 3179 H 293.223 -0.634771 -1.94399 0
M  V30 3180 H 291.378 1.10921 -3.71181 0
M  V30 3181 H 291.792 -0.511181 -5.22003 0
M  V30 3182 H 293.266 1.19053 -5.39009 0
M  V30 3183 H 293.743 2.01013 -3.905 0
M  V30 3184 H 294.349 0.371173 -4.23677 0
M  V30 3185 N 292.664 1.56529 -0.183458 0
M  V30 3186 C 294.075 1.83739 0.331177 0
M  V30 3187 C 294.426 1.10373 1.62211 0
M  V30 3188 O 293.551 0.36071 2.13373 0
M  V30 3189 C 294.146 3.33306 0.607646 0
M  V30 3190 C 292.705 3.60969 1.06668 0
M  V30 3191 C 291.852 2.77086 0.109029 0
M  V30 3192 H 294.803 1.53379 -0.407484 0
M  V30 3193 H 294.824 3.51444 1.45832 0
M  V30 3194 H 294.336 3.86677 -0.332086 0
M  V30 3195 H 292.437 3.13021 2.0211 0
M  V30 3196 H 292.55 4.69231 0.967447 0
M  V30 3197 H 290.914 2.47319 0.608714 0
M  V30 3198 H 291.697 3.33241 -0.82494 0
M  V30 3199 N 294.142 -0.090211 1.57342 0
M  V30 3200 C 295.388 -0.793982 1.86611 0
M  V30 3201 C 295.721 -1.78142 0.773252 0
M  V30 3202 O 294.996 -1.93271 -0.218304 0
M  V30 3203 C 295.279 -1.51839 3.26523 0
M  V30 3204 C 295.132 -0.548609 4.46442 0
M  V30 3205 C 296.451 -2.46779 3.64401 0
M  V30 3206 H 293.57 -0.287186 0.678744 0
M  V30 3207 H 296.212 -0.0575076 1.89913 0
M  V30 3208 H 294.362 -2.14617 3.23839 0
M  V30 3209 H 296.034 0.0725513 4.61243 0
M  V30 3210 H 294.277 0.137614 4.33582 0
M  V30 3211 H 294.948 -1.09271 5.41076 0
M  V30 3212 H 297.424 -1.94089 3.68061 0
M  V30 3213 H 296.3 -2.94479 4.63221 0
M  V30 3214 H 296.561 -3.30758 2.93346 0
M  V30 3215 N 295.62 -1.53406 -0.361157 0
M  V30 3216 C 296.897 -1.60411 -1.11927 0
M  V30 3217 C 297.277 -0.414385 -2.06993 0
M  V30 3218 O 296.625 0.594976 -2.20618 0
M  V30 3219 C 296.835 -2.95652 -1.85448 0
M  V30 3220 C 298.183 -3.50386 -2.39823 0
M  V30 3221 O 299.207 -2.97711 -1.95568 0
M  V30 3222 O 298.066 -4.42482 -3.20737 0
M  V30 3223 H 295.16 -0.64811 -0.513695 0
M  V30 3224 H 297.706 -1.65749 -0.364065 0
M  V30 3225 H 296.478 -3.73682 -1.16091 0
M  V30 3226 H 296.101 -2.93825 -2.67866 0
M  V30 3227 N 297.098 0.621204 -1.44841 0
M  V30 3228 C 298.028 1.74366 -1.55303 0
M  V30 3229 C 299.009 1.65199 -0.405385 0
M  V30 3230 O 300.194 1.83807 -0.626787 0
M  V30 3231 C 297.324 3.12931 -1.50637 0
M  V30 3232 C 296.278 3.36896 -2.63979 0
M  V30 3233 C 295.604 4.75594 -2.44366 0
M  V30 3234 C 296.904 3.28483 -4.06074 0
M  V30 3235 H 298.598 1.65867 -2.49256 0
M  V30 3236 H 296.144 0.796558 -1.19962 0
M  V30 3237 H 298.097 3.9124 -1.56555 0
M  V30 3238 H 296.821 3.22237 -0.532057 0
M  V30 3239 H 295.48 2.60972 -2.57467 0
M  V30 3240 H 295.128 4.81616 -1.45105 0
M  V30 3241 H 294.828 4.92586 -3.20364 0
M  V30 3242 H 296.352 5.5612 -2.52117 0
M  V30 3243 H 297.766 3.96684 -4.13902 0
M  V30 3244 H 296.163 3.57008 -4.82354 0
M  V30 3245 H 297.233 2.26133 -4.28943 0
M  V30 3246 N 298.576 1.31904 0.862503 0
M  V30 3247 C 299.822 1.23207 1.61838 0
M  V30 3248 C 300.177 -0.206062 1.91293 0
M  V30 3249 O 299.47 -1.14162 1.53875 0
M  V30 3250 C 299.664 2.01713 2.95037 0
M  V30 3251 C 299.493 3.53014 2.78588 0
M  V30 3252 C 298.263 4.22359 2.77382 0
M  V30 3253 C 300.461 4.47819 2.52909 0
M  V30 3254 N 298.443 5.59766 2.52062 0
M  V30 3255 C 299.814 5.72947 2.36922 0
M  V30 3256 C 301.869 4.37162 2.38314 0
M  V30 3257 C 300.572 6.88623 2.07823 0
M  V30 3258 C 302.598 5.5263 2.10604 0
M  V30 3259 C 301.96 6.76752 1.95411 0
M  V30 3260 H 298.059 0.505984 0.596242 0
M  V30 3261 H 300.643 1.66179 1.01452 0
M  V30 3262 H 298.814 1.61098 3.53415 0
M  V30 3263 H 300.546 1.84975 3.59953 0
M  V30 3264 H 297.301 3.74401 2.90036 0
M  V30 3265 H 297.725 6.32135 2.42352 0
M  V30 3266 H 302.367 3.41857 2.48784 0
M  V30 3267 H 300.085 7.83948 1.9609 0
M  V30 3268 H 303.671 5.46307 2.00101 0
M  V30 3269 H 302.551 7.6459 1.74274 0
M  V30 3270 N 300.054 -1.07777 1.14986 0
M  V30 3271 C 301.279 -1.84558 0.946213 0
M  V30 3272 C 301.704 -1.81323 -0.500362 0
M  V30 3273 O 301.062 -1.20301 -1.35637 0
M  V30 3274 C 301.11 -3.29736 1.45968 0
M  V30 3275 O 300.214 -4.07149 0.65601 0
M  V30 3276 H 299.555 -0.571641 0.33782 0
M  V30 3277 H 302.085 -1.35991 1.52865 0
M  V30 3278 H 302.095 -3.80574 1.47063 0
M  V30 3279 H 300.77 -3.31406 2.51283 0
M  V30 3280 H 299.347 -3.65994 0.714322 0
M  V30 3281 N 301.532 -0.945985 -1.26051 0
M  V30 3282 C 302.778 -0.597002 -1.93814 0
M  V30 3283 C 303.111 0.862484 -1.73997 0
M  V30 3284 O 302.386 1.61769 -1.07986 0
M  V30 3285 C 302.669 -0.945937 -3.47454 0
M  V30 3286 C 302.522 -2.46052 -3.76535 0
M  V30 3287 C 303.841 -0.464785 -4.37639 0
M  V30 3288 H 300.96 -0.218366 -0.703907 0
M  V30 3289 H 303.602 -1.18107 -1.48831 0
M  V30 3290 H 301.752 -0.448902 -3.85898 0
M  V30 3291 H 303.424 -3.03065 -3.47778 0
M  V30 3292 H 301.667 -2.90194 -3.22444 0
M  V30 3293 H 302.338 -2.65517 -4.83947 0
M  V30 3294 H 304.814 -0.891016 -4.06448 0
M  V30 3295 H 303.69 -0.737712 -5.4392 0
M  V30 3296 H 303.951 0.635274 -4.37512 0
M  V30 3297 N 303.011 1.40521 -0.713556 0
M  V30 3298 C 304.259 2.00527 -0.251692 0
M  V30 3299 C 304.58 1.56857 1.15848 0
M  V30 3300 O 303.85 0.807127 1.785 0
M  V30 3301 H 302.43 0.741551 -0.0900646 0
M  V30 3302 H 305.092 1.71887 -0.918733 0
M  V30 3303 H 304.188 3.10813 -0.283192 0
M  V30 3304 N 304.489 0.459591 1.5075 0
M  V30 3305 C 305.729 -0.09824 2.04164 0
M  V30 3306 C 306.093 -1.3801 1.33481 0
M  V30 3307 O 307.294 -2.01959 1.77387 0
M  V30 3308 C 305.565 -0.289467 3.56226 0
M  V30 3309 S 307.124 -0.807507 4.31306 0
M  V30 3310 H 303.942 -0.0213845 0.710678 0
M  V30 3311 H 306.544 0.624098 1.85271 0
M  V30 3312 H 305.248 0.649461 4.05229 0
M  V30 3313 H 304.779 -1.03825 3.79452 0
M  V30 3314 H 306.794 -2.0824 4.50389 0
M  V30 3315 N 305.967 -1.56429 0.191757 0
M  V30 3316 C 307.216 -1.9666 -0.448088 0
M  V30 3317 C 307.529 -1.08136 -1.62991 0
M  V30 3318 O 308.735 -1.38135 -2.33733 0
M  V30 3319 C 307.191 -3.49753 -0.848585 0
M  V30 3320 C 306.799 -4.46935 0.308764 0
M  V30 3321 C 308.543 -3.9876 -1.4557 0
M  V30 3322 C 306.45 -5.91293 -0.112506 0
M  V30 3323 H 305.38 -0.734312 -0.171179 0
M  V30 3324 H 308.031 -1.81301 0.283242 0
M  V30 3325 H 306.413 -3.60604 -1.63649 0
M  V30 3326 H 307.587 -4.47813 1.08627 0
M  V30 3327 H 305.902 -4.08102 0.827158 0
M  V30 3328 H 308.499 -5.04086 -1.78328 0
M  V30 3329 H 308.842 -3.42875 -2.36099 0
M  V30 3330 H 309.375 -3.9101 -0.731836 0
M  V30 3331 H 306.114 -6.51097 0.758514 0
M  V30 3332 H 305.634 -5.93676 -0.854941 0
M  V30 3333 H 307.313 -6.44663 -0.549448 0
M  V30 3334 N 307.445 0.0818655 -1.57387 0
M  V30 3335 C 308.692 0.782914 -1.86753 0
M  V30 3336 C 309.02 1.78082 -0.782118 0
M  V30 3337 O 308.275 1.94426 0.22295 0
M  V30 3338 C 308.574 1.53513 -3.22752 0
M  V30 3339 C 308.24 0.678134 -4.45771 0
M  V30 3340 C 306.902 0.441929 -4.79166 0
M  V30 3341 C 309.254 0.0832243 -5.21134 0
M  V30 3342 C 306.582 -0.398833 -5.85343 0
M  V30 3343 C 308.934 -0.744935 -6.28199 0
M  V30 3344 C 307.598 -0.991107 -6.60101 0
M  V30 3345 H 306.868 0.286489 -0.683378 0
M  V30 3346 H 309.515 0.0439808 -1.91449 0
M  V30 3347 H 307.82 2.34599 -3.138 0
M  V30 3348 H 309.517 2.08218 -3.42705 0
M  V30 3349 H 306.107 0.872357 -4.19628 0
M  V30 3350 H 310.291 0.252847 -4.95655 0
M  V30 3351 H 305.547 -0.598405 -6.08465 0
M  V30 3352 H 309.721 -1.21271 -6.8576 0
M  V30 3353 H 307.348 -1.64437 -7.42202 0
M  V30 3354 N 308.923 1.53595 0.353017 0
M  V30 3355 C 309.886 1.80232 1.41594 0
M  V30 3356 C 310.886 0.673081 1.46035 0
M  V30 3357 O 312.076 0.941335 1.46576 0
M  V30 3358 C 309.208 1.93578 2.80607 0
M  V30 3359 H 310.401 2.75174 1.19244 0
M  V30 3360 H 307.954 1.44864 0.586872 0
M  V30 3361 H 308.689 1.00746 3.08254 0
M  V30 3362 H 308.474 2.75724 2.78781 0
M  V30 3363 H 309.964 2.15735 3.57558 0
M  V30 3364 N 310.401 -0.613514 1.45168 0
M  V30 3365 C 311.311 -1.75296 1.55912 0
M  V30 3366 C 312.327 -1.68244 0.443856 0
M  V30 3367 O 313.503 -1.88706 0.70371 0
M  V30 3368 C 310.568 -3.1174 1.5172 0
M  V30 3369 C 309.629 -3.30291 2.74238 0
M  V30 3370 C 308.862 -4.60226 2.70236 0
M  V30 3371 O 309.085 -5.42168 1.77229 0
M  V30 3372 O 308.019 -4.81361 3.61352 0
M  V30 3373 H 311.845 -1.69183 2.52212 0
M  V30 3374 H 309.43 -0.776886 1.27612 0
M  V30 3375 H 311.312 -3.93044 1.51968 0
M  V30 3376 H 309.987 -3.18357 0.585697 0
M  V30 3377 H 308.894 -2.48598 2.79553 0
M  V30 3378 H 310.227 -3.28547 3.66494 0
M  V30 3379 N 311.879 -1.3236 -0.855495 0
M  V30 3380 C 312.812 -1.15559 -1.96777 0
M  V30 3381 C 313.79 -0.0552681 -1.62506 0
M  V30 3382 O 314.974 -0.214419 -1.87277 0
M  V30 3383 C 312.101 -0.768851 -3.29858 0
M  V30 3384 C 311.147 -1.87429 -3.83109 0
M  V30 3385 S 311.98 -3.48243 -4.06801 0
M  V30 3386 C 313.136 -3.11539 -5.42858 0
M  V30 3387 H 313.369 -2.09717 -2.10727 0
M  V30 3388 H 310.902 -1.17011 -1.00737 0
M  V30 3389 H 312.86 -0.55248 -4.06765 0
M  V30 3390 H 311.521 0.153857 -3.13723 0
M  V30 3391 H 310.714 -1.55667 -4.79358 0
M  V30 3392 H 310.316 -2.04647 -3.13042 0
M  V30 3393 H 312.608 -2.61331 -6.2507 0
M  V30 3394 H 313.551 -4.06806 -5.79582 0
M  V30 3395 H 313.959 -2.48582 -5.06821 0
M  V30 3396 N 313.357 1.07166 -1.15556 0
M  V30 3397 C 314.604 1.79798 -0.931604 0
M  V30 3398 C 314.932 1.8682 0.54115 0
M  V30 3399 O 314.187 1.34942 1.41736 0
M  V30 3400 C 314.486 3.24707 -1.49332 0
M  V30 3401 C 314.152 3.37781 -2.98688 0
M  V30 3402 C 312.814 3.41057 -3.39461 0
M  V30 3403 C 315.166 3.40424 -3.94665 0
M  V30 3404 C 312.494 3.4458 -4.74849 0
M  V30 3405 C 314.846 3.45485 -5.29927 0
M  V30 3406 C 313.51 3.47039 -5.70193 0
M  V30 3407 H 312.78 0.657928 -0.340898 0
M  V30 3408 H 315.427 1.26091 -1.44129 0
M  V30 3409 H 313.732 3.81208 -0.904859 0
M  V30 3410 H 315.429 3.79486 -1.29582 0
M  V30 3411 H 312.019 3.35932 -2.66172 0
M  V30 3412 H 316.203 3.37113 -3.64237 0
M  V30 3413 H 311.459 3.44083 -5.05388 0
M  V30 3414 H 315.633 3.46476 -6.04092 0
M  V30 3415 H 313.26 3.49522 -6.75084 0
M  V30 3416 N 314.835 0.952656 1.25548 0
M  V30 3417 C 316.251 0.656769 1.4546 0
M  V30 3418 C 316.451 -0.78633 1.85524 0
M  V30 3419 O 315.507 -1.56183 1.98402 0
M  V30 3420 C 316.82 1.62801 2.52817 0
M  V30 3421 C 318.368 1.63897 2.66659 0
M  V30 3422 C 318.843 2.5978 3.77198 0
M  V30 3423 N 320.334 2.58133 3.84606 0
M  V30 3424 C 321.069 3.29003 4.69621 0
M  V30 3425 N 320.565 4.09339 5.58939 0
M  V30 3426 N 322.358 3.179 4.63569 0
M  V30 3427 H 314.509 1.88526 0.978344 0
M  V30 3428 H 316.772 0.810815 0.491206 0
M  V30 3429 H 316.478 2.65869 2.30232 0
M  V30 3430 H 316.352 1.38898 3.50695 0
M  V30 3431 H 318.739 0.615481 2.8861 0
M  V30 3432 H 318.82 1.91858 1.69187 0
M  V30 3433 H 318.464 3.62254 3.55997 0
M  V30 3434 H 318.394 2.29105 4.7415 0
M  V30 3435 H 320.885 1.99809 3.20757 0
M  V30 3436 H 321.198 4.6034 6.20731 0
M  V30 3437 H 319.543 4.13438 5.58654 0
M  V30 3438 H 322.734 2.54612 3.92798 0
M  V30 3439 H 322.907 3.73398 5.29602 0
M  V30 3440 N 316.313 -1.40141 0.720998 0
M  V30 3441 C 317.729 -1.54632 0.395113 0
M  V30 3442 C 317.929 -1.69115 -1.09555 0
M  V30 3443 O 316.985 -1.68377 -1.88163 0
M  V30 3444 C 318.298 -2.77177 1.1659 0
M  V30 3445 C 319.846 -2.91 1.15274 0
M  V30 3446 C 320.321 -4.16465 1.90579 0
M  V30 3447 N 321.812 -4.23476 1.87675 0
M  V30 3448 C 322.547 -5.19475 2.42762 0
M  V30 3449 N 322.043 -6.21348 3.06428 0
M  V30 3450 N 323.836 -5.11592 2.32874 0
M  V30 3451 H 315.987 -1.28986 1.68749 0
M  V30 3452 H 318.25 -0.62412 0.713567 0
M  V30 3453 H 317.956 -2.72771 2.22011 0
M  V30 3454 H 317.83 -3.69442 0.76108 0
M  V30 3455 H 320.217 -2.94907 0.106702 0
M  V30 3456 H 320.298 -1.99838 1.59682 0
M  V30 3457 H 319.942 -4.1332 2.95176 0
M  V30 3458 H 319.872 -5.06646 1.43587 0
M  V30 3459 H 322.363 -3.50497 1.41281 0
M  V30 3460 H 322.676 -6.91034 3.45965 0
M  V30 3461 H 321.021 -6.21777 3.10514 0
M  V30 3462 H 324.212 -4.30936 1.82789 0
M  V30 3463 H 324.385 -5.86233 2.76106 0
M  V30 3464 N 317.792 -0.46758 -1.50504 0
M  V30 3465 C 318.739 0.328413 -2.28452 0
M  V30 3466 C 319.709 0.990313 -1.33349 0
M  V30 3467 O 320.894 1.00343 -1.62284 0
M  V30 3468 C 318.034 1.40648 -3.15138 0
M  V30 3469 C 317.147 0.759709 -4.25267 0
M  V30 3470 C 316.282 1.81537 -4.99217 0
M  V30 3471 C 315.321 1.14866 -6.01226 0
M  V30 3472 N 314.458 2.14702 -6.68467 0
M  V30 3473 H 319.298 -0.342603 -2.96024 0
M  V30 3474 H 316.835 -0.180801 -1.45985 0
M  V30 3475 H 318.793 2.04315 -3.63746 0
M  V30 3476 H 317.423 2.04671 -2.49619 0
M  V30 3477 H 316.475 0.0105671 -3.80399 0
M  V30 3478 H 317.787 0.233243 -4.98254 0
M  V30 3479 H 316.941 2.52793 -5.51526 0
M  V30 3480 H 315.68 2.37564 -4.25928 0
M  V30 3481 H 314.685 0.42171 -5.4818 0
M  V30 3482 H 315.91 0.595334 -6.76485 0
M  V30 3483 H 313.856 2.69752 -5.97972 0
M  V30 3484 H 313.773 1.6703 -7.37317 0
M  V30 3485 H 315.041 2.85348 -7.25394 0
M  V30 3486 N 319.27 1.56325 -0.20005 0
M  V30 3487 C 320.681 1.8408 0.31167 0
M  V30 3488 C 321.032 1.12087 1.61031 0
M  V30 3489 O 320.157 0.38332 2.12978 0
M  V30 3490 C 320.752 3.33932 0.57226 0
M  V30 3491 C 319.311 3.6208 1.02834 0
M  V30 3492 C 318.458 2.77186 0.079634 0
M  V30 3493 H 321.409 1.52939 -0.423729 0
M  V30 3494 H 321.43 3.52971 1.42096 0
M  V30 3495 H 320.942 3.86303 -0.37308 0
M  V30 3496 H 319.043 3.15147 1.98778 0
M  V30 3497 H 319.156 4.7023 0.917624 0
M  V30 3498 H 317.52 2.47951 0.582448 0
M  V30 3499 H 318.303 3.32347 -0.860238 0
M  V30 3500 N 320.748 -0.0735177 1.57428 0
M  V30 3501 C 321.678 -1.0879 2.06608 0
M  V30 3502 C 322.659 -1.40473 0.959237 0
M  V30 3503 O 323.844 -1.5013 1.23185 0
M  V30 3504 C 320.974 -2.40183 2.50857 0
M  V30 3505 C 319.928 -2.22858 3.65402 0
M  V30 3506 C 319.254 -3.59619 3.957 0
M  V30 3507 C 320.554 -1.65123 4.95511 0
M  V30 3508 H 322.248 -0.678673 2.91607 0
M  V30 3509 H 319.794 -0.325013 1.40284 0
M  V30 3510 H 321.747 -3.11437 2.83874 0
M  V30 3511 H 320.471 -2.83083 1.62885 0
M  V30 3512 H 319.13 -1.54045 3.32664 0
M  V30 3513 H 318.778 -4.00086 3.04861 0
M  V30 3514 H 318.478 -3.48866 4.72828 0
M  V30 3515 H 320.002 -4.32306 4.31212 0
M  V30 3516 H 321.416 -2.26241 5.26771 0
M  V30 3517 H 319.813 -1.65071 5.7695 0
M  V30 3518 H 320.883 -0.612559 4.81015 0
M  V30 3519 N 322.226 -1.5378 -0.344866 0
M  V30 3520 C 323.473 -1.70963 -1.08526 0
M  V30 3521 C 323.801 -0.472126 -1.88683 0
M  V30 3522 O 323.056 0.546116 -1.87926 0
M  V30 3523 C 323.355 -2.92407 -2.05506 0
M  V30 3524 C 323.021 -4.28066 -1.41671 0
M  V30 3525 C 321.683 -4.64951 -1.2399 0
M  V30 3526 C 324.035 -5.12344 -0.956726 0
M  V30 3527 C 321.363 -5.83733 -0.589277 0
M  V30 3528 C 323.715 -6.3179 -0.320015 0
M  V30 3529 C 322.379 -6.67372 -0.130881 0
M  V30 3530 H 321.649 -0.625598 -0.397124 0
M  V30 3531 H 324.296 -1.87995 -0.36469 0
M  V30 3532 H 322.601 -2.69973 -2.8394 0
M  V30 3533 H 324.298 -3.02895 -2.62784 0
M  V30 3534 H 320.888 -3.99034 -1.56429 0
M  V30 3535 H 325.072 -4.8438 -1.08118 0
M  V30 3536 H 320.328 -6.09877 -0.431344 0
M  V30 3537 H 324.502 -6.96386 0.0445072 0
M  V30 3538 H 322.129 -7.59273 0.375318 0
M  V30 3539 N 323.704 0.605807 -1.45491 0
M  V30 3540 C 325.12 0.926751 -1.29936 0
M  V30 3541 C 325.32 1.99896 -0.253706 0
M  V30 3542 O 324.376 2.50038 0.351737 0
M  V30 3543 C 325.689 1.36599 -2.67883 0
M  V30 3544 C 327.237 1.4801 -2.75793 0
M  V30 3545 C 327.712 1.95309 -4.14268 0
M  V30 3546 N 329.203 2.0254 -4.16571 0
M  V30 3547 C 329.938 2.40363 -5.20589 0
M  V30 3548 N 329.434 2.77143 -6.34952 0
M  V30 3549 N 331.227 2.40718 -5.07948 0
M  V30 3550 H 323.378 -0.102862 -2.12151 0
M  V30 3551 H 325.641 0.016639 -0.947854 0
M  V30 3552 H 325.347 0.652306 -3.45598 0
M  V30 3553 H 325.221 2.33215 -2.96463 0
M  V30 3554 H 327.608 2.1847 -1.98381 0
M  V30 3555 H 327.689 0.497041 -2.50925 0
M  V30 3556 H 327.333 1.25436 -4.92167 0
M  V30 3557 H 327.263 2.94532 -4.3653 0
M  V30 3558 H 329.754 1.76699 -3.34045 0
M  V30 3559 H 330.067 3.0489 -7.10114 0
M  V30 3560 H 328.412 2.74834 -6.3835 0
M  V30 3561 H 331.603 2.11392 -4.1765 0
M  V30 3562 H 331.776 2.69869 -5.89131 0
M  V30 3563 N 325.182 1.32811 0.848464 0
M  V30 3564 C 326.43 1.23479 1.59991 0
M  V30 3565 C 326.751 -0.201853 1.93952 0
M  V30 3566 O 326.021 -1.12818 1.60153 0
M  V30 3567 H 324.601 0.454034 0.593179 0
M  V30 3568 H 327.263 1.66412 1.01455 0
M  V30 3569 H 326.359 1.82178 2.53412 0
M  V30 3570 N 326.66 -1.06551 1.16123 0
M  V30 3571 C 327.885 -1.83544 0.965735 0
M  V30 3572 C 328.31 -1.81843 -0.481102 0
M  V30 3573 O 327.668 -1.21732 -1.34354 0
M  V30 3574 C 327.716 -3.28169 1.49457 0
M  V30 3575 O 326.82 -4.0643 0.699157 0
M  V30 3576 H 326.161 -0.568026 0.343864 0
M  V30 3577 H 328.691 -1.34362 1.54299 0
M  V30 3578 H 328.701 -3.78992 1.51092 0
M  V30 3579 H 327.376 -3.28722 2.54784 0
M  V30 3580 H 325.953 -3.65216 0.7531 0
M  V30 3581 N 328.138 -0.959301 -1.25041 0
M  V30 3582 C 329.363 -0.633507 -1.97488 0
M  V30 3583 C 329.788 0.788555 -1.70773 0
M  V30 3584 O 329.146 1.53394 -0.966431 0
M  V30 3585 C 329.194 -0.904057 -3.49083 0
M  V30 3586 O 328.298 0.0147939 -4.12397 0
M  V30 3587 H 327.639 -0.240368 -0.618966 0
M  V30 3588 H 330.169 -1.28717 -1.59038 0
M  V30 3589 H 330.179 -0.832203 -3.99423 0
M  V30 3590 H 328.854 -1.94048 -3.67856 0
M  V30 3591 H 327.431 -0.109664 -3.72739 0
M  V30 3592 N 329.616 1.39756 -0.72842 0
M  V30 3593 C 330.893 1.94574 -0.200079 0
M  V30 3594 C 331.273 1.66569 1.29684 0
M  V30 3595 O 330.621 0.990326 2.05924 0
M  V30 3596 C 330.831 3.45004 -0.526608 0
M  V30 3597 C 332.179 4.21965 -0.472318 0
M  V30 3598 O 333.203 3.53173 -0.463413 0
M  V30 3599 O 332.062 5.44552 -0.461075 0
M  V30 3600 H 329.156 0.826289 -0.0342851 0
M  V30 3601 H 331.702 1.49293 -0.806829 0
M  V30 3602 H 330.474 3.58796 -1.56144 0
M  V30 3603 H 330.097 3.97449 0.109449 0
M  V30 3604 N 331.094 0.475555 1.50254 0
M  V30 3605 C 332.34 -0.0780073 2.0265 0
M  V30 3606 C 332.673 -1.38968 1.35652 0
M  V30 3607 O 331.948 -1.8839 0.483691 0
M  V30 3608 C 332.231 -0.257161 3.59181 0
M  V30 3609 C 332.084 1.07585 4.36744 0
M  V30 3610 C 333.403 -1.00965 4.28362 0
M  V30 3611 H 330.522 -0.0268758 0.73651 0
M  V30 3612 H 333.164 0.622015 1.7953 0
M  V30 3613 H 331.314 -0.853412 3.79011 0
M  V30 3614 H 332.986 1.70902 4.28474 0
M  V30 3615 H 331.229 1.6714 4.00308 0
M  V30 3616 H 331.9 0.904088 5.44546 0
M  V30 3617 H 334.376 -0.504214 4.13034 0
M  V30 3618 H 333.252 -1.10381 5.37687 0
M  V30 3619 H 333.513 -2.04731 3.91839 0
M  V30 3620 N 332.573 -1.56217 0.208337 0
M  V30 3621 C 333.85 -1.89739 -0.475234 0
M  V30 3622 C 334.23 -1.1238 -1.78701 0
M  V30 3623 O 333.578 -0.228979 -2.2735 0
M  V30 3624 C 333.788 -3.42289 -0.681101 0
M  V30 3625 C 335.136 -4.12789 -0.994507 0
M  V30 3626 O 336.16 -3.47814 -0.768357 0
M  V30 3627 O 335.019 -5.27649 -1.42299 0
M  V30 3628 H 332.113 -0.788478 -0.249461 0
M  V30 3629 H 334.659 -1.67855 0.249538 0
M  V30 3630 H 333.431 -3.90534 0.244722 0
M  V30 3631 H 333.054 -3.69909 -1.45785 0
M  V30 3632 N 334.051 0.0651679 -1.57465 0
M  V30 3633 C 334.983 1.10359 -2.00882 0
M  V30 3634 C 335.996 1.346 -0.915788 0
M  V30 3635 O 337.185 1.32723 -1.1936 0
M  V30 3636 C 334.285 2.45312 -2.33828 0
M  V30 3637 C 333.458 2.40934 -3.65061 0
M  V30 3638 C 332.517 3.58047 -3.85602 0
M  V30 3639 O 331.543 3.39175 -4.57109 0
M  V30 3640 N 332.745 4.78637 -3.28462 0
M  V30 3641 H 335.51 0.733807 -2.90578 0
M  V30 3642 H 333.071 0.253719 -1.599 0
M  V30 3643 H 335.063 3.22314 -2.44737 0
M  V30 3644 H 333.633 2.74267 -1.49988 0
M  V30 3645 H 332.853 1.49273 -3.64844 0
M  V30 3646 H 334.141 2.35117 -4.51218 0
M  V30 3647 H 333.539 4.96872 -2.70433 0
M  V30 3648 H 332.096 5.53127 -3.44809 0
M  V30 3649 N 335.529 1.53961 0.336706 0
M  V30 3650 C 336.459 1.85417 1.41925 0
M  V30 3651 C 337.44 0.709856 1.5458 0
M  V30 3652 O 338.625 0.962396 1.68676 0
M  V30 3653 C 335.755 2.06985 2.78881 0
M  V30 3654 C 334.709 3.22813 2.81026 0
M  V30 3655 C 334.035 3.29727 4.20932 0
M  V30 3656 C 335.335 4.60767 2.45949 0
M  V30 3657 H 337.029 2.76079 1.15848 0
M  V30 3658 H 334.575 1.32839 0.555859 0
M  V30 3659 H 336.528 2.27575 3.54665 0
M  V30 3660 H 335.252 1.13061 3.06406 0
M  V30 3661 H 333.911 3.0209 2.07695 0
M  V30 3662 H 333.559 2.33385 4.45579 0
M  V30 3663 H 333.259 4.07566 4.23277 0
M  V30 3664 H 334.783 3.52536 4.98549 0
M  V30 3665 H 336.197 4.81325 3.11446 0
M  V30 3666 H 334.594 5.4106 2.59566 0
M  V30 3667 H 335.664 4.6391 1.41122 0
M  V30 3668 N 337.007 -0.598083 1.45811 0
M  V30 3669 C 338.255 -1.35413 1.50026 0
M  V30 3670 C 338.576 -1.94444 0.147177 0
M  V30 3671 O 337.846 -1.77701 -0.824571 0
M  V30 3672 H 336.426 -0.502727 0.552517 0
M  V30 3673 H 339.088 -0.701606 1.81834 0
M  V30 3674 H 338.184 -2.16871 2.2444 0
M  V30 3675 N 338.485 -1.33259 -0.841409 0
M  V30 3676 C 339.432 -1.23302 -1.95103 0
M  V30 3677 C 340.402 -0.112204 -1.65721 0
M  V30 3678 O 341.587 -0.290038 -1.88583 0
M  V30 3679 C 338.727 -0.975583 -3.31023 0
M  V30 3680 C 337.84 -2.18243 -3.72819 0
M  V30 3681 C 336.975 -1.85936 -4.97595 0
M  V30 3682 C 336.014 -3.02866 -5.3192 0
M  V30 3683 N 335.151 -2.70565 -6.47873 0
M  V30 3684 H 339.991 -2.18207 -2.02952 0
M  V30 3685 H 337.528 -1.0851 -0.993173 0
M  V30 3686 H 339.486 -0.80677 -4.09325 0
M  V30 3687 H 338.116 -0.0632755 -3.22738 0
M  V30 3688 H 337.168 -2.46107 -2.90061 0
M  V30 3689 H 338.48 -3.05666 -3.94169 0
M  V30 3690 H 337.634 -1.65684 -5.83638 0
M  V30 3691 H 336.373 -0.957452 -4.78209 0
M  V30 3692 H 335.378 -3.23736 -4.44382 0
M  V30 3693 H 336.603 -3.93809 -5.53255 0
M  V30 3694 H 334.549 -1.8293 -6.29978 0
M  V30 3695 H 334.466 -3.51519 -6.69306 0
M  V30 3696 H 335.734 -2.53774 -7.37034 0
M  V30 3697 N 339.963 1.05934 -1.16686 0
M  V30 3698 C 341.212 1.78188 -0.945085 0
M  V30 3699 C 341.525 1.88338 0.528021 0
M  V30 3700 O 342.731 2.57258 0.867799 0
M  V30 3701 C 341.187 3.20277 -1.64167 0
M  V30 3702 C 340.795 3.18281 -3.15279 0
M  V30 3703 C 342.539 3.97039 -1.502 0
M  V30 3704 C 340.446 4.55112 -3.7766 0
M  V30 3705 H 339.376 0.667866 -0.349959 0
M  V30 3706 H 342.027 1.18794 -1.39858 0
M  V30 3707 H 340.409 3.79952 -1.11589 0
M  V30 3708 H 341.583 2.68167 -3.74731 0
M  V30 3709 H 339.898 2.55018 -3.29173 0
M  V30 3710 H 342.495 4.98194 -1.94183 0
M  V30 3711 H 342.838 4.13845 -0.451461 0
M  V30 3712 H 343.371 3.43894 -1.99954 0
M  V30 3713 H 340.11 4.43512 -4.82677 0
M  V30 3714 H 339.63 5.05406 -3.22994 0
M  V30 3715 H 341.309 5.24064 -3.79428 0
M  V30 3716 N 341.441 0.965919 1.2453 0
M  V30 3717 C 342.371 0.513476 2.27784 0
M  V30 3718 C 343.352 -0.445974 1.6415 0
M  V30 3719 O 344.537 -0.342485 1.91156 0
M  V30 3720 C 341.667 -0.198839 3.4673 0
M  V30 3721 C 340.621 0.676456 4.2262 0
M  V30 3722 C 339.947 -0.167248 5.34438 0
M  V30 3723 C 341.247 1.96017 4.84123 0
M  V30 3724 H 342.941 1.3765 2.65881 0
M  V30 3725 H 340.487 0.663321 1.27813 0
M  V30 3726 H 342.44 -0.526567 4.18097 0
M  V30 3727 H 341.164 -1.0962 3.07654 0
M  V30 3728 H 339.823 0.98743 3.53052 0
M  V30 3729 H 339.471 -1.0647 4.91603 0
M  V30 3730 H 339.171 0.415181 5.86131 0
M  V30 3731 H 340.695 -0.489688 6.08633 0
M  V30 3732 H 342.109 1.69814 5.47573 0
M  V30 3733 H 340.506 2.48918 5.4604 0
M  V30 3734 H 341.576 2.65622 4.05676 0
M  V30 3735 N 342.919 -1.39368 0.735821 0
M  V30 3736 C 344.196 -1.94465 0.210395 0
M  V30 3737 C 344.576 -1.67254 -1.28799 0
M  V30 3738 O 343.924 -1.00123 -2.05396 0
M  V30 3739 C 344.134 -3.4472 0.544897 0
M  V30 3740 C 345.482 -4.21708 0.494689 0
M  V30 3741 O 346.506 -3.52922 0.482136 0
M  V30 3742 O 345.365 -5.44299 0.489947 0
M  V30 3743 H 342.459 -0.826096 0.0386666 0
M  V30 3744 H 345.005 -1.48863 0.814735 0
M  V30 3745 H 343.777 -3.57963 1.58045 0
M  V30 3746 H 343.4 -3.97502 -0.08837 0
M  V30 3747 N 344.397 -0.483516 -1.5 0
M  V30 3748 C 345.643 0.0672592 -2.02688 0
M  V30 3749 C 345.976 1.38247 -1.36387 0
M  V30 3750 O 345.251 1.88131 -0.493675 0
M  V30 3751 C 345.534 0.238109 -3.59312 0
M  V30 3752 C 345.387 -1.099 -4.36168 0
M  V30 3753 C 346.706 0.986916 -4.28892 0
M  V30 3754 H 343.825 0.0229696 -0.736642 0
M  V30 3755 H 346.467 -0.631527 -1.79197 0
M  V30 3756 H 344.617 0.8333 -3.79458 0
M  V30 3757 H 346.289 -1.73172 -4.27562 0
M  V30 3758 H 344.532 -1.69261 -3.99416 0
M  V30 3759 H 345.203 -0.932954 -5.44059 0
M  V30 3760 H 347.679 0.482302 -4.13295 0
M  V30 3761 H 346.555 1.07527 -5.38265 0
M  V30 3762 H 346.816 2.0265 -3.92919 0
M  V30 3763 N 345.875 1.56104 -0.216619 0
M  V30 3764 C 347.124 1.97348 0.416744 0
M  V30 3765 C 347.437 1.10715 1.6125 0
M  V30 3766 O 348.643 1.41836 2.31506 0
M  V30 3767 C 347.099 3.51059 0.792835 0
M  V30 3768 C 346.707 4.46387 -0.379828 0
M  V30 3769 C 348.451 4.01026 1.39208 0
M  V30 3770 C 346.358 5.91397 0.0184223 0
M  V30 3771 H 345.288 0.736942 0.159475 0
M  V30 3772 H 347.939 1.80827 -0.31205 0
M  V30 3773 H 346.321 3.63162 1.57891 0
M  V30 3774 H 347.495 4.46029 -1.15737 0
M  V30 3775 H 345.81 4.06734 -0.891979 0
M  V30 3776 H 348.407 5.0686 1.70286 0
M  V30 3777 H 348.75 3.46587 2.30614 0
M  V30 3778 H 349.283 3.92125 0.669537 0
M  V30 3779 H 346.022 6.49807 -0.862002 0
M  V30 3780 H 345.542 5.94961 0.760384 0
M  V30 3781 H 347.221 6.45455 0.446818 0
M  V30 3782 N 347.353 -0.0568162 1.57498 0
M  V30 3783 C 348.601 -0.751617 1.87604 0
M  V30 3784 C 348.922 -1.77351 0.81066 0
M  V30 3785 O 348.192 -1.95254 -0.159018 0
M  V30 3786 H 346.772 -0.280583 0.692302 0
M  V30 3787 H 349.434 -0.0293483 1.94878 0
M  V30 3788 H 348.53 -1.25852 2.856 0
M  V30 3789 N 348.832 -1.54138 -0.328536 0
M  V30 3790 C 349.762 -1.86167 -1.40939 0
M  V30 3791 C 350.743 -0.718044 -1.54202 0
M  V30 3792 O 351.928 -0.971328 -1.68163 0
M  V30 3793 C 349.058 -2.08461 -2.77779 0
M  V30 3794 C 348.012 -3.24299 -2.7931 0
M  V30 3795 C 347.338 -3.31955 -4.19178 0
M  V30 3796 C 348.638 -4.62065 -2.43502 0
M  V30 3797 H 350.332 -2.76689 -1.14383 0
M  V30 3798 H 347.878 -1.33132 -0.548806 0
M  V30 3799 H 349.831 -2.29453 -3.53454 0
M  V30 3800 H 348.555 -1.14684 -3.05802 0
M  V30 3801 H 347.214 -3.03187 -2.0609 0
M  V30 3802 H 346.862 -2.35745 -4.44335 0
M  V30 3803 H 346.562 -4.09805 -4.2111 0
M  V30 3804 H 348.086 -3.55175 -4.96672 0
M  V30 3805 H 349.5 -4.8297 -3.08889 0
M  V30 3806 H 347.897 -5.42429 -2.56693 0
M  V30 3807 H 348.967 -4.64652 -1.38659 0
M  V30 3808 N 350.31 0.590341 -1.46126 0
M  V30 3809 C 351.721 1.17243 -1.45296 0
M  V30 3810 C 352.072 1.95281 -0.189723 0
M  V30 3811 O 351.197 2.04502 0.707674 0
M  V30 3812 C 351.792 2.13284 -2.6324 0
M  V30 3813 C 350.351 2.66832 -2.65476 0
M  V30 3814 C 349.498 1.42557 -2.3785 0
M  V30 3815 H 352.449 0.378692 -1.54116 0
M  V30 3816 H 352.47 2.96619 -2.38323 0
M  V30 3817 H 351.982 1.56459 -3.55165 0
M  V30 3818 H 350.083 3.27548 -1.77603 0
M  V30 3819 H 350.196 3.10088 -3.65215 0
M  V30 3820 H 348.56 1.72107 -1.87753 0
M  V30 3821 H 349.343 0.875741 -3.31942 0
M  V30 3822 N 351.788 1.33704 0.83433 0
M  V30 3823 C 353.036 1.25169 1.58673 0
M  V30 3824 C 353.357 -0.18127 1.94156 0
M  V30 3825 O 352.627 -1.11113 1.6134 0
M  V30 3826 H 351.207 0.4603 0.58833 0
M  V30 3827 H 353.869 1.67478 0.996847 0
M  V30 3828 H 352.965 1.84856 2.51465 0
M  V30 3829 N 353.266 -1.05314 1.17247 0
M  V30 3830 C 354.176 -2.16538 0.90268 0
M  V30 3831 C 355.192 -1.73523 -0.128707 0
M  V30 3832 O 356.368 -2.01337 0.0502701 0
M  V30 3833 C 353.433 -3.44167 0.418356 0
M  V30 3834 C 352.494 -4.01635 1.51618 0
M  V30 3835 C 351.727 -5.23171 1.05487 0
M  V30 3836 O 351.95 -5.70327 -0.0914715 0
M  V30 3837 O 350.884 -5.72848 1.8474 0
M  V30 3838 H 354.71 -2.42145 1.83302 0
M  V30 3839 H 352.295 -1.15037 0.953246 0
M  V30 3840 H 354.177 -4.21112 0.155726 0
M  V30 3841 H 352.852 -3.20063 -0.48385 0
M  V30 3842 H 351.759 -3.26135 1.83268 0
M  V30 3843 H 353.092 -4.30053 2.39405 0
M  V30 3844 N 354.744 -0.972509 -1.24016 0
M  V30 3845 C 355.654 -0.5143 -2.28893 0
M  V30 3846 C 356.67 0.427078 -1.68677 0
M  V30 3847 O 357.846 0.298939 -1.99169 0
M  V30 3848 C 354.911 0.183598 -3.46214 0
M  V30 3849 C 353.972 -0.798202 -4.21814 0
M  V30 3850 C 353.205 -0.133514 -5.33533 0
M  V30 3851 O 353.428 1.07714 -5.60137 0
M  V30 3852 O 352.362 -0.828103 -5.96176 0
M  V30 3853 H 356.188 -1.38629 -2.70214 0
M  V30 3854 H 353.773 -0.739769 -1.29799 0
M  V30 3855 H 355.655 0.575433 -4.17453 0
M  V30 3856 H 354.33 1.03048 -3.0686 0
M  V30 3857 H 353.237 -1.24059 -3.52931 0
M  V30 3858 H 354.57 -1.61364 -4.64997 0
M  V30 3859 N 356.222 1.38976 -0.743202 0
M  V30 3860 C 357.499 1.94351 -0.220705 0
M  V30 3861 C 357.879 1.67935 1.2791 0
M  V30 3862 O 357.227 1.01211 2.04862 0
M  V30 3863 C 357.437 3.44426 -0.563171 0
M  V30 3864 C 358.785 4.2144 -0.517046 0
M  V30 3865 O 359.809 3.52661 -0.500846 0
M  V30 3866 O 358.668 5.44032 -0.518806 0
M  V30 3867 H 355.762 0.825879 -0.043047 0
M  V30 3868 H 358.308 1.48429 -0.822618 0
M  V30 3869 H 357.08 3.5712 -1.59941 0
M  V30 3870 H 356.703 3.97543 0.0672883 0
M  V30 3871 N 357.7 0.491464 1.49741 0
M  V30 3872 C 358.946 -0.0485431 2.03342 0
M  V30 3873 C 359.301 -1.35566 1.36527 0
M  V30 3874 O 358.594 -1.85262 0.488729 0
M  V30 3875 C 358.788 -0.267329 3.56399 0
M  V30 3876 C 358.617 1.01703 4.38049 0
M  V30 3877 C 357.387 1.56614 4.80417 0
M  V30 3878 C 359.585 1.91782 4.77204 0
M  V30 3879 N 357.567 2.7974 5.4646 0
M  V30 3880 C 358.938 2.99489 5.42868 0
M  V30 3881 C 360.993 1.92575 4.5915 0
M  V30 3882 C 359.696 4.08005 5.92389 0
M  V30 3883 C 361.722 3.0006 5.09626 0
M  V30 3884 C 361.084 4.06485 5.75282 0
M  V30 3885 H 357.183 0.0227779 0.781668 0
M  V30 3886 H 359.767 0.664204 1.8302 0
M  V30 3887 H 357.938 -0.949126 3.76625 0
M  V30 3888 H 359.67 -0.803492 3.96644 0
M  V30 3889 H 356.425 1.11256 4.60347 0
M  V30 3890 H 356.849 3.42323 5.84075 0
M  V30 3891 H 361.491 1.11605 4.07804 0
M  V30 3892 H 359.209 4.89779 6.42761 0
M  V30 3893 H 362.795 3.01681 4.97473 0
M  V30 3894 H 361.675 4.88287 6.13633 0
M  V30 3895 N 359.178 -1.55987 0.224894 0
M  V30 3896 C 360.589 -1.84553 -0.282345 0
M  V30 3897 C 360.94 -1.14634 -1.59227 0
M  V30 3898 O 360.065 -0.417155 -2.12341 0
M  V30 3899 C 360.66 -3.348 -0.519062 0
M  V30 3900 C 359.219 -3.63671 -0.970604 0
M  V30 3901 C 358.366 -2.77277 -0.0355261 0
M  V30 3902 H 361.317 -1.52245 0.448006 0
M  V30 3903 H 361.338 -3.55187 -1.36463 0
M  V30 3904 H 360.85 -3.8566 0.43449 0
M  V30 3905 H 358.951 -3.1827 -1.9374 0
M  V30 3906 H 359.064 -4.71631 -0.842698 0
M  V30 3907 H 357.428 -2.48846 -0.542927 0
M  V30 3908 H 358.211 -3.30937 0.913003 0
M  V30 3909 N 360.656 0.0484629 -1.57525 0
M  V30 3910 C 362.072 0.40375 -1.54409 0
M  V30 3911 C 362.272 1.77786 -0.948384 0
M  V30 3912 O 361.328 2.46189 -0.560983 0
M  V30 3913 C 362.641 0.323394 -2.98956 0
M  V30 3914 C 364.189 0.401892 -3.10409 0
M  V30 3915 C 364.664 0.351195 -4.56652 0
M  V30 3916 N 366.155 0.410576 -4.61377 0
M  V30 3917 C 366.89 0.393933 -5.72045 0
M  V30 3918 N 366.386 0.330724 -6.9201 0
M  V30 3919 N 368.179 0.442227 -5.60358 0
M  V30 3920 H 360.33 -0.851016 -1.94606 0
M  V30 3921 H 362.593 -0.321721 -0.89174 0
M  V30 3922 H 362.299 -0.62011 -3.4619 0
M  V30 3923 H 362.173 1.12463 -3.60044 0
M  V30 3924 H 364.56 1.33582 -2.63134 0
M  V30 3925 H 364.641 -0.428342 -2.52188 0
M  V30 3926 H 364.285 -0.578987 -5.04589 0
M  V30 3927 H 364.215 1.19928 -5.12762 0
M  V30 3928 H 366.706 0.462729 -3.75056 0
M  V30 3929 H 367.019 0.322592 -7.72126 0
M  V30 3930 H 365.364 0.29706 -6.94365 0
M  V30 3931 H 368.555 0.489464 -4.65534 0
M  V30 3932 H 368.728 0.425788 -6.466 0
M  V30 3933 N 362.134 1.5431 0.320358 0
M  V30 3934 C 363.411 1.63322 1.07635 0
M  V30 3935 C 363.791 0.46912 2.05821 0
M  V30 3936 O 363.139 -0.536274 2.22118 0
M  V30 3937 C 363.349 3.00465 1.77544 0
M  V30 3938 C 364.697 3.56621 2.30449 0
M  V30 3939 O 365.721 3.02791 1.87606 0
M  V30 3940 O 364.58 4.5083 3.08892 0
M  V30 3941 H 361.674 0.661502 0.496331 0
M  V30 3942 H 364.22 1.66656 0.319992 0
M  V30 3943 H 362.992 3.76629 1.06143 0
M  V30 3944 H 362.615 3.00824 2.59982 0
M  V30 3945 N 363.613 -0.582584 1.46437 0
M  V30 3946 C 364.859 -1.34278 1.51978 0
M  V30 3947 C 365.192 -1.93446 0.170973 0
M  V30 3948 O 364.467 -1.76481 -0.817608 0
M  V30 3949 C 364.75 -2.47203 2.61845 0
M  V30 3950 C 364.603 -1.93069 4.06257 0
M  V30 3951 C 365.922 -3.49247 2.67795 0
M  V30 3952 H 363.041 -0.486876 0.553282 0
M  V30 3953 H 365.683 -0.654437 1.78374 0
M  V30 3954 H 363.833 -3.0592 2.39469 0
M  V30 3955 H 365.505 -1.38808 4.3992 0
M  V30 3956 H 363.748 -1.23898 4.1573 0
M  V30 3957 H 364.419 -2.74586 4.7886 0
M  V30 3958 H 366.895 -3.00411 2.8791 0
M  V30 3959 H 365.771 -4.25719 3.46489 0
M  V30 3960 H 366.032 -4.06482 1.73852 0
M  V30 3961 N 365.091 -1.34144 -0.827227 0
M  V30 3962 C 366.054 -1.25264 -1.91942 0
M  V30 3963 C 367.054 -0.168866 -1.59911 0
M  V30 3964 O 368.244 -0.421198 -1.69031 0
M  V30 3965 C 365.376 -0.932952 -3.27885 0
M  V30 3966 H 366.569 -2.22357 -2.0124 0
M  V30 3967 H 364.122 -1.1837 -1.0207 0
M  V30 3968 H 364.857 0.0349917 -3.24281 0
M  V30 3969 H 364.642 -1.71682 -3.52516 0
M  V30 3970 H 366.132 -0.895874 -4.07877 0
M  V30 3971 N 366.569 1.04691 -1.17803 0
M  V30 3972 C 367.499 2.14494 -0.92275 0
M  V30 3973 C 368.48 1.69546 0.137179 0
M  V30 3974 O 369.665 1.94195 -0.0141108 0
M  V30 3975 C 366.795 3.44491 -0.440803 0
M  V30 3976 C 365.749 4.03031 -1.4405 0
M  V30 3977 C 365.075 5.28432 -0.81631 0
M  V30 3978 C 366.375 4.39932 -2.81527 0
M  V30 3979 H 368.069 2.36107 -1.84103 0
M  V30 3980 H 365.615 1.1347 -0.886599 0
M  V30 3981 H 367.568 4.2066 -0.249602 0
M  V30 3982 H 366.292 3.22546 0.513025 0
M  V30 3983 H 364.951 3.28937 -1.61853 0
M  V30 3984 H 364.599 5.02792 0.144511 0
M  V30 3985 H 364.299 5.68559 -1.48371 0
M  V30 3986 H 365.823 6.07284 -0.635496 0
M  V30 3987 H 367.237 5.07113 -2.67412 0
M  V30 3988 H 365.634 4.9109 -3.44892 0
M  V30 3989 H 366.704 3.50045 -3.35554 0
M  V30 3990 N 368.047 0.979072 1.23499 0
M  V30 3991 C 369.458 0.684391 1.73704 0
M  V30 3992 C 369.809 -0.799448 1.79174 0
M  V30 3993 O 368.934 -1.62531 1.42873 0
M  V30 3994 C 369.529 1.23564 3.15464 0
M  V30 3995 C 368.088 0.99063 3.6313 0
M  V30 3996 C 367.235 1.36416 2.41425 0
M  V30 3997 H 370.186 1.15307 1.09041 0
M  V30 3998 H 370.207 0.607417 3.7562 0
M  V30 3999 H 369.719 2.31561 3.1145 0
M  V30 4000 H 367.82 -0.0733136 3.72528 0
M  V30 4001 H 367.933 1.64427 4.5 0
M  V30 4002 H 366.297 0.782616 2.42378 0
M  V30 4003 H 367.08 2.45387 2.40083 0
M  V30 4004 N 369.525 -1.3858 0.750561 0
M  V30 4005 C 370.941 -1.53759 0.427824 0
M  V30 4006 C 371.141 -1.71401 -1.05943 0
M  V30 4007 O 370.197 -1.72331 -1.84549 0
M  V30 4008 C 371.51 -2.74642 1.22443 0
M  V30 4009 C 373.058 -2.88489 1.2142 0
M  V30 4010 C 373.533 -4.12329 1.9937 0
M  V30 4011 N 375.024 -4.194 1.96616 0
M  V30 4012 C 375.759 -5.14209 2.53727 0
M  V30 4013 N 375.255 -6.14709 3.19539 0
M  V30 4014 N 377.048 -5.06537 2.43673 0
M  V30 4015 H 369.199 -1.25377 1.71447 0
M  V30 4016 H 371.462 -0.608844 0.726645 0
M  V30 4017 H 371.168 -2.68 2.27747 0
M  V30 4018 H 371.042 -3.67745 0.839273 0
M  V30 4019 H 373.429 -2.94614 0.169232 0
M  V30 4020 H 373.51 -1.96406 1.63885 0
M  V30 4021 H 373.154 -4.06966 3.03877 0
M  V30 4022 H 373.084 -5.03486 1.54302 0
M  V30 4023 H 375.575 -3.47421 1.48684 0
M  V30 4024 H 375.888 -6.8354 3.60545 0
M  V30 4025 H 374.233 -6.1505 3.23633 0
M  V30 4026 H 377.424 -4.26962 1.91889 0
M  V30 4027 H 377.597 -5.80245 2.88479 0
M  V30 4028 N 371.003 -0.499398 -1.49478 0
M  V30 4029 C 371.935 0.316575 -2.27003 0
M  V30 4030 C 372.948 0.932047 -1.33479 0
M  V30 4031 O 374.137 0.815658 -1.58774 0
M  V30 4032 C 371.237 1.46055 -3.05812 0
M  V30 4033 C 370.41 0.952679 -4.26899 0
M  V30 4034 C 369.469 1.97407 -4.87767 0
M  V30 4035 O 368.495 1.54326 -5.4788 0
M  V30 4036 N 369.697 3.30436 -4.77276 0
M  V30 4037 H 372.462 -0.348168 -2.97671 0
M  V30 4038 H 370.023 -0.33185 -1.58463 0
M  V30 4039 H 372.015 2.14135 -3.43407 0
M  V30 4040 H 370.585 2.02948 -2.37762 0
M  V30 4041 H 369.805 0.0968248 -3.94081 0
M  V30 4042 H 371.093 0.59174 -5.05347 0
M  V30 4043 H 370.491 3.68126 -4.29534 0
M  V30 4044 H 369.048 3.94235 -5.19059 0
M  V30 4045 N 372.481 1.55866 -0.233164 0
M  V30 4046 C 373.444 2.1953 0.658715 0
M  V30 4047 C 374.444 1.16053 1.11303 0
M  V30 4048 O 375.634 1.41218 1.01996 0
M  V30 4049 C 372.766 2.82791 1.90373 0
M  V30 4050 H 373.959 2.99721 0.10347 0
M  V30 4051 H 371.512 1.56291 0.0164245 0
M  V30 4052 H 372.247 2.06501 2.50056 0
M  V30 4053 H 372.032 3.58578 1.58632 0
M  V30 4054 H 373.522 3.31556 2.53891 0
M  V30 4055 N 373.959 -0.0401083 1.57549 0
M  V30 4056 C 375.206 -0.733125 1.88763 0
M  V30 4057 C 375.534 -1.75946 0.829058 0
M  V30 4058 O 374.789 -1.94949 -0.171323 0
M  V30 4059 C 375.088 -1.44902 3.26708 0
M  V30 4060 C 374.754 -0.559707 4.47413 0
M  V30 4061 C 373.416 -0.314731 4.8017 0
M  V30 4062 C 375.768 0.0549743 5.21171 0
M  V30 4063 C 373.096 0.553886 5.8408 0
M  V30 4064 C 375.448 0.911229 6.26003 0
M  V30 4065 C 374.112 1.16577 6.57241 0
M  V30 4066 H 373.382 -0.268269 0.690733 0
M  V30 4067 H 376.029 0.00679408 1.91499 0
M  V30 4068 H 374.334 -2.26197 3.1991 0
M  V30 4069 H 376.031 -1.99058 3.48105 0
M  V30 4070 H 372.621 -0.760793 4.21794 0
M  V30 4071 H 376.805 -0.121344 4.96152 0
M  V30 4072 H 372.061 0.759518 6.06664 0
M  V30 4073 H 376.235 1.3941 6.82303 0
M  V30 4074 H 373.862 1.84058 7.37582 0
M  V30 4075 N 375.437 -1.54477 -0.31217 0
M  V30 4076 C 376.387 -1.81037 -1.38598 0
M  V30 4077 C 377.371 -0.666941 -1.46426 0
M  V30 4078 O 378.563 -0.927269 -1.50767 0
M  V30 4079 C 375.692 -2.05127 -2.75277 0
M  V30 4080 C 374.778 -3.25624 -2.71716 0
M  V30 4081 N 375.169 -4.46428 -2.37773 0
M  V30 4082 C 373.467 -3.27427 -3.02833 0
M  V30 4083 C 374.168 -5.28406 -2.43232 0
M  V30 4084 N 373.144 -4.6586 -2.80135 0
M  V30 4085 H 376.946 -2.7201 -1.11301 0
M  V30 4086 H 374.46 -1.53826 -0.520705 0
M  V30 4087 H 376.457 -2.22299 -3.52688 0
M  V30 4088 H 375.117 -1.15416 -3.03495 0
M  V30 4089 H 376.128 -4.73227 -2.1042 0
M  V30 4090 H 372.805 -2.47786 -3.36018 0
M  V30 4091 H 374.195 -6.34903 -2.19882 0
M  V30 4092 N 376.915 0.57481 -1.46744 0
M  V30 4093 C 378.14 1.36341 -1.56288 0
M  V30 4094 C 378.565 1.86954 -0.207347 0
M  V30 4095 O 377.923 1.62006 0.813871 0
M  V30 4096 C 377.971 2.52147 -2.57787 0
M  V30 4097 O 377.075 3.53834 -2.11838 0
M  V30 4098 H 376.416 0.405713 -0.525636 0
M  V30 4099 H 378.946 0.696453 -1.92382 0
M  V30 4100 H 378.956 2.98958 -2.77648 0
M  V30 4101 H 377.631 2.14663 -3.5622 0
M  V30 4102 H 376.208 3.1345 -2.01999 0
M  V30 4103 N 378.394 1.34581 0.820102 0
M  V30 4104 C 379.341 1.2639 1.93117 0
M  V30 4105 C 380.311 0.138554 1.65521 0
M  V30 4106 O 381.496 0.320004 1.88097 0
M  V30 4107 C 378.636 1.02812 3.29429 0
M  V30 4108 C 377.749 2.24146 3.693 0
M  V30 4109 C 376.884 1.93829 4.94574 0
M  V30 4110 C 375.923 3.1129 5.27034 0
M  V30 4111 N 375.06 2.80838 6.43486 0
M  V30 4112 H 379.9 2.21408 1.99455 0
M  V30 4113 H 377.437 1.10077 0.975784 0
M  V30 4114 H 379.395 0.871788 4.0799 0
M  V30 4115 H 378.025 0.114612 3.22596 0
M  V30 4116 H 377.077 2.50691 2.86109 0
M  V30 4117 H 378.389 3.11899 3.89257 0
M  V30 4118 H 377.543 1.74948 5.80929 0
M  V30 4119 H 376.282 1.03341 4.76626 0
M  V30 4120 H 375.287 3.30764 4.39175 0
M  V30 4121 H 376.512 4.02561 5.4692 0
M  V30 4122 H 374.458 1.92929 6.26988 0
M  V30 4123 H 374.375 3.62123 6.63629 0
M  V30 4124 H 375.643 2.65467 7.32903 0
M  V30 4125 N 379.872 -1.04064 1.18357 0
M  V30 4126 C 381.097 -1.81454 1.00445 0
M  V30 4127 C 381.522 -1.82823 -0.442423 0
M  V30 4128 O 380.88 -1.24555 -1.31741 0
M  V30 4129 C 380.928 -3.24925 1.56384 0
M  V30 4130 O 380.032 -4.04856 0.785209 0
M  V30 4131 H 379.373 -0.560604 0.355835 0
M  V30 4132 H 381.903 -1.31059 1.57114 0
M  V30 4133 H 381.913 -3.75702 1.59097 0
M  V30 4134 H 380.588 -3.23244 2.61699 0
M  V30 4135 H 379.165 -3.63537 0.830399 0
M  V30 4136 N 381.35 -0.985608 -1.22978 0
M  V30 4137 C 382.313 -0.535071 -2.22867 0
M  V30 4138 C 383.313 0.378123 -1.56291 0
M  V30 4139 O 384.503 0.171092 -1.73358 0
M  V30 4140 C 381.635 0.222702 -3.40172 0
M  V30 4141 H 382.828 -1.41835 -2.6424 0
M  V30 4142 H 380.381 -0.772042 -1.35901 0
M  V30 4143 H 381.116 1.12229 -3.04262 0
M  V30 4144 H 380.901 -0.43288 -3.89703 0
M  V30 4145 H 382.391 0.526335 -4.1427 0
M  V30 4146 N 382.828 1.3818 -0.7579 0
M  V30 4147 C 383.76 2.2901 -0.0932177 0
M  V30 4148 C 384.773 1.47958 0.679136 0
M  V30 4149 O 385.962 1.70773 0.519514 0
M  V30 4150 C 383.062 3.26953 0.89192 0
M  V30 4151 C 382.235 4.37045 0.176303 0
M  V30 4152 C 381.294 5.15148 1.07281 0
M  V30 4153 O 380.32 5.66616 0.541728 0
M  V30 4154 N 381.522 5.28542 2.40049 0
M  V30 4155 H 384.287 2.86694 -0.873303 0
M  V30 4156 H 381.848 1.50007 -0.609054 0
M  V30 4157 H 383.84 3.76083 1.49479 0
M  V30 4158 H 382.41 2.70136 1.57306 0
M  V30 4159 H 381.63 3.89493 -0.607328 0
M  V30 4160 H 382.918 5.07801 -0.318718 0
M  V30 4161 H 382.316 4.88285 2.85647 0
M  V30 4162 H 380.873 5.8103 2.95376 0
M  V30 4163 N 384.306 0.507319 1.49211 0
M  V30 4164 C 385.717 0.0611118 1.866 0
M  V30 4165 C 386.068 -1.35488 1.41907 0
M  V30 4166 O 385.193 -2.0108 0.799726 0
M  V30 4167 C 385.788 0.104125 3.3864 0
M  V30 4168 C 384.347 -0.28677 3.75306 0
M  V30 4169 C 383.494 0.473893 2.73221 0
M  V30 4170 H 386.445 0.719775 1.41439 0
M  V30 4171 H 386.466 -0.689672 3.74198 0
M  V30 4172 H 385.978 1.13482 3.71138 0
M  V30 4173 H 384.079 -1.32046 3.48417 0
M  V30 4174 H 384.192 0.0370745 4.79086 0
M  V30 4175 H 382.556 -0.0770644 2.54583 0
M  V30 4176 H 383.339 1.50478 3.08563 0
M  V30 4177 N 385.784 -1.5574 0.241426 0
M  V30 4178 C 387.033 -1.97986 -0.385295 0
M  V30 4179 C 387.346 -1.13267 -1.59468 0
M  V30 4180 O 388.552 -1.45501 -2.2922 0
M  V30 4181 C 387.008 -3.52275 -0.736884 0
M  V30 4182 C 386.616 -4.45726 0.450796 0
M  V30 4183 C 388.36 -4.03189 -1.3281 0
M  V30 4184 C 386.267 -5.91352 0.0756662 0
M  V30 4185 H 385.197 -0.739386 -0.147731 0
M  V30 4186 H 387.848 -1.80308 0.340779 0
M  V30 4187 H 386.23 -3.65628 -1.52094 0
M  V30 4188 H 387.404 -4.44131 1.22819 0
M  V30 4189 H 385.719 -4.05264 0.956573 0
M  V30 4190 H 388.316 -5.09505 -1.62201 0
M  V30 4191 H 388.659 -3.50212 -2.25071 0
M  V30 4192 H 389.192 -3.93141 -0.607069 0
M  V30 4193 H 385.931 -6.48354 0.965272 0
M  V30 4194 H 385.451 -5.96095 -0.665635 0
M  V30 4195 H 387.13 -6.46084 -0.344075 0
M  V30 4196 N 387.262 0.0317525 -1.57568 0
M  V30 4197 C 388.172 1.05021 -2.0978 0
M  V30 4198 C 389.188 1.39809 -1.03583 0
M  V30 4199 O 390.364 1.49182 -1.35302 0
M  V30 4200 C 387.429 2.33301 -2.56459 0
M  V30 4201 C 386.49 2.0512 -3.77127 0
M  V30 4202 C 385.723 3.27283 -4.2157 0
M  V30 4203 O 385.946 4.37861 -3.65559 0
M  V30 4204 O 384.88 3.13141 -5.14029 0
M  V30 4205 H 388.706 0.636505 -2.96955 0
M  V30 4206 H 386.291 0.248559 -1.47318 0
M  V30 4207 H 388.173 3.08722 -2.86825 0
M  V30 4208 H 386.848 2.73973 -1.72397 0
M  V30 4209 H 385.755 1.27276 -3.51784 0
M  V30 4210 H 387.088 1.69305 -4.62165 0
M  V30 4211 N 388.74 1.54641 0.303973 0
M  V30 4212 C 389.687 1.85386 1.37479 0
M  V30 4213 C 390.657 0.702528 1.50512 0
M  V30 4214 O 391.842 0.950867 1.65418 0
M  V30 4215 C 388.982 2.10413 2.73533 0
M  V30 4216 C 388.095 3.38049 2.68974 0
M  V30 4217 C 387.23 3.52934 3.97002 0
M  V30 4218 C 386.269 4.74373 3.86829 0
M  V30 4219 N 385.406 4.8608 5.06627 0
M  V30 4220 H 390.246 2.76732 1.1056 0
M  V30 4221 H 387.783 1.37034 0.534805 0
M  V30 4222 H 389.741 2.22919 3.52652 0
M  V30 4223 H 388.371 1.22338 2.98719 0
M  V30 4224 H 387.423 3.3418 1.81736 0
M  V30 4225 H 388.735 4.27288 2.57346 0
M  V30 4226 H 387.889 3.65088 4.84557 0
M  V30 4227 H 386.628 2.61824 4.1146 0
M  V30 4228 H 385.633 4.62255 2.97658 0
M  V30 4229 H 386.858 5.66888 3.73918 0
M  V30 4230 H 384.804 3.97891 5.21554 0
M  V30 4231 H 384.721 5.69315 4.9741 0
M  V30 4232 H 385.989 5.02587 5.95841 0
M  V30 4233 N 390.218 -0.567019 1.47046 0
M  V30 4234 C 391.465 -1.32462 1.53167 0
M  V30 4235 C 391.793 -1.93571 0.189841 0
M  V30 4236 O 391.048 -1.77865 -0.816243 0
M  V30 4237 C 391.347 -2.4623 2.59047 0
M  V30 4238 C 391.013 -2.03014 4.02612 0
M  V30 4239 C 389.675 -1.90944 4.41694 0
M  V30 4240 C 392.027 -1.69895 4.92732 0
M  V30 4241 C 389.355 -1.44035 5.68745 0
M  V30 4242 C 391.707 -1.2446 6.20236 0
M  V30 4243 C 390.371 -1.10979 6.5821 0
M  V30 4244 H 389.641 -0.484713 0.560477 0
M  V30 4245 H 392.288 -0.636888 1.80599 0
M  V30 4246 H 390.593 -3.20517 2.25335 0
M  V30 4247 H 392.29 -3.04427 2.61008 0
M  V30 4248 H 388.88 -2.13348 3.71726 0
M  V30 4249 H 393.064 -1.78098 4.63244 0
M  V30 4250 H 388.32 -1.32254 5.96925 0
M  V30 4251 H 392.494 -0.978924 6.89485 0
M  V30 4252 H 390.121 -0.744078 7.5655 0
M  V30 4253 N 391.696 -1.35014 -0.812953 0
M  V30 4254 C 392.942 -1.2812 -1.57204 0
M  V30 4255 C 393.275 0.145869 -1.93651 0
M  V30 4256 O 392.55 1.0937 -1.60836 0
M  V30 4257 C 392.833 -2.18162 -2.86492 0
M  V30 4258 C 392.686 -3.69454 -2.56561 0
M  V30 4259 C 394.005 -2.07439 -3.88145 0
M  V30 4260 H 391.124 -0.466746 -0.570366 0
M  V30 4261 H 393.766 -1.65357 -0.935783 0
M  V30 4262 H 391.916 -1.86535 -3.40789 0
M  V30 4263 H 393.588 -4.11493 -2.08497 0
M  V30 4264 H 391.831 -3.9005 -1.89851 0
M  V30 4265 H 392.502 -4.27835 -3.48799 0
M  V30 4266 H 394.978 -2.35228 -3.4323 0
M  V30 4267 H 393.854 -2.7265 -4.76396 0
M  V30 4268 H 394.115 -1.05439 -4.29343 0
M  V30 4269 N 393.175 1.03435 -1.18907 0
M  V30 4270 C 394.403 1.80381 -1.01342 0
M  V30 4271 C 394.818 1.83649 0.438005 0
M  V30 4272 O 394.175 1.27655 1.30424 0
M  V30 4273 C 394.226 3.25689 -1.56873 0
M  V30 4274 O 393.947 3.22673 -2.96334 0
M  V30 4275 C 395.448 4.19255 -1.44014 0
M  V30 4276 H 392.668 0.56784 -0.35749 0
M  V30 4277 H 395.212 1.30317 -1.576 0
M  V30 4278 H 393.367 3.72962 -1.04777 0
M  V30 4279 H 393.781 4.13748 -3.22355 0
M  V30 4280 H 395.255 5.19123 -1.87657 0
M  V30 4281 H 395.732 4.37467 -0.389815 0
M  V30 4282 H 396.338 3.77851 -1.95214 0
M  V30 4283 N 394.653 0.992116 1.22453 0
M  V30 4284 C 395.93 0.583508 1.86694 0
M  V30 4285 C 396.31 -0.9392 1.89056 0
M  V30 4286 O 395.658 -1.82081 1.38053 0
M  V30 4287 C 395.868 1.20304 3.2761 0
M  V30 4288 C 397.216 1.30308 4.0411 0
M  V30 4289 O 398.24 1.15737 3.36873 0
M  V30 4290 O 397.099 1.53615 5.24466 0
M  V30 4291 H 394.193 0.198129 0.802916 0
M  V30 4292 H 396.739 1.08794 1.30238 0
M  V30 4293 H 395.511 2.24461 3.2052 0
M  V30 4294 H 395.134 0.684144 3.9167 0
M  V30 4295 N 396.131 -1.37776 0.765217 0
M  V30 4296 C 397.38 -1.99092 0.323307 0
M  V30 4297 C 397.693 -1.61434 -1.10446 0
M  V30 4298 O 398.899 -2.15805 -1.64743 0
M  V30 4299 C 397.355 -3.56019 0.527098 0
M  V30 4300 C 396.963 -4.0262 1.96471 0
M  V30 4301 C 398.707 -4.2424 0.148483 0
M  V30 4302 C 396.614 -5.52233 2.11644 0
M  V30 4303 H 395.544 -0.744846 0.117137 0
M  V30 4304 H 398.195 -1.57391 0.943417 0
M  V30 4305 H 396.577 -3.95667 -0.162372 0
M  V30 4306 H 397.751 -3.74234 2.68859 0
M  V30 4307 H 396.066 -3.47161 2.29931 0
M  V30 4308 H 398.663 -5.34159 0.240456 0
M  V30 4309 H 399.006 -4.06446 -0.900422 0
M  V30 4310 H 399.539 -3.89872 0.79025 0
M  V30 4311 H 396.278 -5.74945 3.1483 0
M  V30 4312 H 395.798 -5.82324 1.4373 0
M  V30 4313 H 397.477 -6.18106 1.91193 0
M  V30 4314 N 397.609 -0.515225 -1.4894 0
M  V30 4315 C 398.886 0.0879088 -1.95402 0
M  V30 4316 C 399.266 1.52745 -1.45712 0
M  V30 4317 O 398.614 2.18238 -0.677093 0
M  V30 4318 C 398.824 -0.0141055 -3.48997 0
M  V30 4319 C 400.172 0.152646 -4.24326 0
M  V30 4320 O 401.196 0.0604025 -3.56149 0
M  V30 4321 O 400.055 0.34384 -5.45417 0
M  V30 4322 H 397.149 0.0874636 -0.822362 0
M  V30 4323 H 399.695 -0.578775 -1.59525 0
M  V30 4324 H 398.467 -1.01745 -3.77841 0
M  V30 4325 H 398.09 0.692091 -3.9153 0
M  V30 4326 N 399.087 1.5561 -0.249682 0
M  V30 4327 C 399.997 2.25143 0.659375 0
M  V30 4328 C 401.013 1.2685 1.19101 0
M  V30 4329 O 402.189 1.59732 1.22669 0
M  V30 4330 C 399.254 2.93945 1.8384 0
M  V30 4331 C 398.315 4.07655 1.34596 0
M  V30 4332 C 397.548 4.73167 2.46878 0
M  V30 4333 O 397.771 4.37768 3.65671 0
M  V30 4334 O 396.705 5.61623 2.16478 0
M  V30 4335 H 400.531 3.03545 0.0968698 0
M  V30 4336 H 398.116 1.49389 -0.018074 0
M  V30 4337 H 399.998 3.37271 2.52638 0
M  V30 4338 H 398.673 2.18481 2.38847 0
M  V30 4339 H 397.58 3.68839 0.625174 0
M  V30 4340 H 398.913 4.84946 0.841941 0
M  V30 4341 N 400.565 -0.0233959 1.57583 0
M  V30 4342 C 401.495 -1.02162 2.09965 0
M  V30 4343 C 402.476 -1.3735 1.00344 0
M  V30 4344 O 403.661 -1.46135 1.27899 0
M  V30 4345 C 400.791 -2.32081 2.58371 0
M  V30 4346 C 399.745 -2.1112 3.72307 0
M  V30 4347 C 399.071 -3.46848 4.06941 0
M  V30 4348 C 400.371 -1.49276 5.00514 0
M  V30 4349 H 402.065 -0.585557 2.93618 0
M  V30 4350 H 399.611 -0.280218 1.41247 0
M  V30 4351 H 401.564 -3.02249 2.93639 0
M  V30 4352 H 400.288 -2.77758 1.71808 0
M  V30 4353 H 398.947 -1.43384 3.37397 0
M  V30 4354 H 398.595 -3.90184 3.17436 0
M  V30 4355 H 398.295 -3.33646 4.83688 0
M  V30 4356 H 399.819 -4.18369 4.44747 0
M  V30 4357 H 401.233 -2.09368 5.33702 0
M  V30 4358 H 399.63 -1.46632 5.8191 0
M  V30 4359 H 400.7 -0.459217 4.82721 0
M  V30 4360 N 402.043 -1.548 -0.295768 0
M  V30 4361 C 403.291 -1.73985 -1.02828 0
M  V30 4362 C 403.612 -0.531406 -1.87619 0
M  V30 4363 O 402.882 0.454221 -1.90561 0
M  V30 4364 H 401.462 -0.641556 -0.382642 0
M  V30 4365 H 404.124 -1.92163 -0.325489 0
M  V30 4366 H 403.22 -2.63129 -1.67838 0
M  V30 4367 N 403.521 0.559213 -1.47345 0
M  V30 4368 C 404.468 1.66645 -1.59682 0
M  V30 4369 C 405.438 1.60168 -0.43994 0
M  V30 4370 O 406.623 1.79031 -0.659736 0
M  V30 4371 C 403.763 3.04969 -1.61518 0
M  V30 4372 C 402.876 3.21897 -2.88108 0
M  V30 4373 C 402.011 4.50608 -2.81294 0
M  V30 4374 C 401.05 4.60961 -4.02717 0
M  V30 4375 N 400.187 5.81024 -3.94151 0
M  V30 4376 H 405.027 1.55439 -2.54249 0
M  V30 4377 H 402.564 0.757219 -1.26113 0
M  V30 4378 H 404.522 3.85064 -1.60566 0
M  V30 4379 H 403.152 3.15015 -0.704645 0
M  V30 4380 H 402.204 2.35248 -2.98936 0
M  V30 4381 H 403.516 3.25412 -3.78032 0
M  V30 4382 H 402.67 5.3896 -2.7858 0
M  V30 4383 H 401.409 4.49568 -1.89049 0
M  V30 4384 H 400.414 3.71021 -4.05738 0
M  V30 4385 H 401.639 4.63761 -4.96087 0
M  V30 4386 H 399.585 5.80938 -3.04708 0
M  V30 4387 H 399.502 5.85909 -4.77752 0
M  V30 4388 H 400.77 6.71744 -3.9545 0
M  V30 4389 N 404.999 1.35443 0.805782 0
M  V30 4390 C 406.276 1.19325 1.54987 0
M  V30 4391 C 406.656 -0.227294 2.09873 0
M  V30 4392 O 406.004 -1.2309 1.92512 0
M  V30 4393 C 406.214 2.26196 2.65775 0
M  V30 4394 C 407.562 2.62043 3.34094 0
M  V30 4395 O 408.586 2.25115 2.76046 0
M  V30 4396 O 407.445 3.25542 4.38958 0
M  V30 4397 H 404.539 0.463623 0.684823 0
M  V30 4398 H 407.085 1.47127 0.845674 0
M  V30 4399 H 405.857 3.21471 2.23096 0
M  V30 4400 H 405.48 1.99667 3.43829 0
M  V30 4401 N 406.477 -1.02803 1.19454 0
M  V30 4402 C 407.407 -2.12999 0.956758 0
M  V30 4403 C 408.388 -1.69743 -0.110188 0
M  V30 4404 O 409.573 -1.94148 0.0450038 0
M  V30 4405 C 406.703 -3.43746 0.495553 0
M  V30 4406 C 405.657 -4.00688 1.50443 0
M  V30 4407 C 404.983 -5.27067 0.900275 0
M  V30 4408 C 406.283 -4.35397 2.8849 0
M  V30 4409 H 407.977 -2.33148 1.87836 0
M  V30 4410 H 405.523 -1.12045 0.904539 0
M  V30 4411 H 407.476 -4.2021 0.316493 0
M  V30 4412 H 406.2 -3.23321 -0.461646 0
M  V30 4413 H 404.859 -3.2632 1.67065 0
M  V30 4414 H 404.507 -5.02959 -0.064503 0
M  V30 4415 H 404.207 -5.66127 1.57397 0
M  V30 4416 H 405.731 -6.06196 0.73203 0
M  V30 4417 H 407.145 -5.02795 2.75446 0
M  V30 4418 H 405.542 -4.85541 3.52661 0
M  V30 4419 H 406.612 -3.44662 3.41081 0
M  V30 4420 N 407.956 -0.998596 -1.21925 0
M  V30 4421 C 408.886 -0.573688 -2.26343 0
M  V30 4422 C 409.867 0.402296 -1.65274 0
M  V30 4423 O 411.052 0.291683 -1.91997 0
M  V30 4424 C 408.182 0.106839 -3.47136 0
M  V30 4425 C 407.136 -0.788269 -4.20678 0
M  V30 4426 C 406.462 0.0254927 -5.34694 0
M  V30 4427 C 407.762 -2.08784 -4.78755 0
M  V30 4428 H 409.456 -1.44651 -2.62138 0
M  V30 4429 H 407.002 -0.696975 -1.26009 0
M  V30 4430 H 408.955 0.415531 -4.19346 0
M  V30 4431 H 407.679 1.01424 -3.10452 0
M  V30 4432 H 406.338 -1.08069 -3.50309 0
M  V30 4433 H 405.986 0.933989 -4.94253 0
M  V30 4434 H 405.686 -0.570437 -5.84825 0
M  V30 4435 H 407.21 0.328147 -6.09718 0
M  V30 4436 H 408.624 -1.84272 -5.42878 0
M  V30 4437 H 407.021 -2.63307 -5.39249 0
M  V30 4438 H 408.091 -2.76284 -3.98491 0
M  V30 4439 N 409.434 1.37368 -0.772513 0
M  V30 4440 C 410.364 2.32856 -0.173304 0
M  V30 4441 C 411.345 1.55818 0.682262 0
M  V30 4442 O 412.53 1.84052 0.619566 0
M  V30 4443 C 409.66 3.40048 0.706007 0
M  V30 4444 C 408.614 4.27973 -0.0483144 0
M  V30 4445 C 407.94 5.26184 0.950491 0
M  V30 4446 C 409.24 5.07665 -1.22776 0
M  V30 4447 H 410.934 2.83217 -0.971002 0
M  V30 4448 H 408.48 1.3617 -0.468377 0
M  V30 4449 H 410.433 4.05827 1.13501 0
M  V30 4450 H 409.157 2.88214 1.53623 0
M  V30 4451 H 407.816 3.63726 -0.458107 0
M  V30 4452 H 407.464 4.7063 1.77529 0
M  V30 4453 H 407.164 5.85872 0.450314 0
M  V30 4454 H 408.688 5.94838 1.37842 0
M  V30 4455 H 410.102 5.66578 -0.875366 0
M  V30 4456 H 408.499 5.76681 -1.66007 0
M  V30 4457 H 409.569 4.40294 -2.03149 0
M  V30 4458 N 410.912 0.523116 1.48665 0
M  V30 4459 C 411.859 -0.243398 2.29513 0
M  V30 4460 C 412.829 -0.940139 1.36933 0
M  V30 4461 O 414.014 -0.942503 1.65896 0
M  V30 4462 C 411.154 -1.28855 3.20141 0
M  V30 4463 C 410.267 -0.60135 4.27794 0
M  V30 4464 C 409.402 -1.62884 5.05611 0
M  V30 4465 C 408.441 -0.924726 6.05075 0
M  V30 4466 N 407.578 -1.89744 6.75975 0
M  V30 4467 H 412.418 0.452234 2.94549 0
M  V30 4468 H 409.955 0.234858 1.45213 0
M  V30 4469 H 411.913 -1.90674 3.71079 0
M  V30 4470 H 410.543 -1.95266 2.57043 0
M  V30 4471 H 409.595 0.130623 3.80176 0
M  V30 4472 H 410.907 -0.0481585 4.98777 0
M  V30 4473 H 410.061 -2.32149 5.60528 0
M  V30 4474 H 408.8 -2.21592 4.34452 0
M  V30 4475 H 407.805 -0.217966 5.49368 0
M  V30 4476 H 409.03 -0.343851 6.78229 0
M  V30 4477 H 406.976 -2.47373 6.07571 0
M  V30 4478 H 406.893 -1.3955 7.43009 0
M  V30 4479 H 408.161 -2.58229 7.35485 0
M  V30 4480 N 412.39 -1.55475 0.257931 0
M  V30 4481 C 413.63 -2.01112 -0.365129 0
M  V30 4482 C 413.994 -1.1423 -1.54323 0
M  V30 4483 O 415.195 -1.49371 -2.23477 0
M  V30 4484 C 413.466 -3.49353 -0.754117 0
M  V30 4485 S 415.025 -4.16992 -1.36614 0
M  V30 4486 H 411.843 -0.701737 -0.114397 0
M  V30 4487 H 414.445 -1.91855 0.375747 0
M  V30 4488 H 413.149 -4.10246 0.112441 0
M  V30 4489 H 412.68 -3.6256 -1.52689 0
M  V30 4490 H 414.695 -4.19191 -2.65505 0
M  V30 4491 N 413.868 0.0150385 -1.57593 0
M  V30 4492 C 414.798 1.01047 -2.10503 0
M  V30 4493 C 415.779 1.36816 -1.01071 0
M  V30 4494 O 416.964 1.45455 -1.28672 0
M  V30 4495 C 414.094 2.30708 -2.59598 0
M  V30 4496 C 413.048 2.09142 -3.73421 0
M  V30 4497 C 412.374 3.44685 -4.08774 0
M  V30 4498 C 413.674 1.46619 -5.01298 0
M  V30 4499 H 415.368 0.569978 -2.93925 0
M  V30 4500 H 412.914 0.272724 -1.41394 0
M  V30 4501 H 414.867 3.00687 -2.95238 0
M  V30 4502 H 413.591 2.76843 -1.73279 0
M  V30 4503 H 412.25 1.41592 -3.38153 0
M  V30 4504 H 411.898 3.88495 -3.195 0
M  V30 4505 H 411.598 3.31077 -4.8545 0
M  V30 4506 H 413.122 4.16004 -4.4696 0
M  V30 4507 H 414.536 2.06535 -5.34805 0
M  V30 4508 H 412.933 1.43544 -5.82679 0
M  V30 4509 H 414.003 0.433611 -4.82957 0
M  V30 4510 N 415.346 1.54954 0.287554 0
M  V30 4511 C 416.574 1.78881 1.03967 0
M  V30 4512 C 416.989 0.554894 1.80462 0
M  V30 4513 O 416.346 -0.475676 1.76192 0
M  V30 4514 C 416.397 3.00488 2.0097 0
M  V30 4515 O 416.118 4.19113 1.27577 0
M  V30 4516 C 417.619 3.36907 2.88112 0
M  V30 4517 H 414.839 0.596259 0.307761 0
M  V30 4518 H 417.383 2.01937 0.322749 0
M  V30 4519 H 415.538 2.79601 2.68145 0
M  V30 4520 H 415.952 4.87765 1.92835 0
M  V30 4521 H 417.426 4.25205 3.52001 0
M  V30 4522 H 417.903 2.55659 3.57121 0
M  V30 4523 H 418.509 3.60001 2.26449 0
M  V30 4524 N 416.824 -0.551391 1.4764 0
M  V30 4525 C 418.071 -1.3083 1.54563 0
M  V30 4526 C 418.399 -1.93359 0.210361 0
M  V30 4527 O 417.654 -1.78721 -0.797332 0
M  V30 4528 C 417.953 -2.43469 2.61644 0
M  V30 4529 C 417.619 -1.98732 4.04742 0
M  V30 4530 C 416.281 -1.86248 4.43695 0
M  V30 4531 C 418.633 -1.64659 4.94507 0
M  V30 4532 C 415.961 -1.37995 5.70241 0
M  V30 4533 C 418.313 -1.17875 6.21521 0
M  V30 4534 C 416.977 -1.03992 6.5935 0
M  V30 4535 H 416.247 -0.478741 0.565587 0
M  V30 4536 H 418.894 -0.617697 1.81264 0
M  V30 4537 H 417.199 -3.18109 2.28722 0
M  V30 4538 H 418.896 -3.01642 2.64222 0
M  V30 4539 H 415.486 -2.09393 3.73968 0
M  V30 4540 H 419.67 -1.73174 4.65107 0
M  V30 4541 H 414.926 -1.25915 5.98294 0
M  V30 4542 H 419.1 -0.905739 6.90485 0
M  V30 4543 H 416.727 -0.663794 7.57296 0
M  V30 4544 N 418.302 -1.35869 -0.798587 0
M  V30 4545 C 419.25 -1.29491 -1.93222 0
M  V30 4546 C 420.244 -0.18836 -1.6835 0
M  V30 4547 O 421.45 -0.354822 -1.76468 0
M  V30 4548 H 417.825 -0.402901 -0.63496 0
M  V30 4549 H 419.796 -2.25247 -1.9572 0
M  V30 4550 C 418.545 -1.09184 -3.30112 0
M  V30 4551 H 417.868 -1.93574 -3.49813 0
M  V30 4552 H 419.308 -1.08766 -4.09812 0
M  V30 4553 C 417.767 0.203959 -3.36282 0
M  V30 4554 O 418.297 1.19699 -3.83451 0
M  V30 4555 N 416.503 0.245488 -2.89561 0
M  V30 4556 H 416.05 -0.563223 -2.51367 0
M  V30 4557 H 416.008 1.11219 -2.94071 0
M  V30 4558 N 419.78 1.02168 -1.19998 0
M  V30 4559 C 421.191 1.57135 -1.00825 0
M  V30 4560 C 421.542 1.91276 0.436818 0
M  V30 4561 O 420.667 1.71679 1.3174 0
M  V30 4562 C 421.262 2.85514 -1.82393 0
M  V30 4563 C 419.821 3.37027 -1.67601 0
M  V30 4564 C 418.968 2.10388 -1.80644 0
M  V30 4565 H 421.919 0.846106 -1.34264 0
M  V30 4566 H 421.94 3.56711 -1.32429 0
M  V30 4567 H 421.452 2.60634 -2.87561 0
M  V30 4568 H 419.553 3.66878 -0.650485 0
M  V30 4569 H 419.666 4.09572 -2.4857 0
M  V30 4570 H 418.03 2.22601 -1.23778 0
M  V30 4571 H 418.813 1.8794 -2.87286 0
M  V30 4572 N 421.258 1.00505 1.21394 0
M  V30 4573 C 422.221 0.570459 2.21987 0
M  V30 4574 C 423.221 -0.353211 1.56873 0
M  V30 4575 O 424.411 -0.14349 1.73608 0
M  V30 4576 C 421.543 -0.168555 3.40483 0
M  V30 4577 H 422.736 1.46021 2.6195 0
M  V30 4578 H 420.289 0.793565 1.34656 0
M  V30 4579 H 421.024 -1.07374 3.06009 0
M  V30 4580 H 420.809 0.494823 3.88965 0
M  V30 4581 H 422.299 -0.460362 4.15055 0
M  V30 4582 N 422.737 -1.36956 0.779787 0
M  V30 4583 C 423.684 -2.30175 0.169697 0
M  V30 4584 C 424.654 -1.51501 -0.68094 0
M  V30 4585 O 425.839 -1.80042 -0.631629 0
M  V30 4586 C 422.979 -3.37985 -0.697131 0
M  V30 4587 C 422.092 -4.31661 0.170992 0
M  V30 4588 C 421.227 -5.2655 -0.701298 0
M  V30 4589 C 420.266 -6.11867 0.168869 0
M  V30 4590 N 419.403 -6.98973 -0.661855 0
M  V30 4591 H 424.243 -2.81767 0.970135 0
M  V30 4592 H 421.78 -1.38699 0.489994 0
M  V30 4593 H 423.738 -3.99128 -1.2146 0
M  V30 4594 H 422.368 -2.87739 -1.46309 0
M  V30 4595 H 421.42 -3.71756 0.80634 0
M  V30 4596 H 422.732 -4.91644 0.841875 0
M  V30 4597 H 421.886 -5.92937 -1.28494 0
M  V30 4598 H 420.625 -4.66998 -1.40584 0
M  V30 4599 H 419.63 -5.44452 0.764986 0
M  V30 4600 H 420.855 -6.73493 0.870863 0
M  V30 4601 H 418.801 -6.41941 -1.35086 0
M  V30 4602 H 418.718 -7.55984 -0.0484447 0
M  V30 4603 H 419.986 -7.6974 -1.22963 0
M  V30 4604 N 424.215 -0.530993 -1.48385 0
M  V30 4605 C 425.631 -0.188919 -1.58478 0
M  V30 4606 C 425.831 1.30786 -1.53288 0
M  V30 4607 O 424.887 2.08619 -1.42248 0
M  V30 4608 C 426.2 -0.792343 -2.90073 0
M  V30 4609 C 427.748 -0.76117 -3.03604 0
M  V30 4610 C 428.223 -1.34319 -4.37861 0
M  V30 4611 N 429.714 -1.3052 -4.44431 0
M  V30 4612 C 430.449 -1.72543 -5.46824 0
M  V30 4613 N 429.945 -2.22299 -6.56167 0
M  V30 4614 N 431.738 -1.63773 -5.37712 0
M  V30 4615 H 423.889 -1.50377 -1.50002 0
M  V30 4616 H 426.152 -0.625559 -0.712306 0
M  V30 4617 H 425.858 -1.84323 -2.99529 0
M  V30 4618 H 425.732 -0.270026 -3.76232 0
M  V30 4619 H 428.119 0.280957 -2.93759 0
M  V30 4620 H 428.2 -1.32097 -2.19053 0
M  V30 4621 H 427.844 -2.38425 -4.4846 0
M  V30 4622 H 427.774 -0.759064 -5.21101 0
M  V30 4623 H 430.265 -0.940973 -3.65997 0
M  V30 4624 H 430.578 -2.52356 -7.30436 0
M  V30 4625 H 428.923 -2.26293 -6.57127 0
M  V30 4626 H 432.114 -1.24698 -4.51185 0
M  V30 4627 H 432.287 -1.96844 -6.17379 0
M  V30 4628 N 425.693 1.55336 -0.266172 0
M  V30 4629 C 426.942 1.98574 0.353749 0
M  V30 4630 C 427.255 1.15789 1.57646 0
M  V30 4631 O 428.461 1.49129 2.26876 0
M  V30 4632 C 426.917 3.53403 0.680747 0
M  V30 4633 C 426.525 4.44953 -0.52165 0
M  V30 4634 C 428.269 4.05251 1.26379 0
M  V30 4635 C 426.176 5.91156 -0.169736 0
M  V30 4636 H 425.106 0.741643 0.135949 0
M  V30 4637 H 427.757 1.79743 -0.369421 0
M  V30 4638 H 426.139 3.68001 1.46257 0
M  V30 4639 H 427.313 4.42121 -1.29869 0
M  V30 4640 H 425.628 4.03691 -1.02093 0
M  V30 4641 H 428.225 5.12021 1.54074 0
M  V30 4642 H 428.568 3.53749 2.19471 0
M  V30 4643 H 429.101 3.94057 0.544447 0
M  V30 4644 H 425.84 6.46736 -1.0683 0
M  V30 4645 H 425.36 5.97079 0.570717 0
M  V30 4646 H 427.039 6.4655 0.241245 0
M  V30 4647 N 427.171 -0.0066808 1.57599 0
M  V30 4648 C 428.396 -0.707738 1.94951 0
M  V30 4649 C 428.821 -1.66882 0.867868 0
M  V30 4650 O 428.179 -1.80457 -0.17458 0
M  V30 4651 C 428.227 -1.42162 3.31394 0
M  V30 4652 O 427.331 -2.53578 3.25226 0
M  V30 4653 H 426.672 -0.188752 0.636607 0
M  V30 4654 H 429.202 0.0445193 2.04552 0
M  V30 4655 H 429.212 -1.78655 3.66806 0
M  V30 4656 H 427.887 -0.716903 4.09675 0
M  V30 4657 H 426.464 -2.19463 3.01481 0
M  V30 4658 N 428.649 -1.55105 -0.279332 0
M  V30 4659 C 429.612 -1.86783 -1.32834 0
M  V30 4660 C 430.612 -0.74199 -1.42657 0
M  V30 4661 O 431.802 -1.0102 -1.41918 0
M  V30 4662 C 428.934 -2.06746 -2.71052 0
M  V30 4663 H 430.127 -2.8055 -1.05979 0
M  V30 4664 H 427.68 -1.47499 -0.517087 0
M  V30 4665 H 428.415 -1.15339 -3.03097 0
M  V30 4666 H 428.2 -2.88711 -2.65309 0
M  V30 4667 H 429.69 -2.32549 -3.46858 0
M  V30 4668 N 430.127 0.543554 -1.4793 0
M  V30 4669 C 431.357 1.32324 -1.58663 0
M  V30 4670 C 431.765 1.8766 -0.240896 0
M  V30 4671 O 431.108 1.66411 0.778011 0
M  V30 4672 C 431.17 2.52094 -2.56299 0
M  V30 4673 C 430.834 2.17944 -4.01683 0
M  V30 4674 C 431.831 1.74422 -4.89768 0
M  V30 4675 C 429.516 2.28884 -4.47121 0
M  V30 4676 C 431.51 1.42287 -6.21316 0
M  V30 4677 C 429.197 1.96361 -5.78693 0
M  V30 4678 C 430.195 1.53132 -6.65612 0
M  V30 4679 O 429.883 1.21029 -7.94737 0
M  V30 4680 H 429.615 0.409174 -0.538101 0
M  V30 4681 H 432.169 0.663887 -1.94375 0
M  V30 4682 H 430.399 3.20965 -2.15681 0
M  V30 4683 H 432.088 3.14165 -2.57012 0
M  V30 4684 H 432.854 1.65452 -4.55907 0
M  V30 4685 H 428.733 2.61488 -3.79664 0
M  V30 4686 H 432.277 1.08472 -6.89115 0
M  V30 4687 H 428.174 2.04967 -6.12094 0
M  V30 4688 H 428.942 1.34543 -8.07366 0
M  V30 4689 N 431.605 1.3629 0.791371 0
M  V30 4690 C 432.83 1.33726 1.58531 0
M  V30 4691 C 433.255 -0.0794933 1.87932 0
M  V30 4692 O 432.613 -1.05087 1.47738 0
M  V30 4693 C 432.661 2.16425 2.88431 0
M  V30 4694 O 431.765 1.5554 3.81944 0
M  V30 4695 H 431.106 0.457793 0.480959 0
M  V30 4696 H 433.636 1.79547 0.981031 0
M  V30 4697 H 433.646 2.28933 3.37718 0
M  V30 4698 H 432.321 3.19415 2.66359 0
M  V30 4699 H 430.898 1.51961 3.40532 0
M  V30 4700 N 433.083 -1.0153 1.20538 0
M  V30 4701 C 434.046 -2.0826 0.957098 0
M  V30 4702 C 435.046 -1.60657 -0.0678655 0
M  V30 4703 O 436.236 -1.73385 0.168332 0
M  V30 4704 C 433.368 -3.38033 0.441188 0
M  V30 4705 H 434.561 -2.31719 1.90384 0
M  V30 4706 H 432.114 -1.1835 1.02093 0
M  V30 4707 H 432.849 -3.20249 -0.510961 0
M  V30 4708 H 432.634 -3.73911 1.18038 0
M  V30 4709 H 434.124 -4.16613 0.287009 0
M  V30 4710 N 434.561 -1.01147 -1.20859 0
M  V30 4711 C 435.491 -0.597663 -2.25722 0
M  V30 4712 C 436.472 0.384744 -1.65692 0
M  V30 4713 O 437.657 0.271303 -1.92296 0
M  V30 4714 C 434.787 0.0700149 -3.47229 0
M  V30 4715 C 433.741 -0.832843 -4.19819 0
M  V30 4716 C 433.067 -0.0312202 -5.34691 0
M  V30 4717 C 434.367 -2.1385 -4.76514 0
M  V30 4718 H 436.061 -1.47423 -2.60589 0
M  V30 4719 H 433.607 -0.710301 -1.25263 0
M  V30 4720 H 435.56 0.37103 -4.19763 0
M  V30 4721 H 434.284 0.981259 -3.11511 0
M  V30 4722 H 432.943 -1.11778 -3.49144 0
M  V30 4723 H 432.591 0.881515 -4.95215 0
M  V30 4724 H 432.291 -0.632434 -5.84187 0
M  V30 4725 H 433.815 0.26346 -6.10031 0
M  V30 4726 H 435.229 -1.9002 -5.40893 0
M  V30 4727 H 433.626 -2.69012 -5.36426 0
M  V30 4728 H 434.696 -2.80495 -3.95538 0
M  V30 4729 N 436.039 1.36541 -0.78704 0
M  V30 4730 C 437.264 2.0409 -0.369053 0
M  V30 4731 C 437.689 1.58957 1.00569 0
M  V30 4732 O 437.047 0.756926 1.64743 0
M  V30 4733 C 437.095 3.57924 -0.438466 0
M  V30 4734 O 436.199 4.08642 0.555479 0
M  V30 4735 H 435.54 0.645142 -0.157122 0
M  V30 4736 H 438.07 1.74545 -1.06749 0
M  V30 4737 H 438.08 4.06887 -0.301218 0
M  V30 4738 H 436.755 3.90127 -1.44132 0
M  V30 4739 H 435.332 3.70958 0.380088 0
M  V30 4740 N 437.518 0.538854 1.48102 0
M  V30 4741 C 438.468 -0.23907 2.26743 0
M  V30 4742 C 439.452 -0.901923 1.33245 0
M  V30 4743 O 440.644 -0.803263 1.57723 0
M  V30 4744 C 437.773 -1.2799 3.18549 0
M  V30 4745 C 436.859 -0.621388 4.19523 0
M  V30 4746 N 437.25 0.298004 5.04921 0
M  V30 4747 C 435.548 -0.877533 4.37282 0
M  V30 4748 C 436.249 0.678757 5.77726 0
M  V30 4749 N 435.225 0.0377881 5.43587 0
M  V30 4750 H 439.027 0.468096 2.90148 0
M  V30 4751 H 436.541 0.357497 1.58416 0
M  V30 4752 H 438.538 -1.851 3.73555 0
M  V30 4753 H 437.198 -1.98835 2.567 0
M  V30 4754 H 438.209 0.671126 5.13533 0
M  V30 4755 H 434.886 -1.57588 3.86616 0
M  V30 4756 H 436.276 1.43316 6.56437 0
M  V30 4757 N 438.996 -1.55193 0.274407 0
M  V30 4758 C 440.407 -1.85358 -0.223488 0
M  V30 4759 C 440.758 -1.19642 -1.555 0
M  V30 4760 O 439.883 -0.484498 -2.10907 0
M  V30 4761 C 440.478 -3.36282 -0.412285 0
M  V30 4762 C 439.037 -3.66574 -0.854413 0
M  V30 4763 C 438.184 -2.7725 0.0527056 0
M  V30 4764 H 441.135 -1.50743 0.496215 0
M  V30 4765 H 441.156 -3.59349 -1.25094 0
M  V30 4766 H 440.668 -3.84083 0.556965 0
M  V30 4767 H 438.769 -3.24273 -1.83516 0
M  V30 4768 H 438.882 -4.74073 -0.692226 0
M  V30 4769 H 437.246 -2.50447 -0.463484 0
M  V30 4770 H 438.029 -3.27865 1.01783 0
M  V30 4771 N 440.474 -0.00167713 -1.576 0
M  V30 4772 C 441.704 0.692754 -1.94639 0
M  V30 4773 C 442.112 1.67744 -0.87513 0
M  V30 4774 O 441.455 1.8305 0.154382 0
M  V30 4775 C 441.517 1.47881 -3.27676 0
M  V30 4776 C 441.181 0.655518 -4.52274 0
M  V30 4777 C 442.178 -0.0575214 -5.19868 0
M  V30 4778 C 439.863 0.600994 -4.98692 0
M  V30 4779 C 441.857 -0.814052 -6.3218 0
M  V30 4780 C 439.544 -0.15926 -6.10892 0
M  V30 4781 C 440.542 -0.865515 -6.77494 0
M  V30 4782 O 440.23 -1.61336 -7.87544 0
M  V30 4783 H 439.962 0.197792 -0.646417 0
M  V30 4784 H 442.516 -0.049423 -2.05341 0
M  V30 4785 H 440.746 2.2655 -3.13388 0
M  V30 4786 H 442.435 2.05874 -3.49816 0
M  V30 4787 H 443.201 -0.0245611 -4.84994 0
M  V30 4788 H 439.08 1.14025 -4.46676 0
M  V30 4789 H 442.624 -1.36584 -6.84098 0
M  V30 4790 H 438.521 -0.194035 -6.45208 0
M  V30 4791 H 439.289 -1.53025 -8.04068 0
M  V30 4792 N 441.952 1.55251 0.271103 0
M  V30 4793 C 443.199 1.75946 1.00245 0
M  V30 4794 C 443.527 0.561611 1.86215 0
M  V30 4795 O 442.782 -0.455832 1.90317 0
M  V30 4796 C 443.081 3.01879 1.91321 0
M  V30 4797 C 442.747 4.34337 1.21086 0
M  V30 4798 C 441.409 4.70338 1.01666 0
M  V30 4799 C 443.761 5.16325 0.71119 0
M  V30 4800 C 441.089 5.8588 0.310099 0
M  V30 4801 C 443.441 6.32597 0.0182157 0
M  V30 4802 C 442.105 6.67236 -0.18768 0
M  V30 4803 H 441.375 0.643833 0.366824 0
M  V30 4804 H 444.022 1.89521 0.27458 0
M  V30 4805 H 442.327 2.83212 2.70736 0
M  V30 4806 H 444.024 3.15088 2.48033 0
M  V30 4807 H 440.614 4.06043 1.37213 0
M  V30 4808 H 444.798 4.88987 0.848844 0
M  V30 4809 H 440.054 6.1124 0.139873 0
M  V30 4810 H 444.228 6.9538 -0.376711 0
M  V30 4811 H 441.855 7.56618 -0.73715 0
M  V30 4812 N 443.43 -0.535701 1.48216 0
M  V30 4813 C 444.362 -1.65662 1.58394 0
M  V30 4814 C 445.375 -1.5591 0.468607 0
M  V30 4815 O 446.564 -1.62475 0.7392 0
M  V30 4816 C 443.664 -3.04276 1.4923 0
M  V30 4817 C 442.837 -3.39567 2.75705 0
M  V30 4818 C 441.896 -4.57436 2.60075 0
M  V30 4819 O 440.922 -4.60942 3.33948 0
M  V30 4820 N 442.124 -5.55259 1.69315 0
M  V30 4821 H 444.889 -1.5737 2.55058 0
M  V30 4822 H 442.45 -0.722845 1.44867 0
M  V30 4823 H 444.442 -3.80994 1.36477 0
M  V30 4824 H 443.012 -3.06677 0.605632 0
M  V30 4825 H 442.232 -2.52083 3.03064 0
M  V30 4826 H 443.52 -3.59929 3.59623 0
M  V30 4827 H 442.918 -5.552 1.08489 0
M  V30 4828 H 441.475 -6.31218 1.62504 0
M  V30 4829 N 444.908 -1.36708 -0.784132 0
M  V30 4830 C 446.185 -1.21776 -1.53069 0
M  V30 4831 C 446.565 0.193876 -2.10208 0
M  V30 4832 O 445.913 1.20012 -1.94446 0
M  V30 4833 C 446.123 -2.30395 -2.62143 0
M  V30 4834 C 447.471 -2.67325 -3.29882 0
M  V30 4835 O 448.495 -2.29478 -2.7243 0
M  V30 4836 O 447.354 -3.32485 -4.33724 0
M  V30 4837 H 444.448 -0.474459 -0.677361 0
M  V30 4838 H 446.994 -1.48454 -0.82216 0
M  V30 4839 H 445.766 -3.2498 -2.17953 0
M  V30 4840 H 445.389 -2.05112 -3.40609 0
M  V30 4841 N 446.386 1.0089 -1.21074 0
M  V30 4842 C 447.316 2.1145 -0.990523 0
M  V30 4843 C 448.297 1.69897 0.0831699 0
M  V30 4844 O 449.482 1.94052 -0.0758853 0
M  V30 4845 C 446.612 3.42914 -0.550177 0
M  V30 4846 C 445.566 3.98244 -1.56799 0
M  V30 4847 C 444.892 5.25568 -0.984013 0
M  V30 4848 C 446.192 4.30752 -2.95381 0
M  V30 4849 H 447.886 2.3013 -1.91521 0
M  V30 4850 H 445.432 1.10592 -0.92225 0
M  V30 4851 H 447.385 4.19653 -0.383305 0
M  V30 4852 H 446.109 3.24014 0.41015 0
M  V30 4853 H 444.768 3.23621 -1.72236 0
M  V30 4854 H 444.416 5.02998 -0.0155216 0
M  V30 4855 H 444.116 5.63551 -1.66384 0
M  V30 4856 H 445.64 6.04955 -0.828378 0
M  V30 4857 H 447.054 4.98349 -2.8341 0
M  V30 4858 H 445.451 4.79869 -3.60341 0
M  V30 4859 H 446.521 3.39192 -3.46521 0
M  V30 4860 N 447.864 1.01787 1.20321 0
M  V30 4861 C 448.774 0.598898 2.26827 0
M  V30 4862 C 449.79 -0.36418 1.70146 0
M  V30 4863 O 450.966 -0.224812 2.00141 0
M  V30 4864 C 448.031 -0.0549769 3.46656 0
M  V30 4865 C 447.092 0.954205 4.18561 0
M  V30 4866 C 446.325 0.331439 5.3267 0
M  V30 4867 O 446.548 -0.86851 5.63749 0
M  V30 4868 O 445.482 1.0488 5.92692 0
M  V30 4869 H 449.308 1.48562 2.64883 0
M  V30 4870 H 446.893 0.787434 1.26964 0
M  V30 4871 H 448.775 -0.420102 4.19301 0
M  V30 4872 H 447.45 -0.915876 3.10473 0
M  V30 4873 H 446.357 1.37072 3.48083 0
M  V30 4874 H 447.69 1.78511 4.58688 0
M  V30 4875 N 449.342 -1.36122 0.79427 0
M  V30 4876 C 450.758 -1.5232 0.476525 0
M  V30 4877 C 450.958 -1.74685 -1.00436 0
M  V30 4878 O 450.014 -1.78115 -1.78973 0
M  V30 4879 C 451.327 -2.70607 1.31119 0
M  V30 4880 C 452.875 -2.8448 1.30537 0
M  V30 4881 C 453.35 -4.05778 2.12387 0
M  V30 4882 N 454.841 -4.12933 2.09859 0
M  V30 4883 C 455.576 -5.05876 2.69957 0
M  V30 4884 N 455.072 -6.04232 3.38934 0
M  V30 4885 N 456.865 -4.98528 2.59665 0
M  V30 4886 H 449.016 -1.1986 1.75349 0
M  V30 4887 H 451.279 -0.585418 0.745647 0
M  V30 4888 H 450.985 -2.60619 2.36158 0
M  V30 4889 H 450.859 -3.64888 0.955843 0
M  V30 4890 H 453.246 -2.93927 0.262876 0
M  V30 4891 H 453.327 -1.91093 1.70051 0
M  V30 4892 H 452.971 -3.97092 3.1667 0
M  V30 4893 H 452.901 -4.98323 1.70242 0
M  V30 4894 H 455.392 -3.42515 1.59662 0
M  V30 4895 H 455.705 -6.71724 3.82109 0
M  V30 4896 H 454.05 -6.04443 3.43036 0
M  V30 4897 H 457.241 -4.20641 2.05375 0
M  V30 4898 H 457.414 -5.70773 3.06793 0
M  V30 4899 N 450.82 -0.546701 -1.47814 0
M  V30 4900 C 452.06 -0.0209604 -2.04389 0
M  V30 4901 C 452.424 1.29993 -1.413 0
M  V30 4902 O 453.625 1.91273 -1.8886 0
M  V30 4903 C 451.896 0.0812844 -3.57308 0
M  V30 4904 S 453.455 0.55467 -4.3528 0
M  V30 4905 H 450.273 -0.0200865 -0.710716 0
M  V30 4906 H 452.875 -0.731055 -1.81317 0
M  V30 4907 H 451.579 -0.884616 -4.00753 0
M  V30 4908 H 451.11 0.815253 -3.8486 0
M  V30 4909 H 453.125 1.81627 -4.61764 0
M  V30 4910 N 452.299 1.55045 -0.282633 0
M  V30 4911 C 453.246 2.22822 0.601566 0
M  V30 4912 C 454.216 1.20431 1.14392 0
M  V30 4913 O 455.401 1.48996 1.19184 0
M  V30 4914 C 452.541 2.95873 1.77632 0
M  V30 4915 C 451.654 4.12999 1.26711 0
M  V30 4916 C 450.789 4.73676 2.40426 0
M  V30 4917 C 449.828 5.82981 1.86545 0
M  V30 4918 N 448.965 6.3769 2.93762 0
M  V30 4919 H 453.805 2.97995 0.0169528 0
M  V30 4920 H 451.342 1.471 -0.00339964 0
M  V30 4921 H 453.3 3.36447 2.46697 0
M  V30 4922 H 451.93 2.2311 2.33285 0
M  V30 4923 H 450.982 3.77494 0.469314 0
M  V30 4924 H 452.294 4.91803 0.832518 0
M  V30 4925 H 451.448 5.17008 3.17471 0
M  V30 4926 H 450.187 3.94164 2.87203 0
M  V30 4927 H 449.192 5.39092 1.07983 0
M  V30 4928 H 450.417 6.64366 1.40694 0
M  V30 4929 H 448.363 5.61069 3.39908 0
M  V30 4930 H 448.28 7.11788 2.54744 0
M  V30 4931 H 449.548 6.8568 3.7076 0
M  V30 4932 N 453.777 0.010035 1.57597 0
M  V30 4933 C 454.687 -0.994226 2.12491 0
M  V30 4934 C 455.703 -1.37013 1.07254 0
M  V30 4935 O 456.879 -1.45542 1.3921 0
M  V30 4936 C 453.944 -2.2642 2.62555 0
M  V30 4937 C 453.005 -1.95049 3.82432 0
M  V30 4938 C 452.238 -3.15991 4.30099 0
M  V30 4939 O 452.461 -4.28015 3.7704 0
M  V30 4940 O 451.395 -2.99403 5.22151 0
M  V30 4941 H 455.221 -0.557549 2.98538 0
M  V30 4942 H 452.806 -0.209413 1.47925 0
M  V30 4943 H 454.688 -3.01009 2.9491 0
M  V30 4944 H 453.363 -2.69306 1.796 0
M  V30 4945 H 452.27 -1.17904 3.55034 0
M  V30 4946 H 453.603 -1.56992 4.66491 0
M  V30 4947 N 455.255 -1.55392 -0.262866 0
M  V30 4948 C 456.203 -1.8977 -1.345 0
M  V30 4949 C 457.197 -0.775063 -1.50629 0
M  V30 4950 O 458.403 -0.959519 -1.52293 0
M  V30 4951 H 454.778 -0.602467 -0.450041 0
M  V30 4952 H 456.749 -2.80147 -1.02762 0
M  V30 4953 C 455.498 -2.19501 -2.69657 0
M  V30 4954 H 454.821 -3.05378 -2.5804 0
M  V30 4955 H 456.261 -2.47469 -3.44289 0
M  V30 4956 C 454.72 -1.00597 -3.21531 0
M  V30 4957 O 455.25 -0.245768 -4.00947 0
M  V30 4958 N 453.456 -0.800911 -2.79345 0
M  V30 4959 H 453.003 -1.42079 -2.14875 0
M  V30 4960 H 452.961 -0.00697996 -3.14399 0
M  V30 4961 N 456.733 0.527833 -1.48498 0
M  V30 4962 C 457.663 1.64136 -1.66077 0
M  V30 4963 C 458.644 1.62286 -0.509625 0
M  V30 4964 O 459.829 1.79449 -0.742413 0
M  V30 4965 C 456.959 3.02717 -1.70234 0
M  V30 4966 C 455.913 3.19426 -2.8487 0
M  V30 4967 C 455.239 4.5909 -2.74118 0
M  V30 4968 C 456.539 3.01993 -4.26142 0
M  V30 4969 H 458.233 1.4968 -2.593 0
M  V30 4970 H 455.779 0.718654 -1.24785 0
M  V30 4971 H 457.732 3.80491 -1.8112 0
M  V30 4972 H 456.456 3.18201 -0.735911 0
M  V30 4973 H 455.115 2.4407 -2.73542 0
M  V30 4974 H 454.763 4.71413 -1.7544 0
M  V30 4975 H 454.463 4.71214 -3.51042 0
M  V30 4976 H 455.987 5.3896 -2.86974 0
M  V30 4977 H 457.401 3.69558 -4.38292 0
M  V30 4978 H 455.798 3.2561 -5.04082 0
M  V30 4979 H 456.868 1.98396 -4.42456 0
M  V30 4980 N 458.211 1.37122 0.776871 0
M  V30 4981 C 459.488 1.22586 1.52421 0
M  V30 4982 C 459.868 -0.182726 2.10308 0
M  V30 4983 O 459.216 -1.18979 1.9508 0
M  V30 4984 C 459.426 2.31782 2.60918 0
M  V30 4985 C 460.774 2.69071 3.2846 0
M  V30 4986 O 461.798 2.3092 2.71209 0
M  V30 4987 O 460.657 3.3478 4.31954 0
M  V30 4988 H 457.751 0.478045 0.674835 0
M  V30 4989 H 460.297 1.48888 0.814275 0
M  V30 4990 H 459.069 3.26131 2.16227 0
M  V30 4991 H 458.692 2.06916 3.39517 0
M  V30 4992 N 459.689 -1.00246 1.21608 0
M  V30 4993 C 460.914 -1.78167 1.06167 0
M  V30 4994 C 461.339 -1.84138 -0.384035 0
M  V30 4995 O 460.697 -1.28683 -1.27712 0
M  V30 4996 C 460.745 -3.19786 1.66642 0
M  V30 4997 O 459.849 -4.02153 0.913613 0
M  V30 4998 H 459.19 -0.549 0.37349 0
M  V30 4999 H 461.72 -1.25994 1.61204 0
M  V30 5000 H 461.73 -3.70451 1.70969 0
M  V30 5001 H 460.405 -3.14754 2.7185 0
M  V30 5002 H 458.982 -3.60711 0.945635 0
M  V30 5003 N 461.167 -1.02423 -1.1978 0
M  V30 5004 C 462.117 -0.571689 -2.20716 0
M  V30 5005 C 463.101 0.377077 -1.56419 0
M  V30 5006 O 464.293 0.198801 -1.7588 0
M  V30 5007 C 461.422 0.0808555 -3.43205 0
M  V30 5008 C 460.508 -0.890073 -4.14655 0
M  V30 5009 N 460.899 -2.05065 -4.62366 0
M  V30 5010 C 459.197 -0.71252 -4.40272 0
M  V30 5011 C 459.898 -2.66264 -5.17183 0
M  V30 5012 N 458.874 -1.94264 -5.07703 0
M  V30 5013 H 462.676 -1.45636 -2.55279 0
M  V30 5014 H 460.19 -0.890596 -1.35802 0
M  V30 5015 H 462.187 0.422654 -4.14752 0
M  V30 5016 H 460.847 0.961274 -3.10144 0
M  V30 5017 H 461.858 -2.43026 -4.57339 0
M  V30 5018 H 458.535 0.119199 -4.1733 0
M  V30 5019 H 459.925 -3.64526 -5.64421 0
M  V30 5020 N 462.645 1.35699 -0.801477 0
M  V30 5021 C 463.575 2.32436 -0.222658 0
M  V30 5022 C 464.556 1.5723 0.649057 0
M  V30 5023 O 465.741 1.85324 0.580387 0
M  V30 5024 C 462.871 3.41469 0.633719 0
M  V30 5025 C 461.825 4.27774 -0.139083 0
M  V30 5026 C 461.151 5.28082 0.838666 0
M  V30 5027 C 462.451 5.04946 -1.33517 0
M  V30 5028 H 464.145 2.81094 -1.03086 0
M  V30 5029 H 461.691 1.35146 -0.497155 0
M  V30 5030 H 463.644 4.08143 1.04868 0
M  V30 5031 H 462.368 2.91408 1.47475 0
M  V30 5032 H 461.027 3.62673 -0.535156 0
M  V30 5033 H 460.675 4.7429 1.67506 0
M  V30 5034 H 460.375 5.86695 0.32594 0
M  V30 5035 H 461.899 5.97628 1.25194 0
M  V30 5036 H 463.313 5.64593 -0.995349 0
M  V30 5037 H 461.71 5.7303 -1.78202 0
M  V30 5038 H 462.78 4.35886 -2.12442 0
M  V30 5039 N 464.123 0.554532 1.47522 0
M  V30 5040 C 465.534 0.120446 1.86311 0
M  V30 5041 C 465.885 -1.30904 1.46145 0
M  V30 5042 O 465.01 -1.98434 0.863294 0
M  V30 5043 C 465.605 0.211808 3.38137 0
M  V30 5044 C 464.164 -0.167224 3.76028 0
M  V30 5045 C 463.311 0.560576 2.71575 0
M  V30 5046 H 466.262 0.764408 1.39077 0
M  V30 5047 H 466.283 -0.570275 3.76202 0
M  V30 5048 H 465.795 1.25232 3.6734 0
M  V30 5049 H 463.896 -1.20894 3.52442 0
M  V30 5050 H 464.009 0.189473 4.78725 0
M  V30 5051 H 462.373 0.00396836 2.547 0
M  V30 5052 H 463.156 1.60219 3.0362 0
M  V30 5053 N 465.601 -1.54893 0.290851 0
M  V30 5054 C 467.012 -1.85584 -0.203816 0
M  V30 5055 C 467.363 -1.21285 -1.54222 0
M  V30 5056 O 466.488 -0.506841 -2.10381 0
M  V30 5057 C 467.083 -3.367 -0.376595 0
M  V30 5058 C 465.642 -3.6746 -0.815485 0
M  V30 5059 C 464.789 -2.77178 0.0821087 0
M  V30 5060 H 467.74 -1.50208 0.512175 0
M  V30 5061 H 467.761 -3.60656 -1.21275 0
M  V30 5062 H 467.273 -3.8347 0.59767 0
M  V30 5063 H 465.374 -3.26201 -1.80066 0
M  V30 5064 H 465.487 -4.7478 -0.641905 0
M  V30 5065 H 463.851 -2.50925 -0.436895 0
M  V30 5066 H 464.634 -3.26767 1.05254 0
M  V30 5067 N 467.08 -0.0183926 -1.57589 0
M  V30 5068 C 468.305 0.676634 -1.96052 0
M  V30 5069 C 468.73 1.6548 -0.894307 0
M  V30 5070 O 468.088 1.80712 0.145849 0
M  V30 5071 C 468.136 1.36872 -3.33614 0
M  V30 5072 O 467.24 2.48372 -3.29219 0
M  V30 5073 H 466.581 0.1786 -0.63953 0
M  V30 5074 H 469.111 -0.077056 -2.04455 0
M  V30 5075 H 469.121 1.72797 -3.69601 0
M  V30 5076 H 467.796 0.651636 -4.10763 0
M  V30 5077 H 466.373 2.14639 -3.04934 0
M  V30 5078 N 468.558 1.5553 0.254621 0
M  V30 5079 C 469.49 1.86104 1.33783 0
M  V30 5080 C 470.503 0.746752 1.44663 0
M  V30 5081 O 471.692 1.0248 1.46151 0
M  V30 5082 C 468.792 2.02532 2.71724 0
M  V30 5083 C 467.965 3.33335 2.83208 0
M  V30 5084 C 467.024 3.396 4.01943 0
M  V30 5085 O 466.05 4.12862 3.91834 0
M  V30 5086 N 467.252 2.68332 5.1476 0
M  V30 5087 H 470.017 2.79605 1.07893 0
M  V30 5088 H 467.578 1.55672 0.444732 0
M  V30 5089 H 469.57 2.04074 3.4948 0
M  V30 5090 H 468.14 1.15811 2.90356 0
M  V30 5091 H 467.36 3.44176 1.92189 0
M  V30 5092 H 468.648 4.19565 2.87824 0
M  V30 5093 H 468.046 2.08528 5.25864 0
M  V30 5094 H 466.603 2.75575 5.90679 0
M  V30 5095 N 470.036 -0.519951 1.48776 0
M  V30 5096 C 470.984 -1.64443 1.64503 0
M  V30 5097 C 471.978 -1.61501 0.511248 0
M  V30 5098 O 473.184 -1.66238 0.690294 0
M  V30 5099 H 469.559 -0.544776 0.518385 0
M  V30 5100 H 471.53 -1.48325 2.58925 0
M  V30 5101 C 470.279 -3.02673 1.71127 0
M  V30 5102 H 469.602 -3.05635 2.57735 0
M  V30 5103 H 471.042 -3.80941 1.86172 0
M  V30 5104 C 469.501 -3.33854 0.452032 0
M  V30 5105 O 470.031 -3.99385 -0.430678 0
M  V30 5106 N 468.237 -2.88825 0.32069 0
M  V30 5107 H 467.784 -2.35674 1.03998 0
M  V30 5108 H 467.742 -3.10056 -0.520814 0
M  V30 5109 N 471.514 -1.37532 -0.769588 0
M  V30 5110 C 472.742 -1.36059 -1.55871 0
M  V30 5111 C 473.157 0.053544 -1.88724 0
M  V30 5112 O 472.514 1.01591 -1.5161 0
M  V30 5113 C 472.565 -2.20107 -2.86767 0
M  V30 5114 O 472.286 -3.56009 -2.55321 0
M  V30 5115 C 473.787 -2.26636 -3.80987 0
M  V30 5116 H 471.007 -0.465967 -0.482821 0
M  V30 5117 H 473.551 -1.80901 -0.953686 0
M  V30 5118 H 471.706 -1.78768 -3.43687 0
M  V30 5119 H 472.12 -4.0009 -3.39158 0
M  V30 5120 H 473.594 -2.89763 -4.69831 0
M  V30 5121 H 474.071 -1.2754 -4.20274 0
M  V30 5122 H 474.677 -2.68296 -3.29996 0
M  V30 5123 N 472.992 0.995999 -1.22138 0
M  V30 5124 C 474.217 1.77601 -1.0711 0
M  V30 5125 C 474.642 1.84339 0.374264 0
M  V30 5126 O 474 1.29359 1.27028 0
M  V30 5127 C 474.048 3.18897 -1.68336 0
M  V30 5128 O 473.152 4.01663 -0.934928 0
M  V30 5129 H 472.493 0.547011 -0.376397 0
M  V30 5130 H 475.023 1.25137 -1.6187 0
M  V30 5131 H 475.033 3.69539 -1.72931 0
M  V30 5132 H 473.708 3.13308 -2.73516 0
M  V30 5133 H 472.285 3.60204 -0.964751 0
M  V30 5134 N 474.47 1.03057 1.19235 0
M  V30 5135 C 475.38 0.622922 2.26179 0
M  V30 5136 C 476.396 -0.346113 1.70523 0
M  V30 5137 O 477.572 -0.203572 2.00369 0
M  V30 5138 C 474.637 -0.0182063 3.46695 0
M  V30 5139 C 473.698 0.998546 4.17526 0
M  V30 5140 C 472.931 0.387917 5.32288 0
M  V30 5141 O 473.154 -0.808668 5.64639 0
M  V30 5142 O 472.088 1.1116 5.91546 0
M  V30 5143 H 475.914 1.51363 2.63292 0
M  V30 5144 H 473.499 0.800856 1.26122 0
M  V30 5145 H 475.381 -0.375606 4.19723 0
M  V30 5146 H 474.056 -0.882895 3.11427 0
M  V30 5147 H 472.963 1.40756 3.4661 0
M  V30 5148 H 474.296 1.83366 4.56769 0
M  V30 5149 N 475.948 -1.35272 0.808662 0
M  V30 5150 C 476.878 -2.32315 0.234981 0
M  V30 5151 C 477.859 -1.57572 -0.64071 0
M  V30 5152 O 479.044 -1.8563 -0.570551 0
M  V30 5153 C 476.174 -3.41801 -0.615601 0
M  V30 5154 C 475.128 -4.27694 0.161767 0
M  V30 5155 C 474.454 -5.28519 -0.810649 0
M  V30 5156 C 475.754 -5.04231 1.36193 0
M  V30 5157 H 477.448 -2.80543 1.04575 0
M  V30 5158 H 474.994 -1.3488 0.504315 0
M  V30 5159 H 476.947 -4.08693 -1.02702 0
M  V30 5160 H 475.671 -2.92186 -1.45928 0
M  V30 5161 H 474.33 -3.62384 0.554382 0
M  V30 5162 H 473.978 -4.75171 -1.64988 0
M  V30 5163 H 473.678 -5.8686 -0.294822 0
M  V30 5164 H 475.202 -5.98283 -1.22023 0
M  V30 5165 H 476.616 -5.64058 1.02528 0
M  V30 5166 H 475.013 -5.72077 1.81239 0
M  V30 5167 H 476.083 -4.34753 2.14751 0
M  V30 5168 N 477.426 -0.562348 -1.47226 0
M  V30 5169 C 478.374 0.195476 -2.31777 0
M  V30 5170 C 479.368 0.90433 -1.43242 0
M  V30 5171 O 480.574 0.825031 -1.59979 0
M  V30 5172 H 476.949 0.0819095 -0.747526 0
M  V30 5173 H 478.92 -0.536753 -2.93533 0
M  V30 5174 C 477.669 1.20902 -3.26003 0
M  V30 5175 H 476.992 0.672997 -3.94095 0
M  V30 5176 H 478.432 1.71006 -3.87986 0
M  V30 5177 C 476.891 2.25955 -2.49891 0
M  V30 5178 O 477.421 3.32969 -2.2471 0
M  V30 5179 N 475.627 2.00019 -2.1081 0
M  V30 5180 H 475.174 1.13006 -2.31489 0
M  V30 5181 H 475.132 2.70523 -1.60201 0
M  V30 5182 N 478.904 1.54736 -0.299062 0
M  V30 5183 C 480.132 2.04512 0.313447 0
M  V30 5184 C 480.547 1.17643 1.47667 0
M  V30 5185 O 479.904 0.20164 1.81383 0
M  V30 5186 C 479.955 3.53171 0.771542 0
M  V30 5187 O 479.676 4.36736 -0.345379 0
M  V30 5188 C 481.177 4.18936 1.4494 0
M  V30 5189 H 478.397 0.667507 0.0683784 0
M  V30 5190 H 480.941 1.99752 -0.438129 0
M  V30 5191 H 479.096 3.58298 1.47314 0
M  V30 5192 H 479.51 5.24499 0.0109219 0
M  V30 5193 H 480.984 5.24482 1.72111 0
M  V30 5194 H 481.461 3.68554 2.38883 0
M  V30 5195 H 482.067 4.17879 0.791028 0
M  V30 5196 N 480.382 0.0267497 1.57577 0
M  V30 5197 C 481.345 -0.940916 2.08996 0
M  V30 5198 C 482.345 -1.25561 1.00455 0
M  V30 5199 O 483.535 -1.19634 1.26623 0
M  V30 5200 C 480.667 -2.25814 2.55384 0
M  V30 5201 H 481.86 -0.495628 2.95776 0
M  V30 5202 H 479.413 -0.221241 1.54726 0
M  V30 5203 H 480.148 -2.74976 1.71926 0
M  V30 5204 H 479.933 -2.04285 3.34679 0
M  V30 5205 H 481.423 -2.95178 2.95398 0
M  V30 5206 O 481.899 -1.6109 -0.114939 0
M  V30 5207 H 482.59 -1.78767 -0.745784 0
M  V30 END ATOM
M  V30 BEGIN BOND
M  V30 END BOND
M  V30 END CTAB
M  END
$$$$
