drugbank_target|O96017 Serine/threonine-protein kinase Chk2 (DB05149; DB06486; DB12010)
 OpenBabel12092120313D

  0  0  0     0  0            999 V3000
M  V30 BEGIN CTAB
M  V30 COUNTS 8509 8596 0 0 0
M  V30 BEGIN ATOM
M  V30 1 H -0.908 1.98254 -0.117106 0
M  V30 2 N 0 1.576 0 0
M  V30 3 C 0.933 2.03868 1.02534 0
M  V30 4 C 1.911 0.928543 1.3348 0
M  V30 5 O 3.095 1.19667 1.45644 0
M  V30 6 C 0.222 2.43627 2.35294 0
M  V30 7 C -0.732 3.65373 2.2001 0
M  V30 8 S 0.101 5.13292 1.52614 0
M  V30 9 C 1.257 5.56322 2.86805 0
M  V30 10 H 1.49 2.90518 0.631377 0
M  V30 11 H -0.977 1.52953 0.210867 0
M  V30 12 H 0.981 2.67203 3.11629 0
M  V30 13 H -0.358 1.57376 2.7183 0
M  V30 14 H -1.165 3.90944 3.18086 0
M  V30 15 H -1.563 3.418 1.51819 0
M  V30 16 H 0.729 5.58782 3.83104 0
M  V30 17 H 1.672 6.56266 2.65933 0
M  V30 18 H 2.08 4.83886 2.90714 0
M  V30 19 N 1.4781 -0.272755 1.55222 0
M  V30 20 C 2.7031 -1.02683 1.80197 0
M  V30 21 C 3.1281 -1.79142 0.573551 0
M  V30 22 O 2.4861 -1.74917 -0.476849 0
M  V30 23 C 2.5341 -1.9609 3.02624 0
M  V30 24 O 1.6381 -3.04863 2.77727 0
M  V30 25 H 0.9791 -0.293557 0.595584 0
M  V30 26 H 3.5091 -0.30159 2.02365 0
M  V30 27 H 3.5191 -2.38039 3.31363 0
M  V30 28 H 2.1941 -1.39851 3.91682 0
M  V30 29 H 0.7711 -2.67228 2.60084 0
M  V30 30 N 2.9562 -1.48159 -0.537278 0
M  V30 31 C 4.3722 -1.34118 -0.865129 0
M  V30 32 C 4.5722 -0.346678 -1.98495 0
M  V30 33 O 3.6282 0.234715 -2.51407 0
M  V30 34 C 4.9412 -2.73963 -1.23954 0
M  V30 35 C 6.4892 -2.82397 -1.34984 0
M  V30 36 C 6.9642 -4.22928 -1.75772 0
M  V30 37 N 8.4552 -4.25566 -1.82887 0
M  V30 38 C 9.1902 -5.31235 -2.15817 0
M  V30 39 N 8.6862 -6.47189 -2.47222 0
M  V30 40 N 10.4792 -5.18624 -2.16761 0
M  V30 41 H 2.6302 -2.1144 0.201715 0
M  V30 42 H 4.8932 -0.947598 0.0275949 0
M  V30 43 H 4.5992 -3.48264 -0.490381 0
M  V30 44 H 4.4732 -3.0702 -2.19132 0
M  V30 45 H 6.8602 -2.08356 -2.08978 0
M  V30 46 H 6.9412 -2.5297 -0.379448 0
M  V30 47 H 6.5852 -4.97482 -1.02341 0
M  V30 48 H 6.5152 -4.49794 -2.73848 0
M  V30 49 H 9.0062 -3.41924 -1.60924 0
M  V30 50 H 9.3192 -7.23564 -2.71433 0
M  V30 51 H 7.6642 -6.50476 -2.44757 0
M  V30 52 H 10.8552 -4.27056 -1.91679 0
M  V30 53 H 11.0282 -6.01078 -2.42093 0
M  V30 54 N 4.4343 0.785586 -1.36625 0
M  V30 55 C 5.3443 1.92964 -1.33425 0
M  V30 56 C 6.3603 1.72394 -0.235851 0
M  V30 57 O 7.5363 1.95866 -0.468878 0
M  V30 58 C 4.6013 3.27884 -1.12662 0
M  V30 59 C 3.6623 3.61204 -2.32013 0
M  V30 60 C 2.8953 4.89687 -2.12231 0
M  V30 61 O 3.1183 5.59704 -1.09945 0
M  V30 62 O 2.0523 5.21752 -3.00098 0
M  V30 63 H 5.8783 1.98613 -2.29753 0
M  V30 64 H 3.4633 0.926384 -1.17211 0
M  V30 65 H 5.3453 4.08614 -1.03016 0
M  V30 66 H 4.0203 3.23118 -0.193991 0
M  V30 67 H 2.9273 2.80765 -2.47228 0
M  V30 68 H 4.2603 3.70698 -3.23796 0
M  V30 69 N 5.9124 1.20967 1.01018 0
M  V30 70 C 7.1374 1.0503 1.78839 0
M  V30 71 C 7.5624 -0.395752 1.8389 0
M  V30 72 O 6.9204 -1.28529 1.27867 0
M  V30 73 C 6.9684 1.64602 3.2084 0
M  V30 74 O 6.0724 0.887988 4.02726 0
M  V30 75 H 5.4134 0.369987 0.551367 0
M  V30 76 H 7.9434 1.60399 1.27018 0
M  V30 77 H 7.9534 1.68607 3.71532 0
M  V30 78 H 6.6284 2.69841 3.16479 0
M  V30 79 H 5.2054 0.922648 3.61305 0
M  V30 80 N 7.3905 -1.2043 1.01659 0
M  V30 81 C 8.6675 -1.8548 0.621004 0
M  V30 82 C 9.0475 -1.9091 -0.900919 0
M  V30 83 O 8.3955 -1.41694 -1.79263 0
M  V30 84 C 8.6055 -3.25119 1.2688 0
M  V30 85 C 9.9535 -4.01403 1.38423 0
M  V30 86 O 10.9775 -3.34473 1.22501 0
M  V30 87 O 9.8365 -5.21265 1.64151 0
M  V30 88 H 6.9305 -0.798761 0.214266 0
M  V30 89 H 9.4765 -1.28019 1.11396 0
M  V30 90 H 8.2485 -3.15932 2.30873 0
M  V30 91 H 7.8715 -3.90212 0.762917 0
M  V30 92 N 8.8686 -0.792821 -1.36206 0
M  V30 93 C 10.1146 -0.36733 -1.99446 0
M  V30 94 C 10.4476 1.05917 -1.62774 0
M  V30 95 O 9.7226 1.7324 -0.88421 0
M  V30 96 C 10.0056 -0.535044 -3.56103 0
M  V30 97 C 9.8586 -2.00548 -4.02617 0
M  V30 98 C 11.1776 0.0478191 -4.40074 0
M  V30 99 H 8.2966 -0.134941 -0.724541 0
M  V30 100 H 10.9386 -0.999794 -1.61568 0
M  V30 101 H 9.0886 0.00336329 -3.885 0
M  V30 102 H 10.7606 -2.60521 -3.80692 0
M  V30 103 H 9.0036 -2.50686 -3.54032 0
M  V30 104 H 9.6746 -2.07377 -5.11565 0
M  V30 105 H 12.1506 -0.411822 -4.14057 0
M  V30 106 H 11.0266 -0.0995336 -5.4881 0
M  V30 107 H 11.2876 1.14025 -4.27142 0
M  V30 108 N 10.3467 1.47872 -0.545128 0
M  V30 109 C 11.2567 2.33633 0.212746 0
M  V30 110 C 12.2727 1.4744 0.923983 0
M  V30 111 O 13.4487 1.80393 0.895572 0
M  V30 112 C 10.5137 3.23884 1.23693 0
M  V30 113 C 9.5747 4.25961 0.534417 0
M  V30 114 C 8.8077 5.11899 1.5098 0
M  V30 115 O 9.0307 5.00077 2.7437 0
M  V30 116 O 7.9647 5.92831 1.0409 0
M  V30 117 H 11.7907 2.99714 -0.490416 0
M  V30 118 H 9.3757 1.46235 -0.305871 0
M  V30 119 H 11.2577 3.79666 1.82843 0
M  V30 120 H 9.9327 2.60446 1.92222 0
M  V30 121 H 8.8397 3.73972 -0.0979679 0
M  V30 122 H 10.1727 4.92079 -0.109213 0
M  V30 123 N 11.8248 0.280983 1.55075 0
M  V30 124 C 12.7878 -0.590896 2.21452 0
M  V30 125 C 13.7878 -1.07682 1.19421 0
M  V30 126 O 14.9778 -0.97605 1.44288 0
M  V30 127 C 12.1098 -1.81587 2.88511 0
M  V30 128 H 13.3028 -0.0112554 2.99898 0
M  V30 129 H 10.8558 0.0316438 1.56268 0
M  V30 130 H 11.5908 -2.43587 2.14093 0
M  V30 131 H 11.3758 -1.4753 3.63287 0
M  V30 132 H 12.8658 -2.43575 3.39206 0
M  V30 133 N 13.3029 -1.57598 0.00835791 0
M  V30 134 C 14.2349 -2.05811 -1.00868 0
M  V30 135 C 15.2479 -0.977579 -1.30182 0
M  V30 136 O 16.4369 -1.25421 -1.27011 0
M  V30 137 C 13.5369 -2.45016 -2.34137 0
M  V30 138 C 12.7099 -3.75903 -2.23643 0
M  V30 139 C 11.7689 -4.01884 -3.3967 0
M  V30 140 O 10.7949 -4.72433 -3.17483 0
M  V30 141 N 11.9969 -3.50432 -4.62793 0
M  V30 142 H 14.7619 -2.93684 -0.597458 0
M  V30 143 H 12.3229 -1.60909 -0.178852 0
M  V30 144 H 14.3149 -2.59506 -3.10546 0
M  V30 145 H 12.8849 -1.62618 -2.66972 0
M  V30 146 H 12.1049 -3.7141 -1.32091 0
M  V30 147 H 13.3929 -4.61695 -2.13812 0
M  V30 148 H 12.7909 -2.93317 -4.83716 0
M  V30 149 H 11.3479 -3.70236 -5.3644 0
M  V30 150 N 14.781 0.264519 -1.55364 0
M  V30 151 C 15.713 1.34965 -1.85248 0
M  V30 152 C 16.726 1.45136 -0.737525 0
M  V30 153 O 17.915 1.46801 -1.01547 0
M  V30 154 C 15.015 2.73008 -2.00797 0
M  V30 155 C 14.188 2.85324 -3.31525 0
M  V30 156 C 13.247 4.04097 -3.37034 0
M  V30 157 O 12.273 3.94455 -4.10358 0
M  V30 158 N 13.475 5.16458 -2.65049 0
M  V30 159 H 16.24 1.09672 -2.78913 0
M  V30 160 H 13.801 0.454635 -1.55386 0
M  V30 161 H 15.793 3.50772 -2.01844 0
M  V30 162 H 14.363 2.91087 -1.1396 0
M  V30 163 H 13.583 1.94377 -3.42945 0
M  V30 164 H 14.871 2.9049 -4.17724 0
M  V30 165 H 14.269 5.27181 -2.05175 0
M  V30 166 H 12.826 5.92422 -2.71809 0
M  V30 167 N 16.2591 1.48442 0.529413 0
M  V30 168 C 17.4841 1.60406 1.31471 0
M  V30 169 C 17.9091 0.264738 1.86228 0
M  V30 170 O 17.2671 -0.763668 1.64432 0
M  V30 171 C 17.3151 2.65419 2.44101 0
M  V30 172 O 16.4191 2.22618 3.47153 0
M  V30 173 H 15.7601 0.537863 0.389357 0
M  V30 174 H 18.2901 1.94432 0.636965 0
M  V30 175 H 18.3001 2.86709 2.90279 0
M  V30 176 H 16.9751 3.62652 2.03608 0
M  V30 177 H 15.5521 2.11543 3.0709 0
M  V30 178 N 17.7372 -0.778329 1.37039 0
M  V30 179 C 18.6872 -1.88142 1.28789 0
M  V30 180 C 19.6712 -1.59923 0.177063 0
M  V30 181 O 20.8632 -1.72165 0.410873 0
M  V30 182 C 17.9922 -3.25518 1.09055 0
M  V30 183 C 17.0782 -3.5971 2.24654 0
M  V30 184 N 17.4692 -3.65131 3.50018 0
M  V30 185 C 15.7672 -3.89837 2.16663 0
M  V30 186 C 16.4682 -3.95882 4.26207 0
M  V30 187 N 15.4442 -4.11441 3.55271 0
M  V30 188 H 19.2462 -1.90575 2.23737 0
M  V30 189 H 16.7602 -0.974435 1.29917 0
M  V30 190 H 18.7572 -4.04423 1.0123 0
M  V30 191 H 17.4172 -3.24353 0.15018 0
M  V30 192 H 18.4282 -3.475 3.84011 0
M  V30 193 H 15.1052 -3.96533 1.30645 0
M  V30 194 H 16.4952 -4.06907 5.34674 0
M  V30 195 N 19.2153 -1.21501 -1.00376 0
M  V30 196 C 20.4633 -1.03095 -1.73827 0
M  V30 197 C 20.7843 0.436341 -1.90055 0
M  V30 198 O 20.0543 1.31466 -1.45236 0
M  V30 199 H 18.6343 -0.378487 -0.644016 0
M  V30 200 H 21.2963 -1.52831 -1.20949 0
M  V30 201 H 20.3923 -1.49991 -2.73695 0
M  V30 202 N 20.6934 1.19889 -1.02296 0
M  V30 203 C 21.9184 1.9393 -0.735237 0
M  V30 204 C 22.3434 1.74639 0.698782 0
M  V30 205 O 21.7014 1.04481 1.48167 0
M  V30 206 C 21.7494 3.43916 -1.08417 0
M  V30 207 O 20.8534 4.11917 -0.199446 0
M  V30 208 H 20.1944 0.605645 -0.272196 0
M  V30 209 H 22.7244 1.52137 -1.36804 0
M  V30 210 H 22.7344 3.9456 -1.03856 0
M  V30 211 H 21.4094 3.5728 -2.12894 0
M  V30 212 H 19.9864 3.71666 -0.303136 0
M  V30 213 N 22.1715 0.800033 1.35784 0
M  V30 214 C 23.3965 0.388511 2.03729 0
M  V30 215 C 23.8215 -0.990481 1.5991 0
M  V30 216 O 23.1795 -1.64013 0.772612 0
M  V30 217 C 23.2275 0.4726 3.5749 0
M  V30 218 O 22.3315 -0.51646 4.09153 0
M  V30 219 H 21.6725 0.163271 0.643614 0
M  V30 220 H 24.2025 1.0841 1.73518 0
M  V30 221 H 24.2125 0.34003 4.06581 0
M  V30 222 H 22.8875 1.47848 3.88734 0
M  V30 223 H 21.4645 -0.344673 3.71304 0
M  V30 224 N 23.6496 -1.47581 0.552962 0
M  V30 225 C 24.6126 -2.28439 -0.186605 0
M  V30 226 C 25.6126 -1.36706 -0.84665 0
M  V30 227 O 26.8026 -1.59378 -0.703164 0
M  V30 228 C 23.9346 -3.16264 -1.2724 0
M  V30 229 H 25.1276 -2.95294 0.523609 0
M  V30 230 H 22.6806 -1.532 0.309745 0
M  V30 231 H 23.4156 -2.54091 -2.01514 0
M  V30 232 H 23.2006 -3.83769 -0.803968 0
M  V30 233 H 24.6906 -3.77198 -1.79196 0
M  V30 234 N 25.1277 -0.289203 -1.54924 0
M  V30 235 C 26.3677 0.324536 -2.01807 0
M  V30 236 C 26.7317 1.5199 -1.17316 0
M  V30 237 O 27.9327 2.20422 -1.53843 0
M  V30 238 C 26.2037 0.683578 -3.50802 0
M  V30 239 S 27.7627 1.28185 -4.19659 0
M  V30 240 H 24.5807 0.100236 -0.703899 0
M  V30 241 H 27.1827 -0.414325 -1.91059 0
M  V30 242 H 25.8867 -0.195073 -4.09936 0
M  V30 243 H 25.4177 1.45354 -3.65562 0
M  V30 244 H 27.4327 2.57006 -4.24456 0
M  V30 245 N 26.6058 1.57591 -0.0167156 0
M  V30 246 C 27.8308 1.9598 0.67872 0
M  V30 247 C 28.2558 0.892546 1.65575 0
M  V30 248 O 27.6138 -0.147772 1.80697 0
M  V30 249 C 27.6618 3.33468 1.37227 0
M  V30 250 O 26.7658 3.28954 2.48722 0
M  V30 251 H 26.1068 0.639339 0.17928 0
M  V30 252 H 28.6368 2.04463 -0.0748802 0
M  V30 253 H 28.6468 3.69417 1.7319 0
M  V30 254 H 27.3218 4.10694 0.656007 0
M  V30 255 H 25.8988 3.04705 2.14963 0
M  V30 256 N 28.0839 -0.256276 1.55502 0
M  V30 257 C 29.0159 -1.33981 1.85962 0
M  V30 258 C 30.0289 -1.44743 0.745212 0
M  V30 259 O 31.2179 -1.4626 1.02324 0
M  V30 260 C 28.3179 -2.7194 2.02242 0
M  V30 261 C 27.4909 -2.83562 3.33033 0
M  V30 262 C 26.5499 -4.02304 3.39172 0
M  V30 263 O 25.5759 -3.92273 4.12444 0
M  V30 264 N 26.7779 -5.15045 2.67784 0
M  V30 265 H 29.5429 -1.08191 2.7949 0
M  V30 266 H 27.1039 -0.446388 1.55624 0
M  V30 267 H 29.0959 -3.49697 2.03701 0
M  V30 268 H 27.6659 -2.90479 1.15502 0
M  V30 269 H 26.8859 -1.92555 3.43971 0
M  V30 270 H 28.1739 -2.88271 4.19258 0
M  V30 271 H 27.5719 -5.26085 2.07968 0
M  V30 272 H 26.1289 -5.90972 2.74947 0
M  V30 273 N 29.562 -1.4872 -0.521534 0
M  V30 274 C 30.973 -1.50607 -1.10337 0
M  V30 275 C 31.324 -0.280612 -1.94183 0
M  V30 276 O 30.449 0.611507 -2.0758 0
M  V30 277 C 31.044 -2.72903 -2.00772 0
M  V30 278 C 29.603 -2.77634 -2.54158 0
M  V30 279 C 28.75 -2.44241 -1.31307 0
M  V30 280 H 31.701 -1.55714 -0.306388 0
M  V30 281 H 31.722 -2.519 -2.85178 0
M  V30 282 H 31.234 -3.62077 -1.39721 0
M  V30 283 H 29.335 -1.92689 -3.18907 0
M  V30 284 H 29.448 -3.79283 -2.92714 0
M  V30 285 H 27.812 -1.95577 -1.63161 0
M  V30 286 H 28.595 -3.35666 -0.719943 0
M  V30 287 N 31.0401 0.771051 -1.3745 0
M  V30 288 C 31.9901 1.87456 -1.29785 0
M  V30 289 C 32.9741 1.59827 -0.185541 0
M  V30 290 O 34.1661 1.71945 -0.419997 0
M  V30 291 C 31.2951 3.24935 -1.1078 0
M  V30 292 C 30.3811 3.58514 -2.26558 0
M  V30 293 N 30.7721 3.6327 -3.5195 0
M  V30 294 C 29.0701 3.88683 -2.18727 0
M  V30 295 C 29.7711 3.93616 -4.283 0
M  V30 296 N 28.7471 4.09551 -3.57448 0
M  V30 297 H 32.5491 1.89386 -2.24745 0
M  V30 298 H 30.0631 0.967531 -1.30432 0
M  V30 299 H 32.0601 4.03881 -1.03374 0
M  V30 300 H 30.7201 3.24268 -0.16738 0
M  V30 301 H 31.7311 3.45458 -3.85848 0
M  V30 302 H 28.4081 3.95834 -1.32746 0
M  V30 303 H 29.7981 4.04066 -5.36824 0
M  V30 304 N 32.5182 1.22032 0.997298 0
M  V30 305 C 33.7662 1.04016 1.73278 0
M  V30 306 C 34.0872 -0.426255 1.90284 0
M  V30 307 O 33.3572 -1.30694 1.45931 0
M  V30 308 H 31.9372 0.381897 0.642 0
M  V30 309 H 34.5992 1.5347 1.20137 0
M  V30 310 H 33.6952 1.51441 2.72896 0
M  V30 311 N 33.9963 -1.19345 1.0293 0
M  V30 312 C 35.2213 -1.93538 0.745511 0
M  V30 313 C 35.6463 -1.75007 -0.689511 0
M  V30 314 O 35.0043 -1.05265 -1.47611 0
M  V30 315 C 35.0523 -3.43336 1.10239 0
M  V30 316 O 34.1563 -4.11806 0.221289 0
M  V30 317 H 33.4973 -0.604193 0.275404 0
M  V30 318 H 36.0273 -1.5141 1.37609 0
M  V30 319 H 36.0373 -3.94004 1.05947 0
M  V30 320 H 34.7123 -3.56146 2.14786 0
M  V30 321 H 33.2893 -3.715 0.322842 0
M  V30 322 N 35.4744 -0.807222 -1.35358 0
M  V30 323 C 36.7204 -0.388463 -1.99045 0
M  V30 324 C 37.0534 1.04184 -1.63888 0
M  V30 325 O 36.3284 1.72292 -0.902535 0
M  V30 326 C 36.6114 -0.572783 -3.55515 0
M  V30 327 C 36.4644 -2.04807 -4.00468 0
M  V30 328 C 37.7834 0.00114064 -4.401 0
M  V30 329 H 34.9024 -0.142619 -0.723069 0
M  V30 330 H 37.5444 -1.01687 -1.60498 0
M  V30 331 H 35.6944 -0.0378425 -3.88482 0
M  V30 332 H 37.3664 -2.64544 -3.77908 0
M  V30 333 H 35.6094 -2.54427 -3.51353 0
M  V30 334 H 36.2804 -2.12792 -5.09337 0
M  V30 335 H 38.7564 -0.455716 -4.13597 0
M  V30 336 H 37.6324 -0.157737 -5.48673 0
M  V30 337 H 37.8934 1.09488 -4.28328 0
M  V30 338 N 36.9525 1.47285 -0.560781 0
M  V30 339 C 38.1805 2.06855 -0.0430262 0
M  V30 340 C 38.5955 1.41291 1.25229 0
M  V30 341 O 37.9525 0.510648 1.7521 0
M  V30 342 C 38.0035 3.61178 0.152518 0
M  V30 343 O 37.7245 4.24285 -1.0915 0
M  V30 344 C 39.2255 4.37624 0.707145 0
M  V30 345 H 36.4455 0.669319 -0.0474652 0
M  V30 346 H 38.9895 1.89237 -0.77521 0
M  V30 347 H 37.1445 3.78298 0.834843 0
M  V30 348 H 37.5585 5.16868 -0.891482 0
M  V30 349 H 39.0325 5.46271 0.793244 0
M  V30 350 H 39.5095 4.04152 1.71923 0
M  V30 351 H 40.1155 4.25257 0.0604027 0
M  V30 352 N 38.4306 0.297415 1.54768 0
M  V30 353 C 39.3626 -0.613881 2.20826 0
M  V30 354 C 40.3756 -1.10032 1.19987 0
M  V30 355 O 41.5646 -1.01839 1.46598 0
M  V30 356 C 38.6646 -1.852 2.83821 0
M  V30 357 C 37.8376 -1.50865 4.10559 0
M  V30 358 C 36.8966 -2.60154 4.57391 0
M  V30 359 O 35.9226 -2.25398 5.2267 0
M  V30 360 N 37.1246 -3.90629 4.29406 0
M  V30 361 H 39.8896 -0.048389 2.99661 0
M  V30 362 H 37.4506 0.11946 1.61459 0
M  V30 363 H 39.4426 -2.57652 3.12086 0
M  V30 364 H 38.0126 -2.32597 2.08847 0
M  V30 365 H 37.2326 -0.616925 3.89343 0
M  V30 366 H 38.5206 -1.25458 4.9309 0
M  V30 367 H 37.9186 -4.21677 3.77101 0
M  V30 368 H 36.4756 -4.59391 4.62388 0
M  V30 369 N 39.9087 -1.5758 0.0250728 0
M  V30 370 C 41.1337 -1.96337 -0.668317 0
M  V30 371 C 41.5587 -0.901314 -1.651 0
M  V30 372 O 40.9167 0.138187 -1.80773 0
M  V30 373 C 40.9647 -3.34191 -1.35457 0
M  V30 374 O 40.0687 -3.30269 -2.46974 0
M  V30 375 H 39.4097 -0.640281 -0.175887 0
M  V30 376 H 41.9397 -2.0442 0.0857224 0
M  V30 377 H 41.9497 -3.70331 -1.71228 0
M  V30 378 H 40.6247 -4.11036 -0.634218 0
M  V30 379 H 39.2017 -3.05841 -2.13344 0
M  V30 380 N 41.3868 0.248026 -1.55636 0
M  V30 381 C 42.3188 1.32993 -1.8667 0
M  V30 382 C 43.3318 1.44345 -0.752877 0
M  V30 383 O 44.5208 1.45715 -1.03098 0
M  V30 384 C 41.6208 2.70863 -2.03682 0
M  V30 385 C 40.7938 2.81792 -3.34532 0
M  V30 386 C 39.8528 4.005 -3.41301 0
M  V30 387 O 38.8788 3.9008 -4.14519 0
M  V30 388 N 40.0808 5.13618 -2.70512 0
M  V30 389 H 42.8458 1.06707 -2.8006 0
M  V30 390 H 40.4068 0.438129 -1.55859 0
M  V30 391 H 42.3988 3.48612 -2.05553 0
M  V30 392 H 40.9688 2.89862 -1.17041 0
M  V30 393 H 40.1888 1.90729 -3.44987 0
M  V30 394 H 41.4768 2.86043 -4.20781 0
M  V30 395 H 40.8748 5.24975 -2.10755 0
M  V30 396 H 39.4318 5.89505 -2.78077 0
M  V30 397 N 42.8649 1.48995 0.513639 0
M  V30 398 C 44.1129 1.57531 1.26604 0
M  V30 399 C 44.4339 0.258236 1.93283 0
M  V30 400 O 43.7039 -0.721502 1.8213 0
M  V30 401 H 42.2839 0.580387 0.470276 0
M  V30 402 H 44.9459 1.85552 0.596373 0
M  V30 403 H 44.0419 2.36486 2.03669 0
M  V30 404 N 44.343 -0.763751 1.37857 0
M  V30 405 C 45.568 -1.55805 1.36893 0
M  V30 406 C 45.993 -1.88054 -0.0416135 0
M  V30 407 O 45.351 -1.49825 -1.02089 0
M  V30 408 C 45.399 -2.84012 2.22192 0
M  V30 409 O 44.503 -3.78732 1.63204 0
M  V30 410 H 43.844 -0.471638 0.46739 0
M  V30 411 H 46.374 -0.944657 1.81487 0
M  V30 412 H 46.384 -3.33037 2.35691 0
M  V30 413 H 45.059 -2.59869 3.24716 0
M  V30 414 H 43.636 -3.37402 1.58791 0
M  V30 415 N 45.8211 -1.22559 -0.990812 0
M  V30 416 C 47.0461 -1.07862 -1.77145 0
M  V30 417 C 47.4711 0.366447 -1.84496 0
M  V30 418 O 46.8291 1.26478 -1.29896 0
M  V30 419 C 46.8771 -1.69686 -3.18181 0
M  V30 420 O 45.9811 -0.951946 -4.01263 0
M  V30 421 H 45.3221 -0.378712 -0.545411 0
M  V30 422 H 47.8521 -1.62399 -1.2445 0
M  V30 423 H 47.8621 -1.74496 -3.68802 0
M  V30 424 H 46.5371 -2.74841 -3.12146 0
M  V30 425 H 45.1141 -0.980011 -3.59792 0
M  V30 426 N 47.2992 1.18797 -1.03562 0
M  V30 427 C 48.5242 1.9314 -0.755764 0
M  V30 428 C 48.9492 1.7537 0.68022 0
M  V30 429 O 48.3072 1.06046 1.47051 0
M  V30 430 C 48.3552 3.42747 -1.12058 0
M  V30 431 O 47.4592 4.11683 -0.243124 0
M  V30 432 H 46.8002 0.602724 -0.278604 0
M  V30 433 H 49.3302 1.50678 -1.3841 0
M  V30 434 H 49.3402 3.93437 -1.08035 0
M  V30 435 H 48.0152 3.55002 -2.16672 0
M  V30 436 H 46.5922 3.71323 -0.342539 0
M  V30 437 N 48.7773 0.814389 1.34928 0
M  V30 438 C 49.7093 0.187834 2.28429 0
M  V30 439 C 50.7223 -0.617374 1.5064 0
M  V30 440 O 51.9113 -0.448454 1.72775 0
M  V30 441 C 49.0113 -0.755962 3.30361 0
M  V30 442 C 48.1843 0.00456686 4.374 0
M  V30 443 C 47.2433 -0.858876 5.19143 0
M  V30 444 O 46.2693 -0.306968 5.68372 0
M  V30 445 N 47.4713 -2.17988 5.38016 0
M  V30 446 H 50.2363 0.991105 2.82838 0
M  V30 447 H 47.7973 0.670561 1.4736 0
M  V30 448 H 49.7893 -1.338 3.81942 0
M  V30 449 H 48.3593 -1.46001 2.7641 0
M  V30 450 H 47.5793 0.767865 3.86649 0
M  V30 451 H 48.8673 0.528422 5.06049 0
M  V30 452 H 48.2653 -2.65212 4.99679 0
M  V30 453 H 46.8223 -2.71098 5.92747 0
M  V30 454 N 50.2554 -1.46986 0.568584 0
M  V30 455 C 51.4804 -2.07335 0.0520528 0
M  V30 456 C 51.9054 -1.41675 -1.23733 0
M  V30 457 O 51.2634 -0.495623 -1.74394 0
M  V30 458 C 51.3114 -3.60417 -0.11501 0
M  V30 459 O 50.4154 -3.95309 -1.17492 0
M  V30 460 H 49.7564 -0.661597 0.0564385 0
M  V30 461 H 52.2864 -1.88837 0.787507 0
M  V30 462 H 52.2964 -4.06698 -0.325644 0
M  V30 463 H 50.9714 -4.07601 0.826675 0
M  V30 464 H 49.5484 -3.60757 -0.943869 0
M  V30 465 N 51.7335 -0.305618 -1.54608 0
M  V30 466 C 52.6655 0.602161 -2.21149 0
M  V30 467 C 53.6785 1.09394 -1.20569 0
M  V30 468 O 54.8675 1.0106 -1.47136 0
M  V30 469 C 51.9675 1.83692 -2.84799 0
M  V30 470 C 51.1405 1.48686 -4.11353 0
M  V30 471 C 50.1995 2.57725 -4.58764 0
M  V30 472 O 49.2255 2.22623 -5.23858 0
M  V30 473 N 50.4275 3.88346 -4.31471 0
M  V30 474 H 53.1925 0.0324966 -2.99682 0
M  V30 475 H 50.7535 -0.128021 -1.61393 0
M  V30 476 H 52.7455 2.55994 -3.13448 0
M  V30 477 H 51.3155 2.31486 -2.10078 0
M  V30 478 H 50.5355 0.596269 -3.89664 0
M  V30 479 H 51.8235 1.22842 -4.93748 0
M  V30 480 H 51.2215 4.19671 -3.79331 0
M  V30 481 H 49.7785 4.56932 -4.64818 0
M  V30 482 N 53.2116 1.57565 -0.0334293 0
M  V30 483 C 54.4596 1.91598 0.642999 0
M  V30 484 C 54.7806 0.910847 1.7242 0
M  V30 485 O 54.0506 -0.0469931 1.95844 0
M  V30 486 H 52.6306 0.707228 0.240496 0
M  V30 487 H 55.2926 1.94726 -0.0822488 0
M  V30 488 H 54.3886 2.92336 1.09298 0
M  V30 489 N 54.6897 -0.239769 1.55765 0
M  V30 490 C 55.9387 -0.964754 1.77131 0
M  V30 491 C 56.2517 -1.86213 0.59868 0
M  V30 492 O 57.4577 -2.6244 0.695522 0
M  V30 493 C 55.9137 -1.76552 3.1362 0
M  V30 494 C 55.5217 -0.915185 4.38553 0
M  V30 495 C 57.2657 -2.48281 3.44321 0
M  V30 496 C 55.1727 -1.71225 5.66071 0
M  V30 497 H 54.1027 -0.363953 0.660344 0
M  V30 498 H 56.7537 -0.219181 1.82186 0
M  V30 499 H 55.1357 -2.55331 3.02691 0
M  V30 500 H 56.3097 -0.169217 4.60489 0
M  V30 501 H 54.6247 -0.310889 4.15238 0
M  V30 502 H 57.2217 -3.08382 4.36812 0
M  V30 503 H 57.5647 -3.20256 2.65973 0
M  V30 504 H 58.0977 -1.76507 3.56497 0
M  V30 505 H 54.8367 -1.03612 6.4726 0
M  V30 506 H 54.3567 -2.43331 5.48224 0
M  V30 507 H 56.0357 -2.27758 6.05587 0
M  V30 508 N 56.1678 -1.49265 -0.50573 0
M  V30 509 C 57.3928 -1.62478 -1.28902 0
M  V30 510 C 57.8178 -0.294332 -1.85783 0
M  V30 511 O 57.1758 0.737412 -1.65626 0
M  V30 512 C 57.2238 -2.69268 -2.39848 0
M  V30 513 O 56.3278 -2.28113 -3.43567 0
M  V30 514 H 55.6688 -0.54399 -0.380751 0
M  V30 515 H 58.1988 -1.95421 -0.605952 0
M  V30 516 H 58.2088 -2.91291 -2.85681 0
M  V30 517 H 56.8838 -3.65846 -1.97812 0
M  V30 518 H 55.4608 -2.16401 -3.03685 0
M  V30 519 N 57.6459 0.756429 -1.3826 0
M  V30 520 C 58.8709 1.55077 -1.37717 0
M  V30 521 C 59.2959 1.88073 0.03164 0
M  V30 522 O 58.6539 1.50364 1.01293 0
M  V30 523 C 58.7019 2.8283 -2.23695 0
M  V30 524 O 57.8059 3.77862 -1.6521 0
M  V30 525 H 57.1469 0.469152 -0.469885 0
M  V30 526 H 59.6769 0.935019 -1.81985 0
M  V30 527 H 59.6869 3.31783 -2.37453 0
M  V30 528 H 58.3619 2.58144 -3.2609 0
M  V30 529 H 56.9389 3.36555 -1.60578 0
M  V30 530 N 59.124 1.23083 0.984299 0
M  V30 531 C 60.349 1.088 1.76571 0
M  V30 532 C 60.774 -0.356657 1.84688 0
M  V30 533 O 60.132 -1.25788 1.30565 0
M  V30 534 C 60.18 1.71371 3.17277 0
M  V30 535 O 59.284 0.973213 4.00752 0
M  V30 536 H 58.625 0.381599 0.543395 0
M  V30 537 H 61.155 1.63057 1.23587 0
M  V30 538 H 61.165 1.76449 3.67872 0
M  V30 539 H 59.84 2.76493 3.10684 0
M  V30 540 H 58.417 0.999078 3.59267 0
M  V30 541 N 60.6021 -1.18246 1.0419 0
M  V30 542 C 61.8271 -1.92736 0.765996 0
M  V30 543 C 62.2521 -1.75728 -0.67091 0
M  V30 544 O 61.6101 -1.06825 -1.46486 0
M  V30 545 C 61.6581 -3.42148 1.13875 0
M  V30 546 O 60.7621 -4.11548 0.264954 0
M  V30 547 H 60.1031 -0.601238 0.281797 0
M  V30 548 H 62.6331 -1.49942 1.39207 0
M  V30 549 H 62.6431 -3.92858 1.1012 0
M  V30 550 H 61.3181 -3.53848 2.18551 0
M  V30 551 H 59.8951 -3.71137 0.362226 0
M  V30 552 N 62.0802 -0.821533 -1.34494 0
M  V30 553 C 63.3082 -0.421884 -2.02553 0
M  V30 554 C 63.7232 0.971745 -1.61872 0
M  V30 555 O 63.0802 1.62864 -0.823496 0
M  V30 556 C 63.1312 -0.51285 -3.57844 0
M  V30 557 O 62.8522 -1.85155 -3.97051 0
M  V30 558 C 64.3532 -0.107921 -4.43169 0
M  V30 559 H 61.5732 -0.169482 -0.649243 0
M  V30 560 H 64.1172 -1.1093 -1.71798 0
M  V30 561 H 62.2722 0.126474 -3.87193 0
M  V30 562 H 62.6862 -1.82482 -4.91732 0
M  V30 563 H 64.1602 -0.222657 -5.51551 0
M  V30 564 H 64.6372 0.948401 -4.28838 0
M  V30 565 H 65.2432 -0.720989 -4.19144 0
M  V30 566 N 63.5583 1.46682 -0.576371 0
M  V30 567 C 64.7833 2.07304 -0.0630475 0
M  V30 568 C 65.2083 1.42329 1.2298 0
M  V30 569 O 64.5663 0.504865 1.74129 0
M  V30 570 C 64.6143 3.60472 0.095895 0
M  V30 571 O 63.7183 3.95927 1.15394 0
M  V30 572 H 63.0593 0.661288 -0.0599463 0
M  V30 573 H 65.5893 1.88417 -0.797511 0
M  V30 574 H 65.5993 4.06865 0.304071 0
M  V30 575 H 64.2743 4.07157 -0.84828 0
M  V30 576 H 62.8513 3.61252 0.924724 0
M  V30 577 N 65.0364 0.313813 1.54444 0
M  V30 578 C 66.2644 -0.293918 2.04802 0
M  V30 579 C 66.6794 -1.46537 1.19047 0
M  V30 580 O 66.0364 -1.81182 0.218939 0
M  V30 581 C 66.0874 -0.737806 3.53891 0
M  V30 582 O 65.8084 0.387038 4.36387 0
M  V30 583 C 67.3094 -1.40936 4.203 0
M  V30 584 H 64.5294 -0.0620057 0.668129 0
M  V30 585 H 67.0734 0.457169 1.99324 0
M  V30 586 H 65.2284 -1.43889 3.59687 0
M  V30 587 H 65.6424 0.0391274 5.24485 0
M  V30 588 H 67.1164 -1.67099 5.26101 0
M  V30 589 H 67.5934 -2.35355 3.70816 0
M  V30 590 H 68.1994 -0.751117 4.18615 0
M  V30 591 N 66.5145 -1.57545 0.0417849 0
M  V30 592 C 67.4475 -2.06514 -0.970928 0
M  V30 593 C 68.4255 -0.963607 -1.30971 0
M  V30 594 O 69.6095 -1.23486 -1.4242 0
M  V30 595 C 66.7365 -2.4978 -2.28752 0
M  V30 596 C 65.7825 -3.71078 -2.10246 0
M  V30 597 S 66.6155 -5.17158 -1.38952 0
M  V30 598 C 67.7715 -5.6373 -2.71954 0
M  V30 599 H 68.0045 -2.9209 -0.554129 0
M  V30 600 H 65.5375 -1.53459 -0.17024 0
M  V30 601 H 67.4955 -2.75371 -3.04435 0
M  V30 602 H 66.1565 -1.64527 -2.67562 0
M  V30 603 H 65.3495 -3.9924 -3.07609 0
M  V30 604 H 64.9515 -3.45705 -1.42704 0
M  V30 605 H 67.2435 -5.68743 -3.68154 0
M  V30 606 H 68.1865 -6.63086 -2.4844 0
M  V30 607 H 68.5945 -4.91424 -2.77782 0
M  V30 608 N 67.9926 0.231505 -1.5589 0
M  V30 609 C 69.4036 0.799327 -1.68724 0
M  V30 610 C 69.7546 1.85398 -0.642022 0
M  V30 611 O 68.8796 2.1539 0.208784 0
M  V30 612 C 69.4746 1.45664 -3.05888 0
M  V30 613 C 68.0336 1.97197 -3.20609 0
M  V30 614 C 67.1806 0.828552 -2.64632 0
M  V30 615 H 70.1316 0.00702616 -1.58698 0
M  V30 616 H 70.1526 2.32517 -3.01191 0
M  V30 617 H 69.6646 0.688808 -3.81939 0
M  V30 618 H 67.7656 2.76813 -2.4941 0
M  V30 619 H 67.8786 2.15878 -4.27707 0
M  V30 620 H 66.2426 1.23321 -2.22854 0
M  V30 621 H 67.0256 0.0735544 -3.43221 0
M  V30 622 N 69.4707 1.49531 0.497807 0
M  V30 623 C 70.4187 1.66926 1.61983 0
M  V30 624 C 71.4127 0.535167 1.60724 0
M  V30 625 O 72.6187 0.714896 1.65195 0
M  V30 626 H 68.9937 0.526415 0.537021 0
M  V30 627 H 70.9647 2.61098 1.44465 0
M  V30 628 C 69.7137 1.75602 3.00099 0
M  V30 629 H 69.0367 2.62244 3.01775 0
M  V30 630 H 70.4767 1.91807 3.78135 0
M  V30 631 C 68.9357 0.501543 3.33146 0
M  V30 632 O 69.4657 -0.371342 3.9998 0
M  V30 633 N 67.6717 0.363531 2.88317 0
M  V30 634 H 67.2187 1.07485 2.34104 0
M  V30 635 H 67.1767 -0.474728 3.10795 0
M  V30 636 N 70.9488 -0.749086 1.3866 0
M  V30 637 C 72.1738 -1.54344 1.38538 0
M  V30 638 C 72.5988 -1.88088 -0.0216655 0
M  V30 639 O 71.9568 -1.50899 -1.00494 0
M  V30 640 C 72.0048 -2.8164 2.25192 0
M  V30 641 O 71.1088 -3.7698 1.67212 0
M  V30 642 H 70.4498 -0.466654 0.472367 0
M  V30 643 H 72.9798 -0.925355 1.82478 0
M  V30 644 H 72.9898 -3.30519 2.3921 0
M  V30 645 H 71.6648 -2.56411 3.27454 0
M  V30 646 H 70.2418 -3.35699 1.6236 0
M  V30 647 N 72.4269 -1.23603 -0.977757 0
M  V30 648 C 73.6519 -1.09735 -1.75991 0
M  V30 649 C 74.0769 0.346858 -1.84874 0
M  V30 650 O 73.4349 1.25093 -1.3123 0
M  V30 651 C 73.4829 -1.73051 -3.16363 0
M  V30 652 O 72.5869 -0.994452 -4.0023 0
M  V30 653 H 71.9279 -0.384476 -0.541364 0
M  V30 654 H 74.4579 -1.6371 -1.2272 0
M  V30 655 H 74.4679 -1.78398 -3.66931 0
M  V30 656 H 73.1429 -2.78137 -3.09213 0
M  V30 657 H 71.7199 -1.01812 -3.58732 0
M  V30 658 N 73.905 1.17692 -1.04816 0
M  V30 659 C 74.837 2.21103 -0.603822 0
M  V30 660 C 75.85 1.59411 0.33046 0
M  V30 661 O 77.039 1.7807 0.12379 0
M  V30 662 C 74.139 3.38623 0.136898 0
M  V30 663 C 73.312 4.29888 -0.807137 0
M  V30 664 C 72.371 5.26088 -0.10836 0
M  V30 665 O 71.397 5.64353 -0.741232 0
M  V30 666 N 72.599 5.68882 1.15558 0
M  V30 667 H 75.364 2.59848 -1.49329 0
M  V30 668 H 72.925 1.32553 -0.929587 0
M  V30 669 H 74.917 4.00009 0.614401 0
M  V30 670 H 73.487 2.98508 0.927993 0
M  V30 671 H 72.707 3.65993 -1.46434 0
M  V30 672 H 73.995 4.87759 -1.44807 0
M  V30 673 H 73.393 5.39861 1.69015 0
M  V30 674 H 71.95 6.32429 1.57722 0
M  V30 675 N 75.3831 0.828654 1.34056 0
M  V30 676 C 76.6081 0.431637 2.02859 0
M  V30 677 C 77.0331 -0.956339 1.61975 0
M  V30 678 O 76.3911 -1.62338 0.807228 0
M  V30 679 C 76.4391 0.548323 3.56407 0
M  V30 680 O 75.5431 -0.429556 4.10157 0
M  V30 681 H 74.8841 0.176886 0.640006 0
M  V30 682 H 77.4141 1.12066 1.71179 0
M  V30 683 H 77.4241 0.426196 4.05768 0
M  V30 684 H 76.0991 1.5606 3.8551 0
M  V30 685 H 74.6761 -0.265836 3.71951 0
M  V30 686 N 76.8612 -1.46375 0.584142 0
M  V30 687 C 78.0862 -2.07268 0.0740405 0
M  V30 688 C 78.5112 -1.42979 -1.22223 0
M  V30 689 O 77.8692 -0.514092 -1.73859 0
M  V30 690 C 77.9172 -3.60518 -0.0767769 0
M  V30 691 O 77.0212 -3.96533 -1.13292 0
M  V30 692 H 76.3622 -0.660961 0.0634524 0
M  V30 693 H 78.8922 -1.87991 0.807492 0
M  V30 694 H 78.9022 -4.07021 -0.282489 0
M  V30 695 H 77.5772 -4.06702 0.86986 0
M  V30 696 H 76.1542 -3.61738 -0.905553 0
M  V30 697 N 78.3393 -0.321999 -1.54275 0
M  V30 698 C 79.2893 0.560185 -2.21011 0
M  V30 699 C 80.2733 1.08283 -1.19011 0
M  V30 700 O 81.4653 1.02011 -1.44647 0
M  V30 701 C 78.5943 1.72137 -2.97025 0
M  V30 702 C 77.6803 1.21369 -4.06363 0
M  V30 703 N 78.0713 0.425566 -5.04007 0
M  V30 704 C 76.3693 1.49255 -4.20284 0
M  V30 705 C 77.0703 0.152601 -5.815 0
M  V30 706 N 76.0463 0.738294 -5.38563 0
M  V30 707 H 79.8483 -0.049265 -2.93859 0
M  V30 708 H 77.3623 -0.127779 -1.61897 0
M  V30 709 H 79.3593 2.36512 -3.43319 0
M  V30 710 H 78.0193 2.33431 -2.25699 0
M  V30 711 H 79.0303 0.068551 -5.17855 0
M  V30 712 H 75.7073 2.11145 -3.60172 0
M  V30 713 H 77.0973 -0.481764 -6.70171 0
M  V30 714 N 79.8174 1.5752 -0.0501392 0
M  V30 715 C 81.0424 1.97376 0.636997 0
M  V30 716 C 81.4674 0.927466 1.63645 0
M  V30 717 O 80.8254 -0.10941 1.8097 0
M  V30 718 C 80.8734 3.36304 1.30123 0
M  V30 719 O 79.9774 3.34156 2.41689 0
M  V30 720 H 79.3184 0.642998 0.165679 0
M  V30 721 H 81.8484 2.04258 -0.118233 0
M  V30 722 H 81.8584 3.73008 1.65315 0
M  V30 723 H 80.5334 4.11993 0.568746 0
M  V30 724 H 79.1104 3.09196 2.08451 0
M  V30 725 N 81.2955 -0.223234 1.56011 0
M  V30 726 C 82.5205 -0.968978 1.83373 0
M  V30 727 C 82.9455 -1.77227 0.630254 0
M  V30 728 O 82.3035 -1.76345 -0.420959 0
M  V30 729 C 82.3515 -1.86363 3.08709 0
M  V30 730 O 81.4555 -2.95873 2.87285 0
M  V30 731 H 80.7965 -0.274461 0.604622 0
M  V30 732 H 83.3265 -0.237056 2.03222 0
M  V30 733 H 83.3365 -2.27376 3.38768 0
M  V30 734 H 82.0115 -1.27319 3.95933 0
M  V30 735 H 80.5885 -2.58818 2.68454 0
M  V30 736 N 82.7736 -1.49793 -0.48987 0
M  V30 737 C 83.9986 -1.63836 -1.27172 0
M  V30 738 C 84.4236 -0.31402 -1.8546 0
M  V30 739 O 83.7816 0.719803 -1.66399 0
M  V30 740 C 83.8296 -2.71797 -2.36978 0
M  V30 741 O 82.9336 -2.31744 -3.41128 0
M  V30 742 H 82.2746 -0.547997 -0.37496 0
M  V30 743 H 84.8046 -1.96053 -0.585191 0
M  V30 744 H 84.8146 -2.94305 -2.82575 0
M  V30 745 H 83.4896 -3.67923 -1.93921 0
M  V30 746 H 82.0666 -2.1961 -3.01373 0
M  V30 747 N 84.2517 0.741722 -1.39055 0
M  V30 748 C 85.4997 1.49818 -1.35643 0
M  V30 749 C 85.8207 1.94938 0.0491642 0
M  V30 750 O 85.0907 1.68505 0.999141 0
M  V30 751 H 83.6707 0.555755 -0.499144 0
M  V30 752 H 86.3327 0.880957 -1.73854 0
M  V30 753 H 85.4287 2.38348 -2.01486 0
M  V30 754 N 85.7298 1.2412 0.971189 0
M  V30 755 C 86.9578 1.10575 1.74874 0
M  V30 756 C 87.3728 -0.342017 1.85676 0
M  V30 757 O 86.7298 -1.23617 1.34258 0
M  V30 758 C 86.7808 1.73579 3.171 0
M  V30 759 O 86.5018 3.12695 3.06844 0
M  V30 760 C 88.0028 1.65598 4.11208 0
M  V30 761 H 85.2228 0.386504 0.548503 0
M  V30 762 H 87.7668 1.64156 1.21955 0
M  V30 763 H 85.9218 1.24009 3.67016 0
M  V30 764 H 86.3358 3.43412 3.96445 0
M  V30 765 H 87.8098 2.1437 5.08674 0
M  V30 766 H 88.2868 0.616532 4.34851 0
M  V30 767 H 88.8928 2.14578 3.67201 0
M  V30 768 N 87.2079 -1.17134 1.05439 0
M  V30 769 C 88.1379 -2.2342 0.678649 0
M  V30 770 C 89.1189 -1.66971 -0.32476 0
M  V30 771 O 90.3039 -1.93149 -0.201802 0
M  V30 772 C 87.4339 -3.47256 0.0552099 0
M  V30 773 C 86.3879 -4.16543 0.98365 0
M  V30 774 C 85.7139 -5.34231 0.223961 0
M  V30 775 C 87.0139 -4.68495 2.3089 0
M  V30 776 H 88.7079 -2.55105 1.56722 0
M  V30 777 H 86.2539 -1.2262 0.754998 0
M  V30 778 H 88.2069 -4.20828 -0.21946 0
M  V30 779 H 86.9309 -3.14846 -0.868319 0
M  V30 780 H 85.5899 -3.44887 1.24293 0
M  V30 781 H 85.2379 -4.98071 -0.702412 0
M  V30 782 H 84.9379 -5.81527 0.842627 0
M  V30 783 H 86.4619 -6.10585 -0.0433671 0
M  V30 784 H 87.8759 -5.33691 2.09396 0
M  V30 785 H 86.2729 -5.26379 2.88176 0
M  V30 786 H 87.3429 -3.85169 2.94572 0
M  V30 787 N 88.686 -0.835752 -1.33615 0
M  V30 788 C 89.911 -0.442389 -2.02627 0
M  V30 789 C 90.336 0.947735 -1.62479 0
M  V30 790 O 89.694 1.61907 -0.815826 0
M  V30 791 C 89.742 -0.567216 -3.56111 0
M  V30 792 O 88.846 0.407799 -4.10379 0
M  V30 793 H 88.187 -0.180278 -0.639059 0
M  V30 794 H 90.717 -1.12972 -1.70583 0
M  V30 795 H 90.727 -0.447708 -4.05536 0
M  V30 796 H 89.402 -1.58103 -3.84677 0
M  V30 797 H 87.979 0.246107 -3.72087 0
M  V30 798 N 90.1641 1.46063 -0.591896 0
M  V30 799 C 91.3891 2.07226 -0.0850314 0
M  V30 800 C 91.8141 1.43625 1.21463 0
M  V30 801 O 91.1721 0.523305 1.73583 0
M  V30 802 C 91.2201 3.60554 0.0576567 0
M  V30 803 O 90.3241 3.97128 1.11188 0
M  V30 804 H 89.6651 0.660615 -0.0669568 0
M  V30 805 H 92.1951 1.8756 -0.81745 0
M  V30 806 H 92.2051 4.07165 0.2609 0
M  V30 807 H 90.8801 4.06235 -0.891416 0
M  V30 808 H 89.4571 3.62213 0.886356 0
M  V30 809 N 91.6422 0.330177 1.54103 0
M  V30 810 C 92.5722 -0.525353 2.27513 0
M  V30 811 C 93.5532 -1.11383 1.2856 0
M  V30 812 O 94.7382 -1.13773 1.57383 0
M  V30 813 C 91.8682 -1.6831 3.03791 0
M  V30 814 C 90.8222 -1.2236 4.10137 0
M  V30 815 C 90.1482 -2.46882 4.74293 0
M  V30 816 C 91.4482 -0.333697 5.21233 0
M  V30 817 H 93.1422 0.087013 2.99274 0
M  V30 818 H 90.6882 0.0432893 1.43935 0
M  V30 819 H 92.6412 -2.28795 3.5388 0
M  V30 820 H 91.3652 -2.32216 2.29659 0
M  V30 821 H 90.0242 -0.64165 3.60941 0
M  V30 822 H 89.6722 -3.09165 3.96769 0
M  V30 823 H 89.3722 -2.16825 5.46133 0
M  V30 824 H 90.8962 -3.08117 5.27159 0
M  V30 825 H 92.3102 -0.845013 5.67038 0
M  V30 826 H 90.7072 -0.125612 5.99969 0
M  V30 827 H 91.7772 0.633724 4.80741 0
M  V30 828 N 93.1203 -1.57491 0.0584922 0
M  V30 829 C 94.0303 -2.15448 -0.928414 0
M  V30 830 C 95.0463 -1.11416 -1.3365 0
M  V30 831 O 96.2223 -1.4362 -1.41193 0
M  V30 832 C 93.2873 -2.69393 -2.18239 0
M  V30 833 C 92.3483 -3.88249 -1.83196 0
M  V30 834 C 91.5813 -4.39613 -3.02616 0
M  V30 835 O 91.8043 -3.90023 -4.16219 0
M  V30 836 O 90.7383 -5.31111 -2.83204 0
M  V30 837 H 94.5643 -3.00112 -0.465483 0
M  V30 838 H 92.1493 -1.48499 -0.163826 0
M  V30 839 H 94.0313 -3.04026 -2.91798 0
M  V30 840 H 92.7063 -1.87796 -2.63656 0
M  V30 841 H 91.6133 -3.58492 -1.06931 0
M  V30 842 H 92.9463 -4.71098 -1.42573 0
M  V30 843 N 94.5984 0.214957 -1.56127 0
M  V30 844 C 95.8264 0.955092 -1.83536 0
M  V30 845 C 96.2414 1.77677 -0.638472 0
M  V30 846 O 95.5984 1.78219 0.392968 0
M  V30 847 C 95.6494 1.86734 -3.09536 0
M  V30 848 O 95.3704 1.07887 -4.24608 0
M  V30 849 C 96.8714 2.72082 -3.4998 0
M  V30 850 H 94.0914 0.279611 -0.609966 0
M  V30 851 H 96.6354 0.228197 -2.03223 0
M  V30 852 H 94.7904 2.5481 -2.91806 0
M  V30 853 H 95.2044 1.69872 -4.9623 0
M  V30 854 H 96.6784 3.31782 -4.41163 0
M  V30 855 H 97.1554 3.44806 -2.7204 0
M  V30 856 H 97.7614 2.09409 -3.70173 0
M  V30 857 N 96.0765 1.50051 0.48192 0
M  V30 858 C 97.3225 1.60736 1.2366 0
M  V30 859 C 97.6555 0.301786 1.91841 0
M  V30 860 O 96.9305 -0.696025 1.8162 0
M  V30 861 C 97.2135 2.78009 2.28874 0
M  V30 862 C 97.0665 4.18416 1.65069 0
M  V30 863 C 98.3855 2.90867 3.30279 0
M  V30 864 H 95.5045 0.585031 0.448228 0
M  V30 865 H 98.1465 1.82402 0.531946 0
M  V30 866 H 96.2965 2.59667 2.88973 0
M  V30 867 H 97.9685 4.48322 1.0865 0
M  V30 868 H 96.2115 4.23177 0.954148 0
M  V30 869 H 96.8825 4.96381 2.41474 0
M  V30 870 H 99.3585 3.07623 2.80191 0
M  V30 871 H 98.2345 3.74566 4.01238 0
M  V30 872 H 98.4955 2.01021 3.93755 0
M  V30 873 N 97.5546 -0.734337 1.39446 0
M  V30 874 C 98.7796 -1.52866 1.40167 0
M  V30 875 C 99.2046 -1.881 -0.00171513 0
M  V30 876 O 98.5626 -1.51957 -0.988879 0
M  V30 877 C 98.6106 -2.79235 2.28167 0
M  V30 878 O 97.7146 -3.75185 1.71201 0
M  V30 879 H 97.0556 -0.461618 0.477289 0
M  V30 880 H 99.5856 -0.905949 1.8345 0
M  V30 881 H 99.5956 -3.27963 2.42702 0
M  V30 882 H 98.2706 -2.52923 3.30156 0
M  V30 883 H 96.8476 -3.33958 1.65912 0
M  V30 884 N 99.0327 -1.24633 -0.964593 0
M  V30 885 C 100.261 -1.11501 -1.74285 0
M  V30 886 C 100.676 0.332165 -1.85855 0
M  V30 887 O 100.033 1.22903 -1.34911 0
M  V30 888 C 100.084 -1.75258 -3.16175 0
M  V30 889 O 99.8047 -3.14318 -3.05182 0
M  V30 890 C 101.306 -1.67776 -4.10324 0
M  V30 891 H 98.5257 -0.389407 -0.546446 0
M  V30 892 H 101.07 -1.64801 -1.21083 0
M  V30 893 H 99.2247 -1.25954 -3.66353 0
M  V30 894 H 99.6387 -3.4551 -3.94618 0
M  V30 895 H 101.113 -2.17064 -5.0753 0
M  V30 896 H 101.59 -0.639584 -4.34518 0
M  V30 897 H 102.196 -2.16522 -3.66058 0
M  V30 898 N 100.511 1.16574 -1.06058 0
M  V30 899 C 101.443 2.2045 -0.627239 0
M  V30 900 C 102.456 1.59752 0.313534 0
M  V30 901 O 103.645 1.78192 0.104896 0
M  V30 902 C 100.745 3.3875 0.100974 0
M  V30 903 C 99.9178 4.29008 -0.852687 0
M  V30 904 C 98.9768 5.25944 -0.164152 0
M  V30 905 O 98.0028 5.63535 -0.801047 0
M  V30 906 N 99.2048 5.70075 1.09518 0
M  V30 907 H 101.97 2.58249 -1.52077 0
M  V30 908 H 99.5308 1.3156 -0.943594 0
M  V30 909 H 101.523 4.00638 0.57194 0
M  V30 910 H 100.093 2.99476 0.89628 0
M  V30 911 H 99.3128 3.64419 -1.50308 0
M  V30 912 H 100.601 4.86195 -1.49972 0
M  V30 913 H 99.9988 5.41624 1.6328 0
M  V30 914 H 98.5558 6.34067 1.51006 0
M  V30 915 N 101.989 0.842826 1.3317 0
M  V30 916 C 102.899 0.281444 2.32906 0
M  V30 917 C 103.915 -0.594587 1.63526 0
M  V30 918 O 105.091 -0.49777 1.95152 0
M  V30 919 C 102.156 -0.530929 3.42611 0
M  V30 920 C 101.217 0.369843 4.27704 0
M  V30 921 C 100.45 -0.403853 5.3217 0
M  V30 922 O 100.673 -1.63513 5.46461 0
M  V30 923 O 99.6069 0.224199 6.01482 0
M  V30 924 H 103.433 1.10744 2.82789 0
M  V30 925 H 101.018 0.60545 1.36582 0
M  V30 926 H 102.9 -0.992437 4.09547 0
M  V30 927 H 101.575 -1.33392 2.94938 0
M  V30 928 H 100.482 0.879275 3.6362 0
M  V30 929 H 101.815 1.13771 4.78871 0
M  V30 930 N 103.467 -1.45747 0.599634 0
M  V30 931 C 104.397 -2.33235 -0.111306 0
M  V30 932 C 105.378 -1.46359 -0.866781 0
M  V30 933 O 106.563 -1.75146 -0.838904 0
M  V30 934 C 103.693 -3.28932 -1.11451 0
M  V30 935 C 102.647 -4.25381 -0.472772 0
M  V30 936 C 101.973 -5.1071 -1.58365 0
M  V30 937 C 103.273 -5.18831 0.600948 0
M  V30 938 H 104.967 -2.92927 0.61919 0
M  V30 939 H 102.513 -1.40857 0.299215 0
M  V30 940 H 104.466 -3.89002 -1.62036 0
M  V30 941 H 103.19 -2.67381 -1.8755 0
M  V30 942 H 101.849 -3.66598 0.0121472 0
M  V30 943 H 101.497 -4.45533 -2.33473 0
M  V30 944 H 101.197 -5.7604 -1.15982 0
M  V30 945 H 102.721 -5.73647 -2.09194 0
M  V30 946 H 104.135 -5.73019 0.179491 0
M  V30 947 H 102.532 -5.92595 0.946076 0
M  V30 948 H 103.602 -4.6174 1.48068 0
M  V30 949 N 104.945 -0.338344 -1.53925 0
M  V30 950 C 106.175 0.260919 -2.04946 0
M  V30 951 C 106.583 1.45174 -1.2133 0
M  V30 952 O 105.926 1.82122 -0.240262 0
M  V30 953 C 105.988 0.744596 -3.51704 0
M  V30 954 C 105.652 -0.325883 -4.55837 0
M  V30 955 C 106.649 -1.16687 -5.06636 0
M  V30 956 C 104.334 -0.478317 -5.00017 0
M  V30 957 C 106.328 -2.14588 -6.00192 0
M  V30 958 C 104.015 -1.46073 -5.93385 0
M  V30 959 C 105.013 -2.29297 -6.4336 0
M  V30 960 O 104.701 -3.25867 -7.34892 0
M  V30 961 H 104.433 0.0551207 -0.673749 0
M  V30 962 H 106.987 -0.486984 -1.99544 0
M  V30 963 H 105.217 1.54366 -3.54553 0
M  V30 964 H 106.906 1.26383 -3.85723 0
M  V30 965 H 107.672 -1.06016 -4.73271 0
M  V30 966 H 103.551 0.159613 -4.60724 0
M  V30 967 H 107.095 -2.79585 -6.39123 0
M  V30 968 H 102.992 -1.56802 -6.26166 0
M  V30 969 H 103.76 -3.21278 -7.5281 0
M  V30 970 N 106.423 1.57458 -0.0668435 0
M  V30 971 C 107.648 1.9804 0.616027 0
M  V30 972 C 108.073 0.944771 1.62652 0
M  V30 973 O 107.431 -0.0902094 1.81075 0
M  V30 974 C 107.479 3.37665 1.26549 0
M  V30 975 O 106.583 3.36701 2.38131 0
M  V30 976 H 105.924 0.644719 0.158849 0
M  V30 977 H 108.454 2.04121 -0.139891 0
M  V30 978 H 108.464 3.7474 1.6135 0
M  V30 979 H 107.139 4.12573 0.525016 0
M  V30 980 H 105.716 3.1139 2.0516 0
M  V30 981 N 107.901 -0.206675 1.56239 0
M  V30 982 C 109.15 -0.926964 1.79138 0
M  V30 983 C 109.463 -1.84901 0.638043 0
M  V30 984 O 110.669 -2.60906 0.751033 0
M  V30 985 C 109.125 -1.6986 3.17294 0
M  V30 986 C 108.733 -0.821956 4.40395 0
M  V30 987 C 110.477 -2.40922 3.4951 0
M  V30 988 C 108.384 -1.59179 5.69575 0
M  V30 989 H 107.314 -0.349864 0.667915 0
M  V30 990 H 109.965 -0.180487 1.8261 0
M  V30 991 H 108.347 -2.48853 3.08039 0
M  V30 992 H 109.521 -0.0715019 4.60745 0
M  V30 993 H 107.836 -0.222741 4.15804 0
M  V30 994 H 110.433 -2.99047 4.43255 0
M  V30 995 H 110.776 -3.14542 2.72707 0
M  V30 996 H 111.309 -1.68905 3.60161 0
M  V30 997 H 108.048 -0.898589 6.49312 0
M  V30 998 H 107.568 -2.31648 5.53262 0
M  V30 999 H 109.247 -2.14862 6.10281 0
M  V30 1000 N 109.379 -1.50304 -0.473955 0
M  V30 1001 C 110.79 -1.54042 -1.0549 0
M  V30 1002 C 111.141 -0.342248 -1.93192 0
M  V30 1003 O 110.266 0.545157 -2.09421 0
M  V30 1004 C 110.861 -2.79152 -1.91989 0
M  V30 1005 C 109.42 -2.8558 -2.45196 0
M  V30 1006 C 108.567 -2.48295 -1.2347 0
M  V30 1007 H 111.518 -1.5661 -0.256693 0
M  V30 1008 H 111.539 -2.60845 -2.7702 0
M  V30 1009 H 111.051 -3.66339 -1.28131 0
M  V30 1010 H 109.152 -2.02738 -3.12615 0
M  V30 1011 H 109.265 -3.88403 -2.80499 0
M  V30 1012 H 107.629 -2.00669 -1.56856 0
M  V30 1013 H 108.412 -3.37787 -0.612789 0
M  V30 1014 N 110.857 0.726932 -1.39834 0
M  V30 1015 C 111.767 1.87131 -1.41489 0
M  V30 1016 C 112.783 1.71239 -0.308757 0
M  V30 1017 O 113.959 1.93701 -0.551529 0
M  V30 1018 C 111.024 3.22811 -1.26468 0
M  V30 1019 C 110.085 3.51039 -2.47124 0
M  V30 1020 C 109.318 4.80245 -2.3281 0
M  V30 1021 O 109.541 5.54537 -1.33585 0
M  V30 1022 O 108.475 5.08554 -3.21957 0
M  V30 1023 H 112.301 1.8869 -2.3797 0
M  V30 1024 H 109.886 0.875837 -1.21035 0
M  V30 1025 H 111.768 4.03877 -1.20255 0
M  V30 1026 H 110.443 3.22005 -0.330862 0
M  V30 1027 H 109.35 2.70027 -2.58914 0
M  V30 1028 H 110.683 3.56632 -3.39227 0
M  V30 1029 N 112.336 1.25143 0.95797 0
M  V30 1030 C 113.613 1.00472 1.67823 0
M  V30 1031 C 113.993 -0.470056 2.058 0
M  V30 1032 O 113.341 -1.44663 1.76875 0
M  V30 1033 C 113.551 1.9372 2.90299 0
M  V30 1034 C 114.899 2.21371 3.62326 0
M  V30 1035 O 115.923 1.91451 3.00375 0
M  V30 1036 O 114.782 2.72231 4.7387 0
M  V30 1037 H 111.876 0.380752 0.734137 0
M  V30 1038 H 114.422 1.36283 1.01119 0
M  V30 1039 H 113.194 2.93316 2.59001 0
M  V30 1040 H 112.817 1.58286 3.64735 0
M  V30 1041 N 113.814 -1.1601 1.06675 0
M  V30 1042 C 114.746 -2.20115 0.638921 0
M  V30 1043 C 115.759 -1.59916 -0.305057 0
M  V30 1044 O 116.948 -1.78245 -0.0954446 0
M  V30 1045 C 114.048 -3.38798 -0.0830083 0
M  V30 1046 C 113.221 -4.2855 0.875426 0
M  V30 1047 C 112.28 -5.25849 0.192042 0
M  V30 1048 O 111.306 -5.63102 0.830921 0
M  V30 1049 N 112.508 -5.70648 -1.06493 0
M  V30 1050 H 115.273 -2.57439 1.53444 0
M  V30 1051 H 112.834 -1.31057 0.950557 0
M  V30 1052 H 114.826 -4.00936 -0.550685 0
M  V30 1053 H 113.396 -2.99947 -0.880386 0
M  V30 1054 H 112.616 -3.63617 1.52238 0
M  V30 1055 H 113.904 -4.85393 1.52548 0
M  V30 1056 H 113.302 -5.42482 -1.60405 0
M  V30 1057 H 111.859 -6.34859 -1.47641 0
M  V30 1058 N 115.292 -0.849877 -1.32721 0
M  V30 1059 C 116.202 -0.293791 -2.32753 0
M  V30 1060 C 117.218 0.585906 -1.63839 0
M  V30 1061 O 118.394 0.487413 -1.95413 0
M  V30 1062 C 115.459 0.512752 -3.42887 0
M  V30 1063 C 114.52 -0.39252 -4.27502 0
M  V30 1064 C 113.753 0.375625 -5.32377 0
M  V30 1065 O 113.976 1.60613 -5.4732 0
M  V30 1066 O 112.91 -0.256094 -6.01355 0
M  V30 1067 H 116.736 -1.12242 -2.82197 0
M  V30 1068 H 114.321 -0.612685 -1.36259 0
M  V30 1069 H 116.203 0.970704 -4.10067 0
M  V30 1070 H 114.878 1.31826 -2.95641 0
M  V30 1071 H 113.785 -0.898547 -3.63149 0
M  V30 1072 H 115.118 -1.16309 -4.7826 0
M  V30 1073 N 116.77 1.45427 -0.607355 0
M  V30 1074 C 118.181 1.85756 -0.187535 0
M  V30 1075 C 118.532 1.5077 1.25551 0
M  V30 1076 O 117.657 0.93427 1.95193 0
M  V30 1077 C 118.252 3.37154 -0.333572 0
M  V30 1078 C 116.811 3.76387 0.0315542 0
M  V30 1079 C 115.958 2.69377 -0.658117 0
M  V30 1080 H 118.909 1.36231 -0.81405 0
M  V30 1081 H 118.93 3.78014 0.43428 0
M  V30 1082 H 118.442 3.62586 -1.38393 0
M  V30 1083 H 116.543 3.56571 1.0811 0
M  V30 1084 H 116.656 4.77731 -0.361935 0
M  V30 1085 H 115.02 2.5452 -0.0957873 0
M  V30 1086 H 115.803 2.97646 -1.7106 0
M  V30 1087 N 118.248 0.346503 1.53744 0
M  V30 1088 C 119.158 -0.517293 2.28826 0
M  V30 1089 C 120.174 -1.10935 1.3405 0
M  V30 1090 O 121.35 -1.1244 1.6709 0
M  V30 1091 C 118.415 -1.65098 3.04866 0
M  V30 1092 C 117.476 -1.0884 4.15274 0
M  V30 1093 C 116.709 -2.16806 4.87679 0
M  V30 1094 O 116.932 -3.3758 4.59778 0
M  V30 1095 O 115.866 -1.80934 5.74061 0
M  V30 1096 H 119.692 0.0931396 3.03557 0
M  V30 1097 H 117.277 0.111458 1.48984 0
M  V30 1098 H 119.159 -2.31053 3.5241 0
M  V30 1099 H 117.834 -2.24717 2.32989 0
M  V30 1100 H 116.741 -0.3933 3.72027 0
M  V30 1101 H 118.074 -0.537036 4.89261 0
M  V30 1102 N 119.726 -1.57421 0.075193 0
M  V30 1103 C 121.003 -1.85029 -0.634329 0
M  V30 1104 C 121.383 -0.968305 -1.87582 0
M  V30 1105 O 120.731 -0.0354749 -2.28472 0
M  V30 1106 C 120.941 -3.35286 -0.968742 0
M  V30 1107 C 122.289 -4.02875 -1.34077 0
M  V30 1108 O 123.313 -3.40051 -1.06037 0
M  V30 1109 O 122.172 -5.13691 -1.86506 0
M  V30 1110 H 119.266 -0.7645 -0.315387 0
M  V30 1111 H 121.812 -1.69366 0.106382 0
M  V30 1112 H 120.584 -3.91203 -0.0871376 0
M  V30 1113 H 120.207 -3.56223 -1.7661 0
M  V30 1114 N 121.204 0.198386 -1.56346 0
M  V30 1115 C 122.136 1.26987 -1.90806 0
M  V30 1116 C 123.149 1.41877 -0.798419 0
M  V30 1117 O 124.338 1.42362 -1.07682 0
M  V30 1118 C 121.438 2.64246 -2.12196 0
M  V30 1119 C 120.611 2.71007 -3.43328 0
M  V30 1120 C 119.67 3.89439 -3.5387 0
M  V30 1121 O 118.696 3.76695 -4.26719 0
M  V30 1122 N 119.898 5.04752 -2.86715 0
M  V30 1123 H 122.663 0.977433 -2.83313 0
M  V30 1124 H 120.224 0.388322 -1.57174 0
M  V30 1125 H 122.216 3.41896 -2.1654 0
M  V30 1126 H 120.786 2.85992 -1.26204 0
M  V30 1127 H 120.006 1.79657 -3.50881 0
M  V30 1128 H 121.294 2.72512 -4.29668 0
M  V30 1129 H 120.692 5.18004 -2.2735 0
M  V30 1130 H 119.249 5.8036 -2.96691 0
M  V30 1131 N 122.682 1.50554 0.465978 0
M  V30 1132 C 123.592 1.72585 1.58907 0
M  V30 1133 C 124.608 0.60911 1.6299 0
M  V30 1134 O 125.784 0.88804 1.80765 0
M  V30 1135 C 122.849 1.81995 2.95091 0
M  V30 1136 C 121.91 3.05751 3.01355 0
M  V30 1137 C 121.143 3.14702 4.31043 0
M  V30 1138 O 121.366 2.30313 5.21835 0
M  V30 1139 O 120.3 4.07468 4.43005 0
M  V30 1140 H 124.126 2.67799 1.43239 0
M  V30 1141 H 121.711 1.34711 0.646013 0
M  V30 1142 H 123.593 1.90335 3.75966 0
M  V30 1143 H 122.268 0.899659 3.10947 0
M  V30 1144 H 121.175 3.02908 2.19539 0
M  V30 1145 H 122.508 3.97375 2.90437 0
M  V30 1146 N 124.16 -0.719506 1.40217 0
M  V30 1147 C 125.571 -1.29848 1.34151 0
M  V30 1148 C 125.922 -1.96196 0.0131349 0
M  V30 1149 O 125.047 -1.973 -0.88892 0
M  V30 1150 C 125.642 -2.36118 2.42968 0
M  V30 1151 C 124.201 -2.8965 2.40374 0
M  V30 1152 C 123.348 -1.63393 2.24049 0
M  V30 1153 H 126.299 -0.51591 1.5008 0
M  V30 1154 H 126.32 -3.16871 2.10649 0
M  V30 1155 H 125.832 -1.878 3.39636 0
M  V30 1156 H 123.933 -3.42208 1.47392 0
M  V30 1157 H 124.046 -3.4171 3.35814 0
M  V30 1158 H 122.41 -1.88312 1.71495 0
M  V30 1159 H 123.193 -1.17104 3.2271 0
M  V30 1160 N 125.638 -1.25649 -0.95132 0
M  V30 1161 C 126.548 -1.08073 -2.08224 0
M  V30 1162 C 127.564 -0.0169666 -1.73992 0
M  V30 1163 O 128.74 -0.218593 -2.0021 0
M  V30 1164 C 125.805 -0.704922 -3.39458 0
M  V30 1165 C 124.866 -1.84699 -3.87537 0
M  V30 1166 C 124.099 -1.48902 -5.12508 0
M  V30 1167 O 124.322 -0.386156 -5.69091 0
M  V30 1168 O 123.256 -2.32033 -5.55378 0
M  V30 1169 H 127.082 -2.02924 -2.25954 0
M  V30 1170 H 124.667 -1.04618 -1.06656 0
M  V30 1171 H 126.549 -0.507609 -4.18332 0
M  V30 1172 H 125.224 0.214291 -3.2299 0
M  V30 1173 H 124.131 -2.09919 -3.09653 0
M  V30 1174 H 125.464 -2.74557 -4.08509 0
M  V30 1175 N 127.117 1.15442 -1.07289 0
M  V30 1176 C 128.027 2.23786 -0.704057 0
M  V30 1177 C 129.043 1.7166 0.284413 0
M  V30 1178 O 130.219 2.00972 0.131205 0
M  V30 1179 C 127.284 3.46535 -0.106792 0
M  V30 1180 C 126.345 4.13654 -1.14842 0
M  V30 1181 C 125.578 5.30544 -0.57956 0
M  V30 1182 O 125.801 5.67187 0.604585 0
M  V30 1183 O 124.735 5.87154 -1.32414 0
M  V30 1184 H 128.561 2.57664 -1.60757 0
M  V30 1185 H 126.146 1.23152 -0.845803 0
M  V30 1186 H 128.028 4.20804 0.224048 0
M  V30 1187 H 126.703 3.14407 0.770049 0
M  V30 1188 H 125.61 3.4131 -1.5316 0
M  V30 1189 H 126.943 4.49861 -1.99714 0
M  V30 1190 N 128.595 0.856903 1.32268 0
M  V30 1191 C 130.006 0.515711 1.79436 0
M  V30 1192 C 130.357 -0.966586 1.70738 0
M  V30 1193 O 129.482 -1.75409 1.26731 0
M  V30 1194 C 130.077 0.929335 3.25805 0
M  V30 1195 C 128.636 0.640006 3.70919 0
M  V30 1196 C 127.783 1.12784 2.53328 0
M  V30 1197 H 130.734 1.04389 1.19535 0
M  V30 1198 H 130.755 0.246633 3.797 0
M  V30 1199 H 130.267 2.00821 3.32103 0
M  V30 1200 H 128.368 -0.428051 3.70133 0
M  V30 1201 H 128.481 1.20788 4.63624 0
M  V30 1202 H 126.845 0.548033 2.48734 0
M  V30 1203 H 127.628 2.21387 2.62379 0
M  V30 1204 N 130.073 -1.45103 0.615059 0
M  V30 1205 C 131.301 -2.06553 0.11977 0
M  V30 1206 C 131.716 -1.45842 -1.19898 0
M  V30 1207 O 131.073 -0.575325 -1.73194 0
M  V30 1208 C 131.124 -3.61495 -0.018364 0
M  V30 1209 O 130.845 -4.19942 1.24822 0
M  V30 1210 C 132.346 -4.39947 -0.544237 0
M  V30 1211 H 129.566 -0.667096 0.0722739 0
M  V30 1212 H 132.11 -1.8623 0.84491 0
M  V30 1213 H 130.265 -3.81135 -0.693865 0
M  V30 1214 H 130.679 -5.13204 1.0827 0
M  V30 1215 H 132.153 -5.48838 -0.589953 0
M  V30 1216 H 132.63 -4.10255 -1.56805 0
M  V30 1217 H 133.236 -4.25188 0.0974703 0
M  V30 1218 N 131.551 -0.354651 -1.53558 0
M  V30 1219 C 132.962 0.126902 -1.86268 0
M  V30 1220 C 133.313 1.49075 -1.27558 0
M  V30 1221 O 132.438 2.08105 -0.5934 0
M  V30 1222 C 133.033 0.237046 -3.3797 0
M  V30 1223 C 131.592 0.662842 -3.70518 0
M  V30 1224 C 130.739 -0.196652 -2.76602 0
M  V30 1225 H 133.69 -0.573849 -1.47962 0
M  V30 1226 H 133.711 1.06259 -3.65362 0
M  V30 1227 H 133.223 -0.755725 -3.80671 0
M  V30 1228 H 131.324 1.66424 -3.33367 0
M  V30 1229 H 131.437 0.445034 -4.77029 0
M  V30 1230 H 129.801 0.332763 -2.52517 0
M  V30 1231 H 130.584 -1.18676 -3.22135 0
M  V30 1232 N 133.029 1.57378 -0.0835403 0
M  V30 1233 C 133.992 2.12252 0.864959 0
M  V30 1234 C 134.992 1.04916 1.21858 0
M  V30 1235 O 136.182 1.30853 1.14991 0
M  V30 1236 C 133.314 2.63358 2.16461 0
M  V30 1237 H 134.507 2.97371 0.388676 0
M  V30 1238 H 132.06 1.55423 0.165317 0
M  V30 1239 H 132.795 1.81727 2.686 0
M  V30 1240 H 132.58 3.41826 1.92087 0
M  V30 1241 H 134.07 3.05847 2.84337 0
M  V30 1242 N 134.507 -0.190092 1.56449 0
M  V30 1243 C 135.918 -0.754312 1.70784 0
M  V30 1244 C 136.269 -1.83631 0.690951 0
M  V30 1245 O 135.394 -2.15868 -0.151604 0
M  V30 1246 C 135.989 -1.37503 3.09642 0
M  V30 1247 C 134.548 -1.88628 3.25725 0
M  V30 1248 C 133.695 -0.758098 2.66736 0
M  V30 1249 H 136.646 0.0350524 1.58661 0
M  V30 1250 H 136.667 -2.2445 3.0725 0
M  V30 1251 H 136.179 -0.587302 3.83631 0
M  V30 1252 H 134.28 -2.70103 2.56661 0
M  V30 1253 H 134.393 -2.04462 4.3328 0
M  V30 1254 H 132.757 -1.17369 2.26046 0
M  V30 1255 H 133.54 0.0174705 3.43296 0
M  V30 1256 N 135.985 -1.50799 -0.457987 0
M  V30 1257 C 137.231 -1.63648 -1.20792 0
M  V30 1258 C 137.586 -0.338662 -1.89396 0
M  V30 1259 O 136.879 0.664291 -1.79716 0
M  V30 1260 C 137.073 -2.76358 -2.2663 0
M  V30 1261 C 136.902 -4.16974 -1.68411 0
M  V30 1262 C 135.672 -4.83199 -1.47807 0
M  V30 1263 C 137.87 -5.00774 -1.17176 0
M  V30 1264 N 135.852 -6.07991 -0.849692 0
M  V30 1265 C 137.223 -6.16397 -0.667403 0
M  V30 1266 C 139.278 -4.86452 -1.06155 0
M  V30 1267 C 137.981 -7.19272 -0.0636908 0
M  V30 1268 C 140.007 -5.89515 -0.471759 0
M  V30 1269 C 139.369 -7.04397 0.0221557 0
M  V30 1270 H 135.468 -0.652888 -0.43042 0
M  V30 1271 H 138.052 -1.87962 -0.507785 0
M  V30 1272 H 136.223 -2.53744 -2.94056 0
M  V30 1273 H 137.955 -2.78496 -2.93636 0
M  V30 1274 H 134.71 -4.40714 -1.73403 0
M  V30 1275 H 135.134 -6.74733 -0.553537 0
M  V30 1276 H 139.776 -3.97907 -1.42932 0
M  V30 1277 H 137.494 -8.07481 0.316253 0
M  V30 1278 H 141.08 -5.805 -0.388671 0
M  V30 1279 H 139.96 -7.82782 0.471375 0
M  V30 1280 N 137.463 0.71206 -1.40597 0
M  V30 1281 C 138.426 1.80785 -1.40888 0
M  V30 1282 C 139.426 1.57937 -0.302103 0
M  V30 1283 O 140.616 1.64913 -0.561182 0
M  V30 1284 C 137.748 3.18927 -1.20409 0
M  V30 1285 H 138.941 1.81924 -2.38419 0
M  V30 1286 H 136.494 0.91805 -1.26497 0
M  V30 1287 H 137.229 3.23436 -0.236522 0
M  V30 1288 H 137.014 3.36911 -2.00582 0
M  V30 1289 H 138.504 3.98949 -1.23408 0
M  V30 1290 N 138.941 1.26152 0.944643 0
M  V30 1291 C 140.357 1.03189 1.21754 0
M  V30 1292 C 140.557 -0.245112 2.00004 0
M  V30 1293 O 139.613 -0.955176 2.33736 0
M  V30 1294 C 140.926 2.26119 1.98219 0
M  V30 1295 C 142.474 2.30984 2.11224 0
M  V30 1296 C 142.949 3.53597 2.91089 0
M  V30 1297 N 144.44 3.54053 2.98664 0
M  V30 1298 C 145.175 4.45593 3.60881 0
M  V30 1299 N 144.671 5.47416 4.24626 0
M  V30 1300 N 146.464 4.33252 3.58119 0
M  V30 1301 H 138.615 2.08177 0.421437 0
M  V30 1302 H 140.878 0.914723 0.248969 0
M  V30 1303 H 140.584 3.18984 1.48128 0
M  V30 1304 H 140.458 2.3009 2.98895 0
M  V30 1305 H 142.845 1.38635 2.60508 0
M  V30 1306 H 142.926 2.31026 1.09821 0
M  V30 1307 H 142.57 4.46273 2.42493 0
M  V30 1308 H 142.5 3.50802 3.92741 0
M  V30 1309 H 144.991 2.80403 2.53343 0
M  V30 1310 H 145.304 6.13459 4.69987 0
M  V30 1311 H 143.649 5.51278 4.23223 0
M  V30 1312 H 146.84 3.52924 3.0751 0
M  V30 1313 H 147.013 5.04786 4.06319 0
M  V30 1314 N 140.419 -1.14872 1.07899 0
M  V30 1315 C 141.349 -2.2193 0.725887 0
M  V30 1316 C 142.33 -1.67622 -0.28927 0
M  V30 1317 O 143.515 -1.93533 -0.160787 0
M  V30 1318 C 140.645 -3.47061 0.128856 0
M  V30 1319 C 139.599 -4.14363 1.07178 0
M  V30 1320 C 138.925 -5.33636 0.337229 0
M  V30 1321 C 140.225 -4.63492 2.40775 0
M  V30 1322 H 141.919 -2.51724 1.62097 0
M  V30 1323 H 139.465 -1.20991 0.780838 0
M  V30 1324 H 141.418 -4.21199 -0.130147 0
M  V30 1325 H 140.142 -3.16617 -0.80134 0
M  V30 1326 H 138.801 -3.42173 1.3158 0
M  V30 1327 H 138.449 -4.99449 -0.596606 0
M  V30 1328 H 138.149 -5.79609 0.965788 0
M  V30 1329 H 139.673 -6.10539 0.0861567 0
M  V30 1330 H 141.087 -5.2913 2.20669 0
M  V30 1331 H 139.484 -5.20148 2.99276 0
M  V30 1332 H 140.554 -3.78834 3.02676 0
M  V30 1333 N 141.898 -0.863906 -1.31812 0
M  V30 1334 C 143.144 -0.481841 -1.9761 0
M  V30 1335 C 143.499 0.954048 -1.6708 0
M  V30 1336 O 142.792 1.66182 -0.953624 0
M  V30 1337 C 142.986 -0.668547 -3.51091 0
M  V30 1338 C 142.815 -2.12103 -3.96538 0
M  V30 1339 C 141.585 -2.76141 -4.23171 0
M  V30 1340 C 143.783 -3.09265 -4.10925 0
M  V30 1341 N 141.765 -4.12205 -4.54929 0
M  V30 1342 C 143.136 -4.30341 -4.46326 0
M  V30 1343 C 145.191 -3.05337 -3.93286 0
M  V30 1344 C 143.894 -5.48 -4.65928 0
M  V30 1345 C 145.92 -4.22248 -4.14078 0
M  V30 1346 C 145.282 -5.42085 -4.49804 0
M  V30 1347 H 141.381 -0.225238 -0.74886 0
M  V30 1348 H 143.965 -1.11723 -1.59455 0
M  V30 1349 H 142.136 -0.0627898 -3.88349 0
M  V30 1350 H 143.868 -0.255467 -4.03893 0
M  V30 1351 H 140.623 -2.27125 -4.15585 0
M  V30 1352 H 141.047 -4.82416 -4.74978 0
M  V30 1353 H 145.689 -2.138 -3.64759 0
M  V30 1354 H 143.407 -6.40059 -4.93305 0
M  V30 1355 H 146.993 -4.20654 -4.01922 0
M  V30 1356 H 145.873 -6.31044 -4.65567 0
M  V30 1357 N 143.376 1.44774 -0.622745 0
M  V30 1358 C 144.339 2.29069 0.0774015 0
M  V30 1359 C 145.339 1.4059 0.780461 0
M  V30 1360 O 146.529 1.62551 0.626322 0
M  V30 1361 C 143.661 3.21974 1.12006 0
M  V30 1362 H 144.854 2.92459 -0.663901 0
M  V30 1363 H 142.407 1.51548 -0.382486 0
M  V30 1364 H 143.142 2.63417 1.89162 0
M  V30 1365 H 142.927 3.87168 0.619951 0
M  V30 1366 H 144.417 3.85318 1.60995 0
M  V30 1367 N 144.854 0.36279 1.53368 0
M  V30 1368 C 145.784 -0.476976 2.28576 0
M  V30 1369 C 146.765 -1.08631 1.30894 0
M  V30 1370 O 147.95 -1.10409 1.59761 0
M  V30 1371 C 145.08 -1.61828 3.07293 0
M  V30 1372 C 144.034 -1.13633 4.1264 0
M  V30 1373 C 143.36 -2.36766 4.79423 0
M  V30 1374 C 144.66 -0.223061 5.21823 0
M  V30 1375 H 146.354 0.150474 2.99022 0
M  V30 1376 H 143.9 0.0738103 1.43811 0
M  V30 1377 H 145.853 -2.21237 3.58653 0
M  V30 1378 H 144.577 -2.27292 2.34533 0
M  V30 1379 H 143.236 -0.564945 3.62221 0
M  V30 1380 H 142.884 -3.0068 4.03238 0
M  V30 1381 H 142.584 -2.05192 5.50609 0
M  V30 1382 H 144.108 -2.96865 5.33576 0
M  V30 1383 H 145.522 -0.724545 5.68703 0
M  V30 1384 H 143.919 0.001678 6.001 0
M  V30 1385 H 144.989 0.735553 4.79289 0
M  V30 1386 N 146.332 -1.57332 0.0918853 0
M  V30 1387 C 147.264 -2.10869 -0.898168 0
M  V30 1388 C 148.277 -1.04521 -1.24817 0
M  V30 1389 O 149.466 -1.31977 -1.20184 0
M  V30 1390 C 146.566 -2.57083 -2.2082 0
M  V30 1391 C 145.739 -3.87229 -2.03402 0
M  V30 1392 C 144.798 -4.19324 -3.17889 0
M  V30 1393 O 143.824 -4.88598 -2.91994 0
M  V30 1394 N 145.026 -3.74471 -4.43567 0
M  V30 1395 H 147.791 -2.96439 -0.440943 0
M  V30 1396 H 145.352 -1.61631 -0.0933064 0
M  V30 1397 H 147.344 -2.75602 -2.96354 0
M  V30 1398 H 145.914 -1.76541 -2.57977 0
M  V30 1399 H 145.134 -3.7789 -1.12218 0
M  V30 1400 H 146.422 -4.72379 -1.89038 0
M  V30 1401 H 145.82 -3.18546 -4.67488 0
M  V30 1402 H 144.377 -3.98151 -5.16061 0
M  V30 1403 N 147.81 0.181792 -1.56548 0
M  V30 1404 C 149.087 0.926765 -1.72251 0
M  V30 1405 C 149.467 2.00831 -0.650386 0
M  V30 1406 O 148.815 2.26008 0.336521 0
M  V30 1407 C 149.025 1.50106 -3.1507 0
M  V30 1408 C 150.373 1.97805 -3.75711 0
M  V30 1409 O 151.397 1.59922 -3.18282 0
M  V30 1410 O 150.256 2.67555 -4.76525 0
M  V30 1411 H 147.35 0.435506 -0.703039 0
M  V30 1412 H 149.896 0.170443 -1.68842 0
M  V30 1413 H 148.668 0.72212 -3.84579 0
M  V30 1414 H 148.291 2.32186 -3.22763 0
M  V30 1415 N 149.288 1.51039 0.449983 0
M  V30 1416 C 150.536 1.62759 1.19808 0
M  V30 1417 C 150.857 0.339981 1.92013 0
M  V30 1418 O 150.127 -0.643606 1.85026 0
M  V30 1419 H 148.707 0.599811 0.445237 0
M  V30 1420 H 151.369 1.87914 0.517138 0
M  V30 1421 H 150.465 2.44911 1.93455 0
M  V30 1422 N 150.766 -0.704594 1.40972 0
M  V30 1423 C 152.013 -1.46458 1.39844 0
M  V30 1424 C 152.341 -1.94499 0.00447594 0
M  V30 1425 O 151.596 -1.69275 -0.982057 0
M  V30 1426 C 151.895 -2.698 2.34399 0
M  V30 1427 C 151.561 -2.40464 3.81429 0
M  V30 1428 C 150.223 -2.32174 4.21484 0
M  V30 1429 C 152.575 -2.16086 4.74296 0
M  V30 1430 C 149.903 -1.97589 5.52427 0
M  V30 1431 C 152.255 -1.83011 6.05549 0
M  V30 1432 C 150.919 -1.7321 6.44635 0
M  V30 1433 H 150.189 -0.535927 0.511725 0
M  V30 1434 H 152.836 -0.806124 1.73706 0
M  V30 1435 H 151.141 -3.40536 1.93759 0
M  V30 1436 H 152.838 -3.27919 2.30804 0
M  V30 1437 H 149.428 -2.47808 3.49699 0
M  V30 1438 H 153.612 -2.2144 4.4416 0
M  V30 1439 H 148.868 -1.88547 5.81601 0
M  V30 1440 H 153.042 -1.63164 6.77016 0
M  V30 1441 H 150.669 -1.46179 7.46013 0
M  V30 1442 N 152.244 -1.26651 -0.937939 0
M  V30 1443 C 153.207 -1.08546 -2.01867 0
M  V30 1444 C 154.207 -0.0327327 -1.60767 0
M  V30 1445 O 155.397 -0.276427 -1.71993 0
M  V30 1446 C 152.529 -0.651711 -3.34613 0
M  V30 1447 H 153.722 -2.04502 -2.1936 0
M  V30 1448 H 151.275 -1.09294 -1.11734 0
M  V30 1449 H 152.01 0.309696 -3.22818 0
M  V30 1450 H 151.795 -1.41189 -3.65798 0
M  V30 1451 H 153.285 -0.546973 -4.14002 0
M  V30 1452 N 153.722 1.14298 -1.08507 0
M  V30 1453 C 154.67 2.21483 -0.710483 0
M  V30 1454 C 155.664 1.66998 0.284234 0
M  V30 1455 O 156.87 1.79401 0.146692 0
M  V30 1456 H 153.245 0.721578 -0.211729 0
M  V30 1457 H 155.216 2.50348 -1.62384 0
M  V30 1458 C 153.965 3.4743 -0.137007 0
M  V30 1459 H 153.288 3.89686 -0.893592 0
M  V30 1460 H 154.728 4.2391 0.0872789 0
M  V30 1461 C 153.187 3.17548 1.12538 0
M  V30 1462 O 153.717 3.35437 2.21009 0
M  V30 1463 N 151.923 2.71499 1.03617 0
M  V30 1464 H 151.47 2.57143 0.153403 0
M  V30 1465 H 151.428 2.51881 1.88158 0
M  V30 1466 N 155.201 0.870884 1.31352 0
M  V30 1467 C 156.131 0.343096 2.30966 0
M  V30 1468 C 157.112 -0.566507 1.60389 0
M  V30 1469 O 158.297 -0.483336 1.88089 0
M  V30 1470 C 155.427 -0.455487 3.443 0
M  V30 1471 C 154.381 0.361103 4.26474 0
M  V30 1472 C 153.707 -0.563221 5.31725 0
M  V30 1473 C 155.007 1.59566 4.97329 0
M  V30 1474 H 156.701 1.17548 2.75359 0
M  V30 1475 H 154.247 0.566686 1.32381 0
M  V30 1476 H 156.2 -0.83525 4.13039 0
M  V30 1477 H 154.924 -1.32139 2.98675 0
M  V30 1478 H 153.583 0.722825 3.59403 0
M  V30 1479 H 153.231 -1.42643 4.82351 0
M  V30 1480 H 152.931 -0.0207409 5.87596 0
M  V30 1481 H 154.455 -0.939808 6.03324 0
M  V30 1482 H 155.869 1.28728 5.58661 0
M  V30 1483 H 154.266 2.07728 5.63 0
M  V30 1484 H 155.336 2.34798 4.24262 0
M  V30 1485 N 156.679 -1.44442 0.630414 0
M  V30 1486 C 157.589 -2.34476 -0.0761693 0
M  V30 1487 C 158.605 -1.52576 -0.836449 0
M  V30 1488 O 159.781 -1.85307 -0.788874 0
M  V30 1489 C 156.846 -3.30545 -1.04599 0
M  V30 1490 C 155.907 -4.28352 -0.28516 0
M  V30 1491 C 155.14 -5.19831 -1.20878 0
M  V30 1492 O 155.363 -5.15223 -2.44747 0
M  V30 1493 O 154.297 -5.97892 -0.693491 0
M  V30 1494 H 158.123 -2.96345 0.664324 0
M  V30 1495 H 155.708 -1.44203 0.39061 0
M  V30 1496 H 157.59 -3.89681 -1.60396 0
M  V30 1497 H 156.265 -2.7121 -1.76711 0
M  V30 1498 H 155.172 -3.72764 0.315837 0
M  V30 1499 H 156.505 -4.90605 0.395924 0
M  V30 1500 N 158.157 -0.370918 -1.53173 0
M  V30 1501 C 159.397 0.217106 -2.03244 0
M  V30 1502 C 159.761 1.45558 -1.25207 0
M  V30 1503 O 160.962 2.11957 -1.65311 0
M  V30 1504 C 159.233 0.496664 -3.53932 0
M  V30 1505 S 160.792 1.0576 -4.25864 0
M  V30 1506 H 157.61 0.0627827 -0.708223 0
M  V30 1507 H 160.212 -0.515019 -1.88594 0
M  V30 1508 H 158.916 -0.412096 -4.08326 0
M  V30 1509 H 158.447 1.25772 -3.72753 0
M  V30 1510 H 160.462 2.34145 -4.37482 0
M  V30 1511 N 159.635 1.57281 -0.100228 0
M  V30 1512 C 160.881 1.94826 0.563101 0
M  V30 1513 C 161.214 0.982475 1.67514 0
M  V30 1514 O 160.489 0.0164069 1.94493 0
M  V30 1515 C 160.772 3.42453 1.11346 0
M  V30 1516 C 160.625 4.498 0.00612081 0
M  V30 1517 C 161.944 3.91506 2.01024 0
M  V30 1518 H 159.063 0.708428 0.203221 0
M  V30 1519 H 161.705 1.8922 -0.171979 0
M  V30 1520 H 159.855 3.47361 1.7399 0
M  V30 1521 H 161.527 4.57 -0.628357 0
M  V30 1522 H 159.77 4.28756 -0.659581 0
M  V30 1523 H 160.441 5.50306 0.432109 0
M  V30 1524 H 162.917 3.88784 1.48278 0
M  V30 1525 H 161.793 4.95358 2.36457 0
M  V30 1526 H 162.054 3.31099 2.92961 0
M  V30 1527 N 161.113 -0.173488 1.56642 0
M  V30 1528 C 162.061 -1.23417 1.97157 0
M  V30 1529 C 163.055 -1.45946 0.860013 0
M  V30 1530 O 164.261 -1.46551 1.04512 0
M  V30 1531 H 160.636 -0.414818 0.62724 0
M  V30 1532 H 162.607 -0.865582 2.8557 0
M  V30 1533 C 161.356 -2.5665 2.34576 0
M  V30 1534 H 160.679 -2.40137 3.19647 0
M  V30 1535 H 162.119 -3.2956 2.6677 0
M  V30 1536 C 160.578 -3.15245 1.18836 0
M  V30 1537 O 161.108 -3.98883 0.474869 0
M  V30 1538 N 159.314 -2.74303 0.959497 0
M  V30 1539 H 158.861 -2.0639 1.54146 0
M  V30 1540 H 158.819 -3.13844 0.186932 0
M  V30 1541 N 162.591 -1.51276 -0.441967 0
M  V30 1542 C 163.868 -1.54252 -1.20273 0
M  V30 1543 C 164.248 -0.30408 -2.08898 0
M  V30 1544 O 163.596 0.711084 -2.17154 0
M  V30 1545 C 163.806 -2.85406 -2.00859 0
M  V30 1546 C 165.154 -3.37181 -2.58059 0
M  V30 1547 O 166.178 -2.86925 -2.11074 0
M  V30 1548 O 165.037 -4.24858 -3.43741 0
M  V30 1549 H 162.131 -0.619969 -0.547328 0
M  V30 1550 H 164.677 -1.63586 -0.451413 0
M  V30 1551 H 163.449 -3.67003 -1.35736 0
M  V30 1552 H 163.072 -2.79213 -2.83065 0
M  V30 1553 N 164.069 0.697108 -1.41344 0
M  V30 1554 C 165.017 1.83237 -1.43272 0
M  V30 1555 C 166.011 1.66522 -0.310947 0
M  V30 1556 O 167.217 1.73402 -0.482899 0
M  V30 1557 H 163.592 0.603802 -0.448249 0
M  V30 1558 H 165.563 1.78727 -2.38954 0
M  V30 1559 C 164.312 3.21245 -1.33029 0
M  V30 1560 H 163.635 3.34723 -2.18633 0
M  V30 1561 H 165.075 4.00763 -1.38439 0
M  V30 1562 C 163.534 3.36873 -0.0424635 0
M  V30 1563 O 164.064 3.91177 0.913421 0
M  V30 1564 N 162.27 2.90581 0.0331145 0
M  V30 1565 H 161.817 2.46577 -0.745506 0
M  V30 1566 H 161.775 3.01416 0.894199 0
M  V30 1567 N 165.547 1.27147 0.931209 0
M  V30 1568 C 166.777 1.15914 1.71019 0
M  V30 1569 C 167.185 -0.287112 1.87009 0
M  V30 1570 O 166.528 -1.20761 1.38429 0
M  V30 1571 C 166.59 1.76647 3.13107 0
M  V30 1572 C 166.254 3.25807 3.20467 0
M  V30 1573 C 167.251 4.22489 3.02983 0
M  V30 1574 C 164.936 3.66452 3.43538 0
M  V30 1575 C 166.93 5.57794 3.08454 0
M  V30 1576 C 164.617 5.01888 3.48643 0
M  V30 1577 C 165.615 5.97369 3.31119 0
M  V30 1578 O 165.303 7.30337 3.35952 0
M  V30 1579 H 165.035 0.404062 0.54195 0
M  V30 1580 H 167.589 1.68457 1.17521 0
M  V30 1581 H 165.819 1.18578 3.68071 0
M  V30 1582 H 167.508 1.60179 3.72958 0
M  V30 1583 H 168.274 3.92425 2.85004 0
M  V30 1584 H 164.153 2.92611 3.5623 0
M  V30 1585 H 167.697 6.32298 2.94694 0
M  V30 1586 H 163.594 5.31609 3.66145 0
M  V30 1587 H 164.362 7.38739 3.5243 0
M  V30 1588 N 167.025 -1.13721 1.09112 0
M  V30 1589 C 168.271 -1.85413 0.836283 0
M  V30 1590 C 168.626 -1.8175 -0.631249 0
M  V30 1591 O 167.919 -1.24238 -1.45861 0
M  V30 1592 C 168.113 -3.32861 1.30146 0
M  V30 1593 C 167.942 -3.50882 2.81268 0
M  V30 1594 C 166.712 -3.65312 3.49106 0
M  V30 1595 C 168.91 -3.47196 3.7942 0
M  V30 1596 N 166.892 -3.71563 4.88686 0
M  V30 1597 C 168.263 -3.59777 5.04936 0
M  V30 1598 C 170.318 -3.30577 3.72321 0
M  V30 1599 C 169.021 -3.57455 6.24194 0
M  V30 1600 C 171.047 -3.29562 4.91063 0
M  V30 1601 C 170.409 -3.42691 6.15421 0
M  V30 1602 H 166.508 -0.694812 0.358832 0
M  V30 1603 H 169.092 -1.36246 1.39087 0
M  V30 1604 H 167.263 -3.80602 0.774361 0
M  V30 1605 H 168.995 -3.92346 0.99229 0
M  V30 1606 H 165.75 -3.6685 2.9953 0
M  V30 1607 H 166.174 -3.78387 5.61384 0
M  V30 1608 H 170.816 -3.19332 2.77105 0
M  V30 1609 H 168.534 -3.67475 7.19714 0
M  V30 1610 H 172.12 -3.17905 4.87266 0
M  V30 1611 H 171 -3.41862 7.05762 0
M  V30 1612 N 168.503 -0.877838 -1.30888 0
M  V30 1613 C 169.75 -0.492696 -1.96415 0
M  V30 1614 C 170.078 0.956671 -1.69346 0
M  V30 1615 O 169.333 1.68993 -0.986913 0
M  V30 1616 C 169.632 -0.705748 -3.50363 0
M  V30 1617 C 169.298 -2.1291 -3.97467 0
M  V30 1618 C 167.96 -2.51834 -4.1004 0
M  V30 1619 C 170.312 -3.05702 -4.22132 0
M  V30 1620 C 167.64 -3.82775 -4.44635 0
M  V30 1621 C 169.992 -4.36166 -4.58194 0
M  V30 1622 C 168.656 -4.74993 -4.68975 0
M  V30 1623 H 167.926 -0.18029 -0.718733 0
M  V30 1624 H 170.573 -1.11233 -1.55883 0
M  V30 1625 H 168.878 -0.00303058 -3.918 0
M  V30 1626 H 170.575 -0.387456 -3.99124 0
M  V30 1627 H 167.165 -1.81694 -3.88182 0
M  V30 1628 H 171.349 -2.76853 -4.11906 0
M  V30 1629 H 166.605 -4.12609 -4.51181 0
M  V30 1630 H 170.779 -5.08111 -4.76231 0
M  V30 1631 H 168.406 -5.76495 -4.95537 0
M  V30 1632 N 169.982 1.44106 -0.638065 0
M  V30 1633 C 171.23 2.01579 -0.145043 0
M  V30 1634 C 171.551 1.50496 1.24 0
M  V30 1635 O 170.821 0.711374 1.82527 0
M  V30 1636 H 169.401 0.745282 -0.05063 0
M  V30 1637 H 172.063 1.76516 -0.826327 0
M  V30 1638 H 171.159 3.11877 -0.118039 0
M  V30 1639 N 171.46 0.379036 1.52974 0
M  V30 1640 C 172.876 0.0285448 1.59574 0
M  V30 1641 C 173.076 -1.45542 1.39355 0
M  V30 1642 O 172.132 -2.2187 1.20541 0
M  V30 1643 C 173.445 0.496535 2.96572 0
M  V30 1644 C 174.993 0.451909 3.0972 0
M  V30 1645 C 175.468 0.895924 4.49152 0
M  V30 1646 N 176.959 0.851522 4.55306 0
M  V30 1647 C 177.694 1.16661 5.61407 0
M  V30 1648 N 177.19 1.55166 6.752 0
M  V30 1649 N 178.983 1.08853 5.51459 0
M  V30 1650 H 171.134 1.34525 1.64367 0
M  V30 1651 H 173.397 0.550733 0.771619 0
M  V30 1652 H 173.103 1.53258 3.16552 0
M  V30 1653 H 172.977 -0.109802 3.7704 0
M  V30 1654 H 175.364 -0.575029 2.89443 0
M  V30 1655 H 175.445 1.09392 2.3123 0
M  V30 1656 H 175.089 1.92104 4.70168 0
M  V30 1657 H 175.019 0.23103 5.26093 0
M  V30 1658 H 177.51 0.568038 3.73606 0
M  V30 1659 H 177.823 1.776 7.52116 0
M  V30 1660 H 176.168 1.59044 6.76557 0
M  V30 1661 H 179.359 0.786803 4.6144 0
M  V30 1662 H 179.532 1.33742 6.34048 0
M  V30 1663 N 172.938 -1.57226 0.108567 0
M  V30 1664 C 174.215 -1.86333 -0.594939 0
M  V30 1665 C 174.595 -1.00788 -1.85486 0
M  V30 1666 O 173.943 -0.0839293 -2.28346 0
M  V30 1667 C 174.153 -3.37265 -0.897405 0
M  V30 1668 C 175.501 -4.05629 -1.25501 0
M  V30 1669 O 176.525 -3.42224 -0.987998 0
M  V30 1670 O 175.384 -5.17531 -1.75567 0
M  V30 1671 H 172.478 -0.771018 -0.2991 0
M  V30 1672 H 175.024 -1.69102 0.142283 0
M  V30 1673 H 173.796 -3.913 -0.00413806 0
M  V30 1674 H 173.419 -3.59889 -1.69014 0
M  V30 1675 N 174.416 0.165178 -1.56732 0
M  V30 1676 C 175.363 1.2044 -1.96883 0
M  V30 1677 C 176.333 1.43664 -0.833657 0
M  V30 1678 O 177.518 1.56302 -1.09427 0
M  V30 1679 C 174.658 2.53727 -2.33916 0
M  V30 1680 C 173.771 2.3783 -3.6064 0
M  V30 1681 C 172.906 3.64026 -3.86857 0
M  V30 1682 C 171.945 3.43088 -5.06909 0
M  V30 1683 N 171.082 4.61369 -5.29229 0
M  V30 1684 H 175.922 0.854996 -2.85471 0
M  V30 1685 H 173.459 0.41076 -1.41249 0
M  V30 1686 H 175.417 3.31419 -2.53411 0
M  V30 1687 H 174.047 2.8665 -1.48431 0
M  V30 1688 H 173.099 1.51282 -3.49024 0
M  V30 1689 H 174.411 2.18308 -4.4849 0
M  V30 1690 H 173.565 4.50152 -4.06753 0
M  V30 1691 H 172.304 3.86533 -2.97394 0
M  V30 1692 H 171.309 2.55349 -4.86906 0
M  V30 1693 H 172.534 3.21997 -5.97909 0
M  V30 1694 H 170.48 4.84084 -4.42718 0
M  V30 1695 H 170.397 4.44783 -6.11313 0
M  V30 1696 H 171.665 5.48761 -5.53608 0
M  V30 1697 N 175.894 1.51508 0.433938 0
M  V30 1698 C 177.119 1.68443 1.21003 0
M  V30 1699 C 177.544 0.382636 1.84167 0
M  V30 1700 O 176.902 -0.65755 1.68956 0
M  V30 1701 C 176.95 2.80405 2.26727 0
M  V30 1702 O 176.054 2.44245 3.32292 0
M  V30 1703 H 175.395 0.561536 0.354363 0
M  V30 1704 H 177.925 1.9809 0.512024 0
M  V30 1705 H 177.935 3.0459 2.71457 0
M  V30 1706 H 176.61 3.74867 1.80132 0
M  V30 1707 H 175.187 2.30644 2.93015 0
M  V30 1708 N 177.372 -0.689602 1.41712 0
M  V30 1709 C 178.612 -1.46184 1.42862 0
M  V30 1710 C 178.976 -1.91962 0.0382204 0
M  V30 1711 O 180.177 -2.68694 -0.0755019 0
M  V30 1712 C 178.448 -2.6371 2.4123 0
M  V30 1713 S 180.007 -3.52768 2.6096 0
M  V30 1714 H 176.825 -0.49947 0.506015 0
M  V30 1715 H 179.427 -0.804107 1.78198 0
M  V30 1716 H 178.131 -2.28293 3.41044 0
M  V30 1717 H 177.662 -3.3437 2.07269 0
M  V30 1718 H 179.677 -4.59146 1.88148 0
M  V30 1719 N 178.85 -1.27639 -0.924453 0
M  V30 1720 C 179.76 -1.12466 -2.05885 0
M  V30 1721 C 180.776 -0.053869 -1.73917 0
M  V30 1722 O 181.952 -0.261012 -1.99702 0
M  V30 1723 C 179.017 -0.776768 -3.37886 0
M  V30 1724 C 178.078 -1.92878 -3.83532 0
M  V30 1725 C 177.311 -1.59739 -5.09234 0
M  V30 1726 O 177.534 -0.506782 -5.68144 0
M  V30 1727 O 176.468 -2.43761 -5.50331 0
M  V30 1728 H 180.294 -2.07671 -2.21599 0
M  V30 1729 H 177.879 -1.06857 -1.04413 0
M  V30 1730 H 179.761 -0.596229 -4.17161 0
M  V30 1731 H 178.436 0.145732 -3.23372 0
M  V30 1732 H 177.343 -2.1644 -3.0513 0
M  V30 1733 H 178.676 -2.8316 -4.02593 0
M  V30 1734 N 180.328 1.1314 -1.09713 0
M  V30 1735 C 181.558 1.88048 -0.855656 0
M  V30 1736 C 181.966 1.79537 0.596919 0
M  V30 1737 O 181.309 1.16196 1.42282 0
M  V30 1738 C 181.371 3.38314 -1.21589 0
M  V30 1739 C 181.035 3.70605 -2.67397 0
M  V30 1740 C 182.032 3.69596 -3.65643 0
M  V30 1741 C 179.717 4.0017 -3.03593 0
M  V30 1742 C 181.711 3.977 -4.9811 0
M  V30 1743 C 179.398 4.27935 -4.36251 0
M  V30 1744 C 180.396 4.26685 -5.33318 0
M  V30 1745 O 180.084 4.53767 -6.63589 0
M  V30 1746 H 179.816 0.60208 -0.307368 0
M  V30 1747 H 182.37 1.44128 -1.46343 0
M  V30 1748 H 180.6 3.82752 -0.551177 0
M  V30 1749 H 182.289 3.94552 -0.953083 0
M  V30 1750 H 183.055 3.46826 -3.39023 0
M  V30 1751 H 178.934 4.00289 -2.2867 0
M  V30 1752 H 182.478 3.9664 -5.73866 0
M  V30 1753 H 178.375 4.50178 -4.62613 0
M  V30 1754 H 179.143 4.71422 -6.69107 0
M  V30 1755 N 181.806 0.884767 1.30421 0
M  V30 1756 C 183.046 0.509806 1.9794 0
M  V30 1757 C 183.41 -0.923736 1.68319 0
M  V30 1758 O 184.611 -1.40481 2.29169 0
M  V30 1759 C 182.882 0.776732 3.48858 0
M  V30 1760 S 184.441 0.503843 4.35898 0
M  V30 1761 H 181.259 0.189699 0.685227 0
M  V30 1762 H 183.861 1.14399 1.58535 0
M  V30 1763 H 182.565 1.81857 3.67908 0
M  V30 1764 H 182.096 0.1301 3.93185 0
M  V30 1765 H 184.111 -0.657625 4.91823 0
M  V30 1766 N 183.284 -1.43765 0.645699 0
M  V30 1767 C 184.531 -2.01898 0.15604 0
M  V30 1768 C 184.859 -1.50887 -1.22733 0
M  V30 1769 O 184.114 -0.689271 -1.8316 0
M  V30 1770 C 184.413 -3.57238 0.107679 0
M  V30 1771 C 184.079 -4.27564 1.43178 0
M  V30 1772 C 182.741 -4.46492 1.7944 0
M  V30 1773 C 185.093 -4.67454 2.30513 0
M  V30 1774 C 182.421 -5.02573 3.02716 0
M  V30 1775 C 184.773 -5.24901 3.53074 0
M  V30 1776 C 183.437 -5.42046 3.89541 0
M  V30 1777 H 182.707 -0.738797 0.057099 0
M  V30 1778 H 185.354 -1.72341 0.834912 0
M  V30 1779 H 183.659 -3.86293 -0.654618 0
M  V30 1780 H 185.356 -3.99965 -0.287938 0
M  V30 1781 H 181.946 -4.13171 1.13963 0
M  V30 1782 H 186.13 -4.5253 2.0379 0
M  V30 1783 H 181.386 -5.14033 3.31028 0
M  V30 1784 H 185.56 -5.54758 4.20971 0
M  V30 1785 H 183.187 -5.85268 4.85145 0
M  V30 1786 N 184.763 -0.387143 -1.52771 0
M  V30 1787 C 186.04 0.253197 -1.93954 0
M  V30 1788 C 186.42 1.64545 -1.32243 0
M  V30 1789 O 185.768 2.23191 -0.489699 0
M  V30 1790 C 185.978 0.281722 -3.47861 0
M  V30 1791 C 187.326 0.511715 -4.21505 0
M  V30 1792 O 188.35 0.362023 -3.54356 0
M  V30 1793 O 187.209 0.804847 -5.40541 0
M  V30 1794 H 184.303 0.156845 -0.811991 0
M  V30 1795 H 186.849 -0.441494 -1.63856 0
M  V30 1796 H 185.621 -0.693571 -3.85104 0
M  V30 1797 H 185.244 1.02142 -3.84256 0
M  V30 1798 N 186.241 1.57166 -0.116904 0
M  V30 1799 C 187.151 2.18745 0.847812 0
M  V30 1800 C 188.167 1.163 1.29423 0
M  V30 1801 O 189.343 1.48761 1.35765 0
M  V30 1802 C 186.408 2.77307 2.0809 0
M  V30 1803 C 185.469 3.94781 1.68661 0
M  V30 1804 C 184.702 4.50541 2.86091 0
M  V30 1805 O 184.925 4.05202 4.01456 0
M  V30 1806 O 183.859 5.41256 2.63298 0
M  V30 1807 H 187.685 3.01632 0.353778 0
M  V30 1808 H 185.27 1.49005 0.108599 0
M  V30 1809 H 187.152 3.14647 2.80313 0
M  V30 1810 H 185.827 1.97452 2.56504 0
M  V30 1811 H 184.734 3.62214 0.935518 0
M  V30 1812 H 186.067 4.76065 1.24991 0
M  V30 1813 N 187.719 -0.156864 1.56817 0
M  V30 1814 C 189.13 -0.717916 1.72345 0
M  V30 1815 C 189.481 -1.82124 0.729747 0
M  V30 1816 O 188.606 -2.16141 -0.105781 0
M  V30 1817 C 189.201 -1.30904 3.12489 0
M  V30 1818 C 187.76 -1.81676 3.29653 0
M  V30 1819 C 186.907 -0.701349 2.68284 0
M  V30 1820 H 189.858 0.0686989 1.58551 0
M  V30 1821 H 189.879 -2.17882 3.11942 0
M  V30 1822 H 189.391 -0.505796 3.8479 0
M  V30 1823 H 187.492 -2.64598 2.62333 0
M  V30 1824 H 187.605 -1.95226 4.3752 0
M  V30 1825 H 185.969 -1.12548 2.28484 0
M  V30 1826 H 186.752 0.0902846 3.43181 0
M  V30 1827 N 189.197 -1.51736 -0.425897 0
M  V30 1828 C 190.127 -1.76827 -1.52494 0
M  V30 1829 C 191.108 -0.618524 -1.58456 0
M  V30 1830 O 192.293 -0.862416 -1.74 0
M  V30 1831 C 189.423 -1.90374 -2.90474 0
M  V30 1832 C 188.377 -3.0588 -2.99369 0
M  V30 1833 C 187.703 -3.04625 -4.3944 0
M  V30 1834 C 189.003 -4.45644 -2.72394 0
M  V30 1835 H 190.697 -2.68855 -1.31748 0
M  V30 1836 H 188.243 -1.29372 -0.632362 0
M  V30 1837 H 190.196 -2.0651 -3.6733 0
M  V30 1838 H 188.92 -0.95004 -3.12477 0
M  V30 1839 H 187.579 -2.89467 -2.24954 0
M  V30 1840 H 187.227 -2.0701 -4.58428 0
M  V30 1841 H 186.927 -3.82195 -4.46319 0
M  V30 1842 H 188.451 -3.22869 -5.18255 0
M  V30 1843 H 189.865 -4.62348 -3.38979 0
M  V30 1844 H 188.262 -5.25006 -2.9067 0
M  V30 1845 H 189.332 -4.54893 -1.67929 0
M  V30 1846 N 190.675 0.682077 -1.42076 0
M  V30 1847 C 191.605 1.80796 -1.47767 0
M  V30 1848 C 192.586 1.6677 -0.334954 0
M  V30 1849 O 193.771 1.863 -0.548264 0
M  V30 1850 C 190.901 3.19038 -1.37229 0
M  V30 1851 C 189.855 3.47789 -2.49453 0
M  V30 1852 C 189.181 4.8553 -2.23975 0
M  V30 1853 C 190.481 3.45411 -3.91776 0
M  V30 1854 H 192.175 1.7629 -2.41997 0
M  V30 1855 H 189.721 0.846721 -1.16476 0
M  V30 1856 H 191.674 3.97528 -1.39821 0
M  V30 1857 H 190.398 3.24204 -0.394907 0
M  V30 1858 H 189.057 2.71657 -2.46166 0
M  V30 1859 H 188.705 4.87337 -1.24547 0
M  V30 1860 H 188.405 5.0573 -2.99184 0
M  V30 1861 H 189.929 5.66312 -2.28304 0
M  V30 1862 H 191.343 4.13882 -3.96705 0
M  V30 1863 H 189.74 3.77145 -4.66778 0
M  V30 1864 H 190.81 2.44122 -4.18966 0
M  V30 1865 N 192.153 1.28127 0.917671 0
M  V30 1866 C 193.1 1.11717 2.0196 0
M  V30 1867 C 194.07 0.0153929 1.66093 0
M  V30 1868 O 195.255 0.179596 1.89953 0
M  V30 1869 C 192.395 0.780927 3.36148 0
M  V30 1870 C 191.508 1.96135 3.84909 0
M  V30 1871 C 190.643 1.56609 5.0759 0
M  V30 1872 C 189.682 2.71339 5.48673 0
M  V30 1873 N 188.819 2.32332 6.62545 0
M  V30 1874 H 193.659 2.06003 2.15329 0
M  V30 1875 H 191.196 1.02535 1.05475 0
M  V30 1876 H 193.154 0.56675 4.13333 0
M  V30 1877 H 191.784 -0.124998 3.22558 0
M  V30 1878 H 190.836 2.28777 3.03916 0
M  V30 1879 H 192.148 2.82165 4.1132 0
M  V30 1880 H 191.302 1.31374 5.92305 0
M  V30 1881 H 190.041 0.677014 4.82978 0
M  V30 1882 H 189.046 2.97276 4.62501 0
M  V30 1883 H 190.271 3.60882 5.75274 0
M  V30 1884 H 188.217 1.45889 6.39572 0
M  V30 1885 H 188.134 3.11899 6.88662 0
M  V30 1886 H 189.402 2.10371 7.50576 0
M  V30 1887 N 193.631 -1.12557 1.10312 0
M  V30 1888 C 195.047 -1.36036 0.834649 0
M  V30 1889 C 195.247 -1.93946 -0.546539 0
M  V30 1890 O 194.303 -2.16484 -1.29966 0
M  V30 1891 C 195.616 -2.30312 1.9333 0
M  V30 1892 C 197.164 -2.43906 1.9616 0
M  V30 1893 C 197.639 -3.41496 3.05195 0
M  V30 1894 N 199.13 -3.49053 3.04494 0
M  V30 1895 C 199.865 -4.24471 3.85502 0
M  V30 1896 N 199.361 -5.02966 4.76442 0
M  V30 1897 N 201.154 -4.19864 3.73725 0
M  V30 1898 H 193.305 -0.733246 1.99342 0
M  V30 1899 H 195.568 -0.385234 0.866198 0
M  V30 1900 H 195.274 -1.94933 2.92735 0
M  V30 1901 H 195.148 -3.30421 1.81939 0
M  V30 1902 H 197.535 -2.78567 0.973886 0
M  V30 1903 H 197.616 -1.4369 2.11629 0
M  V30 1904 H 197.26 -3.07565 4.04186 0
M  V30 1905 H 197.19 -4.41539 2.86968 0
M  V30 1906 H 199.681 -2.93053 2.38596 0
M  V30 1907 H 199.994 -5.57846 5.34815 0
M  V30 1908 H 198.339 -5.02167 4.80472 0
M  V30 1909 H 201.53 -3.57623 3.02032 0
M  V30 1910 H 201.703 -4.78386 4.37093 0
M  V30 1911 N 195.109 -0.891671 -1.2995 0
M  V30 1912 C 196.337 -0.52866 -2.00032 0
M  V30 1913 C 196.752 0.884574 -1.66795 0
M  V30 1914 O 196.109 1.5827 -0.908669 0
M  V30 1915 C 196.16 -0.701814 -3.54622 0
M  V30 1916 O 195.881 -2.05942 -3.86678 0
M  V30 1917 C 197.382 -0.342683 -4.41973 0
M  V30 1918 H 194.602 -0.203659 -0.639347 0
M  V30 1919 H 197.146 -1.19881 -1.65677 0
M  V30 1920 H 195.301 -0.0789468 -3.8732 0
M  V30 1921 H 195.715 -2.08291 -4.81368 0
M  V30 1922 H 197.189 -0.514709 -5.49595 0
M  V30 1923 H 197.666 0.71975 -4.33262 0
M  V30 1924 H 198.272 -0.942154 -4.14733 0
M  V30 1925 N 196.587 1.43421 -0.653314 0
M  V30 1926 C 197.864 1.95361 -0.0966581 0
M  V30 1927 C 198.244 1.59461 1.38331 0
M  V30 1928 O 197.592 0.879777 2.10884 0
M  V30 1929 C 197.802 3.47311 -0.342988 0
M  V30 1930 C 199.15 4.23875 -0.24798 0
M  V30 1931 O 200.174 3.55133 -0.275553 0
M  V30 1932 O 199.033 5.4623 -0.171771 0
M  V30 1933 H 196.127 0.826945 0.00956291 0
M  V30 1934 H 198.673 1.5336 -0.726558 0
M  V30 1935 H 197.445 3.66569 -1.36906 0
M  V30 1936 H 197.068 3.9631 0.319975 0
M  V30 1937 N 198.065 0.39524 1.52563 0
M  V30 1938 C 199.012 -0.437036 2.26624 0
M  V30 1939 C 199.982 -1.05281 1.28472 0
M  V30 1940 O 201.167 -1.07971 1.57311 0
M  V30 1941 C 198.307 -1.55524 3.08069 0
M  V30 1942 C 197.42 -0.961745 4.21158 0
M  V30 1943 C 196.555 -2.05149 4.89987 0
M  V30 1944 C 195.594 -1.4342 5.95061 0
M  V30 1945 N 194.731 -2.46351 6.57462 0
M  V30 1946 H 199.571 0.200976 2.97322 0
M  V30 1947 H 197.108 0.110944 1.46681 0
M  V30 1948 H 199.066 -2.21437 3.53584 0
M  V30 1949 H 197.696 -2.16348 2.3957 0
M  V30 1950 H 196.748 -0.192048 3.79915 0
M  V30 1951 H 198.06 -0.470701 4.96574 0
M  V30 1952 H 197.214 -2.78819 5.38837 0
M  V30 1953 H 195.953 -2.57615 4.14109 0
M  V30 1954 H 194.958 -0.682774 5.45544 0
M  V30 1955 H 196.183 -0.917416 6.72875 0
M  V30 1956 H 194.129 -2.97975 5.8442 0
M  V30 1957 H 194.046 -2.02019 7.28508 0
M  V30 1958 H 195.314 -3.19633 7.10954 0
M  V30 1959 N 199.544 -1.57102 0.125237 0
M  V30 1960 C 200.774 -1.99472 -0.538015 0
M  V30 1961 C 201.182 -1.00395 -1.60366 0
M  V30 1962 O 200.525 0.0103875 -1.83697 0
M  V30 1963 C 200.587 -3.38262 -1.21734 0
M  V30 1964 C 200.251 -4.56021 -0.298897 0
M  V30 1965 C 201.248 -5.17817 0.464943 0
M  V30 1966 C 198.933 -5.01869 -0.208149 0
M  V30 1967 C 200.927 -6.23852 1.3072 0
M  V30 1968 C 198.614 -6.07763 0.637736 0
M  V30 1969 C 199.612 -6.68622 1.39403 0
M  V30 1970 O 199.3 -7.7247 2.22586 0
M  V30 1971 H 199.032 -0.659934 -0.146501 0
M  V30 1972 H 201.586 -2.04321 0.210267 0
M  V30 1973 H 199.816 -3.30185 -2.01282 0
M  V30 1974 H 201.505 -3.6488 -1.77813 0
M  V30 1975 H 202.271 -4.83308 0.404741 0
M  V30 1976 H 198.15 -4.54241 -0.786522 0
M  V30 1977 H 201.694 -6.71284 1.898 0
M  V30 1978 H 197.591 -6.41701 0.699309 0
M  V30 1979 H 198.359 -7.89595 2.15596 0
M  V30 1980 N 201.022 0.148545 -1.56898 0
M  V30 1981 C 202.438 0.501131 -1.51528 0
M  V30 1982 C 202.638 1.83458 -0.833399 0
M  V30 1983 O 201.694 2.49259 -0.40328 0
M  V30 1984 C 203.007 0.512864 -2.96294 0
M  V30 1985 C 204.555 0.598487 -3.07225 0
M  V30 1986 C 205.03 0.640897 -4.53494 0
M  V30 1987 N 206.521 0.703163 -4.57832 0
M  V30 1988 C 207.256 0.756935 -5.68382 0
M  V30 1989 N 206.752 0.770147 -6.88506 0
M  V30 1990 N 208.545 0.797698 -5.56411 0
M  V30 1991 H 200.696 -0.725532 -1.99624 0
M  V30 1992 H 202.959 -0.264358 -0.910395 0
M  V30 1993 H 202.665 -0.398691 -3.49433 0
M  V30 1994 H 202.539 1.35133 -3.52163 0
M  V30 1995 H 204.926 1.50046 -2.54106 0
M  V30 1996 H 205.007 -0.267093 -2.54402 0
M  V30 1997 H 204.651 -0.256915 -5.0725 0
M  V30 1998 H 204.581 1.52295 -5.04097 0
M  V30 1999 H 207.072 0.700314 -3.71354 0
M  V30 2000 H 207.385 0.812983 -7.68512 0
M  V30 2001 H 205.73 0.738049 -6.9107 0
M  V30 2002 H 208.921 0.784535 -4.61479 0
M  V30 2003 H 209.094 0.83614 -6.42583 0
M  V30 2004 N 202.5 1.5196 0.417844 0
M  V30 2005 C 203.728 1.69426 1.18753 0
M  V30 2006 C 204.143 0.399955 1.84515 0
M  V30 2007 O 203.5 -0.623288 1.71527 0
M  V30 2008 C 203.551 2.82375 2.25714 0
M  V30 2009 O 203.272 4.06793 1.62638 0
M  V30 2010 C 204.773 3.11277 3.15628 0
M  V30 2011 H 201.993 0.568031 0.357186 0
M  V30 2012 H 204.537 1.98475 0.49273 0
M  V30 2013 H 202.692 2.5587 2.90877 0
M  V30 2014 H 203.106 4.69667 2.3348 0
M  V30 2015 H 204.58 3.93843 3.86771 0
M  V30 2016 H 205.057 2.24473 3.77503 0
M  V30 2017 H 205.663 3.39515 2.56144 0
M  V30 2018 N 203.978 -0.674533 1.42435 0
M  V30 2019 C 205.208 -1.46071 1.46105 0
M  V30 2020 C 205.616 -1.89067 0.0709605 0
M  V30 2021 O 204.959 -1.58731 -0.924677 0
M  V30 2022 C 205.021 -2.74145 2.32561 0
M  V30 2023 C 204.685 -2.53224 3.8043 0
M  V30 2024 C 205.682 -2.17809 4.72075 0
M  V30 2025 C 203.367 -2.6821 4.24698 0
M  V30 2026 C 205.361 -1.97648 6.05982 0
M  V30 2027 C 203.048 -2.47665 5.58664 0
M  V30 2028 C 204.046 -2.12437 6.49122 0
M  V30 2029 O 203.734 -1.9209 7.80613 0
M  V30 2030 H 203.466 -0.455959 0.499076 0
M  V30 2031 H 206.02 -0.836193 1.87609 0
M  V30 2032 H 204.25 -3.3908 1.85908 0
M  V30 2033 H 205.939 -3.36028 2.27683 0
M  V30 2034 H 206.705 -2.05826 4.39159 0
M  V30 2035 H 202.584 -2.94609 3.54579 0
M  V30 2036 H 206.128 -1.70075 6.7655 0
M  V30 2037 H 202.025 -2.59244 5.91154 0
M  V30 2038 H 202.793 -2.06686 7.91974 0
M  V30 2039 N 205.456 -1.28612 -0.910864 0
M  V30 2040 C 206.681 -1.1891 -1.69927 0
M  V30 2041 C 207.106 0.248372 -1.86453 0
M  V30 2042 O 206.464 1.17961 -1.37676 0
M  V30 2043 C 206.512 -1.89578 -3.06745 0
M  V30 2044 O 205.616 -1.20521 -3.94396 0
M  V30 2045 H 204.957 -0.412632 -0.520222 0
M  V30 2046 H 207.487 -1.69985 -1.1387 0
M  V30 2047 H 207.497 -1.97597 -3.56958 0
M  V30 2048 H 206.172 -2.94136 -2.94035 0
M  V30 2049 H 204.749 -1.20684 -3.52831 0
M  V30 2050 N 206.934 1.1197 -1.10907 0
M  V30 2051 C 207.881 2.17846 -0.762345 0
M  V30 2052 C 208.851 1.63995 0.263599 0
M  V30 2053 O 210.036 1.90273 0.141773 0
M  V30 2054 C 207.176 3.44487 -0.205651 0
M  V30 2055 C 206.289 4.12369 -1.28748 0
M  V30 2056 C 205.424 5.26674 -0.691919 0
M  V30 2057 C 204.463 5.86431 -1.75399 0
M  V30 2058 N 203.6 6.92142 -1.17833 0
M  V30 2059 H 208.44 2.46851 -1.6694 0
M  V30 2060 H 205.977 1.21188 -0.833776 0
M  V30 2061 H 207.935 4.16981 0.135037 0
M  V30 2062 H 206.565 3.15884 0.664613 0
M  V30 2063 H 205.617 3.38003 -1.74522 0
M  V30 2064 H 206.929 4.52844 -2.09125 0
M  V30 2065 H 206.083 6.05953 -0.300963 0
M  V30 2066 H 204.822 4.8749 0.143232 0
M  V30 2067 H 203.827 5.05835 -2.15432 0
M  V30 2068 H 205.052 6.27685 -2.59208 0
M  V30 2069 H 202.998 6.54985 -0.364725 0
M  V30 2070 H 202.915 7.31242 -1.91887 0
M  V30 2071 H 204.183 7.75237 -0.81408 0
M  V30 2072 N 208.412 0.89855 1.29475 0
M  V30 2073 C 209.359 0.373819 2.27753 0
M  V30 2074 C 210.329 -0.543444 1.56958 0
M  V30 2075 O 211.514 -0.468934 1.84948 0
M  V30 2076 C 208.654 -0.393648 3.42848 0
M  V30 2077 C 207.767 0.554379 4.28428 0
M  V30 2078 C 206.902 -0.230026 5.30702 0
M  V30 2079 C 205.941 0.712599 6.07938 0
M  V30 2080 N 205.078 -0.0373283 7.0209 0
M  V30 2081 H 209.918 1.21699 2.72017 0
M  V30 2082 H 207.455 0.611456 1.33789 0
M  V30 2083 H 209.413 -0.85466 4.08352 0
M  V30 2084 H 208.043 -1.20128 2.99615 0
M  V30 2085 H 207.095 1.13391 3.63107 0
M  V30 2086 H 208.407 1.27597 4.82204 0
M  V30 2087 H 207.561 -0.752288 6.02018 0
M  V30 2088 H 206.3 -0.984758 4.77654 0
M  V30 2089 H 205.305 1.24637 5.35486 0
M  V30 2090 H 206.53 1.46664 6.63074 0
M  V30 2091 H 204.476 -0.774348 6.51414 0
M  V30 2092 H 204.393 0.624374 7.53417 0
M  V30 2093 H 205.661 -0.539891 7.77628 0
M  V30 2094 N 209.89 -1.43072 0.660911 0
M  V30 2095 C 210.84 -2.27948 -0.04847 0
M  V30 2096 C 211.824 -1.40325 -0.787246 0
M  V30 2097 O 213.016 -1.63893 -0.668446 0
M  V30 2098 C 210.145 -3.28143 -1.00881 0
M  V30 2099 C 209.231 -4.23252 -0.268108 0
M  V30 2100 N 209.622 -5.00656 0.719528 0
M  V30 2101 C 207.92 -4.43092 -0.508493 0
M  V30 2102 C 208.621 -5.70019 1.15988 0
M  V30 2103 N 207.597 -5.41364 0.492584 0
M  V30 2104 H 211.399 -2.85213 0.709279 0
M  V30 2105 H 208.913 -1.54869 0.488822 0
M  V30 2106 H 210.91 -3.87736 -1.53188 0
M  V30 2107 H 209.57 -2.7244 -1.76654 0
M  V30 2108 H 210.581 -5.06115 1.09855 0
M  V30 2109 H 207.258 -3.98449 -1.24679 0
M  V30 2110 H 208.648 -6.4214 1.97751 0
M  V30 2111 N 211.368 -0.403325 -1.52352 0
M  V30 2112 C 212.615 0.174347 -2.01748 0
M  V30 2113 C 212.943 1.45636 -1.2892 0
M  V30 2114 O 212.198 1.9193 -0.382258 0
M  V30 2115 C 212.497 0.474665 -3.54234 0
M  V30 2116 C 212.163 -0.717458 -4.45155 0
M  V30 2117 C 210.825 -1.04447 -4.69728 0
M  V30 2118 C 213.177 -1.51432 -4.98716 0
M  V30 2119 C 210.505 -2.16963 -5.45109 0
M  V30 2120 C 212.857 -2.6302 -5.75329 0
M  V30 2121 C 211.521 -2.96213 -5.98175 0
M  V30 2122 H 210.791 0.0637981 -0.738248 0
M  V30 2123 H 213.438 -0.543553 -1.83624 0
M  V30 2124 H 211.743 1.27406 -3.70506 0
M  V30 2125 H 213.44 0.934496 -3.89959 0
M  V30 2126 H 210.03 -0.452596 -4.26204 0
M  V30 2127 H 214.214 -1.27491 -4.79645 0
M  V30 2128 H 209.47 -2.43034 -5.61021 0
M  V30 2129 H 213.644 -3.25158 -6.15829 0
M  V30 2130 H 211.271 -3.83516 -6.56368 0
M  V30 2131 N 212.846 1.57033 -0.133567 0
M  V30 2132 C 214.262 1.58035 0.222944 0
M  V30 2133 C 214.462 1.14713 1.6566 0
M  V30 2134 O 213.518 0.841218 2.38075 0
M  V30 2135 C 214.831 3.00691 -0.0236116 0
M  V30 2136 C 216.379 3.12973 0.0411512 0
M  V30 2137 C 216.854 4.57654 -0.177899 0
M  V30 2138 N 218.345 4.63033 -0.124365 0
M  V30 2139 C 219.08 5.72771 -0.268553 0
M  V30 2140 N 218.576 6.91206 -0.46972 0
M  V30 2141 N 220.369 5.61718 -0.2071 0
M  V30 2142 H 212.52 1.8349 -1.06981 0
M  V30 2143 H 214.783 0.848677 -0.422436 0
M  V30 2144 H 214.489 3.36726 -1.0153 0
M  V30 2145 H 214.363 3.70614 0.701808 0
M  V30 2146 H 216.75 2.76787 1.02338 0
M  V30 2147 H 216.831 2.45564 -0.716383 0
M  V30 2148 H 216.475 4.94542 -1.15717 0
M  V30 2149 H 216.405 5.23173 0.599797 0
M  V30 2150 H 218.896 3.7789 0.027011 0
M  V30 2151 H 219.209 7.70693 -0.570212 0
M  V30 2152 H 217.554 6.93156 -0.505876 0
M  V30 2153 H 220.745 4.68072 -0.0507986 0
M  V30 2154 H 220.918 6.47195 -0.322909 0
M  V30 2155 N 214.325 -0.140222 1.56975 0
M  V30 2156 C 215.574 -0.850152 1.82908 0
M  V30 2157 C 215.887 -1.82028 0.715892 0
M  V30 2158 O 217.093 -2.57485 0.861016 0
M  V30 2159 C 215.549 -1.5625 3.24213 0
M  V30 2160 C 215.157 -0.63443 4.43485 0
M  V30 2161 C 216.901 -2.25881 3.59413 0
M  V30 2162 C 214.808 -1.34879 5.75814 0
M  V30 2163 H 213.738 -0.321221 0.682153 0
M  V30 2164 H 216.389 -0.102874 1.83211 0
M  V30 2165 H 214.771 -2.35565 3.18316 0
M  V30 2166 H 215.945 0.12398 4.60633 0
M  V30 2167 H 214.26 -0.0461836 4.16374 0
M  V30 2168 H 216.857 -2.79978 4.5554 0
M  V30 2169 H 217.2 -3.02693 2.85802 0
M  V30 2170 H 217.733 -1.53477 3.67001 0
M  V30 2171 H 214.472 -0.622385 6.52539 0
M  V30 2172 H 213.992 -2.07974 5.6259 0
M  V30 2173 H 215.671 -1.88784 6.18845 0
M  V30 2174 N 215.803 -1.52179 -0.40978 0
M  V30 2175 C 217.05 -1.66206 -1.15679 0
M  V30 2176 C 217.378 -0.391674 -1.90516 0
M  V30 2177 O 216.633 0.62533 -1.8544 0
M  V30 2178 C 216.932 -2.83428 -2.17723 0
M  V30 2179 C 216.598 -4.21672 -1.59699 0
M  V30 2180 C 215.26 -4.59274 -1.43599 0
M  V30 2181 C 217.612 -5.07825 -1.17317 0
M  V30 2182 C 214.94 -5.80709 -0.836328 0
M  V30 2183 C 217.292 -6.29864 -0.587691 0
M  V30 2184 C 215.956 -6.66216 -0.413818 0
M  V30 2185 H 215.226 -0.608192 -0.423301 0
M  V30 2186 H 217.873 -1.86279 -0.444097 0
M  V30 2187 H 216.178 -2.57687 -2.95135 0
M  V30 2188 H 217.875 -2.91477 -2.75394 0
M  V30 2189 H 214.465 -3.9204 -1.73213 0
M  V30 2190 H 218.649 -4.79359 -1.28565 0
M  V30 2191 H 213.905 -6.07498 -0.689626 0
M  V30 2192 H 218.079 -6.95948 -0.250894 0
M  V30 2193 H 215.706 -7.60182 0.0529471 0
M  V30 2194 N 217.281 0.66697 -1.42791 0
M  V30 2195 C 218.697 0.981027 -1.25889 0
M  V30 2196 C 218.897 2.00793 -0.168695 0
M  V30 2197 O 217.953 2.48321 0.45747 0
M  V30 2198 C 219.266 1.47838 -2.61848 0
M  V30 2199 C 220.814 1.59575 -2.69267 0
M  V30 2200 C 221.289 2.12704 -4.05612 0
M  V30 2201 N 222.78 2.20026 -4.07606 0
M  V30 2202 C 223.515 2.62227 -5.09926 0
M  V30 2203 N 223.011 3.03824 -6.22626 0
M  V30 2204 N 224.804 2.62045 -4.97281 0
M  V30 2205 H 216.955 -0.0127891 -2.12396 0
M  V30 2206 H 219.218 0.0568258 -0.946295 0
M  V30 2207 H 218.924 0.798299 -3.4252 0
M  V30 2208 H 218.798 2.45579 -2.86305 0
M  V30 2209 H 221.185 2.26687 -1.88936 0
M  V30 2210 H 221.266 0.60302 -2.48591 0
M  V30 2211 H 220.91 1.46198 -4.86404 0
M  V30 2212 H 220.84 3.12782 -4.23645 0
M  V30 2213 H 223.331 1.90708 -3.2625 0
M  V30 2214 H 223.644 3.34734 -6.96544 0
M  V30 2215 H 221.989 3.01662 -6.26119 0
M  V30 2216 H 225.18 2.28916 -4.08308 0
M  V30 2217 H 225.353 2.94613 -5.77154 0
M  V30 2218 N 218.759 1.29093 0.90403 0
M  V30 2219 C 219.669 1.15727 2.0407 0
M  V30 2220 C 220.685 0.0815308 1.73809 0
M  V30 2221 O 221.861 0.292749 1.99261 0
M  V30 2222 C 218.926 0.830424 3.36608 0
M  V30 2223 C 217.987 1.98955 3.80415 0
M  V30 2224 C 217.22 1.6782 5.06628 0
M  V30 2225 O 217.443 0.597105 5.67266 0
M  V30 2226 O 216.377 2.52486 5.46383 0
M  V30 2227 H 220.203 2.11171 2.18267 0
M  V30 2228 H 217.788 1.08504 1.027 0
M  V30 2229 H 219.67 0.662521 4.16159 0
M  V30 2230 H 218.345 -0.0942678 3.23563 0
M  V30 2231 H 217.252 2.21267 3.01648 0
M  V30 2232 H 218.585 2.89529 3.98037 0
M  V30 2233 N 220.237 -1.11381 1.11499 0
M  V30 2234 C 221.483 -1.83403 0.865512 0
M  V30 2235 C 221.816 -1.84459 -0.607329 0
M  V30 2236 O 221.091 -1.29811 -1.44842 0
M  V30 2237 C 221.374 -3.30552 1.42855 0
M  V30 2238 C 221.227 -3.37886 2.96906 0
M  V30 2239 C 222.546 -4.26643 1.08 0
M  V30 2240 H 219.665 -0.665879 0.31587 0
M  V30 2241 H 222.307 -1.30601 1.37998 0
M  V30 2242 H 220.457 -3.75648 0.990985 0
M  V30 2243 H 222.129 -3.01343 3.49271 0
M  V30 2244 H 220.372 -2.78088 3.32941 0
M  V30 2245 H 221.043 -4.41458 3.31389 0
M  V30 2246 H 223.519 -3.89729 1.45775 0
M  V30 2247 H 222.395 -5.27986 1.50072 0
M  V30 2248 H 222.656 -4.42099 -0.00915037 0
M  V30 2249 N 221.715 -0.905404 -1.28997 0
M  V30 2250 C 222.963 -0.533192 -1.9494 0
M  V30 2251 C 223.284 0.924618 -1.71685 0
M  V30 2252 O 222.554 1.65268 -1.05183 0
M  V30 2253 H 221.134 -0.194194 -0.721317 0
M  V30 2254 H 223.796 -1.15294 -1.57141 0
M  V30 2255 H 222.892 -0.72059 -3.03667 0
M  V30 2256 N 223.193 1.4272 -0.668489 0
M  V30 2257 C 224.604 1.84793 -0.266151 0
M  V30 2258 C 224.955 1.55959 1.19043 0
M  V30 2259 O 224.08 1.01622 1.91055 0
M  V30 2260 C 224.675 3.35436 -0.476271 0
M  V30 2261 C 223.234 3.76182 -0.128113 0
M  V30 2262 C 222.381 2.66344 -0.771777 0
M  V30 2263 H 225.332 1.32656 -0.871098 0
M  V30 2264 H 225.353 3.79515 0.273561 0
M  V30 2265 H 224.865 3.5639 -1.53647 0
M  V30 2266 H 222.966 3.60836 0.928891 0
M  V30 2267 H 223.079 4.75766 -0.564231 0
M  V30 2268 H 221.443 2.53885 -0.203652 0
M  V30 2269 H 222.226 2.90123 -1.83531 0
M  V30 2270 N 224.671 0.411399 1.52136 0
M  V30 2271 C 225.618 -0.412975 2.27075 0
M  V30 2272 C 226.588 -1.03912 1.29582 0
M  V30 2273 O 227.773 -1.06296 1.58448 0
M  V30 2274 C 224.913 -1.52247 3.09701 0
M  V30 2275 C 224.026 -0.917021 4.22155 0
M  V30 2276 C 223.161 -1.9994 4.92135 0
M  V30 2277 C 222.2 -1.37101 5.96548 0
M  V30 2278 N 221.337 -2.39364 6.60038 0
M  V30 2279 H 226.177 0.232499 2.97092 0
M  V30 2280 H 223.714 0.126496 1.46555 0
M  V30 2281 H 225.672 -2.17674 3.55913 0
M  V30 2282 H 224.302 -2.13794 2.41851 0
M  V30 2283 H 223.354 -0.151742 3.80097 0
M  V30 2284 H 224.666 -0.418006 4.97045 0
M  V30 2285 H 223.82 -2.73088 5.41763 0
M  V30 2286 H 222.559 -2.53208 4.16818 0
M  V30 2287 H 221.564 -0.624873 5.46237 0
M  V30 2288 H 222.789 -0.845998 6.7381 0
M  V30 2289 H 220.735 -2.91759 5.87548 0
M  V30 2290 H 220.652 -1.9428 7.3061 0
M  V30 2291 H 221.92 -3.12074 7.14304 0
M  V30 2292 N 226.149 -1.5696 0.141893 0
M  V30 2293 C 227.097 -2.17784 -0.816874 0
M  V30 2294 C 228.091 -1.1334 -1.25899 0
M  V30 2295 O 229.297 -1.316 -1.22806 0
M  V30 2296 H 225.672 -0.697278 -0.281615 0
M  V30 2297 H 227.643 -2.97087 -0.279621 0
M  V30 2298 C 226.392 -2.80983 -2.04802 0
M  V30 2299 H 225.715 -3.61062 -1.7168 0
M  V30 2300 H 227.155 -3.2705 -2.69841 0
M  V30 2301 C 225.614 -1.79228 -2.8527 0
M  V30 2302 O 226.144 -1.25962 -3.8144 0
M  V30 2303 N 224.35 -1.48647 -2.49704 0
M  V30 2304 H 223.897 -1.92155 -1.71564 0
M  V30 2305 H 223.855 -0.808115 -3.03837 0
M  V30 2306 N 227.627 0.131896 -1.57047 0
M  V30 2307 C 228.852 0.860418 -1.8871 0
M  V30 2308 C 229.277 1.73251 -0.73251 0
M  V30 2309 O 228.635 1.785 0.317429 0
M  V30 2310 C 228.683 1.68047 -3.19049 0
M  V30 2311 O 227.787 2.7862 -3.04047 0
M  V30 2312 H 227.128 0.238743 -0.619595 0
M  V30 2313 H 229.658 0.118169 -2.04258 0
M  V30 2314 H 229.668 2.07238 -3.51449 0
M  V30 2315 H 228.343 1.04018 -4.02682 0
M  V30 2316 H 226.92 2.42726 -2.83088 0
M  V30 2317 N 229.106 1.52395 0.401703 0
M  V30 2318 C 230.336 1.70429 1.1678 0
M  V30 2319 C 230.744 0.416702 1.84554 0
M  V30 2320 O 230.087 -0.617697 1.73003 0
M  V30 2321 C 230.149 2.78919 2.26814 0
M  V30 2322 C 229.813 4.20437 1.79113 0
M  V30 2323 C 230.81 5.04028 1.27482 0
M  V30 2324 C 228.495 4.66704 1.85722 0
M  V30 2325 C 230.489 6.31961 0.830913 0
M  V30 2326 C 228.176 5.94625 1.40942 0
M  V30 2327 C 229.174 6.77082 0.897128 0
M  V30 2328 O 228.862 8.02607 0.455822 0
M  V30 2329 H 228.594 0.574272 0.356634 0
M  V30 2330 H 231.148 1.99767 0.477724 0
M  V30 2331 H 229.378 2.44973 2.99207 0
M  V30 2332 H 231.067 2.8548 2.88541 0
M  V30 2333 H 231.833 4.69471 1.21744 0
M  V30 2334 H 227.712 4.0262 2.24539 0
M  V30 2335 H 231.256 6.96271 0.430368 0
M  V30 2336 H 227.153 6.28688 1.46362 0
M  V30 2337 H 227.921 8.16453 0.578457 0
M  V30 2338 N 230.584 -0.659388 1.43143 0
M  V30 2339 C 231.833 -1.41518 1.43721 0
M  V30 2340 C 232.146 -1.95499 0.0628176 0
M  V30 2341 O 233.352 -2.71446 -0.0539683 0
M  V30 2342 C 231.808 -2.5608 2.52885 0
M  V30 2343 C 231.416 -2.08733 3.96402 0
M  V30 2344 C 233.16 -3.3349 2.62649 0
M  V30 2345 C 231.067 -3.20469 4.97045 0
M  V30 2346 H 229.997 -0.531705 0.534608 0
M  V30 2347 H 232.648 -0.712343 1.69109 0
M  V30 2348 H 231.03 -3.28805 2.20688 0
M  V30 2349 H 232.204 -1.43059 4.3803 0
M  V30 2350 H 230.519 -1.44219 3.90627 0
M  V30 2351 H 233.116 -4.16734 3.35017 0
M  V30 2352 H 233.459 -3.8111 1.67513 0
M  V30 2353 H 233.992 -2.67842 2.94118 0
M  V30 2354 H 230.731 -2.77824 5.93712 0
M  V30 2355 H 230.251 -3.84874 4.60034 0
M  V30 2356 H 231.93 -3.85698 5.19467 0
M  V30 2357 N 232.062 -1.29571 -0.897171 0
M  V30 2358 C 233.025 -1.14913 -1.98312 0
M  V30 2359 C 234.025 -0.0838629 -1.60581 0
M  V30 2360 O 235.215 -0.331006 -1.71026 0
M  V30 2361 C 232.347 -0.757835 -3.3237 0
M  V30 2362 H 233.54 -2.11377 -2.12743 0
M  V30 2363 H 231.093 -1.12793 -1.08201 0
M  V30 2364 H 231.828 0.206837 -3.2364 0
M  V30 2365 H 231.613 -1.52755 -3.61121 0
M  V30 2366 H 233.103 -0.678408 -4.12053 0
M  V30 2367 N 233.54 1.10788 -1.12088 0
M  V30 2368 C 234.77 1.86191 -0.895351 0
M  V30 2369 C 235.178 1.80763 0.558702 0
M  V30 2370 O 234.521 1.19188 1.39785 0
M  V30 2371 C 234.583 3.35659 -1.28737 0
M  V30 2372 C 234.247 3.64849 -2.75198 0
M  V30 2373 C 235.244 3.61757 -3.734 0
M  V30 2374 C 232.929 3.93641 -3.12013 0
M  V30 2375 C 234.923 3.87045 -5.06434 0
M  V30 2376 C 232.61 4.18585 -4.4523 0
M  V30 2377 C 233.608 4.15277 -5.42249 0
M  V30 2378 O 233.296 4.3959 -6.73065 0
M  V30 2379 H 233.028 0.595425 -0.32007 0
M  V30 2380 H 235.582 1.40992 -1.49367 0
M  V30 2381 H 233.812 3.81497 -0.63224 0
M  V30 2382 H 235.501 3.92441 -1.03656 0
M  V30 2383 H 236.267 3.39557 -3.46303 0
M  V30 2384 H 232.146 3.95348 -2.37109 0
M  V30 2385 H 235.69 3.84378 -5.82151 0
M  V30 2386 H 231.587 4.40264 -4.72057 0
M  V30 2387 H 232.355 4.57123 -6.78956 0
M  V30 2388 N 235.018 0.912232 1.28515 0
M  V30 2389 C 236.267 0.540504 1.94323 0
M  V30 2390 C 236.58 -0.920044 1.72611 0
M  V30 2391 O 237.786 -1.39986 2.32629 0
M  V30 2392 C 236.242 0.915803 3.48053 0
M  V30 2393 C 235.85 2.39598 3.78546 0
M  V30 2394 C 237.594 0.614588 4.20027 0
M  V30 2395 C 235.501 2.71148 5.25578 0
M  V30 2396 H 234.431 0.198418 0.727424 0
M  V30 2397 H 237.082 1.11094 1.46049 0
M  V30 2398 H 235.464 0.274168 3.9505 0
M  V30 2399 H 236.638 3.08422 3.42364 0
M  V30 2400 H 234.953 2.66749 3.1974 0
M  V30 2401 H 237.55 0.827002 5.28266 0
M  V30 2402 H 237.893 -0.447531 4.13887 0
M  V30 2403 H 238.426 1.21462 3.78803 0
M  V30 2404 H 235.165 3.76207 5.36794 0
M  V30 2405 H 234.685 2.0696 5.62963 0
M  V30 2406 H 236.364 2.58072 5.93302 0
M  V30 2407 N 236.496 -1.42363 0.676048 0
M  V30 2408 C 237.406 -2.346 -0.00153389 0
M  V30 2409 C 238.422 -1.5516 -0.787485 0
M  V30 2410 O 239.598 -1.87723 -0.729521 0
M  V30 2411 C 236.663 -3.33705 -0.940298 0
M  V30 2412 C 235.724 -4.29042 -0.148739 0
M  V30 2413 C 234.957 -5.23413 -1.04279 0
M  V30 2414 O 235.18 -5.22749 -2.28232 0
M  V30 2415 O 234.114 -5.99795 -0.502925 0
M  V30 2416 H 237.94 -2.94082 0.758268 0
M  V30 2417 H 235.525 -1.42888 0.436289 0
M  V30 2418 H 237.407 -3.94586 -1.47917 0
M  V30 2419 H 236.082 -2.76695 -1.67993 0
M  V30 2420 H 234.989 -3.71571 0.43427 0
M  V30 2421 H 236.322 -4.89097 0.551805 0
M  V30 2422 N 237.974 -0.419461 -1.51915 0
M  V30 2423 C 239.251 0.211999 -1.94448 0
M  V30 2424 C 239.631 1.61703 -1.35703 0
M  V30 2425 O 238.979 2.22102 -0.536931 0
M  V30 2426 C 239.189 0.207872 -3.4838 0
M  V30 2427 C 240.537 0.422192 -4.22496 0
M  V30 2428 O 241.561 0.286778 -3.55044 0
M  V30 2429 O 240.42 0.690009 -5.42126 0
M  V30 2430 H 237.514 0.139586 -0.815135 0
M  V30 2431 H 240.06 -0.476151 -1.62883 0
M  V30 2432 H 238.832 -0.775102 -3.83546 0
M  V30 2433 H 238.455 0.939688 -3.86336 0
M  V30 2434 N 239.452 1.56882 -0.150215 0
M  V30 2435 C 240.402 2.13501 0.800071 0
M  V30 2436 C 241.386 1.06368 1.20726 0
M  V30 2437 O 242.578 1.32538 1.17314 0
M  V30 2438 C 239.707 2.76271 2.03787 0
M  V30 2439 C 238.793 3.90533 1.65364 0
M  V30 2440 N 239.184 4.96259 0.977794 0
M  V30 2441 C 237.482 4.013 1.94613 0
M  V30 2442 C 238.183 5.76286 0.791794 0
M  V30 2443 N 237.159 5.27163 1.32666 0
M  V30 2444 H 240.961 2.92615 0.274517 0
M  V30 2445 H 238.475 1.62319 0.0512144 0
M  V30 2446 H 240.472 3.15197 2.72867 0
M  V30 2447 H 239.132 1.98631 2.56857 0
M  V30 2448 H 240.143 5.13953 0.638193 0
M  V30 2449 H 236.82 3.3474 2.4951 0
M  V30 2450 H 238.21 6.71401 0.258894 0
M  V30 2451 N 240.93 -0.123565 1.57115 0
M  V30 2452 C 242.155 -0.850398 1.89164 0
M  V30 2453 C 242.58 -1.7286 0.741688 0
M  V30 2454 O 241.938 -1.78665 -0.307958 0
M  V30 2455 C 241.986 -1.66353 3.19936 0
M  V30 2456 O 241.09 -2.77004 3.0552 0
M  V30 2457 H 240.431 -0.235454 0.620852 0
M  V30 2458 H 242.961 -0.107335 2.04318 0
M  V30 2459 H 242.971 -2.05372 3.52543 0
M  V30 2460 H 241.646 -1.01881 4.03228 0
M  V30 2461 H 240.223 -2.41221 2.84371 0
M  V30 2462 N 242.408 -1.52605 -0.393616 0
M  V30 2463 C 243.656 -1.67093 -1.13685 0
M  V30 2464 C 243.977 -0.411011 -1.90619 0
M  V30 2465 O 243.247 0.574491 -1.87287 0
M  V30 2466 H 241.827 -0.615923 -0.422668 0
M  V30 2467 H 244.489 -1.89704 -0.447039 0
M  V30 2468 H 243.585 -2.51922 -1.84232 0
M  V30 2469 N 243.887 0.651787 -1.4349 0
M  V30 2470 C 244.835 1.78586 -1.49029 0
M  V30 2471 C 245.829 1.65448 -0.363767 0
M  V30 2472 O 247.035 1.71777 -0.537821 0
M  V30 2473 H 243.41 0.589236 -0.467231 0
M  V30 2474 H 245.381 1.71035 -2.44519 0
M  V30 2475 C 244.13 3.16851 -1.43181 0
M  V30 2476 H 243.453 3.27598 -2.29171 0
M  V30 2477 H 244.893 3.96156 -1.51118 0
M  V30 2478 C 243.352 3.36568 -0.149616 0
M  V30 2479 O 243.882 3.93885 0.788509 0
M  V30 2480 N 242.088 2.90539 -0.0593484 0
M  V30 2481 H 241.635 2.4408 -0.823575 0
M  V30 2482 H 241.593 3.04108 0.797853 0
M  V30 2483 N 245.365 1.30045 0.890287 0
M  V30 2484 C 246.613 1.18327 1.63839 0
M  V30 2485 C 246.934 -0.263455 1.93212 0
M  V30 2486 O 246.204 -1.17856 1.56482 0
M  V30 2487 H 244.784 0.434933 0.607324 0
M  V30 2488 H 247.446 1.631 1.06698 0
M  V30 2489 H 246.542 1.74024 2.59079 0
M  V30 2490 N 246.843 -1.10192 1.12674 0
M  V30 2491 C 248.071 -1.85983 0.906527 0
M  V30 2492 C 248.486 -1.80783 -0.544333 0
M  V30 2493 O 247.843 -1.19834 -1.37645 0
M  V30 2494 C 247.894 -3.34281 1.37618 0
M  V30 2495 O 247.615 -3.39401 2.77017 0
M  V30 2496 C 249.116 -4.26938 1.19325 0
M  V30 2497 H 246.336 -0.587716 0.323775 0
M  V30 2498 H 248.88 -1.39284 1.49734 0
M  V30 2499 H 247.035 -3.78436 0.828539 0
M  V30 2500 H 247.449 -4.31838 2.97684 0
M  V30 2501 H 248.923 -5.29181 1.57071 0
M  V30 2502 H 249.4 -4.38995 0.134097 0
M  V30 2503 H 250.006 -3.8859 1.72852 0
M  V30 2504 N 248.321 -0.919034 -1.28029 0
M  V30 2505 C 249.568 -0.554934 -1.94748 0
M  V30 2506 C 249.896 0.90231 -1.72304 0
M  V30 2507 O 249.151 1.65767 -1.04018 0
M  V30 2508 C 249.45 -0.816855 -3.4794 0
M  V30 2509 C 249.116 -2.25448 -3.90492 0
M  V30 2510 C 247.778 -2.64752 -4.01821 0
M  V30 2511 C 250.13 -3.18977 -4.12193 0
M  V30 2512 C 247.458 -3.96727 -4.32232 0
M  V30 2513 C 249.81 -4.50523 -4.44086 0
M  V30 2514 C 248.474 -4.89673 -4.53626 0
M  V30 2515 H 247.744 -0.203065 -0.712633 0
M  V30 2516 H 250.391 -1.16136 -1.52265 0
M  V30 2517 H 248.696 -0.127677 -3.91592 0
M  V30 2518 H 250.393 -0.514238 -3.97689 0
M  V30 2519 H 246.983 -1.93952 -3.82205 0
M  V30 2520 H 251.167 -2.89817 -4.02889 0
M  V30 2521 H 246.423 -4.26754 -4.37825 0
M  V30 2522 H 250.597 -5.23005 -4.59825 0
M  V30 2523 H 248.224 -5.91969 -4.76946 0
M  V30 2524 N 249.799 1.42003 -0.683588 0
M  V30 2525 C 251.045 2.01712 -0.209825 0
M  V30 2526 C 251.378 1.53968 1.18353 0
M  V30 2527 O 250.653 0.745661 1.79639 0
M  V30 2528 C 250.936 3.59202 -0.254197 0
M  V30 2529 C 250.789 4.17102 -1.68363 0
M  V30 2530 C 252.108 4.38344 0.392709 0
M  V30 2531 H 249.227 0.732891 -0.0777189 0
M  V30 2532 H 251.869 1.68909 -0.87004 0
M  V30 2533 H 250.019 3.87278 0.307954 0
M  V30 2534 H 251.691 3.99946 -2.29871 0
M  V30 2535 H 249.934 3.72597 -2.22157 0
M  V30 2536 H 250.605 5.26249 -1.6663 0
M  V30 2537 H 253.081 4.16011 -0.0859162 0
M  V30 2538 H 251.957 5.47901 0.331063 0
M  V30 2539 H 252.218 4.16887 1.47164 0
M  V30 2540 N 251.277 0.427512 1.51691 0
M  V30 2541 C 252.225 -0.403359 2.29076 0
M  V30 2542 C 253.219 -1.02962 1.34518 0
M  V30 2543 O 254.425 -0.965715 1.51901 0
M  V30 2544 H 250.8 -0.148879 0.737115 0
M  V30 2545 H 252.771 0.270295 2.97173 0
M  V30 2546 C 251.52 -1.49763 3.13794 0
M  V30 2547 H 250.843 -1.02508 3.86435 0
M  V30 2548 H 252.283 -2.05244 3.71014 0
M  V30 2549 C 250.742 -2.47536 2.28533 0
M  V30 2550 O 251.272 -3.51848 1.93819 0
M  V30 2551 N 249.478 -2.18187 1.91945 0
M  V30 2552 H 249.025 -1.33389 2.20375 0
M  V30 2553 H 248.983 -2.83848 1.35195 0
M  V30 2554 N 252.755 -1.56801 0.158532 0
M  V30 2555 C 253.983 -2.00859 -0.496303 0
M  V30 2556 C 254.398 -1.03871 -1.57659 0
M  V30 2557 O 253.755 -0.0375165 -1.82461 0
M  V30 2558 C 253.806 -3.4479 -1.08638 0
M  V30 2559 O 253.527 -4.38072 -0.0492322 0
M  V30 2560 C 255.028 -4.04185 -1.8207 0
M  V30 2561 H 252.248 -0.65864 -0.128199 0
M  V30 2562 H 254.792 -2.02885 0.256506 0
M  V30 2563 H 252.947 -3.43579 -1.78975 0
M  V30 2564 H 253.361 -5.2227 -0.483102 0
M  V30 2565 H 254.835 -5.06857 -2.18633 0
M  V30 2566 H 255.312 -3.45549 -2.71095 0
M  V30 2567 H 255.918 -4.0906 -1.16405 0
M  V30 2568 N 254.233 0.115231 -1.57178 0
M  V30 2569 C 255.143 1.15994 -2.03918 0
M  V30 2570 C 256.159 1.45103 -0.960268 0
M  V30 2571 O 257.335 1.56144 -1.27204 0
M  V30 2572 C 254.4 2.46568 -2.43732 0
M  V30 2573 C 253.461 2.24822 -3.65723 0
M  V30 2574 C 252.694 3.4917 -4.03629 0
M  V30 2575 O 252.917 4.56623 -3.41835 0
M  V30 2576 O 251.851 3.39949 -4.96708 0
M  V30 2577 H 255.677 0.793019 -2.93164 0
M  V30 2578 H 253.262 0.3263 -1.45793 0
M  V30 2579 H 255.144 3.23492 -2.70057 0
M  V30 2580 H 253.819 2.82726 -1.57631 0
M  V30 2581 H 252.726 1.45744 -3.44542 0
M  V30 2582 H 254.059 1.93566 -4.52541 0
M  V30 2583 N 255.711 1.52812 0.385517 0
M  V30 2584 C 256.641 1.80808 1.47752 0
M  V30 2585 C 257.622 0.660318 1.5676 0
M  V30 2586 O 258.807 0.908246 1.71652 0
M  V30 2587 C 255.937 1.98008 2.85324 0
M  V30 2588 C 254.891 3.13709 2.91154 0
M  V30 2589 C 254.217 3.16169 4.31209 0
M  V30 2590 C 255.517 4.52709 2.60483 0
M  V30 2591 H 257.211 2.72253 1.24573 0
M  V30 2592 H 254.757 1.31003 0.597839 0
M  V30 2593 H 256.71 2.16176 3.61726 0
M  V30 2594 H 255.434 1.03255 3.09848 0
M  V30 2595 H 254.093 2.95329 2.17201 0
M  V30 2596 H 253.741 2.19092 4.52778 0
M  V30 2597 H 253.441 3.93894 4.36029 0
M  V30 2598 H 254.965 3.36496 5.09512 0
M  V30 2599 H 256.379 4.71173 3.26602 0
M  V30 2600 H 254.776 5.32528 2.76648 0
M  V30 2601 H 255.846 4.59186 1.55809 0
M  V30 2602 N 257.189 -0.644168 1.43834 0
M  V30 2603 C 258.435 -1.40603 1.46146 0
M  V30 2604 C 258.768 -1.93997 0.0887717 0
M  V30 2605 O 258.043 -1.72854 -0.891724 0
M  V30 2606 C 258.326 -2.58086 2.51124 0
M  V30 2607 C 258.179 -2.10126 3.97702 0
M  V30 2608 C 259.498 -3.60291 2.52742 0
M  V30 2609 H 256.617 -0.509905 0.532134 0
M  V30 2610 H 259.259 -0.729502 1.75437 0
M  V30 2611 H 257.409 -3.15801 2.26278 0
M  V30 2612 H 259.081 -1.57342 4.33637 0
M  V30 2613 H 257.324 -1.41419 4.10101 0
M  V30 2614 H 257.995 -2.94649 4.66783 0
M  V30 2615 H 260.471 -3.12352 2.7491 0
M  V30 2616 H 259.347 -4.40032 3.28121 0
M  V30 2617 H 259.608 -4.1349 1.56455 0
M  V30 2618 N 258.668 -1.30515 -0.883378 0
M  V30 2619 C 259.916 -1.19194 -1.63209 0
M  V30 2620 C 260.237 0.253205 -1.93349 0
M  V30 2621 O 259.507 1.17025 -1.57105 0
M  V30 2622 H 258.087 -0.438148 -0.605009 0
M  V30 2623 H 260.749 -1.63663 -1.05832 0
M  V30 2624 H 259.845 -1.75396 -2.58153 0
M  V30 2625 N 260.146 1.09593 -1.13257 0
M  V30 2626 C 261.093 2.1618 -0.808381 0
M  V30 2627 C 262.063 1.64517 0.228754 0
M  V30 2628 O 263.248 1.9053 0.101381 0
M  V30 2629 C 260.388 3.43973 -0.278675 0
M  V30 2630 C 259.501 4.09545 -1.37466 0
M  V30 2631 C 258.636 5.25088 -0.803479 0
M  V30 2632 C 257.675 5.82579 -1.87799 0
M  V30 2633 N 256.812 6.89486 -1.32488 0
M  V30 2634 H 261.652 2.43254 -1.72138 0
M  V30 2635 H 259.189 1.19392 -0.859294 0
M  V30 2636 H 261.147 4.17174 0.0465583 0
M  V30 2637 H 259.777 3.17223 0.597459 0
M  V30 2638 H 258.829 3.34226 -1.81652 0
M  V30 2639 H 260.141 4.48307 -2.18684 0
M  V30 2640 H 259.295 6.05178 -0.429427 0
M  V30 2641 H 258.034 4.87684 0.0397956 0
M  V30 2642 H 257.039 5.01152 -2.26113 0
M  V30 2643 H 258.264 6.22045 -2.72463 0
M  V30 2644 H 256.21 6.54064 -0.503575 0
M  V30 2645 H 256.127 7.27007 -2.07355 0
M  V30 2646 H 257.395 7.73336 -0.978336 0
M  V30 2647 N 261.624 0.925811 1.2754 0
M  V30 2648 C 262.872 0.564138 1.94067 0
M  V30 2649 C 263.193 -0.897188 1.73134 0
M  V30 2650 O 262.463 -1.63573 1.07799 0
M  V30 2651 H 261.043 0.205645 0.718136 0
M  V30 2652 H 263.705 1.1778 1.55287 0
M  V30 2653 H 262.801 0.76881 3.02483 0
M  V30 2654 N 263.102 -1.41638 0.69111 0
M  V30 2655 C 264.049 -2.30789 0.0229705 0
M  V30 2656 C 265.019 -1.46863 -0.775911 0
M  V30 2657 O 266.204 -1.75661 -0.74485 0
M  V30 2658 C 263.344 -3.32868 -0.910666 0
M  V30 2659 C 262.457 -4.31875 -0.103874 0
M  V30 2660 C 261.592 -5.21024 -1.03475 0
M  V30 2661 C 260.631 -6.11702 -0.220598 0
M  V30 2662 N 259.768 -6.93349 -1.10504 0
M  V30 2663 H 264.608 -2.87366 0.788978 0
M  V30 2664 H 262.145 -1.41535 0.400794 0
M  V30 2665 H 264.103 -3.90596 -1.46597 0
M  V30 2666 H 262.733 -2.77851 -1.64312 0
M  V30 2667 H 261.785 -3.76131 0.568285 0
M  V30 2668 H 263.097 -4.96003 0.527504 0
M  V30 2669 H 262.251 -5.83565 -1.65943 0
M  V30 2670 H 260.99 -4.57112 -1.69999 0
M  V30 2671 H 259.995 -5.48215 0.417187 0
M  V30 2672 H 261.22 -6.77668 0.440784 0
M  V30 2673 H 259.166 -6.3205 -1.75638 0
M  V30 2674 H 259.083 -7.54146 -0.529125 0
M  V30 2675 H 260.351 -7.60362 -1.71667 0
M  V30 2676 N 264.58 -0.43555 -1.51462 0
M  V30 2677 C 265.996 -0.0877501 -1.59359 0
M  V30 2678 C 266.196 1.4027 -1.4466 0
M  V30 2679 O 265.252 2.17243 -1.28693 0
M  V30 2680 C 266.565 -0.606264 -2.94525 0
M  V30 2681 C 268.113 -0.566548 -3.0783 0
M  V30 2682 C 268.588 -1.06201 -4.45517 0
M  V30 2683 N 270.079 -1.01992 -4.51832 0
M  V30 2684 C 270.814 -1.37417 -5.5669 0
M  V30 2685 N 270.31 -1.80119 -6.68976 0
M  V30 2686 N 272.103 -1.29245 -5.47039 0
M  V30 2687 H 264.254 -1.40533 -1.59261 0
M  V30 2688 H 266.517 -0.578992 -0.750648 0
M  V30 2689 H 266.223 -1.64901 -3.10645 0
M  V30 2690 H 266.097 -0.0302097 -3.77188 0
M  V30 2691 H 268.484 0.467208 -2.91378 0
M  V30 2692 H 268.565 -1.17898 -2.2701 0
M  V30 2693 H 268.209 -2.09422 -4.62715 0
M  V30 2694 H 268.139 -0.426127 -5.24873 0
M  V30 2695 H 270.63 -0.706308 -3.71241 0
M  V30 2696 H 270.943 -2.05392 -7.45006 0
M  V30 2697 H 269.288 -1.84044 -6.70189 0
M  V30 2698 H 272.479 -0.957522 -4.58202 0
M  V30 2699 H 272.652 -1.57182 -6.28648 0
M  V30 2700 N 266.058 1.56714 -0.166846 0
M  V30 2701 C 267.474 1.58473 0.189372 0
M  V30 2702 C 267.674 1.18201 1.63189 0
M  V30 2703 O 266.73 0.891528 2.36237 0
M  V30 2704 C 268.043 3.00573 -0.0873872 0
M  V30 2705 C 269.591 3.1299 -0.0252443 0
M  V30 2706 C 270.066 4.57174 -0.274934 0
M  V30 2707 N 271.557 4.62665 -0.222553 0
M  V30 2708 C 272.292 5.72072 -0.389985 0
M  V30 2709 N 271.788 6.90054 -0.616229 0
M  V30 2710 N 273.581 5.61153 -0.326202 0
M  V30 2711 H 265.732 1.8118 -1.10849 0
M  V30 2712 H 267.995 0.839525 -0.440342 0
M  V30 2713 H 267.701 3.34497 -1.0865 0
M  V30 2714 H 267.575 3.72019 0.623037 0
M  V30 2715 H 269.962 2.78895 0.96444 0
M  V30 2716 H 270.043 2.43989 -0.768309 0
M  V30 2717 H 269.687 4.91976 -1.26181 0
M  V30 2718 H 269.617 5.24328 0.48869 0
M  V30 2719 H 272.108 3.77863 -0.0531512 0
M  V30 2720 H 272.421 7.69311 -0.733559 0
M  V30 2721 H 270.766 6.91927 -0.652791 0
M  V30 2722 H 273.957 4.67859 -0.150072 0
M  V30 2723 H 274.13 6.46364 -0.460116 0
M  V30 2724 N 267.536 -0.106894 1.57237 0
M  V30 2725 C 268.947 -0.662723 1.74542 0
M  V30 2726 C 269.298 -1.7971 0.787319 0
M  V30 2727 O 268.423 -2.16368 -0.0369636 0
M  V30 2728 C 269.018 -1.20896 3.16496 0
M  V30 2729 C 267.577 -1.71096 3.35266 0
M  V30 2730 C 266.724 -0.615642 2.7038 0
M  V30 2731 H 269.675 0.119106 1.58252 0
M  V30 2732 H 269.696 -2.07847 3.18716 0
M  V30 2733 H 269.208 -0.383122 3.86204 0
M  V30 2734 H 267.309 -2.56119 2.70618 0
M  V30 2735 H 267.422 -1.81208 4.43509 0
M  V30 2736 H 265.786 -1.05222 2.31949 0
M  V30 2737 H 266.569 0.199419 3.4272 0
M  V30 2738 N 269.014 -1.53014 -0.377408 0
M  V30 2739 C 269.944 -1.81589 -1.46791 0
M  V30 2740 C 270.925 -0.668622 -1.56408 0
M  V30 2741 O 272.11 -0.917337 -1.71168 0
M  V30 2742 C 269.24 -1.99519 -2.8427 0
M  V30 2743 C 268.194 -3.15249 -2.89486 0
M  V30 2744 C 267.52 -3.18451 -4.29527 0
M  V30 2745 C 268.82 -4.54084 -2.58079 0
M  V30 2746 H 270.514 -2.7291 -1.23127 0
M  V30 2747 H 268.06 -1.31319 -0.590883 0
M  V30 2748 H 270.013 -2.18092 -3.60575 0
M  V30 2749 H 268.737 -1.04897 -3.09296 0
M  V30 2750 H 267.396 -2.96477 -2.15631 0
M  V30 2751 H 267.044 -2.2149 -4.5161 0
M  V30 2752 H 266.744 -3.962 -4.33934 0
M  V30 2753 H 268.268 -3.39193 -5.07721 0
M  V30 2754 H 269.682 -4.72899 -3.24098 0
M  V30 2755 H 268.079 -5.33987 -2.7382 0
M  V30 2756 H 269.149 -4.60006 -1.53372 0
M  V30 2757 N 270.492 0.636531 -1.44174 0
M  V30 2758 C 271.44 1.76995 -1.50915 0
M  V30 2759 C 272.434 1.65053 -0.381295 0
M  V30 2760 O 273.64 1.71197 -0.55601 0
M  V30 2761 H 270.015 0.584247 -0.473455 0
M  V30 2762 H 271.986 1.68432 -2.4632 0
M  V30 2763 C 270.735 3.15314 -1.46534 0
M  V30 2764 H 270.058 3.25149 -2.32633 0
M  V30 2765 H 271.498 3.9453 -1.55312 0
M  V30 2766 C 269.957 3.3639 -0.185305 0
M  V30 2767 O 270.487 3.94699 0.746688 0
M  V30 2768 N 268.693 2.9046 -0.0901606 0
M  V30 2769 H 268.24 2.43193 -0.849416 0
M  V30 2770 H 268.198 3.04937 0.765553 0
M  V30 2771 N 271.97 1.30982 0.876444 0
M  V30 2772 C 272.918 1.18006 2.00443 0
M  V30 2773 C 273.912 0.0898871 1.69161 0
M  V30 2774 O 275.118 0.251333 1.78237 0
M  V30 2775 H 271.493 0.365196 0.65737 0
M  V30 2776 H 273.464 2.13453 2.0852 0
M  V30 2777 C 272.213 0.897521 3.35916 0
M  V30 2778 H 271.536 1.7285 3.60504 0
M  V30 2779 H 272.976 0.846874 4.15456 0
M  V30 2780 C 271.435 -0.399674 3.34521 0
M  V30 2781 O 271.965 -1.41852 3.7582 0
M  V30 2782 N 270.171 -0.413893 2.87637 0
M  V30 2783 H 269.718 0.41571 2.54224 0
M  V30 2784 H 269.676 -1.28175 2.87086 0
M  V30 2785 N 273.449 -1.08991 1.13837 0
M  V30 2786 C 274.397 -2.17841 0.815347 0
M  V30 2787 C 275.391 -1.68164 -0.204233 0
M  V30 2788 O 276.597 -1.79897 -0.0609304 0
M  V30 2789 H 272.972 -0.710654 0.245915 0
M  V30 2790 H 274.943 -2.42315 1.74143 0
M  V30 2791 C 273.692 -3.46381 0.302614 0
M  V30 2792 H 273.015 -3.84979 1.0785 0
M  V30 2793 H 274.455 -4.23844 0.115074 0
M  V30 2794 C 272.914 -3.22556 -0.972591 0
M  V30 2795 O 273.444 -3.45599 -2.04754 0
M  V30 2796 N 271.65 -2.76134 -0.905455 0
M  V30 2797 H 271.197 -2.57582 -0.0305421 0
M  V30 2798 H 271.155 -2.60571 -1.75926 0
M  V30 2799 N 274.927 -0.932562 -1.27047 0
M  V30 2800 C 276.152 -0.591474 -1.98787 0
M  V30 2801 C 276.577 0.824601 -1.69062 0
M  V30 2802 O 275.935 1.5541 -0.933677 0
M  V30 2803 C 275.983 -0.829808 -3.50922 0
M  V30 2804 O 275.087 0.102266 -4.12273 0
M  V30 2805 H 274.428 -0.227185 -0.623926 0
M  V30 2806 H 276.958 -1.25314 -1.61733 0
M  V30 2807 H 276.968 -0.747292 -4.01098 0
M  V30 2808 H 275.643 -1.86201 -3.7189 0
M  V30 2809 H 274.22 -0.0305761 -3.72887 0
M  V30 2810 N 276.405 1.4127 -0.698611 0
M  V30 2811 C 277.315 2.34573 -0.0357891 0
M  V30 2812 C 278.331 1.56393 0.762701 0
M  V30 2813 O 279.507 1.8886 0.699564 0
M  V30 2814 C 276.572 3.35159 0.887089 0
M  V30 2815 C 275.633 4.29225 0.0804634 0
M  V30 2816 C 274.866 5.25006 0.959387 0
M  V30 2817 O 275.089 5.26314 2.19886 0
M  V30 2818 O 274.023 6.00519 0.407439 0
M  V30 2819 H 277.849 2.92838 -0.804957 0
M  V30 2820 H 275.434 1.42175 -0.458966 0
M  V30 2821 H 277.316 3.9689 1.41621 0
M  V30 2822 H 275.991 2.79333 1.6357 0
M  V30 2823 H 274.898 3.70833 -0.493328 0
M  V30 2824 H 276.231 4.88157 -0.629547 0
M  V30 2825 N 277.883 0.443576 1.51229 0
M  V30 2826 C 279.132 -0.122332 2.01329 0
M  V30 2827 C 279.445 -1.43237 1.33201 0
M  V30 2828 O 280.651 -2.0816 1.74304 0
M  V30 2829 C 279.107 -0.268551 3.58897 0
M  V30 2830 C 278.715 1.03142 4.35965 0
M  V30 2831 C 280.459 -0.787894 4.17124 0
M  V30 2832 C 278.366 0.850504 5.85252 0
M  V30 2833 H 277.296 -0.0494929 0.752374 0
M  V30 2834 H 279.947 0.574289 1.74282 0
M  V30 2835 H 278.329 -1.02832 3.82415 0
M  V30 2836 H 279.503 1.80001 4.24189 0
M  V30 2837 H 277.818 1.47977 3.89219 0
M  V30 2838 H 280.415 -0.939841 5.26375 0
M  V30 2839 H 280.758 -1.77201 3.76703 0
M  V30 2840 H 281.291 -0.0862669 3.97706 0
M  V30 2841 H 278.03 1.80718 6.30096 0
M  V30 2842 H 277.55 0.121825 5.99676 0
M  V30 2843 H 279.229 0.506163 6.45017 0
M  V30 2844 N 279.361 -1.56624 0.175154 0
M  V30 2845 C 280.324 -2.16934 -0.739738 0
M  V30 2846 C 281.324 -1.11842 -1.15533 0
M  V30 2847 O 282.514 -1.37335 -1.07167 0
M  V30 2848 C 279.646 -2.75531 -2.00738 0
M  V30 2849 H 280.839 -2.99131 -0.214639 0
M  V30 2850 H 278.392 -1.56123 -0.0744197 0
M  V30 2851 H 279.127 -1.97078 -2.57548 0
M  V30 2852 H 278.912 -3.52444 -1.71831 0
M  V30 2853 H 280.402 -3.21904 -2.66021 0
M  V30 2854 N 280.839 0.0985539 -1.57292 0
M  V30 2855 C 281.769 1.12064 -2.04851 0
M  V30 2856 C 282.75 1.41981 -0.936767 0
M  V30 2857 O 283.935 1.52071 -1.20781 0
M  V30 2858 C 281.065 2.44144 -2.47004 0
M  V30 2859 C 280.019 2.28643 -3.6181 0
M  V30 2860 C 279.345 3.65869 -3.89929 0
M  V30 2861 C 280.645 1.72986 -4.92822 0
M  V30 2862 H 282.339 0.724979 -2.9049 0
M  V30 2863 H 279.885 0.34729 -1.39749 0
M  V30 2864 H 281.838 3.15914 -2.78884 0
M  V30 2865 H 280.562 2.85639 -1.5836 0
M  V30 2866 H 279.221 1.59318 -3.30172 0
M  V30 2867 H 278.869 4.04885 -2.98458 0
M  V30 2868 H 278.569 3.56344 -4.67218 0
M  V30 2869 H 280.093 4.39112 -4.2428 0
M  V30 2870 H 281.507 2.34593 -5.23105 0
M  V30 2871 H 279.904 1.74229 -5.74251 0
M  V30 2872 H 280.974 0.689007 -4.7998 0
M  V30 2873 N 282.317 1.53212 0.369288 0
M  V30 2874 C 283.542 1.73423 1.1375 0
M  V30 2875 C 283.967 0.460404 1.82378 0
M  V30 2876 O 283.325 -0.585298 1.71592 0
M  V30 2877 C 283.373 2.89769 2.1463 0
M  V30 2878 O 282.477 2.58119 3.21634 0
M  V30 2879 H 281.818 0.576061 0.330227 0
M  V30 2880 H 284.348 2.00083 0.427547 0
M  V30 2881 H 284.358 3.15829 2.58294 0
M  V30 2882 H 283.033 3.8217 1.64071 0
M  V30 2883 H 281.61 2.42864 2.82969 0
M  V30 2884 N 283.795 -0.628877 1.44509 0
M  V30 2885 C 284.725 -1.75187 1.54376 0
M  V30 2886 C 285.706 -1.65411 0.396618 0
M  V30 2887 O 286.891 -1.84137 0.617031 0
M  V30 2888 C 284.021 -3.13725 1.48976 0
M  V30 2889 C 282.975 -3.38291 2.62189 0
M  V30 2890 C 282.301 -4.76883 2.41841 0
M  V30 2891 C 283.601 -3.30632 4.04326 0
M  V30 2892 H 285.295 -1.67187 2.48373 0
M  V30 2893 H 282.841 -0.802909 1.19538 0
M  V30 2894 H 284.794 -3.92064 1.54478 0
M  V30 2895 H 283.518 -3.22515 0.514961 0
M  V30 2896 H 282.177 -2.62334 2.56079 0
M  V30 2897 H 281.825 -4.82378 1.42548 0
M  V30 2898 H 281.525 -4.94278 3.17747 0
M  V30 2899 H 283.049 -5.57449 2.49165 0
M  V30 2900 H 284.463 -3.98873 4.11793 0
M  V30 2901 H 282.86 -3.59561 4.80454 0
M  V30 2902 H 283.93 -2.28404 4.27738 0
M  V30 2903 N 285.273 -1.31445 -0.869486 0
M  V30 2904 C 286.498 -1.24256 -1.66058 0
M  V30 2905 C 286.923 0.188928 -1.87149 0
M  V30 2906 O 286.281 1.13522 -1.4136 0
M  V30 2907 C 286.329 -1.9924 -3.00559 0
M  V30 2908 O 285.433 -1.33007 -3.90362 0
M  V30 2909 H 284.774 -0.428973 -0.506831 0
M  V30 2910 H 287.304 -1.73521 -1.08404 0
M  V30 2911 H 287.314 -2.08854 -3.50491 0
M  V30 2912 H 285.989 -3.03342 -2.84528 0
M  V30 2913 H 284.566 -1.31848 -3.48813 0
M  V30 2914 N 286.751 1.08385 -1.14413 0
M  V30 2915 C 288.167 1.32844 -0.884563 0
M  V30 2916 C 288.367 1.95841 0.474181 0
M  V30 2917 O 287.423 2.21158 1.21842 0
M  V30 2918 C 288.736 2.22978 -2.01745 0
M  V30 2919 C 290.284 2.36458 -2.05077 0
M  V30 2920 C 290.759 3.29934 -3.1766 0
M  V30 2921 N 292.25 3.37511 -3.17239 0
M  V30 2922 C 292.985 4.09871 -4.0099 0
M  V30 2923 N 292.481 4.84936 -4.94781 0
M  V30 2924 N 294.274 4.05704 -3.89051 0
M  V30 2925 H 286.425 0.658756 -2.01926 0
M  V30 2926 H 288.688 0.352821 -0.879899 0
M  V30 2927 H 288.394 1.83934 -2.99769 0
M  V30 2928 H 288.268 3.23441 -1.94077 0
M  V30 2929 H 290.655 2.7476 -1.0766 0
M  V30 2930 H 290.736 1.35736 -2.16816 0
M  V30 2931 H 290.38 2.92352 -4.15322 0
M  V30 2932 H 290.31 4.30584 -3.03158 0
M  V30 2933 H 292.801 2.83996 -2.49308 0
M  V30 2934 H 293.114 5.37612 -5.55151 0
M  V30 2935 H 291.459 4.83988 -4.98779 0
M  V30 2936 H 294.65 3.46167 -3.15097 0
M  V30 2937 H 294.823 4.61834 -4.54547 0
M  V30 2938 N 288.23 0.939286 1.26551 0
M  V30 2939 C 289.178 0.43815 2.28436 0
M  V30 2940 C 290.172 -0.483587 1.62351 0
M  V30 2941 O 291.378 -0.362009 1.76322 0
M  V30 2942 H 287.753 0.123149 0.741848 0
M  V30 2943 H 289.724 1.31002 2.68106 0
M  V30 2944 C 288.473 -0.283052 3.46546 0
M  V30 2945 H 287.796 0.417043 3.97619 0
M  V30 2946 H 289.236 -0.597948 4.19763 0
M  V30 2947 C 287.695 -1.50018 3.01656 0
M  V30 2948 O 288.225 -2.59855 3.0633 0
M  V30 2949 N 286.431 -1.35608 2.57019 0
M  V30 2950 H 285.978 -0.46244 2.53415 0
M  V30 2951 H 285.936 -2.17165 2.27347 0
M  V30 2952 N 289.708 -1.40897 0.706093 0
M  V30 2953 C 290.655 -2.30751 0.0474474 0
M  V30 2954 C 291.625 -1.47678 -0.76029 0
M  V30 2955 O 292.81 -1.76441 -0.726177 0
M  V30 2956 C 289.95 -3.33815 -0.875309 0
M  V30 2957 C 289.063 -4.31961 -0.0580623 0
M  V30 2958 C 288.198 -5.22093 -0.979425 0
M  V30 2959 C 287.237 -6.11902 -0.155706 0
M  V30 2960 N 286.374 -6.94482 -1.03144 0
M  V30 2961 H 291.214 -2.86513 0.819413 0
M  V30 2962 H 288.751 -1.41102 0.415783 0
M  V30 2963 H 290.709 -3.92129 -1.42446 0
M  V30 2964 H 289.339 -2.79579 -1.61356 0
M  V30 2965 H 288.391 -3.75507 0.608147 0
M  V30 2966 H 289.703 -4.95415 0.580082 0
M  V30 2967 H 288.857 -5.85292 -1.59744 0
M  V30 2968 H 287.596 -4.5889 -1.65141 0
M  V30 2969 H 286.601 -5.47742 0.475309 0
M  V30 2970 H 287.826 -6.77162 0.512635 0
M  V30 2971 H 285.772 -6.33877 -1.68924 0
M  V30 2972 H 285.689 -7.54665 -0.449108 0
M  V30 2973 H 286.957 -7.6214 -1.63593 0
M  V30 2974 N 291.186 -0.45159 -1.50991 0
M  V30 2975 C 292.432 0.110237 -2.025 0
M  V30 2976 C 292.765 1.41109 -1.33424 0
M  V30 2977 O 292.04 1.89135 -0.453659 0
M  V30 2978 C 292.323 0.314271 -3.58726 0
M  V30 2979 C 292.176 -1.00623 -4.38401 0
M  V30 2980 C 293.495 1.07767 -4.26702 0
M  V30 2981 H 290.614 0.0385897 -0.735989 0
M  V30 2982 H 293.256 -0.593374 -1.80497 0
M  V30 2983 H 291.406 0.913601 -3.77605 0
M  V30 2984 H 293.078 -1.64064 -4.31139 0
M  V30 2985 H 291.321 -1.6075 -4.02917 0
M  V30 2986 H 291.992 -0.817341 -5.45915 0
M  V30 2987 H 294.468 0.56986 -4.12179 0
M  V30 2988 H 293.344 1.18921 -5.35863 0
M  V30 2989 H 293.605 2.10939 -3.88532 0
M  V30 2990 N 292.664 1.56529 -0.183458 0
M  V30 2991 C 293.911 1.97244 0.458357 0
M  V30 2992 C 294.239 1.06992 1.62428 0
M  V30 2993 O 293.494 0.106542 1.9541 0
M  V30 2994 C 293.793 3.43939 0.971637 0
M  V30 2995 C 293.459 4.5083 -0.0796784 0
M  V30 2996 C 292.121 4.79786 -0.368584 0
M  V30 2997 C 294.473 5.15138 -0.792638 0
M  V30 2998 C 291.801 5.70345 -1.37563 0
M  V30 2999 C 294.153 6.06784 -1.78875 0
M  V30 3000 C 292.817 6.34102 -2.08497 0
M  V30 3001 H 292.087 0.721768 0.167725 0
M  V30 3002 H 294.734 1.89472 -0.277976 0
M  V30 3003 H 293.039 3.48724 1.78602 0
M  V30 3004 H 294.736 3.72791 1.47744 0
M  V30 3005 H 291.326 4.28317 0.155668 0
M  V30 3006 H 295.51 4.92868 -0.582659 0
M  V30 3007 H 290.766 5.89789 -1.61118 0
M  V30 3008 H 294.94 6.55677 -2.3465 0
M  V30 3009 H 292.567 7.04074 -2.86678 0
M  V30 3010 N 294.142 -0.090211 1.57342 0
M  V30 3011 C 295.388 -0.793982 1.86611 0
M  V30 3012 C 295.721 -1.78142 0.773252 0
M  V30 3013 O 294.996 -1.93271 -0.218304 0
M  V30 3014 C 295.279 -1.51839 3.26523 0
M  V30 3015 C 295.132 -0.548609 4.46442 0
M  V30 3016 C 296.451 -2.46779 3.64401 0
M  V30 3017 H 293.57 -0.287186 0.678744 0
M  V30 3018 H 296.212 -0.0575076 1.89913 0
M  V30 3019 H 294.362 -2.14617 3.23839 0
M  V30 3020 H 296.034 0.0725513 4.61243 0
M  V30 3021 H 294.277 0.137614 4.33582 0
M  V30 3022 H 294.948 -1.09271 5.41076 0
M  V30 3023 H 297.424 -1.94089 3.68061 0
M  V30 3024 H 296.3 -2.94479 4.63221 0
M  V30 3025 H 296.561 -3.30758 2.93346 0
M  V30 3026 N 295.62 -1.53406 -0.361157 0
M  V30 3027 C 296.867 -1.69802 -1.10333 0
M  V30 3028 C 297.195 -0.452087 -1.89173 0
M  V30 3029 O 296.45 0.566017 -1.87336 0
M  V30 3030 C 296.749 -2.90211 -2.08596 0
M  V30 3031 C 296.415 -4.26539 -1.46203 0
M  V30 3032 C 295.077 -4.6361 -1.28915 0
M  V30 3033 C 297.429 -5.113 -1.01101 0
M  V30 3034 C 294.757 -5.83075 -0.651157 0
M  V30 3035 C 297.109 -6.31415 -0.387007 0
M  V30 3036 C 295.773 -6.67195 -0.201657 0
M  V30 3037 H 295.043 -0.621351 -0.403737 0
M  V30 3038 H 297.69 -1.87598 -0.384609 0
M  V30 3039 H 295.995 -2.66946 -2.86788 0
M  V30 3040 H 297.692 -3.00091 -2.65982 0
M  V30 3041 H 294.282 -3.97352 -1.60653 0
M  V30 3042 H 298.466 -4.83206 -1.13249 0
M  V30 3043 H 293.722 -6.09385 -0.496006 0
M  V30 3044 H 297.896 -6.96394 -0.0293563 0
M  V30 3045 H 295.523 -7.59628 0.294766 0
M  V30 3046 N 297.098 0.621204 -1.44841 0
M  V30 3047 C 298.345 1.38055 -1.48145 0
M  V30 3048 C 298.673 1.94143 -0.117867 0
M  V30 3049 O 297.928 1.74713 0.881694 0
M  V30 3050 C 298.227 2.55675 -2.4973 0
M  V30 3051 C 297.893 2.17817 -3.94799 0
M  V30 3052 C 296.555 2.07205 -4.34303 0
M  V30 3053 C 298.907 1.88065 -4.86087 0
M  V30 3054 C 296.235 1.65045 -5.63007 0
M  V30 3055 C 298.587 1.47394 -6.15189 0
M  V30 3056 C 297.251 1.35331 -6.53637 0
M  V30 3057 H 296.521 0.505181 -0.542101 0
M  V30 3058 H 299.168 0.703477 -1.78111 0
M  V30 3059 H 297.473 3.2866 -2.13284 0
M  V30 3060 H 299.17 3.13904 -2.4953 0
M  V30 3061 H 295.76 2.26998 -3.63552 0
M  V30 3062 H 299.944 1.95168 -4.56315 0
M  V30 3063 H 295.2 1.54317 -5.91605 0
M  V30 3064 H 299.374 1.23415 -6.85377 0
M  V30 3065 H 297.001 1.02435 -7.53267 0
M  V30 3066 N 298.576 1.31904 0.862503 0
M  V30 3067 C 299.853 1.12644 1.59908 0
M  V30 3068 C 300.233 -0.316104 2.0872 0
M  V30 3069 O 299.581 -1.31145 1.87118 0
M  V30 3070 C 299.791 2.1472 2.7513 0
M  V30 3071 C 301.139 2.47637 3.44907 0
M  V30 3072 O 302.163 2.13205 2.85346 0
M  V30 3073 O 301.022 3.06632 4.52371 0
M  V30 3074 H 298.116 0.43416 0.703871 0
M  V30 3075 H 300.662 1.43408 0.907314 0
M  V30 3076 H 299.434 3.1172 2.3653 0
M  V30 3077 H 299.057 1.84905 3.51989 0
M  V30 3078 N 300.054 -1.07777 1.14986 0
M  V30 3079 C 300.984 -2.16865 0.865557 0
M  V30 3080 C 301.965 -1.69123 -0.182083 0
M  V30 3081 O 303.15 -1.94164 -0.0373815 0
M  V30 3082 C 300.28 -3.45539 0.349313 0
M  V30 3083 C 299.234 -4.06708 1.33313 0
M  V30 3084 C 298.56 -5.30411 0.675918 0
M  V30 3085 C 299.86 -4.47241 2.69764 0
M  V30 3086 H 301.554 -2.40905 1.77778 0
M  V30 3087 H 299.1 -1.15781 0.856203 0
M  V30 3088 H 301.053 -4.21174 0.137983 0
M  V30 3089 H 299.777 -3.21072 -0.598362 0
M  V30 3090 H 298.436 -3.33112 1.53075 0
M  V30 3091 H 298.084 -5.02232 -0.277767 0
M  V30 3092 H 297.784 -5.72293 1.33244 0
M  V30 3093 H 299.308 -6.08755 0.474262 0
M  V30 3094 H 300.722 -5.14025 2.53873 0
M  V30 3095 H 299.119 -5.00062 3.3175 0
M  V30 3096 H 300.189 -3.58818 3.26156 0
M  V30 3097 N 301.532 -0.945985 -1.26051 0
M  V30 3098 C 302.76 -0.613025 -1.9761 0
M  V30 3099 C 303.175 0.813035 -1.70397 0
M  V30 3100 O 302.532 1.54274 -0.974979 0
M  V30 3101 C 302.583 -0.85159 -3.51326 0
M  V30 3102 O 302.304 -2.22157 -3.77595 0
M  V30 3103 C 303.805 -0.529831 -4.40122 0
M  V30 3104 H 301.025 -0.230593 -0.630133 0
M  V30 3105 H 303.569 -1.268 -1.60443 0
M  V30 3106 H 301.724 -0.243151 -3.86636 0
M  V30 3107 H 302.138 -2.2852 -4.721 0
M  V30 3108 H 303.612 -0.747348 -5.46917 0
M  V30 3109 H 304.089 0.535341 -4.35925 0
M  V30 3110 H 304.695 -1.11721 -4.10364 0
M  V30 3111 N 303.011 1.40521 -0.713556 0
M  V30 3112 C 304.257 2.01221 -0.252564 0
M  V30 3113 C 304.59 1.56444 1.1506 0
M  V30 3114 O 303.865 0.783597 1.78017 0
M  V30 3115 C 304.148 3.58582 -0.330332 0
M  V30 3116 C 304.001 4.13437 -1.77173 0
M  V30 3117 C 305.32 4.39079 0.299641 0
M  V30 3118 H 302.439 0.731077 -0.0932471 0
M  V30 3119 H 305.081 1.67026 -0.905673 0
M  V30 3120 H 303.231 3.87844 0.225737 0
M  V30 3121 H 304.903 3.9498 -2.38303 0
M  V30 3122 H 303.146 3.67801 -2.3001 0
M  V30 3123 H 303.817 5.22597 -1.77755 0
M  V30 3124 H 306.293 4.15735 -0.174139 0
M  V30 3125 H 305.169 5.4848 0.214771 0
M  V30 3126 H 305.43 4.19915 1.38288 0
M  V30 3127 N 304.489 0.459591 1.5075 0
M  V30 3128 C 305.766 -0.160371 1.94941 0
M  V30 3129 C 306.146 -1.58048 1.39943 0
M  V30 3130 O 305.494 -2.206 0.595629 0
M  V30 3131 C 305.704 -0.115432 3.48809 0
M  V30 3132 C 307.052 -0.310026 4.23467 0
M  V30 3133 O 308.076 -0.192543 3.55679 0
M  V30 3134 O 306.935 -0.546031 5.43765 0
M  V30 3135 H 304.029 -0.117925 0.818549 0
M  V30 3136 H 306.575 0.519169 1.61563 0
M  V30 3137 H 305.347 0.87652 3.81357 0
M  V30 3138 H 304.97 -0.836928 3.88692 0
M  V30 3139 N 305.967 -1.56429 0.191757 0
M  V30 3140 C 307.244 -1.89224 -0.495332 0
M  V30 3141 C 307.624 -1.10478 -1.79883 0
M  V30 3142 O 306.972 -0.204852 -2.2758 0
M  V30 3143 C 307.182 -3.41548 -0.717367 0
M  V30 3144 C 308.53 -4.11711 -1.03823 0
M  V30 3145 O 309.554 -3.4698 -0.805204 0
M  V30 3146 O 308.413 -5.2611 -1.47887 0
M  V30 3147 H 305.507 -0.785788 -0.25781 0
M  V30 3148 H 308.053 -1.68111 0.231721 0
M  V30 3149 H 306.825 -3.90772 0.203287 0
M  V30 3150 H 306.448 -3.68342 -1.497 0
M  V30 3151 N 307.445 0.0818655 -1.57387 0
M  V30 3152 C 308.377 1.12484 -1.997 0
M  V30 3153 C 309.39 1.35564 -0.90146 0
M  V30 3154 O 310.579 1.33982 -1.17945 0
M  V30 3155 C 307.679 2.47778 -2.31213 0
M  V30 3156 C 306.852 2.44793 -3.62485 0
M  V30 3157 C 305.911 3.62117 -3.81782 0
M  V30 3158 O 304.937 3.44005 -4.53486 0
M  V30 3159 N 306.139 4.82094 -3.23367 0
M  V30 3160 H 308.904 0.764585 -2.89783 0
M  V30 3161 H 306.465 0.270664 -1.59621 0
M  V30 3162 H 308.457 3.24891 -2.41304 0
M  V30 3163 H 307.027 2.75843 -1.4707 0
M  V30 3164 H 306.247 1.53134 -3.6324 0
M  V30 3165 H 307.535 2.39889 -4.48699 0
M  V30 3166 H 306.933 4.99713 -2.65148 0
M  V30 3167 H 305.49 5.56753 -3.38923 0
M  V30 3168 N 308.923 1.53595 0.353017 0
M  V30 3169 C 310.148 1.7462 1.11904 0
M  V30 3170 C 310.573 0.479721 1.8188 0
M  V30 3171 O 309.931 -0.567066 1.72204 0
M  V30 3172 C 309.979 2.92029 2.11545 0
M  V30 3173 O 309.083 2.61516 3.18878 0
M  V30 3174 H 308.424 0.579531 0.324099 0
M  V30 3175 H 310.954 2.00525 0.406301 0
M  V30 3176 H 310.964 3.18551 2.5493 0
M  V30 3177 H 309.639 3.83888 1.60008 0
M  V30 3178 H 308.216 2.45852 2.80377 0
M  V30 3179 N 310.401 -0.613514 1.45168 0
M  V30 3180 C 311.647 -1.37471 1.49096 0
M  V30 3181 C 311.98 -1.93765 0.129901 0
M  V30 3182 O 311.255 -1.74707 -0.854858 0
M  V30 3183 C 311.538 -2.52701 2.56542 0
M  V30 3184 C 311.391 -2.01643 4.0207 0
M  V30 3185 C 312.71 -3.54849 2.60327 0
M  V30 3186 H 309.829 -0.498502 0.54283 0
M  V30 3187 H 312.471 -0.692125 1.76945 0
M  V30 3188 H 310.621 -3.10931 2.32926 0
M  V30 3189 H 312.293 -1.48108 4.36877 0
M  V30 3190 H 310.536 -1.32688 4.13009 0
M  V30 3191 H 311.207 -2.84681 4.72928 0
M  V30 3192 H 313.683 -3.0645 2.81474 0
M  V30 3193 H 312.559 -4.32973 3.37381 0
M  V30 3194 H 312.82 -4.10079 1.6519 0
M  V30 3195 N 311.879 -1.3236 -0.855495 0
M  V30 3196 C 313.109 -1.25688 -1.6397 0
M  V30 3197 C 313.517 0.177592 -1.88365 0
M  V30 3198 O 312.86 1.12485 -1.45234 0
M  V30 3199 C 312.922 -1.94602 -3.02275 0
M  V30 3200 C 312.586 -3.43937 -3.00926 0
M  V30 3201 C 313.583 -4.39435 -2.77835 0
M  V30 3202 C 311.268 -3.85858 -3.21588 0
M  V30 3203 C 313.262 -5.74829 -2.75409 0
M  V30 3204 C 310.949 -5.21361 -3.18789 0
M  V30 3205 C 311.947 -6.15658 -2.95727 0
M  V30 3206 O 311.635 -7.48681 -2.928 0
M  V30 3207 H 311.367 -0.434972 -0.51747 0
M  V30 3208 H 313.921 -1.75023 -1.075 0
M  V30 3209 H 312.151 -1.39836 -3.60531 0
M  V30 3210 H 313.84 -1.81651 -3.62985 0
M  V30 3211 H 314.606 -4.08374 -2.6164 0
M  V30 3212 H 310.485 -3.12883 -3.38564 0
M  V30 3213 H 314.029 -6.48404 -2.57328 0
M  V30 3214 H 309.926 -5.52052 -3.34528 0
M  V30 3215 H 310.694 -7.5803 -3.0876 0
M  V30 3216 N 313.357 1.07166 -1.15556 0
M  V30 3217 C 314.768 1.6127 -0.940693 0
M  V30 3218 C 315.119 1.89251 0.517551 0
M  V30 3219 O 314.244 1.65937 1.38903 0
M  V30 3220 C 314.839 2.92993 -1.7012 0
M  V30 3221 C 313.398 3.43832 -1.53156 0
M  V30 3222 C 312.545 2.1786 -1.71558 0
M  V30 3223 H 315.496 0.90229 -1.30554 0
M  V30 3224 H 315.517 3.62007 -1.17181 0
M  V30 3225 H 315.029 2.72596 -2.76248 0
M  V30 3226 H 313.13 3.69307 -0.494294 0
M  V30 3227 H 313.243 4.19747 -2.30975 0
M  V30 3228 H 311.607 2.2765 -1.14225 0
M  V30 3229 H 312.39 1.99956 -2.79056 0
M  V30 3230 N 314.835 0.952656 1.25548 0
M  V30 3231 C 315.782 0.47008 2.25962 0
M  V30 3232 C 316.752 -0.476384 1.59122 0
M  V30 3233 O 317.937 -0.39007 1.8677 0
M  V30 3234 C 315.077 -0.247881 3.44209 0
M  V30 3235 C 314.19 0.735591 4.25691 0
M  V30 3236 C 313.325 -0.0047306 5.312 0
M  V30 3237 C 312.364 0.969805 6.04368 0
M  V30 3238 N 311.501 0.260486 7.01617 0
M  V30 3239 H 316.341 1.33126 2.66611 0
M  V30 3240 H 313.878 0.66765 1.31076 0
M  V30 3241 H 315.836 -0.680695 4.1161 0
M  V30 3242 H 314.466 -1.07312 3.0444 0
M  V30 3243 H 313.518 1.28689 3.57971 0
M  V30 3244 H 314.83 1.47934 4.76358 0
M  V30 3245 H 313.984 -0.496275 6.04667 0
M  V30 3246 H 312.723 -0.781282 4.81401 0
M  V30 3247 H 311.728 1.47237 5.29718 0
M  V30 3248 H 312.953 1.74655 6.56256 0
M  V30 3249 H 310.899 -0.497364 6.54112 0
M  V30 3250 H 310.816 0.943362 7.50091 0
M  V30 3251 H 312.084 -0.209587 7.79218 0
M  V30 3252 N 316.313 -1.40141 0.720998 0
M  V30 3253 C 317.276 -2.29058 0.0805834 0
M  V30 3254 C 318.276 -1.45632 -0.681758 0
M  V30 3255 O 319.466 -1.6648 -0.512856 0
M  V30 3256 C 316.598 -3.28925 -0.895593 0
M  V30 3257 H 317.791 -2.87191 0.863793 0
M  V30 3258 H 315.344 -1.48553 0.485975 0
M  V30 3259 H 316.079 -2.75822 -1.70566 0
M  V30 3260 H 315.864 -3.90519 -0.351766 0
M  V30 3261 H 317.354 -3.95494 -1.34069 0
M  V30 3262 N 317.792 -0.46758 -1.50504 0
M  V30 3263 C 318.722 0.318381 -2.31319 0
M  V30 3264 C 319.703 0.993564 -1.38066 0
M  V30 3265 O 320.888 0.991411 -1.66987 0
M  V30 3266 C 318.018 1.40275 -3.17711 0
M  V30 3267 C 316.972 0.849373 -4.19487 0
M  V30 3268 C 316.298 2.03177 -4.94594 0
M  V30 3269 C 317.598 -0.136942 -5.2212 0
M  V30 3270 H 319.292 -0.356106 -2.97275 0
M  V30 3271 H 316.838 -0.172703 -1.42961 0
M  V30 3272 H 318.791 1.96004 -3.73042 0
M  V30 3273 H 317.515 2.10596 -2.49634 0
M  V30 3274 H 316.174 0.314076 -3.65252 0
M  V30 3275 H 315.822 2.72187 -4.22993 0
M  V30 3276 H 315.522 1.66774 -5.63436 0
M  V30 3277 H 317.046 2.59403 -5.52759 0
M  V30 3278 H 318.46 0.331056 -5.72343 0
M  V30 3279 H 316.857 -0.41507 -5.98663 0
M  V30 3280 H 317.927 -1.06398 -4.73083 0
M  V30 3281 N 319.27 1.56325 -0.20005 0
M  V30 3282 C 320.686 1.58839 0.155716 0
M  V30 3283 C 320.886 1.21636 1.60645 0
M  V30 3284 O 319.942 0.941437 2.34293 0
M  V30 3285 C 321.255 3.0032 -0.151124 0
M  V30 3286 C 322.803 3.12866 -0.0916284 0
M  V30 3287 C 323.278 4.56488 -0.371845 0
M  V30 3288 N 324.769 4.62089 -0.320641 0
M  V30 3289 C 325.504 5.71116 -0.511243 0
M  V30 3290 N 325 6.88592 -0.762461 0
M  V30 3291 N 326.793 5.60335 -0.445157 0
M  V30 3292 H 318.944 1.78788 -1.14668 0
M  V30 3293 H 321.207 0.829996 -0.458051 0
M  V30 3294 H 320.913 3.32117 -1.15721 0
M  V30 3295 H 320.787 3.73257 0.543986 0
M  V30 3296 H 323.174 2.80878 0.905065 0
M  V30 3297 H 323.255 2.42304 -0.81989 0
M  V30 3298 H 322.899 4.89189 -1.36588 0
M  V30 3299 H 322.829 5.25246 0.377362 0
M  V30 3300 H 325.32 3.77665 -0.13329 0
M  V30 3301 H 325.633 7.67581 -0.896576 0
M  V30 3302 H 323.978 6.90387 -0.799412 0
M  V30 3303 H 327.169 4.67436 -0.249278 0
M  V30 3304 H 327.342 6.45243 -0.597116 0
M  V30 3305 N 320.748 -0.0735177 1.57428 0
M  V30 3306 C 322.025 -0.805903 1.78226 0
M  V30 3307 C 322.405 -1.95874 0.787189 0
M  V30 3308 O 321.753 -2.2779 -0.180029 0
M  V30 3309 C 321.963 -1.28045 3.24662 0
M  V30 3310 C 323.311 -1.71453 3.88444 0
M  V30 3311 O 324.335 -1.37616 3.28543 0
M  V30 3312 O 323.194 -2.34093 4.93825 0
M  V30 3313 H 320.288 -0.386041 0.73137 0
M  V30 3314 H 322.834 -0.0537269 1.69615 0
M  V30 3315 H 321.606 -0.455476 3.8864 0
M  V30 3316 H 321.229 -2.094 3.37991 0
M  V30 3317 N 322.226 -1.5378 -0.344866 0
M  V30 3318 C 323.136 -1.84667 -1.4469 0
M  V30 3319 C 324.152 -0.736704 -1.57635 0
M  V30 3320 O 325.328 -1.02888 -1.73136 0
M  V30 3321 C 322.393 -2.04869 -2.79696 0
M  V30 3322 C 321.454 -3.28731 -2.76106 0
M  V30 3323 C 320.687 -3.4796 -4.04673 0
M  V30 3324 O 320.91 -2.71052 -5.01883 0
M  V30 3325 O 319.844 -4.41383 -4.09224 0
M  V30 3326 H 323.67 -2.78334 -1.21506 0
M  V30 3327 H 321.255 -1.39418 -0.536921 0
M  V30 3328 H 323.137 -2.19609 -3.59652 0
M  V30 3329 H 321.812 -1.14391 -3.02814 0
M  V30 3330 H 320.719 -3.19396 -1.94774 0
M  V30 3331 H 322.052 -4.19198 -2.57941 0
M  V30 3332 N 323.704 0.605807 -1.45491 0
M  V30 3333 C 324.934 1.38934 -1.52908 0
M  V30 3334 C 325.342 1.88513 -0.161086 0
M  V30 3335 O 324.685 1.62962 0.847891 0
M  V30 3336 C 324.747 2.62737 -2.45376 0
M  V30 3337 C 324.411 2.34785 -3.92078 0
M  V30 3338 C 325.408 1.95038 -4.8193 0
M  V30 3339 C 323.093 2.47642 -4.37011 0
M  V30 3340 C 325.087 1.68511 -6.14722 0
M  V30 3341 C 322.774 2.20728 -5.69844 0
M  V30 3342 C 323.772 1.81225 -6.58519 0
M  V30 3343 O 323.46 1.54627 -7.88889 0
M  V30 3344 H 323.192 0.431629 -0.520262 0
M  V30 3345 H 325.746 0.74573 -1.91384 0
M  V30 3346 H 323.976 3.29824 -2.01874 0
M  V30 3347 H 325.665 3.24783 -2.43456 0
M  V30 3348 H 326.431 1.84639 -4.48479 0
M  V30 3349 H 322.31 2.77356 -3.68232 0
M  V30 3350 H 325.854 1.37602 -6.83894 0
M  V30 3351 H 321.751 2.30744 -6.02849 0
M  V30 3352 H 322.519 1.68665 -8.00933 0
M  V30 3353 N 325.182 1.32811 0.848464 0
M  V30 3354 C 326.431 1.23075 1.59798 0
M  V30 3355 C 326.744 -0.204419 1.94529 0
M  V30 3356 O 327.95 -0.423701 2.68173 0
M  V30 3357 C 326.406 2.15594 2.88179 0
M  V30 3358 C 326.014 3.64228 2.60849 0
M  V30 3359 C 327.758 2.14709 3.66197 0
M  V30 3360 C 325.665 4.48689 3.85269 0
M  V30 3361 H 324.595 0.457091 0.599653 0
M  V30 3362 H 327.246 1.57813 0.936342 0
M  V30 3363 H 325.628 1.73778 3.55833 0
M  V30 3364 H 326.802 4.14424 2.01467 0
M  V30 3365 H 325.117 3.67306 1.96151 0
M  V30 3366 H 327.714 2.75046 4.58534 0
M  V30 3367 H 328.057 1.13966 4.00397 0
M  V30 3368 H 328.59 2.54837 3.05455 0
M  V30 3369 H 325.329 5.5027 3.56207 0
M  V30 3370 H 324.849 4.03241 4.44024 0
M  V30 3371 H 326.528 4.62006 4.52946 0
M  V30 3372 N 326.66 -1.06551 1.16123 0
M  V30 3373 C 327.593 -2.13382 0.80892 0
M  V30 3374 C 328.571 -1.61128 -0.21827 0
M  V30 3375 O 329.755 -1.88219 -0.102952 0
M  V30 3376 C 326.882 -3.38083 0.204303 0
M  V30 3377 C 325.928 -4.09133 1.20469 0
M  V30 3378 S 326.761 -4.5948 2.75024 0
M  V30 3379 C 327.917 -5.87446 2.16005 0
M  V30 3380 H 328.15 -2.42937 1.71373 0
M  V30 3381 H 325.683 -1.18947 0.984428 0
M  V30 3382 H 327.641 -4.10268 -0.138081 0
M  V30 3383 H 326.302 -3.0669 -0.678234 0
M  V30 3384 H 325.495 -4.98685 0.730019 0
M  V30 3385 H 325.097 -3.4295 1.49202 0
M  V30 3386 H 327.389 -6.60065 1.5271 0
M  V30 3387 H 328.332 -6.39639 3.03756 0
M  V30 3388 H 328.74 -5.41354 1.59989 0
M  V30 3389 N 328.138 -0.959301 -1.25041 0
M  V30 3390 C 329.363 -0.633507 -1.97488 0
M  V30 3391 C 329.788 0.788555 -1.70773 0
M  V30 3392 O 329.146 1.53394 -0.966431 0
M  V30 3393 C 329.194 -0.904057 -3.49083 0
M  V30 3394 O 328.298 0.0147939 -4.12397 0
M  V30 3395 H 327.639 -0.240368 -0.618966 0
M  V30 3396 H 330.169 -1.28717 -1.59038 0
M  V30 3397 H 330.179 -0.832203 -3.99423 0
M  V30 3398 H 328.854 -1.94048 -3.67856 0
M  V30 3399 H 327.431 -0.109664 -3.72739 0
M  V30 3400 N 329.616 1.39756 -0.72842 0
M  V30 3401 C 330.563 2.30647 -0.0841519 0
M  V30 3402 C 331.533 1.48869 0.7367 0
M  V30 3403 O 332.718 1.77574 0.698015 0
M  V30 3404 C 329.858 3.35165 0.822091 0
M  V30 3405 C 328.971 4.31999 -0.0106663 0
M  V30 3406 C 328.106 5.23585 0.896241 0
M  V30 3407 C 327.145 6.12072 0.0583381 0
M  V30 3408 N 326.282 6.96035 0.920818 0
M  V30 3409 H 331.122 2.85173 -0.864891 0
M  V30 3410 H 328.659 1.40422 -0.438179 0
M  V30 3411 H 330.617 3.94345 1.36189 0
M  V30 3412 H 329.247 2.8211 1.56888 0
M  V30 3413 H 328.299 3.74492 -0.66781 0
M  V30 3414 H 329.611 4.9443 -0.658825 0
M  V30 3415 H 328.765 5.87759 1.50412 0
M  V30 3416 H 327.504 4.61459 1.57819 0
M  V30 3417 H 326.509 5.46916 -0.562389 0
M  V30 3418 H 327.734 6.76261 -0.6203 0
M  V30 3419 H 325.68 6.36485 1.58818 0
M  V30 3420 H 325.597 7.55284 0.32899 0
M  V30 3421 H 326.865 7.64646 1.51447 0
M  V30 3422 N 331.094 0.475555 1.50254 0
M  V30 3423 C 332.322 -0.0754493 2.06762 0
M  V30 3424 C 332.737 -1.33111 1.33891 0
M  V30 3425 O 332.094 -1.77846 0.40952 0
M  V30 3426 C 332.145 -0.359008 3.59713 0
M  V30 3427 O 331.866 0.846851 4.29837 0
M  V30 3428 C 333.367 -0.956484 4.32858 0
M  V30 3429 H 330.587 0.00907525 0.670939 0
M  V30 3430 H 333.131 0.665618 1.93364 0
M  V30 3431 H 331.286 -1.05001 3.72899 0
M  V30 3432 H 331.7 0.594162 5.21124 0
M  V30 3433 H 333.174 -1.10463 5.40834 0
M  V30 3434 H 333.651 -1.94775 3.93649 0
M  V30 3435 H 334.257 -0.303723 4.24214 0
M  V30 3436 N 332.573 -1.56217 0.208337 0
M  V30 3437 C 333.503 -2.22694 -0.702116 0
M  V30 3438 C 334.484 -1.19432 -1.2112 0
M  V30 3439 O 335.669 -1.47978 -1.25762 0
M  V30 3440 C 332.799 -2.8966 -1.9161 0
M  V30 3441 C 331.753 -3.9928 -1.5414 0
M  V30 3442 C 331.079 -4.53476 -2.83308 0
M  V30 3443 C 332.379 -5.17012 -0.741339 0
M  V30 3444 H 334.073 -2.99034 -0.147898 0
M  V30 3445 H 331.619 -1.43831 -0.0696951 0
M  V30 3446 H 333.572 -3.34852 -2.55836 0
M  V30 3447 H 332.296 -2.10746 -2.49507 0
M  V30 3448 H 330.955 -3.54799 -0.922668 0
M  V30 3449 H 330.603 -3.71308 -3.39322 0
M  V30 3450 H 330.303 -5.27451 -2.58976 0
M  V30 3451 H 331.827 -5.01378 -3.485 0
M  V30 3452 H 333.241 -5.58667 -1.28699 0
M  V30 3453 H 331.638 -5.97137 -0.595627 0
M  V30 3454 H 332.708 -4.8423 0.254851 0
M  V30 3455 N 334.051 0.0651679 -1.57465 0
M  V30 3456 C 335.299 0.761555 -1.87202 0
M  V30 3457 C 335.62 1.77778 -0.801243 0
M  V30 3458 O 334.89 1.95166 0.16937 0
M  V30 3459 H 333.47 0.284251 -0.690804 0
M  V30 3460 H 336.132 0.0396827 -1.9486 0
M  V30 3461 H 335.228 1.27365 -2.84929 0
M  V30 3462 N 335.529 1.53961 0.336706 0
M  V30 3463 C 336.754 1.75797 1.10046 0
M  V30 3464 C 337.179 0.498985 1.81361 0
M  V30 3465 O 336.537 -0.548769 1.72795 0
M  V30 3466 C 336.585 2.94257 2.08436 0
M  V30 3467 O 335.689 2.64883 3.16087 0
M  V30 3468 H 335.03 0.582936 0.317934 0
M  V30 3469 H 337.56 2.00945 0.38501 0
M  V30 3470 H 337.57 3.21237 2.51537 0
M  V30 3471 H 336.245 3.85564 1.55927 0
M  V30 3472 H 334.822 2.48812 2.77753 0
M  V30 3473 N 337.007 -0.598083 1.45811 0
M  V30 3474 C 338.255 -1.35413 1.50026 0
M  V30 3475 C 338.576 -1.94444 0.147177 0
M  V30 3476 O 337.846 -1.77701 -0.824571 0
M  V30 3477 H 336.426 -0.502727 0.552517 0
M  V30 3478 H 339.088 -0.701606 1.81834 0
M  V30 3479 H 338.184 -2.16871 2.2444 0
M  V30 3480 N 338.485 -1.33259 -0.841409 0
M  V30 3481 C 339.448 -1.23221 -1.9326 0
M  V30 3482 C 340.448 -0.151895 -1.60081 0
M  V30 3483 O 341.638 -0.403246 -1.69468 0
M  V30 3484 C 338.77 -0.898123 -3.28856 0
M  V30 3485 H 339.963 -2.2021 -2.03587 0
M  V30 3486 H 337.516 -1.17281 -1.03319 0
M  V30 3487 H 338.251 0.0693841 -3.24226 0
M  V30 3488 H 338.036 -1.67934 -3.54317 0
M  V30 3489 H 339.526 -0.852563 -4.08805 0
M  V30 3490 N 339.963 1.05934 -1.16686 0
M  V30 3491 C 341.203 1.80382 -0.961345 0
M  V30 3492 C 341.567 1.85331 0.501643 0
M  V30 3493 O 342.768 2.55795 0.825986 0
M  V30 3494 C 341.039 3.20777 -1.57596 0
M  V30 3495 S 342.598 4.11795 -1.51559 0
M  V30 3496 H 339.416 0.621332 -0.345641 0
M  V30 3497 H 342.018 1.27157 -1.48497 0
M  V30 3498 H 340.722 3.14773 -2.63337 0
M  V30 3499 H 340.253 3.79078 -1.05182 0
M  V30 3500 H 342.268 4.93485 -0.518374 0
M  V30 3501 N 341.441 0.965919 1.2453 0
M  V30 3502 C 342.689 0.625593 1.92174 0
M  V30 3503 C 343.01 -0.841652 1.75901 0
M  V30 3504 O 342.28 -1.60061 1.12948 0
M  V30 3505 H 340.86 0.228388 0.71123 0
M  V30 3506 H 343.522 1.2266 1.51461 0
M  V30 3507 H 342.618 0.864653 2.99884 0
M  V30 3508 N 342.919 -1.39368 0.735821 0
M  V30 3509 C 343.829 -2.34395 0.0979693 0
M  V30 3510 C 344.845 -1.58361 -0.720968 0
M  V30 3511 O 346.021 -1.90648 -0.649245 0
M  V30 3512 C 343.086 -3.37393 -0.797916 0
M  V30 3513 C 342.147 -4.29287 0.0333662 0
M  V30 3514 C 341.38 -5.27365 -0.819854 0
M  V30 3515 O 341.603 -5.31959 -2.05855 0
M  V30 3516 O 340.537 -6.01389 -0.248079 0
M  V30 3517 H 344.363 -2.90601 0.882315 0
M  V30 3518 H 341.948 -1.40909 0.4965 0
M  V30 3519 H 343.83 -4.00505 -1.31048 0
M  V30 3520 H 342.505 -2.83571 -1.56106 0
M  V30 3521 H 341.412 -3.69395 0.591475 0
M  V30 3522 H 342.745 -4.86317 0.758752 0
M  V30 3523 N 344.397 -0.483516 -1.5 0
M  V30 3524 C 345.643 0.0672592 -2.02688 0
M  V30 3525 C 345.976 1.38247 -1.36387 0
M  V30 3526 O 345.251 1.88131 -0.493675 0
M  V30 3527 C 345.534 0.238109 -3.59312 0
M  V30 3528 C 345.387 -1.099 -4.36168 0
M  V30 3529 C 346.706 0.986916 -4.28892 0
M  V30 3530 H 343.825 0.0229696 -0.736642 0
M  V30 3531 H 346.467 -0.631527 -1.79197 0
M  V30 3532 H 344.617 0.8333 -3.79458 0
M  V30 3533 H 346.289 -1.73172 -4.27562 0
M  V30 3534 H 344.532 -1.69261 -3.99416 0
M  V30 3535 H 345.203 -0.932954 -5.44059 0
M  V30 3536 H 347.679 0.482302 -4.13295 0
M  V30 3537 H 346.555 1.07527 -5.38265 0
M  V30 3538 H 346.816 2.0265 -3.92919 0
M  V30 3539 N 345.875 1.56104 -0.216619 0
M  V30 3540 C 346.822 2.2007 0.695531 0
M  V30 3541 C 347.792 1.15471 1.19397 0
M  V30 3542 O 348.977 1.43807 1.25396 0
M  V30 3543 C 346.117 2.88073 1.90021 0
M  V30 3544 C 345.23 4.07253 1.44113 0
M  V30 3545 C 344.365 4.63052 2.603 0
M  V30 3546 C 343.404 5.74545 2.11103 0
M  V30 3547 N 342.541 6.24656 3.20545 0
M  V30 3548 H 347.381 2.97655 0.143327 0
M  V30 3549 H 344.918 1.46982 0.0589934 0
M  V30 3550 H 346.876 3.25681 2.60745 0
M  V30 3551 H 345.506 2.13015 2.42538 0
M  V30 3552 H 344.558 3.75164 0.628999 0
M  V30 3553 H 345.87 4.8783 1.04036 0
M  V30 3554 H 345.024 5.03078 3.39113 0
M  V30 3555 H 343.763 3.81628 3.03663 0
M  V30 3556 H 342.768 5.34027 1.3075 0
M  V30 3557 H 343.993 6.57801 1.68746 0
M  V30 3558 H 341.939 5.46148 3.63399 0
M  V30 3559 H 341.856 7.00343 2.84704 0
M  V30 3560 H 343.124 6.69338 3.99508 0
M  V30 3561 N 347.353 -0.0568162 1.57498 0
M  V30 3562 C 348.283 -1.06593 2.0775 0
M  V30 3563 C 349.264 -1.39448 0.974082 0
M  V30 3564 O 350.449 -1.48815 1.24771 0
M  V30 3565 C 347.579 -2.37509 2.5339 0
M  V30 3566 C 346.533 -2.1897 3.67745 0
M  V30 3567 C 345.859 -3.55402 3.99492 0
M  V30 3568 C 347.159 -1.59859 4.97235 0
M  V30 3569 H 348.853 -0.647706 2.9231 0
M  V30 3570 H 346.399 -0.310116 1.40621 0
M  V30 3571 H 348.352 -3.08409 2.87162 0
M  V30 3572 H 347.076 -2.8134 1.65878 0
M  V30 3573 H 345.735 -1.50508 3.3428 0
M  V30 3574 H 345.383 -3.9683 3.09088 0
M  V30 3575 H 345.083 -3.43831 4.76502 0
M  V30 3576 H 346.607 -4.27708 4.35773 0
M  V30 3577 H 348.021 -2.20642 5.29141 0
M  V30 3578 H 346.418 -1.58942 5.78669 0
M  V30 3579 H 347.488 -0.561506 4.81638 0
M  V30 3580 N 348.832 -1.54138 -0.328536 0
M  V30 3581 C 349.795 -1.82462 -1.38709 0
M  V30 3582 C 350.795 -0.696229 -1.44946 0
M  V30 3583 O 351.985 -0.964535 -1.4506 0
M  V30 3584 C 349.117 -1.98018 -2.77492 0
M  V30 3585 H 350.31 -2.77037 -1.14851 0
M  V30 3586 H 347.863 -1.45779 -0.563751 0
M  V30 3587 H 348.598 -1.05637 -3.06613 0
M  V30 3588 H 348.383 -2.80124 -2.74359 0
M  V30 3589 H 349.873 -2.21396 -3.54081 0
M  V30 3590 N 350.31 0.590341 -1.46126 0
M  V30 3591 C 351.557 1.34882 -1.5104 0
M  V30 3592 C 351.885 1.93849 -0.159021 0
M  V30 3593 O 351.14 1.76544 0.844436 0
M  V30 3594 C 351.439 2.5032 -2.55097 0
M  V30 3595 C 351.105 2.09394 -3.99331 0
M  V30 3596 C 349.767 1.97947 -4.38601 0
M  V30 3597 C 352.119 1.77712 -4.89967 0
M  V30 3598 C 349.447 1.53065 -5.66381 0
M  V30 3599 C 351.799 1.34312 -6.18177 0
M  V30 3600 C 350.463 1.21436 -6.56361 0
M  V30 3601 H 349.733 0.493568 -0.552695 0
M  V30 3602 H 352.38 0.665539 -1.79563 0
M  V30 3603 H 350.685 3.24062 -2.20207 0
M  V30 3604 H 352.382 3.08541 -2.56132 0
M  V30 3605 H 348.972 2.19235 -3.68285 0
M  V30 3606 H 353.156 1.85445 -4.60352 0
M  V30 3607 H 348.412 1.41733 -5.94745 0
M  V30 3608 H 352.586 1.08849 -6.87841 0
M  V30 3609 H 350.213 0.864345 -7.5527 0
M  V30 3610 N 351.788 1.33704 0.83433 0
M  V30 3611 C 352.698 1.26382 1.97648 0
M  V30 3612 C 353.714 0.173548 1.73132 0
M  V30 3613 O 354.89 0.397962 1.97429 0
M  V30 3614 C 351.955 1.00769 3.31733 0
M  V30 3615 C 351.016 2.1884 3.69334 0
M  V30 3616 C 350.249 1.9444 4.9702 0
M  V30 3617 O 350.472 0.896961 5.63303 0
M  V30 3618 O 349.406 2.81093 5.32231 0
M  V30 3619 H 353.232 2.22444 2.06767 0
M  V30 3620 H 350.817 1.13795 0.968037 0
M  V30 3621 H 352.699 0.882186 4.12062 0
M  V30 3622 H 351.374 0.0773783 3.23608 0
M  V30 3623 H 350.281 2.36946 2.89495 0
M  V30 3624 H 351.614 3.10221 3.82131 0
M  V30 3625 N 353.266 -1.05314 1.17247 0
M  V30 3626 C 354.682 -1.30452 0.919473 0
M  V30 3627 C 354.882 -1.9703 -0.42209 0
M  V30 3628 O 353.938 -2.24311 -1.15935 0
M  V30 3629 C 355.251 -2.17551 2.07586 0
M  V30 3630 C 356.799 -2.30937 2.11275 0
M  V30 3631 C 357.274 -3.21396 3.26296 0
M  V30 3632 N 358.765 -3.28981 3.26076 0
M  V30 3633 C 359.5 -3.99095 4.11716 0
M  V30 3634 N 358.996 -4.71648 5.07465 0
M  V30 3635 N 360.789 -3.95247 3.9967 0
M  V30 3636 H 352.94 -0.604988 2.03602 0
M  V30 3637 H 355.203 -0.329368 0.888944 0
M  V30 3638 H 354.909 -1.75921 3.0454 0
M  V30 3639 H 354.783 -3.18182 2.02584 0
M  V30 3640 H 357.17 -2.71809 1.14907 0
M  V30 3641 H 357.251 -1.2994 2.20339 0
M  V30 3642 H 356.895 -2.81238 4.22927 0
M  V30 3643 H 356.825 -4.22395 3.14467 0
M  V30 3644 H 359.316 -2.77286 2.5675 0
M  V30 3645 H 359.629 -5.22705 5.6921 0
M  V30 3646 H 357.974 -4.70594 5.11435 0
M  V30 3647 H 361.165 -3.37691 3.24164 0
M  V30 3648 H 361.338 -4.4962 4.66632 0
M  V30 3649 N 354.744 -0.972509 -1.24016 0
M  V30 3650 C 355.691 -0.505969 -2.25186 0
M  V30 3651 C 356.661 0.451009 -1.5986 0
M  V30 3652 O 357.846 0.360307 -1.87367 0
M  V30 3653 C 354.986 0.193089 -3.44559 0
M  V30 3654 C 354.099 -0.803222 -4.24467 0
M  V30 3655 C 353.234 -0.0797793 -5.3114 0
M  V30 3656 C 352.273 -1.06583 -6.02749 0
M  V30 3657 N 351.41 -0.372074 -7.01113 0
M  V30 3658 H 356.25 -1.37351 -2.64459 0
M  V30 3659 H 353.787 -0.688419 -1.29997 0
M  V30 3660 H 355.745 0.615125 -4.1264 0
M  V30 3661 H 354.375 1.02455 -3.06109 0
M  V30 3662 H 353.427 -1.34368 -3.55878 0
M  V30 3663 H 354.739 -1.55494 -4.73944 0
M  V30 3664 H 353.893 0.400015 -6.0538 0
M  V30 3665 H 352.632 0.704597 -4.82583 0
M  V30 3666 H 351.637 -1.55645 -5.27309 0
M  V30 3667 H 352.862 -1.85074 -6.53395 0
M  V30 3668 H 350.808 0.393238 -6.5482 0
M  V30 3669 H 350.725 -1.06258 -7.48495 0
M  V30 3670 H 351.993 0.0855932 -7.79453 0
M  V30 3671 N 356.222 1.38976 -0.743202 0
M  V30 3672 C 357.45 2.04636 -0.30525 0
M  V30 3673 C 357.865 1.56044 1.06281 0
M  V30 3674 O 357.222 0.728921 1.67311 0
M  V30 3675 C 357.273 3.60193 -0.307177 0
M  V30 3676 O 356.994 4.06998 -1.62124 0
M  V30 3677 C 358.495 4.4306 0.145928 0
M  V30 3678 H 355.715 0.65788 -0.132041 0
M  V30 3679 H 358.259 1.77866 -1.00915 0
M  V30 3680 H 356.414 3.85835 0.347898 0
M  V30 3681 H 356.828 5.01371 -1.54036 0
M  V30 3682 H 358.302 5.51921 0.0934183 0
M  V30 3683 H 358.779 4.22706 1.19231 0
M  V30 3684 H 359.385 4.22584 -0.479886 0
M  V30 3685 N 357.7 0.491464 1.49741 0
M  V30 3686 C 358.94 -0.0549118 2.04326 0
M  V30 3687 C 359.304 -1.35148 1.36378 0
M  V30 3688 O 360.505 -1.9815 1.81631 0
M  V30 3689 C 358.776 -0.213841 3.5676 0
M  V30 3690 S 360.335 -0.715839 4.32922 0
M  V30 3691 H 357.153 -0.00630513 0.710972 0
M  V30 3692 H 359.755 0.663257 1.83905 0
M  V30 3693 H 358.459 0.73527 4.0376 0
M  V30 3694 H 357.99 -0.957529 3.81569 0
M  V30 3695 H 360.005 -1.9864 4.54705 0
M  V30 3696 N 359.178 -1.55987 0.224894 0
M  V30 3697 C 360.125 -2.20436 -0.68385 0
M  V30 3698 C 361.095 -1.16102 -1.18783 0
M  V30 3699 O 362.28 -1.4447 -1.24632 0
M  V30 3700 C 359.42 -2.89076 -1.88491 0
M  V30 3701 C 358.533 -4.08012 -1.41951 0
M  V30 3702 C 357.668 -4.64426 -2.5784 0
M  V30 3703 C 356.707 -5.75656 -2.08053 0
M  V30 3704 N 355.844 -6.26347 -3.17227 0
M  V30 3705 H 360.684 -2.97727 -0.12754 0
M  V30 3706 H 358.221 -1.47011 -0.0511978 0
M  V30 3707 H 360.179 -3.27059 -2.59014 0
M  V30 3708 H 358.809 -2.14298 -2.41405 0
M  V30 3709 H 357.861 -3.75492 -0.609095 0
M  V30 3710 H 359.173 -4.88375 -1.01447 0
M  V30 3711 H 358.327 -5.04869 -3.3644 0
M  V30 3712 H 357.066 -3.83233 -3.01635 0
M  V30 3713 H 356.071 -5.34712 -1.27916 0
M  V30 3714 H 357.296 -6.58686 -1.65255 0
M  V30 3715 H 355.242 -5.48067 -3.60497 0
M  V30 3716 H 355.159 -7.01843 -2.80986 0
M  V30 3717 H 356.427 -6.71447 -3.95953 0
M  V30 3718 N 360.656 0.0484629 -1.57525 0
M  V30 3719 C 361.603 1.05504 -2.05275 0
M  V30 3720 C 362.573 1.37084 -0.937927 0
M  V30 3721 O 363.758 1.47754 -1.2072 0
M  V30 3722 C 360.898 2.35676 -2.52093 0
M  V30 3723 C 360.011 2.10423 -3.77288 0
M  V30 3724 C 359.146 3.34327 -4.12794 0
M  V30 3725 C 358.185 3.04542 -5.30962 0
M  V30 3726 N 357.322 4.20841 -5.61994 0
M  V30 3727 H 362.162 0.640885 -2.91027 0
M  V30 3728 H 359.699 0.304854 -1.43906 0
M  V30 3729 H 361.657 3.11709 -2.77297 0
M  V30 3730 H 360.287 2.7485 -1.69285 0
M  V30 3731 H 359.339 1.24976 -3.59284 0
M  V30 3732 H 360.651 1.84438 -4.63448 0
M  V30 3733 H 359.805 4.1874 -4.39024 0
M  V30 3734 H 358.544 3.63408 -3.25247 0
M  V30 3735 H 357.549 2.18528 -5.04505 0
M  V30 3736 H 358.774 2.76758 -6.20146 0
M  V30 3737 H 356.72 4.4991 -4.77406 0
M  V30 3738 H 356.637 3.98212 -6.42622 0
M  V30 3739 H 357.905 5.06184 -5.92789 0
M  V30 3740 N 362.134 1.5431 0.320358 0
M  V30 3741 C 363.38 1.72924 1.05949 0
M  V30 3742 C 363.713 0.503185 1.87568 0
M  V30 3743 O 362.988 -0.499839 1.87968 0
M  V30 3744 C 363.271 3.00676 1.98156 0
M  V30 3745 C 363.124 4.3354 1.19845 0
M  V30 3746 C 364.443 3.24198 2.9763 0
M  V30 3747 H 361.562 0.629195 0.383774 0
M  V30 3748 H 364.204 1.87008 0.335854 0
M  V30 3749 H 362.354 2.888 2.59859 0
M  V30 3750 H 364.026 4.57305 0.605773 0
M  V30 3751 H 362.269 4.309 0.500784 0
M  V30 3752 H 362.94 5.19156 1.87567 0
M  V30 3753 H 365.416 3.35557 2.4605 0
M  V30 3754 H 364.292 4.14938 3.59329 0
M  V30 3755 H 364.553 2.41577 3.7026 0
M  V30 3756 N 363.613 -0.582584 1.46437 0
M  V30 3757 C 364.576 -1.67366 1.56592 0
M  V30 3758 C 365.576 -1.54575 0.443072 0
M  V30 3759 O 366.766 -1.59191 0.707381 0
M  V30 3760 C 363.898 -3.06791 1.48634 0
M  V30 3761 H 365.091 -1.5972 2.5383 0
M  V30 3762 H 362.644 -0.800432 1.34249 0
M  V30 3763 H 363.379 -3.19993 0.526763 0
M  V30 3764 H 363.164 -3.17484 2.30101 0
M  V30 3765 H 364.654 -3.86218 1.58826 0
M  V30 3766 N 365.091 -1.34144 -0.827227 0
M  V30 3767 C 366.34 -1.25602 -1.5782 0
M  V30 3768 C 366.653 0.173445 -1.94829 0
M  V30 3769 O 367.859 0.380984 -2.68814 0
M  V30 3770 C 366.315 -2.20151 -2.84713 0
M  V30 3771 C 365.923 -3.68331 -2.55021 0
M  V30 3772 C 367.667 -2.20508 -3.62735 0
M  V30 3773 C 365.574 -4.54762 -3.78082 0
M  V30 3774 H 364.504 -0.466573 -0.592306 0
M  V30 3775 H 367.155 -1.59283 -0.911116 0
M  V30 3776 H 365.537 -1.79417 -3.53023 0
M  V30 3777 H 366.711 -4.17577 -1.94849 0
M  V30 3778 H 365.026 -3.7038 -1.90283 0
M  V30 3779 H 367.623 -2.82306 -4.54101 0
M  V30 3780 H 367.966 -1.20322 -3.98533 0
M  V30 3781 H 368.499 -2.59664 -3.01362 0
M  V30 3782 H 365.238 -5.55867 -3.47407 0
M  V30 3783 H 364.758 -4.10254 -4.37552 0
M  V30 3784 H 366.437 -4.69153 -4.45538 0
M  V30 3785 N 366.569 1.04691 -1.17803 0
M  V30 3786 C 367.516 2.12557 -0.899343 0
M  V30 3787 C 368.486 1.65339 0.158771 0
M  V30 3788 O 369.671 1.90789 0.0204797 0
M  V30 3789 C 366.811 3.42481 -0.424315 0
M  V30 3790 C 365.924 4.03346 -1.54713 0
M  V30 3791 C 365.059 5.21208 -1.02546 0
M  V30 3792 C 364.098 5.74089 -2.12339 0
M  V30 3793 N 363.235 6.83247 -1.61612 0
M  V30 3794 H 368.075 2.35734 -1.823 0
M  V30 3795 H 365.612 1.1564 -0.909159 0
M  V30 3796 H 367.57 4.16996 -0.130421 0
M  V30 3797 H 366.2 3.19471 0.462377 0
M  V30 3798 H 365.252 3.2622 -1.95664 0
M  V30 3799 H 366.564 4.38628 -2.37501 0
M  V30 3800 H 365.718 6.02812 -0.685718 0
M  V30 3801 H 364.457 4.87414 -0.167084 0
M  V30 3802 H 363.462 4.91111 -2.47165 0
M  V30 3803 H 364.687 6.0993 -2.98601 0
M  V30 3804 H 362.633 6.5134 -0.780533 0
M  V30 3805 H 362.55 7.17559 -2.38003 0
M  V30 3806 H 363.818 7.68491 -1.30545 0
M  V30 3807 N 368.047 0.979072 1.23499 0
M  V30 3808 C 369.296 0.642751 1.91185 0
M  V30 3809 C 369.609 -0.827253 1.77245 0
M  V30 3810 O 370.815 -1.27458 2.39722 0
M  V30 3811 C 369.271 1.09901 3.42709 0
M  V30 3812 C 368.879 2.59327 3.65313 0
M  V30 3813 C 370.623 0.836371 4.16179 0
M  V30 3814 C 368.53 2.98627 5.10467 0
M  V30 3815 H 367.46 0.236698 0.715884 0
M  V30 3816 H 370.111 1.1868 1.39955 0
M  V30 3817 H 368.493 0.48319 3.93041 0
M  V30 3818 H 369.667 3.26136 3.25533 0
M  V30 3819 H 367.982 2.83323 3.05151 0
M  V30 3820 H 370.579 1.10586 5.23139 0
M  V30 3821 H 370.922 -0.227509 4.15678 0
M  V30 3822 H 371.455 1.41371 3.71832 0
M  V30 3823 H 368.194 4.04133 5.16098 0
M  V30 3824 H 367.714 2.3651 5.51201 0
M  V30 3825 H 369.393 2.89159 5.78788 0
M  V30 3826 N 369.525 -1.3858 0.750561 0
M  V30 3827 C 370.774 -1.99424 0.302172 0
M  V30 3828 C 371.087 -1.60254 -1.12152 0
M  V30 3829 O 372.293 -2.14046 -1.67023 0
M  V30 3830 C 370.749 -3.56558 0.489307 0
M  V30 3831 C 370.357 -4.04682 1.92189 0
M  V30 3832 C 372.101 -4.24374 0.103478 0
M  V30 3833 C 370.008 -5.54446 2.05775 0
M  V30 3834 H 368.938 -0.746046 0.10923 0
M  V30 3835 H 371.589 -1.58383 0.92667 0
M  V30 3836 H 369.971 -3.95472 -0.204329 0
M  V30 3837 H 371.145 -3.77065 2.64875 0
M  V30 3838 H 369.46 -3.4958 2.26236 0
M  V30 3839 H 372.057 -5.34384 0.183787 0
M  V30 3840 H 372.4 -4.05468 -0.943481 0
M  V30 3841 H 372.933 -3.90688 0.748854 0
M  V30 3842 H 369.672 -5.78252 3.08714 0
M  V30 3843 H 369.192 -5.83816 1.37546 0
M  V30 3844 H 370.871 -6.20099 1.84626 0
M  V30 3845 N 371.003 -0.499398 -1.49478 0
M  V30 3846 C 372.228 0.044722 -2.07352 0
M  V30 3847 C 372.653 1.30207 -1.35749 0
M  V30 3848 O 372.011 1.76516 -0.413732 0
M  V30 3849 C 372.059 0.283013 -3.59488 0
M  V30 3850 O 371.163 1.35804 -3.89398 0
M  V30 3851 H 370.504 -0.0255147 -0.66351 0
M  V30 3852 H 373.034 -0.698561 -1.92305 0
M  V30 3853 H 373.044 0.515007 -4.04737 0
M  V30 3854 H 371.719 -0.635636 -4.11014 0
M  V30 3855 H 370.296 1.11113 -3.55961 0
M  V30 3856 N 372.481 1.55866 -0.233164 0
M  V30 3857 C 373.428 2.20796 0.67215 0
M  V30 3858 C 374.398 1.16731 1.18166 0
M  V30 3859 O 375.583 1.45129 1.23864 0
M  V30 3860 C 372.723 2.90072 1.86955 0
M  V30 3861 C 371.836 4.08759 1.39786 0
M  V30 3862 C 370.971 4.65787 2.55374 0
M  V30 3863 C 370.01 5.76752 2.04998 0
M  V30 3864 N 369.147 6.28021 3.13901 0
M  V30 3865 H 373.987 2.9779 0.111749 0
M  V30 3866 H 371.524 1.47036 0.0434007 0
M  V30 3867 H 373.482 3.28428 2.57276 0
M  V30 3868 H 372.112 2.15575 2.40265 0
M  V30 3869 H 371.164 3.7581 0.589173 0
M  V30 3870 H 372.476 4.88906 0.98856 0
M  V30 3871 H 371.63 5.06646 3.33758 0
M  V30 3872 H 370.369 3.84828 2.99598 0
M  V30 3873 H 369.374 5.35383 1.25079 0
M  V30 3874 H 370.599 6.59553 1.61759 0
M  V30 3875 H 368.545 5.49971 3.57586 0
M  V30 3876 H 368.462 7.03323 2.7726 0
M  V30 3877 H 369.73 6.73538 3.92386 0
M  V30 3878 N 373.959 -0.0401083 1.57549 0
M  V30 3879 C 375.375 -0.395556 1.54621 0
M  V30 3880 C 375.575 -1.77281 0.957799 0
M  V30 3881 O 374.631 -2.45888 0.574031 0
M  V30 3882 C 375.944 -0.307535 2.99123 0
M  V30 3883 C 377.492 -0.385425 3.10618 0
M  V30 3884 C 377.967 -0.326973 4.56831 0
M  V30 3885 N 379.458 -0.386102 4.61588 0
M  V30 3886 C 380.193 -0.363591 5.72246 0
M  V30 3887 N 379.689 -0.29402 6.92176 0
M  V30 3888 N 381.482 -0.412503 5.60584 0
M  V30 3889 H 373.633 0.861325 1.94152 0
M  V30 3890 H 375.896 0.326445 0.890021 0
M  V30 3891 H 375.602 0.638461 3.45856 0
M  V30 3892 H 375.476 -1.10552 3.60636 0
M  V30 3893 H 377.863 -1.32185 2.63839 0
M  V30 3894 H 377.944 0.44171 2.51957 0
M  V30 3895 H 377.588 0.605738 5.04275 0
M  V30 3896 H 377.518 -1.17207 5.13391 0
M  V30 3897 H 380.009 -0.442832 3.75296 0
M  V30 3898 H 380.322 -0.28164 7.72287 0
M  V30 3899 H 378.667 -0.260232 6.94513 0
M  V30 3900 H 381.858 -0.464769 4.65787 0
M  V30 3901 H 382.031 -0.391492 6.46816 0
M  V30 3902 N 375.437 -1.54477 -0.31217 0
M  V30 3903 C 376.384 -1.84655 -1.38461 0
M  V30 3904 C 377.354 -0.694536 -1.50882 0
M  V30 3905 O 378.539 -0.942081 -1.6592 0
M  V30 3906 C 375.679 -2.0896 -2.74645 0
M  V30 3907 C 374.792 -3.36618 -2.70763 0
M  V30 3908 C 373.927 -3.50824 -3.98868 0
M  V30 3909 C 372.966 -4.72315 -3.89339 0
M  V30 3910 N 372.103 -4.83387 -5.09197 0
M  V30 3911 H 376.943 -2.76142 -1.12026 0
M  V30 3912 H 374.48 -1.36748 -0.542065 0
M  V30 3913 H 376.438 -2.21045 -3.53829 0
M  V30 3914 H 375.068 -1.20752 -2.99364 0
M  V30 3915 H 374.12 -3.33211 -1.83506 0
M  V30 3916 H 375.432 -4.25917 -2.59608 0
M  V30 3917 H 374.586 -3.62513 -4.86486 0
M  V30 3918 H 373.325 -2.59638 -4.12843 0
M  V30 3919 H 372.33 -4.6067 -3.00105 0
M  V30 3920 H 373.555 -5.64897 -3.76919 0
M  V30 3921 H 371.501 -3.9512 -5.23657 0
M  V30 3922 H 371.418 -5.66669 -5.00422 0
M  V30 3923 H 372.686 -4.9942 -5.98498 0
M  V30 3924 N 376.915 0.57481 -1.46744 0
M  V30 3925 C 378.162 1.33272 -1.52462 0
M  V30 3926 C 378.49 1.93669 -0.179572 0
M  V30 3927 O 377.745 1.7743 0.825664 0
M  V30 3928 C 378.044 2.476 -2.57738 0
M  V30 3929 C 377.71 2.05146 -4.01529 0
M  V30 3930 C 376.372 1.93284 -4.40676 0
M  V30 3931 C 378.724 1.72506 -4.91824 0
M  V30 3932 C 376.052 1.47049 -5.67973 0
M  V30 3933 C 378.404 1.27748 -6.19567 0
M  V30 3934 C 377.068 1.14468 -6.57612 0
M  V30 3935 H 376.338 0.487678 -0.557899 0
M  V30 3936 H 378.985 0.646456 -1.80259 0
M  V30 3937 H 377.29 3.21708 -2.23632 0
M  V30 3938 H 378.987 3.05807 -2.5939 0
M  V30 3939 H 375.577 2.15316 -3.7059 0
M  V30 3940 H 379.761 1.80552 -4.62293 0
M  V30 3941 H 375.017 1.35417 -5.96215 0
M  V30 3942 H 379.191 1.01547 -6.88957 0
M  V30 3943 H 376.818 0.78419 -7.56145 0
M  V30 3944 N 378.394 1.34581 0.820102 0
M  V30 3945 C 379.357 1.2628 1.91275 0
M  V30 3946 C 380.357 0.177344 1.59819 0
M  V30 3947 O 381.547 0.430156 1.68806 0
M  V30 3948 C 378.679 0.950327 3.27386 0
M  V30 3949 H 379.872 2.23421 2.00057 0
M  V30 3950 H 377.425 1.1891 1.0144 0
M  V30 3951 H 378.16 -0.0177938 3.24295 0
M  V30 3952 H 377.945 1.73549 3.51601 0
M  V30 3953 H 379.435 0.917492 4.07396 0
M  V30 3954 N 379.872 -1.04064 1.18357 0
M  V30 3955 C 381.121 -1.76662 0.973313 0
M  V30 3956 C 381.434 -1.89154 -0.497991 0
M  V30 3957 O 382.64 -2.58606 -0.826762 0
M  V30 3958 C 381.096 -3.17624 1.69242 0
M  V30 3959 C 380.704 -3.13225 3.20303 0
M  V30 3960 C 382.448 -3.946 1.56497 0
M  V30 3961 C 380.355 -4.49046 3.84853 0
M  V30 3962 H 379.285 -0.662214 0.36054 0
M  V30 3963 H 381.936 -1.16553 1.41731 0
M  V30 3964 H 380.318 -3.78129 1.1762 0
M  V30 3965 H 381.492 -2.62172 3.78949 0
M  V30 3966 H 379.807 -2.49749 3.33189 0
M  V30 3967 H 382.404 -4.95042 2.02084 0
M  V30 3968 H 382.747 -4.13074 0.517243 0
M  V30 3969 H 383.28 -3.4067 2.05399 0
M  V30 3970 H 380.019 -4.35777 4.89672 0
M  V30 3971 H 379.539 -5.00203 3.30994 0
M  V30 3972 H 381.218 -5.17961 3.87718 0
M  V30 3973 N 381.35 -0.985608 -1.22978 0
M  V30 3974 C 382.598 -0.656087 -1.91154 0
M  V30 3975 C 382.919 0.813561 -1.77218 0
M  V30 3976 O 382.189 1.58244 -1.1548 0
M  V30 3977 H 380.769 -0.239674 -0.707506 0
M  V30 3978 H 383.431 -1.25054 -1.49491 0
M  V30 3979 H 382.527 -0.912253 -2.9847 0
M  V30 3980 N 382.828 1.3818 -0.7579 0
M  V30 3981 C 384.053 2.04827 -0.325679 0
M  V30 3982 C 384.478 1.56788 1.03919 0
M  V30 3983 O 383.836 0.721811 1.66312 0
M  V30 3984 C 383.884 3.58774 -0.362447 0
M  V30 3985 O 382.988 4.07372 0.642033 0
M  V30 3986 H 382.329 0.64833 -0.143402 0
M  V30 3987 H 384.859 1.7677 -1.03023 0
M  V30 3988 H 384.869 4.07434 -0.214844 0
M  V30 3989 H 383.544 3.93096 -1.35824 0
M  V30 3990 H 382.121 3.70068 0.458688 0
M  V30 3991 N 384.306 0.507319 1.49211 0
M  V30 3992 C 385.269 -0.256763 2.27757 0
M  V30 3993 C 386.269 -0.888287 1.34038 0
M  V30 3994 O 387.459 -0.751841 1.5714 0
M  V30 3995 C 384.591 -1.36905 3.12202 0
M  V30 3996 H 385.784 0.432557 2.96764 0
M  V30 3997 H 383.337 0.262488 1.5408 0
M  V30 3998 H 384.072 -2.09233 2.47775 0
M  V30 3999 H 383.857 -0.921599 3.81115 0
M  V30 4000 H 385.347 -1.9071 3.7151 0
M  V30 4001 N 385.784 -1.5574 0.241426 0
M  V30 4002 C 387.2 -1.59196 -0.113548 0
M  V30 4003 C 387.4 -1.25852 -1.57364 0
M  V30 4004 O 386.456 -1.00322 -2.31715 0
M  V30 4005 C 387.769 -2.99814 0.230695 0
M  V30 4006 C 389.317 -3.12513 0.174547 0
M  V30 4007 C 389.792 -4.55342 0.492744 0
M  V30 4008 N 391.283 -4.61076 0.443043 0
M  V30 4009 C 392.018 -5.6956 0.662484 0
M  V30 4010 N 391.514 -6.86328 0.944761 0
M  V30 4011 N 393.307 -5.58957 0.593564 0
M  V30 4012 H 385.458 -1.75685 1.19368 0
M  V30 4013 H 387.721 -0.81756 0.479896 0
M  V30 4014 H 387.427 -3.28932 1.24485 0
M  V30 4015 H 387.301 -3.74568 -0.444833 0
M  V30 4016 H 389.688 -2.83179 -0.830277 0
M  V30 4017 H 389.769 -2.40045 0.883845 0
M  V30 4018 H 389.413 -4.85396 1.4951 0
M  V30 4019 H 389.343 -5.26062 -0.23797 0
M  V30 4020 H 391.834 -3.77179 0.233374 0
M  V30 4021 H 392.147 -7.64935 1.09977 0
M  V30 4022 H 390.492 -6.88025 0.982175 0
M  V30 4023 H 393.683 -4.66611 0.373123 0
M  V30 4024 H 393.856 -6.43433 0.767981 0
M  V30 4025 N 387.262 0.0317525 -1.57568 0
M  V30 4026 C 388.172 1.05021 -2.0978 0
M  V30 4027 C 389.188 1.39809 -1.03583 0
M  V30 4028 O 390.364 1.49182 -1.35302 0
M  V30 4029 C 387.429 2.33301 -2.56459 0
M  V30 4030 C 386.49 2.0512 -3.77127 0
M  V30 4031 C 385.723 3.27283 -4.2157 0
M  V30 4032 O 385.946 4.37861 -3.65559 0
M  V30 4033 O 384.88 3.13141 -5.14029 0
M  V30 4034 H 388.706 0.636505 -2.96955 0
M  V30 4035 H 386.291 0.248559 -1.47318 0
M  V30 4036 H 388.173 3.08722 -2.86825 0
M  V30 4037 H 386.848 2.73973 -1.72397 0
M  V30 4038 H 385.755 1.27276 -3.51784 0
M  V30 4039 H 387.088 1.69305 -4.62165 0
M  V30 4040 N 388.74 1.54641 0.303973 0
M  V30 4041 C 389.703 1.84646 1.35789 0
M  V30 4042 C 390.703 0.7192 1.4382 0
M  V30 4043 O 391.893 0.987491 1.43507 0
M  V30 4044 C 389.025 2.02407 2.74307 0
M  V30 4045 H 390.218 2.78829 1.10429 0
M  V30 4046 H 387.771 1.46658 0.540487 0
M  V30 4047 H 388.506 1.10502 3.04893 0
M  V30 4048 H 388.291 2.84453 2.69868 0
M  V30 4049 H 389.781 2.27002 3.50514 0
M  V30 4050 N 390.218 -0.567019 1.47046 0
M  V30 4051 C 391.495 -1.3276 1.43646 0
M  V30 4052 C 391.875 -2.1071 0.128186 0
M  V30 4053 O 391.223 -2.10441 -0.890326 0
M  V30 4054 C 391.433 -2.2404 2.67595 0
M  V30 4055 C 392.781 -2.85372 3.14401 0
M  V30 4056 O 393.805 -2.34346 2.68254 0
M  V30 4057 O 392.664 -3.78091 3.946 0
M  V30 4058 H 389.758 -0.597293 0.571988 0
M  V30 4059 H 392.304 -0.586735 1.59234 0
M  V30 4060 H 391.076 -1.65975 3.54356 0
M  V30 4061 H 390.699 -3.05439 2.54544 0
M  V30 4062 N 391.696 -1.35014 -0.812953 0
M  V30 4063 C 393.107 -1.25035 -1.38648 0
M  V30 4064 C 393.458 0.119967 -1.95833 0
M  V30 4065 O 392.583 1.02069 -1.90816 0
M  V30 4066 C 393.178 -2.26394 -2.52054 0
M  V30 4067 C 391.737 -2.20175 -3.05287 0
M  V30 4068 C 390.884 -2.12451 -1.78213 0
M  V30 4069 H 393.835 -1.46235 -0.616516 0
M  V30 4070 H 393.856 -1.88672 -3.30429 0
M  V30 4071 H 393.368 -3.26116 -2.10404 0
M  V30 4072 H 391.469 -1.23841 -3.51417 0
M  V30 4073 H 391.582 -3.11863 -3.63701 0
M  V30 4074 H 389.946 -1.58328 -1.9951 0
M  V30 4075 H 390.729 -3.14024 -1.38723 0
M  V30 4076 N 393.175 1.03435 -1.18907 0
M  V30 4077 C 394.138 2.09756 -0.923844 0
M  V30 4078 C 395.138 1.60528 0.093416 0
M  V30 4079 O 396.328 1.73631 -0.140727 0
M  V30 4080 C 393.46 3.38692 -0.387354 0
M  V30 4081 H 394.653 2.34719 -1.86674 0
M  V30 4082 H 392.206 1.19959 -1.00197 0
M  V30 4083 H 392.941 3.19396 0.561845 0
M  V30 4084 H 392.726 3.75742 -1.12074 0
M  V30 4085 H 394.216 4.17016 -0.220694 0
M  V30 4086 N 394.653 0.992116 1.22453 0
M  V30 4087 C 395.583 0.561677 2.26644 0
M  V30 4088 C 396.564 -0.411055 1.65059 0
M  V30 4089 O 397.749 -0.301861 1.9184 0
M  V30 4090 C 394.879 -0.125247 3.47074 0
M  V30 4091 C 393.833 0.765948 4.21091 0
M  V30 4092 C 393.159 -0.0538484 5.34673 0
M  V30 4093 C 394.459 2.06242 4.79856 0
M  V30 4094 H 396.153 1.43259 2.62902 0
M  V30 4095 H 393.699 0.690283 1.26377 0
M  V30 4096 H 395.652 -0.437764 4.1912 0
M  V30 4097 H 394.376 -1.03069 3.0991 0
M  V30 4098 H 393.035 1.0621 3.50878 0
M  V30 4099 H 392.683 -0.960188 4.9375 0
M  V30 4100 H 392.383 0.539415 5.85119 0
M  V30 4101 H 393.907 -0.360477 6.09535 0
M  V30 4102 H 395.321 1.8139 5.43848 0
M  V30 4103 H 393.718 2.60444 5.40638 0
M  V30 4104 H 394.788 2.74167 3.99951 0
M  V30 4105 N 396.131 -1.37776 0.765217 0
M  V30 4106 C 397.079 -2.32209 0.134798 0
M  V30 4107 C 398.073 -1.54607 -0.692315 0
M  V30 4108 O 399.279 -1.70052 -0.590109 0
M  V30 4109 H 395.654 -0.751591 0.0248005 0
M  V30 4110 H 397.625 -2.8297 0.947119 0
M  V30 4111 C 396.374 -3.39841 -0.735063 0
M  V30 4112 H 395.697 -3.99654 -0.107991 0
M  V30 4113 H 397.137 -4.08296 -1.14326 0
M  V30 4114 C 395.596 -2.79378 -1.88281 0
M  V30 4115 O 396.126 -2.69608 -2.97783 0
M  V30 4116 N 394.332 -2.37016 -1.68142 0
M  V30 4117 H 393.879 -2.45162 -0.790772 0
M  V30 4118 H 393.837 -1.96905 -2.45104 0
M  V30 4119 N 397.609 -0.515225 -1.4894 0
M  V30 4120 C 398.855 0.0242508 -2.02785 0
M  V30 4121 C 399.188 1.35323 -1.39289 0
M  V30 4122 O 398.463 1.87041 -0.533469 0
M  V30 4123 C 398.746 0.16184 -3.59736 0
M  V30 4124 C 398.599 -1.19127 -4.33738 0
M  V30 4125 C 399.918 0.895719 -4.30888 0
M  V30 4126 H 397.037 0.00733914 -0.736963 0
M  V30 4127 H 399.679 -0.669395 -1.77818 0
M  V30 4128 H 397.829 0.752624 -3.8114 0
M  V30 4129 H 399.501 -1.82202 -4.23792 0
M  V30 4130 H 397.744 -1.77695 -3.95736 0
M  V30 4131 H 398.415 -1.04815 -5.41957 0
M  V30 4132 H 400.891 0.394528 -4.14225 0
M  V30 4133 H 399.767 0.960859 -5.40425 0
M  V30 4134 H 400.028 1.9427 -3.97129 0
M  V30 4135 N 399.087 1.5561 -0.249682 0
M  V30 4136 C 399.997 2.25143 0.659375 0
M  V30 4137 C 401.013 1.2685 1.19101 0
M  V30 4138 O 402.189 1.59732 1.22669 0
M  V30 4139 C 399.254 2.93945 1.8384 0
M  V30 4140 C 398.315 4.07655 1.34596 0
M  V30 4141 C 397.548 4.73167 2.46878 0
M  V30 4142 O 397.771 4.37768 3.65671 0
M  V30 4143 O 396.705 5.61623 2.16478 0
M  V30 4144 H 400.531 3.03545 0.0968698 0
M  V30 4145 H 398.116 1.49389 -0.018074 0
M  V30 4146 H 399.998 3.37271 2.52638 0
M  V30 4147 H 398.673 2.18481 2.38847 0
M  V30 4148 H 397.58 3.68839 0.625174 0
M  V30 4149 H 398.913 4.84946 0.841941 0
M  V30 4150 N 400.565 -0.0233959 1.57583 0
M  V30 4151 C 401.793 -0.724682 1.93794 0
M  V30 4152 C 402.208 -1.68588 0.849912 0
M  V30 4153 O 401.565 -1.81676 -0.173204 0
M  V30 4154 C 401.616 -1.47684 3.29957 0
M  V30 4155 O 401.337 -0.554222 4.3458 0
M  V30 4156 C 402.838 -2.27477 3.80485 0
M  V30 4157 H 400.058 -0.203317 0.639455 0
M  V30 4158 H 402.602 0.0207653 2.04489 0
M  V30 4159 H 400.757 -2.17412 3.20641 0
M  V30 4160 H 401.171 -1.08232 5.13212 0
M  V30 4161 H 402.645 -2.7564 4.78254 0
M  V30 4162 H 403.122 -3.09144 3.11972 0
M  V30 4163 H 403.728 -1.62813 3.92902 0
M  V30 4164 N 402.043 -1.548 -0.295768 0
M  V30 4165 C 402.953 -1.89177 -1.38742 0
M  V30 4166 C 403.969 -0.786481 -1.55211 0
M  V30 4167 O 405.145 -1.08344 -1.69775 0
M  V30 4168 C 402.21 -2.13663 -2.73036 0
M  V30 4169 C 401.271 -3.37349 -2.65508 0
M  V30 4170 C 400.504 -3.60658 -3.93398 0
M  V30 4171 O 400.727 -2.86882 -4.93006 0
M  V30 4172 O 399.661 -4.54179 -3.94975 0
M  V30 4173 H 403.487 -2.82059 -1.12589 0
M  V30 4174 H 401.072 -1.41056 -0.492295 0
M  V30 4175 H 402.954 -2.3094 -3.52484 0
M  V30 4176 H 401.629 -1.23967 -2.99022 0
M  V30 4177 H 400.536 -3.25431 -1.84514 0
M  V30 4178 H 401.869 -4.27192 -2.44474 0
M  V30 4179 N 403.521 0.559213 -1.47345 0
M  V30 4180 C 404.77 1.31281 -1.53128 0
M  V30 4181 C 405.083 1.94602 -0.197344 0
M  V30 4182 O 406.289 2.71173 -0.133154 0
M  V30 4183 C 404.745 2.38051 -2.69925 0
M  V30 4184 C 404.353 1.8093 -4.0984 0
M  V30 4185 C 406.097 3.14604 -2.84999 0
M  V30 4186 C 404.004 2.85468 -5.1794 0
M  V30 4187 H 402.934 0.493614 -0.569966 0
M  V30 4188 H 405.585 0.594155 -1.73615 0
M  V30 4189 H 403.967 3.12822 -2.42814 0
M  V30 4190 H 405.141 1.12544 -4.46845 0
M  V30 4191 H 403.456 1.16967 -3.99634 0
M  V30 4192 H 406.053 3.92666 -3.62929 0
M  V30 4193 H 406.396 3.68665 -1.93369 0
M  V30 4194 H 406.929 2.46945 -3.1187 0
M  V30 4195 H 403.668 2.36264 -6.1144 0
M  V30 4196 H 403.188 3.52269 -4.85455 0
M  V30 4197 H 404.867 3.48996 -5.44803 0
M  V30 4198 N 404.999 1.35443 0.805782 0
M  V30 4199 C 405.909 1.30546 1.94923 0
M  V30 4200 C 406.925 0.210233 1.72725 0
M  V30 4201 O 408.101 0.43975 1.9654 0
M  V30 4202 C 405.166 1.07782 3.29521 0
M  V30 4203 C 404.227 2.26625 3.64609 0
M  V30 4204 C 403.46 2.04938 4.92784 0
M  V30 4205 O 403.683 1.01624 5.61274 0
M  V30 4206 O 402.617 2.9232 5.26149 0
M  V30 4207 H 406.443 2.26779 2.02002 0
M  V30 4208 H 404.028 1.15823 0.943682 0
M  V30 4209 H 405.91 0.969392 4.10098 0
M  V30 4210 H 404.585 0.146003 3.23371 0
M  V30 4211 H 403.492 2.43033 2.84404 0
M  V30 4212 H 404.825 3.18257 3.75464 0
M  V30 4213 N 406.477 -1.02803 1.19454 0
M  V30 4214 C 407.726 -1.7562 0.991996 0
M  V30 4215 C 408.039 -1.89672 -0.477901 0
M  V30 4216 O 409.245 -2.59468 -0.799287 0
M  V30 4217 C 407.701 -3.15812 1.72601 0
M  V30 4218 C 407.309 -3.0981 3.23607 0
M  V30 4219 C 409.053 -3.92918 1.60674 0
M  V30 4220 C 406.96 -4.44939 3.89594 0
M  V30 4221 H 405.89 -0.658352 0.367543 0
M  V30 4222 H 408.541 -1.15044 1.42959 0
M  V30 4223 H 406.923 -3.7686 1.21624 0
M  V30 4224 H 408.097 -2.58138 3.81709 0
M  V30 4225 H 406.412 -2.46201 3.35819 0
M  V30 4226 H 409.009 -4.9287 2.07323 0
M  V30 4227 H 409.352 -4.12502 0.561025 0
M  V30 4228 H 409.885 -3.38472 2.09001 0
M  V30 4229 H 406.624 -4.30559 4.94267 0
M  V30 4230 H 406.144 -4.96664 3.36281 0
M  V30 4231 H 407.823 -5.1382 3.93189 0
M  V30 4232 N 407.956 -0.998596 -1.21925 0
M  V30 4233 C 408.886 -0.573688 -2.26343 0
M  V30 4234 C 409.867 0.402296 -1.65274 0
M  V30 4235 O 411.052 0.291683 -1.91997 0
M  V30 4236 C 408.182 0.106839 -3.47136 0
M  V30 4237 C 407.136 -0.788269 -4.20678 0
M  V30 4238 C 406.462 0.0254927 -5.34694 0
M  V30 4239 C 407.762 -2.08784 -4.78755 0
M  V30 4240 H 409.456 -1.44651 -2.62138 0
M  V30 4241 H 407.002 -0.696975 -1.26009 0
M  V30 4242 H 408.955 0.415531 -4.19346 0
M  V30 4243 H 407.679 1.01424 -3.10452 0
M  V30 4244 H 406.338 -1.08069 -3.50309 0
M  V30 4245 H 405.986 0.933989 -4.94253 0
M  V30 4246 H 405.686 -0.570437 -5.84825 0
M  V30 4247 H 407.21 0.328147 -6.09718 0
M  V30 4248 H 408.624 -1.84272 -5.42878 0
M  V30 4249 H 407.021 -2.63307 -5.39249 0
M  V30 4250 H 408.091 -2.76284 -3.98491 0
M  V30 4251 N 409.434 1.37368 -0.772513 0
M  V30 4252 C 410.381 2.30262 -0.157488 0
M  V30 4253 C 411.351 1.51137 0.688965 0
M  V30 4254 O 412.536 1.79704 0.641168 0
M  V30 4255 C 409.676 3.37611 0.715045 0
M  V30 4256 C 408.789 4.31746 -0.148098 0
M  V30 4257 C 407.924 5.26171 0.729213 0
M  V30 4258 C 406.963 6.11948 -0.136418 0
M  V30 4259 N 406.1 6.98613 0.698914 0
M  V30 4260 H 410.94 2.82277 -0.955179 0
M  V30 4261 H 408.477 1.38957 -0.482631 0
M  V30 4262 H 410.435 3.98479 1.23575 0
M  V30 4263 H 409.065 2.86959 1.47833 0
M  V30 4264 H 408.117 3.72178 -0.786613 0
M  V30 4265 H 409.429 4.92084 -0.81579 0
M  V30 4266 H 408.583 5.92247 1.31637 0
M  V30 4267 H 407.322 4.66246 1.43059 0
M  V30 4268 H 406.327 5.4485 -0.736102 0
M  V30 4269 H 407.552 6.73945 -0.835134 0
M  V30 4270 H 405.498 6.41215 1.38489 0
M  V30 4271 H 405.415 7.55948 0.0885358 0
M  V30 4272 H 406.683 7.69077 1.27044 0
M  V30 4273 N 410.912 0.523116 1.48665 0
M  V30 4274 C 411.859 -0.243398 2.29513 0
M  V30 4275 C 412.829 -0.940139 1.36933 0
M  V30 4276 O 414.014 -0.942503 1.65896 0
M  V30 4277 C 411.154 -1.28855 3.20141 0
M  V30 4278 C 410.267 -0.60135 4.27794 0
M  V30 4279 C 409.402 -1.62884 5.05611 0
M  V30 4280 C 408.441 -0.924726 6.05075 0
M  V30 4281 N 407.578 -1.89744 6.75975 0
M  V30 4282 H 412.418 0.452234 2.94549 0
M  V30 4283 H 409.955 0.234858 1.45213 0
M  V30 4284 H 411.913 -1.90674 3.71079 0
M  V30 4285 H 410.543 -1.95266 2.57043 0
M  V30 4286 H 409.595 0.130623 3.80176 0
M  V30 4287 H 410.907 -0.0481585 4.98777 0
M  V30 4288 H 410.061 -2.32149 5.60528 0
M  V30 4289 H 408.8 -2.21592 4.34452 0
M  V30 4290 H 407.805 -0.217966 5.49368 0
M  V30 4291 H 409.03 -0.343851 6.78229 0
M  V30 4292 H 406.976 -2.47373 6.07571 0
M  V30 4293 H 406.893 -1.3955 7.43009 0
M  V30 4294 H 408.161 -2.58229 7.35485 0
M  V30 4295 N 412.39 -1.55475 0.257931 0
M  V30 4296 C 413.32 -2.24815 -0.630912 0
M  V30 4297 C 414.301 -1.23224 -1.17259 0
M  V30 4298 O 415.486 -1.51904 -1.20991 0
M  V30 4299 C 412.616 -2.95609 -1.82298 0
M  V30 4300 C 411.57 -4.03982 -1.41359 0
M  V30 4301 C 410.896 -4.6226 -2.68738 0
M  V30 4302 C 412.196 -5.19109 -0.57648 0
M  V30 4303 H 413.89 -2.99354 -0.0526878 0
M  V30 4304 H 411.436 -1.4398 -0.023901 0
M  V30 4305 H 413.389 -3.42822 -2.45054 0
M  V30 4306 H 412.113 -2.18577 -2.42676 0
M  V30 4307 H 410.772 -3.57555 -0.809324 0
M  V30 4308 H 410.42 -3.81915 -3.27338 0
M  V30 4309 H 410.12 -5.35424 -2.42065 0
M  V30 4310 H 411.644 -5.12212 -3.32372 0
M  V30 4311 H 413.058 -5.62479 -1.10861 0
M  V30 4312 H 411.455 -5.98729 -0.405351 0
M  V30 4313 H 412.525 -4.83174 0.408776 0
M  V30 4314 N 413.868 0.0150385 -1.57593 0
M  V30 4315 C 414.816 1.02958 -2.08572 0
M  V30 4316 C 415.81 1.36554 -1.00246 0
M  V30 4317 O 417.016 1.35295 -1.18724 0
M  V30 4318 H 413.391 0.349619 -0.665786 0
M  V30 4319 H 415.362 0.573932 -2.92829 0
M  V30 4320 C 414.111 2.31752 -2.59203 0
M  V30 4321 H 413.434 2.06765 -3.42182 0
M  V30 4322 H 414.874 3.01053 -2.98568 0
M  V30 4323 C 413.333 3.01692 -1.49945 0
M  V30 4324 O 413.863 3.92083 -0.873704 0
M  V30 4325 N 412.069 2.6326 -1.23056 0
M  V30 4326 H 411.616 1.89838 -1.74125 0
M  V30 4327 H 411.574 3.10372 -0.501685 0
M  V30 4328 N 415.346 1.54954 0.287554 0
M  V30 4329 C 416.296 1.8322 1.357 0
M  V30 4330 C 417.28 0.690152 1.45347 0
M  V30 4331 O 418.472 0.951137 1.49273 0
M  V30 4332 C 415.601 2.09481 2.71979 0
M  V30 4333 C 414.687 3.29906 2.66502 0
M  V30 4334 N 415.078 4.50154 2.30641 0
M  V30 4335 C 413.376 3.32203 2.97585 0
M  V30 4336 C 414.077 5.32209 2.34794 0
M  V30 4337 N 413.053 4.70258 2.72688 0
M  V30 4338 H 416.855 2.73746 1.0696 0
M  V30 4339 H 414.369 1.54635 0.496167 0
M  V30 4340 H 416.366 2.27882 3.49107 0
M  V30 4341 H 415.026 1.2023 3.0162 0
M  V30 4342 H 416.037 4.76515 2.02865 0
M  V30 4343 H 412.714 2.53101 3.32034 0
M  V30 4344 H 414.104 6.38321 2.09753 0
M  V30 4345 N 416.824 -0.551391 1.4764 0
M  V30 4346 C 418.235 -1.13349 1.48354 0
M  V30 4347 C 418.586 -1.94709 0.241432 0
M  V30 4348 O 417.711 -2.06306 -0.653205 0
M  V30 4349 C 418.306 -2.0623 2.68802 0
M  V30 4350 C 416.865 -2.597 2.72457 0
M  V30 4351 C 416.012 -1.36201 2.41546 0
M  V30 4352 H 418.963 -0.337698 1.55065 0
M  V30 4353 H 418.984 -2.90196 2.46103 0
M  V30 4354 H 418.496 -1.46987 3.59188 0
M  V30 4355 H 416.597 -3.22724 1.86225 0
M  V30 4356 H 416.71 -3.00296 3.73308 0
M  V30 4357 H 415.074 -1.67068 1.9225 0
M  V30 4358 H 415.857 -0.787425 3.34147 0
M  V30 4359 N 418.302 -1.35869 -0.798587 0
M  V30 4360 C 419.542 -1.30961 -1.56935 0
M  V30 4361 C 419.906 0.112404 -1.91671 0
M  V30 4362 O 421.107 0.285937 -2.67275 0
M  V30 4363 C 419.378 -2.19811 -2.81811 0
M  V30 4364 S 420.937 -2.32498 -3.72143 0
M  V30 4365 H 417.755 -0.465297 -0.537606 0
M  V30 4366 H 420.357 -1.71344 -0.941346 0
M  V30 4367 H 419.061 -3.22095 -2.54329 0
M  V30 4368 H 418.592 -1.80415 -3.49591 0
M  V30 4369 H 420.607 -1.5157 -4.72484 0
M  V30 4370 N 419.78 1.02168 -1.19998 0
M  V30 4371 C 421.029 1.75091 -1.0013 0
M  V30 4372 C 421.342 1.89923 0.467835 0
M  V30 4373 O 422.548 2.59888 0.785515 0
M  V30 4374 C 421.004 3.14892 -1.74273 0
M  V30 4375 C 420.612 3.0809 -3.25245 0
M  V30 4376 C 422.356 3.9206 -1.62755 0
M  V30 4377 C 420.263 4.42867 -3.91948 0
M  V30 4378 H 419.193 0.656394 -0.37103 0
M  V30 4379 H 421.844 1.14284 -1.43567 0
M  V30 4380 H 420.226 3.7621 -1.2362 0
M  V30 4381 H 421.4 2.5611 -3.83072 0
M  V30 4382 H 419.715 2.44416 -3.3712 0
M  V30 4383 H 422.312 4.91764 -2.09934 0
M  V30 4384 H 422.655 4.12199 -0.582894 0
M  V30 4385 H 423.188 3.37359 -2.10793 0
M  V30 4386 H 419.927 4.27931 -4.96543 0
M  V30 4387 H 419.447 4.94874 -3.3891 0
M  V30 4388 H 421.126 5.11728 -3.95909 0
M  V30 4389 N 421.258 1.00505 1.21394 0
M  V30 4390 C 422.507 0.683159 1.89778 0
M  V30 4391 C 422.82 -0.789471 1.7896 0
M  V30 4392 O 424.026 -1.22344 2.42372 0
M  V30 4393 C 422.482 1.17146 3.40301 0
M  V30 4394 C 422.09 2.67017 3.5973 0
M  V30 4395 C 423.834 0.924461 4.14311 0
M  V30 4396 C 421.741 3.09387 5.04017 0
M  V30 4397 H 420.671 0.25183 0.710702 0
M  V30 4398 H 423.322 1.21622 1.37406 0
M  V30 4399 H 421.704 0.566451 3.91928 0
M  V30 4400 H 422.878 3.32968 3.18542 0
M  V30 4401 H 421.193 2.89732 2.99073 0
M  V30 4402 H 423.79 1.21658 5.20676 0
M  V30 4403 H 424.133 -0.139286 4.16067 0
M  V30 4404 H 424.666 1.49226 3.6875 0
M  V30 4405 H 421.405 4.14989 5.07409 0
M  V30 4406 H 420.925 2.48149 5.46061 0
M  V30 4407 H 422.604 3.01371 5.72525 0
M  V30 4408 N 422.737 -1.36956 0.779787 0
M  V30 4409 C 423.684 -2.30175 0.169697 0
M  V30 4410 C 424.654 -1.51501 -0.68094 0
M  V30 4411 O 425.839 -1.80042 -0.631629 0
M  V30 4412 C 422.979 -3.37985 -0.697131 0
M  V30 4413 C 422.092 -4.31661 0.170992 0
M  V30 4414 C 421.227 -5.2655 -0.701298 0
M  V30 4415 C 420.266 -6.11867 0.168869 0
M  V30 4416 N 419.403 -6.98973 -0.661855 0
M  V30 4417 H 424.243 -2.81767 0.970135 0
M  V30 4418 H 421.78 -1.38699 0.489994 0
M  V30 4419 H 423.738 -3.99128 -1.2146 0
M  V30 4420 H 422.368 -2.87739 -1.46309 0
M  V30 4421 H 421.42 -3.71756 0.80634 0
M  V30 4422 H 422.732 -4.91644 0.841875 0
M  V30 4423 H 421.886 -5.92937 -1.28494 0
M  V30 4424 H 420.625 -4.66998 -1.40584 0
M  V30 4425 H 419.63 -5.44452 0.764986 0
M  V30 4426 H 420.855 -6.73493 0.870863 0
M  V30 4427 H 418.801 -6.41941 -1.35086 0
M  V30 4428 H 418.718 -7.55984 -0.0484447 0
M  V30 4429 H 419.986 -7.6974 -1.22963 0
M  V30 4430 N 424.215 -0.530993 -1.48385 0
M  V30 4431 C 425.464 0.00474348 -2.01699 0
M  V30 4432 C 425.777 1.35227 -1.41325 0
M  V30 4433 O 426.983 1.97643 -1.86144 0
M  V30 4434 C 425.439 0.0588473 -3.59852 0
M  V30 4435 C 425.047 -1.28385 -4.2921 0
M  V30 4436 C 426.791 0.543358 -4.21008 0
M  V30 4437 C 424.698 -1.19028 -5.79298 0
M  V30 4438 H 423.628 0.00554317 -0.75398 0
M  V30 4439 H 426.279 -0.674924 -1.70637 0
M  V30 4440 H 424.661 0.803612 -3.8776 0
M  V30 4441 H 425.835 -2.04426 -4.12973 0
M  V30 4442 H 424.15 -1.70418 -3.7993 0
M  V30 4443 H 426.747 0.631351 -5.3096 0
M  V30 4444 H 427.09 1.54937 -3.86394 0
M  V30 4445 H 427.623 -0.145754 -3.97533 0
M  V30 4446 H 424.362 -2.17147 -6.18488 0
M  V30 4447 H 423.882 -0.471246 -5.97946 0
M  V30 4448 H 425.561 -0.881365 -6.40969 0
M  V30 4449 N 425.693 1.55336 -0.266172 0
M  V30 4450 C 426.64 2.22172 0.625165 0
M  V30 4451 C 427.61 1.19211 1.15663 0
M  V30 4452 O 428.795 1.47723 1.20758 0
M  V30 4453 C 425.935 2.93972 1.8076 0
M  V30 4454 C 425.048 4.11632 1.31084 0
M  V30 4455 C 424.183 4.71099 2.45436 0
M  V30 4456 C 423.222 5.8097 1.92718 0
M  V30 4457 N 422.359 6.34538 3.00509 0
M  V30 4458 H 427.199 2.9796 0.0485582 0
M  V30 4459 H 424.736 1.47095 0.0122024 0
M  V30 4460 H 426.694 3.33811 2.50251 0
M  V30 4461 H 425.324 2.20623 2.35638 0
M  V30 4462 H 424.376 3.76975 0.509326 0
M  V30 4463 H 425.688 4.90893 0.884633 0
M  V30 4464 H 424.842 5.13612 3.22936 0
M  V30 4465 H 423.581 3.91096 2.91368 0
M  V30 4466 H 422.586 5.37916 1.13695 0
M  V30 4467 H 423.811 6.62836 1.47733 0
M  V30 4468 H 421.757 5.57433 3.45839 0
M  V30 4469 H 421.674 7.09046 2.62279 0
M  V30 4470 H 422.942 6.81709 3.78011 0
M  V30 4471 N 427.171 -0.0066808 1.57599 0
M  V30 4472 C 428.119 -1.01851 2.09115 0
M  V30 4473 C 429.113 -1.36021 1.00969 0
M  V30 4474 O 430.319 -1.34663 1.19439 0
M  V30 4475 H 426.694 -0.346083 0.667631 0
M  V30 4476 H 428.665 -0.558394 2.93129 0
M  V30 4477 C 427.414 -2.30374 2.60429 0
M  V30 4478 H 426.737 -2.04947 3.43273 0
M  V30 4479 H 428.177 -2.99466 3.00161 0
M  V30 4480 C 426.636 -3.00893 1.51542 0
M  V30 4481 O 427.166 -3.91614 0.894484 0
M  V30 4482 N 425.372 -2.62603 1.2445 0
M  V30 4483 H 424.919 -1.88911 1.75129 0
M  V30 4484 H 424.877 -3.10101 0.518137 0
M  V30 4485 N 428.649 -1.55105 -0.279332 0
M  V30 4486 C 429.896 -1.75412 -1.01177 0
M  V30 4487 C 430.224 -0.551728 -1.86511 0
M  V30 4488 O 429.479 0.465919 -1.90073 0
M  V30 4489 C 429.778 -3.0086 -1.92919 0
M  V30 4490 C 429.444 -4.33689 -1.23387 0
M  V30 4491 C 428.106 -4.69792 -1.04159 0
M  V30 4492 C 430.458 -5.15941 -0.738562 0
M  V30 4493 C 427.786 -5.85707 -0.341166 0
M  V30 4494 C 430.138 -6.32579 -0.0517636 0
M  V30 4495 C 428.802 -6.67326 0.152292 0
M  V30 4496 H 428.072 -0.641879 -0.370233 0
M  V30 4497 H 430.719 -1.89373 -0.284627 0
M  V30 4498 H 429.024 -2.81773 -2.72234 0
M  V30 4499 H 430.721 -3.13768 -2.49701 0
M  V30 4500 H 427.311 -4.05309 -1.39364 0
M  V30 4501 H 431.495 -4.8853 -0.874764 0
M  V30 4502 H 426.751 -6.11157 -0.172287 0
M  V30 4503 H 430.925 -6.9557 0.339828 0
M  V30 4504 H 428.552 -7.56998 0.697014 0
M  V30 4505 N 430.127 0.543554 -1.4793 0
M  V30 4506 C 431.374 1.30008 -1.55255 0
M  V30 4507 C 431.702 1.93245 -0.220612 0
M  V30 4508 O 430.957 1.79141 0.787843 0
M  V30 4509 C 431.256 2.42078 -2.62932 0
M  V30 4510 C 430.922 1.96583 -4.0579 0
M  V30 4511 C 429.584 1.83893 -4.44676 0
M  V30 4512 C 431.936 1.62034 -4.95373 0
M  V30 4513 C 429.264 1.34969 -5.70964 0
M  V30 4514 C 431.616 1.14577 -6.22137 0
M  V30 4515 C 430.28 1.00493 -6.59892 0
M  V30 4516 H 429.55 0.475735 -0.568117 0
M  V30 4517 H 432.197 0.608075 -1.81589 0
M  V30 4518 H 430.502 3.16892 -2.30406 0
M  V30 4519 H 432.199 3.00236 -2.65818 0
M  V30 4520 H 428.789 2.07407 -3.75074 0
M  V30 4521 H 432.973 1.70705 -4.66019 0
M  V30 4522 H 428.229 1.2274 -5.98953 0
M  V30 4523 H 432.403 0.869109 -6.90955 0
M  V30 4524 H 430.03 0.623624 -7.57638 0
M  V30 4525 N 431.605 1.3629 0.791371 0
M  V30 4526 C 432.882 1.20962 1.53712 0
M  V30 4527 C 433.262 -0.205021 2.10102 0
M  V30 4528 O 432.61 -1.21042 1.93807 0
M  V30 4529 C 432.82 2.29002 2.63361 0
M  V30 4530 C 434.168 2.65572 3.31295 0
M  V30 4531 O 435.192 2.2803 2.73643 0
M  V30 4532 O 434.051 3.3018 4.35481 0
M  V30 4533 H 431.145 0.47086 0.679867 0
M  V30 4534 H 433.691 1.48016 0.830021 0
M  V30 4535 H 432.463 3.2382 2.19674 0
M  V30 4536 H 432.086 2.03303 3.41692 0
M  V30 4537 N 433.083 -1.0153 1.20538 0
M  V30 4538 C 434.046 -2.0826 0.957098 0
M  V30 4539 C 435.046 -1.60657 -0.0678655 0
M  V30 4540 O 436.236 -1.73385 0.168332 0
M  V30 4541 C 433.368 -3.38033 0.441188 0
M  V30 4542 H 434.561 -2.31719 1.90384 0
M  V30 4543 H 432.114 -1.1835 1.02093 0
M  V30 4544 H 432.849 -3.20249 -0.510961 0
M  V30 4545 H 432.634 -3.73911 1.18038 0
M  V30 4546 H 434.124 -4.16613 0.287009 0
M  V30 4547 N 434.561 -1.01147 -1.20859 0
M  V30 4548 C 435.471 -0.58686 -2.27141 0
M  V30 4549 C 436.487 0.373198 -1.69951 0
M  V30 4550 O 437.663 0.235423 -2.00019 0
M  V30 4551 C 434.728 0.0733602 -3.46622 0
M  V30 4552 C 433.789 -0.931995 -4.19061 0
M  V30 4553 C 433.022 -0.303186 -5.32838 0
M  V30 4554 O 433.245 0.898395 -5.63281 0
M  V30 4555 O 432.179 -1.01735 -5.9324 0
M  V30 4556 H 436.005 -1.47155 -2.65667 0
M  V30 4557 H 433.59 -0.780689 -1.2738 0
M  V30 4558 H 435.472 0.442333 -4.19072 0
M  V30 4559 H 434.147 0.932329 -3.09983 0
M  V30 4560 H 433.054 -1.35224 -3.48805 0
M  V30 4561 H 434.387 -1.76076 -4.59628 0
M  V30 4562 N 436.039 1.36541 -0.78704 0
M  V30 4563 C 437.316 1.9355 -0.282424 0
M  V30 4564 C 437.696 1.71919 1.22503 0
M  V30 4565 O 437.044 1.07677 2.01539 0
M  V30 4566 C 437.254 3.4246 -0.672462 0
M  V30 4567 C 438.602 4.19582 -0.650863 0
M  V30 4568 O 439.626 3.50889 -0.612789 0
M  V30 4569 O 438.485 5.42106 -0.691623 0
M  V30 4570 H 435.579 0.824091 -0.0693 0
M  V30 4571 H 438.125 1.45736 -0.869423 0
M  V30 4572 H 436.897 3.51851 -1.71221 0
M  V30 4573 H 436.52 3.97556 -0.0592211 0
M  V30 4574 N 437.518 0.538854 1.48102 0
M  V30 4575 C 438.748 0.0122958 2.06596 0
M  V30 4576 C 439.156 -1.27861 1.39457 0
M  V30 4577 O 438.499 -1.77348 0.478907 0
M  V30 4578 C 438.561 -0.273131 3.58461 0
M  V30 4579 C 438.225 0.92561 4.47528 0
M  V30 4580 C 439.222 1.82637 4.86765 0
M  V30 4581 C 436.907 1.13511 4.89306 0
M  V30 4582 C 438.901 2.92047 5.66558 0
M  V30 4583 C 436.588 2.23233 5.68868 0
M  V30 4584 C 437.586 3.12333 6.07402 0
M  V30 4585 O 437.274 4.20155 6.85365 0
M  V30 4586 H 437.006 0.0344283 0.675123 0
M  V30 4587 H 439.56 0.746494 1.91355 0
M  V30 4588 H 437.79 -1.06141 3.71848 0
M  V30 4589 H 439.479 -0.742842 3.99045 0
M  V30 4590 H 440.245 1.67649 4.55103 0
M  V30 4591 H 436.124 0.450835 4.5879 0
M  V30 4592 H 439.668 3.6162 5.96554 0
M  V30 4593 H 435.565 2.38201 5.99942 0
M  V30 4594 H 436.333 4.17975 7.03732 0
M  V30 4595 N 438.996 -1.55193 0.274407 0
M  V30 4596 C 440.226 -2.03692 -0.345442 0
M  V30 4597 C 440.634 -1.15224 -1.50067 0
M  V30 4598 O 439.977 -0.164749 -1.8296 0
M  V30 4599 C 440.039 -3.48325 -0.88939 0
M  V30 4600 C 439.703 -4.56794 0.137115 0
M  V30 4601 C 440.7 -5.11028 0.956378 0
M  V30 4602 C 438.385 -5.01568 0.27115 0
M  V30 4603 C 440.379 -6.08552 1.89587 0
M  V30 4604 C 438.066 -5.98918 1.21412 0
M  V30 4605 C 439.064 -6.52291 2.02498 0
M  V30 4606 O 438.752 -7.47738 2.952 0
M  V30 4607 H 438.484 -0.670893 -0.0829332 0
M  V30 4608 H 441.038 -2.01387 0.404056 0
M  V30 4609 H 439.268 -3.47867 -1.68895 0
M  V30 4610 H 440.957 -3.80167 -1.42225 0
M  V30 4611 H 441.723 -4.7725 0.863559 0
M  V30 4612 H 437.602 -4.5967 -0.349987 0
M  V30 4613 H 441.146 -6.50137 2.52918 0
M  V30 4614 H 437.043 -6.32114 1.30776 0
M  V30 4615 H 437.811 -7.65451 2.89874 0
M  V30 4616 N 440.474 -0.00167713 -1.576 0
M  V30 4617 C 441.723 0.682021 -1.89819 0
M  V30 4618 C 442.036 1.74844 -0.876871 0
M  V30 4619 O 443.242 2.48688 -1.08934 0
M  V30 4620 C 441.698 1.26425 -3.36964 0
M  V30 4621 C 441.306 0.232568 -4.47396 0
M  V30 4622 C 443.05 1.92604 -3.78291 0
M  V30 4623 C 440.957 0.824882 -5.85619 0
M  V30 4624 H 439.887 0.258499 -0.708304 0
M  V30 4625 H 442.538 -0.0624957 -1.83394 0
M  V30 4626 H 440.92 2.05949 -3.38232 0
M  V30 4627 H 442.094 -0.5382 -4.57646 0
M  V30 4628 H 440.409 -0.32888 -4.15099 0
M  V30 4629 H 443.006 2.37827 -4.78897 0
M  V30 4630 H 443.349 2.75732 -3.11894 0
M  V30 4631 H 443.882 1.19812 -3.79328 0
M  V30 4632 H 440.621 0.0323542 -6.55492 0
M  V30 4633 H 440.141 1.56477 -5.79029 0
M  V30 4634 H 441.82 1.32301 -6.33329 0
M  V30 4635 N 441.952 1.55251 0.271103 0
M  V30 4636 C 443.198 1.76207 1.00394 0
M  V30 4637 C 443.531 0.562604 1.85872 0
M  V30 4638 O 442.806 -0.439785 1.89463 0
M  V30 4639 C 443.089 3.06828 1.8849 0
M  V30 4640 C 442.942 4.37134 1.05992 0
M  V30 4641 C 444.261 3.33503 2.87165 0
M  V30 4642 H 441.38 0.641086 0.363562 0
M  V30 4643 H 444.022 1.87982 0.276189 0
M  V30 4644 H 442.172 2.96921 2.5054 0
M  V30 4645 H 443.844 4.59001 0.459978 0
M  V30 4646 H 442.087 4.32275 0.363443 0
M  V30 4647 H 442.758 5.2486 1.70955 0
M  V30 4648 H 445.234 3.43215 2.3525 0
M  V30 4649 H 444.11 4.2616 3.45946 0
M  V30 4650 H 444.371 2.53235 3.62387 0
M  V30 4651 N 443.43 -0.535701 1.48216 0
M  V30 4652 C 444.36 -1.65014 1.65204 0
M  V30 4653 C 445.341 -1.62554 0.501011 0
M  V30 4654 O 446.526 -1.7984 0.732886 0
M  V30 4655 C 443.656 -3.03616 1.68626 0
M  V30 4656 C 442.61 -3.20932 2.83172 0
M  V30 4657 C 441.936 -4.60537 2.71679 0
M  V30 4658 C 443.236 -3.04249 4.24535 0
M  V30 4659 H 444.93 -1.51053 2.58502 0
M  V30 4660 H 442.476 -0.725262 1.24402 0
M  V30 4661 H 444.429 -3.81446 1.79099 0
M  V30 4662 H 443.153 -3.18587 0.719026 0
M  V30 4663 H 441.812 -2.45517 2.72244 0
M  V30 4664 H 441.46 -4.72336 1.72937 0
M  V30 4665 H 441.16 -4.73069 3.48538 0
M  V30 4666 H 442.684 -5.40475 2.84112 0
M  V30 4667 H 444.098 -3.71877 4.36326 0
M  V30 4668 H 442.495 -3.28278 5.02348 0
M  V30 4669 H 443.565 -2.00739 4.41397 0
M  V30 4670 N 444.908 -1.36708 -0.784132 0
M  V30 4671 C 445.818 -1.3363 -1.92822 0
M  V30 4672 C 446.834 -0.237686 -1.72369 0
M  V30 4673 O 448.01 -0.470962 -1.95816 0
M  V30 4674 C 445.075 -1.13011 -3.27764 0
M  V30 4675 C 444.136 -2.32397 -3.60957 0
M  V30 4676 C 443.369 -2.12752 -4.89461 0
M  V30 4677 O 443.592 -1.10541 -5.59586 0
M  V30 4678 O 442.526 -3.00653 -5.21432 0
M  V30 4679 H 446.352 -2.29964 -1.98369 0
M  V30 4680 H 443.937 -1.1731 -0.925136 0
M  V30 4681 H 445.819 -1.03451 -4.08504 0
M  V30 4682 H 444.494 -0.19743 -3.23097 0
M  V30 4683 H 443.401 -2.47527 -2.80502 0
M  V30 4684 H 444.734 -3.2419 -3.70354 0
M  V30 4685 N 446.386 1.0089 -1.21074 0
M  V30 4686 C 447.316 2.1145 -0.990523 0
M  V30 4687 C 448.297 1.69897 0.0831699 0
M  V30 4688 O 449.482 1.94052 -0.0758853 0
M  V30 4689 C 446.612 3.42914 -0.550177 0
M  V30 4690 C 445.566 3.98244 -1.56799 0
M  V30 4691 C 444.892 5.25568 -0.984013 0
M  V30 4692 C 446.192 4.30752 -2.95381 0
M  V30 4693 H 447.886 2.3013 -1.91521 0
M  V30 4694 H 445.432 1.10592 -0.92225 0
M  V30 4695 H 447.385 4.19653 -0.383305 0
M  V30 4696 H 446.109 3.24014 0.41015 0
M  V30 4697 H 444.768 3.23621 -1.72236 0
M  V30 4698 H 444.416 5.02998 -0.0155216 0
M  V30 4699 H 444.116 5.63551 -1.66384 0
M  V30 4700 H 445.64 6.04955 -0.828378 0
M  V30 4701 H 447.054 4.98349 -2.8341 0
M  V30 4702 H 445.451 4.79869 -3.60341 0
M  V30 4703 H 446.521 3.39192 -3.46521 0
M  V30 4704 N 447.864 1.01787 1.20321 0
M  V30 4705 C 448.797 0.533882 2.21867 0
M  V30 4706 C 449.775 -0.419361 1.57099 0
M  V30 4707 O 450.959 -0.339062 1.85426 0
M  V30 4708 C 448.086 -0.222899 3.37966 0
M  V30 4709 C 447.132 0.680091 4.21043 0
M  V30 4710 S 447.965 2.14997 4.90445 0
M  V30 4711 C 449.121 1.40339 6.09964 0
M  V30 4712 H 449.354 1.39429 2.62577 0
M  V30 4713 H 446.887 0.826867 1.30393 0
M  V30 4714 H 448.845 -0.653425 4.05266 0
M  V30 4715 H 447.506 -1.0589 2.95713 0
M  V30 4716 H 446.699 0.0964704 5.03908 0
M  V30 4717 H 446.301 1.04845 3.59004 0
M  V30 4718 H 448.593 0.68407 6.74038 0
M  V30 4719 H 449.536 2.20823 6.72787 0
M  V30 4720 H 449.944 0.905716 5.57187 0
M  V30 4721 N 449.342 -1.36122 0.79427 0
M  V30 4722 C 450.252 -2.33769 0.197296 0
M  V30 4723 C 451.268 -1.61276 -0.653153 0
M  V30 4724 O 452.444 -1.9323 -0.5678 0
M  V30 4725 C 449.509 -3.40474 -0.654098 0
M  V30 4726 C 448.57 -4.28759 0.215411 0
M  V30 4727 C 447.803 -5.30368 -0.595443 0
M  V30 4728 O 448.026 -5.40211 -1.83107 0
M  V30 4729 O 446.96 -6.019 0.00721351 0
M  V30 4730 H 450.786 -2.86597 1.00478 0
M  V30 4731 H 448.371 -1.38676 0.555818 0
M  V30 4732 H 450.253 -4.05703 -1.13944 0
M  V30 4733 H 448.928 -2.89937 -1.43938 0
M  V30 4734 H 447.835 -3.66554 0.747615 0
M  V30 4735 H 449.168 -4.82661 0.964332 0
M  V30 4736 N 450.82 -0.546701 -1.47814 0
M  V30 4737 C 452.068 -0.0187037 -2.02091 0
M  V30 4738 C 452.389 1.33168 -1.42447 0
M  V30 4739 O 451.659 1.86619 -0.595839 0
M  V30 4740 H 450.239 -0.00392531 -0.74699 0
M  V30 4741 H 452.901 -0.714327 -1.81338 0
M  V30 4742 H 451.997 0.0772219 -3.12004 0
M  V30 4743 N 452.299 1.55045 -0.282633 0
M  V30 4744 C 453.547 1.99365 0.331334 0
M  V30 4745 C 453.868 1.1725 1.55812 0
M  V30 4746 O 453.138 0.263871 1.94115 0
M  V30 4747 H 451.718 0.736397 0.125414 0
M  V30 4748 H 454.38 1.90964 -0.389711 0
M  V30 4749 H 453.476 3.0596 0.616036 0
M  V30 4750 N 453.777 0.010035 1.57597 0
M  V30 4751 C 454.687 -0.994226 2.12491 0
M  V30 4752 C 455.703 -1.37013 1.07254 0
M  V30 4753 O 456.879 -1.45542 1.3921 0
M  V30 4754 C 453.944 -2.2642 2.62555 0
M  V30 4755 C 453.005 -1.95049 3.82432 0
M  V30 4756 C 452.238 -3.15991 4.30099 0
M  V30 4757 O 452.461 -4.28015 3.7704 0
M  V30 4758 O 451.395 -2.99403 5.22151 0
M  V30 4759 H 455.221 -0.557549 2.98538 0
M  V30 4760 H 452.806 -0.209413 1.47925 0
M  V30 4761 H 454.688 -3.01009 2.9491 0
M  V30 4762 H 453.363 -2.69306 1.796 0
M  V30 4763 H 452.27 -1.17904 3.55034 0
M  V30 4764 H 453.603 -1.56992 4.66491 0
M  V30 4765 N 455.255 -1.55392 -0.262866 0
M  V30 4766 C 456.185 -1.91978 -1.32917 0
M  V30 4767 C 457.166 -0.7828 -1.51017 0
M  V30 4768 O 458.351 -1.04178 -1.63892 0
M  V30 4769 C 455.481 -2.20055 -2.68687 0
M  V30 4770 C 454.435 -3.35854 -2.65304 0
M  V30 4771 C 453.761 -3.49435 -4.04721 0
M  V30 4772 C 455.061 -4.71977 -2.23685 0
M  V30 4773 H 456.755 -2.81292 -1.02544 0
M  V30 4774 H 454.301 -1.3534 -0.491846 0
M  V30 4775 H 456.254 -2.44237 -3.43404 0
M  V30 4776 H 454.978 -1.27551 -3.00663 0
M  V30 4777 H 453.637 -3.11655 -1.93045 0
M  V30 4778 H 453.285 -2.54379 -4.33936 0
M  V30 4779 H 452.985 -4.27297 -4.0335 0
M  V30 4780 H 454.509 -3.7592 -4.81161 0
M  V30 4781 H 455.923 -4.95637 -2.88127 0
M  V30 4782 H 454.32 -5.52828 -2.33456 0
M  V30 4783 H 455.39 -4.70115 -1.18827 0
M  V30 4784 N 456.733 0.527833 -1.48498 0
M  V30 4785 C 457.98 1.28354 -1.56625 0
M  V30 4786 C 458.308 1.93 -0.241096 0
M  V30 4787 O 457.563 1.79967 0.768798 0
M  V30 4788 C 457.862 2.39275 -2.65485 0
M  V30 4789 C 457.528 1.92268 -4.07853 0
M  V30 4790 C 456.19 1.79166 -4.46602 0
M  V30 4791 C 458.542 1.56771 -4.97064 0
M  V30 4792 C 455.87 1.28905 -5.72364 0
M  V30 4793 C 458.222 1.07972 -6.23318 0
M  V30 4794 C 456.886 0.934887 -6.60921 0
M  V30 4795 H 456.156 0.469682 -0.573131 0
M  V30 4796 H 458.803 0.588781 -1.82224 0
M  V30 4797 H 457.108 3.1443 -2.33754 0
M  V30 4798 H 458.805 2.974 -2.68988 0
M  V30 4799 H 455.395 2.03417 -3.77252 0
M  V30 4800 H 459.579 1.65753 -4.67803 0
M  V30 4801 H 454.835 1.16381 -6.00221 0
M  V30 4802 H 459.009 0.795775 -6.91838 0
M  V30 4803 H 456.636 0.543231 -7.58257 0
M  V30 4804 N 458.211 1.37122 0.776871 0
M  V30 4805 C 459.488 1.22586 1.52421 0
M  V30 4806 C 459.868 -0.182726 2.10308 0
M  V30 4807 O 459.216 -1.18979 1.9508 0
M  V30 4808 C 459.426 2.31782 2.60918 0
M  V30 4809 C 460.774 2.69071 3.2846 0
M  V30 4810 O 461.798 2.3092 2.71209 0
M  V30 4811 O 460.657 3.3478 4.31954 0
M  V30 4812 H 457.751 0.478045 0.674835 0
M  V30 4813 H 460.297 1.48888 0.814275 0
M  V30 4814 H 459.069 3.26131 2.16227 0
M  V30 4815 H 458.692 2.06916 3.39517 0
M  V30 4816 N 459.689 -1.00246 1.21608 0
M  V30 4817 C 460.636 -2.09073 0.977613 0
M  V30 4818 C 461.606 -1.65815 -0.097297 0
M  V30 4819 O 462.791 -1.90734 0.0503445 0
M  V30 4820 C 459.931 -3.40671 0.551133 0
M  V30 4821 C 459.044 -3.97326 1.69576 0
M  V30 4822 C 458.179 -5.17043 1.2182 0
M  V30 4823 C 457.218 -5.65813 2.335 0
M  V30 4824 N 456.355 -6.76778 1.86859 0
M  V30 4825 H 461.195 -2.28806 1.90924 0
M  V30 4826 H 458.732 -1.12186 0.951452 0
M  V30 4827 H 460.69 -4.16225 0.285097 0
M  V30 4828 H 459.32 -3.20967 -0.343489 0
M  V30 4829 H 458.372 -3.18734 2.07637 0
M  V30 4830 H 459.684 -4.29511 2.53617 0
M  V30 4831 H 458.838 -5.99852 0.908975 0
M  V30 4832 H 457.577 -4.86458 0.347869 0
M  V30 4833 H 456.582 -4.81599 2.65222 0
M  V30 4834 H 457.807 -5.98427 3.21033 0
M  V30 4835 H 455.753 -6.47994 1.02174 0
M  V30 4836 H 455.67 -7.08231 2.64471 0
M  V30 4837 H 456.938 -7.63116 1.58978 0
M  V30 4838 N 461.167 -1.02423 -1.1978 0
M  V30 4839 C 462.413 -0.719051 -1.89625 0
M  V30 4840 C 462.746 0.750083 -1.7913 0
M  V30 4841 O 462.021 1.54574 -1.18056 0
M  V30 4842 C 462.304 -1.16499 -3.40735 0
M  V30 4843 C 462.157 -2.695 -3.60125 0
M  V30 4844 C 463.476 -0.742166 -4.33797 0
M  V30 4845 H 460.595 -0.26269 -0.688595 0
M  V30 4846 H 463.237 -1.27333 -1.41018 0
M  V30 4847 H 461.387 -0.69341 -3.82262 0
M  V30 4848 H 463.059 -3.24569 -3.278 0
M  V30 4849 H 461.302 -3.10113 -3.03336 0
M  V30 4850 H 461.973 -2.95757 -4.66081 0
M  V30 4851 H 464.449 -1.1477 -3.99959 0
M  V30 4852 H 463.325 -1.08213 -5.38127 0
M  V30 4853 H 463.586 0.355747 -4.40666 0
M  V30 4854 N 462.645 1.35699 -0.801477 0
M  V30 4855 C 463.891 1.99208 -0.380022 0
M  V30 4856 C 464.224 1.63445 1.04878 0
M  V30 4857 O 463.499 0.895223 1.72673 0
M  V30 4858 C 463.782 3.55755 -0.557708 0
M  V30 4859 C 463.635 4.01332 -2.03107 0
M  V30 4860 C 464.954 4.40096 0.0197968 0
M  V30 4861 H 462.073 0.723667 -0.139552 0
M  V30 4862 H 464.715 1.60928 -1.01006 0
M  V30 4863 H 462.865 3.88494 -0.0213741 0
M  V30 4864 H 464.537 3.79026 -2.62939 0
M  V30 4865 H 462.78 3.52429 -2.52936 0
M  V30 4866 H 463.451 5.10234 -2.1063 0
M  V30 4867 H 465.927 4.13786 -0.438179 0
M  V30 4868 H 464.803 5.48735 -0.134477 0
M  V30 4869 H 465.064 4.2786 1.11303 0
M  V30 4870 N 464.123 0.554532 1.47522 0
M  V30 4871 C 465.371 0.0294208 2.02079 0
M  V30 4872 C 465.692 -1.32411 1.43151 0
M  V30 4873 O 464.962 -1.863 0.605728 0
M  V30 4874 H 463.542 0.00788672 0.746958 0
M  V30 4875 H 466.204 0.723934 1.80956 0
M  V30 4876 H 465.3 -0.0606745 3.12041 0
M  V30 4877 N 465.601 -1.54893 0.290851 0
M  V30 4878 C 466.549 -2.24579 -0.605576 0
M  V30 4879 C 467.543 -1.24824 -1.14522 0
M  V30 4880 O 468.749 -1.42706 -1.09704 0
M  V30 4881 H 465.124 -0.720946 -0.213872 0
M  V30 4882 H 467.095 -2.984 0.0048173 0
M  V30 4883 C 465.844 -2.99224 -1.77088 0
M  V30 4884 H 465.167 -3.75782 -1.36484 0
M  V30 4885 H 466.607 -3.51281 -2.3744 0
M  V30 4886 C 465.066 -2.05602 -2.66888 0
M  V30 4887 O 465.596 -1.61745 -3.67698 0
M  V30 4888 N 463.802 -1.71771 -2.34399 0
M  V30 4889 H 463.349 -2.07633 -1.52468 0
M  V30 4890 H 463.307 -1.09403 -2.94751 0
M  V30 4891 N 467.08 -0.0183926 -1.57589 0
M  V30 4892 C 468.027 0.967022 -2.09565 0
M  V30 4893 C 468.997 1.32983 -0.995225 0
M  V30 4894 O 470.182 1.42501 -1.26878 0
M  V30 4895 C 467.322 2.24772 -2.61861 0
M  V30 4896 C 466.435 1.94232 -3.85873 0
M  V30 4897 C 465.57 3.16518 -4.26603 0
M  V30 4898 C 464.609 2.81748 -5.43401 0
M  V30 4899 N 463.746 3.96626 -5.79338 0
M  V30 4900 H 468.586 0.516874 -2.93483 0
M  V30 4901 H 466.123 0.243544 -1.4507 0
M  V30 4902 H 468.081 2.99667 -2.90268 0
M  V30 4903 H 466.711 2.67423 -1.8079 0
M  V30 4904 H 465.763 1.09625 -3.64262 0
M  V30 4905 H 467.075 1.64616 -4.70853 0
M  V30 4906 H 466.229 3.99743 -4.56389 0
M  V30 4907 H 464.968 3.49286 -3.40368 0
M  V30 4908 H 463.973 1.96933 -5.1332 0
M  V30 4909 H 465.198 2.50207 -6.31327 0
M  V30 4910 H 463.144 4.29257 -4.96059 0
M  V30 4911 H 463.061 3.70598 -6.58933 0
M  V30 4912 H 464.329 4.80586 -6.13724 0
M  V30 4913 N 468.558 1.5553 0.254621 0
M  V30 4914 C 469.974 1.4778 0.602753 0
M  V30 4915 C 470.174 0.707047 1.88688 0
M  V30 4916 O 469.23 0.233288 2.5142 0
M  V30 4917 C 470.543 2.92133 0.712648 0
M  V30 4918 C 472.091 3.02458 0.805488 0
M  V30 4919 C 472.566 4.48102 0.947009 0
M  V30 4920 N 474.057 4.52008 1.01207 0
M  V30 4921 C 474.792 5.61939 1.1407 0
M  V30 4922 N 474.288 6.81697 1.23536 0
M  V30 4923 N 476.081 5.49719 1.17325 0
M  V30 4924 H 468.232 2.04085 -0.588463 0
M  V30 4925 H 470.495 0.926229 -0.202001 0
M  V30 4926 H 470.201 3.51332 -0.160766 0
M  V30 4927 H 470.075 3.42187 1.58707 0
M  V30 4928 H 472.462 2.43344 1.66936 0
M  V30 4929 H 472.543 2.55627 -0.0939266 0
M  V30 4930 H 472.187 5.07824 0.087725 0
M  V30 4931 H 472.117 4.92607 1.86135 0
M  V30 4932 H 474.608 3.65749 0.950577 0
M  V30 4933 H 474.921 7.61228 1.33236 0
M  V30 4934 H 473.266 6.84473 1.20508 0
M  V30 4935 H 476.457 4.55095 1.09573 0
M  V30 4936 H 476.63 6.35432 1.27005 0
M  V30 4937 N 470.036 -0.519951 1.48776 0
M  V30 4938 C 470.966 -1.63253 1.66945 0
M  V30 4939 C 471.947 -1.62014 0.518224 0
M  V30 4940 O 473.132 -1.79053 0.751919 0
M  V30 4941 C 470.262 -3.0181 1.71836 0
M  V30 4942 C 469.216 -3.17911 2.8656 0
M  V30 4943 C 468.542 -4.5763 2.76548 0
M  V30 4944 C 469.842 -2.99729 4.27738 0
M  V30 4945 H 471.536 -1.48302 2.6009 0
M  V30 4946 H 469.082 -0.712026 1.25165 0
M  V30 4947 H 471.035 -3.79525 1.83135 0
M  V30 4948 H 469.759 -3.17806 0.752775 0
M  V30 4949 H 468.418 -2.42616 2.74833 0
M  V30 4950 H 468.066 -4.70476 1.77937 0
M  V30 4951 H 467.766 -4.69346 3.53536 0
M  V30 4952 H 469.29 -5.37431 2.89828 0
M  V30 4953 H 470.704 -3.67228 4.40246 0
M  V30 4954 H 469.101 -3.22932 5.05801 0
M  V30 4955 H 470.171 -1.96047 4.43502 0
M  V30 4956 N 471.514 -1.37532 -0.769588 0
M  V30 4957 C 472.461 -1.3347 -1.88293 0
M  V30 4958 C 473.431 -0.199891 -1.64893 0
M  V30 4959 O 474.616 -0.389594 -1.8678 0
M  V30 4960 C 471.756 -1.14968 -3.25387 0
M  V30 4961 C 470.869 -2.37698 -3.60727 0
M  V30 4962 C 470.004 -2.12051 -4.8704 0
M  V30 4963 C 469.043 -3.30636 -5.15117 0
M  V30 4964 N 468.18 -3.04527 -6.3262 0
M  V30 4965 H 473.02 -2.28658 -1.911 0
M  V30 4966 H 470.557 -1.13622 -0.934257 0
M  V30 4967 H 472.515 -1.02261 -4.04473 0
M  V30 4968 H 471.145 -0.234263 -3.21949 0
M  V30 4969 H 470.197 -2.61137 -2.76608 0
M  V30 4970 H 471.509 -3.26131 -3.77413 0
M  V30 4971 H 470.663 -1.96388 -5.74035 0
M  V30 4972 H 469.402 -1.20959 -4.72462 0
M  V30 4973 H 468.407 -3.46836 -4.26597 0
M  V30 4974 H 469.632 -4.22582 -5.31603 0
M  V30 4975 H 467.578 -2.16067 -6.19396 0
M  V30 4976 H 467.495 -3.86503 -6.49732 0
M  V30 4977 H 468.763 -2.92485 -7.22546 0
M  V30 4978 N 472.992 0.995999 -1.22138 0
M  V30 4979 C 473.902 2.11985 -1.00496 0
M  V30 4980 C 474.918 1.7394 0.0457701 0
M  V30 4981 O 476.094 2.00868 -0.146273 0
M  V30 4982 C 473.159 3.41779 -0.582086 0
M  V30 4983 C 472.22 3.93943 -1.70608 0
M  V30 4984 C 471.453 5.17542 -1.30328 0
M  V30 4985 O 471.676 5.70114 -0.180743 0
M  V30 4986 O 470.61 5.63382 -2.11861 0
M  V30 4987 H 474.436 2.33123 -1.94647 0
M  V30 4988 H 472.021 1.10358 -1.00705 0
M  V30 4989 H 473.903 4.1989 -0.356467 0
M  V30 4990 H 472.578 3.22007 0.330592 0
M  V30 4991 H 471.485 3.17019 -1.98619 0
M  V30 4992 H 472.818 4.18141 -2.59651 0
M  V30 4993 N 474.47 1.03057 1.19235 0
M  V30 4994 C 475.433 0.617418 2.20727 0
M  V30 4995 C 476.433 -0.319856 1.57587 0
M  V30 4996 O 477.623 -0.106633 1.73873 0
M  V30 4997 C 474.755 -0.096296 3.40764 0
M  V30 4998 H 475.948 1.51544 2.58794 0
M  V30 4999 H 473.501 0.821949 1.32942 0
M  V30 5000 H 474.236 -1.00859 3.08217 0
M  V30 5001 H 474.021 0.577217 3.87828 0
M  V30 5002 H 475.511 -0.372219 4.15938 0
M  V30 5003 N 475.948 -1.35272 0.808662 0
M  V30 5004 C 477.176 -2.02946 0.402537 0
M  V30 5005 C 477.591 -1.60937 -0.987147 0
M  V30 5006 O 476.948 -0.807917 -1.63643 0
M  V30 5007 C 476.999 -3.58317 0.47868 0
M  V30 5008 O 476.72 -3.98799 1.81358 0
M  V30 5009 C 478.221 -4.43251 0.0656281 0
M  V30 5010 H 475.441 -0.650831 0.163279 0
M  V30 5011 H 477.985 -1.72849 1.09286 0
M  V30 5012 H 476.14 -3.87055 -0.163415 0
M  V30 5013 H 476.554 -4.93451 1.77781 0
M  V30 5014 H 478.028 -5.51738 0.170017 0
M  V30 5015 H 478.505 -4.27913 -0.989278 0
M  V30 5016 H 479.111 -4.19813 0.68096 0
M  V30 5017 N 477.426 -0.562348 -1.47226 0
M  V30 5018 C 478.666 -0.0426374 -2.04356 0
M  V30 5019 C 479.03 1.28487 -1.42671 0
M  V30 5020 O 480.231 1.89259 -1.90878 0
M  V30 5021 C 478.502 0.0433826 -3.57374 0
M  V30 5022 S 480.061 0.508472 -4.35844 0
M  V30 5023 H 476.879 -0.0276234 -0.710463 0
M  V30 5024 H 479.481 -0.750245 -1.80531 0
M  V30 5025 H 478.185 -0.927072 -3.99792 0
M  V30 5026 H 477.716 0.774387 -3.85703 0
M  V30 5027 H 479.731 1.76719 -4.63665 0
M  V30 5028 N 478.904 1.54736 -0.299062 0
M  V30 5029 C 479.851 2.23448 0.577899 0
M  V30 5030 C 480.821 1.21637 1.13109 0
M  V30 5031 O 482.006 1.50252 1.17597 0
M  V30 5032 C 479.146 2.9774 1.74484 0
M  V30 5033 C 478.259 4.1432 1.22323 0
M  V30 5034 C 477.394 4.76199 2.35388 0
M  V30 5035 C 476.433 5.84927 1.80351 0
M  V30 5036 N 475.57 6.4077 2.86982 0
M  V30 5037 H 480.41 2.97996 -0.0146545 0
M  V30 5038 H 477.947 1.47088 -0.0190013 0
M  V30 5039 H 479.905 3.39045 2.43114 0
M  V30 5040 H 478.535 2.25572 2.30905 0
M  V30 5041 H 477.587 3.7797 0.429249 0
M  V30 5042 H 478.899 4.92659 0.780309 0
M  V30 5043 H 478.053 5.20346 3.11969 0
M  V30 5044 H 476.792 3.97188 2.83006 0
M  V30 5045 H 475.797 5.40207 1.02259 0
M  V30 5046 H 477.022 6.65821 1.3364 0
M  V30 5047 H 474.968 5.64643 3.33938 0
M  V30 5048 H 474.885 7.1445 2.4718 0
M  V30 5049 H 476.153 6.89574 3.63466 0
M  V30 5050 N 480.382 0.0267497 1.57577 0
M  V30 5051 C 481.312 -0.954308 2.13108 0
M  V30 5052 C 482.293 -1.34088 1.04663 0
M  V30 5053 O 483.478 -1.41992 1.32484 0
M  V30 5054 C 480.608 -2.23744 2.65624 0
M  V30 5055 C 479.562 -1.99168 3.78835 0
M  V30 5056 C 478.888 -3.33726 4.17769 0
M  V30 5057 C 480.188 -1.33277 5.0501 0
M  V30 5058 H 481.882 -0.491848 2.95332 0
M  V30 5059 H 479.428 -0.23514 1.42067 0
M  V30 5060 H 481.381 -2.92754 3.03106 0
M  V30 5061 H 480.105 -2.72151 1.80558 0
M  V30 5062 H 478.764 -1.32577 3.41788 0
M  V30 5063 H 478.412 -3.79888 3.29688 0
M  V30 5064 H 478.112 -3.18089 4.94058 0
M  V30 5065 H 479.636 -4.04008 4.57832 0
M  V30 5066 H 481.05 -1.92283 5.40093 0
M  V30 5067 H 479.447 -1.28045 5.8628 0
M  V30 5068 H 480.517 -0.305411 4.83937 0
M  V30 5069 N 481.861 -1.55662 -0.24637 0
M  V30 5070 C 483.091 -1.81312 -0.990438 0
M  V30 5071 C 483.499 -0.600234 -1.79426 0
M  V30 5072 O 482.842 0.440537 -1.78339 0
M  V30 5073 C 482.904 -3.0032 -1.97607 0
M  V30 5074 C 482.568 -4.36322 -1.35912 0
M  V30 5075 C 483.565 -5.14295 -0.761348 0
M  V30 5076 C 481.25 -4.83019 -1.37833 0
M  V30 5077 C 483.244 -6.37114 -0.190998 0
M  V30 5078 C 480.931 -6.05786 -0.804128 0
M  V30 5079 C 481.929 -6.82672 -0.211489 0
M  V30 5080 O 481.617 -8.03121 0.353845 0
M  V30 5081 H 481.349 -0.607233 -0.297058 0
M  V30 5082 H 483.903 -2.0356 -0.274351 0
M  V30 5083 H 482.133 -2.73829 -2.73047 0
M  V30 5084 H 483.822 -3.13057 -2.58361 0
M  V30 5085 H 484.588 -4.79337 -0.739013 0
M  V30 5086 H 480.467 -4.23165 -1.829 0
M  V30 5087 H 484.011 -6.97069 0.272206 0
M  V30 5088 H 479.908 -6.40222 -0.823792 0
M  V30 5089 H 480.676 -8.18131 0.245761 0
M  V30 5090 N 483.339 0.512053 -1.4905 0
M  V30 5091 C 484.586 1.26686 -1.57978 0
M  V30 5092 C 484.914 1.92733 -0.261553 0
M  V30 5093 O 484.169 1.80772 0.749667 0
M  V30 5094 C 484.468 2.36446 -2.68008 0
M  V30 5095 C 484.134 1.87932 -4.09869 0
M  V30 5096 C 482.796 1.74419 -4.48477 0
M  V30 5097 C 485.148 1.5149 -4.98698 0
M  V30 5098 C 482.476 1.22827 -5.73699 0
M  V30 5099 C 484.828 1.01355 -6.24428 0
M  V30 5100 C 483.492 0.864735 -6.61875 0
M  V30 5101 H 482.762 0.463577 -0.578081 0
M  V30 5102 H 485.409 0.569421 -1.82838 0
M  V30 5103 H 483.714 3.11933 -2.37076 0
M  V30 5104 H 485.411 2.9453 -2.72127 0
M  V30 5105 H 482.001 1.99405 -3.79389 0
M  V30 5106 H 486.185 1.60782 -4.69535 0
M  V30 5107 H 481.441 1.10008 -6.01422 0
M  V30 5108 H 485.615 0.722351 -6.92644 0
M  V30 5109 H 483.242 0.462777 -7.5879 0
M  V30 5110 N 484.817 1.37938 0.762283 0
M  V30 5111 C 486.047 1.36685 1.54922 0
M  V30 5112 C 486.455 -0.0474099 1.89141 0
M  V30 5113 O 485.798 -1.02213 1.52638 0
M  V30 5114 C 485.86 2.14963 2.88152 0
M  V30 5115 C 485.524 3.6385 2.76518 0
M  V30 5116 C 486.521 4.57531 2.46904 0
M  V30 5117 C 484.206 4.07095 2.94243 0
M  V30 5118 C 486.2 5.92436 2.35156 0
M  V30 5119 C 483.887 5.42083 2.82116 0
M  V30 5120 C 484.885 6.34567 2.52614 0
M  V30 5121 O 484.573 7.67073 2.40529 0
M  V30 5122 H 484.305 0.469586 0.486276 0
M  V30 5123 H 486.859 1.82012 0.951876 0
M  V30 5124 H 485.089 1.6434 3.50042 0
M  V30 5125 H 486.778 2.06224 3.49609 0
M  V30 5126 H 487.544 4.25428 2.32886 0
M  V30 5127 H 483.423 3.35462 3.16206 0
M  V30 5128 H 486.967 6.64591 2.12049 0
M  V30 5129 H 482.864 5.73785 2.95704 0
M  V30 5130 H 483.632 7.77499 2.55807 0
M  V30 5131 N 486.295 -0.989507 1.22664 0
M  V30 5132 C 487.227 -2.0824 0.957542 0
M  V30 5133 C 488.24 -1.6267 -0.0651098 0
M  V30 5134 O 489.429 -1.77695 0.169312 0
M  V30 5135 C 486.529 -3.36298 0.419145 0
M  V30 5136 C 485.702 -4.10882 1.49982 0
M  V30 5137 C 484.761 -5.17221 0.967904 0
M  V30 5138 O 483.787 -5.44613 1.65487 0
M  V30 5139 N 484.989 -5.80124 -0.20896 0
M  V30 5140 H 487.754 -2.31904 1.89843 0
M  V30 5141 H 485.315 -1.15552 1.13399 0
M  V30 5142 H 487.307 -4.04671 0.0485451 0
M  V30 5143 H 485.877 -3.09671 -0.426937 0
M  V30 5144 H 485.097 -3.37092 2.04359 0
M  V30 5145 H 486.385 -4.57482 2.22682 0
M  V30 5146 H 485.783 -5.60244 -0.783818 0
M  V30 5147 H 484.34 -6.49715 -0.520913 0
M  V30 5148 N 487.773 -1.03688 -1.18687 0
M  V30 5149 C 488.706 -0.569112 -2.2099 0
M  V30 5150 C 489.684 0.394315 -1.57746 0
M  V30 5151 O 490.868 0.309519 -1.85941 0
M  V30 5152 C 487.995 0.169104 -3.38278 0
M  V30 5153 C 487.041 -0.746989 -4.19908 0
M  V30 5154 S 487.874 -2.22773 -4.86963 0
M  V30 5155 C 489.03 -1.50025 -6.07654 0
M  V30 5156 H 489.263 -1.43589 -2.60326 0
M  V30 5157 H 486.796 -0.847507 -1.29061 0
M  V30 5158 H 488.754 0.588868 -4.06254 0
M  V30 5159 H 487.415 1.01172 -2.9736 0
M  V30 5160 H 486.608 -0.176626 -5.0369 0
M  V30 5161 H 486.21 -1.10543 -3.5729 0
M  V30 5162 H 488.502 -0.791217 -6.72864 0
M  V30 5163 H 489.445 -2.31498 -6.69189 0
M  V30 5164 H 489.853 -0.994245 -5.55675 0
M  V30 5165 N 489.251 1.34841 -0.815825 0
M  V30 5166 C 490.181 2.32187 -0.247298 0
M  V30 5167 C 491.162 1.5791 0.632344 0
M  V30 5168 O 492.347 1.8593 0.560698 0
M  V30 5169 C 489.477 3.42122 0.597466 0
M  V30 5170 C 488.431 4.27602 -0.184446 0
M  V30 5171 C 487.757 5.28942 0.782609 0
M  V30 5172 C 489.057 5.03502 -1.38865 0
M  V30 5173 H 490.751 2.79985 -1.06061 0
M  V30 5174 H 488.297 1.34611 -0.511461 0
M  V30 5175 H 490.25 4.09232 1.00533 0
M  V30 5176 H 488.974 2.92956 1.44376 0
M  V30 5177 H 487.633 3.62085 -0.573592 0
M  V30 5178 H 487.281 4.7604 1.62466 0
M  V30 5179 H 486.981 5.87008 0.263695 0
M  V30 5180 H 488.505 5.98922 1.18848 0
M  V30 5181 H 489.919 5.63506 -1.05518 0
M  V30 5182 H 488.316 5.71108 -1.8427 0
M  V30 5183 H 489.386 4.33608 -2.17054 0
M  V30 5184 N 490.729 0.570148 1.46925 0
M  V30 5185 C 491.659 -0.158274 2.32963 0
M  V30 5186 C 492.64 -0.896093 1.44583 0
M  V30 5187 O 493.825 -0.874022 1.7342 0
M  V30 5188 C 490.955 -1.18055 3.26619 0
M  V30 5189 C 489.909 -0.558379 4.24342 0
M  V30 5190 C 489.235 -1.68623 5.07415 0
M  V30 5191 C 490.535 0.496295 5.19937 0
M  V30 5192 H 492.229 0.560046 2.94115 0
M  V30 5193 H 489.775 0.270775 1.41431 0
M  V30 5194 H 491.728 -1.69841 3.85658 0
M  V30 5195 H 490.452 -1.92899 2.63548 0
M  V30 5196 H 489.111 -0.0617157 3.66548 0
M  V30 5197 H 488.759 -2.42402 4.40738 0
M  V30 5198 H 488.459 -1.27564 5.73586 0
M  V30 5199 H 489.983 -2.20709 5.69315 0
M  V30 5200 H 491.397 0.0640052 5.73264 0
M  V30 5201 H 489.794 0.82649 5.94381 0
M  V30 5202 H 490.864 1.38735 4.6463 0
M  V30 5203 N 492.207 -1.54576 0.307264 0
M  V30 5204 C 493.17 -2.22423 -0.553224 0
M  V30 5205 C 494.17 -1.21231 -1.05639 0
M  V30 5206 O 495.36 -1.45923 -0.951419 0
M  V30 5207 C 492.492 -2.91552 -1.76664 0
M  V30 5208 H 493.685 -2.99874 0.0396484 0
M  V30 5209 H 491.238 -1.56192 0.0581629 0
M  V30 5210 H 491.973 -2.18196 -2.39918 0
M  V30 5211 H 491.758 -3.65738 -1.41343 0
M  V30 5212 H 493.248 -3.43292 -2.37783 0
M  V30 5213 N 493.685 -0.035106 -1.57561 0
M  V30 5214 C 494.931 0.64318 -1.92331 0
M  V30 5215 C 495.264 1.71434 -0.912368 0
M  V30 5216 O 494.539 1.94395 0.0640303 0
M  V30 5217 C 494.822 1.25411 -3.37556 0
M  V30 5218 C 494.675 0.192109 -4.4939 0
M  V30 5219 C 495.994 2.17041 -3.82859 0
M  V30 5220 H 493.113 0.232341 -0.699419 0
M  V30 5221 H 495.755 -0.0935889 -1.89769 0
M  V30 5222 H 493.905 1.88205 -3.39869 0
M  V30 5223 H 495.577 -0.438849 -4.59208 0
M  V30 5224 H 493.82 -0.481725 -4.31117 0
M  V30 5225 H 494.491 0.659292 -5.48049 0
M  V30 5226 H 496.967 1.64228 -3.8232 0
M  V30 5227 H 495.843 2.56738 -4.85157 0
M  V30 5228 H 496.104 3.06401 -3.18702 0
M  V30 5229 N 495.163 1.55791 0.238111 0
M  V30 5230 C 496.095 1.87513 1.31802 0
M  V30 5231 C 497.108 0.762053 1.43863 0
M  V30 5232 O 498.297 1.04024 1.45056 0
M  V30 5233 C 495.397 2.05402 2.69561 0
M  V30 5234 C 494.57 3.3632 2.79656 0
M  V30 5235 C 493.629 3.43844 3.98319 0
M  V30 5236 O 492.655 4.16994 3.87433 0
M  V30 5237 N 493.857 2.73777 5.11885 0
M  V30 5238 H 496.622 2.80734 1.04922 0
M  V30 5239 H 494.183 1.56135 0.428196 0
M  V30 5240 H 496.175 2.07769 3.47296 0
M  V30 5241 H 494.745 1.18884 2.89111 0
M  V30 5242 H 493.965 3.46195 1.88528 0
M  V30 5243 H 495.253 4.22594 2.83358 0
M  V30 5244 H 494.651 2.14094 5.23622 0
M  V30 5245 H 493.208 2.81825 5.87723 0
M  V30 5246 N 496.642 -0.504142 1.49319 0
M  V30 5247 C 497.872 -1.28071 1.62116 0
M  V30 5248 C 498.28 -1.86955 0.290566 0
M  V30 5249 O 497.623 -1.68415 -0.733616 0
M  V30 5250 C 497.685 -2.4521 2.62893 0
M  V30 5251 C 497.349 -2.07218 4.0732 0
M  V30 5252 C 498.346 -1.61375 4.94221 0
M  V30 5253 C 496.031 -2.16949 4.53033 0
M  V30 5254 C 498.025 -1.25763 6.2487 0
M  V30 5255 C 495.712 -1.80949 5.83696 0
M  V30 5256 C 496.71 -1.3543 6.69438 0
M  V30 5257 O 496.398 -0.99915 7.97667 0
M  V30 5258 H 496.13 -0.394763 0.54876 0
M  V30 5259 H 498.684 -0.612118 1.96067 0
M  V30 5260 H 496.914 -3.15134 2.24115 0
M  V30 5261 H 498.603 -3.0724 2.65252 0
M  V30 5262 H 499.369 -1.53306 4.60133 0
M  V30 5263 H 495.248 -2.5133 3.86463 0
M  V30 5264 H 498.792 -0.901631 6.91749 0
M  V30 5265 H 494.689 -1.88667 6.17313 0
M  V30 5266 H 495.457 -1.13089 8.1065 0
M  V30 5267 N 498.12 -1.38341 -0.754957 0
M  V30 5268 C 499.05 -1.38176 -1.88227 0
M  V30 5269 C 500.031 -0.247873 -1.68284 0
M  V30 5270 O 501.216 -0.45075 -1.88896 0
M  V30 5271 C 498.346 -1.20471 -3.25736 0
M  V30 5272 C 497.3 -2.3105 -3.60278 0
M  V30 5273 C 496.626 -1.98452 -4.96509 0
M  V30 5274 C 497.926 -3.73305 -3.65295 0
M  V30 5275 H 499.62 -2.32512 -1.88622 0
M  V30 5276 H 497.166 -1.1192 -0.906082 0
M  V30 5277 H 499.119 -1.18982 -4.04254 0
M  V30 5278 H 497.843 -0.225965 -3.25817 0
M  V30 5279 H 496.502 -2.31723 -2.84078 0
M  V30 5280 H 496.15 -0.990641 -4.93148 0
M  V30 5281 H 495.85 -2.7251 -5.20588 0
M  V30 5282 H 497.374 -1.98578 -5.77407 0
M  V30 5283 H 498.788 -3.7467 -4.3393 0
M  V30 5284 H 497.185 -4.46557 -4.00883 0
M  V30 5285 H 498.255 -4.05719 -2.65556 0
M  V30 5286 N 499.598 0.982988 -1.23187 0
M  V30 5287 C 500.548 2.05962 -0.977942 0
M  V30 5288 C 501.532 1.60725 0.0751148 0
M  V30 5289 O 502.724 1.76471 -0.136683 0
M  V30 5290 C 499.853 3.38564 -0.568276 0
M  V30 5291 C 498.939 3.90407 -1.6566 0
M  V30 5292 N 499.33 4.15359 -2.88635 0
M  V30 5293 C 497.628 4.18915 -1.53058 0
M  V30 5294 C 498.329 4.57642 -3.5908 0
M  V30 5295 N 497.305 4.6192 -2.86584 0
M  V30 5296 H 501.107 2.23208 -1.91195 0
M  V30 5297 H 498.621 1.16555 -1.13087 0
M  V30 5298 H 500.618 4.15276 -0.36764 0
M  V30 5299 H 499.278 3.22712 0.358713 0
M  V30 5300 H 500.289 4.03258 -3.24966 0
M  V30 5301 H 496.966 4.12081 -0.670506 0
M  V30 5302 H 498.356 4.85488 -4.6449 0
M  V30 5303 N 501.076 1.04316 1.18135 0
M  V30 5304 C 501.986 0.646876 2.25505 0
M  V30 5305 C 503.002 -0.328008 1.7088 0
M  V30 5306 O 504.178 -0.182309 2.00573 0
M  V30 5307 C 501.243 0.0185664 3.46695 0
M  V30 5308 C 500.304 1.04277 4.16443 0
M  V30 5309 C 499.537 0.444352 5.31847 0
M  V30 5310 O 499.76 -0.748735 5.65465 0
M  V30 5311 O 498.694 1.17428 5.90334 0
M  V30 5312 H 502.52 1.54147 2.61672 0
M  V30 5313 H 500.105 0.814188 1.25265 0
M  V30 5314 H 501.987 -0.331068 4.20097 0
M  V30 5315 H 500.662 -0.849814 3.12346 0
M  V30 5316 H 499.569 1.44425 3.45098 0
M  V30 5317 H 500.902 1.882 4.54798 0
M  V30 5318 N 502.554 -1.34406 0.822964 0
M  V30 5319 C 503.502 -2.31428 0.233165 0
M  V30 5320 C 504.496 -1.57404 -0.626118 0
M  V30 5321 O 505.702 -1.72402 -0.517453 0
M  V30 5322 H 502.077 -0.749863 0.0566557 0
M  V30 5323 H 504.048 -2.78699 1.06628 0
M  V30 5324 C 502.797 -3.42653 -0.590264 0
M  V30 5325 H 502.12 -3.99753 0.0616129 0
M  V30 5326 H 503.56 -4.12778 -0.969054 0
M  V30 5327 C 502.019 -2.87112 -1.76262 0
M  V30 5328 O 502.549 -2.81995 -2.8608 0
M  V30 5329 N 500.755 -2.43934 -1.57938 0
M  V30 5330 H 500.302 -2.48296 -0.686078 0
M  V30 5331 H 500.26 -2.07123 -2.36532 0
M  V30 5332 N 504.032 -0.577932 -1.46621 0
M  V30 5333 C 505.28 -0.061566 -2.02006 0
M  V30 5334 C 505.601 1.30117 -1.4524 0
M  V30 5335 O 504.871 1.85313 -0.63529 0
M  V30 5336 H 503.451 -0.0197692 -0.746738 0
M  V30 5337 H 506.113 -0.752631 -1.79782 0
M  V30 5338 H 505.209 0.0110238 -3.12098 0
M  V30 5339 N 505.51 1.54411 -0.315457 0
M  V30 5340 C 506.759 1.99599 0.290395 0
M  V30 5341 C 507.072 1.20746 1.53882 0
M  V30 5342 O 508.278 1.56272 2.22017 0
M  V30 5343 C 506.734 3.5539 0.56797 0
M  V30 5344 C 506.342 4.43068 -0.662945 0
M  V30 5345 C 508.086 4.09067 1.13422 0
M  V30 5346 C 505.993 5.90317 -0.357722 0
M  V30 5347 H 504.923 0.745592 0.112286 0
M  V30 5348 H 507.574 1.78477 -0.426418 0
M  V30 5349 H 505.956 3.72468 1.34476 0
M  V30 5350 H 507.13 4.37765 -1.43869 0
M  V30 5351 H 505.445 4.00238 -1.14884 0
M  V30 5352 H 508.042 5.16663 1.37707 0
M  V30 5353 H 508.385 3.60552 2.08106 0
M  V30 5354 H 508.918 3.95589 0.418805 0
M  V30 5355 H 505.657 6.4301 -1.27351 0
M  V30 5356 H 505.177 5.98592 0.380472 0
M  V30 5357 H 506.856 6.4699 0.0354284 0
M  V30 5358 N 506.988 0.0434614 1.5754 0
M  V30 5359 C 508.237 -0.631454 1.91561 0
M  V30 5360 C 508.55 -1.72457 0.92292 0
M  V30 5361 O 509.756 -2.45712 1.15489 0
M  V30 5362 C 508.212 -1.17447 3.40197 0
M  V30 5363 C 507.82 -0.113867 4.47855 0
M  V30 5364 C 509.564 -1.82507 3.83264 0
M  V30 5365 C 507.471 -0.669326 5.876 0
M  V30 5366 H 506.401 -0.239629 0.714908 0
M  V30 5367 H 509.052 0.111097 1.83163 0
M  V30 5368 H 507.434 -1.96909 3.43574 0
M  V30 5369 H 508.608 0.659348 4.56058 0
M  V30 5370 H 506.923 0.438821 4.14081 0
M  V30 5371 H 509.52 -2.25047 4.85034 0
M  V30 5372 H 509.863 -2.67365 3.19095 0
M  V30 5373 H 510.396 -1.09712 3.82372 0
M  V30 5374 H 507.135 0.141449 6.55347 0
M  V30 5375 H 506.655 -1.4107 5.82974 0
M  V30 5376 H 508.334 -1.15463 6.36614 0
M  V30 5377 N 508.466 -1.55915 -0.229846 0
M  V30 5378 C 509.416 -1.8813 -1.28807 0
M  V30 5379 C 510.4 -0.743621 -1.42685 0
M  V30 5380 O 511.592 -1.00588 -1.4564 0
M  V30 5381 C 508.721 -2.19431 -2.64017 0
M  V30 5382 C 507.807 -3.39569 -2.54074 0
M  V30 5383 N 508.198 -4.58404 -2.13774 0
M  V30 5384 C 506.496 -3.43019 -2.85051 0
M  V30 5385 C 507.197 -5.40557 -2.1488 0
M  V30 5386 N 506.173 -4.80054 -2.55047 0
M  V30 5387 H 509.975 -2.77527 -0.967261 0
M  V30 5388 H 507.489 -1.5637 -0.438433 0
M  V30 5389 H 509.486 -2.40681 -3.40409 0
M  V30 5390 H 508.146 -1.31341 -2.9695 0
M  V30 5391 H 509.157 -4.83716 -1.8504 0
M  V30 5392 H 505.834 -2.65249 -3.22411 0
M  V30 5393 H 507.224 -6.45666 -1.85918 0
M  V30 5394 N 509.944 0.496216 -1.49584 0
M  V30 5395 C 511.36 0.827814 -1.36453 0
M  V30 5396 C 511.56 1.97464 -0.401285 0
M  V30 5397 O 510.616 2.51958 0.165296 0
M  V30 5398 C 511.929 1.16352 -2.77277 0
M  V30 5399 C 513.477 1.27145 -2.86013 0
M  V30 5400 C 513.952 1.64042 -4.27615 0
M  V30 5401 N 515.443 1.71082 -4.30448 0
M  V30 5402 C 516.178 2.01085 -5.36984 0
M  V30 5403 N 515.674 2.2928 -6.5376 0
M  V30 5404 N 517.467 2.02376 -5.24405 0
M  V30 5405 H 509.618 -0.259947 -2.10803 0
M  V30 5406 H 511.881 -0.0537163 -0.946477 0
M  V30 5407 H 511.587 0.394153 -3.49484 0
M  V30 5408 H 511.461 2.10582 -3.12946 0
M  V30 5409 H 513.848 2.03152 -2.1404 0
M  V30 5410 H 513.929 0.309542 -2.5392 0
M  V30 5411 H 513.573 0.88583 -5.00115 0
M  V30 5412 H 513.503 2.6134 -4.57175 0
M  V30 5413 H 515.994 1.51434 -3.46232 0
M  V30 5414 H 516.307 2.51376 -7.30774 0
M  V30 5415 H 514.652 2.26726 -6.56978 0
M  V30 5416 H 517.843 1.79829 -4.32179 0
M  V30 5417 H 518.016 2.25425 -6.07526 0
M  V30 5418 N 511.423 1.38739 0.74761 0
M  V30 5419 C 512.7 1.25791 1.49786 0
M  V30 5420 C 513.08 -0.138075 2.10648 0
M  V30 5421 O 512.428 -1.14815 1.9756 0
M  V30 5422 C 512.638 2.37265 2.55942 0
M  V30 5423 C 513.986 2.75978 3.22679 0
M  V30 5424 O 515.01 2.36621 2.6625 0
M  V30 5425 O 513.869 3.43867 4.24756 0
M  V30 5426 H 510.963 0.492251 0.664543 0
M  V30 5427 H 513.509 1.50582 0.782511 0
M  V30 5428 H 512.281 3.30644 2.0926 0
M  V30 5429 H 511.904 2.14071 3.35051 0
M  V30 5430 N 512.901 -0.976442 1.23707 0
M  V30 5431 C 513.831 -2.08749 1.04624 0
M  V30 5432 C 514.812 -1.70057 -0.0380956 0
M  V30 5433 O 515.997 -1.93782 0.127308 0
M  V30 5434 C 513.127 -3.41335 0.640902 0
M  V30 5435 C 512.081 -3.93947 1.67302 0
M  V30 5436 C 511.407 -5.22774 1.12301 0
M  V30 5437 C 512.707 -4.22769 3.06697 0
M  V30 5438 H 514.401 -2.24972 1.97555 0
M  V30 5439 H 511.947 -1.08108 0.951247 0
M  V30 5440 H 513.9 -4.18489 0.494434 0
M  V30 5441 H 512.624 -3.24988 -0.324099 0
M  V30 5442 H 511.283 -3.18941 1.80755 0
M  V30 5443 H 510.931 -5.0278 0.148877 0
M  V30 5444 H 510.631 -5.58942 1.81267 0
M  V30 5445 H 512.155 -6.02546 0.988479 0
M  V30 5446 H 513.569 -4.90659 2.96524 0
M  V30 5447 H 511.966 -4.70147 3.72937 0
M  V30 5448 H 513.036 -3.29885 3.55392 0
M  V30 5449 N 514.379 -1.04941 -1.1758 0
M  V30 5450 C 515.326 -0.648155 -2.21512 0
M  V30 5451 C 516.296 0.348431 -1.62404 0
M  V30 5452 O 517.481 0.240419 -1.89279 0
M  V30 5453 C 514.621 -0.0264291 -3.4509 0
M  V30 5454 C 513.734 -1.07154 -4.185 0
M  V30 5455 C 512.869 -0.417403 -5.29558 0
M  V30 5456 C 511.908 -1.447 -5.94751 0
M  V30 5457 N 511.045 -0.817203 -6.97328 0
M  V30 5458 H 515.885 -1.53891 -2.55189 0
M  V30 5459 H 513.422 -0.769699 -1.25356 0
M  V30 5460 H 515.38 0.351456 -4.15717 0
M  V30 5461 H 514.01 0.827802 -3.12005 0
M  V30 5462 H 513.062 -1.56728 -3.46613 0
M  V30 5463 H 514.374 -1.8532 -4.63096 0
M  V30 5464 H 513.528 0.0142061 -6.06698 0
M  V30 5465 H 512.267 0.396265 -4.86087 0
M  V30 5466 H 511.272 -1.88865 -5.16343 0
M  V30 5467 H 512.497 -2.26252 -6.40302 0
M  V30 5468 H 510.443 -0.0239995 -6.55996 0
M  V30 5469 H 510.36 -1.53644 -7.40223 0
M  V30 5470 H 511.628 -0.410283 -7.7842 0
M  V30 5471 N 515.857 1.33968 -0.830081 0
M  V30 5472 C 517.268 1.80439 -0.479455 0
M  V30 5473 C 517.619 1.68756 1.00079 0
M  V30 5474 O 516.744 1.23171 1.77927 0
M  V30 5475 C 517.339 3.27611 -0.863505 0
M  V30 5476 C 515.898 3.72133 -0.565145 0
M  V30 5477 C 515.045 2.55549 -1.07657 0
M  V30 5478 H 517.996 1.21614 -1.0196 0
M  V30 5479 H 518.017 3.8012 -0.170083 0
M  V30 5480 H 517.529 3.36082 -1.94089 0
M  V30 5481 H 515.63 3.69196 0.502536 0
M  V30 5482 H 515.743 4.65963 -1.11422 0
M  V30 5483 H 514.107 2.49788 -0.497807 0
M  V30 5484 H 514.89 2.66786 -2.16055 0
M  V30 5485 N 517.335 0.585699 1.46312 0
M  V30 5486 C 518.245 -0.148236 2.34131 0
M  V30 5487 C 519.261 -0.882972 1.49932 0
M  V30 5488 O 520.437 -0.845484 1.82794 0
M  V30 5489 C 517.502 -1.14714 3.27172 0
M  V30 5490 C 516.563 -0.416746 4.27272 0
M  V30 5491 C 515.796 -1.36806 5.15868 0
M  V30 5492 O 516.019 -2.60475 5.07454 0
M  V30 5493 O 514.953 -0.877018 5.95476 0
M  V30 5494 H 518.779 0.572882 2.98248 0
M  V30 5495 H 516.364 0.346082 1.45336 0
M  V30 5496 H 518.246 -1.72303 3.84564 0
M  V30 5497 H 516.921 -1.84967 2.65648 0
M  V30 5498 H 515.828 0.201061 3.73559 0
M  V30 5499 H 517.161 0.244872 4.9159 0
M  V30 5500 N 518.813 -1.54241 0.323641 0
M  V30 5501 C 519.761 -2.25813 -0.557804 0
M  V30 5502 C 520.755 -1.27225 -1.11849 0
M  V30 5503 O 521.961 -1.45001 -1.06652 0
M  V30 5504 H 518.336 -0.72532 -0.198532 0
M  V30 5505 H 520.307 -2.98322 0.0681112 0
M  V30 5506 C 519.056 -3.02913 -1.70701 0
M  V30 5507 H 518.379 -3.78593 -1.28482 0
M  V30 5508 H 519.819 -3.56238 -2.29935 0
M  V30 5509 C 518.278 -2.11217 -2.62467 0
M  V30 5510 O 518.808 -1.69508 -3.64184 0
M  V30 5511 N 517.014 -1.76704 -2.30703 0
M  V30 5512 H 516.561 -2.1082 -1.48029 0
M  V30 5513 H 516.519 -1.15631 -2.92364 0
M  V30 5514 N 520.291 -0.0518155 -1.57515 0
M  V30 5515 C 521.537 0.622745 -1.93002 0
M  V30 5516 C 521.87 1.70456 -0.930499 0
M  V30 5517 O 521.145 1.94452 0.0434086 0
M  V30 5518 C 521.428 1.21824 -3.38867 0
M  V30 5519 C 521.281 0.144434 -4.49568 0
M  V30 5520 C 522.6 2.12968 -3.8514 0
M  V30 5521 H 519.719 0.22491 -0.701844 0
M  V30 5522 H 522.361 -0.113711 -1.89659 0
M  V30 5523 H 520.511 1.8459 -3.41846 0
M  V30 5524 H 522.183 -0.48753 -4.58717 0
M  V30 5525 H 520.426 -0.527424 -4.30582 0
M  V30 5526 H 521.097 0.601127 -5.48717 0
M  V30 5527 H 523.573 1.60163 -3.8404 0
M  V30 5528 H 522.449 2.51578 -4.87852 0
M  V30 5529 H 522.71 3.03004 -3.21934 0
M  V30 5530 N 521.769 1.56035 0.221574 0
M  V30 5531 C 522.699 1.95434 1.2778 0
M  V30 5532 C 523.68 0.822564 1.48889 0
M  V30 5533 O 524.865 1.08486 1.61072 0
M  V30 5534 C 521.995 2.27102 2.62759 0
M  V30 5535 C 520.949 3.4277 2.56306 0
M  V30 5536 C 520.275 3.60043 3.95314 0
M  V30 5537 C 521.575 4.77742 2.11093 0
M  V30 5538 H 523.269 2.83912 0.950504 0
M  V30 5539 H 520.815 1.36596 0.455791 0
M  V30 5540 H 522.768 2.53256 3.36807 0
M  V30 5541 H 521.492 1.35478 2.97176 0
M  V30 5542 H 520.151 3.16664 1.84715 0
M  V30 5543 H 519.799 2.65794 4.27039 0
M  V30 5544 H 519.499 4.37841 3.91879 0
M  V30 5545 H 521.023 3.88545 4.71025 0
M  V30 5546 H 522.437 5.03102 2.74885 0
M  V30 5547 H 520.834 5.58823 2.18716 0
M  V30 5548 H 521.904 4.731 1.06321 0
M  V30 5549 N 523.247 -0.488276 1.49845 0
M  V30 5550 C 524.177 -1.59675 1.70371 0
M  V30 5551 C 525.158 -1.60878 0.552473 0
M  V30 5552 O 526.343 -1.77417 0.78973 0
M  V30 5553 C 523.473 -2.98098 1.782 0
M  V30 5554 C 522.427 -3.11761 2.93239 0
M  V30 5555 C 521.753 -4.51661 2.86193 0
M  V30 5556 C 523.053 -2.90589 4.33999 0
M  V30 5557 H 524.747 -1.42752 2.63177 0
M  V30 5558 H 522.293 -0.685317 1.26647 0
M  V30 5559 H 524.246 -3.75555 1.91144 0
M  V30 5560 H 522.97 -3.16138 0.820018 0
M  V30 5561 H 521.629 -2.36732 2.79917 0
M  V30 5562 H 521.277 -4.66595 1.87877 0
M  V30 5563 H 520.977 -4.61742 3.63412 0
M  V30 5564 H 522.501 -5.31162 3.01163 0
M  V30 5565 H 523.915 -3.57807 4.47936 0
M  V30 5566 H 522.312 -3.1213 5.12538 0
M  V30 5567 H 523.382 -1.86595 4.4756 0
M  V30 5568 N 524.725 -1.39134 -0.740242 0
M  V30 5569 C 525.95 -1.39518 -1.53459 0
M  V30 5570 C 526.375 0.00968883 -1.88098 0
M  V30 5571 O 525.733 0.995312 -1.51536 0
M  V30 5572 C 525.781 -2.26981 -2.802 0
M  V30 5573 O 524.885 -1.69609 -3.75908 0
M  V30 5574 H 524.226 -0.475328 -0.463637 0
M  V30 5575 H 526.756 -1.83064 -0.913717 0
M  V30 5576 H 526.766 -2.41309 -3.28989 0
M  V30 5577 H 525.441 -3.29081 -2.5432 0
M  V30 5578 H 524.018 -1.64495 -3.34658 0
M  V30 5579 N 526.204 0.969867 -1.24223 0
M  V30 5580 C 527.429 1.75289 -1.10853 0
M  V30 5581 C 527.854 1.85091 0.335079 0
M  V30 5582 O 527.212 1.32024 1.24255 0
M  V30 5583 C 527.26 3.15255 -1.75062 0
M  V30 5584 O 526.364 3.99589 -1.01992 0
M  V30 5585 H 525.705 0.538904 -0.387915 0
M  V30 5586 H 528.235 1.21675 -1.64488 0
M  V30 5587 H 528.245 3.65787 -1.80731 0
M  V30 5588 H 526.92 3.07436 -2.801 0
M  V30 5589 H 525.497 3.58077 -1.04094 0
M  V30 5590 N 527.682 1.05563 1.17022 0
M  V30 5591 C 528.614 0.617888 2.20714 0
M  V30 5592 C 529.627 -0.320303 1.59618 0
M  V30 5593 O 530.816 -0.112449 1.78145 0
M  V30 5594 C 527.916 -0.115333 3.38704 0
M  V30 5595 C 527.089 0.834493 4.29366 0
M  V30 5596 C 526.148 0.141855 5.26009 0
M  V30 5597 O 525.174 0.777151 5.6387 0
M  V30 5598 N 526.376 -1.11934 5.69606 0
M  V30 5599 H 529.141 1.50981 2.58892 0
M  V30 5600 H 526.702 0.938008 1.31958 0
M  V30 5601 H 528.694 -0.588918 4.00392 0
M  V30 5602 H 527.264 -0.908967 2.99093 0
M  V30 5603 H 526.484 1.48762 3.65053 0
M  V30 5604 H 527.772 1.4791 4.86827 0
M  V30 5605 H 527.17 -1.65574 5.40927 0
M  V30 5606 H 525.727 -1.53692 6.33421 0
M  V30 5607 N 529.16 -1.33526 0.837174 0
M  V30 5608 C 530.07 -2.33023 0.271568 0
M  V30 5609 C 531.086 -1.63272 -0.601514 0
M  V30 5610 O 532.262 -1.94939 -0.506038 0
M  V30 5611 C 529.327 -3.42382 -0.545448 0
M  V30 5612 C 528.388 -4.27857 0.351709 0
M  V30 5613 C 527.621 -5.31994 -0.426409 0
M  V30 5614 O 527.844 -5.45763 -1.65828 0
M  V30 5615 O 526.778 -6.01572 0.1987 0
M  V30 5616 H 530.604 -2.83256 1.09545 0
M  V30 5617 H 528.189 -1.36837 0.599655 0
M  V30 5618 H 530.071 -4.09122 -1.00979 0
M  V30 5619 H 528.746 -2.94369 -1.34641 0
M  V30 5620 H 527.653 -3.6399 0.863853 0
M  V30 5621 H 528.986 -4.79349 1.1174 0
M  V30 5622 N 530.638 -0.59345 -1.46 0
M  V30 5623 C 531.548 0.135817 -2.34207 0
M  V30 5624 C 532.564 0.875008 -1.50398 0
M  V30 5625 O 533.74 0.835778 -1.83239 0
M  V30 5626 C 530.805 1.12977 -3.27776 0
M  V30 5627 C 529.866 0.394081 -4.27487 0
M  V30 5628 C 529.099 1.34068 -5.16586 0
M  V30 5629 O 529.322 2.5778 -5.08828 0
M  V30 5630 O 528.256 0.845426 -5.95933 0
M  V30 5631 H 532.082 -0.588691 -2.9794 0
M  V30 5632 H 529.667 -0.353784 -1.45151 0
M  V30 5633 H 531.549 1.70261 -3.85473 0
M  V30 5634 H 530.224 1.83556 -2.66625 0
M  V30 5635 H 529.131 -0.220869 -3.73447 0
M  V30 5636 H 530.464 -0.270939 -4.91454 0
M  V30 5637 N 532.116 1.54067 -0.331816 0
M  V30 5638 C 533.393 1.92915 0.322955 0
M  V30 5639 C 533.773 1.26225 1.69205 0
M  V30 5640 O 533.121 0.408919 2.24811 0
M  V30 5641 C 533.331 3.46619 0.406946 0
M  V30 5642 C 534.679 4.19386 0.663339 0
M  V30 5643 O 535.703 3.5282 0.489536 0
M  V30 5644 O 534.562 5.37288 0.999193 0
M  V30 5645 H 531.656 0.805808 0.186016 0
M  V30 5646 H 534.202 1.65342 -0.382135 0
M  V30 5647 H 532.974 3.87354 -0.554287 0
M  V30 5648 H 532.597 3.80324 1.15929 0
M  V30 5649 N 533.594 0.0601682 1.57485 0
M  V30 5650 C 534.834 -0.615384 1.94916 0
M  V30 5651 C 535.198 -1.67475 0.938948 0
M  V30 5652 O 536.399 -2.40502 1.20051 0
M  V30 5653 C 534.67 -1.18788 3.37082 0
M  V30 5654 S 536.229 -1.88018 3.96478 0
M  V30 5655 H 533.047 -0.201821 0.681754 0
M  V30 5656 H 535.649 0.131252 1.95059 0
M  V30 5657 H 534.353 -0.404869 4.08398 0
M  V30 5658 H 533.884 -1.97114 3.40455 0
M  V30 5659 H 535.899 -3.16161 3.82435 0
M  V30 5660 N 535.072 -1.5615 -0.213296 0
M  V30 5661 C 536.002 -1.96109 -1.26742 0
M  V30 5662 C 536.983 -0.830448 -1.48451 0
M  V30 5663 O 538.168 -1.09339 -1.60495 0
M  V30 5664 C 535.298 -2.28492 -2.61551 0
M  V30 5665 C 534.252 -3.44124 -2.54485 0
M  V30 5666 C 533.578 -3.62134 -3.93399 0
M  V30 5667 C 534.878 -4.78855 -2.08556 0
M  V30 5668 H 536.572 -2.84412 -0.935434 0
M  V30 5669 H 534.118 -1.36836 -0.44854 0
M  V30 5670 H 536.071 -2.55039 -3.3546 0
M  V30 5671 H 534.795 -1.37052 -2.96453 0
M  V30 5672 H 533.454 -3.17639 -1.83033 0
M  V30 5673 H 533.102 -2.68055 -4.25623 0
M  V30 5674 H 532.802 -4.39913 -3.89551 0
M  V30 5675 H 534.326 -3.91038 -4.68958 0
M  V30 5676 H 535.74 -5.04552 -2.72213 0
M  V30 5677 H 534.137 -5.59975 -2.1575 0
M  V30 5678 H 535.207 -4.73657 -1.03811 0
M  V30 5679 N 536.55 0.480323 -1.50102 0
M  V30 5680 C 537.799 1.22979 -1.59872 0
M  V30 5681 C 538.112 1.93282 -0.30022 0
M  V30 5682 O 539.318 2.70086 -0.276709 0
M  V30 5683 C 537.774 2.23408 -2.82164 0
M  V30 5684 C 537.382 1.5895 -4.18854 0
M  V30 5685 C 539.126 2.99055 -3.01275 0
M  V30 5686 C 537.033 2.57611 -5.32344 0
M  V30 5687 H 535.963 0.462707 -0.59533 0
M  V30 5688 H 538.614 0.501291 -1.7652 0
M  V30 5689 H 536.996 2.99511 -2.59055 0
M  V30 5690 H 538.17 0.887 -4.52182 0
M  V30 5691 H 536.485 0.956191 -4.05273 0
M  V30 5692 H 539.082 3.72876 -3.83233 0
M  V30 5693 H 539.425 3.57897 -2.12639 0
M  V30 5694 H 539.958 2.30066 -3.24522 0
M  V30 5695 H 536.697 2.03521 -6.23105 0
M  V30 5696 H 536.217 3.26041 -5.03445 0
M  V30 5697 H 537.896 3.19627 -5.62537 0
M  V30 5698 N 538.028 1.39524 0.732853 0
M  V30 5699 C 538.975 1.38416 1.84688 0
M  V30 5700 C 539.945 0.243539 1.64305 0
M  V30 5701 O 541.13 0.438979 1.85681 0
M  V30 5702 C 538.27 1.23555 3.22224 0
M  V30 5703 C 537.383 2.47179 3.54298 0
M  V30 5704 C 536.518 2.2489 4.81246 0
M  V30 5705 C 535.557 3.44178 5.0617 0
M  V30 5706 N 534.694 3.21192 6.24323 0
M  V30 5707 H 539.534 2.33645 1.84971 0
M  V30 5708 H 537.071 1.16059 0.903804 0
M  V30 5709 H 539.029 1.12949 4.0162 0
M  V30 5710 H 537.659 0.31954 3.21215 0
M  V30 5711 H 536.711 2.68379 2.69587 0
M  V30 5712 H 538.023 3.36022 3.68633 0
M  V30 5713 H 537.177 2.11538 5.68627 0
M  V30 5714 H 535.916 1.33443 4.69089 0
M  V30 5715 H 534.921 3.58025 4.17251 0
M  V30 5716 H 536.146 4.36528 5.20212 0
M  V30 5717 H 534.092 2.32413 6.1345 0
M  V30 5718 H 534.009 4.03594 6.39256 0
M  V30 5719 H 535.277 3.1154 7.14537 0
M  V30 5720 N 539.506 -0.963266 1.24736 0
M  V30 5721 C 540.755 -1.70115 1.08369 0
M  V30 5722 C 541.068 -1.91939 -0.376688 0
M  V30 5723 O 542.274 -2.6334 -0.660624 0
M  V30 5724 C 540.73 -3.06218 1.89099 0
M  V30 5725 C 540.338 -2.92221 3.39574 0
M  V30 5726 C 542.082 -3.83848 1.81275 0
M  V30 5727 C 539.989 -4.23662 4.12631 0
M  V30 5728 H 538.919 -0.637944 0.401924 0
M  V30 5729 H 541.57 -1.07304 1.48856 0
M  V30 5730 H 539.952 -3.69884 1.41429 0
M  V30 5731 H 541.126 -2.37541 3.94856 0
M  V30 5732 H 539.441 -2.28054 3.48397 0
M  V30 5733 H 542.038 -4.81188 2.33158 0
M  V30 5734 H 542.381 -4.08949 0.778895 0
M  V30 5735 H 542.914 -3.26918 2.26649 0
M  V30 5736 H 539.653 -4.03753 5.16395 0
M  V30 5737 H 539.173 -4.78141 3.62135 0
M  V30 5738 H 540.852 -4.92256 4.19873 0
M  V30 5739 N 540.985 -1.06182 -1.16461 0
M  V30 5740 C 542.213 -0.798583 -1.90867 0
M  V30 5741 C 542.628 0.646921 -1.77371 0
M  V30 5742 O 541.985 1.44279 -1.11758 0
M  V30 5743 C 542.036 -1.18258 -3.4161 0
M  V30 5744 O 541.757 -2.57135 -3.54701 0
M  V30 5745 C 543.258 -0.946917 -4.33069 0
M  V30 5746 H 540.478 -0.289603 -0.605286 0
M  V30 5747 H 543.022 -1.41515 -1.47627 0
M  V30 5748 H 541.177 -0.610562 -3.82558 0
M  V30 5749 H 541.591 -2.72477 -4.4817 0
M  V30 5750 H 543.065 -1.26523 -5.37304 0
M  V30 5751 H 543.542 0.117406 -4.39043 0
M  V30 5752 H 544.148 -1.50326 -3.97847 0
M  V30 5753 N 542.463 1.3308 -0.844243 0
M  V30 5754 C 543.74 1.92178 -0.364261 0
M  V30 5755 C 544.12 1.76961 1.15101 0
M  V30 5756 O 543.468 1.16128 1.9679 0
M  V30 5757 C 543.678 3.393 -0.817106 0
M  V30 5758 C 545.026 4.16444 -0.828236 0
M  V30 5759 O 546.05 3.47975 -0.761062 0
M  V30 5760 O 544.909 5.38685 -0.920926 0
M  V30 5761 H 542.003 0.820411 -0.10419 0
M  V30 5762 H 544.549 1.41918 -0.930453 0
M  V30 5763 H 543.321 3.44272 -1.85991 0
M  V30 5764 H 542.944 3.96947 -0.227785 0
M  V30 5765 N 543.941 0.601185 1.45683 0
M  V30 5766 C 545.188 0.0938811 2.02282 0
M  V30 5767 C 545.516 -1.27315 1.47041 0
M  V30 5768 O 544.771 -1.85193 0.632623 0
M  V30 5769 C 545.07 -0.00222425 3.574 0
M  V30 5770 C 544.736 1.29963 4.31764 0
M  V30 5771 C 543.398 1.65625 4.51798 0
M  V30 5772 C 545.75 2.1603 4.74321 0
M  V30 5773 C 543.078 2.87119 5.11644 0
M  V30 5774 C 545.43 3.36766 5.3551 0
M  V30 5775 C 544.094 3.72689 5.53768 0
M  V30 5776 H 543.364 0.0343535 0.740203 0
M  V30 5777 H 546.011 0.781522 1.74827 0
M  V30 5778 H 544.316 -0.773096 3.84097 0
M  V30 5779 H 546.013 -0.410794 3.9889 0
M  V30 5780 H 542.603 1.01204 4.1648 0
M  V30 5781 H 546.787 1.89778 4.58582 0
M  V30 5782 H 542.043 3.15065 5.2397 0
M  V30 5783 H 546.217 4.03713 5.67441 0
M  V30 5784 H 543.844 4.66918 5.99909 0
M  V30 5785 N 545.419 -1.53889 0.339982 0
M  V30 5786 C 546.667 -2.00458 -0.257112 0
M  V30 5787 C 546.988 -1.22953 -1.51353 0
M  V30 5788 O 546.258 -0.335734 -1.93002 0
M  V30 5789 H 544.838 -0.740544 -0.0979965 0
M  V30 5790 H 547.5 -1.89386 0.460317 0
M  V30 5791 H 546.596 -3.08035 -0.502057 0
M  V30 5792 N 546.897 -0.0685191 -1.57451 0
M  V30 5793 C 547.847 0.909895 -2.09057 0
M  V30 5794 C 548.831 1.26088 -0.999528 0
M  V30 5795 O 550.023 1.24041 -1.26265 0
M  V30 5796 C 547.152 2.17863 -2.65312 0
M  V30 5797 C 546.238 1.85427 -3.81415 0
M  V30 5798 N 546.629 1.23426 -4.9051 0
M  V30 5799 C 544.927 2.15196 -3.90649 0
M  V30 5800 C 545.628 1.09008 -5.71395 0
M  V30 5801 N 544.604 1.59871 -5.1956 0
M  V30 5802 H 548.406 0.426145 -2.90794 0
M  V30 5803 H 545.92 0.135462 -1.61834 0
M  V30 5804 H 547.917 2.88872 -3.00597 0
M  V30 5805 H 546.577 2.66829 -1.85021 0
M  V30 5806 H 547.588 0.904305 -5.09944 0
M  V30 5807 H 544.265 2.66562 -3.21327 0
M  V30 5808 H 545.655 0.607305 -6.6915 0
M  V30 5809 N 548.375 1.56261 0.205012 0
M  V30 5810 C 549.6 1.84491 0.947512 0
M  V30 5811 C 550.025 0.650894 1.76479 0
M  V30 5812 O 549.383 -0.40035 1.76824 0
M  V30 5813 C 549.431 3.10863 1.82747 0
M  V30 5814 O 548.535 2.90719 2.925 0
M  V30 5815 H 547.876 0.607783 0.267386 0
M  V30 5816 H 550.406 2.03485 0.213323 0
M  V30 5817 H 550.416 3.41399 2.23407 0
M  V30 5818 H 549.091 3.97392 1.2269 0
M  V30 5819 H 547.668 2.71457 2.55667 0
M  V30 5820 N 549.853 -0.472356 1.50355 0
M  V30 5821 C 550.8 -1.57051 1.69126 0
M  V30 5822 C 551.77 -1.5733 0.532574 0
M  V30 5823 O 552.955 -1.7488 0.762994 0
M  V30 5824 C 550.095 -2.95033 1.79024 0
M  V30 5825 C 549.208 -3.04552 3.06386 0
M  V30 5826 C 548.343 -4.33441 3.07087 0
M  V30 5827 C 547.382 -4.36697 4.28908 0
M  V30 5828 N 546.519 -5.57056 4.27356 0
M  V30 5829 H 551.359 -1.40351 2.62879 0
M  V30 5830 H 548.896 -0.682403 1.30314 0
M  V30 5831 H 550.854 -3.75048 1.82744 0
M  V30 5832 H 549.484 -3.10371 0.887109 0
M  V30 5833 H 548.536 -2.17419 3.12143 0
M  V30 5834 H 549.848 -3.02818 3.96362 0
M  V30 5835 H 549.002 -5.21801 3.09529 0
M  V30 5836 H 547.741 -4.37782 2.14939 0
M  V30 5837 H 546.746 -3.46734 4.2668 0
M  V30 5838 H 547.971 -4.34049 5.22282 0
M  V30 5839 H 545.917 -5.62184 3.3806 0
M  V30 5840 H 545.834 -5.57058 5.111 0
M  V30 5841 H 547.102 -6.47545 4.33942 0
M  V30 5842 N 551.331 -1.39911 -0.725443 0
M  V30 5843 C 552.58 -1.36963 -1.48068 0
M  V30 5844 C 552.893 0.0284478 -1.95579 0
M  V30 5845 O 554.099 0.180535 -2.70899 0
M  V30 5846 C 552.555 -2.40664 -2.67598 0
M  V30 5847 C 552.163 -3.86234 -2.26997 0
M  V30 5848 C 553.907 -2.46807 -3.45379 0
M  V30 5849 C 551.814 -4.81554 -3.43307 0
M  V30 5850 H 550.744 -0.509223 -0.556065 0
M  V30 5851 H 553.395 -1.65602 -0.790454 0
M  V30 5852 H 551.777 -2.05109 -3.38742 0
M  V30 5853 H 552.951 -4.3088 -1.63337 0
M  V30 5854 H 551.266 -3.83475 -1.62284 0
M  V30 5855 H 553.863 -3.15213 -4.31909 0
M  V30 5856 H 554.206 -1.49552 -3.8851 0
M  V30 5857 H 554.739 -2.81303 -2.81271 0
M  V30 5858 H 551.478 -5.80106 -3.05217 0
M  V30 5859 H 550.998 -4.4158 -4.05915 0
M  V30 5860 H 552.677 -5.0091 -4.0951 0
M  V30 5861 N 552.809 0.956637 -1.25245 0
M  V30 5862 C 553.739 2.07058 -1.07931 0
M  V30 5863 C 554.72 1.70096 0.0110361 0
M  V30 5864 O 555.905 1.93555 -0.158121 0
M  V30 5865 C 553.035 3.40272 -0.695124 0
M  V30 5866 C 551.989 3.91235 -1.73549 0
M  V30 5867 C 551.315 5.20921 -1.20604 0
M  V30 5868 C 552.615 4.17837 -3.13385 0
M  V30 5869 H 554.309 2.218 -2.01109 0
M  V30 5870 H 551.855 1.06581 -0.968326 0
M  V30 5871 H 553.808 4.1765 -0.560949 0
M  V30 5872 H 552.532 3.25462 0.272355 0
M  V30 5873 H 551.191 3.16025 -1.85807 0
M  V30 5874 H 550.839 5.02479 -0.228846 0
M  V30 5875 H 550.539 5.55987 -1.90136 0
M  V30 5876 H 552.063 6.00897 -1.08421 0
M  V30 5877 H 553.477 4.8588 -3.04292 0
M  V30 5878 H 551.874 4.64154 -3.80369 0
M  V30 5879 H 552.944 3.2419 -3.60595 0
M  V30 5880 N 554.287 1.06798 1.15896 0
M  V30 5881 C 555.535 0.786211 1.8618 0
M  V30 5882 C 555.856 -0.689547 1.82401 0
M  V30 5883 O 555.126 -1.49913 1.26107 0
M  V30 5884 H 553.706 0.287843 0.689315 0
M  V30 5885 H 556.368 1.35055 1.40521 0
M  V30 5886 H 555.464 1.1157 2.91477 0
M  V30 5887 N 555.766 -1.3263 0.851289 0
M  V30 5888 C 556.676 -2.32722 0.296268 0
M  V30 5889 C 557.692 -1.63901 -0.584162 0
M  V30 5890 O 558.868 -1.95465 -0.485334 0
M  V30 5891 C 555.933 -3.42942 -0.509103 0
M  V30 5892 C 554.994 -4.2746 0.397069 0
M  V30 5893 C 554.227 -5.32416 -0.36996 0
M  V30 5894 O 554.45 -5.47491 -1.6003 0
M  V30 5895 O 553.384 -6.01327 0.262493 0
M  V30 5896 H 557.21 -2.82078 1.12543 0
M  V30 5897 H 554.795 -1.36194 0.614135 0
M  V30 5898 H 556.677 -4.1017 -0.96634 0
M  V30 5899 H 555.352 -2.95781 -1.31512 0
M  V30 5900 H 554.259 -3.63053 0.902411 0
M  V30 5901 H 555.592 -4.78136 1.16818 0
M  V30 5902 N 557.244 -0.608902 -1.45362 0
M  V30 5903 C 558.472 -0.111013 -2.06602 0
M  V30 5904 C 558.887 1.20516 -1.45332 0
M  V30 5905 O 558.244 1.73437 -0.567978 0
M  V30 5906 C 558.295 0.033688 -3.61484 0
M  V30 5907 O 558.016 -1.23041 -4.20467 0
M  V30 5908 C 559.517 0.562882 -4.39712 0
M  V30 5909 H 556.737 -0.0694453 -0.667397 0
M  V30 5910 H 559.281 -0.837008 -1.86586 0
M  V30 5911 H 557.436 0.710016 -3.80838 0
M  V30 5912 H 557.85 -1.06094 -5.13658 0
M  V30 5913 H 559.324 0.613213 -5.48583 0
M  V30 5914 H 559.801 1.58543 -4.09586 0
M  V30 5915 H 560.407 -0.0794454 -4.25226 0
M  V30 5916 N 558.722 1.53707 -0.348139 0
M  V30 5917 C 559.947 2.05877 0.250883 0
M  V30 5918 C 560.372 1.22115 1.43072 0
M  V30 5919 O 559.73 0.235986 1.79758 0
M  V30 5920 C 559.778 3.54886 0.639416 0
M  V30 5921 O 558.882 3.73948 1.73888 0
M  V30 5922 H 558.223 0.662754 0.040653 0
M  V30 5923 H 560.753 1.98303 -0.503685 0
M  V30 5924 H 560.763 3.97601 0.915295 0
M  V30 5925 H 559.438 4.153 -0.223386 0
M  V30 5926 H 558.015 3.43134 1.45991 0
M  V30 5927 N 560.2 0.0768682 1.57412 0
M  V30 5928 C 561.13 -0.886026 2.16037 0
M  V30 5929 C 562.111 -1.30691 1.08876 0
M  V30 5930 O 563.296 -1.37705 1.36934 0
M  V30 5931 C 560.426 -2.1518 2.72608 0
M  V30 5932 C 559.38 -1.87015 3.8498 0
M  V30 5933 C 558.706 -3.20266 4.28175 0
M  V30 5934 C 560.006 -1.17143 5.08994 0
M  V30 5935 H 561.7 -0.397642 2.96748 0
M  V30 5936 H 559.246 -0.189823 1.42743 0
M  V30 5937 H 561.199 -2.82962 3.12266 0
M  V30 5938 H 559.923 -2.66269 1.89125 0
M  V30 5939 H 558.582 -1.21636 3.45833 0
M  V30 5940 H 558.23 -3.69207 3.41607 0
M  V30 5941 H 557.93 -3.0221 5.03927 0
M  V30 5942 H 559.454 -3.89237 4.70454 0
M  V30 5943 H 560.868 -1.75003 5.45937 0
M  V30 5944 H 559.265 -1.09328 5.90057 0
M  V30 5945 H 560.335 -0.151295 4.84664 0
M  V30 5946 N 561.678 -1.56367 -0.196722 0
M  V30 5947 C 562.611 -1.89475 -1.2718 0
M  V30 5948 C 563.589 -0.754667 -1.44026 0
M  V30 5949 O 564.773 -1.00551 -1.59442 0
M  V30 5950 C 561.9 -2.12352 -2.63864 0
M  V30 5951 C 560.946 -3.35053 -2.63897 0
M  V30 5952 S 561.779 -4.90228 -2.15492 0
M  V30 5953 C 562.935 -5.16171 -3.54004 0
M  V30 5954 H 563.168 -2.80365 -0.989075 0
M  V30 5955 H 560.701 -1.49125 -0.40014 0
M  V30 5956 H 562.659 -2.26214 -3.42545 0
M  V30 5957 H 561.32 -1.22214 -2.89349 0
M  V30 5958 H 560.513 -3.48182 -3.64397 0
M  V30 5959 H 560.115 -3.20176 -1.93296 0
M  V30 5960 H 562.407 -5.06591 -4.49857 0
M  V30 5961 H 563.35 -6.17938 -3.45771 0
M  V30 5962 H 563.758 -4.43814 -3.48841 0
M  V30 5963 N 563.156 0.464375 -1.50603 0
M  V30 5964 C 564.572 0.798684 -1.38178 0
M  V30 5965 C 564.772 1.96568 -0.44308 0
M  V30 5966 O 563.828 2.52252 0.111814 0
M  V30 5967 C 565.141 1.10444 -2.79683 0
M  V30 5968 C 566.689 1.2105 -2.88645 0
M  V30 5969 C 567.164 1.54934 -4.30998 0
M  V30 5970 N 568.655 1.61913 -4.3398 0
M  V30 5971 C 569.39 1.8965 -5.41129 0
M  V30 5972 N 568.886 2.15361 -6.58477 0
M  V30 5973 N 570.679 1.91207 -5.28579 0
M  V30 5974 H 562.83 -0.304603 -2.10204 0
M  V30 5975 H 565.093 -0.0737804 -0.945125 0
M  V30 5976 H 564.799 0.319934 -3.50242 0
M  V30 5977 H 564.673 2.03896 -3.17342 0
M  V30 5978 H 567.06 1.98567 -2.18301 0
M  V30 5979 H 567.141 0.255613 -2.5452 0
M  V30 5980 H 566.785 0.779549 -5.01882 0
M  V30 5981 H 566.715 2.51584 -4.62615 0
M  V30 5982 H 569.206 1.44055 -3.49366 0
M  V30 5983 H 569.519 2.35818 -7.35941 0
M  V30 5984 H 567.864 2.1274 -6.6164 0
M  V30 5985 H 571.055 1.70622 -4.35897 0
M  V30 5986 H 571.228 2.12488 -6.12171 0
M  V30 5987 N 564.634 1.40294 0.718013 0
M  V30 5988 C 565.862 1.4175 1.50714 0
M  V30 5989 C 566.277 0.0165366 1.88793 0
M  V30 5990 O 565.634 -0.958942 1.55276 0
M  V30 5991 C 565.685 2.30598 2.784 0
M  V30 5992 O 565.406 3.6524 2.41932 0
M  V30 5993 C 566.907 2.4062 3.72313 0
M  V30 5994 H 564.127 0.483565 0.465194 0
M  V30 5995 H 566.671 1.84316 0.885889 0
M  V30 5996 H 564.826 1.91401 3.36815 0
M  V30 5997 H 565.24 4.12402 3.24076 0
M  V30 5998 H 566.714 3.07001 4.58753 0
M  V30 5999 H 567.191 1.4305 4.15251 0
M  V30 6000 H 567.797 2.80359 3.19811 0
M  V30 6001 N 566.112 -0.949982 1.2575 0
M  V30 6002 C 567.042 -2.06483 1.09028 0
M  V30 6003 C 568.023 -1.701 -0.00201532 0
M  V30 6004 O 569.208 -1.93469 0.168383 0
M  V30 6005 C 566.338 -3.39899 0.71316 0
M  V30 6006 C 565.292 -3.90309 1.75621 0
M  V30 6007 C 564.618 -5.20274 1.23365 0
M  V30 6008 C 565.918 -4.16169 3.15596 0
M  V30 6009 H 567.612 -2.20731 2.02283 0
M  V30 6010 H 565.158 -1.06066 0.973964 0
M  V30 6011 H 567.111 -4.17346 0.58309 0
M  V30 6012 H 565.835 -3.25602 -0.255091 0
M  V30 6013 H 564.494 -3.15035 1.8748 0
M  V30 6014 H 564.142 -5.02351 0.255491 0
M  V30 6015 H 563.842 -5.54971 1.93082 0
M  V30 6016 H 565.366 -6.00314 1.11607 0
M  V30 6017 H 566.78 -4.84259 3.06864 0
M  V30 6018 H 565.177 -4.62131 3.82825 0
M  V30 6019 H 566.247 -3.22273 3.6231 0
M  V30 6020 N 567.59 -1.07411 -1.15328 0
M  V30 6021 C 568.83 -0.807011 -1.87794 0
M  V30 6022 C 569.194 0.654987 -1.80482 0
M  V30 6023 O 570.395 1.03716 -2.47985 0
M  V30 6024 C 568.666 -1.30198 -3.32841 0
M  V30 6025 S 570.225 -1.16564 -4.23034 0
M  V30 6026 H 567.043 -0.292429 -0.648079 0
M  V30 6027 H 569.645 -1.37334 -1.39139 0
M  V30 6028 H 568.349 -2.3607 -3.35707 0
M  V30 6029 H 567.88 -0.730881 -3.86551 0
M  V30 6030 H 569.895 -0.103557 -4.96092 0
M  V30 6031 N 569.068 1.32177 -0.85831 0
M  V30 6032 C 570.316 1.96735 -0.462568 0
M  V30 6033 C 570.637 1.6824 0.985911 0
M  V30 6034 O 569.907 0.991564 1.68952 0
M  V30 6035 H 568.487 0.727849 -0.168064 0
M  V30 6036 H 571.149 1.61195 -1.09554 0
M  V30 6037 H 570.245 3.06068 -0.610647 0
M  V30 6038 N 570.547 0.616602 1.45037 0
M  V30 6039 C 571.775 0.121968 2.0654 0
M  V30 6040 C 572.19 -1.19743 1.45969 0
M  V30 6041 O 571.547 -1.73133 0.577168 0
M  V30 6042 C 571.598 -0.0145171 3.61497 0
M  V30 6043 O 571.319 1.25269 4.19809 0
M  V30 6044 C 572.82 -0.539555 4.40004 0
M  V30 6045 H 570.04 0.0729837 0.667019 0
M  V30 6046 H 572.584 0.846891 1.8614 0
M  V30 6047 H 570.739 -0.689809 3.81209 0
M  V30 6048 H 571.153 1.08816 5.13088 0
M  V30 6049 H 572.627 -0.584112 5.48901 0
M  V30 6050 H 573.104 -1.56368 4.10421 0
M  V30 6051 H 573.71 0.101995 4.25178 0
M  V30 6052 N 572.025 -1.5352 0.356285 0
M  V30 6053 C 573.436 -1.86282 -0.12492 0
M  V30 6054 C 573.787 -1.27717 -1.48939 0
M  V30 6055 O 572.912 -0.595614 -2.08042 0
M  V30 6056 C 573.507 -3.37995 -0.23345 0
M  V30 6057 C 572.066 -3.70588 -0.658899 0
M  V30 6058 C 571.213 -2.76581 0.199596 0
M  V30 6059 H 574.164 -1.47901 0.575423 0
M  V30 6060 H 574.185 -3.65475 -1.0587 0
M  V30 6061 H 573.697 -3.8059 0.759776 0
M  V30 6062 H 571.798 -3.33544 -1.66069 0
M  V30 6063 H 571.911 -4.77076 -0.439957 0
M  V30 6064 H 570.275 -2.52552 -0.330076 0
M  V30 6065 H 571.058 -3.22008 1.19019 0
M  V30 6066 N 573.503 -0.0852151 -1.57369 0
M  V30 6067 C 574.731 0.58946 -1.98325 0
M  V30 6068 C 575.146 1.62333 -0.96403 0
M  V30 6069 O 574.503 1.82438 0.0476395 0
M  V30 6070 C 574.554 1.24604 -3.39347 0
M  V30 6071 O 574.275 0.253532 -4.37366 0
M  V30 6072 C 575.776 2.00726 -3.95252 0
M  V30 6073 H 572.996 0.158783 -0.651942 0
M  V30 6074 H 575.54 -0.161584 -2.03861 0
M  V30 6075 H 573.695 1.94808 -3.34856 0
M  V30 6076 H 574.109 0.726207 -5.19448 0
M  V30 6077 H 575.583 2.42039 -4.96106 0
M  V30 6078 H 576.06 2.86919 -3.32527 0
M  V30 6079 H 576.666 1.3536 -4.03185 0
M  V30 6080 N 574.981 1.5647 0.188427 0
M  V30 6081 C 576.211 1.84863 0.922463 0
M  V30 6082 C 576.619 0.666413 1.77075 0
M  V30 6083 O 575.962 -0.374044 1.79852 0
M  V30 6084 C 576.024 3.07447 1.86324 0
M  V30 6085 C 575.688 4.41066 1.19625 0
M  V30 6086 C 576.685 5.16767 0.569946 0
M  V30 6087 C 574.37 4.87802 1.19811 0
M  V30 6088 C 576.364 6.37384 -0.045594 0
M  V30 6089 C 574.051 6.08353 0.57874 0
M  V30 6090 C 575.049 6.82987 -0.0420259 0
M  V30 6091 O 574.737 8.01254 -0.651675 0
M  V30 6092 H 574.469 0.61784 0.274316 0
M  V30 6093 H 577.023 2.04437 0.198613 0
M  V30 6094 H 575.253 2.83774 2.62696 0
M  V30 6095 H 576.942 3.2243 2.46564 0
M  V30 6096 H 577.708 4.81749 0.560601 0
M  V30 6097 H 573.587 4.29662 1.67069 0
M  V30 6098 H 577.131 6.95578 -0.530731 0
M  V30 6099 H 573.028 6.42838 0.58561 0
M  V30 6100 H 573.796 8.16655 -0.549236 0
M  V30 6101 N 576.459 -0.456382 1.50847 0
M  V30 6102 C 577.389 -1.56025 1.73719 0
M  V30 6103 C 578.37 -1.5967 0.586473 0
M  V30 6104 O 579.555 -1.75702 0.827185 0
M  V30 6105 C 576.685 -2.94251 1.84483 0
M  V30 6106 C 575.639 -3.05471 2.99786 0
M  V30 6107 C 574.965 -4.45489 2.95709 0
M  V30 6108 C 576.265 -2.81318 4.40065 0
M  V30 6109 H 577.959 -1.37138 2.66146 0
M  V30 6110 H 575.505 -0.658299 1.28072 0
M  V30 6111 H 577.458 -3.71417 1.99067 0
M  V30 6112 H 576.182 -3.14328 0.886891 0
M  V30 6113 H 574.841 -2.30741 2.84876 0
M  V30 6114 H 574.489 -4.62505 1.97732 0
M  V30 6115 H 574.189 -4.53929 3.73125 0
M  V30 6116 H 575.713 -5.24655 3.12362 0
M  V30 6117 H 577.127 -3.48226 4.55425 0
M  V30 6118 H 575.524 -3.01188 5.19043 0
M  V30 6119 H 576.594 -1.7706 4.51418 0
M  V30 6120 N 577.937 -1.40673 -0.710563 0
M  V30 6121 C 578.9 -1.4108 -1.80635 0
M  V30 6122 C 579.9 -0.303783 -1.57904 0
M  V30 6123 O 581.09 -0.562937 -1.64853 0
M  V30 6124 C 578.222 -1.20748 -3.18799 0
M  V30 6125 H 579.415 -2.38612 -1.81671 0
M  V30 6126 H 576.968 -1.26595 -0.916704 0
M  V30 6127 H 577.703 -0.239964 -3.23411 0
M  V30 6128 H 577.488 -2.00941 -3.36698 0
M  V30 6129 H 578.978 -1.23833 -3.98817 0
M  V30 6130 N 579.415 0.9433 -1.26252 0
M  V30 6131 C 580.826 1.50404 -1.10614 0
M  V30 6132 C 581.177 1.93666 0.31429 0
M  V30 6133 O 580.302 1.79709 1.20555 0
M  V30 6134 C 580.897 2.73336 -2.00182 0
M  V30 6135 C 579.456 3.25686 -1.88695 0
M  V30 6136 C 578.603 1.98474 -1.93658 0
M  V30 6137 H 581.554 0.759006 -1.39373 0
M  V30 6138 H 581.575 3.47567 -1.54847 0
M  V30 6139 H 581.087 2.41818 -3.03555 0
M  V30 6140 H 579.188 3.61998 -0.882489 0
M  V30 6141 H 579.301 3.92935 -2.74115 0
M  V30 6142 H 577.665 2.14278 -1.37684 0
M  V30 6143 H 578.448 1.6929 -2.98657 0
M  V30 6144 N 580.893 1.08022 1.14757 0
M  V30 6145 C 581.803 0.718292 2.23333 0
M  V30 6146 C 582.819 -0.273477 1.71837 0
M  V30 6147 O 583.995 -0.118406 2.01052 0
M  V30 6148 C 581.06 0.128855 3.4646 0
M  V30 6149 C 580.121 1.17473 4.12915 0
M  V30 6150 C 579.354 0.61333 5.30164 0
M  V30 6151 O 579.577 -0.568458 5.6756 0
M  V30 6152 O 578.511 1.3615 5.86299 0
M  V30 6153 H 582.337 1.62394 2.56636 0
M  V30 6154 H 579.922 0.853628 1.22611 0
M  V30 6155 H 581.804 -0.197249 4.20938 0
M  V30 6156 H 580.479 -0.750014 3.14891 0
M  V30 6157 H 579.386 1.5533 3.40328 0
M  V30 6158 H 580.719 2.02574 4.48581 0
M  V30 6159 N 582.371 -1.3172 0.865308 0
M  V30 6160 C 583.617 -1.97168 0.474633 0
M  V30 6161 C 583.95 -1.68263 -0.969604 0
M  V30 6162 O 583.225 -0.976588 -1.68205 0
M  V30 6163 C 583.508 -3.52689 0.726808 0
M  V30 6164 C 583.361 -3.91185 2.22024 0
M  V30 6165 C 584.68 -4.39689 0.190201 0
M  V30 6166 H 581.799 -0.716185 0.17392 0
M  V30 6167 H 584.441 -1.55925 1.08569 0
M  V30 6168 H 582.591 -3.8795 0.206705 0
M  V30 6169 H 584.263 -3.66049 2.80724 0
M  V30 6170 H 582.506 -3.3996 2.69462 0
M  V30 6171 H 583.177 -4.99604 2.34735 0
M  V30 6172 H 585.653 -4.11225 0.635103 0
M  V30 6173 H 584.529 -5.47469 0.396132 0
M  V30 6174 H 584.79 -4.32683 -0.907625 0
M  V30 6175 N 583.85 -0.624285 -1.44708 0
M  V30 6176 C 584.779 0.0717025 -2.3339 0
M  V30 6177 C 585.76 0.841814 -1.47809 0
M  V30 6178 O 586.946 0.809056 -1.76544 0
M  V30 6179 C 584.076 1.05852 -3.30776 0
M  V30 6180 C 583.029 0.400503 -4.26122 0
M  V30 6181 C 582.356 1.49674 -5.13324 0
M  V30 6182 C 583.656 -0.688924 -5.17737 0
M  V30 6183 H 585.35 -0.668819 -2.91834 0
M  V30 6184 H 582.896 -0.32308 -1.40329 0
M  V30 6185 H 584.849 1.5541 -3.91696 0
M  V30 6186 H 583.572 1.82984 -2.70526 0
M  V30 6187 H 582.231 -0.0743687 -3.66525 0
M  V30 6188 H 581.88 2.25877 -4.49431 0
M  V30 6189 H 581.58 1.06188 -5.77926 0
M  V30 6190 H 583.104 1.99427 -5.77115 0
M  V30 6191 H 584.518 -0.276724 -5.72632 0
M  V30 6192 H 582.915 -1.04652 -5.90904 0
M  V30 6193 H 583.985 -1.55884 -4.5916 0
M  V30 6194 N 585.328 1.53329 -0.364422 0
M  V30 6195 C 586.574 2.01537 0.225969 0
M  V30 6196 C 586.907 1.25128 1.48515 0
M  V30 6197 O 586.182 0.344653 1.91422 0
M  V30 6198 C 586.465 3.56339 0.519092 0
M  V30 6199 C 586.318 4.43441 -0.753639 0
M  V30 6200 C 587.637 4.19833 1.32015 0
M  V30 6201 H 584.756 0.732573 0.0806548 0
M  V30 6202 H 587.398 1.83597 -0.489084 0
M  V30 6203 H 585.548 3.71756 1.12825 0
M  V30 6204 H 587.22 4.39823 -1.39116 0
M  V30 6205 H 585.463 4.11457 -1.37424 0
M  V30 6206 H 586.134 5.49699 -0.503517 0
M  V30 6207 H 588.61 4.08242 0.804859 0
M  V30 6208 H 587.486 5.28177 1.49399 0
M  V30 6209 H 587.747 3.75821 2.32832 0
M  V30 6210 N 586.806 0.0935595 1.57322 0
M  V30 6211 C 588.031 -0.582324 1.99057 0
M  V30 6212 C 588.456 -1.61025 0.972242 0
M  V30 6213 O 587.814 -1.81202 -0.0594622 0
M  V30 6214 C 587.862 -1.20799 3.39765 0
M  V30 6215 O 586.966 -2.32382 3.40694 0
M  V30 6216 H 586.307 -0.147884 0.647323 0
M  V30 6217 H 588.837 0.174516 2.03854 0
M  V30 6218 H 588.847 -1.54966 3.77425 0
M  V30 6219 H 587.522 -0.454914 4.13405 0
M  V30 6220 H 586.099 -1.99845 3.14827 0
M  V30 6221 N 588.284 -1.56567 -0.180126 0
M  V30 6222 C 589.53 -1.81761 -0.899497 0
M  V30 6223 C 589.863 -0.670015 -1.82276 0
M  V30 6224 O 589.138 0.328575 -1.91705 0
M  V30 6225 C 589.421 -3.17296 -1.7028 0
M  V30 6226 C 589.274 -4.4257 -0.803255 0
M  V30 6227 C 590.593 -3.49678 -2.67233 0
M  V30 6228 H 587.712 -0.661192 -0.325567 0
M  V30 6229 H 590.354 -1.89272 -0.16612 0
M  V30 6230 H 588.504 -3.11023 -2.32802 0
M  V30 6231 H 590.176 -4.60902 -0.191585 0
M  V30 6232 H 588.419 -4.33658 -0.110796 0
M  V30 6233 H 589.09 -5.33935 -1.40064 0
M  V30 6234 H 591.566 -3.56347 -2.14839 0
M  V30 6235 H 590.442 -4.45605 -3.20511 0
M  V30 6236 H 590.703 -2.73932 -3.47007 0
M  V30 6237 N 589.762 0.448376 -1.51087 0
M  V30 6238 C 591.01 1.19635 -1.62886 0
M  V30 6239 C 591.331 1.91977 -0.342024 0
M  V30 6240 O 590.601 1.85094 0.641636 0
M  V30 6241 H 589.181 0.444598 -0.600285 0
M  V30 6242 H 591.843 0.515138 -1.87969 0
M  V30 6243 H 590.939 1.93194 -2.45117 0
M  V30 6244 N 591.24 1.41047 0.703093 0
M  V30 6245 C 592.468 1.4334 1.49202 0
M  V30 6246 C 592.883 0.0365596 1.88765 0
M  V30 6247 O 592.24 -0.942419 1.56284 0
M  V30 6248 C 592.291 2.33538 2.75939 0
M  V30 6249 O 592.012 3.67786 2.38045 0
M  V30 6250 C 593.513 2.44555 3.6974 0
M  V30 6251 H 590.733 0.488472 0.460039 0
M  V30 6252 H 593.277 1.85245 0.86629 0
M  V30 6253 H 591.432 1.94962 3.34766 0
M  V30 6254 H 591.846 4.15816 3.19683 0
M  V30 6255 H 593.32 3.11849 4.55471 0
M  V30 6256 H 593.797 1.47447 4.1371 0
M  V30 6257 H 594.403 2.83735 3.16819 0
M  V30 6258 N 592.718 -0.936591 1.26751 0
M  V30 6259 C 593.681 -2.01752 1.08761 0
M  V30 6260 C 594.681 -1.60763 0.0344435 0
M  V30 6261 O 595.871 -1.71963 0.278258 0
M  V30 6262 C 593.003 -3.34543 0.655271 0
M  V30 6263 H 594.196 -2.19143 2.04735 0
M  V30 6264 H 591.749 -1.11618 1.09413 0
M  V30 6265 H 592.484 -3.22851 -0.30626 0
M  V30 6266 H 592.269 -3.65647 1.41578 0
M  V30 6267 H 593.759 -4.13944 0.551378 0
M  V30 6268 N 594.196 -1.08629 -1.14182 0
M  V30 6269 C 595.444 -0.815731 -1.84906 0
M  V30 6270 C 595.765 0.660441 -1.83475 0
M  V30 6271 O 595.035 1.47888 -1.28476 0
M  V30 6272 H 593.615 -0.298773 -0.684648 0
M  V30 6273 H 596.277 -1.37274 -1.38354 0
M  V30 6274 H 595.373 -1.16193 -2.89665 0
M  V30 6275 N 595.674 1.31259 -0.872281 0
M  V30 6276 C 596.904 2.00504 -0.498183 0
M  V30 6277 C 597.312 1.65632 0.914479 0
M  V30 6278 O 596.655 0.882849 1.61095 0
M  V30 6279 C 596.717 3.5482 -0.578194 0
M  V30 6280 C 596.381 4.13172 -1.95289 0
M  V30 6281 C 597.378 4.30107 -2.92069 0
M  V30 6282 C 595.063 4.48846 -2.25483 0
M  V30 6283 C 597.057 4.81908 -4.17185 0
M  V30 6284 C 594.744 5.00349 -3.50847 0
M  V30 6285 C 595.742 5.16831 -4.46514 0
M  V30 6286 O 595.43 5.67228 -5.69656 0
M  V30 6287 H 595.162 0.648055 -0.192354 0
M  V30 6288 H 597.716 1.6841 -1.17589 0
M  V30 6289 H 595.946 3.86383 0.156438 0
M  V30 6290 H 597.635 4.05318 -0.217192 0
M  V30 6291 H 598.401 4.02862 -2.7005 0
M  V30 6292 H 594.28 4.35292 -1.51795 0
M  V30 6293 H 597.824 4.94688 -4.91863 0
M  V30 6294 H 593.721 5.27028 -3.72708 0
M  V30 6295 H 594.489 5.85592 -5.7186 0
M  V30 6296 N 597.152 0.631951 1.44375 0
M  V30 6297 C 598.1 -0.0846693 2.32446 0
M  V30 6298 C 599.094 -0.834957 1.47393 0
M  V30 6299 O 600.3 -0.747764 1.63733 0
M  V30 6300 H 596.675 -0.0461508 0.750583 0
M  V30 6301 H 598.646 0.67619 2.90638 0
M  V30 6302 C 597.395 -1.05211 3.314 0
M  V30 6303 H 596.718 -0.484203 3.96857 0
M  V30 6304 H 598.158 -1.523 3.95703 0
M  V30 6305 C 596.617 -2.13776 2.60387 0
M  V30 6306 O 597.147 -3.21869 2.4034 0
M  V30 6307 N 595.353 -1.89733 2.20113 0
M  V30 6308 H 594.9 -1.01833 2.36618 0
M  V30 6309 H 594.858 -2.62572 1.72926 0
M  V30 6310 N 598.631 -1.53133 0.372548 0
M  V30 6311 C 600.047 -1.59585 0.02178 0
M  V30 6312 C 600.247 -1.38736 -1.46132 0
M  V30 6313 O 599.303 -1.19599 -2.22379 0
M  V30 6314 C 600.616 -2.9678 0.483959 0
M  V30 6315 C 602.164 -3.09909 0.438775 0
M  V30 6316 C 602.639 -4.49527 0.876876 0
M  V30 6317 N 604.13 -4.55663 0.832214 0
M  V30 6318 C 604.865 -5.61896 1.14281 0
M  V30 6319 N 604.361 -6.75852 1.52303 0
M  V30 6320 N 606.154 -5.51916 1.06515 0
M  V30 6321 H 598.305 -1.64936 1.33827 0
M  V30 6322 H 600.568 -0.773947 0.547458 0
M  V30 6323 H 600.274 -3.17198 1.51915 0
M  V30 6324 H 600.148 -3.7699 -0.125784 0
M  V30 6325 H 602.535 -2.89197 -0.587294 0
M  V30 6326 H 602.616 -2.31691 1.0841 0
M  V30 6327 H 602.26 -4.70979 1.90109 0
M  V30 6328 H 602.19 -5.26186 0.208727 0
M  V30 6329 H 604.681 -3.73844 0.552195 0
M  V30 6330 H 604.994 -7.52862 1.7441 0
M  V30 6331 H 603.339 -6.77226 1.56175 0
M  V30 6332 H 606.53 -4.6177 0.767235 0
M  V30 6333 H 606.703 -6.34609 1.31053 0
M  V30 6334 N 600.109 -0.101901 -1.5727 0
M  V30 6335 C 601.072 0.840129 -2.13247 0
M  V30 6336 C 602.072 1.20625 -1.06331 0
M  V30 6337 O 603.262 1.13456 -1.32186 0
M  V30 6338 C 600.394 2.13372 -2.65867 0
M  V30 6339 H 601.587 0.353945 -2.97804 0
M  V30 6340 H 599.14 0.147167 -1.55606 0
M  V30 6341 H 599.875 2.66461 -1.84849 0
M  V30 6342 H 599.66 1.88085 -3.44044 0
M  V30 6343 H 601.15 2.80748 -3.09145 0
M  V30 6344 N 601.587 1.56661 0.17182 0
M  V30 6345 C 602.833 1.82235 0.889845 0
M  V30 6346 C 603.166 0.679673 1.81918 0
M  V30 6347 O 602.441 -0.318404 1.91876 0
M  V30 6348 C 602.724 3.18195 1.68595 0
M  V30 6349 C 602.577 4.42989 0.779773 0
M  V30 6350 C 603.896 3.5109 2.65375 0
M  V30 6351 H 601.015 0.66291 0.322056 0
M  V30 6352 H 603.657 1.89358 0.15608 0
M  V30 6353 H 601.807 3.12253 2.3115 0
M  V30 6354 H 603.479 4.60997 0.16714 0
M  V30 6355 H 601.722 4.33711 0.0877964 0
M  V30 6356 H 602.393 5.3467 1.3723 0
M  V30 6357 H 604.869 3.57482 2.12946 0
M  V30 6358 H 603.745 4.47298 3.18144 0
M  V30 6359 H 604.006 2.75768 3.45549 0
M  V30 6360 N 603.065 -0.440357 1.51323 0
M  V30 6361 C 604.342 -1.20109 1.5438 0
M  V30 6362 C 604.722 -2.08866 0.306303 0
M  V30 6363 O 604.07 -2.1723 -0.708773 0
M  V30 6364 C 604.28 -2.00555 2.8562 0
M  V30 6365 C 605.628 -2.577 3.37455 0
M  V30 6366 O 606.652 -2.10769 2.8715 0
M  V30 6367 O 605.511 -3.43289 4.25224 0
M  V30 6368 H 602.605 -0.546668 0.620551 0
M  V30 6369 H 605.151 -0.449672 1.63634 0
M  V30 6370 H 603.923 -1.35346 3.67147 0
M  V30 6371 H 603.546 -2.82768 2.79514 0
M  V30 6372 N 604.543 -1.41418 -0.695603 0
M  V30 6373 C 605.783 -1.42241 -1.46788 0
M  V30 6374 C 606.147 -0.0300827 -1.91976 0
M  V30 6375 O 607.348 0.0868914 -2.6866 0
M  V30 6376 C 605.619 -2.4011 -2.6473 0
M  V30 6377 S 607.178 -2.59462 -3.53871 0
M  V30 6378 H 603.996 -0.503893 -0.50161 0
M  V30 6379 H 606.598 -1.77855 -0.811654 0
M  V30 6380 H 605.302 -3.40073 -2.29736 0
M  V30 6381 H 604.833 -2.05849 -3.35246 0
M  V30 6382 H 606.848 -1.862 -4.59939 0
M  V30 6383 N 606.021 0.929856 -1.27246 0
M  V30 6384 C 607.267 1.6802 -1.14634 0
M  V30 6385 C 607.622 1.89965 0.305151 0
M  V30 6386 O 606.915 1.47737 1.22001 0
M  V30 6387 C 607.109 3.05116 -1.86115 0
M  V30 6388 C 606.938 2.96549 -3.38066 0
M  V30 6389 C 605.708 2.98947 -4.0738 0
M  V30 6390 C 607.906 2.7583 -4.34077 0
M  V30 6391 N 605.888 2.80799 -5.45917 0
M  V30 6392 C 607.259 2.66364 -5.59866 0
M  V30 6393 C 609.314 2.60701 -4.24193 0
M  V30 6394 C 608.017 2.43313 -6.76898 0
M  V30 6395 C 610.043 2.39026 -5.40944 0
M  V30 6396 C 609.405 2.30302 -6.65688 0
M  V30 6397 H 605.504 0.62172 -0.474329 0
M  V30 6398 H 608.088 1.09947 -1.60685 0
M  V30 6399 H 606.259 3.61306 -1.42522 0
M  V30 6400 H 607.991 3.69076 -1.66027 0
M  V30 6401 H 604.746 3.09093 -3.58829 0
M  V30 6402 H 605.17 2.74861 -6.18692 0
M  V30 6403 H 609.812 2.66206 -3.28473 0
M  V30 6404 H 607.53 2.36548 -7.72704 0
M  V30 6405 H 611.116 2.28208 -5.35175 0
M  V30 6406 H 609.996 2.13756 -7.54505 0
M  V30 6407 N 607.499 1.09233 1.13605 0
M  V30 6408 C 608.724 0.849067 1.89224 0
M  V30 6409 C 609.149 -0.593875 1.78479 0
M  V30 6410 O 608.507 -1.41703 1.13092 0
M  V30 6411 C 608.555 1.28642 3.36873 0
M  V30 6412 O 607.659 0.44363 4.10007 0
M  V30 6413 H 607 0.30767 0.588417 0
M  V30 6414 H 609.53 1.45595 1.43748 0
M  V30 6415 H 609.54 1.27096 3.87699 0
M  V30 6416 H 608.215 2.33729 3.44011 0
M  V30 6417 H 606.792 0.523241 3.69211 0
M  V30 6418 N 608.977 -1.30795 0.87923 0
M  V30 6419 C 609.907 -2.30742 0.357796 0
M  V30 6420 C 610.888 -1.60747 -0.556283 0
M  V30 6421 O 612.073 -1.88393 -0.47135 0
M  V30 6422 C 609.203 -3.44583 -0.433555 0
M  V30 6423 C 608.157 -4.26235 0.388251 0
M  V30 6424 C 607.483 -5.32073 -0.529352 0
M  V30 6425 C 608.783 -4.96303 1.62729 0
M  V30 6426 H 610.477 -2.74605 1.19299 0
M  V30 6427 H 608.023 -1.32017 0.575104 0
M  V30 6428 H 609.976 -4.13563 -0.808934 0
M  V30 6429 H 608.7 -2.99511 -1.30234 0
M  V30 6430 H 607.359 -3.58936 0.745695 0
M  V30 6431 H 607.007 -4.83249 -1.39569 0
M  V30 6432 H 606.707 -5.87598 0.0166741 0
M  V30 6433 H 608.231 -6.0391 -0.901373 0
M  V30 6434 H 609.645 -5.5783 1.32283 0
M  V30 6435 H 608.042 -5.61666 2.11309 0
M  V30 6436 H 609.112 -4.22758 2.37494 0
M  V30 6437 N 610.455 -0.639598 -1.44038 0
M  V30 6438 C 611.703 -0.147188 -2.01563 0
M  V30 6439 C 612.024 1.2384 -1.50628 0
M  V30 6440 O 611.294 1.82452 -0.713316 0
M  V30 6441 H 609.874 -0.0514231 -0.745228 0
M  V30 6442 H 612.536 -0.828205 -1.76428 0
M  V30 6443 H 611.632 -0.121358 -3.11864 0
M  V30 6444 N 611.933 1.52934 -0.380664 0
M  V30 6445 C 613.179 2.01765 0.20458 0
M  V30 6446 C 613.512 1.26696 1.47179 0
M  V30 6447 O 612.787 0.364936 1.91046 0
M  V30 6448 C 613.07 3.56869 0.481269 0
M  V30 6449 C 612.923 4.42617 -0.800629 0
M  V30 6450 C 614.242 4.2121 1.27554 0
M  V30 6451 H 611.361 0.733388 0.0728803 0
M  V30 6452 H 614.003 1.83068 -0.50853 0
M  V30 6453 H 612.153 3.72932 1.08875 0
M  V30 6454 H 613.825 4.38323 -1.43773 0
M  V30 6455 H 612.068 4.09977 -1.4178 0
M  V30 6456 H 612.739 5.49134 -0.561791 0
M  V30 6457 H 615.215 4.09072 0.761514 0
M  V30 6458 H 614.091 5.29732 1.43788 0
M  V30 6459 H 614.352 3.78269 2.28833 0
M  V30 6460 N 613.412 0.11024 1.57214 0
M  V30 6461 C 614.661 -0.549638 1.94067 0
M  V30 6462 C 614.974 -1.68388 0.995234 0
M  V30 6463 O 616.18 -2.40593 1.25807 0
M  V30 6464 C 614.636 -1.02912 3.44873 0
M  V30 6465 C 614.244 0.0761861 4.47935 0
M  V30 6466 C 615.988 -1.66087 3.9066 0
M  V30 6467 C 613.895 -0.419502 5.8991 0
M  V30 6468 H 612.825 -0.209092 0.724428 0
M  V30 6469 H 615.476 0.188683 1.82527 0
M  V30 6470 H 613.858 -1.82159 3.51616 0
M  V30 6471 H 615.032 0.852185 4.52851 0
M  V30 6472 H 613.347 0.614052 4.11847 0
M  V30 6473 H 615.944 -2.04272 4.94143 0
M  V30 6474 H 616.287 -2.53591 3.30148 0
M  V30 6475 H 616.82 -0.933959 3.86681 0
M  V30 6476 H 613.559 0.419277 6.54158 0
M  V30 6477 H 613.079 -1.16217 5.88433 0
M  V30 6478 H 614.758 -0.883577 6.40938 0
M  V30 6479 N 614.89 -1.56749 -0.16351 0
M  V30 6480 C 615.82 -2.00042 -1.20438 0
M  V30 6481 C 616.801 -0.877256 -1.45733 0
M  V30 6482 O 617.986 -1.1439 -1.56935 0
M  V30 6483 C 615.116 -2.36697 -2.54149 0
M  V30 6484 C 614.07 -3.52046 -2.43408 0
M  V30 6485 C 613.396 -3.74466 -3.81679 0
M  V30 6486 C 614.696 -4.85247 -1.93216 0
M  V30 6487 H 616.39 -2.87244 -0.844477 0
M  V30 6488 H 613.936 -1.38194 -0.40478 0
M  V30 6489 H 615.889 -2.65582 -3.27176 0
M  V30 6490 H 614.613 -1.46414 -2.91943 0
M  V30 6491 H 613.272 -3.23301 -1.72834 0
M  V30 6492 H 612.92 -2.81461 -4.1688 0
M  V30 6493 H 612.62 -4.52084 -3.75359 0
M  V30 6494 H 614.144 -4.0576 -4.5628 0
M  V30 6495 H 615.558 -5.12957 -2.56023 0
M  V30 6496 H 613.955 -5.66556 -1.97825 0
M  V30 6497 H 615.025 -4.7672 -0.88689 0
M  V30 6498 N 616.368 0.432326 -1.51554 0
M  V30 6499 C 617.615 1.18134 -1.64471 0
M  V30 6500 C 617.943 1.91076 -0.363349 0
M  V30 6501 O 617.198 1.84492 0.65279 0
M  V30 6502 C 617.497 2.21907 -2.80164 0
M  V30 6503 C 617.163 1.65941 -4.19255 0
M  V30 6504 C 615.825 1.50401 -4.57092 0
M  V30 6505 C 618.177 1.24843 -5.06027 0
M  V30 6506 C 615.505 0.922443 -5.79403 0
M  V30 6507 C 617.857 0.68113 -6.28922 0
M  V30 6508 C 616.521 0.512673 -6.65528 0
M  V30 6509 H 615.791 0.432283 -0.601841 0
M  V30 6510 H 618.438 0.471701 -1.856 0
M  V30 6511 H 616.743 2.98928 -2.53277 0
M  V30 6512 H 618.44 2.79691 -2.87357 0
M  V30 6513 H 615.03 1.79014 -3.89425 0
M  V30 6514 H 619.214 1.35667 -4.77397 0
M  V30 6515 H 614.47 0.779733 -6.06408 0
M  V30 6516 H 618.644 0.35418 -6.95499 0
M  V30 6517 H 616.271 0.0599084 -7.60176 0
M  V30 6518 N 617.846 1.41785 0.688094 0
M  V30 6519 C 619.095 1.4084 1.44385 0
M  V30 6520 C 619.408 0.0234166 1.95586 0
M  V30 6521 O 620.614 -0.108647 2.71283 0
M  V30 6522 C 619.07 2.47675 2.61123 0
M  V30 6523 C 618.678 3.92116 2.16677 0
M  V30 6524 C 620.422 2.55877 3.38714 0
M  V30 6525 C 618.329 4.90487 3.30419 0
M  V30 6526 H 617.259 0.523787 0.542368 0
M  V30 6527 H 619.91 1.6764 0.74627 0
M  V30 6528 H 618.292 2.14018 3.33185 0
M  V30 6529 H 619.466 4.35059 1.51856 0
M  V30 6530 H 617.781 3.87642 1.5206 0
M  V30 6531 H 620.378 3.26553 4.234 0
M  V30 6532 H 620.721 1.59801 3.84408 0
M  V30 6533 H 621.254 2.88662 2.73714 0
M  V30 6534 H 617.993 5.87994 2.89729 0
M  V30 6535 H 617.513 4.52187 3.94065 0
M  V30 6536 H 619.192 5.11591 3.96085 0
M  V30 6537 N 619.324 -0.923095 1.27737 0
M  V30 6538 C 620.564 -1.6858 1.15586 0
M  V30 6539 C 620.928 -1.89758 -0.292562 0
M  V30 6540 O 622.129 -2.6339 -0.536583 0
M  V30 6541 C 620.4 -3.01275 1.92271 0
M  V30 6542 S 621.959 -3.924 1.96387 0
M  V30 6543 H 618.777 -0.579069 0.412554 0
M  V30 6544 H 621.379 -1.09866 1.61709 0
M  V30 6545 H 620.083 -2.83556 2.96689 0
M  V30 6546 H 619.614 -3.6504 1.46661 0
M  V30 6547 H 621.629 -4.84667 1.06361 0
M  V30 6548 N 620.802 -1.09834 -1.13024 0
M  V30 6549 C 621.732 -0.763451 -2.20666 0
M  V30 6550 C 622.713 0.260778 -1.68089 0
M  V30 6551 O 623.898 0.127915 -1.93778 0
M  V30 6552 C 621.028 -0.187744 -3.46792 0
M  V30 6553 C 619.982 -1.14196 -4.12484 0
M  V30 6554 C 619.308 -0.427755 -5.32986 0
M  V30 6555 C 620.608 -2.48607 -4.59338 0
M  V30 6556 H 622.302 -1.66347 -2.48936 0
M  V30 6557 H 619.848 -0.801261 -1.19649 0
M  V30 6558 H 621.801 0.0586375 -4.21359 0
M  V30 6559 H 620.525 0.747485 -3.17931 0
M  V30 6560 H 619.184 -1.37369 -3.3989 0
M  V30 6561 H 618.832 0.511747 -5.0039 0
M  V30 6562 H 618.532 -1.06403 -5.77886 0
M  V30 6563 H 620.056 -0.189772 -6.10305 0
M  V30 6564 H 621.47 -2.29618 -5.25308 0
M  V30 6565 H 619.867 -3.08062 -5.14993 0
M  V30 6566 H 620.937 -3.09062 -3.73642 0
M  V30 6567 N 622.28 1.30327 -0.886154 0
M  V30 6568 C 623.505 2.0079 -0.519425 0
M  V30 6569 C 623.93 1.65979 0.885013 0
M  V30 6570 O 623.288 0.877043 1.58675 0
M  V30 6571 C 623.336 3.53686 -0.702758 0
M  V30 6572 O 622.44 4.11637 0.250828 0
M  V30 6573 H 621.781 0.63171 -0.204544 0
M  V30 6574 H 624.311 1.66145 -1.19402 0
M  V30 6575 H 624.321 4.03531 -0.602207 0
M  V30 6576 H 622.996 3.78361 -1.72673 0
M  V30 6577 H 621.573 3.72755 0.103873 0
M  V30 6578 N 623.758 0.647228 1.43697 0
M  V30 6579 C 625.006 0.157876 2.01482 0
M  V30 6580 C 625.327 -1.23039 1.51282 0
M  V30 6581 O 624.597 -1.82071 0.722982 0
M  V30 6582 H 623.177 0.0553745 0.744945 0
M  V30 6583 H 625.839 0.83755 1.75986 0
M  V30 6584 H 624.935 0.137895 3.11795 0
M  V30 6585 N 625.236 -1.5273 0.388769 0
M  V30 6586 C 626.466 -2.05693 -0.193397 0
M  V30 6587 C 626.874 -1.26038 -1.41107 0
M  V30 6588 O 626.217 -0.30001 -1.81234 0
M  V30 6589 C 626.279 -3.53962 -0.628561 0
M  V30 6590 C 625.943 -4.54519 0.475576 0
M  V30 6591 C 626.94 -5.02526 1.33281 0
M  V30 6592 C 624.625 -4.98174 0.642453 0
M  V30 6593 C 626.619 -5.92812 2.34205 0
M  V30 6594 C 624.306 -5.88262 1.65503 0
M  V30 6595 C 625.304 -6.35473 2.50325 0
M  V30 6596 O 624.992 -7.23781 3.49852 0
M  V30 6597 H 624.724 -0.675197 -0.0329395 0
M  V30 6598 H 627.278 -1.97835 0.552326 0
M  V30 6599 H 625.508 -3.59437 -1.42625 0
M  V30 6600 H 627.197 -3.89669 -1.13633 0
M  V30 6601 H 627.963 -4.6953 1.21519 0
M  V30 6602 H 623.842 -4.60999 -0.00805093 0
M  V30 6603 H 627.386 -6.29585 3.00447 0
M  V30 6604 H 623.283 -6.20672 1.77304 0
M  V30 6605 H 624.051 -7.4184 3.45855 0
M  V30 6606 N 626.714 -0.118576 -1.57153 0
M  V30 6607 C 628.125 0.40687 -1.82213 0
M  V30 6608 C 628.476 1.66636 -1.03571 0
M  V30 6609 O 627.601 2.14682 -0.272171 0
M  V30 6610 C 628.196 0.744949 -3.30509 0
M  V30 6611 C 626.755 1.21503 -3.5625 0
M  V30 6612 C 625.902 0.223511 -2.76398 0
M  V30 6613 H 628.853 -0.343712 -1.54933 0
M  V30 6614 H 628.874 1.6024 -3.45114 0
M  V30 6615 H 628.386 -0.171911 -3.87719 0
M  V30 6616 H 626.487 2.1488 -3.04396 0
M  V30 6617 H 626.6 1.16065 -4.64829 0
M  V30 6618 H 624.964 0.71046 -2.44591 0
M  V30 6619 H 625.747 -0.686439 -3.36367 0
M  V30 6620 N 628.193 1.56834 0.155195 0
M  V30 6621 C 629.604 1.72421 0.716082 0
M  V30 6622 C 629.955 0.731685 1.82046 0
M  V30 6623 O 629.08 -0.103481 2.16152 0
M  V30 6624 C 629.675 3.12629 1.30571 0
M  V30 6625 C 628.234 3.29846 1.81325 0
M  V30 6626 C 627.381 2.68359 0.698494 0
M  V30 6627 H 630.332 1.58544 -0.0703861 0
M  V30 6628 H 630.353 3.12174 2.1755 0
M  V30 6629 H 629.865 3.84844 0.501701 0
M  V30 6630 H 627.966 2.62614 2.64319 0
M  V30 6631 H 628.079 4.37727 1.9476 0
M  V30 6632 H 626.443 2.28604 1.12305 0
M  V30 6633 H 627.226 3.43171 -0.0939366 0
M  V30 6634 N 629.671 -0.424282 1.51781 0
M  V30 6635 C 630.918 -1.1726 1.65095 0
M  V30 6636 C 631.246 -1.90881 0.373477 0
M  V30 6637 O 630.501 -1.84835 -0.642997 0
M  V30 6638 C 630.8 -2.20418 2.81337 0
M  V30 6639 C 630.466 -1.63715 4.20129 0
M  V30 6640 C 629.128 -1.47975 4.57883 0
M  V30 6641 C 631.48 -1.22157 5.06682 0
M  V30 6642 C 628.808 -0.891703 5.79884 0
M  V30 6643 C 631.16 -0.647767 6.29275 0
M  V30 6644 C 629.824 -0.477371 6.65791 0
M  V30 6645 H 629.094 -0.429085 0.604125 0
M  V30 6646 H 631.741 -0.461852 1.85847 0
M  V30 6647 H 630.046 -2.97581 2.54859 0
M  V30 6648 H 631.743 -2.78163 2.88836 0
M  V30 6649 H 628.333 -1.76946 3.90369 0
M  V30 6650 H 632.517 -1.33133 4.7811 0
M  V30 6651 H 627.773 -0.747563 6.06813 0
M  V30 6652 H 631.947 -0.317291 6.95677 0
M  V30 6653 H 629.574 -0.0195936 7.60197 0
M  V30 6654 N 631.149 -1.42148 -0.680565 0
M  V30 6655 C 632.374 -1.45901 -1.47403 0
M  V30 6656 C 632.799 -0.0700985 -1.87969 0
M  V30 6657 O 632.157 0.930145 -1.55621 0
M  V30 6658 C 632.205 -2.38661 -2.70321 0
M  V30 6659 O 631.309 -1.85399 -3.68376 0
M  V30 6660 H 630.65 -0.494565 -0.443059 0
M  V30 6661 H 633.18 -1.86774 -0.835251 0
M  V30 6662 H 633.19 -2.55046 -3.18458 0
M  V30 6663 H 631.865 -3.39571 -2.40134 0
M  V30 6664 H 630.442 -1.78541 -3.2738 0
M  V30 6665 N 632.627 0.916307 -1.28225 0
M  V30 6666 C 633.537 2.05165 -1.13775 0
M  V30 6667 C 634.553 1.73879 -0.0649418 0
M  V30 6668 O 635.729 1.99531 -0.273722 0
M  V30 6669 C 632.794 3.37385 -0.798267 0
M  V30 6670 C 631.855 3.82296 -1.95316 0
M  V30 6671 C 631.088 5.08206 -1.62978 0
M  V30 6672 O 631.311 5.6781 -0.542948 0
M  V30 6673 O 630.245 5.48768 -2.47261 0
M  V30 6674 H 634.071 2.20273 -2.09078 0
M  V30 6675 H 631.656 1.0373 -1.07519 0
M  V30 6676 H 633.538 4.16773 -0.62278 0
M  V30 6677 H 632.213 3.23458 0.125139 0
M  V30 6678 H 631.12 3.03746 -2.18378 0
M  V30 6679 H 632.453 4.00782 -2.85718 0
M  V30 6680 N 634.105 1.10431 1.1244 0
M  V30 6681 C 635.055 0.722378 2.16254 0
M  V30 6682 C 636.039 -0.268427 1.58645 0
M  V30 6683 O 637.231 -0.077169 1.76832 0
M  V30 6684 C 634.36 0.155763 3.42946 0
M  V30 6685 C 633.446 1.17361 4.07538 0
M  V30 6686 N 633.837 2.36429 4.47141 0
M  V30 6687 C 632.135 1.01412 4.34317 0
M  V30 6688 C 632.836 3.01259 4.97612 0
M  V30 6689 N 631.812 2.28777 4.93115 0
M  V30 6690 H 635.614 1.62876 2.4464 0
M  V30 6691 H 633.128 0.982031 1.29344 0
M  V30 6692 H 635.125 -0.135936 4.16678 0
M  V30 6693 H 633.785 -0.745339 3.1603 0
M  V30 6694 H 634.796 2.73954 4.39511 0
M  V30 6695 H 631.473 0.168574 4.1716 0
M  V30 6696 H 632.863 4.02541 5.37968 0
M  V30 6697 N 635.583 -1.29855 0.893053 0
M  V30 6698 C 636.999 -1.48366 0.588199 0
M  V30 6699 C 637.199 -1.81654 -0.872018 0
M  V30 6700 O 636.255 -1.909 -1.65268 0
M  V30 6701 C 637.568 -2.60136 1.5083 0
M  V30 6702 C 639.116 -2.74014 1.51279 0
M  V30 6703 C 639.591 -3.88905 2.41902 0
M  V30 6704 N 641.082 -3.96228 2.39911 0
M  V30 6705 C 641.817 -4.84458 3.06738 0
M  V30 6706 N 641.313 -5.77426 3.8282 0
M  V30 6707 N 643.106 -4.77894 2.95929 0
M  V30 6708 H 635.257 -1.06522 1.83757 0
M  V30 6709 H 637.52 -0.528495 0.787018 0
M  V30 6710 H 637.226 -2.42383 2.54839 0
M  V30 6711 H 637.1 -3.56793 1.22388 0
M  V30 6712 H 639.487 -2.91167 0.480179 0
M  V30 6713 H 639.568 -1.77952 1.83757 0
M  V30 6714 H 639.212 -3.72508 3.45253 0
M  V30 6715 H 639.142 -4.84322 2.06737 0
M  V30 6716 H 641.633 -3.29728 1.84629 0
M  V30 6717 H 641.946 -6.41529 4.30883 0
M  V30 6718 H 640.291 -5.77332 3.86927 0
M  V30 6719 H 643.482 -4.04248 2.36012 0
M  V30 6720 H 643.655 -5.46444 3.48286 0
M  V30 6721 N 637.061 -0.65484 -1.43351 0
M  V30 6722 C 638.289 -0.176685 -2.06144 0
M  V30 6723 C 638.704 1.15831 -1.49093 0
M  V30 6724 O 638.061 1.71542 -0.622868 0
M  V30 6725 C 638.112 -0.0813326 -3.61408 0
M  V30 6726 O 637.833 -1.36355 -4.1634 0
M  V30 6727 C 639.334 0.422706 -4.4128 0
M  V30 6728 H 636.554 -0.0906429 -0.66485 0
M  V30 6729 H 639.098 -0.895945 -1.83829 0
M  V30 6730 H 637.253 0.588496 -3.82904 0
M  V30 6731 H 637.667 -1.22381 -5.10023 0
M  V30 6732 H 639.141 0.438375 -5.50257 0
M  V30 6733 H 639.618 1.45432 -4.14423 0
M  V30 6734 H 640.224 -0.214687 -4.24758 0
M  V30 6735 N 638.539 1.52521 -0.396863 0
M  V30 6736 C 639.471 2.24333 0.469814 0
M  V30 6737 C 640.484 1.2685 1.02043 0
M  V30 6738 O 641.673 1.52876 0.92147 0
M  V30 6739 C 638.773 2.95202 1.66461 0
M  V30 6740 C 637.946 4.19454 1.24003 0
M  V30 6741 C 637.005 4.73255 2.30036 0
M  V30 6742 O 636.031 5.36151 1.91131 0
M  V30 6743 N 637.233 4.53765 3.62047 0
M  V30 6744 H 639.998 2.99347 -0.145468 0
M  V30 6745 H 637.559 1.60348 -0.223606 0
M  V30 6746 H 639.551 3.28092 2.36934 0
M  V30 6747 H 638.121 2.2345 2.18607 0
M  V30 6748 H 637.341 3.92517 0.363892 0
M  V30 6749 H 638.629 5.0017 0.933135 0
M  V30 6750 H 638.027 4.03576 3.96412 0
M  V30 6751 H 636.584 4.91124 4.28533 0
M  V30 6752 N 640.017 0.126909 1.57088 0
M  V30 6753 C 641.263 -0.529952 1.95753 0
M  V30 6754 C 641.596 -1.65823 1.01077 0
M  V30 6755 O 640.871 -1.94437 0.0494162 0
M  V30 6756 C 641.154 -1.05517 3.44294 0
M  V30 6757 C 641.007 0.0702253 4.49745 0
M  V30 6758 C 642.326 -1.9435 3.94862 0
M  V30 6759 H 639.445 -0.191168 0.711775 0
M  V30 6760 H 642.087 0.204071 1.88901 0
M  V30 6761 H 640.237 -1.68069 3.50264 0
M  V30 6762 H 641.909 0.705834 4.55868 0
M  V30 6763 H 640.152 0.732259 4.27575 0
M  V30 6764 H 640.823 -0.338642 5.5096 0
M  V30 6765 H 643.299 -1.41658 3.91244 0
M  V30 6766 H 642.175 -2.28015 4.993 0
M  V30 6767 H 642.436 -2.87299 3.36024 0
M  V30 6768 N 641.495 -1.56914 -0.146875 0
M  V30 6769 C 642.72 -1.87881 -0.878386 0
M  V30 6770 C 643.145 -0.715945 -1.73942 0
M  V30 6771 O 642.503 0.334447 -1.78189 0
M  V30 6772 C 642.551 -3.17431 -1.71084 0
M  V30 6773 O 641.655 -3.01374 -2.81509 0
M  V30 6774 H 640.996 -0.617289 -0.244644 0
M  V30 6775 H 643.526 -2.04136 -0.137654 0
M  V30 6776 H 643.536 -3.49455 -2.10582 0
M  V30 6777 H 642.211 -4.01671 -1.07856 0
M  V30 6778 H 640.788 -2.80758 -2.45416 0
M  V30 6779 N 642.974 0.416227 -1.52004 0
M  V30 6780 C 643.904 1.51365 -1.77795 0
M  V30 6781 C 644.885 1.58059 -0.628601 0
M  V30 6782 O 646.07 1.73447 -0.873478 0
M  V30 6783 C 643.2 2.89256 -1.92219 0
M  V30 6784 C 642.154 2.97415 -3.0778 0
M  V30 6785 C 641.48 4.37492 -3.07417 0
M  V30 6786 C 642.78 2.69551 -4.47369 0
M  V30 6787 H 644.474 1.30033 -2.69688 0
M  V30 6788 H 642.02 0.624112 -1.29772 0
M  V30 6789 H 643.973 3.66008 -2.08845 0
M  V30 6790 H 642.697 3.11866 -0.969917 0
M  V30 6791 H 641.356 2.23107 -2.90893 0
M  V30 6792 H 641.004 4.571 -2.09925 0
M  V30 6793 H 640.704 4.43877 -3.85029 0
M  V30 6794 H 642.228 5.16188 -3.26162 0
M  V30 6795 H 643.642 3.36028 -4.64497 0
M  V30 6796 H 642.039 2.87321 -5.26846 0
M  V30 6797 H 643.109 1.65029 -4.55953 0
M  V30 6798 N 644.452 1.42507 0.673017 0
M  V30 6799 C 645.399 1.46124 1.78651 0
M  V30 6800 C 646.369 0.313007 1.63124 0
M  V30 6801 O 647.554 0.517337 1.83653 0
M  V30 6802 C 644.694 1.3711 3.16694 0
M  V30 6803 C 643.807 2.61983 3.43495 0
M  V30 6804 C 642.942 2.45098 4.71275 0
M  V30 6805 C 641.981 3.65336 4.91117 0
M  V30 6806 N 641.118 3.47383 6.10139 0
M  V30 6807 H 645.958 2.4128 1.74895 0
M  V30 6808 H 643.495 1.19788 0.853766 0
M  V30 6809 H 645.453 1.29881 3.96468 0
M  V30 6810 H 644.083 0.45549 3.1957 0
M  V30 6811 H 643.135 2.79571 2.57961 0
M  V30 6812 H 644.447 3.51355 3.5405 0
M  V30 6813 H 643.601 2.35466 5.59143 0
M  V30 6814 H 642.34 1.53219 4.63007 0
M  V30 6815 H 641.345 3.754 4.0169 0
M  V30 6816 H 642.57 4.58199 5.01229 0
M  V30 6817 H 640.516 2.58222 6.0304 0
M  V30 6818 H 640.433 4.30344 6.21563 0
M  V30 6819 H 641.701 3.41565 7.00681 0
M  V30 6820 N 645.93 -0.909495 1.28709 0
M  V30 6821 C 647.207 -1.63865 1.06806 0
M  V30 6822 C 647.587 -2.07445 -0.391143 0
M  V30 6823 O 646.935 -1.82269 -1.37805 0
M  V30 6824 C 647.145 -2.82692 2.04661 0
M  V30 6825 C 648.493 -3.5361 2.35042 0
M  V30 6826 O 649.517 -2.92847 2.02779 0
M  V30 6827 O 648.376 -4.63131 2.90124 0
M  V30 6828 H 645.47 -0.719065 0.408502 0
M  V30 6829 H 648.016 -0.958424 1.40044 0
M  V30 6830 H 646.788 -2.47614 3.0299 0
M  V30 6831 H 646.411 -3.58426 1.72095 0
M  V30 6832 N 647.408 -1.11026 -1.11852 0
M  V30 6833 C 648.34 -0.72249 -2.17515 0
M  V30 6834 C 649.353 0.243782 -1.60964 0
M  V30 6835 O 650.542 0.0273252 -1.78479 0
M  V30 6836 C 647.642 -0.0463979 -3.38868 0
M  V30 6837 C 646.815 -1.0384 -4.24895 0
M  V30 6838 C 645.874 -0.392659 -5.24733 0
M  V30 6839 O 644.9 -1.0453 -5.5952 0
M  V30 6840 N 646.102 0.846296 -5.74298 0
M  V30 6841 H 648.867 -1.63161 -2.51393 0
M  V30 6842 H 646.428 -0.999899 -1.27333 0
M  V30 6843 H 648.42 0.397215 -4.02746 0
M  V30 6844 H 646.99 0.765231 -3.03089 0
M  V30 6845 H 646.21 -1.6601 -3.57539 0
M  V30 6846 H 647.498 -1.70968 -4.79215 0
M  V30 6847 H 646.896 1.39578 -5.4821 0
M  V30 6848 H 645.453 1.23296 -6.40032 0
M  V30 6849 N 648.886 1.2938 -0.899927 0
M  V30 6850 C 650.135 1.9483 -0.521937 0
M  V30 6851 C 650.448 1.71725 0.936473 0
M  V30 6852 O 651.654 2.31282 1.42199 0
M  V30 6853 C 650.11 3.48911 -0.88255 0
M  V30 6854 C 649.718 3.80815 -2.35974 0
M  V30 6855 C 651.462 4.20595 -0.57448 0
M  V30 6856 C 649.369 5.28142 -2.66121 0
M  V30 6857 H 648.299 0.729285 -0.191468 0
M  V30 6858 H 650.95 1.47103 -1.09695 0
M  V30 6859 H 649.332 3.95293 -0.236459 0
M  V30 6860 H 650.506 3.45291 -3.05141 0
M  V30 6861 H 648.821 3.22271 -2.63686 0
M  V30 6862 H 651.418 5.29031 -0.776556 0
M  V30 6863 H 651.761 4.13442 0.487005 0
M  V30 6864 H 652.294 3.79945 -1.17842 0
M  V30 6865 H 649.033 5.4036 -3.71068 0
M  V30 6866 H 648.553 5.64913 -2.01578 0
M  V30 6867 H 650.232 5.95738 -2.52399 0
M  V30 6868 N 650.364 0.662433 1.43002 0
M  V30 6869 C 651.592 0.187615 2.06048 0
M  V30 6870 C 652.007 -1.15039 1.49705 0
M  V30 6871 O 651.364 -1.71209 0.631956 0
M  V30 6872 C 651.415 0.100498 3.6136 0
M  V30 6873 O 651.136 1.38562 4.15611 0
M  V30 6874 C 652.637 -0.399298 4.41498 0
M  V30 6875 H 649.857 0.0941675 0.664359 0
M  V30 6876 H 652.401 0.905681 1.83351 0
M  V30 6877 H 650.556 -0.568181 3.83211 0
M  V30 6878 H 650.97 1.25084 5.09366 0
M  V30 6879 H 652.444 -0.409187 5.50481 0
M  V30 6880 H 652.921 -1.43232 4.15188 0
M  V30 6881 H 653.527 0.23721 4.24638 0
M  V30 6882 N 651.842 -1.52309 0.404946 0
M  V30 6883 C 653.067 -2.06666 -0.1743 0
M  V30 6884 C 653.492 -1.27341 -1.38441 0
M  V30 6885 O 652.85 -0.302539 -1.78758 0
M  V30 6886 C 652.898 -3.57014 -0.507262 0
M  V30 6887 O 652.002 -3.80144 -1.59889 0
M  V30 6888 H 651.343 -0.663807 -0.0160273 0
M  V30 6889 H 653.873 -1.96297 0.576937 0
M  V30 6890 H 653.883 -4.00724 -0.767098 0
M  V30 6891 H 652.558 -4.14184 0.377368 0
M  V30 6892 H 651.135 -3.48316 -1.33155 0
M  V30 6893 N 653.32 -0.135238 -1.57019 0
M  V30 6894 C 654.568 0.51777 -1.95355 0
M  V30 6895 C 654.889 1.6617 -1.02042 0
M  V30 6896 O 654.159 1.95738 -0.0797343 0
M  V30 6897 H 652.739 0.194264 -0.721298 0
M  V30 6898 H 655.401 -0.207983 -1.93787 0
M  V30 6899 H 654.497 0.901675 -2.98791 0
M  V30 6900 N 654.798 1.5699 0.138552 0
M  V30 6901 C 655.745 1.98899 1.17081 0
M  V30 6902 C 656.715 0.857922 1.42228 0
M  V30 6903 O 657.9 1.12065 1.54422 0
M  V30 6904 C 655.04 2.38189 2.4972 0
M  V30 6905 C 654.153 3.64624 2.31674 0
M  V30 6906 C 653.288 3.9298 3.57407 0
M  V30 6907 C 652.327 5.1266 3.34435 0
M  V30 6908 N 651.464 5.36983 4.5232 0
M  V30 6909 H 656.304 2.86881 0.80642 0
M  V30 6910 H 653.841 1.41925 0.386727 0
M  V30 6911 H 655.799 2.59 3.2707 0
M  V30 6912 H 654.429 1.53275 2.84089 0
M  V30 6913 H 653.481 3.51542 1.45337 0
M  V30 6914 H 654.793 4.52131 2.10664 0
M  V30 6915 H 653.947 4.14335 4.43183 0
M  V30 6916 H 652.686 3.03912 3.8143 0
M  V30 6917 H 651.691 4.9117 2.47048 0
M  V30 6918 H 652.916 6.03288 3.11802 0
M  V30 6919 H 650.862 4.50871 4.76499 0
M  V30 6920 H 650.779 6.18775 4.34343 0
M  V30 6921 H 652.047 5.62842 5.39285 0
M  V30 6922 N 656.276 -0.40816 1.52223 0
M  V30 6923 C 657.506 -1.17501 1.69932 0
M  V30 6924 C 657.914 -1.84729 0.408874 0
M  V30 6925 O 657.257 -1.7274 -0.625025 0
M  V30 6926 C 657.319 -2.27994 2.77955 0
M  V30 6927 C 656.983 -1.80894 4.19674 0
M  V30 6928 C 657.98 -1.29618 5.03483 0
M  V30 6929 C 655.665 -1.87698 4.65913 0
M  V30 6930 C 657.659 -0.857695 6.31603 0
M  V30 6931 C 655.346 -1.43461 5.94022 0
M  V30 6932 C 656.344 -0.925822 6.76696 0
M  V30 6933 O 656.032 -0.489841 8.02406 0
M  V30 6934 H 655.764 -0.359065 0.572755 0
M  V30 6935 H 658.318 -0.486188 1.99563 0
M  V30 6936 H 656.548 -3.00243 2.43703 0
M  V30 6937 H 658.237 -2.89749 2.84254 0
M  V30 6938 H 659.003 -1.23733 4.68951 0
M  V30 6939 H 654.882 -2.26244 4.01665 0
M  V30 6940 H 658.426 -0.459879 6.96083 0
M  V30 6941 H 654.323 -1.49026 6.28062 0
M  V30 6942 H 655.091 -0.613062 8.16201 0
M  V30 6943 N 657.755 -1.42862 -0.66545 0
M  V30 6944 C 658.703 -1.47319 -1.8 0
M  V30 6945 C 659.697 -0.347963 -1.65788 0
M  V30 6946 O 660.903 -0.521406 -1.72283 0
M  V30 6947 H 657.278 -0.461588 -0.593667 0
M  V30 6948 H 659.249 -2.42876 -1.7336 0
M  V30 6949 C 657.998 -1.40152 -3.18203 0
M  V30 6950 H 657.321 -2.26035 -3.2977 0
M  V30 6951 H 658.761 -1.47331 -3.9758 0
M  V30 6952 C 657.22 -0.117493 -3.36695 0
M  V30 6953 O 657.75 0.826058 -3.93115 0
M  V30 6954 N 655.956 -0.0316218 -2.90583 0
M  V30 6955 H 655.503 -0.800247 -2.44855 0
M  V30 6956 H 655.461 0.826835 -3.03333 0
M  V30 6957 N 659.233 0.902656 -1.29189 0
M  V30 6958 C 660.48 1.65287 -1.16989 0
M  V30 6959 C 660.808 1.92485 0.279232 0
M  V30 6960 O 660.063 1.53143 1.21843 0
M  V30 6961 C 660.362 3.011 -1.92545 0
M  V30 6962 C 660.028 2.93521 -3.42281 0
M  V30 6963 C 658.69 2.91161 -3.83117 0
M  V30 6964 C 661.042 2.82947 -4.3771 0
M  V30 6965 C 658.37 2.76043 -5.17704 0
M  V30 6966 C 660.722 2.69368 -5.72384 0
M  V30 6967 C 659.386 2.65373 -6.12482 0
M  V30 6968 H 658.656 0.604828 -0.428094 0
M  V30 6969 H 661.303 1.05084 -1.60092 0
M  V30 6970 H 659.608 3.65153 -1.42024 0
M  V30 6971 H 661.305 3.58073 -1.80512 0
M  V30 6972 H 657.895 2.96158 -3.09819 0
M  V30 6973 H 662.079 2.83849 -4.07116 0
M  V30 6974 H 657.335 2.71352 -5.47885 0
M  V30 6975 H 661.509 2.60156 -6.45981 0
M  V30 6976 H 659.136 2.53415 -7.16718 0
M  V30 6977 N 660.711 1.11618 1.11262 0
M  V30 6978 C 661.96 0.860934 1.82403 0
M  V30 6979 C 662.273 -0.615303 1.8567 0
M  V30 6980 O 663.479 -0.986861 2.52929 0
M  V30 6981 C 661.935 1.49048 3.27586 0
M  V30 6982 C 661.543 3.00089 3.32642 0
M  V30 6983 C 663.287 1.31515 4.03614 0
M  V30 6984 C 661.194 3.56019 4.72234 0
M  V30 6985 H 660.124 0.318423 0.683464 0
M  V30 6986 H 662.775 1.34165 1.25188 0
M  V30 6987 H 661.157 0.937434 3.84744 0
M  V30 6988 H 662.331 3.61813 2.85356 0
M  V30 6989 H 660.646 3.16919 2.70096 0
M  V30 6990 H 663.243 1.70732 5.0671 0
M  V30 6991 H 663.586 0.257917 4.155 0
M  V30 6992 H 664.119 1.83694 3.52848 0
M  V30 6993 H 660.858 4.61463 4.65545 0
M  V30 6994 H 660.378 2.99066 5.19923 0
M  V30 6995 H 662.057 3.54568 5.41193 0
M  V30 6996 N 662.189 -1.289 0.906776 0
M  V30 6997 C 663.6 -1.77336 0.58384 0
M  V30 6998 C 663.951 -1.74304 -0.900697 0
M  V30 6999 O 663.076 -1.33335 -1.70443 0
M  V30 7000 C 663.671 -3.22019 1.05304 0
M  V30 7001 C 662.23 -3.68205 0.781148 0
M  V30 7002 C 661.377 -2.48837 1.22373 0
M  V30 7003 H 664.328 -1.15462 1.08877 0
M  V30 7004 H 664.349 -3.78481 0.391414 0
M  V30 7005 H 663.861 -3.24194 2.13353 0
M  V30 7006 H 661.962 -3.71497 -0.28643 0
M  V30 7007 H 662.075 -4.58675 1.384 0
M  V30 7008 H 660.439 -2.46461 0.642594 0
M  V30 7009 H 661.222 -2.53736 2.31242 0
M  V30 7010 N 663.667 -0.670007 -1.42649 0
M  V30 7011 C 664.577 0.0114788 -2.34597 0
M  V30 7012 C 665.593 0.794055 -1.54825 0
M  V30 7013 O 666.769 0.737472 -1.87412 0
M  V30 7014 C 663.834 0.954436 -3.33304 0
M  V30 7015 C 662.895 0.166925 -4.28975 0
M  V30 7016 C 662.128 1.06497 -5.22967 0
M  V30 7017 O 662.351 2.30446 -5.21777 0
M  V30 7018 O 661.285 0.528347 -5.99577 0
M  V30 7019 H 665.111 -0.745794 -2.944 0
M  V30 7020 H 662.696 -0.430228 -1.43071 0
M  V30 7021 H 664.578 1.49589 -3.93956 0
M  V30 7022 H 663.253 1.69164 -2.7598 0
M  V30 7023 H 662.16 -0.418515 -3.71752 0
M  V30 7024 H 663.493 -0.531067 -4.89327 0
M  V30 7025 N 665.145 1.52092 -0.413018 0
M  V30 7026 C 666.391 2.02154 0.161737 0
M  V30 7027 C 666.724 1.29789 1.44459 0
M  V30 7028 O 665.999 0.405378 1.90229 0
M  V30 7029 C 666.282 3.5781 0.405463 0
M  V30 7030 C 666.135 4.40819 -0.894335 0
M  V30 7031 C 667.454 4.23821 1.18591 0
M  V30 7032 H 664.573 0.734769 0.0573077 0
M  V30 7033 H 667.215 1.81948 -0.547247 0
M  V30 7034 H 665.365 3.75158 1.0094 0
M  V30 7035 H 667.037 4.35175 -1.53039 0
M  V30 7036 H 665.28 4.06877 -1.50444 0
M  V30 7037 H 665.951 5.47819 -0.678144 0
M  V30 7038 H 668.427 4.10596 0.674573 0
M  V30 7039 H 667.303 5.32663 1.3252 0
M  V30 7040 H 667.564 3.83038 2.20758 0
M  V30 7041 N 666.623 0.143563 1.56945 0
M  V30 7042 C 667.869 -0.502787 1.97088 0
M  V30 7043 C 668.224 -1.62703 1.02691 0
M  V30 7044 O 667.517 -1.91502 0.0613323 0
M  V30 7045 C 667.711 -1.05885 3.41355 0
M  V30 7046 C 667.54 0.00998209 4.49699 0
M  V30 7047 C 666.31 0.450229 5.0329 0
M  V30 7048 C 668.508 0.800174 5.08037 0
M  V30 7049 N 666.49 1.50227 5.95235 0
M  V30 7050 C 667.861 1.70279 5.96158 0
M  V30 7051 C 669.916 0.848344 4.9062 0
M  V30 7052 C 668.619 2.64945 6.68728 0
M  V30 7053 C 670.645 1.78281 5.63888 0
M  V30 7054 C 670.007 2.67296 6.51715 0
M  V30 7055 H 666.106 -0.152891 0.766908 0
M  V30 7056 H 668.69 0.23737 1.93248 0
M  V30 7057 H 666.861 -1.76863 3.45795 0
M  V30 7058 H 668.593 -1.67154 3.68567 0
M  V30 7059 H 665.348 0.0531355 4.7357 0
M  V30 7060 H 665.772 2.02795 6.45913 0
M  V30 7061 H 670.414 0.174228 4.22441 0
M  V30 7062 H 668.132 3.33358 7.36137 0
M  V30 7063 H 671.718 1.82584 5.52408 0
M  V30 7064 H 670.598 3.38428 7.07415 0
M  V30 7065 N 668.101 -1.57061 -0.130224 0
M  V30 7066 C 669.064 -1.98593 -1.14426 0
M  V30 7067 C 670.064 -0.874584 -1.34936 0
M  V30 7068 O 671.254 -1.14086 -1.31643 0
M  V30 7069 C 668.386 -2.31639 -2.50112 0
M  V30 7070 H 669.579 -2.89374 -0.787561 0
M  V30 7071 H 667.132 -1.51756 -0.374146 0
M  V30 7072 H 667.867 -1.43703 -2.90723 0
M  V30 7073 H 667.652 -3.12684 -2.36583 0
M  V30 7074 H 669.142 -2.64551 -3.23114 0
M  V30 7075 N 669.579 0.400081 -1.52437 0
M  V30 7076 C 670.489 1.51253 -1.79331 0
M  V30 7077 C 671.505 1.60188 -0.679396 0
M  V30 7078 O 672.681 1.76733 -0.965791 0
M  V30 7079 C 669.746 2.869 -1.94652 0
M  V30 7080 C 668.807 2.87777 -3.18564 0
M  V30 7081 C 668.04 4.16954 -3.33145 0
M  V30 7082 O 668.263 5.11329 -2.52783 0
M  V30 7083 O 667.197 4.2487 -4.26343 0
M  V30 7084 H 671.023 1.31461 -2.73773 0
M  V30 7085 H 668.608 0.586834 -1.37392 0
M  V30 7086 H 670.49 3.67336 -2.065 0
M  V30 7087 H 669.165 3.06741 -1.034 0
M  V30 7088 H 668.072 2.06162 -3.12167 0
M  V30 7089 H 669.405 2.72886 -4.09627 0
M  V30 7090 N 671.057 1.43213 0.657864 0
M  V30 7091 C 672.303 1.44798 1.41991 0
M  V30 7092 C 672.636 0.070256 1.94073 0
M  V30 7093 O 671.911 -0.908177 1.71995 0
M  V30 7094 C 672.194 2.4865 2.60471 0
M  V30 7095 C 672.047 3.95679 2.13911 0
M  V30 7096 C 673.366 2.49292 3.62686 0
M  V30 7097 H 670.485 0.527244 0.514959 0
M  V30 7098 H 673.127 1.74733 0.74621 0
M  V30 7099 H 671.277 2.23254 3.17946 0
M  V30 7100 H 672.949 4.32116 1.61472 0
M  V30 7101 H 671.192 4.08733 1.45325 0
M  V30 7102 H 671.863 4.6395 2.99089 0
M  V30 7103 H 674.339 2.71917 3.14961 0
M  V30 7104 H 673.215 3.23907 4.43143 0
M  V30 7105 H 673.476 1.52502 4.14964 0
M  V30 7106 N 672.536 -0.895792 1.29666 0
M  V30 7107 C 673.761 -1.68528 1.20885 0
M  V30 7108 C 674.186 -1.8673 -0.226595 0
M  V30 7109 O 673.544 -1.39044 -1.16347 0
M  V30 7110 C 673.592 -3.04512 1.93144 0
M  V30 7111 O 672.696 -3.92963 1.25115 0
M  V30 7112 H 672.037 -0.515371 0.418675 0
M  V30 7113 H 674.567 -1.11878 1.71302 0
M  V30 7114 H 674.577 -3.54628 2.0175 0
M  V30 7115 H 673.252 -2.90582 2.97548 0
M  V30 7116 H 671.829 -3.51399 1.24794 0
M  V30 7117 N 674.014 -1.12206 -1.10668 0
M  V30 7118 C 674.924 -0.800686 -2.20513 0
M  V30 7119 C 675.94 0.209512 -1.72734 0
M  V30 7120 O 677.116 0.043705 -2.01353 0
M  V30 7121 C 674.181 -0.257353 -3.45744 0
M  V30 7122 C 673.242 -1.32718 -4.0827 0
M  V30 7123 C 672.475 -0.809674 -5.27522 0
M  V30 7124 O 672.698 0.35742 -5.69279 0
M  V30 7125 O 671.632 -1.57816 -5.80842 0
M  V30 7126 H 675.458 -1.71807 -2.50432 0
M  V30 7127 H 673.043 -0.898546 -1.19359 0
M  V30 7128 H 674.925 0.0408849 -4.2138 0
M  V30 7129 H 673.6 0.632627 -3.17458 0
M  V30 7130 H 672.507 -1.67855 -3.34329 0
M  V30 7131 H 673.84 -2.19083 -4.40753 0
M  V30 7132 N 675.492 1.28418 -0.913599 0
M  V30 7133 C 676.439 2.27301 -0.400373 0
M  V30 7134 C 677.409 1.57582 0.52509 0
M  V30 7135 O 678.594 1.85482 0.447318 0
M  V30 7136 C 675.734 3.43284 0.35361 0
M  V30 7137 C 674.847 4.27752 -0.604341 0
M  V30 7138 C 673.982 5.30934 0.168075 0
M  V30 7139 C 673.021 6.07065 -0.783499 0
M  V30 7140 N 672.158 7.02086 -0.0446112 0
M  V30 7141 H 676.998 2.70579 -1.24865 0
M  V30 7142 H 674.535 1.33067 -0.627028 0
M  V30 7143 H 676.493 4.09322 0.806945 0
M  V30 7144 H 675.123 3.00997 1.16623 0
M  V30 7145 H 674.175 3.61759 -1.17621 0
M  V30 7146 H 675.487 4.80682 -1.33216 0
M  V30 7147 H 674.641 6.02855 0.681979 0
M  V30 7148 H 673.38 4.78771 0.928947 0
M  V30 7149 H 672.385 5.33995 -1.30878 0
M  V30 7150 H 673.61 6.61317 -1.54392 0
M  V30 7151 H 671.556 6.52273 0.698272 0
M  V30 7152 H 671.473 7.52637 -0.712258 0
M  V30 7153 H 672.741 7.78205 0.449102 0
M  V30 7154 N 676.97 0.677563 1.42291 0
M  V30 7155 C 677.933 0.0101085 2.29198 0
M  V30 7156 C 678.933 -0.726219 1.43467 0
M  V30 7157 O 680.123 -0.563807 1.64824 0
M  V30 7158 C 677.255 -0.996316 3.26016 0
M  V30 7159 H 678.448 0.775071 2.89711 0
M  V30 7160 H 676.001 0.440065 1.49977 0
M  V30 7161 H 676.736 -1.78967 2.70446 0
M  V30 7162 H 676.521 -0.471687 3.89253 0
M  V30 7163 H 678.011 -1.46167 3.91184 0
M  V30 7164 N 678.448 -1.51871 0.421078 0
M  V30 7165 C 679.378 -2.30231 -0.389363 0
M  V30 7166 C 680.359 -1.34946 -1.03555 0
M  V30 7167 O 681.544 -1.63859 -1.04229 0
M  V30 7168 C 678.674 -3.13247 -1.49979 0
M  V30 7169 C 677.628 -4.16677 -0.977966 0
M  V30 7170 C 676.954 -4.88112 -2.1829 0
M  V30 7171 C 678.254 -5.22295 -0.0236775 0
M  V30 7172 H 679.948 -2.98229 0.264524 0
M  V30 7173 H 677.494 -1.43424 0.12866 0
M  V30 7174 H 679.447 -3.66838 -2.07383 0
M  V30 7175 H 678.171 -2.4304 -2.18173 0
M  V30 7176 H 676.83 -3.64114 -0.426245 0
M  V30 7177 H 676.478 -4.14423 -2.85066 0
M  V30 7178 H 676.178 -5.58041 -1.84021 0
M  V30 7179 H 677.702 -5.44521 -2.76278 0
M  V30 7180 H 679.116 -5.71055 -0.506899 0
M  V30 7181 H 677.513 -5.99656 0.230782 0
M  V30 7182 H 678.583 -4.76131 0.917999 0
M  V30 7183 N 679.926 -0.151884 -1.56866 0
M  V30 7184 C 681.203 0.543328 -1.87902 0
M  V30 7185 C 681.583 1.82636 -1.05864 0
M  V30 7186 O 680.931 2.28028 -0.146868 0
M  V30 7187 C 681.141 0.804056 -3.39611 0
M  V30 7188 C 682.489 1.14267 -4.08935 0
M  V30 7189 O 683.513 0.893248 -3.44818 0
M  V30 7190 O 682.372 1.61229 -5.22176 0
M  V30 7191 H 679.466 0.277724 -0.778973 0
M  V30 7192 H 682.012 -0.188862 -1.68646 0
M  V30 7193 H 680.784 -0.103772 -3.91162 0
M  V30 7194 H 680.407 1.59025 -3.64413 0
M  V30 7195 N 681.404 1.57128 0.121893 0
M  V30 7196 C 682.334 2.03165 1.15092 0
M  V30 7197 C 683.315 0.915587 1.43356 0
M  V30 7198 O 684.5 1.1851 1.53847 0
M  V30 7199 C 681.63 2.43352 2.47784 0
M  V30 7200 C 680.584 3.58376 2.33989 0
M  V30 7201 C 679.91 3.84454 3.71617 0
M  V30 7202 C 681.21 4.90199 1.80283 0
M  V30 7203 H 682.904 2.89382 0.768023 0
M  V30 7204 H 680.45 1.39218 0.367998 0
M  V30 7205 H 682.403 2.74163 3.20019 0
M  V30 7206 H 681.127 1.54103 2.87958 0
M  V30 7207 H 679.786 3.2777 1.64202 0
M  V30 7208 H 679.434 2.92414 4.09271 0
M  V30 7209 H 679.134 4.61877 3.6324 0
M  V30 7210 H 680.658 4.17714 4.45362 0
M  V30 7211 H 682.072 5.19565 2.42333 0
M  V30 7212 H 680.469 5.71601 1.82735 0
M  V30 7213 H 681.539 4.78904 0.760184 0
M  V30 7214 N 682.882 -0.391992 1.52647 0
M  V30 7215 C 684.128 -1.139 1.67793 0
M  V30 7216 C 684.461 -1.89711 0.41514 0
M  V30 7217 O 683.736 -1.85431 -0.586979 0
M  V30 7218 C 684.019 -2.11966 2.91105 0
M  V30 7219 C 683.872 -1.39939 4.27478 0
M  V30 7220 C 685.191 -3.1243 3.09961 0
M  V30 7221 H 682.31 -0.412707 0.610608 0
M  V30 7222 H 684.952 -0.422725 1.85238 0
M  V30 7223 H 683.102 -2.73048 2.76364 0
M  V30 7224 H 684.774 -0.818439 4.53982 0
M  V30 7225 H 683.017 -0.701246 4.28095 0
M  V30 7226 H 683.688 -2.1158 5.09841 0
M  V30 7227 H 686.164 -2.61435 3.23714 0
M  V30 7228 H 685.04 -3.78294 3.97725 0
M  V30 7229 H 685.301 -3.81127 2.24042 0
M  V30 7230 N 684.36 -1.4356 -0.65026 0
M  V30 7231 C 685.307 -1.48948 -1.76304 0
M  V30 7232 C 686.277 -0.338919 -1.62605 0
M  V30 7233 O 687.462 -0.54649 -1.82806 0
M  V30 7234 C 684.602 -1.42131 -3.14472 0
M  V30 7235 C 683.715 -2.67415 -3.39284 0
M  V30 7236 C 682.85 -2.52565 -4.67316 0
M  V30 7237 C 681.889 -3.73103 -4.85243 0
M  V30 7238 N 681.026 -3.57046 -6.04535 0
M  V30 7239 H 685.866 -2.44032 -1.71034 0
M  V30 7240 H 683.403 -1.21131 -0.834601 0
M  V30 7241 H 685.361 -1.36172 -3.94351 0
M  V30 7242 H 683.991 -0.506273 -3.18805 0
M  V30 7243 H 683.043 -2.8364 -2.53481 0
M  V30 7244 H 684.355 -3.56943 -3.48415 0
M  V30 7245 H 683.509 -2.44331 -5.55326 0
M  V30 7246 H 682.248 -1.60566 -4.60511 0
M  V30 7247 H 681.253 -3.81743 -3.95667 0
M  V30 7248 H 682.478 -4.66115 -4.93876 0
M  V30 7249 H 680.424 -2.67783 -5.98856 0
M  V30 7250 H 680.341 -4.40178 -6.14638 0
M  V30 7251 H 681.609 -3.52669 -6.95158 0
M  V30 7252 N 685.838 0.888903 -1.30139 0
M  V30 7253 C 686.785 1.99422 -1.16188 0
M  V30 7254 C 687.755 1.66017 -0.0523869 0
M  V30 7255 O 688.94 1.89506 -0.221864 0
M  V30 7256 C 686.08 3.34325 -0.855612 0
M  V30 7257 C 685.193 3.80445 -2.0466 0
M  V30 7258 C 684.328 5.03975 -1.67876 0
M  V30 7259 C 683.367 5.42492 -2.83493 0
M  V30 7260 N 682.504 6.57206 -2.47032 0
M  V30 7261 H 687.344 2.10687 -2.10749 0
M  V30 7262 H 684.881 1.03165 -1.04859 0
M  V30 7263 H 686.839 4.11968 -0.658681 0
M  V30 7264 H 685.469 3.22756 0.0531155 0
M  V30 7265 H 684.521 2.98745 -2.3549 0
M  V30 7266 H 685.833 4.04933 -2.91257 0
M  V30 7267 H 684.987 5.89232 -1.44535 0
M  V30 7268 H 683.726 4.8135 -0.784431 0
M  V30 7269 H 682.731 4.55764 -3.07505 0
M  V30 7270 H 683.956 5.67093 -3.73607 0
M  V30 7271 H 681.902 6.36164 -1.601 0
M  V30 7272 H 681.819 6.81543 -3.27161 0
M  V30 7273 H 683.087 7.45704 -2.27038 0
M  V30 7274 N 687.317 1.12792 1.10072 0
M  V30 7275 C 688.247 0.821688 2.18565 0
M  V30 7276 C 689.228 -0.21612 1.68721 0
M  V30 7277 O 690.413 -0.0764932 1.94049 0
M  V30 7278 C 687.543 0.279624 3.46172 0
M  V30 7279 C 686.497 1.25092 4.09312 0
M  V30 7280 C 685.823 0.568916 5.31665 0
M  V30 7281 C 687.123 2.60699 4.52585 0
M  V30 7282 H 688.817 1.72888 2.44438 0
M  V30 7283 H 686.363 0.832702 1.17482 0
M  V30 7284 H 688.316 0.053099 4.21367 0
M  V30 7285 H 687.04 -0.662929 3.19801 0
M  V30 7286 H 685.699 1.46332 3.36129 0
M  V30 7287 H 685.347 -0.378898 5.01571 0
M  V30 7288 H 685.047 1.21687 5.74862 0
M  V30 7289 H 686.571 0.351517 6.09587 0
M  V30 7290 H 687.985 2.43465 5.19035 0
M  V30 7291 H 686.382 3.21608 5.06644 0
M  V30 7292 H 687.452 3.1886 3.65317 0
M  V30 7293 N 688.795 -1.27931 0.920396 0
M  V30 7294 C 689.725 -2.29487 0.431024 0
M  V30 7295 C 690.706 -1.62435 -0.504861 0
M  V30 7296 O 691.891 -1.89797 -0.411176 0
M  V30 7297 C 689.021 -3.45788 -0.323709 0
M  V30 7298 C 687.975 -4.24784 0.523658 0
M  V30 7299 C 687.301 -5.33488 -0.359809 0
M  V30 7300 C 688.601 -4.90874 1.78437 0
M  V30 7301 H 690.295 -2.70671 1.27975 0
M  V30 7302 H 687.841 -1.30121 0.616813 0
M  V30 7303 H 689.794 -4.15927 -0.676952 0
M  V30 7304 H 688.518 -3.03502 -1.2064 0
M  V30 7305 H 687.177 -3.56382 0.85951 0
M  V30 7306 H 686.825 -4.87445 -1.24124 0
M  V30 7307 H 686.525 -5.87247 0.203605 0
M  V30 7308 H 688.049 -6.06472 -0.708787 0
M  V30 7309 H 689.463 -5.53339 1.49963 0
M  V30 7310 H 687.86 -5.54659 2.29071 0
M  V30 7311 H 688.93 -4.14988 2.50824 0
M  V30 7312 N 690.273 -0.685099 -1.4193 0
M  V30 7313 C 691.519 -0.211971 -2.01689 0
M  V30 7314 C 691.852 1.18189 -1.54094 0
M  V30 7315 O 691.127 1.79559 -0.747572 0
M  V30 7316 C 691.41 -0.258019 -3.59174 0
M  V30 7317 C 691.263 -1.68807 -4.16922 0
M  V30 7318 C 692.582 0.388044 -4.38386 0
M  V30 7319 H 689.701 -0.0784987 -0.732808 0
M  V30 7320 H 692.343 -0.871837 -1.68816 0
M  V30 7321 H 690.493 0.303832 -3.8731 0
M  V30 7322 H 692.165 -2.30296 -3.99702 0
M  V30 7323 H 690.408 -2.22553 -3.72361 0
M  V30 7324 H 691.079 -1.6719 -5.26072 0
M  V30 7325 H 693.555 -0.0903432 -4.16002 0
M  V30 7326 H 692.431 0.325232 -5.47936 0
M  V30 7327 H 692.692 1.4672 -4.17044 0
M  V30 7328 N 691.751 1.51645 -0.429126 0
M  V30 7329 C 692.997 2.02314 0.140286 0
M  V30 7330 C 693.33 1.31314 1.43074 0
M  V30 7331 O 692.605 0.425531 1.89788 0
M  V30 7332 C 692.888 3.5822 0.36749 0
M  V30 7333 C 692.741 4.39846 -0.941039 0
M  V30 7334 C 694.06 4.25055 1.14089 0
M  V30 7335 H 691.179 0.735335 0.0495112 0
M  V30 7336 H 693.821 1.81358 -0.566514 0
M  V30 7337 H 691.971 3.76207 0.969556 0
M  V30 7338 H 693.643 4.33527 -1.57646 0
M  V30 7339 H 691.886 4.05259 -1.54751 0
M  V30 7340 H 692.557 5.47069 -0.73621 0
M  V30 7341 H 695.033 4.11288 0.630986 0
M  V30 7342 H 693.909 5.34038 1.26863 0
M  V30 7343 H 694.17 3.85358 2.16683 0
M  V30 7344 N 693.229 0.160201 1.56784 0
M  V30 7345 C 694.506 -0.533355 1.88188 0
M  V30 7346 C 694.886 -1.82072 1.06831 0
M  V30 7347 O 694.234 -2.27946 0.158959 0
M  V30 7348 C 694.444 -0.786034 3.40033 0
M  V30 7349 C 695.792 -1.12097 4.09536 0
M  V30 7350 O 696.816 -0.874949 3.45287 0
M  V30 7351 O 695.675 -1.58457 5.23023 0
M  V30 7352 H 692.769 -0.273589 0.780434 0
M  V30 7353 H 695.315 0.197803 1.68543 0
M  V30 7354 H 694.087 0.124515 3.91102 0
M  V30 7355 H 693.71 -1.57091 3.65251 0
M  V30 7356 N 694.707 -1.5719 -0.113559 0
M  V30 7357 C 696.118 -1.74259 -0.670116 0
M  V30 7358 C 696.469 -0.779694 -1.80042 0
M  V30 7359 O 695.594 0.0461353 -2.16351 0
M  V30 7360 C 696.189 -3.15981 -1.22236 0
M  V30 7361 C 694.748 -3.34537 -1.72516 0
M  V30 7362 C 693.895 -2.70116 -0.627098 0
M  V30 7363 H 696.846 -1.58301 0.112396 0
M  V30 7364 H 696.867 -3.17832 -2.09197 0
M  V30 7365 H 696.379 -3.86038 -0.39949 0
M  V30 7366 H 694.48 -2.6953 -2.57263 0
M  V30 7367 H 694.593 -4.42737 -1.83086 0
M  V30 7368 H 692.957 -2.31501 -1.06204 0
M  V30 7369 H 693.74 -3.42802 0.184889 0
M  V30 7370 N 696.185 0.383891 -1.52853 0
M  V30 7371 C 697.132 1.46924 -1.77995 0
M  V30 7372 C 698.102 1.53958 -0.623396 0
M  V30 7373 O 699.287 1.70134 -0.863657 0
M  V30 7374 C 696.427 2.84093 -1.95921 0
M  V30 7375 C 695.54 2.86171 -3.23621 0
M  V30 7376 C 694.675 4.14799 -3.31836 0
M  V30 7377 C 693.714 4.10948 -4.53639 0
M  V30 7378 N 692.851 5.31192 -4.59107 0
M  V30 7379 H 697.691 1.24786 -2.70615 0
M  V30 7380 H 695.228 0.605265 -1.34071 0
M  V30 7381 H 697.186 3.63755 -2.04299 0
M  V30 7382 H 695.816 3.04671 -1.06656 0
M  V30 7383 H 694.868 1.9885 -3.24288 0
M  V30 7384 H 696.18 2.79194 -4.13343 0
M  V30 7385 H 695.334 5.02867 -3.39425 0
M  V30 7386 H 694.073 4.24505 -2.40097 0
M  V30 7387 H 693.078 3.21268 -4.46169 0
M  V30 7388 H 694.303 4.0286 -5.467 0
M  V30 7389 H 692.249 5.41518 -3.70262 0
M  V30 7390 H 692.166 5.26311 -5.42708 0
M  V30 7391 H 693.434 6.21143 -4.70958 0
M  V30 7392 N 697.663 1.43903 0.642637 0
M  V30 7393 C 698.626 1.49538 1.73698 0
M  V30 7394 C 699.626 0.378776 1.56275 0
M  V30 7395 O 700.816 0.64095 1.6198 0
M  V30 7396 C 697.948 1.35821 3.12675 0
M  V30 7397 H 699.141 2.47008 1.70079 0
M  V30 7398 H 696.694 1.30824 0.85526 0
M  V30 7399 H 697.429 0.393994 3.21898 0
M  V30 7400 H 697.214 2.16776 3.26727 0
M  V30 7401 H 698.704 1.4272 3.92455 0
M  V30 7402 N 699.141 -0.881989 1.30609 0
M  V30 7403 C 700.557 -1.16576 1.09005 0
M  V30 7404 C 700.757 -2.00961 -0.14727 0
M  V30 7405 O 699.813 -2.38117 -0.840036 0
M  V30 7406 C 701.126 -1.86954 2.35518 0
M  V30 7407 C 702.674 -1.99706 2.41011 0
M  V30 7408 C 703.149 -2.73497 3.67374 0
M  V30 7409 N 704.64 -2.8104 3.68199 0
M  V30 7410 C 705.375 -3.38718 4.62664 0
M  V30 7411 N 704.871 -3.97421 5.67475 0
M  V30 7412 N 706.664 -3.36561 4.50203 0
M  V30 7413 H 698.815 -0.319398 2.09985 0
M  V30 7414 H 701.078 -0.204058 0.925778 0
M  V30 7415 H 700.784 -1.32393 3.2583 0
M  V30 7416 H 700.658 -2.87317 2.44395 0
M  V30 7417 H 703.045 -2.53436 1.51176 0
M  V30 7418 H 703.126 -0.984218 2.36108 0
M  V30 7419 H 702.77 -2.20438 4.57569 0
M  V30 7420 H 702.7 -3.75163 3.6954 0
M  V30 7421 H 705.191 -2.39365 2.92426 0
M  V30 7422 H 705.504 -4.39507 6.35652 0
M  V30 7423 H 703.849 -3.95832 5.71264 0
M  V30 7424 H 707.04 -2.8993 3.67503 0
M  V30 7425 H 707.213 -3.81215 5.24003 0
M  V30 7426 N 700.619 -1.13374 -1.09472 0
M  V30 7427 C 701.866 -0.89519 -1.81639 0
M  V30 7428 C 702.194 0.57868 -1.85692 0
M  V30 7429 O 701.449 1.44426 -1.32059 0
M  V30 7430 C 701.748 -1.42759 -3.2765 0
M  V30 7431 C 701.414 -2.91822 -3.43731 0
M  V30 7432 C 700.076 -3.32521 -3.47827 0
M  V30 7433 C 702.428 -3.87727 -3.48307 0
M  V30 7434 C 699.756 -4.6781 -3.54078 0
M  V30 7435 C 702.108 -5.22859 -3.56091 0
M  V30 7436 C 700.772 -5.63086 -3.58456 0
M  V30 7437 H 700.042 -0.327573 -0.664663 0
M  V30 7438 H 702.689 -1.4156 -1.28969 0
M  V30 7439 H 700.994 -0.827871 -3.82954 0
M  V30 7440 H 702.691 -1.2191 -3.8202 0
M  V30 7441 H 699.281 -2.5935 -3.41226 0
M  V30 7442 H 703.465 -3.57371 -3.44383 0
M  V30 7443 H 698.721 -4.98353 -3.54195 0
M  V30 7444 H 702.895 -5.96989 -3.58577 0
M  V30 7445 H 700.522 -6.67905 -3.63052 0
M  V30 7446 N 702.098 1.27442 -0.927168 0
M  V30 7447 C 703.326 1.98498 -0.583622 0
M  V30 7448 C 703.741 1.69171 0.838241 0
M  V30 7449 O 703.098 0.951969 1.55704 0
M  V30 7450 C 703.149 3.52552 -0.799341 0
M  V30 7451 O 702.87 3.80851 -2.16527 0
M  V30 7452 C 704.371 4.4086 -0.464436 0
M  V30 7453 H 701.591 0.633487 -0.221213 0
M  V30 7454 H 704.135 1.62308 -1.24404 0
M  V30 7455 H 702.29 3.86955 -0.185728 0
M  V30 7456 H 702.704 4.75441 -2.21487 0
M  V30 7457 H 704.178 5.47967 -0.666075 0
M  V30 7458 H 704.655 4.35082 0.599995 0
M  V30 7459 H 705.261 4.11977 -1.05617 0
M  V30 7460 N 703.576 0.692616 1.41565 0
M  V30 7461 C 704.804 0.231279 2.05603 0
M  V30 7462 C 705.219 -1.11837 1.52111 0
M  V30 7463 O 704.576 -1.6983 0.66813 0
M  V30 7464 C 704.627 0.177125 3.61066 0
M  V30 7465 O 704.348 1.47346 4.12578 0
M  V30 7466 C 705.849 -0.30556 4.42246 0
M  V30 7467 H 703.069 0.108238 0.662213 0
M  V30 7468 H 705.613 0.944369 1.81389 0
M  V30 7469 H 703.768 -0.486769 3.8433 0
M  V30 7470 H 704.182 1.35861 5.06599 0
M  V30 7471 H 705.656 -0.29233 5.51225 0
M  V30 7472 H 706.133 -1.34393 4.18133 0
M  V30 7473 H 706.739 0.327229 4.24039 0
M  V30 7474 N 705.054 -1.51416 0.437162 0
M  V30 7475 C 705.964 -2.31493 -0.380537 0
M  V30 7476 C 706.98 -1.40399 -1.02782 0
M  V30 7477 O 708.156 -1.73471 -1.02323 0
M  V30 7478 C 705.221 -3.1413 -1.46709 0
M  V30 7479 C 704.282 -4.21003 -0.839953 0
M  V30 7480 C 703.515 -4.9969 -1.87473 0
M  V30 7481 O 703.738 -4.79008 -3.09689 0
M  V30 7482 O 702.672 -5.8379 -1.46536 0
M  V30 7483 H 706.498 -3.02469 0.273183 0
M  V30 7484 H 704.083 -1.48059 0.199706 0
M  V30 7485 H 705.965 -3.65505 -2.09724 0
M  V30 7486 H 704.64 -2.45919 -2.10489 0
M  V30 7487 H 703.547 -3.73706 -0.171752 0
M  V30 7488 H 704.88 -4.91587 -0.245638 0
M  V30 7489 N 706.532 -0.168513 -1.56696 0
M  V30 7490 C 707.442 0.775435 -2.21414 0
M  V30 7491 C 708.458 1.25529 -1.20492 0
M  V30 7492 O 709.634 1.30801 -1.53144 0
M  V30 7493 C 706.699 1.9886 -2.83999 0
M  V30 7494 C 705.76 1.5559 -4.00113 0
M  V30 7495 C 704.993 2.71124 -4.59704 0
M  V30 7496 O 705.216 3.87917 -4.18182 0
M  V30 7497 O 704.15 2.4536 -5.4962 0
M  V30 7498 H 707.976 0.254416 -3.02632 0
M  V30 7499 H 705.561 0.0595507 -1.49281 0
M  V30 7500 H 707.443 2.69816 -3.23693 0
M  V30 7501 H 706.118 2.49874 -2.05779 0
M  V30 7502 H 705.025 0.815924 -3.65094 0
M  V30 7503 H 706.358 1.09271 -4.79917 0
M  V30 7504 N 708.01 1.57248 0.105221 0
M  V30 7505 C 708.973 2.00388 1.11252 0
M  V30 7506 C 709.973 0.89594 1.33527 0
M  V30 7507 O 711.163 1.16166 1.29811 0
M  V30 7508 C 708.295 2.35589 2.46395 0
M  V30 7509 H 709.488 2.90591 0.741424 0
M  V30 7510 H 707.041 1.52332 0.349956 0
M  V30 7511 H 707.776 1.4831 2.884 0
M  V30 7512 H 707.561 3.16408 2.31578 0
M  V30 7513 H 709.051 2.69658 3.18864 0
M  V30 7514 N 709.488 -0.375779 1.53054 0
M  V30 7515 C 710.418 -1.46598 1.81745 0
M  V30 7516 C 711.399 -1.56337 0.670286 0
M  V30 7517 O 712.584 -1.71071 0.919158 0
M  V30 7518 C 709.714 -2.84058 1.99821 0
M  V30 7519 C 708.668 -2.8915 3.15557 0
M  V30 7520 C 707.994 -4.29187 3.18908 0
M  V30 7521 C 709.294 -2.57595 4.54359 0
M  V30 7522 H 710.988 -1.22837 2.73041 0
M  V30 7523 H 708.534 -0.589485 1.31381 0
M  V30 7524 H 710.487 -3.60342 2.18475 0
M  V30 7525 H 709.211 -3.09184 1.05226 0
M  V30 7526 H 707.87 -2.15316 2.96706 0
M  V30 7527 H 707.518 -4.51374 2.2197 0
M  V30 7528 H 707.218 -4.33512 3.96662 0
M  V30 7529 H 708.742 -5.07359 3.39734 0
M  V30 7530 H 710.156 -3.23595 4.73243 0
M  V30 7531 H 708.553 -2.73252 5.34279 0
M  V30 7532 H 709.623 -1.52882 4.60169 0
M  V30 7533 N 710.966 -1.44241 -0.634997 0
M  V30 7534 C 712.382 -1.28043 -0.952742 0
M  V30 7535 C 712.582 -0.21338 -2.00367 0
M  V30 7536 O 711.638 0.402042 -2.49279 0
M  V30 7537 C 712.951 -2.65076 -1.41968 0
M  V30 7538 C 714.499 -2.72755 -1.53537 0
M  V30 7539 C 714.974 -4.10249 -2.03616 0
M  V30 7540 N 716.465 -4.12406 -2.10892 0
M  V30 7541 C 717.2 -5.15641 -2.50803 0
M  V30 7542 N 716.696 -6.29239 -2.89879 0
M  V30 7543 N 718.489 -5.02995 -2.50903 0
M  V30 7544 H 710.64 -2.12315 0.060098 0
M  V30 7545 H 712.903 -0.947326 -0.0357325 0
M  V30 7546 H 712.609 -3.44213 -0.721804 0
M  V30 7547 H 712.483 -2.91704 -2.39141 0
M  V30 7548 H 714.87 -1.93939 -2.22422 0
M  V30 7549 H 714.951 -2.49872 -0.547496 0
M  V30 7550 H 714.595 -4.8954 -1.35327 0
M  V30 7551 H 714.525 -4.30507 -3.03268 0
M  V30 7552 H 717.016 -3.30417 -1.83393 0
M  V30 7553 H 717.329 -7.03827 -3.19135 0
M  V30 7554 H 715.674 -6.32683 -2.8764 0
M  V30 7555 H 718.865 -4.13306 -2.19763 0
M  V30 7556 H 719.038 -5.83574 -2.81683 0
M  V30 7557 N 712.444 0.87505 -1.31075 0
M  V30 7558 C 713.394 1.96933 -1.14898 0
M  V30 7559 C 714.378 1.60783 -0.0613703 0
M  V30 7560 O 715.57 1.74678 -0.285751 0
M  V30 7561 C 712.699 3.3253 -0.853166 0
M  V30 7562 C 711.785 3.74963 -1.98151 0
M  V30 7563 N 712.176 3.89403 -3.22799 0
M  V30 7564 C 710.474 4.04436 -1.8801 0
M  V30 7565 C 711.175 4.25563 -3.96574 0
M  V30 7566 N 710.151 4.3597 -3.24701 0
M  V30 7567 H 713.953 2.06201 -2.09424 0
M  V30 7568 H 711.467 1.06551 -1.22558 0
M  V30 7569 H 713.464 4.10666 -0.718266 0
M  V30 7570 H 712.124 3.24592 0.0839218 0
M  V30 7571 H 713.135 3.74266 -3.57974 0
M  V30 7572 H 709.812 4.04915 -1.01733 0
M  V30 7573 H 711.202 4.44375 -5.03965 0
M  V30 7574 N 713.922 1.13953 1.08869 0
M  V30 7575 C 715.333 0.916649 1.62648 0
M  V30 7576 C 715.684 -0.545589 1.88462 0
M  V30 7577 O 714.809 -1.41351 1.63856 0
M  V30 7578 C 715.404 1.65751 2.95486 0
M  V30 7579 C 713.963 1.48034 3.46068 0
M  V30 7580 C 713.11 1.68305 2.20383 0
M  V30 7581 H 716.061 1.292 0.921572 0
M  V30 7582 H 716.082 1.11794 3.63707 0
M  V30 7583 H 715.594 2.72171 2.76667 0
M  V30 7584 H 713.695 0.439416 3.7 0
M  V30 7585 H 713.808 2.24719 4.23129 0
M  V30 7586 H 712.172 1.10833 2.29321 0
M  V30 7587 H 712.955 2.76057 2.04077 0
M  V30 7588 N 715.4 -1.26948 0.933913 0
M  V30 7589 C 716.646 -1.94716 0.587985 0
M  V30 7590 C 717.001 -1.71994 -0.862312 0
M  V30 7591 O 716.294 -1.04208 -1.60783 0
M  V30 7592 C 716.488 -3.46963 0.857406 0
M  V30 7593 C 716.317 -3.84489 2.33234 0
M  V30 7594 C 715.087 -4.07621 2.98618 0
M  V30 7595 C 717.285 -3.93602 3.31031 0
M  V30 7596 N 715.267 -4.31976 4.362 0
M  V30 7597 C 716.638 -4.22404 4.53845 0
M  V30 7598 C 718.693 -3.76201 3.26155 0
M  V30 7599 C 717.396 -4.35615 5.72391 0
M  V30 7600 C 719.422 -3.90641 4.4402 0
M  V30 7601 C 718.784 -4.19835 5.65613 0
M  V30 7602 H 714.883 -0.735586 0.2654 0
M  V30 7603 H 717.467 -1.53181 1.20182 0
M  V30 7604 H 715.638 -3.87442 0.27268 0
M  V30 7605 H 717.37 -4.01921 0.47348 0
M  V30 7606 H 714.125 -4.02696 2.49264 0
M  V30 7607 H 714.549 -4.48199 5.07392 0
M  V30 7608 H 719.191 -3.52665 2.3321 0
M  V30 7609 H 716.909 -4.57975 6.65796 0
M  V30 7610 H 720.495 -3.78589 4.41771 0
M  V30 7611 H 719.375 -4.30765 6.55295 0
M  V30 7612 N 716.879 -0.700114 -1.41195 0
M  V30 7613 C 717.809 -0.0521132 -2.33442 0
M  V30 7614 C 718.79 0.76228 -1.52063 0
M  V30 7615 O 719.975 0.714336 -1.80585 0
M  V30 7616 C 717.105 0.881693 -3.35922 0
M  V30 7617 C 716.059 0.174062 -4.27646 0
M  V30 7618 C 715.385 1.22254 -5.20536 0
M  V30 7619 C 716.685 -0.962396 -5.13357 0
M  V30 7620 H 718.379 -0.822574 -2.87879 0
M  V30 7621 H 715.925 -0.397011 -1.38419 0
M  V30 7622 H 717.878 1.34429 -3.99383 0
M  V30 7623 H 716.602 1.68387 -2.79845 0
M  V30 7624 H 715.261 -0.268551 -3.65615 0
M  V30 7625 H 714.909 2.01736 -4.60773 0
M  V30 7626 H 714.609 0.754038 -5.82742 0
M  V30 7627 H 716.133 1.68555 -5.86874 0
M  V30 7628 H 717.547 -0.579875 -5.7036 0
M  V30 7629 H 715.944 -1.35828 -5.84526 0
M  V30 7630 H 717.014 -1.80003 -4.50252 0
M  V30 7631 N 718.357 1.51182 -0.445186 0
M  V30 7632 C 719.289 2.25714 0.398206 0
M  V30 7633 C 720.302 1.30032 0.979562 0
M  V30 7634 O 721.491 1.55731 0.872368 0
M  V30 7635 C 718.591 3.00348 1.56985 0
M  V30 7636 C 717.764 4.23187 1.10596 0
M  V30 7637 C 716.823 4.80334 2.14863 0
M  V30 7638 O 715.849 5.4196 1.73977 0
M  V30 7639 N 717.051 4.65053 3.47427 0
M  V30 7640 H 719.816 2.98732 -0.240629 0
M  V30 7641 H 717.377 1.59556 -0.274507 0
M  V30 7642 H 719.369 3.35464 2.26376 0
M  V30 7643 H 717.939 2.30291 2.11387 0
M  V30 7644 H 717.159 3.93476 0.238832 0
M  V30 7645 H 718.447 5.02886 0.773537 0
M  V30 7646 H 717.845 4.15984 3.83372 0
M  V30 7647 H 716.402 5.04509 4.12691 0
M  V30 7648 N 719.835 0.176821 1.56605 0
M  V30 7649 C 721.112 -0.513365 1.88743 0
M  V30 7650 C 721.492 -1.80929 1.08757 0
M  V30 7651 O 720.84 -2.27765 0.183127 0
M  V30 7652 C 721.05 -0.749925 3.40848 0
M  V30 7653 C 722.398 -1.07747 4.10701 0
M  V30 7654 O 723.422 -0.838277 3.46196 0
M  V30 7655 O 722.281 -1.52901 5.24675 0
M  V30 7656 H 719.375 -0.265296 0.783292 0
M  V30 7657 H 721.921 0.215669 1.68324 0
M  V30 7658 H 720.693 0.16599 3.90948 0
M  V30 7659 H 720.316 -1.53208 3.66897 0
M  V30 7660 N 721.313 -1.57302 -0.09688 0
M  V30 7661 C 722.223 -2.05258 -1.13606 0
M  V30 7662 C 723.239 -0.977137 -1.43972 0
M  V30 7663 O 724.415 -1.29018 -1.54649 0
M  V30 7664 C 721.48 -2.46593 -2.43706 0
M  V30 7665 C 720.541 -3.68322 -2.20538 0
M  V30 7666 C 719.774 -4.07676 -3.44435 0
M  V30 7667 O 719.997 -3.47141 -4.52603 0
M  V30 7668 O 718.931 -5.00641 -3.34129 0
M  V30 7669 H 722.757 -2.94069 -0.758752 0
M  V30 7670 H 720.342 -1.46164 -0.309263 0
M  V30 7671 H 722.224 -2.73814 -3.20318 0
M  V30 7672 H 720.899 -1.6092 -2.80867 0
M  V30 7673 H 719.806 -3.4622 -1.41713 0
M  V30 7674 H 721.139 -4.54769 -1.88271 0
M  V30 7675 N 722.791 0.367657 -1.53252 0
M  V30 7676 C 724.068 1.12606 -1.59935 0
M  V30 7677 C 724.448 2.07167 -0.405606 0
M  V30 7678 O 723.796 2.20364 0.604323 0
M  V30 7679 C 724.006 1.86699 -2.94863 0
M  V30 7680 C 725.354 2.41306 -3.49366 0
M  V30 7681 O 726.378 1.96828 -2.96879 0
M  V30 7682 O 725.237 3.2261 -4.41118 0
M  V30 7683 H 722.331 0.516438 -0.645926 0
M  V30 7684 H 724.877 0.371088 -1.65593 0
M  V30 7685 H 723.649 1.17674 -3.73187 0
M  V30 7686 H 723.272 2.6911 -2.92687 0
M  V30 7687 N 724.269 1.44576 0.627338 0
M  V30 7688 C 725.202 1.46206 1.75212 0
M  V30 7689 C 726.18 0.320483 1.5941 0
M  V30 7690 O 727.364 0.518028 1.81242 0
M  V30 7691 C 724.491 1.29834 3.12827 0
M  V30 7692 C 723.537 2.47603 3.47268 0
M  V30 7693 S 724.37 4.10125 3.44322 0
M  V30 7694 C 725.526 3.96183 4.84551 0
M  V30 7695 H 725.759 2.41378 1.73563 0
M  V30 7696 H 723.292 1.3192 0.802283 0
M  V30 7697 H 725.25 1.21075 3.92239 0
M  V30 7698 H 723.911 0.361662 3.12011 0
M  V30 7699 H 723.104 2.3202 4.47418 0
M  V30 7700 H 722.706 2.53121 2.75329 0
M  V30 7701 H 724.998 3.60107 5.73872 0
M  V30 7702 H 725.941 4.96176 5.05188 0
M  V30 7703 H 726.349 3.28177 4.59304 0
M  V30 7704 N 725.747 -0.868086 1.31537 0
M  V30 7705 C 726.694 -1.97548 1.19346 0
M  V30 7706 C 727.664 -1.65913 0.0787922 0
M  V30 7707 O 728.849 -1.89129 0.251985 0
M  V30 7708 C 725.989 -3.32922 0.908692 0
M  V30 7709 C 725.102 -3.77141 2.10687 0
M  V30 7710 C 724.237 -5.01241 1.75873 0
M  V30 7711 C 723.276 -5.37914 2.92088 0
M  V30 7712 N 722.413 -6.53192 2.57457 0
M  V30 7713 H 727.253 -2.07307 2.14074 0
M  V30 7714 H 724.79 -1.01483 1.06487 0
M  V30 7715 H 726.748 -4.10867 0.724138 0
M  V30 7716 H 725.378 -3.228 -0.0017611 0
M  V30 7717 H 724.43 -2.94961 2.40213 0
M  V30 7718 H 725.742 -4.00248 2.97663 0
M  V30 7719 H 724.896 -5.86858 1.53891 0
M  V30 7720 H 723.635 -4.80041 0.86091 0
M  V30 7721 H 722.64 -4.50814 3.14717 0
M  V30 7722 H 723.865 -5.61077 3.82582 0
M  V30 7723 H 721.811 -6.33536 1.702 0
M  V30 7724 H 721.728 -6.76252 3.37963 0
M  V30 7725 H 722.996 -7.41997 2.38873 0
M  V30 7726 N 727.225 -1.14528 -1.08264 0
M  V30 7727 C 728.641 -0.885976 -1.3275 0
M  V30 7728 C 728.841 0.472096 -1.95892 0
M  V30 7729 O 727.897 1.21606 -2.21288 0
M  V30 7730 C 729.21 -2.01982 -2.22764 0
M  V30 7731 C 730.758 -2.05329 -2.36239 0
M  V30 7732 C 731.233 -3.1801 -3.29596 0
M  V30 7733 N 732.724 -3.17598 -3.37173 0
M  V30 7734 C 733.459 -4.01426 -4.09444 0
M  V30 7735 N 732.955 -4.95297 -4.8441 0
M  V30 7736 N 734.748 -3.89482 -4.0529 0
M  V30 7737 H 726.899 -2.01996 -0.656607 0
M  V30 7738 H 729.162 -0.880274 -0.351884 0
M  V30 7739 H 728.868 -2.99964 -1.83615 0
M  V30 7740 H 728.742 -1.94421 -3.23234 0
M  V30 7741 H 731.129 -1.07953 -2.74646 0
M  V30 7742 H 731.21 -2.1696 -1.35506 0
M  V30 7743 H 730.854 -4.15633 -2.9191 0
M  V30 7744 H 730.784 -3.03616 -4.30261 0
M  V30 7745 H 733.275 -2.4961 -2.83731 0
M  V30 7746 H 733.588 -5.55723 -5.37021 0
M  V30 7747 H 731.933 -4.99293 -4.83457 0
M  V30 7748 H 735.124 -3.15465 -3.45832 0
M  V30 7749 H 735.297 -4.55039 -4.6135 0
M  V30 7750 N 728.703 1.26451 -0.940633 0
M  V30 7751 C 729.65 2.264 -0.448497 0
M  V30 7752 C 730.62 1.5866 0.491546 0
M  V30 7753 O 731.805 1.86389 0.407874 0
M  V30 7754 C 728.945 3.43956 0.280715 0
M  V30 7755 C 728.058 4.26374 -0.694937 0
M  V30 7756 C 727.193 5.31171 0.0554186 0
M  V30 7757 C 726.232 6.05266 -0.912091 0
M  V30 7758 N 725.369 7.01833 -0.193524 0
M  V30 7759 H 730.209 2.67869 -1.30576 0
M  V30 7760 H 727.746 1.31707 -0.655112 0
M  V30 7761 H 729.704 4.10941 0.71994 0
M  V30 7762 H 728.334 3.03403 1.10212 0
M  V30 7763 H 727.386 3.59183 -1.25267 0
M  V30 7764 H 728.698 4.77748 -1.43382 0
M  V30 7765 H 727.852 6.04166 0.553951 0
M  V30 7766 H 726.591 4.80634 0.827183 0
M  V30 7767 H 725.596 5.31099 -1.42175 0
M  V30 7768 H 726.821 6.57893 -1.68385 0
M  V30 7769 H 724.767 6.53607 0.559758 0
M  V30 7770 H 724.684 7.50957 -0.871744 0
M  V30 7771 H 725.952 7.78983 0.283932 0
M  V30 7772 N 730.181 0.707592 1.40822 0
M  V30 7773 C 731.428 0.243671 2.01029 0
M  V30 7774 C 731.756 -1.16057 1.5608 0
M  V30 7775 O 731.011 -1.7999 0.768251 0
M  V30 7776 C 731.31 0.262892 3.56432 0
M  V30 7777 C 730.976 1.61632 4.20935 0
M  V30 7778 C 729.638 1.98682 4.38268 0
M  V30 7779 C 731.99 2.50619 4.5699 0
M  V30 7780 C 729.318 3.2428 4.88937 0
M  V30 7781 C 731.67 3.75562 5.09054 0
M  V30 7782 C 730.334 4.12739 5.24598 0
M  V30 7783 H 729.604 0.0891654 0.735616 0
M  V30 7784 H 732.251 0.909051 1.68548 0
M  V30 7785 H 730.556 -0.486052 3.88773 0
M  V30 7786 H 732.253 -0.113775 4.00839 0
M  V30 7787 H 728.843 1.31818 4.07826 0
M  V30 7788 H 733.027 2.23272 4.43242 0
M  V30 7789 H 728.283 3.53064 4.99155 0
M  V30 7790 H 732.457 4.44692 5.35931 0
M  V30 7791 H 730.084 5.10132 5.63622 0
M  V30 7792 N 731.66 -1.50943 0.453197 0
M  V30 7793 C 732.592 -2.25922 -0.38623 0
M  V30 7794 C 733.605 -1.3055 -0.972652 0
M  V30 7795 O 734.794 -1.56191 -0.864097 0
M  V30 7796 C 731.894 -3.01176 -1.5539 0
M  V30 7797 C 731.067 -4.23768 -1.0835 0
M  V30 7798 C 730.126 -4.81466 -2.12313 0
M  V30 7799 O 729.152 -5.42875 -1.71101 0
M  V30 7800 N 730.354 -4.66889 -3.44956 0
M  V30 7801 H 733.119 -2.98601 0.256468 0
M  V30 7802 H 730.68 -1.59408 0.282965 0
M  V30 7803 H 732.672 -3.36659 -2.24594 0
M  V30 7804 H 731.242 -2.31409 -2.10163 0
M  V30 7805 H 730.462 -3.93597 -0.217961 0
M  V30 7806 H 731.75 -5.03289 -0.746857 0
M  V30 7807 H 731.148 -4.18011 -3.81161 0
M  V30 7808 H 729.705 -5.06691 -4.1001 0
M  V30 7809 N 733.138 -0.185124 -1.56509 0
M  V30 7810 C 734.415 0.503348 -1.89013 0
M  V30 7811 C 734.795 1.80349 -1.09715 0
M  V30 7812 O 734.143 2.27665 -0.195203 0
M  V30 7813 C 734.353 0.731839 -3.41241 0
M  V30 7814 C 735.701 1.05568 -4.11267 0
M  V30 7815 O 736.725 0.819906 -3.46635 0
M  V30 7816 O 735.584 1.50116 -5.25478 0
M  V30 7817 H 732.678 0.261139 -0.784688 0
M  V30 7818 H 735.224 -0.224592 -1.68207 0
M  V30 7819 H 733.996 -0.18672 -3.90854 0
M  V30 7820 H 733.619 1.5126 -3.67704 0
M  V30 7821 N 734.616 1.57351 0.0885366 0
M  V30 7822 C 735.546 2.05561 1.10757 0
M  V30 7823 C 736.527 0.945789 1.41382 0
M  V30 7824 O 737.712 1.21747 1.51299 0
M  V30 7825 C 734.842 2.48554 2.42566 0
M  V30 7826 C 733.796 3.63259 2.26334 0
M  V30 7827 C 733.122 3.9225 3.63378 0
M  V30 7828 C 734.422 4.93913 1.69844 0
M  V30 7829 H 736.116 2.90946 0.706468 0
M  V30 7830 H 733.662 1.39968 0.338385 0
M  V30 7831 H 735.615 2.8089 3.14132 0
M  V30 7832 H 734.339 1.60176 2.84625 0
M  V30 7833 H 732.998 3.31179 1.57213 0
M  V30 7834 H 732.646 3.0103 4.02976 0
M  V30 7835 H 732.346 4.69478 3.53362 0
M  V30 7836 H 733.87 4.27067 4.36401 0
M  V30 7837 H 735.284 5.24588 2.31258 0
M  V30 7838 H 733.681 5.75349 1.70569 0
M  V30 7839 H 734.751 4.80409 0.65843 0
M  V30 7840 N 736.094 -0.359525 1.53444 0
M  V30 7841 C 737.024 -1.44662 1.8329 0
M  V30 7842 C 738.005 -1.55617 0.68683 0
M  V30 7843 O 739.19 -1.70086 0.93725 0
M  V30 7844 C 736.32 -2.81923 2.02822 0
M  V30 7845 C 735.274 -2.85787 3.18606 0
M  V30 7846 C 734.6 -4.25781 3.23442 0
M  V30 7847 C 735.9 -2.52762 4.57065 0
M  V30 7848 H 737.594 -1.19934 2.74329 0
M  V30 7849 H 735.14 -0.575517 1.31999 0
M  V30 7850 H 737.093 -3.58005 2.22285 0
M  V30 7851 H 735.817 -3.08051 1.085 0
M  V30 7852 H 734.476 -2.12157 2.98973 0
M  V30 7853 H 734.124 -4.48994 2.26745 0
M  V30 7854 H 733.824 -4.29281 4.01238 0
M  V30 7855 H 735.348 -5.03727 3.45096 0
M  V30 7856 H 736.762 -3.18557 4.76649 0
M  V30 7857 H 735.159 -2.67569 5.37147 0
M  V30 7858 H 736.229 -1.47993 4.61764 0
M  V30 7859 N 737.572 -1.44907 -0.619662 0
M  V30 7860 C 738.797 -1.52021 -1.41083 0
M  V30 7861 C 739.222 -0.14976 -1.87503 0
M  V30 7862 O 738.58 0.863303 -1.59426 0
M  V30 7863 C 738.628 -2.49911 -2.59955 0
M  V30 7864 O 737.732 -2.00857 -3.60181 0
M  V30 7865 H 737.073 -0.512912 -0.421684 0
M  V30 7866 H 739.603 -1.90149 -0.755282 0
M  V30 7867 H 739.613 -2.68323 -3.07354 0
M  V30 7868 H 738.288 -3.4945 -2.25516 0
M  V30 7869 H 736.865 -1.92265 -3.19513 0
M  V30 7870 N 739.05 0.861098 -1.31996 0
M  V30 7871 C 739.96 2.00154 -1.22374 0
M  V30 7872 C 740.976 1.73447 -0.138631 0
M  V30 7873 O 742.152 1.98191 -0.358104 0
M  V30 7874 C 739.217 3.33696 -0.940645 0
M  V30 7875 C 738.278 3.73668 -2.11355 0
M  V30 7876 C 737.511 5.00837 -1.84386 0
M  V30 7877 O 737.734 5.64996 -0.783287 0
M  V30 7878 O 736.668 5.37787 -2.70313 0
M  V30 7879 H 740.494 2.11207 -2.18233 0
M  V30 7880 H 738.079 0.990768 -1.11822 0
M  V30 7881 H 739.961 4.13756 -0.798987 0
M  V30 7882 H 738.636 3.23698 -0.0121636 0
M  V30 7883 H 737.543 2.94211 -2.31065 0
M  V30 7884 H 738.876 3.88303 -3.02459 0
M  V30 7885 N 740.528 1.15101 1.07655 0
M  V30 7886 C 741.438 0.858869 2.18313 0
M  V30 7887 C 742.454 -0.163641 1.73229 0
M  V30 7888 O 743.63 0.00969541 2.01398 0
M  V30 7889 C 740.695 0.34893 3.4494 0
M  V30 7890 C 739.756 1.43495 4.04608 0
M  V30 7891 C 738.989 0.949253 5.2519 0
M  V30 7892 O 739.212 -0.20636 5.70027 0
M  V30 7893 O 738.146 1.73161 5.76454 0
M  V30 7894 H 741.972 1.78386 2.45788 0
M  V30 7895 H 739.557 0.929876 1.16934 0
M  V30 7896 H 741.439 0.070851 4.2134 0
M  V30 7897 H 740.114 -0.548237 3.19024 0
M  V30 7898 H 739.021 1.7666 3.29761 0
M  V30 7899 H 740.354 2.30692 4.3479 0
M  V30 7900 N 742.006 -1.2595 0.947325 0
M  V30 7901 C 742.954 -2.28152 0.452687 0
M  V30 7902 C 743.948 -1.62655 -0.473239 0
M  V30 7903 O 745.154 -1.76549 -0.350774 0
M  V30 7904 H 741.529 -0.741049 0.12787 0
M  V30 7905 H 743.5 -2.67267 1.32707 0
M  V30 7906 C 742.249 -3.46719 -0.26098 0
M  V30 7907 H 741.572 -3.97345 0.442352 0
M  V30 7908 H 743.012 -4.20135 -0.571208 0
M  V30 7909 C 741.471 -3.02605 -1.48094 0
M  V30 7910 O 742.001 -3.07979 -2.57899 0
M  V30 7911 N 740.207 -2.57877 -1.33969 0
M  V30 7912 H 739.754 -2.53704 -0.446295 0
M  V30 7913 H 739.712 -2.28725 -2.15713 0
M  V30 7914 N 743.484 -0.715051 -1.40445 0
M  V30 7915 C 744.394 -0.0631624 -2.34515 0
M  V30 7916 C 745.41 0.744397 -1.57273 0
M  V30 7917 O 746.586 0.677475 -1.89663 0
M  V30 7918 C 743.651 0.847915 -3.36172 0
M  V30 7919 C 742.712 0.0303655 -4.29289 0
M  V30 7920 C 741.945 0.898051 -5.2609 0
M  V30 7921 O 742.168 2.13729 -5.28844 0
M  V30 7922 O 741.102 0.337328 -6.00954 0
M  V30 7923 H 744.928 -0.839078 -2.91879 0
M  V30 7924 H 742.513 -0.475527 -1.4163 0
M  V30 7925 H 744.395 1.3698 -3.98515 0
M  V30 7926 H 743.07 1.60299 -2.81222 0
M  V30 7927 H 741.977 -0.536573 -3.70232 0
M  V30 7928 H 743.31 -0.686474 -4.87389 0
M  V30 7929 N 744.962 1.50701 -0.461195 0
M  V30 7930 C 746.187 2.07171 0.0974773 0
M  V30 7931 C 746.612 1.32391 1.3362 0
M  V30 7932 O 745.97 0.368676 1.77512 0
M  V30 7933 C 746.018 3.58651 0.374409 0
M  V30 7934 O 745.122 3.85816 1.4567 0
M  V30 7935 H 744.463 0.663944 -0.00862047 0
M  V30 7936 H 746.993 1.94021 -0.649394 0
M  V30 7937 H 747.003 4.03295 0.617843 0
M  V30 7938 H 745.678 4.12498 -0.530829 0
M  V30 7939 H 744.255 3.53018 1.20136 0
M  V30 7940 N 746.441 0.193421 1.56409 0
M  V30 7941 C 747.669 -0.451438 2.01915 0
M  V30 7942 C 748.084 -1.55306 1.07357 0
M  V30 7943 O 747.441 -1.82333 0.0781512 0
M  V30 7944 C 747.492 -1.00931 3.47124 0
M  V30 7945 O 747.213 0.0483623 4.38073 0
M  V30 7946 C 748.714 -1.73021 4.0814 0
M  V30 7947 H 745.934 -0.113495 0.661332 0
M  V30 7948 H 748.478 0.301636 2.02263 0
M  V30 7949 H 746.633 -1.71277 3.47481 0
M  V30 7950 H 747.047 -0.366644 5.23217 0
M  V30 7951 H 748.521 -2.07289 5.11601 0
M  V30 7952 H 748.998 -2.6333 3.51502 0
M  V30 7953 H 749.604 -1.07264 4.11551 0
M  V30 7954 N 747.919 -1.57396 -0.0801906 0
M  V30 7955 C 748.882 -2.02133 -1.0805 0
M  V30 7956 C 749.882 -0.91707 -1.32085 0
M  V30 7957 O 751.072 -1.18217 -1.27947 0
M  V30 7958 C 748.204 -2.39479 -2.42616 0
M  V30 7959 H 749.397 -2.91733 -0.6951 0
M  V30 7960 H 746.95 -1.52869 -0.325677 0
M  V30 7961 H 747.685 -1.52879 -2.86004 0
M  V30 7962 H 747.47 -3.20052 -2.26515 0
M  V30 7963 H 748.96 -2.74697 -3.14534 0
M  V30 7964 N 749.397 0.351382 -1.53633 0
M  V30 7965 C 750.327 1.43688 -1.84055 0
M  V30 7966 C 751.308 1.55251 -0.695073 0
M  V30 7967 O 752.493 1.69587 -0.946257 0
M  V30 7968 C 749.623 2.80843 -2.04315 0
M  V30 7969 C 748.577 2.84094 -3.20117 0
M  V30 7970 C 747.903 4.2406 -3.25696 0
M  V30 7971 C 749.203 2.50334 -4.58399 0
M  V30 7972 H 750.897 1.18478 -2.74961 0
M  V30 7973 H 748.443 0.568509 -1.32303 0
M  V30 7974 H 750.396 3.56821 -2.2418 0
M  V30 7975 H 749.12 3.07471 -1.10132 0
M  V30 7976 H 747.779 2.10568 -3.00094 0
M  V30 7977 H 747.427 4.47785 -2.29123 0
M  V30 7978 H 747.127 4.27147 -4.03509 0
M  V30 7979 H 748.651 5.0189 -3.47762 0
M  V30 7980 H 750.065 3.16025 -4.78332 0
M  V30 7981 H 748.462 2.64717 -5.38558 0
M  V30 7982 H 749.532 1.45542 -4.62543 0
M  V30 7983 N 750.875 1.45233 0.611969 0
M  V30 7984 C 752.286 1.4354 1.19387 0
M  V30 7985 C 752.637 0.160713 1.95541 0
M  V30 7986 O 751.762 -0.737954 2.03429 0
M  V30 7987 C 752.357 2.60045 2.17169 0
M  V30 7988 C 750.916 2.61486 2.70744 0
M  V30 7989 C 750.063 2.35708 1.46072 0
M  V30 7990 H 753.014 1.53536 0.401529 0
M  V30 7991 H 753.035 2.33893 3.00124 0
M  V30 7992 H 752.547 3.52803 1.61714 0
M  V30 7993 H 750.648 1.72721 3.30149 0
M  V30 7994 H 750.761 3.60572 3.15476 0
M  V30 7995 H 749.125 1.85178 1.74875 0
M  V30 7996 H 749.908 3.30606 0.924922 0
M  V30 7997 N 752.353 -0.854086 1.3245 0
M  V30 7998 C 753.285 -1.96932 1.17262 0
M  V30 7999 C 754.298 -1.62445 0.107469 0
M  V30 8000 O 755.487 -1.74904 0.356481 0
M  V30 8001 C 752.587 -3.29971 0.772817 0
M  V30 8002 C 751.76 -3.92695 1.92638 0
M  V30 8003 C 750.819 -5.04068 1.51003 0
M  V30 8004 O 749.845 -5.24032 2.22213 0
M  V30 8005 N 751.047 -5.79076 0.406371 0
M  V30 8006 H 753.812 -2.10503 2.13327 0
M  V30 8007 H 751.373 -1.02897 1.24995 0
M  V30 8008 H 753.365 -4.01883 0.476684 0
M  V30 8009 H 751.935 -3.1245 -0.0967 0
M  V30 8010 H 751.155 -3.13563 2.38897 0
M  V30 8011 H 752.443 -4.31337 2.69863 0
M  V30 8012 H 751.841 -5.65393 -0.186302 0
M  V30 8013 H 750.398 -6.51579 0.169846 0
M  V30 8014 N 753.831 -1.1567 -1.07043 0
M  V30 8015 C 755.077 -0.9349 -1.79965 0
M  V30 8016 C 755.41 0.536464 -1.86643 0
M  V30 8017 O 754.685 1.39781 -1.35247 0
M  V30 8018 C 754.968 -1.55371 -3.24857 0
M  V30 8019 C 754.821 -3.09589 -3.26305 0
M  V30 8020 C 756.14 -1.24209 -4.22209 0
M  V30 8021 H 753.259 -0.341061 -0.653335 0
M  V30 8022 H 755.901 -1.42883 -1.25237 0
M  V30 8023 H 754.051 -1.13368 -3.71591 0
M  V30 8024 H 755.723 -3.60521 -2.87789 0
M  V30 8025 H 753.966 -3.43315 -2.65174 0
M  V30 8026 H 754.637 -3.48002 -4.28484 0
M  V30 8027 H 757.113 -1.60548 -3.8388 0
M  V30 8028 H 755.989 -1.70119 -5.21872 0
M  V30 8029 H 756.25 -0.15964 -4.41812 0
M  V30 8030 N 755.309 1.25446 -0.953992 0
M  V30 8031 C 756.239 2.28264 -0.491717 0
M  V30 8032 C 757.22 1.63717 0.461617 0
M  V30 8033 O 758.405 1.90821 0.36071 0
M  V30 8034 C 755.535 3.46525 0.231915 0
M  V30 8035 C 754.489 4.23247 -0.636098 0
M  V30 8036 C 753.815 5.34254 0.218238 0
M  V30 8037 C 755.115 4.85971 -1.91389 0
M  V30 8038 H 756.809 2.67183 -1.35106 0
M  V30 8039 H 754.355 1.2844 -0.651095 0
M  V30 8040 H 756.308 4.17576 0.566439 0
M  V30 8041 H 755.032 3.06594 1.12551 0
M  V30 8042 H 753.691 3.53978 -0.953696 0
M  V30 8043 H 753.339 4.90564 1.11156 0
M  V30 8044 H 753.039 5.86501 -0.359232 0
M  V30 8045 H 754.563 6.08138 0.547743 0
M  V30 8046 H 755.977 5.49168 -1.64581 0
M  V30 8047 H 754.374 5.48391 -2.43696 0
M  V30 8048 H 755.444 4.08192 -2.61738 0
M  V30 8049 N 756.787 0.722489 1.40064 0
M  V30 8050 C 757.75 0.0830209 2.2905 0
M  V30 8051 C 758.75 -0.680208 1.45705 0
M  V30 8052 O 759.94 -0.511084 1.66534 0
M  V30 8053 C 757.072 -0.892092 3.29021 0
M  V30 8054 H 758.265 0.866848 2.87099 0
M  V30 8055 H 755.818 0.487556 1.48501 0
M  V30 8056 H 756.553 -1.70273 2.76003 0
M  V30 8057 H 756.338 -0.34761 3.90556 0
M  V30 8058 H 757.828 -1.33648 3.95636 0
M  V30 8059 N 758.265 -1.50454 0.469181 0
M  V30 8060 C 759.197 -2.26319 -0.362247 0
M  V30 8061 C 760.21 -1.31574 -0.958751 0
M  V30 8062 O 761.399 -1.57099 -0.847482 0
M  V30 8063 C 758.499 -3.02808 -1.52187 0
M  V30 8064 C 757.672 -4.24893 -1.03849 0
M  V30 8065 C 756.731 -4.83691 -2.07194 0
M  V30 8066 O 755.757 -5.44659 -1.65333 0
M  V30 8067 N 756.959 -4.70522 -3.39985 0
M  V30 8068 H 759.724 -2.98312 0.288124 0
M  V30 8069 H 757.285 -1.59099 0.299856 0
M  V30 8070 H 759.277 -3.39023 -2.21011 0
M  V30 8071 H 757.847 -2.33625 -2.07697 0
M  V30 8072 H 757.067 -3.93806 -0.176203 0
M  V30 8073 H 758.355 -5.04053 -0.693435 0
M  V30 8074 H 757.753 -4.2203 -3.76706 0
M  V30 8075 H 756.31 -5.11011 -4.04612 0
M  V30 8076 N 759.743 -0.201713 -1.56304 0
M  V30 8077 C 761.154 0.309711 -1.84113 0
M  V30 8078 C 761.505 1.60912 -1.12258 0
M  V30 8079 O 760.63 2.12937 -0.385587 0
M  V30 8080 C 761.225 0.568706 -3.33993 0
M  V30 8081 C 759.784 1.02448 -3.6219 0
M  V30 8082 C 758.931 0.0766842 -2.77194 0
M  V30 8083 H 761.882 -0.425356 -1.52893 0
M  V30 8084 H 761.903 1.41721 -3.53122 0
M  V30 8085 H 761.415 -0.37719 -3.86263 0
M  V30 8086 H 759.516 1.98443 -3.15359 0
M  V30 8087 H 759.629 0.912619 -4.70328 0
M  V30 8088 H 757.993 0.579809 -2.48013 0
M  V30 8089 H 758.776 -0.863774 -3.32256 0
M  V30 8090 N 761.222 1.57436 0.0718424 0
M  V30 8091 C 762.447 1.91858 0.787745 0
M  V30 8092 C 762.872 0.798119 1.70328 0
M  V30 8093 O 762.23 -0.24905 1.79581 0
M  V30 8094 C 762.278 3.25232 1.55744 0
M  V30 8095 O 761.382 3.14462 2.6681 0
M  V30 8096 H 760.723 0.628258 0.214914 0
M  V30 8097 H 763.253 2.04561 0.0401012 0
M  V30 8098 H 763.263 3.59105 1.9367 0
M  V30 8099 H 761.938 4.0636 0.885691 0
M  V30 8100 H 760.515 2.92148 2.31741 0
M  V30 8101 N 762.7 -0.34323 1.53817 0
M  V30 8102 C 763.928 -1.10348 1.75017 0
M  V30 8103 C 764.343 -1.82345 0.489475 0
M  V30 8104 O 763.7 -1.74362 -0.538886 0
M  V30 8105 C 763.751 -2.11672 2.93048 0
M  V30 8106 O 763.472 -1.42603 4.14241 0
M  V30 8107 C 764.973 -3.0007 3.26301 0
M  V30 8108 H 762.193 -0.329056 0.584776 0
M  V30 8109 H 764.737 -0.395339 2.00642 0
M  V30 8110 H 762.892 -2.78051 2.69753 0
M  V30 8111 H 763.306 -2.10294 4.80496 0
M  V30 8112 H 764.78 -3.67101 4.12239 0
M  V30 8113 H 765.257 -3.66105 2.42618 0
M  V30 8114 H 765.863 -2.3928 3.51604 0
M  V30 8115 N 764.178 -1.45556 -0.604258 0
M  V30 8116 C 765.403 -1.53509 -1.39462 0
M  V30 8117 C 765.828 -0.169638 -1.87333 0
M  V30 8118 O 765.186 0.846346 -1.60333 0
M  V30 8119 C 765.234 -2.52654 -2.5729 0
M  V30 8120 O 764.338 -2.04666 -3.5803 0
M  V30 8121 H 763.679 -0.517355 -0.416221 0
M  V30 8122 H 766.209 -1.90939 -0.735072 0
M  V30 8123 H 766.219 -2.71568 -3.04491 0
M  V30 8124 H 764.894 -3.51823 -2.21797 0
M  V30 8125 H 763.471 -1.95643 -3.17456 0
M  V30 8126 N 765.656 0.84705 -1.32902 0
M  V30 8127 C 767.072 1.13645 -1.12058 0
M  V30 8128 C 767.272 2.01281 0.093937 0
M  V30 8129 O 766.328 2.4026 0.776608 0
M  V30 8130 C 767.641 1.80644 -2.40392 0
M  V30 8131 C 769.189 1.93246 -2.46221 0
M  V30 8132 C 769.664 2.6366 -3.74496 0
M  V30 8133 N 771.155 2.71179 -3.75521 0
M  V30 8134 C 771.89 3.26332 -4.71482 0
M  V30 8135 N 771.386 3.82236 -5.77813 0
M  V30 8136 N 773.179 3.24507 -4.58968 0
M  V30 8137 H 765.33 0.263612 -2.10758 0
M  V30 8138 H 767.593 0.17944 -0.930863 0
M  V30 8139 H 767.299 1.23708 -3.29225 0
M  V30 8140 H 767.173 2.80736 -2.51926 0
M  V30 8141 H 769.56 2.49338 -1.57843 0
M  V30 8142 H 769.641 0.921272 -2.38634 0
M  V30 8143 H 769.285 2.08229 -4.63253 0
M  V30 8144 H 769.215 3.65234 -3.79357 0
M  V30 8145 H 771.706 2.31527 -2.9867 0
M  V30 8146 H 772.019 4.22499 -6.47082 0
M  V30 8147 H 770.364 3.80546 -5.81558 0
M  V30 8148 H 773.555 2.80085 -3.7506 0
M  V30 8149 H 773.728 3.67188 -5.33926 0
M  V30 8150 N 767.134 1.16236 1.06428 0
M  V30 8151 C 768.081 0.86769 2.13869 0
M  V30 8152 C 769.051 -0.183298 1.65086 0
M  V30 8153 O 770.236 -0.0488002 1.90738 0
M  V30 8154 C 767.376 0.373427 3.43074 0
M  V30 8155 C 766.489 1.48708 4.05598 0
M  V30 8156 C 765.624 0.947977 5.22673 0
M  V30 8157 C 764.663 2.03793 5.77178 0
M  V30 8158 N 763.8 1.51451 6.85571 0
M  V30 8159 H 768.64 1.78781 2.38414 0
M  V30 8160 H 766.177 0.891892 1.16977 0
M  V30 8161 H 768.135 0.0685035 4.17144 0
M  V30 8162 H 766.765 -0.509752 3.1875 0
M  V30 8163 H 765.817 1.908 3.29089 0
M  V30 8164 H 767.129 2.30964 4.42105 0
M  V30 8165 H 766.283 0.596154 6.03764 0
M  V30 8166 H 765.022 0.0947081 4.87608 0
M  V30 8167 H 764.027 2.39847 4.94726 0
M  V30 8168 H 765.252 2.89514 6.14295 0
M  V30 8169 H 763.198 0.683755 6.52427 0
M  V30 8170 H 763.115 2.27325 7.21013 0
M  V30 8171 H 764.383 1.19123 7.70344 0
M  V30 8172 N 768.612 -1.24939 0.960631 0
M  V30 8173 C 770.028 -1.45039 0.666018 0
M  V30 8174 C 770.228 -1.86021 -0.774501 0
M  V30 8175 O 769.284 -1.99392 -1.54916 0
M  V30 8176 C 770.597 -2.51775 1.64408 0
M  V30 8177 C 772.145 -2.6561 1.65592 0
M  V30 8178 C 772.62 -3.75536 2.62177 0
M  V30 8179 N 774.111 -3.82954 2.60577 0
M  V30 8180 C 774.846 -4.67517 3.31987 0
M  V30 8181 N 774.342 -5.56321 4.1289 0
M  V30 8182 N 776.135 -4.61535 3.20845 0
M  V30 8183 H 768.286 -0.96632 1.89145 0
M  V30 8184 H 770.549 -0.486034 0.813926 0
M  V30 8185 H 770.255 -2.28534 2.67329 0
M  V30 8186 H 770.129 -3.49804 1.41128 0
M  V30 8187 H 772.516 -2.88212 0.633846 0
M  V30 8188 H 772.597 -1.67962 1.92931 0
M  V30 8189 H 772.241 -3.53684 3.64514 0
M  V30 8190 H 772.171 -4.72682 2.32119 0
M  V30 8191 H 774.662 -3.19478 2.01847 0
M  V30 8192 H 774.975 -6.17787 4.64283 0
M  V30 8193 H 773.32 -5.5601 4.16987 0
M  V30 8194 H 776.511 -3.91169 2.57108 0
M  V30 8195 H 776.684 -5.27214 3.76762 0
M  V30 8196 N 770.09 -0.729906 -1.39679 0
M  V30 8197 C 771.501 -0.346241 -1.83461 0
M  V30 8198 C 771.852 1.1215 -1.60987 0
M  V30 8199 O 770.977 1.86456 -1.09832 0
M  V30 8200 C 771.572 -0.621656 -3.33048 0
M  V30 8201 C 770.131 -0.291543 -3.75269 0
M  V30 8202 C 769.278 -0.886844 -2.62736 0
M  V30 8203 H 772.229 -0.927949 -1.28743 0
M  V30 8204 H 772.25 0.108301 -3.80346 0
M  V30 8205 H 771.762 -1.68996 -3.49373 0
M  V30 8206 H 769.863 0.771133 -3.64533 0
M  V30 8207 H 769.976 -0.770544 -4.72863 0
M  V30 8208 H 768.34 -0.313839 -2.52759 0
M  V30 8209 H 769.123 -1.95971 -2.81869 0
M  V30 8210 N 771.568 1.50203 -0.477153 0
M  V30 8211 C 772.984 1.59056 -0.131663 0
M  V30 8212 C 773.184 1.48473 1.36227 0
M  V30 8213 O 772.24 1.34635 2.13611 0
M  V30 8214 C 773.553 2.92741 -0.687254 0
M  V30 8215 C 775.101 3.0615 -0.651223 0
M  V30 8216 C 775.576 4.42419 -1.18446 0
M  V30 8217 N 777.067 4.48847 -1.14413 0
M  V30 8218 C 777.802 5.52689 -1.52717 0
M  V30 8219 N 777.298 6.63754 -1.98499 0
M  V30 8220 N 779.091 5.43267 -1.44282 0
M  V30 8221 H 771.242 1.55325 -1.44872 0
M  V30 8222 H 773.505 0.734395 -0.599473 0
M  V30 8223 H 773.211 3.0598 -1.73405 0
M  V30 8224 H 773.085 3.76961 -0.134215 0
M  V30 8225 H 775.472 2.92556 0.386677 0
M  V30 8226 H 775.553 2.23673 -1.24114 0
M  V30 8227 H 775.197 4.56763 -2.22103 0
M  V30 8228 H 775.127 5.23498 -0.570709 0
M  V30 8229 H 777.618 3.69152 -0.808416 0
M  V30 8230 H 777.931 7.39059 -2.25859 0
M  V30 8231 H 776.276 6.64858 -2.02456 0
M  V30 8232 H 779.467 4.55387 -1.08352 0
M  V30 8233 H 779.64 6.24074 -1.74459 0
M  V30 8234 N 773.046 0.209999 1.56195 0
M  V30 8235 C 773.956 -0.716459 2.23392 0
M  V30 8236 C 774.972 -1.22291 1.23778 0
M  V30 8237 O 776.148 -1.26694 1.56558 0
M  V30 8238 C 773.213 -1.91261 2.89172 0
M  V30 8239 C 772.274 -1.44927 4.04097 0
M  V30 8240 C 771.507 -2.5884 4.66731 0
M  V30 8241 O 771.73 -3.76693 4.2832 0
M  V30 8242 O 770.664 -2.30701 5.55932 0
M  V30 8243 H 774.49 -0.174089 3.03201 0
M  V30 8244 H 772.075 -0.0199505 1.49387 0
M  V30 8245 H 773.957 -2.6114 3.30733 0
M  V30 8246 H 772.632 -2.4433 2.12331 0
M  V30 8247 H 771.539 -0.718839 3.67129 0
M  V30 8248 H 772.872 -0.965084 4.82646 0
M  V30 8249 N 774.524 -1.57472 -0.0634922 0
M  V30 8250 C 775.772 -1.87283 -0.759563 0
M  V30 8251 C 776.093 -0.803135 -1.77693 0
M  V30 8252 O 775.363 0.167293 -1.95184 0
M  V30 8253 H 773.943 -0.691106 -0.283516 0
M  V30 8254 H 776.605 -1.94864 -0.0376091 0
M  V30 8255 H 775.701 -2.85064 -1.27062 0
M  V30 8256 N 776.003 0.335068 -1.53997 0
M  V30 8257 C 776.913 1.43511 -1.85585 0
M  V30 8258 C 777.929 1.57162 -0.746726 0
M  V30 8259 O 779.105 1.72477 -1.03988 0
M  V30 8260 C 776.17 2.78386 -2.06646 0
M  V30 8261 C 775.231 2.74007 -3.30483 0
M  V30 8262 C 774.464 4.02449 -3.50529 0
M  V30 8263 O 774.687 5.00147 -2.74242 0
M  V30 8264 O 773.621 4.06405 -4.4398 0
M  V30 8265 H 777.447 1.19731 -2.79102 0
M  V30 8266 H 775.032 0.528033 -1.39758 0
M  V30 8267 H 776.914 3.58247 -2.21894 0
M  V30 8268 H 775.589 3.0208 -1.16317 0
M  V30 8269 H 774.496 1.92736 -3.2063 0
M  V30 8270 H 775.829 2.55267 -4.20832 0
M  V30 8271 N 777.481 1.45874 0.596531 0
M  V30 8272 C 778.444 1.54988 1.68853 0
M  V30 8273 C 779.444 0.428302 1.54991 0
M  V30 8274 O 780.634 0.692158 1.59859 0
M  V30 8275 C 777.766 1.457 3.08195 0
M  V30 8276 H 778.959 2.52294 1.62135 0
M  V30 8277 H 776.512 1.33479 0.813206 0
M  V30 8278 H 777.247 0.496204 3.20481 0
M  V30 8279 H 777.032 2.27061 3.19665 0
M  V30 8280 H 778.522 1.55133 3.87716 0
M  V30 8281 N 778.959 -0.83999 1.33349 0
M  V30 8282 C 779.869 -1.98182 1.25543 0
M  V30 8283 C 780.885 -1.73204 0.166208 0
M  V30 8284 O 782.061 -1.97596 0.389589 0
M  V30 8285 C 779.126 -3.32157 0.993614 0
M  V30 8286 C 778.187 -3.70258 2.17273 0
M  V30 8287 C 777.42 -4.9784 1.92331 0
M  V30 8288 O 777.643 -5.63679 0.873074 0
M  V30 8289 O 776.577 -5.33418 2.78835 0
M  V30 8290 H 780.403 -2.07708 2.21565 0
M  V30 8291 H 777.988 -0.972852 1.13384 0
M  V30 8292 H 779.87 -4.12433 0.864711 0
M  V30 8293 H 778.545 -3.23637 0.0636596 0
M  V30 8294 H 777.452 -2.90497 2.35716 0
M  V30 8295 H 778.785 -3.83442 3.08598 0
M  V30 8296 N 780.437 -1.16799 -1.0581 0
M  V30 8297 C 781.685 -0.950642 -1.78346 0
M  V30 8298 C 782.006 0.522524 -1.87869 0
M  V30 8299 O 781.276 1.3795 -1.39092 0
M  V30 8300 H 779.856 -0.348736 -0.6606 0
M  V30 8301 H 782.518 -1.47158 -1.27791 0
M  V30 8302 H 781.614 -1.37359 -2.80248 0
M  V30 8303 N 781.915 1.24427 -0.967243 0
M  V30 8304 C 782.878 2.23637 -0.501927 0
M  V30 8305 C 783.878 1.55712 0.401283 0
M  V30 8306 O 785.068 1.73085 0.196808 0
M  V30 8307 C 782.2 3.39804 0.273176 0
M  V30 8308 H 783.393 2.66317 -1.37897 0
M  V30 8309 H 780.946 1.37033 -0.751783 0
M  V30 8310 H 781.681 3.02562 1.16733 0
M  V30 8311 H 781.466 3.90303 -0.37498 0
M  V30 8312 H 782.956 4.13443 0.587776 0
M  V30 8313 N 783.393 0.737304 1.3929 0
M  V30 8314 C 784.303 0.100464 2.34385 0
M  V30 8315 C 785.319 -0.719282 1.58437 0
M  V30 8316 O 786.495 -0.647216 1.90717 0
M  V30 8317 C 783.56 -0.794325 3.37478 0
M  V30 8318 C 782.621 0.0379345 4.29283 0
M  V30 8319 C 781.854 -0.814241 5.27452 0
M  V30 8320 O 782.077 -2.05288 5.32177 0
M  V30 8321 O 781.011 -0.241679 6.01415 0
M  V30 8322 H 784.837 0.885407 2.90507 0
M  V30 8323 H 782.422 0.497999 1.40856 0
M  V30 8324 H 784.304 -1.30622 4.00644 0
M  V30 8325 H 782.979 -1.55804 2.83737 0
M  V30 8326 H 781.886 0.595405 3.69331 0
M  V30 8327 H 783.219 0.763926 4.86236 0
M  V30 8328 N 784.871 -1.49948 0.485112 0
M  V30 8329 C 786.099 -2.06806 -0.0622824 0
M  V30 8330 C 786.514 -1.34736 -1.32256 0
M  V30 8331 O 785.871 -0.420836 -1.77582 0
M  V30 8332 C 785.922 -3.59934 -0.336096 0
M  V30 8333 O 785.643 -4.29289 0.874203 0
M  V30 8334 C 787.144 -4.33459 -0.928903 0
M  V30 8335 H 784.364 -0.670867 0.0133472 0
M  V30 8336 H 786.908 -1.92937 0.677917 0
M  V30 8337 H 785.063 -3.7356 -1.02625 0
M  V30 8338 H 785.477 -5.20735 0.627332 0
M  V30 8339 H 786.951 -5.41527 -1.07017 0
M  V30 8340 H 787.428 -3.94881 -1.92265 0
M  V30 8341 H 788.034 -4.24399 -0.276705 0
M  V30 8342 N 786.349 -0.21828 -1.56081 0
M  V30 8343 C 787.577 0.419258 -2.02608 0
M  V30 8344 C 787.992 1.53578 -1.09814 0
M  V30 8345 O 787.349 1.82185 -0.107149 0
M  V30 8346 C 787.4 0.953955 -3.48686 0
M  V30 8347 O 787.121 -0.11805 -4.37941 0
M  V30 8348 C 788.622 1.66506 -4.10841 0
M  V30 8349 H 785.842 0.10296 -0.663054 0
M  V30 8350 H 788.386 -0.333776 -2.01758 0
M  V30 8351 H 786.541 1.65727 -3.50162 0
M  V30 8352 H 786.955 0.283359 -5.23734 0
M  V30 8353 H 788.429 1.99123 -5.14834 0
M  V30 8354 H 788.906 2.57705 -3.55647 0
M  V30 8355 H 789.512 1.00703 -4.13206 0
M  V30 8356 N 787.827 1.57504 0.0551401 0
M  V30 8357 C 788.774 2.04825 1.06373 0
M  V30 8358 C 789.744 0.932108 1.37481 0
M  V30 8359 O 790.929 1.20093 1.48265 0
M  V30 8360 C 788.069 2.51091 2.36743 0
M  V30 8361 C 787.182 3.76392 2.12021 0
M  V30 8362 C 786.317 4.11373 3.36074 0
M  V30 8363 C 785.356 5.29666 3.0679 0
M  V30 8364 N 784.493 5.60205 4.2322 0
M  V30 8365 H 789.333 2.90753 0.653216 0
M  V30 8366 H 786.87 1.43776 0.310951 0
M  V30 8367 H 788.828 2.75973 3.12881 0
M  V30 8368 H 787.458 1.68118 2.75565 0
M  V30 8369 H 786.51 3.58751 1.26498 0
M  V30 8370 H 787.822 4.62662 1.86401 0
M  V30 8371 H 786.976 4.37245 4.20597 0
M  V30 8372 H 785.715 3.23704 3.64784 0
M  V30 8373 H 784.72 5.03574 2.20664 0
M  V30 8374 H 785.945 6.18968 2.79385 0
M  V30 8375 H 783.891 4.75495 4.5193 0
M  V30 8376 H 783.808 6.40928 4.00933 0
M  V30 8377 H 785.076 5.90637 5.08692 0
M  V30 8378 N 789.305 -0.326896 1.54172 0
M  V30 8379 C 790.721 -0.671034 1.44808 0
M  V30 8380 C 790.921 -1.91781 0.618258 0
M  V30 8381 O 789.977 -2.52235 0.115751 0
M  V30 8382 C 791.29 -0.848147 2.88491 0
M  V30 8383 C 792.838 -0.945702 2.98371 0
M  V30 8384 C 793.313 -1.15501 4.43197 0
M  V30 8385 N 794.804 -1.22183 4.46795 0
M  V30 8386 C 795.539 -1.4016 5.56006 0
M  V30 8387 N 795.035 -1.55202 6.75192 0
M  V30 8388 N 796.828 -1.42841 5.43648 0
M  V30 8389 H 788.979 0.49262 2.06608 0
M  V30 8390 H 791.242 0.158574 0.934643 0
M  V30 8391 H 790.948 -0.00329969 3.517 0
M  V30 8392 H 790.822 -1.74497 3.34411 0
M  V30 8393 H 793.209 -1.78106 2.35292 0
M  V30 8394 H 793.29 -0.0254215 2.55787 0
M  V30 8395 H 792.934 -0.324521 5.06862 0
M  V30 8396 H 792.864 -2.08911 4.83388 0
M  V30 8397 H 795.355 -1.12016 3.60917 0
M  V30 8398 H 795.668 -1.68601 7.54184 0
M  V30 8399 H 794.013 -1.52306 6.78106 0
M  V30 8400 H 797.204 -1.30683 4.49488 0
M  V30 8401 H 797.377 -1.56509 6.28816 0
M  V30 8402 N 790.784 -1.46188 -0.588786 0
M  V30 8403 C 792.195 -1.45421 -1.17088 0
M  V30 8404 C 792.546 -0.191801 -1.9526 0
M  V30 8405 O 791.671 0.705497 -2.04577 0
M  V30 8406 C 792.266 -2.63467 -2.13004 0
M  V30 8407 C 790.825 -2.6576 -2.6655 0
M  V30 8408 C 789.972 -2.38002 -1.42304 0
M  V30 8409 H 792.923 -1.54156 -0.377052 0
M  V30 8410 H 792.944 -2.38638 -2.96365 0
M  V30 8411 H 792.456 -3.55331 -1.56081 0
M  V30 8412 H 790.557 -1.77952 -3.27359 0
M  V30 8413 H 790.67 -3.65545 -3.09699 0
M  V30 8414 H 789.034 -1.87936 -1.71907 0
M  V30 8415 H 789.817 -3.32035 -0.872209 0
M  V30 8416 N 792.262 0.832906 -1.33792 0
M  V30 8417 C 793.225 1.92471 -1.24449 0
M  V30 8418 C 794.225 1.59981 -0.162085 0
M  V30 8419 O 795.415 1.69208 -0.414029 0
M  V30 8420 C 792.547 3.28278 -0.919044 0
M  V30 8421 H 793.74 2.0218 -2.21502 0
M  V30 8422 H 791.293 1.0257 -1.17936 0
M  V30 8423 H 792.028 3.24263 0.048738 0
M  V30 8424 H 791.813 3.53241 -1.70187 0
M  V30 8425 H 793.303 4.08253 -0.878576 0
M  V30 8426 N 793.74 1.17359 1.05189 0
M  V30 8427 C 794.986 0.963413 1.78455 0
M  V30 8428 C 795.319 -0.506703 1.87473 0
M  V30 8429 O 794.594 -1.37611 1.37453 0
M  V30 8430 C 794.877 1.60519 3.22344 0
M  V30 8431 C 794.73 3.14741 3.21338 0
M  V30 8432 C 796.049 1.3091 4.20179 0
M  V30 8433 H 793.168 0.351412 0.647826 0
M  V30 8434 H 795.81 1.44858 1.22948 0
M  V30 8435 H 793.96 1.19265 3.69741 0
M  V30 8436 H 795.632 3.65053 2.82017 0
M  V30 8437 H 793.875 3.4749 2.59679 0
M  V30 8438 H 794.546 3.54775 4.22894 0
M  V30 8439 H 797.022 1.66635 3.81277 0
M  V30 8440 H 795.898 1.784 5.191 0
M  V30 8441 H 796.159 0.229908 4.41502 0
M  V30 8442 N 795.218 -1.23913 0.973828 0
M  V30 8443 C 796.458 -1.93889 0.647015 0
M  V30 8444 C 796.822 -1.74368 -0.803735 0
M  V30 8445 O 798.023 -2.38435 -1.24106 0
M  V30 8446 C 796.294 -3.4257 1.01885 0
M  V30 8447 S 797.853 -4.31306 0.807517 0
M  V30 8448 H 794.671 -0.670279 0.237165 0
M  V30 8449 H 797.273 -1.50144 1.25208 0
M  V30 8450 H 795.977 -3.54286 2.07146 0
M  V30 8451 H 795.508 -3.91312 0.404812 0
M  V30 8452 H 797.523 -4.95218 -0.311986 0
M  V30 8453 N 796.696 -0.74468 -1.38897 0
M  V30 8454 C 797.659 -0.11945 -2.28889 0
M  V30 8455 C 798.659 0.656942 -1.46768 0
M  V30 8456 O 799.849 0.484525 -1.67326 0
M  V30 8457 C 796.981 0.839635 -3.30398 0
M  V30 8458 H 798.174 -0.912414 -2.85683 0
M  V30 8459 H 795.727 -0.511119 -1.47707 0
M  V30 8460 H 796.462 1.6586 -2.78677 0
M  V30 8461 H 796.247 0.285432 -3.9106 0
M  V30 8462 H 797.737 1.27337 -3.97712 0
M  V30 8463 N 798.174 1.49689 -0.493057 0
M  V30 8464 C 799.137 2.27502 0.278485 0
M  V30 8465 C 800.137 1.33184 0.901037 0
M  V30 8466 O 801.327 1.56415 0.766801 0
M  V30 8467 C 798.459 3.10881 1.39878 0
M  V30 8468 H 799.652 2.97163 -0.404219 0
M  V30 8469 H 797.205 1.54324 -0.247774 0
M  V30 8470 H 797.94 2.45767 2.11587 0
M  V30 8471 H 797.725 3.80219 0.957924 0
M  V30 8472 H 799.215 3.69673 1.94247 0
M  V30 8473 N 799.652 0.226554 1.55963 0
M  V30 8474 C 800.898 -0.404387 1.98727 0
M  V30 8475 C 801.231 -1.59059 1.11418 0
M  V30 8476 O 800.506 -1.93729 0.172971 0
M  V30 8477 C 800.789 -0.834081 3.50307 0
M  V30 8478 C 800.642 0.356104 4.48388 0
M  V30 8479 C 801.961 -1.68845 4.06423 0
M  V30 8480 H 799.08 -0.145515 0.722492 0
M  V30 8481 H 801.722 0.323791 1.87221 0
M  V30 8482 H 799.872 -1.45454 3.60244 0
M  V30 8483 H 801.544 0.99432 4.50456 0
M  V30 8484 H 799.787 1.0027 4.22053 0
M  V30 8485 H 800.458 0.0124333 5.51999 0
M  V30 8486 H 802.934 -1.16489 3.99461 0
M  V30 8487 H 801.81 -1.958 5.1279 0
M  V30 8488 H 802.071 -2.65347 3.53615 0
M  V30 8489 N 801.13 -1.57531 -0.0467866 0
M  V30 8490 C 802.06 -2.08425 -1.05268 0
M  V30 8491 C 803.041 -0.982941 -1.38825 0
M  V30 8492 O 804.226 -1.25716 -1.48018 0
M  V30 8493 C 801.356 -2.54897 -2.35891 0
M  V30 8494 C 800.31 -3.69132 -2.16623 0
M  V30 8495 C 799.636 -4.01747 -3.52851 0
M  V30 8496 C 800.936 -4.98243 -1.56689 0
M  V30 8497 H 802.63 -2.92716 -0.62908 0
M  V30 8498 H 800.176 -1.40816 -0.301156 0
M  V30 8499 H 802.129 -2.8912 -3.06574 0
M  V30 8500 H 800.853 -1.67666 -2.80278 0
M  V30 8501 H 799.512 -3.35231 -1.48377 0
M  V30 8502 H 799.16 -3.11608 -3.94853 0
M  V30 8503 H 798.86 -4.78681 -3.4079 0
M  V30 8504 H 800.384 -4.38487 -4.24925 0
M  V30 8505 H 801.798 -5.30535 -2.17268 0
M  V30 8506 H 800.195 -5.79669 -1.55255 0
M  V30 8507 H 801.265 -4.81986 -0.530827 0
M  V30 8508 O 802.647 0.18996 -1.60379 0
M  V30 8509 H 803.338 0.828364 -1.75094 0
M  V30 END ATOM
M  V30 BEGIN BOND
M  V30 END BOND
M  V30 END CTAB
M  END
$$$$
