drugbank_target|Q04771 Activin receptor type-1 (DB00171; DB08597; DB12010)
 OpenBabel12092119283D

  0  0  0     0  0            999 V3000
M  V30 BEGIN CTAB
M  V30 COUNTS 8002 8085 0 0 0
M  V30 BEGIN ATOM
M  V30 1 H -0.908 1.98254 -0.117106 0
M  V30 2 N 0 1.576 0 0
M  V30 3 C 0.933 2.03868 1.02534 0
M  V30 4 C 1.911 0.928543 1.3348 0
M  V30 5 O 3.095 1.19667 1.45644 0
M  V30 6 C 0.222 2.43627 2.35294 0
M  V30 7 C -0.732 3.65373 2.2001 0
M  V30 8 S 0.101 5.13292 1.52614 0
M  V30 9 C 1.257 5.56322 2.86805 0
M  V30 10 H 1.49 2.90518 0.631377 0
M  V30 11 H -0.977 1.52953 0.210867 0
M  V30 12 H 0.981 2.67203 3.11629 0
M  V30 13 H -0.358 1.57376 2.7183 0
M  V30 14 H -1.165 3.90944 3.18086 0
M  V30 15 H -1.563 3.418 1.51819 0
M  V30 16 H 0.729 5.58782 3.83104 0
M  V30 17 H 1.672 6.56266 2.65933 0
M  V30 18 H 2.08 4.83886 2.90714 0
M  V30 19 N 1.4781 -0.272755 1.55222 0
M  V30 20 C 2.7241 -1.00581 1.761 0
M  V30 21 C 3.0571 -1.85932 0.560625 0
M  V30 22 O 2.3321 -1.89416 -0.441801 0
M  V30 23 C 2.6151 -1.88816 3.06628 0
M  V30 24 C 2.4681 -1.06457 4.37021 0
M  V30 25 C 3.7871 -2.8752 3.33197 0
M  V30 26 H 0.9061 -0.364244 0.640699 0
M  V30 27 H 3.5481 -0.278189 1.87952 0
M  V30 28 H 1.6981 -2.50856 2.96654 0
M  V30 29 H 3.3701 -0.464863 4.58952 0
M  V30 30 H 1.6131 -0.368043 4.32236 0
M  V30 31 H 2.2841 -1.71514 5.24678 0
M  V30 32 H 4.7601 -2.35615 3.42965 0
M  V30 33 H 3.6361 -3.46399 4.25792 0
M  V30 34 H 3.8971 -3.62657 2.52849 0
M  V30 35 N 2.9562 -1.48159 -0.537278 0
M  V30 36 C 4.2332 -1.46291 -1.29839 0
M  V30 37 C 4.6132 -0.170613 -2.10409 0
M  V30 38 O 3.9612 0.847746 -2.12192 0
M  V30 39 C 4.1712 -2.72055 -2.18603 0
M  V30 40 C 5.5192 -3.20087 -2.7898 0
M  V30 41 O 6.5432 -2.72921 -2.28894 0
M  V30 42 O 5.4022 -4.02138 -3.70064 0
M  V30 43 H 2.4962 -0.583906 -0.585647 0
M  V30 44 H 5.0422 -1.60384 -0.554534 0
M  V30 45 H 3.8142 -3.57628 -1.58801 0
M  V30 46 H 3.4372 -2.60646 -3.00249 0
M  V30 47 N 4.4343 0.785586 -1.36625 0
M  V30 48 C 5.6823 1.54057 -1.30808 0
M  V30 49 C 6.0033 1.94683 0.111157 0
M  V30 50 O 5.2733 1.65241 1.05224 0
M  V30 51 H 3.8533 0.571354 -0.481211 0
M  V30 52 H 6.5153 0.935821 -1.70963 0
M  V30 53 H 5.6113 2.44637 -1.93801 0
M  V30 54 N 5.9124 1.20967 1.01018 0
M  V30 55 C 7.1584 1.02526 1.74975 0
M  V30 56 C 7.4914 -0.4408 1.89131 0
M  V30 57 O 6.7664 -1.32718 1.42184 0
M  V30 58 C 7.0494 1.71699 3.1653 0
M  V30 59 C 6.9024 3.25791 3.10129 0
M  V30 60 C 8.2214 1.45531 4.15342 0
M  V30 61 H 5.3404 0.373863 0.635134 0
M  V30 62 H 7.9824 1.49071 1.17805 0
M  V30 63 H 6.1324 1.32128 3.65341 0
M  V30 64 H 7.8044 3.74697 2.69072 0
M  V30 65 H 6.0474 3.56363 2.47362 0
M  V30 66 H 6.7184 3.69353 4.10222 0
M  V30 67 H 9.1944 1.79872 3.75213 0
M  V30 68 H 8.0704 1.96453 5.1254 0
M  V30 69 H 8.3314 0.384237 4.40427 0
M  V30 70 N 7.3905 -1.2043 1.01659 0
M  V30 71 C 8.3235 -2.21924 0.531521 0
M  V30 72 C 9.3015 -1.57054 -0.421032 0
M  V30 73 O 10.4855 -1.85389 -0.341035 0
M  V30 74 C 7.6125 -3.37942 -0.226496 0
M  V30 75 C 6.6585 -4.21115 0.67561 0
M  V30 76 S 7.4915 -4.90674 2.14475 0
M  V30 77 C 8.6475 -6.10113 1.3969 0
M  V30 78 H 8.8805 -2.62725 1.3915 0
M  V30 79 H 6.4135 -1.30481 0.825479 0
M  V30 80 H 8.3715 -4.05196 -0.657738 0
M  V30 81 H 7.0325 -2.956 -1.06205 0
M  V30 82 H 6.2255 -5.03918 0.091108 0
M  V30 83 H 5.8275 -3.59115 1.04463 0
M  V30 84 H 8.1195 -6.7411 0.676897 0
M  V30 85 H 9.0625 -6.73022 2.20107 0
M  V30 86 H 9.4705 -5.57283 0.899786 0
M  V30 87 N 8.8686 -0.792821 -1.36206 0
M  V30 88 C 10.1176 -0.363353 -1.984 0
M  V30 89 C 10.4306 1.07172 -1.63626 0
M  V30 90 O 11.6366 1.60362 -2.19081 0
M  V30 91 C 10.0926 -0.59872 -3.54885 0
M  V30 92 C 9.7006 -2.04543 -3.9858 0
M  V30 93 C 11.4446 -0.233926 -4.23855 0
M  V30 94 C 9.3516 -2.22727 -5.47856 0
M  V30 95 H 8.2816 -0.13212 -0.742334 0
M  V30 96 H 10.9326 -0.974935 -1.55458 0
M  V30 97 H 9.3146 0.0826222 -3.95914 0
M  V30 98 H 10.4886 -2.76345 -3.68741 0
M  V30 99 H 8.8036 -2.36879 -3.42458 0
M  V30 100 H 11.4006 -0.348027 -5.33566 0
M  V30 101 H 11.7436 0.818351 -4.08177 0
M  V30 102 H 12.2766 -0.868639 -3.882 0
M  V30 103 H 9.0156 -3.2635 -5.68486 0
M  V30 104 H 8.5356 -1.55434 -5.7931 0
M  V30 105 H 10.2146 -2.03607 -6.14128 0
M  V30 106 N 10.3467 1.47872 -0.545128 0
M  V30 107 C 11.2767 2.32661 0.197793 0
M  V30 108 C 12.2577 1.43041 0.920504 0
M  V30 109 O 13.4427 1.71912 0.90333 0
M  V30 110 C 10.5727 3.24569 1.23582 0
M  V30 111 C 9.5267 4.23333 0.630323 0
M  V30 112 C 8.8527 5.0448 1.77211 0
M  V30 113 C 10.1527 5.20704 -0.407974 0
M  V30 114 H 11.8467 2.95024 -0.510045 0
M  V30 115 H 9.3927 1.4187 -0.246731 0
M  V30 116 H 11.3457 3.8272 1.76362 0
M  V30 117 H 10.0697 2.60236 1.97344 0
M  V30 118 H 8.7287 3.6639 0.123922 0
M  V30 119 H 8.3767 4.36561 2.49847 0
M  V30 120 H 8.0767 5.71339 1.37281 0
M  V30 121 H 9.6007 5.65487 2.3034 0
M  V30 122 H 11.0147 5.7329 0.033305 0
M  V30 123 H 9.4117 5.95699 -0.725486 0
M  V30 124 H 10.4817 4.66917 -1.30828 0
M  V30 125 N 11.8248 0.280983 1.55075 0
M  V30 126 C 13.2358 -0.215629 1.85451 0
M  V30 127 C 13.5868 -1.54991 1.203 0
M  V30 128 O 12.7118 -2.10699 0.493435 0
M  V30 129 C 13.3068 -0.398026 3.36454 0
M  V30 130 C 11.8658 -0.838866 3.66933 0
M  V30 131 C 11.0128 0.064458 2.77225 0
M  V30 132 H 13.9638 0.502601 1.50531 0
M  V30 133 H 13.9848 -1.23569 3.59876 0
M  V30 134 H 13.4968 0.573241 3.83843 0
M  V30 135 H 11.5978 -1.8214 3.25048 0
M  V30 136 H 11.7108 -0.672123 4.74362 0
M  V30 137 H 10.0748 -0.452863 2.50642 0
M  V30 138 H 10.8578 1.03172 3.2743 0
M  V30 139 N 13.3029 -1.57598 0.00835791 0
M  V30 140 C 14.5489 -1.91211 -0.675732 0
M  V30 141 C 14.8819 -0.883139 -1.72958 0
M  V30 142 O 14.1569 0.097016 -1.94258 0
M  V30 143 C 14.4399 -3.35379 -1.31123 0
M  V30 144 C 14.2929 -4.48999 -0.268356 0
M  V30 145 C 15.6119 -3.7912 -2.23508 0
M  V30 146 H 12.7309 -0.695374 -0.244179 0
M  V30 147 H 15.3729 -1.89901 0.0613655 0
M  V30 148 H 13.5229 -3.36626 -1.93946 0
M  V30 149 H 15.1949 -4.59887 0.360844 0
M  V30 150 H 13.4379 -4.31873 0.408482 0
M  V30 151 H 14.1089 -5.46851 -0.752218 0
M  V30 152 H 16.5849 -3.79477 -1.70693 0
M  V30 153 H 15.4609 -4.80729 -2.64936 0
M  V30 154 H 15.7219 -3.13455 -3.11766 0
M  V30 155 N 14.781 0.264519 -1.55364 0
M  V30 156 C 15.711 1.33121 -1.91836 0
M  V30 157 C 16.692 1.51101 -0.781192 0
M  V30 158 O 17.877 1.64003 -1.04003 0
M  V30 159 C 15.007 2.68921 -2.19769 0
M  V30 160 C 13.961 2.65661 -3.35571 0
M  V30 161 C 13.287 4.05093 -3.49004 0
M  V30 162 C 14.587 2.24187 -4.71739 0
M  V30 163 H 16.281 1.02844 -2.81182 0
M  V30 164 H 13.827 0.493286 -1.35287 0
M  V30 165 H 15.78 3.43663 -2.43872 0
M  V30 166 H 14.504 3.00799 -1.27231 0
M  V30 167 H 13.163 1.93377 -3.1145 0
M  V30 168 H 12.811 4.34206 -2.53917 0
M  V30 169 H 12.511 4.03804 -4.26868 0
M  V30 170 H 14.035 4.81561 -3.75408 0
M  V30 171 H 15.449 2.88654 -4.9533 0
M  V30 172 H 13.846 2.34044 -5.52579 0
M  V30 173 H 14.916 1.19327 -4.69988 0
M  V30 174 N 16.2591 1.48442 0.529413 0
M  V30 175 C 17.5081 1.55742 1.28169 0
M  V30 176 C 17.8211 0.236511 1.94165 0
M  V30 177 O 19.0271 0.187761 2.7085 0
M  V30 178 C 17.4831 2.74667 2.32564 0
M  V30 179 C 17.0911 4.13402 1.72636 0
M  V30 180 C 18.8351 2.9128 3.08798 0
M  V30 181 C 16.7421 5.23587 2.74975 0
M  V30 182 H 15.6721 0.579796 0.48203 0
M  V30 183 H 18.3231 1.74776 0.559056 0
M  V30 184 H 16.7051 2.49067 3.07866 0
M  V30 185 H 17.8791 4.49022 1.03519 0
M  V30 186 H 16.1941 4.0191 1.08892 0
M  V30 187 H 18.7911 3.70767 3.85274 0
M  V30 188 H 19.1341 2.00757 3.64695 0
M  V30 189 H 19.6671 3.16782 2.40611 0
M  V30 190 H 16.4061 6.16076 2.23897 0
M  V30 191 H 15.9261 4.92454 3.42417 0
M  V30 192 H 17.6051 5.51724 3.37949 0
M  V30 193 N 17.7372 -0.778329 1.37039 0
M  V30 194 C 18.6702 -1.8984 1.26633 0
M  V30 195 C 19.6482 -1.61923 0.148197 0
M  V30 196 O 20.8322 -1.85742 0.321265 0
M  V30 197 C 17.9592 -3.24916 0.956403 0
M  V30 198 C 17.0052 -3.71752 2.09051 0
M  V30 199 S 17.8382 -3.86201 3.70957 0
M  V30 200 C 18.9942 -5.24135 3.42101 0
M  V30 201 H 19.2272 -1.98377 2.21436 0
M  V30 202 H 16.7602 -0.938738 1.22585 0
M  V30 203 H 18.7182 -4.02936 0.784409 0
M  V30 204 H 17.3792 -3.14089 0.0259713 0
M  V30 205 H 16.5722 -4.69661 1.8285 0
M  V30 206 H 16.1742 -3.00815 2.2223 0
M  V30 207 H 18.4662 -6.09086 2.96682 0
M  V30 208 H 19.4092 -5.55346 4.39314 0
M  V30 209 H 19.8172 -4.91761 2.77185 0
M  V30 210 N 19.2153 -1.21501 -1.00376 0
M  V30 211 C 20.4643 -1.02718 -1.73586 0
M  V30 212 C 20.7773 0.439589 -1.90596 0
M  V30 213 O 21.9833 0.746848 -2.61026 0
M  V30 214 C 20.4393 -1.78929 -3.1227 0
M  V30 215 C 20.0473 -3.29783 -3.03228 0
M  V30 216 C 21.7913 -1.68557 -3.89601 0
M  V30 217 C 19.6983 -3.98479 -4.36999 0
M  V30 218 H 18.6283 -0.380733 -0.650814 0
M  V30 219 H 21.2793 -1.45248 -1.1214 0
M  V30 220 H 19.6613 -1.29192 -3.74333 0
M  V30 221 H 20.8353 -3.86832 -2.50395 0
M  V30 222 H 19.1503 -3.40711 -2.39385 0
M  V30 223 H 21.7473 -2.17211 -4.88593 0
M  V30 224 H 22.0903 -0.644021 -4.11288 0
M  V30 225 H 22.6233 -2.15778 -3.34193 0
M  V30 226 H 19.3623 -5.02841 -4.20513 0
M  V30 227 H 18.8823 -3.46219 -4.89788 0
M  V30 228 H 20.5613 -4.03462 -5.05794 0
M  V30 229 N 20.6934 1.19889 -1.02296 0
M  V30 230 C 21.6564 2.21116 -0.603351 0
M  V30 231 C 22.6564 1.5738 0.329884 0
M  V30 232 O 23.8464 1.73802 0.117702 0
M  V30 233 C 20.9784 3.40696 0.117992 0
M  V30 234 H 22.1714 2.59754 -1.49893 0
M  V30 235 H 19.7244 1.33463 -0.813468 0
M  V30 236 H 20.4594 3.07569 1.0282 0
M  V30 237 H 20.2444 3.88188 -0.552511 0
M  V30 238 H 21.7344 4.15692 0.398696 0
M  V30 239 N 22.1715 0.800033 1.35784 0
M  V30 240 C 23.1015 0.220184 2.3246 0
M  V30 241 C 24.0825 -0.65073 1.57161 0
M  V30 242 O 25.2675 -0.582359 1.85263 0
M  V30 243 C 22.3975 -0.637353 3.41402 0
M  V30 244 C 21.3515 0.134531 4.27789 0
M  V30 245 C 20.6775 -0.844285 5.27992 0
M  V30 246 C 21.9775 1.32979 5.05088 0
M  V30 247 H 23.6715 1.02787 2.81203 0
M  V30 248 H 21.2175 0.495717 1.35199 0
M  V30 249 H 23.1705 -1.05302 4.08031 0
M  V30 250 H 21.8945 -1.47785 2.91251 0
M  V30 251 H 20.5535 0.531296 3.6273 0
M  V30 252 H 20.2015 -1.68011 4.74111 0
M  V30 253 H 19.9015 -0.332184 5.8666 0
M  V30 254 H 21.4255 -1.2583 5.97494 0
M  V30 255 H 22.8395 0.98934 5.64699 0
M  V30 256 H 21.2365 1.77593 5.7322 0
M  V30 257 H 22.3065 2.11978 4.36111 0
M  V30 258 N 23.6496 -1.47581 0.552962 0
M  V30 259 C 25.0606 -1.86324 0.118463 0
M  V30 260 C 25.4116 -1.46006 -1.3106 0
M  V30 261 O 24.5366 -0.861182 -1.98526 0
M  V30 262 C 25.1316 -3.3816 0.20821 0
M  V30 263 C 23.6906 -3.7601 -0.171226 0
M  V30 264 C 22.8376 -2.71634 0.557686 0
M  V30 265 H 25.7886 -1.39159 0.762928 0
M  V30 266 H 25.8096 -3.76141 -0.574278 0
M  V30 267 H 25.3216 -3.67473 1.24841 0
M  V30 268 H 23.4226 -3.52313 -1.21269 0
M  V30 269 H 23.5356 -4.78745 0.184379 0
M  V30 270 H 21.8996 -2.547 0.00125792 0
M  V30 271 H 22.6826 -3.0379 1.59896 0
M  V30 272 N 25.1277 -0.289203 -1.54924 0
M  V30 273 C 26.3527 0.329299 -2.04769 0
M  V30 274 C 26.7777 1.4763 -1.16564 0
M  V30 275 O 26.1357 1.80527 -0.167186 0
M  V30 276 C 26.1837 0.774438 -3.52186 0
M  V30 277 O 25.2877 1.88038 -3.67036 0
M  V30 278 H 24.6287 0.0659259 -0.660719 0
M  V30 279 H 27.1587 -0.42761 -2.00082 0
M  V30 280 H 27.1687 1.06642 -3.93816 0
M  V30 281 H 25.8437 -0.0646707 -4.1585 0
M  V30 282 H 24.4207 1.58985 -3.3731 0
M  V30 283 N 26.6058 1.57591 -0.0167156 0
M  V30 284 C 28.0168 1.79201 0.523834 0
M  V30 285 C 28.3678 0.925796 1.72984 0
M  V30 286 O 27.4928 0.132792 2.15992 0
M  V30 287 C 28.0878 3.25 0.957091 0
M  V30 288 C 26.6468 3.47648 1.44283 0
M  V30 289 C 25.7938 2.74374 0.401757 0
M  V30 290 H 28.7448 1.56831 -0.242816 0
M  V30 291 H 28.7658 3.34031 1.82219 0
M  V30 292 H 28.2778 3.88019 0.0791415 0
M  V30 293 H 26.3788 2.89866 2.34113 0
M  V30 294 H 26.4918 4.56352 1.45877 0
M  V30 295 H 24.8558 2.39485 0.867121 0
M  V30 296 H 25.6388 3.40102 -0.467513 0
M  V30 297 N 28.0839 -0.256276 1.55502 0
M  V30 298 C 29.3089 -1.00766 1.81276 0
M  V30 299 C 29.7339 -1.78524 0.59252 0
M  V30 300 O 29.0919 -1.75413 -0.45827 0
M  V30 301 C 29.1399 -1.92869 3.04687 0
M  V30 302 O 28.2439 -3.019 2.80945 0
M  V30 303 H 27.5849 -0.287224 0.598664 0
M  V30 304 H 30.1149 -0.280109 2.02674 0
M  V30 305 H 30.1249 -2.34511 3.33869 0
M  V30 306 H 28.7999 -1.35689 3.93143 0
M  V30 307 H 27.3769 -2.64454 2.62904 0
M  V30 308 N 29.562 -1.4872 -0.521534 0
M  V30 309 C 30.495 -1.58451 -1.64221 0
M  V30 310 C 31.473 -0.434513 -1.56687 0
M  V30 311 O 32.657 -0.647275 -1.77038 0
M  V30 312 C 29.784 -1.52037 -3.02659 0
M  V30 313 C 28.83 -2.71981 -3.28525 0
M  V30 314 S 29.663 -4.33869 -3.13876 0
M  V30 315 C 30.819 -4.30067 -4.54745 0
M  V30 316 H 31.052 -2.53256 -1.55719 0
M  V30 317 H 28.585 -1.37358 -0.705143 0
M  V30 318 H 30.543 -1.49023 -3.82495 0
M  V30 319 H 29.204 -0.585541 -3.08594 0
M  V30 320 H 28.397 -2.63656 -4.29536 0
M  V30 321 H 27.999 -2.72302 -2.56374 0
M  V30 322 H 30.291 -4.00521 -5.46433 0
M  V30 323 H 31.234 -5.31287 -4.68123 0
M  V30 324 H 31.642 -3.60419 -4.34463 0
M  V30 325 N 31.0401 0.771051 -1.3745 0
M  V30 326 C 31.9501 1.91538 -1.35464 0
M  V30 327 C 32.9661 1.72134 -0.254123 0
M  V30 328 O 34.1421 1.95358 -0.489626 0
M  V30 329 C 31.2071 3.26671 -1.16134 0
M  V30 330 C 30.2681 3.58723 -2.35831 0
M  V30 331 C 29.5011 4.87409 -2.17413 0
M  V30 332 O 29.7241 5.58506 -1.15876 0
M  V30 333 O 28.6581 5.18539 -3.05615 0
M  V30 334 H 32.4841 1.96165 -2.31847 0
M  V30 335 H 30.0691 0.9139 -1.18187 0
M  V30 336 H 31.9511 4.07499 -1.07345 0
M  V30 337 H 30.6261 3.22894 -0.228251 0
M  V30 338 H 29.5331 2.78127 -2.50192 0
M  V30 339 H 30.8661 3.67243 -3.27709 0
M  V30 340 N 32.5182 1.22032 0.997298 0
M  V30 341 C 33.7952 0.950823 1.70935 0
M  V30 342 C 34.1752 -0.535292 2.042 0
M  V30 343 O 33.5232 -1.50217 1.72183 0
M  V30 344 C 33.7332 1.84386 2.96315 0
M  V30 345 C 35.0812 2.09732 3.69185 0
M  V30 346 O 36.1052 1.81798 3.06314 0
M  V30 347 O 34.9642 2.57018 4.82291 0
M  V30 348 H 32.0582 0.357204 0.745878 0
M  V30 349 H 34.6042 1.32997 1.05404 0
M  V30 350 H 33.3762 2.84928 2.68201 0
M  V30 351 H 32.9992 1.46602 3.69586 0
M  V30 352 N 33.9963 -1.19345 1.0293 0
M  V30 353 C 34.9063 -2.26245 0.620515 0
M  V30 354 C 35.9223 -1.70486 -0.347928 0
M  V30 355 O 37.0983 -2.00347 -0.205704 0
M  V30 356 C 34.1633 -3.46693 -0.0218957 0
M  V30 357 C 33.2243 -4.17632 0.994102 0
M  V30 358 C 32.4573 -5.32329 0.382253 0
M  V30 359 O 32.6803 -5.64552 -0.814676 0
M  V30 360 O 31.6143 -5.91664 1.10531 0
M  V30 361 H 35.4403 -2.63453 1.51083 0
M  V30 362 H 33.0253 -1.26207 0.799513 0
M  V30 363 H 34.9073 -4.19683 -0.380072 0
M  V30 364 H 33.5823 -3.11333 -0.886209 0
M  V30 365 H 32.4893 -3.4676 1.40387 0
M  V30 366 H 33.8223 -4.56964 1.8288 0
M  V30 367 N 35.4744 -0.807222 -1.35358 0
M  V30 368 C 36.4214 -0.216037 -2.29787 0
M  V30 369 C 37.3914 0.650278 -1.52842 0
M  V30 370 O 38.5764 0.595227 -1.81278 0
M  V30 371 C 35.7164 0.628893 -3.39321 0
M  V30 372 C 34.8294 -0.257927 -4.31229 0
M  V30 373 C 33.9644 0.595069 -5.27856 0
M  V30 374 C 33.0034 -0.292111 -6.11403 0
M  V30 375 N 32.1404 0.520895 -7.00165 0
M  V30 376 H 36.9804 -1.02671 -2.79755 0
M  V30 377 H 34.5174 -0.517839 -1.37684 0
M  V30 378 H 36.4754 1.13393 -4.01494 0
M  V30 379 H 35.1054 1.40482 -2.90628 0
M  V30 380 H 34.1574 -0.881076 -3.70056 0
M  V30 381 H 35.4694 -0.940759 -4.89848 0
M  V30 382 H 34.6234 1.16522 -5.95405 0
M  V30 383 H 33.3624 1.31146 -4.69736 0
M  V30 384 H 32.3674 -0.874525 -5.428 0
M  V30 385 H 33.5924 -1.00638 -6.71602 0
M  V30 386 H 31.5384 1.22125 -6.44532 0
M  V30 387 H 31.4554 -0.103877 -7.55929 0
M  V30 388 H 32.7234 1.0743 -7.72062 0
M  V30 389 N 36.9525 1.47285 -0.560781 0
M  V30 390 C 38.3635 1.86258 -0.128343 0
M  V30 391 C 38.7145 1.46699 1.30284 0
M  V30 392 O 37.8395 0.871698 1.98067 0
M  V30 393 C 38.4345 3.38044 -0.22614 0
M  V30 394 C 36.9935 3.76096 0.151283 0
M  V30 395 C 36.1405 2.71335 -0.572084 0
M  V30 396 H 39.0915 1.38752 -0.770297 0
M  V30 397 H 39.1125 3.76441 0.554322 0
M  V30 398 H 38.6245 3.66806 -1.26788 0
M  V30 399 H 36.7255 3.52951 1.19399 0
M  V30 400 H 36.8385 4.78641 -0.209765 0
M  V30 401 H 35.2025 2.54696 -0.0147653 0
M  V30 402 H 35.9855 3.02938 -1.61504 0
M  V30 403 N 38.4306 0.297415 1.54768 0
M  V30 404 C 39.3776 -0.580276 2.23386 0
M  V30 405 C 40.3476 -1.13238 1.21517 0
M  V30 406 O 41.5326 -1.17757 1.50126 0
M  V30 407 C 38.6726 -1.74801 2.97555 0
M  V30 408 C 37.7856 -1.22764 4.1419 0
M  V30 409 C 36.9206 -2.35895 4.75949 0
M  V30 410 C 35.9596 -1.80974 5.84735 0
M  V30 411 N 35.0966 -2.87664 6.40464 0
M  V30 412 H 39.9366 0.0114833 2.97998 0
M  V30 413 H 37.4736 0.0174361 1.4709 0
M  V30 414 H 39.4316 -2.43475 3.38786 0
M  V30 415 H 38.0616 -2.31145 2.25326 0
M  V30 416 H 37.1136 -0.433271 3.77924 0
M  V30 417 H 38.4256 -0.785551 4.92575 0
M  V30 418 H 37.5796 -3.12523 5.20014 0
M  V30 419 H 36.3186 -2.83429 3.96887 0
M  V30 420 H 35.3236 -1.02834 5.40097 0
M  V30 421 H 36.5486 -1.34348 6.65678 0
M  V30 422 H 34.4946 -3.34538 5.64287 0
M  V30 423 H 34.4116 -2.4794 7.14186 0
M  V30 424 H 35.6796 -3.642 6.89187 0
M  V30 425 N 39.9087 -1.5758 0.0250728 0
M  V30 426 C 41.1547 -1.91917 -0.655413 0
M  V30 427 C 41.4877 -0.901433 -1.72011 0
M  V30 428 O 40.7627 0.0764069 -1.9435 0
M  V30 429 C 41.0457 -3.36751 -1.27558 0
M  V30 430 C 40.8987 -4.49258 -0.220719 0
M  V30 431 C 42.2177 -3.81469 -2.19475 0
M  V30 432 H 39.3367 -0.697925 -0.23679 0
M  V30 433 H 41.9787 -1.89825 0.0815036 0
M  V30 434 H 40.1287 -3.38664 -1.90365 0
M  V30 435 H 41.8007 -4.59478 0.409601 0
M  V30 436 H 40.0437 -4.31415 0.454264 0
M  V30 437 H 40.7147 -5.47618 -0.694175 0
M  V30 438 H 43.1907 -3.81266 -1.66659 0
M  V30 439 H 42.0667 -4.83512 -2.59822 0
M  V30 440 H 42.3277 -3.16744 -3.08424 0
M  V30 441 N 41.3868 0.248026 -1.55636 0
M  V30 442 C 42.3348 1.32683 -1.91045 0
M  V30 443 C 43.3288 1.49883 -0.789401 0
M  V30 444 O 44.5348 1.51371 -0.974007 0
M  V30 445 H 40.9098 0.444272 -0.606734 0
M  V30 446 H 42.8808 1.00085 -2.81115 0
M  V30 447 C 41.6298 2.6755 -2.22064 0
M  V30 448 H 40.9528 2.55114 -3.07826 0
M  V30 449 H 42.3928 3.41912 -2.50743 0
M  V30 450 C 40.8518 3.20556 -1.0366 0
M  V30 451 O 41.3818 4.00695 -0.284016 0
M  V30 452 N 39.5878 2.78568 -0.82753 0
M  V30 453 H 39.1348 2.1351 -1.44123 0
M  V30 454 H 39.0928 3.14378 -0.0369803 0
M  V30 455 N 42.8649 1.48995 0.513639 0
M  V30 456 C 44.2759 1.5119 1.09537 0
M  V30 457 C 44.6269 0.290906 1.94031 0
M  V30 458 O 43.7519 -0.60049 2.07902 0
M  V30 459 C 44.3469 2.73964 1.99322 0
M  V30 460 C 42.9059 2.78978 2.52682 0
M  V30 461 C 42.0529 2.44934 1.30009 0
M  V30 462 H 45.0039 1.55875 0.298125 0
M  V30 463 H 45.0249 2.53409 2.83838 0
M  V30 464 H 44.5369 3.62813 1.37799 0
M  V30 465 H 42.6379 1.94378 3.1788 0
M  V30 466 H 42.7509 3.8083 2.90698 0
M  V30 467 H 41.1149 1.9644 1.62122 0
M  V30 468 H 41.8979 3.36043 0.702131 0
M  V30 469 N 44.343 -0.763751 1.37857 0
M  V30 470 C 45.29 -1.87726 1.34267 0
M  V30 471 C 46.26 -1.64807 0.206879 0
M  V30 472 O 47.445 -1.86613 0.397508 0
M  V30 473 C 44.585 -3.24896 1.16346 0
M  V30 474 C 43.698 -3.59716 2.39225 0
M  V30 475 C 42.833 -4.86137 2.14114 0
M  V30 476 C 41.872 -5.13711 3.32817 0
M  V30 477 N 41.009 -6.31323 3.07206 0
M  V30 478 H 45.849 -1.90129 2.29466 0
M  V30 479 H 43.386 -0.929433 1.14017 0
M  V30 480 H 45.344 -4.04036 1.03975 0
M  V30 481 H 43.974 -3.21847 0.247909 0
M  V30 482 H 43.026 -2.75498 2.62307 0
M  V30 483 H 44.338 -3.76027 3.27728 0
M  V30 484 H 43.492 -5.73198 1.9882 0
M  V30 485 H 42.231 -4.71945 1.22961 0
M  V30 486 H 41.236 -4.25123 3.48641 0
M  V30 487 H 42.461 -5.29807 4.24832 0
M  V30 488 H 40.407 -6.18474 2.1869 0
M  V30 489 H 40.324 -6.48087 3.89254 0
M  V30 490 H 41.592 -7.213 2.95546 0
M  V30 491 N 45.8211 -1.22559 -0.990812 0
M  V30 492 C 46.7511 -1.0218 -2.09956 0
M  V30 493 C 47.7321 0.0579394 -1.70001 0
M  V30 494 O 48.9171 -0.104684 -1.93918 0
M  V30 495 C 46.0471 -0.601023 -3.4206 0
M  V30 496 C 45.0011 -1.62694 -3.95872 0
M  V30 497 C 44.3271 -1.06193 -5.24049 0
M  V30 498 C 45.6271 -3.01743 -4.2632 0
M  V30 499 H 47.3211 -1.94916 -2.27262 0
M  V30 500 H 44.8671 -0.938566 -1.09211 0
M  V30 501 H 46.8201 -0.445561 -4.19038 0
M  V30 502 H 45.5441 0.362005 -3.24588 0
M  V30 503 H 44.2031 -1.77021 -3.21028 0
M  V30 504 H 43.8511 -0.0901903 -5.02919 0
M  V30 505 H 43.5511 -1.74732 -5.61019 0
M  V30 506 H 45.0751 -0.918092 -6.03658 0
M  V30 507 H 46.4891 -2.90777 -4.94087 0
M  V30 508 H 44.8861 -3.67425 -4.74467 0
M  V30 509 H 45.9561 -3.51518 -3.34011 0
M  V30 510 N 47.2992 1.18797 -1.03562 0
M  V30 511 C 48.5292 1.92319 -0.754773 0
M  V30 512 C 48.9372 1.7612 0.691248 0
M  V30 513 O 48.2802 1.08491 1.48241 0
M  V30 514 C 48.3422 3.44284 -1.03484 0
M  V30 515 C 48.0062 3.84258 -2.47376 0
M  V30 516 C 49.0032 3.88459 -3.45537 0
M  V30 517 C 46.6882 4.15701 -2.81954 0
M  V30 518 C 48.6822 4.23545 -4.76328 0
M  V30 519 C 46.3692 4.50458 -4.12954 0
M  V30 520 C 47.3672 4.54356 -5.09951 0
M  V30 521 O 47.0552 4.88305 -6.38603 0
M  V30 522 H 46.7872 0.617527 -0.275021 0
M  V30 523 H 49.3412 1.51683 -1.38497 0
M  V30 524 H 47.5712 3.85135 -0.347513 0
M  V30 525 H 49.2602 3.99049 -0.7426 0
M  V30 526 H 50.0262 3.6431 -3.20162 0
M  V30 527 H 45.9052 4.11847 -2.0713 0
M  V30 528 H 49.4492 4.26502 -5.52035 0
M  V30 529 H 45.3462 4.74067 -4.38099 0
M  V30 530 H 46.1142 5.06227 -6.43177 0
M  V30 531 N 48.7773 0.814389 1.34928 0
M  V30 532 C 49.7103 0.175641 2.27523 0
M  V30 533 C 50.6883 -0.662953 1.48471 0
M  V30 534 O 51.8723 -0.628545 1.77712 0
M  V30 535 C 48.9993 -0.755516 3.30166 0
M  V30 536 C 48.0453 0.00445305 4.265 0
M  V30 537 S 48.8783 1.34582 5.18313 0
M  V30 538 C 50.0343 0.419315 6.24494 0
M  V30 539 H 50.2673 0.960691 2.8135 0
M  V30 540 H 47.8003 0.609846 1.41846 0
M  V30 541 H 49.7583 -1.28723 3.89796 0
M  V30 542 H 48.4193 -1.51402 2.75202 0
M  V30 543 H 47.6123 -0.703077 4.99072 0
M  V30 544 H 47.2143 0.466447 3.7108 0
M  V30 545 H 49.5063 -0.392432 6.76362 0
M  V30 546 H 50.4493 1.11446 6.99275 0
M  V30 547 H 50.8573 0.0115389 5.64499 0
M  V30 548 N 50.2554 -1.46986 0.568584 0
M  V30 549 C 51.4954 -2.04336 0.0512999 0
M  V30 550 C 51.8594 -1.43214 -1.27881 0
M  V30 551 O 53.0604 -1.91679 -1.88448 0
M  V30 552 C 51.3314 -3.57389 -0.0282328 0
M  V30 553 S 52.8904 -4.36056 -0.489991 0
M  V30 554 H 49.7084 -0.71034 0.0306349 0
M  V30 555 H 52.3104 -1.80212 0.757891 0
M  V30 556 H 51.0144 -3.99395 0.944011 0
M  V30 557 H 50.5454 -3.86028 -0.75803 0
M  V30 558 H 52.5604 -4.6441 -1.74752 0
M  V30 559 N 51.7335 -0.305618 -1.54608 0
M  V30 560 C 52.9795 0.302746 -2.00528 0
M  V30 561 C 53.3125 1.53184 -1.19367 0
M  V30 562 O 52.5875 1.92598 -0.271321 0
M  V30 563 C 52.8705 0.654756 -3.54097 0
M  V30 564 C 52.7235 -0.583793 -4.45995 0
M  V30 565 C 54.0425 1.47947 -4.14487 0
M  V30 566 H 51.1615 0.108564 -0.72896 0
M  V30 567 H 53.8035 -0.418634 -1.85331 0
M  V30 568 H 51.9535 1.26935 -3.67178 0
M  V30 569 H 53.6255 -1.22224 -4.44814 0
M  V30 570 H 51.8685 -1.21615 -4.16404 0
M  V30 571 H 52.5395 -0.293287 -5.5122 0
M  V30 572 H 55.0155 0.96013 -4.04871 0
M  V30 573 H 53.8915 1.69454 -5.22088 0
M  V30 574 H 54.1525 2.47011 -3.66658 0
M  V30 575 N 53.2116 1.57565 -0.0334293 0
M  V30 576 C 54.4516 1.93844 0.648379 0
M  V30 577 C 54.8156 0.910387 1.69044 0
M  V30 578 O 56.0166 1.15952 2.42505 0
M  V30 579 C 54.2876 3.35017 1.24492 0
M  V30 580 S 55.8466 3.93229 1.94721 0
M  V30 581 H 52.6646 0.678231 0.213364 0
M  V30 582 H 55.2666 1.95254 -0.0981253 0
M  V30 583 H 53.9706 4.07652 0.474128 0
M  V30 584 H 53.5016 3.37061 2.02864 0
M  V30 585 H 55.5166 3.77014 3.22606 0
M  V30 586 N 54.6897 -0.239769 1.55765 0
M  V30 587 C 55.5997 -1.31831 1.94056 0
M  V30 588 C 56.6157 -1.52275 0.841925 0
M  V30 589 O 57.7917 -1.65759 1.14394 0
M  V30 590 C 54.8567 -2.65156 2.23368 0
M  V30 591 C 53.9177 -2.53173 3.46701 0
M  V30 592 C 53.1507 -3.8014 3.74606 0
M  V30 593 O 53.3737 -4.82343 3.04469 0
M  V30 594 O 52.3077 -3.78344 4.68123 0
M  V30 595 H 56.1337 -1.02347 2.85935 0
M  V30 596 H 53.7187 -0.441123 1.42739 0
M  V30 597 H 55.6007 -3.43929 2.43497 0
M  V30 598 H 54.2757 -2.94358 1.34666 0
M  V30 599 H 53.1827 -1.72662 3.31871 0
M  V30 600 H 54.5157 -2.28915 4.35728 0
M  V30 601 N 56.1678 -1.49265 -0.50573 0
M  V30 602 C 57.4158 -1.582 -1.25766 0
M  V30 603 C 57.7368 -0.268482 -1.93143 0
M  V30 604 O 57.0068 0.711833 -1.8251 0
M  V30 605 H 55.5868 -0.582873 -0.467191 0
M  V30 606 H 58.2488 -1.85865 -0.586525 0
M  V30 607 H 57.3448 -2.37563 -2.02412 0
M  V30 608 N 57.6459 0.756429 -1.3826 0
M  V30 609 C 58.5759 1.88374 -1.37976 0
M  V30 610 C 59.5569 1.68311 -0.246082 0
M  V30 611 O 60.7419 1.88944 -0.44874 0
M  V30 612 C 57.8719 3.25864 -1.20125 0
M  V30 613 C 56.8259 3.60523 -2.30666 0
M  V30 614 C 56.1519 4.9672 -1.97923 0
M  V30 615 C 57.4519 3.65692 -3.72916 0
M  V30 616 H 59.1459 1.88869 -2.32312 0
M  V30 617 H 56.6919 0.907272 -1.11824 0
M  V30 618 H 58.6449 4.0438 -1.18552 0
M  V30 619 H 57.3689 3.25841 -0.222498 0
M  V30 620 H 56.0279 2.84324 -2.3142 0
M  V30 621 H 55.6759 4.93253 -0.985393 0
M  V30 622 H 55.3759 5.20878 -2.71955 0
M  V30 623 H 56.8999 5.77618 -1.97964 0
M  V30 624 H 58.3139 4.34328 -3.74208 0
M  V30 625 H 56.7109 4.01358 -4.4613 0
M  V30 626 H 57.7809 2.65987 -4.05436 0
M  V30 627 N 59.124 1.23083 0.984299 0
M  V30 628 C 60.349 1.088 1.76571 0
M  V30 629 C 60.774 -0.356657 1.84688 0
M  V30 630 O 60.132 -1.25788 1.30565 0
M  V30 631 C 60.18 1.71371 3.17277 0
M  V30 632 O 59.284 0.973213 4.00752 0
M  V30 633 H 58.625 0.381599 0.543395 0
M  V30 634 H 61.155 1.63057 1.23587 0
M  V30 635 H 61.165 1.76449 3.67872 0
M  V30 636 H 59.84 2.76493 3.10684 0
M  V30 637 H 58.417 0.999078 3.59267 0
M  V30 638 N 60.6021 -1.18246 1.0419 0
M  V30 639 C 61.8421 -1.89948 0.754916 0
M  V30 640 C 62.2061 -1.78608 -0.70451 0
M  V30 641 O 63.4071 -2.4503 -1.10516 0
M  V30 642 C 61.6781 -3.36305 1.20969 0
M  V30 643 S 63.2371 -4.26088 1.04854 0
M  V30 644 H 60.0551 -0.655897 0.274446 0
M  V30 645 H 62.6571 -1.42873 1.33445 0
M  V30 646 H 61.3611 -3.42089 2.26722 0
M  V30 647 H 60.8921 -3.8842 0.624004 0
M  V30 648 H 62.9071 -4.96189 -0.0332896 0
M  V30 649 N 62.0802 -0.821533 -1.34494 0
M  V30 650 C 63.3282 -0.408139 -1.97936 0
M  V30 651 C 63.6492 1.03193 -1.65457 0
M  V30 652 O 62.9192 1.71622 -0.944595 0
M  V30 653 H 61.4992 -0.147928 -0.732206 0
M  V30 654 H 64.1612 -1.05067 -1.64155 0
M  V30 655 H 63.2572 -0.52601 -3.07635 0
M  V30 656 N 63.5583 1.46682 -0.576371 0
M  V30 657 C 64.5063 2.31953 0.17335 0
M  V30 658 C 65.5003 1.44098 0.89062 0
M  V30 659 O 66.7063 1.60759 0.809728 0
M  V30 660 H 63.0813 0.748273 0.0747727 0
M  V30 661 H 65.0523 2.93007 -0.564738 0
M  V30 662 C 63.8013 3.27142 1.17786 0
M  V30 663 H 63.1243 3.94719 0.635361 0
M  V30 664 H 64.5643 3.896 1.67296 0
M  V30 665 C 63.0233 2.52036 2.23561 0
M  V30 666 O 63.5533 2.27877 3.3081 0
M  V30 667 N 61.7593 2.12709 1.97998 0
M  V30 668 H 61.3063 2.32557 1.10792 0
M  V30 669 H 61.2643 1.62776 2.68982 0
M  V30 670 N 65.0364 0.313813 1.54444 0
M  V30 671 C 65.9464 -0.565714 2.27677 0
M  V30 672 C 66.9624 -1.13754 1.31666 0
M  V30 673 O 68.1384 -1.15959 1.64668 0
M  V30 674 C 65.2034 -1.71528 3.01296 0
M  V30 675 C 64.2644 -1.17624 4.12872 0
M  V30 676 C 63.4974 -2.27102 4.8297 0
M  V30 677 O 63.7204 -3.47256 4.52514 0
M  V30 678 O 62.6544 -1.9307 5.70094 0
M  V30 679 H 66.4804 0.0287296 3.03686 0
M  V30 680 H 64.0654 0.0798312 1.49187 0
M  V30 681 H 65.9474 -2.38476 3.4743 0
M  V30 682 H 64.6224 -2.29608 2.2817 0
M  V30 683 H 63.5294 -0.472124 3.71109 0
M  V30 684 H 64.8624 -0.640695 4.88012 0
M  V30 685 N 66.5145 -1.57545 0.0417849 0
M  V30 686 C 67.7915 -1.83642 -0.673433 0
M  V30 687 C 68.1715 -0.928298 -1.89594 0
M  V30 688 O 67.5195 0.0129955 -2.28496 0
M  V30 689 C 67.7295 -3.33155 -1.03964 0
M  V30 690 C 69.0775 -3.99941 -1.42592 0
M  V30 691 O 70.1015 -3.37725 -1.13226 0
M  V30 692 O 68.9605 -5.09619 -1.9736 0
M  V30 693 H 66.0545 -0.757638 -0.331533 0
M  V30 694 H 68.6005 -1.69554 0.070433 0
M  V30 695 H 67.3725 -3.9093 -0.170098 0
M  V30 696 H 66.9955 -3.52396 -1.84126 0
M  V30 697 N 67.9926 0.231505 -1.5589 0
M  V30 698 C 68.9426 1.29007 -1.87993 0
M  V30 699 C 69.9266 1.42764 -0.742102 0
M  V30 700 O 71.1186 1.45747 -1.00433 0
M  V30 701 C 68.2476 2.6425 -2.1915 0
M  V30 702 C 67.3336 2.54435 -3.39299 0
M  V30 703 N 67.7246 2.14262 -4.58176 0
M  V30 704 C 66.0226 2.85416 -3.42715 0
M  V30 705 C 66.7236 2.15455 -5.40328 0
M  V30 706 N 65.6996 2.55558 -4.79783 0
M  V30 707 H 69.5016 0.970213 -2.77424 0
M  V30 708 H 67.0156 0.440097 -1.56323 0
M  V30 709 H 69.0126 3.40665 -2.40319 0
M  V30 710 H 67.6726 2.9709 -1.31025 0
M  V30 711 H 68.6836 1.85554 -4.83518 0
M  V30 712 H 65.3606 3.22693 -2.64906 0
M  V30 713 H 66.7506 1.86605 -6.45467 0
M  V30 714 N 69.4707 1.49531 0.497807 0
M  V30 715 C 70.7107 1.60799 1.26187 0
M  V30 716 C 71.0747 0.289627 1.89803 0
M  V30 717 O 72.2757 0.277512 2.67364 0
M  V30 718 C 70.5467 2.73729 2.29798 0
M  V30 719 S 72.1057 3.04968 3.155 0
M  V30 720 H 68.9237 0.567145 0.428798 0
M  V30 721 H 71.5257 1.87204 0.563477 0
M  V30 722 H 70.2297 3.68036 1.81597 0
M  V30 723 H 69.7607 2.49328 3.04301 0
M  V30 724 H 71.7757 2.46735 4.30507 0
M  V30 725 N 70.9488 -0.749086 1.3866 0
M  V30 726 C 71.8588 -1.89358 1.38494 0
M  V30 727 C 72.8748 -1.71708 0.281476 0
M  V30 728 O 74.0508 -1.94554 0.520643 0
M  V30 729 C 71.1158 -3.24782 1.21316 0
M  V30 730 C 70.1768 -3.54926 2.41508 0
M  V30 731 C 69.4098 -4.83888 2.2514 0
M  V30 732 O 69.6328 -5.56592 1.24746 0
M  V30 733 O 68.5668 -5.13612 3.13826 0
M  V30 734 H 72.3928 -1.92452 2.34938 0
M  V30 735 H 69.9778 -0.894981 1.19626 0
M  V30 736 H 71.8598 -4.05739 1.13814 0
M  V30 737 H 70.5348 -3.2249 0.279592 0
M  V30 738 H 69.4418 -2.74112 2.54585 0
M  V30 739 H 70.7748 -3.61983 3.3351 0
M  V30 740 N 72.4269 -1.23603 -0.977757 0
M  V30 741 C 73.6749 -1.06759 -1.71601 0
M  V30 742 C 73.9959 0.395929 -1.90938 0
M  V30 743 O 73.2659 1.28356 -1.47992 0
M  V30 744 H 71.8459 -0.392062 -0.635843 0
M  V30 745 H 74.5079 -1.55362 -1.1768 0
M  V30 746 H 73.6039 -1.55763 -2.70452 0
M  V30 747 N 73.905 1.17692 -1.04816 0
M  V30 748 C 74.837 2.21103 -0.603822 0
M  V30 749 C 75.85 1.59411 0.33046 0
M  V30 750 O 77.039 1.7807 0.12379 0
M  V30 751 C 74.139 3.38623 0.136898 0
M  V30 752 C 73.312 4.29888 -0.807137 0
M  V30 753 C 72.371 5.26088 -0.10836 0
M  V30 754 O 71.397 5.64353 -0.741232 0
M  V30 755 N 72.599 5.68882 1.15558 0
M  V30 756 H 75.364 2.59848 -1.49329 0
M  V30 757 H 72.925 1.32553 -0.929587 0
M  V30 758 H 74.917 4.00009 0.614401 0
M  V30 759 H 73.487 2.98508 0.927993 0
M  V30 760 H 72.707 3.65993 -1.46434 0
M  V30 761 H 73.995 4.87759 -1.44807 0
M  V30 762 H 73.393 5.39861 1.69015 0
M  V30 763 H 71.95 6.32429 1.57722 0
M  V30 764 N 75.3831 0.828654 1.34056 0
M  V30 765 C 76.3151 0.212052 2.28217 0
M  V30 766 C 77.3281 -0.601362 1.51286 0
M  V30 767 O 78.5171 -0.430104 1.73241 0
M  V30 768 C 75.6171 -0.72088 3.31144 0
M  V30 769 C 74.7901 0.0509587 4.3737 0
M  V30 770 C 73.8491 -0.803766 5.20025 0
M  V30 771 O 72.8751 -0.246667 5.68665 0
M  V30 772 N 74.0771 -2.1227 5.40298 0
M  V30 773 H 76.8421 1.02105 2.81771 0
M  V30 774 H 74.4031 0.686153 1.46641 0
M  V30 775 H 76.3951 -1.29742 3.8334 0
M  V30 776 H 74.9651 -1.43061 2.77943 0
M  V30 777 H 74.1851 0.808831 3.85813 0
M  V30 778 H 75.4731 0.582065 5.0546 0
M  V30 779 H 74.8711 -2.59898 5.02464 0
M  V30 780 H 73.4281 -2.64796 5.95589 0
M  V30 781 N 76.8612 -1.46375 0.584142 0
M  V30 782 C 78.1012 -2.0427 0.0729695 0
M  V30 783 C 78.4652 -1.44563 -1.26355 0
M  V30 784 O 79.6662 -1.93667 -1.86405 0
M  V30 785 C 77.9372 -3.57399 0.00967464 0
M  V30 786 S 79.4962 -4.36551 -0.443714 0
M  V30 787 H 76.3142 -0.709975 0.0381673 0
M  V30 788 H 78.9162 -1.79398 0.776962 0
M  V30 789 H 77.6202 -3.98372 0.986319 0
M  V30 790 H 77.1512 -3.8681 -0.717044 0
M  V30 791 H 79.1662 -4.66237 -1.69816 0
M  V30 792 N 78.3393 -0.321999 -1.54275 0
M  V30 793 C 79.5863 0.281044 -2.0054 0
M  V30 794 C 79.9143 1.52265 -1.21019 0
M  V30 795 O 79.1693 1.93687 -0.279982 0
M  V30 796 C 79.4683 0.661769 -3.5122 0
M  V30 797 C 79.1343 -0.480482 -4.48333 0
M  V30 798 C 77.7963 -0.794005 -4.74604 0
M  V30 799 C 80.1483 -1.24783 -5.06042 0
M  V30 800 C 77.4763 -1.87763 -5.55844 0
M  V30 801 C 79.8283 -2.32153 -5.88462 0
M  V30 802 C 78.4923 -2.64089 -6.13036 0
M  V30 803 H 77.7623 0.102841 -0.733829 0
M  V30 804 H 80.4093 -0.445453 -1.86247 0
M  V30 805 H 78.7143 1.46867 -3.63232 0
M  V30 806 H 80.4113 1.13989 -3.84457 0
M  V30 807 H 77.0013 -0.226039 -4.28004 0
M  V30 808 H 81.1853 -1.01887 -4.85729 0
M  V30 809 H 76.4413 -2.12954 -5.73115 0
M  V30 810 H 80.6153 -2.92057 -6.32199 0
M  V30 811 H 78.2423 -3.48185 -6.75775 0
M  V30 812 N 79.8174 1.5752 -0.0501392 0
M  V30 813 C 81.0424 1.97376 0.636997 0
M  V30 814 C 81.4674 0.927466 1.63645 0
M  V30 815 O 80.8254 -0.10941 1.8097 0
M  V30 816 C 80.8734 3.36304 1.30123 0
M  V30 817 O 79.9774 3.34156 2.41689 0
M  V30 818 H 79.3184 0.642998 0.165679 0
M  V30 819 H 81.8484 2.04258 -0.118233 0
M  V30 820 H 81.8584 3.73008 1.65315 0
M  V30 821 H 80.5334 4.11993 0.568746 0
M  V30 822 H 79.1104 3.09196 2.08451 0
M  V30 823 N 81.2955 -0.223234 1.56011 0
M  V30 824 C 82.5205 -0.968978 1.83373 0
M  V30 825 C 82.9455 -1.77227 0.630254 0
M  V30 826 O 82.3035 -1.76345 -0.420959 0
M  V30 827 C 82.3515 -1.86363 3.08709 0
M  V30 828 O 81.4555 -2.95873 2.87285 0
M  V30 829 H 80.7965 -0.274461 0.604622 0
M  V30 830 H 83.3265 -0.237056 2.03222 0
M  V30 831 H 83.3365 -2.27376 3.38768 0
M  V30 832 H 82.0115 -1.27319 3.95933 0
M  V30 833 H 80.5885 -2.58818 2.68454 0
M  V30 834 N 82.7736 -1.49793 -0.48987 0
M  V30 835 C 83.7036 -1.70201 -1.59856 0
M  V30 836 C 84.6846 -0.55076 -1.60937 0
M  V30 837 O 85.8696 -0.787841 -1.77501 0
M  V30 838 C 82.9996 -1.77882 -2.98287 0
M  V30 839 C 81.9536 -2.92907 -3.12073 0
M  V30 840 C 81.2796 -2.85712 -4.51965 0
M  V30 841 C 82.5796 -4.3369 -2.91051 0
M  V30 842 H 84.2736 -2.63025 -1.43032 0
M  V30 843 H 81.8196 -1.26574 -0.686664 0
M  V30 844 H 83.7726 -1.90744 -3.75759 0
M  V30 845 H 82.4966 -0.816653 -3.16225 0
M  V30 846 H 81.1556 -2.79665 -2.37029 0
M  V30 847 H 80.8036 -1.8738 -4.66795 0
M  V30 848 H 80.5036 -3.62921 -4.62128 0
M  V30 849 H 82.0276 -3.00598 -5.31482 0
M  V30 850 H 83.4416 -4.47555 -3.58284 0
M  V30 851 H 81.8386 -5.12205 -3.12675 0
M  V30 852 H 82.9086 -4.47362 -1.87071 0
M  V30 853 N 84.2517 0.741722 -1.39055 0
M  V30 854 C 85.4767 1.53607 -1.39354 0
M  V30 855 C 85.9017 1.88096 0.0116905 0
M  V30 856 O 85.2597 1.5143 0.996924 0
M  V30 857 C 85.3077 2.80441 -2.26682 0
M  V30 858 O 84.4117 3.76088 -1.69208 0
M  V30 859 H 83.7527 0.464142 -0.474835 0
M  V30 860 H 86.2827 0.915665 -1.82967 0
M  V30 861 H 86.2927 3.29246 -2.40959 0
M  V30 862 H 84.9677 2.5467 -3.2881 0
M  V30 863 H 83.5447 3.34833 -1.64138 0
M  V30 864 N 85.7298 1.2412 0.971189 0
M  V30 865 C 86.9788 1.07284 1.70801 0
M  V30 866 C 87.2918 -0.388902 1.91695 0
M  V30 867 O 88.4978 -0.677379 2.62914 0
M  V30 868 C 86.9538 1.87145 3.07416 0
M  V30 869 C 86.5618 3.37707 2.94377 0
M  V30 870 C 88.3058 1.78828 3.84995 0
M  V30 871 C 86.2128 4.09925 4.26281 0
M  V30 872 H 85.1428 0.397854 0.64049 0
M  V30 873 H 87.7938 1.4817 1.0825 0
M  V30 874 H 86.1758 1.39071 3.70777 0
M  V30 875 H 87.3498 3.93335 2.4005 0
M  V30 876 H 85.6648 3.46938 2.30267 0
M  V30 877 H 88.2618 2.30089 4.82662 0
M  V30 878 H 88.6048 0.75284 4.09436 0
M  V30 879 H 89.1378 2.24563 3.28354 0
M  V30 880 H 85.8768 5.13813 4.07033 0
M  V30 881 H 85.3968 3.59083 4.80437 0
M  V30 882 H 87.0758 4.1673 4.94919 0
M  V30 883 N 87.2079 -1.17134 1.05439 0
M  V30 884 C 88.1559 -2.23289 0.651511 0
M  V30 885 C 89.1499 -1.66186 -0.328411 0
M  V30 886 O 90.3559 -1.78949 -0.194206 0
M  V30 887 H 86.7309 -0.726938 0.192523 0
M  V30 888 H 88.7019 -2.54565 1.55689 0
M  V30 889 C 87.4509 -3.47671 0.0448436 0
M  V30 890 H 86.7739 -3.91918 0.78996 0
M  V30 891 H 88.2139 -4.2353 -0.19964 0
M  V30 892 C 86.6729 -3.14453 -1.20918 0
M  V30 893 O 87.2029 -3.29459 -2.29825 0
M  V30 894 N 85.4089 -2.68657 -1.10779 0
M  V30 895 H 84.9559 -2.56646 -0.221526 0
M  V30 896 H 84.9139 -2.46804 -1.9477 0
M  V30 897 N 88.686 -0.835752 -1.33615 0
M  V30 898 C 89.963 -0.352017 -1.92406 0
M  V30 899 C 90.343 1.16225 -1.76224 0
M  V30 900 O 89.691 1.97526 -1.14873 0
M  V30 901 C 89.901 -0.795485 -3.39813 0
M  V30 902 C 91.249 -0.801703 -4.16963 0
M  V30 903 O 92.273 -0.738889 -3.48452 0
M  V30 904 O 91.132 -0.886607 -5.3926 0
M  V30 905 H 88.226 -0.0989641 -0.821057 0
M  V30 906 H 90.772 -0.921397 -1.42507 0
M  V30 907 H 89.544 -1.83795 -3.45449 0
M  V30 908 H 89.167 -0.202505 -3.97084 0
M  V30 909 N 90.1641 1.46063 -0.591896 0
M  V30 910 C 91.4121 2.01938 -0.0808391 0
M  V30 911 C 91.7331 1.46475 1.28725 0
M  V30 912 O 91.0031 0.652944 1.84698 0
M  V30 913 H 89.5831 0.746516 -0.0268938 0
M  V30 914 H 92.2451 1.79055 -0.769752 0
M  V30 915 H 91.3411 3.12094 -0.0187578 0
M  V30 916 N 91.6422 0.330177 1.54103 0
M  V30 917 C 92.8892 -0.270405 2.00686 0
M  V30 918 C 93.2172 -1.51621 1.21825 0
M  V30 919 O 92.4722 -1.93536 0.29025 0
M  V30 920 C 92.7712 -0.643134 3.51566 0
M  V30 921 C 92.4372 0.504251 4.48072 0
M  V30 922 C 91.0992 0.819163 4.74176 0
M  V30 923 C 93.4512 1.27465 5.05373 0
M  V30 924 C 90.7792 1.90708 5.5484 0
M  V30 925 C 93.1312 2.35271 5.87223 0
M  V30 926 C 91.7952 2.67336 6.11627 0
M  V30 927 H 91.0652 -0.0989482 0.734364 0
M  V30 928 H 93.7122 0.455324 1.86008 0
M  V30 929 H 92.0172 -1.44938 3.64006 0
M  V30 930 H 93.7142 -1.11949 3.85056 0
M  V30 931 H 90.3042 0.248733 4.27878 0
M  V30 932 H 94.4882 1.04462 4.85182 0
M  V30 933 H 89.7442 2.15991 5.71977 0
M  V30 934 H 93.9182 2.95405 6.30641 0
M  V30 935 H 91.5452 3.51763 6.73919 0
M  V30 936 N 93.1203 -1.57491 0.0584922 0
M  V30 937 C 94.0703 -2.08474 -0.923188 0
M  V30 938 C 95.0543 -0.991479 -1.26722 0
M  V30 939 O 96.2463 -1.25473 -1.24842 0
M  V30 940 C 93.3753 -2.6392 -2.19548 0
M  V30 941 C 92.4613 -3.80227 -1.87852 0
M  V30 942 N 92.8523 -4.89714 -1.26546 0
M  V30 943 C 91.1503 -3.89271 -2.17679 0
M  V30 944 C 91.8513 -5.70689 -1.12644 0
M  V30 945 N 90.8273 -5.18531 -1.63176 0
M  V30 946 H 94.6293 -2.90517 -0.444653 0
M  V30 947 H 92.1433 -1.61745 -0.145764 0
M  V30 948 H 94.1403 -2.98752 -2.9078 0
M  V30 949 H 92.8003 -1.83318 -2.68001 0
M  V30 950 H 93.8113 -5.09358 -0.936757 0
M  V30 951 H 90.4883 -3.19623 -2.68602 0
M  V30 952 H 91.8783 -6.6875 -0.6499 0
M  V30 953 N 94.5984 0.214957 -1.56127 0
M  V30 954 C 95.8444 0.939762 -1.79712 0
M  V30 955 C 96.1774 1.83723 -0.629247 0
M  V30 956 O 95.4524 1.90925 0.371197 0
M  V30 957 C 95.7354 1.77306 -3.13424 0
M  V30 958 C 95.5884 0.90164 -4.40671 0
M  V30 959 C 96.9074 2.74956 -3.43638 0
M  V30 960 H 94.0264 0.340214 -0.653776 0
M  V30 961 H 96.6684 0.20824 -1.88855 0
M  V30 962 H 94.8184 2.39673 -3.0576 0
M  V30 963 H 96.4904 0.294206 -4.60361 0
M  V30 964 H 94.7334 0.207368 -4.33304 0
M  V30 965 H 95.4044 1.51923 -5.30682 0
M  V30 966 H 97.8804 2.22724 -3.51473 0
M  V30 967 H 96.7564 3.30358 -4.38355 0
M  V30 968 H 97.0174 3.53023 -2.66134 0
M  V30 969 N 96.0765 1.50051 0.48192 0
M  V30 970 C 97.3065 1.63999 1.2565 0
M  V30 971 C 97.7145 0.318288 1.86504 0
M  V30 972 O 97.0575 -0.708534 1.69486 0
M  V30 973 C 97.1195 2.66504 2.4128 0
M  V30 974 C 96.7835 4.10352 2.01148 0
M  V30 975 C 97.7805 4.96562 1.54021 0
M  V30 976 C 95.4655 4.56203 2.10199 0
M  V30 977 C 97.4595 6.26668 1.16473 0
M  V30 978 C 95.1465 5.86318 1.72264 0
M  V30 979 C 96.1445 6.71375 1.25477 0
M  V30 980 O 95.8325 7.99062 0.880626 0
M  V30 981 H 95.5645 0.55456 0.386574 0
M  V30 982 H 98.1185 1.96954 0.582944 0
M  V30 983 H 96.3485 2.28769 3.11772 0
M  V30 984 H 98.0375 2.69783 3.03268 0
M  V30 985 H 98.8035 4.62358 1.46458 0
M  V30 986 H 94.6825 3.90152 2.45566 0
M  V30 987 H 98.2265 6.93011 0.798841 0
M  V30 988 H 94.1235 6.20046 1.79482 0
M  V30 989 H 94.8915 8.12239 1.01043 0
M  V30 990 N 97.5546 -0.734337 1.39446 0
M  V30 991 C 98.4866 -1.85861 1.34121 0
M  V30 992 C 99.4996 -1.60871 0.249864 0
M  V30 993 O 100.689 -1.71093 0.508865 0
M  V30 994 C 97.7886 -3.21899 1.05991 0
M  V30 995 C 96.9616 -3.74239 2.26415 0
M  V30 996 C 96.0206 -4.88841 1.94733 0
M  V30 997 O 95.0466 -5.02468 2.67422 0
M  V30 998 N 96.2486 -5.73261 0.913884 0
M  V30 999 H 99.0136 -1.90934 2.31007 0
M  V30 1000 H 96.5746 -0.915102 1.33557 0
M  V30 1001 H 98.5666 -3.96136 0.828147 0
M  V30 1002 H 97.1366 -3.12091 0.178361 0
M  V30 1003 H 96.3566 -2.91347 2.65539 0
M  V30 1004 H 97.6446 -4.05942 3.06738 0
M  V30 1005 H 97.0426 -5.64842 0.311476 0
M  V30 1006 H 95.5996 -6.47563 0.742015 0
M  V30 1007 N 99.0327 -1.24633 -0.964593 0
M  V30 1008 C 99.9797 -1.04144 -2.05968 0
M  V30 1009 C 100.95 0.046262 -1.66036 0
M  V30 1010 O 102.135 -0.108972 -1.90489 0
M  V30 1011 C 99.2747 -0.65563 -3.38815 0
M  V30 1012 C 98.3877 -1.81714 -3.91923 0
M  V30 1013 C 97.5227 -1.37662 -5.13052 0
M  V30 1014 C 96.5617 -2.50788 -5.58365 0
M  V30 1015 N 95.6987 -2.07582 -6.70712 0
M  V30 1016 H 100.539 -1.9787 -2.22827 0
M  V30 1017 H 98.0757 -0.9855 -1.09208 0
M  V30 1018 H 100.034 -0.412954 -4.15151 0
M  V30 1019 H 98.6637 0.244627 -3.21872 0
M  V30 1020 H 97.7157 -2.1734 -3.12198 0
M  V30 1021 H 99.0277 -2.66705 -4.21509 0
M  V30 1022 H 98.1817 -1.093 -5.96773 0
M  V30 1023 H 96.9207 -0.497293 -4.85158 0
M  V30 1024 H 95.9257 -2.79906 -4.73215 0
M  V30 1025 H 97.1507 -3.39283 -5.88272 0
M  V30 1026 H 95.0967 -1.22051 -6.44546 0
M  V30 1027 H 95.0137 -2.86125 -6.99763 0
M  V30 1028 H 96.2817 -1.82369 -7.57867 0
M  V30 1029 N 100.511 1.16574 -1.06058 0
M  V30 1030 C 101.759 1.86677 -0.77434 0
M  V30 1031 C 102.08 1.81959 0.701147 0
M  V30 1032 O 101.35 1.2515 1.50713 0
M  V30 1033 H 99.9298 0.691134 -0.283449 0
M  V30 1034 H 102.592 1.41378 -1.34158 0
M  V30 1035 H 101.688 2.92181 -1.09711 0
M  V30 1036 N 101.989 0.842826 1.3317 0
M  V30 1037 C 103.229 0.446574 1.99462 0
M  V30 1038 C 103.593 -0.976818 1.65295 0
M  V30 1039 O 104.794 -1.477 2.24584 0
M  V30 1040 C 103.065 0.665353 3.51152 0
M  V30 1041 S 104.624 0.364911 4.3728 0
M  V30 1042 H 101.442 0.167803 0.690915 0
M  V30 1043 H 104.044 1.09297 1.62094 0
M  V30 1044 H 102.748 1.7006 3.73507 0
M  V30 1045 H 102.279 0.00494568 3.934 0
M  V30 1046 H 104.294 -0.813761 4.89482 0
M  V30 1047 N 103.467 -1.45747 0.599634 0
M  V30 1048 C 104.714 -2.02292 0.0917284 0
M  V30 1049 C 105.042 -1.46906 -1.27472 0
M  V30 1050 O 104.297 -0.630652 -1.8526 0
M  V30 1051 C 104.596 -3.57399 -0.00602758 0
M  V30 1052 C 104.262 -4.31902 1.29503 0
M  V30 1053 C 102.924 -4.51974 1.65144 0
M  V30 1054 C 105.276 -4.74551 2.15525 0
M  V30 1055 C 102.604 -5.11949 2.86574 0
M  V30 1056 C 104.956 -5.35868 3.36196 0
M  V30 1057 C 103.62 -5.54165 3.72099 0
M  V30 1058 H 102.89 -0.740239 0.0335658 0
M  V30 1059 H 105.537 -1.7491 0.779661 0
M  V30 1060 H 103.842 -3.84014 -0.777183 0
M  V30 1061 H 105.539 -3.98846 -0.415038 0
M  V30 1062 H 102.129 -4.16588 1.00761 0
M  V30 1063 H 106.313 -4.58784 1.8929 0
M  V30 1064 H 101.569 -5.24305 3.14507 0
M  V30 1065 H 105.743 -5.6787 4.03109 0
M  V30 1066 H 103.37 -6.00406 4.6628 0
M  V30 1067 N 104.945 -0.338344 -1.53925 0
M  V30 1068 C 105.877 0.555117 -2.22376 0
M  V30 1069 C 106.89 1.06812 -1.22862 0
M  V30 1070 O 108.079 0.979163 -1.49247 0
M  V30 1071 C 105.179 1.77609 -2.88631 0
M  V30 1072 C 104.352 1.39927 -4.14414 0
M  V30 1073 C 103.411 2.47936 -4.64127 0
M  V30 1074 O 102.437 2.11461 -5.28463 0
M  V30 1075 N 103.639 3.79107 -4.39612 0
M  V30 1076 H 106.404 -0.0310778 -2.99684 0
M  V30 1077 H 103.965 -0.162226 -1.61085 0
M  V30 1078 H 105.957 2.49287 -3.18807 0
M  V30 1079 H 104.527 2.26978 -2.14941 0
M  V30 1080 H 103.747 0.513481 -3.90841 0
M  V30 1081 H 105.035 1.12341 -4.96243 0
M  V30 1082 H 104.433 4.11531 -3.88148 0
M  V30 1083 H 102.99 4.4697 -4.74406 0
M  V30 1084 N 106.423 1.57458 -0.0668435 0
M  V30 1085 C 107.669 1.93587 0.6043 0
M  V30 1086 C 108.002 0.946722 1.69561 0
M  V30 1087 O 107.277 -0.0248516 1.94484 0
M  V30 1088 C 107.56 3.40014 1.18585 0
M  V30 1089 C 107.413 4.49685 0.101529 0
M  V30 1090 C 108.732 3.87154 2.09284 0
M  V30 1091 H 105.851 0.703958 0.218202 0
M  V30 1092 H 108.493 1.89542 -0.131804 0
M  V30 1093 H 106.643 3.43592 1.81319 0
M  V30 1094 H 108.315 4.5823 -0.531279 0
M  V30 1095 H 106.558 4.30059 -0.568487 0
M  V30 1096 H 107.229 5.49266 0.54874 0
M  V30 1097 H 109.705 3.85551 1.56491 0
M  V30 1098 H 108.581 4.90231 2.46911 0
M  V30 1099 H 108.842 3.2481 2.99918 0
M  V30 1100 N 107.901 -0.206675 1.56239 0
M  V30 1101 C 109.131 -0.943975 1.83773 0
M  V30 1102 C 109.539 -1.77841 0.645703 0
M  V30 1103 O 108.882 -1.79403 -0.395008 0
M  V30 1104 C 108.944 -1.899 3.05251 0
M  V30 1105 C 108.608 -1.24764 4.39639 0
M  V30 1106 C 109.605 -0.630216 5.16066 0
M  V30 1107 C 107.29 -1.25496 4.8637 0
M  V30 1108 C 109.284 -0.0287946 6.37393 0
M  V30 1109 C 106.971 -0.649698 6.07637 0
M  V30 1110 C 107.969 -0.0376845 6.8299 0
M  V30 1111 O 107.657 0.55812 8.0196 0
M  V30 1112 H 107.389 -0.281508 0.614597 0
M  V30 1113 H 109.943 -0.222458 2.04192 0
M  V30 1114 H 108.173 -2.6599 2.80689 0
M  V30 1115 H 109.862 -2.5031 3.1953 0
M  V30 1116 H 110.628 -0.616785 4.81062 0
M  V30 1117 H 106.507 -1.72072 4.27683 0
M  V30 1118 H 110.051 0.449518 6.9615 0
M  V30 1119 H 105.948 -0.660592 6.42111 0
M  V30 1120 H 106.716 0.453891 8.17241 0
M  V30 1121 N 109.379 -1.50304 -0.473955 0
M  V30 1122 C 110.289 -1.7174 -1.5982 0
M  V30 1123 C 111.305 -0.600457 -1.63311 0
M  V30 1124 O 112.481 -0.878441 -1.81233 0
M  V30 1125 C 109.546 -1.80427 -2.96052 0
M  V30 1126 C 108.607 -3.04148 -3.02972 0
M  V30 1127 C 107.84 -3.12411 -4.32706 0
M  V30 1128 O 108.063 -2.27542 -5.23049 0
M  V30 1129 O 106.997 -4.05113 -4.45159 0
M  V30 1130 H 110.823 -2.67035 -1.44657 0
M  V30 1131 H 108.408 -1.34366 -0.653148 0
M  V30 1132 H 110.29 -1.88338 -3.7697 0
M  V30 1133 H 108.965 -0.883156 -3.11419 0
M  V30 1134 H 107.872 -3.0174 -2.21142 0
M  V30 1135 H 109.205 -3.95829 -2.92541 0
M  V30 1136 N 110.857 0.726932 -1.39834 0
M  V30 1137 C 111.789 1.85147 -1.35104 0
M  V30 1138 C 112.802 1.60736 -0.258392 0
M  V30 1139 O 113.991 1.70821 -0.517931 0
M  V30 1140 C 111.091 3.21332 -1.07697 0
M  V30 1141 C 110.264 3.73033 -2.28396 0
M  V30 1142 C 109.323 4.87802 -1.97322 0
M  V30 1143 O 108.349 5.01043 -2.70083 0
M  V30 1144 N 109.551 5.72768 -0.944273 0
M  V30 1145 H 112.316 1.89706 -2.32017 0
M  V30 1146 H 109.877 0.908006 -1.3404 0
M  V30 1147 H 111.869 3.95691 -0.849144 0
M  V30 1148 H 110.439 3.11992 -0.194909 0
M  V30 1149 H 109.659 2.89934 -2.6708 0
M  V30 1150 H 110.947 4.0431 -3.08887 0
M  V30 1151 H 110.345 5.64669 -0.341427 0
M  V30 1152 H 108.902 6.4716 -0.776346 0
M  V30 1153 N 112.336 1.25143 0.95797 0
M  V30 1154 C 113.584 1.09476 1.69881 0
M  V30 1155 C 113.905 -0.365502 1.91544 0
M  V30 1156 O 113.175 -1.25985 1.50015 0
M  V30 1157 H 111.755 0.402128 0.629525 0
M  V30 1158 H 114.417 1.57214 1.15194 0
M  V30 1159 H 113.513 1.60046 2.6794 0
M  V30 1160 N 113.814 -1.1601 1.06675 0
M  V30 1161 C 114.761 -2.20525 0.680967 0
M  V30 1162 C 115.731 -1.62904 -0.324283 0
M  V30 1163 O 116.916 -1.89615 -0.212294 0
M  V30 1164 C 114.056 -3.45013 0.0776551 0
M  V30 1165 C 113.169 -4.16863 1.13355 0
M  V30 1166 C 112.304 -5.2888 0.49597 0
M  V30 1167 C 111.343 -5.92537 1.53513 0
M  V30 1168 N 110.48 -6.96038 0.920631 0
M  V30 1169 H 115.32 -2.52876 1.57663 0
M  V30 1170 H 112.857 -1.24199 0.788223 0
M  V30 1171 H 114.815 -4.16193 -0.289704 0
M  V30 1172 H 113.445 -3.132 -0.781393 0
M  V30 1173 H 112.497 -3.44248 1.61857 0
M  V30 1174 H 113.809 -4.60294 1.92174 0
M  V30 1175 H 112.963 -6.06653 0.0758604 0
M  V30 1176 H 111.702 -4.86622 -0.324062 0
M  V30 1177 H 110.707 -5.13482 1.9651 0
M  V30 1178 H 111.932 -6.36873 2.35733 0
M  V30 1179 H 109.878 -6.55888 0.12138 0
M  V30 1180 H 109.795 -7.3786 1.64616 0
M  V30 1181 H 111.063 -7.77725 0.525795 0
M  V30 1182 N 115.292 -0.849877 -1.32721 0
M  V30 1183 C 116.225 -0.235903 -2.26977 0
M  V30 1184 C 117.203 0.623355 -1.50177 0
M  V30 1185 O 118.387 0.581207 -1.79316 0
M  V30 1186 C 115.514 0.667712 -3.32053 0
M  V30 1187 C 114.56 -0.11753 -4.26338 0
M  V30 1188 S 115.393 -1.48277 -5.14562 0
M  V30 1189 C 116.549 -0.584741 -6.23163 0
M  V30 1190 H 116.782 -1.03495 -2.78704 0
M  V30 1191 H 114.315 -0.64724 -1.40179 0
M  V30 1192 H 116.273 1.18343 -3.93072 0
M  V30 1193 H 114.934 1.44052 -2.7912 0
M  V30 1194 H 114.127 0.57051 -5.00761 0
M  V30 1195 H 113.729 -0.564668 -3.69713 0
M  V30 1196 H 116.021 0.212968 -6.77165 0
M  V30 1197 H 116.964 -1.29947 -6.96074 0
M  V30 1198 H 117.372 -0.161202 -5.6427 0
M  V30 1199 N 116.77 1.45427 -0.607355 0
M  V30 1200 C 117.998 2.06614 -0.108814 0
M  V30 1201 C 118.413 1.45204 1.2067 0
M  V30 1202 O 117.77 0.566132 1.73497 0
M  V30 1203 C 117.821 3.61481 0.0375347 0
M  V30 1204 O 117.542 4.20598 -1.22593 0
M  V30 1205 C 119.043 4.39652 0.567561 0
M  V30 1206 H 116.263 0.66747 -0.0687351 0
M  V30 1207 H 118.807 1.86675 -0.835022 0
M  V30 1208 H 116.962 3.80762 0.714068 0
M  V30 1209 H 117.376 5.1377 -1.05547 0
M  V30 1210 H 118.85 5.48518 0.61905 0
M  V30 1211 H 119.327 4.09417 1.58978 0
M  V30 1212 H 119.933 4.25234 -0.0749202 0
M  V30 1213 N 118.248 0.346503 1.53744 0
M  V30 1214 C 119.488 -0.249413 2.02873 0
M  V30 1215 C 119.852 -1.47532 1.22876 0
M  V30 1216 O 121.053 -2.1456 1.61918 0
M  V30 1217 C 119.324 -0.552909 3.53097 0
M  V30 1218 S 120.883 -1.12521 4.24128 0
M  V30 1219 H 117.701 -0.074042 0.707134 0
M  V30 1220 H 120.303 0.48495 1.8939 0
M  V30 1221 H 119.007 0.347083 4.0893 0
M  V30 1222 H 118.538 -1.31686 3.70705 0
M  V30 1223 H 120.553 -2.41075 4.33702 0
M  V30 1224 N 119.726 -1.57421 0.075193 0
M  V30 1225 C 120.673 -2.12915 -0.890843 0
M  V30 1226 C 121.643 -1.04252 -1.29309 0
M  V30 1227 O 122.828 -1.31933 -1.37834 0
M  V30 1228 C 119.968 -2.69795 -2.15186 0
M  V30 1229 C 119.081 -3.92624 -1.80194 0
M  V30 1230 C 118.216 -4.37736 -3.00933 0
M  V30 1231 C 117.255 -5.53205 -2.61974 0
M  V30 1232 N 116.392 -5.9326 -3.75483 0
M  V30 1233 H 121.232 -2.95156 -0.410735 0
M  V30 1234 H 118.769 -1.45854 -0.191086 0
M  V30 1235 H 120.727 -3.00883 -2.89008 0
M  V30 1236 H 119.357 -1.90313 -2.60731 0
M  V30 1237 H 118.409 -3.67977 -0.964218 0
M  V30 1238 H 119.721 -4.76482 -1.47534 0
M  V30 1239 H 118.875 -4.70503 -3.8303 0
M  V30 1240 H 117.614 -3.52739 -3.36789 0
M  V30 1241 H 116.619 -5.20086 -1.783 0
M  V30 1242 H 117.844 -6.39936 -2.27284 0
M  V30 1243 H 115.79 -5.11212 -4.11094 0
M  V30 1244 H 115.707 -6.71865 -3.46602 0
M  V30 1245 H 116.975 -6.30651 -4.58148 0
M  V30 1246 N 121.204 0.198386 -1.56346 0
M  V30 1247 C 122.432 0.935572 -1.84539 0
M  V30 1248 C 122.847 1.76989 -0.657281 0
M  V30 1249 O 122.204 1.78626 0.374043 0
M  V30 1250 C 122.255 1.8344 -3.11499 0
M  V30 1251 O 121.976 1.03377 -4.25728 0
M  V30 1252 C 123.477 2.68355 -3.52846 0
M  V30 1253 H 120.697 0.273126 -0.612897 0
M  V30 1254 H 123.241 0.20663 -2.03453 0
M  V30 1255 H 121.396 2.51701 -2.94492 0
M  V30 1256 H 121.81 1.64599 -4.98003 0
M  V30 1257 H 123.284 3.27085 -4.44657 0
M  V30 1258 H 123.761 3.41901 -2.75681 0
M  V30 1259 H 124.367 2.05471 -3.72373 0
M  V30 1260 N 122.682 1.50554 0.465978 0
M  V30 1261 C 124.093 1.54599 1.04671 0
M  V30 1262 C 124.444 0.352488 1.93008 0
M  V30 1263 O 123.569 -0.534044 2.09707 0
M  V30 1264 C 124.164 2.80166 1.90505 0
M  V30 1265 C 122.723 2.86876 2.43678 0
M  V30 1266 C 121.87 2.48947 1.22151 0
M  V30 1267 H 124.821 1.56744 0.248384 0
M  V30 1268 H 124.842 2.62311 2.75633 0
M  V30 1269 H 124.354 3.67013 1.26186 0
M  V30 1270 H 122.455 2.04393 3.11536 0
M  V30 1271 H 122.568 3.89885 2.78436 0
M  V30 1272 H 120.932 2.01498 1.5579 0
M  V30 1273 H 121.715 3.38107 0.594866 0
M  V30 1274 N 124.16 -0.719506 1.40217 0
M  V30 1275 C 125.571 -1.29848 1.34151 0
M  V30 1276 C 125.922 -1.96196 0.0131349 0
M  V30 1277 O 125.047 -1.973 -0.88892 0
M  V30 1278 C 125.642 -2.36118 2.42968 0
M  V30 1279 C 124.201 -2.8965 2.40374 0
M  V30 1280 C 123.348 -1.63393 2.24049 0
M  V30 1281 H 126.299 -0.51591 1.5008 0
M  V30 1282 H 126.32 -3.16871 2.10649 0
M  V30 1283 H 125.832 -1.878 3.39636 0
M  V30 1284 H 123.933 -3.42208 1.47392 0
M  V30 1285 H 124.046 -3.4171 3.35814 0
M  V30 1286 H 122.41 -1.88312 1.71495 0
M  V30 1287 H 123.193 -1.17104 3.2271 0
M  V30 1288 N 125.638 -1.25649 -0.95132 0
M  V30 1289 C 126.863 -1.13443 -1.73624 0
M  V30 1290 C 127.288 0.307565 -1.85568 0
M  V30 1291 O 126.646 1.22282 -1.33854 0
M  V30 1292 C 126.694 -1.79723 -3.12621 0
M  V30 1293 O 125.798 -1.07912 -3.98031 0
M  V30 1294 H 125.139 -0.395872 -0.533086 0
M  V30 1295 H 127.669 -1.66276 -1.1922 0
M  V30 1296 H 127.679 -1.86141 -3.63064 0
M  V30 1297 H 126.354 -2.84633 -3.03244 0
M  V30 1298 H 124.931 -1.09398 -3.56492 0
M  V30 1299 N 127.117 1.15442 -1.07289 0
M  V30 1300 C 128.528 1.67803 -0.818475 0
M  V30 1301 C 128.879 1.8489 0.656507 0
M  V30 1302 O 128.004 1.55176 1.50829 0
M  V30 1303 C 128.599 3.04805 -1.47917 0
M  V30 1304 C 127.158 3.54245 -1.27229 0
M  V30 1305 C 126.305 2.29986 -1.54925 0
M  V30 1306 H 129.256 0.996646 -1.23502 0
M  V30 1307 H 129.277 3.69702 -0.90005 0
M  V30 1308 H 128.789 2.92336 -2.55267 0
M  V30 1309 H 126.89 3.71956 -0.21899 0
M  V30 1310 H 127.003 4.35723 -1.99203 0
M  V30 1311 H 125.367 2.35496 -0.970242 0
M  V30 1312 H 126.15 2.20105 -2.63455 0
M  V30 1313 N 128.595 0.856903 1.32268 0
M  V30 1314 C 129.843 0.460474 1.96784 0
M  V30 1315 C 130.164 -0.987701 1.68135 0
M  V30 1316 O 129.434 -1.69058 0.989765 0
M  V30 1317 H 128.014 0.167289 0.728027 0
M  V30 1318 H 130.676 1.09383 1.61312 0
M  V30 1319 H 129.772 0.60739 3.06133 0
M  V30 1320 N 130.073 -1.45103 0.615059 0
M  V30 1321 C 131.005 -2.28786 -0.13762 0
M  V30 1322 C 132.018 -1.40376 -0.824525 0
M  V30 1323 O 133.207 -1.64681 -0.688662 0
M  V30 1324 C 130.307 -3.16322 -1.21628 0
M  V30 1325 C 129.48 -4.33054 -0.615039 0
M  V30 1326 C 128.539 -5.01743 -1.58556 0
M  V30 1327 O 127.565 -5.58293 -1.10895 0
M  V30 1328 N 128.767 -5.01714 -2.91998 0
M  V30 1329 H 131.532 -2.94025 0.580483 0
M  V30 1330 H 129.093 -1.55373 0.45507 0
M  V30 1331 H 131.085 -3.59139 -1.86552 0
M  V30 1332 H 129.655 -2.52943 -1.83681 0
M  V30 1333 H 128.875 -3.93627 0.21245 0
M  V30 1334 H 130.163 -5.08431 -0.193704 0
M  V30 1335 H 129.561 -4.57075 -3.33316 0
M  V30 1336 H 128.118 -5.48371 -3.52325 0
M  V30 1337 N 131.551 -0.354651 -1.53558 0
M  V30 1338 C 132.514 0.484566 -2.24019 0
M  V30 1339 C 133.514 1.01861 -1.24422 0
M  V30 1340 O 134.704 0.906097 -1.4878 0
M  V30 1341 C 131.836 1.67615 -2.96847 0
M  V30 1342 H 133.029 -0.131843 -2.9961 0
M  V30 1343 H 130.582 -0.106165 -1.55939 0
M  V30 1344 H 131.317 2.33095 -2.25471 0
M  V30 1345 H 131.102 1.30029 -3.69912 0
M  V30 1346 H 132.592 2.27114 -3.50441 0
M  V30 1347 N 133.029 1.57378 -0.0835403 0
M  V30 1348 C 134.275 1.94217 0.583733 0
M  V30 1349 C 134.608 0.964653 1.68547 0
M  V30 1350 O 133.883 -0.00422258 1.945 0
M  V30 1351 C 134.166 3.41253 1.14972 0
M  V30 1352 C 134.019 4.49768 0.0538277 0
M  V30 1353 C 135.338 3.89352 2.05166 0
M  V30 1354 H 132.457 0.706233 0.210724 0
M  V30 1355 H 135.099 1.89392 -0.1519 0
M  V30 1356 H 133.249 3.45496 1.77665 0
M  V30 1357 H 134.921 4.57641 -0.579851 0
M  V30 1358 H 133.164 4.29432 -0.614068 0
M  V30 1359 H 133.835 5.49817 0.490452 0
M  V30 1360 H 136.311 3.87189 1.52393 0
M  V30 1361 H 135.187 4.92822 2.41698 0
M  V30 1362 H 135.448 3.27973 2.96456 0
M  V30 1363 N 134.507 -0.190092 1.56449 0
M  V30 1364 C 135.417 -1.25591 1.98152 0
M  V30 1365 C 136.433 -1.49519 0.889944 0
M  V30 1366 O 137.609 -1.62036 1.19609 0
M  V30 1367 C 134.674 -2.57916 2.3169 0
M  V30 1368 C 133.735 -2.42015 3.5458 0
M  V30 1369 C 132.968 -3.6803 3.8651 0
M  V30 1370 O 133.191 -4.72413 3.1966 0
M  V30 1371 O 132.125 -3.6326 4.79923 0
M  V30 1372 H 135.951 -0.931988 2.89046 0
M  V30 1373 H 133.536 -0.395488 1.4407 0
M  V30 1374 H 135.418 -3.36008 2.54316 0
M  V30 1375 H 134.093 -2.89925 1.43963 0
M  V30 1376 H 133 -1.62017 3.37196 0
M  V30 1377 H 134.333 -2.14937 4.4279 0
M  V30 1378 N 135.985 -1.50799 -0.457987 0
M  V30 1379 C 137.225 -1.64088 -1.21879 0
M  V30 1380 C 137.589 -0.339848 -1.88968 0
M  V30 1381 O 138.79 -0.348301 -2.66534 0
M  V30 1382 C 137.061 -2.79726 -2.2246 0
M  V30 1383 S 138.62 -3.13225 -3.07303 0
M  V30 1384 H 135.438 -0.578314 -0.41361 0
M  V30 1385 H 138.04 -1.88632 -0.513645 0
M  V30 1386 H 136.744 -3.72722 -1.71775 0
M  V30 1387 H 136.275 -2.57308 -2.97584 0
M  V30 1388 H 138.29 -2.58062 -4.23814 0
M  V30 1389 N 137.463 0.71206 -1.40597 0
M  V30 1390 C 138.703 1.48438 -1.40519 0
M  V30 1391 C 139.067 1.91998 -0.00767611 0
M  V30 1392 O 140.268 2.6854 0.118239 0
M  V30 1393 C 138.539 2.67514 -2.37004 0
M  V30 1394 S 140.098 3.56875 -2.55315 0
M  V30 1395 H 136.916 0.507457 -0.498005 0
M  V30 1396 H 139.518 0.832355 -1.76896 0
M  V30 1397 H 138.222 2.33689 -3.37368 0
M  V30 1398 H 137.753 3.37625 -2.01923 0
M  V30 1399 H 139.768 4.62081 -1.8082 0
M  V30 1400 N 138.941 1.26152 0.944643 0
M  V30 1401 C 139.873 1.03199 2.04652 0
M  V30 1402 C 140.886 -0.00642356 1.62799 0
M  V30 1403 O 142.075 0.233263 1.76969 0
M  V30 1404 C 139.175 0.540111 3.34568 0
M  V30 1405 C 138.348 1.64697 4.05208 0
M  V30 1406 C 137.407 1.15374 5.13396 0
M  V30 1407 O 136.433 1.85013 5.38293 0
M  V30 1408 N 137.635 0.00031529 5.805 0
M  V30 1409 H 140.4 1.9808 2.2491 0
M  V30 1410 H 137.961 1.17491 1.11389 0
M  V30 1411 H 139.953 0.194401 4.04233 0
M  V30 1412 H 138.523 -0.315021 3.11009 0
M  V30 1413 H 137.743 2.16379 3.29506 0
M  V30 1414 H 139.031 2.3903 4.49157 0
M  V30 1415 H 138.429 -0.581336 5.62705 0
M  V30 1416 H 136.986 -0.286346 6.51171 0
M  V30 1417 N 140.419 -1.14872 1.07899 0
M  V30 1418 C 141.667 -1.85422 0.803941 0
M  V30 1419 C 141.988 -1.83051 -0.67211 0
M  V30 1420 O 141.258 -1.27532 -1.48703 0
M  V30 1421 H 139.838 -0.686537 0.294408 0
M  V30 1422 H 142.5 -1.39226 1.3639 0
M  V30 1423 H 141.596 -2.90399 1.14346 0
M  V30 1424 N 141.898 -0.863906 -1.31812 0
M  V30 1425 C 143.175 -0.39275 -1.91616 0
M  V30 1426 C 143.555 1.12461 -1.7865 0
M  V30 1427 O 142.903 1.95045 -1.19037 0
M  V30 1428 C 143.113 -0.867385 -3.38049 0
M  V30 1429 C 144.461 -0.889966 -4.15168 0
M  V30 1430 O 145.485 -0.812635 -3.46806 0
M  V30 1431 O 144.344 -1.00079 -5.37258 0
M  V30 1432 H 141.438 -0.116358 -0.818773 0
M  V30 1433 H 143.984 -0.951418 -1.40521 0
M  V30 1434 H 142.756 -1.91081 -3.41473 0
M  V30 1435 H 142.379 -0.286687 -3.96565 0
M  V30 1436 N 143.376 1.44774 -0.622745 0
M  V30 1437 C 144.622 2.02968 -0.13257 0
M  V30 1438 C 144.977 1.48047 1.22881 0
M  V30 1439 O 144.27 0.651625 1.80179 0
M  V30 1440 C 144.464 3.57364 -0.0508323 0
M  V30 1441 C 144.293 4.27262 -1.40275 0
M  V30 1442 C 143.063 4.64577 -1.98737 0
M  V30 1443 C 145.261 4.58248 -2.3348 0
M  V30 1444 N 143.243 5.19404 -3.27251 0
M  V30 1445 C 144.614 5.14069 -3.46603 0
M  V30 1446 C 146.669 4.40195 -2.32664 0
M  V30 1447 C 145.372 5.53738 -4.59093 0
M  V30 1448 C 147.398 4.80907 -3.44213 0
M  V30 1449 C 146.76 5.36834 -4.56058 0
M  V30 1450 H 142.859 0.776541 -0.0922354 0
M  V30 1451 H 145.443 1.76385 -0.82441 0
M  V30 1452 H 143.614 3.83576 0.610265 0
M  V30 1453 H 145.346 4.02219 0.447397 0
M  V30 1454 H 142.101 4.48622 -1.51774 0
M  V30 1455 H 142.525 5.51301 -3.92933 0
M  V30 1456 H 147.167 3.96257 -1.47446 0
M  V30 1457 H 144.885 5.96635 -5.45025 0
M  V30 1458 H 148.471 4.68659 -3.44747 0
M  V30 1459 H 147.351 5.67755 -5.40947 0
M  V30 1460 N 144.854 0.36279 1.53368 0
M  V30 1461 C 146.094 -0.227882 2.03126 0
M  V30 1462 C 146.458 -1.4622 1.24434 0
M  V30 1463 O 147.659 -2.12831 1.64184 0
M  V30 1464 C 145.93 -0.515427 3.53664 0
M  V30 1465 S 147.489 -1.08017 4.25297 0
M  V30 1466 H 144.307 -0.0665377 0.70788 0
M  V30 1467 H 146.909 0.50501 1.88865 0
M  V30 1468 H 145.613 0.390436 4.08539 0
M  V30 1469 H 145.144 -1.27747 3.72081 0
M  V30 1470 H 147.159 -2.36462 4.36234 0
M  V30 1471 N 146.332 -1.57332 0.0918853 0
M  V30 1472 C 147.28 -2.15075 -0.885747 0
M  V30 1473 C 148.274 -1.09277 -1.29441 0
M  V30 1474 O 149.48 -1.27627 -1.26931 0
M  V30 1475 H 145.855 -0.687966 -0.303656 0
M  V30 1476 H 147.826 -2.96047 -0.373995 0
M  V30 1477 C 146.575 -2.74325 -2.13638 0
M  V30 1478 H 145.898 -3.55418 -1.8308 0
M  V30 1479 H 147.338 -3.183 -2.80109 0
M  V30 1480 C 145.797 -1.70062 -2.90827 0
M  V30 1481 O 146.327 -1.13763 -3.85254 0
M  V30 1482 N 144.533 -1.40628 -2.54307 0
M  V30 1483 H 144.08 -1.866 -1.7759 0
M  V30 1484 H 144.038 -0.711043 -3.06254 0
M  V30 1485 N 147.81 0.181792 -1.56548 0
M  V30 1486 C 149.226 0.53316 -1.50431 0
M  V30 1487 C 149.426 1.85184 -0.794297 0
M  V30 1488 O 148.482 2.50058 -0.350318 0
M  V30 1489 C 149.795 0.575597 -2.9514 0
M  V30 1490 C 151.343 0.663519 -3.05886 0
M  V30 1491 C 151.818 0.736946 -4.52032 0
M  V30 1492 N 153.309 0.800118 -4.56237 0
M  V30 1493 C 154.044 0.877327 -5.66649 0
M  V30 1494 N 153.54 0.916016 -6.86718 0
M  V30 1495 N 155.333 0.915542 -5.54594 0
M  V30 1496 H 147.484 -0.683025 -2.01118 0
M  V30 1497 H 149.747 -0.244988 -0.915797 0
M  V30 1498 H 149.453 -0.324482 -3.502 0
M  V30 1499 H 149.327 1.42572 -3.49218 0
M  V30 1500 H 151.714 1.55403 -2.50867 0
M  V30 1501 H 151.795 -0.21307 -2.54911 0
M  V30 1502 H 151.439 -0.149262 -5.07681 0
M  V30 1503 H 151.369 1.62953 -5.00753 0
M  V30 1504 H 153.86 0.778926 -3.69785 0
M  V30 1505 H 154.173 0.975813 -7.66614 0
M  V30 1506 H 152.518 0.884469 -6.89349 0
M  V30 1507 H 155.709 0.882245 -4.59711 0
M  V30 1508 H 155.882 0.972253 -6.40665 0
M  V30 1509 N 149.288 1.51039 0.449983 0
M  V30 1510 C 150.236 1.71995 1.5659 0
M  V30 1511 C 151.23 0.586029 1.5894 0
M  V30 1512 O 152.436 0.76709 1.62837 0
M  V30 1513 H 148.811 0.543233 0.520001 0
M  V30 1514 H 150.782 2.65562 1.36085 0
M  V30 1515 C 149.531 1.8506 2.9436 0
M  V30 1516 H 148.854 2.71712 2.93279 0
M  V30 1517 H 150.294 2.0374 3.71842 0
M  V30 1518 C 148.753 0.607277 3.31382 0
M  V30 1519 O 149.283 -0.243903 4.00959 0
M  V30 1520 N 147.489 0.455073 2.87015 0
M  V30 1521 H 147.036 1.14879 2.30566 0
M  V30 1522 H 146.994 -0.375611 3.12148 0
M  V30 1523 N 150.766 -0.704594 1.40972 0
M  V30 1524 C 152.015 -1.46018 1.39146 0
M  V30 1525 C 152.328 -1.956 0.000589254 0
M  V30 1526 O 153.534 -2.71137 -0.1403 0
M  V30 1527 C 151.99 -2.63996 2.4461 0
M  V30 1528 C 151.598 -2.21238 3.89561 0
M  V30 1529 C 153.342 -3.41677 2.51907 0
M  V30 1530 C 151.249 -3.3612 4.86598 0
M  V30 1531 H 150.179 -0.548444 0.517422 0
M  V30 1532 H 152.83 -0.765784 1.66757 0
M  V30 1533 H 151.212 -3.3566 2.10115 0
M  V30 1534 H 152.386 -1.56923 4.33257 0
M  V30 1535 H 150.701 -1.56574 3.85841 0
M  V30 1536 H 153.298 -4.27182 3.2159 0
M  V30 1537 H 153.641 -3.86247 1.55303 0
M  V30 1538 H 154.174 -2.77064 2.85448 0
M  V30 1539 H 150.913 -2.96572 5.84573 0
M  V30 1540 H 150.433 -3.99315 4.47557 0
M  V30 1541 H 152.112 -4.02029 5.06934 0
M  V30 1542 N 152.244 -1.26651 -0.937939 0
M  V30 1543 C 153.472 -1.15173 -1.7188 0
M  V30 1544 C 153.887 0.292668 -1.86518 0
M  V30 1545 O 153.244 1.20014 -1.37488 0
M  V30 1546 C 153.295 -1.81925 -3.12387 0
M  V30 1547 O 153.016 -3.2072 -2.98446 0
M  V30 1548 C 154.517 -1.76442 -4.06673 0
M  V30 1549 H 151.737 -0.400911 -0.538063 0
M  V30 1550 H 154.281 -1.67332 -1.1756 0
M  V30 1551 H 152.436 -1.33696 -3.63599 0
M  V30 1552 H 152.85 -3.53802 -3.872 0
M  V30 1553 H 154.324 -2.27781 -5.02812 0
M  V30 1554 H 154.801 -0.731608 -4.33064 0
M  V30 1555 H 155.407 -2.24238 -3.61382 0
M  V30 1556 N 153.722 1.14298 -1.08507 0
M  V30 1557 C 154.685 2.17607 -0.719711 0
M  V30 1558 C 155.685 1.58907 0.245997 0
M  V30 1559 O 156.875 1.74181 0.0254081 0
M  V30 1560 C 154.007 3.40842 -0.0627695 0
M  V30 1561 H 155.2 2.51443 -1.63452 0
M  V30 1562 H 152.753 1.28963 -0.88307 0
M  V30 1563 H 153.488 3.12587 0.863716 0
M  V30 1564 H 153.273 3.84713 -0.757504 0
M  V30 1565 H 154.763 4.17221 0.177786 0
M  V30 1566 N 155.201 0.870884 1.31352 0
M  V30 1567 C 156.133 0.28455 2.27427 0
M  V30 1568 C 157.146 -0.552927 1.53123 0
M  V30 1569 O 158.335 -0.374771 1.74521 0
M  V30 1570 C 155.435 -0.615164 3.3327 0
M  V30 1571 C 154.608 0.190079 4.36987 0
M  V30 1572 C 153.667 -0.637917 5.22319 0
M  V30 1573 O 152.693 -0.065626 5.69162 0
M  V30 1574 N 153.895 -1.94973 5.46778 0
M  V30 1575 H 156.66 1.11017 2.7838 0
M  V30 1576 H 154.221 0.732458 1.44384 0
M  V30 1577 H 156.213 -1.1748 3.87273 0
M  V30 1578 H 154.783 -1.34146 2.82354 0
M  V30 1579 H 154.003 0.931165 3.83044 0
M  V30 1580 H 155.291 0.742579 5.03352 0
M  V30 1581 H 154.689 -2.4378 5.10478 0
M  V30 1582 H 153.246 -2.45713 6.03712 0
M  V30 1583 N 156.679 -1.44442 0.630414 0
M  V30 1584 C 157.609 -2.33418 -0.0618083 0
M  V30 1585 C 158.59 -1.48165 -0.835541 0
M  V30 1586 O 159.775 -1.76886 -0.801564 0
M  V30 1587 C 156.905 -3.31222 -1.04449 0
M  V30 1588 C 155.859 -4.26288 -0.382436 0
M  V30 1589 C 155.185 -5.13954 -1.47497 0
M  V30 1590 C 156.485 -5.1744 0.710865 0
M  V30 1591 H 158.179 -2.91548 0.681184 0
M  V30 1592 H 155.725 -1.40191 0.329026 0
M  V30 1593 H 157.678 -3.92351 -1.53748 0
M  V30 1594 H 156.402 -2.71299 -1.81836 0
M  V30 1595 H 155.061 -3.6649 0.0899054 0
M  V30 1596 H 154.709 -4.50385 -2.2397 0
M  V30 1597 H 154.409 -5.7837 -1.03737 0
M  V30 1598 H 155.933 -5.77955 -1.96979 0
M  V30 1599 H 157.347 -5.72509 0.300996 0
M  V30 1600 H 155.744 -5.90455 1.07156 0
M  V30 1601 H 156.814 -4.58496 1.57829 0
M  V30 1602 N 158.157 -0.370918 -1.53173 0
M  V30 1603 C 159.568 0.107139 -1.86392 0
M  V30 1604 C 159.919 1.47714 -1.29132 0
M  V30 1605 O 159.044 2.07464 -0.615439 0
M  V30 1606 C 159.639 0.201187 -3.38202 0
M  V30 1607 C 158.198 0.623507 -3.712 0
M  V30 1608 C 157.345 -0.225978 -2.76378 0
M  V30 1609 H 160.296 -0.58951 -1.47345 0
M  V30 1610 H 160.317 1.02377 -3.66468 0
M  V30 1611 H 159.829 -0.796058 -3.79848 0
M  V30 1612 H 157.93 1.62879 -3.35114 0
M  V30 1613 H 158.043 0.394414 -4.77474 0
M  V30 1614 H 156.407 0.305962 -2.52856 0
M  V30 1615 H 157.19 -1.22086 -3.20858 0
M  V30 1616 N 159.635 1.57281 -0.100228 0
M  V30 1617 C 160.863 1.98879 0.570509 0
M  V30 1618 C 161.278 0.979476 1.61405 0
M  V30 1619 O 160.635 -0.0302288 1.82475 0
M  V30 1620 C 160.686 3.4052 1.2136 0
M  V30 1621 O 160.407 4.37588 0.211786 0
M  V30 1622 C 161.908 3.97149 1.96945 0
M  V30 1623 H 159.128 0.653428 0.152555 0
M  V30 1624 H 161.672 2.03697 -0.18103 0
M  V30 1625 H 159.827 3.367 1.91603 0
M  V30 1626 H 160.241 5.20118 0.676607 0
M  V30 1627 H 161.715 4.98393 2.37294 0
M  V30 1628 H 162.192 3.3525 2.83733 0
M  V30 1629 H 162.798 4.04458 1.31506 0
M  V30 1630 N 161.113 -0.173488 1.56642 0
M  V30 1631 C 162.06 -1.21482 1.96242 0
M  V30 1632 C 163.03 -1.44104 0.826027 0
M  V30 1633 O 164.215 -1.5688 1.08597 0
M  V30 1634 C 161.355 -2.54964 2.32567 0
M  V30 1635 C 160.468 -2.39739 3.59373 0
M  V30 1636 C 159.603 -3.66072 3.84921 0
M  V30 1637 C 158.642 -3.45771 5.05083 0
M  V30 1638 N 157.779 -4.64169 5.26775 0
M  V30 1639 H 162.619 -0.870123 2.85014 0
M  V30 1640 H 160.156 -0.418245 1.41029 0
M  V30 1641 H 162.114 -3.32758 2.5165 0
M  V30 1642 H 160.744 -2.87433 1.46908 0
M  V30 1643 H 159.796 -1.53131 3.48217 0
M  V30 1644 H 161.108 -2.20683 4.47326 0
M  V30 1645 H 160.262 -4.52303 4.0436 0
M  V30 1646 H 159.001 -3.88105 2.9534 0
M  V30 1647 H 158.006 -2.57927 4.85545 0
M  V30 1648 H 159.231 -3.25163 5.96193 0
M  V30 1649 H 157.177 -4.86425 4.40144 0
M  V30 1650 H 157.094 -4.48019 6.08946 0
M  V30 1651 H 158.362 -5.51689 5.5069 0
M  V30 1652 N 162.591 -1.51276 -0.441967 0
M  V30 1653 C 163.839 -1.63392 -1.18943 0
M  V30 1654 C 164.16 -0.350159 -1.9183 0
M  V30 1655 O 163.43 0.633784 -1.85364 0
M  V30 1656 H 162.01 -0.602164 -0.442049 0
M  V30 1657 H 164.672 -1.88186 -0.507165 0
M  V30 1658 H 163.768 -2.45934 -1.92154 0
M  V30 1659 N 164.069 0.697108 -1.41344 0
M  V30 1660 C 165.016 1.81106 -1.43071 0
M  V30 1661 C 165.986 1.63632 -0.285275 0
M  V30 1662 O 167.171 1.84504 -0.486091 0
M  V30 1663 C 164.311 3.18975 -1.31715 0
M  V30 1664 C 163.424 3.47892 -2.56115 0
M  V30 1665 C 162.559 4.75367 -2.37064 0
M  V30 1666 C 161.598 4.97247 -3.56948 0
M  V30 1667 N 160.735 6.15947 -3.36977 0
M  V30 1668 H 165.575 1.78965 -2.38276 0
M  V30 1669 H 163.112 0.873975 -1.18322 0
M  V30 1670 H 165.07 3.98615 -1.23133 0
M  V30 1671 H 163.7 3.20297 -0.401183 0
M  V30 1672 H 162.752 2.62669 -2.75153 0
M  V30 1673 H 164.064 3.59962 -3.45295 0
M  V30 1674 H 163.218 5.63059 -2.25941 0
M  V30 1675 H 161.957 4.65541 -1.45338 0
M  V30 1676 H 160.962 4.08004 -3.68527 0
M  V30 1677 H 162.187 5.08934 -4.49626 0
M  V30 1678 H 160.133 6.07336 -2.47949 0
M  V30 1679 H 160.05 6.28777 -4.19732 0
M  V30 1680 H 161.318 7.06377 -3.29623 0
M  V30 1681 N 165.547 1.27147 0.931209 0
M  V30 1682 C 166.772 1.16191 1.71797 0
M  V30 1683 C 167.197 -0.278004 1.86034 0
M  V30 1684 O 166.555 -1.20137 1.35782 0
M  V30 1685 C 166.603 1.84673 3.09723 0
M  V30 1686 O 165.707 1.14231 3.96264 0
M  V30 1687 H 165.048 0.404303 0.526721 0
M  V30 1688 H 167.578 1.68152 1.1656 0
M  V30 1689 H 167.588 1.91893 3.60057 0
M  V30 1690 H 166.263 2.89421 2.98677 0
M  V30 1691 H 164.84 1.15056 3.54706 0
M  V30 1692 N 167.025 -1.13721 1.09112 0
M  V30 1693 C 168.272 -1.84924 0.825192 0
M  V30 1694 C 168.6 -1.83347 -0.649151 0
M  V30 1695 O 167.855 -1.26449 -1.49362 0
M  V30 1696 C 168.154 -3.32861 1.30146 0
M  V30 1697 C 167.82 -3.54621 2.78486 0
M  V30 1698 C 166.482 -3.60268 3.18999 0
M  V30 1699 C 168.834 -3.62855 3.74146 0
M  V30 1700 C 166.162 -3.71679 4.53951 0
M  V30 1701 C 168.514 -3.75793 5.08883 0
M  V30 1702 C 167.178 -3.79692 5.4899 0
M  V30 1703 H 166.448 -0.676684 0.301959 0
M  V30 1704 H 169.095 -1.3428 1.36533 0
M  V30 1705 H 167.4 -3.85835 0.681064 0
M  V30 1706 H 169.097 -3.86395 1.07236 0
M  V30 1707 H 165.687 -3.50879 2.46134 0
M  V30 1708 H 169.871 -3.57775 3.43963 0
M  V30 1709 H 165.127 -3.72963 4.84467 0
M  V30 1710 H 169.301 -3.81107 5.82864 0
M  V30 1711 H 166.928 -3.88287 6.53558 0
M  V30 1712 N 168.503 -0.877838 -1.30888 0
M  V30 1713 C 169.914 -0.544193 -1.78593 0
M  V30 1714 C 170.265 0.939301 -1.72254 0
M  V30 1715 O 169.39 1.7337 -1.29505 0
M  V30 1716 C 169.985 -0.98105 -3.24285 0
M  V30 1717 C 168.544 -0.698935 -3.69854 0
M  V30 1718 C 167.691 -1.168 -2.51502 0
M  V30 1719 H 170.642 -1.06278 -1.17859 0
M  V30 1720 H 170.663 -0.307009 -3.79259 0
M  V30 1721 H 170.175 -2.06079 -3.28866 0
M  V30 1722 H 168.276 0.369112 -3.70767 0
M  V30 1723 H 168.389 -1.28148 -4.61644 0
M  V30 1724 H 166.753 -0.587535 -2.47831 0
M  V30 1725 H 167.536 -2.25533 -2.58824 0
M  V30 1726 N 169.982 1.44106 -0.638065 0
M  V30 1727 C 171.23 2.01579 -0.145043 0
M  V30 1728 C 171.551 1.50496 1.24 0
M  V30 1729 O 170.821 0.711374 1.82527 0
M  V30 1730 H 169.401 0.745282 -0.05063 0
M  V30 1731 H 172.063 1.76516 -0.826327 0
M  V30 1732 H 171.159 3.11877 -0.118039 0
M  V30 1733 N 171.46 0.379036 1.52974 0
M  V30 1734 C 172.688 -0.20679 2.05864 0
M  V30 1735 C 173.103 -1.41356 1.25155 0
M  V30 1736 O 172.46 -1.8009 0.295588 0
M  V30 1737 C 172.511 -0.587045 3.56702 0
M  V30 1738 O 172.232 0.571776 4.34353 0
M  V30 1739 C 173.733 -1.22983 4.25899 0
M  V30 1740 H 170.953 -0.0336123 0.670158 0
M  V30 1741 H 173.497 0.541298 1.97206 0
M  V30 1742 H 171.652 -1.28504 3.65466 0
M  V30 1743 H 172.066 0.261544 5.23847 0
M  V30 1744 H 173.54 -1.44635 5.32715 0
M  V30 1745 H 174.017 -2.19416 3.80465 0
M  V30 1746 H 174.623 -0.572892 4.21424 0
M  V30 1747 N 172.938 -1.57226 0.108567 0
M  V30 1748 C 173.87 -2.11809 -0.875752 0
M  V30 1749 C 174.883 -1.05839 -1.23701 0
M  V30 1750 O 176.072 -1.33245 -1.18778 0
M  V30 1751 C 173.172 -2.59411 -2.18081 0
M  V30 1752 C 172.345 -3.89364 -1.99284 0
M  V30 1753 C 171.404 -4.22672 -3.13424 0
M  V30 1754 O 170.43 -4.91668 -2.86795 0
M  V30 1755 N 171.632 -3.79154 -4.3957 0
M  V30 1756 H 174.397 -2.9689 -0.409477 0
M  V30 1757 H 171.958 -1.61721 -0.076158 0
M  V30 1758 H 173.95 -2.7873 -2.93414 0
M  V30 1759 H 172.52 -1.79268 -2.5609 0
M  V30 1760 H 171.74 -3.79059 -1.08203 0
M  V30 1761 H 173.028 -4.74358 -1.84017 0
M  V30 1762 H 172.426 -3.23486 -4.64083 0
M  V30 1763 H 170.983 -4.03602 -5.11809 0
M  V30 1764 N 174.416 0.165178 -1.56732 0
M  V30 1765 C 175.364 1.22369 -1.97809 0
M  V30 1766 C 176.358 1.45488 -0.867741 0
M  V30 1767 O 177.564 1.45995 -1.05288 0
M  V30 1768 H 173.939 0.411486 -0.629431 0
M  V30 1769 H 175.91 0.850425 -2.86025 0
M  V30 1770 C 174.659 2.55403 -2.35934 0
M  V30 1771 H 173.982 2.38438 -3.20916 0
M  V30 1772 H 175.422 3.2814 -2.68514 0
M  V30 1773 C 173.881 3.14611 -1.20506 0
M  V30 1774 O 174.411 3.98626 -0.496016 0
M  V30 1775 N 172.617 2.7379 -0.97403 0
M  V30 1776 H 172.164 2.0557 -1.55238 0
M  V30 1777 H 172.122 3.1374 -0.203573 0
M  V30 1778 N 175.894 1.51508 0.433938 0
M  V30 1779 C 177.141 1.64345 1.18309 0
M  V30 1780 C 177.469 0.361315 1.91115 0
M  V30 1781 O 176.724 -0.654753 1.84422 0
M  V30 1782 C 177.023 2.79928 2.22205 0
M  V30 1783 C 176.689 4.19078 1.66387 0
M  V30 1784 C 175.351 4.56932 1.50887 0
M  V30 1785 C 177.703 5.05894 1.25381 0
M  V30 1786 C 175.031 5.79305 0.928608 0
M  V30 1787 C 177.383 6.2885 0.687823 0
M  V30 1788 C 176.047 6.65473 0.519755 0
M  V30 1789 H 175.317 0.601381 0.432923 0
M  V30 1790 H 177.964 1.85549 0.473676 0
M  V30 1791 H 176.269 2.52959 2.99197 0
M  V30 1792 H 177.966 2.87059 2.79997 0
M  V30 1793 H 174.556 3.89234 1.79428 0
M  V30 1794 H 178.74 4.77253 1.36175 0
M  V30 1795 H 173.996 6.06324 0.786186 0
M  V30 1796 H 178.17 6.95461 0.361581 0
M  V30 1797 H 175.797 7.6017 0.0679979 0
M  V30 1798 N 177.372 -0.689602 1.41712 0
M  V30 1799 C 178.322 -1.79571 1.40493 0
M  V30 1800 C 179.306 -1.58473 0.278409 0
M  V30 1801 O 180.498 -1.69204 0.519532 0
M  V30 1802 C 177.627 -3.17923 1.29536 0
M  V30 1803 C 176.713 -3.44695 2.47075 0
M  V30 1804 N 177.104 -3.42132 3.72531 0
M  V30 1805 C 175.402 -3.75269 2.41017 0
M  V30 1806 C 176.103 -3.67976 4.50521 0
M  V30 1807 N 175.079 -3.88014 3.80718 0
M  V30 1808 H 178.881 -1.75961 2.35404 0
M  V30 1809 H 176.395 -0.889839 1.35851 0
M  V30 1810 H 178.392 -3.97167 1.26745 0
M  V30 1811 H 177.052 -3.22741 0.356153 0
M  V30 1812 H 178.063 -3.22375 4.05333 0
M  V30 1813 H 174.74 -3.87421 1.55599 0
M  V30 1814 H 176.13 -3.7208 5.59469 0
M  V30 1815 N 178.85 -1.27639 -0.924453 0
M  V30 1816 C 179.78 -1.13166 -2.04244 0
M  V30 1817 C 180.761 -0.032256 -1.70069 0
M  V30 1818 O 181.946 -0.207328 -1.9309 0
M  V30 1819 C 179.076 -0.781496 -3.38393 0
M  V30 1820 C 178.03 -1.83449 -3.86692 0
M  V30 1821 C 177.356 -1.33822 -5.17683 0
M  V30 1822 C 178.656 -3.23917 -4.09726 0
M  V30 1823 H 180.35 -2.06689 -2.1661 0
M  V30 1824 H 177.896 -0.995136 -1.04082 0
M  V30 1825 H 179.849 -0.667057 -4.16087 0
M  V30 1826 H 178.573 0.189439 -3.2605 0
M  V30 1827 H 177.232 -1.93789 -3.11193 0
M  V30 1828 H 176.88 -0.35665 -5.01734 0
M  V30 1829 H 176.58 -2.04224 -5.50968 0
M  V30 1830 H 178.104 -1.23679 -5.97943 0
M  V30 1831 H 179.518 -3.16559 -4.77978 0
M  V30 1832 H 177.915 -3.92059 -4.54324 0
M  V30 1833 H 178.985 -3.68729 -3.14908 0
M  V30 1834 N 180.328 1.1314 -1.09713 0
M  V30 1835 C 181.238 2.22242 -0.751367 0
M  V30 1836 C 182.254 1.72224 0.247938 0
M  V30 1837 O 183.43 2.01205 0.0885463 0
M  V30 1838 C 180.495 3.46231 -0.180274 0
M  V30 1839 C 179.556 4.11125 -1.2359 0
M  V30 1840 C 178.789 5.29195 -0.691966 0
M  V30 1841 O 179.012 5.68342 0.48414 0
M  V30 1842 O 177.946 5.84214 -1.44838 0
M  V30 1843 H 181.772 2.54197 -1.66186 0
M  V30 1844 H 179.357 1.21331 -0.871735 0
M  V30 1845 H 181.239 4.21185 0.134739 0
M  V30 1846 H 179.914 3.1597 0.703185 0
M  V30 1847 H 178.821 3.37985 -1.60366 0
M  V30 1848 H 180.154 4.45524 -2.09211 0
M  V30 1849 N 181.806 0.884767 1.30421 0
M  V30 1850 C 183.052 0.503851 1.96441 0
M  V30 1851 C 183.385 -0.944518 1.69684 0
M  V30 1852 O 182.66 -1.66737 1.00145 0
M  V30 1853 C 182.943 0.779085 3.51571 0
M  V30 1854 C 182.796 2.27807 3.87846 0
M  V30 1855 C 184.115 0.255452 4.39358 0
M  V30 1856 H 181.234 0.184533 0.713524 0
M  V30 1857 H 183.876 1.10872 1.54297 0
M  V30 1858 H 182.026 0.264274 3.876 0
M  V30 1859 H 183.698 2.86127 3.61841 0
M  V30 1860 H 181.941 2.74479 3.35922 0
M  V30 1861 H 182.612 2.42125 4.96064 0
M  V30 1862 H 185.088 0.696079 4.10236 0
M  V30 1863 H 183.964 0.477361 5.4682 0
M  V30 1864 H 184.225 -0.843293 4.33983 0
M  V30 1865 N 183.284 -1.43765 0.645699 0
M  V30 1866 C 184.532 -2.01499 0.155731 0
M  V30 1867 C 184.853 -1.51151 -1.232 0
M  V30 1868 O 184.123 -0.721044 -1.82148 0
M  V30 1869 H 182.703 -0.745003 0.0545817 0
M  V30 1870 H 185.365 -1.76075 0.835677 0
M  V30 1871 H 184.461 -3.1181 0.134577 0
M  V30 1872 N 184.763 -0.387143 -1.52771 0
M  V30 1873 C 185.693 0.440551 -2.29306 0
M  V30 1874 C 186.674 1.06535 -1.32606 0
M  V30 1875 O 187.859 1.07853 -1.61497 0
M  V30 1876 C 184.989 1.56919 -3.09829 0
M  V30 1877 C 183.943 1.07054 -4.14395 0
M  V30 1878 C 183.269 2.29109 -4.83129 0
M  V30 1879 C 184.569 0.140015 -5.22112 0
M  V30 1880 H 186.263 -0.198026 -2.98744 0
M  V30 1881 H 183.809 -0.09668 -1.43675 0
M  V30 1882 H 185.762 2.15503 -3.62128 0
M  V30 1883 H 184.486 2.23532 -2.3812 0
M  V30 1884 H 183.145 0.507247 -3.63074 0
M  V30 1885 H 182.793 2.94227 -4.0797 0
M  V30 1886 H 182.493 1.96406 -5.53804 0
M  V30 1887 H 184.017 2.88339 -5.38231 0
M  V30 1888 H 185.431 0.633978 -5.69784 0
M  V30 1889 H 183.828 -0.0971485 -6.00021 0
M  V30 1890 H 184.898 -0.811711 -4.78058 0
M  V30 1891 N 186.241 1.57166 -0.116904 0
M  V30 1892 C 187.49 1.94298 0.541407 0
M  V30 1893 C 187.803 1.00236 1.67964 0
M  V30 1894 O 189.009 1.26826 2.40057 0
M  V30 1895 C 187.465 3.45306 1.01449 0
M  V30 1896 C 187.073 4.47899 -0.0951738 0
M  V30 1897 C 188.817 3.91361 1.6443 0
M  V30 1898 C 186.724 5.90083 0.394491 0
M  V30 1899 H 185.654 0.725308 0.206019 0
M  V30 1900 H 188.305 1.82446 -0.196419 0
M  V30 1901 H 186.687 3.52385 1.80667 0
M  V30 1902 H 187.861 4.52486 -0.871374 0
M  V30 1903 H 186.176 4.11583 -0.631505 0
M  V30 1904 H 188.773 4.95004 2.02176 0
M  V30 1905 H 189.116 3.3122 2.52189 0
M  V30 1906 H 189.649 3.87073 0.917559 0
M  V30 1907 H 186.388 6.53974 -0.447004 0
M  V30 1908 H 185.908 5.88921 1.13722 0
M  V30 1909 H 187.587 6.41307 0.856399 0
M  V30 1910 N 187.719 -0.156864 1.56817 0
M  V30 1911 C 188.968 -0.869504 1.81996 0
M  V30 1912 C 189.281 -1.82777 0.696545 0
M  V30 1913 O 190.487 -2.58384 0.833658 0
M  V30 1914 C 188.943 -1.59679 3.22538 0
M  V30 1915 C 188.551 -0.681431 4.42787 0
M  V30 1916 C 190.295 -2.2968 3.56997 0
M  V30 1917 C 188.202 -1.40978 5.74351 0
M  V30 1918 H 187.132 -0.328438 0.678708 0
M  V30 1919 H 189.783 -0.1223 1.83092 0
M  V30 1920 H 188.165 -2.38927 3.158 0
M  V30 1921 H 189.339 0.0751166 4.60739 0
M  V30 1922 H 187.654 -0.0903431 4.16302 0
M  V30 1923 H 190.251 -2.84794 4.52544 0
M  V30 1924 H 190.594 -3.05707 2.82576 0
M  V30 1925 H 191.127 -1.57361 3.65352 0
M  V30 1926 H 187.866 -0.691561 6.51842 0
M  V30 1927 H 187.386 -2.13929 5.60352 0
M  V30 1928 H 189.065 -1.95337 6.16808 0
M  V30 1929 N 189.197 -1.51736 -0.425897 0
M  V30 1930 C 190.127 -1.76827 -1.52494 0
M  V30 1931 C 191.108 -0.618524 -1.58456 0
M  V30 1932 O 192.293 -0.862416 -1.74 0
M  V30 1933 C 189.423 -1.90374 -2.90474 0
M  V30 1934 C 188.377 -3.0588 -2.99369 0
M  V30 1935 C 187.703 -3.04625 -4.3944 0
M  V30 1936 C 189.003 -4.45644 -2.72394 0
M  V30 1937 H 190.697 -2.68855 -1.31748 0
M  V30 1938 H 188.243 -1.29372 -0.632362 0
M  V30 1939 H 190.196 -2.0651 -3.6733 0
M  V30 1940 H 188.92 -0.95004 -3.12477 0
M  V30 1941 H 187.579 -2.89467 -2.24954 0
M  V30 1942 H 187.227 -2.0701 -4.58428 0
M  V30 1943 H 186.927 -3.82195 -4.46319 0
M  V30 1944 H 188.451 -3.22869 -5.18255 0
M  V30 1945 H 189.865 -4.62348 -3.38979 0
M  V30 1946 H 188.262 -5.25006 -2.9067 0
M  V30 1947 H 189.332 -4.54893 -1.67929 0
M  V30 1948 N 190.675 0.682077 -1.42076 0
M  V30 1949 C 191.9 1.47558 -1.45744 0
M  V30 1950 C 192.325 1.87977 -0.0680981 0
M  V30 1951 O 191.683 1.55522 0.9318 0
M  V30 1952 C 191.731 2.70575 -2.38373 0
M  V30 1953 O 190.835 3.68573 -1.85007 0
M  V30 1954 H 190.176 0.443585 -0.494093 0
M  V30 1955 H 192.706 0.837238 -1.86686 0
M  V30 1956 H 192.716 3.18729 -2.54707 0
M  V30 1957 H 191.391 2.40495 -3.39315 0
M  V30 1958 H 189.968 3.2757 -1.78192 0
M  V30 1959 N 192.153 1.28127 0.917671 0
M  V30 1960 C 193.399 1.15223 1.66888 0
M  V30 1961 C 193.732 -0.299293 1.9188 0
M  V30 1962 O 193.007 -1.21805 1.51637 0
M  V30 1963 C 193.29 1.94706 3.02922 0
M  V30 1964 C 193.143 3.47898 2.85109 0
M  V30 1965 C 194.462 1.75939 4.03402 0
M  V30 1966 H 191.581 0.419946 0.605652 0
M  V30 1967 H 194.223 1.57398 1.06423 0
M  V30 1968 H 192.373 1.58864 3.54534 0
M  V30 1969 H 194.045 3.93624 2.40537 0
M  V30 1970 H 192.288 3.7373 2.20246 0
M  V30 1971 H 192.959 3.98765 3.81694 0
M  V30 1972 H 195.435 2.07209 3.60837 0
M  V30 1973 H 194.311 2.33931 4.96556 0
M  V30 1974 H 194.572 0.709877 4.36364 0
M  V30 1975 N 193.631 -1.12557 1.10312 0
M  V30 1976 C 194.877 -1.84311 0.846011 0
M  V30 1977 C 195.21 -1.83805 -0.626859 0
M  V30 1978 O 194.485 -1.28268 -1.46211 0
M  V30 1979 C 194.768 -3.32048 1.39341 0
M  V30 1980 C 194.621 -3.41016 2.93305 0
M  V30 1981 C 195.94 -4.27764 1.03468 0
M  V30 1982 H 193.059 -0.669192 0.30879 0
M  V30 1983 H 195.701 -1.32057 1.36605 0
M  V30 1984 H 193.851 -3.76678 0.951087 0
M  V30 1985 H 195.523 -3.05031 3.46055 0
M  V30 1986 H 193.766 -2.81603 3.29973 0
M  V30 1987 H 194.437 -4.44948 3.26689 0
M  V30 1988 H 196.913 -3.91253 1.41633 0
M  V30 1989 H 195.789 -5.29549 1.44463 0
M  V30 1990 H 196.05 -4.42064 -0.0560404 0
M  V30 1991 N 195.109 -0.891671 -1.2995 0
M  V30 1992 C 196.356 -0.513501 -1.95881 0
M  V30 1993 C 196.684 0.938655 -1.70351 0
M  V30 1994 O 195.939 1.67936 -1.00478 0
M  V30 1995 C 196.238 -0.742868 -3.49594 0
M  V30 1996 C 195.904 -2.17114 -3.95186 0
M  V30 1997 C 194.566 -2.56169 -4.07346 0
M  V30 1998 C 196.918 -3.10162 -4.18866 0
M  V30 1999 C 194.246 -3.87469 -4.4055 0
M  V30 2000 C 196.598 -4.41001 -4.53542 0
M  V30 2001 C 195.262 -4.79941 -4.63911 0
M  V30 2002 H 194.532 -0.187903 -0.71678 0
M  V30 2003 H 197.179 -1.1288 -1.54694 0
M  V30 2004 H 195.484 -0.044586 -3.91775 0
M  V30 2005 H 197.181 -0.429767 -3.9869 0
M  V30 2006 H 193.771 -1.85801 -3.86233 0
M  V30 2007 H 197.955 -2.81206 -4.08946 0
M  V30 2008 H 193.211 -4.17371 -4.46779 0
M  V30 2009 H 197.385 -5.13133 -4.70815 0
M  V30 2010 H 195.012 -5.81719 -4.89395 0
M  V30 2011 N 196.587 1.43421 -0.653314 0
M  V30 2012 C 197.55 2.29182 0.0287951 0
M  V30 2013 C 198.55 1.42213 0.750465 0
M  V30 2014 O 199.74 1.63843 0.591701 0
M  V30 2015 C 196.872 3.24278 1.05151 0
M  V30 2016 H 198.065 2.90985 -0.725786 0
M  V30 2017 H 195.618 1.50702 -0.414545 0
M  V30 2018 H 196.353 2.6737 1.83532 0
M  V30 2019 H 196.138 3.88396 0.537687 0
M  V30 2020 H 197.628 3.88647 1.52786 0
M  V30 2021 N 198.065 0.39524 1.52563 0
M  V30 2022 C 199.311 -0.185318 2.01952 0
M  V30 2023 C 199.644 -1.45964 1.28095 0
M  V30 2024 O 198.919 -1.90689 0.38315 0
M  V30 2025 C 199.202 -0.447193 3.57312 0
M  V30 2026 C 199.055 0.842828 4.41833 0
M  V30 2027 C 200.374 -1.23529 4.22408 0
M  V30 2028 H 197.493 -0.0658788 0.73405 0
M  V30 2029 H 200.135 0.525975 1.82575 0
M  V30 2030 H 198.285 -1.05312 3.73954 0
M  V30 2031 H 199.957 1.4795 4.36931 0
M  V30 2032 H 198.2 1.45686 4.08605 0
M  V30 2033 H 198.871 0.614165 5.48573 0
M  V30 2034 H 201.347 -0.722445 4.0978 0
M  V30 2035 H 200.223 -1.38727 5.3108 0
M  V30 2036 H 200.484 -2.25213 3.80436 0
M  V30 2037 N 199.544 -1.57102 0.125237 0
M  V30 2038 C 200.784 -1.97294 -0.534259 0
M  V30 2039 C 201.148 -1.0074 -1.63449 0
M  V30 2040 O 202.349 -1.29893 -2.35332 0
M  V30 2041 C 200.62 -3.41705 -1.04748 0
M  V30 2042 S 202.179 -4.03913 -1.71463 0
M  V30 2043 H 198.997 -0.689517 -0.173458 0
M  V30 2044 H 201.599 -1.94349 0.211797 0
M  V30 2045 H 200.303 -4.09723 -0.235649 0
M  V30 2046 H 199.834 -3.48315 -1.82867 0
M  V30 2047 H 201.849 -3.95182 -3.00077 0
M  V30 2048 N 201.022 0.148545 -1.56898 0
M  V30 2049 C 201.952 1.18524 -2.01182 0
M  V30 2050 C 202.933 1.4489 -0.891123 0
M  V30 2051 O 204.118 1.55836 -1.15882 0
M  V30 2052 C 201.248 2.51879 -2.39112 0
M  V30 2053 C 200.202 2.40038 -3.54353 0
M  V30 2054 C 199.528 3.78089 -3.78091 0
M  V30 2055 C 200.828 1.88577 -4.87069 0
M  V30 2056 H 202.522 0.817029 -2.88036 0
M  V30 2057 H 200.068 0.391575 -1.38574 0
M  V30 2058 H 202.021 3.24627 -2.68692 0
M  V30 2059 H 200.745 2.90532 -1.49193 0
M  V30 2060 H 199.404 1.69742 -3.24936 0
M  V30 2061 H 199.052 4.14175 -2.85426 0
M  V30 2062 H 198.752 3.71028 -4.55645 0
M  V30 2063 H 200.276 4.52387 -4.10095 0
M  V30 2064 H 201.69 2.51117 -5.15377 0
M  V30 2065 H 200.087 1.9241 -5.68417 0
M  V30 2066 H 201.157 0.84136 -4.77545 0
M  V30 2067 N 202.5 1.5196 0.417844 0
M  V30 2068 C 203.43 1.77634 1.51554 0
M  V30 2069 C 204.411 0.626918 1.58126 0
M  V30 2070 O 205.596 0.871632 1.7354 0
M  V30 2071 C 202.726 1.91911 2.8946 0
M  V30 2072 C 201.68 3.07463 2.97743 0
M  V30 2073 C 201.006 3.06951 4.37819 0
M  V30 2074 C 202.306 4.47082 2.70027 0
M  V30 2075 H 204 2.6955 1.3032 0
M  V30 2076 H 201.546 1.29706 0.625492 0
M  V30 2077 H 203.499 2.08455 3.6623 0
M  V30 2078 H 202.223 0.966598 3.11969 0
M  V30 2079 H 200.882 2.90656 2.23416 0
M  V30 2080 H 200.53 2.09438 4.57323 0
M  V30 2081 H 200.23 3.84556 4.44286 0
M  V30 2082 H 201.754 3.25613 5.16535 0
M  V30 2083 H 203.168 4.6414 3.36522 0
M  V30 2084 H 201.565 5.2654 2.87881 0
M  V30 2085 H 202.635 4.55777 1.65514 0
M  V30 2086 N 203.978 -0.674533 1.42435 0
M  V30 2087 C 204.941 -1.76986 1.45632 0
M  V30 2088 C 205.941 -1.5708 0.343871 0
M  V30 2089 O 207.131 -1.63367 0.604709 0
M  V30 2090 C 204.263 -3.15623 1.28822 0
M  V30 2091 H 205.456 -1.75539 2.43158 0
M  V30 2092 H 203.009 -0.884189 1.28887 0
M  V30 2093 H 203.744 -3.22696 0.322193 0
M  V30 2094 H 203.529 -3.31475 2.09444 0
M  V30 2095 H 205.019 -3.95537 1.33942 0
M  V30 2096 N 205.456 -1.28612 -0.910864 0
M  V30 2097 C 206.696 -1.1719 -1.67469 0
M  V30 2098 C 207.06 0.274441 -1.90028 0
M  V30 2099 O 208.261 0.511425 -2.6389 0
M  V30 2100 C 206.532 -1.95137 -2.99427 0
M  V30 2101 S 208.091 -2.00122 -3.90508 0
M  V30 2102 H 204.909 -0.41806 -0.575106 0
M  V30 2103 H 207.511 -1.6275 -1.08317 0
M  V30 2104 H 206.215 -2.99381 -2.80712 0
M  V30 2105 H 205.746 -1.50137 -3.63624 0
M  V30 2106 H 207.761 -1.10981 -4.8363 0
M  V30 2107 N 206.934 1.1197 -1.10907 0
M  V30 2108 C 207.864 2.19928 -0.784473 0
M  V30 2109 C 208.845 1.6833 0.244726 0
M  V30 2110 O 210.03 1.93892 0.109418 0
M  V30 2111 C 207.16 3.46597 -0.220827 0
M  V30 2112 C 206.114 4.11376 -1.18127 0
M  V30 2113 C 205.44 5.32554 -0.478594 0
M  V30 2114 C 206.74 4.56945 -2.52979 0
M  V30 2115 H 208.434 2.47337 -1.68715 0
M  V30 2116 H 205.98 1.18879 -0.812642 0
M  V30 2117 H 207.933 4.21396 0.0184278 0
M  V30 2118 H 206.657 3.1863 0.717113 0
M  V30 2119 H 205.316 3.38564 -1.40606 0
M  V30 2120 H 204.964 5.00856 0.463976 0
M  V30 2121 H 204.664 5.76844 -1.11912 0
M  V30 2122 H 206.188 6.10096 -0.248 0
M  V30 2123 H 207.602 5.23093 -2.3462 0
M  V30 2124 H 205.999 5.1203 -3.12962 0
M  V30 2125 H 207.069 3.70676 -3.12614 0
M  V30 2126 N 208.412 0.89855 1.29475 0
M  V30 2127 C 209.342 0.39201 2.30186 0
M  V30 2128 C 210.323 -0.532359 1.61555 0
M  V30 2129 O 211.508 -0.443331 1.89072 0
M  V30 2130 C 208.638 -0.382353 3.45189 0
M  V30 2131 C 207.592 0.451483 4.25612 0
M  V30 2132 C 206.918 -0.450307 5.328 0
M  V30 2133 C 208.218 1.70079 4.93832 0
M  V30 2134 H 209.912 1.23362 2.72804 0
M  V30 2135 H 207.458 0.594638 1.31149 0
M  V30 2136 H 209.411 -0.747451 4.14718 0
M  V30 2137 H 208.135 -1.25774 3.01411 0
M  V30 2138 H 206.794 0.798897 3.57789 0
M  V30 2139 H 206.442 -1.32379 4.85268 0
M  V30 2140 H 206.142 0.103902 5.87508 0
M  V30 2141 H 207.666 -0.811623 6.05182 0
M  V30 2142 H 209.08 1.40549 5.55805 0
M  V30 2143 H 207.477 2.19623 5.58467 0
M  V30 2144 H 208.547 2.43744 4.19186 0
M  V30 2145 N 209.89 -1.43072 0.660911 0
M  V30 2146 C 211.138 -2.01323 0.177094 0
M  V30 2147 C 211.459 -1.5245 -1.2159 0
M  V30 2148 O 210.729 -0.740322 -1.81373 0
M  V30 2149 H 209.309 -0.744382 0.0624804 0
M  V30 2150 H 211.971 -1.75179 0.854305 0
M  V30 2151 H 211.067 -3.11649 0.167641 0
M  V30 2152 N 211.368 -0.403325 -1.52352 0
M  V30 2153 C 212.614 0.174605 -2.02047 0
M  V30 2154 C 212.947 1.45282 -1.28867 0
M  V30 2155 O 212.222 1.90483 -0.393257 0
M  V30 2156 C 212.505 0.428238 -3.57545 0
M  V30 2157 C 212.358 -0.866248 -4.4138 0
M  V30 2158 C 213.677 1.21287 -4.23057 0
M  V30 2159 H 210.796 0.0619851 -0.734389 0
M  V30 2160 H 213.438 -0.53565 -1.82293 0
M  V30 2161 H 211.588 1.03327 -3.74507 0
M  V30 2162 H 213.26 -1.50265 -4.3614 0
M  V30 2163 H 211.503 -1.47851 -4.07827 0
M  V30 2164 H 212.174 -0.643249 -5.48239 0
M  V30 2165 H 214.65 0.700703 -4.10158 0
M  V30 2166 H 213.526 1.35909 -5.31808 0
M  V30 2167 H 213.787 2.23193 -3.81625 0
M  V30 2168 N 212.846 1.57033 -0.133567 0
M  V30 2169 C 213.809 2.14897 0.796995 0
M  V30 2170 C 214.809 1.0874 1.18458 0
M  V30 2171 O 215.999 1.34446 1.1077 0
M  V30 2172 C 213.131 2.70112 2.07973 0
M  V30 2173 H 214.324 2.98457 0.293873 0
M  V30 2174 H 211.877 1.55871 0.115787 0
M  V30 2175 H 212.612 1.9018 2.62682 0
M  V30 2176 H 212.397 3.47764 1.81115 0
M  V30 2177 H 213.887 3.14738 2.74462 0
M  V30 2178 N 214.325 -0.140222 1.56975 0
M  V30 2179 C 215.255 -1.17456 2.01808 0
M  V30 2180 C 216.236 -1.44415 0.898794 0
M  V30 2181 O 217.421 -1.5522 1.16707 0
M  V30 2182 C 214.551 -2.50607 2.40444 0
M  V30 2183 C 213.505 -2.38155 3.55621 0
M  V30 2184 C 212.831 -3.76078 3.80091 0
M  V30 2185 C 214.131 -1.85991 4.88062 0
M  V30 2186 H 215.825 -0.801743 2.88466 0
M  V30 2187 H 213.371 -0.38422 1.38779 0
M  V30 2188 H 215.324 -3.23197 2.7041 0
M  V30 2189 H 214.048 -2.89737 1.50732 0
M  V30 2190 H 212.707 -1.68016 3.25832 0
M  V30 2191 H 212.355 -4.12656 2.87618 0
M  V30 2192 H 212.055 -3.68606 4.57606 0
M  V30 2193 H 213.579 -4.50206 4.12488 0
M  V30 2194 H 214.993 -2.4838 5.16701 0
M  V30 2195 H 213.39 -1.89393 5.6943 0
M  V30 2196 H 214.46 -0.816023 4.77984 0
M  V30 2197 N 215.803 -1.52179 -0.40978 0
M  V30 2198 C 217.219 -1.40968 -0.74835 0
M  V30 2199 C 217.419 -0.513657 -1.94843 0
M  V30 2200 O 216.475 0.0208026 -2.52491 0
M  V30 2201 C 217.788 -2.83483 -1.0029 0
M  V30 2202 C 219.336 -2.92821 -1.10565 0
M  V30 2203 C 219.811 -4.36303 -1.39296 0
M  V30 2204 N 221.302 -4.39535 -1.46162 0
M  V30 2205 C 222.037 -5.47614 -1.70018 0
M  V30 2206 N 221.533 -6.65812 -1.91483 0
M  V30 2207 N 223.326 -5.35129 -1.72027 0
M  V30 2208 H 215.477 -2.0897 0.380186 0
M  V30 2209 H 217.74 -0.94185 0.107805 0
M  V30 2210 H 217.446 -3.51168 -0.193461 0
M  V30 2211 H 217.32 -3.24487 -1.92323 0
M  V30 2212 H 219.707 -2.25318 -1.90568 0
M  V30 2213 H 219.788 -2.55276 -0.16369 0
M  V30 2214 H 219.432 -5.04366 -0.598109 0
M  V30 2215 H 219.362 -4.71385 -2.34743 0
M  V30 2216 H 221.853 -3.54332 -1.31367 0
M  V30 2217 H 222.166 -7.43964 -2.09134 0
M  V30 2218 H 220.511 -6.68879 -1.88749 0
M  V30 2219 H 223.702 -4.41764 -1.54796 0
M  V30 2220 H 223.875 -6.19433 -1.9028 0
M  V30 2221 N 217.281 0.66697 -1.42791 0
M  V30 2222 C 218.228 1.7803 -1.4688 0
M  V30 2223 C 219.198 1.6299 -0.319919 0
M  V30 2224 O 220.383 1.83432 -0.525118 0
M  V30 2225 C 217.523 3.1611 -1.38451 0
M  V30 2226 C 216.636 3.42381 -2.63437 0
M  V30 2227 C 215.771 4.70232 -2.47094 0
M  V30 2228 C 214.81 4.89564 -3.67415 0
M  V30 2229 N 213.947 6.08661 -3.49966 0
M  V30 2230 H 218.787 1.7387 -2.42019 0
M  V30 2231 H 216.324 0.84868 -1.20149 0
M  V30 2232 H 218.282 3.95914 -1.31561 0
M  V30 2233 H 216.912 3.19374 -0.469033 0
M  V30 2234 H 215.964 2.56774 -2.80662 0
M  V30 2235 H 217.276 3.52557 -3.52853 0
M  V30 2236 H 216.43 5.5814 -2.37834 0
M  V30 2237 H 215.169 4.62353 -1.5518 0
M  V30 2238 H 214.174 4.00096 -3.77099 0
M  V30 2239 H 215.399 4.99282 -4.6032 0
M  V30 2240 H 213.345 6.0194 -2.60776 0
M  V30 2241 H 213.262 6.19733 -4.32975 0
M  V30 2242 H 214.53 6.99226 -3.44532 0
M  V30 2243 N 218.759 1.29093 0.90403 0
M  V30 2244 C 220.006 1.16813 1.65411 0
M  V30 2245 C 220.334 -0.28128 1.92455 0
M  V30 2246 O 219.589 -1.22006 1.53013 0
M  V30 2247 C 219.888 1.92224 3.01305 0
M  V30 2248 C 219.554 3.41968 2.93885 0
M  V30 2249 C 218.216 3.82807 2.91569 0
M  V30 2250 C 220.568 4.37409 2.83413 0
M  V30 2251 C 217.896 5.1741 2.76594 0
M  V30 2252 C 220.248 5.72097 2.69977 0
M  V30 2253 C 218.912 6.12199 2.66024 0
M  V30 2254 H 218.182 0.42745 0.605283 0
M  V30 2255 H 220.829 1.59981 1.05254 0
M  V30 2256 H 219.134 1.41635 3.65304 0
M  V30 2257 H 220.831 1.80131 3.58265 0
M  V30 2258 H 217.421 3.09504 2.96488 0
M  V30 2259 H 221.605 4.06813 2.84283 0
M  V30 2260 H 216.861 5.47596 2.71935 0
M  V30 2261 H 221.035 6.45704 2.60844 0
M  V30 2262 H 218.662 7.16448 2.54178 0
M  V30 2263 N 220.237 -1.11381 1.11499 0
M  V30 2264 C 221.184 -2.17439 0.773887 0
M  V30 2265 C 222.154 -1.64132 -0.254899 0
M  V30 2266 O 223.339 -1.90345 -0.13168 0
M  V30 2267 C 220.479 -3.44373 0.223917 0
M  V30 2268 C 219.592 -4.1168 1.30934 0
M  V30 2269 C 218.727 -5.263 0.71984 0
M  V30 2270 C 217.766 -5.85493 1.78507 0
M  V30 2271 N 216.903 -6.91507 1.21502 0
M  V30 2272 H 221.743 -2.45962 1.68246 0
M  V30 2273 H 219.28 -1.20744 0.840191 0
M  V30 2274 H 221.238 -4.17047 -0.112921 0
M  V30 2275 H 219.868 -3.16232 -0.647851 0
M  V30 2276 H 218.92 -3.37073 1.76312 0
M  V30 2277 H 220.232 -4.51729 2.11524 0
M  V30 2278 H 219.386 -6.05785 0.333094 0
M  V30 2279 H 218.125 -4.87559 -0.117377 0
M  V30 2280 H 217.13 -5.04686 2.18111 0
M  V30 2281 H 218.355 -6.26301 2.62533 0
M  V30 2282 H 216.301 -6.54783 0.399455 0
M  V30 2283 H 216.218 -7.30214 1.95763 0
M  V30 2284 H 217.486 -7.74795 0.855181 0
M  V30 2285 N 221.715 -0.905404 -1.28997 0
M  V30 2286 C 223.131 -0.60233 -1.47798 0
M  V30 2287 C 223.331 0.854645 -1.82478 0
M  V30 2288 O 222.387 1.63439 -1.92468 0
M  V30 2289 C 223.7 -1.53306 -2.58685 0
M  V30 2290 C 225.248 -1.53887 -2.72558 0
M  V30 2291 C 225.723 -2.45602 -3.86579 0
M  V30 2292 N 227.214 -2.43681 -3.93921 0
M  V30 2293 C 227.949 -3.11347 -4.81509 0
M  V30 2294 N 227.445 -3.88313 -5.73746 0
M  V30 2295 N 229.238 -3.00476 -4.75048 0
M  V30 2296 H 221.389 -1.84765 -1.04764 0
M  V30 2297 H 223.652 -0.792025 -0.520961 0
M  V30 2298 H 223.358 -2.57141 -2.39941 0
M  V30 2299 H 223.232 -1.25787 -3.55609 0
M  V30 2300 H 225.619 -0.507941 -2.90696 0
M  V30 2301 H 225.7 -1.85447 -1.76191 0
M  V30 2302 H 225.344 -3.48792 -3.69197 0
M  V30 2303 H 225.274 -2.11349 -4.82327 0
M  V30 2304 H 227.765 -1.87767 -3.27951 0
M  V30 2305 H 228.078 -4.36985 -6.37389 0
M  V30 2306 H 226.423 -3.92419 -5.73614 0
M  V30 2307 H 229.614 -2.39858 -4.01977 0
M  V30 2308 H 229.787 -3.53485 -5.43095 0
M  V30 2309 N 223.193 1.4272 -0.668489 0
M  V30 2310 C 224.609 1.55992 -0.33745 0
M  V30 2311 C 224.809 1.64933 1.15756 0
M  V30 2312 O 223.865 1.61278 1.94282 0
M  V30 2313 C 225.178 2.81314 -1.06222 0
M  V30 2314 C 226.726 2.95078 -1.04394 0
M  V30 2315 C 227.201 4.23252 -1.74991 0
M  V30 2316 N 228.692 4.3015 -1.71829 0
M  V30 2317 C 229.427 5.28127 -2.23315 0
M  V30 2318 N 228.923 6.32293 -2.83156 0
M  V30 2319 N 230.716 5.19882 -2.13726 0
M  V30 2320 H 222.867 1.3516 -1.63846 0
M  V30 2321 H 225.13 0.650174 -0.689912 0
M  V30 2322 H 224.836 2.80823 -2.11734 0
M  V30 2323 H 224.71 3.72012 -0.62344 0
M  V30 2324 H 227.097 2.951 0.0028244 0
M  V30 2325 H 227.178 2.05627 -1.52155 0
M  V30 2326 H 226.822 4.2399 -2.79633 0
M  V30 2327 H 226.752 5.11626 -1.24685 0
M  V30 2328 H 229.243 3.55499 -1.28175 0
M  V30 2329 H 229.556 7.03398 -3.20079 0
M  V30 2330 H 227.901 6.32873 -2.87223 0
M  V30 2331 H 231.092 4.37423 -1.66669 0
M  V30 2332 H 231.265 5.96077 -2.54158 0
M  V30 2333 N 224.671 0.411399 1.52136 0
M  V30 2334 C 225.619 -0.427633 2.28635 0
M  V30 2335 C 226.613 -1.04383 1.33419 0
M  V30 2336 O 227.819 -0.981772 1.50868 0
M  V30 2337 H 224.194 -0.156689 0.735495 0
M  V30 2338 H 226.165 0.238761 2.97443 0
M  V30 2339 C 224.914 -1.53082 3.12188 0
M  V30 2340 H 224.237 -1.06601 3.85326 0
M  V30 2341 H 225.677 -2.09167 3.68816 0
M  V30 2342 C 224.136 -2.49946 2.25895 0
M  V30 2343 O 224.666 -3.53884 1.90076 0
M  V30 2344 N 222.872 -2.2021 1.8962 0
M  V30 2345 H 222.419 -1.35719 2.18948 0
M  V30 2346 H 222.377 -2.85266 1.32176 0
M  V30 2347 N 226.149 -1.5696 0.141893 0
M  V30 2348 C 227.081 -2.13619 -0.830627 0
M  V30 2349 C 228.094 -1.08439 -1.21428 0
M  V30 2350 O 229.283 -1.35734 -1.15925 0
M  V30 2351 C 226.383 -2.63978 -2.12529 0
M  V30 2352 C 225.556 -3.93504 -1.9098 0
M  V30 2353 C 224.615 -4.29225 -3.04388 0
M  V30 2354 O 223.641 -4.97641 -2.76302 0
M  V30 2355 N 224.843 -3.88393 -4.31429 0
M  V30 2356 H 227.608 -2.97691 -0.34641 0
M  V30 2357 H 225.169 -1.61846 -0.0418375 0
M  V30 2358 H 227.161 -2.84891 -2.87436 0
M  V30 2359 H 225.731 -1.84659 -2.52229 0
M  V30 2360 H 224.951 -3.81269 -1.00139 0
M  V30 2361 H 226.239 -4.78154 -1.73914 0
M  V30 2362 H 225.637 -3.33257 -4.57117 0
M  V30 2363 H 224.194 -4.14368 -5.03133 0
M  V30 2364 N 227.627 0.131896 -1.57047 0
M  V30 2365 C 228.537 1.1815 -2.02676 0
M  V30 2366 C 229.553 1.46113 -0.944824 0
M  V30 2367 O 230.729 1.57485 -1.25541 0
M  V30 2368 C 227.794 2.49139 -2.41103 0
M  V30 2369 C 226.855 2.28688 -3.63318 0
M  V30 2370 C 226.088 3.53431 -3.99903 0
M  V30 2371 O 226.311 4.60223 -3.36973 0
M  V30 2372 O 225.245 3.45198 -4.93074 0
M  V30 2373 H 229.071 0.824069 -2.92306 0
M  V30 2374 H 226.656 0.341745 -1.45439 0
M  V30 2375 H 228.538 3.26338 -2.66611 0
M  V30 2376 H 227.213 2.84382 -1.54624 0
M  V30 2377 H 226.12 1.4939 -3.42977 0
M  V30 2378 H 227.453 1.98355 -4.50462 0
M  V30 2379 N 229.106 1.52395 0.401703 0
M  V30 2380 C 230.522 1.41363 0.740864 0
M  V30 2381 C 230.722 0.523982 1.94568 0
M  V30 2382 O 229.778 -0.00741204 2.52499 0
M  V30 2383 C 231.091 2.84011 0.987847 0
M  V30 2384 C 232.639 2.93404 1.09011 0
M  V30 2385 C 233.114 4.37036 1.3698 0
M  V30 2386 N 234.605 4.40304 1.43829 0
M  V30 2387 C 235.34 5.48508 1.67112 0
M  V30 2388 N 234.836 6.66819 1.87949 0
M  V30 2389 N 236.629 5.36034 1.69187 0
M  V30 2390 H 228.78 2.08765 -0.391262 0
M  V30 2391 H 231.043 0.941265 -0.112798 0
M  V30 2392 H 230.749 3.51265 0.174835 0
M  V30 2393 H 230.623 3.25502 1.906 0
M  V30 2394 H 233.01 2.26325 1.8937 0
M  V30 2395 H 233.091 2.55359 0.15015 0
M  V30 2396 H 232.735 5.04676 0.571353 0
M  V30 2397 H 232.665 4.72623 2.3224 0
M  V30 2398 H 235.156 3.55024 1.29486 0
M  V30 2399 H 235.469 7.45063 2.05185 0
M  V30 2400 H 233.814 6.6987 1.85199 0
M  V30 2401 H 237.005 4.42579 1.52451 0
M  V30 2402 H 237.178 6.20434 1.86993 0
M  V30 2403 N 230.584 -0.659388 1.43143 0
M  V30 2404 C 231.514 -1.78422 1.50625 0
M  V30 2405 C 232.495 -1.66216 0.361443 0
M  V30 2406 O 233.68 -1.85404 0.577834 0
M  V30 2407 C 230.81 -3.16815 1.42287 0
M  V30 2408 C 229.764 -3.43777 2.54954 0
M  V30 2409 C 229.09 -4.81905 2.31671 0
M  V30 2410 C 230.39 -3.39134 3.97222 0
M  V30 2411 H 232.084 -1.72417 2.44771 0
M  V30 2412 H 229.63 -0.828084 1.17808 0
M  V30 2413 H 231.583 -3.95253 1.46127 0
M  V30 2414 H 230.307 -3.23534 0.446435 0
M  V30 2415 H 228.966 -2.67707 2.50457 0
M  V30 2416 H 228.614 -4.85294 1.32284 0
M  V30 2417 H 228.314 -5.00906 3.07192 0
M  V30 2418 H 229.838 -5.62609 2.37284 0
M  V30 2419 H 231.252 -4.07518 4.03239 0
M  V30 2420 H 229.649 -3.69671 4.72719 0
M  V30 2421 H 230.719 -2.37426 4.22797 0
M  V30 2422 N 232.062 -1.29571 -0.897171 0
M  V30 2423 C 233.01 -1.14802 -2.02295 0
M  V30 2424 C 234.004 -0.0629637 -1.69283 0
M  V30 2425 O 235.21 -0.222945 -1.78614 0
M  V30 2426 H 231.585 -0.354692 -0.663097 0
M  V30 2427 H 233.556 -2.10108 -2.11889 0
M  V30 2428 C 232.305 -0.843966 -3.37302 0
M  V30 2429 H 231.628 -1.67093 -3.63208 0
M  V30 2430 H 233.068 -0.780672 -4.16751 0
M  V30 2431 C 231.527 0.452843 -3.33843 0
M  V30 2432 O 232.057 1.47813 -3.73516 0
M  V30 2433 N 230.263 0.459601 -2.86943 0
M  V30 2434 H 229.81 -0.375213 -2.54853 0
M  V30 2435 H 229.768 1.32726 -2.85011 0
M  V30 2436 N 233.54 1.10788 -1.12088 0
M  V30 2437 C 234.951 1.64181 -0.88891 0
M  V30 2438 C 235.302 1.87508 0.577498 0
M  V30 2439 O 234.427 1.61434 1.44112 0
M  V30 2440 C 235.022 2.98257 -1.60712 0
M  V30 2441 C 233.581 3.4853 -1.42139 0
M  V30 2442 C 232.728 2.23208 -1.6454 0
M  V30 2443 H 235.679 0.943368 -1.27618 0
M  V30 2444 H 235.7 3.65552 -1.05604 0
M  V30 2445 H 235.212 2.81246 -2.67436 0
M  V30 2446 H 233.313 3.70692 -0.376552 0
M  V30 2447 H 233.426 4.26882 -2.17505 0
M  V30 2448 H 231.79 2.31169 -1.06925 0
M  V30 2449 H 232.573 2.08733 -2.72554 0
M  V30 2450 N 235.018 0.912232 1.28515 0
M  V30 2451 C 236.434 0.610159 1.47476 0
M  V30 2452 C 236.634 -0.844955 1.82928 0
M  V30 2453 O 235.69 -1.62416 1.93332 0
M  V30 2454 C 237.003 1.54675 2.57868 0
M  V30 2455 C 238.551 1.55331 2.71738 0
M  V30 2456 C 239.026 2.47649 3.85272 0
M  V30 2457 N 240.517 2.45767 3.92623 0
M  V30 2458 C 241.252 3.13896 4.79851 0
M  V30 2459 N 240.748 3.9135 5.71679 0
M  V30 2460 N 242.541 3.02991 4.73448 0
M  V30 2461 H 234.692 1.85318 1.03783 0
M  V30 2462 H 236.955 0.794777 0.516753 0
M  V30 2463 H 236.661 2.5841 2.38574 0
M  V30 2464 H 236.535 1.27671 3.54937 0
M  V30 2465 H 238.922 0.52335 2.90422 0
M  V30 2466 H 239.003 1.86378 1.75205 0
M  V30 2467 H 238.647 3.50745 3.67342 0
M  V30 2468 H 238.577 2.13904 4.81199 0
M  V30 2469 H 241.068 1.89503 3.26951 0
M  V30 2470 H 241.381 4.40359 6.35062 0
M  V30 2471 H 239.726 3.95455 5.71524 0
M  V30 2472 H 242.917 2.41987 4.007 0
M  V30 2473 H 243.09 3.5636 5.41213 0
M  V30 2474 N 236.496 -1.42363 0.676048 0
M  V30 2475 C 237.773 -1.95183 0.127726 0
M  V30 2476 C 238.153 -1.61641 -1.35777 0
M  V30 2477 O 237.501 -0.913216 -2.09458 0
M  V30 2478 C 237.711 -3.46721 0.398199 0
M  V30 2479 C 239.059 -4.23427 0.315383 0
M  V30 2480 O 240.083 -3.54649 0.332016 0
M  V30 2481 O 238.942 -5.45888 0.25865 0
M  V30 2482 H 236.036 -0.826992 0.00359427 0
M  V30 2483 H 238.582 -1.52184 0.750864 0
M  V30 2484 H 237.354 -3.64344 1.4272 0
M  V30 2485 H 236.977 -3.96769 -0.256885 0
M  V30 2486 N 237.974 -0.419461 -1.51915 0
M  V30 2487 C 239.22 0.153166 -2.02221 0
M  V30 2488 C 239.553 1.43907 -1.30401 0
M  V30 2489 O 238.828 1.90055 -0.413438 0
M  V30 2490 C 239.111 0.390291 -3.57979 0
M  V30 2491 C 238.964 -0.913014 -4.40436 0
M  V30 2492 C 240.283 1.16794 -4.2432 0
M  V30 2493 H 237.402 0.0541924 -0.735005 0
M  V30 2494 H 240.044 -0.554955 -1.81715 0
M  V30 2495 H 238.194 0.993491 -3.75582 0
M  V30 2496 H 239.866 -1.54882 -4.34522 0
M  V30 2497 H 238.109 -1.52168 -4.06236 0
M  V30 2498 H 238.78 -0.701361 -5.47526 0
M  V30 2499 H 241.256 0.657161 -4.10878 0
M  V30 2500 H 240.132 1.3026 -5.3322 0
M  V30 2501 H 240.393 2.19132 -3.83971 0
M  V30 2502 N 239.452 1.56882 -0.150215 0
M  V30 2503 C 240.362 2.20494 0.801222 0
M  V30 2504 C 241.378 1.19019 1.26927 0
M  V30 2505 O 242.554 1.51607 1.32579 0
M  V30 2506 C 239.619 2.81659 2.02161 0
M  V30 2507 C 238.68 3.9827 1.60249 0
M  V30 2508 C 237.913 4.56508 2.7647 0
M  V30 2509 O 238.136 4.13627 3.92771 0
M  V30 2510 O 237.07 5.46719 2.51757 0
M  V30 2511 H 240.896 3.02315 0.289717 0
M  V30 2512 H 238.481 1.49202 0.0769684 0
M  V30 2513 H 240.363 3.20522 2.73576 0
M  V30 2514 H 239.038 2.02849 2.52258 0
M  V30 2515 H 237.945 3.64117 0.858477 0
M  V30 2516 H 239.278 4.78609 1.14864 0
M  V30 2517 N 240.93 -0.123565 1.57115 0
M  V30 2518 C 242.16 -0.845233 1.88519 0
M  V30 2519 C 242.568 -1.74168 0.739064 0
M  V30 2520 O 241.911 -1.81244 -0.299355 0
M  V30 2521 C 241.973 -1.73452 3.14888 0
M  V30 2522 C 241.637 -1.01285 4.45635 0
M  V30 2523 C 242.634 -0.355774 5.18681 0
M  V30 2524 C 240.319 -0.99538 4.92339 0
M  V30 2525 C 242.313 0.309114 6.3665 0
M  V30 2526 C 240 -0.32669 6.10226 0
M  V30 2527 C 240.998 0.324406 6.82229 0
M  V30 2528 O 240.686 0.982437 7.97874 0
M  V30 2529 H 240.418 -0.248534 0.628655 0
M  V30 2530 H 242.972 -0.113907 2.05084 0
M  V30 2531 H 241.202 -2.50737 2.94394 0
M  V30 2532 H 242.891 -2.33021 3.32349 0
M  V30 2533 H 243.657 -0.360918 4.83655 0
M  V30 2534 H 239.536 -1.49159 4.36202 0
M  V30 2535 H 243.08 0.8179 6.92789 0
M  V30 2536 H 238.977 -0.319294 6.4471 0
M  V30 2537 H 239.745 0.886454 8.13686 0
M  V30 2538 N 242.408 -1.52605 -0.393616 0
M  V30 2539 C 243.656 -1.67093 -1.13685 0
M  V30 2540 C 243.977 -0.411011 -1.90619 0
M  V30 2541 O 243.247 0.574491 -1.87287 0
M  V30 2542 H 241.827 -0.615923 -0.422668 0
M  V30 2543 H 244.489 -1.89704 -0.447039 0
M  V30 2544 H 243.585 -2.51922 -1.84232 0
M  V30 2545 N 243.887 0.651787 -1.4349 0
M  V30 2546 C 245.115 1.43937 -1.48626 0
M  V30 2547 C 245.53 1.8851 -0.104587 0
M  V30 2548 O 244.887 1.5958 0.885464 0
M  V30 2549 C 244.938 2.6734 -2.43334 0
M  V30 2550 O 244.659 2.24631 -3.76128 0
M  V30 2551 C 246.16 3.60683 -2.57726 0
M  V30 2552 H 243.38 0.44213 -0.504739 0
M  V30 2553 H 245.924 0.798944 -1.88248 0
M  V30 2554 H 244.079 3.2752 -2.06904 0
M  V30 2555 H 244.493 3.04485 -4.2707 0
M  V30 2556 H 245.967 4.43933 -3.28067 0
M  V30 2557 H 246.444 4.08126 -1.62265 0
M  V30 2558 H 247.05 3.06384 -2.94973 0
M  V30 2559 N 245.365 1.30045 0.890287 0
M  V30 2560 C 246.614 1.17929 1.63633 0
M  V30 2561 C 246.927 -0.266204 1.9378 0
M  V30 2562 O 248.133 -0.508804 2.6669 0
M  V30 2563 C 246.589 2.06317 2.94892 0
M  V30 2564 C 246.197 3.55745 2.72305 0
M  V30 2565 C 247.941 2.0295 3.72843 0
M  V30 2566 C 245.848 4.36205 3.99348 0
M  V30 2567 H 244.778 0.437782 0.613892 0
M  V30 2568 H 247.429 1.54754 0.986075 0
M  V30 2569 H 245.811 1.6237 3.61182 0
M  V30 2570 H 246.985 4.07805 2.1455 0
M  V30 2571 H 245.3 3.6088 2.07737 0
M  V30 2572 H 247.897 2.60319 4.67053 0
M  V30 2573 H 248.24 1.0117 4.0382 0
M  V30 2574 H 248.773 2.4499 3.13408 0
M  V30 2575 H 245.512 5.38659 3.73533 0
M  V30 2576 H 245.032 3.8891 4.56628 0
M  V30 2577 H 246.711 4.47362 4.67415 0
M  V30 2578 N 246.843 -1.10192 1.12674 0
M  V30 2579 C 247.753 -2.20172 0.810026 0
M  V30 2580 C 248.769 -1.72821 -0.202188 0
M  V30 2581 O 249.945 -2.01369 -0.0351691 0
M  V30 2582 C 247.01 -3.45631 0.272007 0
M  V30 2583 C 246.071 -4.07704 1.34447 0
M  V30 2584 C 245.304 -5.27175 0.832029 0
M  V30 2585 O 245.527 -5.69425 -0.333284 0
M  V30 2586 O 244.461 -5.80168 1.60277 0
M  V30 2587 H 248.287 -2.49701 1.72867 0
M  V30 2588 H 245.872 -1.18977 0.903597 0
M  V30 2589 H 247.754 -4.21394 -0.0230219 0
M  V30 2590 H 246.429 -3.17723 -0.619164 0
M  V30 2591 H 245.336 -3.33614 1.6927 0
M  V30 2592 H 246.669 -4.3982 2.2095 0
M  V30 2593 N 248.321 -0.919034 -1.28029 0
M  V30 2594 C 249.569 -0.553838 -1.94363 0
M  V30 2595 C 249.89 0.906357 -1.72656 0
M  V30 2596 O 249.16 1.64143 -1.0693 0
M  V30 2597 H 247.74 -0.201834 -0.719216 0
M  V30 2598 H 250.402 -1.16954 -1.55909 0
M  V30 2599 H 249.498 -0.752758 -3.02886 0
M  V30 2600 N 249.799 1.42003 -0.683588 0
M  V30 2601 C 250.729 2.33487 -0.024866 0
M  V30 2602 C 251.71 1.51163 0.779975 0
M  V30 2603 O 252.895 1.79739 0.735362 0
M  V30 2604 C 250.025 3.3487 0.920836 0
M  V30 2605 C 248.979 4.27414 0.223958 0
M  V30 2606 C 248.305 5.19074 1.2832 0
M  V30 2607 C 249.605 5.14445 -0.90242 0
M  V30 2608 H 251.299 2.88819 -0.788921 0
M  V30 2609 H 248.845 1.38873 -0.38083 0
M  V30 2610 H 250.798 3.97787 1.39081 0
M  V30 2611 H 249.522 2.77861 1.71642 0
M  V30 2612 H 248.181 3.65904 -0.225864 0
M  V30 2613 H 247.829 4.58387 2.071 0
M  V30 2614 H 247.529 5.81822 0.821995 0
M  V30 2615 H 249.053 5.84867 1.75392 0
M  V30 2616 H 250.467 5.70998 -0.513272 0
M  V30 2617 H 248.864 5.86072 -1.28997 0
M  V30 2618 H 249.934 4.52322 -1.74737 0
M  V30 2619 N 251.277 0.427512 1.51691 0
M  V30 2620 C 252.526 -0.143679 2.01188 0
M  V30 2621 C 252.839 -1.44642 1.31674 0
M  V30 2622 O 254.045 -2.09997 1.72086 0
M  V30 2623 C 252.501 -0.306602 3.58592 0
M  V30 2624 C 252.109 0.985125 4.37035 0
M  V30 2625 C 253.853 -0.832091 4.16265 0
M  V30 2626 C 251.76 0.788382 5.86122 0
M  V30 2627 H 250.69 -0.0574701 0.751807 0
M  V30 2628 H 253.341 0.555772 1.74881 0
M  V30 2629 H 251.723 -1.06882 3.81303 0
M  V30 2630 H 252.897 1.75492 4.26074 0
M  V30 2631 H 251.212 1.4384 3.90767 0
M  V30 2632 H 253.809 -0.995617 5.25349 0
M  V30 2633 H 254.152 -1.81186 3.74803 0
M  V30 2634 H 254.685 -0.128444 3.97593 0
M  V30 2635 H 251.424 1.74025 6.31978 0
M  V30 2636 H 250.944 0.0582143 5.99772 0
M  V30 2637 H 252.623 0.437722 6.45518 0
M  V30 2638 N 252.755 -1.56801 0.158532 0
M  V30 2639 C 253.983 -2.00859 -0.496303 0
M  V30 2640 C 254.398 -1.03871 -1.57659 0
M  V30 2641 O 253.755 -0.0375165 -1.82461 0
M  V30 2642 C 253.806 -3.4479 -1.08638 0
M  V30 2643 O 253.527 -4.38072 -0.0492322 0
M  V30 2644 C 255.028 -4.04185 -1.8207 0
M  V30 2645 H 252.248 -0.65864 -0.128199 0
M  V30 2646 H 254.792 -2.02885 0.256506 0
M  V30 2647 H 252.947 -3.43579 -1.78975 0
M  V30 2648 H 253.361 -5.2227 -0.483102 0
M  V30 2649 H 254.835 -5.06857 -2.18633 0
M  V30 2650 H 255.312 -3.45549 -2.71095 0
M  V30 2651 H 255.918 -4.0906 -1.16405 0
M  V30 2652 N 254.233 0.115231 -1.57178 0
M  V30 2653 C 255.461 0.836437 -1.89239 0
M  V30 2654 C 255.876 1.73256 -0.750175 0
M  V30 2655 O 255.233 1.80357 0.278832 0
M  V30 2656 C 255.284 1.66671 -3.20785 0
M  V30 2657 O 255.005 0.806652 -4.3061 0
M  V30 2658 C 256.506 2.49274 -3.66575 0
M  V30 2659 H 253.726 0.240253 -0.626514 0
M  V30 2660 H 256.27 0.0984932 -2.04263 0
M  V30 2661 H 254.425 2.35737 -3.0742 0
M  V30 2662 H 254.839 1.37969 -5.06028 0
M  V30 2663 H 256.313 3.03055 -4.6137 0
M  V30 2664 H 256.79 3.26807 -2.93417 0
M  V30 2665 H 257.396 1.85443 -3.82741 0
M  V30 2666 N 255.711 1.52812 0.385517 0
M  V30 2667 C 256.659 1.78482 1.49155 0
M  V30 2668 C 257.653 0.652914 1.56312 0
M  V30 2669 O 258.859 0.835464 1.59436 0
M  V30 2670 H 255.234 0.5648 0.496493 0
M  V30 2671 H 257.205 2.71095 1.24699 0
M  V30 2672 C 255.954 1.97378 2.86247 0
M  V30 2673 H 255.277 2.83907 2.81491 0
M  V30 2674 H 256.717 2.19327 3.62866 0
M  V30 2675 C 255.176 0.74728 3.28508 0
M  V30 2676 O 255.706 -0.0736232 4.01633 0
M  V30 2677 N 253.912 0.576396 2.84826 0
M  V30 2678 H 253.459 1.24555 2.25486 0
M  V30 2679 H 253.417 -0.24288 3.1346 0
M  V30 2680 N 257.189 -0.644168 1.43834 0
M  V30 2681 C 258.435 -1.40603 1.46146 0
M  V30 2682 C 258.768 -1.93997 0.0887717 0
M  V30 2683 O 258.043 -1.72854 -0.891724 0
M  V30 2684 C 258.326 -2.58086 2.51124 0
M  V30 2685 C 258.179 -2.10126 3.97702 0
M  V30 2686 C 259.498 -3.60291 2.52742 0
M  V30 2687 H 256.617 -0.509905 0.532134 0
M  V30 2688 H 259.259 -0.729502 1.75437 0
M  V30 2689 H 257.409 -3.15801 2.26278 0
M  V30 2690 H 259.081 -1.57342 4.33637 0
M  V30 2691 H 257.324 -1.41419 4.10101 0
M  V30 2692 H 257.995 -2.94649 4.66783 0
M  V30 2693 H 260.471 -3.12352 2.7491 0
M  V30 2694 H 259.347 -4.40032 3.28121 0
M  V30 2695 H 259.608 -4.1349 1.56455 0
M  V30 2696 N 258.668 -1.30515 -0.883378 0
M  V30 2697 C 259.916 -1.19194 -1.63209 0
M  V30 2698 C 260.237 0.253205 -1.93349 0
M  V30 2699 O 259.507 1.17025 -1.57105 0
M  V30 2700 H 258.087 -0.438148 -0.605009 0
M  V30 2701 H 260.749 -1.63663 -1.05832 0
M  V30 2702 H 259.845 -1.75396 -2.58153 0
M  V30 2703 N 260.146 1.09593 -1.13257 0
M  V30 2704 C 261.423 1.78293 -0.804432 0
M  V30 2705 C 261.803 1.99004 0.70431 0
M  V30 2706 O 261.151 1.59007 1.641 0
M  V30 2707 C 261.361 3.10707 -1.5894 0
M  V30 2708 C 262.709 3.85443 -1.78099 0
M  V30 2709 O 263.733 3.20454 -1.55525 0
M  V30 2710 O 262.592 5.02108 -2.15753 0
M  V30 2711 H 259.686 0.773156 -0.293528 0
M  V30 2712 H 262.232 1.16164 -1.23709 0
M  V30 2713 H 261.004 2.91106 -2.61482 0
M  V30 2714 H 260.627 3.80558 -1.15157 0
M  V30 2715 N 261.624 0.925811 1.2754 0
M  V30 2716 C 262.849 0.580924 1.99098 0
M  V30 2717 C 263.274 -0.833555 1.68622 0
M  V30 2718 O 262.632 -1.55903 0.925422 0
M  V30 2719 C 262.68 0.811186 3.51358 0
M  V30 2720 O 261.784 -0.124129 4.12213 0
M  V30 2721 H 261.125 0.223873 0.625122 0
M  V30 2722 H 263.655 1.24455 1.62395 0
M  V30 2723 H 263.665 0.72601 4.01489 0
M  V30 2724 H 262.34 1.84227 3.72872 0
M  V30 2725 H 260.917 0.0108006 3.72898 0
M  V30 2726 N 263.102 -1.41638 0.69111 0
M  V30 2727 C 264.33 -2.05628 0.22909 0
M  V30 2728 C 264.745 -1.51992 -1.11999 0
M  V30 2729 O 264.102 -0.666322 -1.69901 0
M  V30 2730 C 264.153 -3.61084 0.173283 0
M  V30 2731 O 263.874 -4.12735 1.46907 0
M  V30 2732 C 265.375 -4.42213 -0.310266 0
M  V30 2733 H 262.595 -0.662327 0.107534 0
M  V30 2734 H 265.139 -1.81489 0.942438 0
M  V30 2735 H 263.294 -3.84278 -0.490858 0
M  V30 2736 H 263.708 -5.06743 1.35322 0
M  V30 2737 H 265.182 -5.51194 -0.298196 0
M  V30 2738 H 265.659 -4.1799 -1.34838 0
M  V30 2739 H 266.265 -4.24074 0.322716 0
M  V30 2740 N 264.58 -0.43555 -1.51462 0
M  V30 2741 C 265.51 0.367376 -2.30592 0
M  V30 2742 C 266.491 1.02263 -1.35928 0
M  V30 2743 O 267.676 1.02661 -1.64847 0
M  V30 2744 C 264.806 1.46983 -3.14664 0
M  V30 2745 C 263.76 0.938161 -4.17591 0
M  V30 2746 C 263.086 2.13622 -4.90173 0
M  V30 2747 C 264.386 -0.0261621 -5.22293 0
M  V30 2748 H 266.08 -0.292969 -2.97963 0
M  V30 2749 H 263.626 -0.14234 -1.43295 0
M  V30 2750 H 265.579 2.03873 -3.688 0
M  V30 2751 H 264.303 2.15843 -2.4511 0
M  V30 2752 H 262.962 0.391481 -3.64504 0
M  V30 2753 H 262.61 2.81098 -4.17124 0
M  V30 2754 H 262.31 1.78688 -5.59772 0
M  V30 2755 H 263.834 2.7107 -5.47132 0
M  V30 2756 H 265.248 0.452384 -5.71512 0
M  V30 2757 H 263.645 -0.287992 -5.99409 0
M  V30 2758 H 264.715 -0.963391 -4.75233 0
M  V30 2759 N 266.058 1.56714 -0.166846 0
M  V30 2760 C 267.021 2.16539 0.751232 0
M  V30 2761 C 268.021 1.11228 1.16125 0
M  V30 2762 O 269.211 1.36765 1.07894 0
M  V30 2763 C 266.343 2.74462 2.02196 0
M  V30 2764 H 267.536 2.99013 0.230499 0
M  V30 2765 H 265.089 1.56081 0.0826982 0
M  V30 2766 H 265.824 1.95709 2.58589 0
M  V30 2767 H 265.609 3.51527 1.73698 0
M  V30 2768 H 267.099 3.20489 2.67725 0
M  V30 2769 N 267.536 -0.106894 1.57237 0
M  V30 2770 C 268.813 -0.843526 1.76477 0
M  V30 2771 C 269.193 -1.97499 0.745464 0
M  V30 2772 O 268.541 -2.27357 -0.228306 0
M  V30 2773 C 268.751 -1.34903 3.21873 0
M  V30 2774 C 270.099 -1.79654 3.8472 0
M  V30 2775 O 271.123 -1.44554 3.2555 0
M  V30 2776 O 269.982 -2.44515 4.88748 0
M  V30 2777 H 267.076 -0.401468 0.723016 0
M  V30 2778 H 269.622 -0.0896927 1.69463 0
M  V30 2779 H 268.394 -0.53781 3.87586 0
M  V30 2780 H 268.017 -2.16522 3.33473 0
M  V30 2781 N 269.014 -1.53014 -0.377408 0
M  V30 2782 C 269.944 -1.81589 -1.46791 0
M  V30 2783 C 270.925 -0.668622 -1.56408 0
M  V30 2784 O 272.11 -0.917337 -1.71168 0
M  V30 2785 C 269.24 -1.99519 -2.8427 0
M  V30 2786 C 268.194 -3.15249 -2.89486 0
M  V30 2787 C 267.52 -3.18451 -4.29527 0
M  V30 2788 C 268.82 -4.54084 -2.58079 0
M  V30 2789 H 270.514 -2.7291 -1.23127 0
M  V30 2790 H 268.06 -1.31319 -0.590883 0
M  V30 2791 H 270.013 -2.18092 -3.60575 0
M  V30 2792 H 268.737 -1.04897 -3.09296 0
M  V30 2793 H 267.396 -2.96477 -2.15631 0
M  V30 2794 H 267.044 -2.2149 -4.5161 0
M  V30 2795 H 266.744 -3.962 -4.33934 0
M  V30 2796 H 268.268 -3.39193 -5.07721 0
M  V30 2797 H 269.682 -4.72899 -3.24098 0
M  V30 2798 H 268.079 -5.33987 -2.7382 0
M  V30 2799 H 269.149 -4.60006 -1.53372 0
M  V30 2800 N 270.492 0.636531 -1.44174 0
M  V30 2801 C 271.422 1.76003 -1.53444 0
M  V30 2802 C 272.403 1.65619 -0.387841 0
M  V30 2803 O 273.588 1.84461 -0.607257 0
M  V30 2804 C 270.718 3.14511 -1.4731 0
M  V30 2805 C 269.672 3.39677 -2.60391 0
M  V30 2806 C 268.998 4.78159 -2.39308 0
M  V30 2807 C 270.298 3.32772 -4.02567 0
M  V30 2808 H 271.992 1.68501 -2.47483 0
M  V30 2809 H 269.538 0.809237 -1.19111 0
M  V30 2810 H 271.491 3.92878 -1.52397 0
M  V30 2811 H 270.215 3.22783 -0.49785 0
M  V30 2812 H 268.874 2.63688 -2.54684 0
M  V30 2813 H 268.522 4.83128 -1.39988 0
M  V30 2814 H 268.222 4.95956 -3.15122 0
M  V30 2815 H 269.746 5.58762 -2.46205 0
M  V30 2816 H 271.16 4.01051 -4.09672 0
M  V30 2817 H 269.557 3.62104 -4.7854 0
M  V30 2818 H 270.627 2.30669 -4.2652 0
M  V30 2819 N 271.97 1.30982 0.876444 0
M  V30 2820 C 273.247 1.10942 1.61094 0
M  V30 2821 C 273.627 -0.338223 2.08373 0
M  V30 2822 O 272.975 -1.33122 1.85717 0
M  V30 2823 C 273.185 2.11789 2.77392 0
M  V30 2824 C 274.533 2.43965 3.47514 0
M  V30 2825 O 275.557 2.10166 2.87591 0
M  V30 2826 O 274.416 3.01817 4.55597 0
M  V30 2827 H 271.51 0.42667 0.708436 0
M  V30 2828 H 274.056 1.42438 0.922474 0
M  V30 2829 H 272.828 3.09194 2.39823 0
M  V30 2830 H 272.451 1.81161 3.5393 0
M  V30 2831 N 273.449 -1.08991 1.13837 0
M  V30 2832 C 274.399 -2.1393 0.788535 0
M  V30 2833 C 275.383 -1.59396 -0.219516 0
M  V30 2834 O 276.575 -1.76985 -0.0227557 0
M  V30 2835 C 273.704 -3.42305 0.261147 0
M  V30 2836 C 272.79 -4.03736 1.29837 0
M  V30 2837 N 273.181 -4.39659 2.50067 0
M  V30 2838 C 271.479 -4.30993 1.1472 0
M  V30 2839 C 272.18 -4.88113 3.16419 0
M  V30 2840 N 271.156 -4.85846 2.43832 0
M  V30 2841 H 274.958 -2.39516 1.70322 0
M  V30 2842 H 272.472 -1.26263 1.02134 0
M  V30 2843 H 274.469 -4.16899 -0.0077405 0
M  V30 2844 H 273.129 -3.18172 -0.647805 0
M  V30 2845 H 274.14 -4.30878 2.8734 0
M  V30 2846 H 270.817 -4.16444 0.296773 0
M  V30 2847 H 272.207 -5.25336 4.18894 0
M  V30 2848 N 274.927 -0.932562 -1.27047 0
M  V30 2849 C 276.152 -0.591474 -1.98787 0
M  V30 2850 C 276.577 0.824601 -1.69062 0
M  V30 2851 O 275.935 1.5541 -0.933677 0
M  V30 2852 C 275.983 -0.829808 -3.50922 0
M  V30 2853 O 275.087 0.102266 -4.12273 0
M  V30 2854 H 274.428 -0.227185 -0.623926 0
M  V30 2855 H 276.958 -1.25314 -1.61733 0
M  V30 2856 H 276.968 -0.747292 -4.01098 0
M  V30 2857 H 275.643 -1.86201 -3.7189 0
M  V30 2858 H 274.22 -0.0305761 -3.72887 0
M  V30 2859 N 276.405 1.4127 -0.698611 0
M  V30 2860 C 277.645 2.03044 -0.235062 0
M  V30 2861 C 278.009 1.54146 1.14468 0
M  V30 2862 O 279.21 2.07867 1.70425 0
M  V30 2863 C 277.481 3.56192 -0.293651 0
M  V30 2864 S 279.04 4.38696 0.0954053 0
M  V30 2865 H 275.858 0.704697 -0.0944648 0
M  V30 2866 H 278.46 1.72656 -0.917064 0
M  V30 2867 H 277.164 3.89274 -1.29977 0
M  V30 2868 H 276.695 3.91285 0.407397 0
M  V30 2869 H 278.71 4.78257 1.3223 0
M  V30 2870 N 277.883 0.443576 1.51229 0
M  V30 2871 C 279.111 -0.11929 2.06556 0
M  V30 2872 C 279.526 -1.35921 1.31038 0
M  V30 2873 O 278.883 -1.78675 0.371704 0
M  V30 2874 C 278.934 -0.435228 3.5887 0
M  V30 2875 O 278.655 0.755486 4.31537 0
M  V30 2876 C 280.156 -1.04808 4.30732 0
M  V30 2877 H 277.376 -0.0051584 0.67098 0
M  V30 2878 H 279.92 0.624453 1.94733 0
M  V30 2879 H 278.075 -1.12887 3.70588 0
M  V30 2880 H 278.489 0.483491 5.22267 0
M  V30 2881 H 279.963 -1.2191 5.3837 0
M  V30 2882 H 280.44 -2.03081 3.89429 0
M  V30 2883 H 281.046 -0.393637 4.23474 0
M  V30 2884 N 279.361 -1.56624 0.175154 0
M  V30 2885 C 280.586 -2.01813 -0.478137 0
M  V30 2886 C 281.011 -1.05457 -1.55757 0
M  V30 2887 O 280.369 -0.0347439 -1.81267 0
M  V30 2888 C 280.417 -3.45581 -1.02987 0
M  V30 2889 O 279.521 -3.52305 -2.14371 0
M  V30 2890 H 278.862 -0.65413 -0.114059 0
M  V30 2891 H 281.392 -2.02673 0.280173 0
M  V30 2892 H 281.402 -3.84965 -1.35151 0
M  V30 2893 H 280.077 -4.1521 -0.239556 0
M  V30 2894 H 278.654 -3.24783 -1.83222 0
M  V30 2895 N 280.839 0.0985539 -1.57292 0
M  V30 2896 C 282.087 0.801092 -1.85545 0
M  V30 2897 C 282.408 1.79438 -0.763353 0
M  V30 2898 O 281.678 1.94763 0.21073 0
M  V30 2899 H 280.258 0.29884 -0.684619 0
M  V30 2900 H 282.92 0.0810064 -1.94732 0
M  V30 2901 H 282.016 1.3338 -2.82163 0
M  V30 2902 N 282.317 1.53212 0.369288 0
M  V30 2903 C 283.542 1.73423 1.1375 0
M  V30 2904 C 283.967 0.460404 1.82378 0
M  V30 2905 O 283.325 -0.585298 1.71592 0
M  V30 2906 C 283.373 2.89769 2.1463 0
M  V30 2907 O 282.477 2.58119 3.21634 0
M  V30 2908 H 281.818 0.576061 0.330227 0
M  V30 2909 H 284.348 2.00083 0.427547 0
M  V30 2910 H 284.358 3.15829 2.58294 0
M  V30 2911 H 283.033 3.8217 1.64071 0
M  V30 2912 H 281.61 2.42864 2.82969 0
M  V30 2913 N 283.795 -0.628877 1.44509 0
M  V30 2914 C 285.043 -1.38565 1.4712 0
M  V30 2915 C 285.364 -1.94712 0.105899 0
M  V30 2916 O 284.634 -1.75912 -0.862079 0
M  V30 2917 H 283.214 -0.514333 0.541729 0
M  V30 2918 H 285.876 -0.740018 1.80305 0
M  V30 2919 H 284.972 -2.21583 2.19789 0
M  V30 2920 N 285.273 -1.31445 -0.869486 0
M  V30 2921 C 286.498 -1.24256 -1.66058 0
M  V30 2922 C 286.923 0.188928 -1.87149 0
M  V30 2923 O 286.281 1.13522 -1.4136 0
M  V30 2924 C 286.329 -1.9924 -3.00559 0
M  V30 2925 O 285.433 -1.33007 -3.90362 0
M  V30 2926 H 284.774 -0.428973 -0.506831 0
M  V30 2927 H 287.304 -1.73521 -1.08404 0
M  V30 2928 H 287.314 -2.08854 -3.50491 0
M  V30 2929 H 285.989 -3.03342 -2.84528 0
M  V30 2930 H 284.566 -1.31848 -3.48813 0
M  V30 2931 N 286.751 1.08385 -1.14413 0
M  V30 2932 C 287.999 1.80419 -0.910679 0
M  V30 2933 C 288.32 1.86658 0.564243 0
M  V30 2934 O 287.59 1.35985 1.41014 0
M  V30 2935 H 286.17 0.668204 -0.333934 0
M  V30 2936 H 288.832 1.31037 -1.44275 0
M  V30 2937 H 287.928 2.83238 -1.31082 0
M  V30 2938 N 288.23 0.939286 1.26551 0
M  V30 2939 C 289.16 0.465044 2.28822 0
M  V30 2940 C 290.141 -0.480692 1.63167 0
M  V30 2941 O 291.326 -0.382955 1.90387 0
M  V30 2942 C 288.456 -0.27234 3.46231 0
M  V30 2943 C 287.41 0.58666 4.2396 0
M  V30 2944 C 286.736 -0.280573 5.33963 0
M  V30 2945 C 288.036 1.85704 4.88171 0
M  V30 2946 H 289.73 1.31979 2.68741 0
M  V30 2947 H 287.276 0.636061 1.29191 0
M  V30 2948 H 289.229 -0.615133 4.16886 0
M  V30 2949 H 287.953 -1.16121 3.0526 0
M  V30 2950 H 286.612 0.91232 3.55067 0
M  V30 2951 H 286.26 -1.16874 4.89234 0
M  V30 2952 H 285.96 0.29076 5.8688 0
M  V30 2953 H 287.484 -0.618678 6.07458 0
M  V30 2954 H 288.898 1.58161 5.51052 0
M  V30 2955 H 287.295 2.37279 5.51197 0
M  V30 2956 H 288.365 2.56957 4.11219 0
M  V30 2957 N 289.708 -1.40897 0.706093 0
M  V30 2958 C 291.119 -1.84023 0.315052 0
M  V30 2959 C 291.47 -1.5906 -1.14866 0
M  V30 2960 O 290.595 -1.06651 -1.88293 0
M  V30 2961 C 291.19 -3.34055 0.565038 0
M  V30 2962 C 289.749 -3.7571 0.227806 0
M  V30 2963 C 288.896 -2.64204 0.842122 0
M  V30 2964 H 291.847 -1.303 0.905963 0
M  V30 2965 H 291.868 -3.80107 -0.172843 0
M  V30 2966 H 291.38 -3.52192 1.63042 0
M  V30 2967 H 289.481 -3.63172 -0.832895 0
M  V30 2968 H 289.594 -4.74103 0.690174 0
M  V30 2969 H 287.958 -2.53255 0.270893 0
M  V30 2970 H 288.741 -2.85155 1.91158 0
M  V30 2971 N 291.186 -0.45159 -1.50991 0
M  V30 2972 C 292.433 0.110074 -2.02201 0
M  V30 2973 C 292.761 1.4146 -1.33489 0
M  V30 2974 O 292.016 1.90617 -0.443125 0
M  V30 2975 C 292.315 0.361728 -3.55565 0
M  V30 2976 C 291.981 -0.858717 -4.42648 0
M  V30 2977 C 290.643 -1.19338 -4.66167 0
M  V30 2978 C 292.995 -1.67221 -4.93646 0
M  V30 2979 C 290.323 -2.34195 -5.37931 0
M  V30 2980 C 292.675 -2.8119 -5.6667 0
M  V30 2981 C 291.339 -3.15094 -5.88449 0
M  V30 2982 H 290.609 0.040279 -0.739904 0
M  V30 2983 H 293.256 -0.601696 -1.81802 0
M  V30 2984 H 291.561 1.15554 -3.74372 0
M  V30 2985 H 293.258 0.80996 -3.92735 0
M  V30 2986 H 289.848 -0.58796 -4.24548 0
M  V30 2987 H 294.032 -1.42686 -4.75347 0
M  V30 2988 H 289.288 -2.6076 -5.53005 0
M  V30 2989 H 293.462 -3.44585 -6.05173 0
M  V30 2990 H 291.089 -4.04204 -6.43835 0
M  V30 2991 N 292.664 1.56529 -0.183458 0
M  V30 2992 C 293.594 2.21549 0.737456 0
M  V30 2993 C 294.575 1.17489 1.23005 0
M  V30 2994 O 295.76 1.45959 1.281 0
M  V30 2995 C 292.89 2.86575 1.96194 0
M  V30 2996 C 291.844 3.96778 1.60473 0
M  V30 2997 C 291.17 4.48911 2.90487 0
M  V30 2998 C 292.47 5.15767 0.823497 0
M  V30 2999 H 294.164 2.98761 0.195453 0
M  V30 3000 H 291.71 1.43702 0.0925686 0
M  V30 3001 H 293.663 3.30739 2.61131 0
M  V30 3002 H 292.387 2.06749 2.52828 0
M  V30 3003 H 291.046 3.53286 0.978997 0
M  V30 3004 H 290.694 3.65862 3.45186 0
M  V30 3005 H 290.394 5.23265 2.67335 0
M  V30 3006 H 291.918 4.95771 3.56432 0
M  V30 3007 H 293.332 5.56549 1.37571 0
M  V30 3008 H 291.729 5.96114 0.690551 0
M  V30 3009 H 292.799 4.84574 -0.177782 0
M  V30 3010 N 294.142 -0.090211 1.57342 0
M  V30 3011 C 295.388 -0.793982 1.86611 0
M  V30 3012 C 295.721 -1.78142 0.773252 0
M  V30 3013 O 294.996 -1.93271 -0.218304 0
M  V30 3014 C 295.279 -1.51839 3.26523 0
M  V30 3015 C 295.132 -0.548609 4.46442 0
M  V30 3016 C 296.451 -2.46779 3.64401 0
M  V30 3017 H 293.57 -0.287186 0.678744 0
M  V30 3018 H 296.212 -0.0575076 1.89913 0
M  V30 3019 H 294.362 -2.14617 3.23839 0
M  V30 3020 H 296.034 0.0725513 4.61243 0
M  V30 3021 H 294.277 0.137614 4.33582 0
M  V30 3022 H 294.948 -1.09271 5.41076 0
M  V30 3023 H 297.424 -1.94089 3.68061 0
M  V30 3024 H 296.3 -2.94479 4.63221 0
M  V30 3025 H 296.561 -3.30758 2.93346 0
M  V30 3026 N 295.62 -1.53406 -0.361157 0
M  V30 3027 C 296.552 -1.76446 -1.46286 0
M  V30 3028 C 297.565 -0.645322 -1.49464 0
M  V30 3029 O 298.754 -0.921681 -1.52864 0
M  V30 3030 C 295.854 -1.83332 -2.85031 0
M  V30 3031 C 295.027 -3.13033 -3.05498 0
M  V30 3032 C 294.086 -3.11104 -4.24383 0
M  V30 3033 O 293.112 -3.84888 -4.19344 0
M  V30 3034 N 294.314 -2.32234 -5.32022 0
M  V30 3035 H 297.079 -2.71508 -1.26899 0
M  V30 3036 H 294.64 -1.52238 -0.550915 0
M  V30 3037 H 296.632 -1.79514 -3.62708 0
M  V30 3038 H 295.202 -0.955342 -2.97644 0
M  V30 3039 H 294.422 -3.30119 -2.15442 0
M  V30 3040 H 295.71 -3.9874 -3.16044 0
M  V30 3041 H 295.108 -1.71807 -5.38979 0
M  V30 3042 H 293.665 -2.3423 -6.08259 0
M  V30 3043 N 297.098 0.621204 -1.44841 0
M  V30 3044 C 298.514 0.94048 -1.28946 0
M  V30 3045 C 298.714 2.00154 -0.23249 0
M  V30 3046 O 297.77 2.49651 0.378237 0
M  V30 3047 C 299.083 1.39433 -2.66419 0
M  V30 3048 C 300.631 1.50927 -2.74208 0
M  V30 3049 C 301.106 1.99692 -4.12174 0
M  V30 3050 N 302.597 2.06947 -4.144 0
M  V30 3051 C 303.332 2.45871 -5.1801 0
M  V30 3052 N 302.828 2.83862 -6.31977 0
M  V30 3053 N 304.621 2.46092 -5.05366 0
M  V30 3054 H 296.772 -0.0803548 -2.12248 0
M  V30 3055 H 299.035 0.0266913 -0.947624 0
M  V30 3056 H 298.741 0.688925 -3.44887 0
M  V30 3057 H 298.615 2.36347 -2.93973 0
M  V30 3058 H 301.002 2.20561 -1.96053 0
M  V30 3059 H 301.083 0.523627 -2.50383 0
M  V30 3060 H 300.727 1.30649 -4.90809 0
M  V30 3061 H 300.657 2.99146 -4.33381 0
M  V30 3062 H 303.148 1.80232 -3.32152 0
M  V30 3063 H 303.461 3.12405 -7.0684 0
M  V30 3064 H 301.806 2.8159 -6.35399 0
M  V30 3065 H 304.997 2.1581 -4.15384 0
M  V30 3066 H 305.17 2.76102 -5.86235 0
M  V30 3067 N 298.576 1.31904 0.862503 0
M  V30 3068 C 299.804 1.24998 1.64873 0
M  V30 3069 C 300.219 -0.183425 1.87907 0
M  V30 3070 O 299.576 -1.11794 1.44251 0
M  V30 3071 C 299.627 1.99829 3.01248 0
M  V30 3072 O 299.348 3.37575 2.79239 0
M  V30 3073 C 300.849 1.99852 3.95694 0
M  V30 3074 H 298.069 0.431599 0.513773 0
M  V30 3075 H 300.613 1.73901 1.07604 0
M  V30 3076 H 298.768 1.54668 3.55185 0
M  V30 3077 H 299.182 3.75776 3.65914 0
M  V30 3078 H 300.656 2.56709 4.88676 0
M  V30 3079 H 301.133 0.982852 4.28062 0
M  V30 3080 H 301.739 2.44926 3.47694 0
M  V30 3081 N 300.054 -1.07777 1.14986 0
M  V30 3082 C 301.3 -1.80557 0.923422 0
M  V30 3083 C 301.633 -1.86298 -0.548337 0
M  V30 3084 O 300.908 -1.34354 -1.40639 0
M  V30 3085 C 301.191 -3.25839 1.53299 0
M  V30 3086 C 301.044 -3.28269 3.07505 0
M  V30 3087 C 302.363 -4.22991 1.21518 0
M  V30 3088 H 299.482 -0.655493 0.336894 0
M  V30 3089 H 302.124 -1.26144 1.42083 0
M  V30 3090 H 300.274 -3.72306 1.10999 0
M  V30 3091 H 301.946 -2.90079 3.58681 0
M  V30 3092 H 300.189 -2.67355 3.4162 0
M  V30 3093 H 300.86 -4.30691 3.45266 0
M  V30 3094 H 303.336 -3.84894 1.581 0
M  V30 3095 H 302.212 -5.22945 1.66793 0
M  V30 3096 H 302.473 -4.41904 0.131505 0
M  V30 3097 N 301.532 -0.945985 -1.26051 0
M  V30 3098 C 302.495 -0.463897 -2.24456 0
M  V30 3099 C 303.495 0.427655 -1.55009 0
M  V30 3100 O 304.685 0.226157 -1.72726 0
M  V30 3101 C 301.817 0.330812 -3.39291 0
M  V30 3102 H 303.01 -1.33357 -2.68619 0
M  V30 3103 H 300.563 -0.728416 -1.38289 0
M  V30 3104 H 301.298 1.21852 -3.00537 0
M  V30 3105 H 301.083 -0.308679 -3.90883 0
M  V30 3106 H 302.573 0.657865 -4.12386 0
M  V30 3107 N 303.011 1.40521 -0.713556 0
M  V30 3108 C 304.427 1.54839 -0.386907 0
M  V30 3109 C 304.627 1.68532 1.1045 0
M  V30 3110 O 303.683 1.67377 1.89053 0
M  V30 3111 C 304.996 2.77792 -1.15118 0
M  V30 3112 C 306.544 2.91607 -1.13729 0
M  V30 3113 C 307.019 4.1747 -1.88368 0
M  V30 3114 N 308.51 4.24466 -1.85427 0
M  V30 3115 C 309.245 5.20755 -2.40004 0
M  V30 3116 N 308.741 6.22965 -3.03129 0
M  V30 3117 N 310.534 5.1282 -2.30158 0
M  V30 3118 H 302.685 1.29879 -1.68063 0
M  V30 3119 H 304.948 0.627896 -0.710247 0
M  V30 3120 H 304.654 2.73944 -2.20561 0
M  V30 3121 H 304.528 3.6984 -0.741477 0
M  V30 3122 H 306.915 2.94959 -0.0910608 0
M  V30 3123 H 306.996 2.00682 -1.5862 0
M  V30 3124 H 306.64 4.1488 -2.9298 0
M  V30 3125 H 306.57 5.074 -1.40898 0
M  V30 3126 H 309.061 3.51241 -1.3942 0
M  V30 3127 H 309.374 6.92859 -3.42295 0
M  V30 3128 H 307.719 6.23415 -3.07212 0
M  V30 3129 H 310.91 4.31899 -1.80501 0
M  V30 3130 H 311.083 5.87689 -2.72993 0
M  V30 3131 N 304.489 0.459591 1.5075 0
M  V30 3132 C 305.421 -0.37665 2.26084 0
M  V30 3133 C 306.434 -0.967109 1.30961 0
M  V30 3134 O 307.623 -0.857468 1.56556 0
M  V30 3135 C 304.723 -1.54112 3.01832 0
M  V30 3136 C 303.896 -1.06553 4.24223 0
M  V30 3137 C 302.955 -2.1027 4.82362 0
M  V30 3138 O 301.981 -1.68798 5.43595 0
M  V30 3139 N 303.183 -3.42974 4.68347 0
M  V30 3140 H 305.948 0.269124 2.98489 0
M  V30 3141 H 303.509 0.28972 1.59287 0
M  V30 3142 H 305.501 -2.23165 3.37608 0
M  V30 3143 H 304.071 -2.0918 2.32298 0
M  V30 3144 H 303.291 -0.201274 3.93686 0
M  V30 3145 H 304.579 -0.725516 5.03601 0
M  V30 3146 H 303.977 -3.79385 4.19623 0
M  V30 3147 H 302.534 -4.07858 5.08424 0
M  V30 3148 N 305.967 -1.56429 0.191757 0
M  V30 3149 C 307.216 -1.9666 -0.448088 0
M  V30 3150 C 307.529 -1.08136 -1.62991 0
M  V30 3151 O 308.735 -1.38135 -2.33733 0
M  V30 3152 C 307.191 -3.49753 -0.848585 0
M  V30 3153 C 306.799 -4.46935 0.308764 0
M  V30 3154 C 308.543 -3.9876 -1.4557 0
M  V30 3155 C 306.45 -5.91293 -0.112506 0
M  V30 3156 H 305.38 -0.734312 -0.171179 0
M  V30 3157 H 308.031 -1.81301 0.283242 0
M  V30 3158 H 306.413 -3.60604 -1.63649 0
M  V30 3159 H 307.587 -4.47813 1.08627 0
M  V30 3160 H 305.902 -4.08102 0.827158 0
M  V30 3161 H 308.499 -5.04086 -1.78328 0
M  V30 3162 H 308.842 -3.42875 -2.36099 0
M  V30 3163 H 309.375 -3.9101 -0.731836 0
M  V30 3164 H 306.114 -6.51097 0.758514 0
M  V30 3165 H 305.634 -5.93676 -0.854941 0
M  V30 3166 H 307.313 -6.44663 -0.549448 0
M  V30 3167 N 307.445 0.0818655 -1.57387 0
M  V30 3168 C 308.673 0.796108 -1.9097 0
M  V30 3169 C 309.088 1.71626 -0.786757 0
M  V30 3170 O 308.445 1.80908 0.240513 0
M  V30 3171 C 308.496 1.59829 -3.24248 0
M  V30 3172 O 308.217 0.715131 -4.32224 0
M  V30 3173 C 309.718 2.41442 -3.7178 0
M  V30 3174 H 306.938 0.22691 -0.631469 0
M  V30 3175 H 309.482 0.0551439 -2.04426 0
M  V30 3176 H 307.637 2.29163 -3.12351 0
M  V30 3177 H 308.051 1.27205 -5.08841 0
M  V30 3178 H 309.525 2.932 -4.67694 0
M  V30 3179 H 310.002 3.2051 -3.00283 0
M  V30 3180 H 310.608 1.77283 -3.86589 0
M  V30 3181 N 308.923 1.53595 0.353017 0
M  V30 3182 C 309.853 1.83902 1.43883 0
M  V30 3183 C 310.834 0.693421 1.55324 0
M  V30 3184 O 312.019 0.944452 1.69687 0
M  V30 3185 C 309.149 2.04016 2.8106 0
M  V30 3186 C 308.103 3.19814 2.84434 0
M  V30 3187 C 307.429 3.25244 4.24406 0
M  V30 3188 C 308.729 4.58133 2.50822 0
M  V30 3189 H 310.423 2.74835 1.1877 0
M  V30 3190 H 307.969 1.32242 0.569917 0
M  V30 3191 H 309.922 2.238 3.57059 0
M  V30 3192 H 308.646 1.09804 3.07588 0
M  V30 3193 H 307.305 2.9987 2.10887 0
M  V30 3194 H 306.953 2.28646 4.48029 0
M  V30 3195 H 306.653 4.03054 4.27576 0
M  V30 3196 H 308.177 3.47228 5.0226 0
M  V30 3197 H 309.591 4.77995 3.16534 0
M  V30 3198 H 307.988 5.38276 2.6529 0
M  V30 3199 H 309.058 4.62387 1.46034 0
M  V30 3200 N 310.401 -0.613514 1.45168 0
M  V30 3201 C 311.331 -1.7354 1.56225 0
M  V30 3202 C 312.312 -1.64981 0.41414 0
M  V30 3203 O 313.497 -1.83472 0.636526 0
M  V30 3204 C 310.627 -3.12128 1.52295 0
M  V30 3205 C 309.581 -3.35491 2.65762 0
M  V30 3206 C 308.907 -4.74291 2.46885 0
M  V30 3207 C 310.207 -3.26325 4.0781 0
M  V30 3208 H 311.901 -1.64543 2.50132 0
M  V30 3209 H 309.447 -0.790185 1.20383 0
M  V30 3210 H 311.4 -3.90404 1.58628 0
M  V30 3211 H 310.124 -3.2195 0.549139 0
M  V30 3212 H 308.783 -2.59603 2.58847 0
M  V30 3213 H 308.431 -4.80839 1.47657 0
M  V30 3214 H 308.131 -4.9088 3.22972 0
M  V30 3215 H 309.655 -5.54775 2.55063 0
M  V30 3216 H 311.069 -3.94483 4.16 0
M  V30 3217 H 309.466 -3.54445 4.8424 0
M  V30 3218 H 310.536 -2.23855 4.30136 0
M  V30 3219 N 311.879 -1.3236 -0.855495 0
M  V30 3220 C 312.789 -1.23221 -1.99634 0
M  V30 3221 C 313.805 -0.145983 -1.73387 0
M  V30 3222 O 314.981 -0.366502 -1.98037 0
M  V30 3223 C 312.046 -0.954782 -3.33294 0
M  V30 3224 C 311.107 -2.12937 -3.72769 0
M  V30 3225 C 310.34 -1.86508 -5.00051 0
M  V30 3226 O 310.563 -0.807231 -5.64659 0
M  V30 3227 O 309.497 -2.72591 -5.36636 0
M  V30 3228 H 313.323 -2.19126 -2.1028 0
M  V30 3229 H 310.908 -1.12241 -0.986018 0
M  V30 3230 H 312.79 -0.816519 -4.13414 0
M  V30 3231 H 311.465 -0.0258854 -3.2369 0
M  V30 3232 H 310.372 -2.3231 -2.93228 0
M  V30 3233 H 311.705 -3.04102 -3.87018 0
M  V30 3234 N 313.357 1.07166 -1.15556 0
M  V30 3235 C 314.597 1.81391 -0.94216 0
M  V30 3236 C 314.961 1.84788 0.521272 0
M  V30 3237 O 316.162 2.54904 0.85307 0
M  V30 3238 C 314.433 3.22431 -1.54185 0
M  V30 3239 S 315.992 4.13379 -1.47183 0
M  V30 3240 H 312.81 0.624963 -0.339031 0
M  V30 3241 H 315.412 1.28725 -1.4714 0
M  V30 3242 H 314.116 3.17548 -2.59984 0
M  V30 3243 H 313.647 3.80172 -1.01156 0
M  V30 3244 H 315.662 4.94007 -0.466004 0
M  V30 3245 N 314.835 0.952656 1.25548 0
M  V30 3246 C 316.081 0.607272 1.93494 0
M  V30 3247 C 316.414 -0.853245 1.74452 0
M  V30 3248 O 315.689 -1.61194 1.08843 0
M  V30 3249 C 315.972 0.96435 3.46947 0
M  V30 3250 C 315.825 2.48045 3.75225 0
M  V30 3251 C 317.144 0.487987 4.37386 0
M  V30 3252 H 314.263 0.222096 0.702739 0
M  V30 3253 H 316.905 1.18895 1.48203 0
M  V30 3254 H 315.055 0.469361 3.85654 0
M  V30 3255 H 316.727 3.04905 3.46166 0
M  V30 3256 H 314.97 2.919 3.209 0
M  V30 3257 H 315.641 2.6808 4.82532 0
M  V30 3258 H 318.117 0.912558 4.0597 0
M  V30 3259 H 316.993 0.766547 5.43521 0
M  V30 3260 H 317.254 -0.612063 4.37843 0
M  V30 3261 N 316.313 -1.40141 0.720998 0
M  V30 3262 C 317.561 -2.0039 0.262323 0
M  V30 3263 C 317.882 -1.57469 -1.15015 0
M  V30 3264 O 317.152 -0.816582 -1.78069 0
M  V30 3265 H 315.732 -0.741063 0.093996 0
M  V30 3266 H 318.394 -1.71398 0.927835 0
M  V30 3267 H 317.49 -3.10658 0.299671 0
M  V30 3268 N 317.792 -0.46758 -1.50504 0
M  V30 3269 C 318.739 0.328413 -2.28452 0
M  V30 3270 C 319.709 0.990313 -1.33349 0
M  V30 3271 O 320.894 1.00343 -1.62284 0
M  V30 3272 C 318.034 1.40648 -3.15138 0
M  V30 3273 C 317.147 0.759709 -4.25267 0
M  V30 3274 C 316.282 1.81537 -4.99217 0
M  V30 3275 C 315.321 1.14866 -6.01226 0
M  V30 3276 N 314.458 2.14702 -6.68467 0
M  V30 3277 H 319.298 -0.342603 -2.96024 0
M  V30 3278 H 316.835 -0.180801 -1.45985 0
M  V30 3279 H 318.793 2.04315 -3.63746 0
M  V30 3280 H 317.423 2.04671 -2.49619 0
M  V30 3281 H 316.475 0.0105671 -3.80399 0
M  V30 3282 H 317.787 0.233243 -4.98254 0
M  V30 3283 H 316.941 2.52793 -5.51526 0
M  V30 3284 H 315.68 2.37564 -4.25928 0
M  V30 3285 H 314.685 0.42171 -5.4818 0
M  V30 3286 H 315.91 0.595334 -6.76485 0
M  V30 3287 H 313.856 2.69752 -5.97972 0
M  V30 3288 H 313.773 1.6703 -7.37317 0
M  V30 3289 H 315.041 2.85348 -7.25394 0
M  V30 3290 N 319.27 1.56325 -0.20005 0
M  V30 3291 C 320.518 1.97329 0.436547 0
M  V30 3292 C 320.839 1.08826 1.61808 0
M  V30 3293 O 320.109 0.160604 1.95241 0
M  V30 3294 H 318.689 0.728714 0.164272 0
M  V30 3295 H 321.351 1.92761 -0.287937 0
M  V30 3296 H 320.447 3.02264 0.777353 0
M  V30 3297 N 320.748 -0.0735177 1.57428 0
M  V30 3298 C 322.164 -0.428264 1.53747 0
M  V30 3299 C 322.364 -1.79272 0.91998 0
M  V30 3300 O 321.42 -2.47051 0.521745 0
M  V30 3301 C 322.733 -0.370914 2.98404 0
M  V30 3302 C 324.281 -0.451224 3.0973 0
M  V30 3303 C 324.756 -0.4238 4.56035 0
M  V30 3304 N 326.247 -0.483925 4.60665 0
M  V30 3305 C 326.982 -0.484891 5.71346 0
M  V30 3306 N 326.478 -0.440775 6.91396 0
M  V30 3307 N 328.271 -0.531319 5.59583 0
M  V30 3308 H 320.422 0.819949 1.95935 0
M  V30 3309 H 322.685 0.307493 0.896745 0
M  V30 3310 H 322.391 0.564956 3.47133 0
M  V30 3311 H 322.265 -1.18176 3.5821 0
M  V30 3312 H 324.652 -1.37752 2.60976 0
M  V30 3313 H 324.733 0.388167 2.52838 0
M  V30 3314 H 324.377 0.498638 5.05446 0
M  V30 3315 H 324.307 -1.2807 5.10789 0
M  V30 3316 H 326.798 -0.522338 3.74273 0
M  V30 3317 H 327.111 -0.44539 7.71515 0
M  V30 3318 H 325.456 -0.40749 6.93804 0
M  V30 3319 H 328.647 -0.563464 4.64696 0
M  V30 3320 H 328.82 -0.528603 6.4584 0
M  V30 3321 N 322.226 -1.5378 -0.344866 0
M  V30 3322 C 323.456 -1.74646 -1.10374 0
M  V30 3323 C 323.864 -0.48491 -1.8288 0
M  V30 3324 O 323.207 0.553062 -1.75177 0
M  V30 3325 C 323.269 -2.87145 -2.16306 0
M  V30 3326 C 322.933 -4.26795 -1.63386 0
M  V30 3327 C 323.93 -5.08412 -1.08688 0
M  V30 3328 C 321.615 -4.73276 -1.68272 0
M  V30 3329 C 323.609 -6.34609 -0.595792 0
M  V30 3330 C 321.296 -5.99446 -1.18776 0
M  V30 3331 C 322.294 -6.79946 -0.645215 0
M  V30 3332 O 321.982 -8.03745 -0.157626 0
M  V30 3333 H 321.714 -0.587112 -0.335075 0
M  V30 3334 H 324.268 -2.01403 -0.403252 0
M  V30 3335 H 322.498 -2.55909 -2.89909 0
M  V30 3336 H 324.187 -2.95992 -2.77747 0
M  V30 3337 H 324.953 -4.73666 -1.04236 0
M  V30 3338 H 320.832 -4.10677 -2.09442 0
M  V30 3339 H 324.376 -6.97389 -0.171654 0
M  V30 3340 H 320.273 -6.33687 -1.22928 0
M  V30 3341 H 321.041 -8.18038 -0.275037 0
M  V30 3342 N 323.704 0.605807 -1.45491 0
M  V30 3343 C 324.952 1.36207 -1.49305 0
M  V30 3344 C 325.273 1.94519 -0.136863 0
M  V30 3345 O 324.543 1.77261 0.833983 0
M  V30 3346 H 323.123 0.50565 -0.549843 0
M  V30 3347 H 325.785 0.711239 -1.81459 0
M  V30 3348 H 324.881 2.18058 -2.23287 0
M  V30 3349 N 325.182 1.32811 0.848464 0
M  V30 3350 C 326.092 1.24278 1.98978 0
M  V30 3351 C 327.108 0.155176 1.73307 0
M  V30 3352 O 328.284 0.376999 1.9784 0
M  V30 3353 C 325.349 0.972444 3.32783 0
M  V30 3354 C 324.41 2.14911 3.71634 0
M  V30 3355 C 323.643 1.89157 4.99054 0
M  V30 3356 O 323.866 0.837165 5.64223 0
M  V30 3357 O 322.8 2.75433 5.35183 0
M  V30 3358 H 326.626 2.20238 2.09115 0
M  V30 3359 H 324.211 1.12762 0.980052 0
M  V30 3360 H 326.093 0.838432 4.12975 0
M  V30 3361 H 324.768 0.043051 3.23671 0
M  V30 3362 H 323.675 2.33862 2.91992 0
M  V30 3363 H 325.008 3.06151 3.85399 0
M  V30 3364 N 326.66 -1.06551 1.16123 0
M  V30 3365 C 327.906 -1.79567 0.94252 0
M  V30 3366 C 328.239 -1.86869 -0.528547 0
M  V30 3367 O 327.514 -1.35838 -1.39206 0
M  V30 3368 C 327.797 -3.24195 1.56747 0
M  V30 3369 C 327.65 -3.24989 3.10969 0
M  V30 3370 C 328.969 -4.21678 1.25998 0
M  V30 3371 H 326.088 -0.651883 0.343828 0
M  V30 3372 H 328.73 -1.2463 1.43413 0
M  V30 3373 H 326.88 -3.71107 1.14942 0
M  V30 3374 H 328.552 -2.86258 3.61737 0
M  V30 3375 H 326.795 -2.63716 3.44436 0
M  V30 3376 H 327.466 -4.27005 3.49815 0
M  V30 3377 H 329.942 -3.83196 1.62174 0
M  V30 3378 H 328.818 -5.21146 1.7233 0
M  V30 3379 H 329.079 -4.4174 0.178367 0
M  V30 3380 N 328.138 -0.959301 -1.25041 0
M  V30 3381 C 329.384 -0.627096 -1.93492 0
M  V30 3382 C 329.739 0.827484 -1.73696 0
M  V30 3383 O 329.032 1.58651 -1.07427 0
M  V30 3384 C 329.226 -0.927136 -3.45165 0
M  V30 3385 C 329.055 -2.40933 -3.79712 0
M  V30 3386 C 327.825 -3.0677 -4.01522 0
M  V30 3387 C 330.023 -3.38894 -3.86853 0
M  V30 3388 N 328.005 -4.44815 -4.231 0
M  V30 3389 C 329.376 -4.62263 -4.13174 0
M  V30 3390 C 331.431 -3.33668 -3.69554 0
M  V30 3391 C 330.134 -5.81052 -4.23995 0
M  V30 3392 C 332.16 -4.518 -3.81616 0
M  V30 3393 C 331.522 -5.73957 -4.08354 0
M  V30 3394 H 327.621 -0.280166 -0.73009 0
M  V30 3395 H 330.205 -1.23244 -1.50729 0
M  V30 3396 H 328.376 -0.350685 -3.86814 0
M  V30 3397 H 330.108 -0.554361 -4.00885 0
M  V30 3398 H 326.863 -2.57327 -3.97593 0
M  V30 3399 H 327.287 -5.16319 -4.37885 0
M  V30 3400 H 331.929 -2.40268 -3.47895 0
M  V30 3401 H 329.647 -6.74888 -4.44468 0
M  V30 3402 H 333.233 -4.49309 -3.69612 0
M  V30 3403 H 332.113 -6.6384 -4.17475 0
M  V30 3404 N 329.616 1.39756 -0.72842 0
M  V30 3405 C 331.032 1.5442 -0.403308 0
M  V30 3406 C 331.232 1.69694 1.08656 0
M  V30 3407 O 330.288 1.69373 1.87267 0
M  V30 3408 C 331.601 2.76555 -1.18058 0
M  V30 3409 C 333.149 2.90384 -1.16815 0
M  V30 3410 C 333.624 4.15449 -1.92785 0
M  V30 3411 N 335.115 4.22475 -1.89918 0
M  V30 3412 C 335.85 5.1818 -2.45514 0
M  V30 3413 N 335.346 6.19714 -3.09719 0
M  V30 3414 N 337.139 5.1035 -2.35584 0
M  V30 3415 H 329.29 1.28089 -1.69431 0
M  V30 3416 H 331.553 0.620327 -0.716867 0
M  V30 3417 H 331.259 2.7159 -2.23455 0
M  V30 3418 H 331.133 3.69033 -0.780662 0
M  V30 3419 H 333.52 2.94846 -0.12234 0
M  V30 3420 H 333.601 1.98988 -1.6074 0
M  V30 3421 H 333.245 4.11749 -2.97364 0
M  V30 3422 H 333.175 5.05877 -1.46272 0
M  V30 3423 H 335.666 3.49743 -1.43138 0
M  V30 3424 H 335.979 6.8919 -3.49625 0
M  V30 3425 H 334.324 6.20121 -3.13807 0
M  V30 3426 H 337.515 4.2996 -1.85072 0
M  V30 3427 H 337.688 5.84761 -2.79211 0
M  V30 3428 N 331.094 0.475555 1.50254 0
M  V30 3429 C 332.342 -0.077738 2.0195 0
M  V30 3430 C 332.663 -1.39813 1.35931 0
M  V30 3431 O 331.933 -1.89249 0.506123 0
M  V30 3432 H 330.513 -0.031719 0.746326 0
M  V30 3433 H 333.175 0.626995 1.84539 0
M  V30 3434 H 332.271 -0.225995 3.11281 0
M  V30 3435 N 332.573 -1.56217 0.208337 0
M  V30 3436 C 333.798 -2.02782 -0.435222 0
M  V30 3437 C 334.223 -1.08738 -1.53485 0
M  V30 3438 O 333.581 -0.0731855 -1.81152 0
M  V30 3439 C 333.629 -3.47687 -0.956335 0
M  V30 3440 O 332.733 -3.56773 -2.06849 0
M  V30 3441 H 332.074 -0.656403 -0.100158 0
M  V30 3442 H 334.604 -2.02033 0.3231 0
M  V30 3443 H 334.614 -3.87745 -1.26955 0
M  V30 3444 H 333.289 -4.15624 -0.15143 0
M  V30 3445 H 331.866 -3.28597 -1.76292 0
M  V30 3446 N 334.051 0.0651679 -1.57465 0
M  V30 3447 C 335.297 0.758912 -1.88712 0
M  V30 3448 C 335.652 1.7485 -0.802819 0
M  V30 3449 O 334.945 1.90632 0.192359 0
M  V30 3450 C 335.139 1.50081 -3.24362 0
M  V30 3451 C 334.968 0.584579 -4.45884 0
M  V30 3452 C 333.738 0.219039 -5.04825 0
M  V30 3453 C 335.936 -0.121559 -5.14156 0
M  V30 3454 N 333.918 -0.702222 -6.09871 0
M  V30 3455 C 335.289 -0.899767 -6.13436 0
M  V30 3456 C 337.344 -0.192331 -4.97528 0
M  V30 3457 C 336.047 -1.74218 -6.97883 0
M  V30 3458 C 338.073 -1.02174 -5.82507 0
M  V30 3459 C 337.435 -1.78798 -6.8133 0
M  V30 3460 H 333.534 0.25293 -0.739967 0
M  V30 3461 H 336.118 0.0201744 -1.9469 0
M  V30 3462 H 334.289 2.21023 -3.1938 0
M  V30 3463 H 336.021 2.14409 -3.43236 0
M  V30 3464 H 332.776 0.57336 -4.70117 0
M  V30 3465 H 333.2 -1.15629 -6.67052 0
M  V30 3466 H 337.842 0.385741 -4.21037 0
M  V30 3467 H 335.56 -2.3312 -7.73745 0
M  V30 3468 H 339.146 -1.07957 -5.71696 0
M  V30 3469 H 338.026 -2.41942 -7.45945 0
M  V30 3470 N 335.529 1.53961 0.336706 0
M  V30 3471 C 336.461 1.78751 1.4346 0
M  V30 3472 C 337.474 0.669019 1.48418 0
M  V30 3473 O 338.663 0.945884 1.51378 0
M  V30 3474 C 335.763 1.87844 2.82078 0
M  V30 3475 C 334.936 3.17854 3.00479 0
M  V30 3476 C 333.995 3.17816 4.19379 0
M  V30 3477 O 333.021 3.91511 4.13168 0
M  V30 3478 N 334.223 2.40669 5.2826 0
M  V30 3479 H 336.988 2.73493 1.22563 0
M  V30 3480 H 334.549 1.53096 0.526625 0
M  V30 3481 H 336.541 1.85261 3.59806 0
M  V30 3482 H 335.111 1.00257 2.96086 0
M  V30 3483 H 334.331 3.33504 2.10163 0
M  V30 3484 H 335.619 4.03718 3.0966 0
M  V30 3485 H 335.017 1.8036 5.36178 0
M  V30 3486 H 333.574 2.43877 6.04456 0
M  V30 3487 N 337.007 -0.598083 1.45811 0
M  V30 3488 C 338.255 -1.35413 1.50026 0
M  V30 3489 C 338.576 -1.94444 0.147177 0
M  V30 3490 O 337.846 -1.77701 -0.824571 0
M  V30 3491 H 336.426 -0.502727 0.552517 0
M  V30 3492 H 339.088 -0.701606 1.81834 0
M  V30 3493 H 338.184 -2.16871 2.2444 0
M  V30 3494 N 338.485 -1.33259 -0.841409 0
M  V30 3495 C 339.395 -1.25332 -1.98316 0
M  V30 3496 C 340.411 -0.164364 -1.73222 0
M  V30 3497 O 341.587 -0.387486 -1.97637 0
M  V30 3498 C 338.652 -0.990078 -3.32262 0
M  V30 3499 C 337.713 -2.16879 -3.70489 0
M  V30 3500 C 336.946 -1.91801 -4.98044 0
M  V30 3501 O 337.169 -0.867075 -5.63771 0
M  V30 3502 O 336.103 -2.78267 -5.33714 0
M  V30 3503 H 339.929 -2.21344 -2.07944 0
M  V30 3504 H 337.514 -1.1328 -0.974058 0
M  V30 3505 H 339.396 -0.860321 -4.12524 0
M  V30 3506 H 338.071 -0.0602155 -3.23644 0
M  V30 3507 H 336.978 -2.35407 -2.90748 0
M  V30 3508 H 338.311 -3.0819 -3.8377 0
M  V30 3509 N 339.963 1.05934 -1.16686 0
M  V30 3510 C 340.911 2.15603 -0.872817 0
M  V30 3511 C 341.905 1.68647 0.159576 0
M  V30 3512 O 343.111 1.79995 0.0132125 0
M  V30 3513 H 339.486 0.703885 -0.264671 0
M  V30 3514 H 341.457 2.37613 -1.80507 0
M  V30 3515 C 340.206 3.45457 -0.394344 0
M  V30 3516 H 339.529 3.81984 -1.18019 0
M  V30 3517 H 340.969 4.2339 -0.227408 0
M  V30 3518 C 339.428 3.25021 0.88673 0
M  V30 3519 O 339.958 3.50906 1.95519 0
M  V30 3520 N 338.164 2.78437 0.831925 0
M  V30 3521 H 337.711 2.57572 -0.0377619 0
M  V30 3522 H 337.669 2.65144 1.68956 0
M  V30 3523 N 341.441 0.965919 1.2453 0
M  V30 3524 C 342.687 0.62776 1.92839 0
M  V30 3525 C 343.02 -0.834694 1.75347 0
M  V30 3526 O 342.295 -1.60031 1.10546 0
M  V30 3527 C 342.578 1.00109 3.45905 0
M  V30 3528 C 342.431 2.52011 3.72573 0
M  V30 3529 C 343.75 0.53435 4.36844 0
M  V30 3530 H 340.869 0.229537 0.700344 0
M  V30 3531 H 343.511 1.2046 1.46933 0
M  V30 3532 H 341.661 0.510238 3.85135 0
M  V30 3533 H 343.333 3.08559 3.42912 0
M  V30 3534 H 341.576 2.95287 3.17786 0
M  V30 3535 H 342.247 2.73183 4.79661 0
M  V30 3536 H 344.723 0.955565 4.04979 0
M  V30 3537 H 343.599 0.824152 5.42678 0
M  V30 3538 H 343.86 -0.565589 4.38467 0
M  V30 3539 N 342.919 -1.39368 0.735821 0
M  V30 3540 C 343.882 -2.2896 0.104874 0
M  V30 3541 C 344.882 -1.46347 -0.666274 0
M  V30 3542 O 346.072 -1.67014 -0.49517 0
M  V30 3543 C 343.204 -3.29857 -0.860656 0
M  V30 3544 H 344.397 -2.86259 0.894205 0
M  V30 3545 H 341.95 -1.48029 0.501704 0
M  V30 3546 H 342.685 -2.77615 -1.67631 0
M  V30 3547 H 342.47 -3.9087 -0.310327 0
M  V30 3548 H 343.96 -3.96893 -1.29867 0
M  V30 3549 N 344.397 -0.483516 -1.5 0
M  V30 3550 C 345.643 0.0672592 -2.02688 0
M  V30 3551 C 345.976 1.38247 -1.36387 0
M  V30 3552 O 345.251 1.88131 -0.493675 0
M  V30 3553 C 345.534 0.238109 -3.59312 0
M  V30 3554 C 345.387 -1.099 -4.36168 0
M  V30 3555 C 346.706 0.986916 -4.28892 0
M  V30 3556 H 343.825 0.0229696 -0.736642 0
M  V30 3557 H 346.467 -0.631527 -1.79197 0
M  V30 3558 H 344.617 0.8333 -3.79458 0
M  V30 3559 H 346.289 -1.73172 -4.27562 0
M  V30 3560 H 344.532 -1.69261 -3.99416 0
M  V30 3561 H 345.203 -0.932954 -5.44059 0
M  V30 3562 H 347.679 0.482302 -4.13295 0
M  V30 3563 H 346.555 1.07527 -5.38265 0
M  V30 3564 H 346.816 2.0265 -3.92919 0
M  V30 3565 N 345.875 1.56104 -0.216619 0
M  V30 3566 C 346.822 2.2007 0.695531 0
M  V30 3567 C 347.792 1.15471 1.19397 0
M  V30 3568 O 348.977 1.43807 1.25396 0
M  V30 3569 C 346.117 2.88073 1.90021 0
M  V30 3570 C 345.23 4.07253 1.44113 0
M  V30 3571 C 344.365 4.63052 2.603 0
M  V30 3572 C 343.404 5.74545 2.11103 0
M  V30 3573 N 342.541 6.24656 3.20545 0
M  V30 3574 H 347.381 2.97655 0.143327 0
M  V30 3575 H 344.918 1.46982 0.0589934 0
M  V30 3576 H 346.876 3.25681 2.60745 0
M  V30 3577 H 345.506 2.13015 2.42538 0
M  V30 3578 H 344.558 3.75164 0.628999 0
M  V30 3579 H 345.87 4.8783 1.04036 0
M  V30 3580 H 345.024 5.03078 3.39113 0
M  V30 3581 H 343.763 3.81628 3.03663 0
M  V30 3582 H 342.768 5.34027 1.3075 0
M  V30 3583 H 343.993 6.57801 1.68746 0
M  V30 3584 H 341.939 5.46148 3.63399 0
M  V30 3585 H 341.856 7.00343 2.84704 0
M  V30 3586 H 343.124 6.69338 3.99508 0
M  V30 3587 N 347.353 -0.0568162 1.57498 0
M  V30 3588 C 348.602 -0.752001 1.87157 0
M  V30 3589 C 348.915 -1.77978 0.811375 0
M  V30 3590 O 350.121 -2.52559 0.996293 0
M  V30 3591 C 348.577 -1.38844 3.3204 0
M  V30 3592 C 348.185 -0.398456 4.46225 0
M  V30 3593 C 349.929 -2.06512 3.70882 0
M  V30 3594 C 347.836 -1.04166 5.82154 0
M  V30 3595 H 346.766 -0.28461 0.698222 0
M  V30 3596 H 349.417 -0.00561272 1.83499 0
M  V30 3597 H 347.799 -2.1836 3.30356 0
M  V30 3598 H 348.973 0.367977 4.59328 0
M  V30 3599 H 347.288 0.174592 4.16034 0
M  V30 3600 H 349.885 -2.55437 4.6974 0
M  V30 3601 H 350.228 -2.87117 3.01445 0
M  V30 3602 H 350.761 -1.33808 3.7462 0
M  V30 3603 H 347.5 -0.275614 6.5492 0
M  V30 3604 H 347.02 -1.7786 5.72823 0
M  V30 3605 H 348.699 -1.55715 6.27982 0
M  V30 3606 N 348.832 -1.54138 -0.328536 0
M  V30 3607 C 350.079 -1.72105 -1.06706 0
M  V30 3608 C 350.407 -0.492111 -1.88171 0
M  V30 3609 O 349.662 0.526153 -1.88494 0
M  V30 3610 C 349.961 -2.9457 -2.02393 0
M  V30 3611 C 349.627 -4.29544 -1.37122 0
M  V30 3612 C 348.289 -4.6624 -1.19052 0
M  V30 3613 C 350.641 -5.1333 -0.902331 0
M  V30 3614 C 347.969 -5.84325 -0.527331 0
M  V30 3615 C 350.321 -6.32094 -0.252988 0
M  V30 3616 C 348.985 -6.67473 -0.0600901 0
M  V30 3617 H 348.255 -0.629775 -0.390466 0
M  V30 3618 H 350.902 -1.88372 -0.34473 0
M  V30 3619 H 349.207 -2.72969 -2.81061 0
M  V30 3620 H 350.904 -3.05665 -2.59557 0
M  V30 3621 H 347.494 -4.0067 -1.52188 0
M  V30 3622 H 351.678 -4.855 -1.02974 0
M  V30 3623 H 346.934 -6.103 -0.366634 0
M  V30 3624 H 351.108 -6.96299 0.118366 0
M  V30 3625 H 348.735 -7.58832 0.455828 0
M  V30 3626 N 350.31 0.590341 -1.46126 0
M  V30 3627 C 351.535 1.37991 -1.54833 0
M  V30 3628 C 351.96 1.87163 -0.187506 0
M  V30 3629 O 351.318 1.61133 0.831008 0
M  V30 3630 C 351.366 2.54867 -2.55098 0
M  V30 3631 O 350.47 3.56061 -2.08073 0
M  V30 3632 H 349.811 0.411265 -0.521303 0
M  V30 3633 H 352.341 0.716819 -1.91632 0
M  V30 3634 H 352.351 3.01886 -2.74461 0
M  V30 3635 H 351.026 2.18429 -3.53923 0
M  V30 3636 H 349.603 3.15574 -1.98664 0
M  V30 3637 N 351.788 1.33704 0.83433 0
M  V30 3638 C 353.013 1.28615 1.62705 0
M  V30 3639 C 353.438 -0.139242 1.87584 0
M  V30 3640 O 352.796 -1.09734 1.4432 0
M  V30 3641 C 352.844 2.07139 2.95171 0
M  V30 3642 O 351.948 1.4331 3.86699 0
M  V30 3643 H 351.289 0.44226 0.49528 0
M  V30 3644 H 353.819 1.76335 1.03766 0
M  V30 3645 H 353.829 2.18073 3.44831 0
M  V30 3646 H 352.504 3.10779 2.76386 0
M  V30 3647 H 351.081 1.4105 3.45195 0
M  V30 3648 N 353.266 -1.05314 1.17247 0
M  V30 3649 C 354.682 -1.30452 0.919473 0
M  V30 3650 C 354.882 -1.9703 -0.42209 0
M  V30 3651 O 353.938 -2.24311 -1.15935 0
M  V30 3652 C 355.251 -2.17551 2.07586 0
M  V30 3653 C 356.799 -2.30937 2.11275 0
M  V30 3654 C 357.274 -3.21396 3.26296 0
M  V30 3655 N 358.765 -3.28981 3.26076 0
M  V30 3656 C 359.5 -3.99095 4.11716 0
M  V30 3657 N 358.996 -4.71648 5.07465 0
M  V30 3658 N 360.789 -3.95247 3.9967 0
M  V30 3659 H 352.94 -0.604988 2.03602 0
M  V30 3660 H 355.203 -0.329368 0.888944 0
M  V30 3661 H 354.909 -1.75921 3.0454 0
M  V30 3662 H 354.783 -3.18182 2.02584 0
M  V30 3663 H 357.17 -2.71809 1.14907 0
M  V30 3664 H 357.251 -1.2994 2.20339 0
M  V30 3665 H 356.895 -2.81238 4.22927 0
M  V30 3666 H 356.825 -4.22395 3.14467 0
M  V30 3667 H 359.316 -2.77286 2.5675 0
M  V30 3668 H 359.629 -5.22705 5.6921 0
M  V30 3669 H 357.974 -4.70594 5.11435 0
M  V30 3670 H 361.165 -3.37691 3.24164 0
M  V30 3671 H 361.338 -4.4962 4.66632 0
M  V30 3672 N 354.744 -0.972509 -1.24016 0
M  V30 3673 C 356.021 -0.553733 -1.87598 0
M  V30 3674 C 356.401 0.969158 -1.87538 0
M  V30 3675 O 355.749 1.84255 -1.35139 0
M  V30 3676 C 355.959 -1.15076 -3.29482 0
M  V30 3677 C 357.307 -1.23862 -4.06132 0
M  V30 3678 O 358.331 -1.10363 -3.38672 0
M  V30 3679 O 357.19 -1.45252 -5.26844 0
M  V30 3680 H 354.284 -0.185331 -0.805966 0
M  V30 3681 H 356.83 -1.06709 -1.31952 0
M  V30 3682 H 355.602 -2.19333 -3.2405 0
M  V30 3683 H 355.225 -0.621746 -3.92709 0
M  V30 3684 N 356.222 1.38976 -0.743202 0
M  V30 3685 C 357.132 2.3434 -0.110399 0
M  V30 3686 C 358.148 1.58741 0.712559 0
M  V30 3687 O 359.324 1.9099 0.639125 0
M  V30 3688 C 356.389 3.37812 0.780012 0
M  V30 3689 C 355.45 4.29263 -0.0561319 0
M  V30 3690 C 354.683 5.27793 0.791875 0
M  V30 3691 O 354.906 5.33043 2.03031 0
M  V30 3692 O 353.84 6.01512 0.216183 0
M  V30 3693 H 357.666 2.90129 -0.897714 0
M  V30 3694 H 355.251 1.40643 -0.503966 0
M  V30 3695 H 357.133 4.01194 1.28923 0
M  V30 3696 H 355.808 2.84395 1.546 0
M  V30 3697 H 354.715 3.69076 -0.611056 0
M  V30 3698 H 356.048 4.85907 -0.784531 0
M  V30 3699 N 357.7 0.491464 1.49741 0
M  V30 3700 C 358.647 -0.292027 2.28945 0
M  V30 3701 C 359.617 -0.968973 1.34908 0
M  V30 3702 O 360.802 -0.97748 1.6386 0
M  V30 3703 C 357.942 -1.35617 3.17336 0
M  V30 3704 C 357.055 -0.691957 4.26422 0
M  V30 3705 C 356.19 -1.73572 5.02042 0
M  V30 3706 C 355.229 -1.05286 6.02977 0
M  V30 3707 N 354.366 -2.0404 6.71798 0
M  V30 3708 H 359.206 0.389654 2.95442 0
M  V30 3709 H 356.743 0.204003 1.45679 0
M  V30 3710 H 358.701 -1.98502 3.66951 0
M  V30 3711 H 357.331 -2.00674 2.52844 0
M  V30 3712 H 356.383 0.0499523 3.80367 0
M  V30 3713 H 357.695 -0.153946 4.98562 0
M  V30 3714 H 356.849 -2.43987 5.55478 0
M  V30 3715 H 355.588 -2.30757 4.29654 0
M  V30 3716 H 354.593 -0.334446 5.48782 0
M  V30 3717 H 355.818 -0.487636 6.77347 0
M  V30 3718 H 353.764 -2.60205 6.02187 0
M  V30 3719 H 353.681 -1.55279 7.39881 0
M  V30 3720 H 354.949 -2.73772 7.29842 0
M  V30 3721 N 359.178 -1.55987 0.224894 0
M  V30 3722 C 360.403 -2.03232 -0.41369 0
M  V30 3723 C 360.828 -1.10359 -1.52323 0
M  V30 3724 O 360.186 -0.092395 -1.81064 0
M  V30 3725 C 360.234 -3.48682 -0.919405 0
M  V30 3726 O 359.338 -3.58947 -2.03054 0
M  V30 3727 H 358.679 -0.657428 -0.0931903 0
M  V30 3728 H 361.209 -2.01679 0.34451 0
M  V30 3729 H 361.219 -3.8907 -1.22835 0
M  V30 3730 H 359.894 -4.15761 -0.107339 0
M  V30 3731 H 358.471 -3.30448 -1.72796 0
M  V30 3732 N 360.656 0.0484629 -1.57525 0
M  V30 3733 C 361.902 0.738854 -1.89506 0
M  V30 3734 C 362.257 1.73989 -0.821319 0
M  V30 3735 O 361.55 1.90825 0.172129 0
M  V30 3736 C 361.744 1.46632 -3.25935 0
M  V30 3737 C 361.573 0.537254 -4.46479 0
M  V30 3738 C 360.343 0.165484 -5.05029 0
M  V30 3739 C 362.541 -0.176085 -5.13998 0
M  V30 3740 N 360.523 -0.766868 -6.09091 0
M  V30 3741 C 361.894 -0.96478 -6.12448 0
M  V30 3742 C 363.949 -0.24509 -4.97296 0
M  V30 3743 C 362.652 -1.8161 -6.95996 0
M  V30 3744 C 364.678 -1.08347 -5.81391 0
M  V30 3745 C 364.04 -1.86014 -6.79395 0
M  V30 3746 H 360.139 0.245067 -0.742608 0
M  V30 3747 H 362.723 -0.000476161 -1.947 0
M  V30 3748 H 360.894 2.17623 -3.21706 0
M  V30 3749 H 362.626 2.10757 -3.45491 0
M  V30 3750 H 359.381 0.523466 -4.70698 0
M  V30 3751 H 359.805 -1.22698 -6.65788 0
M  V30 3752 H 364.447 0.341063 -4.21422 0
M  V30 3753 H 362.165 -2.41313 -7.71229 0
M  V30 3754 H 365.751 -1.14014 -5.70519 0
M  V30 3755 H 364.631 -2.4984 -7.43337 0
M  V30 3756 N 362.134 1.5431 0.320358 0
M  V30 3757 C 363.381 1.72668 1.05792 0
M  V30 3758 C 363.709 0.502084 1.87908 0
M  V30 3759 O 362.964 -0.516149 1.88771 0
M  V30 3760 C 363.263 2.95639 2.00828 0
M  V30 3761 C 362.929 4.30265 1.34843 0
M  V30 3762 C 361.591 4.66865 1.16578 0
M  V30 3763 C 363.943 5.13801 0.875095 0
M  V30 3764 C 361.271 5.84597 0.496336 0
M  V30 3765 C 363.623 6.32219 0.219463 0
M  V30 3766 C 362.287 6.67495 0.0246915 0
M  V30 3767 H 361.557 0.631837 0.387121 0
M  V30 3768 H 364.204 1.88552 0.334735 0
M  V30 3769 H 362.509 2.74456 2.79609 0
M  V30 3770 H 364.206 3.07038 2.57932 0
M  V30 3771 H 360.796 4.01472 1.50061 0
M  V30 3772 H 364.98 4.86039 1.00398 0
M  V30 3773 H 360.236 6.10486 0.334264 0
M  V30 3774 H 364.41 6.96227 -0.155291 0
M  V30 3775 H 362.037 7.5858 -0.496065 0
M  V30 3776 N 363.613 -0.582584 1.46437 0
M  V30 3777 C 365.029 -0.905962 1.31394 0
M  V30 3778 C 365.229 -1.99468 0.285476 0
M  V30 3779 O 364.285 -2.50566 -0.311914 0
M  V30 3780 C 365.598 -1.3232 2.70022 0
M  V30 3781 C 367.146 -1.43604 2.78113 0
M  V30 3782 C 367.621 -1.88694 4.17323 0
M  V30 3783 N 369.112 -1.95887 4.19741 0
M  V30 3784 C 369.847 -2.32051 5.24347 0
M  V30 3785 N 369.343 -2.67006 6.39281 0
M  V30 3786 N 371.136 -2.32606 5.11713 0
M  V30 3787 H 363.287 0.1366 2.1196 0
M  V30 3788 H 365.55 -0.00155736 0.947999 0
M  V30 3789 H 365.256 -0.597242 3.46592 0
M  V30 3790 H 365.13 -2.28469 3.00136 0
M  V30 3791 H 367.517 -2.15286 2.01832 0
M  V30 3792 H 367.598 -0.457059 2.51684 0
M  V30 3793 H 367.242 -1.1759 4.941 0
M  V30 3794 H 367.172 -2.8755 4.4116 0
M  V30 3795 H 369.663 -1.71362 3.36814 0
M  V30 3796 H 369.976 -2.93554 7.14875 0
M  V30 3797 H 368.321 -2.64644 6.42642 0
M  V30 3798 H 371.512 -2.04721 4.2096 0
M  V30 3799 H 371.685 -2.60462 5.93349 0
M  V30 3800 N 365.091 -1.34144 -0.827227 0
M  V30 3801 C 366.001 -1.27428 -1.96975 0
M  V30 3802 C 367.017 -0.182728 -1.73038 0
M  V30 3803 O 368.193 -0.408426 -1.97215 0
M  V30 3804 C 365.258 -1.02526 -3.31194 0
M  V30 3805 C 364.319 -2.20796 -3.68168 0
M  V30 3806 C 363.552 -1.97073 -4.95982 0
M  V30 3807 O 363.775 -0.926822 -5.6282 0
M  V30 3808 O 362.709 -2.83912 -5.30733 0
M  V30 3809 H 366.535 -2.23537 -2.05584 0
M  V30 3810 H 364.12 -1.14307 -0.961989 0
M  V30 3811 H 366.002 -0.904026 -4.11589 0
M  V30 3812 H 364.677 -0.0945389 -3.23562 0
M  V30 3813 H 363.584 -2.38477 -2.88235 0
M  V30 3814 H 364.917 -3.12243 -3.8048 0
M  V30 3815 N 366.569 1.04691 -1.17803 0
M  V30 3816 C 367.797 1.81446 -0.99423 0
M  V30 3817 C 368.212 1.83174 0.457459 0
M  V30 3818 O 367.569 1.26265 1.31771 0
M  V30 3819 C 367.62 3.27334 -1.5341 0
M  V30 3820 O 367.341 3.25798 -2.92895 0
M  V30 3821 C 368.842 4.20759 -1.39559 0
M  V30 3822 H 366.062 0.571599 -0.351447 0
M  V30 3823 H 368.606 1.31982 -1.56208 0
M  V30 3824 H 366.761 3.74052 -1.00815 0
M  V30 3825 H 367.175 4.17144 -3.17949 0
M  V30 3826 H 368.649 5.21084 -1.82141 0
M  V30 3827 H 369.126 4.37856 -0.343394 0
M  V30 3828 H 369.732 3.79901 -1.91195 0
M  V30 3829 N 368.047 0.979072 1.23499 0
M  V30 3830 C 368.957 0.526431 2.28617 0
M  V30 3831 C 369.973 -0.418126 1.68901 0
M  V30 3832 O 371.149 -0.288372 1.99325 0
M  V30 3833 C 368.214 -0.165235 3.46306 0
M  V30 3834 C 367.275 0.82056 4.21385 0
M  V30 3835 C 366.508 0.161807 5.33455 0
M  V30 3836 O 366.731 -1.04742 5.60701 0
M  V30 3837 O 365.665 0.859708 5.95729 0
M  V30 3838 H 369.491 1.4006 2.69475 0
M  V30 3839 H 367.076 0.746643 1.29405 0
M  V30 3840 H 368.958 -0.553287 4.17752 0
M  V30 3841 H 367.633 -1.01419 3.07402 0
M  V30 3842 H 366.54 1.25929 3.52268 0
M  V30 3843 H 367.873 1.63828 4.64135 0
M  V30 3844 N 369.525 -1.3858 0.750561 0
M  V30 3845 C 370.455 -2.33102 0.136237 0
M  V30 3846 C 371.436 -1.54713 -0.706965 0
M  V30 3847 O 372.621 -1.83043 -0.648769 0
M  V30 3848 C 369.751 -3.38882 -0.760017 0
M  V30 3849 C 368.705 -4.27995 -0.0197785 0
M  V30 3850 C 368.031 -5.24605 -1.03408 0
M  V30 3851 C 369.331 -5.09554 1.14684 0
M  V30 3852 H 371.025 -2.84726 0.925822 0
M  V30 3853 H 368.571 -1.36898 0.446654 0
M  V30 3854 H 370.524 -4.0397 -1.19943 0
M  V30 3855 H 369.248 -2.85734 -1.58189 0
M  V30 3856 H 367.907 -3.64409 0.400184 0
M  V30 3857 H 367.555 -4.67746 -1.84994 0
M  V30 3858 H 367.255 -5.85081 -0.543464 0
M  V30 3859 H 368.779 -5.9257 -1.47288 0
M  V30 3860 H 370.193 -5.67899 0.785118 0
M  V30 3861 H 368.59 -5.7925 1.56812 0
M  V30 3862 H 369.66 -4.4347 1.96118 0
M  V30 3863 N 371.003 -0.499398 -1.49478 0
M  V30 3864 C 372.233 0.0424839 -2.06556 0
M  V30 3865 C 372.641 1.31514 -1.36018 0
M  V30 3866 O 371.984 1.78555 -0.431718 0
M  V30 3867 C 372.046 0.368074 -3.57611 0
M  V30 3868 C 371.71 -0.806631 -4.49825 0
M  V30 3869 C 372.707 -1.69667 -4.91436 0
M  V30 3870 C 370.392 -1.00498 -4.92144 0
M  V30 3871 C 372.386 -2.76923 -5.74101 0
M  V30 3872 C 370.073 -2.08072 -5.74586 0
M  V30 3873 C 371.071 -2.96119 -6.15469 0
M  V30 3874 O 370.759 -4.01836 -6.96264 0
M  V30 3875 H 370.491 -0.0165165 -0.675798 0
M  V30 3876 H 373.045 -0.695497 -1.93267 0
M  V30 3877 H 371.275 1.15963 -3.68903 0
M  V30 3878 H 372.964 0.848381 -3.96935 0
M  V30 3879 H 373.73 -1.55524 -4.59388 0
M  V30 3880 H 369.609 -0.329036 -4.59824 0
M  V30 3881 H 373.153 -3.45676 -6.05932 0
M  V30 3882 H 369.05 -2.22211 -6.06047 0
M  V30 3883 H 369.818 -3.9917 -7.14567 0
M  V30 3884 N 372.481 1.55866 -0.233164 0
M  V30 3885 C 373.429 2.22176 0.68851 0
M  V30 3886 C 374.423 1.20487 1.19076 0
M  V30 3887 O 375.629 1.38536 1.14925 0
M  V30 3888 H 372.004 0.712511 0.240483 0
M  V30 3889 H 373.975 2.98212 0.105935 0
M  V30 3890 C 372.724 2.92446 1.88071 0
M  V30 3891 H 372.047 3.70458 1.50337 0
M  V30 3892 H 373.487 3.42226 2.50314 0
M  V30 3893 C 371.946 1.95555 2.74335 0
M  V30 3894 O 372.476 1.47986 3.73447 0
M  V30 3895 N 370.682 1.62953 2.40613 0
M  V30 3896 H 370.229 2.01831 1.60069 0
M  V30 3897 H 370.187 0.983886 2.98609 0
M  V30 3898 N 373.959 -0.0401083 1.57549 0
M  V30 3899 C 375.187 -0.745196 1.93014 0
M  V30 3900 C 375.602 -1.6948 0.831984 0
M  V30 3901 O 374.959 -1.81482 -0.192463 0
M  V30 3902 C 375.01 -1.51176 3.28372 0
M  V30 3903 O 374.731 -0.600284 4.33968 0
M  V30 3904 C 376.232 -2.315 3.78051 0
M  V30 3905 H 373.452 -0.210088 0.637263 0
M  V30 3906 H 375.996 -0.000924689 2.045 0
M  V30 3907 H 374.151 -2.20801 3.18317 0
M  V30 3908 H 374.565 -1.13669 5.12035 0
M  V30 3909 H 376.039 -2.80697 4.75303 0
M  V30 3910 H 376.516 -3.12436 3.08675 0
M  V30 3911 H 377.122 -1.66971 3.91153 0
M  V30 3912 N 375.437 -1.54477 -0.31217 0
M  V30 3913 C 376.683 -1.73483 -1.0503 0
M  V30 3914 C 377.016 -0.513125 -1.87298 0
M  V30 3915 O 376.291 0.489864 -1.8823 0
M  V30 3916 C 376.574 -3.01723 -1.96558 0
M  V30 3917 C 376.427 -4.3417 -1.17545 0
M  V30 3918 C 377.746 -3.25772 -2.95907 0
M  V30 3919 H 374.865 -0.631222 -0.380432 0
M  V30 3920 H 377.507 -1.87184 -0.325932 0
M  V30 3921 H 375.657 -2.90174 -2.58324 0
M  V30 3922 H 377.329 -4.5762 -0.581513 0
M  V30 3923 H 375.572 -4.31159 -0.477925 0
M  V30 3924 H 376.243 -5.20143 -1.84811 0
M  V30 3925 H 378.719 -3.36857 -2.44267 0
M  V30 3926 H 377.595 -4.16838 -3.57123 0
M  V30 3927 H 377.856 -2.43537 -3.68974 0
M  V30 3928 N 376.915 0.57481 -1.46744 0
M  V30 3929 C 377.848 1.69827 -1.52427 0
M  V30 3930 C 378.826 1.58151 -0.377744 0
M  V30 3931 O 380.01 1.79257 -0.58303 0
M  V30 3932 C 377.137 3.07943 -1.41027 0
M  V30 3933 C 376.183 3.38116 -2.59961 0
M  V30 3934 S 377.016 3.29313 -4.22272 0
M  V30 3935 C 378.172 4.69953 -4.13394 0
M  V30 3936 H 378.405 1.64748 -2.47478 0
M  V30 3937 H 375.938 0.754203 -1.34726 0
M  V30 3938 H 377.896 3.87619 -1.35137 0
M  V30 3939 H 376.557 3.10504 -0.473909 0
M  V30 3940 H 375.75 4.38762 -2.47999 0
M  V30 3941 H 375.352 2.66024 -2.62882 0
M  V30 3942 H 377.644 5.60517 -3.80562 0
M  V30 3943 H 378.587 4.86972 -5.14066 0
M  V30 3944 H 378.995 4.47174 -3.44522 0
M  V30 3945 N 378.394 1.34581 0.820102 0
M  V30 3946 C 379.324 1.29038 1.94606 0
M  V30 3947 C 380.305 0.1673 1.69275 0
M  V30 3948 O 381.49 0.360112 1.90832 0
M  V30 3949 C 378.62 1.04793 3.31113 0
M  V30 3950 C 377.574 2.13597 3.70891 0
M  V30 3951 C 376.9 1.74537 5.05412 0
M  V30 3952 C 378.2 3.55451 3.8269 0
M  V30 3953 H 379.894 2.23248 1.99501 0
M  V30 3954 H 377.44 1.0747 0.958449 0
M  V30 3955 H 379.393 0.995592 4.0947 0
M  V30 3956 H 378.117 0.0702565 3.26524 0
M  V30 3957 H 376.776 2.17905 2.9481 0
M  V30 3958 H 376.424 0.754226 4.97313 0
M  V30 3959 H 376.124 2.47361 5.32997 0
M  V30 3960 H 377.648 1.70803 5.86224 0
M  V30 3961 H 379.062 3.5354 4.51312 0
M  V30 3962 H 377.459 4.26922 4.21732 0
M  V30 3963 H 378.529 3.92587 2.84611 0
M  V30 3964 N 379.872 -1.04064 1.18357 0
M  V30 3965 C 381.288 -1.2947 0.933258 0
M  V30 3966 C 381.488 -1.97466 -0.401169 0
M  V30 3967 O 380.544 -2.25528 -1.13549 0
M  V30 3968 C 381.857 -2.15337 2.09882 0
M  V30 3969 C 383.405 -2.28683 2.13712 0
M  V30 3970 C 383.88 -3.17917 3.29686 0
M  V30 3971 N 385.371 -3.25504 3.29547 0
M  V30 3972 C 386.106 -3.94706 4.15926 0
M  V30 3973 N 385.602 -4.66239 5.12439 0
M  V30 3974 N 387.395 -3.90986 4.0384 0
M  V30 3975 H 379.546 -0.583359 2.04232 0
M  V30 3976 H 381.809 -0.319921 0.892387 0
M  V30 3977 H 381.515 -1.72682 3.06389 0
M  V30 3978 H 381.389 -3.16015 2.05947 0
M  V30 3979 H 383.776 -2.70575 1.17784 0
M  V30 3980 H 383.857 -1.27596 2.21705 0
M  V30 3981 H 383.501 -2.76736 4.25887 0
M  V30 3982 H 383.431 -4.19036 3.1893 0
M  V30 3983 H 385.922 -2.74547 2.59677 0
M  V30 3984 H 386.235 -5.16638 5.74722 0
M  V30 3985 H 384.58 -4.65143 5.16398 0
M  V30 3986 H 387.771 -3.34234 3.27727 0
M  V30 3987 H 387.944 -4.44646 4.71375 0
M  V30 3988 N 381.35 -0.985608 -1.22978 0
M  V30 3989 C 382.3 -0.50118 -2.22423 0
M  V30 3990 C 383.284 0.426649 -1.5514 0
M  V30 3991 O 384.476 0.254656 -1.75159 0
M  V30 3992 C 381.605 0.190003 -3.42774 0
M  V30 3993 C 380.691 -0.757703 -4.17276 0
M  V30 3994 N 381.082 -1.90251 -4.68656 0
M  V30 3995 C 379.38 -0.57209 -4.42316 0
M  V30 3996 C 380.081 -2.49676 -5.25392 0
M  V30 3997 N 379.057 -1.78013 -5.13627 0
M  V30 3998 H 382.859 -1.37441 -2.59783 0
M  V30 3999 H 380.373 -0.846941 -1.38567 0
M  V30 4000 H 382.37 0.55439 -4.13197 0
M  V30 4001 H 381.03 1.05946 -3.06929 0
M  V30 4002 H 382.041 -2.28354 -4.64839 0
M  V30 4003 H 378.718 0.251909 -4.16739 0
M  V30 4004 H 380.108 -3.46384 -5.75732 0
M  V30 4005 N 382.828 1.3818 -0.7579 0
M  V30 4006 C 383.738 2.3421 -0.135247 0
M  V30 4007 C 384.754 1.59487 0.695683 0
M  V30 4008 O 385.93 1.91657 0.618832 0
M  V30 4009 C 382.995 3.3862 0.744139 0
M  V30 4010 C 382.056 4.2918 -0.101658 0
M  V30 4011 C 381.289 5.28603 0.735851 0
M  V30 4012 O 381.512 5.35166 1.97366 0
M  V30 4013 O 380.446 6.01707 0.152372 0
M  V30 4014 H 384.272 2.8916 -0.928436 0
M  V30 4015 H 381.857 1.40101 -0.518855 0
M  V30 4016 H 383.739 4.02539 1.2466 0
M  V30 4017 H 382.414 2.86019 1.51575 0
M  V30 4018 H 381.321 3.68407 -0.650167 0
M  V30 4019 H 382.654 4.85048 -0.836024 0
M  V30 4020 N 384.306 0.507319 1.49211 0
M  V30 4021 C 385.254 -0.281364 2.30892 0
M  V30 4022 C 386.248 -0.95687 1.39787 0
M  V30 4023 O 387.454 -0.883838 1.56807 0
M  V30 4024 H 383.829 -0.109597 0.743971 0
M  V30 4025 H 385.8 0.42744 2.95323 0
M  V30 4026 C 384.549 -1.32918 3.21291 0
M  V30 4027 H 383.872 -0.818799 3.91326 0
M  V30 4028 H 385.312 -1.85288 3.81372 0
M  V30 4029 C 383.771 -2.35074 2.41333 0
M  V30 4030 O 384.301 -3.4108 2.12197 0
M  V30 4031 N 382.507 -2.07705 2.03241 0
M  V30 4032 H 382.054 -1.2152 2.27136 0
M  V30 4033 H 382.012 -2.76283 1.50051 0
M  V30 4034 N 385.784 -1.5574 0.241426 0
M  V30 4035 C 387.033 -1.97986 -0.385295 0
M  V30 4036 C 387.346 -1.13267 -1.59468 0
M  V30 4037 O 388.552 -1.45501 -2.2922 0
M  V30 4038 C 387.008 -3.52275 -0.736884 0
M  V30 4039 C 386.616 -4.45726 0.450796 0
M  V30 4040 C 388.36 -4.03189 -1.3281 0
M  V30 4041 C 386.267 -5.91352 0.0756662 0
M  V30 4042 H 385.197 -0.739386 -0.147731 0
M  V30 4043 H 387.848 -1.80308 0.340779 0
M  V30 4044 H 386.23 -3.65628 -1.52094 0
M  V30 4045 H 387.404 -4.44131 1.22819 0
M  V30 4046 H 385.719 -4.05264 0.956573 0
M  V30 4047 H 388.316 -5.09505 -1.62201 0
M  V30 4048 H 388.659 -3.50212 -2.25071 0
M  V30 4049 H 389.192 -3.93141 -0.607069 0
M  V30 4050 H 385.931 -6.48354 0.965272 0
M  V30 4051 H 385.451 -5.96095 -0.665635 0
M  V30 4052 H 387.13 -6.46084 -0.344075 0
M  V30 4053 N 387.262 0.0317525 -1.57568 0
M  V30 4054 C 388.192 1.03274 -2.0942 0
M  V30 4055 C 389.173 1.3788 -0.996143 0
M  V30 4056 O 390.358 1.46811 -1.27122 0
M  V30 4057 C 387.488 2.33448 -2.57137 0
M  V30 4058 C 386.442 2.13091 -3.71182 0
M  V30 4059 C 385.768 3.49001 -4.05095 0
M  V30 4060 C 387.068 1.51928 -4.99715 0
M  V30 4061 H 388.762 0.60112 -2.93303 0
M  V30 4062 H 386.308 0.287705 -1.41097 0
M  V30 4063 H 388.261 3.03802 -2.92032 0
M  V30 4064 H 386.985 2.78665 -1.70333 0
M  V30 4065 H 385.644 1.45171 -3.36632 0
M  V30 4066 H 385.292 3.91862 -3.15362 0
M  V30 4067 H 384.992 3.36207 -4.81911 0
M  V30 4068 H 386.516 4.20721 -4.42522 0
M  V30 4069 H 387.93 2.12196 -5.32584 0
M  V30 4070 H 386.327 1.49716 -5.81124 0
M  V30 4071 H 387.397 0.484811 -4.8247 0
M  V30 4072 N 388.74 1.54641 0.303973 0
M  V30 4073 C 389.988 1.73437 1.0375 0
M  V30 4074 C 390.309 0.521449 1.87899 0
M  V30 4075 O 389.579 -0.46432 1.90318 0
M  V30 4076 H 388.159 0.639518 0.386039 0
M  V30 4077 H 390.821 1.91988 0.335675 0
M  V30 4078 H 389.917 2.62235 1.69231 0
M  V30 4079 N 390.218 -0.567019 1.47046 0
M  V30 4080 C 391.465 -1.32462 1.53167 0
M  V30 4081 C 391.793 -1.93571 0.189841 0
M  V30 4082 O 391.048 -1.77865 -0.816243 0
M  V30 4083 C 391.347 -2.4623 2.59047 0
M  V30 4084 C 391.013 -2.03014 4.02612 0
M  V30 4085 C 389.675 -1.90944 4.41694 0
M  V30 4086 C 392.027 -1.69895 4.92732 0
M  V30 4087 C 389.355 -1.44035 5.68745 0
M  V30 4088 C 391.707 -1.2446 6.20236 0
M  V30 4089 C 390.371 -1.10979 6.5821 0
M  V30 4090 H 389.641 -0.484713 0.560477 0
M  V30 4091 H 392.288 -0.636888 1.80599 0
M  V30 4092 H 390.593 -3.20517 2.25335 0
M  V30 4093 H 392.29 -3.04427 2.61008 0
M  V30 4094 H 388.88 -2.13348 3.71726 0
M  V30 4095 H 393.064 -1.78098 4.63244 0
M  V30 4096 H 388.32 -1.32254 5.96925 0
M  V30 4097 H 392.494 -0.978924 6.89485 0
M  V30 4098 H 390.121 -0.744078 7.5655 0
M  V30 4099 N 391.696 -1.35014 -0.812953 0
M  V30 4100 C 392.945 -1.27269 -1.56479 0
M  V30 4101 C 393.258 0.152771 -1.95002 0
M  V30 4102 O 394.464 0.352451 -2.69203 0
M  V30 4103 C 392.92 -2.23159 -2.82362 0
M  V30 4104 C 392.528 -3.71016 -2.511 0
M  V30 4105 C 394.272 -2.24342 -3.60376 0
M  V30 4106 C 392.179 -4.58746 -3.73237 0
M  V30 4107 H 391.109 -0.472829 -0.587324 0
M  V30 4108 H 393.76 -1.6024 -0.894171 0
M  V30 4109 H 392.142 -1.83151 -3.51101 0
M  V30 4110 H 393.316 -4.1962 -1.90409 0
M  V30 4111 H 391.631 -3.72378 -1.86343 0
M  V30 4112 H 394.228 -2.87107 -4.51081 0
M  V30 4113 H 394.571 -1.24542 -3.97234 0
M  V30 4114 H 395.104 -2.62846 -2.98591 0
M  V30 4115 H 391.843 -5.59521 -3.41492 0
M  V30 4116 H 391.363 -4.14871 -4.33176 0
M  V30 4117 H 393.042 -4.73852 -4.40537 0
M  V30 4118 N 393.175 1.03435 -1.18907 0
M  V30 4119 C 394.138 2.09756 -0.923844 0
M  V30 4120 C 395.138 1.60528 0.093416 0
M  V30 4121 O 396.328 1.73631 -0.140727 0
M  V30 4122 C 393.46 3.38692 -0.387354 0
M  V30 4123 H 394.653 2.34719 -1.86674 0
M  V30 4124 H 392.206 1.19959 -1.00197 0
M  V30 4125 H 392.941 3.19396 0.561845 0
M  V30 4126 H 392.726 3.75742 -1.12074 0
M  V30 4127 H 394.216 4.17016 -0.220694 0
M  V30 4128 N 394.653 0.992116 1.22453 0
M  V30 4129 C 395.878 0.685644 1.95739 0
M  V30 4130 C 396.303 -0.743 1.72804 0
M  V30 4131 O 395.661 -1.50778 1.00676 0
M  V30 4132 C 395.709 0.996293 3.46564 0
M  V30 4133 O 394.813 0.0945512 4.12292 0
M  V30 4134 H 394.154 0.256694 0.612376 0
M  V30 4135 H 396.684 1.32888 1.5557 0
M  V30 4136 H 396.694 0.93781 3.97076 0
M  V30 4137 H 395.369 2.03733 3.62582 0
M  V30 4138 H 393.946 0.208451 3.72317 0
M  V30 4139 N 396.131 -1.37776 0.765217 0
M  V30 4140 C 397.408 -1.93975 0.251596 0
M  V30 4141 C 397.788 -1.69949 -1.25222 0
M  V30 4142 O 397.136 -1.04457 -2.03226 0
M  V30 4143 C 397.346 -3.43487 0.617895 0
M  V30 4144 C 398.694 -4.20564 0.584029 0
M  V30 4145 O 399.718 -3.5182 0.556888 0
M  V30 4146 O 398.577 -5.43138 0.605291 0
M  V30 4147 H 395.671 -0.82509 0.0561806 0
M  V30 4148 H 398.217 -1.47101 0.846128 0
M  V30 4149 H 396.989 -3.5453 1.65602 0
M  V30 4150 H 396.612 -3.976 -0.00403411 0
M  V30 4151 N 397.609 -0.515225 -1.4894 0
M  V30 4152 C 398.542 0.302518 -2.26186 0
M  V30 4153 C 399.52 0.957895 -1.31389 0
M  V30 4154 O 400.704 0.985198 -1.60705 0
M  V30 4155 C 397.831 1.42719 -3.07163 0
M  V30 4156 C 396.877 0.884736 -4.17223 0
M  V30 4157 S 397.71 -0.235767 -5.34981 0
M  V30 4158 C 398.866 0.891731 -6.19515 0
M  V30 4159 H 399.099 -0.353076 -2.95196 0
M  V30 4160 H 396.632 -0.300753 -1.51443 0
M  V30 4161 H 398.59 2.07152 -3.54398 0
M  V30 4162 H 397.251 2.05445 -2.37595 0
M  V30 4163 H 396.444 1.72801 -4.73451 0
M  V30 4164 H 396.046 0.317362 -3.72651 0
M  V30 4165 H 398.338 1.79377 -6.53322 0
M  V30 4166 H 399.281 0.367751 -7.07144 0
M  V30 4167 H 399.689 1.16548 -5.52338 0
M  V30 4168 N 399.087 1.5561 -0.249682 0
M  V30 4169 C 400.315 2.03411 0.378352 0
M  V30 4170 C 400.73 1.12886 1.51335 0
M  V30 4171 O 400.087 0.143833 1.81932 0
M  V30 4172 C 400.138 3.50537 0.88351 0
M  V30 4173 O 399.859 4.37614 -0.20626 0
M  V30 4174 C 401.36 4.14113 1.58195 0
M  V30 4175 H 398.58 0.664994 0.08958 0
M  V30 4176 H 401.124 2.01044 -0.374357 0
M  V30 4177 H 399.279 3.5343 1.58639 0
M  V30 4178 H 399.693 5.24199 0.177782 0
M  V30 4179 H 401.167 5.18741 1.8871 0
M  V30 4180 H 401.644 3.60767 2.50487 0
M  V30 4181 H 402.25 4.15151 0.923573 0
M  V30 4182 N 400.565 -0.0233959 1.57583 0
M  V30 4183 C 401.79 -0.728376 1.94189 0
M  V30 4184 C 402.215 -1.67793 0.850119 0
M  V30 4185 O 401.573 -1.80262 -0.19371 0
M  V30 4186 C 401.621 -1.45669 3.29868 0
M  V30 4187 O 400.725 -2.57013 3.22518 0
M  V30 4188 H 400.066 -0.195493 0.63457 0
M  V30 4189 H 402.596 0.0228214 2.04587 0
M  V30 4190 H 402.606 -1.82535 3.6489 0
M  V30 4191 H 401.281 -0.760314 4.08891 0
M  V30 4192 H 399.858 -2.22648 2.99136 0
M  V30 4193 N 402.043 -1.548 -0.295768 0
M  V30 4194 C 403.459 -1.4613 -0.641722 0
M  V30 4195 C 403.659 -0.656771 -1.90496 0
M  V30 4196 O 402.715 -0.166547 -2.5195 0
M  V30 4197 C 404.028 -2.90141 -0.789852 0
M  V30 4198 C 405.576 -3.00216 -0.885396 0
M  V30 4199 C 406.051 -4.45434 -1.06548 0
M  V30 4200 N 407.542 -4.49166 -1.13156 0
M  V30 4201 C 408.277 -5.58717 -1.28929 0
M  V30 4202 N 407.773 -6.78182 -1.41567 0
M  V30 4203 N 409.566 -5.46415 -1.31859 0
M  V30 4204 H 401.717 -2.05574 0.534147 0
M  V30 4205 H 403.98 -0.931259 0.177372 0
M  V30 4206 H 403.686 -3.51635 0.0675598 0
M  V30 4207 H 403.56 -3.37859 -1.67724 0
M  V30 4208 H 405.947 -2.38833 -1.73329 0
M  V30 4209 H 406.028 -2.55787 0.0261185 0
M  V30 4210 H 405.672 -5.07413 -0.222335 0
M  V30 4211 H 405.602 -4.87499 -1.9913 0
M  V30 4212 H 408.093 -3.631 -1.04721 0
M  V30 4213 H 408.406 -7.57428 -1.53372 0
M  V30 4214 H 406.751 -6.81037 -1.38613 0
M  V30 4215 H 409.942 -4.5203 -1.21601 0
M  V30 4216 H 410.115 -6.31841 -1.43808 0
M  V30 4217 N 403.521 0.559213 -1.47345 0
M  V30 4218 C 404.471 1.66192 -1.5609 0
M  V30 4219 C 405.455 1.55323 -0.419957 0
M  V30 4220 O 406.647 1.63839 -0.669762 0
M  V30 4221 C 403.776 3.0497 -1.57634 0
M  V30 4222 C 402.862 3.2105 -2.77106 0
M  V30 4223 N 403.253 3.07203 -4.01821 0
M  V30 4224 C 401.551 3.52046 -2.73825 0
M  V30 4225 C 402.252 3.25919 -4.81821 0
M  V30 4226 N 401.228 3.52161 -4.14106 0
M  V30 4227 H 405.03 1.54052 -2.5029 0
M  V30 4228 H 402.544 0.763914 -1.43311 0
M  V30 4229 H 404.541 3.84142 -1.61989 0
M  V30 4230 H 403.201 3.18224 -0.645281 0
M  V30 4231 H 404.212 2.84572 -4.32711 0
M  V30 4232 H 400.889 3.71839 -1.89848 0
M  V30 4233 H 402.279 3.20198 -5.90697 0
M  V30 4234 N 404.999 1.35443 0.805782 0
M  V30 4235 C 406.224 1.32037 1.59941 0
M  V30 4236 C 406.649 -0.0994215 1.87837 0
M  V30 4237 O 406.007 -1.06648 1.46615 0
M  V30 4238 C 406.055 2.13354 2.90711 0
M  V30 4239 O 405.159 1.5148 3.83572 0
M  V30 4240 H 404.5 0.452666 0.485787 0
M  V30 4241 H 407.03 1.78496 1.00002 0
M  V30 4242 H 407.04 2.25338 3.40128 0
M  V30 4243 H 405.715 3.16572 2.69732 0
M  V30 4244 H 404.292 1.4834 3.42125 0
M  V30 4245 N 406.477 -1.02803 1.19454 0
M  V30 4246 C 407.702 -1.80378 1.02364 0
M  V30 4247 C 408.127 -1.83282 -0.423007 0
M  V30 4248 O 407.485 -1.25945 -1.30413 0
M  V30 4249 C 407.533 -3.23248 1.59821 0
M  V30 4250 O 406.637 -4.04 0.828105 0
M  V30 4251 H 405.978 -0.556799 0.361761 0
M  V30 4252 H 408.508 -1.29385 1.58495 0
M  V30 4253 H 408.518 -3.73994 1.63073 0
M  V30 4254 H 407.193 -3.2045 2.65113 0
M  V30 4255 H 405.77 -3.62635 0.86891 0
M  V30 4256 N 407.956 -0.998596 -1.21925 0
M  V30 4257 C 409.184 -0.696286 -1.94832 0
M  V30 4258 C 409.599 0.740032 -1.73692 0
M  V30 4259 O 408.956 1.5 -1.03953 0
M  V30 4260 C 409.007 -0.999833 -3.47398 0
M  V30 4261 O 408.728 -2.37972 -3.67833 0
M  V30 4262 C 410.229 -0.716025 -4.37479 0
M  V30 4263 H 407.449 -0.257111 -0.619786 0
M  V30 4264 H 409.993 -1.33491 -1.54921 0
M  V30 4265 H 408.148 -0.406918 -3.85257 0
M  V30 4266 H 408.562 -2.48338 -4.61983 0
M  V30 4267 H 410.036 -0.978642 -5.43256 0
M  V30 4268 H 410.513 0.349968 -4.37803 0
M  V30 4269 H 411.119 -1.29025 -4.05256 0
M  V30 4270 N 409.434 1.37368 -0.772513 0
M  V30 4271 C 410.366 2.28899 -0.117502 0
M  V30 4272 C 411.379 1.4867 0.663405 0
M  V30 4273 O 412.568 1.71314 0.501372 0
M  V30 4274 C 409.668 3.2788 0.857192 0
M  V30 4275 C 408.841 4.37207 0.129938 0
M  V30 4276 C 407.9 5.16257 1.01811 0
M  V30 4277 O 406.926 5.67159 0.481601 0
M  V30 4278 N 408.128 5.31058 2.3443 0
M  V30 4279 H 410.893 2.85752 -0.903662 0
M  V30 4280 H 408.454 1.49353 -0.62493 0
M  V30 4281 H 410.446 3.77647 1.45482 0
M  V30 4282 H 409.016 2.7179 1.54432 0
M  V30 4283 H 408.236 3.88827 -0.648605 0
M  V30 4284 H 409.524 5.07434 -0.372559 0
M  V30 4285 H 408.922 4.91287 2.80452 0
M  V30 4286 H 407.479 5.84131 2.89197 0
M  V30 4287 N 410.912 0.523116 1.48665 0
M  V30 4288 C 411.842 -0.23231 2.32342 0
M  V30 4289 C 412.823 -0.941637 1.41659 0
M  V30 4290 O 414.008 -0.928751 1.70552 0
M  V30 4291 C 411.138 -1.28387 3.22698 0
M  V30 4292 C 410.092 -0.693098 4.22351 0
M  V30 4293 C 409.418 -1.8468 5.01794 0
M  V30 4294 C 410.718 0.33063 5.21252 0
M  V30 4295 H 412.412 0.466192 2.95748 0
M  V30 4296 H 409.958 0.225643 1.42221 0
M  V30 4297 H 411.911 -1.82024 3.80059 0
M  V30 4298 H 410.635 -2.01186 2.57278 0
M  V30 4299 H 409.294 -0.178299 3.66166 0
M  V30 4300 H 408.942 -2.56301 4.32804 0
M  V30 4301 H 408.642 -1.45747 5.69238 0
M  V30 4302 H 410.166 -2.38709 5.62006 0
M  V30 4303 H 411.58 -0.118407 5.73178 0
M  V30 4304 H 409.977 0.636974 5.9671 0
M  V30 4305 H 411.047 1.23883 4.68808 0
M  V30 4306 N 412.39 -1.55475 0.257931 0
M  V30 4307 C 413.636 -2.00237 -0.357338 0
M  V30 4308 C 413.991 -1.14313 -1.54759 0
M  V30 4309 O 413.284 -0.201187 -1.90541 0
M  V30 4310 C 413.478 -3.48183 -0.806433 0
M  V30 4311 C 413.307 -4.48422 0.338758 0
M  V30 4312 C 412.077 -4.98651 0.817011 0
M  V30 4313 C 414.275 -5.00827 1.16949 0
M  V30 4314 N 412.257 -5.82658 1.93346 0
M  V30 4315 C 413.628 -5.82113 2.13413 0
M  V30 4316 C 415.683 -4.83104 1.2048 0
M  V30 4317 C 414.386 -6.47566 3.13131 0
M  V30 4318 C 416.412 -5.49343 2.19034 0
M  V30 4319 C 415.774 -6.30427 3.14232 0
M  V30 4320 H 411.873 -0.776034 -0.0964083 0
M  V30 4321 H 414.457 -1.90995 0.37803 0
M  V30 4322 H 412.628 -3.57801 -1.51107 0
M  V30 4323 H 414.36 -3.79802 -1.39758 0
M  V30 4324 H 411.115 -4.71914 0.39925 0
M  V30 4325 H 411.539 -6.29356 2.49478 0
M  V30 4326 H 416.181 -4.20036 0.482634 0
M  V30 4327 H 413.899 -7.09793 3.8629 0
M  V30 4328 H 417.485 -5.37579 2.22485 0
M  V30 4329 H 416.365 -6.80777 3.89246 0
M  V30 4330 N 413.868 0.0150385 -1.57593 0
M  V30 4331 C 414.798 1.01047 -2.10503 0
M  V30 4332 C 415.779 1.36816 -1.01071 0
M  V30 4333 O 416.964 1.45455 -1.28672 0
M  V30 4334 C 414.094 2.30708 -2.59598 0
M  V30 4335 C 413.048 2.09142 -3.73421 0
M  V30 4336 C 412.374 3.44685 -4.08774 0
M  V30 4337 C 413.674 1.46619 -5.01298 0
M  V30 4338 H 415.368 0.569978 -2.93925 0
M  V30 4339 H 412.914 0.272724 -1.41394 0
M  V30 4340 H 414.867 3.00687 -2.95238 0
M  V30 4341 H 413.591 2.76843 -1.73279 0
M  V30 4342 H 412.25 1.41592 -3.38153 0
M  V30 4343 H 411.898 3.88495 -3.195 0
M  V30 4344 H 411.598 3.31077 -4.8545 0
M  V30 4345 H 413.122 4.16004 -4.4696 0
M  V30 4346 H 414.536 2.06535 -5.34805 0
M  V30 4347 H 412.933 1.43544 -5.82679 0
M  V30 4348 H 414.003 0.433611 -4.82957 0
M  V30 4349 N 415.346 1.54954 0.287554 0
M  V30 4350 C 416.595 1.74081 1.01877 0
M  V30 4351 C 416.908 0.541135 1.87966 0
M  V30 4352 O 418.114 0.614491 2.64455 0
M  V30 4353 C 416.57 3.08042 1.86113 0
M  V30 4354 C 416.178 4.35531 1.04961 0
M  V30 4355 C 417.922 3.36523 2.58752 0
M  V30 4356 C 415.829 5.60538 1.88551 0
M  V30 4357 H 414.759 0.64884 0.384087 0
M  V30 4358 H 417.41 1.81426 0.275101 0
M  V30 4359 H 415.792 2.94696 2.64519 0
M  V30 4360 H 416.966 4.59751 0.31074 0
M  V30 4361 H 415.281 4.14085 0.43843 0
M  V30 4362 H 417.878 4.27122 3.21668 0
M  V30 4363 H 418.221 2.56 3.28283 0
M  V30 4364 H 418.754 3.50901 1.87386 0
M  V30 4365 H 415.493 6.43767 1.23466 0
M  V30 4366 H 415.013 5.40483 2.60074 0
M  V30 4367 H 416.692 5.98297 2.46273 0
M  V30 4368 N 416.824 -0.551391 1.4764 0
M  V30 4369 C 418.052 -1.33357 1.58189 0
M  V30 4370 C 418.467 -1.87342 0.234199 0
M  V30 4371 O 417.824 -1.65301 -0.77343 0
M  V30 4372 C 417.875 -2.49942 2.61173 0
M  V30 4373 O 417.596 -1.98187 3.90709 0
M  V30 4374 C 419.097 -3.42072 2.8196 0
M  V30 4375 H 416.317 -0.40631 0.533998 0
M  V30 4376 H 418.861 -0.667367 1.93304 0
M  V30 4377 H 417.016 -3.12489 2.28975 0
M  V30 4378 H 417.43 -2.74342 4.47031 0
M  V30 4379 H 418.904 -4.20278 3.57869 0
M  V30 4380 H 419.381 -3.95978 1.89995 0
M  V30 4381 H 419.987 -2.85336 3.15378 0
M  V30 4382 N 418.302 -1.35869 -0.798587 0
M  V30 4383 C 419.252 -1.25982 -1.90033 0
M  V30 4384 C 420.236 -0.153303 -1.60168 0
M  V30 4385 O 421.428 -0.38527 -1.72756 0
M  V30 4386 C 418.557 -1.04211 -3.27101 0
M  V30 4387 C 417.643 -2.19289 -3.63006 0
M  V30 4388 N 418.034 -3.44559 -3.70287 0
M  V30 4389 C 416.332 -2.10852 -3.93011 0
M  V30 4390 C 417.033 -4.20283 -4.02166 0
M  V30 4391 N 416.009 -3.49124 -4.16669 0
M  V30 4392 H 419.811 -2.20883 -1.93876 0
M  V30 4393 H 417.325 -1.28457 -0.993614 0
M  V30 4394 H 419.322 -0.952155 -4.05881 0
M  V30 4395 H 417.982 -0.102013 -3.2454 0
M  V30 4396 H 418.993 -3.7881 -3.53162 0
M  V30 4397 H 415.67 -1.24744 -3.98428 0
M  V30 4398 H 417.06 -5.28575 -4.14799 0
M  V30 4399 N 419.78 1.02168 -1.19998 0
M  V30 4400 C 421.01 1.79036 -1.031 0
M  V30 4401 C 421.418 1.84409 0.423078 0
M  V30 4402 O 420.761 1.29228 1.30559 0
M  V30 4403 C 420.823 3.25185 -1.53281 0
M  V30 4404 C 420.487 3.43431 -3.01503 0
M  V30 4405 C 421.484 3.33063 -3.99206 0
M  V30 4406 C 419.169 3.69412 -3.40353 0
M  V30 4407 C 421.163 3.48413 -5.33748 0
M  V30 4408 C 418.85 3.84406 -4.75053 0
M  V30 4409 C 419.848 3.7391 -5.71559 0
M  V30 4410 O 419.536 3.88452 -7.03818 0
M  V30 4411 H 419.268 0.570043 -0.363355 0
M  V30 4412 H 421.822 1.29524 -1.59414 0
M  V30 4413 H 420.052 3.75756 -0.913483 0
M  V30 4414 H 421.741 3.83671 -1.32481 0
M  V30 4415 H 422.507 3.12934 -3.70537 0
M  V30 4416 H 418.386 3.76671 -2.65782 0
M  V30 4417 H 421.93 3.40137 -6.09059 0
M  V30 4418 H 417.827 4.04035 -5.03415 0
M  V30 4419 H 418.595 4.055 -7.10993 0
M  V30 4420 N 421.258 1.00505 1.21394 0
M  V30 4421 C 422.208 0.536503 2.21598 0
M  V30 4422 C 423.192 -0.401914 1.55799 0
M  V30 4423 O 424.384 -0.226757 1.75541 0
M  V30 4424 C 421.513 -0.135446 3.43033 0
M  V30 4425 C 420.599 0.823992 4.16018 0
M  V30 4426 N 420.99 1.97683 4.6557 0
M  V30 4427 C 419.288 0.642387 4.4135 0
M  V30 4428 C 419.989 2.58003 5.21354 0
M  V30 4429 N 418.965 1.86162 5.1073 0
M  V30 4430 H 422.767 1.41557 2.57563 0
M  V30 4431 H 420.281 0.868878 1.37202 0
M  V30 4432 H 422.278 -0.488584 4.14027 0
M  V30 4433 H 420.938 -1.01049 3.08576 0
M  V30 4434 H 421.949 2.3572 4.61147 0
M  V30 4435 H 418.626 -0.185578 4.17087 0
M  V30 4436 H 420.016 3.555 5.70149 0
M  V30 4437 N 422.737 -1.36956 0.779787 0
M  V30 4438 C 423.647 -2.33965 0.172491 0
M  V30 4439 C 424.663 -1.60574 -0.670222 0
M  V30 4440 O 425.839 -1.92617 -0.588263 0
M  V30 4441 C 422.904 -3.39761 -0.690173 0
M  V30 4442 C 421.965 -4.28964 0.169924 0
M  V30 4443 C 421.198 -5.29707 -0.651662 0
M  V30 4444 O 421.421 -5.38238 -1.88827 0
M  V30 4445 O 420.355 -6.01873 -0.0566264 0
M  V30 4446 H 424.181 -2.87647 0.974321 0
M  V30 4447 H 421.766 -1.39258 0.541078 0
M  V30 4448 H 423.648 -4.04471 -1.1824 0
M  V30 4449 H 422.323 -2.88394 -1.47006 0
M  V30 4450 H 421.23 -3.67326 0.708696 0
M  V30 4451 H 422.563 -4.83656 0.913085 0
M  V30 4452 N 424.215 -0.530993 -1.48385 0
M  V30 4453 C 425.148 0.278511 -2.26494 0
M  V30 4454 C 426.126 0.943905 -1.32398 0
M  V30 4455 O 427.31 0.968098 -1.61741 0
M  V30 4456 C 424.437 1.39453 -3.08659 0
M  V30 4457 C 423.483 0.840434 -4.18137 0
M  V30 4458 S 424.316 -0.292496 -5.34701 0
M  V30 4459 C 425.472 0.825973 -6.20426 0
M  V30 4460 H 425.705 -0.384365 -2.94805 0
M  V30 4461 H 423.238 -0.316799 -1.51115 0
M  V30 4462 H 425.196 2.03382 -3.56575 0
M  V30 4463 H 423.857 2.02913 -2.3976 0
M  V30 4464 H 423.05 1.67769 -4.75257 0
M  V30 4465 H 422.652 0.277819 -3.72967 0
M  V30 4466 H 424.944 1.72438 -6.55188 0
M  V30 4467 H 425.887 0.292728 -7.07495 0
M  V30 4468 H 426.295 1.10683 -5.53543 0
M  V30 4469 N 425.693 1.55336 -0.266172 0
M  V30 4470 C 426.941 1.99003 0.35246 0
M  V30 4471 C 427.262 1.15591 1.57047 0
M  V30 4472 O 426.532 0.243268 1.94384 0
M  V30 4473 H 425.112 0.735025 0.133217 0
M  V30 4474 H 427.774 1.91367 -0.369434 0
M  V30 4475 H 426.87 3.05289 0.648453 0
M  V30 4476 N 427.171 -0.0066808 1.57599 0
M  V30 4477 C 428.396 -0.707738 1.94951 0
M  V30 4478 C 428.821 -1.66882 0.867868 0
M  V30 4479 O 428.179 -1.80457 -0.17458 0
M  V30 4480 C 428.227 -1.42162 3.31394 0
M  V30 4481 O 427.331 -2.53578 3.25226 0
M  V30 4482 H 426.672 -0.188752 0.636607 0
M  V30 4483 H 429.202 0.0445193 2.04552 0
M  V30 4484 H 429.212 -1.78655 3.66806 0
M  V30 4485 H 427.887 -0.716903 4.09675 0
M  V30 4486 H 426.464 -2.19463 3.01481 0
M  V30 4487 N 428.649 -1.55105 -0.279332 0
M  V30 4488 C 429.579 -1.90557 -1.34945 0
M  V30 4489 C 430.56 -0.766738 -1.51839 0
M  V30 4490 O 431.745 -1.02434 -1.64988 0
M  V30 4491 C 428.875 -2.17193 -2.71006 0
M  V30 4492 C 427.829 -3.33021 -2.68851 0
M  V30 4493 C 427.155 -3.45123 -4.08405 0
M  V30 4494 C 428.455 -4.69578 -2.28678 0
M  V30 4495 H 430.149 -2.80188 -1.05522 0
M  V30 4496 H 427.695 -1.34811 -0.506173 0
M  V30 4497 H 429.648 -2.40581 -3.45975 0
M  V30 4498 H 428.372 -1.24355 -3.01999 0
M  V30 4499 H 427.031 -3.0959 -1.9634 0
M  V30 4500 H 426.679 -2.49762 -4.3661 0
M  V30 4501 H 426.379 -4.22995 -4.07859 0
M  V30 4502 H 427.903 -3.70796 -4.85121 0
M  V30 4503 H 429.317 -4.92553 -2.93368 0
M  V30 4504 H 427.714 -5.5032 -2.39306 0
M  V30 4505 H 428.784 -4.68828 -1.23807 0
M  V30 4506 N 430.127 0.543554 -1.4793 0
M  V30 4507 C 431.357 1.32324 -1.58663 0
M  V30 4508 C 431.765 1.8766 -0.240896 0
M  V30 4509 O 431.108 1.66411 0.778011 0
M  V30 4510 C 431.17 2.52094 -2.56299 0
M  V30 4511 C 430.834 2.17944 -4.01683 0
M  V30 4512 C 431.831 1.74422 -4.89768 0
M  V30 4513 C 429.516 2.28884 -4.47121 0
M  V30 4514 C 431.51 1.42287 -6.21316 0
M  V30 4515 C 429.197 1.96361 -5.78693 0
M  V30 4516 C 430.195 1.53132 -6.65612 0
M  V30 4517 O 429.883 1.21029 -7.94737 0
M  V30 4518 H 429.615 0.409174 -0.538101 0
M  V30 4519 H 432.169 0.663887 -1.94375 0
M  V30 4520 H 430.399 3.20965 -2.15681 0
M  V30 4521 H 432.088 3.14165 -2.57012 0
M  V30 4522 H 432.854 1.65452 -4.55907 0
M  V30 4523 H 428.733 2.61488 -3.79664 0
M  V30 4524 H 432.277 1.08472 -6.89115 0
M  V30 4525 H 428.174 2.04967 -6.12094 0
M  V30 4526 H 428.942 1.34543 -8.07366 0
M  V30 4527 N 431.605 1.3629 0.791371 0
M  V30 4528 C 432.882 1.20962 1.53712 0
M  V30 4529 C 433.262 -0.205021 2.10102 0
M  V30 4530 O 432.61 -1.21042 1.93807 0
M  V30 4531 C 432.82 2.29002 2.63361 0
M  V30 4532 C 434.168 2.65572 3.31295 0
M  V30 4533 O 435.192 2.2803 2.73643 0
M  V30 4534 O 434.051 3.3018 4.35481 0
M  V30 4535 H 431.145 0.47086 0.679867 0
M  V30 4536 H 433.691 1.48016 0.830021 0
M  V30 4537 H 432.463 3.2382 2.19674 0
M  V30 4538 H 432.086 2.03303 3.41692 0
M  V30 4539 N 433.083 -1.0153 1.20538 0
M  V30 4540 C 434.313 -1.78487 1.04048 0
M  V30 4541 C 434.721 -1.84631 -0.413292 0
M  V30 4542 O 434.064 -1.29919 -1.29872 0
M  V30 4543 C 434.126 -3.24367 1.55003 0
M  V30 4544 C 433.79 -3.41827 3.0332 0
M  V30 4545 C 434.787 -3.30941 4.00966 0
M  V30 4546 C 432.472 -3.67602 3.42307 0
M  V30 4547 C 434.466 -3.45577 5.35589 0
M  V30 4548 C 432.153 -3.81881 4.77085 0
M  V30 4549 C 433.151 -3.70874 5.73534 0
M  V30 4550 O 432.839 -3.84714 7.05868 0
M  V30 4551 H 432.571 -0.568108 0.366373 0
M  V30 4552 H 435.125 -1.28677 1.60098 0
M  V30 4553 H 433.355 -3.75266 0.933397 0
M  V30 4554 H 435.044 -3.82963 1.34514 0
M  V30 4555 H 435.81 -3.10964 3.72191 0
M  V30 4556 H 431.689 -3.75256 2.67776 0
M  V30 4557 H 435.233 -3.36902 6.10854 0
M  V30 4558 H 431.13 -4.01359 5.0555 0
M  V30 4559 H 431.898 -4.01724 7.13134 0
M  V30 4560 N 434.561 -1.01147 -1.20859 0
M  V30 4561 C 435.491 -0.597663 -2.25722 0
M  V30 4562 C 436.472 0.384744 -1.65692 0
M  V30 4563 O 437.657 0.271303 -1.92296 0
M  V30 4564 C 434.787 0.0700149 -3.47229 0
M  V30 4565 C 433.741 -0.832843 -4.19819 0
M  V30 4566 C 433.067 -0.0312202 -5.34691 0
M  V30 4567 C 434.367 -2.1385 -4.76514 0
M  V30 4568 H 436.061 -1.47423 -2.60589 0
M  V30 4569 H 433.607 -0.710301 -1.25263 0
M  V30 4570 H 435.56 0.37103 -4.19763 0
M  V30 4571 H 434.284 0.981259 -3.11511 0
M  V30 4572 H 432.943 -1.11778 -3.49144 0
M  V30 4573 H 432.591 0.881515 -4.95215 0
M  V30 4574 H 432.291 -0.632434 -5.84187 0
M  V30 4575 H 433.815 0.26346 -6.10031 0
M  V30 4576 H 435.229 -1.9002 -5.40893 0
M  V30 4577 H 433.626 -2.69012 -5.36426 0
M  V30 4578 H 434.696 -2.80495 -3.95538 0
M  V30 4579 N 436.039 1.36541 -0.78704 0
M  V30 4580 C 436.971 2.28761 -0.141773 0
M  V30 4581 C 437.984 1.49365 0.647599 0
M  V30 4582 O 439.173 1.71836 0.483173 0
M  V30 4583 C 436.273 3.28771 0.822368 0
M  V30 4584 C 435.446 4.3732 0.0835594 0
M  V30 4585 C 434.505 5.17307 0.963296 0
M  V30 4586 O 433.531 5.67638 0.421419 0
M  V30 4587 N 434.733 5.33515 2.28784 0
M  V30 4588 H 437.498 2.84777 -0.933919 0
M  V30 4589 H 435.059 1.48682 -0.640735 0
M  V30 4590 H 437.051 3.79169 1.41468 0
M  V30 4591 H 435.621 2.73412 1.5154 0
M  V30 4592 H 434.841 3.88118 -0.689809 0
M  V30 4593 H 436.129 5.0701 -0.426358 0
M  V30 4594 H 435.527 4.94234 2.75226 0
M  V30 4595 H 434.084 5.87165 2.82985 0
M  V30 4596 N 437.518 0.538854 1.48102 0
M  V30 4597 C 438.448 -0.207654 2.32575 0
M  V30 4598 C 439.429 -0.926559 1.4265 0
M  V30 4599 O 440.614 -0.91061 1.71527 0
M  V30 4600 C 437.744 -1.24957 3.24042 0
M  V30 4601 C 436.698 -0.648263 4.23062 0
M  V30 4602 C 436.024 -1.79348 5.03725 0
M  V30 4603 C 437.324 0.385897 5.20872 0
M  V30 4604 H 439.018 0.497534 2.95237 0
M  V30 4605 H 436.564 0.240715 1.41974 0
M  V30 4606 H 438.517 -1.77983 3.81969 0
M  V30 4607 H 437.241 -1.98446 2.59397 0
M  V30 4608 H 435.9 -0.139452 3.66335 0
M  V30 4609 H 435.548 -2.51696 4.35498 0
M  V30 4610 H 435.248 -1.39702 5.70751 0
M  V30 4611 H 436.772 -2.32735 5.64506 0
M  V30 4612 H 438.186 -0.057607 5.73271 0
M  V30 4613 H 436.583 0.700227 5.96001 0
M  V30 4614 H 437.653 1.28848 4.67468 0
M  V30 4615 N 438.996 -1.55193 0.274407 0
M  V30 4616 C 440.224 -2.03987 -0.345943 0
M  V30 4617 C 440.639 -1.15279 -1.4952 0
M  V30 4618 O 439.996 -0.172759 -1.8168 0
M  V30 4619 C 440.047 -3.51898 -0.827631 0
M  V30 4620 O 439.768 -4.37231 0.275855 0
M  V30 4621 C 441.269 -4.16577 -1.51587 0
M  V30 4622 H 438.489 -0.666335 -0.0789892 0
M  V30 4623 H 441.033 -2.00423 0.406294 0
M  V30 4624 H 439.188 -3.55909 -1.52996 0
M  V30 4625 H 439.602 -5.24415 -0.0943638 0
M  V30 4626 H 441.076 -5.21678 -1.80433 0
M  V30 4627 H 441.553 -3.64707 -2.44716 0
M  V30 4628 H 442.159 -4.16568 -0.857409 0
M  V30 4629 N 440.474 -0.00167713 -1.576 0
M  V30 4630 C 441.702 0.693759 -1.94922 0
M  V30 4631 C 442.117 1.67215 -0.876626 0
M  V30 4632 O 441.474 1.81929 0.144279 0
M  V30 4633 C 441.525 1.42416 -3.32265 0
M  V30 4634 O 441.246 0.485014 -4.35407 0
M  V30 4635 C 442.747 2.21395 -3.84056 0
M  V30 4636 H 439.967 0.193118 -0.642609 0
M  V30 4637 H 442.511 -0.0532952 -2.04431 0
M  V30 4638 H 440.666 2.12284 -3.24059 0
M  V30 4639 H 441.08 1.00053 -5.14868 0
M  V30 4640 H 442.554 2.67996 -4.82578 0
M  V30 4641 H 443.031 3.04142 -3.16851 0
M  V30 4642 H 443.637 1.56542 -3.95443 0
M  V30 4643 N 441.952 1.55251 0.271103 0
M  V30 4644 C 442.882 1.9127 1.33933 0
M  V30 4645 C 443.863 0.77478 1.5143 0
M  V30 4646 O 445.048 1.03307 1.64442 0
M  V30 4647 C 442.178 2.18627 2.69851 0
M  V30 4648 C 441.132 3.34442 2.67081 0
M  V30 4649 C 440.458 3.47284 4.06569 0
M  V30 4650 C 441.758 4.70784 2.26185 0
M  V30 4651 H 443.452 2.80744 1.04035 0
M  V30 4652 H 440.998 1.35077 0.499017 0
M  V30 4653 H 442.951 2.42413 3.44694 0
M  V30 4654 H 441.675 1.25955 3.01335 0
M  V30 4655 H 440.334 3.10627 1.94695 0
M  V30 4656 H 439.982 2.52074 4.35279 0
M  V30 4657 H 439.682 4.25152 4.0561 0
M  V30 4658 H 441.206 3.73363 4.83148 0
M  V30 4659 H 442.62 4.94102 2.90751 0
M  V30 4660 H 441.017 5.51582 2.36384 0
M  V30 4661 H 442.087 4.69478 1.21319 0
M  V30 4662 N 443.43 -0.535701 1.48216 0
M  V30 4663 C 444.707 -1.29683 1.46429 0
M  V30 4664 C 445.087 -2.10391 0.172852 0
M  V30 4665 O 444.435 -2.12282 -0.845488 0
M  V30 4666 C 444.645 -2.18313 2.72287 0
M  V30 4667 C 445.993 -2.78639 3.20383 0
M  V30 4668 O 447.017 -2.28604 2.73164 0
M  V30 4669 O 445.876 -3.69636 4.02531 0
M  V30 4670 H 442.97 -0.585026 0.584529 0
M  V30 4671 H 445.516 -0.552827 1.60443 0
M  V30 4672 H 444.288 -1.58421 3.57797 0
M  V30 4673 H 443.911 -2.99971 2.60966 0
M  V30 4674 N 444.908 -1.36708 -0.784132 0
M  V30 4675 C 446.136 -1.34398 -1.57305 0
M  V30 4676 C 446.551 0.0735577 -1.88657 0
M  V30 4677 O 445.908 1.03193 -1.50524 0
M  V30 4678 C 445.959 -2.17053 -2.89085 0
M  V30 4679 O 445.68 -3.53281 -2.59083 0
M  V30 4680 C 447.181 -2.22583 -3.83369 0
M  V30 4681 H 444.401 -0.460819 -0.487736 0
M  V30 4682 H 446.945 -1.79879 -0.972819 0
M  V30 4683 H 445.1 -1.75113 -3.45564 0
M  V30 4684 H 445.514 -3.9647 -3.43383 0
M  V30 4685 H 446.988 -2.84763 -4.72878 0
M  V30 4686 H 447.465 -1.23075 -4.21603 0
M  V30 4687 H 448.071 -2.64781 -3.32823 0
M  V30 4688 N 446.386 1.0089 -1.21074 0
M  V30 4689 C 447.632 1.74866 -1.02712 0
M  V30 4690 C 447.965 1.89178 0.438787 0
M  V30 4691 O 447.24 1.42325 1.32567 0
M  V30 4692 C 447.523 3.16347 -1.72036 0
M  V30 4693 C 447.376 3.09782 -3.26121 0
M  V30 4694 C 448.695 4.15187 -1.45973 0
M  V30 4695 H 445.814 0.634736 -0.374539 0
M  V30 4696 H 448.456 1.17646 -1.49196 0
M  V30 4697 H 446.606 3.65201 -1.32517 0
M  V30 4698 H 448.278 2.68673 -3.74983 0
M  V30 4699 H 446.521 2.46982 -3.56626 0
M  V30 4700 H 447.192 4.09829 -3.6979 0
M  V30 4701 H 449.668 3.75022 -1.80272 0
M  V30 4702 H 448.544 5.12331 -1.96999 0
M  V30 4703 H 448.805 4.40386 -0.388924 0
M  V30 4704 N 447.864 1.01787 1.20321 0
M  V30 4705 C 449.089 0.727009 1.9424 0
M  V30 4706 C 449.514 -0.706179 1.74341 0
M  V30 4707 O 448.872 -1.48609 1.03852 0
M  V30 4708 C 448.92 1.06958 3.44372 0
M  V30 4709 O 448.024 0.181983 4.11998 0
M  V30 4710 H 447.365 0.269626 0.606793 0
M  V30 4711 H 449.895 1.36158 1.52716 0
M  V30 4712 H 449.905 1.02182 3.94997 0
M  V30 4713 H 448.58 2.11378 3.58179 0
M  V30 4714 H 447.157 0.287378 3.71791 0
M  V30 4715 N 449.342 -1.36122 0.79427 0
M  V30 4716 C 450.582 -2.00942 0.374376 0
M  V30 4717 C 450.946 -1.61666 -1.03577 0
M  V30 4718 O 452.147 -2.19113 -1.55701 0
M  V30 4719 C 450.418 -3.53323 0.538327 0
M  V30 4720 S 451.977 -4.38311 0.20703 0
M  V30 4721 H 448.795 -0.696515 0.142785 0
M  V30 4722 H 451.397 -1.65929 1.03382 0
M  V30 4723 H 450.101 -3.79395 1.56484 0
M  V30 4724 H 449.632 -3.93162 -0.136882 0
M  V30 4725 H 451.647 -4.8623 -0.989695 0
M  V30 4726 N 450.82 -0.546701 -1.47814 0
M  V30 4727 C 451.75 0.195317 -2.32682 0
M  V30 4728 C 452.731 0.918981 -1.43139 0
M  V30 4729 O 453.916 0.901501 -1.72008 0
M  V30 4730 C 451.046 1.23237 -3.247 0
M  V30 4731 C 450 0.625818 -4.234 0
M  V30 4732 C 449.326 1.76674 -5.04669 0
M  V30 4733 C 450.626 -0.413515 -5.2066 0
M  V30 4734 H 452.32 -0.513184 -2.94969 0
M  V30 4735 H 449.866 -0.248241 -1.41844 0
M  V30 4736 H 451.819 1.75955 -3.82907 0
M  V30 4737 H 450.543 1.97067 -2.60446 0
M  V30 4738 H 449.202 0.120023 -3.66403 0
M  V30 4739 H 448.85 2.49383 -4.36826 0
M  V30 4740 H 448.55 1.36673 -5.71484 0
M  V30 4741 H 450.074 2.29738 -5.65732 0
M  V30 4742 H 451.488 0.0272042 -5.73294 0
M  V30 4743 H 449.885 -0.731825 -5.95621 0
M  V30 4744 H 450.955 -1.31325 -4.66778 0
M  V30 4745 N 452.299 1.55045 -0.282633 0
M  V30 4746 C 453.715 1.59441 0.0712997 0
M  V30 4747 C 453.915 1.2998 1.53972 0
M  V30 4748 O 452.971 1.06431 2.28973 0
M  V30 4749 C 454.284 2.99097 -0.310104 0
M  V30 4750 C 455.832 3.1194 -0.257343 0
M  V30 4751 C 456.307 4.53875 -0.613297 0
M  V30 4752 N 457.798 4.5974 -0.565134 0
M  V30 4753 C 458.533 5.67603 -0.81326 0
M  V30 4754 N 458.029 6.83582 -1.1264 0
M  V30 4755 N 459.822 5.57187 -0.741553 0
M  V30 4756 H 451.973 1.72458 -1.23984 0
M  V30 4757 H 454.236 0.804549 -0.501403 0
M  V30 4758 H 453.942 3.25516 -1.33163 0
M  V30 4759 H 453.816 3.75616 0.345366 0
M  V30 4760 H 456.203 2.85281 0.754905 0
M  V30 4761 H 456.284 2.37618 -0.947178 0
M  V30 4762 H 455.928 4.81261 -1.62327 0
M  V30 4763 H 455.858 5.26508 0.09841 0
M  V30 4764 H 458.349 3.76427 -0.333294 0
M  V30 4765 H 458.662 7.6175 -1.30219 0
M  V30 4766 H 457.007 6.85179 -1.16425 0
M  V30 4767 H 460.198 4.65457 -0.496705 0
M  V30 4768 H 460.371 6.41171 -0.938306 0
M  V30 4769 N 453.777 0.010035 1.57597 0
M  V30 4770 C 455.026 -0.671945 1.90178 0
M  V30 4771 C 455.339 -1.74376 0.886131 0
M  V30 4772 O 456.545 -2.48107 1.10252 0
M  V30 4773 C 455.001 -1.24636 3.3763 0
M  V30 4774 C 454.609 -0.208838 4.47513 0
M  V30 4775 C 456.353 -1.90595 3.79307 0
M  V30 4776 C 454.26 -0.793814 5.86048 0
M  V30 4777 H 453.19 -0.25474 0.709665 0
M  V30 4778 H 455.841 0.0722206 1.83358 0
M  V30 4779 H 454.223 -2.04152 3.3932 0
M  V30 4780 H 455.397 0.562463 4.57354 0
M  V30 4781 H 453.712 0.350889 4.14919 0
M  V30 4782 H 456.309 -2.35284 4.80151 0
M  V30 4783 H 456.652 -2.74074 3.13352 0
M  V30 4784 H 457.185 -1.17798 3.79958 0
M  V30 4785 H 453.924 0.00240855 6.555 0
M  V30 4786 H 453.444 -1.53404 5.79851 0
M  V30 4787 H 455.123 -1.2894 6.34022 0
M  V30 4788 N 455.255 -1.55392 -0.262866 0
M  V30 4789 C 456.501 -1.76737 -0.99458 0
M  V30 4790 C 456.834 -0.572453 -1.85571 0
M  V30 4791 O 456.109 0.429732 -1.89693 0
M  V30 4792 C 456.392 -3.07824 -1.8686 0
M  V30 4793 C 456.245 -4.3769 -1.03672 0
M  V30 4794 C 457.564 -3.35021 -2.85393 0
M  V30 4795 H 454.683 -0.643005 -0.360157 0
M  V30 4796 H 457.325 -1.88126 -0.266216 0
M  V30 4797 H 455.475 -2.98245 -2.48962 0
M  V30 4798 H 457.147 -4.59238 -0.43563 0
M  V30 4799 H 455.39 -4.32461 -0.340513 0
M  V30 4800 H 456.061 -5.25759 -1.6817 0
M  V30 4801 H 458.537 -3.44458 -2.33426 0
M  V30 4802 H 457.413 -4.27989 -3.43681 0
M  V30 4803 H 457.674 -2.55153 -3.61039 0
M  V30 4804 N 456.733 0.527833 -1.48498 0
M  V30 4805 C 457.663 1.64136 -1.66077 0
M  V30 4806 C 458.644 1.62286 -0.509625 0
M  V30 4807 O 459.829 1.79449 -0.742413 0
M  V30 4808 C 456.959 3.02717 -1.70234 0
M  V30 4809 C 455.913 3.19426 -2.8487 0
M  V30 4810 C 455.239 4.5909 -2.74118 0
M  V30 4811 C 456.539 3.01993 -4.26142 0
M  V30 4812 H 458.233 1.4968 -2.593 0
M  V30 4813 H 455.779 0.718654 -1.24785 0
M  V30 4814 H 457.732 3.80491 -1.8112 0
M  V30 4815 H 456.456 3.18201 -0.735911 0
M  V30 4816 H 455.115 2.4407 -2.73542 0
M  V30 4817 H 454.763 4.71413 -1.7544 0
M  V30 4818 H 454.463 4.71214 -3.51042 0
M  V30 4819 H 455.987 5.3896 -2.86974 0
M  V30 4820 H 457.401 3.69558 -4.38292 0
M  V30 4821 H 455.798 3.2561 -5.04082 0
M  V30 4822 H 456.868 1.98396 -4.42456 0
M  V30 4823 N 458.211 1.37122 0.776871 0
M  V30 4824 C 459.436 1.354 1.57104 0
M  V30 4825 C 459.861 -0.0595562 1.88006 0
M  V30 4826 O 459.219 -1.03514 1.48844 0
M  V30 4827 C 459.267 2.19472 2.8612 0
M  V30 4828 O 458.371 1.59582 3.80273 0
M  V30 4829 H 457.712 0.462869 0.476076 0
M  V30 4830 H 460.242 1.80577 0.961932 0
M  V30 4831 H 460.252 2.32502 3.35271 0
M  V30 4832 H 458.927 3.22222 2.62956 0
M  V30 4833 H 457.504 1.55564 3.38902 0
M  V30 4834 N 459.689 -1.00246 1.21608 0
M  V30 4835 C 460.938 -1.73476 1.02902 0
M  V30 4836 C 461.251 -1.90643 -0.437561 0
M  V30 4837 O 462.457 -2.61105 -0.74407 0
M  V30 4838 C 460.913 -3.12079 1.79261 0
M  V30 4839 C 460.521 -3.02877 3.30106 0
M  V30 4840 C 462.265 -3.89421 1.68972 0
M  V30 4841 C 460.172 -4.36575 3.98944 0
M  V30 4842 H 459.102 -0.650408 0.381425 0
M  V30 4843 H 461.753 -1.11985 1.45367 0
M  V30 4844 H 460.135 -3.74196 1.2959 0
M  V30 4845 H 461.309 -2.49983 3.87098 0
M  V30 4846 H 459.624 -2.39022 3.40965 0
M  V30 4847 H 462.221 -4.88362 2.17731 0
M  V30 4848 H 462.564 -4.1122 0.648397 0
M  V30 4849 H 463.097 -3.33963 2.16133 0
M  V30 4850 H 459.836 -4.19978 5.03288 0
M  V30 4851 H 459.356 -4.8942 3.4674 0
M  V30 4852 H 461.035 -5.05364 4.04 0
M  V30 4853 N 461.167 -1.02423 -1.1978 0
M  V30 4854 C 462.13 -0.605703 -2.21052 0
M  V30 4855 C 463.13 0.328209 -1.57415 0
M  V30 4856 O 464.32 0.115853 -1.73814 0
M  V30 4857 C 461.452 0.114366 -3.40708 0
M  V30 4858 H 462.645 -1.5017 -2.59594 0
M  V30 4859 H 460.198 -0.814888 -1.33376 0
M  V30 4860 H 460.933 1.02492 -3.07678 0
M  V30 4861 H 460.718 -0.556641 -3.88129 0
M  V30 4862 H 462.208 0.394272 -4.15735 0
M  V30 4863 N 462.645 1.35699 -0.801477 0
M  V30 4864 C 463.87 2.03687 -0.390678 0
M  V30 4865 C 464.295 1.60015 0.988778 0
M  V30 4866 O 463.653 0.774357 1.63931 0
M  V30 4867 C 463.701 3.57439 -0.476404 0
M  V30 4868 O 462.805 4.09208 0.512106 0
M  V30 4869 H 462.146 0.64344 -0.163956 0
M  V30 4870 H 464.676 1.73403 -1.08594 0
M  V30 4871 H 464.686 4.06544 -0.344357 0
M  V30 4872 H 463.361 3.88576 -1.48262 0
M  V30 4873 H 461.938 3.7134 0.340721 0
M  V30 4874 N 464.123 0.554532 1.47522 0
M  V30 4875 C 465.371 0.0294208 2.02079 0
M  V30 4876 C 465.692 -1.32411 1.43151 0
M  V30 4877 O 464.962 -1.863 0.605728 0
M  V30 4878 H 463.542 0.00788672 0.746958 0
M  V30 4879 H 466.204 0.723934 1.80956 0
M  V30 4880 H 465.3 -0.0606745 3.12041 0
M  V30 4881 N 465.601 -1.54893 0.290851 0
M  V30 4882 C 466.531 -2.26103 -0.583084 0
M  V30 4883 C 467.512 -1.25684 -1.14619 0
M  V30 4884 O 468.697 -1.54436 -1.17741 0
M  V30 4885 C 465.827 -2.99409 -1.75987 0
M  V30 4886 C 464.781 -4.0689 -1.32758 0
M  V30 4887 C 464.107 -4.67856 -2.58872 0
M  V30 4888 C 465.407 -5.20215 -0.46624 0
M  V30 4889 H 467.101 -2.99398 0.0108214 0
M  V30 4890 H 464.647 -1.43998 0.00664468 0
M  V30 4891 H 466.6 -3.47943 -2.37727 0
M  V30 4892 H 465.324 -2.23675 -2.37985 0
M  V30 4893 H 463.983 -3.59191 -0.733299 0
M  V30 4894 H 463.631 -3.88772 -3.19163 0
M  V30 4895 H 463.331 -5.40438 -2.30653 0
M  V30 4896 H 464.855 -5.19147 -3.21433 0
M  V30 4897 H 466.269 -5.64704 -0.989047 0
M  V30 4898 H 464.666 -5.99455 -0.27826 0
M  V30 4899 H 465.736 -4.82198 0.511173 0
M  V30 4900 N 467.08 -0.0183926 -1.57589 0
M  V30 4901 C 468.043 0.951986 -2.08494 0
M  V30 4902 C 469.043 1.26092 -0.997874 0
M  V30 4903 O 470.233 1.20304 -1.25987 0
M  V30 4904 C 467.365 2.27165 -2.54182 0
M  V30 4905 H 468.558 0.511307 -2.95509 0
M  V30 4906 H 466.111 0.229444 -1.54607 0
M  V30 4907 H 466.846 2.75884 -1.70465 0
M  V30 4908 H 466.631 2.06057 -3.33591 0
M  V30 4909 H 468.121 2.9674 -2.93828 0
M  V30 4910 N 468.558 1.5553 0.254621 0
M  V30 4911 C 469.508 1.86057 1.31783 0
M  V30 4912 C 470.492 0.720827 1.4385 0
M  V30 4913 O 471.684 0.982586 1.47222 0
M  V30 4914 C 468.813 2.15203 2.67475 0
M  V30 4915 C 467.899 3.35484 2.59444 0
M  V30 4916 N 468.29 4.54945 2.2104 0
M  V30 4917 C 466.588 3.38441 2.90472 0
M  V30 4918 C 467.289 5.3707 2.23453 0
M  V30 4919 N 466.265 4.75936 2.62652 0
M  V30 4920 H 470.067 2.75953 1.01129 0
M  V30 4921 H 467.581 1.55653 0.463255 0
M  V30 4922 H 469.578 2.35235 3.44195 0
M  V30 4923 H 468.238 1.26601 2.99002 0
M  V30 4924 H 469.249 4.8071 1.92712 0
M  V30 4925 H 465.926 2.60087 3.2659 0
M  V30 4926 H 467.316 6.42626 1.96166 0
M  V30 4927 N 470.036 -0.519951 1.48776 0
M  V30 4928 C 470.966 -1.63253 1.66945 0
M  V30 4929 C 471.947 -1.62014 0.518224 0
M  V30 4930 O 473.132 -1.79053 0.751919 0
M  V30 4931 C 470.262 -3.0181 1.71836 0
M  V30 4932 C 469.216 -3.17911 2.8656 0
M  V30 4933 C 468.542 -4.5763 2.76548 0
M  V30 4934 C 469.842 -2.99729 4.27738 0
M  V30 4935 H 471.536 -1.48302 2.6009 0
M  V30 4936 H 469.082 -0.712026 1.25165 0
M  V30 4937 H 471.035 -3.79525 1.83135 0
M  V30 4938 H 469.759 -3.17806 0.752775 0
M  V30 4939 H 468.418 -2.42616 2.74833 0
M  V30 4940 H 468.066 -4.70476 1.77937 0
M  V30 4941 H 467.766 -4.69346 3.53536 0
M  V30 4942 H 469.29 -5.37431 2.89828 0
M  V30 4943 H 470.704 -3.67228 4.40246 0
M  V30 4944 H 469.101 -3.22932 5.05801 0
M  V30 4945 H 470.171 -1.96047 4.43502 0
M  V30 4946 N 471.514 -1.37532 -0.769588 0
M  V30 4947 C 472.464 -1.29984 -1.87318 0
M  V30 4948 C 473.448 -0.187242 -1.59807 0
M  V30 4949 O 474.64 -0.421827 -1.719 0
M  V30 4950 C 471.769 -1.11126 -3.24817 0
M  V30 4951 C 470.855 -2.26939 -3.58273 0
M  V30 4952 N 471.246 -3.52336 -3.62895 0
M  V30 4953 C 469.544 -2.19141 -3.8845 0
M  V30 4954 C 470.245 -4.28719 -3.9316 0
M  V30 4955 N 469.221 -3.57884 -4.0917 0
M  V30 4956 H 473.023 -2.24946 -1.89147 0
M  V30 4957 H 470.537 -1.30535 -0.966143 0
M  V30 4958 H 472.534 -1.03803 -4.0377 0
M  V30 4959 H 471.194 -0.17083 -3.2425 0
M  V30 4960 H 472.205 -3.86216 -3.45048 0
M  V30 4961 H 468.882 -1.33167 -3.95693 0
M  V30 4962 H 470.272 -5.37254 -4.03494 0
M  V30 4963 N 472.992 0.995999 -1.22138 0
M  V30 4964 C 474.241 1.72928 -1.03821 0
M  V30 4965 C 474.554 1.90872 0.427444 0
M  V30 4966 O 475.76 2.61496 0.730212 0
M  V30 4967 C 474.216 3.11124 -1.80913 0
M  V30 4968 C 473.824 3.01122 -3.31707 0
M  V30 4969 C 475.568 3.8852 -1.71035 0
M  V30 4970 C 473.475 4.34453 -4.01253 0
M  V30 4971 H 472.405 0.648376 -0.384869 0
M  V30 4972 H 475.056 1.11213 -1.45959 0
M  V30 4973 H 473.438 3.73503 -1.31573 0
M  V30 4974 H 474.612 2.47926 -3.88419 0
M  V30 4975 H 472.927 2.3721 -3.42228 0
M  V30 4976 H 475.524 4.872 -2.20318 0
M  V30 4977 H 475.867 4.1087 -0.670196 0
M  V30 4978 H 476.4 3.32812 -2.17902 0
M  V30 4979 H 473.139 4.17303 -5.05508 0
M  V30 4980 H 472.659 4.87574 -3.49331 0
M  V30 4981 H 474.338 5.03215 -4.06674 0
M  V30 4982 N 474.47 1.03057 1.19235 0
M  V30 4983 C 475.38 0.622922 2.26179 0
M  V30 4984 C 476.396 -0.346113 1.70523 0
M  V30 4985 O 477.572 -0.203572 2.00369 0
M  V30 4986 C 474.637 -0.0182063 3.46695 0
M  V30 4987 C 473.698 0.998546 4.17526 0
M  V30 4988 C 472.931 0.387917 5.32288 0
M  V30 4989 O 473.154 -0.808668 5.64639 0
M  V30 4990 O 472.088 1.1116 5.91546 0
M  V30 4991 H 475.914 1.51363 2.63292 0
M  V30 4992 H 473.499 0.800856 1.26122 0
M  V30 4993 H 475.381 -0.375606 4.19723 0
M  V30 4994 H 474.056 -0.882895 3.11427 0
M  V30 4995 H 472.963 1.40756 3.4661 0
M  V30 4996 H 474.296 1.83366 4.56769 0
M  V30 4997 N 475.948 -1.35272 0.808662 0
M  V30 4998 C 477.197 -1.97963 0.386483 0
M  V30 4999 C 477.51 -1.64866 -1.05255 0
M  V30 5000 O 478.716 -2.20937 -1.57794 0
M  V30 5001 C 477.172 -3.54162 0.640096 0
M  V30 5002 C 476.78 -3.96166 2.0918 0
M  V30 5003 C 478.524 -4.23553 0.283376 0
M  V30 5004 C 476.431 -5.4522 2.29106 0
M  V30 5005 H 475.361 -0.740742 0.140774 0
M  V30 5006 H 478.012 -1.5431 0.993012 0
M  V30 5007 H 476.394 -3.95983 -0.0364117 0
M  V30 5008 H 477.568 -3.65491 2.80629 0
M  V30 5009 H 475.883 -3.3967 2.40859 0
M  V30 5010 H 478.48 -5.33124 0.410273 0
M  V30 5011 H 478.823 -4.09105 -0.770659 0
M  V30 5012 H 479.356 -3.8716 0.913884 0
M  V30 5013 H 476.095 -5.64638 3.32962 0
M  V30 5014 H 475.615 -5.77457 1.62184 0
M  V30 5015 H 477.294 -6.1171 2.1076 0
M  V30 5016 N 477.426 -0.562348 -1.47226 0
M  V30 5017 C 478.673 -0.0402165 -2.0246 0
M  V30 5018 C 479.001 1.31169 -1.43614 0
M  V30 5019 O 478.256 1.86805 -0.5833 0
M  V30 5020 C 478.555 0.0969817 -3.57268 0
M  V30 5021 C 478.221 -1.1847 -4.35058 0
M  V30 5022 C 476.883 -1.53588 -4.56031 0
M  V30 5023 C 479.235 -2.03378 -4.79882 0
M  V30 5024 C 476.563 -2.73452 -5.19077 0
M  V30 5025 C 478.915 -3.2245 -5.44251 0
M  V30 5026 C 477.579 -3.57876 -5.63455 0
M  V30 5027 H 476.849 -0.0147163 -0.740854 0
M  V30 5028 H 479.496 -0.734895 -1.76838 0
M  V30 5029 H 477.801 0.87466 -3.81912 0
M  V30 5030 H 479.498 0.516408 -3.97661 0
M  V30 5031 H 476.088 -0.90126 -4.19017 0
M  V30 5032 H 480.272 -1.77553 -4.63453 0
M  V30 5033 H 475.528 -3.01062 -5.32139 0
M  V30 5034 H 479.702 -3.88526 -5.77945 0
M  V30 5035 H 477.329 -4.50849 -6.12078 0
M  V30 5036 N 478.904 1.54736 -0.299062 0
M  V30 5037 C 480.152 1.99706 0.31017 0
M  V30 5038 C 480.473 1.18896 1.54559 0
M  V30 5039 O 479.743 0.284445 1.93824 0
M  V30 5040 H 478.323 0.737686 0.117596 0
M  V30 5041 H 480.985 1.9054 -0.409943 0
M  V30 5042 H 480.081 3.06596 0.58355 0
M  V30 5043 N 480.382 0.0267497 1.57577 0
M  V30 5044 C 481.61 -0.662661 1.96001 0
M  V30 5045 C 482.025 -1.65799 0.903117 0
M  V30 5046 O 481.382 -1.82135 -0.115317 0
M  V30 5047 C 481.433 -1.37112 3.34488 0
M  V30 5048 O 481.154 -0.415683 4.36123 0
M  V30 5049 C 482.655 -2.15257 3.8753 0
M  V30 5050 H 479.875 -0.18287 0.6456 0
M  V30 5051 H 482.419 0.0858116 2.0432 0
M  V30 5052 H 480.574 -2.07101 3.27395 0
M  V30 5053 H 480.988 -0.918496 5.16395 0
M  V30 5054 H 482.462 -2.60285 4.86781 0
M  V30 5055 H 482.939 -2.99063 3.21649 0
M  V30 5056 H 483.545 -1.50231 3.97883 0
M  V30 5057 N 481.861 -1.55662 -0.24637 0
M  V30 5058 C 482.793 -1.86811 -1.32794 0
M  V30 5059 C 483.806 -0.754413 -1.44265 0
M  V30 5060 O 484.995 -1.03253 -1.45606 0
M  V30 5061 C 482.095 -2.0397 -2.70646 0
M  V30 5062 C 481.268 -3.34832 -2.81436 0
M  V30 5063 C 480.327 -3.41727 -4.00136 0
M  V30 5064 O 479.353 -4.14934 -3.89639 0
M  V30 5065 N 480.555 -2.71058 -5.1333 0
M  V30 5066 H 483.32 -2.80174 -1.06409 0
M  V30 5067 H 480.881 -1.55906 -0.43647 0
M  V30 5068 H 482.873 -2.05924 -3.48393 0
M  V30 5069 H 481.443 -1.1735 -2.89738 0
M  V30 5070 H 480.663 -3.4519 -1.90361 0
M  V30 5071 H 481.951 -4.21085 -2.85595 0
M  V30 5072 H 481.349 -2.11314 -5.2475 0
M  V30 5073 H 479.906 -2.78704 -5.89209 0
M  V30 5074 N 483.339 0.512053 -1.4905 0
M  V30 5075 C 484.587 1.26436 -1.57665 0
M  V30 5076 C 484.908 1.93255 -0.260293 0
M  V30 5077 O 484.178 1.82206 0.719564 0
M  V30 5078 H 482.758 0.469658 -0.580888 0
M  V30 5079 H 485.42 0.594398 -1.85615 0
M  V30 5080 H 484.516 2.03417 -2.36702 0
M  V30 5081 N 484.817 1.37938 0.762283 0
M  V30 5082 C 485.764 1.34467 1.87583 0
M  V30 5083 C 486.734 0.208633 1.64785 0
M  V30 5084 O 487.919 0.399494 1.86571 0
M  V30 5085 C 485.059 1.16692 3.24772 0
M  V30 5086 C 484.172 2.39608 3.59461 0
M  V30 5087 C 483.307 2.14631 4.85908 0
M  V30 5088 C 482.346 3.33364 5.13357 0
M  V30 5089 N 481.483 3.07877 6.30996 0
M  V30 5090 H 486.323 2.29669 1.89885 0
M  V30 5091 H 483.86 1.14116 0.928219 0
M  V30 5092 H 485.818 1.04405 4.03925 0
M  V30 5093 H 484.448 0.251333 3.2182 0
M  V30 5094 H 483.5 2.626 2.75219 0
M  V30 5095 H 484.812 3.28128 3.75678 0
M  V30 5096 H 483.966 1.99429 5.72986 0
M  V30 5097 H 482.705 1.23463 4.71814 0
M  V30 5098 H 481.71 3.49094 4.24751 0
M  V30 5099 H 482.935 4.25395 5.29354 0
M  V30 5100 H 480.881 2.19348 6.18241 0
M  V30 5101 H 480.798 3.89944 6.47673 0
M  V30 5102 H 482.066 2.96313 7.20985 0
M  V30 5103 N 486.295 -0.989507 1.22664 0
M  V30 5104 C 487.706 -1.54406 1.04955 0
M  V30 5105 C 488.057 -1.92366 -0.385951 0
M  V30 5106 O 487.182 -1.75111 -1.27142 0
M  V30 5107 C 487.777 -2.80578 1.89899 0
M  V30 5108 C 486.336 -3.32464 1.76478 0
M  V30 5109 C 485.483 -2.05524 1.86159 0
M  V30 5110 H 488.434 -0.810211 1.3646 0
M  V30 5111 H 488.455 -3.53075 1.4184 0
M  V30 5112 H 487.967 -2.52918 2.94371 0
M  V30 5113 H 486.068 -3.65024 0.747528 0
M  V30 5114 H 486.181 -4.02838 2.59342 0
M  V30 5115 H 484.545 -2.19241 1.29636 0
M  V30 5116 H 485.328 -1.80258 2.92168 0
M  V30 5117 N 487.773 -1.03688 -1.18687 0
M  V30 5118 C 488.736 -0.629115 -2.20397 0
M  V30 5119 C 489.736 0.311495 -1.57754 0
M  V30 5120 O 490.926 0.0974107 -1.73927 0
M  V30 5121 C 488.058 0.0782231 -3.4081 0
M  V30 5122 H 489.251 -1.52915 -2.57987 0
M  V30 5123 H 486.804 -0.828988 -1.32505 0
M  V30 5124 H 487.539 0.992233 -3.08748 0
M  V30 5125 H 487.324 -0.597776 -3.87517 0
M  V30 5126 H 488.814 0.350156 -4.16129 0
M  V30 5127 N 489.251 1.34841 -0.815825 0
M  V30 5128 C 490.5 1.97755 -0.396976 0
M  V30 5129 C 490.813 1.65422 1.04379 0
M  V30 5130 O 492.019 2.21771 1.5662 0
M  V30 5131 C 490.475 3.53818 -0.658869 0
M  V30 5132 C 490.083 3.95051 -2.11278 0
M  V30 5133 C 491.827 4.23397 -0.305834 0
M  V30 5134 C 489.734 5.43997 -2.31994 0
M  V30 5135 H 488.664 0.739985 -0.1447 0
M  V30 5136 H 491.315 1.53781 -1.00118 0
M  V30 5137 H 489.697 3.95997 0.0154112 0
M  V30 5138 H 490.871 3.63998 -2.82564 0
M  V30 5139 H 489.186 3.38388 -2.42657 0
M  V30 5140 H 491.783 5.32899 -0.43854 0
M  V30 5141 H 492.126 4.09508 0.748952 0
M  V30 5142 H 492.659 3.8667 -0.934403 0
M  V30 5143 H 489.398 5.62865 -3.35952 0
M  V30 5144 H 488.918 5.76589 -1.65244 0
M  V30 5145 H 490.597 6.10584 -2.14001 0
M  V30 5146 N 490.729 0.570148 1.46925 0
M  V30 5147 C 491.692 -0.159933 2.28641 0
M  V30 5148 C 492.692 -0.830638 1.37685 0
M  V30 5149 O 493.882 -0.684516 1.60187 0
M  V30 5150 C 491.014 -1.2354 3.17727 0
M  V30 5151 H 492.207 0.558035 2.94662 0
M  V30 5152 H 489.76 0.327603 1.52828 0
M  V30 5153 H 490.495 -1.98535 2.56426 0
M  V30 5154 H 490.28 -0.759125 3.84681 0
M  V30 5155 H 491.77 -1.74782 3.79264 0
M  V30 5156 N 492.207 -1.54576 0.307264 0
M  V30 5157 C 493.157 -2.20467 -0.581249 0
M  V30 5158 C 494.141 -1.17972 -1.09414 0
M  V30 5159 O 495.333 -1.43667 -1.03387 0
M  V30 5160 C 492.462 -2.95369 -1.74963 0
M  V30 5161 C 491.548 -4.05186 -1.25241 0
M  V30 5162 N 491.939 -5.03577 -0.47364 0
M  V30 5163 C 490.237 -4.18841 -1.53259 0
M  V30 5164 C 490.938 -5.81328 -0.208083 0
M  V30 5165 N 489.914 -5.37834 -0.789651 0
M  V30 5166 H 493.716 -2.93892 0.0212221 0
M  V30 5167 H 491.23 -1.62011 0.112325 0
M  V30 5168 H 493.227 -3.41046 -2.39777 0
M  V30 5169 H 491.887 -2.23461 -2.35574 0
M  V30 5170 H 492.898 -5.17766 -0.117963 0
M  V30 5171 H 489.575 -3.58141 -2.14573 0
M  V30 5172 H 490.965 -6.706 0.417793 0
M  V30 5173 N 493.685 -0.035106 -1.57561 0
M  V30 5174 C 495.101 0.321334 -1.56332 0
M  V30 5175 C 495.301 1.72509 -1.04129 0
M  V30 5176 O 494.357 2.4287 -0.690694 0
M  V30 5177 C 495.67 0.164469 -3.0025 0
M  V30 5178 C 497.218 0.236786 -3.12103 0
M  V30 5179 C 497.693 0.10864 -4.57871 0
M  V30 5180 N 499.184 0.165433 -4.62904 0
M  V30 5181 C 499.919 0.0901506 -5.73329 0
M  V30 5182 N 499.415 -0.0365606 -6.9279 0
M  V30 5183 N 501.208 0.144572 -5.61914 0
M  V30 5184 H 493.359 -0.952976 -1.89821 0
M  V30 5185 H 495.622 -0.368537 -0.873432 0
M  V30 5186 H 495.328 -0.802746 -3.42416 0
M  V30 5187 H 495.202 0.932194 -3.655 0
M  V30 5188 H 497.589 1.19446 -2.69845 0
M  V30 5189 H 497.67 -0.561419 -2.49563 0
M  V30 5190 H 497.314 -0.845644 -5.00811 0
M  V30 5191 H 497.244 0.925786 -5.18398 0
M  V30 5192 H 499.735 0.263269 -3.76982 0
M  V30 5193 H 500.048 -0.0871487 -7.72751 0
M  V30 5194 H 498.393 -0.0714256 -6.94963 0
M  V30 5195 H 501.584 0.242006 -4.67474 0
M  V30 5196 H 501.757 0.0824413 -6.47948 0
M  V30 5197 N 495.163 1.55791 0.238111 0
M  V30 5198 C 496.44 1.68798 0.98826 0
M  V30 5199 C 496.82 0.577562 2.03045 0
M  V30 5200 O 496.168 -0.41778 2.24648 0
M  V30 5201 C 496.378 3.09454 1.61367 0
M  V30 5202 C 497.726 3.68335 2.11221 0
M  V30 5203 O 498.75 3.1231 1.71292 0
M  V30 5204 O 497.609 4.6657 2.84561 0
M  V30 5205 H 494.703 0.686881 0.460568 0
M  V30 5206 H 497.249 1.68118 0.231202 0
M  V30 5207 H 496.021 3.81726 0.860295 0
M  V30 5208 H 495.644 3.14182 2.4367 0
M  V30 5209 N 496.642 -0.504142 1.49319 0
M  V30 5210 C 497.572 -1.61473 1.68667 0
M  V30 5211 C 498.553 -1.61455 0.535378 0
M  V30 5212 O 499.738 -1.78245 0.770868 0
M  V30 5213 C 496.868 -2.99971 1.75028 0
M  V30 5214 C 495.822 -3.14854 2.89916 0
M  V30 5215 C 495.148 -4.54671 2.81387 0
M  V30 5216 C 496.448 -2.95176 4.30893 0
M  V30 5217 H 498.142 -1.45535 2.61648 0
M  V30 5218 H 495.688 -0.698711 1.25913 0
M  V30 5219 H 497.641 -3.77562 1.8715 0
M  V30 5220 H 496.365 -3.1699 0.786441 0
M  V30 5221 H 495.024 -2.39687 2.77391 0
M  V30 5222 H 494.672 -4.68562 1.82917 0
M  V30 5223 H 494.372 -4.6557 3.58494 0
M  V30 5224 H 495.896 -5.34327 2.95512 0
M  V30 5225 H 497.31 -3.62538 4.44116 0
M  V30 5226 H 495.707 -3.17549 5.09198 0
M  V30 5227 H 496.777 -1.91332 4.45556 0
M  V30 5228 N 498.12 -1.38341 -0.754957 0
M  V30 5229 C 499.067 -1.3546 -1.86867 0
M  V30 5230 C 500.037 -0.217369 -1.64672 0
M  V30 5231 O 501.222 -0.409383 -1.86356 0
M  V30 5232 C 498.362 -1.18413 -3.24149 0
M  V30 5233 C 497.475 -2.41511 -3.58185 0
M  V30 5234 C 496.61 -2.17205 -4.84763 0
M  V30 5235 C 495.649 -3.36081 -5.11582 0
M  V30 5236 N 494.786 -3.11219 -6.29354 0
M  V30 5237 H 499.626 -2.30672 -1.88664 0
M  V30 5238 H 497.163 -1.14607 -0.922154 0
M  V30 5239 H 499.121 -1.06545 -4.03366 0
M  V30 5240 H 497.751 -0.268397 -3.21682 0
M  V30 5241 H 496.803 -2.64056 -2.73822 0
M  V30 5242 H 498.115 -3.30115 -3.73932 0
M  V30 5243 H 497.269 -2.02465 -5.7192 0
M  V30 5244 H 496.008 -1.25964 -4.71152 0
M  V30 5245 H 495.013 -3.51341 -4.22894 0
M  V30 5246 H 496.238 -4.28196 -5.27091 0
M  V30 5247 H 494.184 -2.22624 -6.17069 0
M  V30 5248 H 494.101 -3.93373 -6.45596 0
M  V30 5249 H 495.369 -3.00132 -7.19403 0
M  V30 5250 N 499.598 0.982988 -1.23187 0
M  V30 5251 C 500.823 1.76455 -1.08988 0
M  V30 5252 C 501.248 1.84726 0.354691 0
M  V30 5253 O 500.606 1.30699 1.25649 0
M  V30 5254 C 500.654 3.17094 -1.71708 0
M  V30 5255 O 499.758 4.00648 -0.977477 0
M  V30 5256 H 499.099 0.542988 -0.382177 0
M  V30 5257 H 501.629 1.23413 -1.63188 0
M  V30 5258 H 501.639 3.67684 -1.76841 0
M  V30 5259 H 500.314 3.10389 -2.76823 0
M  V30 5260 H 498.891 3.59161 -1.0029 0
M  V30 5261 N 501.076 1.04316 1.18135 0
M  V30 5262 C 502.023 0.636398 2.21853 0
M  V30 5263 C 502.993 -0.357039 1.62217 0
M  V30 5264 O 504.178 -0.250453 1.89149 0
M  V30 5265 C 501.318 0.00812779 3.45099 0
M  V30 5266 C 500.431 1.04933 4.19062 0
M  V30 5267 C 499.566 0.389313 5.29771 0
M  V30 5268 C 498.605 1.41544 5.9551 0
M  V30 5269 N 497.742 0.78021 6.97751 0
M  V30 5270 H 502.582 1.52536 2.56002 0
M  V30 5271 H 500.119 0.76304 1.25762 0
M  V30 5272 H 502.077 -0.373497 4.15525 0
M  V30 5273 H 500.707 -0.844336 3.11562 0
M  V30 5274 H 499.759 1.54888 3.47439 0
M  V30 5275 H 501.071 1.82862 4.64072 0
M  V30 5276 H 500.225 -0.0463805 6.06682 0
M  V30 5277 H 498.964 -0.422038 4.8587 0
M  V30 5278 H 497.969 1.86124 5.17337 0
M  V30 5279 H 499.194 2.22854 6.41493 0
M  V30 5280 H 497.14 -0.0107899 6.55999 0
M  V30 5281 H 497.057 1.49716 7.41027 0
M  V30 5282 H 498.325 0.368996 7.78626 0
M  V30 5283 N 502.554 -1.34406 0.822964 0
M  V30 5284 C 503.502 -2.31428 0.233165 0
M  V30 5285 C 504.496 -1.57404 -0.626118 0
M  V30 5286 O 505.702 -1.72402 -0.517453 0
M  V30 5287 H 502.077 -0.749863 0.0566557 0
M  V30 5288 H 504.048 -2.78699 1.06628 0
M  V30 5289 C 502.797 -3.42653 -0.590264 0
M  V30 5290 H 502.12 -3.99753 0.0616129 0
M  V30 5291 H 503.56 -4.12778 -0.969054 0
M  V30 5292 C 502.019 -2.87112 -1.76262 0
M  V30 5293 O 502.549 -2.81995 -2.8608 0
M  V30 5294 N 500.755 -2.43934 -1.57938 0
M  V30 5295 H 500.302 -2.48296 -0.686078 0
M  V30 5296 H 500.26 -2.07123 -2.36532 0
M  V30 5297 N 504.032 -0.577932 -1.46621 0
M  V30 5298 C 505.281 -0.0594281 -2.01612 0
M  V30 5299 C 505.594 1.30663 -1.45556 0
M  V30 5300 O 506.8 1.91621 -1.92337 0
M  V30 5301 C 505.256 -0.0556666 -3.59857 0
M  V30 5302 C 504.864 -1.41975 -4.24908 0
M  V30 5303 C 506.608 0.409143 -4.22524 0
M  V30 5304 C 504.515 -1.37397 -5.75218 0
M  V30 5305 H 503.445 -0.0184469 -0.753774 0
M  V30 5306 H 506.096 -0.728869 -1.68404 0
M  V30 5307 H 504.478 0.679843 -3.90121 0
M  V30 5308 H 505.652 -2.17461 -4.0626 0
M  V30 5309 H 503.967 -1.82419 -3.74316 0
M  V30 5310 H 506.564 0.46211 -5.32699 0
M  V30 5311 H 506.907 1.42565 -3.91128 0
M  V30 5312 H 507.44 -0.272152 -3.96868 0
M  V30 5313 H 504.179 -2.36714 -6.11267 0
M  V30 5314 H 503.699 -0.661239 -5.96144 0
M  V30 5315 H 505.378 -1.08484 -6.3784 0
M  V30 5316 N 505.51 1.54411 -0.315457 0
M  V30 5317 C 506.44 2.27002 0.547039 0
M  V30 5318 C 507.421 1.27492 1.12605 0
M  V30 5319 O 508.606 1.5629 1.15269 0
M  V30 5320 C 505.736 3.02171 1.71201 0
M  V30 5321 C 504.69 4.0895 1.26268 0
M  V30 5322 C 504.016 4.71915 2.51396 0
M  V30 5323 C 505.316 5.20891 0.383419 0
M  V30 5324 H 507.01 2.99343 -0.0584517 0
M  V30 5325 H 504.556 1.4397 -0.0295527 0
M  V30 5326 H 506.509 3.51681 2.32161 0
M  V30 5327 H 505.233 2.27433 2.34397 0
M  V30 5328 H 503.892 3.60312 0.676062 0
M  V30 5329 H 503.54 3.93801 3.12937 0
M  V30 5330 H 503.24 5.44039 2.22026 0
M  V30 5331 H 504.764 5.24195 3.13133 0
M  V30 5332 H 506.178 5.66206 0.899082 0
M  V30 5333 H 504.575 5.99821 0.182857 0
M  V30 5334 H 505.645 4.81324 -0.587821 0
M  V30 5335 N 506.988 0.0434614 1.5754 0
M  V30 5336 C 508.234 -0.632971 1.92669 0
M  V30 5337 C 508.567 -1.70947 0.921446 0
M  V30 5338 O 507.842 -1.94426 -0.0537202 0
M  V30 5339 C 508.125 -1.23619 3.38216 0
M  V30 5340 C 507.978 -0.168274 4.49485 0
M  V30 5341 C 509.297 -2.15008 3.84005 0
M  V30 5342 H 506.416 -0.228629 0.700641 0
M  V30 5343 H 509.058 0.103651 1.89717 0
M  V30 5344 H 507.208 -1.864 3.40863 0
M  V30 5345 H 508.88 0.463196 4.58969 0
M  V30 5346 H 507.123 0.504581 4.30855 0
M  V30 5347 H 507.794 -0.630218 5.48391 0
M  V30 5348 H 510.27 -1.62198 3.83185 0
M  V30 5349 H 509.146 -2.54161 4.86511 0
M  V30 5350 H 509.407 -3.04707 3.20322 0
M  V30 5351 N 508.466 -1.55915 -0.229846 0
M  V30 5352 C 509.413 -1.91734 -1.28478 0
M  V30 5353 C 510.383 -0.773539 -1.46988 0
M  V30 5354 O 511.568 -1.02871 -1.60693 0
M  V30 5355 C 508.708 -2.23224 -2.63182 0
M  V30 5356 C 507.821 -3.50497 -2.52539 0
M  V30 5357 C 506.956 -3.71474 -3.79711 0
M  V30 5358 C 505.995 -4.92289 -3.63755 0
M  V30 5359 N 505.132 -5.09698 -4.82858 0
M  V30 5360 H 509.972 -2.81692 -0.972308 0
M  V30 5361 H 507.509 -1.39429 -0.468815 0
M  V30 5362 H 509.467 -2.3949 -3.41614 0
M  V30 5363 H 508.097 -1.36451 -2.92542 0
M  V30 5364 H 507.149 -3.4247 -1.65585 0
M  V30 5365 H 508.461 -4.39079 -2.36666 0
M  V30 5366 H 507.615 -3.87791 -4.66586 0
M  V30 5367 H 506.354 -2.81157 -3.985 0
M  V30 5368 H 505.359 -4.7593 -2.75264 0
M  V30 5369 H 506.584 -5.84083 -3.46445 0
M  V30 5370 H 504.53 -4.22322 -5.01976 0
M  V30 5371 H 504.447 -5.92399 -4.69681 0
M  V30 5372 H 505.715 -5.30443 -5.71183 0
M  V30 5373 N 509.944 0.496216 -1.49584 0
M  V30 5374 C 510.891 1.59722 -1.66606 0
M  V30 5375 C 511.861 1.58158 -0.507477 0
M  V30 5376 O 513.046 1.76072 -0.735076 0
M  V30 5377 C 510.186 2.97844 -1.74308 0
M  V30 5378 C 509.299 3.09388 -3.01502 0
M  V30 5379 C 508.434 4.38271 -3.00153 0
M  V30 5380 C 507.473 4.43466 -4.21906 0
M  V30 5381 N 506.61 5.63784 -4.1844 0
M  V30 5382 H 511.45 1.44515 -2.60613 0
M  V30 5383 H 508.987 0.703048 -1.29212 0
M  V30 5384 H 510.945 3.77907 -1.76754 0
M  V30 5385 H 509.575 3.11743 -0.837619 0
M  V30 5386 H 508.627 2.22357 -3.08645 0
M  V30 5387 H 509.939 3.09085 -3.91494 0
M  V30 5388 H 509.093 5.2666 -3.01188 0
M  V30 5389 H 507.832 4.41146 -2.07947 0
M  V30 5390 H 506.837 3.53478 -4.21109 0
M  V30 5391 H 508.062 4.42303 -5.1531 0
M  V30 5392 H 506.008 5.67491 -3.29074 0
M  V30 5393 H 505.925 5.65118 -5.02173 0
M  V30 5394 H 507.193 6.54367 -4.23585 0
M  V30 5395 N 511.423 1.38739 0.74761 0
M  V30 5396 C 512.371 1.36573 1.88283 0
M  V30 5397 C 513.365 0.250712 1.67534 0
M  V30 5398 O 514.571 0.420073 1.7503 0
M  V30 5399 H 510.946 0.42619 0.619569 0
M  V30 5400 H 512.917 2.32356 1.87226 0
M  V30 5401 C 511.666 1.21361 3.25832 0
M  V30 5402 H 510.989 2.06424 3.42388 0
M  V30 5403 H 512.429 1.23901 4.05493 0
M  V30 5404 C 510.888 -0.0790099 3.36807 0
M  V30 5405 O 511.418 -1.05385 3.8763 0
M  V30 5406 N 509.624 -0.13785 2.90273 0
M  V30 5407 H 509.171 0.656128 2.49104 0
M  V30 5408 H 509.129 -1.00228 2.97996 0
M  V30 5409 N 512.901 -0.976442 1.23707 0
M  V30 5410 C 514.149 -1.71487 1.06942 0
M  V30 5411 C 514.47 -1.9098 -0.393897 0
M  V30 5412 O 513.74 -1.48128 -1.28198 0
M  V30 5413 H 512.32 -0.635425 0.392739 0
M  V30 5414 H 514.982 -1.17515 1.55487 0
M  V30 5415 H 514.078 -2.70286 1.56051 0
M  V30 5416 N 514.379 -1.04941 -1.1758 0
M  V30 5417 C 515.311 -0.606174 -2.21039 0
M  V30 5418 C 516.324 0.328763 -1.59446 0
M  V30 5419 O 517.513 0.121895 -1.78083 0
M  V30 5420 C 514.613 0.133294 -3.38638 0
M  V30 5421 C 513.786 -0.811711 -4.29802 0
M  V30 5422 C 512.845 -0.113958 -5.26077 0
M  V30 5423 O 511.871 -0.747237 -5.64274 0
M  V30 5424 N 513.073 1.14953 -5.69004 0
M  V30 5425 H 515.838 -1.49606 -2.59689 0
M  V30 5426 H 513.399 -0.930997 -1.32454 0
M  V30 5427 H 515.391 0.610144 -4.00074 0
M  V30 5428 H 513.961 0.924816 -2.98607 0
M  V30 5429 H 513.181 -1.46824 -3.65837 0
M  V30 5430 H 514.469 -1.45326 -4.87604 0
M  V30 5431 H 513.867 1.68441 -5.40041 0
M  V30 5432 H 512.424 1.57049 -6.32597 0
M  V30 5433 N 515.857 1.33968 -0.830081 0
M  V30 5434 C 517.097 1.99879 -0.427521 0
M  V30 5435 C 517.461 1.64355 0.992546 0
M  V30 5436 O 518.662 2.23164 1.49837 0
M  V30 5437 C 516.933 3.51771 -0.631815 0
M  V30 5438 S 518.492 4.37608 -0.323168 0
M  V30 5439 H 515.31 0.692485 -0.161202 0
M  V30 5440 H 517.912 1.63129 -1.07745 0
M  V30 5441 H 516.616 3.75113 -1.66488 0
M  V30 5442 H 516.147 3.93386 0.0325936 0
M  V30 5443 H 518.162 4.88683 0.860432 0
M  V30 5444 N 517.335 0.585699 1.46312 0
M  V30 5445 C 518.575 0.0751432 2.04262 0
M  V30 5446 C 518.939 -1.26201 1.44697 0
M  V30 5447 O 520.14 -1.86198 1.93865 0
M  V30 5448 C 518.411 0.013478 3.57397 0
M  V30 5449 S 519.97 -0.439068 4.36598 0
M  V30 5450 H 516.788 0.0389228 0.709934 0
M  V30 5451 H 519.39 0.778871 1.79315 0
M  V30 5452 H 518.094 0.990558 3.98266 0
M  V30 5453 H 517.625 -0.712927 3.86886 0
M  V30 5454 H 519.64 -1.6932 4.66417 0
M  V30 5455 N 518.813 -1.54241 0.323641 0
M  V30 5456 C 520.062 -1.9975 -0.279806 0
M  V30 5457 C 520.375 -1.2156 -1.5324 0
M  V30 5458 O 521.581 -1.57447 -2.21185 0
M  V30 5459 C 520.037 -3.55686 -0.549115 0
M  V30 5460 C 519.645 -4.4271 0.686432 0
M  V30 5461 C 521.389 -4.09663 -1.11251 0
M  V30 5462 C 519.296 -5.90119 0.389022 0
M  V30 5463 H 518.226 -0.746177 -0.10833 0
M  V30 5464 H 520.877 -1.78248 0.435877 0
M  V30 5465 H 519.259 -3.73176 -1.32499 0
M  V30 5466 H 520.433 -4.36996 1.46188 0
M  V30 5467 H 518.748 -3.99623 1.17005 0
M  V30 5468 H 521.345 -5.17386 -1.34965 0
M  V30 5469 H 521.688 -3.61651 -2.06191 0
M  V30 5470 H 522.221 -3.95806 -0.39782 0
M  V30 5471 H 518.96 -6.42326 1.30759 0
M  V30 5472 H 518.48 -5.98785 -0.348722 0
M  V30 5473 H 520.159 -6.47 -0.0011164 0
M  V30 5474 N 520.291 -0.0518155 -1.57515 0
M  V30 5475 C 521.254 0.907547 -2.10467 0
M  V30 5476 C 522.254 1.23947 -1.02439 0
M  V30 5477 O 523.444 1.17604 -1.2851 0
M  V30 5478 C 520.576 2.21723 -2.58944 0
M  V30 5479 H 521.769 0.44851 -2.96527 0
M  V30 5480 H 519.322 0.196598 -1.55059 0
M  V30 5481 H 520.057 2.72206 -1.76279 0
M  V30 5482 H 519.842 1.98935 -3.37886 0
M  V30 5483 H 521.332 2.90441 -3.00056 0
M  V30 5484 N 521.769 1.56035 0.221574 0
M  V30 5485 C 523.046 1.69837 0.970301 0
M  V30 5486 C 523.426 0.599065 2.02421 0
M  V30 5487 O 522.774 -0.393929 2.25079 0
M  V30 5488 C 522.984 3.11148 1.58076 0
M  V30 5489 C 524.332 3.70555 2.07302 0
M  V30 5490 O 525.356 3.14109 1.6797 0
M  V30 5491 O 524.215 4.69562 2.79596 0
M  V30 5492 H 521.309 0.691727 0.453257 0
M  V30 5493 H 523.855 1.68353 0.213358 0
M  V30 5494 H 522.627 3.82617 0.819759 0
M  V30 5495 H 522.25 3.16749 2.40324 0
M  V30 5496 N 523.247 -0.488276 1.49845 0
M  V30 5497 C 524.177 -1.59675 1.70371 0
M  V30 5498 C 525.158 -1.60878 0.552473 0
M  V30 5499 O 526.343 -1.77417 0.78973 0
M  V30 5500 C 523.473 -2.98098 1.782 0
M  V30 5501 C 522.427 -3.11761 2.93239 0
M  V30 5502 C 521.753 -4.51661 2.86193 0
M  V30 5503 C 523.053 -2.90589 4.33999 0
M  V30 5504 H 524.747 -1.42752 2.63177 0
M  V30 5505 H 522.293 -0.685317 1.26647 0
M  V30 5506 H 524.246 -3.75555 1.91144 0
M  V30 5507 H 522.97 -3.16138 0.820018 0
M  V30 5508 H 521.629 -2.36732 2.79917 0
M  V30 5509 H 521.277 -4.66595 1.87877 0
M  V30 5510 H 520.977 -4.61742 3.63412 0
M  V30 5511 H 522.501 -5.31162 3.01163 0
M  V30 5512 H 523.915 -3.57807 4.47936 0
M  V30 5513 H 522.312 -3.1213 5.12538 0
M  V30 5514 H 523.382 -1.86595 4.4756 0
M  V30 5515 N 524.725 -1.39134 -0.740242 0
M  V30 5516 C 525.973 -1.35803 -1.49673 0
M  V30 5517 C 526.294 0.0470897 -1.94943 0
M  V30 5518 O 525.564 0.997347 -1.68611 0
M  V30 5519 H 524.144 -0.499736 -0.555224 0
M  V30 5520 H 526.806 -1.73947 -0.879107 0
M  V30 5521 H 525.902 -2.0174 -2.38133 0
M  V30 5522 N 526.204 0.969867 -1.24223 0
M  V30 5523 C 527.134 2.08191 -1.05729 0
M  V30 5524 C 528.115 1.70075 0.0290765 0
M  V30 5525 O 529.3 1.93712 -0.137583 0
M  V30 5526 C 526.43 3.40991 -0.658995 0
M  V30 5527 C 525.384 3.93054 -1.69389 0
M  V30 5528 C 524.71 5.22171 -1.15072 0
M  V30 5529 C 526.01 4.21137 -3.08935 0
M  V30 5530 H 527.704 2.23921 -1.98746 0
M  V30 5531 H 525.25 1.07602 -0.956967 0
M  V30 5532 H 527.203 4.18221 -0.51662 0
M  V30 5533 H 525.927 3.25155 0.30686 0
M  V30 5534 H 524.586 3.17977 -1.82444 0
M  V30 5535 H 524.234 5.02694 -0.175539 0
M  V30 5536 H 523.934 5.57973 -1.84229 0
M  V30 5537 H 525.458 6.02013 -1.02042 0
M  V30 5538 H 526.872 4.8908 -2.99121 0
M  V30 5539 H 525.269 4.68163 -3.75425 0
M  V30 5540 H 526.339 3.27996 -3.57137 0
M  V30 5541 N 527.682 1.05563 1.17022 0
M  V30 5542 C 528.645 0.664098 2.19368 0
M  V30 5543 C 529.645 -0.286358 1.5823 0
M  V30 5544 O 530.835 -0.069728 1.7406 0
M  V30 5545 C 527.967 -0.0239932 3.40892 0
M  V30 5546 H 529.16 1.57 2.55521 0
M  V30 5547 H 526.713 0.849964 1.31169 0
M  V30 5548 H 527.448 -0.942988 3.10287 0
M  V30 5549 H 527.233 0.659351 3.86516 0
M  V30 5550 H 528.723 -0.283909 4.16634 0
M  V30 5551 N 529.16 -1.33526 0.837174 0
M  V30 5552 C 530.406 -1.9813 0.432704 0
M  V30 5553 C 530.739 -1.66168 -1.00508 0
M  V30 5554 O 530.014 -0.94069 -1.70239 0
M  V30 5555 C 530.297 -3.54151 0.651834 0
M  V30 5556 C 530.15 -3.95806 2.13676 0
M  V30 5557 C 531.469 -4.39993 0.0968937 0
M  V30 5558 H 528.588 -0.719713 0.15869 0
M  V30 5559 H 531.23 -1.58193 1.05237 0
M  V30 5560 H 529.38 -3.88301 0.124369 0
M  V30 5561 H 531.052 -3.71921 2.72896 0
M  V30 5562 H 529.295 -3.45599 2.62191 0
M  V30 5563 H 529.966 -5.0447 2.24084 0
M  V30 5564 H 532.442 -4.12479 0.547733 0
M  V30 5565 H 531.318 -5.48186 0.279917 0
M  V30 5566 H 531.579 -4.3066 -0.9992 0
M  V30 5567 N 530.638 -0.59345 -1.46 0
M  V30 5568 C 531.571 0.182196 -2.27472 0
M  V30 5569 C 532.549 0.886901 -1.36282 0
M  V30 5570 O 533.733 0.898627 -1.65701 0
M  V30 5571 C 530.86 1.26236 -3.14296 0
M  V30 5572 C 529.906 0.662331 -4.21326 0
M  V30 5573 S 530.739 -0.519017 -5.32979 0
M  V30 5574 C 531.895 0.562086 -6.23371 0
M  V30 5575 H 532.128 -0.509056 -2.92909 0
M  V30 5576 H 529.661 -0.380607 -1.49635 0
M  V30 5577 H 531.619 1.88075 -3.64881 0
M  V30 5578 H 530.28 1.92562 -2.48151 0
M  V30 5579 H 529.473 1.47461 -4.81945 0
M  V30 5580 H 529.075 0.119381 -3.73809 0
M  V30 5581 H 531.367 1.44494 -6.61912 0
M  V30 5582 H 532.31 -0.00760776 -7.081 0
M  V30 5583 H 532.718 0.871061 -5.57739 0
M  V30 5584 N 532.116 1.54067 -0.331816 0
M  V30 5585 C 533.066 2.21363 0.546101 0
M  V30 5586 C 534.05 1.19698 1.07523 0
M  V30 5587 O 535.242 1.45293 1.01088 0
M  V30 5588 C 532.371 2.98115 1.70242 0
M  V30 5589 C 531.457 4.07127 1.18779 0
M  V30 5590 N 531.848 5.04267 0.393465 0
M  V30 5591 C 530.146 4.21226 1.46576 0
M  V30 5592 C 530.847 5.81585 0.115572 0
M  V30 5593 N 529.823 5.39022 0.703987 0
M  V30 5594 H 533.625 2.93821 -0.0679751 0
M  V30 5595 H 531.139 1.61812 -0.138085 0
M  V30 5596 H 533.136 3.44818 2.34321 0
M  V30 5597 H 531.796 2.27181 2.31989 0
M  V30 5598 H 532.807 5.17888 0.0355757 0
M  V30 5599 H 529.484 3.61509 2.08848 0
M  V30 5600 H 530.874 6.6985 -0.524426 0
M  V30 5601 N 533.594 0.0601682 1.57485 0
M  V30 5602 C 534.819 -0.624416 1.97777 0
M  V30 5603 C 535.244 -1.63051 0.937867 0
M  V30 5604 O 534.602 -1.81036 -0.0978845 0
M  V30 5605 C 534.65 -1.27979 3.37126 0
M  V30 5606 O 533.754 -2.39556 3.35688 0
M  V30 5607 H 533.095 -0.161581 0.64404 0
M  V30 5608 H 535.625 0.131237 2.04179 0
M  V30 5609 H 535.635 -1.62937 3.74053 0
M  V30 5610 H 534.31 -0.542501 4.12347 0
M  V30 5611 H 532.887 -2.06478 3.10517 0
M  V30 5612 N 535.072 -1.5615 -0.213296 0
M  V30 5613 C 536.004 -1.89586 -1.28802 0
M  V30 5614 C 537.017 -0.784844 -1.42633 0
M  V30 5615 O 538.206 -1.06319 -1.43383 0
M  V30 5616 C 535.306 -2.09665 -2.66259 0
M  V30 5617 C 534.479 -3.40726 -2.7427 0
M  V30 5618 C 533.538 -3.50137 -3.92798 0
M  V30 5619 O 532.564 -4.23105 -3.8075 0
M  V30 5620 N 533.766 -2.81886 -5.07465 0
M  V30 5621 H 536.531 -2.82368 -1.00442 0
M  V30 5622 H 534.092 -1.56796 -0.403302 0
M  V30 5623 H 536.084 -2.13268 -3.43946 0
M  V30 5624 H 534.654 -1.23469 -2.87183 0
M  V30 5625 H 533.874 -3.4915 -1.82997 0
M  V30 5626 H 535.162 -4.27048 -2.76599 0
M  V30 5627 H 534.56 -2.22397 -5.2015 0
M  V30 5628 H 533.117 -2.91139 -5.83165 0
M  V30 5629 N 536.55 0.480323 -1.50102 0
M  V30 5630 C 537.775 1.26126 -1.64642 0
M  V30 5631 C 538.2 1.85257 -0.325823 0
M  V30 5632 O 537.558 1.66854 0.709194 0
M  V30 5633 C 537.606 2.35243 -2.73301 0
M  V30 5634 O 536.71 3.39646 -2.33911 0
M  V30 5635 H 536.051 0.371463 -0.550374 0
M  V30 5636 H 538.581 0.572696 -1.96421 0
M  V30 5637 H 538.591 2.80695 -2.96098 0
M  V30 5638 H 537.266 1.91574 -3.6915 0
M  V30 5639 H 535.843 2.99969 -2.21525 0
M  V30 5640 N 538.028 1.39524 0.732853 0
M  V30 5641 C 539.256 1.40143 1.52209 0
M  V30 5642 C 539.671 -0.00348836 1.888 0
M  V30 5643 O 539.028 -0.975357 1.5425 0
M  V30 5644 C 539.079 2.27632 2.8083 0
M  V30 5645 O 538.8 3.62654 2.45792 0
M  V30 5646 C 540.301 2.36658 3.74844 0
M  V30 5647 H 537.521 0.478604 0.470297 0
M  V30 5648 H 540.065 1.83366 0.905388 0
M  V30 5649 H 538.22 1.87818 3.38826 0
M  V30 5650 H 538.634 4.08941 3.28431 0
M  V30 5651 H 540.108 3.02118 4.61984 0
M  V30 5652 H 540.585 1.38638 4.16745 0
M  V30 5653 H 541.191 2.76951 3.22766 0
M  V30 5654 N 539.506 -0.963266 1.24736 0
M  V30 5655 C 540.454 -2.07985 1.04139 0
M  V30 5656 C 541.448 -1.69381 -0.0250556 0
M  V30 5657 O 542.654 -1.79531 0.129863 0
M  V30 5658 H 539.029 -0.680627 0.319768 0
M  V30 5659 H 541 -2.22517 1.98818 0
M  V30 5660 C 539.749 -3.4123 0.667615 0
M  V30 5661 H 539.072 -3.71397 1.48 0
M  V30 5662 H 540.512 -4.20244 0.563136 0
M  V30 5663 C 538.971 -3.3104 -0.625647 0
M  V30 5664 O 539.501 -3.65334 -1.67016 0
M  V30 5665 N 537.707 -2.84168 -0.608033 0
M  V30 5666 H 537.254 -2.56458 0.242323 0
M  V30 5667 H 537.212 -2.77732 -1.47352 0
M  V30 5668 N 540.985 -1.06182 -1.16461 0
M  V30 5669 C 541.917 -0.629584 -2.20383 0
M  V30 5670 C 542.93 0.311834 -1.59786 0
M  V30 5671 O 544.119 0.103 -1.78203 0
M  V30 5672 C 541.219 0.0973695 -3.3876 0
M  V30 5673 C 540.392 -0.857252 -4.28917 0
M  V30 5674 C 539.451 -0.169749 -5.25926 0
M  V30 5675 O 538.477 -0.807044 -5.6345 0
M  V30 5676 N 539.679 1.08911 -5.70192 0
M  V30 5677 H 542.444 -1.52352 -2.58087 0
M  V30 5678 H 540.005 -0.944993 -1.31459 0
M  V30 5679 H 541.997 0.567676 -4.00699 0
M  V30 5680 H 540.567 0.893093 -2.99571 0
M  V30 5681 H 539.787 -1.50696 -3.64259 0
M  V30 5682 H 541.075 -1.50489 -4.86035 0
M  V30 5683 H 540.473 1.62703 -5.41797 0
M  V30 5684 H 539.03 1.50331 -6.34227 0
M  V30 5685 N 542.463 1.3308 -0.844243 0
M  V30 5686 C 543.393 2.3161 -0.296493 0
M  V30 5687 C 544.374 1.59215 0.598707 0
M  V30 5688 O 545.559 1.87077 0.521134 0
M  V30 5689 C 542.689 3.43313 0.524762 0
M  V30 5690 C 541.643 4.27115 -0.275106 0
M  V30 5691 C 540.969 5.30483 0.670236 0
M  V30 5692 C 542.269 5.00443 -1.49514 0
M  V30 5693 H 543.963 2.77672 -1.11976 0
M  V30 5694 H 541.509 1.33496 -0.539899 0
M  V30 5695 H 543.462 4.11273 0.918298 0
M  V30 5696 H 542.186 2.95952 1.3813 0
M  V30 5697 H 540.845 3.60787 -0.650267 0
M  V30 5698 H 540.493 4.79379 1.52332 0
M  V30 5699 H 540.193 5.87435 0.139123 0
M  V30 5700 H 541.717 6.01308 1.06117 0
M  V30 5701 H 543.131 5.61141 -1.17447 0
M  V30 5702 H 541.528 5.67071 -1.96343 0
M  V30 5703 H 542.598 4.28906 -2.26202 0
M  V30 5704 N 543.941 0.601185 1.45683 0
M  V30 5705 C 545.218 0.0261659 1.95582 0
M  V30 5706 C 545.598 -1.4399 1.5437 0
M  V30 5707 O 544.946 -2.13919 0.80318 0
M  V30 5708 C 545.156 0.217557 3.48321 0
M  V30 5709 C 546.504 0.0950076 4.24494 0
M  V30 5710 O 547.528 0.147345 3.55895 0
M  V30 5711 O 546.387 -0.025261 5.46494 0
M  V30 5712 H 543.481 -0.0393688 0.826062 0
M  V30 5713 H 546.027 0.670798 1.55879 0
M  V30 5714 H 544.799 1.23601 3.71266 0
M  V30 5715 H 544.422 -0.46264 3.94899 0
M  V30 5716 N 545.419 -1.53889 0.339982 0
M  V30 5717 C 546.665 -2.01152 -0.258003 0
M  V30 5718 C 546.998 -1.22749 -1.50487 0
M  V30 5719 O 546.273 -0.314156 -1.91946 0
M  V30 5720 C 546.556 -3.55468 -0.575717 0
M  V30 5721 C 546.409 -4.44584 0.682996 0
M  V30 5722 C 547.728 -4.1768 -1.38677 0
M  V30 5723 H 544.847 -0.731198 -0.0922992 0
M  V30 5724 H 547.489 -1.84352 0.459814 0
M  V30 5725 H 545.639 -3.69914 -1.18725 0
M  V30 5726 H 547.311 -4.41981 1.32102 0
M  V30 5727 H 545.554 -4.13592 1.3086 0
M  V30 5728 H 546.225 -5.5043 0.416001 0
M  V30 5729 H 548.701 -4.0691 -0.869705 0
M  V30 5730 H 547.577 -5.25734 -1.57783 0
M  V30 5731 H 547.838 -3.72069 -2.38782 0
M  V30 5732 N 546.897 -0.0685191 -1.57451 0
M  V30 5733 C 548.145 0.60016 -1.92983 0
M  V30 5734 C 548.466 1.70348 -0.949028 0
M  V30 5735 O 547.736 1.959 0.00335647 0
M  V30 5736 H 546.316 0.224682 -0.712409 0
M  V30 5737 H 548.978 -0.125605 -1.94495 0
M  V30 5738 H 548.074 1.02759 -2.94698 0
M  V30 5739 N 548.375 1.56261 0.205012 0
M  V30 5740 C 549.323 1.94631 1.27364 0
M  V30 5741 C 550.317 0.830434 1.47649 0
M  V30 5742 O 551.523 1.01538 1.48627 0
M  V30 5743 H 547.898 0.618755 0.427371 0
M  V30 5744 H 549.869 2.83768 0.922941 0
M  V30 5745 C 548.618 2.29358 2.61324 0
M  V30 5746 H 547.941 3.14744 2.46528 0
M  V30 5747 H 549.381 2.60076 3.34868 0
M  V30 5748 C 547.84 1.12461 3.17575 0
M  V30 5749 O 548.37 0.394407 3.99759 0
M  V30 5750 N 546.576 0.904036 2.7618 0
M  V30 5751 H 546.123 1.49956 2.09454 0
M  V30 5752 H 546.081 0.123662 3.14157 0
M  V30 5753 N 549.853 -0.472356 1.50355 0
M  V30 5754 C 550.801 -1.59126 1.69651 0
M  V30 5755 C 551.795 -1.59793 0.56237 0
M  V30 5756 O 553.001 -1.63957 0.742832 0
M  V30 5757 H 549.376 -0.528008 0.535454 0
M  V30 5758 H 551.347 -1.40013 2.63513 0
M  V30 5759 C 550.096 -2.97075 1.8067 0
M  V30 5760 H 549.419 -2.9728 2.67329 0
M  V30 5761 H 550.859 -3.74825 1.98197 0
M  V30 5762 C 549.318 -3.32247 0.558016 0
M  V30 5763 O 549.848 -4.00553 -0.303399 0
M  V30 5764 N 548.054 -2.87659 0.412415 0
M  V30 5765 H 547.601 -2.32246 1.11443 0
M  V30 5766 H 547.559 -3.11556 -0.421908 0
M  V30 5767 N 551.331 -1.39911 -0.725443 0
M  V30 5768 C 552.742 -1.33599 -1.30415 0
M  V30 5769 C 553.093 -0.00481792 -1.96199 0
M  V30 5770 O 552.218 0.897275 -1.96921 0
M  V30 5771 C 552.813 -2.41965 -2.37146 0
M  V30 5772 C 551.372 -2.39144 -2.90667 0
M  V30 5773 C 550.519 -2.23355 -1.64341 0
M  V30 5774 H 553.47 -1.4986 -0.522267 0
M  V30 5775 H 553.491 -2.09304 -3.17761 0
M  V30 5776 H 553.003 -3.38837 -1.89238 0
M  V30 5777 H 551.104 -1.4594 -3.4283 0
M  V30 5778 H 551.217 -3.34362 -3.43131 0
M  V30 5779 H 549.581 -1.70696 -1.89037 0
M  V30 5780 H 550.364 -3.2221 -1.18471 0
M  V30 5781 N 552.809 0.956637 -1.25245 0
M  V30 5782 C 554.225 1.22733 -1.02023 0
M  V30 5783 C 554.425 1.99761 0.264186 0
M  V30 5784 O 553.481 2.32814 0.977436 0
M  V30 5785 C 554.794 2.00367 -2.24217 0
M  V30 5786 C 556.342 2.13418 -2.28958 0
M  V30 5787 C 556.817 2.9445 -3.50803 0
M  V30 5788 N 558.308 3.02029 -3.51187 0
M  V30 5789 C 559.043 3.65116 -4.42129 0
M  V30 5790 N 558.539 4.2983 -5.43339 0
M  V30 5791 N 560.332 3.62237 -4.29815 0
M  V30 5792 H 552.483 0.441282 -2.07765 0
M  V30 5793 H 554.746 0.257686 -0.912306 0
M  V30 5794 H 554.452 1.51165 -3.17556 0
M  V30 5795 H 554.326 3.01077 -2.27228 0
M  V30 5796 H 556.713 2.61819 -1.36143 0
M  V30 5797 H 556.794 1.1202 -2.29968 0
M  V30 5798 H 556.438 2.46741 -4.43939 0
M  V30 5799 H 556.368 3.9607 -3.47039 0
M  V30 5800 H 558.859 2.56007 -2.77973 0
M  V30 5801 H 559.172 4.75819 -6.08947 0
M  V30 5802 H 557.517 4.28465 -5.47214 0
M  V30 5803 H 560.708 3.10863 -3.49974 0
M  V30 5804 H 560.881 4.11117 -5.00886 0
M  V30 5805 N 554.287 1.06798 1.15896 0
M  V30 5806 C 555.533 0.788934 1.86825 0
M  V30 5807 C 555.866 -0.683084 1.8179 0
M  V30 5808 O 555.141 -1.50086 1.23711 0
M  V30 5809 C 555.424 1.29065 3.36176 0
M  V30 5810 C 555.277 2.8268 3.49874 0
M  V30 5811 C 556.596 0.902655 4.30744 0
M  V30 5812 H 553.715 0.288066 0.678371 0
M  V30 5813 H 556.357 1.32479 1.36195 0
M  V30 5814 H 554.507 0.834806 3.79425 0
M  V30 5815 H 556.179 3.36511 3.15528 0
M  V30 5816 H 554.422 3.21157 2.91617 0
M  V30 5817 H 555.093 3.12852 4.54783 0
M  V30 5818 H 557.569 1.29535 3.95424 0
M  V30 5819 H 556.445 1.28111 5.3374 0
M  V30 5820 H 556.706 -0.191951 4.41683 0
M  V30 5821 N 555.766 -1.3263 0.851289 0
M  V30 5822 C 557.014 -1.96978 0.452128 0
M  V30 5823 C 557.335 -1.67715 -0.99482 0
M  V30 5824 O 556.605 -0.98259 -1.69476 0
M  V30 5825 H 555.185 -0.72873 0.164202 0
M  V30 5826 H 557.847 -1.61774 1.08698 0
M  V30 5827 H 556.943 -3.06387 0.594407 0
M  V30 5828 N 557.244 -0.608902 -1.45362 0
M  V30 5829 C 558.472 -0.111013 -2.06602 0
M  V30 5830 C 558.887 1.20516 -1.45332 0
M  V30 5831 O 558.244 1.73437 -0.567978 0
M  V30 5832 C 558.295 0.033688 -3.61484 0
M  V30 5833 O 558.016 -1.23041 -4.20467 0
M  V30 5834 C 559.517 0.562882 -4.39712 0
M  V30 5835 H 556.737 -0.0694453 -0.667397 0
M  V30 5836 H 559.281 -0.837008 -1.86586 0
M  V30 5837 H 557.436 0.710016 -3.80838 0
M  V30 5838 H 557.85 -1.06094 -5.13658 0
M  V30 5839 H 559.324 0.613213 -5.48583 0
M  V30 5840 H 559.801 1.58543 -4.09586 0
M  V30 5841 H 560.407 -0.0794454 -4.25226 0
M  V30 5842 N 558.722 1.53707 -0.348139 0
M  V30 5843 C 559.669 2.25173 0.506518 0
M  V30 5844 C 560.639 1.25174 1.09182 0
M  V30 5845 O 561.824 1.53917 1.12757 0
M  V30 5846 C 558.964 3.03141 1.64923 0
M  V30 5847 C 558.077 4.18002 1.0908 0
M  V30 5848 C 557.212 4.83447 2.20119 0
M  V30 5849 C 556.251 5.90369 1.61651 0
M  V30 5850 N 555.388 6.49575 2.66451 0
M  V30 5851 H 560.228 2.97799 -0.109452 0
M  V30 5852 H 557.765 1.46953 -0.0657866 0
M  V30 5853 H 559.723 3.46607 2.32205 0
M  V30 5854 H 558.353 2.32803 2.23612 0
M  V30 5855 H 557.405 3.79145 0.308783 0
M  V30 5856 H 558.717 4.94892 0.623178 0
M  V30 5857 H 557.871 5.30008 2.95257 0
M  V30 5858 H 556.61 4.05991 2.70227 0
M  V30 5859 H 555.615 5.43186 0.850209 0
M  V30 5860 H 556.84 6.69735 1.1239 0
M  V30 5861 H 554.786 5.74981 3.15805 0
M  V30 5862 H 554.703 7.21952 2.24325 0
M  V30 5863 H 555.971 7.00789 3.41344 0
M  V30 5864 N 560.2 0.0768682 1.57412 0
M  V30 5865 C 561.616 -0.279772 1.57129 0
M  V30 5866 C 561.816 -1.69688 1.08666 0
M  V30 5867 O 560.872 -2.40953 0.754843 0
M  V30 5868 C 562.185 -0.0848055 3.0058 0
M  V30 5869 C 563.733 -0.153954 3.12621 0
M  V30 5870 C 564.208 0.0127946 4.57998 0
M  V30 5871 N 565.699 -0.0426435 4.6318 0
M  V30 5872 C 566.434 0.0618892 5.73367 0
M  V30 5873 N 565.93 0.220229 6.9245 0
M  V30 5874 N 567.723 0.00446072 5.621 0
M  V30 5875 H 559.874 1.00297 1.87228 0
M  V30 5876 H 562.137 0.391565 0.863354 0
M  V30 5877 H 561.843 0.89325 3.40168 0
M  V30 5878 H 561.717 -0.834961 3.67843 0
M  V30 5879 H 564.104 -1.1225 2.72917 0
M  V30 5880 H 564.185 0.627389 2.47987 0
M  V30 5881 H 563.829 0.978128 4.98392 0
M  V30 5882 H 563.759 -0.788016 5.20671 0
M  V30 5883 H 566.25 -0.163226 3.77547 0
M  V30 5884 H 566.563 0.291999 7.72248 0
M  V30 5885 H 564.908 0.255658 6.9453 0
M  V30 5886 H 568.099 -0.117979 4.67951 0
M  V30 5887 H 568.272 0.0893796 6.47938 0
M  V30 5888 N 561.678 -1.56367 -0.196722 0
M  V30 5889 C 562.908 -1.84371 -0.932254 0
M  V30 5890 C 563.316 -0.657013 -1.77426 0
M  V30 5891 O 562.659 0.383576 -1.79651 0
M  V30 5892 C 562.721 -3.06454 -1.87952 0
M  V30 5893 C 562.385 -4.40425 -1.21962 0
M  V30 5894 C 563.382 -5.16457 -0.597343 0
M  V30 5895 C 561.067 -4.8716 -1.22396 0
M  V30 5896 C 563.061 -6.37399 0.0117913 0
M  V30 5897 C 560.748 -6.08038 -0.610995 0
M  V30 5898 C 561.746 -6.83 0.00580487 0
M  V30 5899 O 561.434 -8.01589 0.609173 0
M  V30 5900 H 561.166 -0.616377 -0.277589 0
M  V30 5901 H 563.72 -2.04329 -0.209452 0
M  V30 5902 H 561.95 -2.82377 -2.64197 0
M  V30 5903 H 563.639 -3.21118 -2.48271 0
M  V30 5904 H 564.405 -4.81445 -0.586142 0
M  V30 5905 H 560.284 -4.2877 -1.69345 0
M  V30 5906 H 563.828 -6.9585 0.493836 0
M  V30 5907 H 559.725 -6.42519 -0.619693 0
M  V30 5908 H 560.493 -8.16935 0.505919 0
M  V30 5909 N 563.156 0.464375 -1.50603 0
M  V30 5910 C 564.089 1.58052 -1.64605 0
M  V30 5911 C 565.067 1.54914 -0.494016 0
M  V30 5912 O 566.251 1.74438 -0.714393 0
M  V30 5913 C 563.378 2.96634 -1.63481 0
M  V30 5914 C 562.424 3.17901 -2.84325 0
M  V30 5915 S 563.257 2.97083 -4.45536 0
M  V30 5916 C 564.413 4.37994 -4.47115 0
M  V30 5917 H 564.646 1.45937 -2.59017 0
M  V30 5918 H 562.179 0.652189 -1.39949 0
M  V30 5919 H 564.137 3.76527 -1.63517 0
M  V30 5920 H 562.798 3.06134 -0.702928 0
M  V30 5921 H 561.991 4.19158 -2.79862 0
M  V30 5922 H 561.593 2.45792 -2.81891 0
M  V30 5923 H 563.885 5.30743 -4.21091 0
M  V30 5924 H 564.828 4.47499 -5.48772 0
M  V30 5925 H 565.236 4.20386 -3.76743 0
M  V30 5926 N 564.634 1.40294 0.718013 0
M  V30 5927 C 565.597 1.4012 1.81381 0
M  V30 5928 C 566.597 0.295405 1.58063 0
M  V30 5929 O 567.787 0.554187 1.6515 0
M  V30 5930 C 564.919 1.19056 3.19435 0
M  V30 5931 H 566.112 2.37645 1.82933 0
M  V30 5932 H 563.665 1.26107 0.923405 0
M  V30 5933 H 564.4 0.222809 3.23534 0
M  V30 5934 H 564.185 1.99152 3.37758 0
M  V30 5935 H 565.675 1.21716 3.99468 0
M  V30 5936 N 566.112 -0.949982 1.2575 0
M  V30 5937 C 567.523 -1.50989 1.09815 0
M  V30 5938 C 567.874 -1.93497 -0.324556 0
M  V30 5939 O 566.999 -1.79068 -1.21506 0
M  V30 5940 C 567.594 -2.74394 1.98729 0
M  V30 5941 C 566.153 -3.26682 1.86965 0
M  V30 5942 C 565.3 -1.99498 1.92603 0
M  V30 5943 H 568.251 -0.766387 1.38968 0
M  V30 5944 H 568.272 -3.48383 1.53001 0
M  V30 5945 H 567.784 -2.43425 3.02268 0
M  V30 5946 H 565.885 -3.62461 0.863279 0
M  V30 5947 H 565.998 -3.94383 2.72027 0
M  V30 5948 H 564.362 -2.15005 1.36546 0
M  V30 5949 H 565.145 -1.70871 2.97755 0
M  V30 5950 N 567.59 -1.07411 -1.15328 0
M  V30 5951 C 568.5 -0.706438 -2.23711 0
M  V30 5952 C 569.516 0.282586 -1.7169 0
M  V30 5953 O 570.692 0.129066 -2.00986 0
M  V30 5954 C 567.757 -0.11048 -3.46524 0
M  V30 5955 C 566.818 -1.15282 -4.13532 0
M  V30 5956 C 566.051 -0.585205 -5.30482 0
M  V30 5957 O 566.274 0.598549 -5.67251 0
M  V30 5958 O 565.208 -1.33039 -5.87013 0
M  V30 5959 H 569.034 -1.61031 -2.57493 0
M  V30 5960 H 566.619 -0.847113 -1.23062 0
M  V30 5961 H 568.501 0.21957 -4.20828 0
M  V30 5962 H 567.176 0.766703 -3.14489 0
M  V30 5963 H 566.083 -1.53523 -3.41147 0
M  V30 5964 H 567.416 -2.00192 -4.49649 0
M  V30 5965 N 569.068 1.32177 -0.85831 0
M  V30 5966 C 570.314 1.97417 -0.46417 0
M  V30 5967 C 570.647 1.67746 0.978514 0
M  V30 5968 O 569.922 0.967654 1.68721 0
M  V30 5969 C 570.205 3.53069 -0.708094 0
M  V30 5970 C 570.058 3.92357 -2.19946 0
M  V30 5971 C 571.377 4.39783 -0.166881 0
M  V30 5972 H 568.496 0.717097 -0.17012 0
M  V30 5973 H 571.138 1.56499 -1.07741 0
M  V30 5974 H 569.288 3.88054 -0.186128 0
M  V30 5975 H 570.96 3.67533 -2.78779 0
M  V30 5976 H 569.203 3.41384 -2.67656 0
M  V30 5977 H 569.874 5.00841 -2.32082 0
M  V30 5978 H 572.35 4.11556 -0.613285 0
M  V30 5979 H 571.226 5.47671 -0.367093 0
M  V30 5980 H 571.487 4.32196 0.930559 0
M  V30 5981 N 570.547 0.616602 1.45037 0
M  V30 5982 C 571.477 -0.0840787 2.33349 0
M  V30 5983 C 572.458 -0.849641 1.4736 0
M  V30 5984 O 573.643 -0.818407 1.76113 0
M  V30 5985 C 570.773 -1.07604 3.3021 0
M  V30 5986 C 569.727 -0.423096 4.25904 0
M  V30 5987 C 569.053 -1.52394 5.12523 0
M  V30 5988 C 570.353 0.661457 5.18095 0
M  V30 5989 H 572.047 0.653333 2.92185 0
M  V30 5990 H 569.593 0.315634 1.40498 0
M  V30 5991 H 571.546 -1.57485 3.90866 0
M  V30 5992 H 570.27 -1.84416 2.69552 0
M  V30 5993 H 568.929 0.05493 3.66559 0
M  V30 5994 H 568.577 -2.28257 4.48227 0
M  V30 5995 H 568.277 -1.09251 5.77354 0
M  V30 5996 H 569.801 -2.02485 5.76049 0
M  V30 5997 H 571.215 0.246353 5.7277 0
M  V30 5998 H 569.612 1.01517 5.91451 0
M  V30 5999 H 570.682 1.53446 4.59981 0
M  V30 6000 N 572.025 -1.5352 0.356285 0
M  V30 6001 C 573.302 -1.93405 -0.292223 0
M  V30 6002 C 573.682 -1.28901 -1.67176 0
M  V30 6003 O 573.03 -0.444632 -2.24132 0
M  V30 6004 C 573.24 -3.47223 -0.35175 0
M  V30 6005 C 574.588 -4.20389 -0.596534 0
M  V30 6006 O 575.612 -3.53554 -0.433344 0
M  V30 6007 O 574.471 -5.3881 -0.913589 0
M  V30 6008 H 571.565 -0.808666 -0.173172 0
M  V30 6009 H 574.111 -1.64713 0.408391 0
M  V30 6010 H 572.883 -3.86423 0.615841 0
M  V30 6011 H 572.506 -3.8212 -1.09864 0
M  V30 6012 N 573.503 -0.0852151 -1.57369 0
M  V30 6013 C 574.413 0.891712 -2.16992 0
M  V30 6014 C 575.429 1.3174 -1.13669 0
M  V30 6015 O 576.605 1.38735 -1.45995 0
M  V30 6016 C 573.67 2.13635 -2.73059 0
M  V30 6017 C 572.731 1.7658 -3.91303 0
M  V30 6018 C 571.964 2.95111 -4.44686 0
M  V30 6019 O 572.187 4.09539 -3.97032 0
M  V30 6020 O 571.121 2.74149 -5.35841 0
M  V30 6021 H 574.947 0.414477 -3.00858 0
M  V30 6022 H 572.532 0.138598 -1.48756 0
M  V30 6023 H 574.414 2.86595 -3.08935 0
M  V30 6024 H 573.089 2.6043 -1.92244 0
M  V30 6025 H 571.996 1.00831 -3.60255 0
M  V30 6026 H 573.329 1.34557 -4.7345 0
M  V30 6027 N 574.981 1.5647 0.188427 0
M  V30 6028 C 576.209 1.85131 0.923803 0
M  V30 6029 C 576.624 0.668537 1.76567 0
M  V30 6030 O 575.981 -0.362662 1.7886 0
M  V30 6031 C 576.032 3.12661 1.81453 0
M  V30 6032 O 575.753 4.26378 1.00665 0
M  V30 6033 C 577.254 3.54548 2.66103 0
M  V30 6034 H 574.474 0.614624 0.269218 0
M  V30 6035 H 577.018 2.03581 0.193671 0
M  V30 6036 H 575.173 2.96088 2.49821 0
M  V30 6037 H 575.587 4.99041 1.61425 0
M  V30 6038 H 577.061 4.4673 3.24247 0
M  V30 6039 H 577.538 2.77853 3.40139 0
M  V30 6040 H 578.144 3.73674 2.03096 0
M  V30 6041 N 576.459 -0.456382 1.50847 0
M  V30 6042 C 577.708 -1.2042 1.61808 0
M  V30 6043 C 578.021 -1.9278 0.330932 0
M  V30 6044 O 579.227 -2.69612 0.319643 0
M  V30 6045 C 577.683 -2.18891 2.85683 0
M  V30 6046 C 577.291 -1.52267 4.2133 0
M  V30 6047 C 579.035 -2.94224 3.05994 0
M  V30 6048 C 576.942 -2.4911 5.36375 0
M  V30 6049 H 575.872 -0.453177 0.602616 0
M  V30 6050 H 578.523 -0.473144 1.77295 0
M  V30 6051 H 576.905 -2.95351 2.63787 0
M  V30 6052 H 578.079 -0.814949 4.53536 0
M  V30 6053 H 576.394 -0.891594 4.06743 0
M  V30 6054 H 578.991 -3.66732 3.89117 0
M  V30 6055 H 579.334 -3.54469 2.18306 0
M  V30 6056 H 579.867 -2.24874 3.28141 0
M  V30 6057 H 576.606 -1.93582 6.26264 0
M  V30 6058 H 576.126 -3.17991 5.08569 0
M  V30 6059 H 577.805 -3.10637 5.67551 0
M  V30 6060 N 577.937 -1.40673 -0.710563 0
M  V30 6061 C 578.869 -1.37256 -1.83558 0
M  V30 6062 C 579.882 -0.277133 -1.60424 0
M  V30 6063 O 581.071 -0.537831 -1.70205 0
M  V30 6064 C 578.171 -1.1144 -3.20054 0
M  V30 6065 C 577.344 -2.32734 -3.70342 0
M  V30 6066 C 576.403 -2.03002 -4.85465 0
M  V30 6067 O 575.429 -2.75912 -4.97857 0
M  V30 6068 N 576.631 -1.01105 -5.71627 0
M  V30 6069 H 579.396 -2.34215 -1.86985 0
M  V30 6070 H 576.957 -1.35091 -0.892301 0
M  V30 6071 H 578.949 -0.895265 -3.94673 0
M  V30 6072 H 577.519 -0.231307 -3.11743 0
M  V30 6073 H 576.739 -2.70446 -2.86798 0
M  V30 6074 H 578.027 -3.13584 -4.00678 0
M  V30 6075 H 577.425 -0.407303 -5.64232 0
M  V30 6076 H 575.982 -0.85182 -6.4621 0
M  V30 6077 N 579.415 0.9433 -1.26252 0
M  V30 6078 C 580.661 1.69175 -1.11837 0
M  V30 6079 C 580.994 1.91238 0.337891 0
M  V30 6080 O 580.269 1.49152 1.24836 0
M  V30 6081 C 580.552 3.06783 -1.88563 0
M  V30 6082 C 580.405 2.9206 -3.42083 0
M  V30 6083 C 581.724 4.06865 -1.67776 0
M  V30 6084 H 578.843 0.61399 -0.407658 0
M  V30 6085 H 581.485 1.09572 -1.55222 0
M  V30 6086 H 579.635 3.57663 -1.51689 0
M  V30 6087 H 581.307 2.48419 -3.88698 0
M  V30 6088 H 579.55 2.27731 -3.69217 0
M  V30 6089 H 580.221 3.89651 -3.90994 0
M  V30 6090 H 582.697 3.64939 -1.99897 0
M  V30 6091 H 581.573 5.01168 -2.23879 0
M  V30 6092 H 581.834 4.37705 -0.621816 0
M  V30 6093 N 580.893 1.08022 1.14757 0
M  V30 6094 C 582.17 0.720386 1.81851 0
M  V30 6095 C 582.55 -0.796375 1.95502 0
M  V30 6096 O 581.898 -1.71339 1.51179 0
M  V30 6097 C 582.108 1.44273 3.17783 0
M  V30 6098 C 583.456 1.59925 3.93331 0
M  V30 6099 O 584.48 1.40407 3.2736 0
M  V30 6100 O 583.339 1.92096 5.11626 0
M  V30 6101 H 580.433 0.257142 0.786007 0
M  V30 6102 H 582.979 1.18155 1.21809 0
M  V30 6103 H 581.751 2.47618 3.02987 0
M  V30 6104 H 581.374 0.97279 3.85516 0
M  V30 6105 N 582.371 -1.3172 0.865308 0
M  V30 6106 C 583.611 -1.98675 0.480365 0
M  V30 6107 C 583.975 -1.66929 -0.948621 0
M  V30 6108 O 585.176 -2.27059 -1.43867 0
M  V30 6109 C 583.447 -3.49972 0.724858 0
M  V30 6110 S 585.006 -4.36598 0.439078 0
M  V30 6111 H 581.824 -0.687967 0.179506 0
M  V30 6112 H 584.426 -1.60215 1.12033 0
M  V30 6113 H 583.13 -3.70567 1.76375 0
M  V30 6114 H 582.661 -3.93335 0.0717173 0
M  V30 6115 H 584.676 -4.90792 -0.730564 0
M  V30 6116 N 583.85 -0.624285 -1.44708 0
M  V30 6117 C 585.096 -0.126051 -2.02107 0
M  V30 6118 C 585.425 1.2496 -1.49048 0
M  V30 6119 O 584.68 1.84163 -0.662005 0
M  V30 6120 C 584.979 -0.0546353 -3.57358 0
M  V30 6121 C 584.644 -1.36815 -4.29642 0
M  V30 6122 C 583.307 -1.72792 -4.49106 0
M  V30 6123 C 585.659 -2.23549 -4.70824 0
M  V30 6124 C 582.986 -2.95222 -5.07012 0
M  V30 6125 C 585.339 -3.45243 -5.30085 0
M  V30 6126 C 584.003 -3.81452 -5.47769 0
M  V30 6127 H 583.273 -0.0461252 -0.739563 0
M  V30 6128 H 585.92 -0.809236 -1.73562 0
M  V30 6129 H 584.225 0.711891 -3.85278 0
M  V30 6130 H 585.922 0.347282 -3.99493 0
M  V30 6131 H 582.512 -1.07817 -4.14817 0
M  V30 6132 H 586.696 -1.9705 -4.55505 0
M  V30 6133 H 581.952 -3.23361 -5.18891 0
M  V30 6134 H 586.125 -4.12689 -5.60946 0
M  V30 6135 H 583.753 -4.76403 -5.92405 0
M  V30 6136 N 585.328 1.53329 -0.364422 0
M  V30 6137 C 586.605 1.93557 0.281962 0
M  V30 6138 C 586.985 1.29786 1.6649 0
M  V30 6139 O 586.333 0.456512 2.23893 0
M  V30 6140 C 586.543 3.47405 0.333331 0
M  V30 6141 C 587.891 4.20699 0.574231 0
M  V30 6142 O 588.915 3.53779 0.414588 0
M  V30 6143 O 587.774 5.39287 0.885002 0
M  V30 6144 H 584.868 0.809573 0.168881 0
M  V30 6145 H 587.414 1.64494 -0.417121 0
M  V30 6146 H 586.186 3.86091 -0.636326 0
M  V30 6147 H 585.809 3.82697 1.07836 0
M  V30 6148 N 586.806 0.0935595 1.57322 0
M  V30 6149 C 588.031 -0.582324 1.99057 0
M  V30 6150 C 588.456 -1.61025 0.972242 0
M  V30 6151 O 587.814 -1.81202 -0.0594622 0
M  V30 6152 C 587.862 -1.20799 3.39765 0
M  V30 6153 O 586.966 -2.32382 3.40694 0
M  V30 6154 H 586.307 -0.147884 0.647323 0
M  V30 6155 H 588.837 0.174516 2.03854 0
M  V30 6156 H 588.847 -1.54966 3.77425 0
M  V30 6157 H 587.522 -0.454914 4.13405 0
M  V30 6158 H 586.099 -1.99845 3.14827 0
M  V30 6159 N 588.284 -1.56567 -0.180126 0
M  V30 6160 C 589.514 -1.85349 -0.912647 0
M  V30 6161 C 589.922 -0.675795 -1.76719 0
M  V30 6162 O 589.265 0.3645 -1.80047 0
M  V30 6163 C 589.327 -3.08431 -1.84691 0
M  V30 6164 C 588.991 -4.41694 -1.17284 0
M  V30 6165 C 589.988 -5.17062 -0.542532 0
M  V30 6166 C 587.673 -4.8843 -1.17223 0
M  V30 6167 C 589.667 -6.37351 0.0793953 0
M  V30 6168 C 587.354 -6.08652 -0.54647 0
M  V30 6169 C 588.352 -6.82955 0.0782458 0
M  V30 6170 O 588.04 -8.00897 0.694158 0
M  V30 6171 H 587.772 -0.619286 -0.271036 0
M  V30 6172 H 590.326 -2.0454 -0.187768 0
M  V30 6173 H 588.556 -2.85163 -2.61188 0
M  V30 6174 H 590.245 -3.23733 -2.44851 0
M  V30 6175 H 591.011 -4.8204 -0.535045 0
M  V30 6176 H 586.89 -4.30542 -1.64788 0
M  V30 6177 H 590.434 -6.95287 0.567612 0
M  V30 6178 H 586.331 -6.4314 -0.55151 0
M  V30 6179 H 587.099 -8.16352 0.592537 0
M  V30 6180 N 589.762 0.448376 -1.51087 0
M  V30 6181 C 590.709 1.54341 -1.71603 0
M  V30 6182 C 591.679 1.56463 -0.557536 0
M  V30 6183 O 592.864 1.73644 -0.79072 0
M  V30 6184 C 590.004 2.92148 -1.83695 0
M  V30 6185 C 589.117 2.99639 -3.11192 0
M  V30 6186 C 588.252 4.285 -3.13944 0
M  V30 6187 C 587.291 4.29819 -4.35801 0
M  V30 6188 N 586.428 5.50186 -4.36164 0
M  V30 6189 H 591.268 1.36151 -2.65079 0
M  V30 6190 H 588.805 0.661585 -1.31383 0
M  V30 6191 H 590.763 3.72093 -1.88687 0
M  V30 6192 H 589.393 3.0892 -0.936374 0
M  V30 6193 H 588.445 2.12425 -3.15562 0
M  V30 6194 H 589.757 2.96474 -4.01129 0
M  V30 6195 H 588.911 5.16811 -3.17791 0
M  V30 6196 H 587.65 4.34307 -2.21876 0
M  V30 6197 H 586.655 3.39902 -4.32142 0
M  V30 6198 H 587.88 4.25685 -5.29121 0
M  V30 6199 H 585.826 5.56735 -3.46961 0
M  V30 6200 H 585.743 5.48856 -5.19897 0
M  V30 6201 H 587.011 6.40559 -4.44189 0
M  V30 6202 N 591.24 1.41047 0.703093 0
M  V30 6203 C 592.656 1.23351 1.01275 0
M  V30 6204 C 592.856 0.11754 2.01157 0
M  V30 6205 O 591.912 -0.520518 2.47077 0
M  V30 6206 C 593.225 2.58001 1.54454 0
M  V30 6207 C 594.773 2.65119 1.66376 0
M  V30 6208 C 595.248 4.00067 2.22958 0
M  V30 6209 N 596.739 4.01875 2.30328 0
M  V30 6210 C 597.474 5.03087 2.75119 0
M  V30 6211 N 596.97 6.14692 3.19571 0
M  V30 6212 N 598.763 4.90451 2.74616 0
M  V30 6213 H 590.914 2.1236 0.0412686 0
M  V30 6214 H 593.177 0.944543 0.08089 0
M  V30 6215 H 592.883 3.40378 0.88521 0
M  V30 6216 H 592.757 2.79962 2.52786 0
M  V30 6217 H 595.144 1.83106 2.31422 0
M  V30 6218 H 595.225 2.46975 0.666089 0
M  V30 6219 H 594.869 4.82526 1.58529 0
M  V30 6220 H 594.799 4.15547 3.23462 0
M  V30 6221 H 597.29 3.21291 1.98949 0
M  V30 6222 H 597.603 6.87799 3.52352 0
M  V30 6223 H 595.948 6.18239 3.17498 0
M  V30 6224 H 599.139 4.0235 2.39233 0
M  V30 6225 H 599.312 5.6947 3.09206 0
M  V30 6226 N 592.718 -0.936591 1.26751 0
M  V30 6227 C 593.964 -1.6858 1.12733 0
M  V30 6228 C 594.297 -1.91414 -0.327745 0
M  V30 6229 O 593.572 -1.49812 -1.24043 0
M  V30 6230 C 593.855 -3.05779 1.90187 0
M  V30 6231 C 593.708 -2.90242 3.43627 0
M  V30 6232 C 595.027 -4.0597 1.69931 0
M  V30 6233 H 592.146 -0.61182 0.410908 0
M  V30 6234 H 594.788 -1.08747 1.55801 0
M  V30 6235 H 592.938 -3.56853 1.53584 0
M  V30 6236 H 594.61 -2.46354 3.9001 0
M  V30 6237 H 592.853 -2.2577 3.70419 0
M  V30 6238 H 593.524 -3.87572 3.93055 0
M  V30 6239 H 596 -3.63874 2.0183 0
M  V30 6240 H 594.876 -4.99974 2.26534 0
M  V30 6241 H 595.137 -4.37369 0.64502 0
M  V30 6242 N 594.196 -1.08629 -1.14182 0
M  V30 6243 C 595.473 -0.73002 -1.81466 0
M  V30 6244 C 595.853 0.785996 -1.95922 0
M  V30 6245 O 595.201 1.70535 -1.52086 0
M  V30 6246 C 595.411 -1.45957 -3.17014 0
M  V30 6247 C 596.759 -1.62008 -3.92477 0
M  V30 6248 O 597.783 -1.42141 -3.26611 0
M  V30 6249 O 596.642 -1.94806 -5.106 0
M  V30 6250 H 593.736 -0.261307 -0.784632 0
M  V30 6251 H 596.282 -1.188 -1.2118 0
M  V30 6252 H 595.054 -2.49221 -3.01669 0
M  V30 6253 H 594.677 -0.993222 -3.84995 0
M  V30 6254 N 595.674 1.31259 -0.872281 0
M  V30 6255 C 596.923 1.95893 -0.480493 0
M  V30 6256 C 597.236 1.697 0.972688 0
M  V30 6257 O 598.442 2.28214 1.47073 0
M  V30 6258 C 596.898 3.50705 -0.808342 0
M  V30 6259 C 596.506 3.85735 -2.27844 0
M  V30 6260 C 598.25 4.21719 -0.485136 0
M  V30 6261 C 596.157 5.33668 -2.54858 0
M  V30 6262 H 595.087 0.733182 -0.175955 0
M  V30 6263 H 597.738 1.49396 -1.0655 0
M  V30 6264 H 596.12 3.95706 -0.152558 0
M  V30 6265 H 597.294 3.51686 -2.97748 0
M  V30 6266 H 595.609 3.27792 -2.56791 0
M  V30 6267 H 598.206 5.30559 -0.664166 0
M  V30 6268 H 598.549 4.12316 0.574592 0
M  V30 6269 H 599.082 3.82359 -1.09756 0
M  V30 6270 H 595.821 5.48109 -3.59523 0
M  V30 6271 H 595.341 5.69061 -1.8955 0
M  V30 6272 H 597.02 6.00958 -2.39706 0
M  V30 6273 N 597.152 0.631951 1.44375 0
M  V30 6274 C 598.398 0.145491 2.02879 0
M  V30 6275 C 598.753 -1.21936 1.48827 0
M  V30 6276 O 598.046 -1.7976 0.663085 0
M  V30 6277 C 598.24 0.0735861 3.57324 0
M  V30 6278 C 598.069 1.42992 4.2636 0
M  V30 6279 C 596.839 2.01691 4.63302 0
M  V30 6280 C 599.037 2.36393 4.56752 0
M  V30 6281 N 597.019 3.30551 5.17309 0
M  V30 6282 C 598.39 3.49869 5.11851 0
M  V30 6283 C 600.445 2.35462 4.38705 0
M  V30 6284 C 599.148 4.6261 5.50803 0
M  V30 6285 C 601.174 3.47268 4.78706 0
M  V30 6286 C 600.536 4.59467 5.33919 0
M  V30 6287 H 596.635 0.0971781 0.775938 0
M  V30 6288 H 599.219 0.835624 1.75856 0
M  V30 6289 H 597.39 -0.585829 3.83957 0
M  V30 6290 H 599.122 -0.421777 4.02496 0
M  V30 6291 H 595.877 1.54627 4.47647 0
M  V30 6292 H 596.301 3.96435 5.48788 0
M  V30 6293 H 600.943 1.49966 3.9531 0
M  V30 6294 H 598.661 5.48813 5.93152 0
M  V30 6295 H 602.247 3.47724 4.66454 0
M  V30 6296 H 601.127 5.44551 5.64299 0
M  V30 6297 N 598.631 -1.53133 0.372548 0
M  V30 6298 C 599.594 -2.24569 -0.458389 0
M  V30 6299 C 600.594 -1.25603 -1.00402 0
M  V30 6300 O 601.784 -1.49827 -0.888672 0
M  V30 6301 C 598.916 -2.98783 -1.6414 0
M  V30 6302 H 600.109 -2.99436 0.166799 0
M  V30 6303 H 597.662 -1.55805 0.124357 0
M  V30 6304 H 598.397 -2.28176 -2.30448 0
M  V30 6305 H 598.182 -3.71404 -1.25704 0
M  V30 6306 H 599.672 -3.53068 -2.23008 0
M  V30 6307 N 600.109 -0.101901 -1.5727 0
M  V30 6308 C 601.356 0.560197 -1.94597 0
M  V30 6309 C 601.684 1.67767 -0.984101 0
M  V30 6310 O 600.939 1.95699 -0.00489193 0
M  V30 6311 C 601.238 1.14898 -3.38427 0
M  V30 6312 C 600.904 0.154613 -4.50635 0
M  V30 6313 C 599.566 -0.118861 -4.81053 0
M  V30 6314 C 601.918 -0.523979 -5.18559 0
M  V30 6315 C 599.246 -1.0775 -5.76721 0
M  V30 6316 C 601.598 -1.47114 -6.15256 0
M  V30 6317 C 600.262 -1.75278 -6.44076 0
M  V30 6318 H 599.532 0.204991 -0.712081 0
M  V30 6319 H 602.179 -0.17918 -1.9066 0
M  V30 6320 H 600.484 1.96476 -3.38976 0
M  V30 6321 H 602.181 1.66909 -3.64613 0
M  V30 6322 H 598.771 0.377948 -4.2693 0
M  V30 6323 H 602.955 -0.325851 -4.95229 0
M  V30 6324 H 598.211 -1.30263 -5.97362 0
M  V30 6325 H 602.385 -2.00274 -6.66981 0
M  V30 6326 H 600.012 -2.49717 -7.18015 0
M  V30 6327 N 601.587 1.56661 0.17182 0
M  V30 6328 C 602.835 1.81606 0.886774 0
M  V30 6329 C 603.156 0.678818 1.82803 0
M  V30 6330 O 602.426 -0.301354 1.93568 0
M  V30 6331 H 601.006 0.669934 0.330451 0
M  V30 6332 H 603.668 1.94142 0.171757 0
M  V30 6333 H 602.764 2.75634 1.46398 0
M  V30 6334 N 603.065 -0.440357 1.51323 0
M  V30 6335 C 603.995 -1.54174 1.75364 0
M  V30 6336 C 604.976 -1.59039 0.603375 0
M  V30 6337 O 606.161 -1.74815 0.845774 0
M  V30 6338 C 603.291 -2.92277 1.87593 0
M  V30 6339 C 602.245 -3.02274 3.03009 0
M  V30 6340 C 601.571 -4.42327 3.00418 0
M  V30 6341 C 602.871 -2.76634 4.43024 0
M  V30 6342 H 604.565 -1.34307 2.67585 0
M  V30 6343 H 602.111 -0.644678 1.28763 0
M  V30 6344 H 604.064 -3.69284 2.02995 0
M  V30 6345 H 602.788 -3.13369 0.920179 0
M  V30 6346 H 601.447 -2.27706 2.87307 0
M  V30 6347 H 601.095 -4.60382 2.02626 0
M  V30 6348 H 600.795 -4.49946 3.77918 0
M  V30 6349 H 602.319 -5.21312 3.17909 0
M  V30 6350 H 603.733 -3.43376 4.59093 0
M  V30 6351 H 602.13 -2.95666 5.22208 0
M  V30 6352 H 603.2 -1.72262 4.5327 0
M  V30 6353 N 604.543 -1.41418 -0.695603 0
M  V30 6354 C 605.789 -1.40982 -1.4578 0
M  V30 6355 C 606.122 -0.0187763 -1.94191 0
M  V30 6356 O 605.397 0.95346 -1.69527 0
M  V30 6357 C 605.68 -2.41657 -2.66972 0
M  V30 6358 C 605.533 -3.89869 -2.24327 0
M  V30 6359 C 606.852 -2.39589 -3.69168 0
M  V30 6360 H 603.971 -0.513405 -0.528757 0
M  V30 6361 H 606.613 -1.72693 -0.792275 0
M  V30 6362 H 604.763 -2.14746 -3.23754 0
M  V30 6363 H 606.435 -4.27683 -1.72872 0
M  V30 6364 H 604.678 -4.04737 -1.56111 0
M  V30 6365 H 605.349 -4.55857 -3.11285 0
M  V30 6366 H 607.825 -2.63471 -3.2206 0
M  V30 6367 H 606.701 -3.12044 -4.51575 0
M  V30 6368 H 606.962 -1.41447 -4.18862 0
M  V30 6369 N 606.021 0.929856 -1.27246 0
M  V30 6370 C 606.951 2.04722 -1.12299 0
M  V30 6371 C 607.932 1.70082 -0.0250464 0
M  V30 6372 O 609.117 1.93176 -0.199141 0
M  V30 6373 C 606.247 3.38721 -0.767145 0
M  V30 6374 C 605.201 3.87466 -1.81808 0
M  V30 6375 C 604.527 5.18246 -1.31626 0
M  V30 6376 C 605.827 4.11095 -3.22177 0
M  V30 6377 H 607.521 2.17485 -2.05769 0
M  V30 6378 H 605.067 1.04503 -0.990715 0
M  V30 6379 H 607.02 4.16366 -0.649413 0
M  V30 6380 H 605.744 3.25967 0.203259 0
M  V30 6381 H 604.403 3.12012 -1.92468 0
M  V30 6382 H 604.051 5.01881 -0.335378 0
M  V30 6383 H 603.751 5.51829 -2.01887 0
M  V30 6384 H 605.275 5.98462 -1.21143 0
M  V30 6385 H 606.689 4.79316 -3.1453 0
M  V30 6386 H 605.086 4.55982 -3.90129 0
M  V30 6387 H 606.156 3.16468 -3.67391 0
M  V30 6388 N 607.499 1.09233 1.13605 0
M  V30 6389 C 608.745 0.838255 1.85324 0
M  V30 6390 C 609.1 -0.629314 1.81817 0
M  V30 6391 O 608.393 -1.45729 1.24393 0
M  V30 6392 C 608.587 1.305 3.32723 0
M  V30 6393 C 608.416 2.81641 3.50583 0
M  V30 6394 C 607.186 3.49494 3.64941 0
M  V30 6395 C 609.384 3.79789 3.46792 0
M  V30 6396 N 607.366 4.89082 3.71042 0
M  V30 6397 C 608.737 5.05319 3.59239 0
M  V30 6398 C 610.792 3.72673 3.30181 0
M  V30 6399 C 609.495 6.24574 3.56791 0
M  V30 6400 C 611.521 4.91413 3.29039 0
M  V30 6401 C 610.883 6.15785 3.42035 0
M  V30 6402 H 606.982 0.359572 0.69443 0
M  V30 6403 H 609.566 1.39232 1.36098 0
M  V30 6404 H 607.737 0.778411 3.8052 0
M  V30 6405 H 609.469 0.996465 3.92241 0
M  V30 6406 H 606.224 2.9992 3.66531 0
M  V30 6407 H 606.648 5.61787 3.77789 0
M  V30 6408 H 611.29 2.77444 3.19037 0
M  V30 6409 H 609.008 7.20105 3.66708 0
M  V30 6410 H 612.594 4.87604 3.17386 0
M  V30 6411 H 611.474 7.06126 3.41111 0
M  V30 6412 N 608.977 -1.30795 0.87923 0
M  V30 6413 C 609.887 -2.32041 0.345565 0
M  V30 6414 C 610.903 -1.65103 -0.549265 0
M  V30 6415 O 612.079 -1.9645 -0.443763 0
M  V30 6416 C 609.144 -3.43944 -0.436245 0
M  V30 6417 C 608.205 -4.26521 0.48765 0
M  V30 6418 C 607.438 -5.33081 -0.256943 0
M  V30 6419 O 607.661 -5.50762 -1.48381 0
M  V30 6420 O 606.595 -6.00635 0.389985 0
M  V30 6421 H 610.421 -2.79627 1.18501 0
M  V30 6422 H 608.006 -1.3486 0.642885 0
M  V30 6423 H 609.888 -4.12128 -0.879119 0
M  V30 6424 H 608.563 -2.98504 -1.25208 0
M  V30 6425 H 607.47 -3.61057 0.979216 0
M  V30 6426 H 608.803 -4.75551 1.26933 0
M  V30 6427 N 610.455 -0.639598 -1.44038 0
M  V30 6428 C 611.701 -0.147698 -2.02261 0
M  V30 6429 C 612.034 1.23031 -1.50256 0
M  V30 6430 O 611.309 1.81847 -0.690068 0
M  V30 6431 C 611.592 -0.14362 -3.59813 0
M  V30 6432 C 611.445 -1.55458 -4.22082 0
M  V30 6433 C 612.764 0.527317 -4.36929 0
M  V30 6434 H 609.883 -0.0551453 -0.734934 0
M  V30 6435 H 612.525 -0.817688 -1.71505 0
M  V30 6436 H 610.675 0.426898 -3.86147 0
M  V30 6437 H 612.347 -2.17464 -4.06826 0
M  V30 6438 H 610.59 -2.10594 -3.79253 0
M  V30 6439 H 611.261 -1.50369 -5.31124 0
M  V30 6440 H 613.737 0.0420504 -4.16079 0
M  V30 6441 H 612.613 0.499389 -5.46624 0
M  V30 6442 H 612.874 1.59914 -4.12165 0
M  V30 6443 N 611.933 1.52934 -0.380664 0
M  V30 6444 C 612.896 2.24809 0.446473 0
M  V30 6445 C 613.896 1.26133 0.997347 0
M  V30 6446 O 615.086 1.50297 0.880714 0
M  V30 6447 C 612.218 2.99649 1.62553 0
M  V30 6448 H 613.411 2.99343 -0.182677 0
M  V30 6449 H 610.964 1.55736 -0.132618 0
M  V30 6450 H 611.699 2.29395 2.29235 0
M  V30 6451 H 611.484 3.72066 1.23732 0
M  V30 6452 H 612.974 3.54246 2.21133 0
M  V30 6453 N 613.412 0.11024 1.57214 0
M  V30 6454 C 614.828 -0.24638 1.57687 0
M  V30 6455 C 615.028 -1.67344 1.12241 0
M  V30 6456 O 614.084 -2.39298 0.805783 0
M  V30 6457 C 615.397 -0.0210288 3.00693 0
M  V30 6458 C 616.945 -0.0876077 3.12877 0
M  V30 6459 C 617.42 0.10994 4.57868 0
M  V30 6460 N 618.911 0.0556135 4.63167 0
M  V30 6461 C 619.646 0.183495 5.73106 0
M  V30 6462 N 619.142 0.367058 6.91827 0
M  V30 6463 N 620.935 0.123689 5.61964 0
M  V30 6464 H 613.086 1.04246 1.85058 0
M  V30 6465 H 615.349 0.40979 0.854854 0
M  V30 6466 H 615.055 0.965203 3.38196 0
M  V30 6467 H 614.929 -0.756748 3.69531 0
M  V30 6468 H 617.316 -1.06436 2.75237 0
M  V30 6469 H 617.397 0.67985 2.466 0
M  V30 6470 H 617.041 1.08362 4.96206 0
M  V30 6471 H 616.971 -0.677397 5.22225 0
M  V30 6472 H 619.462 -0.0831062 3.77809 0
M  V30 6473 H 619.775 0.455739 7.71455 0
M  V30 6474 H 618.12 0.40292 6.93831 0
M  V30 6475 H 621.311 -0.0186928 4.68096 0
M  V30 6476 H 621.484 0.226797 6.47603 0
M  V30 6477 N 614.89 -1.56749 -0.16351 0
M  V30 6478 C 616.306 -1.51043 -0.515567 0
M  V30 6479 C 616.506 -0.815855 -1.84245 0
M  V30 6480 O 615.562 -0.379477 -2.49632 0
M  V30 6481 C 616.875 -2.95791 -0.541114 0
M  V30 6482 C 618.423 -3.0664 -0.627776 0
M  V30 6483 C 618.898 -4.52861 -0.684141 0
M  V30 6484 N 620.389 -4.5714 -0.746818 0
M  V30 6485 C 621.124 -5.67634 -0.811137 0
M  V30 6486 N 620.62 -6.8774 -0.835811 0
M  V30 6487 N 622.413 -5.55624 -0.850756 0
M  V30 6488 H 614.564 -2.00307 0.70645 0
M  V30 6489 H 616.827 -0.912876 0.255659 0
M  V30 6490 H 616.533 -3.49797 0.365329 0
M  V30 6491 H 616.407 -3.50858 -1.38487 0
M  V30 6492 H 618.794 -2.52663 -1.52464 0
M  V30 6493 H 618.875 -2.54645 0.242805 0
M  V30 6494 H 618.519 -5.07472 0.2085 0
M  V30 6495 H 618.449 -5.02621 -1.57098 0
M  V30 6496 H 620.94 -3.70669 -0.735717 0
M  V30 6497 H 621.253 -7.67701 -0.886279 0
M  V30 6498 H 619.598 -6.90334 -0.803958 0
M  V30 6499 H 622.789 -4.60709 -0.828535 0
M  V30 6500 H 622.962 -6.41756 -0.897418 0
M  V30 6501 N 616.368 0.432326 -1.51554 0
M  V30 6502 C 617.301 1.54525 -1.6792 0
M  V30 6503 C 618.279 1.53831 -0.526764 0
M  V30 6504 O 619.463 1.72884 -0.751233 0
M  V30 6505 C 616.59 2.931 -1.69736 0
M  V30 6506 C 615.636 3.11799 -2.91005 0
M  V30 6507 S 616.469 2.87565 -4.51737 0
M  V30 6508 C 617.625 4.28412 -4.56305 0
M  V30 6509 H 617.858 1.4041 -2.62054 0
M  V30 6510 H 615.391 0.622357 -1.41301 0
M  V30 6511 H 617.349 3.72974 -1.71467 0
M  V30 6512 H 616.01 3.04574 -0.767705 0
M  V30 6513 H 615.203 4.13127 -2.8869 0
M  V30 6514 H 614.805 2.39757 -2.87041 0
M  V30 6515 H 617.097 5.21692 -4.32254 0
M  V30 6516 H 618.04 4.35758 -5.58141 0
M  V30 6517 H 618.448 4.12301 -3.85576 0
M  V30 6518 N 617.846 1.41785 0.688094 0
M  V30 6519 C 619.092 1.41753 1.4503 0
M  V30 6520 C 619.425 0.0290745 1.94178 0
M  V30 6521 O 618.7 -0.944456 1.7003 0
M  V30 6522 C 618.983 2.43069 2.65686 0
M  V30 6523 C 618.836 3.91053 2.22256 0
M  V30 6524 C 620.155 2.41543 3.67893 0
M  V30 6525 H 617.274 0.516202 0.526027 0
M  V30 6526 H 619.916 1.73111 0.783105 0
M  V30 6527 H 618.066 2.1646 3.2261 0
M  V30 6528 H 619.738 4.28594 1.70602 0
M  V30 6529 H 617.981 4.05559 1.53963 0
M  V30 6530 H 618.652 4.57501 3.08863 0
M  V30 6531 H 621.128 2.65175 3.20658 0
M  V30 6532 H 620.004 3.14434 4.49914 0
M  V30 6533 H 620.265 1.43666 4.18106 0
M  V30 6534 N 619.324 -0.923095 1.27737 0
M  V30 6535 C 620.549 -1.71054 1.17283 0
M  V30 6536 C 620.974 -1.86208 -0.266153 0
M  V30 6537 O 620.332 -1.36545 -1.1927 0
M  V30 6538 C 620.38 -3.0854 1.86642 0
M  V30 6539 O 619.484 -3.95528 1.16752 0
M  V30 6540 H 618.825 -0.524136 0.407649 0
M  V30 6541 H 621.355 -1.15487 1.6889 0
M  V30 6542 H 621.365 -3.58828 1.94182 0
M  V30 6543 H 620.04 -2.96828 2.91317 0
M  V30 6544 H 618.617 -3.53967 1.17312 0
M  V30 6545 N 620.802 -1.09834 -1.13024 0
M  V30 6546 C 621.75 -0.736283 -2.20639 0
M  V30 6547 C 622.744 0.264725 -1.67319 0
M  V30 6548 O 623.95 0.125745 -1.7956 0
M  V30 6549 H 620.325 -0.220136 -0.719058 0
M  V30 6550 H 622.296 -1.65295 -2.48436 0
M  V30 6551 C 621.045 -0.177544 -3.47246 0
M  V30 6552 H 620.368 -0.939009 -3.88616 0
M  V30 6553 H 621.808 0.0378007 -4.23983 0
M  V30 6554 C 620.267 1.08824 -3.1884 0
M  V30 6555 O 620.797 2.1708 -3.37993 0
M  V30 6556 N 619.003 1.00442 -2.7269 0
M  V30 6557 H 618.55 0.123383 -2.57304 0
M  V30 6558 H 618.508 1.85206 -2.5406 0
M  V30 6559 N 622.28 1.30327 -0.886154 0
M  V30 6560 C 623.528 1.9571 -0.504195 0
M  V30 6561 C 623.849 1.70294 0.950003 0
M  V30 6562 O 623.119 1.02718 1.66811 0
M  V30 6563 H 621.699 0.72412 -0.183465 0
M  V30 6564 H 624.361 1.58835 -1.12949 0
M  V30 6565 H 623.457 3.04704 -0.675431 0
M  V30 6566 N 623.758 0.647228 1.43697 0
M  V30 6567 C 625.007 0.155552 2.01099 0
M  V30 6568 C 625.32 -1.23569 1.51624 0
M  V30 6569 O 626.526 -1.82226 2.01261 0
M  V30 6570 C 624.982 0.227296 3.59182 0
M  V30 6571 C 624.59 1.62086 4.17651 0
M  V30 6572 C 626.334 -0.207085 4.23995 0
M  V30 6573 C 624.241 1.64685 5.68008 0
M  V30 6574 H 623.171 0.0543895 0.752036 0
M  V30 6575 H 625.822 0.808386 1.64734 0
M  V30 6576 H 624.204 -0.492937 3.9292 0
M  V30 6577 H 625.378 2.36597 3.95422 0
M  V30 6578 H 623.693 2.0007 3.65186 0
M  V30 6579 H 626.29 -0.207426 5.34298 0
M  V30 6580 H 626.633 -1.23742 3.97484 0
M  V30 6581 H 627.166 0.461193 3.95118 0
M  V30 6582 H 623.905 2.65608 5.99277 0
M  V30 6583 H 623.425 0.944914 5.9231 0
M  V30 6584 H 625.104 1.38792 6.31938 0
M  V30 6585 N 625.236 -1.5273 0.388769 0
M  V30 6586 C 626.482 -2.01871 -0.193877 0
M  V30 6587 C 626.815 -1.27475 -1.46505 0
M  V30 6588 O 626.09 -0.375063 -1.90849 0
M  V30 6589 C 626.373 -3.5712 -0.462336 0
M  V30 6590 C 626.226 -4.42186 0.824091 0
M  V30 6591 C 627.545 -4.21881 -1.25319 0
M  V30 6592 H 624.664 -0.733764 -0.0689899 0
M  V30 6593 H 627.306 -1.82796 0.518231 0
M  V30 6594 H 625.456 -3.73504 -1.06896 0
M  V30 6595 H 627.128 -4.37554 1.46096 0
M  V30 6596 H 625.371 -4.09219 1.43952 0
M  V30 6597 H 626.042 -5.48828 0.590905 0
M  V30 6598 H 628.518 -4.0947 -0.73981 0
M  V30 6599 H 627.394 -5.30487 -1.40977 0
M  V30 6600 H 627.655 -3.79478 -2.26824 0
M  V30 6601 N 626.714 -0.118576 -1.57153 0
M  V30 6602 C 627.624 0.845484 -2.18835 0
M  V30 6603 C 628.64 1.29299 -1.16438 0
M  V30 6604 O 629.816 1.35607 -1.48905 0
M  V30 6605 C 626.881 2.07795 -2.77529 0
M  V30 6606 C 625.942 1.6824 -3.9496 0
M  V30 6607 C 625.175 2.85612 -4.50845 0
M  V30 6608 O 625.398 4.01025 -4.05629 0
M  V30 6609 O 624.332 2.62721 -5.41536 0
M  V30 6610 H 628.158 0.350568 -3.0167 0
M  V30 6611 H 625.743 0.107013 -1.49016 0
M  V30 6612 H 627.625 2.79978 -3.14945 0
M  V30 6613 H 626.3 2.56294 -1.97725 0
M  V30 6614 H 625.207 0.931663 -3.62313 0
M  V30 6615 H 626.54 1.24484 -4.76198 0
M  V30 6616 N 628.193 1.56834 0.155195 0
M  V30 6617 C 629.47 1.73799 0.897395 0
M  V30 6618 C 629.85 0.684379 1.99698 0
M  V30 6619 O 629.198 -0.298111 2.26547 0
M  V30 6620 C 629.408 3.17572 1.44737 0
M  V30 6621 C 630.756 3.79014 1.91399 0
M  V30 6622 O 631.78 3.20951 1.54496 0
M  V30 6623 O 630.639 4.80998 2.59429 0
M  V30 6624 H 627.733 0.710329 0.423511 0
M  V30 6625 H 630.279 1.69107 0.141761 0
M  V30 6626 H 629.051 3.85749 0.656741 0
M  V30 6627 H 628.674 3.26657 2.26674 0
M  V30 6628 N 629.671 -0.424282 1.51781 0
M  V30 6629 C 630.901 -1.19297 1.68677 0
M  V30 6630 C 631.309 -1.85152 0.389258 0
M  V30 6631 O 630.652 -1.72067 -0.643311 0
M  V30 6632 C 630.714 -2.30929 2.75521 0
M  V30 6633 C 630.378 -1.85335 4.17732 0
M  V30 6634 C 631.375 -1.34951 5.0208 0
M  V30 6635 C 629.06 -1.92629 4.63896 0
M  V30 6636 C 631.054 -0.924636 6.30658 0
M  V30 6637 C 628.741 -1.49754 5.92467 0
M  V30 6638 C 629.739 -0.997543 6.75676 0
M  V30 6639 O 629.427 -0.57492 8.01842 0
M  V30 6640 H 629.159 -0.36512 0.568914 0
M  V30 6641 H 631.713 -0.507327 1.99036 0
M  V30 6642 H 629.943 -3.02811 2.40505 0
M  V30 6643 H 631.632 -2.92748 2.81165 0
M  V30 6644 H 632.398 -1.287 4.67612 0
M  V30 6645 H 628.277 -2.30491 3.99243 0
M  V30 6646 H 631.821 -0.533682 6.95556 0
M  V30 6647 H 627.718 -1.55679 6.26446 0
M  V30 6648 H 628.486 -0.699597 8.15505 0
M  V30 6649 N 631.149 -1.42148 -0.680565 0
M  V30 6650 C 632.096 -1.45175 -1.79424 0
M  V30 6651 C 633.066 -0.304352 -1.63288 0
M  V30 6652 O 634.251 -0.507591 -1.83924 0
M  V30 6653 C 631.391 -1.35429 -3.17416 0
M  V30 6654 C 630.504 -2.60158 -3.4488 0
M  V30 6655 C 629.639 -2.42596 -4.72568 0
M  V30 6656 C 628.678 -3.62727 -4.93047 0
M  V30 6657 N 627.815 -3.44143 -6.11973 0
M  V30 6658 H 632.655 -2.40349 -1.76172 0
M  V30 6659 H 630.192 -1.19334 -0.860107 0
M  V30 6660 H 632.15 -1.27777 -3.97151 0
M  V30 6661 H 630.78 -0.438536 -3.19807 0
M  V30 6662 H 629.832 -2.78199 -2.5944 0
M  V30 6663 H 631.144 -3.49473 -3.55908 0
M  V30 6664 H 630.298 -2.32497 -5.60384 0
M  V30 6665 H 629.037 -1.50761 -4.63813 0
M  V30 6666 H 628.042 -3.73264 -4.03676 0
M  V30 6667 H 629.267 -4.55534 -5.03652 0
M  V30 6668 H 627.213 -2.5502 -6.04401 0
M  V30 6669 H 627.13 -4.27041 -6.23836 0
M  V30 6670 H 628.398 -3.37845 -7.02482 0
M  V30 6671 N 632.627 0.916307 -1.28225 0
M  V30 6672 C 634.038 1.48024 -1.13779 0
M  V30 6673 C 634.389 1.94289 0.273139 0
M  V30 6674 O 633.514 1.82226 1.16716 0
M  V30 6675 C 634.109 2.69029 -2.05935 0
M  V30 6676 C 632.668 3.2161 -1.95561 0
M  V30 6677 C 631.815 1.94321 -1.97825 0
M  V30 6678 H 634.766 0.729272 -1.40951 0
M  V30 6679 H 634.787 3.44204 -1.62184 0
M  V30 6680 H 634.299 2.35325 -3.08616 0
M  V30 6681 H 632.4 3.60045 -0.959076 0
M  V30 6682 H 632.513 3.87032 -2.82388 0
M  V30 6683 H 630.877 2.1131 -1.42198 0
M  V30 6684 H 631.66 1.62917 -3.0218 0
M  V30 6685 N 634.105 1.10431 1.1244 0
M  V30 6686 C 635.516 0.864439 1.65482 0
M  V30 6687 C 635.867 -0.60527 1.8663 0
M  V30 6688 O 634.992 -1.46492 1.59276 0
M  V30 6689 C 635.587 1.56267 3.0061 0
M  V30 6690 C 634.146 1.3695 3.50602 0
M  V30 6691 C 633.293 1.61209 2.25626 0
M  V30 6692 H 636.244 1.26203 0.962209 0
M  V30 6693 H 636.265 1.00166 3.67079 0
M  V30 6694 H 635.777 2.63231 2.85186 0
M  V30 6695 H 633.878 0.321481 3.71211 0
M  V30 6696 H 633.991 2.11143 4.30064 0
M  V30 6697 H 632.355 1.03482 2.32731 0
M  V30 6698 H 633.138 2.69425 2.12756 0
M  V30 6699 N 635.583 -1.29855 0.893053 0
M  V30 6700 C 636.83 -1.95826 0.515585 0
M  V30 6701 C 637.158 -1.70451 -0.936842 0
M  V30 6702 O 636.413 -1.00657 -1.67829 0
M  V30 6703 C 636.712 -3.49515 0.746588 0
M  V30 6704 C 636.378 -3.94955 2.17535 0
M  V30 6705 C 635.04 -4.07073 2.56603 0
M  V30 6706 C 637.392 -4.18536 3.10607 0
M  V30 6707 C 634.72 -4.40138 3.87938 0
M  V30 6708 C 637.072 -4.53073 4.41484 0
M  V30 6709 C 635.736 -4.634 4.80434 0
M  V30 6710 H 635.006 -0.71658 0.188666 0
M  V30 6711 H 637.653 -1.54574 1.13045 0
M  V30 6712 H 635.958 -3.9177 0.0487551 0
M  V30 6713 H 637.655 -3.98644 0.434009 0
M  V30 6714 H 634.245 -3.86035 1.86212 0
M  V30 6715 H 638.429 -4.08646 2.81641 0
M  V30 6716 H 633.685 -4.46335 4.17846 0
M  V30 6717 H 637.859 -4.70269 5.13634 0
M  V30 6718 H 635.486 -4.88775 5.82239 0
M  V30 6719 N 637.061 -0.65484 -1.43351 0
M  V30 6720 C 638.291 -0.176429 -2.05845 0
M  V30 6721 C 638.699 1.16375 -1.49176 0
M  V30 6722 O 638.042 1.72981 -0.618322 0
M  V30 6723 C 638.104 -0.0125844 -3.59498 0
M  V30 6724 C 637.768 -1.27831 -4.38758 0
M  V30 6725 C 638.765 -2.2074 -4.70712 0
M  V30 6726 C 636.45 -1.52035 -4.78739 0
M  V30 6727 C 638.444 -3.36145 -5.41558 0
M  V30 6728 C 636.131 -2.67732 -5.49329 0
M  V30 6729 C 637.129 -3.59612 -5.80662 0
M  V30 6730 O 636.817 -4.73289 -6.4981 0
M  V30 6731 H 636.549 -0.0879682 -0.670252 0
M  V30 6732 H 639.103 -0.896193 -1.84818 0
M  V30 6733 H 637.333 0.762567 -3.79107 0
M  V30 6734 H 639.022 0.423392 -4.03686 0
M  V30 6735 H 639.788 -2.03284 -4.40341 0
M  V30 6736 H 635.667 -0.813987 -4.53757 0
M  V30 6737 H 639.211 -4.07881 -5.65932 0
M  V30 6738 H 635.108 -2.85122 -5.79116 0
M  V30 6739 H 635.876 -4.72575 -6.68293 0
M  V30 6740 N 638.539 1.52521 -0.396863 0
M  V30 6741 C 639.816 1.94112 0.240842 0
M  V30 6742 C 640.196 1.33288 1.637 0
M  V30 6743 O 639.544 0.503901 2.22875 0
M  V30 6744 C 639.754 3.48033 0.259567 0
M  V30 6745 C 641.102 4.21822 0.484866 0
M  V30 6746 O 642.126 3.54579 0.339453 0
M  V30 6747 O 640.985 5.41042 0.770412 0
M  V30 6748 H 638.079 0.812973 0.151671 0
M  V30 6749 H 640.625 1.63572 -0.451918 0
M  V30 6750 H 639.397 3.84655 -0.718078 0
M  V30 6751 H 639.02 3.84899 0.996937 0
M  V30 6752 N 640.017 0.126909 1.57088 0
M  V30 6753 C 641.263 -0.529952 1.95753 0
M  V30 6754 C 641.596 -1.65823 1.01077 0
M  V30 6755 O 640.871 -1.94437 0.0494162 0
M  V30 6756 C 641.154 -1.05517 3.44294 0
M  V30 6757 C 641.007 0.0702253 4.49745 0
M  V30 6758 C 642.326 -1.9435 3.94862 0
M  V30 6759 H 639.445 -0.191168 0.711775 0
M  V30 6760 H 642.087 0.204071 1.88901 0
M  V30 6761 H 640.237 -1.68069 3.50264 0
M  V30 6762 H 641.909 0.705834 4.55868 0
M  V30 6763 H 640.152 0.732259 4.27575 0
M  V30 6764 H 640.823 -0.338642 5.5096 0
M  V30 6765 H 643.299 -1.41658 3.91244 0
M  V30 6766 H 642.175 -2.28015 4.993 0
M  V30 6767 H 642.436 -2.87299 3.36024 0
M  V30 6768 N 641.495 -1.56914 -0.146875 0
M  V30 6769 C 642.741 -1.83628 -0.860741 0
M  V30 6770 C 643.074 -0.708528 -1.80813 0
M  V30 6771 O 642.349 0.287838 -1.92358 0
M  V30 6772 C 642.632 -3.20836 -1.63511 0
M  V30 6773 C 642.485 -4.44174 -0.709199 0
M  V30 6774 C 643.804 -3.55268 -2.59756 0
M  V30 6775 H 640.923 -0.667949 -0.311468 0
M  V30 6776 H 643.565 -1.89582 -0.125936 0
M  V30 6777 H 641.715 -3.15891 -2.26153 0
M  V30 6778 H 643.387 -4.61205 -0.0937781 0
M  V30 6779 H 641.63 -4.33796 -0.0187856 0
M  V30 6780 H 642.301 -5.36785 -1.28707 0
M  V30 6781 H 644.777 -3.60824 -2.07232 0
M  V30 6782 H 643.653 -4.52303 -3.10987 0
M  V30 6783 H 643.914 -2.81231 -3.41118 0
M  V30 6784 N 642.974 0.416227 -1.52004 0
M  V30 6785 C 644.385 0.995319 -1.57957 0
M  V30 6786 C 644.736 1.91744 -0.415754 0
M  V30 6787 O 643.861 2.11349 0.464808 0
M  V30 6788 C 644.456 1.81191 -2.86278 0
M  V30 6789 C 643.015 2.34115 -2.94732 0
M  V30 6790 C 642.162 1.139 -2.52828 0
M  V30 6791 H 645.113 0.196716 -1.57476 0
M  V30 6792 H 645.134 2.66859 -2.71231 0
M  V30 6793 H 644.646 1.14051 -3.70963 0
M  V30 6794 H 642.747 3.04647 -2.14525 0
M  V30 6795 H 642.86 2.65466 -3.98829 0
M  V30 6796 H 641.224 1.49081 -2.06511 0
M  V30 6797 H 642.007 0.483383 -3.3988 0
M  V30 6798 N 644.452 1.42507 0.673017 0
M  V30 6799 C 645.4 1.46362 1.80779 0
M  V30 6800 C 646.394 0.339166 1.6597 0
M  V30 6801 O 647.6 0.512262 1.72557 0
M  V30 6802 H 643.975 0.458433 0.596107 0
M  V30 6803 H 645.946 2.41953 1.74646 0
M  V30 6804 C 644.695 1.38462 3.18941 0
M  V30 6805 H 644.018 2.24283 3.30964 0
M  V30 6806 H 645.458 1.45221 3.98355 0
M  V30 6807 C 643.917 0.0996354 3.36753 0
M  V30 6808 O 644.447 -0.846894 3.92671 0
M  V30 6809 N 642.653 0.016211 2.90595 0
M  V30 6810 H 642.2 0.78725 2.45276 0
M  V30 6811 H 642.158 -0.84291 3.0289 0
M  V30 6812 N 645.93 -0.909495 1.28709 0
M  V30 6813 C 647.207 -1.63865 1.06806 0
M  V30 6814 C 647.587 -2.07445 -0.391143 0
M  V30 6815 O 646.935 -1.82269 -1.37805 0
M  V30 6816 C 647.145 -2.82692 2.04661 0
M  V30 6817 C 648.493 -3.5361 2.35042 0
M  V30 6818 O 649.517 -2.92847 2.02779 0
M  V30 6819 O 648.376 -4.63131 2.90124 0
M  V30 6820 H 645.47 -0.719065 0.408502 0
M  V30 6821 H 648.016 -0.958424 1.40044 0
M  V30 6822 H 646.788 -2.47614 3.0299 0
M  V30 6823 H 646.411 -3.58426 1.72095 0
M  V30 6824 N 647.408 -1.11026 -1.11852 0
M  V30 6825 C 648.819 -0.873203 -1.65021 0
M  V30 6826 C 649.17 0.595364 -1.86949 0
M  V30 6827 O 648.295 1.45645 -1.60051 0
M  V30 6828 C 648.89 -1.57859 -2.99777 0
M  V30 6829 C 647.449 -1.38807 -3.49871 0
M  V30 6830 C 646.596 -1.62403 -2.24768 0
M  V30 6831 H 649.547 -1.26712 -0.955503 0
M  V30 6832 H 649.568 -1.02111 -3.66543 0
M  V30 6833 H 649.08 -2.6474 -2.83786 0
M  V30 6834 H 647.181 -0.341163 -3.71035 0
M  V30 6835 H 647.294 -2.13421 -4.28938 0
M  V30 6836 H 645.658 -1.04714 -2.32179 0
M  V30 6837 H 646.441 -2.70549 -2.11324 0
M  V30 6838 N 648.886 1.2938 -0.899927 0
M  V30 6839 C 650.111 2.00228 -0.540692 0
M  V30 6840 C 650.536 1.66909 0.867359 0
M  V30 6841 O 649.894 0.893824 1.57735 0
M  V30 6842 C 649.942 3.52921 -0.740232 0
M  V30 6843 O 649.046 4.11879 0.207154 0
M  V30 6844 H 648.387 0.629505 -0.211233 0
M  V30 6845 H 650.917 1.6487 -1.21158 0
M  V30 6846 H 650.927 4.0287 -0.644973 0
M  V30 6847 H 649.602 3.76508 -1.76677 0
M  V30 6848 H 648.179 3.72845 0.0643315 0
M  V30 6849 N 650.364 0.662433 1.43002 0
M  V30 6850 C 651.611 0.179591 2.01702 0
M  V30 6851 C 651.939 -1.20964 1.52309 0
M  V30 6852 O 651.194 -1.82343 0.7106 0
M  V30 6853 C 651.493 0.149363 3.57088 0
M  V30 6854 C 651.159 1.48158 4.25864 0
M  V30 6855 C 649.821 1.84638 4.44367 0
M  V30 6856 C 652.173 2.35953 4.64732 0
M  V30 6857 C 649.501 3.08561 4.99006 0
M  V30 6858 C 651.853 3.59176 5.20745 0
M  V30 6859 C 650.517 3.95841 5.37463 0
M  V30 6860 H 649.787 0.0657172 0.73808 0
M  V30 6861 H 652.434 0.854968 1.71355 0
M  V30 6862 H 650.739 -0.609491 3.8703 0
M  V30 6863 H 652.436 -0.241241 4.00274 0
M  V30 6864 H 649.026 1.18777 4.11813 0
M  V30 6865 H 653.21 2.09058 4.50121 0
M  V30 6866 H 648.466 3.37005 5.10135 0
M  V30 6867 H 652.64 4.27417 5.49807 0
M  V30 6868 H 650.267 4.91942 5.79566 0
M  V30 6869 N 651.842 -1.52309 0.404946 0
M  V30 6870 C 652.752 -2.30634 -0.429555 0
M  V30 6871 C 653.768 -1.38187 -1.05737 0
M  V30 6872 O 654.944 -1.71261 -1.05979 0
M  V30 6873 C 652.009 -3.10947 -1.53339 0
M  V30 6874 C 651.07 -4.19126 -0.929065 0
M  V30 6875 C 650.303 -4.95601 -1.9803 0
M  V30 6876 O 650.526 -4.72331 -3.1978 0
M  V30 6877 O 649.46 -5.80551 -1.58886 0
M  V30 6878 H 653.286 -3.0298 0.208963 0
M  V30 6879 H 650.871 -1.4845 0.168255 0
M  V30 6880 H 652.753 -3.60974 -2.1743 0
M  V30 6881 H 651.428 -2.41399 -2.15658 0
M  V30 6882 H 650.335 -3.73257 -0.250982 0
M  V30 6883 H 651.668 -4.90955 -0.349855 0
M  V30 6884 N 653.32 -0.135238 -1.57019 0
M  V30 6885 C 654.597 0.563227 -1.87316 0
M  V30 6886 C 654.977 1.83749 -1.03921 0
M  V30 6887 O 654.325 2.2817 -0.122675 0
M  V30 6888 C 654.535 0.840031 -3.3874 0
M  V30 6889 C 655.883 1.18598 -4.077 0
M  V30 6890 O 656.907 0.92977 -3.43851 0
M  V30 6891 O 655.766 1.66758 -5.20436 0
M  V30 6892 H 652.86 0.285971 -0.775983 0
M  V30 6893 H 655.406 -0.170965 -1.68837 0
M  V30 6894 H 654.178 -0.0622785 -3.9125 0
M  V30 6895 H 653.801 1.62882 -3.62706 0
M  V30 6896 N 654.798 1.5699 0.138552 0
M  V30 6897 C 655.731 1.94064 1.2006 0
M  V30 6898 C 656.709 0.807601 1.41126 0
M  V30 6899 O 657.893 1.06399 1.556 0
M  V30 6900 C 655.02 2.21999 2.55801 0
M  V30 6901 C 654.066 3.44617 2.5128 0
M  V30 6902 S 654.899 4.97888 1.97149 0
M  V30 6903 C 656.055 5.28954 3.34602 0
M  V30 6904 H 656.288 2.83843 0.884337 0
M  V30 6905 H 653.821 1.50507 0.344517 0
M  V30 6906 H 655.779 2.38772 3.33914 0
M  V30 6907 H 654.44 1.32869 2.84613 0
M  V30 6908 H 653.633 3.61466 3.51224 0
M  V30 6909 H 653.235 3.27129 1.8128 0
M  V30 6910 H 655.527 5.22938 4.30745 0
M  V30 6911 H 656.47 6.30346 3.22598 0
M  V30 6912 H 656.878 4.56455 3.32128 0
M  V30 6913 N 656.276 -0.40816 1.52223 0
M  V30 6914 C 657.692 -0.74685 1.41047 0
M  V30 6915 C 657.892 -1.94788 0.51573 0
M  V30 6916 O 656.948 -2.52494 -0.0181156 0
M  V30 6917 C 658.261 -0.999878 2.83589 0
M  V30 6918 C 659.809 -1.10253 2.92939 0
M  V30 6919 C 660.284 -1.38832 4.36451 0
M  V30 6920 N 661.775 -1.45694 4.3969 0
M  V30 6921 C 662.51 -1.69435 5.47795 0
M  V30 6922 N 662.006 -1.90774 6.66016 0
M  V30 6923 N 663.799 -1.71458 5.35312 0
M  V30 6924 H 655.95 0.382409 2.08929 0
M  V30 6925 H 658.213 0.108807 0.941735 0
M  V30 6926 H 657.919 -0.189723 3.51188 0
M  V30 6927 H 657.793 -1.91978 3.24691 0
M  V30 6928 H 660.18 -1.90328 2.2552 0
M  V30 6929 H 660.261 -0.160973 2.55293 0
M  V30 6930 H 659.905 -0.592741 5.04429 0
M  V30 6931 H 659.835 -2.34241 4.71634 0
M  V30 6932 H 662.326 -1.3099 3.54472 0
M  V30 6933 H 662.639 -2.08342 7.44186 0
M  V30 6934 H 660.984 -1.88037 6.69079 0
M  V30 6935 H 664.175 -1.54326 4.41929 0
M  V30 6936 H 664.348 -1.89621 6.19635 0
M  V30 6937 N 657.755 -1.42862 -0.66545 0
M  V30 6938 C 658.702 -1.4707 -1.77874 0
M  V30 6939 C 659.672 -0.321654 -1.62956 0
M  V30 6940 O 660.857 -0.52707 -1.83376 0
M  V30 6941 C 657.997 -1.38788 -3.15962 0
M  V30 6942 C 657.11 -2.63801 -3.42101 0
M  V30 6943 C 656.245 -2.47594 -4.69969 0
M  V30 6944 C 655.284 -3.67936 -4.89172 0
M  V30 6945 N 654.421 -3.50614 -6.08288 0
M  V30 6946 H 659.261 -2.42204 -1.73613 0
M  V30 6947 H 656.798 -1.20239 -0.847401 0
M  V30 6948 H 658.756 -1.31982 -3.95773 0
M  V30 6949 H 657.386 -0.472431 -3.19324 0
M  V30 6950 H 656.438 -2.80935 -2.56475 0
M  V30 6951 H 657.75 -3.53228 -3.52181 0
M  V30 6952 H 656.904 -2.38427 -5.57886 0
M  V30 6953 H 655.643 -1.55672 -4.62188 0
M  V30 6954 H 654.648 -3.77525 -3.99694 0
M  V30 6955 H 655.873 -4.60851 -4.98792 0
M  V30 6956 H 653.819 -2.61417 -6.01662 0
M  V30 6957 H 653.736 -4.33634 -6.19272 0
M  V30 6958 H 655.004 -3.45276 -6.98859 0
M  V30 6959 N 659.233 0.902656 -1.29189 0
M  V30 6960 C 660.479 1.65532 -1.17163 0
M  V30 6961 C 660.812 1.92216 0.276879 0
M  V30 6962 O 660.087 1.53048 1.20027 0
M  V30 6963 C 660.37 3.00629 -1.98228 0
M  V30 6964 C 660.223 2.81029 -3.51202 0
M  V30 6965 C 661.542 4.01321 -1.80635 0
M  V30 6966 H 658.661 0.60071 -0.426985 0
M  V30 6967 H 661.303 1.04578 -1.5863 0
M  V30 6968 H 659.453 3.52656 -1.62991 0
M  V30 6969 H 661.125 2.35927 -3.96404 0
M  V30 6970 H 659.368 2.1587 -3.76275 0
M  V30 6971 H 660.039 3.77014 -4.03192 0
M  V30 6972 H 662.515 3.58394 -2.11406 0
M  V30 6973 H 661.391 4.93792 -2.3971 0
M  V30 6974 H 661.652 4.35505 -0.760754 0
M  V30 6975 N 660.711 1.11618 1.11262 0
M  V30 6976 C 661.957 0.867463 1.83311 0
M  V30 6977 C 662.29 -0.605366 1.84524 0
M  V30 6978 O 661.565 -1.44704 1.29965 0
M  V30 6979 C 661.848 1.43207 3.30399 0
M  V30 6980 C 661.701 2.97265 3.3757 0
M  V30 6981 C 663.02 1.08454 4.26528 0
M  V30 6982 H 660.139 0.316578 0.665543 0
M  V30 6983 H 662.781 1.38137 1.30454 0
M  V30 6984 H 660.931 0.994982 3.75543 0
M  V30 6985 H 662.603 3.49591 3.00971 0
M  V30 6986 H 660.846 3.33237 2.77733 0
M  V30 6987 H 661.517 3.31859 4.41105 0
M  V30 6988 H 663.993 1.4619 3.89574 0
M  V30 6989 H 662.869 1.50633 5.27826 0
M  V30 6990 H 663.13 -0.00444568 4.421 0
M  V30 6991 N 662.189 -1.289 0.906776 0
M  V30 6992 C 663.429 -1.97046 0.543329 0
M  V30 6993 C 663.793 -1.69862 -0.895034 0
M  V30 6994 O 664.994 -2.31521 -1.36571 0
M  V30 6995 C 663.265 -3.47489 0.835833 0
M  V30 6996 S 664.824 -4.3498 0.577756 0
M  V30 6997 H 661.642 -0.681908 0.201302 0
M  V30 6998 H 664.244 -1.5657 1.17073 0
M  V30 6999 H 662.948 -3.64768 1.88075 0
M  V30 7000 H 662.479 -3.92907 0.196817 0
M  V30 7001 H 664.494 -4.92868 -0.574052 0
M  V30 7002 N 663.667 -0.670007 -1.42649 0
M  V30 7003 C 664.913 -0.190568 -2.01903 0
M  V30 7004 C 665.246 1.19817 -1.52832 0
M  V30 7005 O 664.521 1.80342 -0.728485 0
M  V30 7006 C 664.804 -0.21991 -3.59428 0
M  V30 7007 C 664.657 -1.64376 -4.18689 0
M  V30 7008 C 665.976 0.434519 -4.3795 0
M  V30 7009 H 663.095 -0.0707219 -0.733599 0
M  V30 7010 H 665.737 -0.853883 -1.69732 0
M  V30 7011 H 663.887 0.344894 -3.86966 0
M  V30 7012 H 665.559 -2.26044 -4.02122 0
M  V30 7013 H 663.802 -2.18591 -3.747 0
M  V30 7014 H 664.473 -1.61601 -5.27815 0
M  V30 7015 H 666.949 -0.0462156 -4.16074 0
M  V30 7016 H 665.825 0.38333 -5.4756 0
M  V30 7017 H 666.086 1.51135 -4.15464 0
M  V30 7018 N 665.145 1.52092 -0.413018 0
M  V30 7019 C 666.422 1.94356 0.22024 0
M  V30 7020 C 666.802 1.35017 1.62277 0
M  V30 7021 O 666.15 0.527511 2.22328 0
M  V30 7022 C 666.36 3.48289 0.222638 0
M  V30 7023 C 667.708 4.22313 0.440098 0
M  V30 7024 O 668.732 3.54919 0.301826 0
M  V30 7025 O 667.591 5.41829 0.712984 0
M  V30 7026 H 664.685 0.814536 0.14304 0
M  V30 7027 H 667.231 1.63083 -0.469242 0
M  V30 7028 H 666.003 3.83872 -0.758836 0
M  V30 7029 H 665.626 3.85934 0.956057 0
M  V30 7030 N 666.623 0.143563 1.56945 0
M  V30 7031 C 667.555 -0.828353 2.13708 0
M  V30 7032 C 668.568 -1.21313 1.08568 0
M  V30 7033 O 669.757 -1.1578 1.35857 0
M  V30 7034 C 666.857 -2.12248 2.64204 0
M  V30 7035 C 666.03 -1.90561 3.93707 0
M  V30 7036 C 665.089 -3.03931 4.29549 0
M  V30 7037 O 664.115 -2.75772 4.97934 0
M  V30 7038 N 665.317 -4.31016 3.88852 0
M  V30 7039 H 668.082 -0.343242 2.97728 0
M  V30 7040 H 665.643 -0.0401152 1.6185 0
M  V30 7041 H 667.635 -2.87132 2.85197 0
M  V30 7042 H 666.205 -2.52033 1.84928 0
M  V30 7043 H 665.425 -0.997327 3.81375 0
M  V30 7044 H 666.713 -1.73405 4.78339 0
M  V30 7045 H 666.111 -4.56762 3.33743 0
M  V30 7046 H 664.668 -5.02691 4.14903 0
M  V30 7047 N 668.101 -1.57061 -0.130224 0
M  V30 7048 C 669.033 -1.96147 -1.18571 0
M  V30 7049 C 670.046 -0.859347 -1.38272 0
M  V30 7050 O 671.235 -1.13769 -1.37545 0
M  V30 7051 C 668.335 -2.23484 -2.54771 0
M  V30 7052 C 667.508 -3.54786 -2.55824 0
M  V30 7053 C 666.567 -3.70467 -3.73686 0
M  V30 7054 O 665.593 -4.42693 -3.57787 0
M  V30 7055 N 666.795 -3.08389 -4.91809 0
M  V30 7056 H 669.56 -2.87295 -0.853333 0
M  V30 7057 H 667.121 -1.58714 -0.319621 0
M  V30 7058 H 669.113 -2.312 -3.32158 0
M  V30 7059 H 667.683 -1.38518 -2.80235 0
M  V30 7060 H 666.903 -3.5836 -1.64232 0
M  V30 7061 H 668.191 -4.4111 -2.53573 0
M  V30 7062 H 667.589 -2.49656 -5.0763 0
M  V30 7063 H 666.146 -3.21642 -5.66912 0
M  V30 7064 N 669.579 0.400081 -1.52437 0
M  V30 7065 C 670.995 0.739359 -1.41441 0
M  V30 7066 C 671.195 1.94512 -0.526053 0
M  V30 7067 O 670.251 2.525 0.00472502 0
M  V30 7068 C 671.564 0.984824 -2.84116 0
M  V30 7069 C 673.112 1.08698 -2.93519 0
M  V30 7070 C 673.587 1.36515 -4.37181 0
M  V30 7071 N 675.078 1.43361 -4.40457 0
M  V30 7072 C 675.813 1.66528 -5.48686 0
M  V30 7073 N 675.309 1.87239 -6.67018 0
M  V30 7074 N 677.102 1.68617 -5.36213 0
M  V30 7075 H 669.253 -0.393484 -2.08723 0
M  V30 7076 H 671.516 -0.1138 -0.941145 0
M  V30 7077 H 671.222 0.171096 -3.51284 0
M  V30 7078 H 671.096 1.90253 -3.25705 0
M  V30 7079 H 673.483 1.89129 -2.26526 0
M  V30 7080 H 673.564 0.147432 -2.55375 0
M  V30 7081 H 673.208 0.565982 -5.04737 0
M  V30 7082 H 673.138 2.31737 -4.7287 0
M  V30 7083 H 675.629 1.29108 -3.55161 0
M  V30 7084 H 675.942 2.04392 -7.45281 0
M  V30 7085 H 674.287 1.84486 -6.70067 0
M  V30 7086 H 677.478 1.5198 -4.42741 0
M  V30 7087 H 677.651 1.86332 -6.20632 0
M  V30 7088 N 671.057 1.43213 0.657864 0
M  V30 7089 C 672.468 1.39669 1.23893 0
M  V30 7090 C 672.819 0.0984217 1.95953 0
M  V30 7091 O 671.944 -0.8023 2.00978 0
M  V30 7092 C 672.539 2.53004 2.25332 0
M  V30 7093 C 671.098 2.5274 2.78926 0
M  V30 7094 C 670.245 2.30941 1.53497 0
M  V30 7095 H 673.196 1.52181 0.450172 0
M  V30 7096 H 673.217 2.24226 3.07413 0
M  V30 7097 H 672.729 3.4748 1.72856 0
M  V30 7098 H 670.83 1.6213 3.35477 0
M  V30 7099 H 670.943 3.50352 3.26787 0
M  V30 7100 H 669.307 1.7952 1.80678 0
M  V30 7101 H 670.09 3.27496 1.02963 0
M  V30 7102 N 672.536 -0.895792 1.29666 0
M  V30 7103 C 673.484 -2.02173 1.15017 0
M  V30 7104 C 674.478 -1.69276 0.0647651 0
M  V30 7105 O 675.684 -1.7859 0.224846 0
M  V30 7106 H 672.059 -0.662719 0.355397 0
M  V30 7107 H 674.03 -2.11666 2.10334 0
M  V30 7108 C 672.779 -3.37212 0.847555 0
M  V30 7109 H 672.102 -3.6303 1.67479 0
M  V30 7110 H 673.542 -4.16668 0.785106 0
M  V30 7111 C 672.001 -3.33891 -0.44929 0
M  V30 7112 O 672.531 -3.73673 -1.47415 0
M  V30 7113 N 670.737 -2.86991 -0.456547 0
M  V30 7114 H 670.284 -2.54813 0.377925 0
M  V30 7115 H 670.242 -2.85152 -1.32423 0
M  V30 7116 N 674.014 -1.12206 -1.10668 0
M  V30 7117 C 675.263 -0.870595 -1.81944 0
M  V30 7118 C 675.576 0.605447 -1.85994 0
M  V30 7119 O 676.782 0.973433 -2.53449 0
M  V30 7120 C 675.238 -1.50783 -3.26791 0
M  V30 7121 C 674.846 -3.01849 -3.31046 0
M  V30 7122 C 676.59 -1.33653 -4.02911 0
M  V30 7123 C 674.497 -3.58518 -4.70339 0
M  V30 7124 H 673.427 -0.322043 -0.681765 0
M  V30 7125 H 676.078 -1.34827 -1.24475 0
M  V30 7126 H 674.46 -0.957825 -3.84242 0
M  V30 7127 H 675.634 -3.63321 -2.83433 0
M  V30 7128 H 673.949 -3.18346 -2.68411 0
M  V30 7129 H 676.546 -1.73416 -5.05797 0
M  V30 7130 H 676.889 -0.279949 -4.15358 0
M  V30 7131 H 677.422 -1.85562 -3.51868 0
M  V30 7132 H 674.161 -4.63925 -4.63091 0
M  V30 7133 H 673.681 -3.01819 -5.18329 0
M  V30 7134 H 675.36 -3.57434 -5.39305 0
M  V30 7135 N 675.492 1.28418 -0.913599 0
M  V30 7136 C 676.903 1.77024 -0.593237 0
M  V30 7137 C 677.254 1.74779 0.891441 0
M  V30 7138 O 676.379 1.34237 1.69733 0
M  V30 7139 C 676.974 3.21456 -1.07011 0
M  V30 7140 C 675.533 3.67786 -0.800664 0
M  V30 7141 C 674.68 2.48185 -1.23691 0
M  V30 7142 H 677.631 1.14883 -1.09487 0
M  V30 7143 H 677.652 3.78269 -0.411481 0
M  V30 7144 H 677.164 3.23058 -2.1507 0
M  V30 7145 H 675.265 3.71644 0.266725 0
M  V30 7146 H 675.378 4.57934 -1.4083 0
M  V30 7147 H 673.742 2.46116 -0.655655 0
M  V30 7148 H 674.525 2.52506 -2.32585 0
M  V30 7149 N 676.97 0.677563 1.42291 0
M  V30 7150 C 677.918 -0.0106755 2.32598 0
M  V30 7151 C 678.912 -0.787643 1.49975 0
M  V30 7152 O 680.118 -0.695295 1.66029 0
M  V30 7153 H 676.493 -0.0222482 0.751671 0
M  V30 7154 H 678.464 0.768312 2.88339 0
M  V30 7155 C 677.213 -0.946142 3.3458 0
M  V30 7156 H 676.536 -0.357701 3.98197 0
M  V30 7157 H 677.976 -1.39634 4.00348 0
M  V30 7158 C 676.435 -2.05383 2.67057 0
M  V30 7159 O 676.965 -3.1406 2.50458 0
M  V30 7160 N 675.171 -1.82635 2.26038 0
M  V30 7161 H 674.718 -0.942534 2.39737 0
M  V30 7162 H 674.676 -2.56937 1.81192 0
M  V30 7163 N 678.448 -1.51871 0.421078 0
M  V30 7164 C 679.864 -1.59435 0.0725398 0
M  V30 7165 C 680.064 -1.43315 -1.41644 0
M  V30 7166 O 679.12 -1.26614 -2.18461 0
M  V30 7167 C 680.433 -2.9509 0.578132 0
M  V30 7168 C 681.981 -3.08356 0.537149 0
M  V30 7169 C 682.456 -4.4651 1.01945 0
M  V30 7170 N 683.947 -4.52784 0.976758 0
M  V30 7171 C 684.682 -5.57976 1.32099 0
M  V30 7172 N 684.178 -6.70664 1.73727 0
M  V30 7173 N 685.971 -5.48248 1.2402 0
M  V30 7174 H 678.122 -1.60595 1.39007 0
M  V30 7175 H 680.385 -0.756138 0.571803 0
M  V30 7176 H 680.091 -3.12205 1.61929 0
M  V30 7177 H 679.965 -3.772 -0.00578374 0
M  V30 7178 H 682.352 -2.90919 -0.494991 0
M  V30 7179 H 682.433 -2.28125 1.15727 0
M  V30 7180 H 682.077 -4.64692 2.04997 0
M  V30 7181 H 682.007 -5.25256 0.376023 0
M  V30 7182 H 684.498 -3.71898 0.670851 0
M  V30 7183 H 684.811 -7.46932 1.98274 0
M  V30 7184 H 683.156 -6.71914 1.77641 0
M  V30 7185 H 686.347 -4.59095 0.913756 0
M  V30 7186 H 686.52 -6.30119 1.51176 0
M  V30 7187 N 679.926 -0.151884 -1.56866 0
M  V30 7188 C 681.172 0.492327 -1.97352 0
M  V30 7189 C 681.527 1.62156 -1.03553 0
M  V30 7190 O 680.82 1.91467 -0.0714872 0
M  V30 7191 C 681.014 1.04074 -3.41911 0
M  V30 7192 C 680.843 -0.0338306 -4.49687 0
M  V30 7193 C 679.613 -0.476914 -5.03044 0
M  V30 7194 C 681.811 -0.827105 -5.07606 0
M  V30 7195 N 679.793 -1.53382 -5.9443 0
M  V30 7196 C 681.164 -1.73439 -5.95247 0
M  V30 7197 C 683.219 -0.874351 -4.90163 0
M  V30 7198 C 681.922 -2.68488 -6.67313 0
M  V30 7199 C 683.948 -1.81269 -5.62935 0
M  V30 7200 C 683.31 -2.70749 -6.50288 0
M  V30 7201 H 679.409 0.148822 -0.767708 0
M  V30 7202 H 681.993 -0.247615 -1.93119 0
M  V30 7203 H 680.164 1.75027 -3.46728 0
M  V30 7204 H 681.896 1.65197 -3.69448 0
M  V30 7205 H 678.651 -0.0782493 -4.73535 0
M  V30 7206 H 679.075 -2.06217 -6.44828 0
M  V30 7207 H 683.717 -0.196628 -4.22343 0
M  V30 7208 H 681.435 -3.37257 -7.34359 0
M  V30 7209 H 685.021 -1.85511 -5.51432 0
M  V30 7210 H 683.901 -3.42175 -7.0561 0
M  V30 7211 N 681.404 1.57128 0.121893 0
M  V30 7212 C 682.651 1.847 0.830188 0
M  V30 7213 C 682.979 0.736543 1.80015 0
M  V30 7214 O 682.234 -0.272358 1.93796 0
M  V30 7215 C 682.533 3.1874 1.61677 0
M  V30 7216 C 682.199 4.43901 0.791361 0
M  V30 7217 C 680.861 4.77887 0.563731 0
M  V30 7218 C 683.213 5.20753 0.215823 0
M  V30 7219 C 680.541 5.86168 -0.249737 0
M  V30 7220 C 682.893 6.29891 -0.584821 0
M  V30 7221 C 681.557 6.6241 -0.822794 0
M  V30 7222 H 680.827 0.675866 0.303787 0
M  V30 7223 H 683.474 1.91276 0.0926894 0
M  V30 7224 H 681.779 3.07728 2.42509 0
M  V30 7225 H 683.476 3.37295 2.16872 0
M  V30 7226 H 680.066 4.17272 0.978867 0
M  V30 7227 H 684.25 4.94851 0.378907 0
M  V30 7228 H 679.506 6.0979 -0.44336 0
M  V30 7229 H 683.68 6.88624 -1.03779 0
M  V30 7230 H 681.307 7.46147 -1.45496 0
M  V30 7231 N 682.882 -0.391992 1.52647 0
M  V30 7232 C 684.107 -1.16312 1.71716 0
M  V30 7233 C 684.532 -1.83042 0.433279 0
M  V30 7234 O 683.89 -1.70705 -0.610707 0
M  V30 7235 C 683.938 -2.18908 2.86551 0
M  V30 7236 O 683.042 -3.2543 2.53316 0
M  V30 7237 H 682.383 -0.338743 0.571095 0
M  V30 7238 H 684.913 -0.457202 1.99426 0
M  V30 7239 H 684.923 -2.62954 3.1196 0
M  V30 7240 H 683.598 -1.69726 3.79692 0
M  V30 7241 H 682.175 -2.86543 2.38637 0
M  V30 7242 N 684.36 -1.4356 -0.65026 0
M  V30 7243 C 685.637 -1.35811 -1.40765 0
M  V30 7244 C 686.017 -0.00736379 -2.11099 0
M  V30 7245 O 685.365 1.00932 -2.05 0
M  V30 7246 C 685.575 -2.54332 -2.3899 0
M  V30 7247 C 686.923 -2.97551 -3.02901 0
M  V30 7248 O 687.947 -2.544 -2.49317 0
M  V30 7249 O 686.806 -3.72311 -4.00059 0
M  V30 7250 H 683.9 -0.536861 -0.629054 0
M  V30 7251 H 686.446 -1.55615 -0.676919 0
M  V30 7252 H 685.218 -3.44274 -1.85986 0
M  V30 7253 H 684.841 -2.36643 -3.19509 0
M  V30 7254 N 685.838 0.888903 -1.30139 0
M  V30 7255 C 687.249 1.45578 -1.16893 0
M  V30 7256 C 687.6 1.94825 0.231866 0
M  V30 7257 O 686.725 1.84661 1.12824 0
M  V30 7258 C 687.32 2.646 -2.11595 0
M  V30 7259 C 685.879 3.17389 -2.02339 0
M  V30 7260 C 685.026 1.90081 -2.01902 0
M  V30 7261 H 687.977 0.69921 -1.42467 0
M  V30 7262 H 687.998 3.40687 -1.69449 0
M  V30 7263 H 687.51 2.28726 -3.13538 0
M  V30 7264 H 685.611 3.5793 -1.03523 0
M  V30 7265 H 685.724 3.80955 -2.90534 0
M  V30 7266 H 684.088 2.08246 -1.46648 0
M  V30 7267 H 684.871 1.5647 -3.05568 0
M  V30 7268 N 687.317 1.12792 1.10072 0
M  V30 7269 C 688.545 0.908506 1.85886 0
M  V30 7270 C 688.96 -0.542408 1.80841 0
M  V30 7271 O 688.317 -1.37517 1.1998 0
M  V30 7272 C 688.368 1.37973 3.34134 0
M  V30 7273 O 688.089 2.77378 3.39106 0
M  V30 7274 C 689.59 1.1978 4.26811 0
M  V30 7275 H 686.81 0.3244 0.587372 0
M  V30 7276 H 689.354 1.49882 1.39125 0
M  V30 7277 H 687.509 0.832566 3.78348 0
M  V30 7278 H 687.923 2.98144 4.31521 0
M  V30 7279 H 689.397 1.57635 5.29014 0
M  V30 7280 H 689.874 0.138768 4.38981 0
M  V30 7281 H 690.48 1.73266 3.88406 0
M  V30 7282 N 688.795 -1.27931 0.920396 0
M  V30 7283 C 689.725 -2.29487 0.431024 0
M  V30 7284 C 690.706 -1.62435 -0.504861 0
M  V30 7285 O 691.891 -1.89797 -0.411176 0
M  V30 7286 C 689.021 -3.45788 -0.323709 0
M  V30 7287 C 687.975 -4.24784 0.523658 0
M  V30 7288 C 687.301 -5.33488 -0.359809 0
M  V30 7289 C 688.601 -4.90874 1.78437 0
M  V30 7290 H 690.295 -2.70671 1.27975 0
M  V30 7291 H 687.841 -1.30121 0.616813 0
M  V30 7292 H 689.794 -4.15927 -0.676952 0
M  V30 7293 H 688.518 -3.03502 -1.2064 0
M  V30 7294 H 687.177 -3.56382 0.85951 0
M  V30 7295 H 686.825 -4.87445 -1.24124 0
M  V30 7296 H 686.525 -5.87247 0.203605 0
M  V30 7297 H 688.049 -6.06472 -0.708787 0
M  V30 7298 H 689.463 -5.53339 1.49963 0
M  V30 7299 H 687.86 -5.54659 2.29071 0
M  V30 7300 H 688.93 -4.14988 2.50824 0
M  V30 7301 N 690.273 -0.685099 -1.4193 0
M  V30 7302 C 691.501 -0.220372 -2.05723 0
M  V30 7303 C 691.916 1.12642 -1.51516 0
M  V30 7304 O 691.273 1.70182 -0.659114 0
M  V30 7305 C 691.324 -0.157974 -3.61155 0
M  V30 7306 O 691.045 -1.45156 -4.13354 0
M  V30 7307 C 692.546 0.329009 -4.42077 0
M  V30 7308 H 689.766 -0.104725 -0.662777 0
M  V30 7309 H 692.31 -0.934736 -1.81887 0
M  V30 7310 H 690.465 0.507144 -3.84066 0
M  V30 7311 H 690.879 -1.33172 -5.07312 0
M  V30 7312 H 692.353 0.321559 -5.51063 0
M  V30 7313 H 692.83 1.36608 -4.17414 0
M  V30 7314 H 693.436 -0.304737 -4.24207 0
M  V30 7315 N 691.751 1.51645 -0.429126 0
M  V30 7316 C 692.976 2.06917 0.141399 0
M  V30 7317 C 693.401 1.29527 1.36398 0
M  V30 7318 O 692.759 0.33094 1.78254 0
M  V30 7319 C 692.807 3.57776 0.4504 0
M  V30 7320 O 691.911 3.82639 1.53821 0
M  V30 7321 H 691.252 0.663978 0.0054647 0
M  V30 7322 H 693.782 1.95355 -0.608093 0
M  V30 7323 H 693.792 4.01894 0.703249 0
M  V30 7324 H 692.467 4.13532 -0.443213 0
M  V30 7325 H 691.044 3.5039 1.27597 0
M  V30 7326 N 693.229 0.160201 1.56784 0
M  V30 7327 C 694.159 -0.770264 2.2043 0
M  V30 7328 C 695.14 -1.24736 1.15651 0
M  V30 7329 O 696.325 -1.30253 1.44041 0
M  V30 7330 C 693.455 -2.00427 2.83631 0
M  V30 7331 C 692.409 -1.66345 3.94352 0
M  V30 7332 C 691.735 -2.97119 4.4455 0
M  V30 7333 C 693.035 -0.899972 5.14488 0
M  V30 7334 H 694.729 -0.239783 2.98438 0
M  V30 7335 H 692.275 -0.113891 1.43549 0
M  V30 7336 H 694.228 -2.66012 3.26827 0
M  V30 7337 H 692.952 -2.5587 2.02973 0
M  V30 7338 H 691.611 -1.03133 3.51794 0
M  V30 7339 H 691.259 -3.5058 3.60698 0
M  V30 7340 H 690.959 -2.75073 5.19238 0
M  V30 7341 H 692.483 -3.63753 4.90425 0
M  V30 7342 H 693.897 -1.45818 5.54446 0
M  V30 7343 H 692.294 -0.778968 5.95023 0
M  V30 7344 H 693.364 0.105827 4.84785 0
M  V30 7345 N 694.707 -1.5719 -0.113559 0
M  V30 7346 C 695.67 -1.99796 -1.12314 0
M  V30 7347 C 696.67 -0.888847 -1.34001 0
M  V30 7348 O 697.86 -1.15476 -1.30426 0
M  V30 7349 C 694.992 -2.34279 -2.47641 0
M  V30 7350 H 696.185 -2.90193 -0.756825 0
M  V30 7351 H 693.738 -1.52144 -0.358029 0
M  V30 7352 H 694.473 -1.46778 -2.89183 0
M  V30 7353 H 694.258 -3.15175 -2.33253 0
M  V30 7354 H 695.748 -2.67963 -3.2029 0
M  V30 7355 N 696.185 0.383891 -1.52853 0
M  V30 7356 C 697.132 1.46924 -1.77995 0
M  V30 7357 C 698.102 1.53958 -0.623396 0
M  V30 7358 O 699.287 1.70134 -0.863657 0
M  V30 7359 C 696.427 2.84093 -1.95921 0
M  V30 7360 C 695.54 2.86171 -3.23621 0
M  V30 7361 C 694.675 4.14799 -3.31836 0
M  V30 7362 C 693.714 4.10948 -4.53639 0
M  V30 7363 N 692.851 5.31192 -4.59107 0
M  V30 7364 H 697.691 1.24786 -2.70615 0
M  V30 7365 H 695.228 0.605265 -1.34071 0
M  V30 7366 H 697.186 3.63755 -2.04299 0
M  V30 7367 H 695.816 3.04671 -1.06656 0
M  V30 7368 H 694.868 1.9885 -3.24288 0
M  V30 7369 H 696.18 2.79194 -4.13343 0
M  V30 7370 H 695.334 5.02867 -3.39425 0
M  V30 7371 H 694.073 4.24505 -2.40097 0
M  V30 7372 H 693.078 3.21268 -4.46169 0
M  V30 7373 H 694.303 4.0286 -5.467 0
M  V30 7374 H 692.249 5.41518 -3.70262 0
M  V30 7375 H 692.166 5.26311 -5.42708 0
M  V30 7376 H 693.434 6.21143 -4.70958 0
M  V30 7377 N 697.663 1.43903 0.642637 0
M  V30 7378 C 698.593 1.52697 1.76652 0
M  V30 7379 C 699.574 0.380816 1.65782 0
M  V30 7380 O 700.759 0.599432 1.84717 0
M  V30 7381 C 697.889 1.45975 3.15133 0
M  V30 7382 C 696.843 2.58949 3.40778 0
M  V30 7383 C 696.169 2.37279 4.79169 0
M  V30 7384 C 697.469 4.01153 3.34475 0
M  V30 7385 H 699.163 2.46766 1.69549 0
M  V30 7386 H 696.709 1.18767 0.814279 0
M  V30 7387 H 698.662 1.5073 3.93521 0
M  V30 7388 H 697.386 0.484162 3.22991 0
M  V30 7389 H 696.045 2.53564 2.64765 0
M  V30 7390 H 695.693 1.37939 4.83717 0
M  V30 7391 H 695.393 3.13016 4.97287 0
M  V30 7392 H 696.917 2.43834 5.59801 0
M  V30 7393 H 698.331 4.07968 4.02784 0
M  V30 7394 H 696.728 4.77001 3.64129 0
M  V30 7395 H 697.798 4.25539 2.32475 0
M  V30 7396 N 699.141 -0.881989 1.30609 0
M  V30 7397 C 700.074 -1.99066 1.11571 0
M  V30 7398 C 701.052 -1.62584 0.022516 0
M  V30 7399 O 702.236 -1.87671 0.176644 0
M  V30 7400 C 699.363 -3.3134 0.702237 0
M  V30 7401 C 698.409 -3.86807 1.79673 0
M  V30 7402 S 699.242 -4.13735 3.39976 0
M  V30 7403 C 700.398 -5.49024 3.00538 0
M  V30 7404 H 700.631 -2.1491 2.05429 0
M  V30 7405 H 698.164 -1.03074 1.14957 0
M  V30 7406 H 700.122 -4.07796 0.470415 0
M  V30 7407 H 698.783 -3.13349 -0.217034 0
M  V30 7408 H 697.976 -4.82397 1.45977 0
M  V30 7409 H 697.578 -3.17102 1.98298 0
M  V30 7410 H 699.87 -6.30208 2.48684 0
M  V30 7411 H 700.813 -5.8766 3.95046 0
M  V30 7412 H 701.221 -5.11726 2.3832 0
M  V30 7413 N 700.619 -1.13374 -1.09472 0
M  V30 7414 C 701.566 -0.810682 -2.16094 0
M  V30 7415 C 702.536 0.227003 -1.64541 0
M  V30 7416 O 703.721 0.0993538 -1.90541 0
M  V30 7417 C 700.861 -0.282336 -3.43943 0
M  V30 7418 C 699.974 -1.37902 -4.09398 0
M  V30 7419 C 699.109 -0.809066 -5.25002 0
M  V30 7420 C 698.148 -1.88419 -5.82379 0
M  V30 7421 N 697.285 -1.33221 -6.89345 0
M  V30 7422 H 702.125 -1.72397 -2.43071 0
M  V30 7423 H 699.662 -0.860564 -1.19301 0
M  V30 7424 H 701.62 0.0421189 -4.17179 0
M  V30 7425 H 700.25 0.594083 -3.17286 0
M  V30 7426 H 699.302 -1.82008 -3.34032 0
M  V30 7427 H 700.614 -2.19161 -4.48074 0
M  V30 7428 H 699.768 -0.435867 -6.05132 0
M  V30 7429 H 698.507 0.0346058 -4.87688 0
M  V30 7430 H 697.512 -2.26646 -5.00911 0
M  V30 7431 H 698.737 -2.73125 -6.21755 0
M  V30 7432 H 696.683 -0.510535 -6.5401 0
M  V30 7433 H 696.6 -2.08129 -7.26786 0
M  V30 7434 H 697.868 -0.986565 -7.73232 0
M  V30 7435 N 702.098 1.27442 -0.927168 0
M  V30 7436 C 703.008 2.30599 -0.431448 0
M  V30 7437 C 704.024 1.67028 0.48761 0
M  V30 7438 O 705.2 1.97962 0.370546 0
M  V30 7439 C 702.265 3.45327 0.308292 0
M  V30 7440 C 701.326 4.24418 -0.645615 0
M  V30 7441 C 700.559 5.33667 0.0589164 0
M  V30 7442 O 700.782 5.5589 1.27838 0
M  V30 7443 O 699.716 5.98774 -0.612638 0
M  V30 7444 H 703.542 2.75036 -1.28797 0
M  V30 7445 H 701.127 1.32382 -0.692495 0
M  V30 7446 H 703.009 4.15107 0.725555 0
M  V30 7447 H 701.684 3.02945 1.14043 0
M  V30 7448 H 700.591 3.57174 -1.11255 0
M  V30 7449 H 701.924 4.70512 -1.44496 0
M  V30 7450 N 703.576 0.692616 1.41565 0
M  V30 7451 C 704.816 0.226453 2.03142 0
M  V30 7452 C 705.18 -1.1512 1.5366 0
M  V30 7453 O 706.381 -1.71305 2.07143 0
M  V30 7454 C 704.652 0.27855 3.56313 0
M  V30 7455 S 706.211 -0.114001 4.38652 0
M  V30 7456 H 703.029 0.0914767 0.705091 0
M  V30 7457 H 705.631 0.909737 1.73043 0
M  V30 7458 H 704.335 1.28325 3.89821 0
M  V30 7459 H 703.866 -0.423981 3.91109 0
M  V30 7460 H 705.881 -1.34256 4.77692 0
M  V30 7461 N 705.054 -1.51416 0.437162 0
M  V30 7462 C 706.3 -2.03035 -0.121818 0
M  V30 7463 C 706.655 -1.31551 -1.404 0
M  V30 7464 O 705.948 -0.421623 -1.86903 0
M  V30 7465 C 706.142 -3.55203 -0.39564 0
M  V30 7466 C 705.971 -4.4143 0.858452 0
M  V30 7467 C 704.741 -4.85751 1.39192 0
M  V30 7468 C 706.939 -4.83808 1.74454 0
M  V30 7469 N 704.921 -5.5619 2.59857 0
M  V30 7470 C 706.292 -5.53312 2.79724 0
M  V30 7471 C 708.347 -4.65795 1.75897 0
M  V30 7472 C 707.05 -6.06713 3.86383 0
M  V30 7473 C 709.076 -5.20112 2.81492 0
M  V30 7474 C 708.438 -5.89562 3.85482 0
M  V30 7475 H 704.537 -0.781981 -0.00541671 0
M  V30 7476 H 707.121 -1.85296 0.597792 0
M  V30 7477 H 705.292 -3.72958 -1.08429 0
M  V30 7478 H 707.024 -3.93489 -0.945963 0
M  V30 7479 H 703.779 -4.64058 0.945879 0
M  V30 7480 H 704.203 -5.96037 3.21044 0
M  V30 7481 H 708.845 -4.11562 0.968306 0
M  V30 7482 H 706.563 -6.6 4.66288 0
M  V30 7483 H 710.149 -5.08026 2.83551 0
M  V30 7484 H 709.029 -6.30838 4.65847 0
M  V30 7485 N 706.532 -0.168513 -1.56696 0
M  V30 7486 C 707.762 0.482802 -2.0088 0
M  V30 7487 C 708.17 1.57537 -1.0478 0
M  V30 7488 O 707.513 1.83656 -0.0402746 0
M  V30 7489 C 707.575 1.1236 -3.4149 0
M  V30 7490 C 707.239 0.173027 -4.56672 0
M  V30 7491 C 708.236 -0.607565 -5.16338 0
M  V30 7492 C 705.921 0.0696691 -5.02252 0
M  V30 7493 C 707.915 -1.47874 -6.2001 0
M  V30 7494 C 705.602 -0.805096 -6.05773 0
M  V30 7495 C 706.6 -1.57789 -6.64524 0
M  V30 7496 O 706.288 -2.43804 -7.66038 0
M  V30 7497 H 706.02 0.128246 -0.663723 0
M  V30 7498 H 708.574 -0.266532 -2.03663 0
M  V30 7499 H 706.804 1.921 -3.35611 0
M  V30 7500 H 708.493 1.67683 -3.69645 0
M  V30 7501 H 709.259 -0.53787 -4.82008 0
M  V30 7502 H 705.138 0.660957 -4.56237 0
M  V30 7503 H 708.682 -2.0824 -6.65794 0
M  V30 7504 H 704.579 -0.876005 -6.39528 0
M  V30 7505 H 705.347 -2.37289 -7.83349 0
M  V30 7506 N 708.01 1.57248 0.105221 0
M  V30 7507 C 708.942 1.98008 1.15436 0
M  V30 7508 C 709.955 0.881236 1.36887 0
M  V30 7509 O 711.144 1.15943 1.35718 0
M  V30 7510 C 708.244 2.27509 2.51183 0
M  V30 7511 C 707.417 3.58811 2.50147 0
M  V30 7512 C 706.476 3.76365 3.67745 0
M  V30 7513 O 705.502 4.48329 3.50699 0
M  V30 7514 N 706.704 3.16174 4.86841 0
M  V30 7515 H 709.469 2.88616 0.807519 0
M  V30 7516 H 707.03 1.59202 0.29433 0
M  V30 7517 H 709.022 2.36455 3.28438 0
M  V30 7518 H 707.592 1.42959 2.77995 0
M  V30 7519 H 706.812 3.60927 1.5851 0
M  V30 7520 H 708.1 4.45088 2.46524 0
M  V30 7521 H 707.498 2.57701 5.03594 0
M  V30 7522 H 706.055 3.30621 5.61723 0
M  V30 7523 N 709.488 -0.375779 1.53054 0
M  V30 7524 C 710.436 -1.48015 1.79428 0
M  V30 7525 C 711.43 -1.55893 0.662854 0
M  V30 7526 O 712.636 -1.58901 0.845599 0
M  V30 7527 H 709.011 -0.492887 0.56795 0
M  V30 7528 H 710.982 -1.22971 2.71884 0
M  V30 7529 C 709.731 -2.84984 1.99197 0
M  V30 7530 H 709.054 -2.79677 2.85693 0
M  V30 7531 H 710.494 -3.61462 2.21633 0
M  V30 7532 C 708.953 -3.28025 0.768183 0
M  V30 7533 O 709.483 -4.01671 -0.0480482 0
M  V30 7534 N 707.689 -2.84454 0.594521 0
M  V30 7535 H 707.236 -2.24688 1.25988 0
M  V30 7536 H 707.194 -3.13609 -0.222916 0
M  V30 7537 N 710.966 -1.44241 -0.634997 0
M  V30 7538 C 712.377 -1.41622 -1.21655 0
M  V30 7539 C 712.728 -0.129584 -1.95772 0
M  V30 7540 O 711.853 0.770225 -2.02229 0
M  V30 7541 C 712.448 -2.56557 -2.21278 0
M  V30 7542 C 711.007 -2.57145 -2.7487 0
M  V30 7543 C 710.154 -2.33354 -1.49804 0
M  V30 7544 H 713.105 -1.52878 -0.425905 0
M  V30 7545 H 713.126 -2.29089 -3.03807 0
M  V30 7546 H 712.638 -3.50186 -1.67306 0
M  V30 7547 H 710.739 -1.67447 -3.32855 0
M  V30 7548 H 710.852 -3.55507 -3.21172 0
M  V30 7549 H 709.216 -1.82372 -1.77799 0
M  V30 7550 H 709.999 -3.29092 -0.977402 0
M  V30 7551 N 712.444 0.87505 -1.31075 0
M  V30 7552 C 713.669 1.66583 -1.23551 0
M  V30 7553 C 714.094 1.87067 0.19686 0
M  V30 7554 O 713.452 1.40877 1.1412 0
M  V30 7555 C 713.5 3.01401 -1.97965 0
M  V30 7556 O 712.604 3.90923 -1.31351 0
M  V30 7557 H 711.945 0.508645 -0.426821 0
M  V30 7558 H 714.475 1.09139 -1.7306 0
M  V30 7559 H 714.485 3.51374 -2.07366 0
M  V30 7560 H 713.16 2.85812 -3.02133 0
M  V30 7561 H 711.737 3.49369 -1.30368 0
M  V30 7562 N 713.922 1.13953 1.08869 0
M  V30 7563 C 714.885 0.824991 2.13838 0
M  V30 7564 C 715.885 -0.168198 1.59918 0
M  V30 7565 O 717.075 0.0595778 1.74098 0
M  V30 7566 C 714.207 0.228938 3.4013 0
M  V30 7567 H 715.4 1.75521 2.43171 0
M  V30 7568 H 712.953 0.94492 1.24503 0
M  V30 7569 H 713.688 -0.710227 3.16427 0
M  V30 7570 H 713.473 0.944243 3.80561 0
M  V30 7571 H 714.963 0.0259223 4.17592 0
M  V30 7572 N 715.4 -1.26948 0.933913 0
M  V30 7573 C 716.816 -1.46419 0.635103 0
M  V30 7574 C 717.016 -1.84336 -0.813785 0
M  V30 7575 O 716.072 -1.96061 -1.59111 0
M  V30 7576 C 717.385 -2.55206 1.5903 0
M  V30 7577 C 718.933 -2.69062 1.5992 0
M  V30 7578 C 719.408 -3.81013 2.54152 0
M  V30 7579 N 720.899 -3.88395 2.52395 0
M  V30 7580 C 721.634 -4.74454 3.21996 0
M  V30 7581 N 721.13 -5.64954 4.00997 0
M  V30 7582 N 722.923 -4.68237 3.10983 0
M  V30 7583 H 715.074 -1.00622 1.87053 0
M  V30 7584 H 717.337 -0.503189 0.803433 0
M  V30 7585 H 717.043 -2.34153 2.62422 0
M  V30 7586 H 716.917 -3.52719 1.33677 0
M  V30 7587 H 719.304 -2.89492 0.572569 0
M  V30 7588 H 719.385 -1.72016 1.89325 0
M  V30 7589 H 719.029 -3.61336 3.5693 0
M  V30 7590 H 718.959 -4.77499 2.22041 0
M  V30 7591 H 721.45 -3.23687 1.95025 0
M  V30 7592 H 721.763 -6.27496 4.51074 0
M  V30 7593 H 720.108 -5.6473 4.05099 0
M  V30 7594 H 723.299 -3.96535 2.48753 0
M  V30 7595 H 723.472 -5.35087 3.65494 0
M  V30 7596 N 716.879 -0.700114 -1.41195 0
M  V30 7597 C 717.809 -0.0521132 -2.33442 0
M  V30 7598 C 718.79 0.76228 -1.52063 0
M  V30 7599 O 719.975 0.714336 -1.80585 0
M  V30 7600 C 717.105 0.881693 -3.35922 0
M  V30 7601 C 716.059 0.174062 -4.27646 0
M  V30 7602 C 715.385 1.22254 -5.20536 0
M  V30 7603 C 716.685 -0.962396 -5.13357 0
M  V30 7604 H 718.379 -0.822574 -2.87879 0
M  V30 7605 H 715.925 -0.397011 -1.38419 0
M  V30 7606 H 717.878 1.34429 -3.99383 0
M  V30 7607 H 716.602 1.68387 -2.79845 0
M  V30 7608 H 715.261 -0.268551 -3.65615 0
M  V30 7609 H 714.909 2.01736 -4.60773 0
M  V30 7610 H 714.609 0.754038 -5.82742 0
M  V30 7611 H 716.133 1.68555 -5.86874 0
M  V30 7612 H 717.547 -0.579875 -5.7036 0
M  V30 7613 H 715.944 -1.35828 -5.84526 0
M  V30 7614 H 717.014 -1.80003 -4.50252 0
M  V30 7615 N 718.357 1.51182 -0.445186 0
M  V30 7616 C 719.585 2.06568 0.117091 0
M  V30 7617 C 720 1.31182 1.35781 0
M  V30 7618 O 719.357 0.373605 1.78635 0
M  V30 7619 C 719.408 3.58917 0.431408 0
M  V30 7620 O 719.129 4.31456 -0.760078 0
M  V30 7621 C 720.63 4.30843 1.0435 0
M  V30 7622 H 717.85 0.670985 0.00444436 0
M  V30 7623 H 720.394 1.94666 -0.626525 0
M  V30 7624 H 718.549 3.70708 1.12493 0
M  V30 7625 H 718.963 5.22215 -0.489048 0
M  V30 7626 H 720.437 5.38499 1.21337 0
M  V30 7627 H 720.914 3.89644 2.02667 0
M  V30 7628 H 721.52 4.23516 0.38913 0
M  V30 7629 N 719.835 0.176821 1.56605 0
M  V30 7630 C 720.798 -0.737429 2.17013 0
M  V30 7631 C 721.798 -1.15414 1.11965 0
M  V30 7632 O 722.988 -1.0702 1.37449 0
M  V30 7633 C 720.12 -2.00445 2.75744 0
M  V30 7634 H 721.313 -0.211455 2.99154 0
M  V30 7635 H 718.866 -0.0727582 1.56131 0
M  V30 7636 H 719.601 -2.57338 1.97352 0
M  V30 7637 H 719.386 -1.71456 3.52626 0
M  V30 7638 H 720.876 -2.65679 3.22187 0
M  V30 7639 N 721.313 -1.57302 -0.09688 0
M  V30 7640 C 722.243 -2.0497 -1.11846 0
M  V30 7641 C 723.224 -0.938278 -1.41882 0
M  V30 7642 O 724.409 -1.20943 -1.51942 0
M  V30 7643 C 721.539 -2.47264 -2.43881 0
M  V30 7644 C 720.493 -3.62053 -2.28257 0
M  V30 7645 C 719.819 -3.90318 -3.65453 0
M  V30 7646 C 721.119 -4.93005 -1.72461 0
M  V30 7647 H 722.813 -2.90567 -0.721888 0
M  V30 7648 H 720.359 -1.39786 -0.345803 0
M  V30 7649 H 722.312 -2.7922 -3.15617 0
M  V30 7650 H 721.036 -1.58664 -2.8547 0
M  V30 7651 H 719.695 -3.30341 -1.58967 0
M  V30 7652 H 719.343 -2.98889 -4.04567 0
M  V30 7653 H 719.043 -4.67597 -3.55846 0
M  V30 7654 H 720.567 -4.24747 -4.3866 0
M  V30 7655 H 721.981 -5.23354 -2.34036 0
M  V30 7656 H 720.378 -5.74436 -1.73618 0
M  V30 7657 H 721.448 -4.80053 -0.683898 0
M  V30 7658 N 722.791 0.367657 -1.53252 0
M  V30 7659 C 724.207 0.709191 -1.42978 0
M  V30 7660 C 724.407 1.93352 -0.567193 0
M  V30 7661 O 723.463 2.52453 -0.0488349 0
M  V30 7662 C 724.776 0.924338 -2.86141 0
M  V30 7663 C 726.324 1.02448 -2.95759 0
M  V30 7664 C 726.799 1.27211 -4.39979 0
M  V30 7665 N 728.29 1.33986 -4.43398 0
M  V30 7666 C 729.025 1.54852 -5.52095 0
M  V30 7667 N 728.521 1.73049 -6.7084 0
M  V30 7668 N 730.314 1.57205 -5.39669 0
M  V30 7669 H 722.465 -0.437669 -2.07842 0
M  V30 7670 H 724.728 -0.133737 -0.938519 0
M  V30 7671 H 724.434 0.0965455 -3.51567 0
M  V30 7672 H 724.308 1.83302 -3.29667 0
M  V30 7673 H 726.695 1.84282 -2.30487 0
M  V30 7674 H 726.776 0.0932301 -2.5563 0
M  V30 7675 H 726.42 0.458792 -5.05824 0
M  V30 7676 H 726.35 2.21654 -4.77679 0
M  V30 7677 H 728.841 1.21545 -3.5782 0
M  V30 7678 H 729.154 1.88538 -7.49449 0
M  V30 7679 H 727.499 1.70231 -6.7383 0
M  V30 7680 H 730.69 1.42555 -4.45865 0
M  V30 7681 H 730.863 1.73126 -6.24445 0
M  V30 7682 N 724.269 1.44576 0.627338 0
M  V30 7683 C 725.518 1.46837 1.38281 0
M  V30 7684 C 725.831 0.10635 1.95311 0
M  V30 7685 O 727.037 0.00651084 2.71499 0
M  V30 7686 C 725.493 2.58527 2.50384 0
M  V30 7687 C 725.101 4.00953 1.99851 0
M  V30 7688 C 726.845 2.70013 3.27557 0
M  V30 7689 C 724.752 5.0406 3.09318 0
M  V30 7690 H 723.682 0.546319 0.519664 0
M  V30 7691 H 726.333 1.70654 0.674497 0
M  V30 7692 H 724.715 2.27957 3.23808 0
M  V30 7693 H 725.889 4.41108 1.33267 0
M  V30 7694 H 724.204 3.93743 1.35482 0
M  V30 7695 H 726.801 3.44217 4.09168 0
M  V30 7696 H 727.144 1.75961 3.77284 0
M  V30 7697 H 727.677 3.00011 2.61224 0
M  V30 7698 H 724.416 5.99753 2.6453 0
M  V30 7699 H 723.936 4.68493 3.74532 0
M  V30 7700 H 725.615 5.2793 3.74031 0
M  V30 7701 N 725.747 -0.868086 1.31537 0
M  V30 7702 C 726.694 -1.97548 1.19346 0
M  V30 7703 C 727.664 -1.65913 0.0787922 0
M  V30 7704 O 728.849 -1.89129 0.251985 0
M  V30 7705 C 725.989 -3.32922 0.908692 0
M  V30 7706 C 725.102 -3.77141 2.10687 0
M  V30 7707 C 724.237 -5.01241 1.75873 0
M  V30 7708 C 723.276 -5.37914 2.92088 0
M  V30 7709 N 722.413 -6.53192 2.57457 0
M  V30 7710 H 727.253 -2.07307 2.14074 0
M  V30 7711 H 724.79 -1.01483 1.06487 0
M  V30 7712 H 726.748 -4.10867 0.724138 0
M  V30 7713 H 725.378 -3.228 -0.0017611 0
M  V30 7714 H 724.43 -2.94961 2.40213 0
M  V30 7715 H 725.742 -4.00248 2.97663 0
M  V30 7716 H 724.896 -5.86858 1.53891 0
M  V30 7717 H 723.635 -4.80041 0.86091 0
M  V30 7718 H 722.64 -4.50814 3.14717 0
M  V30 7719 H 723.865 -5.61077 3.82582 0
M  V30 7720 H 721.811 -6.33536 1.702 0
M  V30 7721 H 721.728 -6.76252 3.37963 0
M  V30 7722 H 722.996 -7.41997 2.38873 0
M  V30 7723 N 727.225 -1.14528 -1.08264 0
M  V30 7724 C 728.172 -0.833556 -2.15222 0
M  V30 7725 C 729.142 0.209539 -1.64773 0
M  V30 7726 O 730.327 0.0791388 -1.90636 0
M  V30 7727 C 727.467 -0.318799 -3.43624 0
M  V30 7728 C 726.58 -1.42237 -4.07913 0
M  V30 7729 C 725.715 -0.864704 -5.24115 0
M  V30 7730 C 724.754 -1.94585 -5.80347 0
M  V30 7731 N 723.891 -1.40525 -6.87893 0
M  V30 7732 H 728.731 -1.74965 -2.41228 0
M  V30 7733 H 726.268 -0.873169 -1.18381 0
M  V30 7734 H 728.226 -0.00213088 -4.172 0
M  V30 7735 H 726.856 0.560397 -3.17898 0
M  V30 7736 H 725.908 -1.8554 -3.32083 0
M  V30 7737 H 727.22 -2.23901 -4.45724 0
M  V30 7738 H 726.374 -0.500025 -6.04636 0
M  V30 7739 H 725.113 -0.0171219 -4.87697 0
M  V30 7740 H 724.118 -2.31946 -4.98479 0
M  V30 7741 H 725.343 -2.79704 -6.18823 0
M  V30 7742 H 723.289 -0.579873 -6.53432 0
M  V30 7743 H 723.206 -2.15825 -7.24538 0
M  V30 7744 H 724.474 -1.06852 -7.72142 0
M  V30 7745 N 728.703 1.26451 -0.940633 0
M  V30 7746 C 729.931 1.97868 -0.604642 0
M  V30 7747 C 730.346 1.70051 0.820251 0
M  V30 7748 O 729.703 0.96843 1.54686 0
M  V30 7749 C 729.754 3.51684 -0.836689 0
M  V30 7750 O 729.475 3.78533 -2.20554 0
M  V30 7751 C 730.976 4.40343 -0.511169 0
M  V30 7752 H 728.196 0.631105 -0.227919 0
M  V30 7753 H 730.74 1.60979 -1.26119 0
M  V30 7754 H 728.895 3.86736 -0.226759 0
M  V30 7755 H 729.309 4.73065 -2.26517 0
M  V30 7756 H 730.783 5.47229 -0.724157 0
M  V30 7757 H 731.26 4.35694 0.553815 0
M  V30 7758 H 731.866 4.10834 -1.0998 0
M  V30 7759 N 730.181 0.707592 1.40822 0
M  V30 7760 C 731.111 0.0644925 2.33411 0
M  V30 7761 C 732.092 -0.754205 1.52466 0
M  V30 7762 O 733.277 -0.704749 1.80961 0
M  V30 7763 C 730.407 -0.863865 3.36385 0
M  V30 7764 C 729.361 -0.15138 4.27732 0
M  V30 7765 C 728.687 -1.19491 5.21177 0
M  V30 7766 C 729.987 0.989607 5.12839 0
M  V30 7767 H 731.681 0.837829 2.87438 0
M  V30 7768 H 729.227 0.404346 1.38207 0
M  V30 7769 H 731.18 -1.32309 4.0009 0
M  V30 7770 H 729.904 -1.66901 2.80734 0
M  V30 7771 H 728.563 0.287937 3.65467 0
M  V30 7772 H 728.211 -1.9929 4.61836 0
M  V30 7773 H 727.911 -0.723123 5.83134 0
M  V30 7774 H 729.435 -1.6544 5.8776 0
M  V30 7775 H 730.849 0.610114 5.70044 0
M  V30 7776 H 729.246 1.38926 5.83798 0
M  V30 7777 H 730.316 1.82389 4.49291 0
M  V30 7778 N 731.66 -1.50943 0.453197 0
M  V30 7779 C 732.888 -2.06628 -0.106135 0
M  V30 7780 C 733.303 -1.31901 -1.35084 0
M  V30 7781 O 732.66 -0.383074 -1.78434 0
M  V30 7782 C 732.711 -3.5914 -0.412368 0
M  V30 7783 O 732.432 -4.31047 0.782948 0
M  V30 7784 C 733.933 -4.31391 -1.02064 0
M  V30 7785 H 731.153 -0.670999 -0.000885896 0
M  V30 7786 H 733.697 -1.94331 0.63684 0
M  V30 7787 H 731.852 -3.71299 -1.10526 0
M  V30 7788 H 732.266 -5.21948 0.516736 0
M  V30 7789 H 733.74 -5.39135 -1.1848 0
M  V30 7790 H 734.217 -3.90714 -2.00598 0
M  V30 7791 H 734.823 -4.23716 -0.366664 0
M  V30 7792 N 733.138 -0.185124 -1.56509 0
M  V30 7793 C 734.085 0.739729 -2.18624 0
M  V30 7794 C 735.055 1.217 -1.13042 0
M  V30 7795 O 736.24 1.28268 -1.41251 0
M  V30 7796 C 733.38 1.95787 -2.84186 0
M  V30 7797 C 732.493 1.52289 -4.04267 0
M  V30 7798 C 731.628 2.69576 -4.57714 0
M  V30 7799 C 730.667 2.22636 -5.70175 0
M  V30 7800 N 729.804 3.33065 -6.18071 0
M  V30 7801 H 734.644 0.203269 -2.97306 0
M  V30 7802 H 732.181 0.0885946 -1.46833 0
M  V30 7803 H 734.139 2.67253 -3.20361 0
M  V30 7804 H 732.769 2.4678 -2.08085 0
M  V30 7805 H 731.821 0.704458 -3.7382 0
M  V30 7806 H 733.133 1.13843 -4.85635 0
M  V30 7807 H 732.287 3.4918 -4.96143 0
M  V30 7808 H 731.026 3.1129 -3.75433 0
M  V30 7809 H 730.031 1.41483 -5.31284 0
M  V30 7810 H 731.256 1.81964 -6.54267 0
M  V30 7811 H 729.202 3.74328 -5.38715 0
M  V30 7812 H 729.119 2.98756 -6.94464 0
M  V30 7813 H 730.387 4.12912 -6.61153 0
M  V30 7814 N 734.616 1.57351 0.0885366 0
M  V30 7815 C 735.865 1.85604 0.789556 0
M  V30 7816 C 736.178 0.775352 1.79576 0
M  V30 7817 O 737.384 0.945206 2.54515 0
M  V30 7818 C 735.84 3.29175 1.45506 0
M  V30 7819 C 735.448 4.45331 0.488278 0
M  V30 7820 C 737.192 3.66646 2.13942 0
M  V30 7821 C 735.099 5.79937 1.15874 0
M  V30 7822 H 734.029 0.692346 0.298619 0
M  V30 7823 H 736.68 1.83451 0.0425821 0
M  V30 7824 H 735.062 3.25889 2.24972 0
M  V30 7825 H 736.236 4.59977 -0.275359 0
M  V30 7826 H 734.551 4.16301 -0.0907363 0
M  V30 7827 H 737.148 4.64498 2.6485 0
M  V30 7828 H 737.491 2.956 2.93132 0
M  V30 7829 H 738.024 3.71848 1.41328 0
M  V30 7830 H 734.763 6.54232 0.407508 0
M  V30 7831 H 734.283 5.69123 1.89364 0
M  V30 7832 H 735.962 6.24718 1.68336 0
M  V30 7833 N 736.094 -0.359525 1.53444 0
M  V30 7834 C 737.371 -1.11756 1.6053 0
M  V30 7835 C 737.751 -2.06949 0.416587 0
M  V30 7836 O 737.099 -2.20681 -0.592628 0
M  V30 7837 C 737.309 -1.85133 2.95849 0
M  V30 7838 C 738.657 -2.3945 3.50641 0
M  V30 7839 O 739.681 -1.95251 2.97918 0
M  V30 7840 O 738.54 -3.20266 4.42823 0
M  V30 7841 H 735.634 -0.513005 0.648656 0
M  V30 7842 H 738.18 -0.362301 1.65787 0
M  V30 7843 H 736.952 -1.15694 3.73806 0
M  V30 7844 H 736.575 -2.67554 2.9411 0
M  V30 7845 N 737.572 -1.44907 -0.619662 0
M  V30 7846 C 738.52 -1.52971 -1.75222 0
M  V30 7847 C 739.514 -0.400531 -1.64597 0
M  V30 7848 O 740.72 -0.575952 -1.70537 0
M  V30 7849 H 737.095 -0.480241 -0.578682 0
M  V30 7850 H 739.066 -2.48269 -1.65545 0
M  V30 7851 C 737.815 -1.50204 -3.13583 0
M  V30 7852 H 737.138 -2.36412 -3.22412 0
M  V30 7853 H 738.578 -1.59905 -3.92691 0
M  V30 7854 C 737.037 -0.22455 -3.36151 0
M  V30 7855 O 737.567 0.700574 -3.95544 0
M  V30 7856 N 735.773 -0.124052 -2.90335 0
M  V30 7857 H 735.32 -0.87774 -2.42185 0
M  V30 7858 H 735.278 0.729914 -3.0581 0
M  V30 7859 N 739.05 0.861098 -1.31996 0
M  V30 7860 C 740.275 1.65264 -1.2531 0
M  V30 7861 C 740.7 1.87265 0.177007 0
M  V30 7862 O 740.058 1.4208 1.12619 0
M  V30 7863 C 740.106 2.99284 -2.0115 0
M  V30 7864 O 739.21 3.89508 -1.3549 0
M  V30 7865 H 738.551 0.50409 -0.432192 0
M  V30 7866 H 741.081 1.07297 -1.74208 0
M  V30 7867 H 741.091 3.49154 -2.11081 0
M  V30 7868 H 739.766 2.82591 -3.05148 0
M  V30 7869 H 738.343 3.47966 -1.34066 0
M  V30 7870 N 740.528 1.15101 1.07655 0
M  V30 7871 C 741.458 0.867864 2.16773 0
M  V30 7872 C 742.439 -0.180283 1.69142 0
M  V30 7873 O 743.624 -0.0353152 1.94168 0
M  V30 7874 C 740.754 0.35299 3.45501 0
M  V30 7875 C 739.708 1.33746 4.06566 0
M  V30 7876 C 739.034 0.681562 5.30338 0
M  V30 7877 C 740.334 2.7024 4.46954 0
M  V30 7878 H 742.028 1.78034 2.40716 0
M  V30 7879 H 739.574 0.857435 1.15689 0
M  V30 7880 H 741.527 0.142465 4.21159 0
M  V30 7881 H 740.251 -0.594945 3.21135 0
M  V30 7882 H 738.91 1.53429 3.32949 0
M  V30 7883 H 738.558 -0.272422 5.02262 0
M  V30 7884 H 738.258 1.33853 5.72151 0
M  V30 7885 H 739.782 0.48074 6.08705 0
M  V30 7886 H 741.196 2.5442 5.13754 0
M  V30 7887 H 739.593 3.32282 4.99709 0
M  V30 7888 H 740.663 3.26537 3.58471 0
M  V30 7889 N 742.006 -1.2595 0.947325 0
M  V30 7890 C 743.283 -1.88676 0.515824 0
M  V30 7891 C 743.663 -1.85547 -1.00675 0
M  V30 7892 O 743.011 -1.31399 -1.8694 0
M  V30 7893 C 743.221 -3.31734 1.08415 0
M  V30 7894 C 744.569 -4.08545 1.15654 0
M  V30 7895 O 745.593 -3.40826 1.03517 0
M  V30 7896 O 744.452 -5.29663 1.34608 0
M  V30 7897 H 741.546 -0.809537 0.169055 0
M  V30 7898 H 744.092 -1.34075 1.04029 0
M  V30 7899 H 742.864 -3.28404 2.1276 0
M  V30 7900 H 742.487 -3.93882 0.542499 0
M  V30 7901 N 743.484 -0.715051 -1.40445 0
M  V30 7902 C 744.431 -0.0621393 -2.30716 0
M  V30 7903 C 745.401 0.750871 -1.48159 0
M  V30 7904 O 746.586 0.714928 -1.76899 0
M  V30 7905 C 743.726 0.854036 -3.34365 0
M  V30 7906 C 742.839 0.0305565 -4.31989 0
M  V30 7907 C 741.974 0.946162 -5.22706 0
M  V30 7908 C 741.013 0.116741 -6.11989 0
M  V30 7909 N 740.15 0.987194 -6.95125 0
M  V30 7910 H 744.99 -0.83764 -2.85985 0
M  V30 7911 H 742.527 -0.424759 -1.40834 0
M  V30 7912 H 744.485 1.39946 -3.93028 0
M  V30 7913 H 743.115 1.59572 -2.806 0
M  V30 7914 H 742.167 -0.632044 -3.75112 0
M  V30 7915 H 743.479 -0.611615 -4.95036 0
M  V30 7916 H 742.633 1.56014 -5.86297 0
M  V30 7917 H 741.372 1.62216 -4.59932 0
M  V30 7918 H 740.377 -0.510176 -5.47428 0
M  V30 7919 H 741.602 -0.555742 -6.76822 0
M  V30 7920 H 739.548 1.64885 -6.3494 0
M  V30 7921 H 739.465 0.401046 -7.54936 0
M  V30 7922 H 740.733 1.58737 -7.63166 0
M  V30 7923 N 744.962 1.50701 -0.461195 0
M  V30 7924 C 745.892 2.31182 0.328184 0
M  V30 7925 C 746.873 1.37644 0.999408 0
M  V30 7926 O 748.058 1.66565 0.99848 0
M  V30 7927 C 745.188 3.17113 1.41621 0
M  V30 7928 C 744.142 4.19124 0.867148 0
M  V30 7929 C 743.468 4.93728 2.05272 0
M  V30 7930 C 744.768 5.22174 -0.114808 0
M  V30 7931 H 746.462 2.97423 -0.343501 0
M  V30 7932 H 744.008 1.43033 -0.166641 0
M  V30 7933 H 745.961 3.72208 1.97584 0
M  V30 7934 H 744.685 2.48739 2.11652 0
M  V30 7935 H 743.344 3.65116 0.329557 0
M  V30 7936 H 742.992 4.21835 2.73978 0
M  V30 7937 H 742.692 5.62724 1.69161 0
M  V30 7938 H 744.216 5.51654 2.61744 0
M  V30 7939 H 745.63 5.72198 0.355316 0
M  V30 7940 H 744.027 5.98833 -0.389689 0
M  V30 7941 H 745.097 4.7353 -1.04391 0
M  V30 7942 N 746.441 0.193421 1.56409 0
M  V30 7943 C 747.388 -0.728124 2.19014 0
M  V30 7944 C 748.358 -1.21098 1.13686 0
M  V30 7945 O 749.543 -1.27517 1.4193 0
M  V30 7946 C 746.683 -1.94277 2.8522 0
M  V30 7947 C 745.796 -1.50143 4.05069 0
M  V30 7948 C 744.931 -2.67145 4.59137 0
M  V30 7949 C 743.97 -2.19609 5.71348 0
M  V30 7950 N 743.107 -3.29782 6.19829 0
M  V30 7951 H 747.947 -0.187499 2.9741 0
M  V30 7952 H 745.484 -0.0808064 1.46878 0
M  V30 7953 H 747.442 -2.65551 3.21774 0
M  V30 7954 H 746.072 -2.45673 2.09391 0
M  V30 7955 H 745.124 -0.684624 3.74189 0
M  V30 7956 H 746.436 -1.11266 4.86232 0
M  V30 7957 H 745.59 -3.46544 4.97988 0
M  V30 7958 H 744.329 -3.09295 3.77078 0
M  V30 7959 H 743.334 -1.38664 5.32027 0
M  V30 7960 H 744.559 -1.78492 6.55223 0
M  V30 7961 H 742.505 -3.71466 5.40693 0
M  V30 7962 H 742.422 -2.95069 6.96039 0
M  V30 7963 H 743.69 -4.094 6.63334 0
M  V30 7964 N 747.919 -1.57396 -0.0801906 0
M  V30 7965 C 749.147 -1.91055 -0.794075 0
M  V30 7966 C 749.562 -0.788583 -1.71542 0
M  V30 7967 O 748.919 0.238587 -1.80934 0
M  V30 7968 C 748.97 -3.24418 -1.59484 0
M  V30 7969 O 748.691 -4.323 -0.710532 0
M  V30 7970 C 750.192 -3.72037 -2.41046 0
M  V30 7971 H 747.412 -0.63171 -0.226238 0
M  V30 7972 H 749.956 -2.04431 -0.0529685 0
M  V30 7973 H 748.111 -3.12595 -2.2883 0
M  V30 7974 H 748.525 -5.08976 -1.26663 0
M  V30 7975 H 749.999 -4.68006 -2.92702 0
M  V30 7976 H 750.476 -3.00624 -3.2019 0
M  V30 7977 H 751.082 -3.86777 -1.76871 0
M  V30 7978 N 749.397 0.351382 -1.53633 0
M  V30 7979 C 750.674 1.10903 -1.6112 0
M  V30 7980 C 751.054 2.06725 -0.427556 0
M  V30 7981 O 750.402 2.20992 0.580916 0
M  V30 7982 C 750.612 1.83561 -2.96827 0
M  V30 7983 C 751.96 2.37587 -3.51906 0
M  V30 7984 O 752.984 1.93669 -2.9895 0
M  V30 7985 O 751.843 3.17913 -4.44515 0
M  V30 7986 H 748.937 0.509558 -0.651368 0
M  V30 7987 H 751.483 0.353504 -1.65977 0
M  V30 7988 H 750.255 1.1371 -3.74414 0
M  V30 7989 H 749.878 2.6599 -2.95525 0
M  V30 7990 N 750.875 1.45233 0.611969 0
M  V30 7991 C 752.115 1.50558 1.38245 0
M  V30 7992 C 752.479 0.141959 1.91474 0
M  V30 7993 O 753.68 0.0698926 2.68709 0
M  V30 7994 C 751.951 2.55136 2.50281 0
M  V30 7995 S 753.51 2.79652 3.38142 0
M  V30 7996 H 750.328 0.532281 0.471378 0
M  V30 7997 H 752.93 1.82285 0.706578 0
M  V30 7998 H 751.634 3.52888 2.09518 0
M  V30 7999 H 751.165 2.25045 3.22674 0
M  V30 8000 H 753.18 2.12699 4.48301 0
M  V30 8001 O 752.392 -0.755776 1.42724 0
M  V30 8002 H 753.083 -1.40427 1.33416 0
M  V30 END ATOM
M  V30 BEGIN BOND
M  V30 END BOND
M  V30 END CTAB
M  END
$$$$
