drugbank_target|Q9K578 FEZ-1 protein (DB02032)
 OpenBabel12092120243D

  0  0  0     0  0            999 V3000
M  V30 BEGIN CTAB
M  V30 COUNTS 4435 4485 0 0 0
M  V30 BEGIN ATOM
M  V30 1 H -0.908 1.98254 -0.117106 0
M  V30 2 N 0 1.576 0 0
M  V30 3 C 0.933 2.03868 1.02534 0
M  V30 4 C 1.911 0.928543 1.3348 0
M  V30 5 O 3.095 1.19667 1.45644 0
M  V30 6 C 0.222 2.43627 2.35294 0
M  V30 7 C -0.732 3.65373 2.2001 0
M  V30 8 S 0.101 5.13292 1.52614 0
M  V30 9 C 1.257 5.56322 2.86805 0
M  V30 10 H 1.49 2.90518 0.631377 0
M  V30 11 H -0.977 1.52953 0.210867 0
M  V30 12 H 0.981 2.67203 3.11629 0
M  V30 13 H -0.358 1.57376 2.7183 0
M  V30 14 H -1.165 3.90944 3.18086 0
M  V30 15 H -1.563 3.418 1.51819 0
M  V30 16 H 0.729 5.58782 3.83104 0
M  V30 17 H 1.672 6.56266 2.65933 0
M  V30 18 H 2.08 4.83886 2.90714 0
M  V30 19 N 1.4781 -0.272755 1.55222 0
M  V30 20 C 2.4251 -1.33716 1.88119 0
M  V30 21 C 3.3951 -1.49066 0.73271 0
M  V30 22 O 4.5801 -1.63469 0.984002 0
M  V30 23 C 1.7201 -2.69238 2.15882 0
M  V30 24 C 0.8331 -2.62108 3.43399 0
M  V30 25 C -0.0319 -3.89811 3.60861 0
M  V30 26 C -0.9929 -3.77193 4.8207 0
M  V30 27 N -1.8559 -4.9673 4.96189 0
M  V30 28 H 2.9841 -1.04962 2.78903 0
M  V30 29 H 0.5211 -0.507088 1.38083 0
M  V30 30 H 2.4791 -3.48089 2.29978 0
M  V30 31 H 1.1091 -2.96194 1.28331 0
M  V30 32 H 0.1611 -1.74967 3.37773 0
M  V30 33 H 1.4731 -2.48685 4.32386 0
M  V30 34 H 0.6271 -4.77103 3.74777 0
M  V30 35 H -0.6339 -4.06102 2.7006 0
M  V30 36 H -1.6289 -2.88284 4.68159 0
M  V30 37 H -0.4039 -3.62421 5.74307 0
M  V30 38 H -2.4579 -5.13431 4.08319 0
M  V30 39 H -2.5409 -4.85839 5.79221 0
M  V30 40 H -1.2729 -5.85594 5.1449 0
M  V30 41 N 2.9562 -1.48159 -0.537278 0
M  V30 42 C 3.9032 -1.62138 -1.64256 0
M  V30 43 C 4.8732 -0.463668 -1.59497 0
M  V30 44 O 6.0582 -0.686241 -1.78032 0
M  V30 45 C 3.1982 -1.66028 -3.02537 0
M  V30 46 C 2.3112 -2.92855 -3.17585 0
M  V30 47 C 1.4462 -2.87952 -4.46382 0
M  V30 48 C 0.4852 -4.09516 -4.54932 0
M  V30 49 N -0.3778 -4.02733 -5.75109 0
M  V30 50 H 4.4622 -2.56529 -1.51647 0
M  V30 51 H 1.9992 -1.27224 -0.738414 0
M  V30 52 H 3.9572 -1.66265 -3.82638 0
M  V30 53 H 2.5872 -0.751331 -3.13934 0
M  V30 54 H 1.6392 -3.02395 -2.30784 0
M  V30 55 H 2.9512 -3.82822 -3.19764 0
M  V30 56 H 2.1052 -2.8655 -5.34765 0
M  V30 57 H 0.8442 -1.95702 -4.46712 0
M  V30 58 H -0.1508 -4.11201 -3.64957 0
M  V30 59 H 1.0742 -5.02917 -4.56346 0
M  V30 60 H -0.9798 -3.13299 -5.76351 0
M  V30 61 H -1.0628 -4.86397 -5.78752 0
M  V30 62 H 0.2052 -4.05379 -6.65799 0
M  V30 63 N 4.4343 0.785586 -1.36625 0
M  V30 64 C 5.6803 1.54591 -1.31261 0
M  V30 65 C 6.0133 1.93906 0.106823 0
M  V30 66 O 5.2883 1.63007 1.06108 0
M  V30 67 C 5.5713 2.82038 -2.23889 0
M  V30 68 C 5.4243 2.49066 -3.74548 0
M  V30 69 C 6.7433 3.83887 -2.15217 0
M  V30 70 H 3.8623 0.560846 -0.478143 0
M  V30 71 H 6.5043 0.902278 -1.67209 0
M  V30 72 H 4.6543 3.36961 -1.93363 0
M  V30 73 H 6.3263 2.00164 -4.15611 0
M  V30 74 H 4.5693 1.81954 -3.93796 0
M  V30 75 H 5.2403 3.40109 -4.34776 0
M  V30 76 H 7.7163 3.38421 -2.42096 0
M  V30 77 H 6.5923 4.70806 -2.82193 0
M  V30 78 H 6.8533 4.27131 -1.14068 0
M  V30 79 N 5.9124 1.20967 1.01018 0
M  V30 80 C 6.8424 0.988272 2.11555 0
M  V30 81 C 7.8234 -0.0849778 1.69888 0
M  V30 82 O 9.0084 0.0738202 1.9406 0
M  V30 83 C 6.1384 0.546528 3.42973 0
M  V30 84 C 5.0924 1.56375 3.9841 0
M  V30 85 C 4.4184 0.97842 5.25672 0
M  V30 86 C 5.7184 2.94922 4.31066 0
M  V30 87 H 7.4124 1.91276 2.30334 0
M  V30 88 H 4.9584 0.921073 1.1069 0
M  V30 89 H 6.9114 0.378839 4.19694 0
M  V30 90 H 5.6354 -0.413598 3.23971 0
M  V30 91 H 4.2944 1.71891 3.23804 0
M  V30 92 H 3.9424 0.0101688 5.02999 0
M  V30 93 H 3.6424 1.65784 5.63728 0
M  V30 94 H 5.1664 0.821939 6.05043 0
M  V30 95 H 6.5804 2.8288 4.9865 0
M  V30 96 H 4.9774 3.5983 4.80253 0
M  V30 97 H 6.0474 3.4616 3.39561 0
M  V30 98 N 7.3905 -1.2043 1.01659 0
M  V30 99 C 8.6155 -1.94318 0.724942 0
M  V30 100 C 9.0405 -1.74266 -0.708034 0
M  V30 101 O 8.3985 -1.03694 -1.48719 0
M  V30 102 C 8.4465 -3.44486 1.06591 0
M  V30 103 O 7.5505 -4.12017 0.177599 0
M  V30 104 H 6.8915 -0.60708 0.26898 0
M  V30 105 H 9.4215 -1.52861 1.35995 0
M  V30 106 H 9.4315 -3.95106 1.01762 0
M  V30 107 H 8.1065 -3.58404 2.10997 0
M  V30 108 H 6.6835 -3.71821 0.283421 0
M  V30 109 N 8.8686 -0.792821 -1.36206 0
M  V30 110 C 9.7986 -0.207853 -2.32573 0
M  V30 111 C 10.7796 0.659055 -1.56813 0
M  V30 112 O 11.9646 0.592176 -1.84951 0
M  V30 113 C 9.0946 0.655449 -3.41059 0
M  V30 114 C 8.0486 -0.111842 -4.27854 0
M  V30 115 C 7.3746 0.872274 -5.27537 0
M  V30 116 C 8.6746 -1.30299 -5.05786 0
M  V30 117 H 10.3686 -1.01294 -2.81744 0
M  V30 118 H 7.9146 -0.48854 -1.3546 0
M  V30 119 H 9.8676 1.07464 -4.07467 0
M  V30 120 H 8.5916 1.49328 -2.90463 0
M  V30 121 H 7.2506 -0.512053 -3.63006 0
M  V30 122 H 6.8986 1.70523 -4.73214 0
M  V30 123 H 6.5986 0.363291 -5.86476 0
M  V30 124 H 8.1226 1.28996 -5.96818 0
M  V30 125 H 9.5366 -0.959379 -5.65216 0
M  V30 126 H 7.9336 -1.7455 -5.74154 0
M  V30 127 H 9.0036 -2.09663 -4.37229 0
M  V30 128 N 10.3467 1.47872 -0.545128 0
M  V30 129 C 11.5747 2.06889 -0.021084 0
M  V30 130 C 11.9897 1.39955 1.2672 0
M  V30 131 O 11.3467 0.492036 1.75742 0
M  V30 132 C 11.3977 3.60996 0.190817 0
M  V30 133 O 11.1187 4.25419 -1.04644 0
M  V30 134 C 12.6197 4.36849 0.753521 0
M  V30 135 H 9.8397 0.669785 -0.0403635 0
M  V30 136 H 12.3837 1.90049 -0.755095 0
M  V30 137 H 10.5387 3.77391 0.87492 0
M  V30 138 H 10.9527 5.17785 -0.836611 0
M  V30 139 H 12.4267 5.45399 0.851139 0
M  V30 140 H 12.9037 4.02306 1.762 0
M  V30 141 H 13.5097 4.25169 0.105503 0
M  V30 142 N 11.8248 0.280983 1.55075 0
M  V30 143 C 12.7878 -0.590896 2.21452 0
M  V30 144 C 13.7878 -1.07682 1.19421 0
M  V30 145 O 14.9778 -0.97605 1.44288 0
M  V30 146 C 12.1098 -1.81587 2.88511 0
M  V30 147 H 13.3028 -0.0112554 2.99898 0
M  V30 148 H 10.8558 0.0316438 1.56268 0
M  V30 149 H 11.5908 -2.43587 2.14093 0
M  V30 150 H 11.3758 -1.4753 3.63287 0
M  V30 151 H 12.8658 -2.43575 3.39206 0
M  V30 152 N 13.3029 -1.57598 0.00835791 0
M  V30 153 C 14.2329 -2.1198 -0.979113 0
M  V30 154 C 15.2139 -1.03091 -1.35301 0
M  V30 155 O 16.3989 -1.30818 -1.43528 0
M  V30 156 C 13.5289 -2.62995 -2.26828 0
M  V30 157 C 12.4829 -3.76485 -2.03576 0
M  V30 158 C 11.8089 -4.13846 -3.38579 0
M  V30 159 C 13.1089 -5.0342 -1.39161 0
M  V30 160 H 14.8029 -2.94738 -0.526281 0
M  V30 161 H 12.3489 -1.41783 -0.251704 0
M  V30 162 H 14.3019 -2.99669 -2.96271 0
M  V30 163 H 13.0259 -1.7737 -2.7424 0
M  V30 164 H 11.6849 -3.40217 -1.36557 0
M  V30 165 H 11.3329 -3.25232 -3.83709 0
M  V30 166 H 11.0329 -4.90312 -3.23834 0
M  V30 167 H 12.5569 -4.53086 -4.09323 0
M  V30 168 H 13.9709 -5.37812 -1.98573 0
M  V30 169 H 12.3679 -5.84746 -1.34878 0
M  V30 170 H 13.4379 -4.83548 -0.361868 0
M  V30 171 N 14.781 0.264519 -1.55364 0
M  V30 172 C 15.714 1.35297 -1.83766 0
M  V30 173 C 16.692 1.47171 -0.691336 0
M  V30 174 O 17.876 1.63663 -0.935238 0
M  V30 175 C 15.003 2.72847 -2.00679 0
M  V30 176 C 14.049 2.78214 -3.23263 0
M  V30 177 S 14.882 2.36601 -4.80396 0
M  V30 178 C 16.038 3.7611 -5.00292 0
M  V30 179 H 16.271 1.11003 -2.758 0
M  V30 180 H 13.804 0.464596 -1.47244 0
M  V30 181 H 15.762 3.52057 -2.11108 0
M  V30 182 H 14.423 2.94388 -1.09518 0
M  V30 183 H 13.616 3.7919 -3.3201 0
M  V30 184 H 13.218 2.07034 -3.11469 0
M  V30 185 H 15.51 4.71457 -4.86554 0
M  V30 186 H 16.453 3.7231 -6.02321 0
M  V30 187 H 16.861 3.67806 -4.28228 0
M  V30 188 N 16.2591 1.48442 0.529413 0
M  V30 189 C 17.1921 1.57577 1.65059 0
M  V30 190 C 18.1701 0.426198 1.56915 0
M  V30 191 O 19.3541 0.637877 1.77379 0
M  V30 192 C 16.4811 1.5043 3.03461 0
M  V30 193 C 15.5271 2.70235 3.29962 0
M  V30 194 S 16.3601 4.32198 3.16172 0
M  V30 195 C 17.5161 4.2765 4.57019 0
M  V30 196 H 17.7491 2.52427 1.5706 0
M  V30 197 H 15.2821 1.36982 0.712417 0
M  V30 198 H 17.2401 1.46992 3.8328 0
M  V30 199 H 15.9011 0.569167 3.089 0
M  V30 200 H 15.0941 2.61374 4.30929 0
M  V30 201 H 14.6961 2.70938 2.57815 0
M  V30 202 H 16.9881 3.97618 5.48549 0
M  V30 203 H 17.9311 5.28797 4.70934 0
M  V30 204 H 18.3391 3.5811 4.36368 0
M  V30 205 N 17.7372 -0.778329 1.37039 0
M  V30 206 C 18.9832 -1.53892 1.32079 0
M  V30 207 C 19.3162 -1.9396 -0.0965386 0
M  V30 208 O 18.5912 -1.63568 -1.05242 0
M  V30 209 C 18.8742 -2.80847 2.25382 0
M  V30 210 C 18.7272 -2.47076 3.75864 0
M  V30 211 C 20.0462 -3.82741 2.1725 0
M  V30 212 H 17.1652 -0.558303 0.48111 0
M  V30 213 H 19.8072 -0.893397 1.67685 0
M  V30 214 H 17.9572 -3.35931 1.95148 0
M  V30 215 H 19.6292 -1.97957 4.16666 0
M  V30 216 H 17.8722 -1.79863 3.94755 0
M  V30 217 H 18.5432 -3.37798 4.36574 0
M  V30 218 H 21.0192 -3.37133 2.43887 0
M  V30 219 H 19.8952 -4.69303 2.84686 0
M  V30 220 H 20.1562 -4.2652 1.16331 0
M  V30 221 N 19.2153 -1.21501 -1.00376 0
M  V30 222 C 20.1453 -0.999478 -2.11028 0
M  V30 223 C 21.1263 0.0759671 -1.6993 0
M  V30 224 O 22.3113 -0.0841106 -1.94018 0
M  V30 225 C 19.4413 -0.564709 -3.42678 0
M  V30 226 C 18.3953 -1.58486 -3.97576 0
M  V30 227 C 17.7213 -1.00628 -5.25146 0
M  V30 228 C 19.0213 -2.97204 -4.29496 0
M  V30 229 H 20.7153 -1.92495 -2.29317 0
M  V30 230 H 18.2613 -0.92693 -1.102 0
M  V30 231 H 20.2143 -0.401091 -4.19487 0
M  V30 232 H 18.9383 0.396411 -3.24185 0
M  V30 233 H 17.5973 -1.73606 -3.22888 0
M  V30 234 H 17.2453 -0.0368439 -5.02987 0
M  V30 235 H 16.9453 -1.68771 -5.62841 0
M  V30 236 H 18.4693 -0.854015 -6.04598 0
M  V30 237 H 19.8833 -2.8552 -4.97143 0
M  V30 238 H 18.2803 -3.62372 -4.78338 0
M  V30 239 H 19.3503 -3.47956 -3.3772 0
M  V30 240 N 20.6934 1.19889 -1.02296 0
M  V30 241 C 21.6414 2.24938 -0.592081 0
M  V30 242 C 22.6354 1.65257 0.372357 0
M  V30 243 O 23.8414 1.78371 0.241583 0
M  V30 244 H 20.2164 0.731787 -0.173182 0
M  V30 245 H 22.1874 2.58603 -1.48885 0
M  V30 246 C 20.9364 3.47668 0.047351 0
M  V30 247 H 20.2594 3.93875 -0.685772 0
M  V30 248 H 21.6994 4.22852 0.311862 0
M  V30 249 C 20.1584 3.11136 1.29212 0
M  V30 250 O 20.6884 3.2325 2.38479 0
M  V30 251 N 18.8944 2.65625 1.17863 0
M  V30 252 H 18.4414 2.55968 0.289493 0
M  V30 253 H 18.3994 2.41553 2.01245 0
M  V30 254 N 22.1715 0.800033 1.35784 0
M  V30 255 C 23.1215 0.178654 2.27299 0
M  V30 256 C 24.1055 -0.643667 1.47464 0
M  V30 257 O 25.2975 -0.502 1.69732 0
M  V30 258 C 22.4265 -0.677194 3.36555 0
M  V30 259 C 21.5125 0.154497 4.23818 0
M  V30 260 N 21.9035 1.21427 4.91008 0
M  V30 261 C 20.2015 -0.0649462 4.45953 0
M  V30 262 C 20.9025 1.72147 5.55644 0
M  V30 263 N 19.8785 1.02897 5.33773 0
M  V30 264 H 23.6805 0.989637 2.76737 0
M  V30 265 H 21.1945 0.64054 1.49234 0
M  V30 266 H 23.1915 -1.13835 4.01058 0
M  V30 267 H 21.8515 -1.4866 2.8867 0
M  V30 268 H 22.8625 1.59684 4.92668 0
M  V30 269 H 19.5395 -0.844016 4.0888 0
M  V30 270 H 20.9295 2.60683 6.19269 0
M  V30 271 N 23.6496 -1.47581 0.552962 0
M  V30 272 C 24.8746 -2.07378 0.0300593 0
M  V30 273 C 25.2996 -1.40355 -1.25229 0
M  V30 274 O 24.6576 -0.477099 -1.7491 0
M  V30 275 C 24.7056 -3.60274 -0.153231 0
M  V30 276 O 23.8096 -3.94041 -1.21678 0
M  V30 277 H 23.1506 -0.662158 0.0494182 0
M  V30 278 H 25.6806 -1.89662 0.767434 0
M  V30 279 H 25.6906 -4.0633 -0.368761 0
M  V30 280 H 24.3656 -4.08455 0.783397 0
M  V30 281 H 22.9426 -3.59735 -0.982079 0
M  V30 282 N 25.1277 -0.289203 -1.54924 0
M  V30 283 C 26.3527 0.329299 -2.04769 0
M  V30 284 C 26.7777 1.4763 -1.16564 0
M  V30 285 O 26.1357 1.80527 -0.167186 0
M  V30 286 C 26.1837 0.774438 -3.52186 0
M  V30 287 O 25.2877 1.88038 -3.67036 0
M  V30 288 H 24.6287 0.0659259 -0.660719 0
M  V30 289 H 27.1587 -0.42761 -2.00082 0
M  V30 290 H 27.1687 1.06642 -3.93816 0
M  V30 291 H 25.8437 -0.0646707 -4.1585 0
M  V30 292 H 24.4207 1.58985 -3.3731 0
M  V30 293 N 26.6058 1.57591 -0.0167156 0
M  V30 294 C 27.8528 1.91283 0.664597 0
M  V30 295 C 28.1808 0.891949 1.72842 0
M  V30 296 O 27.4358 -0.100931 1.9544 0
M  V30 297 C 27.7348 3.3172 1.33029 0
M  V30 298 C 27.4008 4.4914 0.398047 0
M  V30 299 C 26.0628 4.80992 0.141421 0
M  V30 300 C 28.4148 5.20634 -0.242825 0
M  V30 301 C 25.7428 5.81703 -0.764092 0
M  V30 302 C 28.0948 6.22311 -1.13632 0
M  V30 303 C 26.7588 6.52611 -1.40196 0
M  V30 304 H 26.0288 0.699956 0.243193 0
M  V30 305 H 28.6758 1.9135 -0.0758267 0
M  V30 306 H 26.9808 3.27856 2.14517 0
M  V30 307 H 28.6778 3.55055 1.86379 0
M  V30 308 H 25.2678 4.24262 0.608238 0
M  V30 309 H 29.4518 4.96267 -0.0576019 0
M  V30 310 H 24.7078 6.03532 -0.977732 0
M  V30 311 H 28.8818 6.76834 -1.63917 0
M  V30 312 H 26.5088 7.30467 -2.10529 0
M  V30 313 N 28.0839 -0.256276 1.55502 0
M  V30 314 C 29.0469 -1.30047 1.88734 0
M  V30 315 C 30.0469 -1.4154 0.763086 0
M  V30 316 O 31.2369 -1.40403 1.03115 0
M  V30 317 C 28.3689 -2.67953 2.10747 0
M  V30 318 H 29.5619 -1.01802 2.82093 0
M  V30 319 H 27.1149 -0.495134 1.4825 0
M  V30 320 H 27.8499 -3.01351 1.19825 0
M  V30 321 H 27.6349 -2.60993 2.92617 0
M  V30 322 H 29.1249 -3.43368 2.37673 0
M  V30 323 N 29.562 -1.4872 -0.521534 0
M  V30 324 C 30.792 -1.6061 -1.29954 0
M  V30 325 C 31.2 -0.268728 -1.87282 0
M  V30 326 O 30.543 0.753221 -1.67548 0
M  V30 327 C 30.605 -2.60013 -2.48261 0
M  V30 328 C 30.269 -4.04874 -2.11957 0
M  V30 329 C 31.266 -4.92304 -1.67132 0
M  V30 330 C 28.951 -4.5047 -2.22221 0
M  V30 331 C 30.945 -6.2336 -1.33047 0
M  V30 332 C 28.632 -5.81544 -1.87748 0
M  V30 333 C 29.63 -6.67812 -1.43234 0
M  V30 334 O 29.318 -7.96446 -1.09217 0
M  V30 335 H 29.05 -0.544116 -0.401141 0
M  V30 336 H 31.604 -1.95339 -0.634958 0
M  V30 337 H 29.834 -2.20422 -3.17728 0
M  V30 338 H 31.523 -2.61648 -3.10315 0
M  V30 339 H 32.289 -4.58312 -1.58665 0
M  V30 340 H 28.168 -3.83504 -2.55823 0
M  V30 341 H 31.712 -6.90649 -0.982299 0
M  V30 342 H 27.609 -6.15069 -1.95858 0
M  V30 343 H 28.377 -8.09275 -1.22542 0
M  V30 344 N 31.0401 0.771051 -1.3745 0
M  V30 345 C 32.4511 1.34737 -1.29239 0
M  V30 346 C 32.8021 1.96109 0.0596908 0
M  V30 347 O 31.9271 1.93865 0.961534 0
M  V30 348 C 32.5221 2.44973 -2.34037 0
M  V30 349 C 31.0811 2.98372 -2.29458 0
M  V30 350 C 30.2281 1.71595 -2.17831 0
M  V30 351 H 33.1791 0.571256 -1.48062 0
M  V30 352 H 33.2001 3.24471 -1.98744 0
M  V30 353 H 32.7121 2.00276 -3.32432 0
M  V30 354 H 30.8131 3.47443 -1.34589 0
M  V30 355 H 30.9261 3.53939 -3.229 0
M  V30 356 H 29.2901 1.94547 -1.64388 0
M  V30 357 H 30.0731 1.29001 -3.18141 0
M  V30 358 N 32.5182 1.22032 0.997298 0
M  V30 359 C 33.4512 0.929735 2.08401 0
M  V30 360 C 34.4292 -0.125681 1.62114 0
M  V30 361 O 35.6132 0.00495409 1.88499 0
M  V30 362 C 32.7402 0.397488 3.3636 0
M  V30 363 C 31.7862 1.4369 4.01566 0
M  V30 364 S 32.6192 3.00874 4.42984 0
M  V30 365 C 33.7752 2.49276 5.74119 0
M  V30 366 H 34.0082 1.84998 2.32729 0
M  V30 367 H 31.5412 1.0509 1.13117 0
M  V30 368 H 33.4992 0.0969846 4.10385 0
M  V30 369 H 32.1602 -0.501571 3.10069 0
M  V30 370 H 31.3532 1.01427 4.93689 0
M  V30 371 H 30.9552 1.68588 3.33847 0
M  V30 372 H 33.2472 1.90242 6.50242 0
M  V30 373 H 34.1902 3.39872 6.21203 0
M  V30 374 H 34.5982 1.90714 5.31308 0
M  V30 375 N 33.9963 -1.19345 1.0293 0
M  V30 376 C 35.4073 -1.70725 0.755633 0
M  V30 377 C 35.7583 -1.82326 -0.724676 0
M  V30 378 O 34.8833 -1.49471 -1.56484 0
M  V30 379 C 35.4783 -3.10084 1.36503 0
M  V30 380 C 34.0373 -3.58723 1.13994 0
M  V30 381 C 33.1843 -2.35577 1.46283 0
M  V30 382 H 36.1353 -1.0418 1.19718 0
M  V30 383 H 36.1563 -3.72787 0.762217 0
M  V30 384 H 35.6683 -3.01609 2.44241 0
M  V30 385 H 33.7693 -3.72512 0.0807901 0
M  V30 386 H 33.8823 -4.42816 1.82894 0
M  V30 387 H 32.2463 -2.38935 0.88217 0
M  V30 388 H 33.0293 -2.29731 2.55105 0
M  V30 389 N 35.4744 -0.807222 -1.35358 0
M  V30 390 C 36.4224 -0.20614 -2.31685 0
M  V30 391 C 37.4164 0.644445 -1.56663 0
M  V30 392 O 38.6224 0.537538 -1.71786 0
M  V30 393 H 34.9974 -0.0479006 -0.750473 0
M  V30 394 H 36.9684 -1.03369 -2.79924 0
M  V30 395 C 35.7174 0.630212 -3.41941 0
M  V30 396 H 35.0404 -0.0149558 -3.99797 0
M  V30 397 H 36.4804 1.01716 -4.11619 0
M  V30 398 C 34.9394 1.79601 -2.85035 0
M  V30 399 O 35.4694 2.89351 -2.78637 0
M  V30 400 N 33.6754 1.60774 -2.42074 0
M  V30 401 H 33.2224 0.715009 -2.47478 0
M  V30 402 H 33.1804 2.38933 -2.04349 0
M  V30 403 N 36.9525 1.47285 -0.560781 0
M  V30 404 C 38.3635 1.86258 -0.128343 0
M  V30 405 C 38.7145 1.46699 1.30284 0
M  V30 406 O 37.8395 0.871698 1.98067 0
M  V30 407 C 38.4345 3.38044 -0.22614 0
M  V30 408 C 36.9935 3.76096 0.151283 0
M  V30 409 C 36.1405 2.71335 -0.572084 0
M  V30 410 H 39.0915 1.38752 -0.770297 0
M  V30 411 H 39.1125 3.76441 0.554322 0
M  V30 412 H 38.6245 3.66806 -1.26788 0
M  V30 413 H 36.7255 3.52951 1.19399 0
M  V30 414 H 36.8385 4.78641 -0.209765 0
M  V30 415 H 35.2025 2.54696 -0.0147653 0
M  V30 416 H 35.9855 3.02938 -1.61504 0
M  V30 417 N 38.4306 0.297415 1.54768 0
M  V30 418 C 39.6776 -0.312913 2.00068 0
M  V30 419 C 40.0056 -1.54171 1.18582 0
M  V30 420 O 39.2606 -1.94108 0.249133 0
M  V30 421 C 39.5596 -0.717561 3.50123 0
M  V30 422 C 39.2256 0.409095 4.4904 0
M  V30 423 C 37.8876 0.718399 4.75807 0
M  V30 424 C 40.2396 1.16717 5.07963 0
M  V30 425 C 37.5676 1.78896 5.5876 0
M  V30 426 C 39.9196 2.22762 5.92081 0
M  V30 427 C 38.5836 2.54303 6.1716 0
M  V30 428 H 37.8536 -0.114503 0.7321 0
M  V30 429 H 40.5006 0.415767 1.86932 0
M  V30 430 H 38.8056 -1.52627 3.60849 0
M  V30 431 H 40.5026 -1.20091 3.82595 0
M  V30 432 H 37.0926 0.157918 4.28309 0
M  V30 433 H 41.2766 0.941466 4.87289 0
M  V30 434 H 36.5326 2.0381 5.7643 0
M  V30 435 H 40.7066 2.81962 6.36765 0
M  V30 436 H 38.3336 3.3739 6.81229 0
M  V30 437 N 39.9087 -1.5758 0.0250728 0
M  V30 438 C 41.3197 -1.79476 -0.514323 0
M  V30 439 C 41.6707 -0.934956 -1.72491 0
M  V30 440 O 40.7957 -0.144245 -2.15919 0
M  V30 441 C 41.3907 -3.25503 -0.939842 0
M  V30 442 C 39.9497 -3.48408 -1.42438 0
M  V30 443 C 39.0967 -2.74583 -0.387201 0
M  V30 444 H 42.0477 -1.567 0.25113 0
M  V30 445 H 42.0687 -3.34992 -1.80445 0
M  V30 446 H 41.5807 -3.88056 -0.0585628 0
M  V30 447 H 39.6817 -2.91103 -2.32572 0
M  V30 448 H 39.7947 -4.57119 -1.43455 0
M  V30 449 H 38.1587 -2.39942 -0.854409 0
M  V30 450 H 38.9417 -3.39849 0.485543 0
M  V30 451 N 41.3868 0.248026 -1.55636 0
M  V30 452 C 42.7978 0.817177 -1.67866 0
M  V30 453 C 43.1488 1.86069 -0.622322 0
M  V30 454 O 42.2738 2.15157 0.231618 0
M  V30 455 C 42.8688 1.489 -3.04326 0
M  V30 456 C 41.4278 2.00587 -3.185 0
M  V30 457 C 40.5748 0.856573 -2.63739 0
M  V30 458 H 43.5258 0.0238579 -1.58682 0
M  V30 459 H 43.5468 2.35698 -2.98708 0
M  V30 460 H 43.0588 0.729279 -3.81186 0
M  V30 461 H 41.1598 2.79443 -2.4646 0
M  V30 462 H 41.2728 2.20402 -4.25393 0
M  V30 463 H 39.6368 1.25678 -2.21534 0
M  V30 464 H 40.4198 0.109953 -3.43124 0
M  V30 465 N 42.8649 1.48995 0.513639 0
M  V30 466 C 44.1119 1.57843 1.26854 0
M  V30 467 C 44.4399 0.259501 1.92761 0
M  V30 468 O 43.6949 -0.75159 1.80692 0
M  V30 469 C 43.9939 2.67756 2.36731 0
M  V30 470 C 43.6599 4.09669 1.88368 0
M  V30 471 C 42.3219 4.48291 1.74896 0
M  V30 472 C 44.6739 4.98537 1.52021 0
M  V30 473 C 42.0019 5.73568 1.23438 0
M  V30 474 C 44.3539 6.24319 1.0202 0
M  V30 475 C 43.0179 6.61783 0.871778 0
M  V30 476 H 42.2879 0.577587 0.464192 0
M  V30 477 H 44.9349 1.82778 0.571366 0
M  V30 478 H 43.2399 2.36743 3.12185 0
M  V30 479 H 44.9369 2.71813 2.9482 0
M  V30 480 H 41.5269 3.79176 1.99808 0
M  V30 481 H 45.7109 4.69363 1.61281 0
M  V30 482 H 40.9669 6.01304 1.10648 0
M  V30 483 H 45.1409 6.92566 0.729722 0
M  V30 484 H 42.7679 7.5874 0.470852 0
M  V30 485 N 44.343 -0.763751 1.37857 0
M  V30 486 C 45.759 -1.06542 1.18832 0
M  V30 487 C 45.959 -2.01478 0.0299722 0
M  V30 488 O 45.015 -2.4458 -0.627447 0
M  V30 489 C 46.328 -1.65525 2.51042 0
M  V30 490 C 47.876 -1.77745 2.57635 0
M  V30 491 C 48.351 -2.4014 3.89996 0
M  V30 492 N 49.842 -2.47582 3.91481 0
M  V30 493 C 50.577 -2.96732 4.9065 0
M  V30 494 N 50.073 -3.45993 6.00217 0
M  V30 495 N 51.866 -2.95679 4.78048 0
M  V30 496 H 44.017 -0.133556 2.1198 0
M  V30 497 H 46.28 -0.121879 0.940133 0
M  V30 498 H 45.986 -1.03236 3.36207 0
M  V30 499 H 45.86 -2.64719 2.68707 0
M  V30 500 H 48.247 -2.39164 1.72872 0
M  V30 501 H 48.328 -0.772836 2.43846 0
M  V30 502 H 47.972 -1.79358 4.75177 0
M  V30 503 H 47.902 -3.41223 4.01092 0
M  V30 504 H 50.393 -2.1273 3.12337 0
M  V30 505 H 50.706 -3.81922 6.7183 0
M  V30 506 H 49.051 -3.44077 6.03851 0
M  V30 507 H 52.242 -2.56499 3.91568 0
M  V30 508 H 52.415 -3.33672 5.55488 0
M  V30 509 N 45.8211 -1.22559 -0.990812 0
M  V30 510 C 47.0701 -1.04553 -1.72486 0
M  V30 511 C 47.3831 0.419349 -1.91052 0
M  V30 512 O 48.5891 0.719121 -2.61803 0
M  V30 513 C 47.0451 -1.82231 -3.10355 0
M  V30 514 C 46.6531 -3.32981 -2.99713 0
M  V30 515 C 48.3971 -1.7268 -3.87791 0
M  V30 516 C 46.3041 -4.03091 -4.32748 0
M  V30 517 H 45.2341 -0.387614 -0.646739 0
M  V30 518 H 47.8851 -1.46429 -1.10593 0
M  V30 519 H 46.2671 -1.33155 -3.72942 0
M  V30 520 H 47.4411 -3.89466 -2.46278 0
M  V30 521 H 45.7561 -3.43231 -2.35758 0
M  V30 522 H 48.3531 -2.22381 -4.86262 0
M  V30 523 H 48.6961 -0.687607 -4.10582 0
M  V30 524 H 49.2291 -2.1931 -3.31885 0
M  V30 525 H 45.9681 -5.07273 -4.15156 0
M  V30 526 H 45.4881 -3.51394 -4.86089 0
M  V30 527 H 47.1671 -4.08804 -5.01486 0
M  V30 528 N 47.2992 1.18797 -1.03562 0
M  V30 529 C 48.2622 2.20464 -0.626769 0
M  V30 530 C 49.2622 1.57721 0.313173 0
M  V30 531 O 50.4522 1.73917 0.0992615 0
M  V30 532 C 47.5842 3.40802 0.0818498 0
M  V30 533 H 48.7772 2.58149 -1.5264 0
M  V30 534 H 46.3302 1.32593 -0.827578 0
M  V30 535 H 47.0652 3.08642 0.995518 0
M  V30 536 H 46.8502 3.8758 -0.593652 0
M  V30 537 H 48.3402 4.16092 0.354584 0
M  V30 538 N 48.7773 0.814389 1.34928 0
M  V30 539 C 50.0253 0.397636 1.9815 0
M  V30 540 C 50.3463 -1.04069 1.64908 0
M  V30 541 O 49.6163 -1.72121 0.93548 0
M  V30 542 H 48.1963 0.144043 0.732981 0
M  V30 543 H 50.8583 1.04195 1.6471 0
M  V30 544 H 49.9543 0.509688 3.0791 0
M  V30 545 N 50.2554 -1.46986 0.568584 0
M  V30 546 C 51.2034 -2.31858 -0.185649 0
M  V30 547 C 52.1974 -1.43624 -0.898249 0
M  V30 548 O 53.4034 -1.60327 -0.818242 0
M  V30 549 H 49.7784 -0.747866 -0.0787399 0
M  V30 550 H 51.7494 -2.93303 0.549191 0
M  V30 551 C 50.4984 -3.26513 -1.19519 0
M  V30 552 H 49.8214 -3.94377 -0.656285 0
M  V30 553 H 51.2614 -3.88707 -1.6936 0
M  V30 554 C 49.7204 -2.50847 -2.24894 0
M  V30 555 O 50.2504 -2.26119 -3.32014 0
M  V30 556 N 48.4564 -2.11656 -1.99124 0
M  V30 557 H 48.0034 -2.31966 -1.12024 0
M  V30 558 H 47.9614 -1.61347 -2.69842 0
M  V30 559 N 51.7335 -0.305618 -1.54608 0
M  V30 560 C 52.6635 0.561482 -2.26649 0
M  V30 561 C 53.6445 1.13415 -1.26772 0
M  V30 562 O 54.8295 1.16262 -1.55553 0
M  V30 563 C 51.9595 1.73122 -3.01075 0
M  V30 564 C 50.9135 1.2887 -4.08138 0
M  V30 565 C 50.2395 2.54396 -4.70305 0
M  V30 566 C 51.5395 0.416578 -5.20636 0
M  V30 567 H 53.2335 -0.0393902 -2.99374 0
M  V30 568 H 50.7795 -0.020385 -1.43986 0
M  V30 569 H 52.7325 2.34396 -3.50195 0
M  V30 570 H 51.4565 2.3584 -2.25936 0
M  V30 571 H 50.1155 0.698991 -3.59875 0
M  V30 572 H 49.7635 3.15439 -3.918 0
M  V30 573 H 49.4635 2.25486 -5.42614 0
M  V30 574 H 50.9875 3.16464 -5.2219 0
M  V30 575 H 52.4015 0.935116 -5.65622 0
M  V30 576 H 50.7985 0.221046 -5.99693 0
M  V30 577 H 51.8685 -0.557162 -4.81688 0
M  V30 578 N 53.2116 1.57565 -0.0334293 0
M  V30 579 C 54.4416 1.95996 0.653398 0
M  V30 580 C 54.8496 0.908749 1.65947 0
M  V30 581 O 54.1926 -0.117471 1.83324 0
M  V30 582 C 54.2546 3.30589 1.41249 0
M  V30 583 C 53.9186 4.53503 0.564263 0
M  V30 584 C 54.9156 5.19647 -0.16225 0
M  V30 585 C 52.6006 4.99801 0.500398 0
M  V30 586 C 54.5946 6.30412 -0.941255 0
M  V30 587 C 52.2816 6.10448 -0.282308 0
M  V30 588 C 53.2796 6.75612 -1.00184 0
M  V30 589 O 52.9676 7.84134 -1.77171 0
M  V30 590 H 52.6996 0.65027 0.184728 0
M  V30 591 H 55.2536 2.05199 -0.0907841 0
M  V30 592 H 53.4836 3.17888 2.20191 0
M  V30 593 H 55.1726 3.53892 1.98784 0
M  V30 594 H 55.9386 4.84846 -0.12227 0
M  V30 595 H 51.8176 4.48883 1.05002 0
M  V30 596 H 55.3616 6.81208 -1.50339 0
M  V30 597 H 51.2586 6.44686 -0.323989 0
M  V30 598 H 52.0266 8.00822 -1.69194 0
M  V30 599 N 54.6897 -0.239769 1.55765 0
M  V30 600 C 55.9197 -0.982743 1.8173 0
M  V30 601 C 56.3277 -1.7917 0.607835 0
M  V30 602 O 55.6707 -1.78525 -0.432973 0
M  V30 603 C 55.7327 -1.96332 3.01155 0
M  V30 604 C 55.3967 -1.34062 4.36894 0
M  V30 605 C 56.3937 -0.739539 5.14613 0
M  V30 606 C 54.0787 -1.35784 4.83599 0
M  V30 607 C 56.0727 -0.163989 6.37189 0
M  V30 608 C 53.7597 -0.778441 6.06122 0
M  V30 609 C 54.7577 -0.182548 6.82756 0
M  V30 610 O 54.4457 0.387887 8.02964 0
M  V30 611 H 54.1777 -0.294481 0.608487 0
M  V30 612 H 56.7317 -0.26572 2.03674 0
M  V30 613 H 54.9617 -2.71884 2.74984 0
M  V30 614 H 56.6507 -2.57032 3.14149 0
M  V30 615 H 57.4167 -0.718687 4.79646 0
M  V30 616 H 53.2957 -1.81105 4.23936 0
M  V30 617 H 56.8397 0.301753 6.96947 0
M  V30 618 H 52.7367 -0.796645 6.40565 0
M  V30 619 H 53.5047 0.28044 8.18019 0
M  V30 620 N 56.1678 -1.49265 -0.50573 0
M  V30 621 C 57.4138 -1.58748 -1.26202 0
M  V30 622 C 57.7468 -0.271227 -1.92297 0
M  V30 623 O 57.0218 0.724831 -1.80489 0
M  V30 624 C 57.3048 -2.74332 -2.33268 0
M  V30 625 C 57.1578 -4.15737 -1.71705 0
M  V30 626 C 58.4768 -2.85576 -3.34865 0
M  V30 627 H 55.5958 -0.577826 -0.457478 0
M  V30 628 H 58.2378 -1.81532 -0.560897 0
M  V30 629 H 56.3878 -2.55036 -2.93068 0
M  V30 630 H 58.0598 -4.46537 -1.15769 0
M  V30 631 H 56.3028 -4.21605 -1.02135 0
M  V30 632 H 56.9738 -4.92477 -2.49341 0
M  V30 633 H 59.4498 -3.03127 -2.8505 0
M  V30 634 H 58.3258 -3.68135 -4.07146 0
M  V30 635 H 58.5868 -1.94732 -3.96903 0
M  V30 636 N 57.6459 0.756429 -1.3826 0
M  V30 637 C 58.8939 1.51248 -1.34047 0
M  V30 638 C 59.2149 1.94875 0.0698372 0
M  V30 639 O 58.4849 1.67436 1.01696 0
M  V30 640 H 57.0649 0.561018 -0.493222 0
M  V30 641 H 59.7269 0.899347 -1.7291 0
M  V30 642 H 58.8229 2.40472 -1.98947 0
M  V30 643 N 59.124 1.23083 0.984299 0
M  V30 644 C 60.352 1.08714 1.76037 0
M  V30 645 C 60.767 -0.361691 1.85303 0
M  V30 646 O 60.124 -1.25034 1.32939 0
M  V30 647 C 60.175 1.70206 3.18923 0
M  V30 648 O 59.896 3.09423 3.10144 0
M  V30 649 C 61.397 1.61227 4.12941 0
M  V30 650 H 58.617 0.380664 0.552572 0
M  V30 651 H 61.161 1.62853 1.23689 0
M  V30 652 H 59.316 1.20109 3.6831 0
M  V30 653 H 59.73 3.39188 4.00065 0
M  V30 654 H 61.204 2.08962 5.10919 0
M  V30 655 H 61.681 0.570375 4.35481 0
M  V30 656 H 62.287 2.10671 3.69456 0
M  V30 657 N 60.6021 -1.18246 1.0419 0
M  V30 658 C 61.8791 -1.84121 0.660208 0
M  V30 659 C 62.2591 -1.92778 -0.860221 0
M  V30 660 O 61.6071 -1.45464 -1.76217 0
M  V30 661 C 61.8171 -3.22355 1.33747 0
M  V30 662 C 63.1651 -3.98376 1.46906 0
M  V30 663 O 64.1891 -3.31799 1.29568 0
M  V30 664 O 63.0481 -5.17665 1.75171 0
M  V30 665 H 60.1421 -0.794036 0.231161 0
M  V30 666 H 62.6881 -1.25628 1.14087 0
M  V30 667 H 61.4601 -3.10964 2.37522 0
M  V30 668 H 61.0831 -3.88506 0.845515 0
M  V30 669 N 62.0802 -0.821533 -1.34494 0
M  V30 670 C 63.3572 -0.33159 -1.92769 0
M  V30 671 C 63.7372 1.18088 -1.74981 0
M  V30 672 O 63.0852 1.98733 -1.12772 0
M  V30 673 C 63.2952 -0.759398 -3.40638 0
M  V30 674 C 64.6432 -0.757433 -4.1779 0
M  V30 675 O 65.6672 -0.70189 -3.49216 0
M  V30 676 O 64.5262 -0.829361 -5.4017 0
M  V30 677 H 61.6202 -0.0902502 -0.822061 0
M  V30 678 H 64.1662 -0.906231 -1.43477 0
M  V30 679 H 62.9382 -1.8012 -3.47379 0
M  V30 680 H 62.5612 -0.160378 -3.97276 0
M  V30 681 N 63.5583 1.46682 -0.576371 0
M  V30 682 C 64.4883 2.33028 0.148397 0
M  V30 683 C 65.4693 1.44961 0.889956 0
M  V30 684 O 66.6543 1.73789 0.866662 0
M  V30 685 C 63.7843 3.27117 1.1667 0
M  V30 686 C 62.7383 4.24575 0.540386 0
M  V30 687 C 62.0643 5.08126 1.6647 0
M  V30 688 C 63.3643 5.19722 -0.518331 0
M  V30 689 H 65.0583 2.93875 -0.572509 0
M  V30 690 H 62.6043 1.41315 -0.276768 0
M  V30 691 H 64.5573 3.86374 1.68204 0
M  V30 692 H 63.2813 2.64364 1.9178 0
M  V30 693 H 61.9403 3.66571 0.0461769 0
M  V30 694 H 61.5883 4.41762 2.40531 0
M  V30 695 H 61.2883 5.74122 1.25131 0
M  V30 696 H 62.8123 5.70246 2.18293 0
M  V30 697 H 64.2263 5.73232 -0.0883058 0
M  V30 698 H 62.6233 5.94026 -0.851679 0
M  V30 699 H 63.6933 4.64037 -1.40703 0
M  V30 700 N 65.0364 0.313813 1.54444 0
M  V30 701 C 65.9994 -0.54379 2.22656 0
M  V30 702 C 66.9994 -1.05124 1.21678 0
M  V30 703 O 68.1894 -0.945225 1.46325 0
M  V30 704 C 65.3214 -1.75427 2.92298 0
M  V30 705 H 66.5144 0.0523599 2.99854 0
M  V30 706 H 64.0674 0.0647834 1.56166 0
M  V30 707 H 64.8024 -2.38991 2.19211 0
M  V30 708 H 64.5874 -1.39791 3.66334 0
M  V30 709 H 66.0774 -2.36325 3.44297 0
M  V30 710 N 66.5145 -1.57545 0.0417849 0
M  V30 711 C 67.7395 -1.97035 -0.647455 0
M  V30 712 C 68.1645 -0.918775 -1.64135 0
M  V30 713 O 67.5225 0.119006 -1.80909 0
M  V30 714 C 67.5705 -3.35609 -1.31905 0
M  V30 715 O 66.6745 -3.3287 -2.43457 0
M  V30 716 H 66.0155 -0.64211 -0.169086 0
M  V30 717 H 68.5455 -2.04318 0.107399 0
M  V30 718 H 68.5555 -3.72126 -1.67291 0
M  V30 719 H 67.2305 -4.11685 -0.590586 0
M  V30 720 H 65.8075 -3.08087 -2.10088 0
M  V30 721 N 67.9926 0.231505 -1.5589 0
M  V30 722 C 69.2226 0.973092 -1.82248 0
M  V30 723 C 69.6306 1.78845 -0.617328 0
M  V30 724 O 68.9736 1.78752 0.423499 0
M  V30 725 C 69.0356 1.94732 -3.02192 0
M  V30 726 C 68.6996 1.31743 -4.37599 0
M  V30 727 C 69.6966 0.712238 -5.14998 0
M  V30 728 C 67.3816 1.33218 -4.84312 0
M  V30 729 C 69.3756 0.130195 -6.37267 0
M  V30 730 C 67.0626 0.746286 -6.06526 0
M  V30 731 C 68.0606 0.146337 -6.82843 0
M  V30 732 O 67.7486 -0.430465 -8.02747 0
M  V30 733 H 67.4806 0.29125 -0.61004 0
M  V30 734 H 70.0346 0.254915 -2.03812 0
M  V30 735 H 68.2646 2.70422 -2.76422 0
M  V30 736 H 69.9536 2.55362 -3.15508 0
M  V30 737 H 70.7196 0.69324 -4.8002 0
M  V30 738 H 66.5986 1.78854 -4.24891 0
M  V30 739 H 70.1426 -0.33871 -6.96777 0
M  V30 740 H 66.0396 0.762663 -6.40979 0
M  V30 741 H 66.8076 -0.323818 -8.17859 0
M  V30 742 N 69.4707 1.49531 0.497807 0
M  V30 743 C 70.4007 1.6935 1.60757 0
M  V30 744 C 71.3817 0.542218 1.61227 0
M  V30 745 O 72.5667 0.778417 1.77917 0
M  V30 746 C 69.6967 1.76298 2.99226 0
M  V30 747 C 68.6507 2.91248 3.13622 0
M  V30 748 C 67.9767 2.83312 4.53474 0
M  V30 749 C 69.2767 4.3214 2.93346 0
M  V30 750 H 70.9707 2.62263 1.44425 0
M  V30 751 H 68.5167 1.26208 0.693367 0
M  V30 752 H 70.4697 1.88749 3.76765 0
M  V30 753 H 69.1937 0.799871 3.16654 0
M  V30 754 H 67.8527 2.78404 2.38509 0
M  V30 755 H 67.5007 1.84902 4.67782 0
M  V30 756 H 67.2007 3.60465 4.64046 0
M  V30 757 H 68.7247 2.97775 5.33069 0
M  V30 758 H 70.1387 4.45649 3.60652 0
M  V30 759 H 68.5357 5.1054 3.15387 0
M  V30 760 H 69.6057 4.46363 1.89441 0
M  V30 761 N 70.9488 -0.749086 1.3866 0
M  V30 762 C 72.1978 -1.50371 1.3443 0
M  V30 763 C 72.5108 -1.95503 -0.0616397 0
M  V30 764 O 73.7168 -2.70554 -0.226489 0
M  V30 765 C 72.1728 -2.71644 2.36088 0
M  V30 766 C 71.7808 -2.3352 3.82325 0
M  V30 767 C 73.5248 -3.49518 2.40909 0
M  V30 768 C 71.4318 -3.51431 4.75658 0
M  V30 769 H 70.3618 -0.564628 0.499712 0
M  V30 770 H 73.0128 -0.818449 1.64237 0
M  V30 771 H 71.3948 -3.42175 1.9933 0
M  V30 772 H 72.5688 -1.70627 4.28046 0
M  V30 773 H 70.8838 -1.6877 3.80665 0
M  V30 774 H 73.4808 -4.37197 3.07836 0
M  V30 775 H 73.8238 -3.90992 1.42937 0
M  V30 776 H 74.3568 -2.86005 2.76489 0
M  V30 777 H 71.0958 -3.15019 5.74842 0
M  V30 778 H 70.6158 -4.13352 4.34627 0
M  V30 779 H 72.2948 -4.17953 4.93887 0
M  V30 780 N 72.4269 -1.23603 -0.977757 0
M  V30 781 C 73.6729 -1.07129 -1.72195 0
M  V30 782 C 74.0059 0.390501 -1.90233 0
M  V30 783 O 73.2809 1.28902 -1.45653 0
M  V30 784 C 73.5639 -1.80031 -3.11867 0
M  V30 785 C 73.4169 -3.33899 -3.01383 0
M  V30 786 C 74.7359 -1.56492 -4.11337 0
M  V30 787 H 71.8549 -0.390571 -0.624999 0
M  V30 788 H 74.4969 -1.52142 -1.13811 0
M  V30 789 H 72.6469 -1.41768 -3.6171 0
M  V30 790 H 74.3189 -3.81699 -2.59043 0
M  V30 791 H 72.5619 -3.62796 -2.37827 0
M  V30 792 H 73.2329 -3.801 -4.00285 0
M  V30 793 H 75.7089 -1.89757 -3.70313 0
M  V30 794 H 74.5849 -2.09973 -5.07151 0
M  V30 795 H 74.8459 -0.500874 -4.39254 0
M  V30 796 N 73.905 1.17692 -1.04816 0
M  V30 797 C 75.133 1.91786 -0.776254 0
M  V30 798 C 75.548 1.76604 0.667577 0
M  V30 799 O 74.905 1.10067 1.45573 0
M  V30 800 C 74.956 3.42967 -1.14263 0
M  V30 801 O 74.677 3.57678 -2.52978 0
M  V30 802 C 76.178 4.34144 -0.896311 0
M  V30 803 H 73.398 0.608624 -0.282519 0
M  V30 804 H 75.942 1.49268 -1.39783 0
M  V30 805 H 74.097 3.83245 -0.565874 0
M  V30 806 H 74.511 4.51319 -2.67229 0
M  V30 807 H 75.985 5.38744 -1.20244 0
M  V30 808 H 76.462 4.38876 0.168636 0
M  V30 809 H 77.068 3.99574 -1.45672 0
M  V30 810 N 75.3831 0.828654 1.34056 0
M  V30 811 C 76.7941 0.477534 1.8049 0
M  V30 812 C 77.1451 -1.00258 1.6865 0
M  V30 813 O 76.2701 -1.78057 1.22982 0
M  V30 814 C 76.8651 0.860018 3.27703 0
M  V30 815 C 75.4241 0.561185 3.72193 0
M  V30 816 C 74.5711 1.07385 2.55663 0
M  V30 817 H 77.5221 1.0183 1.21722 0
M  V30 818 H 77.5431 0.166038 3.80138 0
M  V30 819 H 77.0551 1.93731 3.36288 0
M  V30 820 H 75.1561 -0.506465 3.69142 0
M  V30 821 H 75.2691 1.10926 4.66082 0
M  V30 822 H 73.6331 0.495149 2.49841 0
M  V30 823 H 74.4161 2.15771 2.67016 0
M  V30 824 N 76.8612 -1.46375 0.584142 0
M  V30 825 C 78.2772 -1.57694 0.245929 0
M  V30 826 C 78.4772 -1.57903 -1.25175 0
M  V30 827 O 77.5332 -1.49676 -2.03355 0
M  V30 828 C 78.8462 -2.87028 0.896402 0
M  V30 829 C 80.3942 -3.00662 0.870127 0
M  V30 830 C 80.8692 -4.32734 1.50017 0
M  V30 831 N 82.3602 -4.39436 1.46458 0
M  V30 832 C 83.0952 -5.40248 1.92144 0
M  V30 833 N 82.5912 -6.47726 2.4581 0
M  V30 834 N 84.3842 -5.31459 1.83052 0
M  V30 835 H 76.5352 -1.44483 1.55687 0
M  V30 836 H 78.7982 -0.689291 0.650831 0
M  V30 837 H 78.5042 -2.9269 1.95002 0
M  V30 838 H 78.3782 -3.75014 0.405486 0
M  V30 839 H 80.7652 -2.94581 -0.174871 0
M  V30 840 H 80.8462 -2.14148 1.39908 0
M  V30 841 H 80.4902 -4.39573 2.54437 0
M  V30 842 H 80.4202 -5.18025 0.946432 0
M  V30 843 H 82.9112 -3.62367 1.07231 0
M  V30 844 H 83.2242 -7.20863 2.78525 0
M  V30 845 H 81.5692 -6.48542 2.49836 0
M  V30 846 H 84.7602 -4.46396 1.40883 0
M  V30 847 H 84.9332 -6.09881 2.18973 0
M  V30 848 N 78.3393 -0.321999 -1.54275 0
M  V30 849 C 79.5873 0.280489 -2.00144 0
M  V30 850 C 79.9083 1.52777 -1.21178 0
M  V30 851 O 79.1783 1.9338 -0.313187 0
M  V30 852 H 77.7583 0.106632 -0.73935 0
M  V30 853 H 80.4203 -0.438184 -1.8991 0
M  V30 854 H 79.5163 0.537972 -3.07428 0
M  V30 855 N 79.8174 1.5752 -0.0501392 0
M  V30 856 C 80.7654 2.12651 0.942459 0
M  V30 857 C 81.7594 1.05807 1.32292 0
M  V30 858 O 82.9654 1.24217 1.3027 0
M  V30 859 H 79.3404 0.679673 0.321789 0
M  V30 860 H 81.3114 2.94951 0.452356 0
M  V30 861 C 80.0604 2.68565 2.20836 0
M  V30 862 H 79.3834 3.50439 1.92439 0
M  V30 863 H 80.8234 3.10761 2.8845 0
M  V30 864 C 79.2824 1.62291 2.95234 0
M  V30 865 O 79.8124 1.03508 3.88135 0
M  V30 866 N 78.0184 1.33836 2.57946 0
M  V30 867 H 77.5654 1.81826 1.82475 0
M  V30 868 H 77.5234 0.629595 3.08032 0
M  V30 869 N 81.2955 -0.223234 1.56011 0
M  V30 870 C 82.5445 -0.945912 1.78144 0
M  V30 871 C 82.8575 -1.85567 0.618396 0
M  V30 872 O 84.0635 -2.61688 0.723318 0
M  V30 873 C 82.5195 -1.73216 3.15475 0
M  V30 874 C 82.1275 -0.868619 4.39499 0
M  V30 875 C 83.8715 -2.44615 3.46935 0
M  V30 876 C 81.7785 -1.65212 5.67855 0
M  V30 877 H 80.7085 -0.356929 0.664167 0
M  V30 878 H 83.3595 -0.199845 1.82409 0
M  V30 879 H 81.7415 -2.52107 3.05382 0
M  V30 880 H 82.9155 -0.120366 4.60643 0
M  V30 881 H 81.2305 -0.26683 4.15544 0
M  V30 882 H 83.8275 -3.03732 4.40058 0
M  V30 883 H 84.1705 -3.17417 2.69355 0
M  V30 884 H 84.7035 -1.72715 3.58349 0
M  V30 885 H 81.4425 -0.967407 6.48322 0
M  V30 886 H 80.9625 -2.37503 5.50774 0
M  V30 887 H 82.6415 -2.21322 6.07968 0
M  V30 888 N 82.7736 -1.49793 -0.48987 0
M  V30 889 C 83.7036 -1.70201 -1.59856 0
M  V30 890 C 84.6846 -0.55076 -1.60937 0
M  V30 891 O 85.8696 -0.787841 -1.77501 0
M  V30 892 C 82.9996 -1.77882 -2.98287 0
M  V30 893 C 81.9536 -2.92907 -3.12073 0
M  V30 894 C 81.2796 -2.85712 -4.51965 0
M  V30 895 C 82.5796 -4.3369 -2.91051 0
M  V30 896 H 84.2736 -2.63025 -1.43032 0
M  V30 897 H 81.8196 -1.26574 -0.686664 0
M  V30 898 H 83.7726 -1.90744 -3.75759 0
M  V30 899 H 82.4966 -0.816653 -3.16225 0
M  V30 900 H 81.1556 -2.79665 -2.37029 0
M  V30 901 H 80.8036 -1.8738 -4.66795 0
M  V30 902 H 80.5036 -3.62921 -4.62128 0
M  V30 903 H 82.0276 -3.00598 -5.31482 0
M  V30 904 H 83.4416 -4.47555 -3.58284 0
M  V30 905 H 81.8386 -5.12205 -3.12675 0
M  V30 906 H 82.9086 -4.47362 -1.87071 0
M  V30 907 N 84.2517 0.741722 -1.39055 0
M  V30 908 C 85.5007 1.49656 -1.35225 0
M  V30 909 C 85.8137 1.95533 0.0512708 0
M  V30 910 O 87.0197 2.7067 0.212138 0
M  V30 911 C 85.4757 2.70389 -2.37525 0
M  V30 912 C 85.0837 2.31489 -3.83558 0
M  V30 913 C 86.8277 3.48236 -2.42759 0
M  V30 914 C 84.7347 3.48903 -4.77515 0
M  V30 915 H 83.6647 0.56197 -0.502699 0
M  V30 916 H 86.3157 0.809727 -1.64668 0
M  V30 917 H 84.6977 3.41113 -2.01142 0
M  V30 918 H 85.8717 1.68354 -4.28945 0
M  V30 919 H 84.1867 1.66749 -3.81554 0
M  V30 920 H 86.7837 4.35558 -3.1015 0
M  V30 921 H 87.1267 3.90229 -1.45008 0
M  V30 922 H 87.6597 2.84535 -2.78002 0
M  V30 923 H 84.3987 3.11966 -5.76504 0
M  V30 924 H 83.9187 4.11041 -4.36813 0
M  V30 925 H 85.5977 4.15328 -4.96096 0
M  V30 926 N 85.7298 1.2412 0.971189 0
M  V30 927 C 86.6778 1.02812 2.08644 0
M  V30 928 C 87.6718 -0.0358403 1.69362 0
M  V30 929 O 88.8778 0.118429 1.7961 0
M  V30 930 H 85.2528 0.315428 0.682649 0
M  V30 931 H 87.2238 1.97397 2.23779 0
M  V30 932 C 85.9728 0.645874 3.41649 0
M  V30 933 H 85.2958 1.45632 3.72332 0
M  V30 934 H 86.7358 0.536366 4.20594 0
M  V30 935 C 85.1948 -0.646713 3.30635 0
M  V30 936 O 85.7248 -1.69338 3.64263 0
M  V30 937 N 83.9308 -0.626115 2.83775 0
M  V30 938 H 83.4778 0.225988 2.56607 0
M  V30 939 H 83.4358 -1.49117 2.76788 0
M  V30 940 N 87.2079 -1.17134 1.05439 0
M  V30 941 C 88.4329 -1.91913 0.786396 0
M  V30 942 C 88.8579 -1.7643 -0.652234 0
M  V30 943 O 88.2159 -1.08372 -1.45345 0
M  V30 944 C 88.2639 -3.40921 1.17497 0
M  V30 945 O 87.3679 -4.11244 0.308589 0
M  V30 946 H 86.7089 -0.598215 0.288158 0
M  V30 947 H 89.2389 -1.48457 1.4079 0
M  V30 948 H 89.2489 -3.91668 1.14281 0
M  V30 949 H 87.9239 -3.5151 2.22292 0
M  V30 950 H 86.5009 -3.70731 0.40157 0
M  V30 951 N 88.686 -0.835752 -1.33615 0
M  V30 952 C 89.963 -0.352017 -1.92406 0
M  V30 953 C 90.343 1.16225 -1.76224 0
M  V30 954 O 89.691 1.97526 -1.14873 0
M  V30 955 C 89.901 -0.795485 -3.39813 0
M  V30 956 C 91.249 -0.801703 -4.16963 0
M  V30 957 O 92.273 -0.738889 -3.48452 0
M  V30 958 O 91.132 -0.886607 -5.3926 0
M  V30 959 H 88.226 -0.0989641 -0.821057 0
M  V30 960 H 90.772 -0.921397 -1.42507 0
M  V30 961 H 89.544 -1.83795 -3.45449 0
M  V30 962 H 89.167 -0.202505 -3.97084 0
M  V30 963 N 90.1641 1.46063 -0.591896 0
M  V30 964 C 91.0941 2.33172 0.123673 0
M  V30 965 C 92.0751 1.45897 0.87453 0
M  V30 966 O 93.2601 1.74698 0.848181 0
M  V30 967 C 90.3901 3.28336 1.13194 0
M  V30 968 C 89.3441 4.25124 0.495324 0
M  V30 969 C 88.6701 5.09863 1.61071 0
M  V30 970 C 89.9701 5.19143 -0.573425 0
M  V30 971 H 91.6641 2.93252 -0.603646 0
M  V30 972 H 89.2101 1.41014 -0.291741 0
M  V30 973 H 91.1631 3.88137 1.64097 0
M  V30 974 H 89.8871 2.66383 1.88965 0
M  V30 975 H 88.5461 3.66599 0.00729452 0
M  V30 976 H 88.1941 4.44288 2.35832 0
M  V30 977 H 87.8941 5.75417 1.19035 0
M  V30 978 H 89.4181 5.72529 2.12233 0
M  V30 979 H 90.8321 5.73106 -0.1491 0
M  V30 980 H 89.2291 5.93089 -0.914636 0
M  V30 981 H 90.2991 4.62519 -1.45617 0
M  V30 982 N 91.6422 0.330177 1.54103 0
M  V30 983 C 92.5522 -0.541534 2.28264 0
M  V30 984 C 93.5682 -1.12351 1.32866 0
M  V30 985 O 94.7442 -1.14206 1.65888 0
M  V30 986 C 91.8092 -1.68322 3.03098 0
M  V30 987 C 90.8702 -1.13238 4.14096 0
M  V30 988 C 90.1032 -2.21966 4.85352 0
M  V30 989 O 90.3262 -3.42437 4.56172 0
M  V30 990 O 89.2602 -1.87013 5.7211 0
M  V30 991 H 93.0862 0.060938 3.03639 0
M  V30 992 H 90.6712 0.09565 1.49093 0
M  V30 993 H 92.5532 -2.34777 3.49939 0
M  V30 994 H 91.2282 -2.27176 2.30593 0
M  V30 995 H 90.1352 -0.432736 3.71589 0
M  V30 996 H 91.4682 -0.588898 4.88664 0
M  V30 997 N 93.1203 -1.57491 0.0584922 0
M  V30 998 C 94.0833 -2.1085 -0.898617 0
M  V30 999 C 95.0833 -1.02964 -1.23511 0
M  V30 1000 O 96.2733 -1.29007 -1.17059 0
M  V30 1001 C 93.4053 -2.59881 -2.20623 0
M  V30 1002 H 94.5983 -2.96715 -0.435936 0
M  V30 1003 H 92.1513 -1.55141 -0.190023 0
M  V30 1004 H 92.8863 -1.77431 -2.71457 0
M  V30 1005 H 92.6713 -3.38727 -1.97501 0
M  V30 1006 H 94.1613 -3.01285 -2.89166 0
M  V30 1007 N 94.5984 0.214957 -1.56127 0
M  V30 1008 C 95.5464 1.28601 -1.93816 0
M  V30 1009 C 96.5404 1.48175 -0.821016 0
M  V30 1010 O 97.7464 1.49271 -1.0059 0
M  V30 1011 H 94.1214 0.431302 -0.616022 0
M  V30 1012 H 96.0924 0.940991 -2.83175 0
M  V30 1013 C 94.8414 2.62779 -2.27689 0
M  V30 1014 H 94.1644 2.48527 -3.13168 0
M  V30 1015 H 95.6044 3.36517 -2.57939 0
M  V30 1016 C 94.0634 3.18285 -1.10436 0
M  V30 1017 O 94.5934 4.00002 -0.368945 0
M  V30 1018 N 92.7994 2.7675 -0.886433 0
M  V30 1019 H 92.3464 2.10404 -1.48619 0
M  V30 1020 H 92.3044 3.14229 -0.103656 0
M  V30 1021 N 96.0765 1.50051 0.48192 0
M  V30 1022 C 97.3225 1.60736 1.2366 0
M  V30 1023 C 97.6555 0.301786 1.91841 0
M  V30 1024 O 96.9305 -0.696025 1.8162 0
M  V30 1025 C 97.2135 2.78009 2.28874 0
M  V30 1026 C 97.0665 4.18416 1.65069 0
M  V30 1027 C 98.3855 2.90867 3.30279 0
M  V30 1028 H 95.5045 0.585031 0.448228 0
M  V30 1029 H 98.1465 1.82402 0.531946 0
M  V30 1030 H 96.2965 2.59667 2.88973 0
M  V30 1031 H 97.9685 4.48322 1.0865 0
M  V30 1032 H 96.2115 4.23177 0.954148 0
M  V30 1033 H 96.8825 4.96381 2.41474 0
M  V30 1034 H 99.3585 3.07623 2.80191 0
M  V30 1035 H 98.2345 3.74566 4.01238 0
M  V30 1036 H 98.4955 2.01021 3.93755 0
M  V30 1037 N 97.5546 -0.734337 1.39446 0
M  V30 1038 C 98.9656 -1.31264 1.32766 0
M  V30 1039 C 99.3166 -1.96198 -0.00767497 0
M  V30 1040 O 98.4416 -1.96346 -0.909796 0
M  V30 1041 C 99.0366 -2.38682 2.4045 0
M  V30 1042 C 97.5956 -2.92184 2.37288 0
M  V30 1043 C 96.7426 -1.6576 2.22304 0
M  V30 1044 H 99.6936 -0.531799 1.49525 0
M  V30 1045 H 99.7146 -3.19087 2.07276 0
M  V30 1046 H 99.2266 -1.91392 3.37625 0
M  V30 1047 H 97.3276 -3.43752 1.43754 0
M  V30 1048 H 97.4406 -3.45253 3.3217 0
M  V30 1049 H 95.8046 -1.9012 1.69489 0
M  V30 1050 H 96.5876 -1.20521 3.21449 0
M  V30 1051 N 99.0327 -1.24633 -0.964593 0
M  V30 1052 C 99.9657 -0.984662 -2.05863 0
M  V30 1053 C 100.944 0.0826554 -1.6239 0
M  V30 1054 O 102.128 -0.0549296 -1.8842 0
M  V30 1055 C 99.2547 -0.486529 -3.35187 0
M  V30 1056 C 98.3007 -1.54286 -3.97615 0
M  V30 1057 S 99.1337 -3.12513 -4.34851 0
M  V30 1058 C 100.29 -2.6441 -5.67308 0
M  V30 1059 H 100.523 -1.91104 -2.27743 0
M  V30 1060 H 98.0557 -1.08052 -1.10291 0
M  V30 1061 H 100.014 -0.205757 -4.09984 0
M  V30 1062 H 98.6747 0.419186 -3.1129 0
M  V30 1063 H 97.8677 -1.14481 -4.90826 0
M  V30 1064 H 97.4697 -1.7738 -3.2926 0
M  V30 1065 H 99.7617 -2.07416 -6.44969 0
M  V30 1066 H 100.705 -3.56222 -6.11973 0
M  V30 1067 H 101.113 -2.04734 -5.26065 0
M  V30 1068 N 100.511 1.16574 -1.06058 0
M  V30 1069 C 101.76 1.86385 -0.770944 0
M  V30 1070 C 102.073 1.82448 0.705129 0
M  V30 1071 O 103.279 2.47815 1.10905 0
M  V30 1072 C 101.735 3.34466 -1.32893 0
M  V30 1073 C 101.343 3.46883 -2.83507 0
M  V30 1074 C 103.087 4.09548 -1.11672 0
M  V30 1075 C 100.994 4.89036 -3.32562 0
M  V30 1076 H 99.9238 0.698181 -0.284709 0
M  V30 1077 H 102.575 1.31583 -1.27899 0
M  V30 1078 H 100.957 3.88859 -0.748662 0
M  V30 1079 H 102.131 3.02663 -3.47465 0
M  V30 1080 H 100.446 2.85232 -3.03368 0
M  V30 1081 H 103.043 5.14434 -1.45814 0
M  V30 1082 H 103.386 4.16264 -0.0549535 0
M  V30 1083 H 103.919 3.61387 -1.66265 0
M  V30 1084 H 100.658 4.87499 -4.38207 0
M  V30 1085 H 100.178 5.3389 -2.73351 0
M  V30 1086 H 101.857 5.57843 -3.2775 0
M  V30 1087 N 101.989 0.842826 1.3317 0
M  V30 1088 C 102.936 0.276885 2.29133 0
M  V30 1089 C 103.906 -0.609527 1.54512 0
M  V30 1090 O 105.091 -0.546955 1.82792 0
M  V30 1091 C 102.231 -0.538707 3.40869 0
M  V30 1092 C 101.344 0.372169 4.30394 0
M  V30 1093 C 100.479 -0.454908 5.29249 0
M  V30 1094 C 99.5179 0.45411 6.10413 0
M  V30 1095 N 98.6549 -0.335075 7.013 0
M  V30 1096 H 103.495 1.10052 2.76934 0
M  V30 1097 H 101.032 0.554161 1.36262 0
M  V30 1098 H 102.99 -1.02709 4.0436 0
M  V30 1099 H 101.62 -1.32727 2.9425 0
M  V30 1100 H 100.672 0.97888 3.6759 0
M  V30 1101 H 101.984 1.0703 4.87182 0
M  V30 1102 H 101.138 -1.00695 5.98285 0
M  V30 1103 H 99.8769 -1.18646 4.73048 0
M  V30 1104 H 98.8819 1.01813 5.40291 0
M  V30 1105 H 100.107 1.18409 6.68697 0
M  V30 1106 H 98.0529 -1.04994 6.47543 0
M  V30 1107 H 97.9699 0.304262 7.55387 0
M  V30 1108 H 99.2379 -0.869224 7.74638 0
M  V30 1109 N 103.467 -1.45747 0.599634 0
M  V30 1110 C 104.43 -2.28917 -0.113835 0
M  V30 1111 C 105.43 -1.3933 -0.802729 0
M  V30 1112 O 106.62 -1.61534 -0.652103 0
M  V30 1113 C 103.752 -3.20152 -1.17114 0
M  V30 1114 H 104.945 -2.93478 0.617289 0
M  V30 1115 H 102.498 -1.52137 0.358327 0
M  V30 1116 H 103.233 -2.60374 -1.93329 0
M  V30 1117 H 103.018 -3.86133 -0.681468 0
M  V30 1118 H 104.508 -3.82708 -1.67105 0
M  V30 1119 N 104.945 -0.338344 -1.53925 0
M  V30 1120 C 106.17 0.263987 -2.05713 0
M  V30 1121 C 106.595 1.43847 -1.21201 0
M  V30 1122 O 105.953 1.79904 -0.224535 0
M  V30 1123 C 106.001 0.662 -3.54471 0
M  V30 1124 O 105.105 1.76265 -3.72833 0
M  V30 1125 H 104.446 0.0448722 -0.662482 0
M  V30 1126 H 106.976 -0.491048 -1.9862 0
M  V30 1127 H 106.986 0.940594 -3.9701 0
M  V30 1128 H 105.661 -0.196937 -4.15433 0
M  V30 1129 H 104.238 1.48173 -3.42198 0
M  V30 1130 N 106.423 1.57458 -0.0668435 0
M  V30 1131 C 107.672 1.92477 0.602947 0
M  V30 1132 C 107.985 0.948419 1.71068 0
M  V30 1133 O 109.191 1.19124 2.43971 0
M  V30 1134 C 107.647 3.41903 1.12383 0
M  V30 1135 C 107.255 4.47975 0.04737 0
M  V30 1136 C 108.999 3.85931 1.76797 0
M  V30 1137 C 106.906 5.88529 0.582022 0
M  V30 1138 H 105.836 0.718387 0.22899 0
M  V30 1139 H 108.487 1.82978 -0.138276 0
M  V30 1140 H 106.869 3.46459 1.91787 0
M  V30 1141 H 108.043 4.55029 -0.726978 0
M  V30 1142 H 106.358 4.13384 -0.500243 0
M  V30 1143 H 108.955 4.88322 2.17821 0
M  V30 1144 H 109.298 3.23029 2.62599 0
M  V30 1145 H 109.831 3.83958 1.04024 0
M  V30 1146 H 106.57 6.55065 -0.238721 0
M  V30 1147 H 106.09 5.85004 1.324 0
M  V30 1148 H 107.769 6.38258 1.05999 0
M  V30 1149 N 107.901 -0.206675 1.56239 0
M  V30 1150 C 108.848 -1.25617 1.93621 0
M  V30 1151 C 109.818 -1.45824 0.795274 0
M  V30 1152 O 111.003 -1.59148 1.05245 0
M  V30 1153 C 108.143 -2.59839 2.27107 0
M  V30 1154 C 107.256 -2.47308 3.54207 0
M  V30 1155 C 106.391 -3.74155 3.7707 0
M  V30 1156 C 105.43 -3.56407 4.97635 0
M  V30 1157 N 104.567 -4.75238 5.1681 0
M  V30 1158 H 109.407 -0.930383 2.83104 0
M  V30 1159 H 106.944 -0.448065 1.4011 0
M  V30 1160 H 108.902 -3.38021 2.44535 0
M  V30 1161 H 107.532 -2.90485 1.40778 0
M  V30 1162 H 106.584 -1.60483 3.4489 0
M  V30 1163 H 107.896 -2.30122 4.42544 0
M  V30 1164 H 107.05 -4.60778 3.94675 0
M  V30 1165 H 105.789 -3.94282 2.87042 0
M  V30 1166 H 104.794 -2.68168 4.79964 0
M  V30 1167 H 106.019 -3.37736 5.89161 0
M  V30 1168 H 103.965 -4.95651 4.29728 0
M  V30 1169 H 103.882 -4.60835 5.99306 0
M  V30 1170 H 105.15 -5.63246 5.38864 0
M  V30 1171 N 109.379 -1.50304 -0.473955 0
M  V30 1172 C 110.326 -1.68959 -1.57231 0
M  V30 1173 C 111.296 -0.530899 -1.57387 0
M  V30 1174 O 112.481 -0.761133 -1.74961 0
M  V30 1175 C 109.621 -1.7871 -2.95223 0
M  V30 1176 C 108.734 -3.06061 -3.04878 0
M  V30 1177 C 107.869 -3.06626 -4.33767 0
M  V30 1178 C 106.908 -4.28443 -4.37154 0
M  V30 1179 N 106.045 -4.26763 -5.5751 0
M  V30 1180 H 110.885 -2.6273 -1.40631 0
M  V30 1181 H 108.422 -1.30241 -0.683789 0
M  V30 1182 H 110.38 -1.82344 -3.75242 0
M  V30 1183 H 109.01 -0.883806 -3.10465 0
M  V30 1184 H 108.062 -3.11911 -2.17751 0
M  V30 1185 H 109.374 -3.96039 -3.0324 0
M  V30 1186 H 108.528 -3.08973 -5.22131 0
M  V30 1187 H 107.267 -2.14473 -4.3801 0
M  V30 1188 H 106.272 -4.2631 -3.47188 0
M  V30 1189 H 107.497 -5.2182 -4.34605 0
M  V30 1190 H 105.443 -3.37462 -5.62544 0
M  V30 1191 H 105.36 -5.10507 -5.57601 0
M  V30 1192 H 106.628 -4.33253 -6.48006 0
M  V30 1193 N 110.857 0.726932 -1.39834 0
M  V30 1194 C 111.787 1.85405 -1.41941 0
M  V30 1195 C 112.768 1.67751 -0.281728 0
M  V30 1196 O 113.953 1.8795 -0.488717 0
M  V30 1197 C 111.083 3.23243 -1.2701 0
M  V30 1198 C 110.037 3.55549 -2.38262 0
M  V30 1199 C 109.363 4.9241 -2.08415 0
M  V30 1200 C 110.663 3.577 -3.80589 0
M  V30 1201 H 112.357 1.83899 -2.36266 0
M  V30 1202 H 109.903 0.883349 -1.13723 0
M  V30 1203 H 111.856 4.01775 -1.27103 0
M  V30 1204 H 110.58 3.25296 -0.291564 0
M  V30 1205 H 109.239 2.79351 -2.37399 0
M  V30 1206 H 108.887 4.91052 -1.0898 0
M  V30 1207 H 108.587 5.14992 -2.82943 0
M  V30 1208 H 110.111 5.73289 -2.10171 0
M  V30 1209 H 111.525 4.26293 -3.83337 0
M  V30 1210 H 109.922 3.91804 -4.54543 0
M  V30 1211 H 110.992 2.57328 -4.10987 0
M  V30 1212 N 112.336 1.25143 0.95797 0
M  V30 1213 C 113.584 1.09476 1.69881 0
M  V30 1214 C 113.905 -0.365502 1.91544 0
M  V30 1215 O 113.175 -1.25985 1.50015 0
M  V30 1216 H 111.755 0.402128 0.629525 0
M  V30 1217 H 114.417 1.57214 1.15194 0
M  V30 1218 H 113.513 1.60046 2.6794 0
M  V30 1219 N 113.814 -1.1601 1.06675 0
M  V30 1220 C 115.061 -1.86633 0.785781 0
M  V30 1221 C 115.389 -1.81929 -0.687896 0
M  V30 1222 O 114.644 -1.23253 -1.52011 0
M  V30 1223 C 114.943 -3.35547 1.23057 0
M  V30 1224 C 114.609 -3.60448 2.70902 0
M  V30 1225 C 113.271 -3.66954 3.11285 0
M  V30 1226 C 115.623 -3.7071 3.66365 0
M  V30 1227 C 112.951 -3.81225 4.45965 0
M  V30 1228 C 115.303 -3.86503 5.00797 0
M  V30 1229 C 113.967 -3.91252 5.40813 0
M  V30 1230 H 113.237 -0.682937 0.287538 0
M  V30 1231 H 115.884 -1.37146 1.33654 0
M  V30 1232 H 114.189 -3.87193 0.59907 0
M  V30 1233 H 115.886 -3.88583 0.990163 0
M  V30 1234 H 112.476 -3.56021 2.38636 0
M  V30 1235 H 116.66 -3.64991 3.36296 0
M  V30 1236 H 111.916 -3.83155 4.76447 0
M  V30 1237 H 116.09 -3.93385 5.74649 0
M  V30 1238 H 113.717 -4.02062 6.45174 0
M  V30 1239 N 115.292 -0.849877 -1.32721 0
M  V30 1240 C 116.239 -0.289033 -2.28983 0
M  V30 1241 C 117.209 0.601324 -1.54833 0
M  V30 1242 O 118.394 0.537253 -1.8308 0
M  V30 1243 C 115.534 0.520623 -3.4115 0
M  V30 1244 C 114.647 -0.394989 -4.3019 0
M  V30 1245 C 113.782 0.426834 -5.29482 0
M  V30 1246 C 112.821 -0.486476 -6.10164 0
M  V30 1247 N 111.958 0.297879 -7.01468 0
M  V30 1248 H 116.798 -1.11519 -2.76347 0
M  V30 1249 H 114.335 -0.56138 -1.35967 0
M  V30 1250 H 116.293 1.00563 -4.04899 0
M  V30 1251 H 114.923 1.31165 -2.9495 0
M  V30 1252 H 113.975 -0.99836 -3.67065 0
M  V30 1253 H 115.287 -1.09612 -4.86607 0
M  V30 1254 H 114.441 0.975205 -5.98811 0
M  V30 1255 H 113.18 1.16136 -4.73671 0
M  V30 1256 H 112.185 -1.04677 -5.39743 0
M  V30 1257 H 113.41 -1.21953 -6.6806 0
M  V30 1258 H 111.356 1.01558 -6.48091 0
M  V30 1259 H 111.273 -0.344318 -7.55216 0
M  V30 1260 H 112.541 0.828131 -7.75089 0
M  V30 1261 N 116.77 1.45427 -0.607355 0
M  V30 1262 C 118.017 2.02241 -0.102455 0
M  V30 1263 C 118.345 1.4758 1.26691 0
M  V30 1264 O 117.6 0.640468 1.84923 0
M  V30 1265 C 117.899 3.57398 -0.0129263 0
M  V30 1266 C 117.565 4.3121 -1.31792 0
M  V30 1267 C 116.227 4.51092 -1.67539 0
M  V30 1268 C 118.579 4.73401 -2.18039 0
M  V30 1269 C 115.907 5.10422 -2.89285 0
M  V30 1270 C 118.259 5.34078 -3.39034 0
M  V30 1271 C 116.923 5.52184 -3.75033 0
M  V30 1272 H 116.193 0.740051 -0.037491 0
M  V30 1273 H 118.84 1.74494 -0.788926 0
M  V30 1274 H 117.145 3.84421 0.756806 0
M  V30 1275 H 118.842 3.99061 0.393881 0
M  V30 1276 H 115.432 4.16047 -1.02968 0
M  V30 1277 H 119.616 4.57774 -1.91721 0
M  V30 1278 H 114.872 5.22629 -3.17283 0
M  V30 1279 H 119.046 5.65724 -4.06115 0
M  V30 1280 H 116.673 5.97925 -4.69457 0
M  V30 1281 N 118.248 0.346503 1.53744 0
M  V30 1282 C 119.473 -0.253074 2.0585 0
M  V30 1283 C 119.898 -1.43202 1.21962 0
M  V30 1284 O 119.256 -1.79783 0.234073 0
M  V30 1285 C 119.304 -0.643193 3.54817 0
M  V30 1286 O 118.408 -1.74286 3.73762 0
M  V30 1287 H 117.749 -0.0413583 0.662711 0
M  V30 1288 H 120.279 0.501574 1.98357 0
M  V30 1289 H 120.289 -0.919526 3.97503 0
M  V30 1290 H 118.964 0.218966 4.15323 0
M  V30 1291 H 117.541 -1.46356 3.42979 0
M  V30 1292 N 119.726 -1.57421 0.075193 0
M  V30 1293 C 121.003 -1.85029 -0.634329 0
M  V30 1294 C 121.383 -0.968305 -1.87582 0
M  V30 1295 O 120.731 -0.0354749 -2.28472 0
M  V30 1296 C 120.941 -3.35286 -0.968742 0
M  V30 1297 C 122.289 -4.02875 -1.34077 0
M  V30 1298 O 123.313 -3.40051 -1.06037 0
M  V30 1299 O 122.172 -5.13691 -1.86506 0
M  V30 1300 H 119.266 -0.7645 -0.315387 0
M  V30 1301 H 121.812 -1.69366 0.106382 0
M  V30 1302 H 120.584 -3.91203 -0.0871376 0
M  V30 1303 H 120.207 -3.56223 -1.7661 0
M  V30 1304 N 121.204 0.198386 -1.56346 0
M  V30 1305 C 122.432 0.935572 -1.84539 0
M  V30 1306 C 122.847 1.76989 -0.657281 0
M  V30 1307 O 122.204 1.78626 0.374043 0
M  V30 1308 C 122.255 1.8344 -3.11499 0
M  V30 1309 O 121.976 1.03377 -4.25728 0
M  V30 1310 C 123.477 2.68355 -3.52846 0
M  V30 1311 H 120.697 0.273126 -0.612897 0
M  V30 1312 H 123.241 0.20663 -2.03453 0
M  V30 1313 H 121.396 2.51701 -2.94492 0
M  V30 1314 H 121.81 1.64599 -4.98003 0
M  V30 1315 H 123.284 3.27085 -4.44657 0
M  V30 1316 H 123.761 3.41901 -2.75681 0
M  V30 1317 H 124.367 2.05471 -3.72373 0
M  V30 1318 N 122.682 1.50554 0.465978 0
M  V30 1319 C 123.629 1.6979 1.56333 0
M  V30 1320 C 124.599 0.539239 1.57103 0
M  V30 1321 O 125.784 0.770401 1.74555 0
M  V30 1322 C 122.924 1.80273 2.94271 0
M  V30 1323 C 122.037 3.07674 3.0325 0
M  V30 1324 C 121.172 3.08922 4.32135 0
M  V30 1325 C 120.211 4.30755 4.34875 0
M  V30 1326 N 119.348 4.29714 5.55239 0
M  V30 1327 H 124.188 2.63472 1.39235 0
M  V30 1328 H 121.725 1.30602 0.676873 0
M  V30 1329 H 123.683 1.84332 3.74269 0
M  V30 1330 H 122.313 0.900258 3.09992 0
M  V30 1331 H 121.365 3.13062 2.16094 0
M  V30 1332 H 122.677 3.97642 3.01135 0
M  V30 1333 H 121.831 3.11738 5.20485 0
M  V30 1334 H 120.57 2.16792 4.36866 0
M  V30 1335 H 119.575 4.28146 3.44922 0
M  V30 1336 H 120.8 5.24117 4.31831 0
M  V30 1337 H 118.746 3.4044 5.60746 0
M  V30 1338 H 118.663 5.13456 5.54886 0
M  V30 1339 H 119.931 4.36683 6.457 0
M  V30 1340 N 124.16 -0.719506 1.40217 0
M  V30 1341 C 125.409 -1.47486 1.37589 0
M  V30 1342 C 125.722 -1.9559 -0.0201568 0
M  V30 1343 O 126.928 -2.70973 -0.169049 0
M  V30 1344 C 125.384 -2.66575 2.41796 0
M  V30 1345 C 124.992 -2.25358 3.87192 0
M  V30 1346 C 126.736 -3.4433 2.48269 0
M  V30 1347 C 124.643 -3.41262 4.83005 0
M  V30 1348 H 123.573 -0.553901 0.511576 0
M  V30 1349 H 126.224 -0.783427 1.65936 0
M  V30 1350 H 124.606 -3.3787 2.06543 0
M  V30 1351 H 125.78 -1.61509 4.31569 0
M  V30 1352 H 124.095 -1.60657 3.84159 0
M  V30 1353 H 126.692 -4.30569 3.17041 0
M  V30 1354 H 127.035 -3.87872 1.51198 0
M  V30 1355 H 127.568 -2.80076 2.82493 0
M  V30 1356 H 124.307 -3.02755 5.81394 0
M  V30 1357 H 123.827 -4.0404 4.43297 0
M  V30 1358 H 125.506 -4.07383 5.02641 0
M  V30 1359 N 125.638 -1.25649 -0.95132 0
M  V30 1360 C 126.568 -1.08808 -2.06599 0
M  V30 1361 C 127.549 0.00382547 -1.701 0
M  V30 1362 O 128.734 -0.166325 -1.93486 0
M  V30 1363 C 125.864 -0.709542 -3.39975 0
M  V30 1364 C 124.818 -1.75206 -3.90496 0
M  V30 1365 C 124.144 -1.22811 -5.20405 0
M  V30 1366 C 125.444 -3.15153 -4.16504 0
M  V30 1367 H 127.138 -2.02048 -2.20946 0
M  V30 1368 H 124.684 -0.972835 -1.06169 0
M  V30 1369 H 126.637 -0.578649 -4.17408 0
M  V30 1370 H 125.361 0.258556 -3.25575 0
M  V30 1371 H 124.02 -1.87145 -3.15234 0
M  V30 1372 H 123.668 -0.250145 -5.02378 0
M  V30 1373 H 123.368 -1.92492 -5.55176 0
M  V30 1374 H 124.892 -1.10968 -6.00432 0
M  V30 1375 H 126.306 -3.06349 -4.84586 0
M  V30 1376 H 124.703 -3.82333 -4.62538 0
M  V30 1377 H 125.773 -3.61966 -3.22658 0
M  V30 1378 N 127.117 1.15442 -1.07289 0
M  V30 1379 C 128.047 2.22312 -0.714107 0
M  V30 1380 C 129.028 1.67467 0.298155 0
M  V30 1381 O 130.213 1.93445 0.171048 0
M  V30 1382 C 127.343 3.47124 -0.110448 0
M  V30 1383 C 126.297 4.14926 -1.04979 0
M  V30 1384 C 125.623 5.33807 -0.308924 0
M  V30 1385 C 126.923 4.64762 -2.38314 0
M  V30 1386 H 128.617 2.5258 -1.6076 0
M  V30 1387 H 126.163 1.21404 -0.77441 0
M  V30 1388 H 128.116 4.21124 0.152482 0
M  V30 1389 H 126.84 3.16187 0.81812 0
M  V30 1390 H 125.499 3.42866 -1.29764 0
M  V30 1391 H 125.147 4.99126 0.623084 0
M  V30 1392 H 124.847 5.80113 -0.935036 0
M  V30 1393 H 126.371 6.10576 -0.0537771 0
M  V30 1394 H 127.785 5.30292 -2.1786 0
M  V30 1395 H 126.182 5.21728 -2.96514 0
M  V30 1396 H 127.252 3.80434 -3.00663 0
M  V30 1397 N 128.595 0.856903 1.32268 0
M  V30 1398 C 129.844 0.457599 1.96441 0
M  V30 1399 C 130.157 -0.992426 1.68553 0
M  V30 1400 O 131.363 -1.49727 2.26482 0
M  V30 1401 C 129.819 0.767358 3.51624 0
M  V30 1402 C 129.427 2.23326 3.88367 0
M  V30 1403 C 131.171 0.435887 4.22256 0
M  V30 1404 C 129.078 2.48613 5.36606 0
M  V30 1405 H 128.008 0.167387 0.735185 0
M  V30 1406 H 130.659 1.048 1.5063 0
M  V30 1407 H 129.041 0.106367 3.95857 0
M  V30 1408 H 130.215 2.93623 3.55137 0
M  V30 1409 H 128.53 2.52948 3.30766 0
M  V30 1410 H 131.127 0.602202 5.31298 0
M  V30 1411 H 131.47 -0.622672 4.11617 0
M  V30 1412 H 132.003 1.05286 3.83614 0
M  V30 1413 H 128.742 3.53101 5.52268 0
M  V30 1414 H 128.262 1.82896 5.71235 0
M  V30 1415 H 129.941 2.32676 6.03714 0
M  V30 1416 N 130.073 -1.45103 0.615059 0
M  V30 1417 C 131.298 -2.07064 0.117988 0
M  V30 1418 C 131.723 -1.4554 -1.19163 0
M  V30 1419 O 131.081 -0.550855 -1.72729 0
M  V30 1420 C 131.129 -3.606 -0.000288387 0
M  V30 1421 O 130.233 -3.98847 -1.04856 0
M  V30 1422 H 129.574 -0.659467 0.0774581 0
M  V30 1423 H 132.104 -1.86236 0.847186 0
M  V30 1424 H 132.114 -4.07529 -0.196091 0
M  V30 1425 H 130.789 -4.04765 0.955932 0
M  V30 1426 H 129.366 -3.63577 -0.828619 0
M  V30 1427 N 131.551 -0.354651 -1.53558 0
M  V30 1428 C 132.501 0.513179 -2.2215 0
M  V30 1429 C 133.485 1.05734 -1.21281 0
M  V30 1430 O 134.677 0.989202 -1.46778 0
M  V30 1431 C 131.806 1.65798 -3.00609 0
M  V30 1432 C 130.892 1.12722 -4.08845 0
M  V30 1433 N 131.283 0.318563 -5.04796 0
M  V30 1434 C 129.581 1.40307 -4.23356 0
M  V30 1435 C 130.282 0.0292224 -5.81693 0
M  V30 1436 N 129.258 0.623891 -5.40008 0
M  V30 1437 H 133.06 -0.111586 -2.93688 0
M  V30 1438 H 130.574 -0.162091 -1.61589 0
M  V30 1439 H 132.571 2.29176 -3.48258 0
M  V30 1440 H 131.231 2.28591 -2.306 0
M  V30 1441 H 132.242 -0.0413091 -5.17884 0
M  V30 1442 H 128.919 2.03458 -3.6457 0
M  V30 1443 H 130.309 -0.623808 -6.68998 0
M  V30 1444 N 133.029 1.57378 -0.0835403 0
M  V30 1445 C 133.992 2.12252 0.864959 0
M  V30 1446 C 134.992 1.04916 1.21858 0
M  V30 1447 O 136.182 1.30853 1.14991 0
M  V30 1448 C 133.314 2.63358 2.16461 0
M  V30 1449 H 134.507 2.97371 0.388676 0
M  V30 1450 H 132.06 1.55423 0.165317 0
M  V30 1451 H 132.795 1.81727 2.686 0
M  V30 1452 H 132.58 3.41826 1.92087 0
M  V30 1453 H 134.07 3.05847 2.84337 0
M  V30 1454 N 134.507 -0.190092 1.56449 0
M  V30 1455 C 135.457 -1.23977 1.91347 0
M  V30 1456 C 136.441 -1.40747 0.779693 0
M  V30 1457 O 137.633 -1.43033 1.04262 0
M  V30 1458 C 134.762 -2.58347 2.26079 0
M  V30 1459 C 133.848 -2.4535 3.45925 0
M  V30 1460 N 134.239 -2.02039 4.63696 0
M  V30 1461 C 132.537 -2.76229 3.50162 0
M  V30 1462 C 133.238 -2.01053 5.4585 0
M  V30 1463 N 132.214 -2.42747 4.8639 0
M  V30 1464 H 136.016 -0.896318 2.79899 0
M  V30 1465 H 133.53 -0.398496 1.57435 0
M  V30 1466 H 135.527 -3.34173 2.49267 0
M  V30 1467 H 134.187 -2.93512 1.38856 0
M  V30 1468 H 135.198 -1.7267 4.88268 0
M  V30 1469 H 131.875 -3.15556 2.73369 0
M  V30 1470 H 133.265 -1.69426 6.50188 0
M  V30 1471 N 135.985 -1.50799 -0.457987 0
M  V30 1472 C 137.232 -1.62442 -1.20908 0
M  V30 1473 C 137.56 -0.330865 -1.91665 0
M  V30 1474 O 136.815 0.68401 -1.83357 0
M  V30 1475 C 137.114 -2.76358 -2.2663 0
M  V30 1476 C 136.78 -4.16378 -1.73033 0
M  V30 1477 C 135.442 -4.54473 -1.58138 0
M  V30 1478 C 137.794 -5.03836 -1.33413 0
M  V30 1479 C 135.122 -5.77754 -1.02065 0
M  V30 1480 C 137.474 -6.27676 -0.78778 0
M  V30 1481 C 136.138 -6.64562 -0.625561 0
M  V30 1482 H 135.408 -0.594417 -0.442435 0
M  V30 1483 H 138.055 -1.84772 -0.503136 0
M  V30 1484 H 136.36 -2.48167 -3.03184 0
M  V30 1485 H 138.057 -2.82568 -2.84528 0
M  V30 1486 H 134.647 -3.86331 -1.85598 0
M  V30 1487 H 138.831 -4.75026 -1.4375 0
M  V30 1488 H 134.087 -6.04997 -0.882547 0
M  V30 1489 H 138.261 -6.94797 -0.472177 0
M  V30 1490 H 135.888 -7.59965 -0.188926 0
M  V30 1491 N 137.463 0.71206 -1.40597 0
M  V30 1492 C 138.74 1.46536 -1.29563 0
M  V30 1493 C 139.12 2.10931 0.0844217 0
M  V30 1494 O 138.468 2.00418 1.0975 0
M  V30 1495 C 138.678 2.49821 -2.43701 0
M  V30 1496 C 140.026 3.15551 -2.841 0
M  V30 1497 O 141.05 2.60142 -2.4332 0
M  V30 1498 O 139.909 4.15867 -3.54566 0
M  V30 1499 H 137.003 0.651801 -0.509004 0
M  V30 1500 H 139.549 0.743935 -1.52524 0
M  V30 1501 H 138.321 2.00778 -3.35863 0
M  V30 1502 H 137.944 3.29495 -2.22528 0
M  V30 1503 N 138.941 1.26152 0.944643 0
M  V30 1504 C 139.891 1.04081 2.02857 0
M  V30 1505 C 140.875 -0.0256555 1.6088 0
M  V30 1506 O 142.067 0.190884 1.75968 0
M  V30 1507 C 139.196 0.672118 3.36656 0
M  V30 1508 C 138.282 1.77586 3.85128 0
M  V30 1509 N 138.673 3.01272 4.06287 0
M  V30 1510 C 136.971 1.65867 4.1401 0
M  V30 1511 C 137.672 3.72983 4.46384 0
M  V30 1512 N 136.648 3.00653 4.52889 0
M  V30 1513 H 140.45 1.97968 2.17223 0
M  V30 1514 H 137.964 1.16618 1.13022 0
M  V30 1515 H 139.961 0.495166 4.13949 0
M  V30 1516 H 138.621 -0.259307 3.23663 0
M  V30 1517 H 139.632 3.37213 3.93075 0
M  V30 1518 H 136.309 0.796907 4.09824 0
M  V30 1519 H 137.699 4.792 4.70975 0
M  V30 1520 N 140.419 -1.14872 1.07899 0
M  V30 1521 C 141.382 -2.17986 0.708161 0
M  V30 1522 C 142.382 -1.58775 -0.25442 0
M  V30 1523 O 143.572 -1.74166 -0.034645 0
M  V30 1524 C 140.704 -3.40871 0.0446929 0
M  V30 1525 H 141.897 -2.52306 1.62116 0
M  V30 1526 H 139.45 -1.2943 0.876218 0
M  V30 1527 H 140.185 -3.12124 -0.880281 0
M  V30 1528 H 139.97 -3.8511 0.737091 0
M  V30 1529 H 141.46 -4.17121 -0.19991 0
M  V30 1530 N 141.898 -0.863906 -1.31812 0
M  V30 1531 C 142.861 -0.320212 -2.26952 0
M  V30 1532 C 143.861 0.525369 -1.51975 0
M  V30 1533 O 145.051 0.335547 -1.70938 0
M  V30 1534 C 142.183 0.545919 -3.365 0
M  V30 1535 H 143.376 -1.16004 -2.76556 0
M  V30 1536 H 140.929 -0.638995 -1.42641 0
M  V30 1537 H 141.664 1.40718 -2.92179 0
M  V30 1538 H 141.449 -0.0594674 -3.92055 0
M  V30 1539 H 142.939 0.918796 -4.07367 0
M  V30 1540 N 143.376 1.44774 -0.622745 0
M  V30 1541 C 144.624 2.01721 -0.123655 0
M  V30 1542 C 144.945 1.49172 1.25589 0
M  V30 1543 O 144.215 0.691974 1.83272 0
M  V30 1544 H 142.795 0.745777 -0.0427225 0
M  V30 1545 H 145.457 1.77382 -0.807559 0
M  V30 1546 H 144.553 3.11984 -0.0849534 0
M  V30 1547 N 144.854 0.36279 1.53368 0
M  V30 1548 C 146.079 -0.231226 2.06107 0
M  V30 1549 C 146.504 -1.419 1.23474 0
M  V30 1550 O 145.862 -1.79524 0.253128 0
M  V30 1551 C 145.91 -0.605523 3.5548 0
M  V30 1552 O 145.014 -1.70312 3.7559 0
M  V30 1553 H 144.355 -0.034327 0.663112 0
M  V30 1554 H 146.885 0.522584 1.97814 0
M  V30 1555 H 146.895 -0.877314 3.98456 0
M  V30 1556 H 145.57 0.263004 4.15068 0
M  V30 1557 H 144.147 -1.4271 3.44512 0
M  V30 1558 N 146.332 -1.57332 0.0918853 0
M  V30 1559 C 147.242 -2.17368 -0.882505 0
M  V30 1560 C 148.258 -1.14226 -1.31257 0
M  V30 1561 O 149.434 -1.46582 -1.38115 0
M  V30 1562 C 146.499 -2.73962 -2.12476 0
M  V30 1563 C 145.56 -3.92048 -1.7492 0
M  V30 1564 C 144.793 -4.45933 -2.93223 0
M  V30 1565 O 145.016 -3.98764 -4.07852 0
M  V30 1566 O 143.95 -5.36999 -2.71875 0
M  V30 1567 H 147.776 -3.01031 -0.40172 0
M  V30 1568 H 145.361 -1.48813 -0.132291 0
M  V30 1569 H 147.243 -3.10147 -2.85283 0
M  V30 1570 H 145.918 -1.93347 -2.59613 0
M  V30 1571 H 144.825 -3.6068 -0.993025 0
M  V30 1572 H 146.158 -4.74017 -1.32548 0
M  V30 1573 N 147.81 0.181792 -1.56548 0
M  V30 1574 C 148.74 1.22765 -1.98623 0
M  V30 1575 C 149.721 1.46747 -0.860189 0
M  V30 1576 O 150.906 1.58259 -1.12551 0
M  V30 1577 C 148.036 2.56894 -2.33715 0
M  V30 1578 C 146.99 2.475 -3.49182 0
M  V30 1579 C 146.316 3.86023 -3.69986 0
M  V30 1580 C 147.616 1.98866 -4.82959 0
M  V30 1581 H 149.31 0.877942 -2.86239 0
M  V30 1582 H 146.856 0.42088 -1.37712 0
M  V30 1583 H 148.809 3.30253 -2.61746 0
M  V30 1584 H 147.533 2.93632 -1.42997 0
M  V30 1585 H 146.192 1.76596 -3.21262 0
M  V30 1586 H 145.84 4.20136 -2.76576 0
M  V30 1587 H 145.54 3.80609 -4.47672 0
M  V30 1588 H 147.064 4.60984 -4.00407 0
M  V30 1589 H 148.478 2.61992 -5.09934 0
M  V30 1590 H 146.875 2.04424 -5.64208 0
M  V30 1591 H 147.945 0.942465 -4.75653 0
M  V30 1592 N 149.288 1.51039 0.449983 0
M  V30 1593 C 150.537 1.62317 1.19733 0
M  V30 1594 C 150.85 0.339101 1.92638 0
M  V30 1595 O 152.056 0.331069 2.69474 0
M  V30 1596 C 150.512 2.86608 2.17678 0
M  V30 1597 C 150.12 4.21972 1.50479 0
M  V30 1598 C 151.864 3.07239 2.92924 0
M  V30 1599 C 149.771 5.37426 2.46834 0
M  V30 1600 H 148.701 0.604532 0.450619 0
M  V30 1601 H 151.352 1.77494 0.465625 0
M  V30 1602 H 149.734 2.65037 2.94231 0
M  V30 1603 H 150.908 4.53878 0.795716 0
M  V30 1604 H 149.223 4.07117 0.874344 0
M  V30 1605 H 151.82 3.90668 3.65079 0
M  V30 1606 H 152.163 2.19807 3.5354 0
M  V30 1607 H 152.696 3.29091 2.23481 0
M  V30 1608 H 149.435 6.27079 1.90926 0
M  V30 1609 H 148.955 5.09912 3.15832 0
M  V30 1610 H 150.634 5.68862 3.08228 0
M  V30 1611 N 150.766 -0.704594 1.40972 0
M  V30 1612 C 151.713 -1.81862 1.42109 0
M  V30 1613 C 152.683 -1.63781 0.276593 0
M  V30 1614 O 153.868 -1.84759 0.4763 0
M  V30 1615 C 151.008 -3.19669 1.30022 0
M  V30 1616 C 150.121 -3.49246 2.54267 0
M  V30 1617 C 149.256 -4.76618 2.3454 0
M  V30 1618 C 148.295 -4.99133 3.54306 0
M  V30 1619 N 147.432 -6.17726 3.33706 0
M  V30 1620 H 152.272 -1.80226 2.37324 0
M  V30 1621 H 149.809 -0.880238 1.17857 0
M  V30 1622 H 151.767 -3.99263 1.21018 0
M  V30 1623 H 150.397 -3.20506 0.384192 0
M  V30 1624 H 149.449 -2.64125 2.73756 0
M  V30 1625 H 150.761 -3.61788 3.43381 0
M  V30 1626 H 149.915 -5.64249 2.22952 0
M  V30 1627 H 148.654 -4.66305 1.42867 0
M  V30 1628 H 147.659 -4.09953 3.66359 0
M  V30 1629 H 148.884 -5.11311 4.4692 0
M  V30 1630 H 146.83 -6.08642 2.44725 0
M  V30 1631 H 146.747 -6.30995 4.16391 0
M  V30 1632 H 148.015 -7.08115 3.25873 0
M  V30 1633 N 152.244 -1.26651 -0.937939 0
M  V30 1634 C 153.176 -1.04283 -2.04102 0
M  V30 1635 C 154.189 -0.00221014 -1.628 0
M  V30 1636 O 155.378 -0.242645 -1.76843 0
M  V30 1637 C 152.478 -0.557846 -3.34277 0
M  V30 1638 C 151.651 -1.66843 -4.04329 0
M  V30 1639 C 150.71 -1.18095 -5.12777 0
M  V30 1640 O 149.736 -1.87865 -5.37304 0
M  V30 1641 N 150.938 -0.0311006 -5.80492 0
M  V30 1642 H 153.703 -1.9927 -2.23856 0
M  V30 1643 H 151.264 -1.1808 -1.10764 0
M  V30 1644 H 153.256 -0.215836 -4.04124 0
M  V30 1645 H 151.826 0.298523 -3.11171 0
M  V30 1646 H 151.046 -2.18123 -3.28353 0
M  V30 1647 H 152.334 -2.41408 -4.47883 0
M  V30 1648 H 151.732 0.551486 -5.63005 0
M  V30 1649 H 150.289 0.251809 -6.51313 0
M  V30 1650 N 153.722 1.14298 -1.08507 0
M  V30 1651 C 154.654 2.1907 -0.673859 0
M  V30 1652 C 155.667 1.60381 0.279577 0
M  V30 1653 O 156.856 1.78374 0.0670754 0
M  V30 1654 C 153.956 3.38888 0.0290979 0
M  V30 1655 C 153.129 4.27103 -0.943494 0
M  V30 1656 C 152.188 5.25477 -0.275676 0
M  V30 1657 O 151.214 5.61709 -0.920401 0
M  V30 1658 N 152.416 5.7227 0.974013 0
M  V30 1659 H 155.181 2.54965 -1.57521 0
M  V30 1660 H 152.742 1.29528 -0.971287 0
M  V30 1661 H 154.734 4.01761 0.48683 0
M  V30 1662 H 153.304 3.01309 0.832555 0
M  V30 1663 H 152.524 3.61149 -1.58004 0
M  V30 1664 H 153.812 4.82905 -1.60251 0
M  V30 1665 H 153.21 5.44965 1.51755 0
M  V30 1666 H 151.767 6.37127 1.37522 0
M  V30 1667 N 155.201 0.870884 1.31352 0
M  V30 1668 C 156.429 0.49677 2.00848 0
M  V30 1669 C 156.844 -0.910998 1.65367 0
M  V30 1670 O 156.201 -1.59696 0.883374 0
M  V30 1671 C 156.252 0.645308 3.55694 0
M  V30 1672 O 155.973 1.99764 3.89905 0
M  V30 1673 C 157.474 0.272326 4.42463 0
M  V30 1674 H 154.694 0.193462 0.642506 0
M  V30 1675 H 157.238 1.1723 1.67563 0
M  V30 1676 H 155.393 0.0173176 3.87396 0
M  V30 1677 H 155.807 2.00607 4.84621 0
M  V30 1678 H 157.281 0.427208 5.50344 0
M  V30 1679 H 157.758 -0.788587 4.32062 0
M  V30 1680 H 158.364 0.876054 4.1618 0
M  V30 1681 N 156.679 -1.44442 0.630414 0
M  V30 1682 C 157.626 -2.30678 -0.0749355 0
M  V30 1683 C 158.596 -1.4344 -0.837502 0
M  V30 1684 O 159.781 -1.72343 -0.818684 0
M  V30 1685 C 156.921 -3.28706 -1.05103 0
M  V30 1686 C 156.034 -4.31046 -0.286954 0
M  V30 1687 C 155.169 -5.16167 -1.2548 0
M  V30 1688 C 154.208 -6.10216 -0.479843 0
M  V30 1689 N 153.345 -6.88039 -1.39811 0
M  V30 1690 H 158.185 -2.90454 0.666386 0
M  V30 1691 H 155.722 -1.43107 0.340404 0
M  V30 1692 H 157.68 -3.84027 -1.63031 0
M  V30 1693 H 156.31 -2.70632 -1.75949 0
M  V30 1694 H 155.362 -3.78203 0.408243 0
M  V30 1695 H 156.674 -4.97794 0.316657 0
M  V30 1696 H 155.828 -5.76002 -1.90544 0
M  V30 1697 H 154.567 -4.49491 -1.89233 0
M  V30 1698 H 153.572 -5.49491 0.184295 0
M  V30 1699 H 154.797 -6.78928 0.152965 0
M  V30 1700 H 152.743 -6.24032 -2.02287 0
M  V30 1701 H 152.66 -7.51223 -0.848508 0
M  V30 1702 H 153.928 -7.52397 -2.03762 0
M  V30 1703 N 158.157 -0.370918 -1.53173 0
M  V30 1704 C 159.12 0.460778 -2.24521 0
M  V30 1705 C 160.12 1.00536 -1.25496 0
M  V30 1706 O 161.31 0.890266 -1.49733 0
M  V30 1707 C 158.442 1.64457 -2.98608 0
M  V30 1708 H 159.635 -0.163613 -2.99453 0
M  V30 1709 H 157.188 -0.122699 -1.55818 0
M  V30 1710 H 157.923 2.30691 -2.2793 0
M  V30 1711 H 157.708 1.26099 -3.7127 0
M  V30 1712 H 159.198 2.23384 -3.5283 0
M  V30 1713 N 159.635 1.57281 -0.100228 0
M  V30 1714 C 160.582 2.14305 0.856858 0
M  V30 1715 C 161.552 1.06296 1.27634 0
M  V30 1716 O 162.737 1.34109 1.35718 0
M  V30 1717 C 159.877 2.73184 2.10866 0
M  V30 1718 C 158.99 3.95442 1.73925 0
M  V30 1719 C 158.125 4.42468 2.93931 0
M  V30 1720 C 157.164 5.57303 2.5314 0
M  V30 1721 N 156.301 5.99158 3.65997 0
M  V30 1722 H 161.141 2.95772 0.363726 0
M  V30 1723 H 158.678 1.46139 0.167858 0
M  V30 1724 H 160.636 3.05442 2.84185 0
M  V30 1725 H 159.266 1.94437 2.57671 0
M  V30 1726 H 158.318 3.69464 0.905554 0
M  V30 1727 H 159.63 4.78769 1.39935 0
M  V30 1728 H 158.784 4.76537 3.75496 0
M  V30 1729 H 157.523 3.58052 3.31134 0
M  V30 1730 H 156.528 5.22857 1.70003 0
M  V30 1731 H 157.753 6.43471 2.17075 0
M  V30 1732 H 155.699 5.17687 4.02909 0
M  V30 1733 H 155.616 6.77295 3.35869 0
M  V30 1734 H 156.884 6.3786 4.48057 0
M  V30 1735 N 161.113 -0.173488 1.56642 0
M  V30 1736 C 162.343 -0.904781 1.85734 0
M  V30 1737 C 162.751 -1.76431 0.68328 0
M  V30 1738 O 162.094 -1.802 -0.356865 0
M  V30 1739 C 162.156 -1.83382 3.09211 0
M  V30 1740 C 161.82 -1.15411 4.42187 0
M  V30 1741 C 162.817 -0.520609 5.17287 0
M  V30 1742 C 160.502 -1.15151 4.88923 0
M  V30 1743 C 162.496 0.106412 6.37311 0
M  V30 1744 C 160.183 -0.520664 6.08878 0
M  V30 1745 C 161.181 0.107196 6.82916 0
M  V30 1746 O 160.869 0.728102 8.00596 0
M  V30 1747 H 160.601 -0.268408 0.62043 0
M  V30 1748 H 163.155 -0.179096 2.04618 0
M  V30 1749 H 161.385 -2.59976 2.86268 0
M  V30 1750 H 163.074 -2.43476 3.24768 0
M  V30 1751 H 163.84 -0.514606 4.82262 0
M  V30 1752 H 159.719 -1.62961 4.31236 0
M  V30 1753 H 163.263 0.597081 6.9504 0
M  V30 1754 H 159.16 -0.524242 6.43368 0
M  V30 1755 H 159.928 0.627138 8.16094 0
M  V30 1756 N 162.591 -1.51276 -0.441967 0
M  V30 1757 C 163.524 -1.66933 -1.55591 0
M  V30 1758 C 164.502 -0.516958 -1.54163 0
M  V30 1759 O 165.686 -0.740209 -1.73358 0
M  V30 1760 C 162.813 -1.67866 -2.94174 0
M  V30 1761 C 161.859 -2.89013 -3.13646 0
M  V30 1762 S 162.692 -4.49897 -2.90436 0
M  V30 1763 C 163.848 -4.53568 -4.31308 0
M  V30 1764 H 164.081 -2.61155 -1.42076 0
M  V30 1765 H 161.614 -1.40902 -0.631341 0
M  V30 1766 H 163.572 -1.69089 -3.74058 0
M  V30 1767 H 162.233 -0.748296 -3.05056 0
M  V30 1768 H 161.426 -2.86054 -4.14957 0
M  V30 1769 H 161.028 -2.85509 -2.4158 0
M  V30 1770 H 163.32 -4.28924 -5.24434 0
M  V30 1771 H 164.263 -5.55355 -4.39303 0
M  V30 1772 H 164.671 -3.82943 -4.14747 0
M  V30 1773 N 164.069 0.697108 -1.41344 0
M  V30 1774 C 165.315 1.4593 -1.40827 0
M  V30 1775 C 165.648 1.94193 -0.0167098 0
M  V30 1776 O 164.923 1.69425 0.955263 0
M  V30 1777 C 165.206 2.67229 -2.41373 0
M  V30 1778 C 165.059 2.24741 -3.8963 0
M  V30 1779 C 166.378 3.69423 -2.39196 0
M  V30 1780 H 163.497 0.529303 -0.512842 0
M  V30 1781 H 166.139 0.794112 -1.72609 0
M  V30 1782 H 164.289 3.23982 -2.14401 0
M  V30 1783 H 165.961 1.73327 -4.27499 0
M  V30 1784 H 164.204 1.56542 -4.0457 0
M  V30 1785 H 164.875 3.1177 -4.55525 0
M  V30 1786 H 167.351 3.2234 -2.63128 0
M  V30 1787 H 166.227 4.51907 -3.11563 0
M  V30 1788 H 166.488 4.19012 -1.41001 0
M  V30 1789 N 165.547 1.27147 0.931209 0
M  V30 1790 C 166.48 1.0389 2.0318 0
M  V30 1791 C 167.458 -0.0395716 1.62552 0
M  V30 1792 O 168.642 0.104867 1.88208 0
M  V30 1793 C 165.769 0.575227 3.3378 0
M  V30 1794 C 164.815 1.64774 3.93385 0
M  V30 1795 S 165.648 3.23933 4.26413 0
M  V30 1796 C 166.804 2.79358 5.60098 0
M  V30 1797 H 167.037 1.97075 2.22596 0
M  V30 1798 H 164.57 1.10938 1.07387 0
M  V30 1799 H 166.528 0.314385 4.09294 0
M  V30 1800 H 165.189 -0.336505 3.12292 0
M  V30 1801 H 164.382 1.27454 4.87618 0
M  V30 1802 H 163.984 1.86048 3.24441 0
M  V30 1803 H 166.276 2.24443 6.39243 0
M  V30 1804 H 167.219 3.72322 6.02314 0
M  V30 1805 H 167.627 2.1861 5.20452 0
M  V30 1806 N 167.025 -1.13721 1.09112 0
M  V30 1807 C 168.302 -1.81155 0.737706 0
M  V30 1808 C 168.682 -1.96253 -0.777683 0
M  V30 1809 O 168.03 -1.52807 -1.69889 0
M  V30 1810 C 168.24 -3.16392 1.47299 0
M  V30 1811 C 169.588 -3.91787 1.63671 0
M  V30 1812 O 170.612 -3.26005 1.43524 0
M  V30 1813 O 169.471 -5.0977 1.96969 0
M  V30 1814 H 166.565 -0.783518 0.26463 0
M  V30 1815 H 169.111 -1.20676 1.19312 0
M  V30 1816 H 167.883 -3.0061 2.50498 0
M  V30 1817 H 167.506 -3.8457 1.00953 0
M  V30 1818 N 168.503 -0.877838 -1.30888 0
M  V30 1819 C 169.413 -0.343096 -2.32078 0
M  V30 1820 C 170.429 0.551022 -1.65045 0
M  V30 1821 O 171.605 0.445854 -1.96403 0
M  V30 1822 C 168.67 0.439905 -3.43898 0
M  V30 1823 C 167.731 -0.483111 -4.26573 0
M  V30 1824 C 166.964 0.262616 -5.33053 0
M  V30 1825 O 167.187 1.48967 -5.50604 0
M  V30 1826 O 166.121 -0.383593 -6.00676 0
M  V30 1827 H 169.947 -1.18203 -2.79753 0
M  V30 1828 H 167.532 -0.64145 -1.34929 0
M  V30 1829 H 169.414 0.883504 -4.12034 0
M  V30 1830 H 168.089 1.25526 -2.98371 0
M  V30 1831 H 166.996 -0.975374 -3.61161 0
M  V30 1832 H 168.329 -1.26427 -4.75686 0
M  V30 1833 N 169.982 1.44106 -0.638065 0
M  V30 1834 C 171.259 1.95453 -0.0759321 0
M  V30 1835 C 171.639 1.57984 1.40015 0
M  V30 1836 O 170.987 0.857361 2.11806 0
M  V30 1837 C 171.197 3.47655 -0.306132 0
M  V30 1838 C 172.545 4.24114 -0.203008 0
M  V30 1839 O 173.569 3.55405 -0.237871 0
M  V30 1840 O 172.428 5.46381 -0.113827 0
M  V30 1841 H 169.522 0.826797 0.0183332 0
M  V30 1842 H 172.068 1.54122 -0.710251 0
M  V30 1843 H 170.84 3.68 -1.3301 0
M  V30 1844 H 170.463 3.95949 0.361991 0
M  V30 1845 N 171.46 0.379036 1.52974 0
M  V30 1846 C 172.706 -0.206727 2.01744 0
M  V30 1847 C 173.039 -1.47314 1.26539 0
M  V30 1848 O 172.314 -1.91084 0.362903 0
M  V30 1849 C 172.597 -0.485066 3.56818 0
M  V30 1850 C 172.45 0.795919 4.42702 0
M  V30 1851 C 173.769 -1.28003 4.21074 0
M  V30 1852 H 170.888 -0.0736607 0.73331 0
M  V30 1853 H 173.53 0.506581 1.83122 0
M  V30 1854 H 171.68 -1.09272 3.72816 0
M  V30 1855 H 173.352 1.43307 4.38476 0
M  V30 1856 H 171.595 1.41344 4.10127 0
M  V30 1857 H 172.266 0.555947 5.49193 0
M  V30 1858 H 174.742 -0.765867 4.08991 0
M  V30 1859 H 173.618 -1.44352 5.29579 0
M  V30 1860 H 173.879 -2.29236 3.78026 0
M  V30 1861 N 172.938 -1.57226 0.108567 0
M  V30 1862 C 174.163 -1.99604 -0.563303 0
M  V30 1863 C 174.588 -0.987563 -1.6009 0
M  V30 1864 O 173.946 0.0421687 -1.81251 0
M  V30 1865 C 173.994 -3.40902 -1.17552 0
M  V30 1866 O 173.098 -3.42896 -2.2912 0
M  V30 1867 H 172.439 -0.648704 -0.1417 0
M  V30 1868 H 174.969 -2.03679 0.193961 0
M  V30 1869 H 174.979 -3.78886 -1.51357 0
M  V30 1870 H 173.654 -4.1382 -0.415445 0
M  V30 1871 H 172.231 -3.1672 -1.96832 0
M  V30 1872 N 174.416 0.165178 -1.56732 0
M  V30 1873 C 175.662 0.882112 -1.82611 0
M  V30 1874 C 175.995 1.81628 -0.687378 0
M  V30 1875 O 175.27 1.92009 0.310267 0
M  V30 1876 C 175.553 1.67245 -3.18906 0
M  V30 1877 C 175.406 0.760987 -4.43316 0
M  V30 1878 C 176.725 2.63884 -3.52212 0
M  V30 1879 H 173.844 0.319242 -0.664269 0
M  V30 1880 H 176.486 0.148052 -1.89422 0
M  V30 1881 H 174.636 2.29824 -3.1323 0
M  V30 1882 H 176.308 0.147596 -4.61064 0
M  V30 1883 H 174.551 0.0694102 -4.33744 0
M  V30 1884 H 175.222 1.34962 -5.35247 0
M  V30 1885 H 177.698 2.11429 -3.58381 0
M  V30 1886 H 176.574 3.16245 -4.48643 0
M  V30 1887 H 176.835 3.44377 -2.77231 0
M  V30 1888 N 175.894 1.51508 0.433938 0
M  V30 1889 C 177.143 1.63578 1.18005 0
M  V30 1890 C 177.456 0.359514 1.92268 0
M  V30 1891 O 178.662 0.359632 2.69108 0
M  V30 1892 C 177.118 2.88901 2.14626 0
M  V30 1893 C 176.726 4.23544 1.45995 0
M  V30 1894 C 178.47 3.10328 2.89649 0
M  V30 1895 C 176.377 5.40014 2.4112 0
M  V30 1896 H 175.307 0.609277 0.444182 0
M  V30 1897 H 177.958 1.77978 0.446773 0
M  V30 1898 H 176.34 2.68142 2.91403 0
M  V30 1899 H 177.514 4.54696 0.747532 0
M  V30 1900 H 175.829 4.08021 0.831115 0
M  V30 1901 H 178.426 3.94518 3.60915 0
M  V30 1902 H 178.769 2.23544 3.51189 0
M  V30 1903 H 179.302 3.31443 2.19978 0
M  V30 1904 H 176.041 6.29068 1.84264 0
M  V30 1905 H 175.561 5.13233 3.10406 0
M  V30 1906 H 177.24 5.72099 3.02177 0
M  V30 1907 N 177.372 -0.689602 1.41712 0
M  V30 1908 C 178.302 -1.81577 1.46806 0
M  V30 1909 C 179.283 -1.66945 0.326105 0
M  V30 1910 O 180.468 -1.86588 0.538377 0
M  V30 1911 C 177.598 -3.19762 1.35535 0
M  V30 1912 C 176.552 -3.49107 2.47605 0
M  V30 1913 C 175.878 -4.86711 2.21397 0
M  V30 1914 C 177.178 -3.47483 3.89939 0
M  V30 1915 H 178.872 -1.7757 2.41058 0
M  V30 1916 H 176.418 -0.852887 1.16025 0
M  V30 1917 H 178.371 -3.98263 1.3771 0
M  V30 1918 H 177.095 -3.24409 0.377708 0
M  V30 1919 H 175.754 -2.72959 2.44722 0
M  V30 1920 H 175.402 -4.8799 1.21961 0
M  V30 1921 H 175.102 -5.0731 2.96497 0
M  V30 1922 H 176.626 -5.67515 2.25297 0
M  V30 1923 H 178.04 -4.1598 3.94505 0
M  V30 1924 H 176.437 -3.79615 4.64771 0
M  V30 1925 H 177.507 -2.46341 4.17665 0
M  V30 1926 N 178.85 -1.27639 -0.924453 0
M  V30 1927 C 180.075 -1.17101 -1.71179 0
M  V30 1928 C 180.5 0.268134 -1.86179 0
M  V30 1929 O 179.858 1.19415 -1.36418 0
M  V30 1930 C 179.906 -1.86313 -3.08739 0
M  V30 1931 O 179.01 -1.16331 -3.95652 0
M  V30 1932 H 178.351 -0.407091 -0.524569 0
M  V30 1933 H 180.881 -1.68767 -1.15666 0
M  V30 1934 H 180.891 -1.938 -3.59034 0
M  V30 1935 H 179.566 -2.91001 -2.97138 0
M  V30 1936 H 178.143 -1.16935 -3.54091 0
M  V30 1937 N 180.328 1.1314 -1.09713 0
M  V30 1938 C 181.576 1.84119 -0.833338 0
M  V30 1939 C 181.897 1.84097 0.642904 0
M  V30 1940 O 181.167 1.29881 1.46655 0
M  V30 1941 H 179.747 0.681766 -0.305293 0
M  V30 1942 H 182.409 1.37038 -1.38588 0
M  V30 1943 H 181.505 2.88543 -1.18951 0
M  V30 1944 N 181.806 0.884767 1.30421 0
M  V30 1945 C 183.054 0.502112 1.95763 0
M  V30 1946 C 183.375 -0.951815 1.70192 0
M  V30 1947 O 182.645 -1.6692 1.0254 0
M  V30 1948 H 181.225 0.182694 0.724315 0
M  V30 1949 H 183.887 1.1278 1.58955 0
M  V30 1950 H 182.983 0.672188 3.04775 0
M  V30 1951 N 183.284 -1.43765 0.645699 0
M  V30 1952 C 184.231 -2.30745 -0.0504648 0
M  V30 1953 C 185.201 -1.4432 -0.822241 0
M  V30 1954 O 186.386 -1.73202 -0.800358 0
M  V30 1955 C 183.526 -3.29802 -1.0161 0
M  V30 1956 C 182.639 -4.31326 -0.241219 0
M  V30 1957 C 181.774 -5.17469 -1.19998 0
M  V30 1958 C 180.813 -6.10691 -0.415094 0
M  V30 1959 N 179.95 -6.89483 -1.32506 0
M  V30 1960 H 184.79 -2.8973 0.697155 0
M  V30 1961 H 182.327 -1.42738 0.355563 0
M  V30 1962 H 184.285 -3.85734 -1.58949 0
M  V30 1963 H 182.915 -2.72483 -1.73069 0
M  V30 1964 H 181.967 -3.77749 0.448334 0
M  V30 1965 H 183.279 -4.9743 0.369437 0
M  V30 1966 H 182.433 -5.7799 -1.84424 0
M  V30 1967 H 181.172 -4.51473 -1.84455 0
M  V30 1968 H 180.177 -5.49265 0.242565 0
M  V30 1969 H 181.402 -6.78727 0.224966 0
M  V30 1970 H 179.348 -6.26142 -1.95657 0
M  V30 1971 H 179.265 -7.52081 -0.768783 0
M  V30 1972 H 180.533 -7.54516 -1.9577 0
M  V30 1973 N 184.763 -0.387143 -1.52771 0
M  V30 1974 C 185.988 0.198407 -2.06449 0
M  V30 1975 C 186.413 1.39918 -1.25716 0
M  V30 1976 O 185.771 1.79099 -0.281657 0
M  V30 1977 C 185.819 0.548893 -3.56398 0
M  V30 1978 O 184.923 1.64315 -3.78252 0
M  V30 1979 H 184.264 0.0237731 -0.663574 0
M  V30 1980 H 186.794 -0.553989 -1.96957 0
M  V30 1981 H 186.804 0.813812 -3.99801 0
M  V30 1982 H 185.479 -0.329005 -4.14597 0
M  V30 1983 H 184.056 1.37211 -3.46738 0
M  V30 1984 N 186.241 1.57166 -0.116904 0
M  V30 1985 C 187.518 1.86645 0.585049 0
M  V30 1986 C 187.898 1.0177 1.84949 0
M  V30 1987 O 187.246 0.0960379 2.28298 0
M  V30 1988 C 187.456 3.37736 0.879507 0
M  V30 1989 C 188.804 4.06289 1.23348 0
M  V30 1990 O 189.828 3.42743 0.969836 0
M  V30 1991 O 188.687 5.18455 1.7282 0
M  V30 1992 H 185.781 0.772593 0.295007 0
M  V30 1993 H 188.327 1.69025 -0.151249 0
M  V30 1994 H 187.099 3.91296 -0.0166136 0
M  V30 1995 H 186.722 3.6078 1.67103 0
M  V30 1996 N 187.719 -0.156864 1.56817 0
M  V30 1997 C 188.966 -0.871125 1.82805 0
M  V30 1998 C 189.294 -1.81611 0.696262 0
M  V30 1999 O 188.549 -1.93141 -0.315459 0
M  V30 2000 C 188.848 -1.68737 3.1506 0
M  V30 2001 C 188.514 -0.890045 4.42028 0
M  V30 2002 C 187.176 -0.670042 4.76512 0
M  V30 2003 C 189.528 -0.331769 5.20143 0
M  V30 2004 C 186.856 0.119104 5.86579 0
M  V30 2005 C 189.208 0.444365 6.31037 0
M  V30 2006 C 187.872 0.675035 6.64078 0
M  V30 2007 H 187.142 -0.318767 0.668931 0
M  V30 2008 H 189.789 -0.135274 1.91022 0
M  V30 2009 H 188.094 -2.49304 3.0225 0
M  V30 2010 H 189.791 -2.24331 3.3238 0
M  V30 2011 H 186.381 -1.07157 4.14988 0
M  V30 2012 H 190.565 -0.489043 4.93885 0
M  V30 2013 H 185.821 0.307417 6.10627 0
M  V30 2014 H 189.995 0.884139 6.90765 0
M  V30 2015 H 187.622 1.28839 7.49203 0
M  V30 2016 N 189.197 -1.51736 -0.425897 0
M  V30 2017 C 190.147 -1.70258 -1.51645 0
M  V30 2018 C 191.131 -0.556488 -1.5097 0
M  V30 2019 O 192.323 -0.812879 -1.5723 0
M  V30 2020 C 189.452 -1.84143 -2.89735 0
M  V30 2021 C 188.538 -3.04572 -2.95122 0
M  V30 2022 N 188.929 -4.2756 -2.70233 0
M  V30 2023 C 187.227 -3.04061 -3.26286 0
M  V30 2024 C 187.928 -5.08908 -2.81757 0
M  V30 2025 N 186.904 -4.43797 -3.13919 0
M  V30 2026 H 190.706 -2.63004 -1.31172 0
M  V30 2027 H 188.22 -1.4954 -0.633375 0
M  V30 2028 H 190.217 -1.95525 -3.68206 0
M  V30 2029 H 188.877 -0.925857 -3.1122 0
M  V30 2030 H 189.888 -4.56315 -2.44943 0
M  V30 2031 H 186.565 -2.22179 -3.53473 0
M  V30 2032 H 187.955 -6.16843 -2.66372 0
M  V30 2033 N 190.675 0.682077 -1.42076 0
M  V30 2034 C 191.905 1.46844 -1.45329 0
M  V30 2035 C 192.313 1.89102 -0.0609328 0
M  V30 2036 O 191.656 1.58238 0.933082 0
M  V30 2037 C 191.718 2.75375 -2.31104 0
M  V30 2038 C 191.382 2.55238 -3.79081 0
M  V30 2039 C 192.379 2.20309 -4.70914 0
M  V30 2040 C 190.064 2.70459 -4.2327 0
M  V30 2041 C 192.058 2.00859 -6.04925 0
M  V30 2042 C 189.745 2.50624 -5.57343 0
M  V30 2043 C 190.743 2.15876 -6.47986 0
M  V30 2044 O 190.431 1.96227 -7.79583 0
M  V30 2045 H 190.163 0.4586 -0.496651 0
M  V30 2046 H 192.717 0.846131 -1.87162 0
M  V30 2047 H 190.947 3.40061 -1.84107 0
M  V30 2048 H 192.636 3.37231 -2.25898 0
M  V30 2049 H 193.402 2.08153 -4.38061 0
M  V30 2050 H 189.281 2.96485 -3.53012 0
M  V30 2051 H 192.825 1.7366 -6.75639 0
M  V30 2052 H 188.722 2.62375 -5.89771 0
M  V30 2053 H 189.49 2.10883 -7.90867 0
M  V30 2054 N 192.153 1.28127 0.917671 0
M  V30 2055 C 193.116 1.11744 2.00115 0
M  V30 2056 C 194.116 0.0583052 1.60694 0
M  V30 2057 O 195.306 0.303755 1.71531 0
M  V30 2058 C 192.438 0.704862 3.33533 0
M  V30 2059 H 193.631 2.07966 2.16079 0
M  V30 2060 H 191.184 1.11058 1.09981 0
M  V30 2061 H 191.919 -0.258299 3.2327 0
M  V30 2062 H 191.704 1.4699 3.63505 0
M  V30 2063 H 193.194 0.612768 4.1308 0
M  V30 2064 N 193.631 -1.12557 1.10312 0
M  V30 2065 C 194.579 -2.20325 0.745629 0
M  V30 2066 C 195.573 -1.67429 -0.25763 0
M  V30 2067 O 196.779 -1.79612 -0.118132 0
M  V30 2068 H 193.154 -0.718118 0.223182 0
M  V30 2069 H 195.125 -2.47733 1.66346 0
M  V30 2070 C 193.874 -3.47168 0.192262 0
M  V30 2071 H 193.197 -3.88215 0.955475 0
M  V30 2072 H 194.637 -4.23995 -0.0198274 0
M  V30 2073 C 193.096 -3.19298 -1.07472 0
M  V30 2074 O 193.626 -3.3891 -2.15645 0
M  V30 2075 N 191.832 -2.73113 -0.992847 0
M  V30 2076 H 191.379 -2.57354 -0.112474 0
M  V30 2077 H 191.337 -2.54842 -1.84127 0
M  V30 2078 N 195.109 -0.891671 -1.2995 0
M  V30 2079 C 196.386 -0.433307 -1.9074 0
M  V30 2080 C 196.766 1.08646 -1.80995 0
M  V30 2081 O 196.114 1.92476 -1.23147 0
M  V30 2082 C 196.324 -0.938895 -3.36134 0
M  V30 2083 C 197.672 -0.977829 -4.13187 0
M  V30 2084 O 198.696 -0.886015 -3.45005 0
M  V30 2085 O 197.555 -1.11453 -5.35015 0
M  V30 2086 H 194.649 -0.133699 -0.816121 0
M  V30 2087 H 197.195 -0.981011 -1.38471 0
M  V30 2088 H 195.967 -1.98281 -3.37343 0
M  V30 2089 H 195.59 -0.37074 -3.95868 0
M  V30 2090 N 196.587 1.43421 -0.653314 0
M  V30 2091 C 197.812 2.06678 -0.172846 0
M  V30 2092 C 198.237 1.48648 1.15262 0
M  V30 2093 O 197.595 0.596457 1.71208 0
M  V30 2094 C 197.643 3.60474 -0.0953184 0
M  V30 2095 O 196.747 4.01487 0.942442 0
M  V30 2096 H 196.088 0.657181 -0.0949155 0
M  V30 2097 H 198.618 1.83925 -0.896265 0
M  V30 2098 H 198.628 4.07905 0.0879728 0
M  V30 2099 H 197.303 4.02088 -1.06291 0
M  V30 2100 H 195.88 3.65646 0.731932 0
M  V30 2101 N 198.065 0.39524 1.52563 0
M  V30 2102 C 199.29 -0.187456 2.06551 0
M  V30 2103 C 199.715 -1.39249 1.26457 0
M  V30 2104 O 199.073 -1.78947 0.291151 0
M  V30 2105 C 199.121 -0.529985 3.56684 0
M  V30 2106 O 198.225 -1.62307 3.79118 0
M  V30 2107 H 197.566 -0.0202537 0.663691 0
M  V30 2108 H 200.096 0.564426 1.96661 0
M  V30 2109 H 200.106 -0.792598 4.00227 0
M  V30 2110 H 198.781 0.350987 4.14416 0
M  V30 2111 H 197.358 -1.3537 3.47461 0
M  V30 2112 N 199.544 -1.57102 0.125237 0
M  V30 2113 C 200.772 -1.99761 -0.538797 0
M  V30 2114 C 201.187 -1.00503 -1.59827 0
M  V30 2115 O 200.544 0.00119474 -1.825 0
M  V30 2116 C 200.595 -3.42408 -1.15927 0
M  V30 2117 O 200.316 -4.37869 -0.142143 0
M  V30 2118 C 201.817 -4.00232 -1.90602 0
M  V30 2119 H 199.037 -0.655772 -0.14214 0
M  V30 2120 H 201.581 -2.03383 0.213413 0
M  V30 2121 H 199.736 -3.39706 -1.86223 0
M  V30 2122 H 200.15 -5.21128 -0.593775 0
M  V30 2123 H 201.624 -5.02105 -2.29335 0
M  V30 2124 H 202.101 -3.39721 -2.78363 0
M  V30 2125 H 202.707 -4.06499 -1.25055 0
M  V30 2126 N 201.022 0.148545 -1.56898 0
M  V30 2127 C 202.252 0.875118 -1.8715 0
M  V30 2128 C 202.66 1.75322 -0.711262 0
M  V30 2129 O 202.003 1.80745 0.328151 0
M  V30 2130 C 202.065 1.7844 -3.12089 0
M  V30 2131 C 201.729 1.08361 -4.43967 0
M  V30 2132 C 202.726 0.438247 -5.1805 0
M  V30 2133 C 200.411 1.07358 -4.90693 0
M  V30 2134 C 202.405 -0.20779 -6.37061 0
M  V30 2135 C 200.092 0.42373 -6.09629 0
M  V30 2136 C 201.09 -0.215829 -6.82659 0
M  V30 2137 O 200.778 -0.855378 -7.99336 0
M  V30 2138 H 200.51 0.258504 -0.624621 0
M  V30 2139 H 203.064 0.14652 -2.04877 0
M  V30 2140 H 201.294 2.55389 -2.90367 0
M  V30 2141 H 202.983 2.38279 -3.286 0
M  V30 2142 H 203.749 0.437817 -4.8302 0
M  V30 2143 H 199.628 1.5608 -4.33774 0
M  V30 2144 H 203.172 -0.70758 -6.94002 0
M  V30 2145 H 199.069 0.421822 -6.4412 0
M  V30 2146 H 199.837 -0.756892 -8.14993 0
M  V30 2147 N 202.5 1.5196 0.417844 0
M  V30 2148 C 203.747 1.65591 1.16559 0
M  V30 2149 C 204.075 0.381565 1.90721 0
M  V30 2150 O 203.33 -0.635156 1.85106 0
M  V30 2151 C 203.629 2.82269 2.19223 0
M  V30 2152 C 203.295 4.20819 1.61933 0
M  V30 2153 C 201.957 4.58506 1.46033 0
M  V30 2154 C 204.309 5.07196 1.20008 0
M  V30 2155 C 201.637 5.80257 0.867113 0
M  V30 2156 C 203.989 6.29544 0.621086 0
M  V30 2157 C 202.653 6.65987 0.449144 0
M  V30 2158 H 201.923 0.605939 0.42652 0
M  V30 2159 H 204.57 1.86041 0.45397 0
M  V30 2160 H 202.875 2.56118 2.96498 0
M  V30 2161 H 204.572 2.90012 2.76936 0
M  V30 2162 H 201.162 3.91116 1.7529 0
M  V30 2163 H 205.346 4.7867 1.31105 0
M  V30 2164 H 200.602 6.07124 0.721833 0
M  V30 2165 H 204.776 6.95805 0.287798 0
M  V30 2166 H 202.403 7.60199 -0.012632 0
M  V30 2167 N 203.978 -0.674533 1.42435 0
M  V30 2168 C 205.206 -1.46283 1.46317 0
M  V30 2169 C 205.621 -1.88653 0.0745836 0
M  V30 2170 O 204.978 -1.58151 -0.91074 0
M  V30 2171 C 205.029 -2.71178 2.3905 0
M  V30 2172 O 204.75 -2.30586 3.72507 0
M  V30 2173 C 206.251 -3.64738 2.51955 0
M  V30 2174 H 203.471 -0.450104 0.497642 0
M  V30 2175 H 206.015 -0.828792 1.86953 0
M  V30 2176 H 204.17 -3.3077 2.01667 0
M  V30 2177 H 204.584 -3.11241 4.22172 0
M  V30 2178 H 206.058 -4.49096 3.20962 0
M  V30 2179 H 206.535 -4.10656 1.55752 0
M  V30 2180 H 207.141 -3.11038 2.90061 0
M  V30 2181 N 205.456 -1.28612 -0.910864 0
M  V30 2182 C 206.388 -1.08589 -2.01844 0
M  V30 2183 C 207.401 -0.0367419 -1.62759 0
M  V30 2184 O 208.59 -0.280101 -1.76289 0
M  V30 2185 C 205.69 -0.628626 -3.33019 0
M  V30 2186 C 204.863 -1.75382 -4.00699 0
M  V30 2187 C 203.922 -1.28945 -5.10156 0
M  V30 2188 O 202.948 -1.9922 -5.33198 0
M  V30 2189 N 204.15 -0.154224 -5.80295 0
M  V30 2190 H 206.915 -2.03973 -2.19579 0
M  V30 2191 H 204.476 -1.20403 -1.08234 0
M  V30 2192 H 206.468 -0.301508 -4.03575 0
M  V30 2193 H 205.038 0.232451 -3.11735 0
M  V30 2194 H 204.258 -2.25039 -3.23653 0
M  V30 2195 H 205.546 -2.50854 -4.42662 0
M  V30 2196 H 204.944 0.43194 -5.64049 0
M  V30 2197 H 203.501 0.113599 -6.51701 0
M  V30 2198 N 206.934 1.1197 -1.10907 0
M  V30 2199 C 208.159 1.87942 -0.877064 0
M  V30 2200 C 208.584 1.79341 0.567314 0
M  V30 2201 O 207.942 1.15184 1.40009 0
M  V30 2202 C 207.99 3.34926 -1.33629 0
M  V30 2203 O 207.094 4.09303 -0.504447 0
M  V30 2204 H 206.435 0.583785 -0.316371 0
M  V30 2205 H 208.965 1.4157 -1.47712 0
M  V30 2206 H 208.975 3.8577 -1.32837 0
M  V30 2207 H 207.65 3.40504 -2.3881 0
M  V30 2208 H 206.227 3.68393 -0.577993 0
M  V30 2209 N 208.412 0.89855 1.29475 0
M  V30 2210 C 209.64 0.539261 1.99749 0
M  V30 2211 C 210.055 -0.875716 1.67262 0
M  V30 2212 O 209.412 -1.57786 0.917049 0
M  V30 2213 C 209.463 0.72061 3.54245 0
M  V30 2214 O 209.184 2.07989 3.8558 0
M  V30 2215 C 210.685 0.366118 4.41786 0
M  V30 2216 H 207.905 0.207047 0.638258 0
M  V30 2217 H 210.449 1.20758 1.65039 0
M  V30 2218 H 208.604 0.0994862 3.87272 0
M  V30 2219 H 209.018 2.10841 4.80257 0
M  V30 2220 H 210.492 0.543848 5.49314 0
M  V30 2221 H 210.969 -0.696763 4.33638 0
M  V30 2222 H 211.575 0.964135 4.14228 0
M  V30 2223 N 209.89 -1.43072 0.660911 0
M  V30 2224 C 211.136 -2.0202 0.177708 0
M  V30 2225 C 211.469 -1.52066 -1.20787 0
M  V30 2226 O 210.744 -0.716987 -1.80802 0
M  V30 2227 C 211.027 -3.59561 0.197019 0
M  V30 2228 C 210.88 -4.19727 1.61706 0
M  V30 2229 C 212.199 -4.37664 -0.462396 0
M  V30 2230 H 209.318 -0.734034 0.0660494 0
M  V30 2231 H 211.96 -1.70272 0.843058 0
M  V30 2232 H 210.11 -3.86739 -0.369527 0
M  V30 2233 H 211.782 -4.03553 2.23479 0
M  V30 2234 H 210.025 -3.76084 2.16201 0
M  V30 2235 H 210.696 -5.28834 1.58237 0
M  V30 2236 H 213.172 -4.16095 0.0197215 0
M  V30 2237 H 212.048 -5.47305 -0.418188 0
M  V30 2238 H 212.309 -4.14493 -1.53778 0
M  V30 2239 N 211.368 -0.403325 -1.52352 0
M  V30 2240 C 212.645 0.232611 -1.94212 0
M  V30 2241 C 213.025 1.63133 -1.33981 0
M  V30 2242 O 212.373 2.22659 -0.513344 0
M  V30 2243 C 212.583 0.244811 -3.4814 0
M  V30 2244 C 213.931 0.46698 -4.22024 0
M  V30 2245 O 214.955 0.324419 -3.5472 0
M  V30 2246 O 213.814 0.74747 -5.41364 0
M  V30 2247 H 210.908 0.148223 -0.813609 0
M  V30 2248 H 213.454 -0.458848 -1.63379 0
M  V30 2249 H 212.226 -0.734378 -3.84347 0
M  V30 2250 H 211.849 0.980611 -3.85318 0
M  V30 2251 N 212.846 1.57033 -0.133567 0
M  V30 2252 C 213.793 2.16074 0.811208 0
M  V30 2253 C 214.763 1.08979 1.2535 0
M  V30 2254 O 215.948 1.36958 1.32843 0
M  V30 2255 C 213.088 2.77595 2.05024 0
M  V30 2256 C 212.201 3.99042 1.65498 0
M  V30 2257 C 211.336 4.48603 2.84479 0
M  V30 2258 C 210.375 5.62547 2.41262 0
M  V30 2259 N 209.512 6.06787 3.53206 0
M  V30 2260 H 214.352 2.96477 0.300906 0
M  V30 2261 H 211.889 1.46462 0.136822 0
M  V30 2262 H 213.847 3.11402 2.77642 0
M  V30 2263 H 212.477 1.99859 2.53488 0
M  V30 2264 H 211.529 3.71302 0.826981 0
M  V30 2265 H 212.841 4.81629 1.29748 0
M  V30 2266 H 211.995 4.84395 3.65303 0
M  V30 2267 H 210.734 3.64995 3.23465 0
M  V30 2268 H 209.739 5.26345 1.58874 0
M  V30 2269 H 210.964 6.47931 2.03377 0
M  V30 2270 H 208.91 5.26117 3.91838 0
M  V30 2271 H 208.827 6.84266 3.21427 0
M  V30 2272 H 210.095 6.4722 4.34427 0
M  V30 2273 N 214.325 -0.140222 1.56975 0
M  V30 2274 C 215.571 -0.852949 1.83991 0
M  V30 2275 C 215.904 -1.80512 0.716187 0
M  V30 2276 O 215.179 -1.92479 -0.279681 0
M  V30 2277 C 215.462 -1.6215 3.21527 0
M  V30 2278 C 215.315 -0.690363 4.4447 0
M  V30 2279 C 216.634 -2.58247 3.56366 0
M  V30 2280 H 213.753 -0.308634 0.669264 0
M  V30 2281 H 216.395 -0.117898 1.89634 0
M  V30 2282 H 214.545 -2.24812 3.16847 0
M  V30 2283 H 216.217 -0.0742264 4.6124 0
M  V30 2284 H 214.46 -0.000396433 4.338 0
M  V30 2285 H 215.131 -1.2643 5.37326 0
M  V30 2286 H 217.607 -2.05701 3.61699 0
M  V30 2287 H 216.483 -3.09067 4.53617 0
M  V30 2288 H 216.744 -3.39923 2.82674 0
M  V30 2289 N 215.803 -1.52179 -0.40978 0
M  V30 2290 C 216.733 -1.78435 -1.5061 0
M  V30 2291 C 217.714 -0.635295 -1.57791 0
M  V30 2292 O 218.899 -0.880823 -1.73076 0
M  V30 2293 C 216.029 -1.93444 -2.88439 0
M  V30 2294 C 214.983 -3.09038 -2.96108 0
M  V30 2295 C 214.309 -3.09268 -4.36185 0
M  V30 2296 C 215.609 -4.48508 -2.67652 0
M  V30 2297 H 217.303 -2.70237 -1.28889 0
M  V30 2298 H 214.849 -1.30036 -0.618605 0
M  V30 2299 H 216.802 -2.10394 -3.65119 0
M  V30 2300 H 215.526 -0.983129 -3.11452 0
M  V30 2301 H 214.185 -2.91837 -2.21872 0
M  V30 2302 H 213.833 -2.11861 -4.56206 0
M  V30 2303 H 213.533 -3.86907 -4.42241 0
M  V30 2304 H 215.057 -3.28348 -5.14801 0
M  V30 2305 H 216.471 -4.65918 -3.34056 0
M  V30 2306 H 214.868 -5.28059 -2.85085 0
M  V30 2307 H 215.938 -4.56649 -1.63095 0
M  V30 2308 N 217.281 0.66697 -1.42791 0
M  V30 2309 C 218.231 1.77313 -1.43332 0
M  V30 2310 C 219.215 1.5801 -0.303586 0
M  V30 2311 O 220.407 1.68356 -0.546385 0
M  V30 2312 C 217.536 3.15822 -1.34578 0
M  V30 2313 C 216.622 3.40721 -2.52528 0
M  V30 2314 N 217.013 3.36162 -3.77927 0
M  V30 2315 C 215.311 3.71387 -2.46956 0
M  V30 2316 C 216.012 3.60762 -4.56318 0
M  V30 2317 N 214.988 3.81908 -3.86843 0
M  V30 2318 H 218.79 1.72193 -2.38174 0
M  V30 2319 H 216.304 0.868114 -1.3725 0
M  V30 2320 H 218.301 3.951 -1.33048 0
M  V30 2321 H 216.961 3.22133 -0.407453 0
M  V30 2322 H 217.972 3.15885 -4.10411 0
M  V30 2323 H 214.649 3.84897 -1.61743 0
M  V30 2324 H 216.039 3.63132 -5.65318 0
M  V30 2325 N 218.759 1.29093 0.90403 0
M  V30 2326 C 220.036 1.075 1.63411 0
M  V30 2327 C 220.416 -0.382346 2.07609 0
M  V30 2328 O 219.764 -1.37031 1.82851 0
M  V30 2329 C 219.974 2.05858 2.81822 0
M  V30 2330 C 221.322 2.36539 3.52611 0
M  V30 2331 O 222.346 2.04019 2.91984 0
M  V30 2332 O 221.205 2.92085 4.61897 0
M  V30 2333 H 218.299 0.411547 0.717327 0
M  V30 2334 H 220.845 1.40449 0.952479 0
M  V30 2335 H 219.617 3.04037 2.46327 0
M  V30 2336 H 219.24 1.73613 3.57693 0
M  V30 2337 N 220.237 -1.11381 1.11499 0
M  V30 2338 C 221.485 -1.8277 0.862524 0
M  V30 2339 C 221.806 -1.85097 -0.613534 0
M  V30 2340 O 221.076 -1.32198 -1.4457 0
M  V30 2341 H 219.656 -0.676823 0.316101 0
M  V30 2342 H 222.318 -1.34816 1.4075 0
M  V30 2343 H 221.414 -2.86614 1.23527 0
M  V30 2344 N 221.715 -0.905404 -1.28997 0
M  V30 2345 C 222.625 -0.392246 -2.31298 0
M  V30 2346 C 223.641 0.515889 -1.66176 0
M  V30 2347 O 224.817 0.404093 -1.97304 0
M  V30 2348 C 221.882 0.36686 -3.44754 0
M  V30 2349 C 220.943 -0.573485 -4.25452 0
M  V30 2350 C 220.176 0.149488 -5.33491 0
M  V30 2351 O 220.399 1.37255 -5.5364 0
M  V30 2352 O 219.333 -0.510919 -5.99728 0
M  V30 2353 H 223.159 -1.2411 -2.77183 0
M  V30 2354 H 220.744 -0.669926 -1.33538 0
M  V30 2355 H 222.626 0.795907 -4.13816 0
M  V30 2356 H 221.301 1.19169 -3.00966 0
M  V30 2357 H 220.208 -1.05176 -3.59011 0
M  V30 2358 H 221.541 -1.36489 -4.72897 0
M  V30 2359 N 223.193 1.4272 -0.668489 0
M  V30 2360 C 224.609 1.55992 -0.33745 0
M  V30 2361 C 224.809 1.64933 1.15756 0
M  V30 2362 O 223.865 1.61278 1.94282 0
M  V30 2363 C 225.178 2.81314 -1.06222 0
M  V30 2364 C 226.726 2.95078 -1.04394 0
M  V30 2365 C 227.201 4.23252 -1.74991 0
M  V30 2366 N 228.692 4.3015 -1.71829 0
M  V30 2367 C 229.427 5.28127 -2.23315 0
M  V30 2368 N 228.923 6.32293 -2.83156 0
M  V30 2369 N 230.716 5.19882 -2.13726 0
M  V30 2370 H 222.867 1.3516 -1.63846 0
M  V30 2371 H 225.13 0.650174 -0.689912 0
M  V30 2372 H 224.836 2.80823 -2.11734 0
M  V30 2373 H 224.71 3.72012 -0.62344 0
M  V30 2374 H 227.097 2.951 0.0028244 0
M  V30 2375 H 227.178 2.05627 -1.52155 0
M  V30 2376 H 226.822 4.2399 -2.79633 0
M  V30 2377 H 226.752 5.11626 -1.24685 0
M  V30 2378 H 229.243 3.55499 -1.28175 0
M  V30 2379 H 229.556 7.03398 -3.20079 0
M  V30 2380 H 227.901 6.32873 -2.87223 0
M  V30 2381 H 231.092 4.37423 -1.66669 0
M  V30 2382 H 231.265 5.96077 -2.54158 0
M  V30 2383 N 224.671 0.411399 1.52136 0
M  V30 2384 C 225.917 -0.163888 2.02137 0
M  V30 2385 C 226.25 -1.44597 1.29636 0
M  V30 2386 O 225.525 -1.90272 0.403353 0
M  V30 2387 C 225.808 -0.40927 3.57767 0
M  V30 2388 C 225.661 0.889643 4.40914 0
M  V30 2389 C 226.98 -1.19042 4.23694 0
M  V30 2390 H 224.099 -0.0580896 0.734707 0
M  V30 2391 H 226.741 0.54531 1.82007 0
M  V30 2392 H 224.891 -1.0134 3.7505 0
M  V30 2393 H 226.563 1.52575 4.35337 0
M  V30 2394 H 224.806 1.50011 4.07037 0
M  V30 2395 H 225.477 0.672314 5.4789 0
M  V30 2396 H 227.953 -0.678942 4.10524 0
M  V30 2397 H 226.829 -1.33086 5.32522 0
M  V30 2398 H 227.09 -2.21166 3.82803 0
M  V30 2399 N 226.149 -1.5696 0.141893 0
M  V30 2400 C 227.059 -2.20066 -0.812905 0
M  V30 2401 C 228.075 -1.18344 -1.27557 0
M  V30 2402 O 229.251 -1.50902 -1.33381 0
M  V30 2403 C 226.316 -2.80583 -2.03652 0
M  V30 2404 C 225.377 -3.97414 -1.62359 0
M  V30 2405 C 224.61 -4.55036 -2.78887 0
M  V30 2406 O 224.833 -4.11538 -3.94959 0
M  V30 2407 O 223.767 -5.45376 -2.54653 0
M  V30 2408 H 227.593 -3.02157 -0.305746 0
M  V30 2409 H 225.178 -1.49159 -0.0848799 0
M  V30 2410 H 227.06 -3.19067 -2.75272 0
M  V30 2411 H 225.735 -2.01508 -2.5333 0
M  V30 2412 H 224.642 -3.63656 -0.877775 0
M  V30 2413 H 225.975 -4.77994 -1.17401 0
M  V30 2414 N 227.627 0.131896 -1.57047 0
M  V30 2415 C 228.557 1.16384 -2.02428 0
M  V30 2416 C 229.538 1.43936 -0.90644 0
M  V30 2417 O 230.723 1.54599 -1.17528 0
M  V30 2418 C 227.853 2.49328 -2.4177 0
M  V30 2419 C 226.807 2.36266 -3.56879 0
M  V30 2420 C 226.133 3.74057 -3.8208 0
M  V30 2421 C 227.433 1.834 -4.89042 0
M  V30 2422 H 229.127 0.786433 -2.88887 0
M  V30 2423 H 226.673 0.376855 -1.38981 0
M  V30 2424 H 228.626 3.21759 -2.7212 0
M  V30 2425 H 227.35 2.88934 -1.52266 0
M  V30 2426 H 226.009 1.66286 -3.26718 0
M  V30 2427 H 225.657 4.11125 -2.89803 0
M  V30 2428 H 225.357 3.66174 -4.59554 0
M  V30 2429 H 226.881 4.48012 -4.1487 0
M  V30 2430 H 228.295 2.45636 -5.18011 0
M  V30 2431 H 226.692 1.8637 -5.70426 0
M  V30 2432 H 227.762 0.790662 -4.7841 0
M  V30 2433 N 229.106 1.52395 0.401703 0
M  V30 2434 C 230.354 1.66488 1.14569 0
M  V30 2435 C 230.675 0.400897 1.90835 0
M  V30 2436 O 229.945 -0.584415 1.8698 0
M  V30 2437 H 228.525 0.613672 0.425929 0
M  V30 2438 H 231.187 1.89464 0.457093 0
M  V30 2439 H 230.283 2.50942 1.85566 0
M  V30 2440 N 230.584 -0.659388 1.43143 0
M  V30 2441 C 231.832 -1.41654 1.44147 0
M  V30 2442 C 232.153 -1.94893 0.0645739 0
M  V30 2443 O 231.423 -1.74044 -0.899198 0
M  V30 2444 H 230.003 -0.525708 0.530697 0
M  V30 2445 H 232.665 -0.778097 1.78694 0
M  V30 2446 H 231.761 -2.26195 2.1504 0
M  V30 2447 N 232.062 -1.29571 -0.897171 0
M  V30 2448 C 233.29 -1.20583 -1.68129 0
M  V30 2449 C 233.705 0.233181 -1.87354 0
M  V30 2450 O 233.062 1.15579 -1.41236 0
M  V30 2451 C 233.113 -1.91772 -3.06441 0
M  V30 2452 O 232.834 -3.30053 -2.88091 0
M  V30 2453 C 234.335 -1.89291 -4.00854 0
M  V30 2454 H 231.555 -0.417826 -0.525036 0
M  V30 2455 H 234.099 -1.70987 -1.12177 0
M  V30 2456 H 232.254 -1.45196 -3.59161 0
M  V30 2457 H 232.668 -3.65942 -3.75748 0
M  V30 2458 H 234.142 -2.43662 -4.95311 0
M  V30 2459 H 234.619 -0.869014 -4.30517 0
M  V30 2460 H 235.225 -2.35622 -3.54066 0
M  V30 2461 N 233.54 1.10788 -1.12088 0
M  V30 2462 C 234.786 1.82942 -0.875226 0
M  V30 2463 C 235.119 1.84779 0.597538 0
M  V30 2464 O 234.394 1.30578 1.44152 0
M  V30 2465 C 234.677 3.29789 -1.44606 0
M  V30 2466 C 234.53 3.36307 -2.98693 0
M  V30 2467 C 235.849 4.26064 -1.10261 0
M  V30 2468 H 232.968 0.664195 -0.319397 0
M  V30 2469 H 235.61 1.29867 -1.38689 0
M  V30 2470 H 233.76 3.75118 -1.01089 0
M  V30 2471 H 235.432 2.99487 -3.50864 0
M  V30 2472 H 233.675 2.76318 -3.34411 0
M  V30 2473 H 234.346 4.39694 -3.33726 0
M  V30 2474 H 236.822 3.88951 -1.4784 0
M  V30 2475 H 235.698 5.27183 -1.52869 0
M  V30 2476 H 235.959 4.42098 -0.0142953 0
M  V30 2477 N 235.018 0.912232 1.28515 0
M  V30 2478 C 235.948 0.416403 2.29757 0
M  V30 2479 C 236.929 -0.515194 1.6211 0
M  V30 2480 O 238.114 -0.423253 1.89532 0
M  V30 2481 C 235.244 -0.34572 3.45575 0
M  V30 2482 C 234.198 0.496599 4.25109 0
M  V30 2483 C 233.524 -0.393771 5.33248 0
M  V30 2484 C 234.824 1.75307 4.92001 0
M  V30 2485 H 236.518 1.26249 2.7148 0
M  V30 2486 H 234.064 0.608515 1.30511 0
M  V30 2487 H 236.017 -0.703422 4.15488 0
M  V30 2488 H 234.741 -1.2257 3.02728 0
M  V30 2489 H 233.4 0.8368 3.56922 0
M  V30 2490 H 233.048 -1.27225 4.86644 0
M  V30 2491 H 232.748 0.166209 5.87365 0
M  V30 2492 H 234.272 -0.747389 6.06009 0
M  V30 2493 H 235.686 1.46437 5.54283 0
M  V30 2494 H 234.083 2.25534 5.56106 0
M  V30 2495 H 235.153 2.48176 4.16577 0
M  V30 2496 N 236.496 -1.42363 0.676048 0
M  V30 2497 C 237.724 -2.05859 0.207268 0
M  V30 2498 C 238.139 -1.50796 -1.13605 0
M  V30 2499 O 237.496 -0.648265 -1.70598 0
M  V30 2500 C 237.547 -3.61248 0.134975 0
M  V30 2501 O 237.268 -4.1427 1.42521 0
M  V30 2502 C 238.769 -4.41859 -0.357151 0
M  V30 2503 H 235.989 -0.663431 0.100503 0
M  V30 2504 H 238.533 -1.82479 0.923136 0
M  V30 2505 H 236.688 -3.83735 -0.531588 0
M  V30 2506 H 237.102 -5.0815 1.29939 0
M  V30 2507 H 238.576 -5.50847 -0.356641 0
M  V30 2508 H 239.053 -4.16536 -1.39264 0
M  V30 2509 H 239.659 -4.24392 0.27772 0
M  V30 2510 N 237.974 -0.419461 -1.51915 0
M  V30 2511 C 238.937 0.389116 -2.25873 0
M  V30 2512 C 239.937 0.964924 -1.28631 0
M  V30 2513 O 241.127 0.842179 -1.52489 0
M  V30 2514 C 238.259 1.54874 -3.03689 0
M  V30 2515 H 239.452 -0.258799 -2.98781 0
M  V30 2516 H 237.005 -0.172209 -1.55348 0
M  V30 2517 H 237.74 2.23323 -2.35154 0
M  V30 2518 H 237.525 1.14223 -3.75094 0
M  V30 2519 H 239.015 2.12046 -3.59759 0
M  V30 2520 N 239.452 1.56882 -0.150215 0
M  V30 2521 C 240.402 2.13501 0.800071 0
M  V30 2522 C 241.386 1.06368 1.20726 0
M  V30 2523 O 242.578 1.32538 1.17314 0
M  V30 2524 C 239.707 2.76271 2.03787 0
M  V30 2525 C 238.793 3.90533 1.65364 0
M  V30 2526 N 239.184 4.96259 0.977794 0
M  V30 2527 C 237.482 4.013 1.94613 0
M  V30 2528 C 238.183 5.76286 0.791794 0
M  V30 2529 N 237.159 5.27163 1.32666 0
M  V30 2530 H 240.961 2.92615 0.274517 0
M  V30 2531 H 238.475 1.62319 0.0512144 0
M  V30 2532 H 240.472 3.15197 2.72867 0
M  V30 2533 H 239.132 1.98631 2.56857 0
M  V30 2534 H 240.143 5.13953 0.638193 0
M  V30 2535 H 236.82 3.3474 2.4951 0
M  V30 2536 H 238.21 6.71401 0.258894 0
M  V30 2537 N 240.93 -0.123565 1.57115 0
M  V30 2538 C 241.86 -1.15309 2.03042 0
M  V30 2539 C 242.841 -1.43454 0.914061 0
M  V30 2540 O 244.026 -1.53973 1.18347 0
M  V30 2541 C 241.156 -2.48043 2.43089 0
M  V30 2542 C 240.11 -2.3437 3.58127 0
M  V30 2543 C 239.436 -3.72026 3.84059 0
M  V30 2544 C 240.736 -1.80804 4.90007 0
M  V30 2545 H 242.43 -0.771102 2.893 0
M  V30 2546 H 239.976 -0.369479 1.39179 0
M  V30 2547 H 241.929 -3.20311 2.73823 0
M  V30 2548 H 240.653 -2.88122 1.53796 0
M  V30 2549 H 239.312 -1.64551 3.27595 0
M  V30 2550 H 238.96 -4.09582 2.91979 0
M  V30 2551 H 238.66 -3.63732 4.6149 0
M  V30 2552 H 240.184 -4.45806 4.1724 0
M  V30 2553 H 241.598 -2.42886 5.19307 0
M  V30 2554 H 239.995 -1.83343 5.71407 0
M  V30 2555 H 241.065 -0.76528 4.78823 0
M  V30 2556 N 242.408 -1.52605 -0.393616 0
M  V30 2557 C 243.636 -1.71294 -1.16043 0
M  V30 2558 C 244.051 -0.429259 -1.83855 0
M  V30 2559 O 243.408 0.595921 -1.72496 0
M  V30 2560 C 243.459 -2.8593 -2.21193 0
M  V30 2561 O 243.18 -4.09329 -1.56146 0
M  V30 2562 C 244.681 -3.16259 -3.10636 0
M  V30 2563 H 241.901 -0.573641 -0.348104 0
M  V30 2564 H 244.445 -1.99234 -0.461092 0
M  V30 2565 H 242.6 -2.60465 -2.86769 0
M  V30 2566 H 243.014 -4.73323 -2.25978 0
M  V30 2567 H 244.488 -3.99946 -3.80456 0
M  V30 2568 H 244.965 -2.3045 -3.73884 0
M  V30 2569 H 245.571 -3.43547 -2.50711 0
M  V30 2570 N 243.887 0.651787 -1.4349 0
M  V30 2571 C 245.298 1.233 -1.40193 0
M  V30 2572 C 245.649 1.9591 -0.106727 0
M  V30 2573 O 244.774 2.01316 0.793773 0
M  V30 2574 C 245.369 2.24257 -2.53957 0
M  V30 2575 C 243.928 2.77852 -2.5392 0
M  V30 2576 C 243.075 1.52517 -2.3159 0
M  V30 2577 H 246.026 0.443717 -1.52371 0
M  V30 2578 H 246.047 3.0646 -2.25528 0
M  V30 2579 H 245.559 1.71382 -3.4821 0
M  V30 2580 H 243.66 3.34786 -1.63551 0
M  V30 2581 H 243.773 3.25299 -3.51735 0
M  V30 2582 H 242.137 1.79915 -1.80285 0
M  V30 2583 H 242.92 1.01574 -3.27929 0
M  V30 2584 N 245.365 1.30045 0.890287 0
M  V30 2585 C 246.613 1.18327 1.63839 0
M  V30 2586 C 246.934 -0.263455 1.93212 0
M  V30 2587 O 246.204 -1.17856 1.56482 0
M  V30 2588 H 244.784 0.434933 0.607324 0
M  V30 2589 H 247.446 1.631 1.06698 0
M  V30 2590 H 246.542 1.74024 2.59079 0
M  V30 2591 N 246.843 -1.10192 1.12674 0
M  V30 2592 C 247.793 -2.14754 0.765801 0
M  V30 2593 C 248.777 -1.59154 -0.236409 0
M  V30 2594 O 249.969 -1.76951 -0.0415261 0
M  V30 2595 C 247.098 -3.42563 0.224827 0
M  V30 2596 C 246.184 -4.05091 1.25548 0
M  V30 2597 N 246.575 -4.42287 2.4539 0
M  V30 2598 C 244.873 -4.32186 1.10142 0
M  V30 2599 C 245.574 -4.91441 3.11224 0
M  V30 2600 N 244.55 -4.88405 2.38666 0
M  V30 2601 H 248.352 -2.41309 1.67772 0
M  V30 2602 H 245.866 -1.27339 1.00789 0
M  V30 2603 H 247.863 -4.16868 -0.0519578 0
M  V30 2604 H 246.523 -3.17467 -0.681515 0
M  V30 2605 H 247.534 -4.33902 2.82754 0
M  V30 2606 H 244.211 -4.16735 0.252587 0
M  V30 2607 H 245.601 -5.29749 4.13298 0
M  V30 2608 N 248.321 -0.919034 -1.28029 0
M  V30 2609 C 249.549 -0.570971 -1.98866 0
M  V30 2610 C 249.964 0.848996 -1.68634 0
M  V30 2611 O 249.321 1.56307 -0.942036 0
M  V30 2612 C 249.372 -0.776876 -3.53054 0
M  V30 2613 O 249.093 -2.14097 -3.82222 0
M  V30 2614 C 250.594 -0.436356 -4.41147 0
M  V30 2615 H 247.814 -0.217175 -0.634883 0
M  V30 2616 H 250.358 -1.23368 -1.63097 0
M  V30 2617 H 248.513 -0.161085 -3.87065 0
M  V30 2618 H 248.927 -2.18455 -4.76841 0
M  V30 2619 H 250.401 -0.63117 -5.4838 0
M  V30 2620 H 250.878 0.627686 -4.34692 0
M  V30 2621 H 251.484 -1.02991 -4.12641 0
M  V30 2622 N 249.799 1.42003 -0.683588 0
M  V30 2623 C 251.215 1.55625 -0.353976 0
M  V30 2624 C 251.415 1.66151 1.14 0
M  V30 2625 O 250.471 1.63329 1.92561 0
M  V30 2626 C 251.784 2.80171 -1.092 0
M  V30 2627 C 253.332 2.93954 -1.07518 0
M  V30 2628 C 253.807 4.21372 -1.79471 0
M  V30 2629 N 255.298 4.28303 -1.76381 0
M  V30 2630 C 256.033 5.25729 -2.28904 0
M  V30 2631 N 255.529 6.29254 -2.89846 0
M  V30 2632 N 257.322 5.17586 -2.19228 0
M  V30 2633 H 249.473 1.33415 -1.6527 0
M  V30 2634 H 251.736 0.64282 -0.696769 0
M  V30 2635 H 251.442 2.78561 -2.14701 0
M  V30 2636 H 251.316 3.7133 -0.662862 0
M  V30 2637 H 253.703 2.95086 -0.028475 0
M  V30 2638 H 253.784 2.04002 -1.54328 0
M  V30 2639 H 253.428 4.21001 -2.84114 0
M  V30 2640 H 253.358 5.10275 -1.30104 0
M  V30 2641 H 255.849 3.54119 -1.31939 0
M  V30 2642 H 256.162 6.99964 -3.27522 0
M  V30 2643 H 254.507 6.29791 -2.93919 0
M  V30 2644 H 257.698 4.35631 -1.71299 0
M  V30 2645 H 257.871 5.93348 -2.60466 0
M  V30 2646 N 251.277 0.427512 1.51691 0
M  V30 2647 C 252.525 -0.141948 2.01601 0
M  V30 2648 C 252.846 -1.44067 1.31414 0
M  V30 2649 O 252.116 -1.90763 0.445658 0
M  V30 2650 H 250.696 -0.0554468 0.744939 0
M  V30 2651 H 253.358 0.567968 1.86441 0
M  V30 2652 H 252.454 -0.324913 3.10404 0
M  V30 2653 N 252.755 -1.56801 0.158532 0
M  V30 2654 C 253.995 -1.98383 -0.49229 0
M  V30 2655 C 254.359 -1.04184 -1.61275 0
M  V30 2656 O 255.56 -1.34856 -2.32524 0
M  V30 2657 C 253.831 -3.4385 -0.974766 0
M  V30 2658 S 255.39 -4.07459 -1.62857 0
M  V30 2659 H 252.208 -0.693041 -0.158794 0
M  V30 2660 H 254.81 -1.93856 0.252974 0
M  V30 2661 H 253.514 -4.10131 -0.148688 0
M  V30 2662 H 253.045 -3.52115 -1.75438 0
M  V30 2663 H 255.06 -4.01458 -2.91627 0
M  V30 2664 N 254.233 0.115231 -1.57178 0
M  V30 2665 C 255.461 0.836437 -1.89239 0
M  V30 2666 C 255.876 1.73256 -0.750175 0
M  V30 2667 O 255.233 1.80357 0.278832 0
M  V30 2668 C 255.284 1.66671 -3.20785 0
M  V30 2669 O 255.005 0.806652 -4.3061 0
M  V30 2670 C 256.506 2.49274 -3.66575 0
M  V30 2671 H 253.726 0.240253 -0.626514 0
M  V30 2672 H 256.27 0.0984932 -2.04263 0
M  V30 2673 H 254.425 2.35737 -3.0742 0
M  V30 2674 H 254.839 1.37969 -5.06028 0
M  V30 2675 H 256.313 3.03055 -4.6137 0
M  V30 2676 H 256.79 3.26807 -2.93417 0
M  V30 2677 H 257.396 1.85443 -3.82741 0
M  V30 2678 N 255.711 1.52812 0.385517 0
M  V30 2679 C 256.939 1.71907 1.15133 0
M  V30 2680 C 257.354 0.439004 1.83625 0
M  V30 2681 O 256.711 -0.586765 1.7281 0
M  V30 2682 C 256.762 2.87099 2.19673 0
M  V30 2683 O 256.483 4.10151 1.53973 0
M  V30 2684 C 257.984 3.17902 3.08955 0
M  V30 2685 H 255.204 0.575479 0.345057 0
M  V30 2686 H 257.748 1.99476 0.45052 0
M  V30 2687 H 255.903 2.61982 2.85384 0
M  V30 2688 H 256.317 4.74514 2.23465 0
M  V30 2689 H 257.791 4.01959 3.7833 0
M  V30 2690 H 258.268 2.3243 3.72657 0
M  V30 2691 H 258.874 3.44871 2.48885 0
M  V30 2692 N 257.189 -0.644168 1.43834 0
M  V30 2693 C 258.435 -1.40431 1.47141 0
M  V30 2694 C 258.79 -1.92153 0.0975577 0
M  V30 2695 O 258.083 -1.69924 -0.885232 0
M  V30 2696 C 258.277 -2.59615 2.45631 0
M  V30 2697 C 258.106 -2.1956 3.92458 0
M  V30 2698 C 256.876 -2.07456 4.60749 0
M  V30 2699 C 259.074 -1.79281 4.8204 0
M  V30 2700 N 257.056 -1.60827 5.92459 0
M  V30 2701 C 258.427 -1.43801 6.03093 0
M  V30 2702 C 260.482 -1.66545 4.6922 0
M  V30 2703 C 259.185 -0.968599 7.12749 0
M  V30 2704 C 261.211 -1.21008 5.78888 0
M  V30 2705 C 260.573 -0.864711 6.99072 0
M  V30 2706 H 256.672 -0.509182 0.593513 0
M  V30 2707 H 259.256 -0.740351 1.80075 0
M  V30 2708 H 257.427 -3.23658 2.1471 0
M  V30 2709 H 259.159 -3.26357 2.39318 0
M  V30 2710 H 255.914 -2.275 4.1538 0
M  V30 2711 H 256.338 -1.39848 6.62398 0
M  V30 2712 H 260.98 -1.91883 3.7675 0
M  V30 2713 H 258.698 -0.702715 8.05039 0
M  V30 2714 H 262.284 -1.11631 5.7099 0
M  V30 2715 H 261.164 -0.517736 7.82489 0
M  V30 2716 N 258.668 -1.30515 -0.883378 0
M  V30 2717 C 259.896 -1.22359 -1.66841 0
M  V30 2718 C 260.311 0.213296 -1.87591 0
M  V30 2719 O 259.668 1.14075 -1.42454 0
M  V30 2720 C 259.719 -1.95011 -3.04389 0
M  V30 2721 O 259.44 -3.3309 -2.84575 0
M  V30 2722 C 260.941 -1.93532 -3.98824 0
M  V30 2723 H 258.161 -0.423371 -0.520575 0
M  V30 2724 H 260.705 -1.72167 -1.10357 0
M  V30 2725 H 258.86 -1.48997 -3.57601 0
M  V30 2726 H 259.274 -3.69907 -3.71846 0
M  V30 2727 H 260.748 -2.48902 -4.92699 0
M  V30 2728 H 261.225 -0.914627 -4.29571 0
M  V30 2729 H 261.831 -2.39364 -3.51547 0
M  V30 2730 N 260.146 1.09593 -1.13257 0
M  V30 2731 C 261.079 2.15451 -0.752061 0
M  V30 2732 C 262.057 1.60493 0.260913 0
M  V30 2733 O 263.241 1.8788 0.152819 0
M  V30 2734 C 260.368 3.38506 -0.114594 0
M  V30 2735 C 259.414 4.12183 -1.09579 0
M  V30 2736 S 260.247 4.6661 -2.62745 0
M  V30 2737 C 261.403 5.92966 -2.00354 0
M  V30 2738 H 261.636 2.47395 -1.64872 0
M  V30 2739 H 259.169 1.21515 -0.952545 0
M  V30 2740 H 261.127 4.09757 0.246808 0
M  V30 2741 H 259.788 3.04784 0.759309 0
M  V30 2742 H 258.981 5.00445 -0.597545 0
M  V30 2743 H 258.583 3.46785 -1.40057 0
M  V30 2744 H 260.875 6.63882 -1.35156 0
M  V30 2745 H 261.818 6.47467 -2.86691 0
M  V30 2746 H 262.226 5.45405 -1.4558 0
M  V30 2747 N 261.624 0.925811 1.2754 0
M  V30 2748 C 262.571 0.422045 2.26908 0
M  V30 2749 C 263.541 -0.510029 1.58076 0
M  V30 2750 O 264.726 -0.429599 1.85901 0
M  V30 2751 C 261.866 -0.320837 3.43605 0
M  V30 2752 C 260.979 0.64513 4.27156 0
M  V30 2753 C 260.114 -0.117405 5.3107 0
M  V30 2754 C 259.153 0.841391 6.0629 0
M  V30 2755 N 258.29 0.111604 7.02011 0
M  V30 2756 H 263.13 1.27441 2.69375 0
M  V30 2757 H 260.667 0.639697 1.32462 0
M  V30 2758 H 262.625 -0.76785 4.10073 0
M  V30 2759 H 261.255 -1.13745 3.02096 0
M  V30 2760 H 260.307 1.21067 3.6062 0
M  V30 2761 H 261.619 1.37797 4.79389 0
M  V30 2762 H 260.773 -0.624422 6.03478 0
M  V30 2763 H 259.512 -0.883219 4.79636 0
M  V30 2764 H 258.517 1.35967 5.32722 0
M  V30 2765 H 259.742 1.60696 6.59813 0
M  V30 2766 H 257.688 -0.635999 6.5291 0
M  V30 2767 H 257.605 0.784044 7.51923 0
M  V30 2768 H 258.873 -0.374823 7.78598 0
M  V30 2769 N 263.102 -1.41638 0.69111 0
M  V30 2770 C 264.032 -2.3347 0.037248 0
M  V30 2771 C 265.013 -1.51575 -0.771947 0
M  V30 2772 O 266.198 -1.80126 -0.72582 0
M  V30 2773 C 263.328 -3.35354 -0.903064 0
M  V30 2774 C 262.282 -4.27526 -0.201288 0
M  V30 2775 C 261.608 -5.19747 -1.25565 0
M  V30 2776 C 262.908 -5.13959 0.929689 0
M  V30 2777 H 264.602 -2.88397 0.804227 0
M  V30 2778 H 262.148 -1.38669 0.388189 0
M  V30 2779 H 264.101 -3.98519 -1.36969 0
M  V30 2780 H 262.825 -2.78767 -1.70166 0
M  V30 2781 H 261.484 -3.65779 0.245265 0
M  V30 2782 H 261.132 -4.59479 -2.04666 0
M  V30 2783 H 260.832 -5.8225 -0.791128 0
M  V30 2784 H 262.356 -5.85789 -1.72288 0
M  V30 2785 H 263.77 -5.70718 0.543546 0
M  V30 2786 H 262.167 -5.85379 1.32103 0
M  V30 2787 H 263.237 -4.51389 1.77133 0
M  V30 2788 N 264.58 -0.43555 -1.51462 0
M  V30 2789 C 265.527 0.376797 -2.27703 0
M  V30 2790 C 266.497 1.01838 -1.31219 0
M  V30 2791 O 267.682 1.03762 -1.60119 0
M  V30 2792 C 264.822 1.47301 -3.12084 0
M  V30 2793 C 263.935 0.849744 -4.2356 0
M  V30 2794 C 263.07 1.92086 -4.95254 0
M  V30 2795 C 262.109 1.27593 -5.98654 0
M  V30 2796 N 261.246 2.28833 -6.63762 0
M  V30 2797 H 266.086 -0.279734 -2.96684 0
M  V30 2798 H 263.623 -0.149795 -1.46335 0
M  V30 2799 H 265.581 2.11984 -3.59331 0
M  V30 2800 H 264.211 2.0992 -2.45221 0
M  V30 2801 H 263.263 0.0912529 -3.80291 0
M  V30 2802 H 264.575 0.338878 -4.97648 0
M  V30 2803 H 263.729 2.64435 -5.46039 0
M  V30 2804 H 262.468 2.46545 -4.20793 0
M  V30 2805 H 261.473 0.537893 -5.47162 0
M  V30 2806 H 262.698 0.738693 -6.7507 0
M  V30 2807 H 260.644 2.82375 -5.92115 0
M  V30 2808 H 260.561 1.82632 -7.33608 0
M  V30 2809 H 261.829 3.00671 -7.19178 0
M  V30 2810 N 266.058 1.56714 -0.166846 0
M  V30 2811 C 267.335 1.88412 0.525373 0
M  V30 2812 C 267.715 1.07602 1.81618 0
M  V30 2813 O 267.063 0.168621 2.27877 0
M  V30 2814 C 267.273 3.40363 0.771613 0
M  V30 2815 C 268.621 4.10007 1.1036 0
M  V30 2816 O 269.645 3.45655 0.860304 0
M  V30 2817 O 268.504 5.2369 1.56239 0
M  V30 2818 H 265.598 0.781587 0.270278 0
M  V30 2819 H 268.144 1.68458 -0.204946 0
M  V30 2820 H 266.916 3.91046 -0.141093 0
M  V30 2821 H 266.539 3.65914 1.55541 0
M  V30 2822 N 267.536 -0.106894 1.57237 0
M  V30 2823 C 268.486 -1.1366 1.9765 0
M  V30 2824 C 269.47 -1.36416 0.853203 0
M  V30 2825 O 270.662 -1.37305 1.11697 0
M  V30 2826 C 267.791 -2.46 2.39455 0
M  V30 2827 C 266.877 -2.26668 3.58445 0
M  V30 2828 N 267.268 -1.77176 4.73754 0
M  V30 2829 C 265.566 -2.57279 3.64312 0
M  V30 2830 C 266.267 -1.71836 5.5574 0
M  V30 2831 N 265.243 -2.16623 4.98573 0
M  V30 2832 H 269.045 -0.74669 2.84256 0
M  V30 2833 H 266.559 -0.314483 1.59326 0
M  V30 2834 H 268.556 -3.2049 2.6663 0
M  V30 2835 H 267.216 -2.85738 1.54219 0
M  V30 2836 H 268.227 -1.46545 4.96734 0
M  V30 2837 H 264.904 -3.00622 2.89711 0
M  V30 2838 H 266.294 -1.34723 6.58255 0
M  V30 2839 N 269.014 -1.53014 -0.377408 0
M  V30 2840 C 270.262 -1.6829 -1.11906 0
M  V30 2841 C 270.583 -0.431206 -1.90173 0
M  V30 2842 O 269.853 0.554595 -1.87886 0
M  V30 2843 H 268.433 -0.620371 -0.416112 0
M  V30 2844 H 271.095 -1.90167 -0.426893 0
M  V30 2845 H 270.191 -2.53862 -1.8155 0
M  V30 2846 N 270.492 0.636531 -1.44174 0
M  V30 2847 C 271.439 1.74875 -1.50624 0
M  V30 2848 C 272.409 1.62275 -0.35442 0
M  V30 2849 O 273.594 1.82276 -0.563908 0
M  V30 2850 C 270.734 3.13102 -1.45125 0
M  V30 2851 C 269.847 3.36717 -2.7064 0
M  V30 2852 C 268.982 4.64885 -2.57013 0
M  V30 2853 C 268.021 4.8166 -3.77717 0
M  V30 2854 N 267.158 6.01101 -3.62798 0
M  V30 2855 H 271.998 1.68697 -2.45653 0
M  V30 2856 H 269.535 0.823004 -1.21922 0
M  V30 2857 H 271.493 3.93034 -1.39929 0
M  V30 2858 H 270.123 3.18308 -0.536671 0
M  V30 2859 H 269.175 2.50763 -2.86046 0
M  V30 2860 H 270.487 3.44993 -3.60252 0
M  V30 2861 H 269.641 5.52969 -2.49619 0
M  V30 2862 H 268.38 4.58957 -1.64953 0
M  V30 2863 H 267.385 3.92007 -3.85501 0
M  V30 2864 H 268.61 4.89406 -4.70807 0
M  V30 2865 H 266.556 5.96273 -2.73486 0
M  V30 2866 H 266.473 6.10409 -4.46023 0
M  V30 2867 H 267.741 6.91761 -3.59286 0
M  V30 2868 N 271.97 1.30982 0.876444 0
M  V30 2869 C 272.902 1.13902 1.98894 0
M  V30 2870 C 273.915 0.0798815 1.62604 0
M  V30 2871 O 275.104 0.326743 1.75484 0
M  V30 2872 C 272.204 0.716699 3.31235 0
M  V30 2873 C 271.377 1.85945 3.95908 0
M  V30 2874 C 270.436 1.42426 5.06558 0
M  V30 2875 O 269.462 2.13287 5.27729 0
M  V30 2876 N 270.664 0.308025 5.79682 0
M  V30 2877 H 273.429 2.09724 2.14094 0
M  V30 2878 H 270.99 1.2323 1.05004 0
M  V30 2879 H 272.982 0.408403 4.02634 0
M  V30 2880 H 271.552 -0.149719 3.12241 0
M  V30 2881 H 270.772 2.33541 3.17573 0
M  V30 2882 H 272.06 2.62503 4.35855 0
M  V30 2883 H 271.458 -0.282241 5.64995 0
M  V30 2884 H 270.015 0.0592282 6.51773 0
M  V30 2885 N 273.449 -1.08991 1.13837 0
M  V30 2886 C 274.679 -1.84743 0.924859 0
M  V30 2887 C 275.087 -1.81629 -0.529874 0
M  V30 2888 O 274.43 -1.21397 -1.37872 0
M  V30 2889 C 274.492 -3.33568 1.34061 0
M  V30 2890 C 274.156 -3.60425 2.80968 0
M  V30 2891 C 275.153 -3.55771 3.79108 0
M  V30 2892 C 272.838 -3.88627 3.18236 0
M  V30 2893 C 274.832 -3.78939 5.12527 0
M  V30 2894 C 272.519 -4.11449 4.51833 0
M  V30 2895 C 273.517 -4.06598 5.48787 0
M  V30 2896 O 273.205 -4.28826 6.79973 0
M  V30 2897 H 272.937 -0.590258 0.329502 0
M  V30 2898 H 275.491 -1.38598 1.51591 0
M  V30 2899 H 273.721 -3.80442 0.692853 0
M  V30 2900 H 275.41 -3.90743 1.09886 0
M  V30 2901 H 276.176 -3.34005 3.51661 0
M  V30 2902 H 272.055 -3.91526 2.43369 0
M  V30 2903 H 275.599 -3.75068 5.88192 0
M  V30 2904 H 271.496 -4.32698 4.79002 0
M  V30 2905 H 272.264 -4.46264 6.86142 0
M  V30 2906 N 274.927 -0.932562 -1.27047 0
M  V30 2907 C 275.859 -0.392734 -2.2581 0
M  V30 2908 C 276.872 0.479241 -1.55586 0
M  V30 2909 O 278.061 0.291078 -1.76111 0
M  V30 2910 C 275.161 0.455456 -3.35826 0
M  V30 2911 C 274.334 -0.398355 -4.35582 0
M  V30 2912 C 273.393 0.387985 -5.24768 0
M  V30 2913 O 272.419 -0.206003 -5.68827 0
M  V30 2914 N 273.621 1.68664 -5.55457 0
M  V30 2915 H 276.386 -1.24173 -2.72766 0
M  V30 2916 H 273.947 -0.800511 -1.40725 0
M  V30 2917 H 275.939 0.988692 -3.92437 0
M  V30 2918 H 274.509 1.20522 -2.88432 0
M  V30 2919 H 273.729 -1.11286 -3.78165 0
M  V30 2920 H 275.017 -0.981889 -4.99236 0
M  V30 2921 H 274.415 2.19147 -5.21528 0
M  V30 2922 H 272.972 2.1663 -6.14748 0
M  V30 2923 N 276.405 1.4127 -0.698611 0
M  V30 2924 C 277.368 2.29158 -0.044132 0
M  V30 2925 C 278.368 1.44529 0.704841 0
M  V30 2926 O 279.558 1.65643 0.539276 0
M  V30 2927 C 276.69 3.27459 0.947809 0
M  V30 2928 H 277.883 2.88529 -0.817994 0
M  V30 2929 H 275.436 1.49307 -0.46228 0
M  V30 2930 H 276.171 2.73073 1.74933 0
M  V30 2931 H 275.956 3.8991 0.41385 0
M  V30 2932 H 277.446 3.93311 1.40344 0
M  V30 2933 N 277.883 0.443576 1.51229 0
M  V30 2934 C 279.129 -0.120975 2.02439 0
M  V30 2935 C 279.462 -1.41815 1.32674 0
M  V30 2936 O 278.737 -1.89373 0.443622 0
M  V30 2937 C 279.02 -0.333291 3.58554 0
M  V30 2938 C 278.873 0.982968 4.38928 0
M  V30 2939 C 280.192 -1.10028 4.26124 0
M  V30 2940 H 277.311 -0.0424923 0.735774 0
M  V30 2941 H 279.953 0.583794 1.80809 0
M  V30 2942 H 278.103 -0.933614 3.77115 0
M  V30 2943 H 279.775 1.61775 4.32003 0
M  V30 2944 H 278.018 1.58611 4.03763 0
M  V30 2945 H 278.689 0.788379 5.46341 0
M  V30 2946 H 281.165 -0.591711 4.11871 0
M  V30 2947 H 280.041 -1.21761 5.35225 0
M  V30 2948 H 280.302 -2.12996 3.87408 0
M  V30 2949 N 279.361 -1.56624 0.175154 0
M  V30 2950 C 280.61 -1.96173 -0.468921 0
M  V30 2951 C 280.923 -1.06401 -1.64128 0
M  V30 2952 O 282.129 -1.35648 -2.35185 0
M  V30 2953 C 280.585 -3.48833 -0.885633 0
M  V30 2954 C 280.193 -4.47237 0.261343 0
M  V30 2955 C 281.937 -3.97194 -1.49791 0
M  V30 2956 C 279.844 -5.9114 -0.175214 0
M  V30 2957 H 278.774 -0.732455 -0.178958 0
M  V30 2958 H 281.425 -1.81591 0.263997 0
M  V30 2959 H 279.807 -3.58848 -1.67464 0
M  V30 2960 H 280.981 -4.4894 1.03871 0
M  V30 2961 H 279.296 -4.08956 0.783827 0
M  V30 2962 H 281.893 -5.02167 -1.83665 0
M  V30 2963 H 282.236 -3.40351 -2.39722 0
M  V30 2964 H 282.769 -3.90212 -0.773267 0
M  V30 2965 H 279.508 -6.51865 0.689414 0
M  V30 2966 H 279.028 -5.92735 -0.91786 0
M  V30 2967 H 280.707 -6.44044 -0.617792 0
M  V30 2968 N 280.839 0.0985539 -1.57292 0
M  V30 2969 C 282.088 0.801358 -1.85098 0
M  V30 2970 C 282.401 1.80066 -0.763902 0
M  V30 2971 O 283.607 2.55112 -0.928981 0
M  V30 2972 C 282.063 1.47599 -3.28242 0
M  V30 2973 C 281.671 0.516624 -4.45011 0
M  V30 2974 C 283.415 2.16272 -3.65276 0
M  V30 2975 C 281.322 1.19564 -5.79188 0
M  V30 2976 H 280.252 0.303022 -0.69043 0
M  V30 2977 H 282.903 0.0542623 -1.8342 0
M  V30 2978 H 281.285 2.27042 -3.2445 0
M  V30 2979 H 282.459 -0.246065 -4.60143 0
M  V30 2980 H 280.774 -0.064227 -4.1635 0
M  V30 2981 H 283.371 2.67802 -4.62803 0
M  V30 2982 H 283.714 2.95009 -2.93727 0
M  V30 2983 H 284.247 1.43693 -3.70941 0
M  V30 2984 H 280.986 0.449157 -6.53959 0
M  V30 2985 H 280.506 1.92984 -5.67906 0
M  V30 2986 H 282.185 1.7231 -6.23633 0
M  V30 2987 N 282.317 1.53212 0.369288 0
M  V30 2988 C 283.565 1.68881 1.11012 0
M  V30 2989 C 283.886 0.441285 1.89941 0
M  V30 2990 O 283.156 -0.544623 1.88177 0
M  V30 2991 H 281.736 0.622569 0.412816 0
M  V30 2992 H 284.398 1.90391 0.416802 0
M  V30 2993 H 283.494 2.54822 1.80201 0
M  V30 2994 N 283.795 -0.628877 1.44509 0
M  V30 2995 C 285.02 -1.42048 1.5112 0
M  V30 2996 C 285.445 -1.87594 0.137818 0
M  V30 2997 O 284.803 -1.58873 -0.873437 0
M  V30 2998 C 284.851 -2.61541 2.48251 0
M  V30 2999 O 283.955 -3.61453 1.98559 0
M  V30 3000 H 283.296 -0.424942 0.510216 0
M  V30 3001 H 285.826 -0.767374 1.89664 0
M  V30 3002 H 285.836 -3.09057 2.66361 0
M  V30 3003 H 284.511 -2.27736 3.48007 0
M  V30 3004 H 283.088 -3.20731 1.90227 0
M  V30 3005 N 285.273 -1.31445 -0.869486 0
M  V30 3006 C 286.522 -1.20517 -1.61736 0
M  V30 3007 C 286.835 0.235341 -1.94179 0
M  V30 3008 O 288.041 0.466312 -2.67465 0
M  V30 3009 C 286.497 -2.10982 -2.91573 0
M  V30 3010 C 286.105 -3.60032 -2.66611 0
M  V30 3011 C 287.849 -2.08856 -3.69567 0
M  V30 3012 C 285.756 -4.42503 -3.92358 0
M  V30 3013 H 284.686 -0.447493 -0.606849 0
M  V30 3014 H 287.337 -1.56303 -0.96133 0
M  V30 3015 H 285.719 -1.68095 -3.58553 0
M  V30 3016 H 286.893 -4.11167 -2.08035 0
M  V30 3017 H 285.208 -3.64139 -2.0197 0
M  V30 3018 H 287.805 -2.67716 -4.62852 0
M  V30 3019 H 288.148 -1.07582 -4.02159 0
M  V30 3020 H 288.681 -2.49945 -3.09471 0
M  V30 3021 H 285.42 -5.44533 -3.64916 0
M  V30 3022 H 284.94 -3.96125 -4.50383 0
M  V30 3023 H 286.619 -4.54741 -4.60238 0
M  V30 3024 N 286.751 1.08385 -1.14413 0
M  V30 3025 C 287.999 1.80419 -0.910679 0
M  V30 3026 C 288.32 1.86658 0.564243 0
M  V30 3027 O 287.59 1.35985 1.41014 0
M  V30 3028 H 286.17 0.668204 -0.333934 0
M  V30 3029 H 288.832 1.31037 -1.44275 0
M  V30 3030 H 287.928 2.83238 -1.31082 0
M  V30 3031 N 288.23 0.939286 1.26551 0
M  V30 3032 C 289.476 0.586715 1.94128 0
M  V30 3033 C 289.809 -0.8717 1.73537 0
M  V30 3034 O 289.084 -1.62339 1.07127 0
M  V30 3035 C 289.367 0.927497 3.4795 0
M  V30 3036 C 289.22 2.44052 3.77834 0
M  V30 3037 C 290.539 0.441569 4.37879 0
M  V30 3038 H 287.658 0.21463 0.705055 0
M  V30 3039 H 290.3 1.17316 1.49455 0
M  V30 3040 H 288.45 0.428431 3.8613 0
M  V30 3041 H 290.122 3.01216 3.4938 0
M  V30 3042 H 288.365 2.8848 3.23978 0
M  V30 3043 H 289.036 2.62947 4.85348 0
M  V30 3044 H 291.512 0.869448 4.06915 0
M  V30 3045 H 290.388 0.708856 5.44304 0
M  V30 3046 H 290.649 -0.658467 4.37169 0
M  V30 3047 N 289.708 -1.40897 0.706093 0
M  V30 3048 C 290.656 -2.32572 0.0361893 0
M  V30 3049 C 291.65 -1.51532 -0.757266 0
M  V30 3050 O 292.856 -1.67396 -0.661703 0
M  V30 3051 H 289.231 -0.751966 -0.00709935 0
M  V30 3052 H 291.202 -2.86733 0.826249 0
M  V30 3053 C 289.951 -3.36418 -0.87854 0
M  V30 3054 H 289.274 -3.98836 -0.277401 0
M  V30 3055 H 290.714 -4.0308 -1.3154 0
M  V30 3056 C 289.173 -2.71141 -1.99961 0
M  V30 3057 O 289.703 -2.56735 -3.0895 0
M  V30 3058 N 287.909 -2.29671 -1.78043 0
M  V30 3059 H 287.456 -2.41588 -0.894042 0
M  V30 3060 H 287.414 -1.86332 -2.53235 0
M  V30 3061 N 291.186 -0.45159 -1.50991 0
M  V30 3062 C 292.597 0.00818571 -1.86698 0
M  V30 3063 C 292.948 1.40661 -1.3678 0
M  V30 3064 O 292.073 2.0391 -0.724546 0
M  V30 3065 C 292.668 0.0216303 -3.38793 0
M  V30 3066 C 291.227 0.425865 -3.73983 0
M  V30 3067 C 290.374 -0.372163 -2.74791 0
M  V30 3068 H 293.325 -0.666785 -1.44013 0
M  V30 3069 H 293.346 0.828078 -3.7138 0
M  V30 3070 H 292.858 -0.996288 -3.75094 0
M  V30 3071 H 290.959 1.44886 -3.43277 0
M  V30 3072 H 291.072 0.140761 -4.78893 0
M  V30 3073 H 289.436 0.171498 -2.54122 0
M  V30 3074 H 290.219 -1.38922 -3.13935 0
M  V30 3075 N 292.664 1.56529 -0.183458 0
M  V30 3076 C 293.912 1.96855 0.457452 0
M  V30 3077 C 294.233 1.07104 1.62953 0
M  V30 3078 O 293.503 0.139887 1.954 0
M  V30 3079 H 292.083 0.72693 0.171992 0
M  V30 3080 H 294.745 1.93056 -0.267476 0
M  V30 3081 H 293.841 3.01423 0.809368 0
M  V30 3082 N 294.142 -0.090211 1.57342 0
M  V30 3083 C 295.372 -0.805055 1.90269 0
M  V30 3084 C 295.78 -1.72561 0.775842 0
M  V30 3085 O 295.123 -1.81839 -0.260843 0
M  V30 3086 C 295.185 -1.66734 3.18497 0
M  V30 3087 C 294.849 -0.918092 4.47683 0
M  V30 3088 C 295.846 -0.245674 5.19319 0
M  V30 3089 C 293.531 -0.890724 4.94339 0
M  V30 3090 C 295.525 0.444088 6.35851 0
M  V30 3091 C 293.212 -0.197179 6.10782 0
M  V30 3092 C 294.21 0.469044 6.81388 0
M  V30 3093 O 293.898 1.15146 7.95611 0
M  V30 3094 H 293.63 -0.235143 0.633785 0
M  V30 3095 H 296.184 -0.0703805 2.05279 0
M  V30 3096 H 294.414 -2.44437 2.99646 0
M  V30 3097 H 296.103 -2.25919 3.37217 0
M  V30 3098 H 296.869 -0.258246 4.84312 0
M  V30 3099 H 292.748 -1.39873 4.39268 0
M  V30 3100 H 296.292 0.964667 6.90898 0
M  V30 3101 H 292.189 -0.18247 6.45242 0
M  V30 3102 H 292.957 1.05885 8.11622 0
M  V30 3103 N 295.62 -1.53406 -0.361157 0
M  V30 3104 C 296.567 -1.80156 -1.44265 0
M  V30 3105 C 297.537 -0.646183 -1.53015 0
M  V30 3106 O 298.722 -0.888818 -1.68833 0
M  V30 3107 C 295.862 -2.00116 -2.81154 0
M  V30 3108 C 294.975 -3.27833 -2.81335 0
M  V30 3109 C 294.11 -3.37957 -4.09828 0
M  V30 3110 C 293.149 -4.59689 -4.04168 0
M  V30 3111 N 292.286 -4.66942 -5.24318 0
M  V30 3112 H 297.126 -2.72438 -1.20754 0
M  V30 3113 H 294.663 -1.34954 -0.585296 0
M  V30 3114 H 296.621 -2.09677 -3.60682 0
M  V30 3115 H 295.251 -1.11167 -3.03054 0
M  V30 3116 H 294.303 -3.27204 -1.94014 0
M  V30 3117 H 295.615 -4.17442 -2.73027 0
M  V30 3118 H 294.769 -3.46853 -4.97773 0
M  V30 3119 H 293.508 -2.46372 -4.20894 0
M  V30 3120 H 292.513 -4.50889 -3.14609 0
M  V30 3121 H 293.738 -5.5262 -3.947 0
M  V30 3122 H 291.684 -3.7826 -5.35962 0
M  V30 3123 H 291.601 -5.50462 -5.18197 0
M  V30 3124 H 292.869 -4.80127 -6.14084 0
M  V30 3125 N 297.098 0.621204 -1.44841 0
M  V30 3126 C 298.028 1.74366 -1.55303 0
M  V30 3127 C 299.009 1.65199 -0.405385 0
M  V30 3128 O 300.194 1.83807 -0.626787 0
M  V30 3129 C 297.324 3.12931 -1.50637 0
M  V30 3130 C 296.278 3.36896 -2.63979 0
M  V30 3131 C 295.604 4.75594 -2.44366 0
M  V30 3132 C 296.904 3.28483 -4.06074 0
M  V30 3133 H 298.598 1.65867 -2.49256 0
M  V30 3134 H 296.144 0.796558 -1.19962 0
M  V30 3135 H 298.097 3.9124 -1.56555 0
M  V30 3136 H 296.821 3.22237 -0.532057 0
M  V30 3137 H 295.48 2.60972 -2.57467 0
M  V30 3138 H 295.128 4.81616 -1.45105 0
M  V30 3139 H 294.828 4.92586 -3.20364 0
M  V30 3140 H 296.352 5.5612 -2.52117 0
M  V30 3141 H 297.766 3.96684 -4.13902 0
M  V30 3142 H 296.163 3.57008 -4.82354 0
M  V30 3143 H 297.233 2.26133 -4.28943 0
M  V30 3144 N 298.576 1.31904 0.862503 0
M  V30 3145 C 299.822 1.22197 1.61851 0
M  V30 3146 C 300.155 -0.217641 1.92977 0
M  V30 3147 O 299.43 -1.15264 1.56666 0
M  V30 3148 C 299.713 2.07378 2.94391 0
M  V30 3149 C 299.566 3.59678 2.70096 0
M  V30 3150 C 300.885 1.92891 3.95577 0
M  V30 3151 H 298.004 0.445255 0.587296 0
M  V30 3152 H 300.646 1.6177 0.99651 0
M  V30 3153 H 298.796 1.73758 3.47477 0
M  V30 3154 H 300.468 4.03472 2.23625 0
M  V30 3155 H 298.711 3.82735 2.04197 0
M  V30 3156 H 299.382 4.14595 3.64438 0
M  V30 3157 H 301.858 2.22327 3.51724 0
M  V30 3158 H 300.734 2.54781 4.86187 0
M  V30 3159 H 300.995 0.894315 4.3296 0
M  V30 3160 N 300.054 -1.07777 1.14986 0
M  V30 3161 C 301.331 -1.7699 0.832695 0
M  V30 3162 C 301.711 -2.001 -0.672561 0
M  V30 3163 O 301.059 -1.61598 -1.6155 0
M  V30 3164 C 301.269 -3.08139 1.63863 0
M  V30 3165 C 302.617 -3.8256 1.84208 0
M  V30 3166 O 303.641 -3.17939 1.60603 0
M  V30 3167 O 302.5 -4.98612 2.23714 0
M  V30 3168 H 299.594 -0.768389 0.305791 0
M  V30 3169 H 302.14 -1.14182 1.25541 0
M  V30 3170 H 300.912 -2.86909 2.6608 0
M  V30 3171 H 300.535 -3.78678 1.21197 0
M  V30 3172 N 301.532 -0.945985 -1.26051 0
M  V30 3173 C 302.48 -0.450259 -2.282 0
M  V30 3174 C 303.474 0.47497 -1.62605 0
M  V30 3175 O 304.68 0.352653 -1.76512 0
M  V30 3176 H 301.055 -0.127081 -0.741184 0
M  V30 3177 H 303.026 -1.32422 -2.67408 0
M  V30 3178 C 301.775 0.26467 -3.46691 0
M  V30 3179 H 301.098 -0.438123 -3.97392 0
M  V30 3180 H 302.538 0.575678 -4.20074 0
M  V30 3181 C 300.997 1.48416 -3.02447 0
M  V30 3182 O 301.527 2.58227 -3.07704 0
M  V30 3183 N 299.733 1.34243 -2.57735 0
M  V30 3184 H 299.28 0.448994 -2.53657 0
M  V30 3185 H 299.238 2.15957 -2.28495 0
M  V30 3186 N 303.011 1.40521 -0.713556 0
M  V30 3187 C 304.26 2.00155 -0.249192 0
M  V30 3188 C 304.573 1.57224 1.16362 0
M  V30 3189 O 305.779 2.09542 1.72639 0
M  V30 3190 C 304.235 3.5773 -0.3946 0
M  V30 3191 C 303.843 4.09635 -1.81392 0
M  V30 3192 C 305.587 4.24499 0.00907364 0
M  V30 3193 C 303.494 5.59707 -1.91003 0
M  V30 3194 H 302.424 0.74868 -0.0894114 0
M  V30 3195 H 305.075 1.60784 -0.884352 0
M  V30 3196 H 303.457 3.94792 0.30911 0
M  V30 3197 H 304.631 3.83955 -2.54785 0
M  V30 3198 H 302.946 3.55456 -2.16888 0
M  V30 3199 H 305.543 5.34683 -0.0420404 0
M  V30 3200 H 305.886 4.02824 1.05065 0
M  V30 3201 H 306.419 3.92536 -0.645007 0
M  V30 3202 H 303.158 5.86234 -2.93275 0
M  V30 3203 H 302.678 5.87258 -1.22019 0
M  V30 3204 H 304.357 6.24776 -1.6812 0
M  V30 3205 N 304.489 0.459591 1.5075 0
M  V30 3206 C 305.717 -0.0973749 2.06671 0
M  V30 3207 C 306.132 -1.34524 1.32472 0
M  V30 3208 O 305.489 -1.7827 0.390634 0
M  V30 3209 C 305.54 -0.39714 3.59312 0
M  V30 3210 O 305.261 0.801214 4.30711 0
M  V30 3211 C 306.762 -1.00234 4.31819 0
M  V30 3212 H 303.982 0.00195854 0.670997 0
M  V30 3213 H 306.526 0.645072 1.94059 0
M  V30 3214 H 304.681 -1.08951 3.71764 0
M  V30 3215 H 305.095 0.538857 5.21725 0
M  V30 3216 H 306.569 -1.16193 5.39632 0
M  V30 3217 H 307.046 -1.98939 3.91561 0
M  V30 3218 H 307.652 -0.348699 4.23868 0
M  V30 3219 N 305.967 -1.56429 0.191757 0
M  V30 3220 C 307.197 -2.01574 -0.452928 0
M  V30 3221 C 307.605 -1.07107 -1.55964 0
M  V30 3222 O 306.948 -0.067534 -1.83576 0
M  V30 3223 C 307.01 -3.43121 -1.07278 0
M  V30 3224 C 306.674 -4.56879 -0.105214 0
M  V30 3225 C 307.671 -5.15379 0.684149 0
M  V30 3226 C 305.356 -5.023 0.00489824 0
M  V30 3227 C 307.35 -6.17746 1.57062 0
M  V30 3228 C 305.037 -6.04511 0.894935 0
M  V30 3229 C 306.035 -6.62108 1.67637 0
M  V30 3230 O 305.723 -7.62335 2.55149 0
M  V30 3231 H 305.455 -0.665554 -0.118379 0
M  V30 3232 H 308.009 -2.03245 0.296737 0
M  V30 3233 H 306.239 -3.38425 -1.87097 0
M  V30 3234 H 307.928 -3.72093 -1.62177 0
M  V30 3235 H 308.694 -4.81157 0.609365 0
M  V30 3236 H 304.573 -4.57168 -0.593156 0
M  V30 3237 H 308.117 -6.6263 2.181 0
M  V30 3238 H 304.014 -6.38157 0.970847 0
M  V30 3239 H 304.782 -7.79741 2.48892 0
M  V30 3240 N 307.445 0.0818655 -1.57387 0
M  V30 3241 C 308.856 0.634871 -1.75574 0
M  V30 3242 C 309.207 1.78435 -0.815809 0
M  V30 3243 O 308.332 2.164 0.0025366 0
M  V30 3244 C 308.927 1.15845 -3.18379 0
M  V30 3245 C 307.486 1.65741 -3.37945 0
M  V30 3246 C 306.633 0.572549 -2.71325 0
M  V30 3247 H 309.584 -0.144268 -1.58043 0
M  V30 3248 H 309.605 2.02751 -3.21982 0
M  V30 3249 H 309.117 0.321631 -3.86765 0
M  V30 3250 H 307.218 2.51781 -2.74658 0
M  V30 3251 H 307.331 1.74129 -4.46336 0
M  V30 3252 H 305.695 1.01518 -2.33594 0
M  V30 3253 H 306.478 -0.253918 -3.4236 0
M  V30 3254 N 308.923 1.53595 0.353017 0
M  V30 3255 C 309.87 1.80919 1.43308 0
M  V30 3256 C 310.84 0.654288 1.5267 0
M  V30 3257 O 312.025 0.897759 1.6836 0
M  V30 3258 C 309.165 2.01605 2.80089 0
M  V30 3259 C 308.278 3.29321 2.79593 0
M  V30 3260 C 307.413 3.40125 4.0803 0
M  V30 3261 C 306.452 4.61826 4.01725 0
M  V30 3262 N 305.589 4.69716 5.21834 0
M  V30 3263 H 310.429 2.73074 1.19308 0
M  V30 3264 H 307.966 1.35263 0.578131 0
M  V30 3265 H 309.924 2.11586 3.59565 0
M  V30 3266 H 308.554 1.12772 3.0246 0
M  V30 3267 H 307.606 3.28229 1.92276 0
M  V30 3268 H 308.918 4.18884 2.70809 0
M  V30 3269 H 308.072 3.49488 4.95927 0
M  V30 3270 H 306.811 2.48601 4.19582 0
M  V30 3271 H 305.816 4.52552 3.12213 0
M  V30 3272 H 307.041 5.54705 3.91764 0
M  V30 3273 H 304.987 3.81097 5.33948 0
M  V30 3274 H 304.904 5.53202 5.1527 0
M  V30 3275 H 306.172 4.83376 6.11529 0
M  V30 3276 N 310.401 -0.613514 1.45168 0
M  V30 3277 C 311.65 -1.36874 1.4815 0
M  V30 3278 C 311.963 -1.952 0.124982 0
M  V30 3279 O 313.169 -2.71481 0.0324176 0
M  V30 3280 C 311.625 -2.47905 2.60904 0
M  V30 3281 C 311.233 -1.96016 4.02842 0
M  V30 3282 C 312.977 -3.24965 2.73126 0
M  V30 3283 C 310.884 -3.04494 5.06988 0
M  V30 3284 H 309.814 -0.514428 0.551253 0
M  V30 3285 H 312.465 -0.658182 1.7129 0
M  V30 3286 H 310.847 -3.21618 2.31037 0
M  V30 3287 H 312.021 -1.29051 4.4236 0
M  V30 3288 H 310.336 -1.31719 3.95018 0
M  V30 3289 H 312.933 -4.05865 3.48106 0
M  V30 3290 H 313.276 -3.75588 1.79553 0
M  V30 3291 H 313.809 -2.5835 3.0249 0
M  V30 3292 H 310.548 -2.58795 6.0225 0
M  V30 3293 H 310.068 -3.70044 4.72046 0
M  V30 3294 H 311.747 -3.68976 5.31475 0
M  V30 3295 N 311.879 -1.3236 -0.855495 0
M  V30 3296 C 312.842 -1.21164 -1.94556 0
M  V30 3297 C 313.842 -0.134908 -1.60233 0
M  V30 3298 O 315.032 -0.385249 -1.69887 0
M  V30 3299 C 312.164 -0.863192 -3.29791 0
M  V30 3300 H 313.357 -2.18038 -2.05911 0
M  V30 3301 H 310.91 -1.16179 -1.04557 0
M  V30 3302 H 311.645 0.103769 -3.24134 0
M  V30 3303 H 311.43 -1.64166 -3.56078 0
M  V30 3304 H 312.92 -0.809156 -4.09686 0
M  V30 3305 N 313.357 1.07166 -1.15556 0
M  V30 3306 C 314.267 2.17947 -0.868116 0
M  V30 3307 C 315.283 1.73297 0.156297 0
M  V30 3308 O 316.459 2.01392 -0.0182327 0
M  V30 3309 C 313.524 3.44789 -0.36355 0
M  V30 3310 C 312.585 4.03996 -1.45209 0
M  V30 3311 C 311.818 5.24783 -0.971508 0
M  V30 3312 O 312.041 5.70109 0.182194 0
M  V30 3313 O 310.975 5.75715 -1.75603 0
M  V30 3314 H 314.801 2.4503 -1.79427 0
M  V30 3315 H 312.386 1.16539 -0.934824 0
M  V30 3316 H 314.268 4.21307 -0.0887113 0
M  V30 3317 H 312.943 3.19253 0.534708 0
M  V30 3318 H 311.85 3.29009 -1.78056 0
M  V30 3319 H 313.183 4.33808 -2.32533 0
M  V30 3320 N 314.835 0.952656 1.25548 0
M  V30 3321 C 316.112 0.523818 1.88456 0
M  V30 3322 C 316.492 -0.998871 1.85973 0
M  V30 3323 O 315.84 -1.86381 1.3219 0
M  V30 3324 C 316.05 1.0982 3.31271 0
M  V30 3325 C 317.398 1.17385 4.08051 0
M  V30 3326 O 318.422 1.04961 3.40384 0
M  V30 3327 O 317.281 1.36852 5.29088 0
M  V30 3328 H 314.375 0.172485 0.808813 0
M  V30 3329 H 316.921 1.04596 1.33633 0
M  V30 3330 H 315.693 2.1415 3.27499 0
M  V30 3331 H 315.316 0.559191 3.93648 0
M  V30 3332 N 316.313 -1.40141 0.720998 0
M  V30 3333 C 317.543 -2.04798 0.27226 0
M  V30 3334 C 317.951 -1.54442 -1.09289 0
M  V30 3335 O 317.294 -0.698342 -1.69908 0
M  V30 3336 C 317.356 -3.59048 0.18027 0
M  V30 3337 C 317.02 -4.32317 1.48159 0
M  V30 3338 C 318.017 -4.59902 2.42458 0
M  V30 3339 C 315.702 -4.71125 1.74202 0
M  V30 3340 C 317.696 -5.25288 3.61042 0
M  V30 3341 C 315.383 -5.36242 2.93066 0
M  V30 3342 C 316.381 -5.63254 3.86308 0
M  V30 3343 O 316.069 -6.27024 5.03086 0
M  V30 3344 H 315.801 -0.665419 0.119139 0
M  V30 3345 H 318.355 -1.80436 0.981432 0
M  V30 3346 H 316.585 -3.82251 -0.58489 0
M  V30 3347 H 318.274 -4.05221 -0.234618 0
M  V30 3348 H 319.04 -4.30379 2.23604 0
M  V30 3349 H 314.919 -4.49466 1.02477 0
M  V30 3350 H 318.463 -5.46289 4.33837 0
M  V30 3351 H 314.36 -5.65185 3.11826 0
M  V30 3352 H 315.128 -6.4552 5.03235 0
M  V30 3353 N 317.792 -0.46758 -1.50504 0
M  V30 3354 C 318.739 0.328413 -2.28452 0
M  V30 3355 C 319.709 0.990313 -1.33349 0
M  V30 3356 O 320.894 1.00343 -1.62284 0
M  V30 3357 C 318.034 1.40648 -3.15138 0
M  V30 3358 C 317.147 0.759709 -4.25267 0
M  V30 3359 C 316.282 1.81537 -4.99217 0
M  V30 3360 C 315.321 1.14866 -6.01226 0
M  V30 3361 N 314.458 2.14702 -6.68467 0
M  V30 3362 H 319.298 -0.342603 -2.96024 0
M  V30 3363 H 316.835 -0.180801 -1.45985 0
M  V30 3364 H 318.793 2.04315 -3.63746 0
M  V30 3365 H 317.423 2.04671 -2.49619 0
M  V30 3366 H 316.475 0.0105671 -3.80399 0
M  V30 3367 H 317.787 0.233243 -4.98254 0
M  V30 3368 H 316.941 2.52793 -5.51526 0
M  V30 3369 H 315.68 2.37564 -4.25928 0
M  V30 3370 H 314.685 0.42171 -5.4818 0
M  V30 3371 H 315.91 0.595334 -6.76485 0
M  V30 3372 H 313.856 2.69752 -5.97972 0
M  V30 3373 H 313.773 1.6703 -7.37317 0
M  V30 3374 H 315.041 2.85348 -7.25394 0
M  V30 3375 N 319.27 1.56325 -0.20005 0
M  V30 3376 C 320.22 2.15939 0.731743 0
M  V30 3377 C 321.204 1.10154 1.17281 0
M  V30 3378 O 322.396 1.36203 1.13038 0
M  V30 3379 C 319.525 2.82614 1.94895 0
M  V30 3380 C 318.611 3.95596 1.52855 0
M  V30 3381 N 319.002 4.99118 0.819418 0
M  V30 3382 C 317.3 4.07288 1.81748 0
M  V30 3383 C 318.001 5.78513 0.608053 0
M  V30 3384 N 316.977 5.31117 1.15828 0
M  V30 3385 H 320.779 2.9334 0.181285 0
M  V30 3386 H 318.293 1.624 -0.000452172 0
M  V30 3387 H 320.29 3.23718 2.62702 0
M  V30 3388 H 318.95 2.06702 2.50408 0
M  V30 3389 H 319.961 5.15723 0.47436 0
M  V30 3390 H 316.638 3.42509 2.38734 0
M  V30 3391 H 318.028 6.71885 0.0451619 0
M  V30 3392 N 320.748 -0.0735177 1.57428 0
M  V30 3393 C 321.973 -0.789787 1.91774 0
M  V30 3394 C 322.398 -1.70413 0.796306 0
M  V30 3395 O 321.756 -1.79555 -0.250961 0
M  V30 3396 C 321.804 -1.5609 3.25067 0
M  V30 3397 O 320.908 -2.67144 3.14178 0
M  V30 3398 H 320.249 -0.215582 0.628029 0
M  V30 3399 H 322.779 -0.0422781 2.04556 0
M  V30 3400 H 322.789 -1.94052 3.58898 0
M  V30 3401 H 321.464 -0.890015 4.06265 0
M  V30 3402 H 320.041 -2.32052 2.91901 0
M  V30 3403 N 322.226 -1.5378 -0.344866 0
M  V30 3404 C 323.475 -1.7018 -1.08267 0
M  V30 3405 C 323.788 -0.471 -1.89845 0
M  V30 3406 O 324.994 -0.515917 -2.66553 0
M  V30 3407 C 323.45 -3.00923 -1.97417 0
M  V30 3408 C 323.058 -4.31335 -1.21053 0
M  V30 3409 C 324.802 -3.26688 -2.71063 0
M  V30 3410 C 322.709 -5.53153 -2.09225 0
M  V30 3411 H 321.639 -0.634138 -0.407903 0
M  V30 3412 H 324.29 -1.8028 -0.342246 0
M  V30 3413 H 322.672 -2.84676 -2.75274 0
M  V30 3414 H 323.846 -4.58281 -0.481159 0
M  V30 3415 H 322.161 -4.12173 -0.591813 0
M  V30 3416 H 324.758 -4.1489 -3.37299 0
M  V30 3417 H 325.101 -2.43639 -3.37558 0
M  V30 3418 H 325.634 -3.43705 -2.0028 0
M  V30 3419 H 322.373 -6.38741 -1.47274 0
M  V30 3420 H 321.893 -5.30458 -2.79955 0
M  V30 3421 H 323.572 -5.88744 -2.68308 0
M  V30 3422 N 323.704 0.605807 -1.45491 0
M  V30 3423 C 324.651 1.7164 -1.54299 0
M  V30 3424 C 325.621 1.61486 -0.388761 0
M  V30 3425 O 326.806 1.81039 -0.602445 0
M  V30 3426 C 323.946 3.09953 -1.51734 0
M  V30 3427 C 323.059 3.309 -2.77721 0
M  V30 3428 C 322.194 4.59329 -2.66816 0
M  V30 3429 C 321.233 4.7354 -3.87848 0
M  V30 3430 N 320.37 5.9327 -3.75467 0
M  V30 3431 H 325.21 1.63449 -2.49176 0
M  V30 3432 H 322.747 0.796957 -1.23641 0
M  V30 3433 H 324.705 3.89977 -1.48235 0
M  V30 3434 H 323.335 3.17098 -0.604068 0
M  V30 3435 H 322.387 2.44639 -2.913 0
M  V30 3436 H 323.699 3.37274 -3.67488 0
M  V30 3437 H 322.853 5.4755 -2.61292 0
M  V30 3438 H 321.592 4.55355 -1.74651 0
M  V30 3439 H 320.597 3.83741 -3.93729 0
M  V30 3440 H 321.822 4.79309 -4.81082 0
M  V30 3441 H 319.768 5.90338 -2.86072 0
M  V30 3442 H 319.685 6.00811 -4.5887 0
M  V30 3443 H 320.953 6.83984 -3.73879 0
M  V30 3444 N 325.182 1.32811 0.848464 0
M  V30 3445 C 326.428 1.23907 1.60546 0
M  V30 3446 C 326.761 -0.197161 1.93197 0
M  V30 3447 O 326.036 -1.13596 1.5788 0
M  V30 3448 C 326.319 2.10489 2.92175 0
M  V30 3449 C 326.172 3.62522 2.66266 0
M  V30 3450 C 327.491 1.97075 3.93509 0
M  V30 3451 H 324.61 0.451459 0.58254 0
M  V30 3452 H 327.252 1.62818 0.979296 0
M  V30 3453 H 325.402 1.77434 3.45614 0
M  V30 3454 H 327.074 4.05821 2.19334 0
M  V30 3455 H 325.317 3.84879 2.00126 0
M  V30 3456 H 325.988 4.18437 3.6002 0
M  V30 3457 H 328.464 2.26045 3.49346 0
M  V30 3458 H 327.34 2.59923 4.83457 0
M  V30 3459 H 327.601 0.940186 4.31987 0
M  V30 3460 N 326.66 -1.06551 1.16123 0
M  V30 3461 C 327.59 -2.15935 0.88851 0
M  V30 3462 C 328.571 -1.69306 -0.164135 0
M  V30 3463 O 329.756 -1.94193 -0.0167857 0
M  V30 3464 C 326.886 -3.45149 0.385942 0
M  V30 3465 C 325.84 -4.05271 1.3762 0
M  V30 3466 C 325.166 -5.29664 0.732137 0
M  V30 3467 C 326.466 -4.44355 2.74493 0
M  V30 3468 H 328.16 -2.39006 1.80323 0
M  V30 3469 H 325.706 -1.14866 0.868435 0
M  V30 3470 H 327.659 -4.21004 0.182647 0
M  V30 3471 H 326.383 -3.21689 -0.564274 0
M  V30 3472 H 325.042 -3.3147 1.56599 0
M  V30 3473 H 324.69 -5.02499 -0.224483 0
M  V30 3474 H 324.39 -5.70848 1.39307 0
M  V30 3475 H 325.914 -6.08218 0.538802 0
M  V30 3476 H 327.328 -5.11303 2.59311 0
M  V30 3477 H 325.725 -4.96515 3.37035 0
M  V30 3478 H 326.795 -3.55339 3.29943 0
M  V30 3479 N 328.138 -0.959301 -1.25041 0
M  V30 3480 C 329.048 -0.489994 -2.29426 0
M  V30 3481 C 330.064 0.444944 -1.68215 0
M  V30 3482 O 331.24 0.320046 -1.98841 0
M  V30 3483 C 328.305 0.220309 -3.45999 0
M  V30 3484 C 327.366 -0.753418 -4.22637 0
M  V30 3485 C 326.599 -0.076918 -5.33645 0
M  V30 3486 O 326.822 1.13649 -5.58963 0
M  V30 3487 O 325.756 -0.764824 -5.97021 0
M  V30 3488 H 329.582 -1.35755 -2.71669 0
M  V30 3489 H 327.167 -0.725961 -1.30576 0
M  V30 3490 H 329.049 0.619677 -4.16819 0
M  V30 3491 H 327.724 1.06296 -3.0575 0
M  V30 3492 H 326.631 -1.20308 -3.54227 0
M  V30 3493 H 327.964 -1.56423 -4.66683 0
M  V30 3494 N 329.616 1.39756 -0.72842 0
M  V30 3495 C 330.841 2.05472 -0.282159 0
M  V30 3496 C 331.266 1.54549 1.07221 0
M  V30 3497 O 330.624 0.686372 1.67805 0
M  V30 3498 C 330.672 3.59462 -0.286264 0
M  V30 3499 O 329.776 4.05918 0.728298 0
M  V30 3500 H 329.117 0.651226 -0.129618 0
M  V30 3501 H 331.647 1.78915 -0.992499 0
M  V30 3502 H 331.657 4.07798 -0.128373 0
M  V30 3503 H 330.332 3.95889 -1.27456 0
M  V30 3504 H 328.909 3.69012 0.537081 0
M  V30 3505 N 331.094 0.475555 1.50254 0
M  V30 3506 C 332.027 -0.362381 2.25304 0
M  V30 3507 C 333.005 -0.992393 1.28803 0
M  V30 3508 O 334.189 -1.02746 1.58036 0
M  V30 3509 C 331.316 -1.50813 3.03271 0
M  V30 3510 C 330.362 -0.995044 4.1473 0
M  V30 3511 S 331.195 0.0938436 5.35418 0
M  V30 3512 C 332.351 -1.05567 6.16933 0
M  V30 3513 H 332.584 0.274686 2.96028 0
M  V30 3514 H 330.117 0.260495 1.52187 0
M  V30 3515 H 332.075 -2.16476 3.48781 0
M  V30 3516 H 330.736 -2.11672 2.32064 0
M  V30 3517 H 329.929 -1.85293 4.68703 0
M  V30 3518 H 329.531 -0.416052 3.71679 0
M  V30 3519 H 331.823 -1.96636 6.48337 0
M  V30 3520 H 332.766 -0.555109 7.05921 0
M  V30 3521 H 333.174 -1.31151 5.49053 0
M  V30 3522 N 332.573 -1.56217 0.208337 0
M  V30 3523 C 333.989 -1.58919 -0.14729 0
M  V30 3524 C 334.189 -1.22486 -1.59998 0
M  V30 3525 O 333.245 -0.953849 -2.3379 0
M  V30 3526 C 334.558 -3.00236 0.167048 0
M  V30 3527 C 336.106 -3.12813 0.108219 0
M  V30 3528 C 336.581 -4.56284 0.396049 0
M  V30 3529 N 338.072 -4.61912 0.345142 0
M  V30 3530 C 338.807 -5.70837 0.541523 0
M  V30 3531 N 338.303 -6.88178 0.798968 0
M  V30 3532 N 340.096 -5.60091 0.474867 0
M  V30 3533 H 332.247 -1.78177 1.15614 0
M  V30 3534 H 334.51 -0.827555 0.462446 0
M  V30 3535 H 334.216 -3.31499 1.1748 0
M  V30 3536 H 334.09 -3.7354 -0.524184 0
M  V30 3537 H 336.477 -2.81354 -0.890157 0
M  V30 3538 H 336.558 -2.41866 0.832729 0
M  V30 3539 H 336.202 -4.88458 1.3918 0
M  V30 3540 H 336.132 -5.25439 -0.349502 0
M  V30 3541 H 338.623 -3.77589 0.153316 0
M  V30 3542 H 338.936 -7.67095 0.93727 0
M  V30 3543 H 337.281 -6.89953 0.836013 0
M  V30 3544 H 340.472 -4.67297 0.274064 0
M  V30 3545 H 340.645 -6.44917 0.631326 0
M  V30 3546 N 334.051 0.0651679 -1.57465 0
M  V30 3547 C 335.291 0.768329 -1.8941 0
M  V30 3548 C 335.655 1.74406 -0.802894 0
M  V30 3549 O 336.856 2.49281 -1.0056 0
M  V30 3550 C 335.127 1.45199 -3.26576 0
M  V30 3551 S 336.686 2.1893 -3.80283 0
M  V30 3552 H 333.504 0.255359 -0.663561 0
M  V30 3553 H 336.106 0.024167 -1.95485 0
M  V30 3554 H 334.81 0.728123 -4.03889 0
M  V30 3555 H 334.341 2.23545 -3.23715 0
M  V30 3556 H 336.356 3.45551 -3.56102 0
M  V30 3557 N 335.529 1.53961 0.336706 0
M  V30 3558 C 336.806 1.62171 1.09361 0
M  V30 3559 C 337.186 0.447263 2.06307 0
M  V30 3560 O 336.534 -0.559802 2.21537 0
M  V30 3561 C 336.744 2.98565 1.80721 0
M  V30 3562 C 338.092 3.54157 2.34218 0
M  V30 3563 O 339.116 3.00784 1.90807 0
M  V30 3564 O 337.975 4.47528 3.13657 0
M  V30 3565 H 335.069 0.6562 0.503319 0
M  V30 3566 H 337.615 1.66307 0.33765 0
M  V30 3567 H 336.387 3.75482 1.10132 0
M  V30 3568 H 336.01 2.9805 2.63158 0
M  V30 3569 N 337.007 -0.598083 1.45811 0
M  V30 3570 C 338.256 -1.35295 1.49594 0
M  V30 3571 C 338.569 -1.95057 0.145679 0
M  V30 3572 O 339.775 -2.71431 0.0612099 0
M  V30 3573 C 338.231 -2.45124 2.63519 0
M  V30 3574 C 337.839 -1.91732 4.04899 0
M  V30 3575 C 339.583 -3.2205 2.76558 0
M  V30 3576 C 337.49 -2.991 5.1019 0
M  V30 3577 H 336.42 -0.508552 0.556679 0
M  V30 3578 H 339.071 -0.639977 1.71978 0
M  V30 3579 H 337.453 -3.19149 2.34435 0
M  V30 3580 H 338.627 -1.24352 4.43704 0
M  V30 3581 H 336.942 -1.27522 3.96393 0
M  V30 3582 H 339.539 -4.0215 3.52391 0
M  V30 3583 H 339.882 -3.73663 1.83526 0
M  V30 3584 H 340.415 -2.55127 3.05213 0
M  V30 3585 H 337.154 -2.52393 6.04961 0
M  V30 3586 H 336.674 -3.65017 4.75944 0
M  V30 3587 H 338.353 -3.63318 5.35359 0
M  V30 3588 N 338.485 -1.33259 -0.841409 0
M  V30 3589 C 339.732 -1.24572 -1.5965 0
M  V30 3590 C 340.06 0.189137 -1.93578 0
M  V30 3591 O 339.315 1.14566 -1.5866 0
M  V30 3592 C 339.614 -2.06381 -2.9179 0
M  V30 3593 C 339.28 -3.556 -2.77235 0
M  V30 3594 C 337.942 -3.96282 -2.72973 0
M  V30 3595 C 340.294 -4.50433 -2.62221 0
M  V30 3596 C 337.622 -5.30017 -2.51592 0
M  V30 3597 C 339.974 -5.84327 -2.42374 0
M  V30 3598 C 338.638 -6.24194 -2.36512 0
M  V30 3599 H 337.908 -0.455842 -0.5842 0
M  V30 3600 H 340.555 -1.6482 -0.975016 0
M  V30 3601 H 338.86 -1.58903 -3.5813 0
M  V30 3602 H 340.557 -1.97019 -3.49263 0
M  V30 3603 H 337.147 -3.23298 -2.81384 0
M  V30 3604 H 341.331 -4.19914 -2.64549 0
M  V30 3605 H 336.587 -5.59947 -2.45499 0
M  V30 3606 H 340.761 -6.57414 -2.29739 0
M  V30 3607 H 338.388 -7.27759 -2.19706 0
M  V30 3608 N 339.963 1.05934 -1.16686 0
M  V30 3609 C 340.893 2.1546 -0.899949 0
M  V30 3610 C 341.874 1.69391 0.155154 0
M  V30 3611 O 343.059 1.94199 0.00648693 0
M  V30 3612 C 340.189 3.44939 -0.404241 0
M  V30 3613 C 339.143 4.04536 -1.39767 0
M  V30 3614 C 338.469 5.29268 -0.760216 0
M  V30 3615 C 339.769 4.42893 -2.76845 0
M  V30 3616 H 341.463 2.38046 -1.81588 0
M  V30 3617 H 339.009 1.14404 -0.874514 0
M  V30 3618 H 340.962 4.20901 -0.204971 0
M  V30 3619 H 339.686 3.21983 0.547206 0
M  V30 3620 H 338.345 3.30635 -1.58355 0
M  V30 3621 H 337.993 5.02611 0.197831 0
M  V30 3622 H 337.693 5.70101 -1.42332 0
M  V30 3623 H 339.217 6.07924 -0.57105 0
M  V30 3624 H 340.631 5.09921 -2.62019 0
M  V30 3625 H 339.028 4.94721 -3.39663 0
M  V30 3626 H 340.098 3.53584 -3.31823 0
M  V30 3627 N 341.441 0.965919 1.2453 0
M  V30 3628 C 342.689 0.625593 1.92174 0
M  V30 3629 C 343.01 -0.841652 1.75901 0
M  V30 3630 O 342.28 -1.60061 1.12948 0
M  V30 3631 H 340.86 0.228388 0.71123 0
M  V30 3632 H 343.522 1.2266 1.51461 0
M  V30 3633 H 342.618 0.864653 2.99884 0
M  V30 3634 N 342.919 -1.39368 0.735821 0
M  V30 3635 C 344.144 -2.05319 0.293052 0
M  V30 3636 C 344.569 -1.55115 -1.064 0
M  V30 3637 O 343.927 -0.695261 -1.67439 0
M  V30 3638 C 343.975 -3.59305 0.305323 0
M  V30 3639 O 343.079 -4.06299 -0.706761 0
M  V30 3640 H 342.42 -0.650529 0.13307 0
M  V30 3641 H 344.95 -1.78386 1.00197 0
M  V30 3642 H 344.96 -4.07724 0.149997 0
M  V30 3643 H 343.635 -3.95207 1.29553 0
M  V30 3644 H 342.212 -3.69292 -0.517504 0
M  V30 3645 N 344.397 -0.483516 -1.5 0
M  V30 3646 C 345.347 0.32306 -2.257 0
M  V30 3647 C 346.331 0.950755 -1.29805 0
M  V30 3648 O 347.523 0.861247 -1.54634 0
M  V30 3649 C 344.652 1.39724 -3.13579 0
M  V30 3650 C 343.738 0.776663 -4.16928 0
M  V30 3651 N 344.129 -0.1104 -5.0568 0
M  V30 3652 C 342.427 1.03922 -4.33724 0
M  V30 3653 C 343.128 -0.46387 -5.79848 0
M  V30 3654 N 342.104 0.163987 -5.43353 0
M  V30 3655 H 345.906 -0.360086 -2.91686 0
M  V30 3656 H 343.42 -0.298456 -1.59634 0
M  V30 3657 H 345.417 1.98837 -3.66428 0
M  V30 3658 H 344.077 2.08225 -2.49143 0
M  V30 3659 H 345.088 -0.480069 -5.1567 0
M  V30 3660 H 341.765 1.71829 -3.80501 0
M  V30 3661 H 343.155 -1.18854 -6.61304 0
M  V30 3662 N 345.875 1.56104 -0.216619 0
M  V30 3663 C 346.838 2.18819 0.681962 0
M  V30 3664 C 347.838 1.14866 1.12528 0
M  V30 3665 O 349.028 1.40128 1.03488 0
M  V30 3666 C 346.16 2.80756 1.93362 0
M  V30 3667 H 347.353 2.99595 0.135254 0
M  V30 3668 H 344.906 1.56265 0.0330003 0
M  V30 3669 H 345.641 2.03837 2.52232 0
M  V30 3670 H 345.426 3.56876 1.62426 0
M  V30 3671 H 346.916 3.28844 2.57393 0
M  V30 3672 N 347.353 -0.0568162 1.57498 0
M  V30 3673 C 348.601 -0.751617 1.87604 0
M  V30 3674 C 348.922 -1.77351 0.81066 0
M  V30 3675 O 348.192 -1.95254 -0.159018 0
M  V30 3676 H 346.772 -0.280583 0.692302 0
M  V30 3677 H 349.434 -0.0293483 1.94878 0
M  V30 3678 H 348.53 -1.25852 2.856 0
M  V30 3679 N 348.832 -1.54138 -0.328536 0
M  V30 3680 C 349.765 -1.78014 -1.4278 0
M  V30 3681 C 350.743 -0.629889 -1.49904 0
M  V30 3682 O 351.927 -0.866763 -1.6739 0
M  V30 3683 C 349.054 -1.89225 -2.80912 0
M  V30 3684 C 348.1 -3.11483 -2.91343 0
M  V30 3685 S 348.933 -4.70201 -2.56263 0
M  V30 3686 C 350.089 -4.84312 -3.96476 0
M  V30 3687 H 350.322 -2.70974 -1.22313 0
M  V30 3688 H 347.855 -1.45197 -0.525084 0
M  V30 3689 H 349.813 -1.9637 -3.60485 0
M  V30 3690 H 348.474 -0.972518 -2.98665 0
M  V30 3691 H 347.667 -3.16046 -3.92595 0
M  V30 3692 H 347.269 -3.02642 -2.19736 0
M  V30 3693 H 349.561 -4.66643 -4.91173 0
M  V30 3694 H 350.504 -5.86411 -3.96898 0
M  V30 3695 H 350.912 -4.12652 -3.85199 0
M  V30 3696 N 350.31 0.590341 -1.46126 0
M  V30 3697 C 351.557 1.34882 -1.5104 0
M  V30 3698 C 351.885 1.93849 -0.159021 0
M  V30 3699 O 351.14 1.76544 0.844436 0
M  V30 3700 C 351.439 2.5032 -2.55097 0
M  V30 3701 C 351.105 2.09394 -3.99331 0
M  V30 3702 C 349.767 1.97947 -4.38601 0
M  V30 3703 C 352.119 1.77712 -4.89967 0
M  V30 3704 C 349.447 1.53065 -5.66381 0
M  V30 3705 C 351.799 1.34312 -6.18177 0
M  V30 3706 C 350.463 1.21436 -6.56361 0
M  V30 3707 H 349.733 0.493568 -0.552695 0
M  V30 3708 H 352.38 0.665539 -1.79563 0
M  V30 3709 H 350.685 3.24062 -2.20207 0
M  V30 3710 H 352.382 3.08541 -2.56132 0
M  V30 3711 H 348.972 2.19235 -3.68285 0
M  V30 3712 H 353.156 1.85445 -4.60352 0
M  V30 3713 H 348.412 1.41733 -5.94745 0
M  V30 3714 H 352.586 1.08849 -6.87841 0
M  V30 3715 H 350.213 0.864345 -7.5527 0
M  V30 3716 N 351.788 1.33704 0.83433 0
M  V30 3717 C 353.065 1.16011 1.57483 0
M  V30 3718 C 353.445 -0.27176 2.09343 0
M  V30 3719 O 352.793 -1.27146 1.89858 0
M  V30 3720 C 353.003 2.20507 2.70514 0
M  V30 3721 C 354.351 2.54898 3.39577 0
M  V30 3722 O 355.375 2.19209 2.80759 0
M  V30 3723 O 354.234 3.16158 4.45765 0
M  V30 3724 H 351.328 0.448992 0.694503 0
M  V30 3725 H 353.874 1.453 0.876691 0
M  V30 3726 H 352.646 3.16667 2.29865 0
M  V30 3727 H 352.269 1.92329 3.47987 0
M  V30 3728 N 353.266 -1.05314 1.17247 0
M  V30 3729 C 354.196 -2.1498 0.911362 0
M  V30 3730 C 355.177 -1.69471 -0.146169 0
M  V30 3731 O 356.362 -1.942 0.003812 0
M  V30 3732 C 353.492 -3.4472 0.422528 0
M  V30 3733 C 352.446 -4.03789 1.4191 0
M  V30 3734 C 351.772 -5.28858 0.788274 0
M  V30 3735 C 353.072 -4.41418 2.7919 0
M  V30 3736 H 354.766 -2.3708 1.82848 0
M  V30 3737 H 352.312 -1.13938 0.880569 0
M  V30 3738 H 354.265 -4.20787 0.227289 0
M  V30 3739 H 352.989 -3.22269 -0.530123 0
M  V30 3740 H 351.648 -3.2979 1.60106 0
M  V30 3741 H 351.296 -5.02709 -0.171173 0
M  V30 3742 H 350.996 -5.69338 1.45353 0
M  V30 3743 H 352.52 -6.07612 0.603282 0
M  V30 3744 H 353.934 -5.08524 2.64719 0
M  V30 3745 H 352.331 -4.92913 3.42282 0
M  V30 3746 H 353.401 -3.51819 3.33693 0
M  V30 3747 N 354.744 -0.972509 -1.24016 0
M  V30 3748 C 355.691 -0.505969 -2.25186 0
M  V30 3749 C 356.661 0.451009 -1.5986 0
M  V30 3750 O 357.846 0.360307 -1.87367 0
M  V30 3751 C 354.986 0.193089 -3.44559 0
M  V30 3752 C 354.099 -0.803222 -4.24467 0
M  V30 3753 C 353.234 -0.0797793 -5.3114 0
M  V30 3754 C 352.273 -1.06583 -6.02749 0
M  V30 3755 N 351.41 -0.372074 -7.01113 0
M  V30 3756 H 356.25 -1.37351 -2.64459 0
M  V30 3757 H 353.787 -0.688419 -1.29997 0
M  V30 3758 H 355.745 0.615125 -4.1264 0
M  V30 3759 H 354.375 1.02455 -3.06109 0
M  V30 3760 H 353.427 -1.34368 -3.55878 0
M  V30 3761 H 354.739 -1.55494 -4.73944 0
M  V30 3762 H 353.893 0.400015 -6.0538 0
M  V30 3763 H 352.632 0.704597 -4.82583 0
M  V30 3764 H 351.637 -1.55645 -5.27309 0
M  V30 3765 H 352.862 -1.85074 -6.53395 0
M  V30 3766 H 350.808 0.393238 -6.5482 0
M  V30 3767 H 350.725 -1.06258 -7.48495 0
M  V30 3768 H 351.993 0.0855932 -7.79453 0
M  V30 3769 N 356.222 1.38976 -0.743202 0
M  V30 3770 C 357.17 2.32394 -0.0978389 0
M  V30 3771 C 358.164 1.53486 0.716824 0
M  V30 3772 O 359.37 1.69092 0.617088 0
M  V30 3773 H 355.745 0.75189 -0.0128402 0
M  V30 3774 H 357.716 2.84441 -0.901981 0
M  V30 3775 C 356.465 3.38629 0.789036 0
M  V30 3776 H 355.788 3.99432 0.171559 0
M  V30 3777 H 357.228 4.06426 1.20807 0
M  V30 3778 C 355.687 2.76347 1.92702 0
M  V30 3779 O 356.217 2.64836 3.02034 0
M  V30 3780 N 354.423 2.34311 1.71891 0
M  V30 3781 H 353.97 2.43873 0.829675 0
M  V30 3782 H 353.928 1.9298 2.48205 0
M  V30 3783 N 357.7 0.491464 1.49741 0
M  V30 3784 C 358.647 -0.292027 2.28945 0
M  V30 3785 C 359.617 -0.968973 1.34908 0
M  V30 3786 O 360.802 -0.97748 1.6386 0
M  V30 3787 C 357.942 -1.35617 3.17336 0
M  V30 3788 C 357.055 -0.691957 4.26422 0
M  V30 3789 C 356.19 -1.73572 5.02042 0
M  V30 3790 C 355.229 -1.05286 6.02977 0
M  V30 3791 N 354.366 -2.0404 6.71798 0
M  V30 3792 H 359.206 0.389654 2.95442 0
M  V30 3793 H 356.743 0.204003 1.45679 0
M  V30 3794 H 358.701 -1.98502 3.66951 0
M  V30 3795 H 357.331 -2.00674 2.52844 0
M  V30 3796 H 356.383 0.0499523 3.80367 0
M  V30 3797 H 357.695 -0.153946 4.98562 0
M  V30 3798 H 356.849 -2.43987 5.55478 0
M  V30 3799 H 355.588 -2.30757 4.29654 0
M  V30 3800 H 354.593 -0.334446 5.48782 0
M  V30 3801 H 355.818 -0.487636 6.77347 0
M  V30 3802 H 353.764 -2.60205 6.02187 0
M  V30 3803 H 353.681 -1.55279 7.39881 0
M  V30 3804 H 354.949 -2.73772 7.29842 0
M  V30 3805 N 359.178 -1.55987 0.224894 0
M  V30 3806 C 360.408 -2.02489 -0.41007 0
M  V30 3807 C 360.816 -1.10391 -1.53657 0
M  V30 3808 O 360.159 -0.106458 -1.83391 0
M  V30 3809 C 360.221 -3.45319 -0.999757 0
M  V30 3810 C 359.885 -4.56999 -0.00827976 0
M  V30 3811 C 360.882 -5.13812 0.793314 0
M  V30 3812 C 358.567 -5.02176 0.111442 0
M  V30 3813 C 360.561 -6.14276 1.7013 0
M  V30 3814 C 358.248 -6.02477 1.02296 0
M  V30 3815 C 359.246 -6.58403 1.81643 0
M  V30 3816 O 358.934 -7.56751 2.71262 0
M  V30 3817 H 358.666 -0.667915 -0.104235 0
M  V30 3818 H 361.22 -2.0257 0.339782 0
M  V30 3819 H 359.45 -3.42318 -1.79876 0
M  V30 3820 H 361.139 -3.7545 -1.54248 0
M  V30 3821 H 361.905 -4.79756 0.711288 0
M  V30 3822 H 357.784 -4.58323 -0.49605 0
M  V30 3823 H 361.328 -6.57854 2.32107 0
M  V30 3824 H 357.225 -6.35954 1.10599 0
M  V30 3825 H 357.993 -7.74286 2.65375 0
M  V30 3826 N 360.656 0.0484629 -1.57525 0
M  V30 3827 C 361.902 0.744226 -1.88651 0
M  V30 3828 C 362.235 1.76029 -0.820212 0
M  V30 3829 O 361.51 1.93782 0.166985 0
M  V30 3830 C 361.793 1.43128 -3.30434 0
M  V30 3831 C 361.646 0.43005 -4.47739 0
M  V30 3832 C 362.965 2.37031 -3.70816 0
M  V30 3833 H 360.084 0.269089 -0.68612 0
M  V30 3834 H 362.726 0.00713532 -1.89999 0
M  V30 3835 H 360.876 2.05956 -3.29415 0
M  V30 3836 H 362.548 -0.194816 -4.60888 0
M  V30 3837 H 360.791 -0.252522 -4.33064 0
M  V30 3838 H 361.462 0.948874 -5.43783 0
M  V30 3839 H 363.938 1.84263 -3.73077 0
M  V30 3840 H 362.814 2.82094 -4.70865 0
M  V30 3841 H 363.075 3.22864 -3.02012 0
M  V30 3842 N 362.134 1.5431 0.320358 0
M  V30 3843 C 363.064 1.86912 1.3995 0
M  V30 3844 C 364.045 0.726211 1.53819 0
M  V30 3845 O 365.23 0.980233 1.67646 0
M  V30 3846 C 362.36 2.09932 2.7667 0
M  V30 3847 C 361.314 3.25776 2.77586 0
M  V30 3848 C 360.64 3.34173 4.17412 0
M  V30 3849 C 361.94 4.6335 2.41048 0
M  V30 3850 H 363.634 2.77292 1.12914 0
M  V30 3851 H 361.18 1.33421 0.541738 0
M  V30 3852 H 363.133 2.31324 3.52232 0
M  V30 3853 H 361.857 1.16304 3.0519 0
M  V30 3854 H 360.516 3.04276 2.04479 0
M  V30 3855 H 360.164 2.38098 4.43078 0
M  V30 3856 H 359.864 4.12033 4.18931 0
M  V30 3857 H 361.388 3.57803 4.94782 0
M  V30 3858 H 362.802 4.84602 3.06324 0
M  V30 3859 H 361.199 5.43782 2.53813 0
M  V30 3860 H 362.269 4.65381 1.36193 0
M  V30 3861 N 363.613 -0.582584 1.46437 0
M  V30 3862 C 364.543 -1.70187 1.59871 0
M  V30 3863 C 365.524 -1.64066 0.449042 0
M  V30 3864 O 366.709 -1.82081 0.6753 0
M  V30 3865 C 363.839 -3.08827 1.58881 0
M  V30 3866 C 362.793 -3.29779 2.72819 0
M  V30 3867 C 362.119 -4.68947 2.5689 0
M  V30 3868 C 363.419 -3.17601 4.1464 0
M  V30 3869 H 365.113 -1.592 2.53566 0
M  V30 3870 H 362.659 -0.764472 1.22032 0
M  V30 3871 H 364.612 -3.86951 1.66873 0
M  V30 3872 H 363.336 -3.20713 0.617306 0
M  V30 3873 H 361.995 -2.54054 2.64296 0
M  V30 3874 H 361.643 -4.77599 1.57823 0
M  V30 3875 H 361.343 -4.83919 3.33312 0
M  V30 3876 H 362.867 -5.4924 2.66773 0
M  V30 3877 H 364.281 -3.8557 4.24274 0
M  V30 3878 H 362.678 -3.44094 4.9165 0
M  V30 3879 H 363.748 -2.14681 4.34788 0
M  V30 3880 N 365.091 -1.34144 -0.827227 0
M  V30 3881 C 366.023 -1.21206 -1.9453 0
M  V30 3882 C 367.036 -0.140176 -1.62195 0
M  V30 3883 O 368.225 -0.391647 -1.7415 0
M  V30 3884 C 365.325 -0.839141 -3.28347 0
M  V30 3885 C 364.498 -2.0051 -3.88734 0
M  V30 3886 C 363.557 -1.61128 -5.00923 0
M  V30 3887 O 362.583 -2.32726 -5.19449 0
M  V30 3888 N 363.785 -0.522958 -5.7814 0
M  V30 3889 H 366.55 -2.17525 -2.06162 0
M  V30 3890 H 364.111 -1.27043 -1.00358 0
M  V30 3891 H 366.103 -0.557556 -4.00841 0
M  V30 3892 H 364.673 0.0337293 -3.12582 0
M  V30 3893 H 363.893 -2.45166 -3.08686 0
M  V30 3894 H 365.181 -2.78498 -4.25812 0
M  V30 3895 H 364.579 0.0723518 -5.65654 0
M  V30 3896 H 363.136 -0.301089 -6.51104 0
M  V30 3897 N 366.569 1.04691 -1.17803 0
M  V30 3898 C 367.516 2.12557 -0.899343 0
M  V30 3899 C 368.486 1.65339 0.158771 0
M  V30 3900 O 369.671 1.90789 0.0204797 0
M  V30 3901 C 366.811 3.42481 -0.424315 0
M  V30 3902 C 365.924 4.03346 -1.54713 0
M  V30 3903 C 365.059 5.21208 -1.02546 0
M  V30 3904 C 364.098 5.74089 -2.12339 0
M  V30 3905 N 363.235 6.83247 -1.61612 0
M  V30 3906 H 368.075 2.35734 -1.823 0
M  V30 3907 H 365.612 1.1564 -0.909159 0
M  V30 3908 H 367.57 4.16996 -0.130421 0
M  V30 3909 H 366.2 3.19471 0.462377 0
M  V30 3910 H 365.252 3.2622 -1.95664 0
M  V30 3911 H 366.564 4.38628 -2.37501 0
M  V30 3912 H 365.718 6.02812 -0.685718 0
M  V30 3913 H 364.457 4.87414 -0.167084 0
M  V30 3914 H 363.462 4.91111 -2.47165 0
M  V30 3915 H 364.687 6.0993 -2.98601 0
M  V30 3916 H 362.633 6.5134 -0.780533 0
M  V30 3917 H 362.55 7.17559 -2.38003 0
M  V30 3918 H 363.818 7.68491 -1.30545 0
M  V30 3919 N 368.047 0.979072 1.23499 0
M  V30 3920 C 369.295 0.645941 1.91499 0
M  V30 3921 C 369.616 -0.822948 1.76784 0
M  V30 3922 O 368.886 -1.58854 1.14639 0
M  V30 3923 H 367.466 0.235919 0.708767 0
M  V30 3924 H 370.128 1.2426 1.50152 0
M  V30 3925 H 369.224 0.896411 2.9895 0
M  V30 3926 N 369.525 -1.3858 0.750561 0
M  V30 3927 C 370.457 -2.29057 0.0810714 0
M  V30 3928 C 371.47 -1.47596 -0.686973 0
M  V30 3929 O 372.659 -1.70495 -0.528563 0
M  V30 3930 C 369.759 -3.26475 -0.909247 0
M  V30 3931 C 368.932 -4.36945 -0.199478 0
M  V30 3932 C 367.991 -5.14572 -1.10011 0
M  V30 3933 O 367.017 -5.66321 -0.57177 0
M  V30 3934 N 368.219 -5.27262 -2.42849 0
M  V30 3935 H 370.984 -2.87153 0.858087 0
M  V30 3936 H 368.545 -1.50328 0.60109 0
M  V30 3937 H 370.537 -3.75285 -1.51471 0
M  V30 3938 H 369.107 -2.69298 -1.58736 0
M  V30 3939 H 368.327 -3.8981 0.586664 0
M  V30 3940 H 369.615 -5.07963 0.291783 0
M  V30 3941 H 369.013 -4.86763 -2.88233 0
M  V30 3942 H 367.57 -5.79456 -2.98453 0
M  V30 3943 N 371.003 -0.499398 -1.49478 0
M  V30 3944 C 371.951 0.293604 -2.3074 0
M  V30 3945 C 372.945 0.96427 -1.39277 0
M  V30 3946 O 374.151 0.892141 -1.56336 0
M  V30 3947 H 370.526 0.113541 -0.743379 0
M  V30 3948 H 372.497 -0.411772 -2.95545 0
M  V30 3949 C 371.246 1.3462 -3.20582 0
M  V30 3950 H 370.569 0.83954 -3.90886 0
M  V30 3951 H 372.009 1.87308 -3.80384 0
M  V30 3952 C 370.468 2.36351 -2.40083 0
M  V30 3953 O 370.998 3.422 -2.10385 0
M  V30 3954 N 369.204 2.0878 -2.02137 0
M  V30 3955 H 368.751 1.22723 -2.26488 0
M  V30 3956 H 368.709 2.77075 -1.48583 0
M  V30 3957 N 372.481 1.55866 -0.233164 0
M  V30 3958 C 373.429 2.22176 0.68851 0
M  V30 3959 C 374.423 1.20487 1.19076 0
M  V30 3960 O 375.629 1.38536 1.14925 0
M  V30 3961 H 372.004 0.712511 0.240483 0
M  V30 3962 H 373.975 2.98212 0.105935 0
M  V30 3963 C 372.724 2.92446 1.88071 0
M  V30 3964 H 372.047 3.70458 1.50337 0
M  V30 3965 H 373.487 3.42226 2.50314 0
M  V30 3966 C 371.946 1.95555 2.74335 0
M  V30 3967 O 372.476 1.47986 3.73447 0
M  V30 3968 N 370.682 1.62953 2.40613 0
M  V30 3969 H 370.229 2.01831 1.60069 0
M  V30 3970 H 370.187 0.983886 2.98609 0
M  V30 3971 N 373.959 -0.0401083 1.57549 0
M  V30 3972 C 375.37 -0.588097 1.77196 0
M  V30 3973 C 375.721 -1.76209 0.862832 0
M  V30 3974 O 374.846 -2.16331 0.0548389 0
M  V30 3975 C 375.441 -1.07363 3.21339 0
M  V30 3976 C 374 -1.56723 3.42221 0
M  V30 3977 C 373.147 -0.50041 2.72747 0
M  V30 3978 H 376.098 0.186119 1.57605 0
M  V30 3979 H 376.119 -1.94143 3.27244 0
M  V30 3980 H 375.631 -0.218975 3.87482 0
M  V30 3981 H 373.732 -2.4441 2.81237 0
M  V30 3982 H 373.845 -1.62234 4.50796 0
M  V30 3983 H 372.209 -0.952894 2.36203 0
M  V30 3984 H 372.992 0.344599 3.41566 0
M  V30 3985 N 375.437 -1.54477 -0.31217 0
M  V30 3986 C 376.684 -1.73227 -1.04875 0
M  V30 3987 C 377.012 -0.512042 -1.87639 0
M  V30 3988 O 376.267 0.506131 -1.89042 0
M  V30 3989 C 376.566 -2.967 -1.99258 0
M  V30 3990 C 376.232 -4.30974 -1.32559 0
M  V30 3991 C 374.894 -4.67477 -1.141 0
M  V30 3992 C 377.246 -5.14258 -0.847835 0
M  V30 3993 C 374.574 -5.84852 -0.465326 0
M  V30 3994 C 376.926 -6.32327 -0.185931 0
M  V30 3995 C 375.59 -6.67499 0.0107077 0
M  V30 3996 H 374.86 -0.633881 -0.383765 0
M  V30 3997 H 377.507 -1.88727 -0.324731 0
M  V30 3998 H 375.812 -2.75935 -2.7815 0
M  V30 3999 H 377.509 -3.08401 -2.563 0
M  V30 4000 H 374.099 -4.02262 -1.4793 0
M  V30 4001 H 378.283 -4.86565 -0.978192 0
M  V30 4002 H 373.539 -6.10654 -0.301883 0
M  V30 4003 H 377.713 -6.96135 0.192211 0
M  V30 4004 H 375.34 -7.58306 0.536287 0
M  V30 4005 N 376.915 0.57481 -1.46744 0
M  V30 4006 C 378.161 1.3347 -1.52688 0
M  V30 4007 C 378.494 1.93353 -0.181229 0
M  V30 4008 O 377.769 1.76912 0.808237 0
M  V30 4009 C 378.052 2.45811 -2.63152 0
M  V30 4010 C 377.905 1.90912 -4.07275 0
M  V30 4011 C 379.224 3.47822 -2.69644 0
M  V30 4012 H 376.343 0.483935 -0.555856 0
M  V30 4013 H 378.985 0.644968 -1.78718 0
M  V30 4014 H 377.135 3.04646 -2.41088 0
M  V30 4015 H 378.807 1.36473 -4.4065 0
M  V30 4016 H 377.05 1.21691 -4.16382 0
M  V30 4017 H 377.721 2.72042 -4.80309 0
M  V30 4018 H 380.197 2.9888 -2.895 0
M  V30 4019 H 379.073 4.23876 -3.48742 0
M  V30 4020 H 379.334 4.05555 -1.76005 0
M  V30 4021 N 378.394 1.34581 0.820102 0
M  V30 4022 C 379.671 1.17675 1.56244 0
M  V30 4023 C 380.051 -0.249541 2.0962 0
M  V30 4024 O 379.399 -1.25125 1.91196 0
M  V30 4025 C 379.609 2.23364 2.6816 0
M  V30 4026 C 380.957 2.58485 3.36854 0
M  V30 4027 O 381.981 2.22175 2.78418 0
M  V30 4028 O 380.84 3.20868 4.42386 0
M  V30 4029 H 377.934 0.456333 0.689702 0
M  V30 4030 H 380.48 1.46222 0.861231 0
M  V30 4031 H 379.252 3.19087 2.26493 0
M  V30 4032 H 378.875 1.96009 3.45928 0
M  V30 4033 N 379.872 -1.04064 1.18357 0
M  V30 4034 C 381.283 -1.58719 0.98312 0
M  V30 4035 C 381.634 -1.90556 -0.467193 0
M  V30 4036 O 380.759 -1.69561 -1.34454 0
M  V30 4037 C 381.354 -2.88379 1.77828 0
M  V30 4038 C 379.913 -3.3965 1.62218 0
M  V30 4039 C 379.06 -2.13235 1.77274 0
M  V30 4040 H 382.011 -0.867359 1.32901 0
M  V30 4041 H 382.032 -3.58773 1.26737 0
M  V30 4042 H 381.544 -2.65176 2.83379 0
M  V30 4043 H 379.645 -3.67866 0.592036 0
M  V30 4044 H 379.758 -4.13475 2.42023 0
M  V30 4045 H 378.122 -2.24542 1.20221 0
M  V30 4046 H 378.905 -1.92487 2.8426 0
M  V30 4047 N 381.35 -0.985608 -1.22978 0
M  V30 4048 C 382.578 -0.675582 -1.95559 0
M  V30 4049 C 382.993 0.758413 -1.72897 0
M  V30 4050 O 382.35 1.51094 -1.02357 0
M  V30 4051 C 382.401 -0.96293 -3.48439 0
M  V30 4052 O 382.122 -2.34057 -3.70336 0
M  V30 4053 C 383.623 -0.669585 -4.38214 0
M  V30 4054 H 380.843 -0.250523 -0.622478 0
M  V30 4055 H 383.387 -1.3184 -1.56328 0
M  V30 4056 H 381.542 -0.366033 -3.85667 0
M  V30 4057 H 381.956 -2.43424 -4.64591 0
M  V30 4058 H 383.43 -0.920967 -5.44263 0
M  V30 4059 H 383.907 0.396383 -4.37408 0
M  V30 4060 H 384.513 -1.2472 -4.06602 0
M  V30 4061 N 382.828 1.3818 -0.7579 0
M  V30 4062 C 384.076 1.99624 -0.315361 0
M  V30 4063 C 384.397 1.60464 1.10799 0
M  V30 4064 O 383.667 0.863507 1.75842 0
M  V30 4065 H 382.247 0.73831 -0.113611 0
M  V30 4066 H 384.909 1.68878 -0.972952 0
M  V30 4067 H 384.005 3.09754 -0.381931 0
M  V30 4068 N 384.306 0.507319 1.49211 0
M  V30 4069 C 385.546 -0.0332372 2.04373 0
M  V30 4070 C 385.91 -1.33694 1.37804 0
M  V30 4071 O 387.111 -1.96213 1.83722 0
M  V30 4072 C 385.382 -0.17599 3.56966 0
M  V30 4073 S 386.941 -0.669882 4.33657 0
M  V30 4074 H 383.759 0.00123603 0.710999 0
M  V30 4075 H 386.361 0.682725 1.83191 0
M  V30 4076 H 385.065 0.778053 4.02957 0
M  V30 4077 H 384.596 -0.917005 3.82563 0
M  V30 4078 H 386.611 -1.93806 4.56786 0
M  V30 4079 N 385.784 -1.5574 0.241426 0
M  V30 4080 C 386.731 -2.21149 -0.660432 0
M  V30 4081 C 387.701 -1.17356 -1.17545 0
M  V30 4082 O 388.886 -1.45784 -1.23093 0
M  V30 4083 C 386.026 -2.91059 -1.85414 0
M  V30 4084 C 385.139 -4.09495 -1.37616 0
M  V30 4085 C 384.274 -4.67135 -2.529 0
M  V30 4086 C 383.313 -5.77831 -2.01936 0
M  V30 4087 N 382.45 -6.29677 -3.10566 0
M  V30 4088 H 387.29 -2.97845 -0.095955 0
M  V30 4089 H 384.827 -1.47057 -0.0356024 0
M  V30 4090 H 386.785 -3.29788 -2.5553 0
M  V30 4091 H 385.415 -2.16846 -2.39118 0
M  V30 4092 H 384.467 -3.76117 -0.569235 0
M  V30 4093 H 385.779 -4.89423 -0.962618 0
M  V30 4094 H 384.933 -5.08409 -3.31067 0
M  V30 4095 H 383.672 -3.86411 -2.97553 0
M  V30 4096 H 382.677 -5.36039 -1.22238 0
M  V30 4097 H 383.902 -6.60402 -1.58259 0
M  V30 4098 H 381.848 -5.5186 -3.54664 0
M  V30 4099 H 381.765 -7.04783 -2.73526 0
M  V30 4100 H 383.033 -6.75609 -3.88809 0
M  V30 4101 N 387.262 0.0317525 -1.57568 0
M  V30 4102 C 388.21 1.05165 -2.07468 0
M  V30 4103 C 389.204 1.3761 -0.98792 0
M  V30 4104 O 390.41 1.36546 -1.17282 0
M  V30 4105 H 386.785 0.35666 -0.66204 0
M  V30 4106 H 388.756 0.604958 -2.92203 0
M  V30 4107 C 387.505 2.34488 -2.56731 0
M  V30 4108 H 386.828 2.10383 -3.39969 0
M  V30 4109 H 388.268 3.04203 -2.95358 0
M  V30 4110 C 386.727 3.03266 -1.46736 0
M  V30 4111 O 387.257 3.92988 -0.832069 0
M  V30 4112 N 385.463 2.6455 -1.20256 0
M  V30 4113 H 385.01 1.91674 -1.72102 0
M  V30 4114 H 384.968 3.10886 -0.468737 0
M  V30 4115 N 388.74 1.54641 0.303973 0
M  V30 4116 C 389.97 1.77511 1.05705 0
M  V30 4117 C 390.378 0.533228 1.81531 0
M  V30 4118 O 389.721 -0.506423 1.76582 0
M  V30 4119 C 389.783 2.92779 2.08617 0
M  V30 4120 C 389.447 4.30977 1.52013 0
M  V30 4121 C 390.444 5.11115 0.9517 0
M  V30 4122 C 388.129 4.77571 1.55665 0
M  V30 4123 C 390.123 6.35966 0.427327 0
M  V30 4124 C 387.81 6.02384 1.02841 0
M  V30 4125 C 388.808 6.81417 0.464713 0
M  V30 4126 O 388.496 8.03881 -0.0555283 0
M  V30 4127 H 388.228 0.59579 0.319391 0
M  V30 4128 H 390.782 2.02401 0.349712 0
M  V30 4129 H 389.012 2.63506 2.83022 0
M  V30 4130 H 390.701 3.03252 2.69802 0
M  V30 4131 H 391.467 4.76264 0.916407 0
M  V30 4132 H 387.346 4.16085 1.9848 0
M  V30 4133 H 390.89 6.97599 -0.0133062 0
M  V30 4134 H 386.787 6.36723 1.06084 0
M  V30 4135 H 387.555 8.18479 0.0580522 0
M  V30 4136 N 390.218 -0.567019 1.47046 0
M  V30 4137 C 391.467 -1.32091 1.5243 0
M  V30 4138 C 391.78 -1.94704 0.187021 0
M  V30 4139 O 392.986 -2.7124 0.118771 0
M  V30 4140 C 391.442 -2.39479 2.68659 0
M  V30 4141 C 391.05 -1.831 4.08874 0
M  V30 4142 C 392.794 -3.16111 2.83327 0
M  V30 4143 C 390.701 -2.8821 5.16419 0
M  V30 4144 H 389.631 -0.496629 0.56734 0
M  V30 4145 H 392.282 -0.603354 1.73297 0
M  V30 4146 H 390.664 -3.14105 2.41152 0
M  V30 4147 H 391.838 -1.14913 4.46242 0
M  V30 4148 H 390.153 -1.19085 3.99008 0
M  V30 4149 H 392.75 -3.94585 3.60842 0
M  V30 4150 H 393.093 -3.69686 1.91411 0
M  V30 4151 H 393.626 -2.48595 3.10556 0
M  V30 4152 H 390.365 -2.39504 6.10179 0
M  V30 4153 H 389.885 -3.54839 4.8358 0
M  V30 4154 H 391.564 -3.51881 5.42945 0
M  V30 4155 N 391.696 -1.35014 -0.812953 0
M  V30 4156 C 392.606 -1.2951 -1.95613 0
M  V30 4157 C 393.622 -0.20107 -1.72834 0
M  V30 4158 O 394.798 -0.42932 -1.96771 0
M  V30 4159 C 391.863 -1.06033 -3.30088 0
M  V30 4160 C 390.924 -2.24688 -3.65805 0
M  V30 4161 C 390.157 -2.02322 -4.93864 0
M  V30 4162 O 390.38 -0.986464 -5.61805 0
M  V30 4163 O 389.314 -2.89525 -5.27692 0
M  V30 4164 H 393.14 -2.25705 -2.03202 0
M  V30 4165 H 390.725 -1.15321 -0.949811 0
M  V30 4166 H 392.607 -0.94763 -4.10607 0
M  V30 4167 H 391.282 -0.128852 -3.23443 0
M  V30 4168 H 390.189 -2.41521 -2.85689 0
M  V30 4169 H 391.522 -3.16261 -3.77147 0
M  V30 4170 N 393.175 1.03435 -1.18907 0
M  V30 4171 C 394.107 2.1165 -0.879595 0
M  V30 4172 C 395.12 1.62316 0.125439 0
M  V30 4173 O 396.309 1.78201 -0.103245 0
M  V30 4174 C 393.409 3.37622 -0.294042 0
M  V30 4175 C 392.582 4.16166 -1.34629 0
M  V30 4176 C 391.641 5.20457 -0.775274 0
M  V30 4177 O 390.667 5.50379 -1.4516 0
M  V30 4178 N 391.869 5.78949 0.424126 0
M  V30 4179 H 394.634 2.38791 -1.81105 0
M  V30 4180 H 392.195 1.19681 -1.09032 0
M  V30 4181 H 394.187 4.04572 0.101679 0
M  V30 4182 H 392.757 3.07873 0.541575 0
M  V30 4183 H 391.977 3.44444 -1.91707 0
M  V30 4184 H 393.265 4.65432 -2.05549 0
M  V30 4185 H 392.663 5.56948 0.991209 0
M  V30 4186 H 391.22 6.47334 0.761691 0
M  V30 4187 N 394.653 0.992116 1.22453 0
M  V30 4188 C 395.6 0.541731 2.24352 0
M  V30 4189 C 396.57 -0.425519 1.60557 0
M  V30 4190 O 397.755 -0.330453 1.87917 0
M  V30 4191 C 394.895 -0.138248 3.44823 0
M  V30 4192 C 394.008 0.870649 4.23136 0
M  V30 4193 C 393.143 0.164269 5.30946 0
M  V30 4194 C 392.182 1.16159 6.00977 0
M  V30 4195 N 391.319 0.483568 7.00433 0
M  V30 4196 H 396.159 1.41541 2.62241 0
M  V30 4197 H 393.696 0.709013 1.28885 0
M  V30 4198 H 395.654 -0.5494 4.13567 0
M  V30 4199 H 394.284 -0.975721 3.077 0
M  V30 4200 H 393.336 1.40013 3.53696 0
M  V30 4201 H 394.648 1.63014 4.7141 0
M  V30 4202 H 393.802 -0.303653 6.0594 0
M  V30 4203 H 392.541 -0.627733 4.83643 0
M  V30 4204 H 391.546 1.64015 5.24766 0
M  V30 4205 H 392.771 1.95445 6.50368 0
M  V30 4206 H 390.717 -0.289012 6.55363 0
M  V30 4207 H 390.634 1.18152 7.4671 0
M  V30 4208 H 391.902 0.0384219 7.79491 0
M  V30 4209 N 396.131 -1.37776 0.765217 0
M  V30 4210 C 397.094 -2.28686 0.153416 0
M  V30 4211 C 398.094 -1.47727 -0.635081 0
M  V30 4212 O 399.284 -1.68027 -0.459632 0
M  V30 4213 C 396.416 -3.31608 -0.790495 0
M  V30 4214 H 397.609 -2.84297 0.954723 0
M  V30 4215 H 395.162 -1.46932 0.53299 0
M  V30 4216 H 395.897 -2.81109 -1.61705 0
M  V30 4217 H 395.682 -3.9144 -0.227348 0
M  V30 4218 H 397.172 -3.99559 -1.21419 0
M  V30 4219 N 397.609 -0.515225 -1.4894 0
M  V30 4220 C 398.557 0.269115 -2.31038 0
M  V30 4221 C 399.551 0.949443 -1.40292 0
M  V30 4222 O 400.757 0.87551 -1.57273 0
M  V30 4223 H 397.132 0.10565 -0.744542 0
M  V30 4224 H 399.103 -0.443096 -2.95092 0
M  V30 4225 C 397.852 1.31213 -3.21991 0
M  V30 4226 H 397.175 0.798034 -3.91754 0
M  V30 4227 H 398.615 1.83263 -3.82349 0
M  V30 4228 C 397.074 2.33791 -2.42576 0
M  V30 4229 O 397.604 3.3995 -2.14003 0
M  V30 4230 N 395.81 2.06625 -2.0434 0
M  V30 4231 H 395.357 1.20314 -2.27777 0
M  V30 4232 H 395.315 2.75483 -1.51514 0
M  V30 4233 N 399.087 1.5561 -0.249682 0
M  V30 4234 C 400.364 1.90932 0.424761 0
M  V30 4235 C 400.744 1.17078 1.75658 0
M  V30 4236 O 400.092 0.289176 2.26663 0
M  V30 4237 C 400.302 3.43975 0.590109 0
M  V30 4238 C 401.65 4.15281 0.884714 0
M  V30 4239 O 402.674 3.49729 0.67587 0
M  V30 4240 O 401.533 5.31236 1.28259 0
M  V30 4241 H 398.627 0.794815 0.228468 0
M  V30 4242 H 401.173 1.67135 -0.293954 0
M  V30 4243 H 399.945 3.89748 -0.34818 0
M  V30 4244 H 399.568 3.73644 1.35926 0
M  V30 4245 N 400.565 -0.0233959 1.57583 0
M  V30 4246 C 401.812 -0.713063 1.8953 0
M  V30 4247 C 402.14 -1.75056 0.847673 0
M  V30 4248 O 401.395 -1.95119 -0.150636 0
M  V30 4249 C 401.694 -1.41428 3.28227 0
M  V30 4250 C 401.36 -0.512222 4.47981 0
M  V30 4251 C 400.022 -0.263785 4.80476 0
M  V30 4252 C 402.374 0.110248 5.21083 0
M  V30 4253 C 399.702 0.615804 5.83459 0
M  V30 4254 C 402.054 0.977573 6.25001 0
M  V30 4255 C 400.718 1.23542 6.55968 0
M  V30 4256 H 399.988 -0.260928 0.69354 0
M  V30 4257 H 402.635 0.0271047 1.91481 0
M  V30 4258 H 400.94 -2.22791 3.22291 0
M  V30 4259 H 402.637 -1.95355 3.50196 0
M  V30 4260 H 399.227 -0.716013 4.22577 0
M  V30 4261 H 403.411 -0.0687137 4.96252 0
M  V30 4262 H 398.667 0.82382 6.05824 0
M  V30 4263 H 402.841 1.46638 6.80786 0
M  V30 4264 H 400.468 1.91871 7.35588 0
M  V30 4265 N 402.043 -1.548 -0.295768 0
M  V30 4266 C 403.273 -1.78069 -1.04762 0
M  V30 4267 C 403.681 -0.542847 -1.81245 0
M  V30 4268 O 403.024 0.497051 -1.76848 0
M  V30 4269 C 403.086 -2.93881 -2.07061 0
M  V30 4270 C 402.75 -4.31777 -1.49725 0
M  V30 4271 C 403.747 -5.11613 -0.924581 0
M  V30 4272 C 401.432 -4.78389 -1.5313 0
M  V30 4273 C 403.426 -6.36184 -0.393594 0
M  V30 4274 C 401.113 -6.02921 -0.996447 0
M  V30 4275 C 402.111 -6.81654 -0.428569 0
M  V30 4276 O 401.799 -8.0384 0.0981593 0
M  V30 4277 H 401.531 -0.597475 -0.316226 0
M  V30 4278 H 404.085 -2.02584 -0.338973 0
M  V30 4279 H 402.315 -2.65003 -2.81621 0
M  V30 4280 H 404.004 -3.04679 -2.6819 0
M  V30 4281 H 404.77 -4.76743 -0.891136 0
M  V30 4282 H 400.649 -4.17132 -1.9627 0
M  V30 4283 H 404.193 -6.97582 0.0503014 0
M  V30 4284 H 400.09 -6.37277 -1.02706 0
M  V30 4285 H 400.858 -8.18499 -0.0146455 0
M  V30 4286 N 403.521 0.559213 -1.47345 0
M  V30 4287 C 404.749 1.34194 -1.57479 0
M  V30 4288 C 405.164 1.87463 -0.224261 0
M  V30 4289 O 404.521 1.64888 0.782185 0
M  V30 4290 C 404.572 2.51324 -2.59843 0
M  V30 4291 O 404.293 2.00256 -3.89653 0
M  V30 4292 C 405.794 3.43563 -2.80142 0
M  V30 4293 H 403.014 0.409136 -0.531835 0
M  V30 4294 H 405.558 0.677609 -1.92947 0
M  V30 4295 H 403.713 3.13699 -2.27314 0
M  V30 4296 H 404.127 2.76708 -4.4557 0
M  V30 4297 H 405.601 4.2217 -3.55635 0
M  V30 4298 H 406.078 3.9698 -1.87892 0
M  V30 4299 H 406.684 2.87005 -3.1386 0
M  V30 4300 N 404.999 1.35443 0.805782 0
M  V30 4301 C 405.909 1.30546 1.94923 0
M  V30 4302 C 406.925 0.210233 1.72725 0
M  V30 4303 O 408.101 0.43975 1.9654 0
M  V30 4304 C 405.166 1.07782 3.29521 0
M  V30 4305 C 404.227 2.26625 3.64609 0
M  V30 4306 C 403.46 2.04938 4.92784 0
M  V30 4307 O 403.683 1.01624 5.61274 0
M  V30 4308 O 402.617 2.9232 5.26149 0
M  V30 4309 H 406.443 2.26779 2.02002 0
M  V30 4310 H 404.028 1.15823 0.943682 0
M  V30 4311 H 405.91 0.969392 4.10098 0
M  V30 4312 H 404.585 0.146003 3.23371 0
M  V30 4313 H 403.492 2.43033 2.84404 0
M  V30 4314 H 404.825 3.18257 3.75464 0
M  V30 4315 N 406.477 -1.02803 1.19454 0
M  V30 4316 C 407.407 -2.12999 0.956758 0
M  V30 4317 C 408.388 -1.69743 -0.110188 0
M  V30 4318 O 409.573 -1.94148 0.0450038 0
M  V30 4319 C 406.703 -3.43746 0.495553 0
M  V30 4320 C 405.657 -4.00688 1.50443 0
M  V30 4321 C 404.983 -5.27067 0.900275 0
M  V30 4322 C 406.283 -4.35397 2.8849 0
M  V30 4323 H 407.977 -2.33148 1.87836 0
M  V30 4324 H 405.523 -1.12045 0.904539 0
M  V30 4325 H 407.476 -4.2021 0.316493 0
M  V30 4326 H 406.2 -3.23321 -0.461646 0
M  V30 4327 H 404.859 -3.2632 1.67065 0
M  V30 4328 H 404.507 -5.02959 -0.064503 0
M  V30 4329 H 404.207 -5.66127 1.57397 0
M  V30 4330 H 405.731 -6.06196 0.73203 0
M  V30 4331 H 407.145 -5.02795 2.75446 0
M  V30 4332 H 405.542 -4.85541 3.52661 0
M  V30 4333 H 406.612 -3.44662 3.41081 0
M  V30 4334 N 407.956 -0.998596 -1.21925 0
M  V30 4335 C 408.903 -0.553621 -2.24062 0
M  V30 4336 C 409.873 0.416999 -1.6078 0
M  V30 4337 O 411.058 0.320482 -1.88089 0
M  V30 4338 C 408.198 0.119959 -3.44891 0
M  V30 4339 C 407.311 -0.893077 -4.22668 0
M  V30 4340 C 406.446 -0.192424 -5.30851 0
M  V30 4341 C 405.485 -1.19344 -6.00353 0
M  V30 4342 N 404.622 -0.520707 -7.00166 0
M  V30 4343 H 409.462 -1.4293 -2.61486 0
M  V30 4344 H 406.999 -0.715838 -1.28507 0
M  V30 4345 H 408.957 0.527459 -4.13852 0
M  V30 4346 H 407.587 0.959389 -3.08214 0
M  V30 4347 H 406.639 -1.41886 -3.52948 0
M  V30 4348 H 407.951 -1.65512 -4.70539 0
M  V30 4349 H 407.105 0.271515 -6.06092 0
M  V30 4350 H 405.844 0.602075 -4.83969 0
M  V30 4351 H 404.849 -1.66795 -5.23889 0
M  V30 4352 H 406.074 -1.98891 -6.49322 0
M  V30 4353 H 404.02 0.254252 -6.55507 0
M  V30 4354 H 403.937 -1.2211 -7.46073 0
M  V30 4355 H 405.205 -0.0797596 -7.79459 0
M  V30 4356 N 409.434 1.37368 -0.772513 0
M  V30 4357 C 410.381 2.30262 -0.157488 0
M  V30 4358 C 411.351 1.51137 0.688965 0
M  V30 4359 O 412.536 1.79704 0.641168 0
M  V30 4360 C 409.676 3.37611 0.715045 0
M  V30 4361 C 408.789 4.31746 -0.148098 0
M  V30 4362 C 407.924 5.26171 0.729213 0
M  V30 4363 C 406.963 6.11948 -0.136418 0
M  V30 4364 N 406.1 6.98613 0.698914 0
M  V30 4365 H 410.94 2.82277 -0.955179 0
M  V30 4366 H 408.477 1.38957 -0.482631 0
M  V30 4367 H 410.435 3.98479 1.23575 0
M  V30 4368 H 409.065 2.86959 1.47833 0
M  V30 4369 H 408.117 3.72178 -0.786613 0
M  V30 4370 H 409.429 4.92084 -0.81579 0
M  V30 4371 H 408.583 5.92247 1.31637 0
M  V30 4372 H 407.322 4.66246 1.43059 0
M  V30 4373 H 406.327 5.4485 -0.736102 0
M  V30 4374 H 407.552 6.73945 -0.835134 0
M  V30 4375 H 405.498 6.41215 1.38489 0
M  V30 4376 H 405.415 7.55948 0.0885358 0
M  V30 4377 H 406.683 7.69077 1.27044 0
M  V30 4378 N 410.912 0.523116 1.48665 0
M  V30 4379 C 411.844 -0.280421 2.27478 0
M  V30 4380 C 412.857 -0.910694 1.34945 0
M  V30 4381 O 414.046 -0.790295 1.60052 0
M  V30 4382 C 411.146 -1.41171 3.08097 0
M  V30 4383 C 410.319 -0.884642 4.28361 0
M  V30 4384 C 409.378 -1.89622 4.90846 0
M  V30 4385 O 408.404 -1.4559 5.50265 0
M  V30 4386 N 409.606 -3.22801 4.82472 0
M  V30 4387 H 412.371 0.395481 2.97079 0
M  V30 4388 H 409.932 0.357018 1.57915 0
M  V30 4389 H 411.924 -2.08645 3.4677 0
M  V30 4390 H 410.494 -1.99139 2.40961 0
M  V30 4391 H 409.714 -0.0341177 3.94185 0
M  V30 4392 H 411.002 -0.511268 5.06225 0
M  V30 4393 H 410.4 -3.61246 4.35336 0
M  V30 4394 H 408.957 -3.85927 5.25265 0
M  V30 4395 N 412.39 -1.55475 0.257931 0
M  V30 4396 C 413.3 -2.2549 -0.647425 0
M  V30 4397 C 414.316 -1.2748 -1.18427 0
M  V30 4398 O 415.492 -1.6038 -1.2182 0
M  V30 4399 C 412.557 -2.94916 -1.82278 0
M  V30 4400 C 411.618 -4.08363 -1.32432 0
M  V30 4401 C 410.851 -4.74469 -2.44366 0
M  V30 4402 O 411.074 -4.39701 -3.63344 0
M  V30 4403 O 410.008 -5.62763 -2.13497 0
M  V30 4404 H 413.834 -3.03593 -0.0807707 0
M  V30 4405 H 411.419 -1.49377 0.0259962 0
M  V30 4406 H 413.301 -3.38606 -2.50846 0
M  V30 4407 H 411.976 -2.19744 -2.37685 0
M  V30 4408 H 410.883 -3.69166 -0.605605 0
M  V30 4409 H 412.216 -4.85385 -0.816211 0
M  V30 4410 N 413.868 0.0150385 -1.57593 0
M  V30 4411 C 415.096 0.714395 -1.94175 0
M  V30 4412 C 415.511 1.68135 -0.858841 0
M  V30 4413 O 414.868 1.81766 0.163567 0
M  V30 4414 C 414.919 1.45933 -3.30735 0
M  V30 4415 O 414.64 0.531167 -4.34868 0
M  V30 4416 C 416.141 2.25456 -3.81686 0
M  V30 4417 H 413.361 0.199923 -0.640525 0
M  V30 4418 H 415.905 -0.0316096 -2.04476 0
M  V30 4419 H 414.06 2.15709 -3.21789 0
M  V30 4420 H 414.474 1.05509 -5.13778 0
M  V30 4421 H 415.948 2.731 -4.79709 0
M  V30 4422 H 416.425 3.07485 -3.13607 0
M  V30 4423 H 417.031 1.60727 -3.9376 0
M  V30 4424 N 415.346 1.54954 0.287554 0
M  V30 4425 C 416.309 1.86076 1.33823 0
M  V30 4426 C 417.309 0.734414 1.43049 0
M  V30 4427 O 418.499 1.00266 1.42452 0
M  V30 4428 C 415.631 2.05305 2.72144 0
M  V30 4429 H 416.824 2.79984 1.07465 0
M  V30 4430 H 414.377 1.47223 0.524902 0
M  V30 4431 H 415.112 1.1373 3.03704 0
M  V30 4432 H 414.897 2.873 2.66836 0
M  V30 4433 H 416.387 2.30706 3.48087 0
M  V30 4434 O 416.863 -0.433401 1.55576 0
M  V30 4435 H 417.554 -1.08681 1.60337 0
M  V30 END ATOM
M  V30 BEGIN BOND
M  V30 END BOND
M  V30 END CTAB
M  END
$$$$
