drugbank_target|P78330 Phosphoserine phosphatase (DB01593; DB03292; DB14487; DB14533; DB14548)
 OpenBabel12092120553D

  0  0  0     0  0            999 V3000
M  V30 BEGIN CTAB
M  V30 COUNTS 3528 3560 0 0 0
M  V30 BEGIN ATOM
M  V30 1 H -0.908 1.98254 -0.117106 0
M  V30 2 N 0 1.576 0 0
M  V30 3 C 0.933 2.03868 1.02534 0
M  V30 4 C 1.911 0.928543 1.3348 0
M  V30 5 O 3.095 1.19667 1.45644 0
M  V30 6 C 0.222 2.43627 2.35294 0
M  V30 7 C -0.732 3.65373 2.2001 0
M  V30 8 S 0.101 5.13292 1.52614 0
M  V30 9 C 1.257 5.56322 2.86805 0
M  V30 10 H 1.49 2.90518 0.631377 0
M  V30 11 H -0.977 1.52953 0.210867 0
M  V30 12 H 0.981 2.67203 3.11629 0
M  V30 13 H -0.358 1.57376 2.7183 0
M  V30 14 H -1.165 3.90944 3.18086 0
M  V30 15 H -1.563 3.418 1.51819 0
M  V30 16 H 0.729 5.58782 3.83104 0
M  V30 17 H 1.672 6.56266 2.65933 0
M  V30 18 H 2.08 4.83886 2.90714 0
M  V30 19 N 1.4781 -0.272755 1.55222 0
M  V30 20 C 2.7241 -1.00581 1.761 0
M  V30 21 C 3.0571 -1.85932 0.560625 0
M  V30 22 O 2.3321 -1.89416 -0.441801 0
M  V30 23 C 2.6151 -1.88816 3.06628 0
M  V30 24 C 2.4681 -1.06457 4.37021 0
M  V30 25 C 3.7871 -2.8752 3.33197 0
M  V30 26 H 0.9061 -0.364244 0.640699 0
M  V30 27 H 3.5481 -0.278189 1.87952 0
M  V30 28 H 1.6981 -2.50856 2.96654 0
M  V30 29 H 3.3701 -0.464863 4.58952 0
M  V30 30 H 1.6131 -0.368043 4.32236 0
M  V30 31 H 2.2841 -1.71514 5.24678 0
M  V30 32 H 4.7601 -2.35615 3.42965 0
M  V30 33 H 3.6361 -3.46399 4.25792 0
M  V30 34 H 3.8971 -3.62657 2.52849 0
M  V30 35 N 2.9562 -1.48159 -0.537278 0
M  V30 36 C 4.1812 -1.59707 -1.32319 0
M  V30 37 C 4.6062 -0.254859 -1.86365 0
M  V30 38 O 3.9642 0.772378 -1.64024 0
M  V30 39 C 4.0122 -2.6412 -2.45505 0
M  V30 40 O 3.1162 -2.20774 -3.48328 0
M  V30 41 H 2.4572 -0.535791 -0.392204 0
M  V30 42 H 4.9872 -1.94092 -0.647268 0
M  V30 43 H 4.9972 -2.85166 -2.91795 0
M  V30 44 H 3.6722 -3.61567 -2.05528 0
M  V30 45 H 2.2492 -2.09911 -3.08207 0
M  V30 46 N 4.4343 0.785586 -1.36625 0
M  V30 47 C 5.3843 1.88822 -1.27789 0
M  V30 48 C 6.3683 1.60014 -0.168579 0
M  V30 49 O 7.5603 1.72381 -0.401737 0
M  V30 50 C 4.6893 3.26092 -1.07327 0
M  V30 51 C 3.7753 3.60897 -2.22743 0
M  V30 52 N 4.1663 3.66982 -3.48077 0
M  V30 53 C 2.4643 3.90981 -2.14593 0
M  V30 54 C 3.1653 3.98137 -4.24101 0
M  V30 55 N 2.1413 4.13319 -3.53084 0
M  V30 56 H 5.9433 1.91759 -2.22723 0
M  V30 57 H 3.4573 0.981311 -1.29399 0
M  V30 58 H 5.4543 4.04954 -0.990842 0
M  V30 59 H 4.1143 3.24428 -0.132977 0
M  V30 60 H 5.1253 3.49531 -3.82163 0
M  V30 61 H 1.8023 3.9722 -1.2854 0
M  V30 62 H 3.1923 4.09737 -5.32509 0
M  V30 63 N 5.9124 1.20967 1.01018 0
M  V30 64 C 7.1374 1.0503 1.78839 0
M  V30 65 C 7.5624 -0.395752 1.8389 0
M  V30 66 O 6.9204 -1.28529 1.27867 0
M  V30 67 C 6.9684 1.64602 3.2084 0
M  V30 68 O 6.0724 0.887988 4.02726 0
M  V30 69 H 5.4134 0.369987 0.551367 0
M  V30 70 H 7.9434 1.60399 1.27018 0
M  V30 71 H 7.9534 1.68607 3.71532 0
M  V30 72 H 6.6284 2.69841 3.16479 0
M  V30 73 H 5.2054 0.922648 3.61305 0
M  V30 74 N 7.3905 -1.2043 1.01659 0
M  V30 75 C 8.3005 -2.2689 0.596484 0
M  V30 76 C 9.3165 -1.70107 -0.36599 0
M  V30 77 O 10.4925 -2.00117 -0.226942 0
M  V30 78 C 7.5575 -3.4665 -0.0586659 0
M  V30 79 C 6.6185 -4.18662 0.949751 0
M  V30 80 C 5.8515 -5.32705 0.32577 0
M  V30 81 O 6.0745 -5.63656 -0.874509 0
M  V30 82 O 5.0085 -5.92803 1.04249 0
M  V30 83 H 8.8345 -2.65041 1.4828 0
M  V30 84 H 6.4195 -1.27048 0.786082 0
M  V30 85 H 8.3015 -4.19256 -0.424564 0
M  V30 86 H 6.9765 -3.10375 -0.91918 0
M  V30 87 H 5.8835 -3.48229 1.36702 0
M  V30 88 H 7.2165 -4.58878 1.78023 0
M  V30 89 N 8.8686 -0.792821 -1.36206 0
M  V30 90 C 9.7986 -0.207853 -2.32573 0
M  V30 91 C 10.7796 0.659055 -1.56813 0
M  V30 92 O 11.9646 0.592176 -1.84951 0
M  V30 93 C 9.0946 0.655449 -3.41059 0
M  V30 94 C 8.0486 -0.111842 -4.27854 0
M  V30 95 C 7.3746 0.872274 -5.27537 0
M  V30 96 C 8.6746 -1.30299 -5.05786 0
M  V30 97 H 10.3686 -1.01294 -2.81744 0
M  V30 98 H 7.9146 -0.48854 -1.3546 0
M  V30 99 H 9.8676 1.07464 -4.07467 0
M  V30 100 H 8.5916 1.49328 -2.90463 0
M  V30 101 H 7.2506 -0.512053 -3.63006 0
M  V30 102 H 6.8986 1.70523 -4.73214 0
M  V30 103 H 6.5986 0.363291 -5.86476 0
M  V30 104 H 8.1226 1.28996 -5.96818 0
M  V30 105 H 9.5366 -0.959379 -5.65216 0
M  V30 106 H 7.9336 -1.7455 -5.74154 0
M  V30 107 H 9.0036 -2.09663 -4.37229 0
M  V30 108 N 10.3467 1.47872 -0.545128 0
M  V30 109 C 11.7627 1.5829 -0.204032 0
M  V30 110 C 11.9627 1.54529 1.29317 0
M  V30 111 O 11.0187 1.44232 2.07252 0
M  V30 112 C 12.3317 2.89304 -0.819987 0
M  V30 113 C 13.8797 3.02864 -0.790105 0
M  V30 114 C 14.3547 4.3656 -1.38491 0
M  V30 115 N 15.8457 4.43165 -1.34755 0
M  V30 116 C 16.5807 5.45153 -1.77753 0
M  V30 117 N 16.0767 6.54016 -2.2855 0
M  V30 118 N 17.8697 5.36125 -1.68897 0
M  V30 119 H 10.0207 1.4856 -1.51802 0
M  V30 120 H 12.2837 0.706305 -0.632327 0
M  V30 121 H 11.9897 2.97757 -1.87173 0
M  V30 122 H 11.8637 3.75957 -0.305915 0
M  V30 123 H 14.2507 2.94014 0.252913 0
M  V30 124 H 14.3317 2.17782 -1.34181 0
M  V30 125 H 13.9757 4.46164 -2.42693 0
M  V30 126 H 13.9057 5.20353 -0.808754 0
M  V30 127 H 16.3967 3.65083 -0.975855 0
M  V30 128 H 16.7097 7.27994 -2.59314 0
M  V30 129 H 15.0547 6.54938 -2.32553 0
M  V30 130 H 18.2457 4.49975 -1.28998 0
M  V30 131 H 18.4187 6.15472 -2.02726 0
M  V30 132 N 11.8248 0.280983 1.55075 0
M  V30 133 C 12.7718 -0.603937 2.22758 0
M  V30 134 C 13.7418 -1.1452 1.20309 0
M  V30 135 O 14.9268 -1.19343 1.48869 0
M  V30 136 C 12.0668 -1.77947 2.95684 0
M  V30 137 C 11.1798 -1.2715 4.12864 0
M  V30 138 C 10.3148 -2.4093 4.7342 0
M  V30 139 C 9.3538 -1.87165 5.82783 0
M  V30 140 N 8.4908 -2.94441 6.37377 0
M  V30 141 H 13.3308 -0.020124 2.97993 0
M  V30 142 H 10.8678 0.00183425 1.471 0
M  V30 143 H 12.8258 -2.47055 3.36184 0
M  V30 144 H 11.4558 -2.33522 2.22861 0
M  V30 145 H 10.5078 -0.473331 3.77444 0
M  V30 146 H 11.8198 -0.837751 4.91715 0
M  V30 147 H 10.9738 -3.18021 5.1667 0
M  V30 148 H 9.7128 -2.87623 3.93859 0
M  V30 149 H 8.7178 -1.08556 5.38976 0
M  V30 150 H 9.9428 -1.41401 6.64216 0
M  V30 151 H 7.8888 -3.40505 5.60707 0
M  V30 152 H 7.8058 -2.55501 7.11516 0
M  V30 153 H 9.0738 -3.71489 6.85285 0
M  V30 154 N 13.3029 -1.57598 0.00835791 0
M  V30 155 C 14.2329 -2.1198 -0.979113 0
M  V30 156 C 15.2139 -1.03091 -1.35301 0
M  V30 157 O 16.3989 -1.30818 -1.43528 0
M  V30 158 C 13.5289 -2.62995 -2.26828 0
M  V30 159 C 12.4829 -3.76485 -2.03576 0
M  V30 160 C 11.8089 -4.13846 -3.38579 0
M  V30 161 C 13.1089 -5.0342 -1.39161 0
M  V30 162 H 14.8029 -2.94738 -0.526281 0
M  V30 163 H 12.3489 -1.41783 -0.251704 0
M  V30 164 H 14.3019 -2.99669 -2.96271 0
M  V30 165 H 13.0259 -1.7737 -2.7424 0
M  V30 166 H 11.6849 -3.40217 -1.36557 0
M  V30 167 H 11.3329 -3.25232 -3.83709 0
M  V30 168 H 11.0329 -4.90312 -3.23834 0
M  V30 169 H 12.5569 -4.53086 -4.09323 0
M  V30 170 H 13.9709 -5.37812 -1.98573 0
M  V30 171 H 12.3679 -5.84746 -1.34878 0
M  V30 172 H 13.4379 -4.83548 -0.361868 0
M  V30 173 N 14.781 0.264519 -1.55364 0
M  V30 174 C 16.028 0.994986 -1.7637 0
M  V30 175 C 16.356 1.85976 -0.5695 0
M  V30 176 O 15.611 1.90509 0.44776 0
M  V30 177 C 15.91 1.9004 -3.02687 0
M  V30 178 C 15.576 1.19243 -4.34847 0
M  V30 179 C 14.238 0.996709 -4.70764 0
M  V30 180 C 16.59 0.689296 -5.16622 0
M  V30 181 C 13.918 0.285261 -5.86006 0
M  V30 182 C 16.27 -0.00860079 -6.32599 0
M  V30 183 C 14.934 -0.215963 -6.67151 0
M  V30 184 H 14.204 0.364091 -0.645383 0
M  V30 185 H 16.851 0.266543 -1.89636 0
M  V30 186 H 15.156 2.69533 -2.84357 0
M  V30 187 H 16.853 2.46695 -3.16137 0
M  V30 188 H 13.443 1.3549 -4.06621 0
M  V30 189 H 17.627 0.828108 -4.89342 0
M  V30 190 H 12.883 0.113961 -6.11294 0
M  V30 191 H 17.057 -0.406186 -6.95214 0
M  V30 192 H 14.684 -0.769217 -7.56298 0
M  V30 193 N 16.2591 1.48442 0.529413 0
M  V30 194 C 17.4891 1.59919 1.30804 0
M  V30 195 C 17.8971 0.258792 1.87422 0
M  V30 196 O 17.2401 -0.762096 1.67146 0
M  V30 197 C 17.3021 2.58693 2.49636 0
M  V30 198 C 16.9661 4.03745 2.14101 0
M  V30 199 C 17.9631 4.9141 1.6974 0
M  V30 200 C 15.6481 4.49285 2.24607 0
M  V30 201 C 17.6421 6.22645 1.36351 0
M  V30 202 C 15.3291 5.8054 1.9083 0
M  V30 203 C 16.3271 6.67043 1.46773 0
M  V30 204 O 16.0151 7.95856 1.1344 0
M  V30 205 H 15.7471 0.541981 0.404021 0
M  V30 206 H 18.3011 1.95 0.645309 0
M  V30 207 H 16.5311 2.18734 3.18892 0
M  V30 208 H 18.2201 2.59999 3.11698 0
M  V30 209 H 18.9861 4.57465 1.61094 0
M  V30 210 H 14.8651 3.82142 2.57854 0
M  V30 211 H 18.4091 6.90119 1.01891 0
M  V30 212 H 14.3061 6.14022 1.99117 0
M  V30 213 H 15.0741 8.08613 1.26832 0
M  V30 214 N 17.7372 -0.778329 1.37039 0
M  V30 215 C 18.9622 -1.57248 1.35233 0
M  V30 216 C 19.3872 -1.87999 -0.0615568 0
M  V30 217 O 18.7452 -1.48734 -1.03672 0
M  V30 218 C 18.7932 -2.86353 2.19167 0
M  V30 219 O 17.8972 -3.80442 1.59178 0
M  V30 220 H 17.2382 -0.476569 0.462362 0
M  V30 221 H 19.7682 -0.963853 1.80474 0
M  V30 222 H 19.7782 -3.35519 2.32145 0
M  V30 223 H 18.4532 -2.63299 3.21942 0
M  V30 224 H 17.0302 -3.39067 1.55203 0
M  V30 225 N 19.2153 -1.21501 -1.00376 0
M  V30 226 C 20.1783 -0.976927 -2.07337 0
M  V30 227 C 21.1783 0.0525322 -1.60714 0
M  V30 228 O 22.3683 -0.184869 -1.73216 0
M  V30 229 C 19.5003 -0.473423 -3.37597 0
M  V30 230 H 20.6933 -1.92587 -2.29892 0
M  V30 231 H 18.2463 -1.03217 -1.17371 0
M  V30 232 H 18.9813 0.480379 -3.20722 0
M  V30 233 H 18.7663 -1.216 -3.72768 0
M  V30 234 H 20.2563 -0.32675 -4.1632 0
M  V30 235 N 20.6934 1.19889 -1.02296 0
M  V30 236 C 21.9704 1.85148 -0.630832 0
M  V30 237 C 22.3504 1.91385 0.890782 0
M  V30 238 O 21.6984 1.42642 1.78509 0
M  V30 239 C 21.9084 3.24442 -1.28602 0
M  V30 240 C 23.2564 4.00663 -1.4055 0
M  V30 241 O 24.2804 3.33818 -1.24273 0
M  V30 242 O 23.1394 5.20387 -1.66913 0
M  V30 243 H 20.2334 0.797613 -0.218499 0
M  V30 244 H 22.7794 1.27427 -1.12074 0
M  V30 245 H 21.5514 3.14704 -2.32545 0
M  V30 246 H 21.1744 3.89802 -0.7836 0
M  V30 247 N 22.1715 0.800033 1.35784 0
M  V30 248 C 23.1345 0.211565 2.28221 0
M  V30 249 C 24.1345 -0.59728 1.49296 0
M  V30 250 O 25.3245 -0.416721 1.69142 0
M  V30 251 C 22.4565 -0.705846 3.33513 0
M  V30 252 H 23.6495 1.02677 2.81776 0
M  V30 253 H 21.2025 0.570211 1.45528 0
M  V30 254 H 21.9375 -1.54498 2.85133 0
M  V30 255 H 21.7225 -0.127655 3.91892 0
M  V30 256 H 23.2125 -1.11211 4.02519 0
M  V30 257 N 23.6496 -1.47581 0.552962 0
M  V30 258 C 24.8956 -2.02782 0.0273648 0
M  V30 259 C 25.2286 -1.42687 -1.31734 0
M  V30 260 O 24.5036 -0.580897 -1.85623 0
M  V30 261 C 24.7866 -3.60031 -0.0702371 0
M  V30 262 C 24.6396 -4.30566 1.30126 0
M  V30 263 C 25.9586 -4.33028 -0.785771 0
M  V30 264 H 23.0776 -0.736912 0.0114185 0
M  V30 265 H 25.7196 -1.76056 0.714432 0
M  V30 266 H 23.8696 -3.82932 -0.655382 0
M  V30 267 H 25.5416 -4.19018 1.92929 0
M  V30 268 H 23.7846 -3.91086 1.87709 0
M  V30 269 H 24.4556 -5.39114 1.18573 0
M  V30 270 H 26.9316 -4.15095 -0.288982 0
M  V30 271 H 25.8076 -5.42695 -0.823013 0
M  V30 272 H 26.0686 -4.01945 -1.841 0
M  V30 273 N 25.1277 -0.289203 -1.54924 0
M  V30 274 C 26.3677 0.324536 -2.01807 0
M  V30 275 C 26.7317 1.5199 -1.17316 0
M  V30 276 O 27.9327 2.20422 -1.53843 0
M  V30 277 C 26.2037 0.683578 -3.50802 0
M  V30 278 S 27.7627 1.28185 -4.19659 0
M  V30 279 H 24.5807 0.100236 -0.703899 0
M  V30 280 H 27.1827 -0.414325 -1.91059 0
M  V30 281 H 25.8867 -0.195073 -4.09936 0
M  V30 282 H 25.4177 1.45354 -3.65562 0
M  V30 283 H 27.4327 2.57006 -4.24456 0
M  V30 284 N 26.6058 1.57591 -0.0167156 0
M  V30 285 C 27.8528 1.91283 0.664597 0
M  V30 286 C 28.1808 0.891949 1.72842 0
M  V30 287 O 27.4358 -0.100931 1.9544 0
M  V30 288 C 27.7348 3.3172 1.33029 0
M  V30 289 C 27.4008 4.4914 0.398047 0
M  V30 290 C 26.0628 4.80992 0.141421 0
M  V30 291 C 28.4148 5.20634 -0.242825 0
M  V30 292 C 25.7428 5.81703 -0.764092 0
M  V30 293 C 28.0948 6.22311 -1.13632 0
M  V30 294 C 26.7588 6.52611 -1.40196 0
M  V30 295 H 26.0288 0.699956 0.243193 0
M  V30 296 H 28.6758 1.9135 -0.0758267 0
M  V30 297 H 26.9808 3.27856 2.14517 0
M  V30 298 H 28.6778 3.55055 1.86379 0
M  V30 299 H 25.2678 4.24262 0.608238 0
M  V30 300 H 29.4518 4.96267 -0.0576019 0
M  V30 301 H 24.7078 6.03532 -0.977732 0
M  V30 302 H 28.8818 6.76834 -1.63917 0
M  V30 303 H 26.5088 7.30467 -2.10529 0
M  V30 304 N 28.0839 -0.256276 1.55502 0
M  V30 305 C 29.3609 -1.00789 1.67633 0
M  V30 306 C 29.7409 -2.03706 0.553826 0
M  V30 307 O 29.0889 -2.24145 -0.443969 0
M  V30 308 C 29.2989 -1.64968 3.07549 0
M  V30 309 C 30.6469 -2.15505 3.65845 0
M  V30 310 O 31.6709 -1.74925 3.1029 0
M  V30 311 O 30.5299 -2.89986 4.63217 0
M  V30 312 H 27.6239 -0.468553 0.681459 0
M  V30 313 H 30.1699 -0.250806 1.67836 0
M  V30 314 H 28.9419 -0.904785 3.80696 0
M  V30 315 H 28.5649 -2.47321 3.11317 0
M  V30 316 N 29.562 -1.4872 -0.521534 0
M  V30 317 C 30.808 -1.574 -1.27879 0
M  V30 318 C 31.141 -0.250817 -1.92573 0
M  V30 319 O 30.416 0.743934 -1.79711 0
M  V30 320 C 30.699 -2.71843 -2.36164 0
M  V30 321 C 30.552 -4.13893 -1.76105 0
M  V30 322 C 31.871 -2.82008 -3.37875 0
M  V30 323 H 28.99 -0.572941 -0.463581 0
M  V30 324 H 31.632 -1.80927 -0.580119 0
M  V30 325 H 29.782 -2.51914 -2.95756 0
M  V30 326 H 31.454 -4.45284 -1.20499 0
M  V30 327 H 29.697 -4.20498 -1.06601 0
M  V30 328 H 30.368 -4.89804 -2.5455 0
M  V30 329 H 32.844 -3.00086 -2.88249 0
M  V30 330 H 31.72 -3.63796 -4.11028 0
M  V30 331 H 31.981 -1.90511 -3.98946 0
M  V30 332 N 31.0401 0.771051 -1.3745 0
M  V30 333 C 32.3171 1.519 -1.23231 0
M  V30 334 C 32.6971 2.10383 0.173809 0
M  V30 335 O 32.0451 1.95583 1.18151 0
M  V30 336 C 32.2551 2.59933 -2.32886 0
M  V30 337 C 33.6031 3.27316 -2.70461 0
M  V30 338 O 34.6271 2.70228 -2.32068 0
M  V30 339 O 33.4861 4.30531 -3.36608 0
M  V30 340 H 30.5801 0.672803 -0.480901 0
M  V30 341 H 33.1261 0.807957 -1.49232 0
M  V30 342 H 31.8981 2.14842 -3.27045 0
M  V30 343 H 31.5211 3.38637 -2.08353 0
M  V30 344 N 32.5182 1.22032 0.997298 0
M  V30 345 C 33.7432 1.06921 1.77715 0
M  V30 346 C 34.1682 -0.376226 1.84299 0
M  V30 347 O 33.5262 -1.27165 1.29223 0
M  V30 348 C 33.5742 1.67996 3.19076 0
M  V30 349 O 32.6782 0.930653 4.01762 0
M  V30 350 H 32.0192 0.375814 0.547412 0
M  V30 351 H 34.5492 1.61737 1.25309 0
M  V30 352 H 34.5592 1.72538 3.69723 0
M  V30 353 H 33.2342 2.73182 3.13599 0
M  V30 354 H 31.8112 0.960917 3.60307 0
M  V30 355 N 33.9963 -1.19345 1.0293 0
M  V30 356 C 35.2243 -1.92997 0.745644 0
M  V30 357 C 35.6393 -1.75519 -0.695589 0
M  V30 358 O 34.9963 -1.07737 -1.47306 0
M  V30 359 C 35.0473 -3.44741 1.08792 0
M  V30 360 O 34.7683 -3.61658 2.47256 0
M  V30 361 C 36.2693 -4.35515 0.827129 0
M  V30 362 H 33.4893 -0.613042 0.272801 0
M  V30 363 H 36.0333 -1.51473 1.3739 0
M  V30 364 H 34.1883 -3.84097 0.504832 0
M  V30 365 H 34.6023 -4.55514 2.60015 0
M  V30 366 H 36.0763 -5.40589 1.11658 0
M  V30 367 H 36.5533 -4.38552 -0.238436 0
M  V30 368 H 37.1593 -4.01841 1.39297 0
M  V30 369 N 35.4744 -0.807222 -1.35358 0
M  V30 370 C 36.7204 -0.388463 -1.99045 0
M  V30 371 C 37.0534 1.04184 -1.63888 0
M  V30 372 O 36.3284 1.72292 -0.902535 0
M  V30 373 C 36.6114 -0.572783 -3.55515 0
M  V30 374 C 36.4644 -2.04807 -4.00468 0
M  V30 375 C 37.7834 0.00114064 -4.401 0
M  V30 376 H 34.9024 -0.142619 -0.723069 0
M  V30 377 H 37.5444 -1.01687 -1.60498 0
M  V30 378 H 35.6944 -0.0378425 -3.88482 0
M  V30 379 H 37.3664 -2.64544 -3.77908 0
M  V30 380 H 35.6094 -2.54427 -3.51353 0
M  V30 381 H 36.2804 -2.12792 -5.09337 0
M  V30 382 H 38.7564 -0.455716 -4.13597 0
M  V30 383 H 37.6324 -0.157737 -5.48673 0
M  V30 384 H 37.8934 1.09488 -4.28328 0
M  V30 385 N 36.9525 1.47285 -0.560781 0
M  V30 386 C 38.2015 2.01668 -0.035895 0
M  V30 387 C 38.5145 1.44021 1.32353 0
M  V30 388 O 39.7205 1.90088 1.93853 0
M  V30 389 C 38.1765 3.59897 -0.0136659 0
M  V30 390 C 37.7845 4.26536 -1.37006 0
M  V30 391 C 39.5285 4.22017 0.458425 0
M  V30 392 C 37.4355 5.76782 -1.30675 0
M  V30 393 H 36.3655 0.753938 -0.00964879 0
M  V30 394 H 39.0165 1.69243 -0.709166 0
M  V30 395 H 37.3985 3.89301 0.725325 0
M  V30 396 H 38.5725 4.0877 -2.12705 0
M  V30 397 H 36.8875 3.76419 -1.78038 0
M  V30 398 H 39.4845 5.32124 0.524247 0
M  V30 399 H 39.8275 3.89437 1.4712 0
M  V30 400 H 40.3605 3.97159 -0.225818 0
M  V30 401 H 37.0995 6.13988 -2.29564 0
M  V30 402 H 36.6195 5.96875 -0.591622 0
M  V30 403 H 38.2985 6.39063 -1.01033 0
M  V30 404 N 38.4306 0.297415 1.54768 0
M  V30 405 C 39.8466 -0.0560823 1.59501 0
M  V30 406 C 40.0466 -1.52725 1.31444 0
M  V30 407 O 39.1026 -2.27947 1.08611 0
M  V30 408 C 40.4156 0.338631 2.98787 0
M  V30 409 C 41.9636 0.287097 3.11681 0
M  V30 410 C 42.4386 0.656579 4.53269 0
M  V30 411 N 43.9296 0.608977 4.59179 0
M  V30 412 C 44.6646 0.867385 5.66802 0
M  V30 413 N 44.1606 1.19157 6.82476 0
M  V30 414 N 45.9536 0.794687 5.56454 0
M  V30 415 H 38.1046 1.25624 1.71267 0
M  V30 416 H 40.3676 0.509057 0.799728 0
M  V30 417 H 40.0736 1.36263 3.2423 0
M  V30 418 H 39.9476 -0.309508 3.75928 0
M  V30 419 H 42.3346 -0.727649 2.85988 0
M  V30 420 H 42.4156 0.969809 2.36703 0
M  V30 421 H 42.0596 1.66912 4.7969 0
M  V30 422 H 41.9896 -0.0481649 5.26578 0
M  V30 423 H 44.4806 0.369198 3.76092 0
M  V30 424 H 44.7936 1.37482 7.60473 0
M  V30 425 H 43.1386 1.22958 6.84037 0
M  V30 426 H 46.3296 0.541098 4.64962 0
M  V30 427 H 46.5026 0.999445 6.40246 0
M  V30 428 N 39.9087 -1.5758 0.0250728 0
M  V30 429 C 40.8187 -2.1343 -0.973905 0
M  V30 430 C 41.8347 -1.08556 -1.35984 0
M  V30 431 O 43.0107 -1.40592 -1.44207 0
M  V30 432 C 40.0757 -2.64703 -2.23904 0
M  V30 433 C 39.1367 -3.84276 -1.91391 0
M  V30 434 C 38.3697 -4.33095 -3.11873 0
M  V30 435 O 38.5927 -3.81107 -4.24398 0
M  V30 436 O 37.5267 -5.24984 -2.94406 0
M  V30 437 H 41.3527 -2.99057 -0.529036 0
M  V30 438 H 38.9377 -1.48118 -0.195288 0
M  V30 439 H 40.8197 -2.97769 -2.98181 0
M  V30 440 H 39.4947 -1.82161 -2.6758 0
M  V30 441 H 38.4017 -3.56143 -1.14511 0
M  V30 442 H 39.7347 -4.67968 -1.52534 0
M  V30 443 N 41.3868 0.248026 -1.55636 0
M  V30 444 C 42.2968 1.32859 -1.93354 0
M  V30 445 C 43.3128 1.52719 -0.833838 0
M  V30 446 O 44.4888 1.66363 -1.13513 0
M  V30 447 C 41.5538 2.66337 -2.21958 0
M  V30 448 C 40.6148 2.55008 -3.45354 0
M  V30 449 C 39.8478 3.82121 -3.72584 0
M  V30 450 O 40.0708 4.83951 -3.01907 0
M  V30 451 O 39.0048 3.80822 -4.6611 0
M  V30 452 H 42.8308 1.03862 -2.85388 0
M  V30 453 H 40.4158 0.448686 -1.42503 0
M  V30 454 H 42.2978 3.45216 -2.4167 0
M  V30 455 H 40.9728 2.95068 -1.33103 0
M  V30 456 H 39.8798 1.7442 -3.30951 0
M  V30 457 H 41.2128 2.31222 -4.34508 0
M  V30 458 N 42.8649 1.48995 0.513639 0
M  V30 459 C 44.1129 1.57531 1.26604 0
M  V30 460 C 44.4339 0.258236 1.93283 0
M  V30 461 O 43.7039 -0.721502 1.8213 0
M  V30 462 H 42.2839 0.580387 0.470276 0
M  V30 463 H 44.9459 1.85552 0.596373 0
M  V30 464 H 44.0419 2.36486 2.03669 0
M  V30 465 N 44.343 -0.763751 1.37857 0
M  V30 466 C 45.592 -1.51789 1.32827 0
M  V30 467 C 45.905 -1.95426 -0.0823719 0
M  V30 468 O 47.111 -2.70298 -0.255172 0
M  V30 469 C 45.567 -2.74133 2.33193 0
M  V30 470 C 45.175 -2.37562 3.79827 0
M  V30 471 C 46.919 -3.52054 2.37188 0
M  V30 472 C 44.826 -3.56456 4.71904 0
M  V30 473 H 43.756 -0.569896 0.493695 0
M  V30 474 H 46.407 -0.835822 1.63359 0
M  V30 475 H 44.789 -3.4427 1.9569 0
M  V30 476 H 45.963 -1.75157 4.26212 0
M  V30 477 H 44.278 -1.72798 3.78853 0
M  V30 478 H 46.875 -4.40437 3.03182 0
M  V30 479 H 47.218 -3.92486 1.38782 0
M  V30 480 H 47.751 -2.88921 2.7344 0
M  V30 481 H 44.49 -3.21099 5.71468 0
M  V30 482 H 44.01 -4.17938 4.30218 0
M  V30 483 H 45.689 -4.23168 4.89426 0
M  V30 484 N 45.8211 -1.22559 -0.990812 0
M  V30 485 C 47.0981 -0.959875 -1.70428 0
M  V30 486 C 47.4781 0.524455 -2.04481 0
M  V30 487 O 46.8261 1.49302 -1.72977 0
M  V30 488 C 47.0361 -1.85955 -2.95333 0
M  V30 489 C 48.3841 -2.11687 -3.68068 0
M  V30 490 O 49.4081 -1.8342 -3.05345 0
M  V30 491 O 48.2671 -2.59572 -4.80921 0
M  V30 492 H 45.3611 -0.361154 -0.743974 0
M  V30 493 H 47.9071 -1.33554 -1.04697 0
M  V30 494 H 46.6791 -2.86346 -2.66687 0
M  V30 495 H 46.3021 -1.4856 -3.68803 0
M  V30 496 N 47.2992 1.18797 -1.03562 0
M  V30 497 C 48.2092 2.25913 -0.632505 0
M  V30 498 C 49.2252 1.70668 0.338882 0
M  V30 499 O 50.4012 2.00453 0.195076 0
M  V30 500 C 47.4662 3.467 0.00350942 0
M  V30 501 C 46.5272 4.17098 -1.01624 0
M  V30 502 C 45.7602 5.32119 -0.410478 0
M  V30 503 O 45.9832 5.64976 0.784725 0
M  V30 504 O 44.9172 5.9107 -1.13667 0
M  V30 505 H 48.7432 2.62648 -1.52478 0
M  V30 506 H 46.3282 1.25781 -0.806195 0
M  V30 507 H 48.2102 4.19878 0.35781 0
M  V30 508 H 46.8852 3.11798 0.869686 0
M  V30 509 H 45.7922 3.4601 -1.42224 0
M  V30 510 H 47.1252 4.55987 -1.85301 0
M  V30 511 N 48.7773 0.814389 1.34928 0
M  V30 512 C 49.7073 0.244827 2.32213 0
M  V30 513 C 50.6883 -0.634024 1.57842 0
M  V30 514 O 51.8733 -0.562676 1.8587 0
M  V30 515 C 49.0033 -0.601106 3.42058 0
M  V30 516 C 47.9573 0.179896 4.27622 0
M  V30 517 C 47.2833 -0.788237 5.28858 0
M  V30 518 C 48.5833 1.38329 5.03649 0
M  V30 519 H 50.2773 1.05763 2.80097 0
M  V30 520 H 47.8233 0.510029 1.34665 0
M  V30 521 H 49.7763 -1.00968 4.09125 0
M  V30 522 H 48.5003 -1.44688 2.92802 0
M  V30 523 H 47.1593 0.569739 3.62146 0
M  V30 524 H 46.8073 -1.62973 4.75866 0
M  V30 525 H 46.5073 -0.269942 5.8698 0
M  V30 526 H 48.0313 -1.19485 5.98795 0
M  V30 527 H 49.4453 1.04918 5.63618 0
M  V30 528 H 47.8423 1.83662 5.71304 0
M  V30 529 H 48.9123 2.16592 4.33839 0
M  V30 530 N 50.2554 -1.46986 0.568584 0
M  V30 531 C 51.2184 -2.28624 -0.162366 0
M  V30 532 C 52.2184 -1.37596 -0.832103 0
M  V30 533 O 53.4084 -1.60115 -0.68622 0
M  V30 534 C 50.5404 -3.17596 -1.23878 0
M  V30 535 H 51.7334 -2.94722 0.554899 0
M  V30 536 H 49.2864 -1.52863 0.325976 0
M  V30 537 H 50.0214 -2.56214 -1.98808 0
M  V30 538 H 49.8064 -3.846 -0.763219 0
M  V30 539 H 51.2964 -3.79078 -1.75185 0
M  V30 540 N 51.7335 -0.305618 -1.54608 0
M  V30 541 C 52.6805 0.568421 -2.23691 0
M  V30 542 C 53.6505 1.12592 -1.22116 0
M  V30 543 O 54.8355 1.16959 -1.50749 0
M  V30 544 C 51.9755 1.7322 -2.98477 0
M  V30 545 C 51.0885 1.20566 -4.14835 0
M  V30 546 C 50.2235 2.33368 -4.77193 0
M  V30 547 C 49.2625 1.7787 -5.85686 0
M  V30 548 N 48.3995 2.84263 -6.4198 0
M  V30 549 H 53.2395 -0.0272867 -2.97988 0
M  V30 550 H 50.7765 -0.0252363 -1.47078 0
M  V30 551 H 52.7345 2.41675 -3.40072 0
M  V30 552 H 51.3645 2.29947 -2.26548 0
M  V30 553 H 50.4165 0.413223 -3.78149 0
M  V30 554 H 51.7285 0.759417 -4.92985 0
M  V30 555 H 50.8825 3.09761 -5.21664 0
M  V30 556 H 49.6215 2.8132 -3.98385 0
M  V30 557 H 48.6265 0.99968 -5.40635 0
M  V30 558 H 49.8515 1.30816 -6.66381 0
M  V30 559 H 47.7975 3.31541 -5.66053 0
M  V30 560 H 47.7145 2.44149 -7.15491 0
M  V30 561 H 48.9825 3.6054 -6.91109 0
M  V30 562 N 53.2116 1.57565 -0.0334293 0
M  V30 563 C 54.4606 1.91155 0.643639 0
M  V30 564 C 54.7736 0.91192 1.73042 0
M  V30 565 O 55.9796 1.13923 2.46442 0
M  V30 566 C 54.4356 3.39443 1.1961 0
M  V30 567 C 54.0436 4.47774 0.142381 0
M  V30 568 C 55.7876 3.82094 1.84944 0
M  V30 569 C 53.6946 5.87162 0.706727 0
M  V30 570 H 52.6246 0.713368 0.244176 0
M  V30 571 H 55.2756 1.8323 -0.0994323 0
M  V30 572 H 53.6576 3.42313 1.99092 0
M  V30 573 H 54.8316 4.56469 -0.630296 0
M  V30 574 H 53.1466 4.14352 -0.412446 0
M  V30 575 H 55.7436 4.83591 2.2813 0
M  V30 576 H 56.0866 3.17386 2.69392 0
M  V30 577 H 56.6196 3.81665 1.12145 0
M  V30 578 H 53.3586 6.55424 -0.0997178 0
M  V30 579 H 52.8786 5.82064 1.44779 0
M  V30 580 H 54.5576 6.35866 1.19514 0
M  V30 581 N 54.6897 -0.239769 1.55765 0
M  V30 582 C 55.9297 -0.974076 1.79697 0
M  V30 583 C 56.2937 -1.82249 0.604088 0
M  V30 584 O 57.4947 -2.58913 0.722324 0
M  V30 585 C 55.7657 -1.80595 3.08416 0
M  V30 586 S 57.3247 -2.59838 3.53596 0
M  V30 587 H 54.1427 -0.327524 0.63107 0
M  V30 588 H 56.7447 -0.241277 1.94005 0
M  V30 589 H 55.4487 -1.17249 3.93295 0
M  V30 590 H 54.9797 -2.58137 2.96865 0
M  V30 591 H 56.9947 -3.82987 3.15492 0
M  V30 592 N 56.1678 -1.49265 -0.50573 0
M  V30 593 C 57.4158 -1.582 -1.25766 0
M  V30 594 C 57.7368 -0.268482 -1.93143 0
M  V30 595 O 57.0068 0.711833 -1.8251 0
M  V30 596 H 55.5868 -0.582873 -0.467191 0
M  V30 597 H 58.2488 -1.85865 -0.586525 0
M  V30 598 H 57.3448 -2.37563 -2.02412 0
M  V30 599 N 57.6459 0.756429 -1.3826 0
M  V30 600 C 58.8919 1.51772 -1.34511 0
M  V30 601 C 59.2249 1.94089 0.0656691 0
M  V30 602 O 58.4999 1.65221 1.02626 0
M  V30 603 C 58.7829 2.77226 -2.29821 0
M  V30 604 C 58.6359 2.41065 -3.79747 0
M  V30 605 C 59.9549 3.79236 -2.23312 0
M  V30 606 H 57.0739 0.550578 -0.489931 0
M  V30 607 H 59.7159 0.866607 -1.69086 0
M  V30 608 H 57.8659 3.32784 -2.00467 0
M  V30 609 H 59.5379 1.91303 -4.19763 0
M  V30 610 H 57.7809 1.7356 -3.97567 0
M  V30 611 H 58.4519 3.3081 -4.41892 0
M  V30 612 H 60.9279 3.3321 -2.49219 0
M  V30 613 H 59.8039 4.64714 -2.92116 0
M  V30 614 H 60.0649 4.24615 -1.23102 0
M  V30 615 N 59.124 1.23083 0.984299 0
M  V30 616 C 60.034 1.02515 2.11016 0
M  V30 617 C 61.05 -0.0291702 1.73976 0
M  V30 618 O 62.226 0.165434 2.00719 0
M  V30 619 C 59.291 0.614673 3.41208 0
M  V30 620 C 58.352 1.74359 3.92297 0
M  V30 621 C 57.585 1.35261 5.16275 0
M  V30 622 O 57.808 0.235136 5.69915 0
M  V30 623 O 56.742 2.17227 5.61334 0
M  V30 624 H 60.568 1.96862 2.31255 0
M  V30 625 H 58.153 1.01753 1.09392 0
M  V30 626 H 60.035 0.396518 4.1953 0
M  V30 627 H 58.71 -0.299851 3.22308 0
M  V30 628 H 57.617 2.01635 3.1511 0
M  V30 629 H 58.95 2.63629 4.15645 0
M  V30 630 N 60.6021 -1.18246 1.0419 0
M  V30 631 C 61.8791 -1.84121 0.660208 0
M  V30 632 C 62.2591 -1.92778 -0.860221 0
M  V30 633 O 61.6071 -1.45464 -1.76217 0
M  V30 634 C 61.8171 -3.22355 1.33747 0
M  V30 635 C 63.1651 -3.98376 1.46906 0
M  V30 636 O 64.1891 -3.31799 1.29568 0
M  V30 637 O 63.0481 -5.17665 1.75171 0
M  V30 638 H 60.1421 -0.794036 0.231161 0
M  V30 639 H 62.6881 -1.25628 1.14087 0
M  V30 640 H 61.4601 -3.10964 2.37522 0
M  V30 641 H 61.0831 -3.88506 0.845515 0
M  V30 642 N 62.0802 -0.821533 -1.34494 0
M  V30 643 C 63.0432 -0.247847 -2.27856 0
M  V30 644 C 64.0432 0.573453 -1.50227 0
M  V30 645 O 65.2332 0.389759 -1.69784 0
M  V30 646 C 62.3652 0.652698 -3.34593 0
M  V30 647 H 63.5582 -1.07146 -2.80107 0
M  V30 648 H 61.1112 -0.593291 -1.44602 0
M  V30 649 H 61.8462 1.49943 -2.87555 0
M  V30 650 H 61.6312 0.065292 -3.92046 0
M  V30 651 H 63.1212 1.04793 -4.04238 0
M  V30 652 N 63.5583 1.46682 -0.576371 0
M  V30 653 C 64.8043 2.02712 -0.0596221 0
M  V30 654 C 65.1373 1.44765 1.29448 0
M  V30 655 O 64.4123 0.610355 1.84675 0
M  V30 656 C 64.6953 3.60098 0.0129503 0
M  V30 657 C 64.5483 4.28441 -1.3696 0
M  V30 658 C 65.8673 4.34224 0.71678 0
M  V30 659 H 62.9863 0.736637 -0.0231407 0
M  V30 660 H 65.6283 1.74898 -0.742351 0
M  V30 661 H 63.7783 3.83926 0.594378 0
M  V30 662 H 65.4503 4.15896 -1.9957 0
M  V30 663 H 63.6933 3.8805 -1.93907 0
M  V30 664 H 64.3643 5.3716 -1.27135 0
M  V30 665 H 66.8403 4.15503 0.222908 0
M  V30 666 H 65.7163 5.43936 0.73657 0
M  V30 667 H 65.9773 4.04823 1.77682 0
M  V30 668 N 65.0364 0.313813 1.54444 0
M  V30 669 C 66.2614 -0.296681 2.05267 0
M  V30 670 C 66.6864 -1.45757 1.18897 0
M  V30 671 O 66.0444 -1.80239 0.195886 0
M  V30 672 C 66.0924 -0.71831 3.53373 0
M  V30 673 O 65.1964 -1.82175 3.69981 0
M  V30 674 H 64.5374 -0.0554061 0.661684 0
M  V30 675 H 67.0674 0.459387 1.99376 0
M  V30 676 H 67.0774 -1.00364 3.95463 0
M  V30 677 H 65.7524 0.130821 4.15694 0
M  V30 678 H 64.3294 -1.53598 3.39797 0
M  V30 679 N 66.5145 -1.57545 0.0417849 0
M  V30 680 C 67.4245 -2.14451 -0.951213 0
M  V30 681 C 68.4405 -1.09992 -1.34825 0
M  V30 682 O 69.6165 -1.42114 -1.42708 0
M  V30 683 C 66.6815 -2.67063 -2.21084 0
M  V30 684 C 65.7425 -3.86284 -1.87304 0
M  V30 685 C 64.9755 -4.36378 -3.07261 0
M  V30 686 O 65.1985 -3.85587 -4.20332 0
M  V30 687 O 64.1325 -5.28077 -2.88822 0
M  V30 688 H 67.9585 -2.99601 -0.497287 0
M  V30 689 H 65.5435 -1.48317 -0.179567 0
M  V30 690 H 67.4255 -3.00914 -2.95006 0
M  V30 691 H 66.1005 -1.84989 -2.65633 0
M  V30 692 H 65.0075 -3.57338 -1.10727 0
M  V30 693 H 66.3405 -4.6956 -1.47562 0
M  V30 694 N 67.9926 0.231505 -1.5589 0
M  V30 695 C 68.9256 1.31369 -1.86595 0
M  V30 696 C 69.9036 1.45671 -0.722397 0
M  V30 697 O 71.0876 1.61642 -0.969743 0
M  V30 698 C 68.2146 2.68529 -2.06421 0
M  V30 699 C 67.2606 2.71295 -3.29092 0
M  V30 700 S 68.0936 2.26358 -4.85306 0
M  V30 701 C 69.2496 3.65414 -5.08157 0
M  V30 702 H 69.4826 1.05128 -2.78092 0
M  V30 703 H 67.0156 0.433259 -1.48197 0
M  V30 704 H 68.9736 3.47499 -2.18528 0
M  V30 705 H 67.6346 2.91999 -1.15738 0
M  V30 706 H 66.8276 3.72063 -3.39978 0
M  V30 707 H 66.4296 2.0038 -3.15791 0
M  V30 708 H 68.7216 4.6103 -4.96445 0
M  V30 709 H 69.6646 3.5945 -6.10083 0
M  V30 710 H 70.0726 3.5864 -4.35933 0
M  V30 711 N 69.4707 1.49531 0.497807 0
M  V30 712 C 70.6987 1.62893 1.27567 0
M  V30 713 C 71.1137 0.301585 1.86376 0
M  V30 714 O 70.4707 -0.713335 1.67982 0
M  V30 715 C 70.5217 2.70013 2.40364 0
M  V30 716 O 70.2427 3.976 1.83972 0
M  V30 717 C 71.7437 2.94109 3.31685 0
M  V30 718 H 68.9637 0.548298 0.386794 0
M  V30 719 H 71.5077 1.95584 0.597245 0
M  V30 720 H 69.6627 2.40092 3.04031 0
M  V30 721 H 70.0767 4.56631 2.58047 0
M  V30 722 H 71.5507 3.72788 4.07104 0
M  V30 723 H 72.0277 2.04147 3.88871 0
M  V30 724 H 72.6337 3.2546 2.73781 0
M  V30 725 N 70.9488 -0.749086 1.3866 0
M  V30 726 C 72.3648 -1.05276 1.19955 0
M  V30 727 C 72.5648 -2.01435 0.05134 0
M  V30 728 O 71.6208 -2.45232 -0.60147 0
M  V30 729 C 72.9338 -1.62853 2.52783 0
M  V30 730 C 74.4818 -1.75002 2.59506 0
M  V30 731 C 74.9568 -2.35991 3.92521 0
M  V30 732 N 76.4478 -2.43416 3.94085 0
M  V30 733 C 77.1828 -2.91511 4.9377 0
M  V30 734 N 76.6788 -3.39608 6.03853 0
M  V30 735 N 78.4718 -2.90592 4.81157 0
M  V30 736 H 70.6228 -0.111066 2.12109 0
M  V30 737 H 72.8858 -0.111901 0.941373 0
M  V30 738 H 72.5918 -0.99664 3.37283 0
M  V30 739 H 72.4658 -2.61854 2.715 0
M  V30 740 H 74.8528 -2.37317 1.75398 0
M  V30 741 H 74.9338 -0.74693 2.44652 0
M  V30 742 H 74.5778 -1.74308 4.77053 0
M  V30 743 H 74.5078 -3.3695 4.04688 0
M  V30 744 H 76.9988 -2.09405 3.14576 0
M  V30 745 H 77.3118 -3.74775 6.75843 0
M  V30 746 H 75.6568 -3.37653 6.07466 0
M  V30 747 H 78.8478 -2.52332 3.94267 0
M  V30 748 H 79.0208 -3.27762 5.58996 0
M  V30 749 N 72.4269 -1.23603 -0.977757 0
M  V30 750 C 73.8429 -0.999251 -1.24447 0
M  V30 751 C 74.0429 0.298053 -1.99283 0
M  V30 752 O 73.0989 1.01681 -2.31122 0
M  V30 753 C 74.4119 -2.20784 -2.04144 0
M  V30 754 C 75.9599 -2.25303 -2.17273 0
M  V30 755 C 76.4349 -3.45755 -3.00362 0
M  V30 756 N 77.9259 -3.4601 -3.07947 0
M  V30 757 C 78.6609 -4.35868 -3.72568 0
M  V30 758 N 78.1569 -5.35966 -4.38991 0
M  V30 759 N 79.9499 -4.23605 -3.6948 0
M  V30 760 H 72.1009 -2.06986 -0.476483 0
M  V30 761 H 74.3639 -0.907801 -0.273134 0
M  V30 762 H 74.0699 -3.14945 -1.56533 0
M  V30 763 H 73.9439 -2.22085 -3.04891 0
M  V30 764 H 76.3309 -1.3168 -2.64092 0
M  V30 765 H 76.4119 -2.28033 -1.15907 0
M  V30 766 H 76.0559 -4.39687 -2.5424 0
M  V30 767 H 75.9859 -3.40266 -4.01904 0
M  V30 768 H 78.4769 -2.73588 -2.60688 0
M  V30 769 H 78.7899 -6.00783 -4.86086 0
M  V30 770 H 77.1349 -5.39863 -4.37691 0
M  V30 771 H 80.3259 -3.44647 -3.16759 0
M  V30 772 H 80.4989 -4.93836 -4.1956 0
M  V30 773 N 73.905 1.17692 -1.04816 0
M  V30 774 C 74.868 2.19787 -0.650117 0
M  V30 775 C 75.868 1.58044 0.296427 0
M  V30 776 O 77.058 1.74012 0.0808097 0
M  V30 777 C 74.19 3.40869 0.0456987 0
M  V30 778 H 75.383 2.56516 -1.5537 0
M  V30 779 H 72.936 1.31708 -0.841594 0
M  V30 780 H 73.671 3.09681 0.962726 0
M  V30 781 H 73.456 3.86928 -0.634727 0
M  V30 782 H 74.946 4.16445 0.310432 0
M  V30 783 N 75.3831 0.828654 1.34056 0
M  V30 784 C 76.3161 0.199763 2.27324 0
M  V30 785 C 77.2941 -0.647168 1.49166 0
M  V30 786 O 78.4781 -0.609661 1.78369 0
M  V30 787 C 75.6051 -0.720455 3.30949 0
M  V30 788 C 74.6511 0.0496888 4.26471 0
M  V30 789 S 75.4841 1.40072 5.16856 0
M  V30 790 C 76.6401 0.485527 6.24014 0
M  V30 791 H 76.8731 0.990478 2.80316 0
M  V30 792 H 74.4061 0.624857 1.41191 0
M  V30 793 H 76.3641 -1.24581 3.91139 0
M  V30 794 H 75.0251 -1.48474 2.76793 0
M  V30 795 H 74.2181 -0.650104 4.9979 0
M  V30 796 H 73.8201 0.505779 3.70564 0
M  V30 797 H 76.1121 -0.320672 6.76741 0
M  V30 798 H 77.0551 1.18856 6.98054 0
M  V30 799 H 77.4631 0.0714109 5.64455 0
M  V30 800 N 76.8612 -1.46375 0.584142 0
M  V30 801 C 78.1092 -2.01978 0.0701287 0
M  V30 802 C 78.4302 -1.4579 -1.295 0
M  V30 803 O 77.7002 -0.64314 -1.85042 0
M  V30 804 H 76.2802 -0.746648 0.0229345 0
M  V30 805 H 78.9422 -1.79461 0.760245 0
M  V30 806 H 78.0382 -3.121 0.0022064 0
M  V30 807 N 78.3393 -0.321999 -1.54275 0
M  V30 808 C 79.5873 0.280489 -2.00144 0
M  V30 809 C 79.9083 1.52777 -1.21178 0
M  V30 810 O 79.1783 1.9338 -0.313187 0
M  V30 811 H 77.7583 0.106632 -0.73935 0
M  V30 812 H 80.4203 -0.438184 -1.8991 0
M  V30 813 H 79.5163 0.537972 -3.07428 0
M  V30 814 N 79.8174 1.5752 -0.0501392 0
M  V30 815 C 80.7804 2.1037 0.909786 0
M  V30 816 C 81.7804 1.02308 1.24056 0
M  V30 817 O 82.9704 1.28385 1.17741 0
M  V30 818 C 80.1024 2.58708 2.21998 0
M  V30 819 H 81.2954 2.96479 0.451665 0
M  V30 820 H 78.8484 1.55038 0.198248 0
M  V30 821 H 79.5834 1.75989 2.72394 0
M  V30 822 H 79.3684 3.37675 1.99295 0
M  V30 823 H 80.8584 2.99747 2.9076 0
M  V30 824 N 81.2955 -0.223234 1.56011 0
M  V30 825 C 82.5415 -0.949279 1.79211 0
M  V30 826 C 82.8745 -1.84054 0.619494 0
M  V30 827 O 82.1495 -1.90726 -0.381317 0
M  V30 828 C 82.4325 -1.78965 3.12479 0
M  V30 829 C 82.2855 -0.924997 4.40186 0
M  V30 830 C 83.6045 -2.76774 3.42175 0
M  V30 831 H 80.7235 -0.343676 0.651963 0
M  V30 832 H 83.3655 -0.218253 1.88742 0
M  V30 833 H 81.5155 -2.41291 3.04485 0
M  V30 834 H 83.1875 -0.318615 4.60198 0
M  V30 835 H 81.4305 -0.230344 4.33188 0
M  V30 836 H 82.1015 -1.54735 5.29869 0
M  V30 837 H 84.5775 -2.24584 3.50287 0
M  V30 838 H 83.4535 -3.32678 4.36597 0
M  V30 839 H 83.7145 -3.54429 2.64258 0
M  V30 840 N 82.7736 -1.49793 -0.48987 0
M  V30 841 C 84.1846 -1.52914 -1.07118 0
M  V30 842 C 84.5356 -0.321738 -1.93544 0
M  V30 843 O 83.6606 0.567338 -2.08831 0
M  V30 844 C 84.2556 -2.771 -1.94938 0
M  V30 845 C 82.8146 -2.82963 -2.48212 0
M  V30 846 C 81.9616 -2.46972 -1.26096 0
M  V30 847 H 84.9126 -1.56329 -0.273289 0
M  V30 848 H 84.9336 -2.57892 -2.79771 0
M  V30 849 H 84.4456 -3.64959 -1.32009 0
M  V30 850 H 82.5466 -1.99411 -3.14748 0
M  V30 851 H 82.6596 -3.85406 -2.84603 0
M  V30 852 H 81.0236 -1.98994 -1.58976 0
M  V30 853 H 81.8066 -3.37118 -0.648581 0
M  V30 854 N 84.2517 0.741722 -1.39055 0
M  V30 855 C 85.4987 1.50114 -1.35912 0
M  V30 856 C 85.8267 1.94443 0.0470937 0
M  V30 857 O 85.0817 1.66612 1.02659 0
M  V30 858 C 85.3807 2.7592 -2.27163 0
M  V30 859 C 85.0467 2.50493 -3.74919 0
M  V30 860 C 83.7087 2.43267 -4.1518 0
M  V30 861 C 86.0607 2.28585 -4.684 0
M  V30 862 C 83.3887 2.12166 -5.46994 0
M  V30 863 C 85.7407 1.99002 -6.00484 0
M  V30 864 C 84.4047 1.90241 -6.39816 0
M  V30 865 H 83.6747 0.549306 -0.497336 0
M  V30 866 H 86.3217 0.851896 -1.71508 0
M  V30 867 H 84.6267 3.45553 -1.84663 0
M  V30 868 H 86.3237 3.33923 -2.22028 0
M  V30 869 H 82.9137 2.56992 -3.43006 0
M  V30 870 H 87.0977 2.33139 -4.38132 0
M  V30 871 H 82.3537 2.03901 -5.76398 0
M  V30 872 H 86.5277 1.81057 -6.72452 0
M  V30 873 H 84.1547 1.65907 -7.41875 0
M  V30 874 N 85.7298 1.2412 0.971189 0
M  V30 875 C 86.6768 1.0305 2.06517 0
M  V30 876 C 87.6468 -0.0550666 1.66009 0
M  V30 877 O 88.8318 0.0988688 1.90544 0
M  V30 878 C 85.9718 0.637653 3.39158 0
M  V30 879 C 85.0848 1.79633 3.92882 0
M  V30 880 C 84.2198 1.34939 5.13775 0
M  V30 881 C 83.2588 2.47823 5.59687 0
M  V30 882 N 82.3958 2.04022 6.71803 0
M  V30 883 H 87.2358 1.96685 2.23873 0
M  V30 884 H 84.7728 0.979694 1.09729 0
M  V30 885 H 86.7308 0.390931 4.15364 0
M  V30 886 H 85.3608 -0.261693 3.21737 0
M  V30 887 H 84.4128 2.15681 3.13346 0
M  V30 888 H 85.7248 2.64466 4.22918 0
M  V30 889 H 84.8788 1.06134 5.97345 0
M  V30 890 H 83.6178 0.471557 4.85415 0
M  V30 891 H 82.6228 2.77392 4.74693 0
M  V30 892 H 83.8478 3.36158 5.90063 0
M  V30 893 H 81.7938 1.18632 6.45184 0
M  V30 894 H 81.7108 2.82409 7.01271 0
M  V30 895 H 82.9788 1.78347 7.58823 0
M  V30 896 N 87.2079 -1.17134 1.05439 0
M  V30 897 C 88.1709 -2.19439 0.661764 0
M  V30 898 C 89.1709 -1.58199 -0.288042 0
M  V30 899 O 90.3609 -1.74053 -0.0715803 0
M  V30 900 C 87.4929 -3.40889 -0.0276209 0
M  V30 901 H 88.6859 -2.55688 1.56728 0
M  V30 902 H 86.2389 -1.31259 0.848567 0
M  V30 903 H 86.9739 -3.10187 -0.94629 0
M  V30 904 H 86.7589 -3.86586 0.655238 0
M  V30 905 H 88.2489 -4.16603 -0.288342 0
M  V30 906 N 88.686 -0.835752 -1.33615 0
M  V30 907 C 89.649 -0.272 -2.2758 0
M  V30 908 C 90.649 0.557487 -1.50827 0
M  V30 909 O 91.839 0.37173 -1.70188 0
M  V30 910 C 88.971 0.617173 -3.35267 0
M  V30 911 H 90.164 -1.10111 -2.78954 0
M  V30 912 H 87.717 -0.608594 -1.43965 0
M  V30 913 H 88.452 1.46884 -2.89129 0
M  V30 914 H 88.237 0.0237066 -3.92093 0
M  V30 915 H 89.727 1.005 -4.05326 0
M  V30 916 N 90.1641 1.46063 -0.591896 0
M  V30 917 C 91.0941 2.33172 0.123673 0
M  V30 918 C 92.0751 1.45897 0.87453 0
M  V30 919 O 93.2601 1.74698 0.848181 0
M  V30 920 C 90.3901 3.28336 1.13194 0
M  V30 921 C 89.3441 4.25124 0.495324 0
M  V30 922 C 88.6701 5.09863 1.61071 0
M  V30 923 C 89.9701 5.19143 -0.573425 0
M  V30 924 H 91.6641 2.93252 -0.603646 0
M  V30 925 H 89.2101 1.41014 -0.291741 0
M  V30 926 H 91.1631 3.88137 1.64097 0
M  V30 927 H 89.8871 2.66383 1.88965 0
M  V30 928 H 88.5461 3.66599 0.00729452 0
M  V30 929 H 88.1941 4.44288 2.35832 0
M  V30 930 H 87.8941 5.75417 1.19035 0
M  V30 931 H 89.4181 5.72529 2.12233 0
M  V30 932 H 90.8321 5.73106 -0.1491 0
M  V30 933 H 89.2291 5.93089 -0.914636 0
M  V30 934 H 90.2991 4.62519 -1.45617 0
M  V30 935 N 91.6422 0.330177 1.54103 0
M  V30 936 C 92.8702 -0.272179 2.05102 0
M  V30 937 C 93.2852 -1.45267 1.20595 0
M  V30 938 O 92.6422 -1.8094 0.238144 0
M  V30 939 C 92.6932 -0.70023 3.54653 0
M  V30 940 O 92.4142 0.433301 4.35952 0
M  V30 941 C 93.9152 -1.3647 4.21771 0
M  V30 942 H 91.1352 -0.0549159 0.668749 0
M  V30 943 H 93.6792 0.478285 1.98828 0
M  V30 944 H 91.8342 -1.40066 3.61193 0
M  V30 945 H 92.2482 0.0947539 5.24414 0
M  V30 946 H 93.7222 -1.61509 5.27843 0
M  V30 947 H 94.1992 -2.31409 3.73292 0
M  V30 948 H 94.8052 -0.706675 4.19388 0
M  V30 949 N 93.1203 -1.57491 0.0584922 0
M  V30 950 C 94.0303 -2.15448 -0.928414 0
M  V30 951 C 95.0463 -1.11416 -1.3365 0
M  V30 952 O 96.2223 -1.4362 -1.41193 0
M  V30 953 C 93.2873 -2.69393 -2.18239 0
M  V30 954 C 92.3483 -3.88249 -1.83196 0
M  V30 955 C 91.5813 -4.39613 -3.02616 0
M  V30 956 O 91.8043 -3.90023 -4.16219 0
M  V30 957 O 90.7383 -5.31111 -2.83204 0
M  V30 958 H 94.5643 -3.00112 -0.465483 0
M  V30 959 H 92.1493 -1.48499 -0.163826 0
M  V30 960 H 94.0313 -3.04026 -2.91798 0
M  V30 961 H 92.7063 -1.87796 -2.63656 0
M  V30 962 H 91.6133 -3.58492 -1.06931 0
M  V30 963 H 92.9463 -4.71098 -1.42573 0
M  V30 964 N 94.5984 0.214957 -1.56127 0
M  V30 965 C 96.0144 0.564948 -1.49267 0
M  V30 966 C 96.2144 1.86827 -0.754838 0
M  V30 967 O 95.2704 2.50745 -0.297198 0
M  V30 968 C 96.5834 0.638071 -2.93852 0
M  V30 969 C 98.1314 0.728253 -3.0441 0
M  V30 970 C 98.6064 0.832663 -4.50367 0
M  V30 971 N 100.097 0.896712 -4.54437 0
M  V30 972 C 100.832 0.997324 -5.6466 0
M  V30 973 N 100.328 1.06147 -6.8462 0
M  V30 974 N 102.121 1.03297 -5.52527 0
M  V30 975 H 94.2724 -0.640211 -2.02522 0
M  V30 976 H 96.5354 -0.225507 -0.920788 0
M  V30 977 H 96.2414 -0.250126 -3.50809 0
M  V30 978 H 96.1154 1.49947 -3.46115 0
M  V30 979 H 98.5024 1.60689 -2.47514 0
M  V30 980 H 98.5834 -0.158952 -2.55306 0
M  V30 981 H 98.2274 -0.0415417 -5.07883 0
M  V30 982 H 98.1574 1.73538 -4.97184 0
M  V30 983 H 100.648 0.857188 -3.6805 0
M  V30 984 H 100.961 1.1382 -7.64372 0
M  V30 985 H 99.3064 1.03049 -6.87318 0
M  V30 986 H 102.497 0.979558 -4.57736 0
M  V30 987 H 102.67 1.10793 -6.38458 0
M  V30 988 N 96.0765 1.50051 0.48192 0
M  V30 989 C 97.0065 1.71046 1.58951 0
M  V30 990 C 97.9875 0.559288 1.60642 0
M  V30 991 O 99.1725 0.797243 1.77081 0
M  V30 992 C 96.3025 1.79462 2.97339 0
M  V30 993 C 95.2565 2.94558 3.10515 0
M  V30 994 C 94.5825 2.88105 4.50444 0
M  V30 995 C 95.8825 4.35227 2.88747 0
M  V30 996 H 97.5765 2.6378 1.41635 0
M  V30 997 H 95.1225 1.26936 0.679942 0
M  V30 998 H 97.0755 1.92734 3.74742 0
M  V30 999 H 95.7995 0.833412 3.15788 0
M  V30 1000 H 94.4585 2.80918 2.35543 0
M  V30 1001 H 94.1065 1.89853 4.65795 0
M  V30 1002 H 93.8065 3.65366 4.60197 0
M  V30 1003 H 95.3305 3.03412 5.29881 0
M  V30 1004 H 96.7445 4.49449 3.55905 0
M  V30 1005 H 95.1415 5.13856 3.09955 0
M  V30 1006 H 96.2115 4.48347 1.84696 0
M  V30 1007 N 97.5546 -0.734337 1.39446 0
M  V30 1008 C 98.5176 -1.83004 1.37994 0
M  V30 1009 C 99.5176 -1.58397 0.276938 0
M  V30 1010 O 100.708 -1.65785 0.534875 0
M  V30 1011 C 97.8396 -3.20802 1.1532 0
M  V30 1012 H 99.0326 -1.85694 2.35494 0
M  V30 1013 H 96.5856 -0.938059 1.25021 0
M  V30 1014 H 97.3206 -3.23772 0.185036 0
M  V30 1015 H 97.1056 -3.4006 1.95197 0
M  V30 1016 H 98.5956 -4.00862 1.17046 0
M  V30 1017 N 99.0327 -1.24633 -0.964593 0
M  V30 1018 C 99.9627 -1.06611 -2.07741 0
M  V30 1019 C 100.944 0.0218666 -1.70086 0
M  V30 1020 O 102.129 -0.145793 -1.93652 0
M  V30 1021 C 99.2587 -0.673444 -3.40708 0
M  V30 1022 C 98.2127 -1.71054 -3.92332 0
M  V30 1023 C 97.5387 -1.17285 -5.21678 0
M  V30 1024 C 98.8387 -3.10718 -4.19824 0
M  V30 1025 H 100.533 -1.99693 -2.23076 0
M  V30 1026 H 98.0787 -0.96152 -1.07195 0
M  V30 1027 H 100.032 -0.534345 -4.17998 0
M  V30 1028 H 98.7557 0.293073 -3.25282 0
M  V30 1029 H 97.4147 -1.83791 -3.17201 0
M  V30 1030 H 97.0627 -0.196847 -5.02615 0
M  V30 1031 H 96.7627 -1.86592 -5.57187 0
M  V30 1032 H 98.2867 -1.04593 -6.01575 0
M  V30 1033 H 99.7007 -3.01192 -4.87808 0
M  V30 1034 H 98.0977 -3.77406 -4.66567 0
M  V30 1035 H 99.1677 -3.58524 -3.26479 0
M  V30 1036 N 100.511 1.16574 -1.06058 0
M  V30 1037 C 101.76 1.86385 -0.770944 0
M  V30 1038 C 102.073 1.82448 0.705129 0
M  V30 1039 O 103.279 2.47815 1.10905 0
M  V30 1040 C 101.735 3.34466 -1.32893 0
M  V30 1041 C 101.343 3.46883 -2.83507 0
M  V30 1042 C 103.087 4.09548 -1.11672 0
M  V30 1043 C 100.994 4.89036 -3.32562 0
M  V30 1044 H 99.9238 0.698181 -0.284709 0
M  V30 1045 H 102.575 1.31583 -1.27899 0
M  V30 1046 H 100.957 3.88859 -0.748662 0
M  V30 1047 H 102.131 3.02663 -3.47465 0
M  V30 1048 H 100.446 2.85232 -3.03368 0
M  V30 1049 H 103.043 5.14434 -1.45814 0
M  V30 1050 H 103.386 4.16264 -0.0549535 0
M  V30 1051 H 103.919 3.61387 -1.66265 0
M  V30 1052 H 100.658 4.87499 -4.38207 0
M  V30 1053 H 100.178 5.3389 -2.73351 0
M  V30 1054 H 101.857 5.57843 -3.2775 0
M  V30 1055 N 101.989 0.842826 1.3317 0
M  V30 1056 C 102.921 0.236245 2.27979 0
M  V30 1057 C 103.934 -0.585282 1.51915 0
M  V30 1058 O 105.123 -0.411705 1.73687 0
M  V30 1059 C 102.223 -0.685717 3.3189 0
M  V30 1060 C 101.396 0.0973448 4.37292 0
M  V30 1061 C 100.455 -0.748565 5.20848 0
M  V30 1062 O 99.4809 -0.186339 5.68895 0
M  V30 1063 N 100.683 -2.06527 5.42519 0
M  V30 1064 H 103.448 1.05088 2.80672 0
M  V30 1065 H 101.009 0.701667 1.45905 0
M  V30 1066 H 103.001 -1.25669 3.84694 0
M  V30 1067 H 101.571 -1.40105 2.79445 0
M  V30 1068 H 100.791 0.849706 3.84933 0
M  V30 1069 H 102.079 0.635643 5.04814 0
M  V30 1070 H 101.477 -2.54554 5.05192 0
M  V30 1071 H 100.034 -2.58464 5.98364 0
M  V30 1072 N 103.467 -1.45747 0.599634 0
M  V30 1073 C 104.878 -1.85853 0.177681 0
M  V30 1074 C 105.229 -1.50102 -1.26348 0
M  V30 1075 O 104.354 -0.923905 -1.95686 0
M  V30 1076 C 104.949 -3.37326 0.315688 0
M  V30 1077 C 103.508 -3.76365 -0.0515144 0
M  V30 1078 C 102.655 -2.69722 0.643822 0
M  V30 1079 H 105.606 -1.36661 0.806814 0
M  V30 1080 H 105.627 -3.77778 -0.454321 0
M  V30 1081 H 105.139 -3.63315 1.36468 0
M  V30 1082 H 103.24 -3.55993 -1.09999 0
M  V30 1083 H 103.353 -4.77916 0.336594 0
M  V30 1084 H 101.717 -2.54567 0.0822881 0
M  V30 1085 H 102.5 -2.98549 1.6948 0
M  V30 1086 N 104.945 -0.338344 -1.53925 0
M  V30 1087 C 106.17 0.263987 -2.05713 0
M  V30 1088 C 106.595 1.43847 -1.21201 0
M  V30 1089 O 105.953 1.79904 -0.224535 0
M  V30 1090 C 106.001 0.662 -3.54471 0
M  V30 1091 O 105.105 1.76265 -3.72833 0
M  V30 1092 H 104.446 0.0448722 -0.662482 0
M  V30 1093 H 106.976 -0.491048 -1.9862 0
M  V30 1094 H 106.986 0.940594 -3.9701 0
M  V30 1095 H 105.661 -0.196937 -4.15433 0
M  V30 1096 H 104.238 1.48173 -3.42198 0
M  V30 1097 N 106.423 1.57458 -0.0668435 0
M  V30 1098 C 107.839 1.56947 0.289772 0
M  V30 1099 C 108.039 1.07584 1.70376 0
M  V30 1100 O 107.095 0.739486 2.41429 0
M  V30 1101 C 108.408 3.0052 0.103943 0
M  V30 1102 C 109.956 3.12517 0.173857 0
M  V30 1103 C 110.431 4.57997 0.0163682 0
M  V30 1104 N 111.922 4.63144 0.0721352 0
M  V30 1105 C 112.657 5.73394 -0.0253794 0
M  V30 1106 N 112.153 6.92576 -0.176133 0
M  V30 1107 N 113.946 5.62091 0.0313305 0
M  V30 1108 H 106.097 1.87863 -0.991027 0
M  V30 1109 H 108.36 0.86583 -0.38606 0
M  V30 1110 H 108.066 3.40729 -0.871572 0
M  V30 1111 H 107.94 3.67304 0.858366 0
M  V30 1112 H 110.327 2.72197 1.13985 0
M  V30 1113 H 110.408 2.48381 -0.611586 0
M  V30 1114 H 110.052 4.99005 -0.946374 0
M  V30 1115 H 109.982 5.20158 0.821153 0
M  V30 1116 H 112.473 3.77436 0.187263 0
M  V30 1117 H 112.786 7.72418 -0.242821 0
M  V30 1118 H 111.131 6.94678 -0.211429 0
M  V30 1119 H 114.322 4.67867 0.147773 0
M  V30 1120 H 114.495 6.47982 -0.048121 0
M  V30 1121 N 107.901 -0.206675 1.56239 0
M  V30 1122 C 108.811 -1.27686 1.96808 0
M  V30 1123 C 109.827 -1.50455 0.874035 0
M  V30 1124 O 111.003 -1.63295 1.17884 0
M  V30 1125 C 108.068 -2.60358 2.28942 0
M  V30 1126 C 107.129 -2.45762 3.51994 0
M  V30 1127 C 106.362 -3.72108 3.82585 0
M  V30 1128 O 106.585 -4.75776 3.14631 0
M  V30 1129 O 105.519 -3.6833 4.76043 0
M  V30 1130 H 109.345 -0.962593 2.88041 0
M  V30 1131 H 106.93 -0.410746 1.43643 0
M  V30 1132 H 108.812 -3.38687 2.50737 0
M  V30 1133 H 107.487 -2.91435 1.4088 0
M  V30 1134 H 106.394 -1.65584 3.35459 0
M  V30 1135 H 107.727 -2.19621 4.40486 0
M  V30 1136 N 109.379 -1.50304 -0.473955 0
M  V30 1137 C 110.311 -1.65109 -1.58971 0
M  V30 1138 C 111.324 -0.532676 -1.53839 0
M  V30 1139 O 112.513 -0.805751 -1.59279 0
M  V30 1140 C 109.613 -1.61684 -2.97845 0
M  V30 1141 C 108.786 -2.8951 -3.27876 0
M  V30 1142 C 107.845 -2.78768 -4.4629 0
M  V30 1143 O 106.871 -3.52722 -4.46739 0
M  V30 1144 N 108.073 -1.9213 -5.47783 0
M  V30 1145 H 110.838 -2.61347 -1.46689 0
M  V30 1146 H 108.399 -1.47732 -0.662324 0
M  V30 1147 H 110.391 -1.52114 -3.75024 0
M  V30 1148 H 108.961 -0.731925 -3.03911 0
M  V30 1149 H 108.181 -3.13228 -2.39336 0
M  V30 1150 H 109.469 -3.74199 -3.4475 0
M  V30 1151 H 108.867 -1.31353 -5.50239 0
M  V30 1152 H 107.424 -1.88466 -6.23958 0
M  V30 1153 N 110.857 0.726932 -1.39834 0
M  V30 1154 C 112.103 1.48884 -1.377 0
M  V30 1155 C 112.436 1.94185 0.0244852 0
M  V30 1156 O 111.711 1.67361 0.990986 0
M  V30 1157 C 111.994 2.72288 -2.3565 0
M  V30 1158 C 111.847 2.32956 -3.84775 0
M  V30 1159 C 113.166 3.74414 -2.31306 0
M  V30 1160 H 110.285 0.540062 -0.5015 0
M  V30 1161 H 112.927 0.830547 -1.70886 0
M  V30 1162 H 111.077 3.28457 -2.07481 0
M  V30 1163 H 112.749 1.82356 -4.23726 0
M  V30 1164 H 110.992 1.65088 -4.01159 0
M  V30 1165 H 111.663 3.21362 -4.4881 0
M  V30 1166 H 114.139 3.27849 -2.56231 0
M  V30 1167 H 113.015 4.58414 -3.01907 0
M  V30 1168 H 113.276 4.21909 -1.32081 0
M  V30 1169 N 112.336 1.25143 0.95797 0
M  V30 1170 C 113.268 1.01023 2.05735 0
M  V30 1171 C 114.281 -0.0236902 1.62783 0
M  V30 1172 O 115.47 0.21448 1.77207 0
M  V30 1173 C 112.57 0.504595 3.35122 0
M  V30 1174 C 111.743 1.6039 4.06932 0
M  V30 1175 C 110.802 1.09922 5.14591 0
M  V30 1176 O 109.828 1.79293 5.40225 0
M  V30 1177 N 111.03 -0.0612545 5.80468 0
M  V30 1178 H 113.795 1.95683 2.26998 0
M  V30 1179 H 111.356 1.16303 1.12629 0
M  V30 1180 H 113.348 0.151516 4.04416 0
M  V30 1181 H 111.918 -0.347989 3.10657 0
M  V30 1182 H 111.138 2.12872 3.31782 0
M  V30 1183 H 112.426 2.34252 4.51667 0
M  V30 1184 H 111.824 -0.640985 5.62057 0
M  V30 1185 H 110.381 -0.355395 6.5083 0
M  V30 1186 N 113.814 -1.1601 1.06675 0
M  V30 1187 C 115.23 -1.38622 0.790948 0
M  V30 1188 C 115.43 -1.92109 -0.607965 0
M  V30 1189 O 114.486 -2.12239 -1.36787 0
M  V30 1190 C 115.799 -2.36347 1.85905 0
M  V30 1191 C 117.347 -2.50023 1.88301 0
M  V30 1192 C 117.822 -3.51033 2.94176 0
M  V30 1193 N 119.313 -3.58563 2.93235 0
M  V30 1194 C 120.048 -4.36521 3.71803 0
M  V30 1195 N 119.544 -5.17869 4.602 0
M  V30 1196 N 121.337 -4.31541 3.60178 0
M  V30 1197 H 113.488 -0.796294 1.96908 0
M  V30 1198 H 115.751 -0.412597 0.853503 0
M  V30 1199 H 115.457 -2.04147 2.86386 0
M  V30 1200 H 115.331 -3.36042 1.71334 0
M  V30 1201 H 117.718 -2.81524 0.884769 0
M  V30 1202 H 117.799 -1.5035 2.06951 0
M  V30 1203 H 117.443 -3.20268 3.94196 0
M  V30 1204 H 117.373 -4.50445 2.72776 0
M  V30 1205 H 119.864 -3.00496 2.29152 0
M  V30 1206 H 120.177 -5.74578 5.16797 0
M  V30 1207 H 118.522 -5.17199 4.64253 0
M  V30 1208 H 121.713 -3.67051 2.90502 0
M  V30 1209 H 121.886 -4.9205 4.21653 0
M  V30 1210 N 115.292 -0.849877 -1.32721 0
M  V30 1211 C 116.222 -0.306308 -2.31482 0
M  V30 1212 C 117.203 0.591952 -1.59468 0
M  V30 1213 O 118.388 0.513199 -1.87296 0
M  V30 1214 C 115.518 0.510204 -3.43532 0
M  V30 1215 C 114.472 -0.293209 -4.26994 0
M  V30 1216 C 113.798 0.647743 -5.30762 0
M  V30 1217 C 115.098 -1.51634 -4.99804 0
M  V30 1218 H 116.792 -1.13153 -2.77195 0
M  V30 1219 H 114.338 -0.545553 -1.33266 0
M  V30 1220 H 116.291 0.900856 -4.11658 0
M  V30 1221 H 115.015 1.36874 -2.96535 0
M  V30 1222 H 113.674 -0.665555 -3.60508 0
M  V30 1223 H 113.322 1.50299 -4.8002 0
M  V30 1224 H 113.022 0.11422 -5.87489 0
M  V30 1225 H 114.546 1.03567 -6.01753 0
M  V30 1226 H 115.96 -1.19824 -5.60638 0
M  V30 1227 H 114.357 -1.98745 -5.66234 0
M  V30 1228 H 115.427 -2.28018 -4.27943 0
M  V30 1229 N 116.77 1.45427 -0.607355 0
M  V30 1230 C 118.019 2.01452 -0.100036 0
M  V30 1231 C 118.332 1.48159 1.27704 0
M  V30 1232 O 119.538 1.96159 1.87707 0
M  V30 1233 C 117.994 3.59672 -0.128158 0
M  V30 1234 C 117.602 4.21962 -1.50507 0
M  V30 1235 C 119.346 4.23262 0.323932 0
M  V30 1236 C 117.253 5.72333 -1.48959 0
M  V30 1237 H 116.183 0.75325 -0.0336299 0
M  V30 1238 H 118.834 1.66901 -0.76265 0
M  V30 1239 H 117.216 3.91411 0.601105 0
M  V30 1240 H 118.39 4.01796 -2.25602 0
M  V30 1241 H 116.705 3.70565 -1.89923 0
M  V30 1242 H 119.302 5.33522 0.354691 0
M  V30 1243 H 119.645 3.93921 1.34656 0
M  V30 1244 H 120.178 3.96239 -0.352056 0
M  V30 1245 H 116.917 6.06373 -2.48981 0
M  V30 1246 H 116.437 5.94691 -0.781214 0
M  V30 1247 H 118.116 6.35525 -1.21313 0
M  V30 1248 N 118.248 0.346503 1.53744 0
M  V30 1249 C 119.211 -0.496439 2.23759 0
M  V30 1250 C 120.211 -1.0252 1.2388 0
M  V30 1251 O 121.401 -0.913974 1.48297 0
M  V30 1252 C 118.533 -1.69187 2.95954 0
M  V30 1253 H 119.726 0.115952 2.99676 0
M  V30 1254 H 117.279 0.0978939 1.55993 0
M  V30 1255 H 118.014 -2.34288 2.24231 0
M  V30 1256 H 117.799 -1.31989 3.69217 0
M  V30 1257 H 119.289 -2.28969 3.49232 0
M  V30 1258 N 119.726 -1.57421 0.075193 0
M  V30 1259 C 120.636 -2.1642 -0.905511 0
M  V30 1260 C 121.652 -1.12828 -1.32461 0
M  V30 1261 O 122.828 -1.45109 -1.39661 0
M  V30 1262 C 119.893 -2.71693 -2.15369 0
M  V30 1263 C 118.954 -3.90171 -1.79068 0
M  V30 1264 C 118.187 -4.42798 -2.97936 0
M  V30 1265 O 118.41 -3.94416 -4.12058 0
M  V30 1266 O 117.344 -5.34085 -2.77555 0
M  V30 1267 H 121.17 -3.00588 -0.433626 0
M  V30 1268 H 118.755 -1.48664 -0.148067 0
M  V30 1269 H 120.637 -3.07104 -2.88557 0
M  V30 1270 H 119.312 -1.90582 -2.61649 0
M  V30 1271 H 118.219 -3.59606 -1.03122 0
M  V30 1272 H 119.552 -4.72584 -1.37569 0
M  V30 1273 N 121.204 0.198386 -1.56346 0
M  V30 1274 C 122.136 1.26987 -1.90806 0
M  V30 1275 C 123.149 1.41877 -0.798419 0
M  V30 1276 O 124.338 1.42362 -1.07682 0
M  V30 1277 C 121.438 2.64246 -2.12196 0
M  V30 1278 C 120.611 2.71007 -3.43328 0
M  V30 1279 C 119.67 3.89439 -3.5387 0
M  V30 1280 O 118.696 3.76695 -4.26719 0
M  V30 1281 N 119.898 5.04752 -2.86715 0
M  V30 1282 H 122.663 0.977433 -2.83313 0
M  V30 1283 H 120.224 0.388322 -1.57174 0
M  V30 1284 H 122.216 3.41896 -2.1654 0
M  V30 1285 H 120.786 2.85992 -1.26204 0
M  V30 1286 H 120.006 1.79657 -3.50881 0
M  V30 1287 H 121.294 2.72512 -4.29668 0
M  V30 1288 H 120.692 5.18004 -2.2735 0
M  V30 1289 H 119.249 5.8036 -2.96691 0
M  V30 1290 N 122.682 1.50554 0.465978 0
M  V30 1291 C 124.093 1.54599 1.04671 0
M  V30 1292 C 124.444 0.352488 1.93008 0
M  V30 1293 O 123.569 -0.534044 2.09707 0
M  V30 1294 C 124.164 2.80166 1.90505 0
M  V30 1295 C 122.723 2.86876 2.43678 0
M  V30 1296 C 121.87 2.48947 1.22151 0
M  V30 1297 H 124.821 1.56744 0.248384 0
M  V30 1298 H 124.842 2.62311 2.75633 0
M  V30 1299 H 124.354 3.67013 1.26186 0
M  V30 1300 H 122.455 2.04393 3.11536 0
M  V30 1301 H 122.568 3.89885 2.78436 0
M  V30 1302 H 120.932 2.01498 1.5579 0
M  V30 1303 H 121.715 3.38107 0.594866 0
M  V30 1304 N 124.16 -0.719506 1.40217 0
M  V30 1305 C 125.571 -1.29848 1.34151 0
M  V30 1306 C 125.922 -1.96196 0.0131349 0
M  V30 1307 O 125.047 -1.973 -0.88892 0
M  V30 1308 C 125.642 -2.36118 2.42968 0
M  V30 1309 C 124.201 -2.8965 2.40374 0
M  V30 1310 C 123.348 -1.63393 2.24049 0
M  V30 1311 H 126.299 -0.51591 1.5008 0
M  V30 1312 H 126.32 -3.16871 2.10649 0
M  V30 1313 H 125.832 -1.878 3.39636 0
M  V30 1314 H 123.933 -3.42208 1.47392 0
M  V30 1315 H 124.046 -3.4171 3.35814 0
M  V30 1316 H 122.41 -1.88312 1.71495 0
M  V30 1317 H 123.193 -1.17104 3.2271 0
M  V30 1318 N 125.638 -1.25649 -0.95132 0
M  V30 1319 C 126.588 -1.03004 -2.03406 0
M  V30 1320 C 127.572 0.034187 -1.60864 0
M  V30 1321 O 128.764 -0.181549 -1.76066 0
M  V30 1322 C 125.893 -0.654255 -3.37008 0
M  V30 1323 C 124.979 -1.75542 -3.86065 0
M  V30 1324 N 125.37 -2.99113 -4.07879 0
M  V30 1325 C 123.668 -1.63669 -4.14884 0
M  V30 1326 C 124.369 -3.70611 -4.48356 0
M  V30 1327 N 123.345 -2.98247 -4.54477 0
M  V30 1328 H 127.147 -1.96813 -2.1827 0
M  V30 1329 H 124.661 -1.16017 -1.13639 0
M  V30 1330 H 126.658 -0.473206 -4.14206 0
M  V30 1331 H 125.318 0.276468 -3.23521 0
M  V30 1332 H 126.329 -3.35124 -3.94857 0
M  V30 1333 H 123.006 -0.775161 -4.10241 0
M  V30 1334 H 124.396 -4.76695 -4.73509 0
M  V30 1335 N 127.117 1.15442 -1.07289 0
M  V30 1336 C 128.047 2.22312 -0.714107 0
M  V30 1337 C 129.028 1.67467 0.298155 0
M  V30 1338 O 130.213 1.93445 0.171048 0
M  V30 1339 C 127.343 3.47124 -0.110448 0
M  V30 1340 C 126.297 4.14926 -1.04979 0
M  V30 1341 C 125.623 5.33807 -0.308924 0
M  V30 1342 C 126.923 4.64762 -2.38314 0
M  V30 1343 H 128.617 2.5258 -1.6076 0
M  V30 1344 H 126.163 1.21404 -0.77441 0
M  V30 1345 H 128.116 4.21124 0.152482 0
M  V30 1346 H 126.84 3.16187 0.81812 0
M  V30 1347 H 125.499 3.42866 -1.29764 0
M  V30 1348 H 125.147 4.99126 0.623084 0
M  V30 1349 H 124.847 5.80113 -0.935036 0
M  V30 1350 H 126.371 6.10576 -0.0537771 0
M  V30 1351 H 127.785 5.30292 -2.1786 0
M  V30 1352 H 126.182 5.21728 -2.96514 0
M  V30 1353 H 127.252 3.80434 -3.00663 0
M  V30 1354 N 128.595 0.856903 1.32268 0
M  V30 1355 C 129.823 0.475439 2.01363 0
M  V30 1356 C 130.238 -0.928486 1.64392 0
M  V30 1357 O 129.595 -1.60624 0.866387 0
M  V30 1358 C 129.646 0.607545 3.56358 0
M  V30 1359 O 129.367 1.95617 3.92002 0
M  V30 1360 C 130.868 0.225382 4.42727 0
M  V30 1361 H 128.088 0.186636 0.644521 0
M  V30 1362 H 130.632 1.15446 1.68797 0
M  V30 1363 H 128.787 -0.0237719 3.87393 0
M  V30 1364 H 129.201 1.95455 4.86721 0
M  V30 1365 H 130.675 0.368813 5.50767 0
M  V30 1366 H 131.152 -0.834369 4.31202 0
M  V30 1367 H 131.758 0.831864 4.17085 0
M  V30 1368 N 130.073 -1.45103 0.615059 0
M  V30 1369 C 131.484 -1.85654 0.197383 0
M  V30 1370 C 131.835 -1.51433 -1.24749 0
M  V30 1371 O 130.96 -0.944608 -1.94695 0
M  V30 1372 C 131.555 -3.36972 0.351448 0
M  V30 1373 C 130.114 -3.76398 -0.011593 0
M  V30 1374 C 129.261 -2.69024 0.672394 0
M  V30 1375 H 132.212 -1.35797 0.821263 0
M  V30 1376 H 132.233 -3.78239 -0.414227 0
M  V30 1377 H 131.745 -3.61847 1.40314 0
M  V30 1378 H 129.846 -3.5714 -1.06217 0
M  V30 1379 H 129.959 -4.77532 0.387265 0
M  V30 1380 H 128.323 -2.54465 0.109284 0
M  V30 1381 H 129.106 -2.96735 1.72636 0
M  V30 1382 N 131.551 -0.354651 -1.53558 0
M  V30 1383 C 132.799 0.237972 -2.00694 0
M  V30 1384 C 133.12 1.50173 -1.24391 0
M  V30 1385 O 132.39 1.92673 -0.354135 0
M  V30 1386 H 130.97 0.0909256 -0.741446 0
M  V30 1387 H 133.632 -0.478368 -1.88938 0
M  V30 1388 H 132.728 0.47264 -3.085 0
M  V30 1389 N 133.029 1.57378 -0.0835403 0
M  V30 1390 C 134.278 1.93106 0.582498 0
M  V30 1391 C 134.591 0.96651 1.70053 0
M  V30 1392 O 135.797 1.21705 2.42693 0
M  V30 1393 C 134.253 3.43076 1.08751 0
M  V30 1394 C 133.861 4.48 -0.000146404 0
M  V30 1395 C 135.605 3.87785 1.72694 0
M  V30 1396 C 133.512 5.89113 0.519568 0
M  V30 1397 H 132.442 0.720775 0.221358 0
M  V30 1398 H 135.093 1.82821 -0.157675 0
M  V30 1399 H 133.475 3.48474 1.88101 0
M  V30 1400 H 134.649 4.54233 -0.775199 0
M  V30 1401 H 132.964 4.1283 -0.54406 0
M  V30 1402 H 135.561 4.90604 2.1263 0
M  V30 1403 H 135.904 3.25796 2.59158 0
M  V30 1404 H 136.437 3.8504 0.999457 0
M  V30 1405 H 133.176 6.54775 -0.308186 0
M  V30 1406 H 132.696 5.86376 1.26188 0
M  V30 1407 H 134.375 6.39346 0.992237 0
M  V30 1408 N 134.507 -0.190092 1.56449 0
M  V30 1409 C 135.923 -0.54113 1.50146 0
M  V30 1410 C 136.123 -1.85603 0.784465 0
M  V30 1411 O 135.179 -2.5024 0.337051 0
M  V30 1412 C 136.492 -0.591241 2.9483 0
M  V30 1413 C 138.04 -0.679732 3.0553 0
M  V30 1414 C 138.515 -0.760908 4.51635 0
M  V30 1415 N 140.006 -0.824302 4.55806 0
M  V30 1416 C 140.741 -0.907365 5.66175 0
M  V30 1417 N 140.237 -0.952422 6.86222 0
M  V30 1418 N 142.03 -0.94494 5.541 0
M  V30 1419 H 134.181 0.67235 2.01478 0
M  V30 1420 H 136.444 0.240127 0.917084 0
M  V30 1421 H 136.15 0.305905 3.50367 0
M  V30 1422 H 136.024 -1.44422 3.48457 0
M  V30 1423 H 138.411 -1.56731 2.50039 0
M  V30 1424 H 138.492 0.199549 2.5502 0
M  V30 1425 H 138.136 0.122336 5.07753 0
M  V30 1426 H 138.066 -1.65606 4.99882 0
M  V30 1427 H 140.557 -0.798526 3.69367 0
M  V30 1428 H 140.87 -1.01645 7.66086 0
M  V30 1429 H 139.215 -0.921014 6.8887 0
M  V30 1430 H 142.406 -0.906612 4.59236 0
M  V30 1431 H 142.579 -1.00622 6.4014 0
M  V30 1432 N 135.985 -1.50799 -0.457987 0
M  V30 1433 C 136.895 -1.73426 -1.57989 0
M  V30 1434 C 137.911 -0.617745 -1.62665 0
M  V30 1435 O 139.087 -0.897614 -1.80291 0
M  V30 1436 C 136.152 -1.83557 -2.94122 0
M  V30 1437 C 135.213 -3.07345 -2.99729 0
M  V30 1438 C 134.446 -3.16983 -4.29368 0
M  V30 1439 O 134.669 -2.33077 -5.20607 0
M  V30 1440 O 133.603 -4.09812 -4.40837 0
M  V30 1441 H 137.429 -2.68555 -1.41817 0
M  V30 1442 H 135.014 -1.35052 -0.638859 0
M  V30 1443 H 136.896 -1.92326 -3.74952 0
M  V30 1444 H 135.571 -0.916137 -3.10465 0
M  V30 1445 H 134.478 -3.04068 -2.1793 0
M  V30 1446 H 135.811 -3.9891 -2.88326 0
M  V30 1447 N 137.463 0.71206 -1.40597 0
M  V30 1448 C 138.393 1.83889 -1.43899 0
M  V30 1449 C 139.374 1.67442 -0.299504 0
M  V30 1450 O 140.559 1.87421 -0.508624 0
M  V30 1451 C 137.689 3.21877 -1.30431 0
M  V30 1452 C 136.643 3.53002 -2.42019 0
M  V30 1453 C 135.969 4.90172 -2.13626 0
M  V30 1454 C 137.269 3.53643 -3.84362 0
M  V30 1455 H 138.963 1.81383 -2.38203 0
M  V30 1456 H 136.509 0.871237 -1.14654 0
M  V30 1457 H 138.462 4.00404 -1.31357 0
M  V30 1458 H 137.186 3.24968 -0.326049 0
M  V30 1459 H 135.845 2.76818 -2.40349 0
M  V30 1460 H 135.493 4.89869 -1.14182 0
M  V30 1461 H 135.193 5.11962 -2.88389 0
M  V30 1462 H 136.717 5.71028 -2.1624 0
M  V30 1463 H 138.131 4.22203 -3.87837 0
M  V30 1464 H 136.528 3.86961 -4.58673 0
M  V30 1465 H 137.598 2.52954 -4.13693 0
M  V30 1466 N 138.941 1.26152 0.944643 0
M  V30 1467 C 140.187 1.11657 1.69294 0
M  V30 1468 C 140.52 -0.339926 1.91202 0
M  V30 1469 O 139.795 -1.24994 1.49019 0
M  V30 1470 C 140.078 1.88236 3.06984 0
M  V30 1471 C 139.931 3.41772 2.92424 0
M  V30 1472 C 141.25 1.67343 4.07043 0
M  V30 1473 H 138.369 0.407004 0.614424 0
M  V30 1474 H 141.011 1.55106 1.09737 0
M  V30 1475 H 139.161 1.51308 3.57824 0
M  V30 1476 H 140.833 3.88433 2.48832 0
M  V30 1477 H 139.076 3.68974 2.28124 0
M  V30 1478 H 139.747 3.90579 3.90067 0
M  V30 1479 H 142.223 1.99509 3.65151 0
M  V30 1480 H 141.099 2.23346 5.01406 0
M  V30 1481 H 141.36 0.617158 4.37771 0
M  V30 1482 N 140.419 -1.14872 1.07899 0
M  V30 1483 C 141.644 -1.90202 0.826926 0
M  V30 1484 C 142.069 -1.77774 -0.614664 0
M  V30 1485 O 141.427 -1.11431 -1.43013 0
M  V30 1486 C 141.475 -3.38352 1.24702 0
M  V30 1487 O 140.579 -4.10497 0.39575 0
M  V30 1488 H 139.92 -0.591968 0.300782 0
M  V30 1489 H 142.45 -1.45437 1.43907 0
M  V30 1490 H 142.46 -3.89156 1.22563 0
M  V30 1491 H 141.135 -3.46715 2.29698 0
M  V30 1492 H 139.712 -3.69796 0.480117 0
M  V30 1493 N 141.898 -0.863906 -1.31812 0
M  V30 1494 C 143.314 -0.555004 -1.49639 0
M  V30 1495 C 143.514 0.912266 -1.79666 0
M  V30 1496 O 142.57 1.69479 -1.87171 0
M  V30 1497 C 143.883 -1.44998 -2.63431 0
M  V30 1498 C 145.431 -1.45138 -2.77316 0
M  V30 1499 C 145.906 -2.33179 -3.94197 0
M  V30 1500 N 147.397 -2.31025 -4.01474 0
M  V30 1501 C 148.132 -2.95871 -4.9117 0
M  V30 1502 N 147.628 -3.69863 -5.8581 0
M  V30 1503 N 149.421 -2.85211 -4.84367 0
M  V30 1504 H 141.572 -1.81339 -1.10589 0
M  V30 1505 H 143.835 -0.77505 -0.545895 0
M  V30 1506 H 143.541 -2.49377 -2.48 0
M  V30 1507 H 143.415 -1.14409 -3.59431 0
M  V30 1508 H 145.802 -0.415201 -2.92164 0
M  V30 1509 H 145.883 -1.79747 -1.82001 0
M  V30 1510 H 145.527 -3.3687 -3.80107 0
M  V30 1511 H 145.457 -1.95897 -4.88807 0
M  V30 1512 H 147.948 -1.77238 -3.33759 0
M  V30 1513 H 148.261 -4.16486 -6.50968 0
M  V30 1514 H 146.606 -3.73971 -5.85808 0
M  V30 1515 H 149.797 -2.26948 -4.09405 0
M  V30 1516 H 149.97 -3.36027 -5.54066 0
M  V30 1517 N 143.376 1.44774 -0.622745 0
M  V30 1518 C 144.306 2.33382 0.0741861 0
M  V30 1519 C 145.287 1.47719 0.843387 0
M  V30 1520 O 146.472 1.76458 0.810934 0
M  V30 1521 C 143.602 3.30663 1.06204 0
M  V30 1522 C 142.556 4.26079 0.405037 0
M  V30 1523 C 141.882 5.13165 1.5022 0
M  V30 1524 C 143.182 5.1781 -0.683414 0
M  V30 1525 H 144.876 2.91905 -0.665713 0
M  V30 1526 H 142.422 1.40363 -0.321587 0
M  V30 1527 H 144.375 3.9153 1.55827 0
M  V30 1528 H 143.099 2.70331 1.83272 0
M  V30 1529 H 141.758 3.66532 -0.0704683 0
M  V30 1530 H 141.406 4.49191 2.26355 0
M  V30 1531 H 141.106 5.77812 1.06803 0
M  V30 1532 H 142.63 5.76902 2.00041 0
M  V30 1533 H 144.044 5.72661 -0.270631 0
M  V30 1534 H 142.441 5.91015 -1.04023 0
M  V30 1535 H 143.511 4.59326 -1.55395 0
M  V30 1536 N 144.854 0.36279 1.53368 0
M  V30 1537 C 145.786 -0.519668 2.23231 0
M  V30 1538 C 146.799 -1.04844 1.24546 0
M  V30 1539 O 147.988 -0.955296 1.50786 0
M  V30 1540 C 145.088 -1.72995 2.9142 0
M  V30 1541 C 144.261 -1.33316 4.16588 0
M  V30 1542 C 143.32 -2.40521 4.68013 0
M  V30 1543 O 142.346 -2.03027 5.3176 0
M  V30 1544 N 143.548 -3.72065 4.45587 0
M  V30 1545 H 146.313 0.078751 2.99597 0
M  V30 1546 H 143.874 0.187833 1.60807 0
M  V30 1547 H 145.866 -2.44184 3.22733 0
M  V30 1548 H 144.436 -2.2353 2.18525 0
M  V30 1549 H 143.656 -0.451236 3.91609 0
M  V30 1550 H 144.944 -1.04432 4.97967 0
M  V30 1551 H 144.342 -4.05304 3.94646 0
M  V30 1552 H 142.899 -4.39366 4.81457 0
M  V30 1553 N 146.332 -1.57332 0.0918853 0
M  V30 1554 C 147.242 -2.17368 -0.882505 0
M  V30 1555 C 148.258 -1.14226 -1.31257 0
M  V30 1556 O 149.434 -1.46582 -1.38115 0
M  V30 1557 C 146.499 -2.73962 -2.12476 0
M  V30 1558 C 145.56 -3.92048 -1.7492 0
M  V30 1559 C 144.793 -4.45933 -2.93223 0
M  V30 1560 O 145.016 -3.98764 -4.07852 0
M  V30 1561 O 143.95 -5.36999 -2.71875 0
M  V30 1562 H 147.776 -3.01031 -0.40172 0
M  V30 1563 H 145.361 -1.48813 -0.132291 0
M  V30 1564 H 147.243 -3.10147 -2.85283 0
M  V30 1565 H 145.918 -1.93347 -2.59613 0
M  V30 1566 H 144.825 -3.6068 -0.993025 0
M  V30 1567 H 146.158 -4.74017 -1.32548 0
M  V30 1568 N 147.81 0.181792 -1.56548 0
M  V30 1569 C 149.226 0.53316 -1.50431 0
M  V30 1570 C 149.426 1.85184 -0.794297 0
M  V30 1571 O 148.482 2.50058 -0.350318 0
M  V30 1572 C 149.795 0.575597 -2.9514 0
M  V30 1573 C 151.343 0.663519 -3.05886 0
M  V30 1574 C 151.818 0.736946 -4.52032 0
M  V30 1575 N 153.309 0.800118 -4.56237 0
M  V30 1576 C 154.044 0.877327 -5.66649 0
M  V30 1577 N 153.54 0.916016 -6.86718 0
M  V30 1578 N 155.333 0.915542 -5.54594 0
M  V30 1579 H 147.484 -0.683025 -2.01118 0
M  V30 1580 H 149.747 -0.244988 -0.915797 0
M  V30 1581 H 149.453 -0.324482 -3.502 0
M  V30 1582 H 149.327 1.42572 -3.49218 0
M  V30 1583 H 151.714 1.55403 -2.50867 0
M  V30 1584 H 151.795 -0.21307 -2.54911 0
M  V30 1585 H 151.439 -0.149262 -5.07681 0
M  V30 1586 H 151.369 1.62953 -5.00753 0
M  V30 1587 H 153.86 0.778926 -3.69785 0
M  V30 1588 H 154.173 0.975813 -7.66614 0
M  V30 1589 H 152.518 0.884469 -6.89349 0
M  V30 1590 H 155.709 0.882245 -4.59711 0
M  V30 1591 H 155.882 0.972253 -6.40665 0
M  V30 1592 N 149.288 1.51039 0.449983 0
M  V30 1593 C 150.236 1.71995 1.5659 0
M  V30 1594 C 151.23 0.586029 1.5894 0
M  V30 1595 O 152.436 0.76709 1.62837 0
M  V30 1596 H 148.811 0.543233 0.520001 0
M  V30 1597 H 150.782 2.65562 1.36085 0
M  V30 1598 C 149.531 1.8506 2.9436 0
M  V30 1599 H 148.854 2.71712 2.93279 0
M  V30 1600 H 150.294 2.0374 3.71842 0
M  V30 1601 C 148.753 0.607277 3.31382 0
M  V30 1602 O 149.283 -0.243903 4.00959 0
M  V30 1603 N 147.489 0.455073 2.87015 0
M  V30 1604 H 147.036 1.14879 2.30566 0
M  V30 1605 H 146.994 -0.375611 3.12148 0
M  V30 1606 N 150.766 -0.704594 1.40972 0
M  V30 1607 C 152.012 -1.46675 1.40051 0
M  V30 1608 C 152.345 -1.94199 0.00641102 0
M  V30 1609 O 151.62 -1.68916 -0.964235 0
M  V30 1610 C 151.903 -2.68505 2.39952 0
M  V30 1611 C 151.756 -2.26805 3.88432 0
M  V30 1612 C 153.075 -3.70686 2.37233 0
M  V30 1613 H 150.194 -0.532015 0.510028 0
M  V30 1614 H 152.836 -0.803255 1.72185 0
M  V30 1615 H 150.986 -3.25114 2.1268 0
M  V30 1616 H 152.658 -1.75592 4.26574 0
M  V30 1617 H 150.901 -1.58685 4.03734 0
M  V30 1618 H 151.572 -3.14181 4.53866 0
M  V30 1619 H 154.048 -3.23731 2.61415 0
M  V30 1620 H 152.924 -4.53553 3.09162 0
M  V30 1621 H 153.185 -4.19754 1.38777 0
M  V30 1622 N 152.244 -1.26651 -0.937939 0
M  V30 1623 C 153.176 -1.04283 -2.04102 0
M  V30 1624 C 154.189 -0.00221014 -1.628 0
M  V30 1625 O 155.378 -0.242645 -1.76843 0
M  V30 1626 C 152.478 -0.557846 -3.34277 0
M  V30 1627 C 151.651 -1.66843 -4.04329 0
M  V30 1628 C 150.71 -1.18095 -5.12777 0
M  V30 1629 O 149.736 -1.87865 -5.37304 0
M  V30 1630 N 150.938 -0.0311006 -5.80492 0
M  V30 1631 H 153.703 -1.9927 -2.23856 0
M  V30 1632 H 151.264 -1.1808 -1.10764 0
M  V30 1633 H 153.256 -0.215836 -4.04124 0
M  V30 1634 H 151.826 0.298523 -3.11171 0
M  V30 1635 H 151.046 -2.18123 -3.28353 0
M  V30 1636 H 152.334 -2.41408 -4.47883 0
M  V30 1637 H 151.732 0.551486 -5.63005 0
M  V30 1638 H 150.289 0.251809 -6.51313 0
M  V30 1639 N 153.722 1.14298 -1.08507 0
M  V30 1640 C 154.968 1.85633 -0.816581 0
M  V30 1641 C 155.301 1.82784 0.656021 0
M  V30 1642 O 154.576 1.25926 1.48233 0
M  V30 1643 C 154.859 3.34223 -1.34041 0
M  V30 1644 C 154.712 3.45639 -2.87843 0
M  V30 1645 C 156.031 4.29356 -0.9665 0
M  V30 1646 H 153.15 0.67402 -0.298104 0
M  V30 1647 H 155.792 1.34214 -1.34487 0
M  V30 1648 H 153.942 3.78144 -0.89104 0
M  V30 1649 H 155.614 3.10498 -3.41158 0
M  V30 1650 H 153.857 2.86817 -3.25451 0
M  V30 1651 H 154.528 4.50089 -3.19569 0
M  V30 1652 H 157.004 3.93457 -1.35391 0
M  V30 1653 H 155.88 5.3178 -1.3602 0
M  V30 1654 H 156.141 4.41919 0.126362 0
M  V30 1655 N 155.201 0.870884 1.31352 0
M  V30 1656 C 156.448 0.482273 1.96673 0
M  V30 1657 C 156.776 -0.965638 1.68836 0
M  V30 1658 O 156.031 -1.69514 0.977937 0
M  V30 1659 C 156.33 0.687157 3.50732 0
M  V30 1660 C 155.996 2.108 3.9859 0
M  V30 1661 C 154.658 2.49656 4.1137 0
M  V30 1662 C 157.01 3.03459 4.23748 0
M  V30 1663 C 154.338 3.80412 4.46659 0
M  V30 1664 C 156.69 4.3373 4.60501 0
M  V30 1665 C 155.354 4.725 4.71487 0
M  V30 1666 H 154.624 0.176476 0.719679 0
M  V30 1667 H 157.271 1.10405 1.56471 0
M  V30 1668 H 155.576 -0.0177476 3.91796 0
M  V30 1669 H 157.273 0.366284 3.99324 0
M  V30 1670 H 153.863 1.79633 3.8914 0
M  V30 1671 H 158.047 2.74665 4.13368 0
M  V30 1672 H 153.303 4.1021 4.53362 0
M  V30 1673 H 157.477 5.05578 4.78919 0
M  V30 1674 H 155.104 5.73859 4.98588 0
M  V30 1675 N 156.679 -1.44442 0.630414 0
M  V30 1676 C 157.609 -2.33418 -0.0618083 0
M  V30 1677 C 158.59 -1.48165 -0.835541 0
M  V30 1678 O 159.775 -1.76886 -0.801564 0
M  V30 1679 C 156.905 -3.31222 -1.04449 0
M  V30 1680 C 155.859 -4.26288 -0.382436 0
M  V30 1681 C 155.185 -5.13954 -1.47497 0
M  V30 1682 C 156.485 -5.1744 0.710865 0
M  V30 1683 H 158.179 -2.91548 0.681184 0
M  V30 1684 H 155.725 -1.40191 0.329026 0
M  V30 1685 H 157.678 -3.92351 -1.53748 0
M  V30 1686 H 156.402 -2.71299 -1.81836 0
M  V30 1687 H 155.061 -3.6649 0.0899054 0
M  V30 1688 H 154.709 -4.50385 -2.2397 0
M  V30 1689 H 154.409 -5.7837 -1.03737 0
M  V30 1690 H 155.933 -5.77955 -1.96979 0
M  V30 1691 H 157.347 -5.72509 0.300996 0
M  V30 1692 H 155.744 -5.90455 1.07156 0
M  V30 1693 H 156.814 -4.58496 1.57829 0
M  V30 1694 N 158.157 -0.370918 -1.53173 0
M  V30 1695 C 159.406 0.218249 -2.00516 0
M  V30 1696 C 159.719 1.49429 -1.26215 0
M  V30 1697 O 160.925 2.16239 -1.64174 0
M  V30 1698 C 159.381 0.43948 -3.57207 0
M  V30 1699 C 158.989 -0.822244 -4.4039 0
M  V30 1700 C 160.733 0.986012 -4.1289 0
M  V30 1701 C 158.64 -0.570304 -5.88644 0
M  V30 1702 H 157.57 0.0853333 -0.749156 0
M  V30 1703 H 160.221 -0.490483 -1.76823 0
M  V30 1704 H 158.603 1.20961 -3.77074 0
M  V30 1705 H 159.777 -1.59557 -4.32294 0
M  V30 1706 H 158.092 -1.29238 -3.95836 0
M  V30 1707 H 160.689 1.18991 -5.21292 0
M  V30 1708 H 161.032 1.94972 -3.6782 0
M  V30 1709 H 161.565 0.27592 -3.96842 0
M  V30 1710 H 158.304 -1.50449 -6.38001 0
M  V30 1711 H 157.824 0.164427 -5.99575 0
M  V30 1712 H 159.503 -0.19784 -6.46697 0
M  V30 1713 N 159.635 1.57281 -0.100228 0
M  V30 1714 C 160.86 1.99302 0.573881 0
M  V30 1715 C 161.285 0.979059 1.60611 0
M  V30 1716 O 160.643 -0.0517803 1.81226 0
M  V30 1717 C 160.691 3.40274 1.19358 0
M  V30 1718 O 159.795 3.41676 2.30935 0
M  V30 1719 H 159.136 0.647944 0.145138 0
M  V30 1720 H 161.666 2.03779 -0.183156 0
M  V30 1721 H 161.676 3.78078 1.53365 0
M  V30 1722 H 160.351 4.13594 0.437385 0
M  V30 1723 H 158.928 3.15672 1.98509 0
M  V30 1724 N 161.113 -0.173488 1.56642 0
M  V30 1725 C 162.361 -0.888706 1.81512 0
M  V30 1726 C 162.682 -1.82875 0.676872 0
M  V30 1727 O 161.952 -1.93536 -0.303414 0
M  V30 1728 H 160.532 -0.331164 0.669582 0
M  V30 1729 H 163.194 -0.173823 1.94123 0
M  V30 1730 H 162.29 -1.46691 2.75478 0
M  V30 1731 N 162.591 -1.51276 -0.441967 0
M  V30 1732 C 163.839 -1.63392 -1.18943 0
M  V30 1733 C 164.16 -0.350159 -1.9183 0
M  V30 1734 O 163.43 0.633784 -1.85364 0
M  V30 1735 H 162.01 -0.602164 -0.442049 0
M  V30 1736 H 164.672 -1.88186 -0.507165 0
M  V30 1737 H 163.768 -2.45934 -1.92154 0
M  V30 1738 N 164.069 0.697108 -1.41344 0
M  V30 1739 C 165.316 1.45714 -1.40619 0
M  V30 1740 C 165.644 1.94494 -0.0147907 0
M  V30 1741 O 164.899 1.69794 0.973066 0
M  V30 1742 C 165.198 2.68553 -2.35826 0
M  V30 1743 C 164.864 2.38438 -3.82698 0
M  V30 1744 C 163.526 2.29936 -4.22709 0
M  V30 1745 C 165.878 2.13567 -4.75435 0
M  V30 1746 C 163.206 1.94656 -5.53467 0
M  V30 1747 C 165.558 1.79797 -6.06511 0
M  V30 1748 C 164.222 1.69789 -6.45545 0
M  V30 1749 H 163.492 0.533206 -0.51456 0
M  V30 1750 H 166.139 0.796901 -1.74131 0
M  V30 1751 H 164.444 3.39503 -1.95563 0
M  V30 1752 H 166.141 3.2669 -2.32539 0
M  V30 1753 H 162.731 2.4595 -3.51008 0
M  V30 1754 H 166.915 2.19082 -4.45328 0
M  V30 1755 H 162.171 1.8546 -5.82593 0
M  V30 1756 H 166.345 1.59572 -6.77872 0
M  V30 1757 H 163.972 1.4222 -7.46778 0
M  V30 1758 N 165.547 1.27147 0.931209 0
M  V30 1759 C 166.963 1.04475 1.20653 0
M  V30 1760 C 167.163 -0.223885 2.00252 0
M  V30 1761 O 166.219 -0.930332 2.34736 0
M  V30 1762 C 167.532 2.28209 1.95809 0
M  V30 1763 C 169.08 2.33211 2.08762 0
M  V30 1764 C 169.555 3.56665 2.87323 0
M  V30 1765 N 171.046 3.57201 2.94892 0
M  V30 1766 C 171.781 4.49395 3.56134 0
M  V30 1767 N 171.277 5.51889 4.18796 0
M  V30 1768 N 173.07 4.37026 3.53504 0
M  V30 1769 H 165.221 2.08612 0.399333 0
M  V30 1770 H 167.484 0.917312 0.239253 0
M  V30 1771 H 167.19 3.20538 1.44736 0
M  V30 1772 H 167.064 2.33247 2.96438 0
M  V30 1773 H 169.451 1.41391 2.59023 0
M  V30 1774 H 169.532 2.32178 1.07364 0
M  V30 1775 H 169.176 4.4882 2.37746 0
M  V30 1776 H 169.106 3.54948 3.88998 0
M  V30 1777 H 171.597 2.83074 2.50354 0
M  V30 1778 H 171.91 6.18409 4.63454 0
M  V30 1779 H 170.255 5.55735 4.17353 0
M  V30 1780 H 173.446 3.56166 3.03749 0
M  V30 1781 H 173.619 5.09067 4.00942 0
M  V30 1782 N 167.025 -1.13721 1.09112 0
M  V30 1783 C 168.25 -1.89314 0.847053 0
M  V30 1784 C 168.675 -1.78416 -0.595774 0
M  V30 1785 O 168.033 -1.12942 -1.41823 0
M  V30 1786 C 168.081 -3.3701 1.28284 0
M  V30 1787 O 167.185 -4.10054 0.439267 0
M  V30 1788 H 166.526 -0.588745 0.307044 0
M  V30 1789 H 169.056 -1.43902 1.45442 0
M  V30 1790 H 169.066 -3.87834 1.26683 0
M  V30 1791 H 167.741 -3.4426 2.33363 0
M  V30 1792 H 166.318 -3.69266 0.519312 0
M  V30 1793 N 168.503 -0.877838 -1.30888 0
M  V30 1794 C 169.752 -0.488793 -1.95688 0
M  V30 1795 C 170.065 0.965485 -1.70111 0
M  V30 1796 O 171.271 1.46104 -2.28836 0
M  V30 1797 C 169.727 -0.823201 -3.50359 0
M  V30 1798 C 169.335 -2.29477 -3.84765 0
M  V30 1799 C 171.079 -0.503009 -4.21509 0
M  V30 1800 C 168.986 -2.57118 -5.32583 0
M  V30 1801 H 167.916 -0.179062 -0.732429 0
M  V30 1802 H 170.567 -1.07183 -1.48943 0
M  V30 1803 H 168.949 -0.169331 -3.95638 0
M  V30 1804 H 170.123 -2.99236 -3.5042 0
M  V30 1805 H 168.438 -2.58178 -3.267 0
M  V30 1806 H 171.035 -0.68665 -5.30273 0
M  V30 1807 H 171.378 0.557109 -4.12555 0
M  V30 1808 H 171.911 -1.11376 -3.8189 0
M  V30 1809 H 168.65 -3.61843 -5.4658 0
M  V30 1810 H 168.17 -1.91961 -5.68253 0
M  V30 1811 H 169.849 -2.42251 -5.99936 0
M  V30 1812 N 169.982 1.44106 -0.638065 0
M  V30 1813 C 171.228 2.02277 -0.145546 0
M  V30 1814 C 171.561 1.50125 1.23191 0
M  V30 1815 O 170.836 0.688133 1.8192 0
M  V30 1816 C 171.119 3.59829 -0.139791 0
M  V30 1817 C 170.972 4.22247 -1.55008 0
M  V30 1818 C 172.291 4.36873 0.531966 0
M  V30 1819 H 169.41 0.734992 -0.0543632 0
M  V30 1820 H 172.052 1.71592 -0.815863 0
M  V30 1821 H 170.202 3.86102 0.431007 0
M  V30 1822 H 171.874 4.07057 -2.1703 0
M  V30 1823 H 170.117 3.79476 -2.10191 0
M  V30 1824 H 170.788 5.31284 -1.49804 0
M  V30 1825 H 173.264 4.16074 0.0464781 0
M  V30 1826 H 172.14 5.4657 0.505206 0
M  V30 1827 H 172.401 4.11995 1.60352 0
M  V30 1828 N 171.46 0.379036 1.52974 0
M  V30 1829 C 172.37 -0.468639 2.29872 0
M  V30 1830 C 173.386 -1.08067 1.36373 0
M  V30 1831 O 174.562 -1.08871 1.69438 0
M  V30 1832 C 171.627 -1.58594 3.083 0
M  V30 1833 C 170.688 -1.00007 4.17489 0
M  V30 1834 C 169.921 -2.06413 4.92168 0
M  V30 1835 O 170.144 -3.27751 4.66835 0
M  V30 1836 O 169.078 -1.68717 5.7777 0
M  V30 1837 H 172.904 0.157508 3.03291 0
M  V30 1838 H 170.489 0.143035 1.48714 0
M  V30 1839 H 172.371 -2.23525 3.57232 0
M  V30 1840 H 171.046 -2.19724 2.37703 0
M  V30 1841 H 169.953 -0.314299 3.72777 0
M  V30 1842 H 171.286 -0.433135 4.90291 0
M  V30 1843 N 172.938 -1.57226 0.108567 0
M  V30 1844 C 173.888 -2.11305 -0.856396 0
M  V30 1845 C 174.872 -1.03129 -1.23504 0
M  V30 1846 O 176.064 -1.29381 -1.20787 0
M  V30 1847 C 173.193 -2.70771 -2.11041 0
M  V30 1848 C 172.279 -3.86011 -1.7566 0
M  V30 1849 N 172.67 -4.93492 -1.10902 0
M  V30 1850 C 170.968 -3.95999 -2.05185 0
M  V30 1851 C 171.669 -5.73984 -0.944308 0
M  V30 1852 N 170.645 -5.2346 -1.46596 0
M  V30 1853 H 174.447 -2.91784 -0.352002 0
M  V30 1854 H 171.961 -1.62126 -0.0942324 0
M  V30 1855 H 173.958 -3.07851 -2.81128 0
M  V30 1856 H 172.618 -1.91751 -2.62034 0
M  V30 1857 H 173.629 -5.1208 -0.774235 0
M  V30 1858 H 170.306 -3.28007 -2.58298 0
M  V30 1859 H 171.696 -6.70479 -0.436813 0
M  V30 1860 N 174.416 0.165178 -1.56732 0
M  V30 1861 C 175.662 0.882112 -1.82611 0
M  V30 1862 C 175.995 1.81628 -0.687378 0
M  V30 1863 O 175.27 1.92009 0.310267 0
M  V30 1864 C 175.553 1.67245 -3.18906 0
M  V30 1865 C 175.406 0.760987 -4.43316 0
M  V30 1866 C 176.725 2.63884 -3.52212 0
M  V30 1867 H 173.844 0.319242 -0.664269 0
M  V30 1868 H 176.486 0.148052 -1.89422 0
M  V30 1869 H 174.636 2.29824 -3.1323 0
M  V30 1870 H 176.308 0.147596 -4.61064 0
M  V30 1871 H 174.551 0.0694102 -4.33744 0
M  V30 1872 H 175.222 1.34962 -5.35247 0
M  V30 1873 H 177.698 2.11429 -3.58381 0
M  V30 1874 H 176.574 3.16245 -4.48643 0
M  V30 1875 H 176.835 3.44377 -2.77231 0
M  V30 1876 N 175.894 1.51508 0.433938 0
M  V30 1877 C 176.857 1.72473 1.50949 0
M  V30 1878 C 177.857 0.594725 1.49398 0
M  V30 1879 O 179.047 0.862315 1.5136 0
M  V30 1880 C 176.179 1.78431 2.90474 0
M  V30 1881 H 177.372 2.68467 1.33662 0
M  V30 1882 H 174.925 1.41549 0.662836 0
M  V30 1883 H 175.66 0.842645 3.13161 0
M  V30 1884 H 175.445 2.60558 2.93005 0
M  V30 1885 H 176.935 1.96479 3.68491 0
M  V30 1886 N 177.372 -0.689602 1.41712 0
M  V30 1887 C 178.597 -1.48329 1.44959 0
M  V30 1888 C 179.022 -1.8801 0.0581283 0
M  V30 1889 O 178.38 -1.55026 -0.940035 0
M  V30 1890 C 178.428 -2.71835 2.36935 0
M  V30 1891 O 177.532 -3.69549 1.8305 0
M  V30 1892 H 176.873 -0.446199 0.491734 0
M  V30 1893 H 179.403 -0.847127 1.86239 0
M  V30 1894 H 179.413 -3.20076 2.53013 0
M  V30 1895 H 178.088 -2.42291 3.38035 0
M  V30 1896 H 176.665 -3.2851 1.76452 0
M  V30 1897 N 178.85 -1.27639 -0.924453 0
M  V30 1898 C 179.797 -1.10644 -2.0255 0
M  V30 1899 C 180.767 -0.00658438 -1.66099 0
M  V30 1900 O 181.952 -0.16952 -1.90045 0
M  V30 1901 C 179.092 -0.76309 -3.36557 0
M  V30 1902 C 178.205 -1.94091 -3.85944 0
M  V30 1903 C 177.34 -1.53914 -5.08413 0
M  V30 1904 C 176.379 -2.68425 -5.50104 0
M  V30 1905 N 175.516 -2.28815 -6.63768 0
M  V30 1906 H 180.356 -2.04858 -2.16419 0
M  V30 1907 H 177.893 -1.01974 -1.06017 0
M  V30 1908 H 179.851 -0.544822 -4.13627 0
M  V30 1909 H 178.481 0.142102 -3.22487 0
M  V30 1910 H 177.533 -2.27162 -3.05125 0
M  V30 1911 H 178.845 -2.7998 -4.12811 0
M  V30 1912 H 177.999 -1.28231 -5.92994 0
M  V30 1913 H 176.738 -0.651391 -4.8333 0
M  V30 1914 H 175.743 -2.94819 -4.64071 0
M  V30 1915 H 176.968 -3.57826 -5.7718 0
M  V30 1916 H 174.914 -1.42495 -6.40337 0
M  V30 1917 H 174.831 -3.08242 -6.90306 0
M  V30 1918 H 176.099 -2.06387 -7.51681 0
M  V30 1919 N 180.328 1.1314 -1.09713 0
M  V30 1920 C 181.258 2.20748 -0.761102 0
M  V30 1921 C 182.239 1.68061 0.262566 0
M  V30 1922 O 183.424 1.93765 0.129977 0
M  V30 1923 C 180.554 3.46812 -0.184054 0
M  V30 1924 C 179.508 4.12606 -1.13757 0
M  V30 1925 C 178.834 5.33031 -0.422083 0
M  V30 1926 C 180.134 4.59603 -2.48118 0
M  V30 1927 H 181.828 2.49113 -1.66082 0
M  V30 1928 H 179.374 1.19734 -0.799987 0
M  V30 1929 H 181.327 4.21353 0.0631215 0
M  V30 1930 H 180.051 3.17851 0.750868 0
M  V30 1931 H 178.71 3.40036 -1.37007 0
M  V30 1932 H 178.358 5.00335 0.517072 0
M  V30 1933 H 178.058 5.77999 -1.05788 0
M  V30 1934 H 179.582 6.10325 -0.183277 0
M  V30 1935 H 180.996 5.25552 -2.29059 0
M  V30 1936 H 179.393 5.15321 -3.07514 0
M  V30 1937 H 180.463 3.73971 -3.08665 0
M  V30 1938 N 181.806 0.884767 1.30421 0
M  V30 1939 C 182.754 0.340869 2.30089 0
M  V30 1940 C 183.748 -0.55201 1.60154 0
M  V30 1941 O 184.954 -0.436467 1.74628 0
M  V30 1942 H 181.329 0.0915739 0.746404 0
M  V30 1943 H 183.3 1.19513 2.73421 0
M  V30 1944 C 182.049 -0.429779 3.45034 0
M  V30 1945 H 181.372 0.248024 3.9903 0
M  V30 1946 H 182.812 -0.775445 4.16849 0
M  V30 1947 C 181.271 -1.62677 2.95022 0
M  V30 1948 O 181.801 -2.72614 2.95033 0
M  V30 1949 N 180.007 -1.46387 2.51036 0
M  V30 1950 H 179.554 -0.569506 2.51226 0
M  V30 1951 H 179.512 -2.26612 2.17932 0
M  V30 1952 N 183.284 -1.43765 0.645699 0
M  V30 1953 C 184.533 -2.01116 0.153412 0
M  V30 1954 C 184.846 -1.51493 -1.23731 0
M  V30 1955 O 186.052 -2.01067 -1.8244 0
M  V30 1956 C 184.508 -3.59206 0.223473 0
M  V30 1957 C 184.116 -4.17823 1.61642 0
M  V30 1958 C 185.86 -4.23972 -0.211597 0
M  V30 1959 C 183.767 -5.68183 1.64081 0
M  V30 1960 H 182.697 -0.752093 0.0535891 0
M  V30 1961 H 185.348 -1.6482 0.806633 0
M  V30 1962 H 183.73 -3.92867 -0.497118 0
M  V30 1963 H 184.904 -3.95674 2.36176 0
M  V30 1964 H 183.219 -3.65399 1.99681 0
M  V30 1965 H 185.816 -5.34275 -0.213112 0
M  V30 1966 H 186.159 -3.97352 -1.24165 0
M  V30 1967 H 186.692 -3.95166 0.456988 0
M  V30 1968 H 183.431 -5.99559 2.64971 0
M  V30 1969 H 182.951 -5.9241 0.938611 0
M  V30 1970 H 184.63 -6.32085 1.3812 0
M  V30 1971 N 184.763 -0.387143 -1.52771 0
M  V30 1972 C 186.174 0.0873634 -1.86495 0
M  V30 1973 C 186.525 1.46336 -1.30691 0
M  V30 1974 O 185.65 2.068 -0.637409 0
M  V30 1975 C 186.245 0.165305 -3.38396 0
M  V30 1976 C 184.804 0.584101 -3.7184 0
M  V30 1977 C 183.951 -0.255279 -2.76122 0
M  V30 1978 H 186.902 -0.605104 -1.46711 0
M  V30 1979 H 186.923 0.984848 -3.67534 0
M  V30 1980 H 186.435 -0.836301 -3.78982 0
M  V30 1981 H 184.536 1.59315 -3.36823 0
M  V30 1982 H 184.649 0.343749 -4.77865 0
M  V30 1983 H 183.013 0.279126 -2.53166 0
M  V30 1984 H 183.796 -1.25482 -3.19545 0
M  V30 1985 N 186.241 1.57166 -0.116904 0
M  V30 1986 C 187.204 2.14039 0.819742 0
M  V30 1987 C 188.204 1.07477 1.19605 0
M  V30 1988 O 189.394 1.33263 1.1219 0
M  V30 1989 C 186.526 2.67891 2.10826 0
M  V30 1990 H 187.719 2.98128 0.325511 0
M  V30 1991 H 185.272 1.55739 0.132312 0
M  V30 1992 H 186.007 1.87384 2.64685 0
M  V30 1993 H 185.792 3.45823 1.84793 0
M  V30 1994 H 187.282 3.11809 2.77785 0
M  V30 1995 N 187.719 -0.156864 1.56817 0
M  V30 1996 C 188.947 -0.886316 1.86955 0
M  V30 1997 C 189.362 -1.75185 0.703975 0
M  V30 1998 O 188.719 -1.79555 -0.326552 0
M  V30 1999 C 188.77 -1.75117 3.16253 0
M  V30 2000 O 188.491 -0.920537 4.2832 0
M  V30 2001 C 189.992 -2.58905 3.59837 0
M  V30 2002 H 187.212 -0.25678 0.619923 0
M  V30 2003 H 189.756 -0.152615 2.0393 0
M  V30 2004 H 187.911 -2.43805 3.01062 0
M  V30 2005 H 188.325 -1.51337 5.02192 0
M  V30 2006 H 189.799 -3.1518 4.53172 0
M  V30 2007 H 190.276 -3.34472 2.84649 0
M  V30 2008 H 190.882 -1.95526 3.7769 0
M  V30 2009 N 189.197 -1.51736 -0.425897 0
M  V30 2010 C 190.145 -1.74464 -1.53834 0
M  V30 2011 C 191.139 -0.611241 -1.57988 0
M  V30 2012 O 192.345 -0.792899 -1.61596 0
M  V30 2013 H 188.72 -0.551437 -0.511293 0
M  V30 2014 H 190.691 -2.67694 -1.31843 0
M  V30 2015 C 189.44 -1.8972 -2.91379 0
M  V30 2016 H 188.763 -2.76344 -2.88919 0
M  V30 2017 H 190.203 -2.09629 -3.68553 0
M  V30 2018 C 188.662 -0.65992 -3.30374 0
M  V30 2019 O 189.192 0.180083 -4.01296 0
M  V30 2020 N 187.398 -0.500677 -2.86254 0
M  V30 2021 H 186.945 -1.18532 -2.28709 0
M  V30 2022 H 186.903 0.325903 -3.12706 0
M  V30 2023 N 190.675 0.682077 -1.42076 0
M  V30 2024 C 191.921 1.44428 -1.42367 0
M  V30 2025 C 192.254 1.94164 -0.0373056 0
M  V30 2026 O 191.529 1.70429 0.937239 0
M  V30 2027 C 191.812 2.64654 -2.44194 0
M  V30 2028 C 191.665 2.20596 -3.91991 0
M  V30 2029 C 192.984 3.66865 -2.431 0
M  V30 2030 H 190.103 0.523834 -0.518428 0
M  V30 2031 H 192.745 0.77576 -1.73442 0
M  V30 2032 H 190.895 3.2169 -2.17826 0
M  V30 2033 H 192.567 1.68783 -4.29313 0
M  V30 2034 H 190.81 1.52242 -4.06208 0
M  V30 2035 H 191.481 3.06921 -4.58807 0
M  V30 2036 H 193.957 3.19531 -2.66532 0
M  V30 2037 H 192.833 4.48577 -3.16339 0
M  V30 2038 H 193.094 4.17493 -1.45437 0
M  V30 2039 N 192.153 1.28127 0.917671 0
M  V30 2040 C 193.4 1.15052 1.66641 0
M  V30 2041 C 193.728 -0.301677 1.92146 0
M  V30 2042 O 192.983 -1.23622 1.51711 0
M  V30 2043 C 193.282 1.89018 3.03327 0
M  V30 2044 C 192.948 3.38832 2.97496 0
M  V30 2045 C 191.61 3.79693 2.95613 0
M  V30 2046 C 193.962 4.34378 2.88036 0
M  V30 2047 C 191.29 5.14447 2.82066 0
M  V30 2048 C 193.642 5.69201 2.7603 0
M  V30 2049 C 192.306 6.09343 2.72502 0
M  V30 2050 H 191.576 0.421006 0.609783 0
M  V30 2051 H 194.223 1.58855 1.06945 0
M  V30 2052 H 192.528 1.37752 3.66785 0
M  V30 2053 H 194.225 1.76321 3.60156 0
M  V30 2054 H 190.815 3.06342 2.99754 0
M  V30 2055 H 194.999 4.03775 2.88581 0
M  V30 2056 H 190.255 5.44681 2.77728 0
M  V30 2057 H 194.429 6.42901 2.67678 0
M  V30 2058 H 192.056 7.13712 2.61762 0
M  V30 2059 N 193.631 -1.12557 1.10312 0
M  V30 2060 C 194.594 -2.16434 0.75424 0
M  V30 2061 C 195.594 -1.59278 -0.220685 0
M  V30 2062 O 196.784 -1.742 0.00230591 0
M  V30 2063 C 193.916 -3.40699 0.116987 0
M  V30 2064 H 195.109 -2.48811 1.67431 0
M  V30 2065 H 192.662 -1.27542 0.903475 0
M  V30 2066 H 193.397 -3.13921 -0.813877 0
M  V30 2067 H 193.182 -3.83459 0.818613 0
M  V30 2068 H 194.672 -4.17451 -0.111387 0
M  V30 2069 N 195.109 -0.891671 -1.2995 0
M  V30 2070 C 196.057 -0.353066 -2.29905 0
M  V30 2071 C 197.051 0.543509 -1.60444 0
M  V30 2072 O 198.257 0.4272 -1.74857 0
M  V30 2073 H 194.632 -0.095531 -0.745907 0
M  V30 2074 H 196.603 -1.20961 -2.72784 0
M  V30 2075 C 195.352 0.411475 -3.45257 0
M  V30 2076 H 194.675 -0.269182 -3.98893 0
M  V30 2077 H 196.115 0.753328 -4.17254 0
M  V30 2078 C 194.574 1.6111 -2.9588 0
M  V30 2079 O 195.104 2.71045 -2.96475 0
M  V30 2080 N 193.31 1.45054 -2.51809 0
M  V30 2081 H 192.857 0.556175 -2.51524 0
M  V30 2082 H 192.815 2.25453 -2.1913 0
M  V30 2083 N 196.587 1.43421 -0.653314 0
M  V30 2084 C 198.003 1.56341 -0.320886 0
M  V30 2085 C 198.203 1.63696 1.17499 0
M  V30 2086 O 197.259 1.59208 1.95982 0
M  V30 2087 C 198.572 2.82424 -1.03233 0
M  V30 2088 C 200.12 2.96168 -1.01259 0
M  V30 2089 C 200.595 4.25084 -1.70492 0
M  V30 2090 N 202.086 4.31948 -1.67257 0
M  V30 2091 C 202.821 5.30466 -2.17701 0
M  V30 2092 N 202.317 6.35261 -2.76434 0
M  V30 2093 N 204.11 5.2212 -2.082 0
M  V30 2094 H 196.261 1.3689 -1.62403 0
M  V30 2095 H 198.524 0.657455 -0.682977 0
M  V30 2096 H 198.23 2.83053 -2.08744 0
M  V30 2097 H 198.104 3.72653 -0.583948 0
M  V30 2098 H 200.491 2.9508 0.0341235 0
M  V30 2099 H 200.572 2.07229 -1.49966 0
M  V30 2100 H 200.216 4.26932 -2.7512 0
M  V30 2101 H 200.146 5.1292 -1.19251 0
M  V30 2102 H 202.637 3.56838 -1.24398 0
M  V30 2103 H 202.95 7.06754 -3.12601 0
M  V30 2104 H 201.295 6.35884 -2.80495 0
M  V30 2105 H 204.486 4.39166 -1.62021 0
M  V30 2106 H 204.659 5.98739 -2.47822 0
M  V30 2107 N 198.065 0.39524 1.52563 0
M  V30 2108 C 198.995 -0.428384 2.29537 0
M  V30 2109 C 199.976 -1.05831 1.33169 0
M  V30 2110 O 201.161 -1.06995 1.62067 0
M  V30 2111 C 198.291 -1.55274 3.10656 0
M  V30 2112 C 197.245 -1.04855 4.14957 0
M  V30 2113 C 196.571 -2.26543 4.84337 0
M  V30 2114 C 197.871 -0.112324 5.22179 0
M  V30 2115 H 199.565 0.213867 2.98635 0
M  V30 2116 H 197.111 0.104298 1.43622 0
M  V30 2117 H 199.064 -2.1358 3.63265 0
M  V30 2118 H 197.788 -2.22266 2.39302 0
M  V30 2119 H 196.447 -0.487985 3.63338 0
M  V30 2120 H 196.095 -2.92059 4.09525 0
M  V30 2121 H 195.795 -1.93466 5.54837 0
M  V30 2122 H 197.319 -2.85481 5.39753 0
M  V30 2123 H 198.733 -0.603752 5.70112 0
M  V30 2124 H 197.13 0.128968 5.99961 0
M  V30 2125 H 198.2 0.837052 4.77621 0
M  V30 2126 N 199.544 -1.57102 0.125237 0
M  V30 2127 C 200.491 -2.15641 -0.822655 0
M  V30 2128 C 201.461 -1.08313 -1.25927 0
M  V30 2129 O 202.646 -1.36251 -1.33567 0
M  V30 2130 C 199.786 -2.76504 -2.06494 0
M  V30 2131 C 198.899 -3.98158 -1.67612 0
M  V30 2132 C 198.034 -4.47088 -2.86854 0
M  V30 2133 C 197.073 -5.6126 -2.44242 0
M  V30 2134 N 196.21 -6.04905 -3.56419 0
M  V30 2135 H 201.05 -2.96313 -0.316625 0
M  V30 2136 H 198.587 -1.46388 -0.144588 0
M  V30 2137 H 200.545 -3.09925 -2.79289 0
M  V30 2138 H 199.175 -1.98512 -2.54545 0
M  V30 2139 H 198.227 -3.70858 -0.846661 0
M  V30 2140 H 199.539 -4.80934 -1.32301 0
M  V30 2141 H 198.693 -4.82451 -3.67867 0
M  V30 2142 H 197.432 -3.63275 -3.25396 0
M  V30 2143 H 196.437 -5.25495 -1.61663 0
M  V30 2144 H 197.662 -6.46843 -2.0681 0
M  V30 2145 H 195.608 -5.24032 -3.94623 0
M  V30 2146 H 195.525 -6.82552 -3.25051 0
M  V30 2147 H 196.793 -6.44907 -4.37853 0
M  V30 2148 N 201.022 0.148545 -1.56898 0
M  V30 2149 C 202.269 0.861418 -1.83264 0
M  V30 2150 C 202.597 1.81239 -0.705883 0
M  V30 2151 O 201.852 1.93305 0.305212 0
M  V30 2152 C 202.151 1.67064 -3.1595 0
M  V30 2153 C 201.817 0.866591 -4.42494 0
M  V30 2154 C 200.479 0.644762 -4.76861 0
M  V30 2155 C 202.831 0.30418 -5.20312 0
M  V30 2156 C 200.159 -0.15021 -5.86508 0
M  V30 2157 C 202.511 -0.477824 -6.30793 0
M  V30 2158 C 201.175 -0.710244 -6.63711 0
M  V30 2159 H 200.445 0.315215 -0.670612 0
M  V30 2160 H 203.092 0.125142 -1.91091 0
M  V30 2161 H 201.397 2.47698 -3.03567 0
M  V30 2162 H 203.094 2.22566 -3.33565 0
M  V30 2163 H 199.684 1.04955 -4.15551 0
M  V30 2164 H 203.868 0.462844 -4.94137 0
M  V30 2165 H 199.124 -0.339796 -6.10455 0
M  V30 2166 H 203.298 -0.92076 -6.90286 0
M  V30 2167 H 200.925 -1.3281 -7.48509 0
M  V30 2168 N 202.5 1.5196 0.417844 0
M  V30 2169 C 203.73 1.69181 1.18581 0
M  V30 2170 C 204.138 0.397104 1.84986 0
M  V30 2171 O 203.481 -0.636011 1.72339 0
M  V30 2172 C 203.543 2.76497 2.29759 0
M  V30 2173 C 203.207 4.18514 1.83563 0
M  V30 2174 C 204.204 5.02648 1.32821 0
M  V30 2175 C 201.889 4.64708 1.90661 0
M  V30 2176 C 203.883 6.31044 0.897894 0
M  V30 2177 C 201.57 5.93096 1.47241 0
M  V30 2178 C 202.568 6.76093 0.968891 0
M  V30 2179 O 202.256 8.02078 0.540924 0
M  V30 2180 H 201.988 0.570457 0.362705 0
M  V30 2181 H 204.542 1.99249 0.498885 0
M  V30 2182 H 202.772 2.41786 3.01789 0
M  V30 2183 H 204.461 2.82403 2.91553 0
M  V30 2184 H 205.227 4.68154 1.26716 0
M  V30 2185 H 201.106 4.00216 2.28797 0
M  V30 2186 H 204.65 6.95776 0.504192 0
M  V30 2187 H 200.547 6.271 1.53022 0
M  V30 2188 H 201.315 8.15794 0.66502 0
M  V30 2189 N 203.978 -0.674533 1.42435 0
M  V30 2190 C 205.225 -1.43459 1.42919 0
M  V30 2191 C 205.553 -1.94446 0.0457312 0
M  V30 2192 O 204.808 -1.7132 -0.94593 0
M  V30 2193 C 205.107 -2.64767 2.40069 0
M  V30 2194 C 204.773 -2.3232 3.86443 0
M  V30 2195 C 203.435 -2.23182 4.26314 0
M  V30 2196 C 205.787 -2.05977 4.78773 0
M  V30 2197 C 203.115 -1.85827 5.56494 0
M  V30 2198 C 205.467 -1.70125 6.09295 0
M  V30 2199 C 204.131 -1.59498 6.48164 0
M  V30 2200 H 203.401 -0.524952 0.522978 0
M  V30 2201 H 206.048 -0.769097 1.75377 0
M  V30 2202 H 204.353 -3.36349 2.00939 0
M  V30 2203 H 206.05 -3.22949 2.37707 0
M  V30 2204 H 202.64 -2.40334 3.54877 0
M  V30 2205 H 206.824 -2.11969 4.48757 0
M  V30 2206 H 202.08 -1.76168 5.8547 0
M  V30 2207 H 206.254 -1.48767 6.80324 0
M  V30 2208 H 203.881 -1.30322 7.48946 0
M  V30 2209 N 205.456 -1.28612 -0.910864 0
M  V30 2210 C 206.404 -1.1265 -2.03501 0
M  V30 2211 C 207.398 -0.0450054 -1.6934 0
M  V30 2212 O 208.604 -0.203988 -1.7884 0
M  V30 2213 H 204.979 -0.347639 -0.666822 0
M  V30 2214 H 206.95 -2.07849 -2.14106 0
M  V30 2215 C 205.699 -0.808143 -3.38178 0
M  V30 2216 H 205.022 -1.63231 -3.6496 0
M  V30 2217 H 206.462 -0.736426 -4.17556 0
M  V30 2218 C 204.921 0.488226 -3.33344 0
M  V30 2219 O 205.451 1.51766 -3.71927 0
M  V30 2220 N 203.657 0.490009 -2.86439 0
M  V30 2221 H 203.204 -0.348161 -2.55236 0
M  V30 2222 H 203.162 1.35741 -2.83587 0
M  V30 2223 N 206.934 1.1197 -1.10907 0
M  V30 2224 C 208.182 1.83225 -0.852819 0
M  V30 2225 C 208.503 1.84769 0.623341 0
M  V30 2226 O 207.773 1.3143 1.45269 0
M  V30 2227 H 206.353 0.67849 -0.312507 0
M  V30 2228 H 209.015 1.3556 -1.40033 0
M  V30 2229 H 208.111 2.87265 -1.22005 0
M  V30 2230 N 208.412 0.89855 1.29475 0
M  V30 2231 C 209.322 0.379974 2.31502 0
M  V30 2232 C 210.338 -0.524695 1.659 0
M  V30 2233 O 211.514 -0.414551 1.97087 0
M  V30 2234 C 208.579 -0.385138 3.44554 0
M  V30 2235 C 207.64 0.550914 4.2575 0
M  V30 2236 C 206.873 -0.177778 5.33404 0
M  V30 2237 O 207.096 -1.40189 5.52904 0
M  V30 2238 O 206.03 0.479106 5.9999 0
M  V30 2239 H 209.856 1.22639 2.77837 0
M  V30 2240 H 207.441 0.662834 1.33891 0
M  V30 2241 H 209.323 -0.817841 4.13388 0
M  V30 2242 H 207.998 -1.20763 3.0033 0
M  V30 2243 H 206.905 1.03271 3.59564 0
M  V30 2244 H 208.238 1.33979 4.73614 0
M  V30 2245 N 209.89 -1.43072 0.660911 0
M  V30 2246 C 211.12 -2.05769 0.185153 0
M  V30 2247 C 211.528 -1.49668 -1.15742 0
M  V30 2248 O 210.871 -0.625649 -1.72717 0
M  V30 2249 C 210.933 -3.59489 0.0278237 0
M  V30 2250 C 210.597 -4.38212 1.2969 0
M  V30 2251 C 211.594 -4.69772 2.22734 0
M  V30 2252 C 209.279 -4.7809 1.54063 0
M  V30 2253 C 211.273 -5.40129 3.38437 0
M  V30 2254 C 208.96 -5.4819 2.70058 0
M  V30 2255 C 209.958 -5.79132 3.62071 0
M  V30 2256 O 209.646 -6.47798 4.76039 0
M  V30 2257 H 209.378 -0.669873 0.0908086 0
M  V30 2258 H 211.932 -1.84436 0.90402 0
M  V30 2259 H 210.162 -3.79426 -0.746489 0
M  V30 2260 H 211.851 -4.03862 -0.406275 0
M  V30 2261 H 212.617 -4.39476 2.05149 0
M  V30 2262 H 208.496 -4.53408 0.833215 0
M  V30 2263 H 212.04 -5.64198 4.10277 0
M  V30 2264 H 207.937 -5.77902 2.87574 0
M  V30 2265 H 208.705 -6.66283 4.75404 0
M  V30 2266 N 211.368 -0.403325 -1.52352 0
M  V30 2267 C 212.331 0.413051 -2.25447 0
M  V30 2268 C 213.331 0.978513 -1.276 0
M  V30 2269 O 214.521 0.858305 -1.51587 0
M  V30 2270 C 211.653 1.58087 -3.02029 0
M  V30 2271 H 212.846 -0.227094 -2.99039 0
M  V30 2272 H 210.399 -0.155722 -1.55522 0
M  V30 2273 H 211.134 2.25804 -2.32772 0
M  V30 2274 H 210.919 1.18195 -3.73861 0
M  V30 2275 H 212.409 2.1585 -3.57489 0
M  V30 2276 N 212.846 1.57033 -0.133567 0
M  V30 2277 C 214.094 1.953 0.519848 0
M  V30 2278 C 214.415 1.01866 1.66278 0
M  V30 2279 O 213.685 0.0776513 1.95746 0
M  V30 2280 H 212.265 0.721091 0.195032 0
M  V30 2281 H 214.927 1.93809 -0.205921 0
M  V30 2282 H 214.023 2.98695 0.904854 0
M  V30 2283 N 214.325 -0.140222 1.56975 0
M  V30 2284 C 215.572 -0.851687 1.83719 0
M  V30 2285 C 215.9 -1.80862 0.715485 0
M  V30 2286 O 215.155 -1.93464 -0.294956 0
M  V30 2287 C 215.454 -1.65386 3.16832 0
M  V30 2288 C 215.12 -0.843112 4.42947 0
M  V30 2289 C 213.782 -0.619464 4.77196 0
M  V30 2290 C 216.134 -0.276582 5.20466 0
M  V30 2291 C 213.462 0.181312 5.8642 0
M  V30 2292 C 215.814 0.51127 6.30531 0
M  V30 2293 C 214.478 0.745432 6.63325 0
M  V30 2294 H 213.748 -0.311654 0.672274 0
M  V30 2295 H 216.395 -0.115006 1.91154 0
M  V30 2296 H 214.7 -2.46084 3.04877 0
M  V30 2297 H 216.397 -2.20793 3.34741 0
M  V30 2298 H 212.987 -1.0275 4.16101 0
M  V30 2299 H 217.171 -0.436632 4.94376 0
M  V30 2300 H 212.427 0.372165 6.10266 0
M  V30 2301 H 216.601 0.957354 6.89788 0
M  V30 2302 H 214.228 1.36778 7.47794 0
M  V30 2303 N 215.803 -1.52179 -0.40978 0
M  V30 2304 C 217.08 -1.56769 -1.16974 0
M  V30 2305 C 217.46 -0.348322 -2.08206 0
M  V30 2306 O 216.808 0.664862 -2.18613 0
M  V30 2307 C 217.018 -2.89603 -1.9476 0
M  V30 2308 C 218.366 -3.42579 -2.50849 0
M  V30 2309 O 219.39 -2.91338 -2.04941 0
M  V30 2310 O 218.249 -4.32054 -3.34652 0
M  V30 2311 H 215.343 -0.631439 -0.534054 0
M  V30 2312 H 217.889 -1.64507 -0.416613 0
M  V30 2313 H 216.661 -3.698 -1.27921 0
M  V30 2314 H 216.284 -2.85155 -2.77079 0
M  V30 2315 N 217.281 0.66697 -1.42791 0
M  V30 2316 C 218.191 1.80962 -1.49299 0
M  V30 2317 C 219.207 1.69775 -0.381108 0
M  V30 2318 O 220.383 1.91188 -0.633188 0
M  V30 2319 C 217.448 3.17156 -1.40045 0
M  V30 2320 C 216.509 3.40242 -2.6179 0
M  V30 2321 C 215.742 4.69939 -2.52969 0
M  V30 2322 O 215.965 5.48372 -1.56985 0
M  V30 2323 O 214.899 4.94441 -3.43237 0
M  V30 2324 H 218.725 1.78427 -2.45759 0
M  V30 2325 H 216.31 0.823713 -1.24641 0
M  V30 2326 H 218.192 3.98413 -1.37276 0
M  V30 2327 H 216.867 3.20312 -0.467138 0
M  V30 2328 H 215.774 2.58802 -2.70134 0
M  V30 2329 H 217.107 3.41923 -3.54047 0
M  V30 2330 N 218.759 1.29093 0.90403 0
M  V30 2331 C 219.987 1.19689 1.68766 0
M  V30 2332 C 220.402 -0.243113 1.87228 0
M  V30 2333 O 219.759 -1.16326 1.40621 0
M  V30 2334 C 219.81 1.90144 3.07453 0
M  V30 2335 O 219.531 3.2852 2.89838 0
M  V30 2336 C 221.032 1.87162 4.01852 0
M  V30 2337 H 218.252 0.415035 0.527244 0
M  V30 2338 H 220.796 1.7039 1.13082 0
M  V30 2339 H 218.951 1.43289 3.59926 0
M  V30 2340 H 219.365 3.63944 3.77684 0
M  V30 2341 H 220.839 2.41032 4.96596 0
M  V30 2342 H 221.316 0.84617 4.30972 0
M  V30 2343 H 221.922 2.33741 3.5531 0
M  V30 2344 N 220.237 -1.11381 1.11499 0
M  V30 2345 C 221.169 -2.17207 0.731704 0
M  V30 2346 C 222.182 -1.61066 -0.236957 0
M  V30 2347 O 223.371 -1.78489 -0.0197591 0
M  V30 2348 C 220.471 -3.38846 0.0607624 0
M  V30 2349 C 219.644 -4.24451 1.0564 0
M  V30 2350 C 218.703 -5.24562 0.4149 0
M  V30 2351 O 217.729 -5.59071 1.069 0
M  V30 2352 N 218.931 -5.74651 -0.821943 0
M  V30 2353 H 221.696 -2.50699 1.64225 0
M  V30 2354 H 219.257 -1.26908 1.00529 0
M  V30 2355 H 221.249 -4.02911 -0.380139 0
M  V30 2356 H 219.819 -3.03411 -0.752376 0
M  V30 2357 H 219.039 -3.56833 1.67524 0
M  V30 2358 H 220.327 -4.78486 1.72998 0
M  V30 2359 H 219.725 -5.48797 -1.37252 0
M  V30 2360 H 218.282 -6.40549 -1.20582 0
M  V30 2361 N 221.715 -0.905404 -1.28997 0
M  V30 2362 C 223.126 -0.581953 -1.77398 0
M  V30 2363 C 223.477 0.902552 -1.74208 0
M  V30 2364 O 222.602 1.70584 -1.33154 0
M  V30 2365 C 223.197 -1.04961 -3.22131 0
M  V30 2366 C 221.756 -0.777229 -3.68288 0
M  V30 2367 C 220.903 -1.22109 -2.48967 0
M  V30 2368 H 223.854 -1.08754 -1.15578 0
M  V30 2369 H 223.875 -0.387387 -3.78523 0
M  V30 2370 H 223.387 -2.13008 -3.24421 0
M  V30 2371 H 221.488 0.290383 -3.71467 0
M  V30 2372 H 221.601 -1.37911 -4.58822 0
M  V30 2373 H 219.965 -0.639971 -2.46529 0
M  V30 2374 H 220.748 -2.30972 -2.53982 0
M  V30 2375 N 223.193 1.4272 -0.668489 0
M  V30 2376 C 224.421 2.05966 -0.196348 0
M  V30 2377 C 224.836 1.50191 1.14403 0
M  V30 2378 O 224.193 0.639208 1.7094 0
M  V30 2379 C 224.244 3.61314 -0.115815 0
M  V30 2380 O 223.965 4.1502 -1.40322 0
M  V30 2381 C 225.466 4.41663 0.380579 0
M  V30 2382 H 222.686 0.663954 -0.0969829 0
M  V30 2383 H 225.23 1.82966 -0.913446 0
M  V30 2384 H 223.385 3.83448 0.551931 0
M  V30 2385 H 223.799 5.08832 -1.27243 0
M  V30 2386 H 225.273 5.5065 0.385848 0
M  V30 2387 H 225.75 4.15792 1.41471 0
M  V30 2388 H 226.356 4.24534 -0.255209 0
M  V30 2389 N 224.671 0.411399 1.52136 0
M  V30 2390 C 225.634 -0.401089 2.25663 0
M  V30 2391 C 226.634 -0.971732 1.28117 0
M  V30 2392 O 227.824 -0.850254 1.52041 0
M  V30 2393 C 224.956 -1.56483 3.02863 0
M  V30 2394 H 226.149 0.24295 2.98914 0
M  V30 2395 H 223.702 0.163968 1.55438 0
M  V30 2396 H 224.437 -2.24567 2.33967 0
M  V30 2397 H 224.222 -1.16211 3.74483 0
M  V30 2398 H 225.712 -2.13951 3.58629 0
M  V30 2399 N 226.149 -1.5696 0.141893 0
M  V30 2400 C 227.059 -2.20066 -0.812905 0
M  V30 2401 C 228.075 -1.18344 -1.27557 0
M  V30 2402 O 229.251 -1.50902 -1.33381 0
M  V30 2403 C 226.316 -2.80583 -2.03652 0
M  V30 2404 C 225.377 -3.97414 -1.62359 0
M  V30 2405 C 224.61 -4.55036 -2.78887 0
M  V30 2406 O 224.833 -4.11538 -3.94959 0
M  V30 2407 O 223.767 -5.45376 -2.54653 0
M  V30 2408 H 227.593 -3.02157 -0.305746 0
M  V30 2409 H 225.178 -1.49159 -0.0848799 0
M  V30 2410 H 227.06 -3.19067 -2.75272 0
M  V30 2411 H 225.735 -2.01508 -2.5333 0
M  V30 2412 H 224.642 -3.63656 -0.877775 0
M  V30 2413 H 225.975 -4.77994 -1.17401 0
M  V30 2414 N 227.627 0.131896 -1.57047 0
M  V30 2415 C 228.852 0.860418 -1.8871 0
M  V30 2416 C 229.277 1.73251 -0.73251 0
M  V30 2417 O 228.635 1.785 0.317429 0
M  V30 2418 C 228.683 1.68047 -3.19049 0
M  V30 2419 O 227.787 2.7862 -3.04047 0
M  V30 2420 H 227.128 0.238743 -0.619595 0
M  V30 2421 H 229.658 0.118169 -2.04258 0
M  V30 2422 H 229.668 2.07238 -3.51449 0
M  V30 2423 H 228.343 1.04018 -4.02682 0
M  V30 2424 H 226.92 2.42726 -2.83088 0
M  V30 2425 N 229.106 1.52395 0.401703 0
M  V30 2426 C 230.354 1.66488 1.14569 0
M  V30 2427 C 230.675 0.400897 1.90835 0
M  V30 2428 O 229.945 -0.584415 1.8698 0
M  V30 2429 H 228.525 0.613672 0.425929 0
M  V30 2430 H 231.187 1.89464 0.457093 0
M  V30 2431 H 230.283 2.50942 1.85566 0
M  V30 2432 N 230.584 -0.659388 1.43143 0
M  V30 2433 C 231.832 -1.41654 1.44147 0
M  V30 2434 C 232.153 -1.94893 0.0645739 0
M  V30 2435 O 231.423 -1.74044 -0.899198 0
M  V30 2436 H 230.003 -0.525708 0.530697 0
M  V30 2437 H 232.665 -0.778097 1.78694 0
M  V30 2438 H 231.761 -2.26195 2.1504 0
M  V30 2439 N 232.062 -1.29571 -0.897171 0
M  V30 2440 C 233.009 -1.14916 -2.00158 0
M  V30 2441 C 233.979 -0.0418149 -1.66047 0
M  V30 2442 O 235.164 -0.209793 -1.89643 0
M  V30 2443 C 232.304 -0.834307 -3.34863 0
M  V30 2444 C 231.417 -2.02234 -3.8174 0
M  V30 2445 C 230.552 -1.64664 -5.05034 0
M  V30 2446 C 229.591 -2.80033 -5.44286 0
M  V30 2447 N 228.728 -2.42843 -6.58765 0
M  V30 2448 H 233.568 -2.09403 -2.12025 0
M  V30 2449 H 231.105 -1.042 -1.0383 0
M  V30 2450 H 233.063 -0.632436 -4.12379 0
M  V30 2451 H 231.693 0.0736656 -3.22716 0
M  V30 2452 H 230.745 -2.33583 -3.00238 0
M  V30 2453 H 232.057 -2.88673 -4.06779 0
M  V30 2454 H 231.211 -1.4078 -5.9014 0
M  V30 2455 H 229.95 -0.753766 -4.8184 0
M  V30 2456 H 228.955 -3.04596 -4.57713 0
M  V30 2457 H 230.18 -3.69989 -5.6946 0
M  V30 2458 H 228.126 -1.56046 -6.3717 0
M  V30 2459 H 228.043 -3.22815 -6.83613 0
M  V30 2460 H 229.311 -2.22285 -7.47134 0
M  V30 2461 N 233.54 1.10788 -1.12088 0
M  V30 2462 C 234.788 1.8231 -0.872205 0
M  V30 2463 C 235.109 1.85419 0.603709 0
M  V30 2464 O 234.379 1.32963 1.43867 0
M  V30 2465 H 232.959 0.675137 -0.319686 0
M  V30 2466 H 235.621 1.34068 -1.41463 0
M  V30 2467 H 234.717 2.85955 -1.25045 0
M  V30 2468 N 235.018 0.912232 1.28515 0
M  V30 2469 C 235.965 0.397954 2.27343 0
M  V30 2470 C 236.935 -0.526766 1.57526 0
M  V30 2471 O 238.12 -0.449292 1.85435 0
M  V30 2472 C 235.26 -0.357263 3.43246 0
M  V30 2473 C 234.373 0.599788 4.27816 0
M  V30 2474 C 233.508 -0.173725 5.30916 0
M  V30 2475 C 232.547 0.777039 6.07148 0
M  V30 2476 N 231.684 0.0371398 7.0209 0
M  V30 2477 H 236.524 1.24577 2.70711 0
M  V30 2478 H 234.061 0.625612 1.33133 0
M  V30 2479 H 236.019 -0.8113 4.09236 0
M  V30 2480 H 234.649 -1.16943 3.00872 0
M  V30 2481 H 233.701 1.17235 3.61884 0
M  V30 2482 H 235.013 1.32704 4.80823 0
M  V30 2483 H 234.167 -0.688394 6.02782 0
M  V30 2484 H 232.906 -0.934041 4.78672 0
M  V30 2485 H 231.911 1.3031 5.34134 0
M  V30 2486 H 233.136 1.53689 6.61481 0
M  V30 2487 H 231.082 -0.705213 6.52198 0
M  V30 2488 H 230.999 0.704249 7.52713 0
M  V30 2489 H 232.267 -0.457383 7.78157 0
M  V30 2490 N 236.496 -1.42363 0.676048 0
M  V30 2491 C 237.742 -2.0182 0.199125 0
M  V30 2492 C 238.075 -1.53339 -1.19168 0
M  V30 2493 O 237.35 -0.736124 -1.80032 0
M  V30 2494 C 237.633 -3.59331 0.235144 0
M  V30 2495 C 237.486 -4.17989 1.66149 0
M  V30 2496 C 238.805 -4.3813 -0.41595 0
M  V30 2497 H 235.924 -0.733293 0.0738311 0
M  V30 2498 H 238.566 -1.69368 0.86107 0
M  V30 2499 H 236.716 -3.87109 -0.328487 0
M  V30 2500 H 238.388 -4.0116 2.27747 0
M  V30 2501 H 236.631 -3.7377 2.20178 0
M  V30 2502 H 237.302 -5.27126 1.63837 0
M  V30 2503 H 239.778 -4.16051 0.0638529 0
M  V30 2504 H 238.654 -5.47717 -0.360115 0
M  V30 2505 H 238.915 -4.16101 -1.49373 0
M  V30 2506 N 237.974 -0.419461 -1.51915 0
M  V30 2507 C 239.223 0.154346 -2.01109 0
M  V30 2508 C 239.536 1.45338 -1.30905 0
M  V30 2509 O 240.742 2.10906 -1.7097 0
M  V30 2510 C 239.198 0.325615 -3.58424 0
M  V30 2511 C 238.806 -0.961934 -4.37551 0
M  V30 2512 C 240.55 0.854155 -4.15818 0
M  V30 2513 C 238.457 -0.757287 -5.86531 0
M  V30 2514 H 237.387 0.0614563 -0.751491 0
M  V30 2515 H 240.038 -0.54649 -1.75173 0
M  V30 2516 H 238.42 1.08903 -3.80731 0
M  V30 2517 H 239.594 -1.7323 -4.26999 0
M  V30 2518 H 237.909 -1.41766 -3.91524 0
M  V30 2519 H 240.506 1.02346 -5.24814 0
M  V30 2520 H 240.849 1.83172 -3.73837 0
M  V30 2521 H 241.382 0.149528 -3.97519 0
M  V30 2522 H 238.121 -1.70671 -6.32892 0
M  V30 2523 H 237.641 -0.0264061 -5.99794 0
M  V30 2524 H 239.32 -0.403482 -6.45741 0
M  V30 2525 N 239.452 1.56882 -0.150215 0
M  V30 2526 C 240.399 2.16922 0.788244 0
M  V30 2527 C 241.369 1.10303 1.24187 0
M  V30 2528 O 242.554 1.38359 1.31383 0
M  V30 2529 C 239.694 2.79754 2.02068 0
M  V30 2530 C 238.807 4.00775 1.61257 0
M  V30 2531 C 237.942 4.51595 2.79705 0
M  V30 2532 C 236.981 5.65074 2.35282 0
M  V30 2533 N 236.118 6.10499 3.4675 0
M  V30 2534 H 240.958 2.96779 0.269444 0
M  V30 2535 H 238.495 1.46599 0.12128 0
M  V30 2536 H 240.453 3.14329 2.74323 0
M  V30 2537 H 239.083 2.02536 2.51354 0
M  V30 2538 H 238.135 3.72158 0.787553 0
M  V30 2539 H 239.447 4.82978 1.24633 0
M  V30 2540 H 238.601 4.88242 3.60145 0
M  V30 2541 H 237.34 3.68406 3.19576 0
M  V30 2542 H 236.345 5.28 1.53283 0
M  V30 2543 H 237.57 6.50052 1.96493 0
M  V30 2544 H 235.516 5.30243 3.86236 0
M  V30 2545 H 235.433 6.87637 3.14152 0
M  V30 2546 H 236.701 6.51791 4.27537 0
M  V30 2547 N 240.93 -0.123565 1.57115 0
M  V30 2548 C 241.86 -1.15309 2.03042 0
M  V30 2549 C 242.841 -1.43454 0.914061 0
M  V30 2550 O 244.026 -1.53973 1.18347 0
M  V30 2551 C 241.156 -2.48043 2.43089 0
M  V30 2552 C 240.11 -2.3437 3.58127 0
M  V30 2553 C 239.436 -3.72026 3.84059 0
M  V30 2554 C 240.736 -1.80804 4.90007 0
M  V30 2555 H 242.43 -0.771102 2.893 0
M  V30 2556 H 239.976 -0.369479 1.39179 0
M  V30 2557 H 241.929 -3.20311 2.73823 0
M  V30 2558 H 240.653 -2.88122 1.53796 0
M  V30 2559 H 239.312 -1.64551 3.27595 0
M  V30 2560 H 238.96 -4.09582 2.91979 0
M  V30 2561 H 238.66 -3.63732 4.6149 0
M  V30 2562 H 240.184 -4.45806 4.1724 0
M  V30 2563 H 241.598 -2.42886 5.19307 0
M  V30 2564 H 239.995 -1.83343 5.71407 0
M  V30 2565 H 241.065 -0.76528 4.78823 0
M  V30 2566 N 242.408 -1.52605 -0.393616 0
M  V30 2567 C 243.338 -1.80022 -1.48709 0
M  V30 2568 C 244.319 -0.651995 -1.57108 0
M  V30 2569 O 245.504 -0.89913 -1.72132 0
M  V30 2570 C 242.634 -1.96492 -2.86371 0
M  V30 2571 C 241.588 -3.12161 -2.92813 0
M  V30 2572 C 240.914 -3.13877 -4.3288 0
M  V30 2573 C 242.214 -4.51322 -2.6288 0
M  V30 2574 H 243.908 -2.71589 -1.26015 0
M  V30 2575 H 241.454 -1.30684 -0.604778 0
M  V30 2576 H 243.407 -2.14255 -3.62867 0
M  V30 2577 H 242.131 -1.01611 -3.10391 0
M  V30 2578 H 240.79 -2.94173 -2.18764 0
M  V30 2579 H 240.438 -2.16687 -4.53933 0
M  V30 2580 H 240.138 -3.91576 -4.38112 0
M  V30 2581 H 241.662 -3.33789 -5.1129 0
M  V30 2582 H 243.076 -4.69435 -3.29096 0
M  V30 2583 H 241.473 -5.31053 -2.79468 0
M  V30 2584 H 242.543 -4.58353 -1.58242 0
M  V30 2585 N 243.887 0.651787 -1.4349 0
M  V30 2586 C 244.834 1.76462 -1.4876 0
M  V30 2587 C 245.804 1.62641 -0.337189 0
M  V30 2588 O 246.989 1.82864 -0.544544 0
M  V30 2589 C 244.129 3.14623 -1.41796 0
M  V30 2590 C 243.242 3.39568 -2.67053 0
M  V30 2591 C 242.377 4.67585 -2.52068 0
M  V30 2592 C 241.416 4.85639 -3.72587 0
M  V30 2593 N 240.553 6.04915 -3.56402 0
M  V30 2594 H 245.393 1.71293 -2.43849 0
M  V30 2595 H 242.93 0.835889 -1.21043 0
M  V30 2596 H 244.888 3.94496 -1.35753 0
M  V30 2597 H 243.518 3.18859 -0.50288 0
M  V30 2598 H 242.57 2.53783 -2.8337 0
M  V30 2599 H 243.882 3.48795 -3.56572 0
M  V30 2600 H 243.036 5.55586 -2.4374 0
M  V30 2601 H 241.775 4.60681 -1.60075 0
M  V30 2602 H 240.78 3.96073 -3.81321 0
M  V30 2603 H 242.005 4.94372 -4.65589 0
M  V30 2604 H 239.951 5.9914 -2.67146 0
M  V30 2605 H 239.868 6.15106 -4.39524 0
M  V30 2606 H 241.136 6.95533 -3.51929 0
M  V30 2607 N 245.365 1.30045 0.890287 0
M  V30 2608 C 246.275 1.17885 2.02831 0
M  V30 2609 C 247.291 0.0999609 1.73713 0
M  V30 2610 O 248.467 0.313867 1.98939 0
M  V30 2611 C 245.532 0.866079 3.35708 0
M  V30 2612 C 244.593 2.02979 3.78283 0
M  V30 2613 C 243.826 1.73184 5.0482 0
M  V30 2614 O 244.049 0.657237 5.66601 0
M  V30 2615 O 242.983 2.58267 5.43674 0
M  V30 2616 H 246.809 2.13474 2.16015 0
M  V30 2617 H 244.394 1.09587 1.01543 0
M  V30 2618 H 246.276 0.706623 4.15433 0
M  V30 2619 H 244.951 -0.0599443 3.23644 0
M  V30 2620 H 243.858 2.24454 2.99285 0
M  V30 2621 H 245.191 2.93734 3.94944 0
M  V30 2622 N 246.843 -1.10192 1.12674 0
M  V30 2623 C 247.79 -2.16606 0.796906 0
M  V30 2624 C 248.76 -1.64394 -0.237476 0
M  V30 2625 O 249.945 -1.90474 -0.111484 0
M  V30 2626 C 247.085 -3.44116 0.26043 0
M  V30 2627 C 246.198 -4.10268 1.35293 0
M  V30 2628 C 245.333 -5.25507 0.775621 0
M  V30 2629 C 244.372 -5.83567 1.84706 0
M  V30 2630 N 243.509 -6.90179 1.28829 0
M  V30 2631 H 248.349 -2.44163 1.70846 0
M  V30 2632 H 245.886 -1.19846 0.85295 0
M  V30 2633 H 247.844 -4.17143 -0.0686814 0
M  V30 2634 H 246.474 -3.16901 -0.614274 0
M  V30 2635 H 245.526 -3.35184 1.79877 0
M  V30 2636 H 246.838 -4.4946 2.16303 0
M  V30 2637 H 245.992 -6.05398 0.397327 0
M  V30 2638 H 244.731 -4.87656 -0.0656581 0
M  V30 2639 H 243.736 -5.02344 2.23452 0
M  V30 2640 H 244.961 -6.23482 2.69161 0
M  V30 2641 H 242.907 -6.54322 0.468881 0
M  V30 2642 H 242.824 -7.28097 2.03497 0
M  V30 2643 H 244.092 -7.73844 0.937311 0
M  V30 2644 N 248.321 -0.919034 -1.28029 0
M  V30 2645 C 249.568 -0.554934 -1.94748 0
M  V30 2646 C 249.896 0.90231 -1.72304 0
M  V30 2647 O 249.151 1.65767 -1.04018 0
M  V30 2648 C 249.45 -0.816855 -3.4794 0
M  V30 2649 C 249.116 -2.25448 -3.90492 0
M  V30 2650 C 247.778 -2.64752 -4.01821 0
M  V30 2651 C 250.13 -3.18977 -4.12193 0
M  V30 2652 C 247.458 -3.96727 -4.32232 0
M  V30 2653 C 249.81 -4.50523 -4.44086 0
M  V30 2654 C 248.474 -4.89673 -4.53626 0
M  V30 2655 H 247.744 -0.203065 -0.712633 0
M  V30 2656 H 250.391 -1.16136 -1.52265 0
M  V30 2657 H 248.696 -0.127677 -3.91592 0
M  V30 2658 H 250.393 -0.514238 -3.97689 0
M  V30 2659 H 246.983 -1.93952 -3.82205 0
M  V30 2660 H 251.167 -2.89817 -4.02889 0
M  V30 2661 H 246.423 -4.26754 -4.37825 0
M  V30 2662 H 250.597 -5.23005 -4.59825 0
M  V30 2663 H 248.224 -5.91969 -4.76946 0
M  V30 2664 N 249.799 1.42003 -0.683588 0
M  V30 2665 C 250.749 2.27997 0.0121992 0
M  V30 2666 C 251.733 1.4156 0.764822 0
M  V30 2667 O 252.925 1.64935 0.642287 0
M  V30 2668 C 250.054 3.29706 0.956482 0
M  V30 2669 C 249.14 4.23625 0.200739 0
M  V30 2670 N 249.531 4.99448 -0.799087 0
M  V30 2671 C 247.829 4.43845 0.437937 0
M  V30 2672 C 248.53 5.68102 -1.25041 0
M  V30 2673 N 247.506 5.40511 -0.578648 0
M  V30 2674 H 251.308 2.84048 -0.754564 0
M  V30 2675 H 248.822 1.54071 -0.513398 0
M  V30 2676 H 250.819 3.90124 1.47 0
M  V30 2677 H 249.479 2.75216 1.72297 0
M  V30 2678 H 250.49 5.04303 -1.17893 0
M  V30 2679 H 247.167 4.00382 1.18325 0
M  V30 2680 H 248.557 6.38913 -2.07942 0
M  V30 2681 N 251.277 0.427512 1.51691 0
M  V30 2682 C 252.524 -0.142229 2.02 0
M  V30 2683 C 252.852 -1.43566 1.31221 0
M  V30 2684 O 252.107 -1.91298 0.412744 0
M  V30 2685 C 252.406 -0.418249 3.54944 0
M  V30 2686 C 252.072 0.788187 4.43958 0
M  V30 2687 C 250.734 1.11906 4.68007 0
M  V30 2688 C 253.086 1.59347 4.96244 0
M  V30 2689 C 250.414 2.25608 5.41588 0
M  V30 2690 C 252.766 2.7214 5.71072 0
M  V30 2691 C 251.43 3.05692 5.93387 0
M  V30 2692 H 250.7 -0.0520451 0.73917 0
M  V30 2693 H 253.347 0.572697 1.82736 0
M  V30 2694 H 251.652 -1.21496 3.72486 0
M  V30 2695 H 253.349 -0.872339 3.91397 0
M  V30 2696 H 249.939 0.520344 4.2543 0
M  V30 2697 H 254.123 1.35106 4.77556 0
M  V30 2698 H 249.379 2.51929 5.57083 0
M  V30 2699 H 253.553 3.34914 6.10578 0
M  V30 2700 H 251.18 3.9391 6.50184 0
M  V30 2701 N 252.755 -1.56801 0.158532 0
M  V30 2702 C 253.702 -2.17337 -0.776729 0
M  V30 2703 C 254.672 -1.1096 -1.23601 0
M  V30 2704 O 255.857 -1.39054 -1.30647 0
M  V30 2705 C 252.997 -2.80822 -2.00582 0
M  V30 2706 C 252.11 -4.01624 -1.59129 0
M  V30 2707 C 251.245 -4.53072 -2.77306 0
M  V30 2708 C 250.284 -5.66314 -2.32282 0
M  V30 2709 N 249.421 -6.12329 -3.43508 0
M  V30 2710 H 254.261 -2.96918 -0.253701 0
M  V30 2711 H 251.798 -1.46661 -0.113504 0
M  V30 2712 H 253.756 -3.15779 -2.72652 0
M  V30 2713 H 252.386 -2.03866 -2.50277 0
M  V30 2714 H 251.438 -3.72571 -0.767806 0
M  V30 2715 H 252.75 -4.83633 -1.2207 0
M  V30 2716 H 251.904 -4.90145 -3.57551 0
M  V30 2717 H 250.643 -3.70095 -3.17617 0
M  V30 2718 H 249.648 -5.28806 -1.5048 0
M  V30 2719 H 250.873 -6.51085 -1.93043 0
M  V30 2720 H 248.819 -5.32284 -3.83418 0
M  V30 2721 H 248.736 -6.89293 -3.105 0
M  V30 2722 H 250.004 -6.5405 -4.24075 0
M  V30 2723 N 254.233 0.115231 -1.57178 0
M  V30 2724 C 255.18 1.14115 -2.00615 0
M  V30 2725 C 256.15 1.40939 -0.878941 0
M  V30 2726 O 257.335 1.52741 -1.14345 0
M  V30 2727 C 254.475 2.46156 -2.4187 0
M  V30 2728 C 253.588 2.26236 -3.68024 0
M  V30 2729 C 252.723 3.51534 -3.98243 0
M  V30 2730 C 251.762 3.26787 -5.17568 0
M  V30 2731 N 250.899 4.44298 -5.43639 0
M  V30 2732 H 255.739 0.763743 -2.88047 0
M  V30 2733 H 253.276 0.365615 -1.42484 0
M  V30 2734 H 255.234 3.23189 -2.63827 0
M  V30 2735 H 253.864 2.81783 -1.57475 0
M  V30 2736 H 252.916 1.40102 -3.5366 0
M  V30 2737 H 254.228 2.03929 -4.55208 0
M  V30 2738 H 253.382 4.36984 -4.20868 0
M  V30 2739 H 252.121 3.76876 -3.09541 0
M  V30 2740 H 251.126 2.39729 -4.94783 0
M  V30 2741 H 252.351 3.02812 -6.0785 0
M  V30 2742 H 250.297 4.69754 -4.57895 0
M  V30 2743 H 250.214 4.25109 -6.25154 0
M  V30 2744 H 251.482 5.3087 -5.70786 0
M  V30 2745 N 255.711 1.52812 0.385517 0
M  V30 2746 C 256.96 1.67249 1.12741 0
M  V30 2747 C 257.273 0.4205 1.91027 0
M  V30 2748 O 258.479 0.445064 2.67827 0
M  V30 2749 C 256.935 2.95583 2.05326 0
M  V30 2750 C 256.543 4.27974 1.32447 0
M  V30 2751 C 258.287 3.19386 2.7963 0
M  V30 2752 C 256.194 5.47412 2.23818 0
M  V30 2753 H 255.124 0.6231 0.424573 0
M  V30 2754 H 257.775 1.79309 0.389924 0
M  V30 2755 H 256.157 2.77277 2.82725 0
M  V30 2756 H 257.331 4.56844 0.602495 0
M  V30 2757 H 255.646 4.10459 0.700885 0
M  V30 2758 H 258.243 4.05801 3.48181 0
M  V30 2759 H 258.586 2.34604 3.43899 0
M  V30 2760 H 259.119 3.38274 2.09322 0
M  V30 2761 H 255.858 6.34612 1.64157 0
M  V30 2762 H 255.378 5.22849 2.93921 0
M  V30 2763 H 257.057 5.81423 2.83824 0
M  V30 2764 N 257.189 -0.644168 1.43834 0
M  V30 2765 C 258.438 -1.39985 1.45214 0
M  V30 2766 C 258.751 -1.95421 0.0835494 0
M  V30 2767 O 259.957 -2.71488 -0.0251748 0
M  V30 2768 C 258.413 -2.53384 2.55587 0
M  V30 2769 C 258.021 -2.04517 3.98594 0
M  V30 2770 C 259.765 -3.30685 2.66172 0
M  V30 2771 C 257.672 -3.1518 5.00416 0
M  V30 2772 H 256.602 -0.526005 0.540218 0
M  V30 2773 H 259.253 -0.694367 1.69855 0
M  V30 2774 H 257.635 -3.26446 2.24163 0
M  V30 2775 H 258.809 -1.38405 4.39523 0
M  V30 2776 H 257.124 -1.40068 3.92135 0
M  V30 2777 H 259.721 -4.13158 3.39418 0
M  V30 2778 H 260.064 -3.79312 1.71546 0
M  V30 2779 H 260.597 -2.64708 2.96942 0
M  V30 2780 H 257.336 -2.71511 5.96625 0
M  V30 2781 H 256.856 -3.79974 4.64091 0
M  V30 2782 H 258.535 -3.80166 5.23529 0
M  V30 2783 N 258.668 -1.30515 -0.883378 0
M  V30 2784 C 259.601 -1.11359 -1.99184 0
M  V30 2785 C 260.579 -0.0207858 -1.62587 0
M  V30 2786 O 261.763 -0.174646 -1.87689 0
M  V30 2787 C 258.89 -0.69871 -3.31415 0
M  V30 2788 C 257.936 -1.79261 -3.86998 0
M  V30 2789 S 258.769 -3.39536 -4.14096 0
M  V30 2790 C 259.925 -2.99954 -5.49344 0
M  V30 2791 H 260.158 -2.052 -2.15128 0
M  V30 2792 H 257.691 -1.14847 -1.03196 0
M  V30 2793 H 259.649 -0.466075 -4.07846 0
M  V30 2794 H 258.31 0.220368 -3.13326 0
M  V30 2795 H 257.503 -1.45464 -4.82552 0
M  V30 2796 H 257.105 -1.97961 -3.17313 0
M  V30 2797 H 259.397 -2.48013 -6.30473 0
M  V30 2798 H 260.34 -3.9442 -5.8808 0
M  V30 2799 H 260.748 -2.37775 -5.1198 0
M  V30 2800 N 260.146 1.09593 -1.13257 0
M  V30 2801 C 261.395 1.81105 -0.887917 0
M  V30 2802 C 261.708 1.86563 0.587672 0
M  V30 2803 O 262.914 2.54367 0.949204 0
M  V30 2804 C 261.37 3.25338 -1.53895 0
M  V30 2805 C 260.978 3.28151 -3.04994 0
M  V30 2806 C 262.722 4.01617 -1.37492 0
M  V30 2807 C 260.629 4.66897 -3.6299 0
M  V30 2808 H 259.559 0.678661 -0.328534 0
M  V30 2809 H 262.21 1.23183 -1.36008 0
M  V30 2810 H 260.592 3.8331 -0.994446 0
M  V30 2811 H 261.766 2.79953 -3.66009 0
M  V30 2812 H 260.081 2.65361 -3.20893 0
M  V30 2813 H 262.678 5.04119 -1.78235 0
M  V30 2814 H 263.021 4.15072 -0.31957 0
M  V30 2815 H 263.554 3.50082 -1.88912 0
M  V30 2816 H 260.293 4.58643 -4.68323 0
M  V30 2817 H 259.813 5.15426 -3.06752 0
M  V30 2818 H 261.492 5.3587 -3.62563 0
M  V30 2819 N 261.624 0.925811 1.2754 0
M  V30 2820 C 262.872 0.564138 1.94067 0
M  V30 2821 C 263.193 -0.897188 1.73134 0
M  V30 2822 O 262.463 -1.63573 1.07799 0
M  V30 2823 H 261.043 0.205645 0.718136 0
M  V30 2824 H 263.705 1.1778 1.55287 0
M  V30 2825 H 262.801 0.76881 3.02483 0
M  V30 2826 N 263.102 -1.41638 0.69111 0
M  V30 2827 C 264.379 -1.95036 0.148421 0
M  V30 2828 C 264.759 -1.63072 -1.34055 0
M  V30 2829 O 264.107 -0.93538 -2.08478 0
M  V30 2830 C 264.317 -3.46279 0.434951 0
M  V30 2831 C 265.665 -4.23069 0.360275 0
M  V30 2832 O 266.689 -3.54277 0.369613 0
M  V30 2833 O 265.548 -5.45583 0.316534 0
M  V30 2834 H 262.642 -0.826908 0.0123654 0
M  V30 2835 H 265.188 -1.5138 0.766963 0
M  V30 2836 H 263.96 -3.6281 1.46576 0
M  V30 2837 H 263.583 -3.97019 -0.214787 0
M  V30 2838 N 264.58 -0.43555 -1.51462 0
M  V30 2839 C 265.828 0.131254 -2.01673 0
M  V30 2840 C 266.149 1.43368 -1.32177 0
M  V30 2841 O 265.419 1.90524 -0.455769 0
M  V30 2842 H 263.999 0.0514954 -0.745223 0
M  V30 2843 H 266.661 -0.577847 -1.86137 0
M  V30 2844 H 265.757 0.308446 -3.10572 0
M  V30 2845 N 266.058 1.56714 -0.166846 0
M  V30 2846 C 267.021 2.16539 0.751232 0
M  V30 2847 C 268.021 1.11228 1.16125 0
M  V30 2848 O 269.211 1.36765 1.07894 0
M  V30 2849 C 266.343 2.74462 2.02196 0
M  V30 2850 H 267.536 2.99013 0.230499 0
M  V30 2851 H 265.089 1.56081 0.0826982 0
M  V30 2852 H 265.824 1.95709 2.58589 0
M  V30 2853 H 265.609 3.51527 1.73698 0
M  V30 2854 H 267.099 3.20489 2.67725 0
M  V30 2855 N 267.536 -0.106894 1.57237 0
M  V30 2856 C 268.764 -0.826389 1.8968 0
M  V30 2857 C 269.179 -1.72856 0.759353 0
M  V30 2858 O 268.536 -1.80503 -0.269263 0
M  V30 2859 C 268.587 -1.64967 3.21665 0
M  V30 2860 O 268.308 -0.783804 4.31031 0
M  V30 2861 C 269.809 -2.47326 3.67892 0
M  V30 2862 H 267.029 -0.236927 0.627779 0
M  V30 2863 H 269.573 -0.0876593 2.04312 0
M  V30 2864 H 267.728 -2.34103 3.08666 0
M  V30 2865 H 268.142 -1.35284 5.06753 0
M  V30 2866 H 269.616 -3.00604 4.6297 0
M  V30 2867 H 270.093 -3.25247 2.95146 0
M  V30 2868 H 270.699 -1.83411 3.83719 0
M  V30 2869 N 269.014 -1.53014 -0.377408 0
M  V30 2870 C 270.291 -1.59215 -1.13622 0
M  V30 2871 C 270.671 -0.392407 -2.07421 0
M  V30 2872 O 270.019 0.618342 -2.19975 0
M  V30 2873 C 270.229 -2.93669 -1.88573 0
M  V30 2874 C 271.577 -3.47822 -2.43526 0
M  V30 2875 O 272.601 -2.9562 -1.98715 0
M  V30 2876 O 271.46 -4.39055 -3.25412 0
M  V30 2877 H 268.554 -0.642625 -0.52054 0
M  V30 2878 H 271.1 -1.65353 -0.381625 0
M  V30 2879 H 269.872 -3.7243 -1.20048 0
M  V30 2880 H 269.495 -2.90968 -2.70968 0
M  V30 2881 N 270.492 0.636531 -1.44174 0
M  V30 2882 C 271.425 1.76139 -1.45087 0
M  V30 2883 C 272.403 1.59611 -0.310326 0
M  V30 2884 O 273.587 1.81568 -0.506477 0
M  V30 2885 C 270.714 3.13648 -1.27839 0
M  V30 2886 C 269.76 3.48838 -2.45386 0
M  V30 2887 S 270.593 3.46927 -4.07924 0
M  V30 2888 C 271.749 4.87064 -3.9309 0
M  V30 2889 H 271.982 1.75096 -2.40268 0
M  V30 2890 H 269.515 0.810666 -1.31406 0
M  V30 2891 H 271.473 3.93002 -1.18575 0
M  V30 2892 H 270.134 3.12235 -0.341787 0
M  V30 2893 H 269.327 4.48886 -2.29167 0
M  V30 2894 H 268.929 2.76935 -2.51362 0
M  V30 2895 H 271.221 5.76153 -3.56446 0
M  V30 2896 H 272.164 5.08337 -4.92949 0
M  V30 2897 H 272.572 4.61384 -3.25246 0
M  V30 2898 N 271.97 1.30982 0.876444 0
M  V30 2899 C 272.88 1.2003 2.01569 0
M  V30 2900 C 273.896 0.11838 1.73597 0
M  V30 2901 O 275.072 0.33495 1.98595 0
M  V30 2902 C 272.137 0.901637 3.34771 0
M  V30 2903 C 271.198 2.06979 3.76109 0
M  V30 2904 C 270.431 1.78529 5.02954 0
M  V30 2905 O 270.654 0.717296 5.65872 0
M  V30 2906 O 269.588 2.64019 5.40905 0
M  V30 2907 H 273.414 2.15753 2.13739 0
M  V30 2908 H 270.999 1.10658 1.00375 0
M  V30 2909 H 272.881 0.750645 4.1466 0
M  V30 2910 H 271.556 -0.0256141 3.2369 0
M  V30 2911 H 270.463 2.27616 2.96887 0
M  V30 2912 H 271.796 2.97907 3.91807 0
M  V30 2913 N 273.449 -1.08991 1.13837 0
M  V30 2914 C 274.412 -2.13925 0.822715 0
M  V30 2915 C 275.412 -1.599 -0.1699 0
M  V30 2916 O 276.602 -1.74104 0.0577251 0
M  V30 2917 C 273.734 -3.40155 0.225318 0
M  V30 2918 H 274.927 -2.43358 1.75262 0
M  V30 2919 H 272.48 -1.24603 0.943594 0
M  V30 2920 H 273.215 -3.16352 -0.713594 0
M  V30 2921 H 273 -3.80661 0.940193 0
M  V30 2922 H 274.49 -4.17594 0.0214784 0
M  V30 2923 N 274.927 -0.932562 -1.27047 0
M  V30 2924 C 276.167 -0.582919 -1.95912 0
M  V30 2925 C 276.531 0.860629 -1.71631 0
M  V30 2926 O 277.732 1.31878 -2.34225 0
M  V30 2927 C 276.003 -0.905673 -3.45734 0
M  V30 2928 S 277.562 -0.665277 -4.33727 0
M  V30 2929 H 274.38 -0.215 -0.677714 0
M  V30 2930 H 276.982 -1.20204 -1.54179 0
M  V30 2931 H 275.686 -1.95386 -3.60905 0
M  V30 2932 H 275.217 -0.275939 -3.92431 0
M  V30 2933 H 277.232 0.474635 -4.93925 0
M  V30 2934 N 276.405 1.4127 -0.698611 0
M  V30 2935 C 277.816 1.84187 -0.305289 0
M  V30 2936 C 278.167 1.58449 1.15708 0
M  V30 2937 O 277.292 1.05651 1.88856 0
M  V30 2938 C 277.887 3.3435 -0.547314 0
M  V30 2939 C 276.446 3.75826 -0.207878 0
M  V30 2940 C 275.593 2.64647 -0.828099 0
M  V30 2941 H 278.544 1.30778 -0.89904 0
M  V30 2942 H 278.565 3.8001 0.192998 0
M  V30 2943 H 278.077 3.53051 -1.61172 0
M  V30 2944 H 276.178 3.62725 0.852143 0
M  V30 2945 H 276.291 4.74462 -0.665021 0
M  V30 2946 H 274.655 2.53395 -0.257458 0
M  V30 2947 H 275.438 2.86165 -1.89643 0
M  V30 2948 N 277.883 0.443576 1.51229 0
M  V30 2949 C 279.294 -0.0180867 1.86691 0
M  V30 2950 C 279.645 -1.41384 1.36033 0
M  V30 2951 O 278.77 -2.04291 0.713722 0
M  V30 2952 C 279.365 -0.039597 3.38777 0
M  V30 2953 C 277.924 -0.445692 3.73752 0
M  V30 2954 C 277.071 0.357584 2.74985 0
M  V30 2955 H 280.022 0.659138 1.44364 0
M  V30 2956 H 280.043 -0.847761 3.70936 0
M  V30 2957 H 279.555 0.976382 3.75617 0
M  V30 2958 H 277.656 -1.46704 3.42503 0
M  V30 2959 H 277.769 -0.166155 4.78812 0
M  V30 2960 H 276.133 -0.184973 2.54027 0
M  V30 2961 H 276.916 1.37256 3.14668 0
M  V30 2962 N 279.361 -1.56624 0.175154 0
M  V30 2963 C 280.324 -2.16934 -0.739738 0
M  V30 2964 C 281.324 -1.11842 -1.15533 0
M  V30 2965 O 282.514 -1.37335 -1.07167 0
M  V30 2966 C 279.646 -2.75531 -2.00738 0
M  V30 2967 H 280.839 -2.99131 -0.214639 0
M  V30 2968 H 278.392 -1.56123 -0.0744197 0
M  V30 2969 H 279.127 -1.97078 -2.57548 0
M  V30 2970 H 278.912 -3.52444 -1.71831 0
M  V30 2971 H 280.402 -3.21904 -2.66021 0
M  V30 2972 N 280.839 0.0985539 -1.57292 0
M  V30 2973 C 282.116 0.834155 -1.76921 0
M  V30 2974 C 282.496 1.97101 -0.755928 0
M  V30 2975 O 281.844 2.27474 0.216245 0
M  V30 2976 C 282.054 1.33194 -3.22584 0
M  V30 2977 C 283.402 1.77611 -3.85668 0
M  V30 2978 O 284.426 1.42825 -3.26312 0
M  V30 2979 O 283.285 2.4192 -4.90038 0
M  V30 2980 H 280.379 0.397628 -0.725135 0
M  V30 2981 H 282.925 0.0807044 -1.69508 0
M  V30 2982 H 281.697 0.517248 -3.87866 0
M  V30 2983 H 281.32 2.1475 -3.34616 0
M  V30 2984 N 282.317 1.53212 0.369288 0
M  V30 2985 C 283.28 1.7872 1.43498 0
M  V30 2986 C 284.28 0.657554 1.46741 0
M  V30 2987 O 285.47 0.925736 1.47566 0
M  V30 2988 C 282.602 1.90591 2.82645 0
M  V30 2989 H 283.795 2.73894 1.22156 0
M  V30 2990 H 281.348 1.44233 0.602203 0
M  V30 2991 H 282.083 0.974709 3.09306 0
M  V30 2992 H 281.868 2.72751 2.8169 0
M  V30 2993 H 283.358 2.11931 3.59826 0
M  V30 2994 N 283.795 -0.628877 1.44509 0
M  V30 2995 C 285.042 -1.38839 1.47411 0
M  V30 2996 C 285.37 -1.94202 0.10757 0
M  V30 2997 O 284.625 -1.74243 -0.890947 0
M  V30 2998 C 284.924 -2.56995 2.48371 0
M  V30 2999 C 284.59 -2.19908 3.93639 0
M  V30 3000 C 283.252 -2.09506 4.33198 0
M  V30 3001 C 285.604 -1.9064 4.85083 0
M  V30 3002 C 282.932 -1.68028 5.62124 0
M  V30 3003 C 285.284 -1.50655 6.14399 0
M  V30 3004 C 283.948 -1.38796 6.5291 0
M  V30 3005 H 283.218 -0.508048 0.539414 0
M  V30 3006 H 285.865 -0.712913 1.77735 0
M  V30 3007 H 284.17 -3.29786 2.11538 0
M  V30 3008 H 285.867 -3.15223 2.47861 0
M  V30 3009 H 282.457 -2.28922 3.62343 0
M  V30 3010 H 286.641 -1.97585 4.55273 0
M  V30 3011 H 281.897 -1.57452 5.90778 0
M  V30 3012 H 286.071 -1.27048 6.84713 0
M  V30 3013 H 283.698 -1.06429 7.52713 0
M  V30 3014 N 285.273 -1.31445 -0.869486 0
M  V30 3015 C 286.522 -1.20517 -1.61736 0
M  V30 3016 C 286.835 0.235341 -1.94179 0
M  V30 3017 O 288.041 0.466312 -2.67465 0
M  V30 3018 C 286.497 -2.10982 -2.91573 0
M  V30 3019 C 286.105 -3.60032 -2.66611 0
M  V30 3020 C 287.849 -2.08856 -3.69567 0
M  V30 3021 C 285.756 -4.42503 -3.92358 0
M  V30 3022 H 284.686 -0.447493 -0.606849 0
M  V30 3023 H 287.337 -1.56303 -0.96133 0
M  V30 3024 H 285.719 -1.68095 -3.58553 0
M  V30 3025 H 286.893 -4.11167 -2.08035 0
M  V30 3026 H 285.208 -3.64139 -2.0197 0
M  V30 3027 H 287.805 -2.67716 -4.62852 0
M  V30 3028 H 288.148 -1.07582 -4.02159 0
M  V30 3029 H 288.681 -2.49945 -3.09471 0
M  V30 3030 H 285.42 -5.44533 -3.64916 0
M  V30 3031 H 284.94 -3.96125 -4.50383 0
M  V30 3032 H 286.619 -4.54741 -4.60238 0
M  V30 3033 N 286.751 1.08385 -1.14413 0
M  V30 3034 C 287.999 1.80419 -0.910679 0
M  V30 3035 C 288.32 1.86658 0.564243 0
M  V30 3036 O 287.59 1.35985 1.41014 0
M  V30 3037 H 286.17 0.668204 -0.333934 0
M  V30 3038 H 288.832 1.31037 -1.44275 0
M  V30 3039 H 287.928 2.83238 -1.31082 0
M  V30 3040 N 288.23 0.939286 1.26551 0
M  V30 3041 C 289.477 0.585847 1.9384 0
M  V30 3042 C 289.805 -0.874784 1.73718 0
M  V30 3043 O 289.06 -1.64092 1.06642 0
M  V30 3044 C 289.359 0.872106 3.46596 0
M  V30 3045 C 289.025 2.31632 3.86856 0
M  V30 3046 C 287.687 2.71111 3.97558 0
M  V30 3047 C 290.039 3.25494 4.07066 0
M  V30 3048 C 287.367 4.03553 4.25866 0
M  V30 3049 C 289.719 4.57531 4.36862 0
M  V30 3050 C 288.383 4.96828 4.45778 0
M  V30 3051 H 287.653 0.214377 0.709312 0
M  V30 3052 H 290.3 1.18544 1.50398 0
M  V30 3053 H 288.605 0.18996 3.91339 0
M  V30 3054 H 290.302 0.577442 3.96821 0
M  V30 3055 H 286.892 2.00008 3.79071 0
M  V30 3056 H 291.076 2.9619 3.98227 0
M  V30 3057 H 286.332 4.33665 4.30981 0
M  V30 3058 H 290.506 5.30254 4.51446 0
M  V30 3059 H 288.133 5.99482 4.67468 0
M  V30 3060 N 289.708 -1.40897 0.706093 0
M  V30 3061 C 290.956 -2.00657 0.241054 0
M  V30 3062 C 291.277 -1.56241 -1.16678 0
M  V30 3063 O 290.547 -0.79765 -1.78926 0
M  V30 3064 H 289.127 -0.742018 0.0861308 0
M  V30 3065 H 291.789 -1.72372 0.909604 0
M  V30 3066 H 290.885 -3.10958 0.266705 0
M  V30 3067 N 291.186 -0.45159 -1.50991 0
M  V30 3068 C 292.434 0.109857 -2.01801 0
M  V30 3069 C 292.755 1.41958 -1.3369 0
M  V30 3070 O 292.025 1.9003 -0.475951 0
M  V30 3071 H 290.605 0.0435884 -0.745727 0
M  V30 3072 H 293.267 -0.597557 -1.85514 0
M  V30 3073 H 292.363 0.275489 -3.10882 0
M  V30 3074 N 292.664 1.56529 -0.183458 0
M  V30 3075 C 293.612 2.19873 0.758845 0
M  V30 3076 C 294.606 1.16638 1.22849 0
M  V30 3077 O 295.812 1.3481 1.19274 0
M  V30 3078 H 292.187 0.7045 0.263029 0
M  V30 3079 H 294.158 2.97724 0.200755 0
M  V30 3080 C 292.907 2.86314 1.9728 0
M  V30 3081 H 292.23 3.65487 1.62047 0
M  V30 3082 H 293.67 3.3409 2.61075 0
M  V30 3083 C 292.129 1.86729 2.80418 0
M  V30 3084 O 292.659 1.36031 3.77966 0
M  V30 3085 N 290.865 1.55216 2.45675 0
M  V30 3086 H 290.412 1.96636 1.66409 0
M  V30 3087 H 290.37 0.888388 3.01588 0
M  V30 3088 N 294.142 -0.090211 1.57342 0
M  V30 3089 C 295.388 -0.793982 1.86611 0
M  V30 3090 C 295.721 -1.78142 0.773252 0
M  V30 3091 O 294.996 -1.93271 -0.218304 0
M  V30 3092 C 295.279 -1.51839 3.26523 0
M  V30 3093 C 295.132 -0.548609 4.46442 0
M  V30 3094 C 296.451 -2.46779 3.64401 0
M  V30 3095 H 293.57 -0.287186 0.678744 0
M  V30 3096 H 296.212 -0.0575076 1.89913 0
M  V30 3097 H 294.362 -2.14617 3.23839 0
M  V30 3098 H 296.034 0.0725513 4.61243 0
M  V30 3099 H 294.277 0.137614 4.33582 0
M  V30 3100 H 294.948 -1.09271 5.41076 0
M  V30 3101 H 297.424 -1.94089 3.68061 0
M  V30 3102 H 296.3 -2.94479 4.63221 0
M  V30 3103 H 296.561 -3.30758 2.93346 0
M  V30 3104 N 295.62 -1.53406 -0.361157 0
M  V30 3105 C 296.869 -1.69022 -1.10066 0
M  V30 3106 C 297.182 -0.450838 -1.90333 0
M  V30 3107 O 298.388 -0.487617 -2.67085 0
M  V30 3108 C 296.844 -2.98812 -2.00598 0
M  V30 3109 C 296.452 -4.30027 -1.25621 0
M  V30 3110 C 298.196 -3.23795 -2.74513 0
M  V30 3111 C 296.103 -5.50903 -2.1508 0
M  V30 3112 H 295.033 -0.629776 -0.414606 0
M  V30 3113 H 297.684 -1.79907 -0.361348 0
M  V30 3114 H 296.066 -2.8174 -2.78278 0
M  V30 3115 H 297.24 -4.57745 -0.529739 0
M  V30 3116 H 295.555 -4.11522 -0.635496 0
M  V30 3117 H 298.152 -4.11289 -3.41681 0
M  V30 3118 H 298.495 -2.40045 -3.40123 0
M  V30 3119 H 299.028 -3.41561 -2.03914 0
M  V30 3120 H 295.767 -6.37143 -1.54041 0
M  V30 3121 H 295.287 -5.27459 -2.85565 0
M  V30 3122 H 296.966 -5.85865 -2.74538 0
M  V30 3123 N 297.098 0.621204 -1.44841 0
M  V30 3124 C 298.514 0.94048 -1.28946 0
M  V30 3125 C 298.714 2.00154 -0.23249 0
M  V30 3126 O 297.77 2.49651 0.378237 0
M  V30 3127 C 299.083 1.39433 -2.66419 0
M  V30 3128 C 300.631 1.50927 -2.74208 0
M  V30 3129 C 301.106 1.99692 -4.12174 0
M  V30 3130 N 302.597 2.06947 -4.144 0
M  V30 3131 C 303.332 2.45871 -5.1801 0
M  V30 3132 N 302.828 2.83862 -6.31977 0
M  V30 3133 N 304.621 2.46092 -5.05366 0
M  V30 3134 H 296.772 -0.0803548 -2.12248 0
M  V30 3135 H 299.035 0.0266913 -0.947624 0
M  V30 3136 H 298.741 0.688925 -3.44887 0
M  V30 3137 H 298.615 2.36347 -2.93973 0
M  V30 3138 H 301.002 2.20561 -1.96053 0
M  V30 3139 H 301.083 0.523627 -2.50383 0
M  V30 3140 H 300.727 1.30649 -4.90809 0
M  V30 3141 H 300.657 2.99146 -4.33381 0
M  V30 3142 H 303.148 1.80232 -3.32152 0
M  V30 3143 H 303.461 3.12405 -7.0684 0
M  V30 3144 H 301.806 2.8159 -6.35399 0
M  V30 3145 H 304.997 2.1581 -4.15384 0
M  V30 3146 H 305.17 2.76102 -5.86235 0
M  V30 3147 N 298.576 1.31904 0.862503 0
M  V30 3148 C 299.508 1.16005 1.97675 0
M  V30 3149 C 300.521 0.0971234 1.6251 0
M  V30 3150 O 301.71 0.345337 1.75128 0
M  V30 3151 C 298.81 0.751791 3.30456 0
M  V30 3152 C 297.983 1.90133 3.93914 0
M  V30 3153 C 297.042 1.4779 5.05019 0
M  V30 3154 O 296.068 2.18872 5.25437 0
M  V30 3155 N 297.27 0.369491 5.79323 0
M  V30 3156 H 300.035 2.11982 2.11857 0
M  V30 3157 H 297.596 1.24337 1.03691 0
M  V30 3158 H 299.588 0.451084 4.02178 0
M  V30 3159 H 298.158 -0.116593 3.12382 0
M  V30 3160 H 297.378 2.36896 3.15078 0
M  V30 3161 H 298.666 2.67111 4.33047 0
M  V30 3162 H 298.064 -0.222299 5.65263 0
M  V30 3163 H 296.621 0.128354 6.51674 0
M  V30 3164 N 300.054 -1.07777 1.14986 0
M  V30 3165 C 300.986 -2.14769 0.800436 0
M  V30 3166 C 301.999 -1.61739 -0.185595 0
M  V30 3167 O 303.188 -1.78462 0.0370358 0
M  V30 3168 C 300.288 -3.38481 0.168533 0
M  V30 3169 C 299.461 -4.20876 1.1909 0
M  V30 3170 C 298.52 -5.22976 0.581575 0
M  V30 3171 O 297.546 -5.55388 1.24633 0
M  V30 3172 N 298.748 -5.76976 -0.638706 0
M  V30 3173 H 301.513 -2.45348 1.72118 0
M  V30 3174 H 299.074 -1.23645 1.04515 0
M  V30 3175 H 301.066 -4.03916 -0.251764 0
M  V30 3176 H 299.636 -3.05651 -0.655467 0
M  V30 3177 H 298.856 -3.51322 1.78791 0
M  V30 3178 H 300.144 -4.7274 1.88133 0
M  V30 3179 H 299.542 -5.52886 -1.19723 0
M  V30 3180 H 298.099 -6.44061 -1.00142 0
M  V30 3181 N 301.532 -0.945985 -1.26051 0
M  V30 3182 C 302.778 -0.597002 -1.93814 0
M  V30 3183 C 303.111 0.862484 -1.73997 0
M  V30 3184 O 302.386 1.61769 -1.07986 0
M  V30 3185 C 302.669 -0.945937 -3.47454 0
M  V30 3186 C 302.522 -2.46052 -3.76535 0
M  V30 3187 C 303.841 -0.464785 -4.37639 0
M  V30 3188 H 300.96 -0.218366 -0.703907 0
M  V30 3189 H 303.602 -1.18107 -1.48831 0
M  V30 3190 H 301.752 -0.448902 -3.85898 0
M  V30 3191 H 303.424 -3.03065 -3.47778 0
M  V30 3192 H 301.667 -2.90194 -3.22444 0
M  V30 3193 H 302.338 -2.65517 -4.83947 0
M  V30 3194 H 304.814 -0.891016 -4.06448 0
M  V30 3195 H 303.69 -0.737712 -5.4392 0
M  V30 3196 H 303.951 0.635274 -4.37512 0
M  V30 3197 N 303.011 1.40521 -0.713556 0
M  V30 3198 C 303.958 2.30723 -0.059684 0
M  V30 3199 C 304.928 1.48079 0.752448 0
M  V30 3200 O 306.113 1.76823 0.71681 0
M  V30 3201 C 303.253 3.34274 0.857594 0
M  V30 3202 C 302.366 4.31986 0.0351536 0
M  V30 3203 C 301.501 5.22605 0.951724 0
M  V30 3204 C 300.54 6.11976 0.123253 0
M  V30 3205 N 299.677 6.9502 0.99459 0
M  V30 3206 H 304.517 2.86074 -0.834596 0
M  V30 3207 H 302.054 1.40879 -0.42326 0
M  V30 3208 H 304.012 3.92879 1.40364 0
M  V30 3209 H 302.642 2.8043 1.59871 0
M  V30 3210 H 301.694 3.7518 -0.628052 0
M  V30 3211 H 303.006 4.95101 -0.606347 0
M  V30 3212 H 302.16 5.86131 1.56638 0
M  V30 3213 H 300.899 4.59759 1.62705 0
M  V30 3214 H 299.904 5.47482 -0.50435 0
M  V30 3215 H 301.129 6.76881 -0.548539 0
M  V30 3216 H 299.075 6.34764 1.6556 0
M  V30 3217 H 298.992 7.54892 0.40908 0
M  V30 3218 H 300.26 7.62997 1.59549 0
M  V30 3219 N 304.489 0.459591 1.5075 0
M  V30 3220 C 305.766 -0.160371 1.94941 0
M  V30 3221 C 306.146 -1.58048 1.39943 0
M  V30 3222 O 305.494 -2.206 0.595629 0
M  V30 3223 C 305.704 -0.115432 3.48809 0
M  V30 3224 C 307.052 -0.310026 4.23467 0
M  V30 3225 O 308.076 -0.192543 3.55679 0
M  V30 3226 O 306.935 -0.546031 5.43765 0
M  V30 3227 H 304.029 -0.117925 0.818549 0
M  V30 3228 H 306.575 0.519169 1.61563 0
M  V30 3229 H 305.347 0.87652 3.81357 0
M  V30 3230 H 304.97 -0.836928 3.88692 0
M  V30 3231 N 305.967 -1.56429 0.191757 0
M  V30 3232 C 306.915 -2.20273 -0.747174 0
M  V30 3233 C 307.909 -1.17288 -1.22229 0
M  V30 3234 O 309.115 -1.35441 -1.18557 0
M  V30 3235 H 305.49 -0.705885 -0.259289 0
M  V30 3236 H 307.461 -2.97826 -0.184963 0
M  V30 3237 C 306.21 -2.87356 -1.95759 0
M  V30 3238 H 305.533 -3.66341 -1.60106 0
M  V30 3239 H 306.973 -3.3547 -2.59299 0
M  V30 3240 C 305.432 -1.88213 -2.79423 0
M  V30 3241 O 305.962 -1.38033 -3.7724 0
M  V30 3242 N 304.168 -1.56516 -2.44849 0
M  V30 3243 H 303.715 -1.97516 -1.65364 0
M  V30 3244 H 303.673 -0.904369 -3.01112 0
M  V30 3245 N 307.445 0.0818655 -1.57387 0
M  V30 3246 C 308.408 1.08265 -2.02018 0
M  V30 3247 C 309.408 1.32183 -0.915664 0
M  V30 3248 O 310.598 1.28073 -1.18081 0
M  V30 3249 C 307.73 2.42871 -2.39221 0
M  V30 3250 H 308.923 0.698204 -2.91659 0
M  V30 3251 H 306.476 0.327303 -1.52835 0
M  V30 3252 H 307.211 2.86167 -1.52575 0
M  V30 3253 H 306.996 2.26855 -3.19811 0
M  V30 3254 H 308.486 3.14826 -2.74362 0
M  V30 3255 N 308.923 1.53595 0.353017 0
M  V30 3256 C 309.87 1.80919 1.43308 0
M  V30 3257 C 310.84 0.654288 1.5267 0
M  V30 3258 O 312.025 0.897759 1.6836 0
M  V30 3259 C 309.165 2.01605 2.80089 0
M  V30 3260 C 308.278 3.29321 2.79593 0
M  V30 3261 C 307.413 3.40125 4.0803 0
M  V30 3262 C 306.452 4.61826 4.01725 0
M  V30 3263 N 305.589 4.69716 5.21834 0
M  V30 3264 H 310.429 2.73074 1.19308 0
M  V30 3265 H 307.966 1.35263 0.578131 0
M  V30 3266 H 309.924 2.11586 3.59565 0
M  V30 3267 H 308.554 1.12772 3.0246 0
M  V30 3268 H 307.606 3.28229 1.92276 0
M  V30 3269 H 308.918 4.18884 2.70809 0
M  V30 3270 H 308.072 3.49488 4.95927 0
M  V30 3271 H 306.811 2.48601 4.19582 0
M  V30 3272 H 305.816 4.52552 3.12213 0
M  V30 3273 H 307.041 5.54705 3.91764 0
M  V30 3274 H 304.987 3.81097 5.33948 0
M  V30 3275 H 304.904 5.53202 5.1527 0
M  V30 3276 H 306.172 4.83376 6.11529 0
M  V30 3277 N 310.401 -0.613514 1.45168 0
M  V30 3278 C 311.647 -1.37279 1.50087 0
M  V30 3279 C 312.002 -1.91902 0.138294 0
M  V30 3280 O 311.295 -1.71764 -0.84899 0
M  V30 3281 C 311.489 -2.54347 2.51083 0
M  V30 3282 C 311.318 -2.11186 3.97027 0
M  V30 3283 C 310.088 -1.97636 4.65046 0
M  V30 3284 C 312.286 -1.69016 4.85735 0
M  V30 3285 N 310.268 -1.48224 5.95737 0
M  V30 3286 C 311.639 -1.30976 6.06008 0
M  V30 3287 C 313.694 -1.56555 4.72647 0
M  V30 3288 C 312.397 -0.817197 7.14643 0
M  V30 3289 C 314.423 -1.08702 5.81324 0
M  V30 3290 C 313.785 -0.716233 7.00749 0
M  V30 3291 H 309.884 -0.496478 0.60418 0
M  V30 3292 H 312.468 -0.701988 1.81605 0
M  V30 3293 H 310.639 -3.19031 2.21527 0
M  V30 3294 H 312.371 -3.21208 2.46187 0
M  V30 3295 H 309.126 -2.18638 4.20112 0
M  V30 3296 H 309.55 -1.25767 6.65216 0
M  V30 3297 H 314.192 -1.83849 3.80736 0
M  V30 3298 H 311.91 -0.531797 8.06348 0
M  V30 3299 H 315.496 -0.994943 5.7323 0
M  V30 3300 H 314.376 -0.351642 7.83411 0
M  V30 3301 N 311.879 -1.3236 -0.855495 0
M  V30 3302 C 313.109 -1.25688 -1.6397 0
M  V30 3303 C 313.517 0.177592 -1.88365 0
M  V30 3304 O 312.86 1.12485 -1.45234 0
M  V30 3305 C 312.922 -1.94602 -3.02275 0
M  V30 3306 C 312.586 -3.43937 -3.00926 0
M  V30 3307 C 313.583 -4.39435 -2.77835 0
M  V30 3308 C 311.268 -3.85858 -3.21588 0
M  V30 3309 C 313.262 -5.74829 -2.75409 0
M  V30 3310 C 310.949 -5.21361 -3.18789 0
M  V30 3311 C 311.947 -6.15658 -2.95727 0
M  V30 3312 O 311.635 -7.48681 -2.928 0
M  V30 3313 H 311.367 -0.434972 -0.51747 0
M  V30 3314 H 313.921 -1.75023 -1.075 0
M  V30 3315 H 312.151 -1.39836 -3.60531 0
M  V30 3316 H 313.84 -1.81651 -3.62985 0
M  V30 3317 H 314.606 -4.08374 -2.6164 0
M  V30 3318 H 310.485 -3.12883 -3.38564 0
M  V30 3319 H 314.029 -6.48404 -2.57328 0
M  V30 3320 H 309.926 -5.52052 -3.34528 0
M  V30 3321 H 310.694 -7.5803 -3.0876 0
M  V30 3322 N 313.357 1.07166 -1.15556 0
M  V30 3323 C 314.606 1.79181 -0.926132 0
M  V30 3324 C 314.919 1.87768 0.547967 0
M  V30 3325 O 316.125 2.56323 0.895036 0
M  V30 3326 C 314.581 3.22 -1.60761 0
M  V30 3327 C 314.189 3.21607 -3.11886 0
M  V30 3328 C 315.933 3.9861 -1.4598 0
M  V30 3329 C 313.84 4.59092 -3.72812 0
M  V30 3330 H 312.77 0.67154 -0.342856 0
M  V30 3331 H 315.421 1.2027 -1.3859 0
M  V30 3332 H 313.803 3.81115 -1.07553 0
M  V30 3333 H 314.977 2.72127 -3.71865 0
M  V30 3334 H 313.292 2.58495 -3.2645 0
M  V30 3335 H 315.889 5.00225 -1.88888 0
M  V30 3336 H 316.232 4.143 -0.407541 0
M  V30 3337 H 316.765 3.45996 -1.96295 0
M  V30 3338 H 313.504 4.48606 -4.77946 0
M  V30 3339 H 313.024 5.08803 -3.17616 0
M  V30 3340 H 314.703 5.28059 -3.73848 0
M  V30 3341 N 314.835 0.952656 1.25548 0
M  V30 3342 C 316.063 0.623496 1.97282 0
M  V30 3343 C 316.478 -0.803987 1.70826 0
M  V30 3344 O 315.835 -1.53755 0.983147 0
M  V30 3345 C 315.886 0.870209 3.5087 0
M  V30 3346 O 315.607 2.24156 3.76412 0
M  V30 3347 C 317.108 0.553164 4.39835 0
M  V30 3348 H 314.328 0.233931 0.628902 0
M  V30 3349 H 316.872 1.27649 1.59768 0
M  V30 3350 H 315.027 0.263652 3.86502 0
M  V30 3351 H 315.441 2.31021 4.70882 0
M  V30 3352 H 316.915 0.776342 5.46513 0
M  V30 3353 H 317.392 -0.512215 4.36203 0
M  V30 3354 H 317.998 1.13896 4.09766 0
M  V30 3355 N 316.313 -1.40141 0.720998 0
M  V30 3356 C 317.59 -1.94677 0.189757 0
M  V30 3357 C 317.97 -1.65879 -1.30566 0
M  V30 3358 O 317.318 -0.979391 -2.06447 0
M  V30 3359 C 317.528 -3.45279 0.508304 0
M  V30 3360 C 318.876 -4.22209 0.449934 0
M  V30 3361 O 319.9 -3.53413 0.444677 0
M  V30 3362 O 318.759 -5.44788 0.432189 0
M  V30 3363 H 315.853 -0.826459 0.0299026 0
M  V30 3364 H 318.399 -1.49719 0.7989 0
M  V30 3365 H 317.171 -3.59619 1.54239 0
M  V30 3366 H 316.794 -3.97386 -0.130525 0
M  V30 3367 N 317.792 -0.46758 -1.50504 0
M  V30 3368 C 319.039 0.0886219 -2.02306 0
M  V30 3369 C 319.367 1.40037 -1.34981 0
M  V30 3370 O 318.622 1.90136 -0.463318 0
M  V30 3371 C 318.921 0.323995 -3.55928 0
M  V30 3372 C 318.587 -0.905618 -4.41712 0
M  V30 3373 C 317.249 -1.24275 -4.64875 0
M  V30 3374 C 319.601 -1.72448 -4.91845 0
M  V30 3375 C 316.929 -2.39888 -5.35417 0
M  V30 3376 C 319.281 -2.87185 -5.63656 0
M  V30 3377 C 317.945 -3.21317 -5.85074 0
M  V30 3378 H 317.215 0.0324291 -0.74029 0
M  V30 3379 H 319.862 -0.620945 -1.81153 0
M  V30 3380 H 318.167 1.11577 -3.75577 0
M  V30 3381 H 319.864 0.76826 -3.93572 0
M  V30 3382 H 316.454 -0.632956 -4.239 0
M  V30 3383 H 320.638 -1.4772 -4.73806 0
M  V30 3384 H 315.894 -2.66611 -5.50208 0
M  V30 3385 H 320.068 -3.50985 -6.01484 0
M  V30 3386 H 317.695 -4.1101 -6.39511 0
M  V30 3387 N 319.27 1.56325 -0.20005 0
M  V30 3388 C 320.516 1.98012 0.438059 0
M  V30 3389 C 320.849 1.08702 1.60927 0
M  V30 3390 O 320.124 0.140064 1.93995 0
M  V30 3391 C 320.407 3.48841 0.893419 0
M  V30 3392 C 320.26 4.48928 -0.279947 0
M  V30 3393 C 321.579 4.03498 1.75719 0
M  V30 3394 H 318.698 0.719918 0.157757 0
M  V30 3395 H 321.34 1.87743 -0.291968 0
M  V30 3396 H 319.49 3.57723 1.51547 0
M  V30 3397 H 321.162 4.52079 -0.91772 0
M  V30 3398 H 319.405 4.23694 -0.930919 0
M  V30 3399 H 320.076 5.5194 0.0812601 0
M  V30 3400 H 322.552 3.97427 1.23253 0
M  V30 3401 H 321.428 5.09393 2.04476 0
M  V30 3402 H 321.689 3.4906 2.71311 0
M  V30 3403 N 320.748 -0.0735177 1.57428 0
M  V30 3404 C 321.658 -1.10547 2.06922 0
M  V30 3405 C 322.674 -1.42506 0.998402 0
M  V30 3406 O 323.85 -1.52717 1.31299 0
M  V30 3407 C 320.915 -2.40019 2.50184 0
M  V30 3408 C 319.976 -2.15046 3.71556 0
M  V30 3409 C 319.209 -3.38345 4.12745 0
M  V30 3410 O 319.432 -4.47399 3.53822 0
M  V30 3411 O 318.366 -3.2666 5.05546 0
M  V30 3412 H 322.192 -0.715013 2.95163 0
M  V30 3413 H 319.777 -0.287531 1.46607 0
M  V30 3414 H 321.659 -3.16218 2.78539 0
M  V30 3415 H 320.334 -2.78447 1.65072 0
M  V30 3416 H 319.241 -1.36558 3.48285 0
M  V30 3417 H 320.574 -1.81499 4.57514 0
M  V30 3418 N 322.226 -1.5378 -0.344866 0
M  V30 3419 C 323.156 -1.84662 -1.42906 0
M  V30 3420 C 324.137 -0.701648 -1.54955 0
M  V30 3421 O 325.322 -0.953438 -1.69184 0
M  V30 3422 C 322.452 -2.05503 -2.79974 0
M  V30 3423 C 321.406 -3.21318 -2.82734 0
M  V30 3424 C 320.732 -3.2749 -4.22675 0
M  V30 3425 C 322.032 -4.59456 -2.48389 0
M  V30 3426 H 323.726 -2.75461 -1.17311 0
M  V30 3427 H 321.272 -1.32542 -0.562896 0
M  V30 3428 H 323.225 -2.25691 -3.55867 0
M  V30 3429 H 321.949 -1.11434 -3.07002 0
M  V30 3430 H 320.608 -3.00984 -2.09294 0
M  V30 3431 H 320.256 -2.31019 -4.4681 0
M  V30 3432 H 319.956 -4.05316 -4.25433 0
M  V30 3433 H 321.48 -3.49887 -5.00412 0
M  V30 3434 H 322.894 -4.79667 -3.13995 0
M  V30 3435 H 321.291 -5.39675 -2.62432 0
M  V30 3436 H 322.361 -4.63155 -1.4358 0
M  V30 3437 N 323.704 0.605807 -1.45491 0
M  V30 3438 C 324.634 1.72709 -1.57143 0
M  V30 3439 C 325.615 1.6476 -0.422884 0
M  V30 3440 O 326.8 1.83132 -0.646247 0
M  V30 3441 C 323.93 3.11316 -1.53948 0
M  V30 3442 C 322.884 3.34077 -2.67537 0
M  V30 3443 C 322.21 4.72975 -2.49397 0
M  V30 3444 C 323.51 3.24158 -4.09535 0
M  V30 3445 H 325.204 1.63214 -2.51001 0
M  V30 3446 H 322.75 0.78379 -1.208 0
M  V30 3447 H 324.703 3.89557 -1.60696 0
M  V30 3448 H 323.427 3.21655 -0.566205 0
M  V30 3449 H 322.086 2.58227 -2.6022 0
M  V30 3450 H 321.734 4.8005 -1.50205 0
M  V30 3451 H 321.434 4.8916 -3.25571 0
M  V30 3452 H 322.958 5.53414 -2.58002 0
M  V30 3453 H 324.372 3.92271 -4.18086 0
M  V30 3454 H 322.769 3.51872 -4.86113 0
M  V30 3455 H 323.839 2.2157 -4.31317 0
M  V30 3456 N 325.182 1.32811 0.848464 0
M  V30 3457 C 326.43 1.23479 1.59991 0
M  V30 3458 C 326.751 -0.201853 1.93952 0
M  V30 3459 O 326.021 -1.12818 1.60153 0
M  V30 3460 H 324.601 0.454034 0.593179 0
M  V30 3461 H 327.263 1.66412 1.01455 0
M  V30 3462 H 326.359 1.82178 2.53412 0
M  V30 3463 N 326.66 -1.06551 1.16123 0
M  V30 3464 C 327.57 -2.17484 0.879662 0
M  V30 3465 C 328.586 -1.73377 -0.147104 0
M  V30 3466 O 329.762 -2.01379 0.0289128 0
M  V30 3467 C 326.827 -3.44591 0.381829 0
M  V30 3468 C 325.888 -4.0322 1.4735 0
M  V30 3469 C 325.121 -5.24261 0.999324 0
M  V30 3470 O 325.344 -5.70198 -0.151957 0
M  V30 3471 O 324.278 -5.74775 1.78653 0
M  V30 3472 H 328.104 -2.44075 1.80724 0
M  V30 3473 H 325.689 -1.16042 0.940992 0
M  V30 3474 H 327.571 -4.21254 0.111053 0
M  V30 3475 H 326.246 -3.19532 -0.51777 0
M  V30 3476 H 325.153 -3.2806 1.79798 0
M  V30 3477 H 326.486 -4.32568 2.34831 0
M  V30 3478 N 328.138 -0.959301 -1.25041 0
M  V30 3479 C 329.068 -0.501388 -2.28053 0
M  V30 3480 C 330.049 0.454673 -1.63911 0
M  V30 3481 O 331.234 0.352618 -1.90972 0
M  V30 3482 C 328.364 0.217224 -3.4662 0
M  V30 3483 C 327.318 -0.654034 -4.22973 0
M  V30 3484 C 326.644 0.195589 -5.34342 0
M  V30 3485 C 327.944 -1.93447 -4.85155 0
M  V30 3486 H 329.638 -1.36238 -2.66608 0
M  V30 3487 H 327.184 -0.656534 -1.28163 0
M  V30 3488 H 329.137 0.548732 -4.17812 0
M  V30 3489 H 327.861 1.1125 -3.07068 0
M  V30 3490 H 326.52 -0.968693 -3.5357 0
M  V30 3491 H 326.168 1.09076 -4.91031 0
M  V30 3492 H 325.868 -0.384091 -5.86343 0
M  V30 3493 H 327.392 0.521958 -6.08365 0
M  V30 3494 H 328.806 -1.66908 -5.48466 0
M  V30 3495 H 327.203 -2.46018 -5.47353 0
M  V30 3496 H 328.273 -2.63466 -4.07079 0
M  V30 3497 N 329.616 1.39756 -0.72842 0
M  V30 3498 C 330.526 2.34444 -0.0855374 0
M  V30 3499 C 331.542 1.57976 0.729356 0
M  V30 3500 O 332.718 1.90301 0.659346 0
M  V30 3501 C 329.783 3.36965 0.815798 0
M  V30 3502 C 328.844 4.29299 -0.0105996 0
M  V30 3503 C 328.077 5.26923 0.84781 0
M  V30 3504 O 328.3 5.30859 2.08673 0
M  V30 3505 O 327.234 6.01249 0.279969 0
M  V30 3506 H 331.06 2.91065 -0.866892 0
M  V30 3507 H 328.645 1.4117 -0.48902 0
M  V30 3508 H 330.527 3.99804 1.33171 0
M  V30 3509 H 329.202 2.82739 1.57608 0
M  V30 3510 H 328.109 3.69703 -0.571877 0
M  V30 3511 H 329.442 4.86712 -0.73295 0
M  V30 3512 N 331.094 0.475555 1.50254 0
M  V30 3513 C 332.004 -0.321501 2.32387 0
M  V30 3514 C 333.02 -0.991755 1.42969 0
M  V30 3515 O 334.196 -0.978747 1.76018 0
M  V30 3516 C 331.261 -1.38667 3.17762 0
M  V30 3517 C 330.322 -0.732538 4.23004 0
M  V30 3518 C 329.555 -1.74695 5.04299 0
M  V30 3519 O 329.778 -2.97399 4.86734 0
M  V30 3520 O 328.712 -1.31631 5.8733 0
M  V30 3521 H 332.538 0.350071 3.01676 0
M  V30 3522 H 330.123 0.237321 1.47503 0
M  V30 3523 H 332.005 -2.00354 3.70724 0
M  V30 3524 H 330.68 -2.04163 2.51196 0
M  V30 3525 H 329.587 -0.0765902 3.74022 0
M  V30 3526 H 330.92 -0.120452 4.92053 0
M  V30 3527 O 332.611 -1.57666 0.349795 0
M  V30 3528 H 333.302 -1.92619 -0.204318 0
M  V30 END ATOM
M  V30 BEGIN BOND
M  V30 END BOND
M  V30 END CTAB
M  END
$$$$
