drugbank_target|P09172 Dopamine beta-hydroxylase (DB00126; DB00822; DB00988)
 OpenBabel12092119253D

  0  0  0     0  0            999 V3000
M  V30 BEGIN CTAB
M  V30 COUNTS 9642 9777 0 0 0
M  V30 BEGIN ATOM
M  V30 1 H -0.908 1.98254 -0.117106 0
M  V30 2 N 0 1.576 0 0
M  V30 3 C 0.933 2.03868 1.02534 0
M  V30 4 C 1.911 0.928543 1.3348 0
M  V30 5 O 3.095 1.19667 1.45644 0
M  V30 6 C 0.222 2.43627 2.35294 0
M  V30 7 C -0.732 3.65373 2.2001 0
M  V30 8 S 0.101 5.13292 1.52614 0
M  V30 9 C 1.257 5.56322 2.86805 0
M  V30 10 H 1.49 2.90518 0.631377 0
M  V30 11 H -0.977 1.52953 0.210867 0
M  V30 12 H 0.981 2.67203 3.11629 0
M  V30 13 H -0.358 1.57376 2.7183 0
M  V30 14 H -1.165 3.90944 3.18086 0
M  V30 15 H -1.563 3.418 1.51819 0
M  V30 16 H 0.729 5.58782 3.83104 0
M  V30 17 H 1.672 6.56266 2.65933 0
M  V30 18 H 2.08 4.83886 2.90714 0
M  V30 19 N 1.4781 -0.272755 1.55222 0
M  V30 20 C 2.8891 -0.84378 1.66545 0
M  V30 21 C 3.2401 -1.87035 0.592641 0
M  V30 22 O 2.3651 -2.14761 -0.265818 0
M  V30 23 C 2.9601 -1.53723 3.01918 0
M  V30 24 C 1.5191 -2.05628 3.15268 0
M  V30 25 C 0.6661 -0.898424 2.62343 0
M  V30 26 H 3.6171 -0.0490998 1.58624 0
M  V30 27 H 3.6381 -2.40421 2.94921 0
M  V30 28 H 3.1501 -0.78983 3.79978 0
M  V30 29 H 1.2511 -2.83329 2.41983 0
M  V30 30 H 1.3641 -2.27142 4.21833 0
M  V30 31 H -0.2719 -1.29186 2.19506 0
M  V30 32 H 0.5111 -0.164528 3.42906 0
M  V30 33 N 2.9562 -1.48159 -0.537278 0
M  V30 34 C 3.9192 -1.61665 -1.62472 0
M  V30 35 C 4.9192 -0.490395 -1.5314 0
M  V30 36 O 6.1092 -0.755998 -1.5694 0
M  V30 37 C 3.2412 -1.57997 -3.02076 0
M  V30 38 H 4.4342 -2.58621 -1.51839 0
M  V30 39 H 1.9872 -1.36647 -0.758771 0
M  V30 40 H 2.7222 -0.624913 -3.18222 0
M  V30 41 H 2.5072 -2.39755 -3.10258 0
M  V30 42 H 3.9972 -1.70627 -3.81151 0
M  V30 43 N 4.4343 0.785586 -1.36625 0
M  V30 44 C 5.3643 1.91259 -1.33949 0
M  V30 45 C 6.3453 1.68795 -0.210325 0
M  V30 46 O 7.5303 1.89854 -0.408561 0
M  V30 47 C 4.6603 3.28339 -1.13186 0
M  V30 48 C 3.6143 3.65335 -2.22967 0
M  V30 49 C 2.9403 5.00806 -1.87342 0
M  V30 50 C 4.2403 3.7352 -3.65075 0
M  V30 51 H 5.9343 1.93755 -2.28253 0
M  V30 52 H 3.4803 0.930788 -1.09874 0
M  V30 53 H 5.4333 4.06804 -1.09948 0
M  V30 54 H 4.1573 3.2624 -0.153332 0
M  V30 55 H 2.8163 2.89169 -2.25337 0
M  V30 56 H 2.4643 4.95233 -0.880545 0
M  V30 57 H 2.1643 5.26529 -2.60846 0
M  V30 58 H 3.6883 5.81687 -1.85667 0
M  V30 59 H 5.1023 4.42168 -3.64911 0
M  V30 60 H 3.4993 4.10731 -4.37516 0
M  V30 61 H 4.5693 2.74527 -3.99703 0
M  V30 62 N 5.9124 1.20967 1.01018 0
M  V30 63 C 7.1374 1.0503 1.78839 0
M  V30 64 C 7.5624 -0.395752 1.8389 0
M  V30 65 O 6.9204 -1.28529 1.27867 0
M  V30 66 C 6.9684 1.64602 3.2084 0
M  V30 67 O 6.0724 0.887988 4.02726 0
M  V30 68 H 5.4134 0.369987 0.551367 0
M  V30 69 H 7.9434 1.60399 1.27018 0
M  V30 70 H 7.9534 1.68607 3.71532 0
M  V30 71 H 6.6284 2.69841 3.16479 0
M  V30 72 H 5.2054 0.922648 3.61305 0
M  V30 73 N 7.3905 -1.2043 1.01659 0
M  V30 74 C 8.8065 -1.41852 0.731442 0
M  V30 75 C 9.0065 -1.89358 -0.688898 0
M  V30 76 O 8.0625 -2.06247 -1.45666 0
M  V30 77 C 9.3755 -2.44019 1.75714 0
M  V30 78 C 10.9235 -2.57785 1.77527 0
M  V30 79 C 11.3985 -3.63194 2.79023 0
M  V30 80 N 12.8895 -3.70678 2.77763 0
M  V30 81 C 13.6245 -4.51897 3.52954 0
M  V30 82 N 13.1205 -5.36921 4.37821 0
M  V30 83 N 14.9135 -4.4643 3.41551 0
M  V30 84 H 7.0645 -0.879093 1.93354 0
M  V30 85 H 9.3275 -0.448425 0.835236 0
M  V30 86 H 9.0335 -2.1611 2.77469 0
M  V30 87 H 8.9075 -3.43007 1.56927 0
M  V30 88 H 11.2945 -2.85023 0.764569 0
M  V30 89 H 11.3755 -1.58992 2.00387 0
M  V30 90 H 11.0195 -3.36699 3.80258 0
M  V30 91 H 10.9495 -4.61609 2.53425 0
M  V30 92 H 13.4405 -3.09944 2.16201 0
M  V30 93 H 13.7535 -5.95981 4.91962 0
M  V30 94 H 12.0985 -5.36424 4.41899 0
M  V30 95 H 15.2895 -3.79042 2.74672 0
M  V30 96 H 15.4625 -5.09491 4.00404 0
M  V30 97 N 8.8686 -0.792821 -1.36206 0
M  V30 98 C 10.1146 -0.376415 -1.99887 0
M  V30 99 C 10.4696 1.04127 -1.61788 0
M  V30 100 O 9.7626 1.71004 -0.864193 0
M  V30 101 C 9.9566 -0.481501 -3.54142 0
M  V30 102 C 9.7856 -1.90786 -4.07223 0
M  V30 103 C 8.5556 -2.53322 -4.37214 0
M  V30 104 C 10.7536 -2.87048 -4.26741 0
M  V30 105 N 8.7356 -3.8751 -4.7614 0
M  V30 106 C 10.1066 -4.06077 -4.6851 0
M  V30 107 C 12.1616 -2.8406 -4.08918 0
M  V30 108 C 10.8646 -5.22532 -4.94321 0
M  V30 109 C 12.8906 -3.99705 -4.35878 0
M  V30 110 C 12.2526 -5.1748 -4.77906 0
M  V30 111 H 8.3516 -0.185226 -0.759747 0
M  V30 112 H 10.9356 -1.03114 -1.65153 0
M  V30 113 H 9.1066 0.143154 -3.88136 0
M  V30 114 H 10.8386 -0.0410128 -4.04679 0
M  V30 115 H 7.5936 -2.04777 -4.2704 0
M  V30 116 H 8.0176 -4.5656 -4.99882 0
M  V30 117 H 12.6596 -1.94165 -3.75579 0
M  V30 118 H 10.3776 -6.1301 -5.2654 0
M  V30 119 H 13.9636 -3.98758 -4.23655 0
M  V30 120 H 12.8436 -6.05478 -4.98363 0
M  V30 121 N 10.3467 1.47872 -0.545128 0
M  V30 122 C 11.3097 2.28337 0.198717 0
M  V30 123 C 12.3097 1.36255 0.853888 0
M  V30 124 O 13.4997 1.59003 0.711606 0
M  V30 125 C 10.6317 3.15585 1.28915 0
M  V30 126 H 11.8247 2.95567 -0.507941 0
M  V30 127 H 9.3777 1.53362 -0.301616 0
M  V30 128 H 10.1127 2.53019 2.02859 0
M  V30 129 H 9.8977 3.83337 0.824309 0
M  V30 130 H 11.3877 3.76243 1.81194 0
M  V30 131 N 11.8248 0.280983 1.55075 0
M  V30 132 C 13.0498 -0.340154 2.04592 0
M  V30 133 C 13.4748 -1.48246 1.15779 0
M  V30 134 O 12.8328 -1.80614 0.15761 0
M  V30 135 C 12.8808 -0.793104 3.5177 0
M  V30 136 O 11.9848 -1.89981 3.66034 0
M  V30 137 H 11.3258 -0.0694289 0.66036 0
M  V30 138 H 13.8558 0.416993 2.00306 0
M  V30 139 H 13.8658 -1.08729 3.93245 0
M  V30 140 H 12.5408 0.0426163 4.15878 0
M  V30 141 H 11.1178 -1.60771 3.36463 0
M  V30 142 N 13.3029 -1.57598 0.00835791 0
M  V30 143 C 14.2329 -2.1198 -0.979113 0
M  V30 144 C 15.2139 -1.03091 -1.35301 0
M  V30 145 O 16.3989 -1.30818 -1.43528 0
M  V30 146 C 13.5289 -2.62995 -2.26828 0
M  V30 147 C 12.4829 -3.76485 -2.03576 0
M  V30 148 C 11.8089 -4.13846 -3.38579 0
M  V30 149 C 13.1089 -5.0342 -1.39161 0
M  V30 150 H 14.8029 -2.94738 -0.526281 0
M  V30 151 H 12.3489 -1.41783 -0.251704 0
M  V30 152 H 14.3019 -2.99669 -2.96271 0
M  V30 153 H 13.0259 -1.7737 -2.7424 0
M  V30 154 H 11.6849 -3.40217 -1.36557 0
M  V30 155 H 11.3329 -3.25232 -3.83709 0
M  V30 156 H 11.0329 -4.90312 -3.23834 0
M  V30 157 H 12.5569 -4.53086 -4.09323 0
M  V30 158 H 13.9709 -5.37812 -1.98573 0
M  V30 159 H 12.3679 -5.84746 -1.34878 0
M  V30 160 H 13.4379 -4.83548 -0.361868 0
M  V30 161 N 14.781 0.264519 -1.55364 0
M  V30 162 C 16.192 0.834936 -1.6699 0
M  V30 163 C 16.543 1.86718 -0.602552 0
M  V30 164 O 15.668 2.14899 0.254425 0
M  V30 165 C 16.263 1.5212 -3.02729 0
M  V30 166 C 14.822 2.03954 -3.16354 0
M  V30 167 C 13.969 0.884498 -2.62815 0
M  V30 168 H 16.92 0.0406869 -1.58648 0
M  V30 169 H 16.941 2.38853 -2.96191 0
M  V30 170 H 16.453 0.769668 -3.80392 0
M  V30 171 H 14.554 2.82041 -2.43482 0
M  V30 172 H 14.667 2.24902 -4.23032 0
M  V30 173 H 13.031 1.2802 -2.20188 0
M  V30 174 H 13.814 0.14634 -3.42988 0
M  V30 175 N 16.2591 1.48442 0.529413 0
M  V30 176 C 17.5071 1.56179 1.28267 0
M  V30 177 C 17.8281 0.237721 1.93546 0
M  V30 178 O 17.0981 -0.740779 1.81354 0
M  V30 179 H 15.6781 0.575367 0.476405 0
M  V30 180 H 18.3401 1.84909 0.61602 0
M  V30 181 H 17.4361 2.34312 2.06165 0
M  V30 182 N 17.7372 -0.778329 1.37039 0
M  V30 183 C 19.1482 -1.35421 1.28523 0
M  V30 184 C 19.4992 -1.96075 -0.0700901 0
M  V30 185 O 18.6242 -1.93352 -0.971801 0
M  V30 186 C 19.2192 -2.46211 2.32735 0
M  V30 187 C 17.7782 -2.99585 2.27873 0
M  V30 188 C 16.9252 -1.72748 2.16918 0
M  V30 189 H 19.8762 -0.5791 1.47757 0
M  V30 190 H 19.8972 -3.2552 1.9702 0
M  V30 191 H 19.4092 -2.02036 3.31365 0
M  V30 192 H 17.5102 -3.48152 1.32745 0
M  V30 193 H 17.6232 -3.55646 3.21018 0
M  V30 194 H 15.9872 -1.95416 1.63354 0
M  V30 195 H 16.7702 -1.30686 3.17452 0
M  V30 196 N 19.2153 -1.21501 -1.00376 0
M  V30 197 C 20.4403 -1.05977 -1.78279 0
M  V30 198 C 20.8653 0.385994 -1.84097 0
M  V30 199 O 20.2233 1.27849 -1.28547 0
M  V30 200 C 20.2713 -1.66302 -3.19963 0
M  V30 201 O 19.3753 -0.909333 -4.0225 0
M  V30 202 H 18.7163 -0.372906 -0.549397 0
M  V30 203 H 21.2463 -1.6107 -1.26165 0
M  V30 204 H 21.2563 -1.70574 -3.70632 0
M  V30 205 H 19.9313 -2.71515 -3.15043 0
M  V30 206 H 18.5083 -0.941795 -3.60811 0
M  V30 207 N 20.6934 1.19889 -1.02296 0
M  V30 208 C 21.6264 2.21639 -0.543282 0
M  V30 209 C 22.6044 1.57275 0.412698 0
M  V30 210 O 23.7884 1.85568 0.331198 0
M  V30 211 C 20.9154 3.38057 0.208571 0
M  V30 212 C 19.9614 4.20751 -0.697933 0
M  V30 213 S 20.7944 4.89529 -2.17075 0
M  V30 214 C 21.9504 6.09363 -1.42923 0
M  V30 215 H 22.1834 2.61984 -1.40541 0
M  V30 216 H 19.7164 1.30041 -0.832387 0
M  V30 217 H 21.6744 4.05539 0.63624 0
M  V30 218 H 20.3354 2.96159 1.04635 0
M  V30 219 H 19.5284 5.03862 -0.117831 0
M  V30 220 H 19.1304 3.58556 -1.06366 0
M  V30 221 H 21.4224 6.73742 -0.712637 0
M  V30 222 H 22.3654 6.71845 -2.23673 0
M  V30 223 H 22.7734 5.56798 -0.929327 0
M  V30 224 N 22.1715 0.800033 1.35784 0
M  V30 225 C 23.5875 0.482977 1.52117 0
M  V30 226 C 23.7875 -0.996948 1.75109 0
M  V30 227 O 22.8435 -1.78216 1.78872 0
M  V30 228 C 24.1565 1.32264 2.70049 0
M  V30 229 C 25.7045 1.31742 2.83924 0
M  V30 230 C 26.1795 2.14106 4.04874 0
M  V30 231 N 27.6705 2.11607 4.12039 0
M  V30 232 C 28.4055 2.72099 5.04727 0
M  V30 233 N 27.9015 3.41492 6.02789 0
M  V30 234 N 29.6945 2.61776 4.97423 0
M  V30 235 H 21.8455 1.75856 1.19115 0
M  V30 236 H 24.1085 0.748122 0.582252 0
M  V30 237 H 23.8145 2.37261 2.59616 0
M  V30 238 H 23.6885 0.971303 3.6448 0
M  V30 239 H 26.0755 0.275333 2.93813 0
M  V30 240 H 26.1565 1.70859 1.9037 0
M  V30 241 H 25.8005 3.18351 3.95746 0
M  V30 242 H 25.7305 1.72353 4.97596 0
M  V30 243 H 28.2215 1.61112 3.41835 0
M  V30 244 H 28.5345 3.84953 6.70098 0
M  V30 245 H 26.8795 3.45596 6.02983 0
M  V30 246 H 30.0705 2.07157 4.19766 0
M  V30 247 H 30.2435 3.0921 5.69468 0
M  V30 248 N 23.6496 -1.47581 0.552962 0
M  V30 249 C 24.5596 -2.33743 -0.200353 0
M  V30 250 C 25.5756 -1.47928 -0.916151 0
M  V30 251 O 26.7516 -1.80865 -0.885993 0
M  V30 252 C 23.8166 -3.24536 -1.21973 0
M  V30 253 C 22.8776 -4.26238 -0.511819 0
M  V30 254 C 22.1106 -5.12693 -1.48263 0
M  V30 255 O 22.3336 -5.01525 -2.71714 0
M  V30 256 O 21.2676 -5.93375 -1.00945 0
M  V30 257 H 25.0936 -2.9945 0.506304 0
M  V30 258 H 22.6786 -1.46071 0.313622 0
M  V30 259 H 24.5606 -3.80631 -1.80827 0
M  V30 260 H 23.2356 -2.61462 -1.90839 0
M  V30 261 H 22.1426 -3.73914 0.117799 0
M  V30 262 H 23.4756 -4.92014 0.135308 0
M  V30 263 N 25.1277 -0.289203 -1.54924 0
M  V30 264 C 26.0907 0.579144 -2.21762 0
M  V30 265 C 27.0907 1.07047 -1.1999 0
M  V30 266 O 28.2807 0.968384 -1.44803 0
M  V30 267 C 25.4127 1.80055 -2.8947 0
M  V30 268 H 26.6057 -0.00464908 -2.999 0
M  V30 269 H 24.1587 -0.0399306 -1.56249 0
M  V30 270 H 24.8937 2.42449 -2.15381 0
M  V30 271 H 24.6787 1.45602 -3.64064 0
M  V30 272 H 26.1687 2.41773 -3.40493 0
M  V30 273 N 26.6058 1.57591 -0.0167156 0
M  V30 274 C 27.5688 2.08393 0.954204 0
M  V30 275 C 28.5688 0.996531 1.26198 0
M  V30 276 O 29.7588 1.25858 1.20438 0
M  V30 277 C 26.8908 2.5394 2.27436 0
M  V30 278 H 28.0838 2.95455 0.514451 0
M  V30 279 H 25.6368 1.54582 0.231089 0
M  V30 280 H 26.3718 1.70171 2.76066 0
M  V30 281 H 26.1568 3.33371 2.06412 0
M  V30 282 H 27.6468 2.93512 2.97053 0
M  V30 283 N 28.0839 -0.256276 1.55502 0
M  V30 284 C 29.3309 -0.985619 1.76895 0
M  V30 285 C 29.6589 -1.85671 0.579355 0
M  V30 286 O 28.9139 -1.90744 -0.437651 0
M  V30 287 C 29.2129 -1.88432 3.03691 0
M  V30 288 C 28.8789 -1.16936 4.35473 0
M  V30 289 C 27.5409 -0.97173 4.71286 0
M  V30 290 C 29.8929 -0.661889 5.1698 0
M  V30 291 C 27.2209 -0.254179 5.86149 0
M  V30 292 C 29.5729 0.042149 6.32586 0
M  V30 293 C 28.2369 0.25134 6.67027 0
M  V30 294 H 27.5069 -0.360663 0.647304 0
M  V30 295 H 30.1539 -0.256483 1.89775 0
M  V30 296 H 28.4589 -2.68021 2.85783 0
M  V30 297 H 30.1559 -2.45015 3.1744 0
M  V30 298 H 26.7459 -1.33332 4.07333 0
M  V30 299 H 30.9299 -0.802145 4.89775 0
M  V30 300 H 26.1859 -0.0815408 6.11346 0
M  V30 301 H 30.3599 0.443049 6.94989 0
M  V30 302 H 27.9869 0.809314 7.5588 0
M  V30 303 N 29.562 -1.4872 -0.521534 0
M  V30 304 C 30.495 -1.58451 -1.64221 0
M  V30 305 C 31.473 -0.434513 -1.56687 0
M  V30 306 O 32.657 -0.647275 -1.77038 0
M  V30 307 C 29.784 -1.52037 -3.02659 0
M  V30 308 C 28.83 -2.71981 -3.28525 0
M  V30 309 S 29.663 -4.33869 -3.13876 0
M  V30 310 C 30.819 -4.30067 -4.54745 0
M  V30 311 H 31.052 -2.53256 -1.55719 0
M  V30 312 H 28.585 -1.37358 -0.705143 0
M  V30 313 H 30.543 -1.49023 -3.82495 0
M  V30 314 H 29.204 -0.585541 -3.08594 0
M  V30 315 H 28.397 -2.63656 -4.29536 0
M  V30 316 H 27.999 -2.72302 -2.56374 0
M  V30 317 H 30.291 -4.00521 -5.46433 0
M  V30 318 H 31.234 -5.31287 -4.68123 0
M  V30 319 H 31.642 -3.60419 -4.34463 0
M  V30 320 N 31.0401 0.771051 -1.3745 0
M  V30 321 C 32.2701 1.55789 -1.35696 0
M  V30 322 C 32.6781 1.89107 0.0594523 0
M  V30 323 O 32.0211 1.51984 1.03183 0
M  V30 324 C 32.0831 2.89515 -2.13123 0
M  V30 325 C 31.7471 2.78829 -3.62082 0
M  V30 326 C 32.7441 2.49812 -4.5595 0
M  V30 327 C 30.4291 2.9683 -4.05213 0
M  V30 328 C 32.4231 2.38923 -5.90927 0
M  V30 329 C 30.1101 2.85562 -5.40276 0
M  V30 330 C 31.1081 2.56649 -6.32946 0
M  V30 331 O 30.7961 2.45408 -7.65526 0
M  V30 332 H 30.5281 0.489257 -0.466481 0
M  V30 333 H 33.0821 0.963446 -1.81403 0
M  V30 334 H 31.3121 3.51081 -1.62107 0
M  V30 335 H 33.0011 3.50915 -2.03994 0
M  V30 336 H 33.7671 2.3559 -4.23937 0
M  V30 337 H 29.6461 3.18335 -3.33442 0
M  V30 338 H 33.1901 2.16277 -6.63227 0
M  V30 339 H 29.0871 2.99351 -5.71891 0
M  V30 340 H 29.8551 2.60753 -7.75855 0
M  V30 341 N 32.5182 1.22032 0.997298 0
M  V30 342 C 33.7432 1.06921 1.77715 0
M  V30 343 C 34.1682 -0.376226 1.84299 0
M  V30 344 O 33.5262 -1.27165 1.29223 0
M  V30 345 C 33.5742 1.67996 3.19076 0
M  V30 346 O 32.6782 0.930653 4.01762 0
M  V30 347 H 32.0192 0.375814 0.547412 0
M  V30 348 H 34.5492 1.61737 1.25309 0
M  V30 349 H 34.5592 1.72538 3.69723 0
M  V30 350 H 33.2342 2.73182 3.13599 0
M  V30 351 H 31.8112 0.960917 3.60307 0
M  V30 352 N 33.9963 -1.19345 1.0293 0
M  V30 353 C 35.2243 -1.92997 0.745644 0
M  V30 354 C 35.6393 -1.75519 -0.695589 0
M  V30 355 O 34.9963 -1.07737 -1.47306 0
M  V30 356 C 35.0473 -3.44741 1.08792 0
M  V30 357 O 34.7683 -3.61658 2.47256 0
M  V30 358 C 36.2693 -4.35515 0.827129 0
M  V30 359 H 33.4893 -0.613042 0.272801 0
M  V30 360 H 36.0333 -1.51473 1.3739 0
M  V30 361 H 34.1883 -3.84097 0.504832 0
M  V30 362 H 34.6023 -4.55514 2.60015 0
M  V30 363 H 36.0763 -5.40589 1.11658 0
M  V30 364 H 36.5533 -4.38552 -0.238436 0
M  V30 365 H 37.1593 -4.01841 1.39297 0
M  V30 366 N 35.4744 -0.807222 -1.35358 0
M  V30 367 C 36.4374 -0.223665 -2.28106 0
M  V30 368 C 37.4374 0.589354 -1.4961 0
M  V30 369 O 38.6274 0.407745 -1.69361 0
M  V30 370 C 35.7594 0.688149 -3.33882 0
M  V30 371 H 36.9524 -1.04169 -2.81227 0
M  V30 372 H 34.5054 -0.577921 -1.45223 0
M  V30 373 H 35.2404 1.52984 -2.85948 0
M  V30 374 H 35.0254 0.10687 -3.91954 0
M  V30 375 H 36.5154 1.09075 -4.03104 0
M  V30 376 N 36.9525 1.47285 -0.560781 0
M  V30 377 C 38.1985 2.02764 -0.0381184 0
M  V30 378 C 38.5315 1.43384 1.30976 0
M  V30 379 O 37.8065 0.590733 1.85312 0
M  V30 380 C 38.0895 3.60064 0.0511427 0
M  V30 381 C 37.9425 4.2987 -1.32408 0
M  V30 382 C 39.2615 4.33439 0.762795 0
M  V30 383 H 36.3805 0.736841 -0.0153264 0
M  V30 384 H 39.0225 1.75675 -0.723759 0
M  V30 385 H 37.1725 3.83274 0.635065 0
M  V30 386 H 38.8445 4.17989 -1.95148 0
M  V30 387 H 37.0875 3.90085 -1.8978 0
M  V30 388 H 37.7585 5.38478 -1.21431 0
M  V30 389 H 40.2345 4.15243 0.266965 0
M  V30 390 H 39.1105 5.43124 0.794221 0
M  V30 391 H 39.3715 4.02915 1.81966 0
M  V30 392 N 38.4306 0.297415 1.54768 0
M  V30 393 C 39.3936 -0.567375 2.22066 0
M  V30 394 C 40.3936 -1.06409 1.20556 0
M  V30 395 O 41.5836 -0.960691 1.45315 0
M  V30 396 C 38.7156 -1.78517 2.90421 0
M  V30 397 H 39.9086 0.0205534 2.99893 0
M  V30 398 H 37.4616 0.0482163 1.56226 0
M  V30 399 H 38.1966 -2.41303 2.16664 0
M  V30 400 H 37.9816 -1.43669 3.64831 0
M  V30 401 H 39.4716 -2.39964 3.41771 0
M  V30 402 N 39.9087 -1.5758 0.0250728 0
M  V30 403 C 41.1577 -1.90811 -0.653767 0
M  V30 404 C 41.4707 -0.90273 -1.73523 0
M  V30 405 O 42.6767 -1.12614 -2.47043 0
M  V30 406 C 41.1327 -3.38804 -1.21409 0
M  V30 407 C 40.7407 -4.47692 -0.166126 0
M  V30 408 C 42.4847 -3.81108 -1.86967 0
M  V30 409 C 40.3917 -5.86779 -0.737856 0
M  V30 410 H 39.3217 -0.712063 -0.247956 0
M  V30 411 H 41.9727 -1.83281 0.0897137 0
M  V30 412 H 40.3547 -3.41252 -2.00905 0
M  V30 413 H 41.5287 -4.56797 0.606079 0
M  V30 414 H 39.8437 -4.14565 0.390466 0
M  V30 415 H 42.4407 -4.82375 -2.30692 0
M  V30 416 H 42.7837 -3.15953 -2.71071 0
M  V30 417 H 43.3167 -3.81065 -1.14167 0
M  V30 418 H 40.0557 -6.55468 0.0649577 0
M  V30 419 H 39.5757 -5.81288 -1.47864 0
M  V30 420 H 41.2547 -6.35223 -1.22884 0
M  V30 421 N 41.3868 0.248026 -1.55636 0
M  V30 422 C 42.6338 0.976224 -1.77415 0
M  V30 423 C 42.9618 1.85361 -0.589193 0
M  V30 424 O 42.2168 1.90973 0.427529 0
M  V30 425 C 42.5158 1.86819 -3.04686 0
M  V30 426 C 42.1818 1.14625 -4.36087 0
M  V30 427 C 40.8438 0.946723 -4.71795 0
M  V30 428 C 43.1958 0.634463 -5.17324 0
M  V30 429 C 40.5238 0.223091 -5.86276 0
M  V30 430 C 42.8758 -0.0756959 -6.32555 0
M  V30 431 C 41.5398 -0.286711 -6.66884 0
M  V30 432 H 40.8098 0.357226 -0.649208 0
M  V30 433 H 43.4568 0.246415 -1.89908 0
M  V30 434 H 41.7618 2.66502 -2.872 0
M  V30 435 H 43.4588 2.43329 -3.18735 0
M  V30 436 H 40.0488 1.3117 -4.08035 0
M  V30 437 H 44.2328 0.77616 -4.90193 0
M  V30 438 H 39.4888 0.0491185 -6.1138 0
M  V30 439 H 43.6628 -0.479899 -6.94745 0
M  V30 440 H 41.2898 -0.849389 -7.5544 0
M  V30 441 N 42.8649 1.48995 0.513639 0
M  V30 442 C 43.7949 1.67636 1.62544 0
M  V30 443 C 44.7759 0.525087 1.61793 0
M  V30 444 O 45.9609 0.759502 1.78732 0
M  V30 445 C 43.0909 1.73114 3.01079 0
M  V30 446 C 42.0449 2.87905 3.16693 0
M  V30 447 C 41.3709 2.78486 4.56453 0
M  V30 448 C 42.6709 4.29005 2.97913 0
M  V30 449 H 44.3649 2.60716 1.47198 0
M  V30 450 H 41.9109 1.25465 0.706714 0
M  V30 451 H 43.8639 1.84742 3.78746 0
M  V30 452 H 42.5879 0.766241 3.17484 0
M  V30 453 H 41.2469 2.75859 2.41448 0
M  V30 454 H 40.8949 1.7993 4.69717 0
M  V30 455 H 40.5949 3.55523 4.67843 0
M  V30 456 H 42.1189 2.92104 5.36197 0
M  V30 457 H 43.5329 4.41798 3.65359 0
M  V30 458 H 41.9299 5.07166 3.20785 0
M  V30 459 H 42.9999 4.44329 1.94165 0
M  V30 460 N 44.343 -0.763751 1.37857 0
M  V30 461 C 45.589 -1.52483 1.33704 0
M  V30 462 C 45.922 -1.94051 -0.0759612 0
M  V30 463 O 45.197 -1.64675 -1.03501 0
M  V30 464 C 45.48 -2.78441 2.28348 0
M  V30 465 C 45.333 -2.43075 3.78463 0
M  V30 466 C 46.652 -3.80415 2.21298 0
M  V30 467 H 43.771 -0.553169 0.487005 0
M  V30 468 H 46.413 -0.875562 1.68624 0
M  V30 469 H 44.563 -3.33842 1.987 0
M  V30 470 H 46.235 -1.93527 4.18742 0
M  V30 471 H 44.478 -1.75666 3.96641 0
M  V30 472 H 45.149 -3.33149 4.40132 0
M  V30 473 H 47.625 -3.34527 2.47449 0
M  V30 474 H 46.501 -4.66257 2.89647 0
M  V30 475 H 46.762 -4.25262 1.20849 0
M  V30 476 N 45.8211 -1.22559 -0.990812 0
M  V30 477 C 47.0701 -1.04553 -1.72486 0
M  V30 478 C 47.3831 0.419349 -1.91052 0
M  V30 479 O 48.5891 0.719121 -2.61803 0
M  V30 480 C 47.0451 -1.82231 -3.10355 0
M  V30 481 C 46.6531 -3.32981 -2.99713 0
M  V30 482 C 48.3971 -1.7268 -3.87791 0
M  V30 483 C 46.3041 -4.03091 -4.32748 0
M  V30 484 H 45.2341 -0.387614 -0.646739 0
M  V30 485 H 47.8851 -1.46429 -1.10593 0
M  V30 486 H 46.2671 -1.33155 -3.72942 0
M  V30 487 H 47.4411 -3.89466 -2.46278 0
M  V30 488 H 45.7561 -3.43231 -2.35758 0
M  V30 489 H 48.3531 -2.22381 -4.86262 0
M  V30 490 H 48.6961 -0.687607 -4.10582 0
M  V30 491 H 49.2291 -2.1931 -3.31885 0
M  V30 492 H 45.9681 -5.07273 -4.15156 0
M  V30 493 H 45.4881 -3.51394 -4.86089 0
M  V30 494 H 47.1671 -4.08804 -5.01486 0
M  V30 495 N 47.2992 1.18797 -1.03562 0
M  V30 496 C 48.2292 2.24472 -0.643019 0
M  V30 497 C 49.2102 1.66433 0.351283 0
M  V30 498 O 50.3952 1.92803 0.232505 0
M  V30 499 C 47.5252 3.473 4.24935e-05 0
M  V30 500 C 46.4792 4.18055 -0.917257 0
M  V30 501 C 45.8052 5.34519 -0.138941 0
M  V30 502 C 47.1052 4.72109 -2.23407 0
M  V30 503 H 48.7992 2.57566 -1.52643 0
M  V30 504 H 46.3452 1.23806 -0.735394 0
M  V30 505 H 48.2982 4.20426 0.286383 0
M  V30 506 H 47.0222 3.13424 0.918299 0
M  V30 507 H 45.6812 3.46821 -1.1879 0
M  V30 508 H 45.3292 4.96891 0.781562 0
M  V30 509 H 45.0292 5.82794 -0.750005 0
M  V30 510 H 46.5532 6.10438 0.1405 0
M  V30 511 H 47.9672 5.36955 -2.00879 0
M  V30 512 H 46.3642 5.30897 -2.79765 0
M  V30 513 H 47.4342 3.89807 -2.88407 0
M  V30 514 N 48.7773 0.814389 1.34928 0
M  V30 515 C 50.0233 0.399013 1.98836 0
M  V30 516 C 50.3563 -1.03314 1.64438 0
M  V30 517 O 49.6313 -1.71811 0.911659 0
M  V30 518 C 49.9143 0.591629 3.55207 0
M  V30 519 C 49.7673 2.06928 3.99376 0
M  V30 520 C 51.0863 0.022199 4.40094 0
M  V30 521 H 48.2053 0.146451 0.722303 0
M  V30 522 H 50.8473 1.02537 1.59957 0
M  V30 523 H 48.9973 0.0584441 3.88456 0
M  V30 524 H 50.6693 2.66544 3.76499 0
M  V30 525 H 48.9123 2.56287 3.49999 0
M  V30 526 H 49.5833 2.1549 5.08201 0
M  V30 527 H 52.0593 0.477643 4.13349 0
M  V30 528 H 50.9353 0.186832 5.48582 0
M  V30 529 H 51.1963 -1.07215 4.28902 0
M  V30 530 N 50.2554 -1.46986 0.568584 0
M  V30 531 C 51.2184 -2.28624 -0.162366 0
M  V30 532 C 52.2184 -1.37596 -0.832103 0
M  V30 533 O 53.4084 -1.60115 -0.68622 0
M  V30 534 C 50.5404 -3.17596 -1.23878 0
M  V30 535 H 51.7334 -2.94722 0.554899 0
M  V30 536 H 49.2864 -1.52863 0.325976 0
M  V30 537 H 50.0214 -2.56214 -1.98808 0
M  V30 538 H 49.8064 -3.846 -0.763219 0
M  V30 539 H 51.2964 -3.79078 -1.75185 0
M  V30 540 N 51.7335 -0.305618 -1.54608 0
M  V30 541 C 52.6965 0.555591 -2.22364 0
M  V30 542 C 53.6965 1.05768 -1.21119 0
M  V30 543 O 54.8865 0.952972 -1.45822 0
M  V30 544 C 52.0185 1.76974 -2.91364 0
M  V30 545 H 53.2115 -0.0364572 -2.99878 0
M  V30 546 H 50.7645 -0.0565007 -1.56198 0
M  V30 547 H 51.4995 2.40151 -2.17941 0
M  V30 548 H 51.2845 1.41732 -3.65588 0
M  V30 549 H 52.7745 2.38148 -3.43038 0
M  V30 550 N 53.2116 1.57565 -0.0334293 0
M  V30 551 C 54.1416 2.13511 0.945265 0
M  V30 552 C 55.1226 1.05231 1.33643 0
M  V30 553 O 56.3076 1.33084 1.41429 0
M  V30 554 C 53.4376 2.6657 2.22616 0
M  V30 555 C 52.3916 3.79676 1.97561 0
M  V30 556 C 51.7176 4.1918 3.31952 0
M  V30 557 C 53.0176 5.0557 1.31135 0
M  V30 558 H 54.7116 2.95538 0.479325 0
M  V30 559 H 52.2576 1.42166 0.229115 0
M  V30 560 H 54.2106 3.04344 2.91466 0
M  V30 561 H 52.9346 1.8171 2.71384 0
M  V30 562 H 51.5936 3.42347 1.31127 0
M  V30 563 H 51.2416 3.31296 3.78487 0
M  V30 564 H 50.9416 4.95402 3.15992 0
M  V30 565 H 52.4656 4.59541 4.02063 0
M  V30 566 H 53.8796 5.40903 1.89992 0
M  V30 567 H 52.2766 5.86818 1.25559 0
M  V30 568 H 53.3466 4.84062 0.284894 0
M  V30 569 N 54.6897 -0.239769 1.55765 0
M  V30 570 C 55.6217 -1.32001 1.87372 0
M  V30 571 C 56.6347 -1.43944 0.760522 0
M  V30 572 O 57.8237 -1.45167 1.0387 0
M  V30 573 C 54.9237 -2.69779 2.05115 0
M  V30 574 C 54.0967 -2.80014 3.36022 0
M  V30 575 C 53.1557 -3.98684 3.4342 0
M  V30 576 O 52.1817 -3.87877 4.16582 0
M  V30 577 N 53.3837 -5.12176 2.73232 0
M  V30 578 H 56.1487 -1.0522 2.80622 0
M  V30 579 H 53.7097 -0.429857 1.56089 0
M  V30 580 H 55.7017 -3.47517 2.07399 0
M  V30 581 H 54.2717 -2.89237 1.18577 0
M  V30 582 H 53.4917 -1.88896 3.45994 0
M  V30 583 H 54.7797 -2.83808 4.22292 0
M  V30 584 H 54.1777 -5.2385 2.13536 0
M  V30 585 H 52.7347 -5.88022 2.81199 0
M  V30 586 N 56.1678 -1.49265 -0.50573 0
M  V30 587 C 57.4158 -1.582 -1.25766 0
M  V30 588 C 57.7368 -0.268482 -1.93143 0
M  V30 589 O 57.0068 0.711833 -1.8251 0
M  V30 590 H 55.5868 -0.582873 -0.467191 0
M  V30 591 H 58.2488 -1.85865 -0.586525 0
M  V30 592 H 57.3448 -2.37563 -2.02412 0
M  V30 593 N 57.6459 0.756429 -1.3826 0
M  V30 594 C 58.8709 1.55077 -1.37717 0
M  V30 595 C 59.2959 1.88073 0.03164 0
M  V30 596 O 58.6539 1.50364 1.01293 0
M  V30 597 C 58.7019 2.8283 -2.23695 0
M  V30 598 O 57.8059 3.77862 -1.6521 0
M  V30 599 H 57.1469 0.469152 -0.469885 0
M  V30 600 H 59.6769 0.935019 -1.81985 0
M  V30 601 H 59.6869 3.31783 -2.37453 0
M  V30 602 H 58.3619 2.58144 -3.2609 0
M  V30 603 H 56.9389 3.36555 -1.60578 0
M  V30 604 N 59.124 1.23083 0.984299 0
M  V30 605 C 60.087 1.00979 2.05757 0
M  V30 606 C 61.087 -0.0269573 1.60777 0
M  V30 607 O 62.277 0.212403 1.729 0
M  V30 608 C 59.409 0.527072 3.36801 0
M  V30 609 H 60.602 1.9622 2.26799 0
M  V30 610 H 58.155 1.05072 1.15714 0
M  V30 611 H 58.89 -0.429294 3.21446 0
M  V30 612 H 58.675 1.27515 3.70786 0
M  V30 613 H 60.165 0.392942 4.15747 0
M  V30 614 N 60.6021 -1.18246 1.0419 0
M  V30 615 C 62.0131 -1.69914 0.773698 0
M  V30 616 C 62.3641 -1.83085 -0.705297 0
M  V30 617 O 61.4891 -1.51123 -1.5489 0
M  V30 618 C 62.0841 -3.08619 1.39784 0
M  V30 619 C 60.6431 -3.57494 1.17792 0
M  V30 620 C 59.7901 -2.34013 1.48773 0
M  V30 621 H 62.7411 -1.02904 1.20816 0
M  V30 622 H 62.7621 -3.71958 0.801714 0
M  V30 623 H 62.2741 -2.99001 2.47426 0
M  V30 624 H 60.3751 -3.72406 0.120295 0
M  V30 625 H 60.4881 -4.40852 1.87581 0
M  V30 626 H 58.8521 -2.37986 0.907463 0
M  V30 627 H 59.6351 -2.27013 2.57527 0
M  V30 628 N 62.0802 -0.821533 -1.34494 0
M  V30 629 C 63.4962 -0.507117 -1.51329 0
M  V30 630 C 63.6962 0.968964 -1.76673 0
M  V30 631 O 62.7522 1.75348 -1.81685 0
M  V30 632 C 64.0652 -1.36544 -2.67911 0
M  V30 633 C 65.6132 -1.36242 -2.81793 0
M  V30 634 C 66.0882 -2.2052 -4.01416 0
M  V30 635 N 67.5792 -2.18136 -4.08621 0
M  V30 636 C 68.3142 -2.80095 -5.00334 0
M  V30 637 N 67.8102 -3.51039 -5.9728 0
M  V30 638 N 69.6032 -2.69656 -4.93196 0
M  V30 639 H 61.7542 -1.77729 -1.16302 0
M  V30 640 H 64.0172 -0.757291 -0.570276 0
M  V30 641 H 63.7232 -2.41361 -2.55808 0
M  V30 642 H 63.5972 -1.02917 -3.62888 0
M  V30 643 H 65.9842 -0.322041 -2.93338 0
M  V30 644 H 66.0652 -1.73866 -1.87628 0
M  V30 645 H 65.7092 -3.24607 -3.90631 0
M  V30 646 H 65.6392 -1.80247 -4.94791 0
M  V30 647 H 68.1302 -1.6653 -3.39229 0
M  V30 648 H 68.4432 -3.95565 -6.63889 0
M  V30 649 H 66.7882 -3.55145 -5.97409 0
M  V30 650 H 69.9792 -2.13808 -4.16418 0
M  V30 651 H 70.1522 -3.1823 -5.64476 0
M  V30 652 N 63.5583 1.46682 -0.576371 0
M  V30 653 C 64.4683 2.34032 0.163141 0
M  V30 654 C 65.4843 1.49367 0.892501 0
M  V30 655 O 66.6603 1.82252 0.857106 0
M  V30 656 C 63.7253 3.26435 1.16795 0
M  V30 657 C 62.7863 4.26998 0.443944 0
M  V30 658 C 62.0193 5.14986 1.40088 0
M  V30 659 O 62.2423 5.05785 2.637 0
M  V30 660 O 61.1763 5.94906 0.914917 0
M  V30 661 H 65.0023 2.98607 -0.55388 0
M  V30 662 H 62.5873 1.45554 -0.336821 0
M  V30 663 H 64.4693 3.83459 1.74748 0
M  V30 664 H 63.1443 2.64465 1.86655 0
M  V30 665 H 62.0513 3.7368 -0.177271 0
M  V30 666 H 63.3843 4.91736 -0.213566 0
M  V30 667 N 65.0364 0.313813 1.54444 0
M  V30 668 C 66.2614 -0.296681 2.05267 0
M  V30 669 C 66.6864 -1.45757 1.18897 0
M  V30 670 O 66.0444 -1.80239 0.195886 0
M  V30 671 C 66.0924 -0.71831 3.53373 0
M  V30 672 O 65.1964 -1.82175 3.69981 0
M  V30 673 H 64.5374 -0.0554061 0.661684 0
M  V30 674 H 67.0674 0.459387 1.99376 0
M  V30 675 H 67.0774 -1.00364 3.95463 0
M  V30 676 H 65.7524 0.130821 4.15694 0
M  V30 677 H 64.3294 -1.53598 3.39797 0
M  V30 678 N 66.5145 -1.57545 0.0417849 0
M  V30 679 C 67.9255 -1.80011 -0.495259 0
M  V30 680 C 68.2765 -0.953199 -1.71489 0
M  V30 681 O 67.4015 -0.167138 -2.15754 0
M  V30 682 C 67.9965 -3.26482 -0.905265 0
M  V30 683 C 66.5555 -3.499 -1.38734 0
M  V30 684 C 65.7025 -2.74979 -0.358056 0
M  V30 685 H 68.6535 -1.56425 0.267736 0
M  V30 686 H 68.6745 -3.36887 -1.76882 0
M  V30 687 H 68.1865 -3.88096 -0.017401 0
M  V30 688 H 66.2875 -2.93553 -2.29471 0
M  V30 689 H 66.4005 -4.58615 -1.38598 0
M  V30 690 H 64.7645 -2.40834 -0.828912 0
M  V30 691 H 65.5475 -3.39315 0.521561 0
M  V30 692 N 67.9926 0.231505 -1.5589 0
M  V30 693 C 68.9226 1.29022 -1.94617 0
M  V30 694 C 69.9036 1.4941 -0.813067 0
M  V30 695 O 71.0886 1.6176 -1.07459 0
M  V30 696 C 68.2186 2.64199 -2.25424 0
M  V30 697 C 67.1726 2.58484 -3.41131 0
M  V30 698 C 66.4986 3.97599 -3.57518 0
M  V30 699 C 67.7986 2.1413 -4.76388 0
M  V30 700 H 69.4926 0.968563 -2.83301 0
M  V30 701 H 67.0386 0.464479 -1.36303 0
M  V30 702 H 68.9916 3.38413 -2.51107 0
M  V30 703 H 67.7156 2.98032 -1.33583 0
M  V30 704 H 66.3746 1.86727 -3.15481 0
M  V30 705 H 66.0226 4.28723 -2.6307 0
M  V30 706 H 65.7226 3.94659 -4.35337 0
M  V30 707 H 67.2466 4.7349 -3.85538 0
M  V30 708 H 68.6606 2.78083 -5.01341 0
M  V30 709 H 67.0576 2.2227 -5.57419 0
M  V30 710 H 68.1276 1.09331 -4.72414 0
M  V30 711 N 69.4707 1.49531 0.497807 0
M  V30 712 C 70.8817 1.52344 1.07927 0
M  V30 713 C 71.2327 0.311469 1.93712 0
M  V30 714 O 70.3577 -0.578405 2.08527 0
M  V30 715 C 70.9527 2.76062 1.96405 0
M  V30 716 C 69.5117 2.81643 2.49709 0
M  V30 717 C 68.6587 2.46299 1.27404 0
M  V30 718 H 71.6097 1.56182 0.281576 0
M  V30 719 H 71.6307 2.56405 2.81135 0
M  V30 720 H 71.1427 3.64254 1.33943 0
M  V30 721 H 69.2437 1.97739 3.15801 0
M  V30 722 H 69.3567 3.83891 2.86643 0
M  V30 723 H 67.7207 1.98148 1.60029 0
M  V30 724 H 68.5037 3.36769 0.66645 0
M  V30 725 N 70.9488 -0.749086 1.3866 0
M  V30 726 C 72.1788 -1.53611 1.38157 0
M  V30 727 C 72.5868 -1.89177 -0.0293595 0
M  V30 728 O 71.9298 -1.53606 -1.00752 0
M  V30 729 C 71.9918 -2.86087 2.17702 0
M  V30 730 C 71.6558 -2.73034 3.66472 0
M  V30 731 C 72.6528 -2.42526 4.59866 0
M  V30 732 C 70.3378 -2.90345 4.09884 0
M  V30 733 C 72.3318 -2.29492 5.94653 0
M  V30 734 C 70.0188 -2.7693 5.4475 0
M  V30 735 C 71.0168 -2.46547 6.36949 0
M  V30 736 O 70.7048 -2.33199 7.69333 0
M  V30 737 H 70.4368 -0.481773 0.474205 0
M  V30 738 H 72.9908 -0.934465 1.82912 0
M  V30 739 H 71.2208 -3.48458 1.67672 0
M  V30 740 H 72.9098 -3.47625 2.09551 0
M  V30 741 H 73.6758 -2.28816 4.27631 0
M  V30 742 H 69.5548 -3.1299 3.38464 0
M  V30 743 H 73.0988 -2.05698 6.66584 0
M  V30 744 H 68.9958 -2.90215 5.76581 0
M  V30 745 H 69.7638 -2.48376 7.79905 0
M  V30 746 N 72.4269 -1.23603 -0.977757 0
M  V30 747 C 73.3769 -0.986664 -2.05545 0
M  V30 748 C 74.3609 0.0683009 -1.60755 0
M  V30 749 O 75.5529 -0.144162 -1.76412 0
M  V30 750 C 72.6819 -0.582623 -3.3832 0
M  V30 751 C 71.7679 -1.67313 -3.89701 0
M  V30 752 N 72.1589 -2.90394 -4.14132 0
M  V30 753 C 70.4569 -1.54832 -4.18262 0
M  V30 754 C 71.1579 -3.61017 -4.56116 0
M  V30 755 N 70.1339 -2.8854 -4.60701 0
M  V30 756 H 73.9359 -1.92139 -2.22396 0
M  V30 757 H 71.4499 -1.1358 -1.16074 0
M  V30 758 H 73.4469 -0.38524 -4.15116 0
M  V30 759 H 72.1069 0.34503 -3.22862 0
M  V30 760 H 73.1179 -3.26673 -4.01877 0
M  V30 761 H 69.7949 -0.687969 -4.11793 0
M  V30 762 H 71.1849 -4.66544 -4.83514 0
M  V30 763 N 73.905 1.17692 -1.04816 0
M  V30 764 C 75.154 1.87192 -0.751132 0
M  V30 765 C 75.467 1.8169 0.724441 0
M  V30 766 O 76.673 2.46625 1.13527 0
M  V30 767 C 75.129 3.35857 -1.29338 0
M  V30 768 C 74.737 3.4987 -2.79812 0
M  V30 769 C 76.481 4.10709 -1.07322 0
M  V30 770 C 74.388 4.92536 -3.27356 0
M  V30 771 H 73.318 0.701162 -0.277288 0
M  V30 772 H 75.969 1.32932 -1.26496 0
M  V30 773 H 74.351 3.89631 -0.707376 0
M  V30 774 H 75.525 3.06332 -3.44235 0
M  V30 775 H 73.84 2.88433 -3.00325 0
M  V30 776 H 76.437 5.15952 -1.4035 0
M  V30 777 H 76.78 4.16299 -0.0108001 0
M  V30 778 H 77.313 3.6313 -1.62423 0
M  V30 779 H 74.052 4.92119 -4.33012 0
M  V30 780 H 73.572 5.3676 -2.67673 0
M  V30 781 H 75.251 5.61288 -3.21815 0
M  V30 782 N 75.3831 0.828654 1.34056 0
M  V30 783 C 76.7941 0.477534 1.8049 0
M  V30 784 C 77.1451 -1.00258 1.6865 0
M  V30 785 O 76.2701 -1.78057 1.22982 0
M  V30 786 C 76.8651 0.860018 3.27703 0
M  V30 787 C 75.4241 0.561185 3.72193 0
M  V30 788 C 74.5711 1.07385 2.55663 0
M  V30 789 H 77.5221 1.0183 1.21722 0
M  V30 790 H 77.5431 0.166038 3.80138 0
M  V30 791 H 77.0551 1.93731 3.36288 0
M  V30 792 H 75.1561 -0.506465 3.69142 0
M  V30 793 H 75.2691 1.10926 4.66082 0
M  V30 794 H 73.6331 0.495149 2.49841 0
M  V30 795 H 74.4161 2.15771 2.67016 0
M  V30 796 N 76.8612 -1.46375 0.584142 0
M  V30 797 C 77.7912 -2.33103 -0.136037 0
M  V30 798 C 78.7722 -1.45431 -0.882255 0
M  V30 799 O 79.9572 -1.74246 -0.857434 0
M  V30 800 C 77.0872 -3.27731 -1.14933 0
M  V30 801 C 76.0412 -4.24855 -0.517862 0
M  V30 802 C 75.3672 -5.09001 -1.63773 0
M  V30 803 C 76.6672 -5.19439 0.545886 0
M  V30 804 H 78.3612 -2.93568 0.588086 0
M  V30 805 H 75.9072 -1.41166 0.284259 0
M  V30 806 H 77.8602 -3.87261 -1.66153 0
M  V30 807 H 76.5842 -2.65377 -1.90375 0
M  V30 808 H 75.2432 -3.6659 -0.0267361 0
M  V30 809 H 74.8912 -4.43031 -2.38185 0
M  V30 810 H 74.5912 -5.74777 -1.22085 0
M  V30 811 H 76.1152 -5.71396 -2.15266 0
M  V30 812 H 77.5292 -5.73177 0.118704 0
M  V30 813 H 75.9262 -5.93566 0.88317 0
M  V30 814 H 76.9962 -4.63285 1.43162 0
M  V30 815 N 78.3393 -0.321999 -1.54275 0
M  V30 816 C 79.6163 0.335232 -1.92706 0
M  V30 817 C 79.9963 1.70006 -1.25145 0
M  V30 818 O 79.3443 2.25067 -0.394596 0
M  V30 819 C 79.5543 0.429008 -3.46353 0
M  V30 820 C 80.9023 0.690029 -4.18956 0
M  V30 821 O 81.9263 0.511992 -3.52501 0
M  V30 822 O 80.7853 1.03338 -5.36641 0
M  V30 823 H 77.8793 0.191143 -0.804608 0
M  V30 824 H 80.4253 -0.3716 -1.65581 0
M  V30 825 H 79.1973 -0.529611 -3.87699 0
M  V30 826 H 78.8203 1.18348 -3.79578 0
M  V30 827 N 79.8174 1.5752 -0.0501392 0
M  V30 828 C 81.2284 1.80271 0.485705 0
M  V30 829 C 81.5794 0.96228 1.70981 0
M  V30 830 O 80.7044 0.178578 2.15662 0
M  V30 831 C 81.2994 3.26957 0.887938 0
M  V30 832 C 79.8584 3.5063 1.36877 0
M  V30 833 C 79.0054 2.75165 0.343468 0
M  V30 834 H 81.9564 1.56281 -0.276028 0
M  V30 835 H 81.9774 3.37821 1.75093 0
M  V30 836 H 81.4894 3.881 -0.0031809 0
M  V30 837 H 79.5904 2.94766 2.27911 0
M  V30 838 H 79.7034 4.59343 1.36164 0
M  V30 839 H 78.0674 2.4127 0.816128 0
M  V30 840 H 78.8504 3.39034 -0.539548 0
M  V30 841 N 81.2955 -0.223234 1.56011 0
M  V30 842 C 82.2055 -1.29766 1.95443 0
M  V30 843 C 83.2215 -1.51373 0.858028 0
M  V30 844 O 84.3975 -1.64536 1.16146 0
M  V30 845 C 81.4625 -2.62772 2.26167 0
M  V30 846 C 80.5235 -2.49482 3.49367 0
M  V30 847 C 79.7565 -3.76145 3.78616 0
M  V30 848 O 79.9795 -4.79087 3.09568 0
M  V30 849 O 78.9135 -3.73358 4.72109 0
M  V30 850 H 82.7395 -0.99309 2.87004 0
M  V30 851 H 80.3245 -0.425958 1.43199 0
M  V30 852 H 82.2065 -3.41327 2.47131 0
M  V30 853 H 80.8815 -2.92913 1.37781 0
M  V30 854 H 79.7885 -1.69133 3.33684 0
M  V30 855 H 81.1215 -2.2428 4.38131 0
M  V30 856 N 82.7736 -1.49793 -0.48987 0
M  V30 857 C 84.0216 -1.59525 -1.24081 0
M  V30 858 C 84.3426 -0.288953 -1.92847 0
M  V30 859 O 83.6126 0.692436 -1.83254 0
M  V30 860 H 82.1926 -0.587796 -0.460983 0
M  V30 861 H 84.8546 -1.86477 -0.566778 0
M  V30 862 H 83.9506 -2.39696 -1.99881 0
M  V30 863 N 84.2517 0.741722 -1.39055 0
M  V30 864 C 85.4767 1.53607 -1.39354 0
M  V30 865 C 85.9017 1.88096 0.0116905 0
M  V30 866 O 85.2597 1.5143 0.996924 0
M  V30 867 C 85.3077 2.80441 -2.26682 0
M  V30 868 O 84.4117 3.76088 -1.69208 0
M  V30 869 H 83.7527 0.464142 -0.474835 0
M  V30 870 H 86.2827 0.915665 -1.82967 0
M  V30 871 H 86.2927 3.29246 -2.40959 0
M  V30 872 H 84.9677 2.5467 -3.2881 0
M  V30 873 H 83.5447 3.34833 -1.64138 0
M  V30 874 N 85.7298 1.2412 0.971189 0
M  V30 875 C 86.6598 1.05508 2.08304 0
M  V30 876 C 87.6408 -0.0308864 1.70072 0
M  V30 877 O 88.8258 0.135521 1.93727 0
M  V30 878 C 85.9558 0.655365 3.4106 0
M  V30 879 C 84.9098 1.68971 3.93234 0
M  V30 880 C 84.2358 1.14516 5.22293 0
M  V30 881 C 85.5358 3.08487 4.21465 0
M  V30 882 H 87.2298 1.98507 2.24132 0
M  V30 883 H 84.7758 0.955821 1.07704 0
M  V30 884 H 86.7288 0.51217 4.18276 0
M  V30 885 H 85.4528 -0.31032 3.25122 0
M  V30 886 H 84.1118 1.82106 3.18171 0
M  V30 887 H 83.7598 0.170189 5.02712 0
M  V30 888 H 83.4598 1.83635 5.58168 0
M  V30 889 H 84.9838 1.01401 6.02121 0
M  V30 890 H 86.3978 2.98601 4.89398 0
M  V30 891 H 84.7948 3.74926 4.68562 0
M  V30 892 H 85.8648 3.56787 3.28376 0
M  V30 893 N 87.2079 -1.17134 1.05439 0
M  V30 894 C 88.1179 -2.24878 0.668365 0
M  V30 895 C 89.1339 -1.71186 -0.311687 0
M  V30 896 O 90.3099 -2.00738 -0.163161 0
M  V30 897 C 87.3749 -3.46662 0.051648 0
M  V30 898 C 86.4359 -4.15429 1.08246 0
M  V30 899 C 85.6689 -5.31399 0.495082 0
M  V30 900 O 85.8919 -5.66153 -0.694743 0
M  V30 901 O 84.8259 -5.89187 1.23056 0
M  V30 902 H 88.6519 -2.60189 1.56637 0
M  V30 903 H 86.2369 -1.24482 0.826104 0
M  V30 904 H 88.1189 -4.20394 -0.290966 0
M  V30 905 H 86.7939 -3.13142 -0.819971 0
M  V30 906 H 85.7009 -3.43704 1.47711 0
M  V30 907 H 87.0339 -4.52982 1.92532 0
M  V30 908 N 88.686 -0.835752 -1.33615 0
M  V30 909 C 89.616 -0.281739 -2.31794 0
M  V30 910 C 90.597 0.608833 -1.58831 0
M  V30 911 O 91.782 0.533035 -1.86741 0
M  V30 912 C 88.912 0.546612 -3.42971 0
M  V30 913 C 87.866 -0.247904 -4.27281 0
M  V30 914 C 87.192 0.704001 -5.30045 0
M  V30 915 C 88.492 -1.46324 -5.01385 0
M  V30 916 H 90.186 -1.10206 -2.78379 0
M  V30 917 H 87.732 -0.531388 -1.33837 0
M  V30 918 H 89.685 0.944467 -4.1068 0
M  V30 919 H 88.409 1.40011 -2.95067 0
M  V30 920 H 87.068 -0.627281 -3.61194 0
M  V30 921 H 86.716 1.55381 -4.78399 0
M  V30 922 H 86.416 0.176524 -5.87335 0
M  V30 923 H 87.94 1.09944 -6.0062 0
M  V30 924 H 89.354 -1.13871 -5.61877 0
M  V30 925 H 87.751 -1.92728 -5.6831 0
M  V30 926 H 88.821 -2.23467 -4.30338 0
M  V30 927 N 90.1641 1.46063 -0.591896 0
M  V30 928 C 91.3891 2.07226 -0.0850314 0
M  V30 929 C 91.8141 1.43625 1.21463 0
M  V30 930 O 91.1721 0.523305 1.73583 0
M  V30 931 C 91.2201 3.60554 0.0576567 0
M  V30 932 O 90.3241 3.97128 1.11188 0
M  V30 933 H 89.6651 0.660615 -0.0669568 0
M  V30 934 H 92.1951 1.8756 -0.81745 0
M  V30 935 H 92.2051 4.07165 0.2609 0
M  V30 936 H 90.8801 4.06235 -0.891416 0
M  V30 937 H 89.4571 3.62213 0.886356 0
M  V30 938 N 91.6422 0.330177 1.54103 0
M  V30 939 C 92.8882 -0.263542 2.01685 0
M  V30 940 C 93.2432 -1.49258 1.21408 0
M  V30 941 O 92.5362 -1.89395 0.289852 0
M  V30 942 C 92.7302 -0.643134 3.51566 0
M  V30 943 C 92.5592 0.547571 4.46354 0
M  V30 944 C 91.3292 1.04873 4.94297 0
M  V30 945 C 93.5272 1.40184 4.94826 0
M  V30 946 N 91.5092 2.20316 5.73005 0
M  V30 947 C 92.8802 2.40335 5.71524 0
M  V30 948 C 94.9352 1.42884 4.76958 0
M  V30 949 C 93.6382 3.42998 6.32254 0
M  V30 950 C 95.6642 2.44421 5.38528 0
M  V30 951 C 95.0262 3.43298 6.15082 0
M  V30 952 H 91.1252 -0.0601026 0.779687 0
M  V30 953 H 93.7092 0.466714 1.89023 0
M  V30 954 H 91.8802 -1.34251 3.6446 0
M  V30 955 H 93.6122 -1.21889 3.85908 0
M  V30 956 H 90.3672 0.618956 4.69538 0
M  V30 957 H 90.7912 2.78565 6.17034 0
M  V30 958 H 95.4332 0.678049 4.17328 0
M  V30 959 H 93.1512 4.1898 6.91 0
M  V30 960 H 96.7372 2.4732 5.26616 0
M  V30 961 H 95.6172 4.20579 6.61878 0
M  V30 962 N 93.1203 -1.57491 0.0584922 0
M  V30 963 C 94.0683 -2.13148 -0.931168 0
M  V30 964 C 95.0623 -1.06507 -1.31729 0
M  V30 965 O 96.2683 -1.24906 -1.29609 0
M  V30 966 H 92.6433 -0.68137 -0.31818 0
M  V30 967 H 94.6143 -2.95187 -0.436707 0
M  V30 968 C 93.3633 -2.69732 -2.19408 0
M  V30 969 H 92.6863 -3.51454 -1.90578 0
M  V30 970 H 94.1263 -3.12287 -2.86798 0
M  V30 971 C 92.5853 -1.63855 -2.94369 0
M  V30 972 O 93.1153 -1.05565 -3.87581 0
M  V30 973 N 91.3213 -1.35202 -2.57233 0
M  V30 974 H 90.8683 -1.82791 -1.81508 0
M  V30 975 H 90.8263 -0.645922 -3.07693 0
M  V30 976 N 94.5984 0.214957 -1.56127 0
M  V30 977 C 95.8444 0.939762 -1.79712 0
M  V30 978 C 96.1774 1.83723 -0.629247 0
M  V30 979 O 95.4524 1.90925 0.371197 0
M  V30 980 C 95.7354 1.77306 -3.13424 0
M  V30 981 C 95.5884 0.90164 -4.40671 0
M  V30 982 C 96.9074 2.74956 -3.43638 0
M  V30 983 H 94.0264 0.340214 -0.653776 0
M  V30 984 H 96.6684 0.20824 -1.88855 0
M  V30 985 H 94.8184 2.39673 -3.0576 0
M  V30 986 H 96.4904 0.294206 -4.60361 0
M  V30 987 H 94.7334 0.207368 -4.33304 0
M  V30 988 H 95.4044 1.51923 -5.30682 0
M  V30 989 H 97.8804 2.22724 -3.51473 0
M  V30 990 H 96.7564 3.30358 -4.38355 0
M  V30 991 H 97.0174 3.53023 -2.66134 0
M  V30 992 N 96.0765 1.50051 0.48192 0
M  V30 993 C 97.3015 1.64508 1.26301 0
M  V30 994 C 97.7265 0.323851 1.85291 0
M  V30 995 O 97.0845 -0.710969 1.66778 0
M  V30 996 C 97.1325 2.7305 2.35533 0
M  V30 997 O 96.2365 2.3355 3.39895 0
M  V30 998 H 95.5775 0.549978 0.372048 0
M  V30 999 H 98.1075 1.9636 0.574786 0
M  V30 1000 H 98.1175 2.95799 2.8101 0
M  V30 1001 H 96.7925 3.68946 1.91967 0
M  V30 1002 H 95.3695 2.21205 3.00204 0
M  V30 1003 N 97.5546 -0.734337 1.39446 0
M  V30 1004 C 98.7846 -1.52137 1.39778 0
M  V30 1005 C 99.1926 -1.89198 -0.00929312 0
M  V30 1006 O 98.5356 -1.54666 -0.991168 0
M  V30 1007 C 98.5976 -2.83762 2.20724 0
M  V30 1008 C 98.2616 -2.69131 3.69347 0
M  V30 1009 C 99.2586 -2.37635 4.62413 0
M  V30 1010 C 96.9436 -2.85982 4.1294 0
M  V30 1011 C 98.9376 -2.23172 5.97054 0
M  V30 1012 C 96.6246 -2.71137 5.47657 0
M  V30 1013 C 97.6226 -2.39777 6.39528 0
M  V30 1014 O 97.3106 -2.25026 7.71763 0
M  V30 1015 H 97.0426 -0.476717 0.479288 0
M  V30 1016 H 99.5966 -0.915012 1.83893 0
M  V30 1017 H 97.8266 -3.4666 1.71359 0
M  V30 1018 H 99.5156 -3.45383 2.13226 0
M  V30 1019 H 100.282 -2.24267 4.30034 0
M  V30 1020 H 96.1606 -3.09383 3.41765 0
M  V30 1021 H 99.7046 -1.98617 6.68728 0
M  V30 1022 H 95.6016 -2.84083 5.79626 0
M  V30 1023 H 96.3696 -2.40091 7.82495 0
M  V30 1024 N 99.0327 -1.24633 -0.964593 0
M  V30 1025 C 100.261 -1.11501 -1.74285 0
M  V30 1026 C 100.676 0.332165 -1.85855 0
M  V30 1027 O 100.033 1.22903 -1.34911 0
M  V30 1028 C 100.084 -1.75258 -3.16175 0
M  V30 1029 O 99.8047 -3.14318 -3.05182 0
M  V30 1030 C 101.306 -1.67776 -4.10324 0
M  V30 1031 H 98.5257 -0.389407 -0.546446 0
M  V30 1032 H 101.07 -1.64801 -1.21083 0
M  V30 1033 H 99.2247 -1.25954 -3.66353 0
M  V30 1034 H 99.6387 -3.4551 -3.94618 0
M  V30 1035 H 101.113 -2.17064 -5.0753 0
M  V30 1036 H 101.59 -0.639584 -4.34518 0
M  V30 1037 H 102.196 -2.16522 -3.66058 0
M  V30 1038 N 100.511 1.16574 -1.06058 0
M  V30 1039 C 101.443 2.2045 -0.627239 0
M  V30 1040 C 102.456 1.59752 0.313534 0
M  V30 1041 O 103.645 1.78192 0.104896 0
M  V30 1042 C 100.745 3.3875 0.100974 0
M  V30 1043 C 99.9178 4.29008 -0.852687 0
M  V30 1044 C 98.9768 5.25944 -0.164152 0
M  V30 1045 O 98.0028 5.63535 -0.801047 0
M  V30 1046 N 99.2048 5.70075 1.09518 0
M  V30 1047 H 101.97 2.58249 -1.52077 0
M  V30 1048 H 99.5308 1.3156 -0.943594 0
M  V30 1049 H 101.523 4.00638 0.57194 0
M  V30 1050 H 100.093 2.99476 0.89628 0
M  V30 1051 H 99.3128 3.64419 -1.50308 0
M  V30 1052 H 100.601 4.86195 -1.49972 0
M  V30 1053 H 99.9988 5.41624 1.6328 0
M  V30 1054 H 98.5558 6.34067 1.51006 0
M  V30 1055 N 101.989 0.842826 1.3317 0
M  V30 1056 C 102.899 0.281444 2.32906 0
M  V30 1057 C 103.915 -0.594587 1.63526 0
M  V30 1058 O 105.091 -0.49777 1.95152 0
M  V30 1059 C 102.156 -0.530929 3.42611 0
M  V30 1060 C 101.217 0.369843 4.27704 0
M  V30 1061 C 100.45 -0.403853 5.3217 0
M  V30 1062 O 100.673 -1.63513 5.46461 0
M  V30 1063 O 99.6069 0.224199 6.01482 0
M  V30 1064 H 103.433 1.10744 2.82789 0
M  V30 1065 H 101.018 0.60545 1.36582 0
M  V30 1066 H 102.9 -0.992437 4.09547 0
M  V30 1067 H 101.575 -1.33392 2.94938 0
M  V30 1068 H 100.482 0.879275 3.6362 0
M  V30 1069 H 101.815 1.13771 4.78871 0
M  V30 1070 N 103.467 -1.45747 0.599634 0
M  V30 1071 C 104.43 -2.28917 -0.113835 0
M  V30 1072 C 105.43 -1.3933 -0.802729 0
M  V30 1073 O 106.62 -1.61534 -0.652103 0
M  V30 1074 C 103.752 -3.20152 -1.17114 0
M  V30 1075 H 104.945 -2.93478 0.617289 0
M  V30 1076 H 102.498 -1.52137 0.358327 0
M  V30 1077 H 103.233 -2.60374 -1.93329 0
M  V30 1078 H 103.018 -3.86133 -0.681468 0
M  V30 1079 H 104.508 -3.82708 -1.67105 0
M  V30 1080 N 104.945 -0.338344 -1.53925 0
M  V30 1081 C 106.194 0.260732 -2.00008 0
M  V30 1082 C 106.507 1.52073 -1.23017 0
M  V30 1083 O 107.713 2.19672 -1.5955 0
M  V30 1084 C 106.169 0.51515 -3.56194 0
M  V30 1085 C 105.777 -0.728645 -4.42035 0
M  V30 1086 C 107.521 1.07337 -4.10706 0
M  V30 1087 C 105.428 -0.445315 -5.89721 0
M  V30 1088 H 104.358 0.101205 -0.747177 0
M  V30 1089 H 107.009 -0.452866 -1.77824 0
M  V30 1090 H 105.391 1.28932 -3.74423 0
M  V30 1091 H 106.565 -1.50352 -4.35581 0
M  V30 1092 H 104.88 -1.20813 -3.98489 0
M  V30 1093 H 107.477 1.30022 -5.18651 0
M  V30 1094 H 107.82 2.0273 -3.63602 0
M  V30 1095 H 108.353 0.360034 -3.96167 0
M  V30 1096 H 105.092 -1.36883 -6.41049 0
M  V30 1097 H 104.612 0.291569 -5.99091 0
M  V30 1098 H 106.291 -0.0606218 -6.46972 0
M  V30 1099 N 106.423 1.57458 -0.0668435 0
M  V30 1100 C 107.373 2.0896 0.912119 0
M  V30 1101 C 108.357 0.998186 1.26195 0
M  V30 1102 O 109.549 1.26133 1.24175 0
M  V30 1103 C 106.678 2.6508 2.18145 0
M  V30 1104 C 105.764 3.81218 1.85832 0
M  V30 1105 N 106.155 4.90378 1.23948 0
M  V30 1106 C 104.453 3.9042 2.15612 0
M  V30 1107 C 105.154 5.71279 1.09616 0
M  V30 1108 N 104.13 5.19389 1.60423 0
M  V30 1109 H 107.932 2.90749 0.42924 0
M  V30 1110 H 105.446 1.6182 0.137184 0
M  V30 1111 H 107.443 3.0029 2.89192 0
M  V30 1112 H 106.103 1.84736 2.67025 0
M  V30 1113 H 107.114 5.09847 0.909731 0
M  V30 1114 H 103.791 3.21043 2.66903 0
M  V30 1115 H 105.181 6.69085 0.614425 0
M  V30 1116 N 107.901 -0.206675 1.56239 0
M  V30 1117 C 109.148 -0.928842 1.79941 0
M  V30 1118 C 109.476 -1.83734 0.638131 0
M  V30 1119 O 108.731 -1.92039 -0.376746 0
M  V30 1120 C 109.03 -1.78675 3.09532 0
M  V30 1121 C 108.696 -1.03022 4.38973 0
M  V30 1122 C 107.358 -0.821302 4.74139 0
M  V30 1123 C 109.71 -0.497081 5.18824 0
M  V30 1124 C 107.038 -0.0675719 5.86661 0
M  V30 1125 C 109.39 0.24338 6.32132 0
M  V30 1126 C 108.054 0.463422 6.65889 0
M  V30 1127 H 107.324 -0.339887 0.658451 0
M  V30 1128 H 109.971 -0.195977 1.90495 0
M  V30 1129 H 108.276 -2.58794 2.94165 0
M  V30 1130 H 109.973 -2.34792 3.25075 0
M  V30 1131 H 106.563 -1.20306 4.11369 0
M  V30 1132 H 110.747 -0.645921 4.92079 0
M  V30 1133 H 106.003 0.112995 6.11296 0
M  V30 1134 H 110.177 0.66393 6.93228 0
M  V30 1135 H 107.804 1.04938 7.52922 0
M  V30 1136 N 109.379 -1.50304 -0.473955 0
M  V30 1137 C 110.311 -1.65109 -1.58971 0
M  V30 1138 C 111.324 -0.532676 -1.53839 0
M  V30 1139 O 112.513 -0.805751 -1.59279 0
M  V30 1140 C 109.613 -1.61684 -2.97845 0
M  V30 1141 C 108.786 -2.8951 -3.27876 0
M  V30 1142 C 107.845 -2.78768 -4.4629 0
M  V30 1143 O 106.871 -3.52722 -4.46739 0
M  V30 1144 N 108.073 -1.9213 -5.47783 0
M  V30 1145 H 110.838 -2.61347 -1.46689 0
M  V30 1146 H 108.399 -1.47732 -0.662324 0
M  V30 1147 H 110.391 -1.52114 -3.75024 0
M  V30 1148 H 108.961 -0.731925 -3.03911 0
M  V30 1149 H 108.181 -3.13228 -2.39336 0
M  V30 1150 H 109.469 -3.74199 -3.4475 0
M  V30 1151 H 108.867 -1.31353 -5.50239 0
M  V30 1152 H 107.424 -1.88466 -6.23958 0
M  V30 1153 N 110.857 0.726932 -1.39834 0
M  V30 1154 C 111.787 1.85405 -1.41941 0
M  V30 1155 C 112.768 1.67751 -0.281728 0
M  V30 1156 O 113.953 1.8795 -0.488717 0
M  V30 1157 C 111.083 3.23243 -1.2701 0
M  V30 1158 C 110.037 3.55549 -2.38262 0
M  V30 1159 C 109.363 4.9241 -2.08415 0
M  V30 1160 C 110.663 3.577 -3.80589 0
M  V30 1161 H 112.357 1.83899 -2.36266 0
M  V30 1162 H 109.903 0.883349 -1.13723 0
M  V30 1163 H 111.856 4.01775 -1.27103 0
M  V30 1164 H 110.58 3.25296 -0.291564 0
M  V30 1165 H 109.239 2.79351 -2.37399 0
M  V30 1166 H 108.887 4.91052 -1.0898 0
M  V30 1167 H 108.587 5.14992 -2.82943 0
M  V30 1168 H 110.111 5.73289 -2.10171 0
M  V30 1169 H 111.525 4.26293 -3.83337 0
M  V30 1170 H 109.922 3.91804 -4.54543 0
M  V30 1171 H 110.992 2.57328 -4.10987 0
M  V30 1172 N 112.336 1.25143 0.95797 0
M  V30 1173 C 113.266 1.07711 2.07173 0
M  V30 1174 C 114.247 -0.0128462 1.70095 0
M  V30 1175 O 115.432 0.156061 1.93572 0
M  V30 1176 C 112.562 0.691503 3.40346 0
M  V30 1177 C 111.516 1.73132 3.9142 0
M  V30 1178 C 110.842 1.20049 5.21049 0
M  V30 1179 C 112.142 3.1294 4.1817 0
M  V30 1180 H 113.836 2.00873 2.22014 0
M  V30 1181 H 111.382 0.967191 1.06684 0
M  V30 1182 H 113.335 0.556505 4.17709 0
M  V30 1183 H 112.059 -0.275819 3.25433 0
M  V30 1184 H 110.718 1.8547 3.16222 0
M  V30 1185 H 110.366 0.223499 5.02503 0
M  V30 1186 H 110.066 1.89545 5.56189 0
M  V30 1187 H 111.59 1.07782 6.01012 0
M  V30 1188 H 113.004 3.03775 4.86203 0
M  V30 1189 H 111.401 3.79875 4.64559 0
M  V30 1190 H 112.471 3.6025 3.24573 0
M  V30 1191 N 113.814 -1.1601 1.06675 0
M  V30 1192 C 115.06 -1.86909 0.786945 0
M  V30 1193 C 115.393 -1.81717 -0.685018 0
M  V30 1194 O 114.668 -1.23551 -1.50218 0
M  V30 1195 C 114.951 -3.36313 1.28707 0
M  V30 1196 C 114.804 -3.50175 2.82308 0
M  V30 1197 C 116.123 -4.3084 0.898071 0
M  V30 1198 H 113.242 -0.678677 0.287343 0
M  V30 1199 H 115.884 -1.36336 1.32334 0
M  V30 1200 H 114.034 -3.79513 0.830768 0
M  V30 1201 H 115.706 -3.15886 3.36175 0
M  V30 1202 H 113.949 -2.91959 3.20847 0
M  V30 1203 H 114.62 -4.55116 3.12368 0
M  V30 1204 H 117.096 -3.95561 1.29114 0
M  V30 1205 H 115.972 -5.33876 1.27543 0
M  V30 1206 H 116.233 -4.41662 -0.196651 0
M  V30 1207 N 115.292 -0.849877 -1.32721 0
M  V30 1208 C 116.708 -0.539102 -1.50219 0
M  V30 1209 C 116.908 0.931271 -1.78689 0
M  V30 1210 O 115.964 1.71455 -1.85363 0
M  V30 1211 C 117.277 -1.42196 -2.64954 0
M  V30 1212 C 118.825 -1.42189 -2.78839 0
M  V30 1213 C 119.3 -2.28985 -3.96648 0
M  V30 1214 N 120.791 -2.26754 -4.03902 0
M  V30 1215 C 121.526 -2.90644 -4.94281 0
M  V30 1216 N 121.022 -3.63629 -5.897 0
M  V30 1217 N 122.815 -2.80057 -4.87365 0
M  V30 1218 H 114.966 -1.80156 -1.12506 0
M  V30 1219 H 117.229 -0.769217 -0.554085 0
M  V30 1220 H 116.935 -2.46733 -2.50631 0
M  V30 1221 H 116.809 -1.10591 -3.60624 0
M  V30 1222 H 119.196 -0.38419 -2.92588 0
M  V30 1223 H 119.277 -1.77807 -1.83898 0
M  V30 1224 H 118.921 -3.32819 -3.83658 0
M  V30 1225 H 118.851 -1.90702 -4.90857 0
M  V30 1226 H 121.342 -1.73688 -3.3562 0
M  V30 1227 H 121.655 -4.09558 -6.55349 0
M  V30 1228 H 120 -3.67737 -5.89741 0
M  V30 1229 H 123.191 -2.22593 -4.11789 0
M  V30 1230 H 123.364 -3.30132 -5.57599 0
M  V30 1231 N 116.77 1.45427 -0.607355 0
M  V30 1232 C 118.186 1.57283 -0.270985 0
M  V30 1233 C 118.386 1.59875 1.22647 0
M  V30 1234 O 117.442 1.52893 2.00948 0
M  V30 1235 C 118.755 2.85566 -0.941952 0
M  V30 1236 C 120.303 2.9924 -0.917849 0
M  V30 1237 C 120.778 4.30293 -1.56882 0
M  V30 1238 N 122.269 4.37051 -1.5343 0
M  V30 1239 C 123.004 5.37123 -2.00715 0
M  V30 1240 N 122.5 6.43734 -2.56084 0
M  V30 1241 N 124.293 5.28479 -1.91484 0
M  V30 1242 H 116.444 1.41988 -1.57966 0
M  V30 1243 H 118.707 0.67885 -0.661715 0
M  V30 1244 H 118.413 2.8955 -1.99633 0
M  V30 1245 H 118.287 3.74322 -0.465096 0
M  V30 1246 H 120.674 2.94822 0.127984 0
M  V30 1247 H 120.755 2.11895 -1.43297 0
M  V30 1248 H 120.399 4.35469 -2.61398 0
M  V30 1249 H 120.329 5.16454 -1.02873 0
M  V30 1250 H 122.82 3.60615 -1.12982 0
M  V30 1251 H 123.133 7.16341 -2.89958 0
M  V30 1252 H 121.478 6.44485 -2.60122 0
M  V30 1253 H 124.669 4.44098 -1.47967 0
M  V30 1254 H 124.842 6.0632 -2.28648 0
M  V30 1255 N 118.248 0.346503 1.53744 0
M  V30 1256 C 119.178 -0.501193 2.28058 0
M  V30 1257 C 120.159 -1.10014 1.29734 0
M  V30 1258 O 121.344 -1.12097 1.58581 0
M  V30 1259 C 118.474 -1.65078 3.05559 0
M  V30 1260 C 117.428 -1.18003 4.11411 0
M  V30 1261 C 116.754 -2.41837 4.76884 0
M  V30 1262 C 118.054 -0.278394 5.21558 0
M  V30 1263 H 119.748 0.11875 2.99164 0
M  V30 1264 H 117.294 0.0585531 1.43881 0
M  V30 1265 H 119.247 -2.25028 3.56287 0
M  V30 1266 H 117.971 -2.29767 2.32109 0
M  V30 1267 H 116.63 -0.603331 3.61601 0
M  V30 1268 H 116.278 -3.0494 4.00026 0
M  V30 1269 H 115.978 -2.1102 5.48402 0
M  V30 1270 H 117.502 -3.02508 5.30397 0
M  V30 1271 H 118.916 -0.784823 5.67903 0
M  V30 1272 H 117.313 -0.0619707 6.00068 0
M  V30 1273 H 118.383 0.684677 4.80042 0
M  V30 1274 N 119.726 -1.57421 0.075193 0
M  V30 1275 C 120.673 -2.12915 -0.890843 0
M  V30 1276 C 121.643 -1.04252 -1.29309 0
M  V30 1277 O 122.828 -1.31933 -1.37834 0
M  V30 1278 C 119.968 -2.69795 -2.15186 0
M  V30 1279 C 119.081 -3.92624 -1.80194 0
M  V30 1280 C 118.216 -4.37736 -3.00933 0
M  V30 1281 C 117.255 -5.53205 -2.61974 0
M  V30 1282 N 116.392 -5.9326 -3.75483 0
M  V30 1283 H 121.232 -2.95156 -0.410735 0
M  V30 1284 H 118.769 -1.45854 -0.191086 0
M  V30 1285 H 120.727 -3.00883 -2.89008 0
M  V30 1286 H 119.357 -1.90313 -2.60731 0
M  V30 1287 H 118.409 -3.67977 -0.964218 0
M  V30 1288 H 119.721 -4.76482 -1.47534 0
M  V30 1289 H 118.875 -4.70503 -3.8303 0
M  V30 1290 H 117.614 -3.52739 -3.36789 0
M  V30 1291 H 116.619 -5.20086 -1.783 0
M  V30 1292 H 117.844 -6.39936 -2.27284 0
M  V30 1293 H 115.79 -5.11212 -4.11094 0
M  V30 1294 H 115.707 -6.71865 -3.46602 0
M  V30 1295 H 116.975 -6.30651 -4.58148 0
M  V30 1296 N 121.204 0.198386 -1.56346 0
M  V30 1297 C 122.167 1.22952 -1.93431 0
M  V30 1298 C 123.167 1.38611 -0.815092 0
M  V30 1299 O 124.357 1.36479 -1.08255 0
M  V30 1300 C 121.489 2.59946 -2.20546 0
M  V30 1301 H 122.682 0.912626 -2.85677 0
M  V30 1302 H 120.235 0.43977 -1.49986 0
M  V30 1303 H 120.97 2.96696 -1.30927 0
M  V30 1304 H 120.755 2.49953 -3.02102 0
M  V30 1305 H 122.245 3.3431 -2.50253 0
M  V30 1306 N 122.682 1.50554 0.465978 0
M  V30 1307 C 123.93 1.61479 1.21528 0
M  V30 1308 C 124.251 0.319596 1.92363 0
M  V30 1309 O 123.521 -0.663194 1.84333 0
M  V30 1310 H 122.101 0.595055 0.451573 0
M  V30 1311 H 124.763 1.87355 0.53704 0
M  V30 1312 H 123.859 2.42846 1.96042 0
M  V30 1313 N 124.16 -0.719506 1.40217 0
M  V30 1314 C 125.406 -1.48152 1.38488 0
M  V30 1315 C 125.739 -1.94195 -0.0141867 0
M  V30 1316 O 125.014 -1.67884 -0.982096 0
M  V30 1317 C 125.297 -2.71035 2.37091 0
M  V30 1318 C 125.15 -2.30912 3.86005 0
M  V30 1319 C 126.469 -3.73182 2.33288 0
M  V30 1320 H 123.588 -0.537395 0.504357 0
M  V30 1321 H 126.23 -0.821472 1.71324 0
M  V30 1322 H 124.38 -3.27352 2.0922 0
M  V30 1323 H 126.052 -1.80107 4.24687 0
M  V30 1324 H 124.295 -1.62958 4.02029 0
M  V30 1325 H 124.966 -3.18978 4.50508 0
M  V30 1326 H 127.442 -3.26485 2.57966 0
M  V30 1327 H 126.318 -4.56806 3.04334 0
M  V30 1328 H 126.579 -4.21202 1.34317 0
M  V30 1329 N 125.638 -1.25649 -0.95132 0
M  V30 1330 C 126.568 -1.08808 -2.06599 0
M  V30 1331 C 127.549 0.00382547 -1.701 0
M  V30 1332 O 128.734 -0.166325 -1.93486 0
M  V30 1333 C 125.864 -0.709542 -3.39975 0
M  V30 1334 C 124.818 -1.75206 -3.90496 0
M  V30 1335 C 124.144 -1.22811 -5.20405 0
M  V30 1336 C 125.444 -3.15153 -4.16504 0
M  V30 1337 H 127.138 -2.02048 -2.20946 0
M  V30 1338 H 124.684 -0.972835 -1.06169 0
M  V30 1339 H 126.637 -0.578649 -4.17408 0
M  V30 1340 H 125.361 0.258556 -3.25575 0
M  V30 1341 H 124.02 -1.87145 -3.15234 0
M  V30 1342 H 123.668 -0.250145 -5.02378 0
M  V30 1343 H 123.368 -1.92492 -5.55176 0
M  V30 1344 H 124.892 -1.10968 -6.00432 0
M  V30 1345 H 126.306 -3.06349 -4.84586 0
M  V30 1346 H 124.703 -3.82333 -4.62538 0
M  V30 1347 H 125.773 -3.61966 -3.22658 0
M  V30 1348 N 127.117 1.15442 -1.07289 0
M  V30 1349 C 128.364 1.86213 -0.795668 0
M  V30 1350 C 128.692 1.82291 0.678238 0
M  V30 1351 O 127.947 1.24057 1.51355 0
M  V30 1352 C 128.246 3.3489 -1.24834 0
M  V30 1353 C 127.912 3.59007 -2.72809 0
M  V30 1354 C 126.574 3.65298 -3.13227 0
M  V30 1355 C 128.926 3.68762 -3.68326 0
M  V30 1356 C 126.254 3.78854 -4.4798 0
M  V30 1357 C 128.606 3.83842 -5.0284 0
M  V30 1358 C 127.27 3.88378 -5.4288 0
M  V30 1359 H 126.54 0.681403 -0.291155 0
M  V30 1360 H 129.187 1.36435 -1.34379 0
M  V30 1361 H 127.492 3.8687 -0.619595 0
M  V30 1362 H 129.189 3.88052 -1.01076 0
M  V30 1363 H 125.779 3.5475 -2.40521 0
M  V30 1364 H 129.963 3.63202 -3.38227 0
M  V30 1365 H 125.219 3.80623 -4.78472 0
M  V30 1366 H 129.393 3.90332 -5.76727 0
M  V30 1367 H 127.02 3.98635 -6.47298 0
M  V30 1368 N 128.595 0.856903 1.32268 0
M  V30 1369 C 129.843 0.460474 1.96784 0
M  V30 1370 C 130.164 -0.987701 1.68135 0
M  V30 1371 O 129.434 -1.69058 0.989765 0
M  V30 1372 H 128.014 0.167289 0.728027 0
M  V30 1373 H 130.676 1.09383 1.61312 0
M  V30 1374 H 129.772 0.60739 3.06133 0
M  V30 1375 N 130.073 -1.45103 0.615059 0
M  V30 1376 C 131.006 -2.27717 -0.148408 0
M  V30 1377 C 131.984 -1.37584 -0.866572 0
M  V30 1378 O 133.168 -1.67017 -0.87393 0
M  V30 1379 C 130.295 -3.16136 -1.21557 0
M  V30 1380 C 129.341 -4.22263 -0.599712 0
M  V30 1381 S 130.174 -5.3215 0.598081 0
M  V30 1382 C 131.33 -6.24137 -0.469484 0
M  V30 1383 H 131.563 -2.92121 0.552483 0
M  V30 1384 H 129.096 -1.49054 0.402778 0
M  V30 1385 H 131.054 -3.67633 -1.82638 0
M  V30 1386 H 129.715 -2.50982 -1.88857 0
M  V30 1387 H 128.908 -4.84081 -1.4029 0
M  V30 1388 H 128.51 -3.73945 -0.063876 0
M  V30 1389 H 130.802 -6.63984 -1.34652 0
M  V30 1390 H 131.745 -7.0801 0.112725 0
M  V30 1391 H 132.153 -5.58971 -0.788168 0
M  V30 1392 N 131.551 -0.354651 -1.53558 0
M  V30 1393 C 132.776 0.242153 -2.05981 0
M  V30 1394 C 133.201 1.42553 -1.2272 0
M  V30 1395 O 132.559 1.79656 -0.243604 0
M  V30 1396 C 132.607 0.624367 -3.55154 0
M  V30 1397 O 131.711 1.72301 -3.74681 0
M  V30 1398 H 131.052 0.0378432 -0.662921 0
M  V30 1399 H 133.582 -0.512087 -1.98088 0
M  V30 1400 H 133.592 0.898433 -3.97985 0
M  V30 1401 H 132.267 -0.240989 -4.15201 0
M  V30 1402 H 130.844 1.44535 -3.4375 0
M  V30 1403 N 133.029 1.57378 -0.0835403 0
M  V30 1404 C 134.306 1.85363 0.624507 0
M  V30 1405 C 134.686 0.978239 1.87066 0
M  V30 1406 O 134.034 0.0475908 2.2845 0
M  V30 1407 C 134.244 3.35795 0.950947 0
M  V30 1408 C 135.592 4.03581 1.31939 0
M  V30 1409 O 136.616 3.40609 1.04232 0
M  V30 1410 O 135.475 5.14672 1.83779 0
M  V30 1411 H 132.569 0.766162 0.311329 0
M  V30 1412 H 135.115 1.69307 -0.115362 0
M  V30 1413 H 133.887 3.91244 0.0663899 0
M  V30 1414 H 133.51 3.57154 1.74719 0
M  V30 1415 N 134.507 -0.190092 1.56449 0
M  V30 1416 C 135.923 -0.54113 1.50146 0
M  V30 1417 C 136.123 -1.85603 0.784465 0
M  V30 1418 O 135.179 -2.5024 0.337051 0
M  V30 1419 C 136.492 -0.591241 2.9483 0
M  V30 1420 C 138.04 -0.679732 3.0553 0
M  V30 1421 C 138.515 -0.760908 4.51635 0
M  V30 1422 N 140.006 -0.824302 4.55806 0
M  V30 1423 C 140.741 -0.907365 5.66175 0
M  V30 1424 N 140.237 -0.952422 6.86222 0
M  V30 1425 N 142.03 -0.94494 5.541 0
M  V30 1426 H 134.181 0.67235 2.01478 0
M  V30 1427 H 136.444 0.240127 0.917084 0
M  V30 1428 H 136.15 0.305905 3.50367 0
M  V30 1429 H 136.024 -1.44422 3.48457 0
M  V30 1430 H 138.411 -1.56731 2.50039 0
M  V30 1431 H 138.492 0.199549 2.5502 0
M  V30 1432 H 138.136 0.122336 5.07753 0
M  V30 1433 H 138.066 -1.65606 4.99882 0
M  V30 1434 H 140.557 -0.798526 3.69367 0
M  V30 1435 H 140.87 -1.01645 7.66086 0
M  V30 1436 H 139.215 -0.921014 6.8887 0
M  V30 1437 H 142.406 -0.906612 4.59236 0
M  V30 1438 H 142.579 -1.00622 6.4014 0
M  V30 1439 N 135.985 -1.50799 -0.457987 0
M  V30 1440 C 137.233 -1.62121 -1.2067 0
M  V30 1441 C 137.554 -0.329793 -1.92191 0
M  V30 1442 O 136.824 0.653409 -1.84682 0
M  V30 1443 H 135.404 -0.597441 -0.448411 0
M  V30 1444 H 138.066 -1.87637 -0.527096 0
M  V30 1445 H 137.162 -2.43882 -1.94751 0
M  V30 1446 N 137.463 0.71206 -1.40597 0
M  V30 1447 C 138.373 1.8562 -1.43466 0
M  V30 1448 C 139.389 1.70902 -0.326902 0
M  V30 1449 O 140.565 1.93105 -0.572043 0
M  V30 1450 C 137.63 3.21451 -1.29884 0
M  V30 1451 C 136.691 3.48398 -2.50833 0
M  V30 1452 C 135.924 4.77749 -2.3789 0
M  V30 1453 O 136.147 5.53089 -1.39459 0
M  V30 1454 O 135.081 5.05111 -3.27333 0
M  V30 1455 H 138.907 1.86155 -2.39958 0
M  V30 1456 H 136.492 0.86295 -1.21957 0
M  V30 1457 H 138.374 4.02579 -1.24531 0
M  V30 1458 H 137.049 3.21636 -0.364997 0
M  V30 1459 H 135.956 2.67265 -2.61763 0
M  V30 1460 H 137.289 3.53014 -3.4299 0
M  V30 1461 N 138.941 1.26152 0.944643 0
M  V30 1462 C 139.871 1.09902 2.06019 0
M  V30 1463 C 140.852 0.00519538 1.70099 0
M  V30 1464 O 142.037 0.176583 1.93396 0
M  V30 1465 C 139.167 0.727562 3.39594 0
M  V30 1466 C 138.121 1.77274 3.89561 0
M  V30 1467 C 137.447 1.25569 5.19747 0
M  V30 1468 C 138.747 3.17357 4.14827 0
M  V30 1469 H 140.441 2.03217 2.19871 0
M  V30 1470 H 137.987 0.978452 1.05652 0
M  V30 1471 H 139.94 0.600777 4.17095 0
M  V30 1472 H 138.664 -0.241287 3.25707 0
M  V30 1473 H 137.323 1.88814 3.14237 0
M  V30 1474 H 136.971 0.276783 5.02238 0
M  V30 1475 H 136.671 1.95433 5.54148 0
M  V30 1476 H 138.195 1.1415 5.99835 0
M  V30 1477 H 139.609 3.08914 4.82954 0
M  V30 1478 H 138.006 3.84781 4.60504 0
M  V30 1479 H 139.076 3.63673 3.20734 0
M  V30 1480 N 140.419 -1.14872 1.07899 0
M  V30 1481 C 141.329 -2.2341 0.715915 0
M  V30 1482 C 142.345 -1.71808 -0.275306 0
M  V30 1483 O 143.521 -2.01039 -0.120545 0
M  V30 1484 C 140.586 -3.46474 0.125168 0
M  V30 1485 C 139.647 -4.13039 1.17034 0
M  V30 1486 C 138.88 -5.30229 0.607688 0
M  V30 1487 O 139.103 -5.675 -0.574497 0
M  V30 1488 O 138.037 -5.86444 1.35526 0
M  V30 1489 H 141.863 -2.56808 1.62121 0
M  V30 1490 H 139.448 -1.22702 0.852322 0
M  V30 1491 H 141.33 -4.20917 -0.201729 0
M  V30 1492 H 140.005 -3.14811 -0.753364 0
M  V30 1493 H 138.912 -3.40493 1.54968 0
M  V30 1494 H 140.245 -4.48796 2.02097 0
M  V30 1495 N 141.898 -0.863906 -1.31812 0
M  V30 1496 C 142.846 -0.30422 -2.30602 0
M  V30 1497 C 143.84 0.577419 -1.59255 0
M  V30 1498 O 145.046 0.464194 -1.73912 0
M  V30 1499 H 141.421 -0.0796877 -0.747766 0
M  V30 1500 H 143.392 -1.15148 -2.75288 0
M  V30 1501 C 142.141 0.484617 -3.44306 0
M  V30 1502 H 141.464 -0.18451 -3.99374 0
M  V30 1503 H 142.904 0.841664 -4.15562 0
M  V30 1504 C 141.363 1.6735 -2.92396 0
M  V30 1505 O 141.893 2.77273 -2.90659 0
M  V30 1506 N 140.099 1.50362 -2.48676 0
M  V30 1507 H 139.646 0.609402 -2.50288 0
M  V30 1508 H 139.604 2.30051 -2.14299 0
M  V30 1509 N 143.376 1.44774 -0.622745 0
M  V30 1510 C 144.339 2.29069 0.0774015 0
M  V30 1511 C 145.339 1.4059 0.780461 0
M  V30 1512 O 146.529 1.62551 0.626322 0
M  V30 1513 C 143.661 3.21974 1.12006 0
M  V30 1514 H 144.854 2.92459 -0.663901 0
M  V30 1515 H 142.407 1.51548 -0.382486 0
M  V30 1516 H 143.142 2.63417 1.89162 0
M  V30 1517 H 142.927 3.87168 0.619951 0
M  V30 1518 H 144.417 3.85318 1.60995 0
M  V30 1519 N 144.854 0.36279 1.53368 0
M  V30 1520 C 146.131 -0.284021 1.93527 0
M  V30 1521 C 146.511 -1.66628 1.29608 0
M  V30 1522 O 145.859 -2.23942 0.45413 0
M  V30 1523 C 146.069 -0.337028 3.47369 0
M  V30 1524 C 147.417 -0.578708 4.20638 0
M  V30 1525 O 148.441 -0.418352 3.53735 0
M  V30 1526 O 147.3 -0.89074 5.39192 0
M  V30 1527 H 144.394 -0.169743 0.809393 0
M  V30 1528 H 146.94 0.41537 1.64538 0
M  V30 1529 H 145.712 0.632217 3.86159 0
M  V30 1530 H 145.335 -1.08243 3.82582 0
M  V30 1531 N 146.332 -1.57332 0.0918853 0
M  V30 1532 C 147.262 -2.16872 -0.865371 0
M  V30 1533 C 148.243 -1.10118 -1.29646 0
M  V30 1534 O 149.428 -1.38242 -1.36392 0
M  V30 1535 C 146.558 -2.74649 -2.12569 0
M  V30 1536 C 145.512 -3.86747 -1.83333 0
M  V30 1537 C 144.838 -4.31212 -3.16166 0
M  V30 1538 C 146.138 -5.10089 -1.1228 0
M  V30 1539 H 147.832 -2.97114 -0.369307 0
M  V30 1540 H 145.378 -1.42918 -0.176194 0
M  V30 1541 H 147.331 -3.14952 -2.7997 0
M  V30 1542 H 146.055 -1.91657 -2.64452 0
M  V30 1543 H 144.714 -3.46978 -1.18331 0
M  V30 1544 H 144.362 -3.45115 -3.6593 0
M  V30 1545 H 144.062 -5.06788 -2.97388 0
M  V30 1546 H 145.586 -4.74146 -3.84731 0
M  V30 1547 H 147 -5.47582 -1.69785 0
M  V30 1548 H 145.397 -5.91073 -1.03693 0
M  V30 1549 H 146.467 -4.84786 -0.105041 0
M  V30 1550 N 147.81 0.181792 -1.56548 0
M  V30 1551 C 149.056 0.901431 -1.81665 0
M  V30 1552 C 149.389 1.82347 -0.668075 0
M  V30 1553 O 148.664 1.91669 0.330615 0
M  V30 1554 C 148.947 1.70618 -3.17115 0
M  V30 1555 C 148.8 0.807964 -4.42484 0
M  V30 1556 C 150.119 2.67605 -3.49393 0
M  V30 1557 H 147.238 0.32627 -0.660846 0
M  V30 1558 H 149.88 0.168134 -1.89255 0
M  V30 1559 H 148.03 2.33133 -3.10775 0
M  V30 1560 H 149.702 0.19649 -4.60881 0
M  V30 1561 H 147.945 0.115411 -4.33646 0
M  V30 1562 H 148.616 1.40632 -5.33785 0
M  V30 1563 H 151.092 2.15218 -3.56118 0
M  V30 1564 H 149.968 3.20985 -4.45264 0
M  V30 1565 H 150.229 3.47298 -2.73563 0
M  V30 1566 N 149.288 1.51039 0.449983 0
M  V30 1567 C 150.534 1.63322 1.20223 0
M  V30 1568 C 150.867 0.34241 1.91158 0
M  V30 1569 O 150.142 -0.657344 1.83055 0
M  V30 1570 C 150.425 2.82801 2.22925 0
M  V30 1571 C 150.278 4.21823 1.56157 0
M  V30 1572 C 151.597 2.97807 3.24035 0
M  V30 1573 H 148.716 0.594407 0.435718 0
M  V30 1574 H 151.358 1.83489 0.493136 0
M  V30 1575 H 149.508 2.65738 2.834 0
M  V30 1576 H 151.18 4.50526 0.991162 0
M  V30 1577 H 149.423 4.25105 0.864172 0
M  V30 1578 H 150.094 5.01391 2.30891 0
M  V30 1579 H 152.57 3.13497 2.73603 0
M  V30 1580 H 151.446 3.82992 3.93202 0
M  V30 1581 H 151.707 2.09328 3.89402 0
M  V30 1582 N 150.766 -0.704594 1.40972 0
M  V30 1583 C 151.696 -1.83124 1.44872 0
M  V30 1584 C 152.677 -1.67281 0.30838 0
M  V30 1585 O 153.862 -1.87149 0.518556 0
M  V30 1586 C 150.992 -3.21181 1.32136 0
M  V30 1587 C 149.946 -3.51714 2.43888 0
M  V30 1588 C 149.272 -4.89032 2.16222 0
M  V30 1589 C 150.572 -3.516 3.86232 0
M  V30 1590 H 152.266 -1.80117 2.39161 0
M  V30 1591 H 149.812 -0.865145 1.15114 0
M  V30 1592 H 151.765 -3.99702 1.33479 0
M  V30 1593 H 150.489 -3.24791 0.343279 0
M  V30 1594 H 149.148 -2.75539 2.41813 0
M  V30 1595 H 148.796 -4.89256 1.16778 0
M  V30 1596 H 148.496 -5.10426 2.911 0
M  V30 1597 H 150.02 -5.69873 2.19265 0
M  V30 1598 H 151.434 -4.2014 3.9007 0
M  V30 1599 H 149.831 -3.84523 4.60719 0
M  V30 1600 H 150.901 -2.50757 4.15029 0
M  V30 1601 N 152.244 -1.26651 -0.937939 0
M  V30 1602 C 153.49 -1.13562 -1.68746 0
M  V30 1603 C 153.845 0.317241 -1.89767 0
M  V30 1604 O 153.138 1.22939 -1.46957 0
M  V30 1605 C 153.332 -1.84168 -3.06295 0
M  V30 1606 C 153.161 -3.36171 -2.98696 0
M  V30 1607 C 151.931 -4.05468 -3.01535 0
M  V30 1608 C 154.129 -4.32312 -2.78588 0
M  V30 1609 N 152.111 -5.44118 -2.84269 0
M  V30 1610 C 153.482 -5.58159 -2.69924 0
M  V30 1611 C 155.537 -4.22524 -2.63396 0
M  V30 1612 C 154.24 -6.75335 -2.47618 0
M  V30 1613 C 156.266 -5.39411 -2.42466 0
M  V30 1614 C 155.628 -6.64208 -2.34536 0
M  V30 1615 H 151.727 -0.470361 -0.624728 0
M  V30 1616 H 154.311 -1.59982 -1.10968 0
M  V30 1617 H 152.482 -1.40219 -3.62206 0
M  V30 1618 H 154.214 -1.63674 -3.70126 0
M  V30 1619 H 150.969 -3.56854 -3.11372 0
M  V30 1620 H 151.393 -6.1693 -2.78795 0
M  V30 1621 H 156.035 -3.26771 -2.68292 0
M  V30 1622 H 153.753 -7.71182 -2.41463 0
M  V30 1623 H 157.339 -5.33711 -2.31611 0
M  V30 1624 H 156.219 -7.53129 -2.18555 0
M  V30 1625 N 153.722 1.14298 -1.08507 0
M  V30 1626 C 154.95 1.89219 -0.836876 0
M  V30 1627 C 155.365 1.78638 0.611054 0
M  V30 1628 O 154.722 1.14643 1.41998 0
M  V30 1629 C 154.773 3.39158 -1.25116 0
M  V30 1630 O 154.494 3.49449 -2.64229 0
M  V30 1631 C 155.995 4.31073 -1.03398 0
M  V30 1632 H 153.215 0.599328 -0.301739 0
M  V30 1633 H 155.759 1.44746 -1.44461 0
M  V30 1634 H 153.914 3.81251 -0.687514 0
M  V30 1635 H 154.328 4.42589 -2.81452 0
M  V30 1636 H 155.802 5.34646 -1.37323 0
M  V30 1637 H 156.279 4.3919 0.0289259 0
M  V30 1638 H 156.885 3.94738 -1.58311 0
M  V30 1639 N 155.201 0.870884 1.31352 0
M  V30 1640 C 156.478 0.402907 1.91405 0
M  V30 1641 C 156.858 -1.11512 1.79244 0
M  V30 1642 O 156.206 -1.94411 1.2007 0
M  V30 1643 C 156.416 0.885301 3.37585 0
M  V30 1644 C 157.764 0.911971 4.14691 0
M  V30 1645 O 158.788 0.831016 3.46371 0
M  V30 1646 O 157.647 1.02927 5.3672 0
M  V30 1647 H 154.741 0.120698 0.818145 0
M  V30 1648 H 157.287 0.958857 1.40014 0
M  V30 1649 H 156.059 1.92889 3.40455 0
M  V30 1650 H 155.682 0.307714 3.96407 0
M  V30 1651 N 156.679 -1.44442 0.630414 0
M  V30 1652 C 157.927 -2.01653 0.134351 0
M  V30 1653 C 158.248 -1.49836 -1.24796 0
M  V30 1654 O 157.518 -0.701684 -1.82902 0
M  V30 1655 H 156.098 -0.74554 0.0466769 0
M  V30 1656 H 158.76 -1.76952 0.816955 0
M  V30 1657 H 157.856 -3.11935 0.101498 0
M  V30 1658 N 158.157 -0.370918 -1.53173 0
M  V30 1659 C 159.434 0.273754 -1.93675 0
M  V30 1660 C 159.814 1.65938 -1.3049 0
M  V30 1661 O 159.162 2.23698 -0.465999 0
M  V30 1662 C 159.372 0.318602 -3.47543 0
M  V30 1663 C 160.72 0.556392 -4.20939 0
M  V30 1664 O 161.744 0.399587 -3.53952 0
M  V30 1665 O 160.603 0.862133 -5.39657 0
M  V30 1666 H 157.697 0.165448 -0.810281 0
M  V30 1667 H 160.243 -0.42409 -1.64315 0
M  V30 1668 H 159.015 -0.652687 -3.85818 0
M  V30 1669 H 158.638 1.06212 -3.83151 0
M  V30 1670 N 159.635 1.57281 -0.100228 0
M  V30 1671 C 160.863 1.98879 0.570509 0
M  V30 1672 C 161.278 0.979476 1.61405 0
M  V30 1673 O 160.635 -0.0302288 1.82475 0
M  V30 1674 C 160.686 3.4052 1.2136 0
M  V30 1675 O 160.407 4.37588 0.211786 0
M  V30 1676 C 161.908 3.97149 1.96945 0
M  V30 1677 H 159.128 0.653428 0.152555 0
M  V30 1678 H 161.672 2.03697 -0.18103 0
M  V30 1679 H 159.827 3.367 1.91603 0
M  V30 1680 H 160.241 5.20118 0.676607 0
M  V30 1681 H 161.715 4.98393 2.37294 0
M  V30 1682 H 162.192 3.3525 2.83733 0
M  V30 1683 H 162.798 4.04458 1.31506 0
M  V30 1684 N 161.113 -0.173488 1.56642 0
M  V30 1685 C 162.076 -1.19859 1.95362 0
M  V30 1686 C 163.076 -1.37296 0.83704 0
M  V30 1687 O 164.266 -1.34739 1.10413 0
M  V30 1688 C 161.398 -2.56405 2.24654 0
M  V30 1689 H 162.591 -0.867062 2.87092 0
M  V30 1690 H 160.144 -0.415853 1.50666 0
M  V30 1691 H 160.879 -2.94576 1.35631 0
M  V30 1692 H 160.664 -2.45115 3.06041 0
M  V30 1693 H 162.154 -3.30287 2.5554 0
M  V30 1694 N 162.591 -1.51276 -0.441967 0
M  V30 1695 C 163.821 -1.67273 -1.21257 0
M  V30 1696 C 164.229 -0.367624 -1.85594 0
M  V30 1697 O 163.572 0.663349 -1.71305 0
M  V30 1698 C 163.634 -2.72807 -2.34129 0
M  V30 1699 C 163.298 -4.1554 -1.90198 0
M  V30 1700 C 164.295 -5.00471 -1.40801 0
M  V30 1701 C 161.98 -4.61616 -1.9803 0
M  V30 1702 C 163.974 -6.29536 -0.998174 0
M  V30 1703 C 161.661 -5.90679 -1.56658 0
M  V30 1704 C 162.659 -6.74466 -1.07633 0
M  V30 1705 O 162.347 -8.01116 -0.668459 0
M  V30 1706 H 162.079 -0.564614 -0.371734 0
M  V30 1707 H 164.633 -1.9843 -0.530521 0
M  V30 1708 H 162.863 -2.36954 -3.05597 0
M  V30 1709 H 164.552 -2.77729 -2.96009 0
M  V30 1710 H 165.318 -4.66079 -1.34148 0
M  V30 1711 H 161.197 -3.96526 -2.35135 0
M  V30 1712 H 164.741 -6.94885 -0.61482 0
M  V30 1713 H 160.638 -6.24586 -1.62979 0
M  V30 1714 H 161.406 -8.14633 -0.794722 0
M  V30 1715 N 164.069 0.697108 -1.41344 0
M  V30 1716 C 165.316 1.45714 -1.40619 0
M  V30 1717 C 165.644 1.94494 -0.0147907 0
M  V30 1718 O 164.899 1.69794 0.973066 0
M  V30 1719 C 165.198 2.68553 -2.35826 0
M  V30 1720 C 164.864 2.38438 -3.82698 0
M  V30 1721 C 163.526 2.29936 -4.22709 0
M  V30 1722 C 165.878 2.13567 -4.75435 0
M  V30 1723 C 163.206 1.94656 -5.53467 0
M  V30 1724 C 165.558 1.79797 -6.06511 0
M  V30 1725 C 164.222 1.69789 -6.45545 0
M  V30 1726 H 163.492 0.533206 -0.51456 0
M  V30 1727 H 166.139 0.796901 -1.74131 0
M  V30 1728 H 164.444 3.39503 -1.95563 0
M  V30 1729 H 166.141 3.2669 -2.32539 0
M  V30 1730 H 162.731 2.4595 -3.51008 0
M  V30 1731 H 166.915 2.19082 -4.45328 0
M  V30 1732 H 162.171 1.8546 -5.82593 0
M  V30 1733 H 166.345 1.59572 -6.77872 0
M  V30 1734 H 163.972 1.4222 -7.46778 0
M  V30 1735 N 165.547 1.27147 0.931209 0
M  V30 1736 C 166.51 1.09615 2.01289 0
M  V30 1737 C 167.51 0.0412581 1.60747 0
M  V30 1738 O 168.7 0.285545 1.71844 0
M  V30 1739 C 165.832 0.669447 3.34262 0
M  V30 1740 H 167.025 2.05662 2.18273 0
M  V30 1741 H 164.578 1.09885 1.11153 0
M  V30 1742 H 165.313 -0.292572 3.22978 0
M  V30 1743 H 165.098 1.43127 3.65044 0
M  V30 1744 H 166.588 0.568921 4.13706 0
M  V30 1745 N 167.025 -1.13721 1.09112 0
M  V30 1746 C 168.302 -1.81155 0.737706 0
M  V30 1747 C 168.682 -1.96253 -0.777683 0
M  V30 1748 O 168.03 -1.52807 -1.69889 0
M  V30 1749 C 168.24 -3.16392 1.47299 0
M  V30 1750 C 169.588 -3.91787 1.63671 0
M  V30 1751 O 170.612 -3.26005 1.43524 0
M  V30 1752 O 169.471 -5.0977 1.96969 0
M  V30 1753 H 166.565 -0.783518 0.26463 0
M  V30 1754 H 169.111 -1.20676 1.19312 0
M  V30 1755 H 167.883 -3.0061 2.50498 0
M  V30 1756 H 167.506 -3.8457 1.00953 0
M  V30 1757 N 168.503 -0.877838 -1.30888 0
M  V30 1758 C 169.466 -0.344265 -2.266 0
M  V30 1759 C 170.466 0.50922 -1.52524 0
M  V30 1760 O 171.656 0.317398 -1.71284 0
M  V30 1761 C 168.788 0.510198 -3.37061 0
M  V30 1762 H 169.981 -1.1893 -2.7531 0
M  V30 1763 H 167.534 -0.654088 -1.41956 0
M  V30 1764 H 168.269 1.37612 -2.93655 0
M  V30 1765 H 168.054 -0.101047 -3.9197 0
M  V30 1766 H 169.544 0.875537 -4.08319 0
M  V30 1767 N 169.982 1.44106 -0.638065 0
M  V30 1768 C 171.228 2.02815 -0.15409 0
M  V30 1769 C 171.583 1.49342 1.21304 0
M  V30 1770 O 170.876 0.670699 1.79478 0
M  V30 1771 C 171.07 3.5729 -0.0887327 0
M  V30 1772 C 170.899 4.2575 -1.44799 0
M  V30 1773 C 169.669 4.62443 -2.03653 0
M  V30 1774 C 171.867 4.55746 -2.38327 0
M  V30 1775 N 169.849 5.15903 -3.32741 0
M  V30 1776 C 171.22 5.10364 -3.52036 0
M  V30 1777 C 173.275 4.37703 -2.3732 0
M  V30 1778 C 171.978 5.48837 -4.64941 0
M  V30 1779 C 174.004 4.77229 -3.49294 0
M  V30 1780 C 173.366 5.31966 -4.61726 0
M  V30 1781 H 169.465 0.775519 -0.100466 0
M  V30 1782 H 172.049 1.755 -0.843071 0
M  V30 1783 H 170.22 3.84201 0.569548 0
M  V30 1784 H 171.952 4.02671 0.404711 0
M  V30 1785 H 168.707 4.46987 -1.56523 0
M  V30 1786 H 169.131 5.47102 -3.98758 0
M  V30 1787 H 173.773 3.94671 -1.51641 0
M  V30 1788 H 171.491 5.9082 -5.51323 0
M  V30 1789 H 175.077 4.64976 -3.49698 0
M  V30 1790 H 173.957 5.61986 -5.46939 0
M  V30 1791 N 171.46 0.379036 1.52974 0
M  V30 1792 C 172.685 -0.209353 2.06341 0
M  V30 1793 C 173.11 -1.40583 1.24972 0
M  V30 1794 O 172.468 -1.79246 0.272155 0
M  V30 1795 C 172.516 -0.567786 3.56102 0
M  V30 1796 O 171.62 -1.66318 3.77375 0
M  V30 1797 H 170.961 -0.0272919 0.663439 0
M  V30 1798 H 173.491 0.543536 1.97248 0
M  V30 1799 H 173.501 -0.835003 3.99364 0
M  V30 1800 H 172.176 0.307013 4.14765 0
M  V30 1801 H 170.753 -1.39048 3.46006 0
M  V30 1802 N 172.938 -1.57226 0.108567 0
M  V30 1803 C 174.215 -1.86333 -0.594939 0
M  V30 1804 C 174.595 -1.00788 -1.85486 0
M  V30 1805 O 173.943 -0.0839293 -2.28346 0
M  V30 1806 C 174.153 -3.37265 -0.897405 0
M  V30 1807 C 175.501 -4.05629 -1.25501 0
M  V30 1808 O 176.525 -3.42224 -0.987998 0
M  V30 1809 O 175.384 -5.17531 -1.75567 0
M  V30 1810 H 172.478 -0.771018 -0.2991 0
M  V30 1811 H 175.024 -1.69102 0.142283 0
M  V30 1812 H 173.796 -3.913 -0.00413806 0
M  V30 1813 H 173.419 -3.59889 -1.69014 0
M  V30 1814 N 174.416 0.165178 -1.56732 0
M  V30 1815 C 175.348 1.22911 -1.93457 0
M  V30 1816 C 176.361 1.40152 -0.828333 0
M  V30 1817 O 177.55 1.40046 -1.10677 0
M  V30 1818 C 174.65 2.59686 -2.17753 0
M  V30 1819 C 173.823 2.63663 -3.48999 0
M  V30 1820 C 172.882 3.81845 -3.62051 0
M  V30 1821 O 171.908 3.67559 -4.34613 0
M  V30 1822 N 173.11 4.98557 -2.97357 0
M  V30 1823 H 175.875 0.917118 -2.85323 0
M  V30 1824 H 173.436 0.354895 -1.57962 0
M  V30 1825 H 175.428 3.37225 -2.23743 0
M  V30 1826 H 173.998 2.83251 -1.32242 0
M  V30 1827 H 173.218 1.72173 -3.54612 0
M  V30 1828 H 174.506 2.63336 -4.35352 0
M  V30 1829 H 173.904 5.13065 -2.38287 0
M  V30 1830 H 172.461 5.73936 -3.08934 0
M  V30 1831 N 175.894 1.51508 0.433938 0
M  V30 1832 C 176.841 1.73068 1.52696 0
M  V30 1833 C 177.811 0.572441 1.55924 0
M  V30 1834 O 178.996 0.807253 1.72882 0
M  V30 1835 C 176.136 1.86474 2.90381 0
M  V30 1836 C 175.249 3.14037 2.96656 0
M  V30 1837 C 174.384 3.18019 4.25485 0
M  V30 1838 C 173.423 4.39882 4.2564 0
M  V30 1839 N 172.56 4.41394 5.45999 0
M  V30 1840 H 177.4 2.66366 1.33615 0
M  V30 1841 H 174.937 1.32008 0.649018 0
M  V30 1842 H 176.895 1.92229 3.70275 0
M  V30 1843 H 175.525 0.965809 3.08013 0
M  V30 1844 H 174.577 3.17575 2.09404 0
M  V30 1845 H 175.889 4.0394 2.92633 0
M  V30 1846 H 175.043 3.22708 5.13755 0
M  V30 1847 H 173.782 2.2601 4.3217 0
M  V30 1848 H 172.787 4.35366 3.35763 0
M  V30 1849 H 174.012 5.33159 4.20617 0
M  V30 1850 H 171.958 3.52258 5.53399 0
M  V30 1851 H 171.875 5.25111 5.4387 0
M  V30 1852 H 173.143 4.50281 6.36292 0
M  V30 1853 N 177.372 -0.689602 1.41712 0
M  V30 1854 C 178.62 -1.4468 1.4111 0
M  V30 1855 C 178.941 -1.94986 0.0232196 0
M  V30 1856 O 178.211 -1.72097 -0.935913 0
M  V30 1857 H 176.791 -0.536847 0.519427 0
M  V30 1858 H 179.453 -0.815825 1.77004 0
M  V30 1859 H 178.549 -2.30706 2.10193 0
M  V30 1860 N 178.85 -1.27639 -0.924453 0
M  V30 1861 C 179.782 -1.06442 -2.02985 0
M  V30 1862 C 180.795 -0.0194771 -1.62788 0
M  V30 1863 O 181.984 -0.261388 -1.76576 0
M  V30 1864 C 179.084 -0.59327 -3.33667 0
M  V30 1865 C 178.257 -1.71123 -4.02537 0
M  V30 1866 C 177.316 -1.23527 -5.11495 0
M  V30 1867 O 176.342 -1.93553 -5.35281 0
M  V30 1868 N 177.544 -0.0926678 -5.80426 0
M  V30 1869 H 180.309 -2.01633 -2.2173 0
M  V30 1870 H 177.87 -1.19248 -1.09505 0
M  V30 1871 H 179.862 -0.258686 -4.03872 0
M  V30 1872 H 178.432 0.265502 -3.1147 0
M  V30 1873 H 177.652 -2.21593 -3.26022 0
M  V30 1874 H 178.94 -2.46145 -4.45298 0
M  V30 1875 H 178.338 0.491741 -5.63559 0
M  V30 1876 H 176.895 0.182714 -6.51544 0
M  V30 1877 N 180.328 1.1314 -1.09713 0
M  V30 1878 C 181.577 1.83838 -0.829851 0
M  V30 1879 C 181.89 1.84599 0.646728 0
M  V30 1880 O 183.096 2.51218 1.02965 0
M  V30 1881 C 181.552 3.30069 -1.43466 0
M  V30 1882 C 181.16 3.37688 -2.94399 0
M  V30 1883 C 182.904 4.05788 -1.24645 0
M  V30 1884 C 180.811 4.78209 -3.47952 0
M  V30 1885 H 179.741 0.68877 -0.306777 0
M  V30 1886 H 182.392 1.27448 -1.3202 0
M  V30 1887 H 180.774 3.8628 -0.871996 0
M  V30 1888 H 181.948 2.91456 -3.56918 0
M  V30 1889 H 180.263 2.75436 -3.12289 0
M  V30 1890 H 182.86 5.09535 -1.62107 0
M  V30 1891 H 183.203 4.15878 -0.187357 0
M  V30 1892 H 183.736 3.55915 -1.77678 0
M  V30 1893 H 180.475 4.73311 -4.53495 0
M  V30 1894 H 179.995 5.24924 -2.90198 0
M  V30 1895 H 181.674 5.47133 -3.45332 0
M  V30 1896 N 181.806 0.884767 1.30421 0
M  V30 1897 C 182.756 0.322846 2.25703 0
M  V30 1898 C 183.74 -0.548582 1.51259 0
M  V30 1899 O 184.932 -0.39304 1.72581 0
M  V30 1900 C 182.061 -0.461787 3.4018 0
M  V30 1901 C 181.147 0.423717 4.21978 0
M  V30 1902 N 181.538 1.52408 4.82292 0
M  V30 1903 C 179.836 0.218795 4.45463 0
M  V30 1904 C 180.537 2.07136 5.43571 0
M  V30 1905 N 179.513 1.36635 5.26148 0
M  V30 1906 H 183.315 1.16363 2.69883 0
M  V30 1907 H 180.829 0.73415 1.44859 0
M  V30 1908 H 182.826 -0.880985 4.07485 0
M  V30 1909 H 181.486 -1.30001 2.9754 0
M  V30 1910 H 182.497 1.90693 4.81515 0
M  V30 1911 H 179.174 -0.582275 4.1342 0
M  V30 1912 H 180.564 2.99538 6.01437 0
M  V30 1913 N 183.284 -1.43765 0.645699 0
M  V30 1914 C 184.214 -2.33471 -0.0370477 0
M  V30 1915 C 185.195 -1.49042 -0.819779 0
M  V30 1916 O 186.38 -1.77726 -0.782758 0
M  V30 1917 C 183.51 -3.32311 -1.0093 0
M  V30 1918 C 182.464 -4.2667 -0.337201 0
M  V30 1919 C 181.79 -5.1549 -1.42037 0
M  V30 1920 C 183.09 -5.16657 0.765706 0
M  V30 1921 H 184.784 -2.90809 0.712069 0
M  V30 1922 H 182.33 -1.39834 0.343876 0
M  V30 1923 H 184.283 -3.9396 -1.49578 0
M  V30 1924 H 183.007 -2.73213 -1.78948 0
M  V30 1925 H 181.666 -3.66374 0.128771 0
M  V30 1926 H 181.314 -4.52735 -2.1918 0
M  V30 1927 H 181.014 -5.79438 -0.975966 0
M  V30 1928 H 182.538 -5.80012 -1.90838 0
M  V30 1929 H 183.952 -5.72158 0.361702 0
M  V30 1930 H 182.349 -5.89286 1.13413 0
M  V30 1931 H 183.419 -4.56796 1.62683 0
M  V30 1932 N 184.763 -0.387143 -1.52771 0
M  V30 1933 C 186.04 0.253197 -1.93954 0
M  V30 1934 C 186.42 1.64545 -1.32243 0
M  V30 1935 O 185.768 2.23191 -0.489699 0
M  V30 1936 C 185.978 0.281722 -3.47861 0
M  V30 1937 C 187.326 0.511715 -4.21505 0
M  V30 1938 O 188.35 0.362023 -3.54356 0
M  V30 1939 O 187.209 0.804847 -5.40541 0
M  V30 1940 H 184.303 0.156845 -0.811991 0
M  V30 1941 H 186.849 -0.441494 -1.63856 0
M  V30 1942 H 185.621 -0.693571 -3.85104 0
M  V30 1943 H 185.244 1.02142 -3.84256 0
M  V30 1944 N 186.241 1.57166 -0.116904 0
M  V30 1945 C 187.652 1.82169 0.408809 0
M  V30 1946 C 188.003 1.03393 1.66746 0
M  V30 1947 O 187.128 0.269886 2.1471 0
M  V30 1948 C 187.723 3.30429 0.748466 0
M  V30 1949 C 186.282 3.5612 1.21882 0
M  V30 1950 C 185.429 2.76374 0.226452 0
M  V30 1951 H 188.38 1.5497 -0.342063 0
M  V30 1952 H 188.401 3.44943 1.60607 0
M  V30 1953 H 187.913 3.87737 -0.167784 0
M  V30 1954 H 186.014 3.04168 2.15204 0
M  V30 1955 H 186.127 4.64705 1.16559 0
M  V30 1956 H 184.491 2.44515 0.713063 0
M  V30 1957 H 185.274 3.3644 -0.682859 0
M  V30 1958 N 187.719 -0.156864 1.56817 0
M  V30 1959 C 188.651 -1.21883 1.94106 0
M  V30 1960 C 189.664 -1.3971 0.835754 0
M  V30 1961 O 190.853 -1.39457 1.11418 0
M  V30 1962 C 187.953 -2.58527 2.19127 0
M  V30 1963 C 187.126 -2.61809 3.50393 0
M  V30 1964 C 186.185 -3.7992 3.64071 0
M  V30 1965 O 185.211 -3.65249 4.36557 0
M  V30 1966 N 186.413 -4.96973 2.99997 0
M  V30 1967 H 189.178 -0.901974 2.85805 0
M  V30 1968 H 186.739 -0.346513 1.58148 0
M  V30 1969 H 188.731 -3.36034 2.25529 0
M  V30 1970 H 187.301 -2.82545 1.33742 0
M  V30 1971 H 186.521 -1.7029 3.5552 0
M  V30 1972 H 187.809 -2.61024 4.36742 0
M  V30 1973 H 187.207 -5.11794 2.41004 0
M  V30 1974 H 185.764 -5.7229 3.11974 0
M  V30 1975 N 189.197 -1.51736 -0.425897 0
M  V30 1976 C 190.129 -1.70083 -1.53638 0
M  V30 1977 C 191.142 -0.581349 -1.52066 0
M  V30 1978 O 192.331 -0.856017 -1.56635 0
M  V30 1979 C 189.431 -1.71078 -2.9255 0
M  V30 1980 C 188.604 -2.99795 -3.185 0
M  V30 1981 C 187.663 -2.92825 -4.37196 0
M  V30 1982 O 186.689 -3.66756 -4.35291 0
M  V30 1983 N 187.891 -2.0946 -5.41393 0
M  V30 1984 H 190.656 -2.65882 -1.383 0
M  V30 1985 H 188.217 -1.49765 -0.614988 0
M  V30 1986 H 190.209 -1.63969 -3.69995 0
M  V30 1987 H 188.779 -0.828242 -3.01428 0
M  V30 1988 H 187.999 -3.20684 -2.2925 0
M  V30 1989 H 189.287 -3.84977 -3.32671 0
M  V30 1990 H 188.685 -1.48792 -5.45781 0
M  V30 1991 H 187.242 -2.08221 -6.17647 0
M  V30 1992 N 190.675 0.682077 -1.42076 0
M  V30 1993 C 191.952 1.43755 -1.32642 0
M  V30 1994 C 192.332 2.11063 0.0396611 0
M  V30 1995 O 191.68 2.02701 1.05474 0
M  V30 1996 C 191.89 2.44596 -2.48946 0
M  V30 1997 C 193.238 3.09454 -2.9073 0
M  V30 1998 O 194.262 2.54922 -2.48783 0
M  V30 1999 O 193.121 4.08253 -3.63307 0
M  V30 2000 H 190.215 0.640857 -0.522715 0
M  V30 2001 H 192.761 0.711415 -1.54068 0
M  V30 2002 H 191.533 1.93609 -3.40046 0
M  V30 2003 H 191.156 3.24701 -2.29467 0
M  V30 2004 N 192.153 1.28127 0.917671 0
M  V30 2005 C 193.383 1.17722 1.6978 0
M  V30 2006 C 193.791 -0.267261 1.87303 0
M  V30 2007 O 193.134 -1.19286 1.39702 0
M  V30 2008 C 193.196 1.79958 3.11216 0
M  V30 2009 C 192.86 3.29187 3.16993 0
M  V30 2010 C 193.857 4.25679 2.98485 0
M  V30 2011 C 191.542 3.70075 3.39632 0
M  V30 2012 C 193.536 5.61035 3.02521 0
M  V30 2013 C 191.223 5.05557 3.433 0
M  V30 2014 C 192.221 6.00847 3.24764 0
M  V30 2015 O 191.909 7.33859 3.28187 0
M  V30 2016 H 191.641 0.409788 0.537634 0
M  V30 2017 H 194.195 1.69694 1.15728 0
M  V30 2018 H 192.425 1.22475 3.66793 0
M  V30 2019 H 194.114 1.64125 3.71238 0
M  V30 2020 H 194.88 3.95426 2.80826 0
M  V30 2021 H 190.759 2.96373 3.53106 0
M  V30 2022 H 194.303 6.35388 2.87971 0
M  V30 2023 H 190.2 5.35462 3.60486 0
M  V30 2024 H 190.968 7.42436 3.44575 0
M  V30 2025 N 193.631 -1.12557 1.10312 0
M  V30 2026 C 194.563 -2.17971 0.708625 0
M  V30 2027 C 195.576 -1.60806 -0.254027 0
M  V30 2028 O 196.765 -1.78458 -0.0386891 0
M  V30 2029 C 193.865 -3.38891 0.0248198 0
M  V30 2030 C 193.038 -4.25548 1.01132 0
M  V30 2031 C 192.097 -5.24972 0.35924 0
M  V30 2032 O 191.123 -5.60174 1.00965 0
M  V30 2033 N 192.325 -5.73747 -0.882847 0
M  V30 2034 H 195.09 -2.52427 1.61557 0
M  V30 2035 H 192.651 -1.27967 0.991771 0
M  V30 2036 H 194.643 -4.02485 -0.422852 0
M  V30 2037 H 193.213 -3.02596 -0.784514 0
M  V30 2038 H 192.433 -3.58589 1.6373 0
M  V30 2039 H 193.721 -4.80294 1.67914 0
M  V30 2040 H 193.119 -5.4731 -1.43065 0
M  V30 2041 H 191.676 -6.39234 -1.27369 0
M  V30 2042 N 195.109 -0.891671 -1.2995 0
M  V30 2043 C 196.039 -0.379797 -2.30391 0
M  V30 2044 C 197.02 0.540919 -1.6127 0
M  V30 2045 O 198.205 0.453352 -1.88834 0
M  V30 2046 C 195.335 0.400654 -3.44981 0
M  V30 2047 C 194.289 -0.428905 -4.25846 0
M  V30 2048 C 193.615 0.478557 -5.32554 0
M  V30 2049 C 194.915 -1.67458 -4.94727 0
M  V30 2050 H 196.609 -1.21914 -2.73454 0
M  V30 2051 H 194.155 -0.587675 -1.31462 0
M  V30 2052 H 196.108 0.769434 -4.14316 0
M  V30 2053 H 194.832 1.27371 -3.0074 0
M  V30 2054 H 193.491 -0.779911 -3.58208 0
M  V30 2055 H 193.139 1.34951 -4.84559 0
M  V30 2056 H 192.839 -0.0727433 -5.87555 0
M  V30 2057 H 194.363 0.843705 -6.04743 0
M  V30 2058 H 195.777 -1.376 -5.56542 0
M  V30 2059 H 194.174 -2.16659 -5.59624 0
M  V30 2060 H 195.244 -2.41518 -4.20473 0
M  V30 2061 N 196.587 1.43421 -0.653314 0
M  V30 2062 C 197.517 2.33487 0.0246656 0
M  V30 2063 C 198.498 1.49475 0.811863 0
M  V30 2064 O 199.683 1.78139 0.773322 0
M  V30 2065 C 196.813 3.32841 0.99166 0
M  V30 2066 C 195.767 4.26842 0.314568 0
M  V30 2067 C 195.093 5.16236 1.39302 0
M  V30 2068 C 196.393 5.16243 -0.793095 0
M  V30 2069 H 198.087 2.90427 -0.727481 0
M  V30 2070 H 195.633 1.39649 -0.351287 0
M  V30 2071 H 197.586 3.94747 1.47487 0
M  V30 2072 H 196.31 2.74158 1.77497 0
M  V30 2073 H 194.969 3.663 -0.148199 0
M  V30 2074 H 194.617 4.53891 2.16776 0
M  V30 2075 H 194.317 5.79948 0.945223 0
M  V30 2076 H 195.841 5.81015 1.87759 0
M  V30 2077 H 197.255 5.71958 -0.392039 0
M  V30 2078 H 195.652 5.88676 -1.16536 0
M  V30 2079 H 196.722 4.55927 -1.65103 0
M  V30 2080 N 198.065 0.39524 1.52563 0
M  V30 2081 C 198.997 -0.472201 2.24283 0
M  V30 2082 C 200.01 -1.02178 1.26742 0
M  V30 2083 O 201.199 -0.923097 1.52778 0
M  V30 2084 C 198.299 -1.66775 2.95024 0
M  V30 2085 C 197.472 -1.2445 4.19322 0
M  V30 2086 C 196.531 -2.30539 4.7301 0
M  V30 2087 O 195.557 -1.91702 5.35947 0
M  V30 2088 N 196.759 -3.6253 4.53379 0
M  V30 2089 H 199.524 0.142282 2.99362 0
M  V30 2090 H 197.085 0.2219 1.60372 0
M  V30 2091 H 199.077 -2.37283 3.27839 0
M  V30 2092 H 197.647 -2.18845 2.23217 0
M  V30 2093 H 196.867 -0.368069 3.92478 0
M  V30 2094 H 198.155 -0.938457 5.0007 0
M  V30 2095 H 197.553 -3.96841 4.03154 0
M  V30 2096 H 196.11 -4.29055 4.90668 0
M  V30 2097 N 199.544 -1.57102 0.125237 0
M  V30 2098 C 200.79 -1.95697 -0.532035 0
M  V30 2099 C 201.123 -1.009 -1.6593 0
M  V30 2100 O 200.398 -0.047347 -1.94442 0
M  V30 2101 C 200.681 -3.44181 -1.05884 0
M  V30 2102 C 200.534 -4.49752 0.0654392 0
M  V30 2103 C 201.853 -3.94655 -1.9477 0
M  V30 2104 H 198.972 -0.711571 -0.191925 0
M  V30 2105 H 201.614 -1.88923 0.20206 0
M  V30 2106 H 199.764 -3.50085 -1.68442 0
M  V30 2107 H 201.436 -4.55943 0.700982 0
M  V30 2108 H 199.679 -4.27653 0.727709 0
M  V30 2109 H 200.35 -5.50924 -0.344505 0
M  V30 2110 H 202.826 -3.91094 -1.42074 0
M  V30 2111 H 201.702 -4.99057 -2.28546 0
M  V30 2112 H 201.963 -3.35718 -2.87656 0
M  V30 2113 N 201.022 0.148545 -1.56898 0
M  V30 2114 C 201.954 1.20852 -1.9475 0
M  V30 2115 C 202.967 1.39265 -0.843152 0
M  V30 2116 O 204.156 1.38864 -1.12156 0
M  V30 2117 C 201.256 2.57362 -2.20495 0
M  V30 2118 C 200.429 2.59947 -3.51776 0
M  V30 2119 C 199.488 3.77984 -3.6608 0
M  V30 2120 O 198.514 3.62929 -4.38487 0
M  V30 2121 N 199.716 4.95375 -3.02629 0
M  V30 2122 H 202.481 0.886804 -2.86279 0
M  V30 2123 H 200.042 0.338121 -1.5833 0
M  V30 2124 H 202.034 3.34833 -2.27307 0
M  V30 2125 H 200.604 2.81832 -1.35238 0
M  V30 2126 H 199.824 1.68403 -3.56419 0
M  V30 2127 H 201.112 2.58704 -4.38121 0
M  V30 2128 H 200.51 5.10509 -2.43715 0
M  V30 2129 H 199.067 5.70627 -3.15004 0
M  V30 2130 N 202.5 1.5196 0.417844 0
M  V30 2131 C 203.916 1.40569 0.755816 0
M  V30 2132 C 204.116 0.503316 1.95113 0
M  V30 2133 O 203.172 -0.0341925 2.52477 0
M  V30 2134 C 204.485 2.82947 1.01791 0
M  V30 2135 C 206.033 2.92231 1.12116 0
M  V30 2136 C 206.508 4.35559 1.41608 0
M  V30 2137 N 207.999 4.38753 1.48491 0
M  V30 2138 C 208.734 5.46705 1.7292 0
M  V30 2139 N 208.23 6.64788 1.95011 0
M  V30 2140 N 210.023 5.34209 1.74863 0
M  V30 2141 H 202.174 2.09168 -0.369098 0
M  V30 2142 H 204.437 0.942409 -0.102809 0
M  V30 2143 H 204.143 3.5106 0.212081 0
M  V30 2144 H 204.017 3.23462 1.94042 0
M  V30 2145 H 206.404 2.24304 1.9176 0
M  V30 2146 H 206.485 2.55185 0.177225 0
M  V30 2147 H 206.129 5.04042 0.624848 0
M  V30 2148 H 206.059 4.70133 2.37239 0
M  V30 2149 H 208.55 3.5363 1.33244 0
M  V30 2150 H 208.863 7.42845 2.13076 0
M  V30 2151 H 207.208 6.67869 1.92293 0
M  V30 2152 H 210.399 4.40937 1.57137 0
M  V30 2153 H 210.572 6.18415 1.93563 0
M  V30 2154 N 203.978 -0.674533 1.42435 0
M  V30 2155 C 205.206 -1.46283 1.46317 0
M  V30 2156 C 205.621 -1.88653 0.0745836 0
M  V30 2157 O 204.978 -1.58151 -0.91074 0
M  V30 2158 C 205.029 -2.71178 2.3905 0
M  V30 2159 O 204.75 -2.30586 3.72507 0
M  V30 2160 C 206.251 -3.64738 2.51955 0
M  V30 2161 H 203.471 -0.450104 0.497642 0
M  V30 2162 H 206.015 -0.828792 1.86953 0
M  V30 2163 H 204.17 -3.3077 2.01667 0
M  V30 2164 H 204.584 -3.11241 4.22172 0
M  V30 2165 H 206.058 -4.49096 3.20962 0
M  V30 2166 H 206.535 -4.10656 1.55752 0
M  V30 2167 H 207.141 -3.11038 2.90061 0
M  V30 2168 N 205.456 -1.28612 -0.910864 0
M  V30 2169 C 206.867 -1.14406 -1.47541 0
M  V30 2170 C 207.218 0.264901 -1.94403 0
M  V30 2171 O 206.343 1.15942 -1.82719 0
M  V30 2172 C 206.938 -2.07073 -2.68153 0
M  V30 2173 C 205.497 -1.96923 -3.20778 0
M  V30 2174 C 204.644 -1.98646 -1.93481 0
M  V30 2175 H 207.595 -1.41259 -0.723291 0
M  V30 2176 H 207.616 -1.63642 -3.43514 0
M  V30 2177 H 207.128 -3.09611 -2.34015 0
M  V30 2178 H 205.229 -0.97433 -3.59635 0
M  V30 2179 H 205.342 -2.84026 -3.85832 0
M  V30 2180 H 203.706 -1.43093 -2.10705 0
M  V30 2181 H 204.489 -3.02868 -1.61634 0
M  V30 2182 N 206.934 1.1197 -1.10907 0
M  V30 2183 C 207.844 2.21433 -0.774896 0
M  V30 2184 C 208.86 1.72478 0.229657 0
M  V30 2185 O 210.036 2.01288 0.0672008 0
M  V30 2186 C 207.101 3.4602 -0.216986 0
M  V30 2187 C 206.162 4.09791 -1.27944 0
M  V30 2188 C 205.395 5.28431 -0.748055 0
M  V30 2189 O 205.618 5.68823 0.423833 0
M  V30 2190 O 204.552 5.82644 -1.51027 0
M  V30 2191 H 208.378 2.5242 -1.68873 0
M  V30 2192 H 205.963 1.20399 -0.884555 0
M  V30 2193 H 207.845 4.21304 0.090059 0
M  V30 2194 H 206.52 3.16698 0.669633 0
M  V30 2195 H 205.427 3.36265 -1.63941 0
M  V30 2196 H 206.76 4.4328 -2.13925 0
M  V30 2197 N 208.412 0.89855 1.29475 0
M  V30 2198 C 209.66 0.522847 1.9522 0
M  V30 2199 C 209.981 -0.93371 1.71192 0
M  V30 2200 O 209.251 -1.65823 1.04305 0
M  V30 2201 H 207.831 0.190366 0.722336 0
M  V30 2202 H 210.493 1.14459 1.5775 0
M  V30 2203 H 209.589 0.704476 3.04045 0
M  V30 2204 N 209.89 -1.43072 0.660911 0
M  V30 2205 C 210.82 -2.33497 -0.0122829 0
M  V30 2206 C 211.801 -1.49903 -0.803925 0
M  V30 2207 O 212.986 -1.78546 -0.763864 0
M  V30 2208 C 210.116 -3.33363 -0.973994 0
M  V30 2209 C 209.07 -4.27003 -0.291928 0
M  V30 2210 C 208.396 -5.16967 -1.36562 0
M  V30 2211 C 209.696 -5.15816 0.820462 0
M  V30 2212 H 211.39 -2.90038 0.742873 0
M  V30 2213 H 208.936 -1.39461 0.358688 0
M  V30 2214 H 210.889 -3.95524 -1.45392 0
M  V30 2215 H 209.613 -2.75095 -1.7604 0
M  V30 2216 H 208.272 -3.66217 0.167623 0
M  V30 2217 H 207.92 -4.55034 -2.14366 0
M  V30 2218 H 207.62 -5.80441 -0.914454 0
M  V30 2219 H 209.144 -5.82003 -1.84675 0
M  V30 2220 H 210.558 -5.71742 0.422366 0
M  V30 2221 H 208.955 -5.8805 1.19656 0
M  V30 2222 H 210.025 -4.55045 1.67518 0
M  V30 2223 N 211.368 -0.403325 -1.52352 0
M  V30 2224 C 212.596 0.174012 -2.06167 0
M  V30 2225 C 213.011 1.39347 -1.27388 0
M  V30 2226 O 212.368 1.79597 -0.324201 0
M  V30 2227 C 212.419 0.530223 -3.5759 0
M  V30 2228 O 212.14 -0.640806 -4.33388 0
M  V30 2229 C 213.641 1.16192 -4.27802 0
M  V30 2230 H 210.861 0.0229464 -0.670608 0
M  V30 2231 H 213.405 -0.572604 -1.9632 0
M  V30 2232 H 211.56 1.22673 -3.67464 0
M  V30 2233 H 211.974 -0.344851 -5.23365 0
M  V30 2234 H 213.448 1.36141 -5.34948 0
M  V30 2235 H 213.925 2.13335 -3.83907 0
M  V30 2236 H 214.531 0.505775 -4.22282 0
M  V30 2237 N 212.846 1.57033 -0.133567 0
M  V30 2238 C 213.776 2.1909 0.807567 0
M  V30 2239 C 214.757 1.13517 1.26681 0
M  V30 2240 O 215.942 1.41809 1.32679 0
M  V30 2241 C 213.072 2.80188 2.05212 0
M  V30 2242 C 212.026 3.91471 1.73015 0
M  V30 2243 C 211.352 4.39443 3.04622 0
M  V30 2244 C 212.652 5.12886 0.987168 0
M  V30 2245 H 214.346 2.97988 0.290403 0
M  V30 2246 H 211.892 1.43335 0.138239 0
M  V30 2247 H 213.845 3.22264 2.71521 0
M  V30 2248 H 212.569 1.98601 2.59278 0
M  V30 2249 H 211.228 3.49993 1.0909 0
M  V30 2250 H 210.876 3.54695 3.56651 0
M  V30 2251 H 210.576 5.14495 2.83847 0
M  V30 2252 H 212.1 4.8418 3.72024 0
M  V30 2253 H 213.514 5.51891 1.55208 0
M  V30 2254 H 211.911 5.93615 0.87985 0
M  V30 2255 H 212.981 4.84894 -0.0235286 0
M  V30 2256 N 214.325 -0.140222 1.56975 0
M  V30 2257 C 215.255 -1.17456 2.01808 0
M  V30 2258 C 216.236 -1.44415 0.898794 0
M  V30 2259 O 217.421 -1.5522 1.16707 0
M  V30 2260 C 214.551 -2.50607 2.40444 0
M  V30 2261 C 213.505 -2.38155 3.55621 0
M  V30 2262 C 212.831 -3.76078 3.80091 0
M  V30 2263 C 214.131 -1.85991 4.88062 0
M  V30 2264 H 215.825 -0.801743 2.88466 0
M  V30 2265 H 213.371 -0.38422 1.38779 0
M  V30 2266 H 215.324 -3.23197 2.7041 0
M  V30 2267 H 214.048 -2.89737 1.50732 0
M  V30 2268 H 212.707 -1.68016 3.25832 0
M  V30 2269 H 212.355 -4.12656 2.87618 0
M  V30 2270 H 212.055 -3.68606 4.57606 0
M  V30 2271 H 213.579 -4.50206 4.12488 0
M  V30 2272 H 214.993 -2.4838 5.16701 0
M  V30 2273 H 213.39 -1.89393 5.6943 0
M  V30 2274 H 214.46 -0.816023 4.77984 0
M  V30 2275 N 215.803 -1.52179 -0.40978 0
M  V30 2276 C 217.05 -1.66206 -1.15679 0
M  V30 2277 C 217.378 -0.391674 -1.90516 0
M  V30 2278 O 216.633 0.62533 -1.8544 0
M  V30 2279 C 216.932 -2.83428 -2.17723 0
M  V30 2280 C 216.598 -4.21672 -1.59699 0
M  V30 2281 C 215.26 -4.59274 -1.43599 0
M  V30 2282 C 217.612 -5.07825 -1.17317 0
M  V30 2283 C 214.94 -5.80709 -0.836328 0
M  V30 2284 C 217.292 -6.29864 -0.587691 0
M  V30 2285 C 215.956 -6.66216 -0.413818 0
M  V30 2286 H 215.226 -0.608192 -0.423301 0
M  V30 2287 H 217.873 -1.86279 -0.444097 0
M  V30 2288 H 216.178 -2.57687 -2.95135 0
M  V30 2289 H 217.875 -2.91477 -2.75394 0
M  V30 2290 H 214.465 -3.9204 -1.73213 0
M  V30 2291 H 218.649 -4.79359 -1.28565 0
M  V30 2292 H 213.905 -6.07498 -0.689626 0
M  V30 2293 H 218.079 -6.95948 -0.250894 0
M  V30 2294 H 215.706 -7.60182 0.0529471 0
M  V30 2295 N 217.281 0.66697 -1.42791 0
M  V30 2296 C 218.228 1.7803 -1.4688 0
M  V30 2297 C 219.198 1.6299 -0.319919 0
M  V30 2298 O 220.383 1.83432 -0.525118 0
M  V30 2299 C 217.523 3.1611 -1.38451 0
M  V30 2300 C 216.636 3.42381 -2.63437 0
M  V30 2301 C 215.771 4.70232 -2.47094 0
M  V30 2302 C 214.81 4.89564 -3.67415 0
M  V30 2303 N 213.947 6.08661 -3.49966 0
M  V30 2304 H 218.787 1.7387 -2.42019 0
M  V30 2305 H 216.324 0.84868 -1.20149 0
M  V30 2306 H 218.282 3.95914 -1.31561 0
M  V30 2307 H 216.912 3.19374 -0.469033 0
M  V30 2308 H 215.964 2.56774 -2.80662 0
M  V30 2309 H 217.276 3.52557 -3.52853 0
M  V30 2310 H 216.43 5.5814 -2.37834 0
M  V30 2311 H 215.169 4.62353 -1.5518 0
M  V30 2312 H 214.174 4.00096 -3.77099 0
M  V30 2313 H 215.399 4.99282 -4.6032 0
M  V30 2314 H 213.345 6.0194 -2.60776 0
M  V30 2315 H 213.262 6.19733 -4.32975 0
M  V30 2316 H 214.53 6.99226 -3.44532 0
M  V30 2317 N 218.759 1.29093 0.90403 0
M  V30 2318 C 220.175 1.07011 1.1841 0
M  V30 2319 C 220.375 -0.181358 2.00682 0
M  V30 2320 O 219.431 -0.880331 2.36657 0
M  V30 2321 C 220.744 2.32311 1.90924 0
M  V30 2322 C 222.292 2.37587 2.03768 0
M  V30 2323 C 222.767 3.62679 2.79693 0
M  V30 2324 N 224.258 3.63376 2.87249 0
M  V30 2325 C 224.993 4.56848 3.46522 0
M  V30 2326 N 224.489 5.60648 4.06996 0
M  V30 2327 N 226.282 4.44426 3.44154 0
M  V30 2328 H 218.433 2.09412 0.354993 0
M  V30 2329 H 220.696 0.922181 0.219742 0
M  V30 2330 H 220.402 3.23536 1.37905 0
M  V30 2331 H 220.276 2.39483 2.91424 0
M  V30 2332 H 222.663 1.46853 2.55965 0
M  V30 2333 H 222.744 2.34403 1.02415 0
M  V30 2334 H 222.388 4.53762 2.28173 0
M  V30 2335 H 222.318 3.63119 3.81381 0
M  V30 2336 H 224.809 2.88321 2.44293 0
M  V30 2337 H 225.122 6.28101 4.50232 0
M  V30 2338 H 223.467 5.64463 4.05471 0
M  V30 2339 H 226.658 3.62529 2.96126 0
M  V30 2340 H 226.831 5.17457 3.90054 0
M  V30 2341 N 220.237 -1.11381 1.11499 0
M  V30 2342 C 221.648 -1.6465 0.880191 0
M  V30 2343 C 221.999 -1.87199 -0.587434 0
M  V30 2344 O 221.124 -1.60667 -1.44966 0
M  V30 2345 C 221.719 -2.99105 1.59128 0
M  V30 2346 C 220.278 -3.49279 1.40289 0
M  V30 2347 C 219.425 -2.24077 1.63354 0
M  V30 2348 H 222.376 -0.950123 1.27116 0
M  V30 2349 H 222.397 -3.66107 1.03664 0
M  V30 2350 H 221.909 -2.82661 2.65941 0
M  V30 2351 H 220.01 -3.70887 0.356888 0
M  V30 2352 H 220.123 -4.2803 2.15238 0
M  V30 2353 H 218.487 -2.31733 1.05698 0
M  V30 2354 H 219.27 -2.10175 2.71443 0
M  V30 2355 N 221.715 -0.905404 -1.28997 0
M  V30 2356 C 222.962 -0.534248 -1.95325 0
M  V30 2357 C 223.29 0.920535 -1.71337 0
M  V30 2358 O 222.545 1.66861 -1.02254 0
M  V30 2359 C 222.844 -0.779906 -3.48787 0
M  V30 2360 C 222.51 -2.21293 -3.92861 0
M  V30 2361 C 221.172 -2.60475 -4.04606 0
M  V30 2362 C 223.524 -3.14587 -4.15553 0
M  V30 2363 C 220.852 -3.9212 -4.36416 0
M  V30 2364 C 223.204 -4.45787 -4.48839 0
M  V30 2365 C 221.868 -4.84834 -4.58794 0
M  V30 2366 H 221.138 -0.195495 -0.714747 0
M  V30 2367 H 223.785 -1.14514 -1.53488 0
M  V30 2368 H 222.09 -0.0861365 -3.91705 0
M  V30 2369 H 223.787 -0.472029 -3.98212 0
M  V30 2370 H 220.377 -1.89887 -3.84241 0
M  V30 2371 H 224.561 -2.85528 -4.0594 0
M  V30 2372 H 219.817 -4.22086 -4.42327 0
M  V30 2373 H 223.991 -5.18098 -4.65346 0
M  V30 2374 H 221.618 -5.86877 -4.83197 0
M  V30 2375 N 223.193 1.4272 -0.668489 0
M  V30 2376 C 224.441 2.01226 -0.187769 0
M  V30 2377 C 224.762 1.53092 1.2078 0
M  V30 2378 O 224.032 0.74993 1.80977 0
M  V30 2379 H 222.612 0.744041 -0.0664272 0
M  V30 2380 H 225.274 1.74723 -0.863583 0
M  V30 2381 H 224.37 3.11556 -0.184166 0
M  V30 2382 N 224.671 0.411399 1.52136 0
M  V30 2383 C 225.899 -0.163076 2.06256 0
M  V30 2384 C 226.314 -1.3867 1.28125 0
M  V30 2385 O 225.671 -1.79423 0.333721 0
M  V30 2386 C 225.722 -0.511252 3.57867 0
M  V30 2387 O 225.443 0.66378 4.33042 0
M  V30 2388 C 226.944 -1.13921 4.28412 0
M  V30 2389 H 224.164 -0.0193897 0.67072 0
M  V30 2390 H 226.708 0.583007 1.96013 0
M  V30 2391 H 224.863 -1.20723 3.6811 0
M  V30 2392 H 225.277 0.372601 5.23175 0
M  V30 2393 H 226.751 -1.33302 5.35663 0
M  V30 2394 H 227.228 -2.11296 3.85033 0
M  V30 2395 H 227.834 -0.483373 4.22544 0
M  V30 2396 N 226.149 -1.5696 0.141893 0
M  V30 2397 C 227.389 -1.9785 -0.513304 0
M  V30 2398 C 227.753 -1.02467 -1.62371 0
M  V30 2399 O 228.954 -1.32382 -2.33941 0
M  V30 2400 C 227.225 -3.42797 -1.01118 0
M  V30 2401 S 228.784 -4.05709 -1.67169 0
M  V30 2402 H 225.602 -0.691318 -0.166135 0
M  V30 2403 H 228.204 -1.94114 0.232398 0
M  V30 2404 H 226.908 -4.0995 -0.192179 0
M  V30 2405 H 226.439 -3.50235 -1.79162 0
M  V30 2406 H 228.454 -3.98342 -2.95868 0
M  V30 2407 N 227.627 0.131896 -1.57047 0
M  V30 2408 C 228.904 0.871495 -1.75112 0
M  V30 2409 C 229.284 1.9866 -0.713949 0
M  V30 2410 O 228.632 2.26965 0.264447 0
M  V30 2411 C 228.842 1.40007 -3.19686 0
M  V30 2412 C 230.19 1.85752 -3.81813 0
M  V30 2413 O 231.214 1.49715 -3.23209 0
M  V30 2414 O 230.073 2.5226 -4.84796 0
M  V30 2415 H 227.167 0.412919 -0.716538 0
M  V30 2416 H 229.713 0.116641 -1.69299 0
M  V30 2417 H 228.485 0.599404 -3.86682 0
M  V30 2418 H 228.108 2.218 -3.29986 0
M  V30 2419 N 229.106 1.52395 0.401703 0
M  V30 2420 C 230.517 1.58899 0.980202 0
M  V30 2421 C 230.868 0.434032 1.91339 0
M  V30 2422 O 229.993 -0.444619 2.11783 0
M  V30 2423 C 230.588 2.87994 1.78451 0
M  V30 2424 C 229.147 2.96953 2.31292 0
M  V30 2425 C 228.294 2.53903 1.11483 0
M  V30 2426 H 231.245 1.57657 0.18168 0
M  V30 2427 H 231.266 2.73765 2.64259 0
M  V30 2428 H 230.778 3.72035 1.10506 0
M  V30 2429 H 228.879 2.17422 3.02586 0
M  V30 2430 H 228.992 4.01344 2.61649 0
M  V30 2431 H 227.356 2.07925 1.47104 0
M  V30 2432 H 228.139 3.40326 0.450928 0
M  V30 2433 N 230.584 -0.659388 1.43143 0
M  V30 2434 C 231.531 -1.77249 1.47822 0
M  V30 2435 C 232.501 -1.62818 0.328558 0
M  V30 2436 O 233.686 -1.83151 0.534838 0
M  V30 2437 C 230.826 -3.15371 1.40126 0
M  V30 2438 C 229.939 -3.4098 2.65249 0
M  V30 2439 C 229.074 -4.68915 2.49584 0
M  V30 2440 C 228.113 -4.87608 3.70006 0
M  V30 2441 N 227.25 -6.06796 3.53189 0
M  V30 2442 H 232.09 -1.72584 2.42938 0
M  V30 2443 H 229.627 -0.842297 1.20598 0
M  V30 2444 H 231.585 -3.9521 1.33659 0
M  V30 2445 H 230.215 -3.19121 0.485964 0
M  V30 2446 H 229.267 -2.55282 2.8202 0
M  V30 2447 H 230.579 -3.50681 3.54717 0
M  V30 2448 H 229.733 -5.56871 2.4079 0
M  V30 2449 H 228.472 -4.61524 1.5763 0
M  V30 2450 H 227.477 -3.9809 3.79215 0
M  V30 2451 H 228.702 -4.96834 4.62961 0
M  V30 2452 H 226.648 -6.00549 2.63965 0
M  V30 2453 H 226.565 -6.17428 4.36255 0
M  V30 2454 H 227.833 -6.9739 3.48236 0
M  V30 2455 N 232.062 -1.29571 -0.897171 0
M  V30 2456 C 233.339 -1.08365 -1.62839 0
M  V30 2457 C 233.719 0.371331 -2.07808 0
M  V30 2458 O 233.067 1.3606 -1.83576 0
M  V30 2459 C 233.277 -2.0735 -2.80726 0
M  V30 2460 C 234.625 -2.38406 -3.51351 0
M  V30 2461 O 235.649 -2.05564 -2.90898 0
M  V30 2462 O 234.508 -2.9453 -4.60341 0
M  V30 2463 H 231.602 -0.415345 -0.715134 0
M  V30 2464 H 234.148 -1.40952 -0.945018 0
M  V30 2465 H 232.92 -3.05339 -2.44711 0
M  V30 2466 H 232.543 -1.75507 -3.56767 0
M  V30 2467 N 233.54 1.10788 -1.12088 0
M  V30 2468 C 234.77 1.86191 -0.895351 0
M  V30 2469 C 235.178 1.80763 0.558702 0
M  V30 2470 O 234.521 1.19188 1.39785 0
M  V30 2471 C 234.583 3.35659 -1.28737 0
M  V30 2472 C 234.247 3.64849 -2.75198 0
M  V30 2473 C 235.244 3.61757 -3.734 0
M  V30 2474 C 232.929 3.93641 -3.12013 0
M  V30 2475 C 234.923 3.87045 -5.06434 0
M  V30 2476 C 232.61 4.18585 -4.4523 0
M  V30 2477 C 233.608 4.15277 -5.42249 0
M  V30 2478 O 233.296 4.3959 -6.73065 0
M  V30 2479 H 233.028 0.595425 -0.32007 0
M  V30 2480 H 235.582 1.40992 -1.49367 0
M  V30 2481 H 233.812 3.81497 -0.63224 0
M  V30 2482 H 235.501 3.92441 -1.03656 0
M  V30 2483 H 236.267 3.39557 -3.46303 0
M  V30 2484 H 232.146 3.95348 -2.37109 0
M  V30 2485 H 235.69 3.84378 -5.82151 0
M  V30 2486 H 231.587 4.40264 -4.72057 0
M  V30 2487 H 232.355 4.57123 -6.78956 0
M  V30 2488 N 235.018 0.912232 1.28515 0
M  V30 2489 C 235.948 0.416403 2.29757 0
M  V30 2490 C 236.929 -0.515194 1.6211 0
M  V30 2491 O 238.114 -0.423253 1.89532 0
M  V30 2492 C 235.244 -0.34572 3.45575 0
M  V30 2493 C 234.198 0.496599 4.25109 0
M  V30 2494 C 233.524 -0.393771 5.33248 0
M  V30 2495 C 234.824 1.75307 4.92001 0
M  V30 2496 H 236.518 1.26249 2.7148 0
M  V30 2497 H 234.064 0.608515 1.30511 0
M  V30 2498 H 236.017 -0.703422 4.15488 0
M  V30 2499 H 234.741 -1.2257 3.02728 0
M  V30 2500 H 233.4 0.8368 3.56922 0
M  V30 2501 H 233.048 -1.27225 4.86644 0
M  V30 2502 H 232.748 0.166209 5.87365 0
M  V30 2503 H 234.272 -0.747389 6.06009 0
M  V30 2504 H 235.686 1.46437 5.54283 0
M  V30 2505 H 234.083 2.25534 5.56106 0
M  V30 2506 H 235.153 2.48176 4.16577 0
M  V30 2507 N 236.496 -1.42363 0.676048 0
M  V30 2508 C 237.745 -2.00745 0.196037 0
M  V30 2509 C 238.058 -1.54083 -1.20489 0
M  V30 2510 O 239.264 -2.04891 -1.78134 0
M  V30 2511 C 237.72 -3.58651 0.299616 0
M  V30 2512 C 237.328 -4.143 1.70468 0
M  V30 2513 C 239.072 -4.24326 -0.121619 0
M  V30 2514 C 236.979 -5.64574 1.76096 0
M  V30 2515 H 235.909 -0.750787 0.0695301 0
M  V30 2516 H 238.56 -1.63072 0.841412 0
M  V30 2517 H 236.942 -3.93833 -0.413673 0
M  V30 2518 H 238.116 -3.90575 2.44515 0
M  V30 2519 H 236.431 -3.61081 2.07387 0
M  V30 2520 H 239.028 -5.34607 -0.0997362 0
M  V30 2521 H 239.371 -3.99897 -1.15708 0
M  V30 2522 H 239.904 -3.94108 0.540706 0
M  V30 2523 H 236.643 -5.93804 2.77628 0
M  V30 2524 H 236.163 -5.90286 1.06406 0
M  V30 2525 H 237.842 -6.29013 1.51496 0
M  V30 2526 N 237.974 -0.419461 -1.51915 0
M  V30 2527 C 238.884 0.407528 -2.31033 0
M  V30 2528 C 239.9 1.04413 -1.3919 0
M  V30 2529 O 241.076 1.0434 -1.72265 0
M  V30 2530 C 238.141 1.50365 -3.12396 0
M  V30 2531 C 237.202 0.889029 -4.19994 0
M  V30 2532 C 236.435 1.93291 -4.97468 0
M  V30 2533 O 236.658 3.15259 -4.75361 0
M  V30 2534 O 235.592 1.53339 -5.8204 0
M  V30 2535 H 239.418 -0.237865 -3.02767 0
M  V30 2536 H 237.003 -0.182413 -1.48282 0
M  V30 2537 H 238.885 2.13975 -3.63032 0
M  V30 2538 H 237.56 2.13345 -2.43445 0
M  V30 2539 H 236.467 0.215353 -3.7348 0
M  V30 2540 H 237.8 0.302991 -4.91267 0
M  V30 2541 N 239.452 1.56882 -0.150215 0
M  V30 2542 C 240.729 1.87844 0.545327 0
M  V30 2543 C 241.109 1.0567 1.82749 0
M  V30 2544 O 240.457 0.144442 2.28043 0
M  V30 2545 C 240.667 3.39526 0.80767 0
M  V30 2546 C 242.015 4.08814 1.14703 0
M  V30 2547 O 243.039 3.44723 0.896917 0
M  V30 2548 O 241.898 5.22004 1.61784 0
M  V30 2549 H 238.992 0.778677 0.278553 0
M  V30 2550 H 241.538 1.68666 -0.187068 0
M  V30 2551 H 240.31 3.91173 -0.0996096 0
M  V30 2552 H 239.933 3.64243 1.59413 0
M  V30 2553 N 240.93 -0.123565 1.57115 0
M  V30 2554 C 242.178 -0.83051 1.84247 0
M  V30 2555 C 242.499 -1.80629 0.73471 0
M  V30 2556 O 241.769 -1.94403 -0.241688 0
M  V30 2557 H 240.349 -0.309694 0.679778 0
M  V30 2558 H 243.011 -0.111976 1.94578 0
M  V30 2559 H 242.107 -1.37852 2.80006 0
M  V30 2560 N 242.408 -1.52605 -0.393616 0
M  V30 2561 C 243.636 -1.71294 -1.16043 0
M  V30 2562 C 244.051 -0.429259 -1.83855 0
M  V30 2563 O 243.408 0.595921 -1.72496 0
M  V30 2564 C 243.459 -2.8593 -2.21193 0
M  V30 2565 O 243.18 -4.09329 -1.56146 0
M  V30 2566 C 244.681 -3.16259 -3.10636 0
M  V30 2567 H 241.901 -0.573641 -0.348104 0
M  V30 2568 H 244.445 -1.99234 -0.461092 0
M  V30 2569 H 242.6 -2.60465 -2.86769 0
M  V30 2570 H 243.014 -4.73323 -2.25978 0
M  V30 2571 H 244.488 -3.99946 -3.80456 0
M  V30 2572 H 244.965 -2.3045 -3.73884 0
M  V30 2573 H 245.571 -3.43547 -2.50711 0
M  V30 2574 N 243.887 0.651787 -1.4349 0
M  V30 2575 C 245.133 1.41376 -1.45398 0
M  V30 2576 C 245.466 1.94041 -0.0784823 0
M  V30 2577 O 244.741 1.72379 0.900878 0
M  V30 2578 C 245.024 2.59414 -2.49752 0
M  V30 2579 C 244.877 2.12232 -3.96582 0
M  V30 2580 C 246.196 3.61626 -2.50827 0
M  V30 2581 H 243.315 0.512719 -0.529422 0
M  V30 2582 H 245.957 0.738796 -1.75048 0
M  V30 2583 H 244.107 3.16997 -2.246 0
M  V30 2584 H 245.779 1.59639 -4.32797 0
M  V30 2585 H 244.022 1.43592 -4.09346 0
M  V30 2586 H 244.693 2.9712 -4.65214 0
M  V30 2587 H 247.169 3.13805 -2.7325 0
M  V30 2588 H 246.045 4.41766 -3.25783 0
M  V30 2589 H 246.306 4.14314 -1.5426 0
M  V30 2590 N 245.365 1.30045 0.890287 0
M  V30 2591 C 246.315 1.12592 1.9826 0
M  V30 2592 C 247.299 0.0426021 1.60844 0
M  V30 2593 O 248.491 0.265346 1.75 0
M  V30 2594 C 245.62 0.814301 3.33503 0
M  V30 2595 C 244.706 1.93761 3.7725 0
M  V30 2596 N 245.097 3.18232 3.93143 0
M  V30 2597 C 243.395 1.83277 4.06602 0
M  V30 2598 C 244.096 3.9158 4.30163 0
M  V30 2599 N 243.072 3.19591 4.3973 0
M  V30 2600 H 246.874 2.07003 2.08631 0
M  V30 2601 H 244.388 1.21307 1.07974 0
M  V30 2602 H 246.385 0.67029 4.11476 0
M  V30 2603 H 245.045 -0.121797 3.24471 0
M  V30 2604 H 246.056 3.53581 3.78419 0
M  V30 2605 H 242.733 0.97001 4.06075 0
M  V30 2606 H 244.123 4.98744 4.50226 0
M  V30 2607 N 246.843 -1.10192 1.12674 0
M  V30 2608 C 247.773 -2.18652 0.819362 0
M  V30 2609 C 248.754 -1.68698 -0.217915 0
M  V30 2610 O 249.939 -1.94041 -0.0785581 0
M  V30 2611 C 247.069 -3.46202 0.27594 0
M  V30 2612 C 246.023 -4.09444 1.24656 0
M  V30 2613 C 245.349 -5.31725 0.563258 0
M  V30 2614 C 246.649 -4.52863 2.60217 0
M  V30 2615 H 248.343 -2.44622 1.72628 0
M  V30 2616 H 245.889 -1.17571 0.831451 0
M  V30 2617 H 247.842 -4.21372 0.0486149 0
M  V30 2618 H 246.566 -3.1973 -0.666331 0
M  V30 2619 H 245.225 -3.36284 1.45974 0
M  V30 2620 H 244.873 -5.0153 -0.384235 0
M  V30 2621 H 244.573 -5.74991 1.21075 0
M  V30 2622 H 246.097 -6.09624 0.34503 0
M  V30 2623 H 247.511 -5.19294 2.42913 0
M  V30 2624 H 245.908 -5.06986 3.21068 0
M  V30 2625 H 246.978 -3.65656 3.18471 0
M  V30 2626 N 248.321 -0.919034 -1.28029 0
M  V30 2627 C 249.567 -0.555757 -1.95036 0
M  V30 2628 C 249.9 0.899198 -1.72128 0
M  V30 2629 O 249.175 1.64023 -1.04531 0
M  V30 2630 C 249.458 -0.872024 -3.49382 0
M  V30 2631 C 249.311 -2.3801 -3.81669 0
M  V30 2632 C 250.63 -0.37185 -4.38526 0
M  V30 2633 H 247.749 -0.203386 -0.708381 0
M  V30 2634 H 250.391 -1.14924 -1.51303 0
M  V30 2635 H 248.541 -0.366946 -3.86763 0
M  V30 2636 H 250.213 -2.9562 -3.54128 0
M  V30 2637 H 248.456 -2.83289 -3.28526 0
M  V30 2638 H 249.127 -2.55192 -4.8947 0
M  V30 2639 H 251.603 -0.804602 -4.08247 0
M  V30 2640 H 250.479 -0.622173 -5.45362 0
M  V30 2641 H 250.74 0.727934 -4.36066 0
M  V30 2642 N 249.799 1.42003 -0.683588 0
M  V30 2643 C 251.029 2.05448 -0.217866 0
M  V30 2644 C 251.437 1.51491 1.13346 0
M  V30 2645 O 250.78 0.653048 1.717 0
M  V30 2646 C 250.842 3.59399 -0.0850118 0
M  V30 2647 C 250.506 4.36093 -1.36645 0
M  V30 2648 C 251.503 4.66169 -2.30179 0
M  V30 2649 C 249.188 4.75578 -1.61649 0
M  V30 2650 C 251.182 5.34676 -3.46988 0
M  V30 2651 C 248.869 5.43824 -2.78745 0
M  V30 2652 C 249.867 5.73299 -3.71238 0
M  V30 2653 O 249.555 6.40142 -4.86285 0
M  V30 2654 H 249.287 0.668344 -0.101454 0
M  V30 2655 H 251.841 1.82974 -0.933248 0
M  V30 2656 H 250.071 3.80566 0.686031 0
M  V30 2657 H 251.76 4.04457 0.341973 0
M  V30 2658 H 252.526 4.36156 -2.12115 0
M  V30 2659 H 248.405 4.52025 -0.905243 0
M  V30 2660 H 251.949 5.57599 -4.19201 0
M  V30 2661 H 247.846 5.73254 -2.96732 0
M  V30 2662 H 248.614 6.58636 -4.85944 0
M  V30 2663 N 251.277 0.427512 1.51691 0
M  V30 2664 C 252.525 -0.141948 2.01601 0
M  V30 2665 C 252.846 -1.44067 1.31414 0
M  V30 2666 O 252.116 -1.90763 0.445658 0
M  V30 2667 H 250.696 -0.0554468 0.744939 0
M  V30 2668 H 253.358 0.567968 1.86441 0
M  V30 2669 H 252.454 -0.324913 3.10404 0
M  V30 2670 N 252.755 -1.56801 0.158532 0
M  V30 2671 C 254.004 -1.95665 -0.489702 0
M  V30 2672 C 254.317 -1.04654 -1.65248 0
M  V30 2673 O 255.523 -1.33146 -2.3661 0
M  V30 2674 C 253.979 -3.47874 -0.922582 0
M  V30 2675 C 253.587 -4.47489 0.213893 0
M  V30 2676 C 255.331 -3.95583 -1.53996 0
M  V30 2677 C 253.238 -5.90921 -0.237903 0
M  V30 2678 H 252.168 -0.730516 -0.186716 0
M  V30 2679 H 254.819 -1.81861 0.244722 0
M  V30 2680 H 253.201 -3.57051 -1.71261 0
M  V30 2681 H 254.375 -4.50017 0.991036 0
M  V30 2682 H 252.69 -4.09764 0.740407 0
M  V30 2683 H 255.287 -5.0019 -1.8898 0
M  V30 2684 H 255.63 -3.37789 -2.43319 0
M  V30 2685 H 256.163 -3.8937 -0.814611 0
M  V30 2686 H 252.902 -6.52559 0.620236 0
M  V30 2687 H 252.422 -5.91729 -0.980676 0
M  V30 2688 H 254.101 -6.43352 -0.686067 0
M  V30 2689 N 254.233 0.115231 -1.57178 0
M  V30 2690 C 255.163 1.1423 -2.03651 0
M  V30 2691 C 256.144 1.42967 -0.921655 0
M  V30 2692 O 257.329 1.53343 -1.19162 0
M  V30 2693 C 254.459 2.4675 -2.44401 0
M  V30 2694 C 253.413 2.32467 -3.59365 0
M  V30 2695 C 252.739 3.69984 -3.86026 0
M  V30 2696 C 254.039 1.78203 -4.90959 0
M  V30 2697 H 255.733 0.755749 -2.89705 0
M  V30 2698 H 253.279 0.362093 -1.39373 0
M  V30 2699 H 255.232 3.18854 -2.75517 0
M  V30 2700 H 253.956 2.87302 -1.55322 0
M  V30 2701 H 252.615 1.62811 -3.28463 0
M  V30 2702 H 252.263 4.08028 -2.94147 0
M  V30 2703 H 251.963 3.61279 -4.63412 0
M  V30 2704 H 253.487 4.43587 -4.19599 0
M  V30 2705 H 254.901 2.40128 -5.20587 0
M  V30 2706 H 253.298 1.8031 -5.72371 0
M  V30 2707 H 254.368 0.739876 -4.79222 0
M  V30 2708 N 255.711 1.52812 0.385517 0
M  V30 2709 C 256.621 1.80766 1.49535 0
M  V30 2710 C 257.637 0.694651 1.59532 0
M  V30 2711 O 258.813 0.982611 1.75803 0
M  V30 2712 C 255.878 1.97381 2.85029 0
M  V30 2713 C 254.939 3.21295 2.84724 0
M  V30 2714 C 254.172 3.37108 4.13756 0
M  V30 2715 O 254.395 2.5765 5.08893 0
M  V30 2716 O 253.329 4.30378 4.20783 0
M  V30 2717 H 257.155 2.75015 1.28842 0
M  V30 2718 H 254.74 1.37946 0.573697 0
M  V30 2719 H 256.622 2.09996 3.65349 0
M  V30 2720 H 255.297 1.06322 3.05741 0
M  V30 2721 H 254.204 3.1412 2.03174 0
M  V30 2722 H 255.537 4.12212 2.68965 0
M  V30 2723 N 257.189 -0.644168 1.43834 0
M  V30 2724 C 258.099 -1.78563 1.52159 0
M  V30 2725 C 259.115 -1.69147 0.408069 0
M  V30 2726 O 260.291 -1.90156 0.663524 0
M  V30 2727 C 257.356 -3.14888 1.45073 0
M  V30 2728 C 256.417 -3.36034 2.6717 0
M  V30 2729 C 255.65 -4.65855 2.60413 0
M  V30 2730 O 255.873 -5.45805 1.65689 0
M  V30 2731 O 254.807 -4.88918 3.5106 0
M  V30 2732 H 258.633 -1.74494 2.48567 0
M  V30 2733 H 256.218 -0.80378 1.25935 0
M  V30 2734 H 258.1 -3.96179 1.43597 0
M  V30 2735 H 256.775 -3.19528 0.518037 0
M  V30 2736 H 255.682 -2.54472 2.74217 0
M  V30 2737 H 257.015 -3.36247 3.59442 0
M  V30 2738 N 258.668 -1.30515 -0.883378 0
M  V30 2739 C 260.079 -1.17509 -1.45081 0
M  V30 2740 C 260.43 0.223605 -1.94922 0
M  V30 2741 O 259.555 1.12041 -1.85137 0
M  V30 2742 C 260.15 -2.12715 -2.63701 0
M  V30 2743 C 258.709 -2.03682 -3.16529 0
M  V30 2744 C 257.856 -2.02706 -1.89224 0
M  V30 2745 H 260.807 -1.42762 -0.693165 0
M  V30 2746 H 260.828 -1.70891 -3.39965 0
M  V30 2747 H 260.34 -3.14505 -2.27395 0
M  V30 2748 H 258.441 -1.05039 -3.57488 0
M  V30 2749 H 258.554 -2.92146 -3.7972 0
M  V30 2750 H 256.918 -1.4753 -2.07622 0
M  V30 2751 H 257.701 -3.06229 -1.55174 0
M  V30 2752 N 260.146 1.09593 -1.13257 0
M  V30 2753 C 261.393 1.81734 -0.893257 0
M  V30 2754 C 261.721 1.8563 0.580656 0
M  V30 2755 O 260.976 1.31906 1.44566 0
M  V30 2756 C 261.275 3.27802 -1.42411 0
M  V30 2757 C 260.941 3.44041 -2.91456 0
M  V30 2758 C 259.603 3.48181 -3.3215 0
M  V30 2759 C 261.955 3.48719 -3.87356 0
M  V30 2760 C 259.283 3.54575 -4.67433 0
M  V30 2761 C 261.635 3.56648 -5.2248 0
M  V30 2762 C 260.299 3.59055 -5.62704 0
M  V30 2763 H 259.569 0.665011 -0.326866 0
M  V30 2764 H 262.216 1.2912 -1.41422 0
M  V30 2765 H 260.521 3.83042 -0.823795 0
M  V30 2766 H 262.218 3.82149 -1.21503 0
M  V30 2767 H 258.808 3.41502 -2.58987 0
M  V30 2768 H 262.992 3.44763 -3.57004 0
M  V30 2769 H 258.248 3.54725 -4.97976 0
M  V30 2770 H 262.422 3.59212 -5.96607 0
M  V30 2771 H 260.049 3.63763 -6.67518 0
M  V30 2772 N 261.624 0.925811 1.2754 0
M  V30 2773 C 263.04 0.625767 1.46821 0
M  V30 2774 C 263.24 -0.825506 1.83814 0
M  V30 2775 O 262.296 -1.60356 1.95044 0
M  V30 2776 C 263.609 1.57402 2.56213 0
M  V30 2777 C 265.157 1.58204 2.70075 0
M  V30 2778 C 265.632 2.51721 3.82623 0
M  V30 2779 N 267.123 2.49917 3.89994 0
M  V30 2780 C 267.858 3.18968 4.76494 0
M  V30 2781 N 267.354 3.97391 5.67496 0
M  V30 2782 N 269.147 3.07996 4.70208 0
M  V30 2783 H 261.298 1.86409 1.01811 0
M  V30 2784 H 263.561 0.800213 0.508295 0
M  V30 2785 H 263.267 2.60925 2.35819 0
M  V30 2786 H 263.141 1.31428 3.53563 0
M  V30 2787 H 265.528 0.554124 2.89851 0
M  V30 2788 H 265.609 1.88226 1.73218 0
M  V30 2789 H 265.253 3.54622 3.63601 0
M  V30 2790 H 265.183 2.18996 4.78903 0
M  V30 2791 H 267.674 1.9296 3.24923 0
M  V30 2792 H 267.987 4.4707 6.30356 0
M  V30 2793 H 266.332 4.01495 5.67298 0
M  V30 2794 H 269.523 2.46223 3.9811 0
M  V30 2795 H 269.696 3.6208 5.37403 0
M  V30 2796 N 263.102 -1.41638 0.69111 0
M  V30 2797 C 264.327 -2.06148 0.227583 0
M  V30 2798 C 264.752 -1.51652 -1.11281 0
M  V30 2799 O 264.11 -0.64164 -1.69566 0
M  V30 2800 C 264.158 -3.60095 0.190858 0
M  V30 2801 O 263.262 -4.03845 -0.835664 0
M  V30 2802 H 262.603 -0.654434 0.112306 0
M  V30 2803 H 265.133 -1.81484 0.944714 0
M  V30 2804 H 265.143 -4.07995 0.020207 0
M  V30 2805 H 263.818 -3.99129 1.16915 0
M  V30 2806 H 262.395 -3.67458 -0.63473 0
M  V30 2807 N 264.58 -0.43555 -1.51462 0
M  V30 2808 C 265.51 0.367376 -2.30592 0
M  V30 2809 C 266.491 1.02263 -1.35928 0
M  V30 2810 O 267.676 1.02661 -1.64847 0
M  V30 2811 C 264.806 1.46983 -3.14664 0
M  V30 2812 C 263.76 0.938161 -4.17591 0
M  V30 2813 C 263.086 2.13622 -4.90173 0
M  V30 2814 C 264.386 -0.0261621 -5.22293 0
M  V30 2815 H 266.08 -0.292969 -2.97963 0
M  V30 2816 H 263.626 -0.14234 -1.43295 0
M  V30 2817 H 265.579 2.03873 -3.688 0
M  V30 2818 H 264.303 2.15843 -2.4511 0
M  V30 2819 H 262.962 0.391481 -3.64504 0
M  V30 2820 H 262.61 2.81098 -4.17124 0
M  V30 2821 H 262.31 1.78688 -5.59772 0
M  V30 2822 H 263.834 2.7107 -5.47132 0
M  V30 2823 H 265.248 0.452384 -5.71512 0
M  V30 2824 H 263.645 -0.287992 -5.99409 0
M  V30 2825 H 264.715 -0.963391 -4.75233 0
M  V30 2826 N 266.058 1.56714 -0.166846 0
M  V30 2827 C 266.968 2.21331 0.777791 0
M  V30 2828 C 267.984 1.20358 1.25658 0
M  V30 2829 O 269.16 1.53005 1.30964 0
M  V30 2830 C 266.225 2.83787 1.99163 0
M  V30 2831 C 265.286 3.99947 1.56016 0
M  V30 2832 C 264.519 4.59415 2.71613 0
M  V30 2833 O 264.742 4.17769 3.88362 0
M  V30 2834 O 263.676 5.49359 2.45945 0
M  V30 2835 H 267.502 3.02605 0.257636 0
M  V30 2836 H 265.087 1.49275 0.0611393 0
M  V30 2837 H 266.969 3.23405 2.70161 0
M  V30 2838 H 265.644 2.05513 2.50092 0
M  V30 2839 H 264.551 3.65007 0.819809 0
M  V30 2840 H 265.884 4.79801 1.09782 0
M  V30 2841 N 267.536 -0.106894 1.57237 0
M  V30 2842 C 268.499 -1.11466 2.0027 0
M  V30 2843 C 269.499 -1.33623 0.894519 0
M  V30 2844 O 270.689 -1.29935 1.16028 0
M  V30 2845 C 267.821 -2.46646 2.35327 0
M  V30 2846 H 269.014 -0.744516 2.90512 0
M  V30 2847 H 266.567 -0.351576 1.52295 0
M  V30 2848 H 267.302 -2.88558 1.48003 0
M  V30 2849 H 267.087 -2.31915 3.16161 0
M  V30 2850 H 268.577 -3.19151 2.69318 0
M  V30 2851 N 269.014 -1.53014 -0.377408 0
M  V30 2852 C 270.263 -1.67845 -1.11853 0
M  V30 2853 C 270.576 -0.430625 -1.90801 0
M  V30 2854 O 271.782 -0.459261 -2.67587 0
M  V30 2855 C 270.238 -2.96668 -2.03756 0
M  V30 2856 C 269.846 -4.28671 -1.30175 0
M  V30 2857 C 271.59 -3.20865 -2.77932 0
M  V30 2858 C 269.497 -5.48591 -2.20911 0
M  V30 2859 H 268.427 -0.625343 -0.421263 0
M  V30 2860 H 271.078 -1.79514 -0.380409 0
M  V30 2861 H 269.46 -2.78773 -2.8125 0
M  V30 2862 H 270.634 -4.57157 -0.578259 0
M  V30 2863 H 268.949 -4.10825 -0.679108 0
M  V30 2864 H 271.546 -4.07642 -3.46024 0
M  V30 2865 H 271.889 -2.36424 -3.4265 0
M  V30 2866 H 272.422 -3.39379 -2.07525 0
M  V30 2867 H 269.161 -6.35474 -1.6079 0
M  V30 2868 H 268.681 -5.244 -2.91144 0
M  V30 2869 H 270.36 -5.8292 -2.80736 0
M  V30 2870 N 270.492 0.636531 -1.44174 0
M  V30 2871 C 271.44 1.76995 -1.50915 0
M  V30 2872 C 272.434 1.65053 -0.381295 0
M  V30 2873 O 273.64 1.71197 -0.55601 0
M  V30 2874 H 270.015 0.584247 -0.473455 0
M  V30 2875 H 271.986 1.68432 -2.4632 0
M  V30 2876 C 270.735 3.15314 -1.46534 0
M  V30 2877 H 270.058 3.25149 -2.32633 0
M  V30 2878 H 271.498 3.9453 -1.55312 0
M  V30 2879 C 269.957 3.3639 -0.185305 0
M  V30 2880 O 270.487 3.94699 0.746688 0
M  V30 2881 N 268.693 2.9046 -0.0901606 0
M  V30 2882 H 268.24 2.43193 -0.849416 0
M  V30 2883 H 268.198 3.04937 0.765553 0
M  V30 2884 N 271.97 1.30982 0.876444 0
M  V30 2885 C 273.218 1.20058 1.62575 0
M  V30 2886 C 273.539 -0.242947 1.93481 0
M  V30 2887 O 272.809 -1.1619 1.57724 0
M  V30 2888 H 271.389 0.44135 0.602677 0
M  V30 2889 H 274.051 1.64222 1.04962 0
M  V30 2890 H 273.147 1.76762 2.57219 0
M  V30 2891 N 273.449 -1.08991 1.13837 0
M  V30 2892 C 274.674 -1.85551 0.926585 0
M  V30 2893 C 275.099 -1.80782 -0.519566 0
M  V30 2894 O 274.457 -1.18855 -1.36906 0
M  V30 2895 C 274.505 -3.31266 1.42462 0
M  V30 2896 O 273.609 -4.07822 0.612789 0
M  V30 2897 H 272.95 -0.575192 0.331738 0
M  V30 2898 H 275.48 -1.37604 1.51414 0
M  V30 2899 H 275.49 -3.82112 1.43019 0
M  V30 2900 H 274.165 -3.34052 2.47754 0
M  V30 2901 H 272.742 -3.66731 0.675463 0
M  V30 2902 N 274.927 -0.932562 -1.27047 0
M  V30 2903 C 276.175 -0.574422 -1.93765 0
M  V30 2904 C 276.496 0.887993 -1.73608 0
M  V30 2905 O 275.766 1.62999 -1.08665 0
M  V30 2906 H 274.346 -0.209451 -0.717035 0
M  V30 2907 H 277.008 -1.18601 -1.5466 0
M  V30 2908 H 276.104 -0.784841 -3.02071 0
M  V30 2909 N 276.405 1.4127 -0.698611 0
M  V30 2910 C 277.335 2.33447 -0.049629 0
M  V30 2911 C 278.316 1.51982 0.763898 0
M  V30 2912 O 279.501 1.80509 0.716257 0
M  V30 2913 C 276.631 3.35828 0.885267 0
M  V30 2914 C 275.585 4.27627 0.178613 0
M  V30 2915 C 274.911 5.20406 1.22807 0
M  V30 2916 C 276.211 5.13459 -0.956933 0
M  V30 2917 H 277.905 2.87966 -0.81951 0
M  V30 2918 H 275.451 1.38461 -0.395538 0
M  V30 2919 H 277.404 3.9924 1.34854 0
M  V30 2920 H 276.128 2.79666 1.68685 0
M  V30 2921 H 274.787 3.65643 -0.26466 0
M  V30 2922 H 274.435 4.60558 2.02226 0
M  V30 2923 H 274.135 5.82661 0.760239 0
M  V30 2924 H 275.659 5.86695 1.69179 0
M  V30 2925 H 277.073 5.70421 -0.573805 0
M  V30 2926 H 275.47 5.8467 -1.35205 0
M  V30 2927 H 276.54 4.50443 -1.79524 0
M  V30 2928 N 277.883 0.443576 1.51229 0
M  V30 2929 C 278.815 -0.400608 2.25672 0
M  V30 2930 C 279.828 -0.980945 1.29928 0
M  V30 2931 O 281.017 -0.874024 1.55638 0
M  V30 2932 C 278.117 -1.57304 3.00181 0
M  V30 2933 C 277.29 -1.11046 4.23069 0
M  V30 2934 C 276.349 -2.15374 4.80105 0
M  V30 2935 O 275.375 -1.74554 5.41774 0
M  V30 2936 N 276.577 -3.47922 4.64683 0
M  V30 2937 H 279.342 0.23745 2.98758 0
M  V30 2938 H 276.903 0.272809 1.59585 0
M  V30 2939 H 278.895 -2.26733 3.35223 0
M  V30 2940 H 277.465 -2.11632 2.30066 0
M  V30 2941 H 276.685 -0.243019 3.9345 0
M  V30 2942 H 277.973 -0.778888 5.02803 0
M  V30 2943 H 277.371 -3.83815 4.15575 0
M  V30 2944 H 275.928 -4.13228 5.0407 0
M  V30 2945 N 279.361 -1.56624 0.175154 0
M  V30 2946 C 280.294 -2.14 -0.792412 0
M  V30 2947 C 281.272 -1.07114 -1.22333 0
M  V30 2948 O 282.456 -1.35112 -1.31442 0
M  V30 2949 C 279.583 -2.68268 -2.0676 0
M  V30 2950 C 278.629 -3.87562 -1.7804 0
M  V30 2951 S 279.462 -5.27074 -0.946222 0
M  V30 2952 C 280.618 -5.8475 -2.23199 0
M  V30 2953 H 280.851 -2.95736 -0.304588 0
M  V30 2954 H 278.384 -1.54349 -0.0395705 0
M  V30 2955 H 280.342 -3.00182 -2.80002 0
M  V30 2956 H 279.003 -1.86612 -2.52656 0
M  V30 2957 H 278.196 -4.23874 -2.72666 0
M  V30 2958 H 277.798 -3.56555 -1.12891 0
M  V30 2959 H 280.09 -5.97898 -3.18629 0
M  V30 2960 H 281.033 -6.81756 -1.91349 0
M  V30 2961 H 281.441 -5.13198 -2.35134 0
M  V30 2962 N 280.839 0.0985539 -1.57292 0
M  V30 2963 C 282.087 0.801092 -1.85545 0
M  V30 2964 C 282.408 1.79438 -0.763353 0
M  V30 2965 O 281.678 1.94763 0.21073 0
M  V30 2966 H 280.258 0.29884 -0.684619 0
M  V30 2967 H 282.92 0.0810064 -1.94732 0
M  V30 2968 H 282.016 1.3338 -2.82163 0
M  V30 2969 N 282.317 1.53212 0.369288 0
M  V30 2970 C 283.247 1.82365 1.45826 0
M  V30 2971 C 284.228 0.676907 1.56051 0
M  V30 2972 O 285.413 0.926401 1.70679 0
M  V30 2973 C 282.543 2.01023 2.83208 0
M  V30 2974 C 281.497 3.1678 2.8781 0
M  V30 2975 C 280.823 3.20724 4.27832 0
M  V30 2976 C 282.123 4.55447 2.55667 0
M  V30 2977 H 283.817 2.73559 1.21678 0
M  V30 2978 H 281.363 1.3163 0.583911 0
M  V30 2979 H 283.316 2.20001 3.59413 0
M  V30 2980 H 282.04 1.06536 3.08736 0
M  V30 2981 H 280.699 2.97616 2.14056 0
M  V30 2982 H 280.347 2.23882 4.50429 0
M  V30 2983 H 280.047 3.98496 4.31827 0
M  V30 2984 H 281.571 3.41881 5.05915 0
M  V30 2985 H 282.985 4.74611 3.21586 0
M  V30 2986 H 281.382 5.35432 2.70984 0
M  V30 2987 H 282.452 4.60812 1.5093 0
M  V30 2988 N 283.795 -0.628877 1.44509 0
M  V30 2989 C 284.727 -1.754 1.47538 0
M  V30 2990 C 285.74 -1.58575 0.368506 0
M  V30 2991 O 286.929 -1.66847 0.634376 0
M  V30 2992 C 284.029 -3.1315 1.29577 0
M  V30 2993 C 283.202 -3.56413 2.53551 0
M  V30 2994 C 282.261 -4.7305 2.30457 0
M  V30 2995 O 281.287 -4.81247 3.03957 0
M  V30 2996 N 282.489 -5.64903 1.3366 0
M  V30 2997 H 285.254 -1.73272 2.44534 0
M  V30 2998 H 282.815 -0.813512 1.39977 0
M  V30 2999 H 284.807 -3.88902 1.11971 0
M  V30 3000 H 283.377 -3.09908 0.409371 0
M  V30 3001 H 282.597 -2.70847 2.86419 0
M  V30 3002 H 283.885 -3.82071 3.36005 0
M  V30 3003 H 283.283 -5.60975 0.729604 0
M  V30 3004 H 281.84 -6.40275 1.22032 0
M  V30 3005 N 285.273 -1.31445 -0.869486 0
M  V30 3006 C 286.689 -1.10113 -1.15531 0
M  V30 3007 C 286.889 0.128087 -2.01092 0
M  V30 3008 O 285.945 0.817276 -2.38908 0
M  V30 3009 C 287.258 -2.37291 -1.84698 0
M  V30 3010 C 288.806 -2.42906 -1.97397 0
M  V30 3011 C 289.281 -3.69967 -2.69979 0
M  V30 3012 N 290.772 -3.70864 -2.77514 0
M  V30 3013 C 291.507 -4.65875 -3.34287 0
M  V30 3014 N 291.003 -5.71242 -3.91988 0
M  V30 3015 N 292.796 -4.53394 -3.3225 0
M  V30 3016 H 284.947 -2.1028 -0.299347 0
M  V30 3017 H 287.21 -0.927683 -0.195214 0
M  V30 3018 H 286.916 -3.27078 -1.29278 0
M  V30 3019 H 286.79 -2.47125 -2.84972 0
M  V30 3020 H 289.177 -1.53588 -2.51982 0
M  V30 3021 H 289.258 -2.37036 -0.961643 0
M  V30 3022 H 288.902 -4.59652 -2.16062 0
M  V30 3023 H 288.832 -3.73103 -3.7162 0
M  V30 3024 H 291.323 -2.94697 -2.36563 0
M  V30 3025 H 291.636 -6.39817 -4.33421 0
M  V30 3026 H 289.981 -5.75015 -3.90362 0
M  V30 3027 H 293.172 -3.70252 -2.8641 0
M  V30 3028 H 293.345 -5.27617 -3.76197 0
M  V30 3029 N 286.751 1.08385 -1.14413 0
M  V30 3030 C 287.997 1.81044 -0.913834 0
M  V30 3031 C 288.33 1.86004 0.558209 0
M  V30 3032 O 287.605 1.33606 1.4135 0
M  V30 3033 C 287.888 3.26648 -1.51569 0
M  V30 3034 C 287.741 3.29895 -3.0576 0
M  V30 3035 C 289.06 4.23629 -1.19273 0
M  V30 3036 H 286.179 0.65727 -0.333414 0
M  V30 3037 H 288.821 1.26896 -1.41412 0
M  V30 3038 H 286.971 3.72889 -1.09023 0
M  V30 3039 H 288.643 2.91977 -3.57137 0
M  V30 3040 H 286.886 2.69163 -3.40197 0
M  V30 3041 H 287.557 4.32516 -3.42977 0
M  V30 3042 H 290.033 3.85727 -1.56057 0
M  V30 3043 H 288.909 5.23822 -1.64017 0
M  V30 3044 H 289.17 4.41968 -0.108068 0
M  V30 3045 N 288.23 0.939286 1.26551 0
M  V30 3046 C 289.162 0.404704 2.25599 0
M  V30 3047 C 290.175 -0.470983 1.55838 0
M  V30 3048 O 291.364 -0.281734 1.76263 0
M  V30 3049 C 288.464 -0.43764 3.36062 0
M  V30 3050 C 287.637 0.421449 4.35365 0
M  V30 3051 C 286.696 -0.36015 5.24966 0
M  V30 3052 O 285.722 0.236167 5.6871 0
M  V30 3053 N 286.924 -1.65715 5.56344 0
M  V30 3054 H 289.689 1.25618 2.72103 0
M  V30 3055 H 287.25 0.807963 1.40298 0
M  V30 3056 H 289.242 -0.967866 3.92956 0
M  V30 3057 H 287.812 -1.18991 2.89067 0
M  V30 3058 H 287.032 1.1329 3.7757 0
M  V30 3059 H 288.32 1.00835 4.98708 0
M  V30 3060 H 287.718 -2.16378 5.22682 0
M  V30 3061 H 286.275 -2.13366 6.15888 0
M  V30 3062 N 289.708 -1.40897 0.706093 0
M  V30 3063 C 290.638 -2.33418 0.0620085 0
M  V30 3064 C 291.619 -1.52385 -0.755827 0
M  V30 3065 O 292.804 -1.80886 -0.706674 0
M  V30 3066 C 289.934 -3.36293 -0.867445 0
M  V30 3067 C 288.888 -4.27716 -0.155932 0
M  V30 3068 C 288.214 -5.2105 -1.20046 0
M  V30 3069 C 289.514 -5.12944 0.984149 0
M  V30 3070 H 291.208 -2.87527 0.83477 0
M  V30 3071 H 288.754 -1.38249 0.402875 0
M  V30 3072 H 290.707 -3.99949 -1.32735 0
M  V30 3073 H 289.431 -2.80556 -1.67199 0
M  V30 3074 H 288.09 -3.65498 0.284047 0
M  V30 3075 H 287.738 -4.61624 -1.99781 0
M  V30 3076 H 287.438 -5.83056 -0.729328 0
M  V30 3077 H 288.962 -5.87584 -1.66066 0
M  V30 3078 H 290.376 -5.70109 0.604048 0
M  V30 3079 H 288.773 -5.83945 1.38304 0
M  V30 3080 H 289.843 -4.49485 1.81911 0
M  V30 3081 N 291.186 -0.45159 -1.50991 0
M  V30 3082 C 292.116 0.342898 -2.30969 0
M  V30 3083 C 293.097 1.00815 -1.37005 0
M  V30 3084 O 294.282 1.00907 -1.65926 0
M  V30 3085 C 291.412 1.43637 -3.16205 0
M  V30 3086 C 290.366 0.893818 -4.18563 0
M  V30 3087 C 289.692 2.08411 -4.92411 0
M  V30 3088 C 290.992 -0.0815568 -5.22236 0
M  V30 3089 H 292.686 -0.324556 -2.97636 0
M  V30 3090 H 290.232 -0.157531 -1.43136 0
M  V30 3091 H 292.185 1.9995 -3.70942 0
M  V30 3092 H 290.909 2.13232 -2.47386 0
M  V30 3093 H 289.568 0.352798 -3.64898 0
M  V30 3094 H 289.216 2.76658 -4.20082 0
M  V30 3095 H 288.916 1.72741 -5.61636 0
M  V30 3096 H 290.44 2.65251 -5.49976 0
M  V30 3097 H 291.854 0.391742 -5.7196 0
M  V30 3098 H 290.251 -0.351551 -5.99069 0
M  V30 3099 H 291.321 -1.01374 -4.74185 0
M  V30 3100 N 292.664 1.56529 -0.183458 0
M  V30 3101 C 293.611 2.18546 0.742055 0
M  V30 3102 C 294.581 1.12912 1.2182 0
M  V30 3103 O 295.766 1.41115 1.28418 0
M  V30 3104 C 292.906 2.83977 1.96089 0
M  V30 3105 C 292.019 4.04105 1.52719 0
M  V30 3106 C 291.154 4.57427 2.70063 0
M  V30 3107 C 290.193 5.69938 2.23243 0
M  V30 3108 N 289.33 6.17717 3.33722 0
M  V30 3109 H 294.17 2.97284 0.206432 0
M  V30 3110 H 291.707 1.46823 0.0901571 0
M  V30 3111 H 293.665 3.20077 2.67594 0
M  V30 3112 H 292.295 2.07822 2.47002 0
M  V30 3113 H 291.347 3.73745 0.708436 0
M  V30 3114 H 292.659 4.85513 1.1436 0
M  V30 3115 H 291.813 4.95772 3.49708 0
M  V30 3116 H 290.552 3.75101 3.11689 0
M  V30 3117 H 289.557 5.31133 1.42048 0
M  V30 3118 H 290.782 6.54073 1.82661 0
M  V30 3119 H 288.728 5.38317 3.74902 0
M  V30 3120 H 288.645 6.94146 2.99495 0
M  V30 3121 H 289.913 6.60713 4.13616 0
M  V30 3122 N 294.142 -0.090211 1.57342 0
M  V30 3123 C 295.553 -0.644173 1.75235 0
M  V30 3124 C 295.904 -1.78865 0.806335 0
M  V30 3125 O 295.029 -2.16395 -0.0140128 0
M  V30 3126 C 295.624 -1.17532 3.1776 0
M  V30 3127 C 294.183 -1.67531 3.37061 0
M  V30 3128 C 293.33 -0.58693 2.71017 0
M  V30 3129 H 296.281 0.135884 1.58117 0
M  V30 3130 H 296.302 -2.04455 3.20902 0
M  V30 3131 H 295.814 -0.342138 3.86589 0
M  V30 3132 H 293.915 -2.53234 2.73319 0
M  V30 3133 H 294.028 -1.76493 4.45406 0
M  V30 3134 H 292.392 -1.02756 2.33052 0
M  V30 3135 H 293.175 0.235758 3.4249 0
M  V30 3136 N 295.62 -1.53406 -0.361157 0
M  V30 3137 C 296.568 -1.80832 -1.46296 0
M  V30 3138 C 297.562 -0.677699 -1.55253 0
M  V30 3139 O 298.768 -0.860723 -1.58087 0
M  V30 3140 H 295.143 -0.572627 -0.487445 0
M  V30 3141 H 297.114 -2.73045 -1.20371 0
M  V30 3142 C 295.863 -2.01907 -2.8307 0
M  V30 3143 H 295.186 -2.88349 -2.76938 0
M  V30 3144 H 296.626 -2.25072 -3.59331 0
M  V30 3145 C 295.085 -0.799449 -3.27277 0
M  V30 3146 O 295.615 0.00971761 -4.01699 0
M  V30 3147 N 293.821 -0.621637 -2.83873 0
M  V30 3148 H 293.368 -1.28126 -2.23476 0
M  V30 3149 H 293.326 0.19298 -3.13807 0
M  V30 3150 N 297.098 0.621204 -1.44841 0
M  V30 3151 C 298.347 1.37658 -1.47422 0
M  V30 3152 C 298.66 1.95264 -0.114629 0
M  V30 3153 O 299.866 2.71494 -0.0180199 0
M  V30 3154 C 298.322 2.49285 -2.59586 0
M  V30 3155 C 297.93 1.98149 -4.01797 0
M  V30 3156 C 299.674 3.26409 -2.71399 0
M  V30 3157 C 297.581 3.07178 -5.05367 0
M  V30 3158 H 296.511 0.517344 -0.548517 0
M  V30 3159 H 299.162 0.667257 -1.70938 0
M  V30 3160 H 297.544 3.22839 -2.29328 0
M  V30 3161 H 298.718 1.31395 -4.41669 0
M  V30 3162 H 297.033 1.33812 -3.94314 0
M  V30 3163 H 299.63 4.07706 -3.45948 0
M  V30 3164 H 299.973 3.76535 -1.77559 0
M  V30 3165 H 300.506 2.5995 -3.01116 0
M  V30 3166 H 297.245 2.61985 -6.00869 0
M  V30 3167 H 296.765 3.72542 -4.70077 0
M  V30 3168 H 298.444 3.71789 -5.29511 0
M  V30 3169 N 298.576 1.31904 0.862503 0
M  V30 3170 C 299.987 1.19803 1.43193 0
M  V30 3171 C 300.338 -0.192567 1.95253 0
M  V30 3172 O 299.463 -1.09081 1.86896 0
M  V30 3173 C 300.058 2.16883 2.60283 0
M  V30 3174 C 298.617 2.08692 3.13248 0
M  V30 3175 C 297.764 2.05691 1.85975 0
M  V30 3176 H 300.715 1.43846 0.670365 0
M  V30 3177 H 300.736 1.76278 3.37204 0
M  V30 3178 H 300.248 3.18083 2.22363 0
M  V30 3179 H 298.349 1.10713 3.55771 0
M  V30 3180 H 298.462 2.9815 3.75025 0
M  V30 3181 H 296.826 1.50814 2.05249 0
M  V30 3182 H 297.609 3.08659 1.50282 0
M  V30 3183 N 300.054 -1.07777 1.14986 0
M  V30 3184 C 300.964 -2.18404 0.856546 0
M  V30 3185 C 301.98 -1.73211 -0.165485 0
M  V30 3186 O 303.156 -2.01399 0.00755219 0
M  V30 3187 C 300.221 -3.44977 0.34526 0
M  V30 3188 C 299.282 -4.0476 1.43065 0
M  V30 3189 C 298.515 -5.25291 0.943663 0
M  V30 3190 O 298.738 -5.70004 -0.212426 0
M  V30 3191 O 297.672 -5.76638 1.72547 0
M  V30 3192 H 301.498 -2.45978 1.78125 0
M  V30 3193 H 299.083 -1.17033 0.928631 0
M  V30 3194 H 300.965 -4.21348 0.0663671 0
M  V30 3195 H 299.64 -3.18965 -0.551631 0
M  V30 3196 H 298.547 -3.29949 1.76309 0
M  V30 3197 H 299.88 -4.35035 2.30229 0
M  V30 3198 N 301.532 -0.945985 -1.26051 0
M  V30 3199 C 302.943 -0.638096 -1.75457 0
M  V30 3200 C 303.294 0.846672 -1.76991 0
M  V30 3201 O 302.419 1.66262 -1.38513 0
M  V30 3202 C 303.014 -1.15157 -3.18629 0
M  V30 3203 C 301.573 -0.894004 -3.65629 0
M  V30 3204 C 300.72 -1.29967 -2.44957 0
M  V30 3205 H 303.671 -1.12376 -1.1206 0
M  V30 3206 H 303.692 -0.507615 -3.77099 0
M  V30 3207 H 303.204 -2.23222 -3.1748 0
M  V30 3208 H 301.305 0.172057 -3.72203 0
M  V30 3209 H 301.418 -1.52439 -4.54202 0
M  V30 3210 H 299.782 -0.718078 -2.44368 0
M  V30 3211 H 300.565 -2.38935 -2.46505 0
M  V30 3212 N 303.011 1.40521 -0.713556 0
M  V30 3213 C 303.921 2.34522 -0.0606667 0
M  V30 3214 C 304.937 1.57193 0.74607 0
M  V30 3215 O 306.113 1.89591 0.679493 0
M  V30 3216 C 303.178 3.36081 0.851491 0
M  V30 3217 C 302.239 4.29286 0.0349339 0
M  V30 3218 C 301.472 5.25994 0.903649 0
M  V30 3219 O 301.695 5.28616 2.14292 0
M  V30 3220 O 300.629 6.00918 0.343723 0
M  V30 3221 H 304.455 2.91968 -0.835972 0
M  V30 3222 H 302.04 1.41681 -0.47402 0
M  V30 3223 H 303.922 3.98369 1.37404 0
M  V30 3224 H 302.597 2.81052 1.60598 0
M  V30 3225 H 301.504 3.70289 -0.532633 0
M  V30 3226 H 302.837 4.87462 -0.681287 0
M  V30 3227 N 304.489 0.459591 1.5075 0
M  V30 3228 C 305.419 -0.330644 2.31147 0
M  V30 3229 C 306.4 -1.00087 1.37538 0
M  V30 3230 O 307.585 -1.00025 1.66459 0
M  V30 3231 C 304.715 -1.41958 3.16962 0
M  V30 3232 C 303.669 -0.871608 4.19031 0
M  V30 3233 C 302.995 -2.05797 4.9351 0
M  V30 3234 C 304.295 0.109251 5.22186 0
M  V30 3235 H 305.989 0.340336 2.97459 0
M  V30 3236 H 303.535 0.165119 1.4305 0
M  V30 3237 H 305.488 -1.9798 3.71997 0
M  V30 3238 H 304.212 -2.11917 2.48513 0
M  V30 3239 H 302.871 -0.333442 3.6508 0
M  V30 3240 H 302.519 -2.74427 4.21544 0
M  V30 3241 H 302.219 -1.6976 5.62544 0
M  V30 3242 H 303.743 -2.62331 5.51375 0
M  V30 3243 H 305.157 -0.361405 5.7216 0
M  V30 3244 H 303.554 0.383316 5.98875 0
M  V30 3245 H 304.624 1.03887 4.73641 0
M  V30 3246 N 305.967 -1.56429 0.191757 0
M  V30 3247 C 307.378 -1.83912 -0.321428 0
M  V30 3248 C 307.729 -1.11231 -1.61623 0
M  V30 3249 O 306.854 -0.37202 -2.13178 0
M  V30 3250 C 307.449 -3.33624 -0.589961 0
M  V30 3251 C 306.008 -3.6153 -1.04753 0
M  V30 3252 C 305.155 -2.7714 -0.0943327 0
M  V30 3253 H 308.106 -1.53161 0.415612 0
M  V30 3254 H 308.127 -3.52213 -1.43966 0
M  V30 3255 H 307.639 -3.86495 0.352588 0
M  V30 3256 H 305.74 -3.14089 -2.00447 0
M  V30 3257 H 305.853 -4.69737 -0.942549 0
M  V30 3258 H 304.217 -2.47638 -0.595589 0
M  V30 3259 H 305 -3.32799 0.842601 0
M  V30 3260 N 307.445 0.0818655 -1.57387 0
M  V30 3261 C 308.67 0.799946 -1.91352 0
M  V30 3262 C 309.095 1.70833 -0.787258 0
M  V30 3263 O 308.453 1.79419 0.26048 0
M  V30 3264 C 308.501 1.57812 -3.24234 0
M  V30 3265 O 307.605 2.68806 -3.12757 0
M  V30 3266 H 306.946 0.21891 -0.626877 0
M  V30 3267 H 309.476 0.0531256 -2.04531 0
M  V30 3268 H 309.486 1.95952 -3.57864 0
M  V30 3269 H 308.161 0.911548 -4.05788 0
M  V30 3270 H 306.738 2.33597 -2.90666 0
M  V30 3271 N 308.923 1.53595 0.353017 0
M  V30 3272 C 310.2 1.61002 1.11075 0
M  V30 3273 C 310.58 0.425356 2.0677 0
M  V30 3274 O 309.928 -0.583267 2.2093 0
M  V30 3275 C 310.138 2.96631 1.83877 0
M  V30 3276 C 311.486 3.51653 2.37961 0
M  V30 3277 O 312.51 2.98743 1.93987 0
M  V30 3278 O 311.369 4.44177 3.18386 0
M  V30 3279 H 308.463 0.650825 0.510251 0
M  V30 3280 H 311.009 1.6594 0.35527 0
M  V30 3281 H 309.781 3.74293 1.14108 0
M  V30 3282 H 309.404 2.95242 2.66304 0
M  V30 3283 N 310.401 -0.613514 1.45168 0
M  V30 3284 C 311.364 -1.7065 1.53007 0
M  V30 3285 C 312.364 -1.5548 0.410184 0
M  V30 3286 O 313.554 -1.60656 0.673455 0
M  V30 3287 C 310.686 -3.09875 1.42093 0
M  V30 3288 H 311.879 -1.65068 2.50385 0
M  V30 3289 H 309.432 -0.828728 1.32521 0
M  V30 3290 H 310.167 -3.21039 0.458769 0
M  V30 3291 H 309.952 -3.22293 2.23315 0
M  V30 3292 H 311.442 -3.895 1.50598 0
M  V30 3293 N 311.879 -1.3236 -0.855495 0
M  V30 3294 C 313.119 -1.24187 -1.62348 0
M  V30 3295 C 313.483 0.193597 -1.91021 0
M  V30 3296 O 314.684 0.39904 -2.65822 0
M  V30 3297 C 312.955 -2.07661 -2.90881 0
M  V30 3298 S 314.514 -2.16505 -3.81669 0
M  V30 3299 H 311.332 -0.442076 -0.556857 0
M  V30 3300 H 313.934 -1.67198 -1.01317 0
M  V30 3301 H 312.638 -3.11018 -2.67761 0
M  V30 3302 H 312.169 -1.65425 -3.56929 0
M  V30 3303 H 314.184 -1.31394 -4.78487 0
M  V30 3304 N 313.357 1.07166 -1.15556 0
M  V30 3305 C 314.585 1.83514 -0.955519 0
M  V30 3306 C 315 1.82163 0.49621 0
M  V30 3307 O 314.357 1.23441 1.34419 0
M  V30 3308 C 314.408 3.30515 -1.46432 0
M  V30 3309 O 314.129 3.31937 -2.85918 0
M  V30 3310 C 315.63 4.23625 -1.30603 0
M  V30 3311 H 312.85 0.578926 -0.339244 0
M  V30 3312 H 315.394 1.35265 -1.53374 0
M  V30 3313 H 313.549 3.76106 -0.928584 0
M  V30 3314 H 313.963 4.23794 -3.09029 0
M  V30 3315 H 315.437 5.24831 -1.71047 0
M  V30 3316 H 315.914 4.38485 -0.250441 0
M  V30 3317 H 316.52 3.83871 -1.83094 0
M  V30 3318 N 314.835 0.952656 1.25548 0
M  V30 3319 C 315.768 0.415525 2.24385 0
M  V30 3320 C 316.746 -0.502046 1.54655 0
M  V30 3321 O 317.93 -0.436875 1.83368 0
M  V30 3322 C 315.057 -0.401734 3.36309 0
M  V30 3323 C 314.103 0.455949 4.24056 0
M  V30 3324 S 314.936 1.88698 5.01152 0
M  V30 3325 C 316.092 1.07809 6.16545 0
M  V30 3326 H 316.325 1.25315 2.69599 0
M  V30 3327 H 313.858 0.756587 1.34592 0
M  V30 3328 H 315.816 -0.867329 4.01233 0
M  V30 3329 H 314.477 -1.21416 2.89684 0
M  V30 3330 H 313.67 -0.170776 5.03711 0
M  V30 3331 H 313.272 0.856675 3.64056 0
M  V30 3332 H 315.564 0.325816 6.76716 0
M  V30 3333 H 316.507 1.84849 6.83547 0
M  V30 3334 H 316.915 0.60909 5.61204 0
M  V30 3335 N 316.313 -1.40141 0.720998 0
M  V30 3336 C 317.223 -2.34486 0.0731031 0
M  V30 3337 C 318.239 -1.57587 -0.737723 0
M  V30 3338 O 319.415 -1.89949 -0.669429 0
M  V30 3339 C 316.48 -3.36528 -0.833656 0
M  V30 3340 C 315.541 -4.29298 -0.0121673 0
M  V30 3341 C 314.774 -5.26466 -0.875742 0
M  V30 3342 O 314.997 -5.29745 -2.11485 0
M  V30 3343 O 313.931 -6.01092 -0.31185 0
M  V30 3344 H 317.757 -2.9152 0.851444 0
M  V30 3345 H 315.342 -1.41427 0.481527 0
M  V30 3346 H 317.224 -3.99093 -1.35289 0
M  V30 3347 H 315.899 -2.81899 -1.59105 0
M  V30 3348 H 314.806 -3.70001 0.552262 0
M  V30 3349 H 316.139 -4.87094 0.707129 0
M  V30 3350 N 317.792 -0.46758 -1.50504 0
M  V30 3351 C 319.038 0.0887532 -2.02606 0
M  V30 3352 C 319.371 1.39686 -1.34913 0
M  V30 3353 O 318.646 1.88644 -0.473694 0
M  V30 3354 C 318.929 0.276206 -3.59039 0
M  V30 3355 C 318.782 -1.05267 -4.37309 0
M  V30 3356 C 320.101 1.03235 -4.27821 0
M  V30 3357 H 317.22 0.0307814 -0.736357 0
M  V30 3358 H 319.862 -0.612485 -1.79857 0
M  V30 3359 H 318.012 0.8735 -3.78553 0
M  V30 3360 H 319.684 -1.68628 -4.29374 0
M  V30 3361 H 317.927 -1.65015 -4.01189 0
M  V30 3362 H 318.598 -0.875197 -5.45018 0
M  V30 3363 H 321.074 0.526111 -4.12761 0
M  V30 3364 H 319.95 1.1323 -5.37094 0
M  V30 3365 H 320.211 2.06806 -3.90748 0
M  V30 3366 N 319.27 1.56325 -0.20005 0
M  V30 3367 C 320.202 2.16555 0.750771 0
M  V30 3368 C 321.215 1.12871 1.1732 0
M  V30 3369 O 322.404 1.39943 1.10807 0
M  V30 3370 C 319.504 2.71684 2.02586 0
M  V30 3371 C 318.677 4.00321 1.76244 0
M  V30 3372 C 317.736 4.40227 2.88248 0
M  V30 3373 O 316.762 5.07552 2.57642 0
M  V30 3374 N 317.964 4.04138 4.16717 0
M  V30 3375 H 320.729 2.98772 0.235685 0
M  V30 3376 H 318.29 1.6189 -0.0182594 0
M  V30 3377 H 320.282 2.95363 2.76664 0
M  V30 3378 H 318.852 1.93893 2.45202 0
M  V30 3379 H 318.072 3.84723 0.85919 0
M  V30 3380 H 319.36 4.84279 1.56048 0
M  V30 3381 H 318.758 3.49993 4.44434 0
M  V30 3382 H 317.315 4.32756 4.87407 0
M  V30 3383 N 320.748 -0.0735177 1.57428 0
M  V30 3384 C 321.711 -1.07192 2.02589 0
M  V30 3385 C 322.711 -1.31695 0.922661 0
M  V30 3386 O 323.901 -1.27445 1.18758 0
M  V30 3387 C 321.033 -2.41599 2.40506 0
M  V30 3388 H 322.226 -0.682727 2.92025 0
M  V30 3389 H 319.779 -0.319193 1.53006 0
M  V30 3390 H 320.514 -2.85354 1.5409 0
M  V30 3391 H 320.299 -2.25156 3.21009 0
M  V30 3392 H 321.789 -3.13367 2.76027 0
M  V30 3393 N 322.226 -1.5378 -0.344866 0
M  V30 3394 C 323.637 -1.62428 -0.920552 0
M  V30 3395 C 323.988 -0.504747 -1.89596 0
M  V30 3396 O 323.113 0.365711 -2.13287 0
M  V30 3397 C 323.708 -2.94419 -1.67639 0
M  V30 3398 C 322.267 -3.05333 -2.20111 0
M  V30 3399 C 321.414 -2.57866 -1.01982 0
M  V30 3400 H 324.365 -1.58222 -0.123042 0
M  V30 3401 H 324.386 -2.83384 -2.53917 0
M  V30 3402 H 323.898 -3.7588 -0.966224 0
M  V30 3403 H 321.999 -2.28502 -2.94308 0
M  V30 3404 H 322.112 -4.10778 -2.46573 0
M  V30 3405 H 320.476 -2.13241 -1.39285 0
M  V30 3406 H 321.259 -3.41765 -0.324308 0
M  V30 3407 N 323.704 0.605807 -1.45491 0
M  V30 3408 C 324.652 1.73754 -1.54636 0
M  V30 3409 C 325.646 1.64207 -0.416219 0
M  V30 3410 O 326.852 1.69979 -0.592199 0
M  V30 3411 H 323.227 0.574073 -0.485741 0
M  V30 3412 H 325.198 1.63169 -2.49837 0
M  V30 3413 C 323.947 3.12135 -1.53189 0
M  V30 3414 H 323.27 3.20141 -2.39478 0
M  V30 3415 H 324.71 3.91147 -1.63645 0
M  V30 3416 C 323.169 3.35921 -0.256616 0
M  V30 3417 O 323.699 3.96194 0.662798 0
M  V30 3418 N 321.905 2.90204 -0.151751 0
M  V30 3419 H 321.452 2.41336 -0.90081 0
M  V30 3420 H 321.41 3.06492 0.700699 0
M  V30 3421 N 325.182 1.32811 0.848464 0
M  V30 3422 C 326.431 1.23075 1.59798 0
M  V30 3423 C 326.744 -0.204419 1.94529 0
M  V30 3424 O 327.95 -0.423701 2.68173 0
M  V30 3425 C 326.406 2.15594 2.88179 0
M  V30 3426 C 326.014 3.64228 2.60849 0
M  V30 3427 C 327.758 2.14709 3.66197 0
M  V30 3428 C 325.665 4.48689 3.85269 0
M  V30 3429 H 324.595 0.457091 0.599653 0
M  V30 3430 H 327.246 1.57813 0.936342 0
M  V30 3431 H 325.628 1.73778 3.55833 0
M  V30 3432 H 326.802 4.14424 2.01467 0
M  V30 3433 H 325.117 3.67306 1.96151 0
M  V30 3434 H 327.714 2.75046 4.58534 0
M  V30 3435 H 328.057 1.13966 4.00397 0
M  V30 3436 H 328.59 2.54837 3.05455 0
M  V30 3437 H 325.329 5.5027 3.56207 0
M  V30 3438 H 324.849 4.03241 4.44024 0
M  V30 3439 H 326.528 4.62006 4.52946 0
M  V30 3440 N 326.66 -1.06551 1.16123 0
M  V30 3441 C 327.592 -2.13908 0.823171 0
M  V30 3442 C 328.605 -1.61926 -0.16843 0
M  V30 3443 O 329.794 -1.78412 0.055962 0
M  V30 3444 C 326.894 -3.38283 0.204424 0
M  V30 3445 C 326.067 -4.19589 1.23548 0
M  V30 3446 C 325.126 -5.2233 0.637011 0
M  V30 3447 O 324.152 -5.54034 1.30516 0
M  V30 3448 N 325.354 -5.77621 -0.577474 0
M  V30 3449 H 328.119 -2.43508 1.74711 0
M  V30 3450 H 325.68 -1.2253 1.05821 0
M  V30 3451 H 327.672 -4.0416 -0.208909 0
M  V30 3452 H 326.242 -3.06329 -0.623012 0
M  V30 3453 H 325.462 -3.49406 1.82507 0
M  V30 3454 H 326.75 -4.70718 1.93137 0
M  V30 3455 H 326.148 -5.54125 -1.13853 0
M  V30 3456 H 324.705 -6.45087 -0.933053 0
M  V30 3457 N 328.138 -0.959301 -1.25041 0
M  V30 3458 C 329.387 -0.612254 -1.92183 0
M  V30 3459 C 329.7 0.855347 -1.75907 0
M  V30 3460 O 330.906 1.31256 -2.37664 0
M  V30 3461 C 329.362 -1.04435 -3.44414 0
M  V30 3462 C 328.97 -2.53482 -3.69393 0
M  V30 3463 C 330.714 -0.770055 -4.17457 0
M  V30 3464 C 328.621 -2.90468 -5.15153 0
M  V30 3465 H 327.551 -0.225279 -0.719559 0
M  V30 3466 H 330.202 -1.16438 -1.41825 0
M  V30 3467 H 328.584 -0.4206 -3.9376 0
M  V30 3468 H 329.758 -3.20916 -3.30681 0
M  V30 3469 H 328.073 -2.78432 -3.0962 0
M  V30 3470 H 330.67 -1.02249 -5.24832 0
M  V30 3471 H 331.013 0.293611 -4.15263 0
M  V30 3472 H 331.546 -1.35437 -3.74034 0
M  V30 3473 H 328.285 -3.95871 -5.22462 0
M  V30 3474 H 327.805 -2.27711 -5.54894 0
M  V30 3475 H 329.484 -2.79914 -5.83315 0
M  V30 3476 N 329.616 1.39756 -0.72842 0
M  V30 3477 C 331.027 1.83498 -0.344289 0
M  V30 3478 C 331.378 1.60868 1.12321 0
M  V30 3479 O 330.503 1.09634 1.86573 0
M  V30 3480 C 331.098 3.33114 -0.618112 0
M  V30 3481 C 329.657 3.753 -0.287549 0
M  V30 3482 C 328.804 2.62831 -0.884048 0
M  V30 3483 H 331.755 1.28842 -0.926578 0
M  V30 3484 H 331.776 3.80334 0.112349 0
M  V30 3485 H 331.288 3.49553 -1.68625 0
M  V30 3486 H 329.389 3.64451 0.775012 0
M  V30 3487 H 329.502 4.72945 -0.765512 0
M  V30 3488 H 327.866 2.52792 -0.311149 0
M  V30 3489 H 328.649 2.82078 -1.95671 0
M  V30 3490 N 331.094 0.475555 1.50254 0
M  V30 3491 C 332.319 -0.0777042 2.07254 0
M  V30 3492 C 332.744 -1.3235 1.3366 0
M  V30 3493 O 332.102 -1.77152 0.385597 0
M  V30 3494 C 332.15 -0.340169 3.58992 0
M  V30 3495 O 331.254 -1.41982 3.87188 0
M  V30 3496 H 330.595 0.0149556 0.663832 0
M  V30 3497 H 333.125 0.667878 1.93392 0
M  V30 3498 H 333.135 -0.579332 4.03866 0
M  V30 3499 H 331.81 0.570167 4.11973 0
M  V30 3500 H 330.387 -1.16762 3.54148 0
M  V30 3501 N 332.573 -1.56217 0.208337 0
M  V30 3502 C 333.505 -2.1695 -0.739276 0
M  V30 3503 C 334.518 -1.13492 -1.1672 0
M  V30 3504 O 335.707 -1.40529 -1.10063 0
M  V30 3505 C 332.807 -2.72755 -2.01142 0
M  V30 3506 C 331.98 -4.0125 -1.74118 0
M  V30 3507 C 331.039 -4.41749 -2.85909 0
M  V30 3508 O 330.065 -5.08912 -2.54946 0
M  V30 3509 N 331.267 -4.06342 -4.14568 0
M  V30 3510 H 334.032 -2.98893 -0.219837 0
M  V30 3511 H 331.593 -1.61878 0.0268445 0
M  V30 3512 H 333.585 -2.96826 -2.75094 0
M  V30 3513 H 332.155 -1.95191 -2.4417 0
M  V30 3514 H 331.375 -3.85173 -0.838775 0
M  V30 3515 H 332.663 -4.851 -1.53477 0
M  V30 3516 H 332.061 -3.52345 -4.42571 0
M  V30 3517 H 330.618 -4.35335 -4.85105 0
M  V30 3518 N 334.051 0.0651679 -1.57465 0
M  V30 3519 C 334.961 1.09448 -2.07505 0
M  V30 3520 C 335.977 1.41974 -1.00595 0
M  V30 3521 O 337.153 1.52018 -1.32107 0
M  V30 3522 C 334.218 2.38689 -2.51453 0
M  V30 3523 C 333.279 2.13073 -3.72691 0
M  V30 3524 C 332.512 3.36152 -4.14533 0
M  V30 3525 O 332.735 4.45517 -3.56189 0
M  V30 3526 O 331.669 3.23974 -5.07272 0
M  V30 3527 H 335.495 0.69935 -2.95538 0
M  V30 3528 H 333.08 0.279752 -1.46757 0
M  V30 3529 H 334.962 3.14736 -2.80212 0
M  V30 3530 H 333.637 2.77568 -1.66546 0
M  V30 3531 H 332.544 1.34709 -3.49005 0
M  V30 3532 H 333.877 1.79071 -4.5847 0
M  V30 3533 N 335.529 1.53961 0.336706 0
M  V30 3534 C 336.757 1.75483 1.09605 0
M  V30 3535 C 337.172 0.4972 1.82136 0
M  V30 3536 O 336.529 -0.53149 1.74589 0
M  V30 3537 C 336.58 2.93943 2.10428 0
M  V30 3538 O 336.301 4.14842 1.40846 0
M  V30 3539 C 337.802 3.27571 2.98684 0
M  V30 3540 H 335.022 0.586166 0.326574 0
M  V30 3541 H 337.566 2.00808 0.38683 0
M  V30 3542 H 335.721 2.70929 2.76905 0
M  V30 3543 H 336.135 4.81383 2.08255 0
M  V30 3544 H 337.609 4.13791 3.6535 0
M  V30 3545 H 338.086 2.44168 3.65074 0
M  V30 3546 H 338.692 3.52615 2.37787 0
M  V30 3547 N 337.007 -0.598083 1.45811 0
M  V30 3548 C 338.235 -1.38322 1.53866 0
M  V30 3549 C 338.65 -1.87992 0.174479 0
M  V30 3550 O 338.007 -1.62756 -0.825627 0
M  V30 3551 C 338.058 -2.58125 2.53089 0
M  V30 3552 O 337.779 -2.10516 3.84206 0
M  V30 3553 C 339.28 -3.50869 2.70935 0
M  V30 3554 H 336.5 -0.423093 0.520801 0
M  V30 3555 H 339.044 -0.728527 1.91083 0
M  V30 3556 H 337.199 -3.19615 2.18917 0
M  V30 3557 H 337.613 -2.88425 4.38077 0
M  V30 3558 H 339.087 -4.31451 3.44317 0
M  V30 3559 H 339.564 -4.01822 1.77301 0
M  V30 3560 H 340.17 -2.95225 3.06141 0
M  V30 3561 N 338.485 -1.33259 -0.841409 0
M  V30 3562 C 339.715 -1.2742 -1.62628 0
M  V30 3563 C 340.123 0.157604 -1.88542 0
M  V30 3564 O 339.466 1.10938 -1.46419 0
M  V30 3565 C 339.528 -1.97797 -3.00194 0
M  V30 3566 C 339.192 -3.47109 -2.97261 0
M  V30 3567 C 340.189 -4.42358 -2.73159 0
M  V30 3568 C 337.874 -3.89247 -3.17478 0
M  V30 3569 C 339.868 -5.77718 -2.69296 0
M  V30 3570 C 337.555 -5.24713 -3.13241 0
M  V30 3571 C 338.553 -6.1876 -2.89181 0
M  V30 3572 O 338.241 -7.51745 -2.84843 0
M  V30 3573 H 337.973 -0.440436 -0.512827 0
M  V30 3574 H 340.527 -1.76153 -1.05638 0
M  V30 3575 H 338.757 -1.43652 -3.59028 0
M  V30 3576 H 340.446 -1.8549 -3.61038 0
M  V30 3577 H 341.212 -4.11127 -2.57294 0
M  V30 3578 H 337.091 -3.16456 -3.35226 0
M  V30 3579 H 340.635 -6.51097 -2.50436 0
M  V30 3580 H 336.532 -5.55569 -3.28654 0
M  V30 3581 H 337.3 -7.61262 -3.00702 0
M  V30 3582 N 339.963 1.05934 -1.16686 0
M  V30 3583 C 341.209 1.79211 -0.962023 0
M  V30 3584 C 341.564 1.85667 0.504545 0
M  V30 3585 O 340.857 1.33991 1.36956 0
M  V30 3586 C 341.051 3.23105 -1.52767 0
M  V30 3587 C 340.88 3.30673 -3.04771 0
M  V30 3588 C 339.65 3.40395 -3.73442 0
M  V30 3589 C 341.848 3.20234 -4.02436 0
M  V30 3590 N 339.83 3.37015 -5.13122 0
M  V30 3591 C 341.201 3.24138 -5.28521 0
M  V30 3592 C 343.256 3.04143 -3.9421 0
M  V30 3593 C 341.959 3.13607 -6.47336 0
M  V30 3594 C 343.985 2.94951 -5.12599 0
M  V30 3595 C 343.347 2.99481 -6.37566 0
M  V30 3596 H 339.446 0.668442 -0.405844 0
M  V30 3597 H 342.03 1.26341 -1.48142 0
M  V30 3598 H 340.201 3.74364 -1.03471 0
M  V30 3599 H 341.933 3.84579 -1.26021 0
M  V30 3600 H 338.688 3.45344 -3.2409 0
M  V30 3601 H 339.112 3.38815 -5.86117 0
M  V30 3602 H 343.754 2.99484 -2.98445 0
M  V30 3603 H 341.472 3.17022 -7.43319 0
M  V30 3604 H 345.058 2.83583 -5.08008 0
M  V30 3605 H 343.938 2.92431 -7.27636 0
M  V30 3606 N 341.441 0.965919 1.2453 0
M  V30 3607 C 342.681 0.634656 1.94297 0
M  V30 3608 C 343.045 -0.814822 1.73852 0
M  V30 3609 O 344.246 -1.25622 2.3764 0
M  V30 3610 C 342.517 0.99702 3.43212 0
M  V30 3611 S 344.076 0.780038 4.31811 0
M  V30 3612 H 340.894 0.232893 0.671775 0
M  V30 3613 H 343.496 1.24249 1.50938 0
M  V30 3614 H 342.2 2.04886 3.55598 0
M  V30 3615 H 341.731 0.379888 3.91562 0
M  V30 3616 H 343.746 -0.343512 4.9501 0
M  V30 3617 N 342.919 -1.39368 0.735821 0
M  V30 3618 C 344.149 -2.04498 0.293967 0
M  V30 3619 C 344.557 -1.55593 -1.07645 0
M  V30 3620 O 343.9 -0.716324 -1.69158 0
M  V30 3621 C 343.962 -3.58836 0.218342 0
M  V30 3622 C 343.626 -4.30721 1.52736 0
M  V30 3623 C 344.623 -4.57305 2.47322 0
M  V30 3624 C 342.308 -4.69251 1.79189 0
M  V30 3625 C 344.302 -5.21429 3.66593 0
M  V30 3626 C 341.989 -5.33104 2.98737 0
M  V30 3627 C 342.987 -5.59125 3.9226 0
M  V30 3628 O 342.675 -6.21653 5.09708 0
M  V30 3629 H 342.407 -0.664118 0.126189 0
M  V30 3630 H 344.961 -1.79385 1.00051 0
M  V30 3631 H 343.191 -3.8285 -0.544314 0
M  V30 3632 H 344.88 -4.05447 -0.191626 0
M  V30 3633 H 345.646 -4.27983 2.28156 0
M  V30 3634 H 341.525 -4.48354 1.07239 0
M  V30 3635 H 345.069 -5.41656 4.39607 0
M  V30 3636 H 340.966 -5.61846 3.17803 0
M  V30 3637 H 341.734 -6.40146 5.10054 0
M  V30 3638 N 344.397 -0.483516 -1.5 0
M  V30 3639 C 345.646 0.0689102 -2.01582 0
M  V30 3640 C 345.959 1.39655 -1.36952 0
M  V30 3641 O 347.165 2.03465 -1.79762 0
M  V30 3642 C 345.621 0.173302 -3.59483 0
M  V30 3643 C 345.229 -1.14665 -4.33077 0
M  V30 3644 C 346.973 0.677024 -4.19066 0
M  V30 3645 C 344.88 -1.00537 -5.82792 0
M  V30 3646 H 343.81 0.0295277 -0.753422 0
M  V30 3647 H 346.461 -0.620295 -1.72698 0
M  V30 3648 H 344.843 0.926569 -3.85007 0
M  V30 3649 H 346.017 -1.91184 -4.19268 0
M  V30 3650 H 344.332 -1.58244 -3.85159 0
M  V30 3651 H 346.929 0.799952 -5.28682 0
M  V30 3652 H 347.272 1.67151 -3.81269 0
M  V30 3653 H 347.805 -0.0192083 -3.97795 0
M  V30 3654 H 344.544 -1.9736 -6.25083 0
M  V30 3655 H 344.064 -0.280776 -5.99142 0
M  V30 3656 H 345.743 -0.677 -6.43448 0
M  V30 3657 N 345.875 1.56104 -0.216619 0
M  V30 3658 C 346.822 2.2007 0.695531 0
M  V30 3659 C 347.792 1.15471 1.19397 0
M  V30 3660 O 348.977 1.43807 1.25396 0
M  V30 3661 C 346.117 2.88073 1.90021 0
M  V30 3662 C 345.23 4.07253 1.44113 0
M  V30 3663 C 344.365 4.63052 2.603 0
M  V30 3664 C 343.404 5.74545 2.11103 0
M  V30 3665 N 342.541 6.24656 3.20545 0
M  V30 3666 H 347.381 2.97655 0.143327 0
M  V30 3667 H 344.918 1.46982 0.0589934 0
M  V30 3668 H 346.876 3.25681 2.60745 0
M  V30 3669 H 345.506 2.13015 2.42538 0
M  V30 3670 H 344.558 3.75164 0.628999 0
M  V30 3671 H 345.87 4.8783 1.04036 0
M  V30 3672 H 345.024 5.03078 3.39113 0
M  V30 3673 H 343.763 3.81628 3.03663 0
M  V30 3674 H 342.768 5.34027 1.3075 0
M  V30 3675 H 343.993 6.57801 1.68746 0
M  V30 3676 H 341.939 5.46148 3.63399 0
M  V30 3677 H 341.856 7.00343 2.84704 0
M  V30 3678 H 343.124 6.69338 3.99508 0
M  V30 3679 N 347.353 -0.0568162 1.57498 0
M  V30 3680 C 348.263 -1.08346 2.08083 0
M  V30 3681 C 349.279 -1.41439 1.01346 0
M  V30 3682 O 350.455 -1.51316 1.32912 0
M  V30 3683 C 347.52 -2.37352 2.52715 0
M  V30 3684 C 346.581 -2.11093 3.73816 0
M  V30 3685 C 345.814 -3.33949 4.1631 0
M  V30 3686 O 346.037 -4.43622 3.58547 0
M  V30 3687 O 344.971 -3.21279 5.08983 0
M  V30 3688 H 348.797 -0.683667 2.95905 0
M  V30 3689 H 346.382 -0.271965 1.46904 0
M  V30 3690 H 348.264 -3.13246 2.81877 0
M  V30 3691 H 346.939 -2.76681 1.68016 0
M  V30 3692 H 345.846 -1.32856 3.49714 0
M  V30 3693 H 347.179 -1.76637 4.59413 0
M  V30 3694 N 348.832 -1.54138 -0.328536 0
M  V30 3695 C 349.762 -1.86167 -1.40939 0
M  V30 3696 C 350.743 -0.718044 -1.54202 0
M  V30 3697 O 351.928 -0.971328 -1.68163 0
M  V30 3698 C 349.058 -2.08461 -2.77779 0
M  V30 3699 C 348.012 -3.24299 -2.7931 0
M  V30 3700 C 347.338 -3.31955 -4.19178 0
M  V30 3701 C 348.638 -4.62065 -2.43502 0
M  V30 3702 H 350.332 -2.76689 -1.14383 0
M  V30 3703 H 347.878 -1.33132 -0.548806 0
M  V30 3704 H 349.831 -2.29453 -3.53454 0
M  V30 3705 H 348.555 -1.14684 -3.05802 0
M  V30 3706 H 347.214 -3.03187 -2.0609 0
M  V30 3707 H 346.862 -2.35745 -4.44335 0
M  V30 3708 H 346.562 -4.09805 -4.2111 0
M  V30 3709 H 348.086 -3.55175 -4.96672 0
M  V30 3710 H 349.5 -4.8297 -3.08889 0
M  V30 3711 H 347.897 -5.42429 -2.56693 0
M  V30 3712 H 348.967 -4.64652 -1.38659 0
M  V30 3713 N 350.31 0.590341 -1.46126 0
M  V30 3714 C 351.721 1.17243 -1.45296 0
M  V30 3715 C 352.072 1.95281 -0.189723 0
M  V30 3716 O 351.197 2.04502 0.707674 0
M  V30 3717 C 351.792 2.13284 -2.6324 0
M  V30 3718 C 350.351 2.66832 -2.65476 0
M  V30 3719 C 349.498 1.42557 -2.3785 0
M  V30 3720 H 352.449 0.378692 -1.54116 0
M  V30 3721 H 352.47 2.96619 -2.38323 0
M  V30 3722 H 351.982 1.56459 -3.55165 0
M  V30 3723 H 350.083 3.27548 -1.77603 0
M  V30 3724 H 350.196 3.10088 -3.65215 0
M  V30 3725 H 348.56 1.72107 -1.87753 0
M  V30 3726 H 349.343 0.875741 -3.31942 0
M  V30 3727 N 351.788 1.33704 0.83433 0
M  V30 3728 C 352.735 1.24335 1.94447 0
M  V30 3729 C 353.705 0.120991 1.65659 0
M  V30 3730 O 354.89 0.300035 1.88426 0
M  V30 3731 C 352.03 0.993124 3.30501 0
M  V30 3732 C 351.143 2.20217 3.71657 0
M  V30 3733 C 350.278 1.88572 4.96602 0
M  V30 3734 C 349.317 3.05683 5.30306 0
M  V30 3735 N 348.454 2.73997 6.46429 0
M  V30 3736 H 353.294 2.1928 2.01792 0
M  V30 3737 H 350.831 1.09035 0.987404 0
M  V30 3738 H 352.789 0.828467 4.08892 0
M  V30 3739 H 351.419 0.0803902 3.227 0
M  V30 3740 H 350.471 2.47642 2.88752 0
M  V30 3741 H 351.783 3.07752 3.92543 0
M  V30 3742 H 350.937 1.68776 5.82752 0
M  V30 3743 H 349.676 0.982799 4.77695 0
M  V30 3744 H 348.681 3.26088 4.42659 0
M  V30 3745 H 349.906 3.96737 5.51159 0
M  V30 3746 H 347.852 1.86268 6.28999 0
M  V30 3747 H 347.769 3.55064 6.67432 0
M  V30 3748 H 349.037 2.57679 7.35678 0
M  V30 3749 N 353.266 -1.05314 1.17247 0
M  V30 3750 C 354.514 -1.77941 0.958194 0
M  V30 3751 C 354.835 -1.88089 -0.514556 0
M  V30 3752 O 354.105 -1.39676 -1.37359 0
M  V30 3753 H 352.685 -0.659116 0.351533 0
M  V30 3754 H 355.347 -1.27166 1.47699 0
M  V30 3755 H 354.443 -2.79663 1.38546 0
M  V30 3756 N 354.744 -0.972509 -1.24016 0
M  V30 3757 C 355.991 -0.637034 -1.92219 0
M  V30 3758 C 356.319 0.828418 -1.75976 0
M  V30 3759 O 355.574 1.61206 -1.10955 0
M  V30 3760 C 355.873 -0.963694 -3.44162 0
M  V30 3761 C 355.539 -2.41807 -3.80579 0
M  V30 3762 C 354.201 -2.81556 -3.9023 0
M  V30 3763 C 356.553 -3.36172 -3.98293 0
M  V30 3764 C 353.881 -4.14702 -4.15017 0
M  V30 3765 C 356.233 -4.68952 -4.24578 0
M  V30 3766 C 354.897 -5.08472 -4.32449 0
M  V30 3767 H 354.167 -0.233107 -0.703379 0
M  V30 3768 H 356.814 -1.2249 -1.47202 0
M  V30 3769 H 355.119 -0.29365 -3.90698 0
M  V30 3770 H 356.816 -0.682449 -3.9515 0
M  V30 3771 H 353.406 -2.09988 -3.73635 0
M  V30 3772 H 357.59 -3.06644 -3.90234 0
M  V30 3773 H 352.846 -4.4494 -4.19331 0
M  V30 3774 H 357.02 -5.42037 -4.37229 0
M  V30 3775 H 354.647 -6.11665 -4.51409 0
M  V30 3776 N 356.222 1.38976 -0.743202 0
M  V30 3777 C 357.447 2.05161 -0.303936 0
M  V30 3778 C 357.872 1.55677 1.05576 0
M  V30 3779 O 357.23 0.704131 1.67068 0
M  V30 3780 C 357.278 3.59138 -0.324373 0
M  V30 3781 O 356.382 4.06668 0.685204 0
M  V30 3782 H 355.723 0.649815 -0.136518 0
M  V30 3783 H 358.253 1.77852 -1.01142 0
M  V30 3784 H 358.263 4.07639 -0.171618 0
M  V30 3785 H 356.938 3.94515 -1.31647 0
M  V30 3786 H 355.515 3.69561 0.497913 0
M  V30 3787 N 357.7 0.491464 1.49741 0
M  V30 3788 C 359.116 0.146835 1.58923 0
M  V30 3789 C 359.316 -1.34804 1.49767 0
M  V30 3790 O 358.372 -2.12317 1.36667 0
M  V30 3791 C 359.685 0.715157 2.92072 0
M  V30 3792 C 361.233 0.680407 3.05515 0
M  V30 3793 C 361.708 1.22663 4.41269 0
M  V30 3794 N 363.199 1.18691 4.47735 0
M  V30 3795 C 363.934 1.57984 5.51207 0
M  V30 3796 N 363.43 2.04824 6.6183 0
M  V30 3797 N 365.223 1.49459 5.41866 0
M  V30 3798 H 357.374 1.46347 1.53936 0
M  V30 3799 H 359.637 0.606453 0.728642 0
M  V30 3800 H 359.343 1.76317 3.04311 0
M  V30 3801 H 359.217 0.17018 3.76816 0
M  V30 3802 H 361.604 -0.358743 2.92911 0
M  V30 3803 H 361.685 1.26242 2.22478 0
M  V30 3804 H 361.329 2.26451 4.54623 0
M  V30 3805 H 361.259 0.620637 5.2293 0
M  V30 3806 H 363.75 0.843605 3.68364 0
M  V30 3807 H 364.063 2.32901 7.3687 0
M  V30 3808 H 362.408 2.08791 6.62896 0
M  V30 3809 H 365.599 1.12692 4.54333 0
M  V30 3810 H 365.772 1.80406 6.22381 0
M  V30 3811 N 359.178 -1.55987 0.224894 0
M  V30 3812 C 360.128 -2.17076 -0.697296 0
M  V30 3813 C 361.112 -1.12006 -1.15514 0
M  V30 3814 O 362.304 -1.37985 -1.10857 0
M  V30 3815 C 359.433 -2.85679 -1.90374 0
M  V30 3816 C 358.519 -3.97977 -1.46543 0
M  V30 3817 N 358.91 -5.00359 -0.739909 0
M  V30 3818 C 357.208 -4.10128 -1.75245 0
M  V30 3819 C 357.909 -5.79407 -0.515939 0
M  V30 3820 N 356.885 -5.32892 -1.07364 0
M  V30 3821 H 360.687 -2.93592 -0.134594 0
M  V30 3822 H 358.201 -1.62379 0.0262885 0
M  V30 3823 H 360.198 -3.27857 -2.57518 0
M  V30 3824 H 358.858 -2.1066 -2.47088 0
M  V30 3825 H 359.869 -5.16412 -0.392253 0
M  V30 3826 H 356.546 -3.46263 -2.33255 0
M  V30 3827 H 357.936 -6.71872 0.0617349 0
M  V30 3828 N 360.656 0.0484629 -1.57525 0
M  V30 3829 C 361.606 1.06246 -2.01732 0
M  V30 3830 C 362.59 1.33155 -0.903245 0
M  V30 3831 O 363.782 1.33065 -1.16717 0
M  V30 3832 C 360.911 2.36943 -2.48421 0
M  V30 3833 C 359.997 2.13208 -3.6661 0
M  V30 3834 N 360.388 1.5947 -4.80003 0
M  V30 3835 C 358.686 2.43581 -3.7361 0
M  V30 3836 C 359.387 1.51092 -5.61735 0
M  V30 3837 N 358.363 1.9797 -5.0627 0
M  V30 3838 H 362.165 0.640675 -2.86832 0
M  V30 3839 H 359.679 0.255134 -1.60383 0
M  V30 3840 H 361.676 3.10374 -2.78341 0
M  V30 3841 H 360.336 2.79818 -1.64718 0
M  V30 3842 H 361.347 1.28008 -5.01831 0
M  V30 3843 H 358.024 2.89662 -3.00669 0
M  V30 3844 H 359.414 1.10199 -6.62801 0
M  V30 3845 N 362.134 1.5431 0.320358 0
M  V30 3846 C 363.383 1.7188 1.05546 0
M  V30 3847 C 363.696 0.501143 1.89071 0
M  V30 3848 O 364.902 0.558258 2.65699 0
M  V30 3849 C 363.358 3.04025 1.92605 0
M  V30 3850 C 362.966 4.33207 1.14176 0
M  V30 3851 C 364.71 3.30959 2.65832 0
M  V30 3852 C 362.617 5.56412 2.00399 0
M  V30 3853 H 361.547 0.640547 0.397763 0
M  V30 3854 H 364.198 1.80802 0.313522 0
M  V30 3855 H 362.58 2.89019 2.7071 0
M  V30 3856 H 363.754 4.58989 0.40819 0
M  V30 3857 H 362.069 4.13062 0.526165 0
M  V30 3858 H 364.666 4.20203 3.30656 0
M  V30 3859 H 365.009 2.48979 3.33639 0
M  V30 3860 H 365.542 3.46847 1.94787 0
M  V30 3861 H 362.281 6.41004 1.37094 0
M  V30 3862 H 361.801 5.34844 2.7148 0
M  V30 3863 H 363.48 5.92938 2.58908 0
M  V30 3864 N 363.613 -0.582584 1.46437 0
M  V30 3865 C 364.862 -1.337 1.5102 0
M  V30 3866 C 365.175 -1.94891 0.166359 0
M  V30 3867 O 366.381 -2.71351 0.0899954 0
M  V30 3868 C 364.837 -2.42315 2.66104 0
M  V30 3869 C 364.445 -1.87427 4.06909 0
M  V30 3870 C 366.189 -3.19099 2.79958 0
M  V30 3871 C 364.096 -2.93672 5.13333 0
M  V30 3872 H 363.026 -0.502619 0.562041 0
M  V30 3873 H 365.677 -0.621701 1.72647 0
M  V30 3874 H 364.059 -3.16645 2.37807 0
M  V30 3875 H 365.233 -1.19639 4.44998 0
M  V30 3876 H 363.548 -1.2331 3.97723 0
M  V30 3877 H 366.145 -3.9839 3.56636 0
M  V30 3878 H 366.488 -3.71695 1.87479 0
M  V30 3879 H 367.021 -2.51875 3.07902 0
M  V30 3880 H 363.76 -2.45962 6.07604 0
M  V30 3881 H 363.28 -3.59948 4.79789 0
M  V30 3882 H 364.959 -3.5762 5.39182 0
M  V30 3883 N 365.091 -1.34144 -0.827227 0
M  V30 3884 C 366.038 -1.25364 -1.93785 0
M  V30 3885 C 367.008 -0.129774 -1.65592 0
M  V30 3886 O 368.193 -0.310024 -1.88264 0
M  V30 3887 C 365.333 -1.01064 -3.2997 0
M  V30 3888 C 364.446 -2.22185 -3.70484 0
M  V30 3889 C 363.581 -1.91203 -4.95595 0
M  V30 3890 C 362.62 -3.08491 -5.28677 0
M  V30 3891 N 361.757 -2.77421 -6.44967 0
M  V30 3892 H 366.597 -2.20347 -2.00627 0
M  V30 3893 H 364.134 -1.09558 -0.981608 0
M  V30 3894 H 366.092 -0.850139 -4.08446 0
M  V30 3895 H 364.722 -0.0975026 -3.22653 0
M  V30 3896 H 363.774 -2.4917 -2.87434 0
M  V30 3897 H 365.086 -3.0983 -3.90905 0
M  V30 3898 H 364.24 -1.71864 -5.81848 0
M  V30 3899 H 362.979 -1.00812 -4.77167 0
M  V30 3900 H 361.984 -3.28431 -4.40923 0
M  V30 3901 H 363.209 -3.99655 -5.49047 0
M  V30 3902 H 361.155 -1.89601 -6.28003 0
M  V30 3903 H 361.072 -3.58598 -6.6554 0
M  V30 3904 H 362.34 -2.61577 -7.34301 0
M  V30 3905 N 366.569 1.04691 -1.17803 0
M  V30 3906 C 367.799 1.81183 -0.992788 0
M  V30 3907 C 368.207 1.8347 0.462098 0
M  V30 3908 O 367.55 1.2643 1.33271 0
M  V30 3909 C 367.612 3.28363 -1.46349 0
M  V30 3910 C 367.276 3.49749 -2.94151 0
M  V30 3911 C 368.273 3.41456 -3.92051 0
M  V30 3912 C 365.958 3.76548 -3.32441 0
M  V30 3913 C 367.952 3.59656 -5.26238 0
M  V30 3914 C 365.639 3.94396 -4.66792 0
M  V30 3915 C 366.637 3.8595 -5.635 0
M  V30 3916 O 366.325 4.03294 -6.9542 0
M  V30 3917 H 366.057 0.577622 -0.351182 0
M  V30 3918 H 368.611 1.32876 -1.5663 0
M  V30 3919 H 366.841 3.77609 -0.833574 0
M  V30 3920 H 368.53 3.86395 -1.24313 0
M  V30 3921 H 369.296 3.20723 -3.63815 0
M  V30 3922 H 365.175 3.82224 -2.57732 0
M  V30 3923 H 368.719 3.52979 -6.01707 0
M  V30 3924 H 364.616 4.14622 -4.94731 0
M  V30 3925 H 365.384 4.2049 -7.02232 0
M  V30 3926 N 368.047 0.979072 1.23499 0
M  V30 3927 C 368.957 0.526431 2.28617 0
M  V30 3928 C 369.973 -0.418126 1.68901 0
M  V30 3929 O 371.149 -0.288372 1.99325 0
M  V30 3930 C 368.214 -0.165235 3.46306 0
M  V30 3931 C 367.275 0.82056 4.21385 0
M  V30 3932 C 366.508 0.161807 5.33455 0
M  V30 3933 O 366.731 -1.04742 5.60701 0
M  V30 3934 O 365.665 0.859708 5.95729 0
M  V30 3935 H 369.491 1.4006 2.69475 0
M  V30 3936 H 367.076 0.746643 1.29405 0
M  V30 3937 H 368.958 -0.553287 4.17752 0
M  V30 3938 H 367.633 -1.01419 3.07402 0
M  V30 3939 H 366.54 1.25929 3.52268 0
M  V30 3940 H 367.873 1.63828 4.64135 0
M  V30 3941 N 369.525 -1.3858 0.750561 0
M  V30 3942 C 370.936 -1.82927 0.373438 0
M  V30 3943 C 371.287 -1.62634 -1.09748 0
M  V30 3944 O 370.412 -1.12588 -1.84805 0
M  V30 3945 C 371.007 -3.32088 0.671029 0
M  V30 3946 C 369.566 -3.74795 0.34722 0
M  V30 3947 C 368.713 -2.61391 0.92575 0
M  V30 3948 H 371.664 -1.27351 0.946958 0
M  V30 3949 H 371.685 -3.80465 -0.0518269 0
M  V30 3950 H 371.197 -3.46826 1.74164 0
M  V30 3951 H 369.298 -3.65638 -0.716933 0
M  V30 3952 H 369.411 -4.71667 0.840656 0
M  V30 3953 H 367.775 -2.52265 0.351327 0
M  V30 3954 H 368.558 -2.78929 2.00133 0
M  V30 3955 N 371.003 -0.499398 -1.49478 0
M  V30 3956 C 372.252 0.0475259 -2.01644 0
M  V30 3957 C 372.565 1.38195 -1.38425 0
M  V30 3958 O 373.771 2.01547 -1.8191 0
M  V30 3959 C 372.227 0.135164 -3.59646 0
M  V30 3960 C 371.835 -1.19252 -4.31837 0
M  V30 3961 C 373.579 0.632538 -4.19761 0
M  V30 3962 C 371.486 -1.06713 -5.81693 0
M  V30 3963 H 370.416 0.0215349 -0.753692 0
M  V30 3964 H 373.067 -0.638577 -1.7203 0
M  V30 3965 H 371.449 0.885681 -3.85969 0
M  V30 3966 H 372.623 -1.9562 -4.17216 0
M  V30 3967 H 370.938 -1.62321 -3.83459 0
M  V30 3968 H 373.535 0.743833 -5.29501 0
M  V30 3969 H 373.878 1.63098 -3.83021 0
M  V30 3970 H 374.411 -0.0613987 -3.97753 0
M  V30 3971 H 371.15 -2.03979 -6.22955 0
M  V30 3972 H 370.67 -0.344307 -5.98811 0
M  V30 3973 H 372.349 -0.745208 -6.42694 0
M  V30 3974 N 372.481 1.55866 -0.233164 0
M  V30 3975 C 373.727 1.98897 0.395959 0
M  V30 3976 C 374.06 1.12091 1.58585 0
M  V30 3977 O 373.335 0.181182 1.93654 0
M  V30 3978 C 373.618 3.50658 0.819224 0
M  V30 3979 C 373.471 4.48233 -0.375109 0
M  V30 3980 C 374.79 4.07135 1.67121 0
M  V30 3981 H 371.909 0.723102 0.142451 0
M  V30 3982 H 374.551 1.87082 -0.331725 0
M  V30 3983 H 372.701 3.60857 1.43925 0
M  V30 3984 H 374.373 4.50031 -1.01341 0
M  V30 3985 H 372.616 4.21624 -1.02058 0
M  V30 3986 H 373.287 5.51988 -0.0358328 0
M  V30 3987 H 375.763 3.99952 1.14795 0
M  V30 3988 H 374.639 5.13615 1.93625 0
M  V30 3989 H 374.9 3.54736 2.63846 0
M  V30 3990 N 373.959 -0.0401083 1.57549 0
M  V30 3991 C 375.187 -0.745196 1.93014 0
M  V30 3992 C 375.602 -1.6948 0.831984 0
M  V30 3993 O 374.959 -1.81482 -0.192463 0
M  V30 3994 C 375.01 -1.51176 3.28372 0
M  V30 3995 O 374.731 -0.600284 4.33968 0
M  V30 3996 C 376.232 -2.315 3.78051 0
M  V30 3997 H 373.452 -0.210088 0.637263 0
M  V30 3998 H 375.996 -0.000924689 2.045 0
M  V30 3999 H 374.151 -2.20801 3.18317 0
M  V30 4000 H 374.565 -1.13669 5.12035 0
M  V30 4001 H 376.039 -2.80697 4.75303 0
M  V30 4002 H 376.516 -3.12436 3.08675 0
M  V30 4003 H 377.122 -1.66971 3.91153 0
M  V30 4004 N 375.437 -1.54477 -0.31217 0
M  V30 4005 C 376.384 -1.84655 -1.38461 0
M  V30 4006 C 377.354 -0.694536 -1.50882 0
M  V30 4007 O 378.539 -0.942081 -1.6592 0
M  V30 4008 C 375.679 -2.0896 -2.74645 0
M  V30 4009 C 374.792 -3.36618 -2.70763 0
M  V30 4010 C 373.927 -3.50824 -3.98868 0
M  V30 4011 C 372.966 -4.72315 -3.89339 0
M  V30 4012 N 372.103 -4.83387 -5.09197 0
M  V30 4013 H 376.943 -2.76142 -1.12026 0
M  V30 4014 H 374.48 -1.36748 -0.542065 0
M  V30 4015 H 376.438 -2.21045 -3.53829 0
M  V30 4016 H 375.068 -1.20752 -2.99364 0
M  V30 4017 H 374.12 -3.33211 -1.83506 0
M  V30 4018 H 375.432 -4.25917 -2.59608 0
M  V30 4019 H 374.586 -3.62513 -4.86486 0
M  V30 4020 H 373.325 -2.59638 -4.12843 0
M  V30 4021 H 372.33 -4.6067 -3.00105 0
M  V30 4022 H 373.555 -5.64897 -3.76919 0
M  V30 4023 H 371.501 -3.9512 -5.23657 0
M  V30 4024 H 371.418 -5.66669 -5.00422 0
M  V30 4025 H 372.686 -4.9942 -5.98498 0
M  V30 4026 N 376.915 0.57481 -1.46744 0
M  V30 4027 C 378.163 1.33009 -1.52161 0
M  V30 4028 C 378.484 1.94185 -0.178092 0
M  V30 4029 O 377.754 1.7899 0.796196 0
M  V30 4030 H 376.334 0.493873 -0.560445 0
M  V30 4031 H 378.996 0.672589 -1.82927 0
M  V30 4032 H 378.092 2.13273 -2.27862 0
M  V30 4033 N 378.394 1.34581 0.820102 0
M  V30 4034 C 379.342 1.26401 1.95258 0
M  V30 4035 C 380.336 0.161553 1.68628 0
M  V30 4036 O 381.542 0.326703 1.7701 0
M  V30 4037 H 377.917 0.392749 0.64129 0
M  V30 4038 H 379.888 2.22105 1.99279 0
M  V30 4039 C 378.637 1.03919 3.31807 0
M  V30 4040 H 377.96 1.87984 3.52848 0
M  V30 4041 H 379.4 1.02232 4.11491 0
M  V30 4042 C 377.859 -0.257433 3.35915 0
M  V30 4043 O 378.389 -1.25784 3.81499 0
M  V30 4044 N 376.595 -0.291524 2.89134 0
M  V30 4045 H 376.142 0.523161 2.52232 0
M  V30 4046 H 376.1 -1.15883 2.92264 0
M  V30 4047 N 379.872 -1.04064 1.18357 0
M  V30 4048 C 380.782 -2.15569 0.925596 0
M  V30 4049 C 381.798 -1.7365 -0.110295 0
M  V30 4050 O 382.974 -2.01273 0.0716218 0
M  V30 4051 C 380.039 -3.43704 0.454836 0
M  V30 4052 C 379.1 -4.00004 1.55869 0
M  V30 4053 C 378.333 -5.22023 1.1103 0
M  V30 4054 O 378.556 -5.70392 -0.0309756 0
M  V30 4055 O 377.49 -5.70856 1.90805 0
M  V30 4056 H 381.316 -2.40187 1.8586 0
M  V30 4057 H 378.901 -1.1402 0.965394 0
M  V30 4058 H 380.783 -4.20923 0.200382 0
M  V30 4059 H 379.458 -3.20559 -0.449876 0
M  V30 4060 H 378.365 -3.24172 1.86716 0
M  V30 4061 H 379.698 -4.2749 2.43953 0
M  V30 4062 N 381.35 -0.985608 -1.22978 0
M  V30 4063 C 382.313 -0.535071 -2.22867 0
M  V30 4064 C 383.313 0.378123 -1.56291 0
M  V30 4065 O 384.503 0.171092 -1.73358 0
M  V30 4066 C 381.635 0.222702 -3.40172 0
M  V30 4067 H 382.828 -1.41835 -2.6424 0
M  V30 4068 H 380.381 -0.772042 -1.35901 0
M  V30 4069 H 381.116 1.12229 -3.04262 0
M  V30 4070 H 380.901 -0.43288 -3.89703 0
M  V30 4071 H 382.391 0.526335 -4.1427 0
M  V30 4072 N 382.828 1.3818 -0.7579 0
M  V30 4073 C 383.758 2.33027 -0.148597 0
M  V30 4074 C 384.739 1.55085 0.69875 0
M  V30 4075 O 385.924 1.83384 0.639053 0
M  V30 4076 C 383.054 3.3928 0.742034 0
M  V30 4077 C 382.008 4.28 -0.00291946 0
M  V30 4078 C 381.334 5.25146 1.00625 0
M  V30 4079 C 382.634 5.08938 -1.17385 0
M  V30 4080 H 384.328 2.84231 -0.940909 0
M  V30 4081 H 381.874 1.36659 -0.453908 0
M  V30 4082 H 383.827 4.046 1.17799 0
M  V30 4083 H 382.551 2.86569 1.56671 0
M  V30 4084 H 381.21 3.64192 -0.419504 0
M  V30 4085 H 380.858 4.68721 1.8251 0
M  V30 4086 H 380.558 5.85361 0.512428 0
M  V30 4087 H 382.082 5.93342 1.44143 0
M  V30 4088 H 383.496 5.67474 -0.815224 0
M  V30 4089 H 381.893 5.7841 -1.59882 0
M  V30 4090 H 382.963 4.42424 -1.98468 0
M  V30 4091 N 384.306 0.507319 1.49211 0
M  V30 4092 C 385.552 -0.0350047 2.0277 0
M  V30 4093 C 385.885 -1.3606 1.38569 0
M  V30 4094 O 385.16 -1.87321 0.523542 0
M  V30 4095 C 385.443 -0.180916 3.59645 0
M  V30 4096 C 385.296 1.16825 4.34364 0
M  V30 4097 C 386.615 -0.918558 4.30407 0
M  V30 4098 H 383.734 -0.0112473 0.736914 0
M  V30 4099 H 386.376 0.659956 1.7817 0
M  V30 4100 H 384.526 -0.772826 3.80736 0
M  V30 4101 H 386.198 1.79952 4.24753 0
M  V30 4102 H 384.441 1.75594 3.96673 0
M  V30 4103 H 385.112 1.01939 5.42506 0
M  V30 4104 H 387.588 -0.41649 4.1401 0
M  V30 4105 H 386.464 -0.989505 5.39907 0
M  V30 4106 H 386.725 -1.96373 3.96093 0
M  V30 4107 N 385.784 -1.5574 0.241426 0
M  V30 4108 C 386.734 -2.17803 -0.674233 0
M  V30 4109 C 387.718 -1.13225 -1.14319 0
M  V30 4110 O 388.91 -1.39153 -1.09387 0
M  V30 4111 C 386.039 -2.87682 -1.87333 0
M  V30 4112 C 385.125 -3.99509 -1.42313 0
M  V30 4113 N 385.516 -5.01115 -0.686798 0
M  V30 4114 C 383.814 -4.11964 -1.70885 0
M  V30 4115 C 384.515 -5.79922 -0.454456 0
M  V30 4116 N 383.491 -5.34001 -1.01705 0
M  V30 4117 H 387.293 -2.93718 -0.103447 0
M  V30 4118 H 384.807 -1.62342 0.0435095 0
M  V30 4119 H 386.804 -3.3057 -2.54026 0
M  V30 4120 H 385.464 -2.13269 -2.4484 0
M  V30 4121 H 386.475 -5.16799 -0.337459 0
M  V30 4122 H 383.152 -3.48718 -2.2957 0
M  V30 4123 H 384.542 -6.71768 0.132992 0
M  V30 4124 N 387.262 0.0317525 -1.57568 0
M  V30 4125 C 388.212 1.04101 -2.02847 0
M  V30 4126 C 389.196 1.3219 -0.917317 0
M  V30 4127 O 390.388 1.31819 -1.18121 0
M  V30 4128 C 387.517 2.34295 -2.5092 0
M  V30 4129 C 386.603 2.09308 -3.68851 0
M  V30 4130 N 386.994 1.5437 -4.81667 0
M  V30 4131 C 385.292 2.39604 -3.76172 0
M  V30 4132 C 385.993 1.45126 -5.63306 0
M  V30 4133 N 384.969 1.92589 -5.08341 0
M  V30 4134 H 388.771 0.610217 -2.87495 0
M  V30 4135 H 386.285 0.238108 -1.60645 0
M  V30 4136 H 388.282 3.07404 -2.81617 0
M  V30 4137 H 386.942 2.78055 -1.67677 0
M  V30 4138 H 387.953 1.22678 -5.03161 0
M  V30 4139 H 384.63 2.86457 -3.03724 0
M  V30 4140 H 386.02 1.03163 -6.63933 0
M  V30 4141 N 388.74 1.54641 0.303973 0
M  V30 4142 C 389.673 1.80263 1.3993 0
M  V30 4143 C 390.651 0.653657 1.48883 0
M  V30 4144 O 391.835 0.893284 1.6599 0
M  V30 4145 C 388.962 1.9367 2.77866 0
M  V30 4146 C 388.008 3.16078 2.86351 0
M  V30 4147 S 388.841 4.74219 2.4875 0
M  V30 4148 C 389.997 4.90558 3.88721 0
M  V30 4149 H 390.23 2.72886 1.17986 0
M  V30 4150 H 387.763 1.46014 0.501918 0
M  V30 4151 H 389.721 2.0208 3.57315 0
M  V30 4152 H 388.382 1.01991 2.9708 0
M  V30 4153 H 387.575 3.22252 3.87517 0
M  V30 4154 H 387.177 3.06099 2.14893 0
M  V30 4155 H 389.469 4.74398 4.83687 0
M  V30 4156 H 390.412 5.92651 3.87518 0
M  V30 4157 H 390.82 4.18728 3.78585 0
M  V30 4158 N 390.218 -0.567019 1.47046 0
M  V30 4159 C 391.128 -1.70247 1.6141 0
M  V30 4160 C 392.144 -1.66746 0.497157 0
M  V30 4161 O 393.32 -1.86371 0.763389 0
M  V30 4162 C 390.385 -3.06756 1.61561 0
M  V30 4163 C 389.446 -3.21399 2.84607 0
M  V30 4164 C 388.679 -4.51396 2.84741 0
M  V30 4165 O 388.902 -5.36255 1.94388 0
M  V30 4166 O 387.836 -4.69621 3.76483 0
M  V30 4167 H 391.662 -1.61073 2.57467 0
M  V30 4168 H 389.247 -0.735894 1.30019 0
M  V30 4169 H 391.129 -3.8801 1.64396 0
M  V30 4170 H 389.804 -3.16333 0.686684 0
M  V30 4171 H 388.711 -2.39579 2.8732 0
M  V30 4172 H 390.044 -3.16721 3.76761 0
M  V30 4173 N 391.696 -1.35014 -0.812953 0
M  V30 4174 C 392.942 -1.2812 -1.57204 0
M  V30 4175 C 393.275 0.145869 -1.93651 0
M  V30 4176 O 392.55 1.0937 -1.60836 0
M  V30 4177 C 392.833 -2.18162 -2.86492 0
M  V30 4178 C 392.686 -3.69454 -2.56561 0
M  V30 4179 C 394.005 -2.07439 -3.88145 0
M  V30 4180 H 391.124 -0.466746 -0.570366 0
M  V30 4181 H 393.766 -1.65357 -0.935783 0
M  V30 4182 H 391.916 -1.86535 -3.40789 0
M  V30 4183 H 393.588 -4.11493 -2.08497 0
M  V30 4184 H 391.831 -3.9005 -1.89851 0
M  V30 4185 H 392.502 -4.27835 -3.48799 0
M  V30 4186 H 394.978 -2.35228 -3.4323 0
M  V30 4187 H 393.854 -2.7265 -4.76396 0
M  V30 4188 H 394.115 -1.05439 -4.29343 0
M  V30 4189 N 393.175 1.03435 -1.18907 0
M  V30 4190 C 394.422 1.76743 -0.988334 0
M  V30 4191 C 394.75 1.88447 0.481441 0
M  V30 4192 O 394.005 1.39383 1.37371 0
M  V30 4193 C 394.304 3.19792 -1.59586 0
M  V30 4194 C 393.97 3.28108 -3.09283 0
M  V30 4195 C 392.632 3.30084 -3.5014 0
M  V30 4196 C 394.984 3.27696 -4.05296 0
M  V30 4197 C 392.312 3.29299 -4.85571 0
M  V30 4198 C 394.664 3.28451 -5.4065 0
M  V30 4199 C 393.328 3.28723 -5.80946 0
M  V30 4200 H 392.598 0.64675 -0.361657 0
M  V30 4201 H 395.245 1.21442 -1.48068 0
M  V30 4202 H 393.55 3.78136 -1.02568 0
M  V30 4203 H 395.247 3.75171 -1.41589 0
M  V30 4204 H 391.837 3.27294 -2.76725 0
M  V30 4205 H 396.021 3.25354 -3.74778 0
M  V30 4206 H 391.277 3.2783 -5.16079 0
M  V30 4207 H 395.451 3.27082 -6.14809 0
M  V30 4208 H 393.078 3.27868 -6.85862 0
M  V30 4209 N 394.653 0.992116 1.22453 0
M  V30 4210 C 395.585 0.500024 2.23679 0
M  V30 4211 C 396.598 -0.404463 1.57696 0
M  V30 4212 O 397.787 -0.206722 1.77299 0
M  V30 4213 C 394.887 -0.294711 3.37616 0
M  V30 4214 C 394.06 0.605723 4.33186 0
M  V30 4215 C 393.119 -0.13717 5.26021 0
M  V30 4216 O 392.145 0.477164 5.67196 0
M  V30 4217 N 393.347 -1.4197 5.62872 0
M  V30 4218 H 396.112 1.37045 2.66531 0
M  V30 4219 H 393.673 0.866741 1.36745 0
M  V30 4220 H 395.665 -0.800329 3.96707 0
M  V30 4221 H 394.235 -1.06623 2.93854 0
M  V30 4222 H 393.455 1.29202 3.72425 0
M  V30 4223 H 394.743 1.21896 4.93983 0
M  V30 4224 H 394.141 -1.94015 5.31389 0
M  V30 4225 H 392.698 -1.87052 6.24383 0
M  V30 4226 N 396.131 -1.37776 0.765217 0
M  V30 4227 C 397.371 -2.01691 0.331669 0
M  V30 4228 C 397.735 -1.59432 -1.06983 0
M  V30 4229 O 398.936 -2.15761 -1.60314 0
M  V30 4230 C 397.207 -3.54385 0.463261 0
M  V30 4231 S 398.766 -4.38652 0.114011 0
M  V30 4232 H 395.584 -0.699387 0.127979 0
M  V30 4233 H 398.186 -1.68084 0.998396 0
M  V30 4234 H 396.89 -3.82629 1.48401 0
M  V30 4235 H 396.421 -3.92783 -0.220246 0
M  V30 4236 H 398.436 -4.84021 -1.09261 0
M  V30 4237 N 397.609 -0.515225 -1.4894 0
M  V30 4238 C 398.572 0.244681 -2.2789 0
M  V30 4239 C 399.572 0.881166 -1.34507 0
M  V30 4240 O 400.762 0.743497 -1.57537 0
M  V30 4241 C 397.894 1.35247 -3.12923 0
M  V30 4242 H 399.087 -0.448289 -2.96531 0
M  V30 4243 H 396.64 -0.270656 -1.53939 0
M  V30 4244 H 397.375 2.07916 -2.48881 0
M  V30 4245 H 397.16 0.901374 -3.81599 0
M  V30 4246 H 398.65 1.88737 -3.72516 0
M  V30 4247 N 399.087 1.5561 -0.249682 0
M  V30 4248 C 400.498 1.84979 0.252949 0
M  V30 4249 C 400.849 1.17153 1.57384 0
M  V30 4250 O 399.974 0.450884 2.11651 0
M  V30 4251 C 400.569 3.35584 0.465732 0
M  V30 4252 C 399.128 3.65169 0.912624 0
M  V30 4253 C 398.275 2.77299 -0.00859085 0
M  V30 4254 H 401.226 1.51513 -0.47217 0
M  V30 4255 H 401.247 3.57313 1.30795 0
M  V30 4256 H 400.759 3.8492 -0.49579 0
M  V30 4257 H 398.86 3.21312 1.88652 0
M  V30 4258 H 398.973 4.72912 0.767559 0
M  V30 4259 H 397.337 2.49678 0.50327 0
M  V30 4260 H 398.12 3.29442 -0.965537 0
M  V30 4261 N 400.565 -0.0233959 1.57583 0
M  V30 4262 C 401.475 -1.03907 2.10334 0
M  V30 4263 C 402.491 -1.39257 1.04323 0
M  V30 4264 O 403.667 -1.48462 1.36091 0
M  V30 4265 C 400.732 -2.31938 2.57693 0
M  V30 4266 C 399.793 -2.03117 3.78209 0
M  V30 4267 C 399.026 -3.25043 4.233 0
M  V30 4268 O 399.249 -4.35916 3.67876 0
M  V30 4269 O 398.183 -3.10411 5.15683 0
M  V30 4270 H 402.009 -0.620748 2.97288 0
M  V30 4271 H 399.594 -0.240743 1.47448 0
M  V30 4272 H 401.476 -3.07196 2.88458 0
M  V30 4273 H 400.151 -2.73055 1.73847 0
M  V30 4274 H 399.058 -1.25408 3.52454 0
M  V30 4275 H 400.391 -1.66852 4.63056 0
M  V30 4276 N 402.043 -1.548 -0.295768 0
M  V30 4277 C 402.976 -1.81003 -1.38972 0
M  V30 4278 C 403.954 -0.661544 -1.48534 0
M  V30 4279 O 405.138 -0.902074 -1.65514 0
M  V30 4280 C 402.265 -1.95141 -2.76835 0
M  V30 4281 C 401.311 -3.17592 -2.84671 0
M  V30 4282 S 402.144 -4.75531 -2.46232 0
M  V30 4283 C 403.3 -4.92613 -3.86114 0
M  V30 4284 H 403.533 -2.73507 -1.16537 0
M  V30 4285 H 401.066 -1.46278 -0.494168 0
M  V30 4286 H 403.024 -2.03972 -3.56238 0
M  V30 4287 H 401.685 -1.03565 -2.96535 0
M  V30 4288 H 400.878 -3.24303 -3.85803 0
M  V30 4289 H 400.48 -3.07235 -2.13267 0
M  V30 4290 H 402.772 -4.76957 -4.81164 0
M  V30 4291 H 403.715 -5.94698 -3.8437 0
M  V30 4292 H 404.123 -4.2073 -3.76359 0
M  V30 4293 N 403.521 0.559213 -1.47345 0
M  V30 4294 C 404.798 1.31997 -1.44348 0
M  V30 4295 C 405.178 2.1064 -0.139358 0
M  V30 4296 O 404.526 2.1091 0.879153 0
M  V30 4297 C 404.736 2.22618 -2.68779 0
M  V30 4298 C 406.084 2.83701 -3.1591 0
M  V30 4299 O 407.108 2.32921 -2.69493 0
M  V30 4300 O 405.967 3.75993 -3.966 0
M  V30 4301 H 403.061 0.594251 -0.575147 0
M  V30 4302 H 405.607 0.578282 -1.59543 0
M  V30 4303 H 404.379 1.64093 -3.55231 0
M  V30 4304 H 404.002 3.04085 -2.5616 0
M  V30 4305 N 404.999 1.35443 0.805782 0
M  V30 4306 C 406.224 1.32037 1.59941 0
M  V30 4307 C 406.649 -0.0994215 1.87837 0
M  V30 4308 O 406.007 -1.06648 1.46615 0
M  V30 4309 C 406.055 2.13354 2.90711 0
M  V30 4310 O 405.159 1.5148 3.83572 0
M  V30 4311 H 404.5 0.452666 0.485787 0
M  V30 4312 H 407.03 1.78496 1.00002 0
M  V30 4313 H 407.04 2.25338 3.40128 0
M  V30 4314 H 405.715 3.16572 2.69732 0
M  V30 4315 H 404.292 1.4834 3.42125 0
M  V30 4316 N 406.477 -1.02803 1.19454 0
M  V30 4317 C 407.723 -1.76478 0.999171 0
M  V30 4318 C 408.056 -1.88456 -0.468828 0
M  V30 4319 O 407.331 -1.40198 -1.34814 0
M  V30 4320 C 407.614 -3.19044 1.66981 0
M  V30 4321 C 407.467 -3.14932 3.21151 0
M  V30 4322 C 408.786 -4.17456 1.39349 0
M  V30 4323 H 405.905 -0.640614 0.364393 0
M  V30 4324 H 408.547 -1.20005 1.47305 0
M  V30 4325 H 406.697 -3.67263 1.2669 0
M  V30 4326 H 408.369 -2.74605 3.70661 0
M  V30 4327 H 406.612 -2.52625 3.52652 0
M  V30 4328 H 407.283 -4.1566 3.63223 0
M  V30 4329 H 409.759 -3.77842 1.74283 0
M  V30 4330 H 408.635 -5.154 1.88823 0
M  V30 4331 H 408.896 -4.40949 0.318813 0
M  V30 4332 N 407.956 -0.998596 -1.21925 0
M  V30 4333 C 409.367 -0.711939 -1.72593 0
M  V30 4334 C 409.718 0.770842 -1.80423 0
M  V30 4335 O 408.843 1.60237 -1.4544 0
M  V30 4336 C 409.438 -1.28567 -3.13458 0
M  V30 4337 C 407.997 -1.04828 -3.61508 0
M  V30 4338 C 407.144 -1.4024 -2.39224 0
M  V30 4339 H 410.095 -1.17027 -1.07193 0
M  V30 4340 H 410.116 -0.667098 -3.74607 0
M  V30 4341 H 409.628 -2.36486 -3.07727 0
M  V30 4342 H 407.729 0.0140383 -3.72597 0
M  V30 4343 H 407.842 -1.71566 -4.47328 0
M  V30 4344 H 406.206 -0.821077 -2.41103 0
M  V30 4345 H 406.989 -2.49176 -2.36149 0
M  V30 4346 N 409.434 1.37368 -0.772513 0
M  V30 4347 C 410.384 2.27613 -0.132823 0
M  V30 4348 C 411.368 1.46138 0.673247 0
M  V30 4349 O 412.56 1.68686 0.536095 0
M  V30 4350 C 409.689 3.35122 0.744864 0
M  V30 4351 C 408.775 4.24044 -0.0690771 0
M  V30 4352 N 409.166 4.93355 -1.1151 0
M  V30 4353 C 407.464 4.45731 0.154782 0
M  V30 4354 C 408.165 5.59 -1.60917 0
M  V30 4355 N 407.141 5.35737 -0.921222 0
M  V30 4356 H 410.943 2.78675 -0.933681 0
M  V30 4357 H 408.457 1.50494 -0.610342 0
M  V30 4358 H 410.454 3.98683 1.21892 0
M  V30 4359 H 409.114 2.85616 1.54446 0
M  V30 4360 H 410.125 4.95785 -1.49726 0
M  V30 4361 H 406.802 4.07096 0.926224 0
M  V30 4362 H 408.192 6.24395 -2.48153 0
M  V30 4363 N 410.912 0.523116 1.48665 0
M  V30 4364 C 412.159 -0.0134763 2.02496 0
M  V30 4365 C 412.487 -1.3493 1.40086 0
M  V30 4366 O 411.742 -1.88286 0.533567 0
M  V30 4367 C 412.041 -0.191671 3.56886 0
M  V30 4368 C 411.707 1.06893 4.38046 0
M  V30 4369 C 410.369 1.41443 4.59943 0
M  V30 4370 C 412.721 1.90584 4.85106 0
M  V30 4371 C 410.049 2.59594 5.26144 0
M  V30 4372 C 412.401 3.07907 5.52609 0
M  V30 4373 C 411.065 3.42811 5.72745 0
M  V30 4374 H 410.335 -0.00493133 0.740984 0
M  V30 4375 H 412.982 0.687751 1.78724 0
M  V30 4376 H 411.287 -0.97561 3.79459 0
M  V30 4377 H 412.984 -0.621659 3.96152 0
M  V30 4378 H 409.574 0.789848 4.21259 0
M  V30 4379 H 413.758 1.65203 4.67997 0
M  V30 4380 H 409.014 2.86847 5.39934 0
M  V30 4381 H 413.188 3.73066 5.88043 0
M  V30 4382 H 410.815 4.34462 6.23816 0
M  V30 4383 N 412.39 -1.55475 0.257931 0
M  V30 4384 C 413.615 -2.04064 -0.370488 0
M  V30 4385 C 414.04 -1.13565 -1.49948 0
M  V30 4386 O 413.398 -0.130781 -1.80828 0
M  V30 4387 C 413.446 -3.50554 -0.845237 0
M  V30 4388 O 412.55 -3.63173 -1.95394 0
M  V30 4389 H 411.891 -0.659257 -0.0792243 0
M  V30 4390 H 414.421 -2.00903 0.387212 0
M  V30 4391 H 414.431 -3.91588 -1.14555 0
M  V30 4392 H 413.106 -4.15896 -0.0191259 0
M  V30 4393 H 411.683 -3.34039 -1.65748 0
M  V30 4394 N 413.868 0.0150385 -1.57593 0
M  V30 4395 C 415.116 0.701613 -1.8953 0
M  V30 4396 C 415.437 1.75139 -0.857396 0
M  V30 4397 O 414.707 1.95607 0.107194 0
M  V30 4398 H 413.287 0.26213 -0.699498 0
M  V30 4399 H 415.949 -0.0223304 -1.94887 0
M  V30 4400 H 415.045 1.18236 -2.88837 0
M  V30 4401 N 415.346 1.54954 0.287554 0
M  V30 4402 C 416.757 1.65732 0.859634 0
M  V30 4403 C 417.108 0.574767 1.87592 0
M  V30 4404 O 416.233 -0.286299 2.14498 0
M  V30 4405 C 416.828 3.00438 1.56597 0
M  V30 4406 C 415.387 3.13292 2.08627 0
M  V30 4407 C 414.534 2.61473 0.923416 0
M  V30 4408 H 417.485 1.5857 0.0642338 0
M  V30 4409 H 417.506 2.92613 2.43224 0
M  V30 4410 H 417.018 3.79207 0.826053 0
M  V30 4411 H 415.119 2.39268 2.85625 0
M  V30 4412 H 415.232 4.19647 2.31157 0
M  V30 4413 H 413.596 2.18264 1.31275 0
M  V30 4414 H 414.379 3.42733 0.197241 0
M  V30 4415 N 416.824 -0.551391 1.4764 0
M  V30 4416 C 418.064 -1.31901 1.56145 0
M  V30 4417 C 418.428 -1.90724 0.221013 0
M  V30 4418 O 419.629 -2.6819 0.180945 0
M  V30 4419 C 417.9 -2.39517 2.65267 0
M  V30 4420 S 419.459 -3.26289 2.93395 0
M  V30 4421 H 416.277 -0.448965 0.551318 0
M  V30 4422 H 418.879 -0.630599 1.85051 0
M  V30 4423 H 417.583 -1.94747 3.6125 0
M  V30 4424 H 417.114 -3.13092 2.38195 0
M  V30 4425 H 419.129 -4.39122 2.31055 0
M  V30 4426 N 418.302 -1.35869 -0.798587 0
M  V30 4427 C 419.579 -1.20145 -1.54352 0
M  V30 4428 C 419.959 0.216161 -2.0999 0
M  V30 4429 O 419.307 1.22068 -1.93162 0
M  V30 4430 C 419.517 -2.27602 -2.64572 0
M  V30 4431 C 420.865 -2.63811 -3.32699 0
M  V30 4432 O 421.889 -2.26576 -2.74849 0
M  V30 4433 O 420.748 -3.27866 -4.37226 0
M  V30 4434 H 417.842 -0.467248 -0.682355 0
M  V30 4435 H 420.388 -1.47574 -0.837859 0
M  V30 4436 H 419.16 -3.2265 -2.21388 0
M  V30 4437 H 418.783 -2.01488 -3.42766 0
M  V30 4438 N 419.78 1.02168 -1.19998 0
M  V30 4439 C 421.005 1.79833 -1.03319 0
M  V30 4440 C 421.43 1.83504 0.413281 0
M  V30 4441 O 420.788 1.26635 1.29743 0
M  V30 4442 C 420.836 3.22396 -1.61533 0
M  V30 4443 O 419.94 4.03555 -0.849519 0
M  V30 4444 H 419.281 0.554872 -0.364709 0
M  V30 4445 H 421.811 1.28542 -1.59179 0
M  V30 4446 H 421.821 3.73124 -1.65054 0
M  V30 4447 H 420.496 3.19039 -2.66809 0
M  V30 4448 H 419.073 3.62169 -0.888129 0
M  V30 4449 N 421.258 1.00505 1.21394 0
M  V30 4450 C 422.205 0.565496 2.23765 0
M  V30 4451 C 423.175 -0.408466 1.60999 0
M  V30 4452 O 424.36 -0.310503 1.88257 0
M  V30 4453 C 421.5 -0.101667 3.4495 0
M  V30 4454 C 420.613 0.915479 4.22188 0
M  V30 4455 C 419.748 0.220574 5.30742 0
M  V30 4456 C 418.787 1.22527 5.99711 0
M  V30 4457 N 417.924 0.557831 6.9988 0
M  V30 4458 H 422.764 1.44314 2.60725 0
M  V30 4459 H 420.301 0.722643 1.28126 0
M  V30 4460 H 422.259 -0.505504 4.14126 0
M  V30 4461 H 420.889 -0.94303 3.08718 0
M  V30 4462 H 419.941 1.43756 3.52191 0
M  V30 4463 H 421.253 1.68005 4.69655 0
M  V30 4464 H 420.407 -0.239368 6.06228 0
M  V30 4465 H 419.146 -0.576401 4.84282 0
M  V30 4466 H 418.151 1.69571 5.22997 0
M  V30 4467 H 419.376 2.02332 6.48258 0
M  V30 4468 H 417.322 -0.219486 6.55633 0
M  V30 4469 H 417.239 1.26065 7.45415 0
M  V30 4470 H 418.507 0.121095 7.79406 0
M  V30 4471 N 422.737 -1.36956 0.779787 0
M  V30 4472 C 423.67 -2.27896 0.117681 0
M  V30 4473 C 424.648 -1.46736 -0.700523 0
M  V30 4474 O 425.832 -1.76055 -0.673568 0
M  V30 4475 C 422.959 -3.28136 -0.839296 0
M  V30 4476 C 422.005 -4.26373 -0.10409 0
M  V30 4477 S 422.838 -5.2157 1.21348 0
M  V30 4478 C 423.994 -6.25359 0.260249 0
M  V30 4479 H 424.227 -2.83704 0.888778 0
M  V30 4480 H 421.76 -1.43352 0.57355 0
M  V30 4481 H 423.718 -3.86394 -1.38601 0
M  V30 4482 H 422.379 -2.7126 -1.58356 0
M  V30 4483 H 421.572 -4.97121 -0.82986 0
M  V30 4484 H 421.174 -3.72147 0.371858 0
M  V30 4485 H 423.466 -6.75145 -0.564435 0
M  V30 4486 H 424.409 -7.01885 0.936135 0
M  V30 4487 H 424.817 -5.64345 -0.132127 0
M  V30 4488 N 424.215 -0.530993 -1.48385 0
M  V30 4489 C 425.162 0.231223 -2.29639 0
M  V30 4490 C 426.132 0.932864 -1.37429 0
M  V30 4491 O 427.317 0.933692 -1.66394 0
M  V30 4492 C 424.457 1.27155 -3.2082 0
M  V30 4493 C 423.57 0.578655 -4.28107 0
M  V30 4494 C 422.705 1.602 -5.06467 0
M  V30 4495 C 421.744 0.892625 -6.05556 0
M  V30 4496 N 420.881 1.86157 -6.76971 0
M  V30 4497 H 425.721 -0.467848 -2.94305 0
M  V30 4498 H 423.258 -0.242556 -1.45086 0
M  V30 4499 H 425.216 1.88703 -3.72085 0
M  V30 4500 H 423.846 1.939 -2.58075 0
M  V30 4501 H 422.898 -0.150782 -3.80101 0
M  V30 4502 H 424.21 0.0217065 -4.98795 0
M  V30 4503 H 423.364 2.29173 -5.61751 0
M  V30 4504 H 422.103 2.19285 -4.35621 0
M  V30 4505 H 421.108 0.188829 -5.49476 0
M  V30 4506 H 422.333 0.307878 -6.78402 0
M  V30 4507 H 420.279 2.44147 -6.08875 0
M  V30 4508 H 420.196 1.35608 -7.43738 0
M  V30 4509 H 421.464 2.54325 -7.36844 0
M  V30 4510 N 425.693 1.55336 -0.266172 0
M  V30 4511 C 427.104 1.85236 0.233315 0
M  V30 4512 C 427.455 1.18816 1.56132 0
M  V30 4513 O 426.58 0.473307 2.11161 0
M  V30 4514 C 427.175 3.36059 0.430113 0
M  V30 4515 C 425.734 3.66116 0.873842 0
M  V30 4516 C 424.881 2.77274 -0.0380016 0
M  V30 4517 H 427.832 1.51004 -0.488214 0
M  V30 4518 H 427.853 3.58681 1.26998 0
M  V30 4519 H 427.365 3.84373 -0.536588 0
M  V30 4520 H 425.466 3.23295 1.85233 0
M  V30 4521 H 425.579 4.73699 0.717358 0
M  V30 4522 H 423.943 2.50198 0.476759 0
M  V30 4523 H 424.726 3.284 -1.00042 0
M  V30 4524 N 427.171 -0.0066808 1.57599 0
M  V30 4525 C 428.448 -0.729586 1.81484 0
M  V30 4526 C 428.828 -1.92359 0.869558 0
M  V30 4527 O 428.176 -2.28348 -0.0832533 0
M  V30 4528 C 428.386 -1.1416 3.29801 0
M  V30 4529 C 429.734 -1.54823 3.95367 0
M  V30 4530 O 430.758 -1.23558 3.34084 0
M  V30 4531 O 429.617 -2.12937 5.03309 0
M  V30 4532 H 426.711 -0.354674 0.747085 0
M  V30 4533 H 429.257 0.0182609 1.6969 0
M  V30 4534 H 428.029 -0.290231 3.90222 0
M  V30 4535 H 427.652 -1.94876 3.46568 0
M  V30 4536 N 428.649 -1.55105 -0.279332 0
M  V30 4537 C 430.065 -1.46803 -0.626187 0
M  V30 4538 C 430.265 -0.676939 -1.89789 0
M  V30 4539 O 429.321 -0.19326 -2.51759 0
M  V30 4540 C 430.634 -2.90962 -0.759034 0
M  V30 4541 C 432.182 -3.01138 -0.853504 0
M  V30 4542 C 432.657 -4.46539 -1.01818 0
M  V30 4543 N 434.148 -4.50341 -1.08386 0
M  V30 4544 C 434.883 -5.60053 -1.22996 0
M  V30 4545 N 434.379 -6.79645 -1.34366 0
M  V30 4546 N 436.172 -5.47783 -1.26056 0
M  V30 4547 H 428.323 -2.04996 0.555921 0
M  V30 4548 H 430.586 -0.929325 0.187239 0
M  V30 4549 H 430.292 -3.51544 0.104852 0
M  V30 4550 H 430.166 -3.39619 -1.64131 0
M  V30 4551 H 432.553 -2.40658 -1.70786 0
M  V30 4552 H 432.634 -2.55745 0.0532466 0
M  V30 4553 H 432.278 -5.0762 -0.168504 0
M  V30 4554 H 432.208 -4.89583 -1.93948 0
M  V30 4555 H 434.699 -3.64191 -1.00864 0
M  V30 4556 H 435.012 -7.59012 -1.4533 0
M  V30 4557 H 433.357 -6.82469 -1.31382 0
M  V30 4558 H 436.548 -4.53294 -1.168 0
M  V30 4559 H 436.721 -6.33331 -1.37098 0
M  V30 4560 N 430.127 0.543554 -1.4793 0
M  V30 4561 C 431.057 1.65888 -1.64327 0
M  V30 4562 C 432.038 1.62818 -0.492383 0
M  V30 4563 O 433.223 1.80226 -0.723338 0
M  V30 4564 C 430.353 3.04506 -1.67013 0
M  V30 4565 C 429.307 3.2243 -2.81466 0
M  V30 4566 C 428.633 4.61972 -2.69233 0
M  V30 4567 C 429.933 3.06496 -4.22915 0
M  V30 4568 H 431.627 1.52421 -2.57698 0
M  V30 4569 H 429.173 0.731849 -1.24016 0
M  V30 4570 H 431.126 3.82391 -1.77074 0
M  V30 4571 H 429.85 3.18964 -0.70212 0
M  V30 4572 H 428.509 2.46957 -2.70938 0
M  V30 4573 H 428.157 4.73247 -1.7043 0
M  V30 4574 H 427.857 4.74911 -3.46025 0
M  V30 4575 H 429.381 5.41974 -2.81242 0
M  V30 4576 H 430.795 3.74186 -4.34348 0
M  V30 4577 H 429.192 3.30938 -5.006 0
M  V30 4578 H 430.262 2.03077 -4.40327 0
M  V30 4579 N 431.605 1.3629 0.791371 0
M  V30 4580 C 432.553 1.30514 1.92533 0
M  V30 4581 C 433.547 0.197285 1.68247 0
M  V30 4582 O 434.753 0.364176 1.76278 0
M  V30 4583 H 431.128 0.406263 0.632815 0
M  V30 4584 H 433.099 2.26282 1.94523 0
M  V30 4585 C 431.848 1.10933 3.29529 0
M  V30 4586 H 431.171 1.95427 3.48781 0
M  V30 4587 H 432.611 1.10937 4.0923 0
M  V30 4588 C 431.07 -0.186123 3.36385 0
M  V30 4589 O 431.6 -1.17664 3.84081 0
M  V30 4590 N 429.806 -0.230128 2.89687 0
M  V30 4591 H 429.353 0.576545 2.51065 0
M  V30 4592 H 429.311 -1.09658 2.94657 0
M  V30 4593 N 433.083 -1.0153 1.20538 0
M  V30 4594 C 434.313 -1.78487 1.04048 0
M  V30 4595 C 434.721 -1.84631 -0.413292 0
M  V30 4596 O 434.064 -1.29919 -1.29872 0
M  V30 4597 C 434.126 -3.24367 1.55003 0
M  V30 4598 C 433.79 -3.41827 3.0332 0
M  V30 4599 C 434.787 -3.30941 4.00966 0
M  V30 4600 C 432.472 -3.67602 3.42307 0
M  V30 4601 C 434.466 -3.45577 5.35589 0
M  V30 4602 C 432.153 -3.81881 4.77085 0
M  V30 4603 C 433.151 -3.70874 5.73534 0
M  V30 4604 O 432.839 -3.84714 7.05868 0
M  V30 4605 H 432.571 -0.568108 0.366373 0
M  V30 4606 H 435.125 -1.28677 1.60098 0
M  V30 4607 H 433.355 -3.75266 0.933397 0
M  V30 4608 H 435.044 -3.82963 1.34514 0
M  V30 4609 H 435.81 -3.10964 3.72191 0
M  V30 4610 H 431.689 -3.75256 2.67776 0
M  V30 4611 H 435.233 -3.36902 6.10854 0
M  V30 4612 H 431.13 -4.01359 5.0555 0
M  V30 4613 H 431.898 -4.01724 7.13134 0
M  V30 4614 N 434.561 -1.01147 -1.20859 0
M  V30 4615 C 435.801 -0.706331 -1.91808 0
M  V30 4616 C 436.165 0.749736 -1.76757 0
M  V30 4617 O 437.366 1.16716 -2.42138 0
M  V30 4618 C 435.637 -1.12371 -3.39275 0
M  V30 4619 S 437.196 -0.939764 -4.28619 0
M  V30 4620 H 434.014 -0.257665 -0.662669 0
M  V30 4621 H 436.616 -1.29766 -1.46223 0
M  V30 4622 H 435.32 -2.17943 -3.47749 0
M  V30 4623 H 434.851 -0.524952 -3.89882 0
M  V30 4624 H 436.866 0.159556 -4.95943 0
M  V30 4625 N 436.039 1.36541 -0.78704 0
M  V30 4626 C 437.455 1.52571 -0.46844 0
M  V30 4627 C 437.655 1.7415 1.01361 0
M  V30 4628 O 436.711 1.77163 1.79915 0
M  V30 4629 C 438.024 2.71299 -1.29682 0
M  V30 4630 C 439.572 2.85169 -1.29027 0
M  V30 4631 C 440.047 4.06898 -2.10233 0
M  V30 4632 N 441.538 4.1404 -2.07666 0
M  V30 4633 C 442.273 5.07301 -2.67271 0
M  V30 4634 N 441.769 6.06021 -3.35724 0
M  V30 4635 N 443.562 4.99898 -2.57018 0
M  V30 4636 H 435.713 1.20788 -1.74711 0
M  V30 4637 H 437.976 0.589364 -0.742532 0
M  V30 4638 H 437.682 2.61868 -2.34773 0
M  V30 4639 H 437.556 3.6539 -0.936479 0
M  V30 4640 H 439.943 2.94062 -0.247284 0
M  V30 4641 H 440.024 1.91992 -1.69035 0
M  V30 4642 H 439.668 3.98766 -3.1456 0
M  V30 4643 H 439.598 4.99218 -1.67597 0
M  V30 4644 H 442.089 3.43357 -1.57843 0
M  V30 4645 H 442.402 6.73741 -3.78541 0
M  V30 4646 H 440.747 6.06253 -3.39826 0
M  V30 4647 H 443.938 4.21724 -2.03142 0
M  V30 4648 H 444.111 5.72392 -3.03761 0
M  V30 4649 N 437.518 0.538854 1.48102 0
M  V30 4650 C 438.468 -0.23907 2.26743 0
M  V30 4651 C 439.452 -0.901923 1.33245 0
M  V30 4652 O 440.644 -0.803263 1.57723 0
M  V30 4653 C 437.773 -1.2799 3.18549 0
M  V30 4654 C 436.859 -0.621388 4.19523 0
M  V30 4655 N 437.25 0.298004 5.04921 0
M  V30 4656 C 435.548 -0.877533 4.37282 0
M  V30 4657 C 436.249 0.678757 5.77726 0
M  V30 4658 N 435.225 0.0377881 5.43587 0
M  V30 4659 H 439.027 0.468096 2.90148 0
M  V30 4660 H 436.541 0.357497 1.58416 0
M  V30 4661 H 438.538 -1.851 3.73555 0
M  V30 4662 H 437.198 -1.98835 2.567 0
M  V30 4663 H 438.209 0.671126 5.13533 0
M  V30 4664 H 434.886 -1.57588 3.86616 0
M  V30 4665 H 436.276 1.43316 6.56437 0
M  V30 4666 N 438.996 -1.55193 0.274407 0
M  V30 4667 C 440.242 -1.99877 -0.343086 0
M  V30 4668 C 440.575 -1.16256 -1.55558 0
M  V30 4669 O 439.85 -0.232462 -1.93106 0
M  V30 4670 C 440.133 -3.52706 -0.725965 0
M  V30 4671 C 439.986 -4.47081 0.493818 0
M  V30 4672 C 441.305 -4.11422 -1.56268 0
M  V30 4673 H 438.424 -0.726625 -0.123229 0
M  V30 4674 H 441.066 -1.86136 0.38121 0
M  V30 4675 H 439.216 -3.64546 -1.34307 0
M  V30 4676 H 440.888 -4.47186 1.13237 0
M  V30 4677 H 439.131 -4.1877 1.13201 0
M  V30 4678 H 439.802 -5.51699 0.18217 0
M  V30 4679 H 442.278 -4.02855 -1.04151 0
M  V30 4680 H 441.154 -5.18568 -1.79939 0
M  V30 4681 H 441.415 -3.61607 -2.54348 0
M  V30 4682 N 440.474 -0.00167713 -1.576 0
M  V30 4683 C 441.404 0.988091 -2.11563 0
M  V30 4684 C 442.385 1.35736 -1.02517 0
M  V30 4685 O 443.57 1.44082 -1.30208 0
M  V30 4686 C 440.7 2.27941 -2.62031 0
M  V30 4687 C 439.654 2.0517 -3.75619 0
M  V30 4688 C 438.98 3.4033 -4.12407 0
M  V30 4689 C 440.28 1.41294 -5.02825 0
M  V30 4690 H 441.974 0.538771 -2.94513 0
M  V30 4691 H 439.52 0.257712 -1.41675 0
M  V30 4692 H 441.473 2.97539 -2.9841 0
M  V30 4693 H 440.197 2.74989 -1.76205 0
M  V30 4694 H 438.856 1.37998 -3.39635 0
M  V30 4695 H 438.504 3.85085 -3.23603 0
M  V30 4696 H 438.204 3.25909 -4.88935 0
M  V30 4697 H 439.728 4.1124 -4.51347 0
M  V30 4698 H 441.142 2.00851 -5.36965 0
M  V30 4699 H 439.539 1.37356 -5.84169 0
M  V30 4700 H 440.609 0.382362 -4.8339 0
M  V30 4701 N 441.952 1.55251 0.271103 0
M  V30 4702 C 442.915 1.87484 1.31842 0
M  V30 4703 C 443.915 0.749545 1.42262 0
M  V30 4704 O 445.105 1.01771 1.4138 0
M  V30 4705 C 442.237 2.0818 2.69951 0
M  V30 4706 H 443.43 2.81108 1.0449 0
M  V30 4707 H 440.983 1.47771 0.509258 0
M  V30 4708 H 441.718 1.16944 3.02481 0
M  V30 4709 H 441.503 2.90114 2.63774 0
M  V30 4710 H 442.993 2.34385 3.4562 0
M  V30 4711 N 443.43 -0.535701 1.48216 0
M  V30 4712 C 444.393 -1.623 1.61838 0
M  V30 4713 C 445.393 -1.53087 0.492024 0
M  V30 4714 O 446.583 -1.5686 0.757668 0
M  V30 4715 C 443.715 -3.01907 1.58319 0
M  V30 4716 H 444.908 -1.51564 2.58783 0
M  V30 4717 H 442.461 -0.757317 1.36727 0
M  V30 4718 H 443.196 -3.18155 0.628299 0
M  V30 4719 H 442.981 -3.10003 2.40085 0
M  V30 4720 H 444.471 -3.80969 1.71033 0
M  V30 4721 N 444.908 -1.36708 -0.784132 0
M  V30 4722 C 446.154 -1.32433 -1.54379 0
M  V30 4723 C 446.509 0.0941816 -1.92169 0
M  V30 4724 O 445.802 1.04997 -1.60269 0
M  V30 4725 C 445.996 -2.18571 -2.82774 0
M  V30 4726 C 445.825 -3.68656 -2.57533 0
M  V30 4727 C 444.595 -4.37813 -2.52286 0
M  V30 4728 C 446.793 -4.61802 -2.2637 0
M  V30 4729 N 444.775 -5.7351 -2.18997 0
M  V30 4730 C 446.146 -5.85785 -2.03115 0
M  V30 4731 C 448.201 -4.50313 -2.12421 0
M  V30 4732 C 446.904 -6.99569 -1.67321 0
M  V30 4733 C 448.93 -5.63969 -1.78026 0
M  V30 4734 C 448.292 -6.86994 -1.55622 0
M  V30 4735 H 444.391 -0.539886 -0.565727 0
M  V30 4736 H 446.975 -1.71812 -0.915908 0
M  V30 4737 H 445.146 -1.81429 -3.43421 0
M  V30 4738 H 446.878 -2.05646 -3.48557 0
M  V30 4739 H 443.633 -3.90674 -2.67714 0
M  V30 4740 H 444.057 -6.45189 -2.05084 0
M  V30 4741 H 448.699 -3.55781 -2.28429 0
M  V30 4742 H 446.417 -7.94047 -1.5005 0
M  V30 4743 H 450.003 -5.57044 -1.67909 0
M  V30 4744 H 448.883 -7.7345 -1.294 0
M  V30 4745 N 446.386 1.0089 -1.21074 0
M  V30 4746 C 447.349 2.0775 -0.968129 0
M  V30 4747 C 448.349 1.6069 0.0593445 0
M  V30 4748 O 449.539 1.73293 -0.177525 0
M  V30 4749 C 446.671 3.37794 -0.459108 0
M  V30 4750 H 447.864 2.30707 -1.9161 0
M  V30 4751 H 445.417 1.17807 -1.02719 0
M  V30 4752 H 446.152 3.20516 0.49397 0
M  V30 4753 H 445.937 3.7328 -1.20019 0
M  V30 4754 H 447.427 4.16454 -0.309099 0
M  V30 4755 N 447.864 1.01787 1.20321 0
M  V30 4756 C 448.794 0.609625 2.25401 0
M  V30 4757 C 449.775 -0.375951 1.65893 0
M  V30 4758 O 450.96 -0.261101 1.92437 0
M  V30 4759 C 448.09 -0.0515995 3.47262 0
M  V30 4760 C 447.044 0.855095 4.19371 0
M  V30 4761 C 446.37 0.0595757 5.34667 0
M  V30 4762 C 447.67 2.16374 4.75373 0
M  V30 4763 H 449.364 1.48803 2.59804 0
M  V30 4764 H 446.91 0.716934 1.24884 0
M  V30 4765 H 448.863 -0.348764 4.19954 0
M  V30 4766 H 447.587 -0.964726 3.12027 0
M  V30 4767 H 446.246 1.13628 3.48546 0
M  V30 4768 H 445.894 -0.85524 4.95676 0
M  V30 4769 H 445.594 0.663406 5.83843 0
M  V30 4770 H 447.118 -0.231105 6.10162 0
M  V30 4771 H 448.532 1.92885 5.39878 0
M  V30 4772 H 446.929 2.71853 5.34991 0
M  V30 4773 H 447.999 2.82589 3.94045 0
M  V30 4774 N 449.342 -1.36122 0.79427 0
M  V30 4775 C 450.59 -1.98718 0.368177 0
M  V30 4776 C 450.911 -1.63345 -1.06506 0
M  V30 4777 O 450.181 -0.909825 -1.73491 0
M  V30 4778 H 448.761 -0.735038 0.133146 0
M  V30 4779 H 451.423 -1.66239 1.01739 0
M  V30 4780 H 450.519 -3.08633 0.463923 0
M  V30 4781 N 450.82 -0.546701 -1.47814 0
M  V30 4782 C 451.783 0.196287 -2.28358 0
M  V30 4783 C 452.783 0.852437 -1.36346 0
M  V30 4784 O 453.973 0.709913 -1.59078 0
M  V30 4785 C 451.105 1.28579 -3.15722 0
M  V30 4786 H 452.298 -0.511086 -2.95513 0
M  V30 4787 H 449.851 -0.303248 -1.5333 0
M  V30 4788 H 450.586 2.0259 -2.53235 0
M  V30 4789 H 450.371 0.820229 -3.83425 0
M  V30 4790 H 451.861 1.80793 -3.76435 0
M  V30 4791 N 452.299 1.55045 -0.282633 0
M  V30 4792 C 453.246 2.22822 0.601566 0
M  V30 4793 C 454.216 1.20431 1.14392 0
M  V30 4794 O 455.401 1.48996 1.19184 0
M  V30 4795 C 452.541 2.95873 1.77632 0
M  V30 4796 C 451.654 4.12999 1.26711 0
M  V30 4797 C 450.789 4.73676 2.40426 0
M  V30 4798 C 449.828 5.82981 1.86545 0
M  V30 4799 N 448.965 6.3769 2.93762 0
M  V30 4800 H 453.805 2.97995 0.0169528 0
M  V30 4801 H 451.342 1.471 -0.00339964 0
M  V30 4802 H 453.3 3.36447 2.46697 0
M  V30 4803 H 451.93 2.2311 2.33285 0
M  V30 4804 H 450.982 3.77494 0.469314 0
M  V30 4805 H 452.294 4.91803 0.832518 0
M  V30 4806 H 451.448 5.17008 3.17471 0
M  V30 4807 H 450.187 3.94164 2.87203 0
M  V30 4808 H 449.192 5.39092 1.07983 0
M  V30 4809 H 450.417 6.64366 1.40694 0
M  V30 4810 H 448.363 5.61069 3.39908 0
M  V30 4811 H 448.28 7.11788 2.54744 0
M  V30 4812 H 449.548 6.8568 3.7076 0
M  V30 4813 N 453.777 0.010035 1.57597 0
M  V30 4814 C 454.74 -0.963029 2.07986 0
M  V30 4815 C 455.74 -1.26619 0.991173 0
M  V30 4816 O 456.93 -1.2097 1.25347 0
M  V30 4817 C 454.062 -2.2851 2.52974 0
M  V30 4818 H 455.255 -0.526971 2.95234 0
M  V30 4819 H 452.808 -0.237639 1.54483 0
M  V30 4820 H 453.543 -2.76784 1.69 0
M  V30 4821 H 453.328 -2.07824 3.32493 0
M  V30 4822 H 454.818 -2.98294 2.9225 0
M  V30 4823 N 455.255 -1.55392 -0.262866 0
M  V30 4824 C 456.502 -1.76476 -0.993109 0
M  V30 4825 C 456.83 -0.571479 -1.85915 0
M  V30 4826 O 456.085 0.445733 -1.90556 0
M  V30 4827 C 456.384 -3.02889 -1.89718 0
M  V30 4828 C 456.05 -4.34974 -1.18781 0
M  V30 4829 C 454.712 -4.7087 -0.991699 0
M  V30 4830 C 457.064 -5.16695 -0.683798 0
M  V30 4831 C 454.392 -5.86036 -0.279024 0
M  V30 4832 C 456.744 -6.32598 0.0153327 0
M  V30 4833 C 455.408 -6.67127 0.223062 0
M  V30 4834 H 454.678 -0.64577 -0.363404 0
M  V30 4835 H 457.325 -1.89664 -0.264525 0
M  V30 4836 H 455.63 -2.84644 -2.6923 0
M  V30 4837 H 457.327 -3.16399 -2.46359 0
M  V30 4838 H 453.917 -4.06765 -1.35058 0
M  V30 4839 H 458.101 -4.8943 -0.8229 0
M  V30 4840 H 453.357 -6.11306 -0.107456 0
M  V30 4841 H 457.531 -6.95171 0.413584 0
M  V30 4842 H 455.158 -7.56216 0.777265 0
M  V30 4843 N 456.733 0.527833 -1.48498 0
M  V30 4844 C 457.963 1.30633 -1.60058 0
M  V30 4845 C 458.371 1.87394 -0.260786 0
M  V30 4846 O 457.714 1.67227 0.760317 0
M  V30 4847 C 457.776 2.49361 -2.58958 0
M  V30 4848 C 457.44 2.13671 -4.03972 0
M  V30 4849 C 458.437 1.69217 -4.91591 0
M  V30 4850 C 456.122 2.24129 -4.49524 0
M  V30 4851 C 458.116 1.35689 -6.2279 0
M  V30 4852 C 455.803 1.90212 -5.80743 0
M  V30 4853 C 456.801 1.46063 -6.67199 0
M  V30 4854 O 456.489 1.12593 -7.95976 0
M  V30 4855 H 456.221 0.403444 -0.54241 0
M  V30 4856 H 458.775 0.643233 -1.95068 0
M  V30 4857 H 457.005 3.18659 -2.19073 0
M  V30 4858 H 458.694 3.11421 -2.6033 0
M  V30 4859 H 459.46 1.60607 -4.57636 0
M  V30 4860 H 455.339 2.57447 -3.82416 0
M  V30 4861 H 458.883 1.01157 -6.90227 0
M  V30 4862 H 454.78 1.98464 -6.14233 0
M  V30 4863 H 455.548 1.25972 -8.08748 0
M  V30 4864 N 458.211 1.37122 0.776871 0
M  V30 4865 C 459.441 1.35034 1.56363 0
M  V30 4866 C 459.849 -0.0674681 1.8908 0
M  V30 4867 O 459.192 -1.03826 1.51545 0
M  V30 4868 C 459.254 2.11894 2.90415 0
M  V30 4869 C 458.918 3.60897 2.80362 0
M  V30 4870 C 459.915 4.54887 2.51742 0
M  V30 4871 C 457.6 4.03951 2.98545 0
M  V30 4872 C 459.594 5.89909 2.41426 0
M  V30 4873 C 457.281 5.3906 2.87849 0
M  V30 4874 C 458.279 6.31852 2.5933 0
M  V30 4875 O 457.967 7.64479 2.48651 0
M  V30 4876 H 457.699 0.464402 0.49123 0
M  V30 4877 H 460.253 1.80992 0.971127 0
M  V30 4878 H 458.483 1.60618 3.51765 0
M  V30 4879 H 460.172 2.02505 3.51776 0
M  V30 4880 H 460.938 4.22934 2.37385 0
M  V30 4881 H 456.817 3.3209 3.19746 0
M  V30 4882 H 460.361 6.62304 2.19086 0
M  V30 4883 H 456.258 5.70617 3.01773 0
M  V30 4884 H 457.026 7.74742 2.64039 0
M  V30 4885 N 459.689 -1.00246 1.21608 0
M  V30 4886 C 461.1 -1.55511 1.03312 0
M  V30 4887 C 461.451 -1.91946 -0.406332 0
M  V30 4888 O 460.576 -1.73753 -1.28992 0
M  V30 4889 C 461.171 -2.82576 1.86913 0
M  V30 4890 C 459.73 -3.34318 1.72941 0
M  V30 4891 C 458.877 -2.07487 1.83968 0
M  V30 4892 H 461.828 -0.824638 1.35593 0
M  V30 4893 H 461.849 -3.54559 1.38087 0
M  V30 4894 H 461.361 -2.56026 2.91672 0
M  V30 4895 H 459.462 -3.65797 0.70877 0
M  V30 4896 H 459.575 -4.05566 2.55055 0
M  V30 4897 H 457.939 -2.20603 1.27304 0
M  V30 4898 H 458.722 -1.83346 2.9024 0
M  V30 4899 N 461.167 -1.02423 -1.1978 0
M  V30 4900 C 462.077 -0.610919 -2.26506 0
M  V30 4901 C 463.093 0.355152 -1.70337 0
M  V30 4902 O 464.269 0.214195 -2.00258 0
M  V30 4903 C 461.334 0.0365921 -3.46681 0
M  V30 4904 C 460.395 -0.976389 -4.18049 0
M  V30 4905 C 459.628 -0.359683 -5.32487 0
M  V30 4906 O 459.851 0.838601 -5.64202 0
M  V30 4907 O 458.785 -1.08022 -5.92127 0
M  V30 4908 H 462.611 -1.49965 -2.64091 0
M  V30 4909 H 460.196 -0.794156 -1.26545 0
M  V30 4910 H 462.078 0.39786 -4.19518 0
M  V30 4911 H 460.753 0.899398 -3.10954 0
M  V30 4912 H 459.66 -1.38916 -3.47352 0
M  V30 4913 H 460.993 -1.80941 -4.57735 0
M  V30 4914 N 462.645 1.35699 -0.801477 0
M  V30 4915 C 463.555 2.33661 -0.209691 0
M  V30 4916 C 464.571 1.6162 0.644591 0
M  V30 4917 O 465.747 1.93529 0.557545 0
M  V30 4918 C 462.812 3.40816 0.636033 0
M  V30 4919 C 461.873 4.28639 -0.238147 0
M  V30 4920 C 461.106 5.30676 0.567307 0
M  V30 4921 O 461.329 5.41174 1.8024 0
M  V30 4922 O 460.263 6.01887 -0.0391336 0
M  V30 4923 H 464.089 2.8606 -1.01996 0
M  V30 4924 H 461.674 1.38379 -0.563164 0
M  V30 4925 H 463.556 4.06301 1.11791 0
M  V30 4926 H 462.231 2.90696 1.42399 0
M  V30 4927 H 461.138 3.66152 -0.767044 0
M  V30 4928 H 462.471 4.82143 -0.989915 0
M  V30 4929 N 464.123 0.554532 1.47522 0
M  V30 4930 C 465.086 -0.184174 2.28459 0
M  V30 4931 C 466.086 -0.845195 1.36796 0
M  V30 4932 O 467.276 -0.701467 1.59452 0
M  V30 4933 C 464.408 -1.26903 3.16399 0
M  V30 4934 H 465.601 0.526751 2.95238 0
M  V30 4935 H 463.154 0.311375 1.53167 0
M  V30 4936 H 463.889 -2.01244 2.54306 0
M  V30 4937 H 463.674 -0.799883 3.83854 0
M  V30 4938 H 465.164 -1.78794 3.77389 0
M  V30 4939 N 465.601 -1.54893 0.290851 0
M  V30 4940 C 466.849 -1.99538 -0.320756 0
M  V30 4941 C 467.17 -1.18075 -1.55188 0
M  V30 4942 O 466.44 -0.274162 -1.93972 0
M  V30 4943 H 465.02 -0.737052 -0.121507 0
M  V30 4944 H 467.682 -1.90755 0.399832 0
M  V30 4945 H 466.778 -3.06282 -0.599802 0
M  V30 4946 N 467.08 -0.0183926 -1.57589 0
M  V30 4947 C 468.01 0.965596 -2.12599 0
M  V30 4948 C 468.991 1.34641 -1.0395 0
M  V30 4949 O 470.176 1.42693 -1.31729 0
M  V30 4950 C 467.306 2.25149 -2.64434 0
M  V30 4951 C 466.26 2.01175 -3.77773 0
M  V30 4952 C 465.586 3.35937 -4.15994 0
M  V30 4953 C 466.886 1.35953 -5.04296 0
M  V30 4954 H 468.58 0.507504 -2.95067 0
M  V30 4955 H 466.126 0.242671 -1.41941 0
M  V30 4956 H 468.079 2.94357 -3.01549 0
M  V30 4957 H 466.803 2.73105 -1.79112 0
M  V30 4958 H 465.462 1.34388 -3.4108 0
M  V30 4959 H 465.11 3.81631 -3.27669 0
M  V30 4960 H 464.81 3.20705 -4.92364 0
M  V30 4961 H 466.334 4.0643 -4.55683 0
M  V30 4962 H 467.748 1.95144 -5.39065 0
M  V30 4963 H 466.145 1.31152 -5.85593 0
M  V30 4964 H 467.215 0.331071 -4.83768 0
M  V30 4965 N 468.558 1.5553 0.254621 0
M  V30 4966 C 469.521 1.88872 1.29846 0
M  V30 4967 C 470.521 0.764591 1.41459 0
M  V30 4968 O 471.711 1.03265 1.40293 0
M  V30 4969 C 468.843 2.11032 2.67728 0
M  V30 4970 H 470.036 2.82201 1.01502 0
M  V30 4971 H 467.589 1.48303 0.493556 0
M  V30 4972 H 468.324 1.20146 3.01223 0
M  V30 4973 H 468.109 2.92895 2.60682 0
M  V30 4974 H 469.599 2.38038 3.43115 0
M  V30 4975 N 470.036 -0.519951 1.48776 0
M  V30 4976 C 471.283 -1.27522 1.57303 0
M  V30 4977 C 471.611 -1.92869 0.251328 0
M  V30 4978 O 470.866 -1.80372 -0.759243 0
M  V30 4979 C 471.165 -2.37864 2.6675 0
M  V30 4980 C 470.831 -1.90103 4.08867 0
M  V30 4981 C 469.493 -1.76795 4.47546 0
M  V30 4982 C 471.845 -1.54133 4.97888 0
M  V30 4983 C 469.173 -1.25868 5.73039 0
M  V30 4984 C 471.525 -1.04665 6.23881 0
M  V30 4985 C 470.189 -0.899823 6.61407 0
M  V30 4986 H 469.459 -0.466636 0.575614 0
M  V30 4987 H 472.106 -0.579109 1.82534 0
M  V30 4988 H 470.411 -3.13186 2.35418 0
M  V30 4989 H 472.108 -2.95969 2.70561 0
M  V30 4990 H 468.698 -2.01414 3.78326 0
M  V30 4991 H 472.882 -1.6327 4.68675 0
M  V30 4992 H 468.138 -1.13196 6.0083 0
M  V30 4993 H 472.312 -0.759074 6.92251 0
M  V30 4994 H 469.939 -0.503011 7.58534 0
M  V30 4995 N 471.514 -1.37532 -0.769588 0
M  V30 4996 C 472.762 -1.32597 -1.5252 0
M  V30 4997 C 473.083 0.0884294 -1.94799 0
M  V30 4998 O 472.353 1.03289 -1.66458 0
M  V30 4999 H 470.933 -0.487846 -0.565699 0
M  V30 5000 H 473.595 -1.72044 -0.915806 0
M  V30 5001 H 472.691 -1.96643 -2.42359 0
M  V30 5002 N 472.992 0.995999 -1.22138 0
M  V30 5003 C 474.24 1.73167 -1.042 0
M  V30 5004 C 474.561 1.90329 0.42423 0
M  V30 5005 O 473.831 1.4607 1.30539 0
M  V30 5006 H 472.411 0.641593 -0.38258 0
M  V30 5007 H 475.073 1.19974 -1.53598 0
M  V30 5008 H 474.169 2.72734 -1.51731 0
M  V30 5009 N 474.47 1.03057 1.19235 0
M  V30 5010 C 475.881 0.757449 1.70645 0
M  V30 5011 C 476.232 -0.722735 1.82403 0
M  V30 5012 O 475.357 -1.56325 1.49638 0
M  V30 5013 C 475.952 1.36833 3.09939 0
M  V30 5014 C 474.511 1.14375 3.58602 0
M  V30 5015 C 473.658 1.46533 2.35422 0
M  V30 5016 H 476.609 1.19828 1.04052 0
M  V30 5017 H 476.63 0.766184 3.72706 0
M  V30 5018 H 476.142 2.44562 3.01349 0
M  V30 5019 H 474.243 0.0847542 3.72504 0
M  V30 5020 H 474.356 1.83366 4.42622 0
M  V30 5021 H 472.72 0.884712 2.38841 0
M  V30 5022 H 473.503 2.55349 2.2946 0
M  V30 5023 N 475.948 -1.35272 0.808662 0
M  V30 5024 C 477.196 -1.98316 0.389233 0
M  V30 5025 C 477.517 -1.64465 -1.04767 0
M  V30 5026 O 476.787 -0.928175 -1.72516 0
M  V30 5027 H 475.367 -0.733585 0.140935 0
M  V30 5028 H 478.029 -1.6515 1.03496 0
M  V30 5029 H 477.125 -3.08123 0.496631 0
M  V30 5030 N 477.426 -0.562348 -1.47226 0
M  V30 5031 C 478.651 -0.0432632 -2.07355 0
M  V30 5032 C 479.076 1.24332 -1.41149 0
M  V30 5033 O 478.434 1.74603 -0.488226 0
M  V30 5034 C 478.482 0.130288 -3.60365 0
M  V30 5035 O 477.586 1.19166 -3.94808 0
M  V30 5036 H 476.927 -0.0536334 -0.66183 0
M  V30 5037 H 479.457 -0.779495 -1.89169 0
M  V30 5038 H 479.467 0.342881 -4.06557 0
M  V30 5039 H 478.142 -0.809389 -4.07948 0
M  V30 5040 H 476.719 0.959153 -3.60354 0
M  V30 5041 N 478.904 1.54736 -0.299062 0
M  V30 5042 C 480.129 2.04975 0.316254 0
M  V30 5043 C 480.554 1.17501 1.46885 0
M  V30 5044 O 479.912 0.178678 1.80417 0
M  V30 5045 C 479.96 3.52672 0.751997 0
M  V30 5046 O 479.064 3.68226 1.85697 0
M  V30 5047 H 478.405 0.661126 0.0617175 0
M  V30 5048 H 480.935 1.99805 -0.440341 0
M  V30 5049 H 480.945 3.94488 1.04133 0
M  V30 5050 H 479.62 4.158 -0.0911482 0
M  V30 5051 H 478.197 3.38316 1.56834 0
M  V30 5052 N 480.382 0.0267497 1.57577 0
M  V30 5053 C 481.798 -0.32962 1.56159 0
M  V30 5054 C 481.998 -1.73059 1.03213 0
M  V30 5055 O 481.054 -2.43233 0.677804 0
M  V30 5056 C 482.367 -0.18039 3.00158 0
M  V30 5057 C 483.915 -0.253334 3.11973 0
M  V30 5058 C 484.39 -0.132921 4.57807 0
M  V30 5059 N 485.881 -0.189979 4.6281 0
M  V30 5060 C 486.616 -0.120554 5.73273 0
M  V30 5061 N 486.112 -0.000180315 6.928 0
M  V30 5062 N 487.905 -0.174369 5.61829 0
M  V30 5063 H 480.056 0.942896 1.90324 0
M  V30 5064 H 482.319 0.3639 0.875375 0
M  V30 5065 H 482.025 0.784576 3.42837 0
M  V30 5066 H 481.899 -0.951565 3.65 0
M  V30 5067 H 484.286 -1.20876 2.69208 0
M  V30 5068 H 484.367 0.548177 2.49857 0
M  V30 5069 H 484.011 0.819073 5.01252 0
M  V30 5070 H 483.941 -0.953264 5.179 0
M  V30 5071 H 486.432 -0.283257 3.76837 0
M  V30 5072 H 486.745 0.0461666 7.72786 0
M  V30 5073 H 485.09 0.034569 6.94991 0
M  V30 5074 H 488.281 -0.266794 4.67339 0
M  V30 5075 H 488.454 -0.116802 6.47895 0
M  V30 5076 N 481.861 -1.55662 -0.24637 0
M  V30 5077 C 483.091 -1.81312 -0.990438 0
M  V30 5078 C 483.499 -0.600234 -1.79426 0
M  V30 5079 O 482.842 0.440537 -1.78339 0
M  V30 5080 C 482.904 -3.0032 -1.97607 0
M  V30 5081 C 482.568 -4.36322 -1.35912 0
M  V30 5082 C 483.565 -5.14295 -0.761348 0
M  V30 5083 C 481.25 -4.83019 -1.37833 0
M  V30 5084 C 483.244 -6.37114 -0.190998 0
M  V30 5085 C 480.931 -6.05786 -0.804128 0
M  V30 5086 C 481.929 -6.82672 -0.211489 0
M  V30 5087 O 481.617 -8.03121 0.353845 0
M  V30 5088 H 481.349 -0.607233 -0.297058 0
M  V30 5089 H 483.903 -2.0356 -0.274351 0
M  V30 5090 H 482.133 -2.73829 -2.73047 0
M  V30 5091 H 483.822 -3.13057 -2.58361 0
M  V30 5092 H 484.588 -4.79337 -0.739013 0
M  V30 5093 H 480.467 -4.23165 -1.829 0
M  V30 5094 H 484.011 -6.97069 0.272206 0
M  V30 5095 H 479.908 -6.40222 -0.823792 0
M  V30 5096 H 480.676 -8.18131 0.245761 0
M  V30 5097 N 483.339 0.512053 -1.4905 0
M  V30 5098 C 484.269 1.62365 -1.67809 0
M  V30 5099 C 485.25 1.61737 -0.526809 0
M  V30 5100 O 486.435 1.78651 -0.761404 0
M  V30 5101 C 483.565 3.00895 -1.73435 0
M  V30 5102 C 482.519 3.16387 -2.88242 0
M  V30 5103 C 481.845 4.56157 -2.78971 0
M  V30 5104 C 483.145 2.97457 -4.29321 0
M  V30 5105 H 484.839 1.46921 -2.60873 0
M  V30 5106 H 482.385 0.705379 -1.2554 0
M  V30 5107 H 484.338 3.78549 -1.85145 0
M  V30 5108 H 483.062 3.17403 -0.769619 0
M  V30 5109 H 481.721 2.41155 -2.76116 0
M  V30 5110 H 481.369 4.69525 -1.8043 0
M  V30 5111 H 481.069 4.67465 -3.5602 0
M  V30 5112 H 482.593 5.35886 -2.92675 0
M  V30 5113 H 484.007 3.64888 -4.42187 0
M  V30 5114 H 482.404 3.20245 -5.07507 0
M  V30 5115 H 483.474 1.93692 -4.44535 0
M  V30 5116 N 484.817 1.37938 0.762283 0
M  V30 5117 C 486.233 1.18945 1.06415 0
M  V30 5118 C 486.433 0.0321163 2.01474 0
M  V30 5119 O 485.489 -0.624844 2.44647 0
M  V30 5120 C 486.802 2.51218 1.65258 0
M  V30 5121 C 488.35 2.57824 1.7747 0
M  V30 5122 C 488.825 3.90251 2.39725 0
M  V30 5123 N 490.316 3.91744 2.47166 0
M  V30 5124 C 491.051 4.90966 2.96209 0
M  V30 5125 N 490.547 6.00585 3.45354 0
M  V30 5126 N 492.34 4.78363 2.9517 0
M  V30 5127 H 484.491 2.11994 0.131301 0
M  V30 5128 H 486.754 0.940262 0.120879 0
M  V30 5129 H 486.46 3.36317 1.02878 0
M  V30 5130 H 486.334 2.68989 2.64433 0
M  V30 5131 H 488.721 1.73126 2.3898 0
M  V30 5132 H 488.802 2.43928 0.770241 0
M  V30 5133 H 488.446 4.75368 1.78852 0
M  V30 5134 H 488.376 4.01454 3.40796 0
M  V30 5135 H 490.867 3.12563 2.12397 0
M  V30 5136 H 491.18 6.72236 3.81207 0
M  V30 5137 H 489.525 6.04217 3.43434 0
M  V30 5138 H 492.716 3.91841 2.56082 0
M  V30 5139 H 492.889 5.55843 3.33081 0
M  V30 5140 N 486.295 -0.989507 1.22664 0
M  V30 5141 C 487.225 -2.09847 1.02404 0
M  V30 5142 C 488.206 -1.70007 -0.0561303 0
M  V30 5143 O 489.391 -1.93906 0.106748 0
M  V30 5144 C 486.521 -3.41996 0.604663 0
M  V30 5145 C 485.475 -3.95699 1.63115 0
M  V30 5146 C 484.801 -5.23936 1.0675 0
M  V30 5147 C 486.101 -4.25999 3.02196 0
M  V30 5148 H 487.795 -2.27054 1.95158 0
M  V30 5149 H 485.341 -1.09111 0.939727 0
M  V30 5150 H 487.294 -4.1899 0.45002 0
M  V30 5151 H 486.018 -3.24626 -0.35855 0
M  V30 5152 H 484.677 -3.2084 1.77362 0
M  V30 5153 H 484.325 -5.02909 0.0955422 0
M  V30 5154 H 484.025 -5.60833 1.75328 0
M  V30 5155 H 485.549 -6.0356 0.924516 0
M  V30 5156 H 486.963 -4.93777 2.91303 0
M  V30 5157 H 485.36 -4.74076 3.67929 0
M  V30 5158 H 486.43 -3.33636 3.51873 0
M  V30 5159 N 487.773 -1.03688 -1.18687 0
M  V30 5160 C 488.683 -0.634908 -2.25845 0
M  V30 5161 C 489.699 0.337065 -1.70704 0
M  V30 5162 O 490.875 0.192943 -2.00474 0
M  V30 5163 C 487.94 -0.000180054 -3.467 0
M  V30 5164 C 487.001 -1.02067 -4.1699 0
M  V30 5165 C 486.234 -0.41614 -5.32075 0
M  V30 5166 O 486.457 0.778712 -5.65059 0
M  V30 5167 O 485.391 -1.14296 -5.90948 0
M  V30 5168 H 489.217 -1.52757 -2.62486 0
M  V30 5169 H 486.802 -0.807533 -1.25695 0
M  V30 5170 H 488.684 0.353342 -4.19916 0
M  V30 5171 H 487.359 0.866367 -3.11891 0
M  V30 5172 H 486.266 -1.42592 -3.45859 0
M  V30 5173 H 487.599 -1.85786 -4.5579 0
M  V30 5174 N 489.251 1.34841 -0.815825 0
M  V30 5175 C 490.497 1.98793 -0.401129 0
M  V30 5176 C 490.83 1.64548 1.03139 0
M  V30 5177 O 490.105 0.913487 1.71714 0
M  V30 5178 C 490.388 3.55143 -0.595409 0
M  V30 5179 C 490.241 3.99155 -2.07352 0
M  V30 5180 C 491.56 4.40092 -0.0268823 0
M  V30 5181 H 488.679 0.722146 -0.14722 0
M  V30 5182 H 491.321 1.59847 -1.02707 0
M  V30 5183 H 489.471 3.8845 -0.0625779 0
M  V30 5184 H 491.143 3.76216 -2.66945 0
M  V30 5185 H 489.386 3.49726 -2.56659 0
M  V30 5186 H 490.057 5.07971 -2.1603 0
M  V30 5187 H 492.533 4.13298 -0.482042 0
M  V30 5188 H 491.409 5.48562 -0.19267 0
M  V30 5189 H 491.67 4.29016 1.06759 0
M  V30 5190 N 490.729 0.570148 1.46925 0
M  V30 5191 C 491.679 -0.190921 2.27199 0
M  V30 5192 C 492.663 -0.873457 1.35128 0
M  V30 5193 O 493.855 -0.769627 1.59392 0
M  V30 5194 C 490.984 -1.21204 3.21192 0
M  V30 5195 C 490.07 -0.532261 4.20747 0
M  V30 5196 N 490.461 0.405038 5.04176 0
M  V30 5197 C 488.759 -0.784582 4.39045 0
M  V30 5198 C 489.46 0.801149 5.76157 0
M  V30 5199 N 488.436 0.153082 5.43384 0
M  V30 5200 H 492.238 0.529535 2.8909 0
M  V30 5201 H 489.752 0.391019 1.57622 0
M  V30 5202 H 491.749 -1.77135 3.77398 0
M  V30 5203 H 490.409 -1.93345 2.6086 0
M  V30 5204 H 491.42 0.779903 5.11994 0
M  V30 5205 H 488.097 -1.49352 3.89872 0
M  V30 5206 H 489.487 1.57208 6.5325 0
M  V30 5207 N 492.207 -1.54576 0.307264 0
M  V30 5208 C 493.437 -2.04378 -0.302158 0
M  V30 5209 C 493.845 -1.18381 -1.47589 0
M  V30 5210 O 493.188 -0.20352 -1.82569 0
M  V30 5211 C 493.25 -3.50133 -0.815305 0
M  V30 5212 C 492.914 -4.56401 0.233977 0
M  V30 5213 C 493.911 -5.08884 1.06456 0
M  V30 5214 C 491.596 -5.0088 0.377478 0
M  V30 5215 C 493.59 -6.04394 2.02452 0
M  V30 5216 C 491.277 -5.96208 1.34088 0
M  V30 5217 C 492.275 -6.47849 2.16288 0
M  V30 5218 O 491.963 -7.41308 3.10994 0
M  V30 5219 H 491.695 -0.672502 -0.0686839 0
M  V30 5220 H 494.249 -2.00484 0.446682 0
M  V30 5221 H 492.479 -3.51371 -1.61478 0
M  V30 5222 H 494.168 -3.83098 -1.34129 0
M  V30 5223 H 494.934 -4.75311 0.964596 0
M  V30 5224 H 490.813 -4.60309 -0.252405 0
M  V30 5225 H 494.357 -6.44626 2.66652 0
M  V30 5226 H 490.254 -6.29198 1.44154 0
M  V30 5227 H 491.022 -7.5913 3.06045 0
M  V30 5228 N 493.685 -0.035106 -1.57561 0
M  V30 5229 C 494.635 0.954034 -2.0708 0
M  V30 5230 C 495.619 1.2818 -0.972558 0
M  V30 5231 O 496.811 1.26691 -1.23606 0
M  V30 5232 C 493.94 2.23442 -2.60631 0
M  V30 5233 C 493.026 1.93475 -3.77396 0
M  V30 5234 N 493.417 1.33802 -4.87781 0
M  V30 5235 C 491.715 2.23434 -3.85996 0
M  V30 5236 C 492.416 1.21103 -5.68954 0
M  V30 5237 N 491.392 1.70855 -5.16052 0
M  V30 5238 H 495.194 0.487731 -2.89825 0
M  V30 5239 H 492.708 0.169759 -1.6151 0
M  V30 5240 H 494.705 2.95183 -2.94402 0
M  V30 5241 H 493.365 2.70693 -1.79319 0
M  V30 5242 H 494.376 1.01227 -5.07911 0
M  V30 5243 H 491.053 2.73317 -3.15601 0
M  V30 5244 H 492.443 0.749105 -6.67711 0
M  V30 5245 N 495.163 1.55791 0.238111 0
M  V30 5246 C 496.111 1.91885 1.31464 0
M  V30 5247 C 497.105 0.798929 1.49377 0
M  V30 5248 O 498.311 0.983626 1.50747 0
M  V30 5249 H 494.686 0.609551 0.440399 0
M  V30 5250 H 496.657 2.81747 0.982925 0
M  V30 5251 C 495.406 2.23763 2.6613 0
M  V30 5252 H 494.729 3.09444 2.53149 0
M  V30 5253 H 496.169 2.52915 3.40309 0
M  V30 5254 C 494.628 1.05699 3.1989 0
M  V30 5255 O 495.158 0.309524 4.00506 0
M  V30 5256 N 493.364 0.845251 2.78036 0
M  V30 5257 H 492.911 1.4548 2.12588 0
M  V30 5258 H 492.869 0.0569973 3.14348 0
M  V30 5259 N 496.642 -0.504142 1.49319 0
M  V30 5260 C 498.053 -1.08572 1.51885 0
M  V30 5261 C 498.404 -1.93842 0.303255 0
M  V30 5262 O 497.529 -2.0828 -0.58724 0
M  V30 5263 C 498.124 -1.97574 2.75227 0
M  V30 5264 C 496.683 -2.509 2.80581 0
M  V30 5265 C 495.83 -1.28447 2.45757 0
M  V30 5266 H 498.781 -0.288194 1.56061 0
M  V30 5267 H 498.802 -2.82219 2.55211 0
M  V30 5268 H 498.314 -1.35486 3.63683 0
M  V30 5269 H 496.415 -3.16636 1.96398 0
M  V30 5270 H 496.528 -2.88268 3.82673 0
M  V30 5271 H 494.892 -1.60868 1.97468 0
M  V30 5272 H 495.675 -0.68072 3.36483 0
M  V30 5273 N 498.12 -1.38341 -0.754957 0
M  V30 5274 C 499.05 -1.38176 -1.88227 0
M  V30 5275 C 500.031 -0.247873 -1.68284 0
M  V30 5276 O 501.216 -0.45075 -1.88896 0
M  V30 5277 C 498.346 -1.20471 -3.25736 0
M  V30 5278 C 497.3 -2.3105 -3.60278 0
M  V30 5279 C 496.626 -1.98452 -4.96509 0
M  V30 5280 C 497.926 -3.73305 -3.65295 0
M  V30 5281 H 499.62 -2.32512 -1.88622 0
M  V30 5282 H 497.166 -1.1192 -0.906082 0
M  V30 5283 H 499.119 -1.18982 -4.04254 0
M  V30 5284 H 497.843 -0.225965 -3.25817 0
M  V30 5285 H 496.502 -2.31723 -2.84078 0
M  V30 5286 H 496.15 -0.990641 -4.93148 0
M  V30 5287 H 495.85 -2.7251 -5.20588 0
M  V30 5288 H 497.374 -1.98578 -5.77407 0
M  V30 5289 H 498.788 -3.7467 -4.3393 0
M  V30 5290 H 497.185 -4.46557 -4.00883 0
M  V30 5291 H 498.255 -4.05719 -2.65556 0
M  V30 5292 N 499.598 0.982988 -1.23187 0
M  V30 5293 C 500.844 1.72648 -1.06398 0
M  V30 5294 C 501.177 1.90066 0.398561 0
M  V30 5295 O 500.452 1.45105 1.29518 0
M  V30 5296 C 500.735 3.12627 -1.78707 0
M  V30 5297 C 500.588 3.02795 -3.32618 0
M  V30 5298 C 501.907 4.11997 -1.54747 0
M  V30 5299 H 499.026 0.626649 -0.387918 0
M  V30 5300 H 501.668 1.14455 -1.51658 0
M  V30 5301 H 499.818 3.62308 -1.40234 0
M  V30 5302 H 501.49 2.60659 -3.80598 0
M  V30 5303 H 499.733 2.39362 -3.61785 0
M  V30 5304 H 500.404 4.01893 -3.78399 0
M  V30 5305 H 502.88 3.71114 -1.88186 0
M  V30 5306 H 501.756 5.08037 -2.07821 0
M  V30 5307 H 502.017 4.39462 -0.482249 0
M  V30 5308 N 501.076 1.04316 1.18135 0
M  V30 5309 C 502.325 0.74319 1.87509 0
M  V30 5310 C 502.638 -0.732136 1.81381 0
M  V30 5311 O 503.844 -1.14572 2.46141 0
M  V30 5312 C 502.3 1.27913 3.36402 0
M  V30 5313 C 501.908 2.78326 3.51053 0
M  V30 5314 C 503.652 1.0558 4.11161 0
M  V30 5315 C 501.559 3.25266 4.93919 0
M  V30 5316 H 500.489 0.274313 0.702331 0
M  V30 5317 H 503.14 1.25931 1.33467 0
M  V30 5318 H 501.522 0.690853 3.89927 0
M  V30 5319 H 502.696 3.42933 3.07788 0
M  V30 5320 H 501.011 2.991 2.89704 0
M  V30 5321 H 503.608 1.38161 5.16542 0
M  V30 5322 H 503.951 -0.00684729 4.16299 0
M  V30 5323 H 504.484 1.60882 3.63816 0
M  V30 5324 H 501.223 4.30922 4.9395 0
M  V30 5325 H 500.743 2.65396 5.3789 0
M  V30 5326 H 502.422 3.19433 5.62647 0
M  V30 5327 N 502.554 -1.34406 0.822964 0
M  V30 5328 C 503.464 -2.33298 0.246838 0
M  V30 5329 C 504.48 -1.62625 -0.618797 0
M  V30 5330 O 505.656 -1.94391 -0.526685 0
M  V30 5331 C 502.721 -3.41785 -0.581731 0
M  V30 5332 C 501.782 -4.28206 0.306309 0
M  V30 5333 C 501.015 -5.31512 -0.48281 0
M  V30 5334 O 501.238 -5.43973 -1.71607 0
M  V30 5335 O 500.172 -6.01749 0.134884 0
M  V30 5336 H 503.998 -2.84401 1.06534 0
M  V30 5337 H 501.583 -1.37466 0.585108 0
M  V30 5338 H 503.465 -4.08028 -1.05313 0
M  V30 5339 H 502.14 -2.92925 -1.37756 0
M  V30 5340 H 501.047 -3.64885 0.825199 0
M  V30 5341 H 502.38 -4.80507 1.06649 0
M  V30 5342 N 504.032 -0.577932 -1.46621 0
M  V30 5343 C 505.28 -0.061566 -2.02006 0
M  V30 5344 C 505.601 1.30117 -1.4524 0
M  V30 5345 O 504.871 1.85313 -0.63529 0
M  V30 5346 H 503.451 -0.0197692 -0.746738 0
M  V30 5347 H 506.113 -0.752631 -1.79782 0
M  V30 5348 H 505.209 0.0110238 -3.12098 0
M  V30 5349 N 505.51 1.54411 -0.315457 0
M  V30 5350 C 506.926 1.59556 0.037464 0
M  V30 5351 C 507.126 1.33217 1.5118 0
M  V30 5352 O 506.182 1.11264 2.26664 0
M  V30 5353 C 507.495 2.98372 -0.373477 0
M  V30 5354 C 509.043 3.11324 -0.323452 0
M  V30 5355 C 509.518 4.52472 -0.709433 0
M  V30 5356 N 511.009 4.58437 -0.662524 0
M  V30 5357 C 511.744 5.65751 -0.933474 0
M  V30 5358 N 511.24 6.81039 -1.27114 0
M  V30 5359 N 513.033 5.55489 -0.859573 0
M  V30 5360 H 505.184 1.6979 -1.27614 0
M  V30 5361 H 507.447 0.793732 -0.518356 0
M  V30 5362 H 507.153 3.22618 -1.40037 0
M  V30 5363 H 507.027 3.76264 0.265615 0
M  V30 5364 H 509.414 2.86818 0.694223 0
M  V30 5365 H 509.495 2.35555 -0.997367 0
M  V30 5366 H 509.139 4.7771 -1.72498 0
M  V30 5367 H 509.069 5.26598 -0.0132923 0
M  V30 5368 H 511.56 3.75636 -0.413065 0
M  V30 5369 H 511.873 7.58816 -1.46348 0
M  V30 5370 H 510.218 6.82555 -1.30932 0
M  V30 5371 H 513.409 4.64299 -0.595324 0
M  V30 5372 H 513.582 6.39036 -1.0741 0
M  V30 5373 N 506.988 0.0434614 1.5754 0
M  V30 5374 C 507.936 -0.951465 2.1225 0
M  V30 5375 C 508.93 -1.3274 1.05245 0
M  V30 5376 O 510.136 -1.30795 1.23663 0
M  V30 5377 H 506.511 -0.324667 0.678303 0
M  V30 5378 H 508.482 -0.464855 2.94757 0
M  V30 5379 C 507.231 -2.21972 2.67626 0
M  V30 5380 H 506.554 -1.93923 3.4962 0
M  V30 5381 H 507.994 -2.89765 3.09536 0
M  V30 5382 C 506.453 -2.95919 1.61038 0
M  V30 5383 O 506.983 -3.8857 1.01862 0
M  V30 5384 N 505.189 -2.58511 1.32741 0
M  V30 5385 H 504.736 -1.83244 1.81051 0
M  V30 5386 H 504.694 -3.08296 0.616531 0
M  V30 5387 N 508.466 -1.55915 -0.229846 0
M  V30 5388 C 509.743 -1.6932 -0.979295 0
M  V30 5389 C 510.123 -0.588321 -2.02736 0
M  V30 5390 O 509.471 0.40586 -2.24867 0
M  V30 5391 C 509.681 -3.10305 -1.59724 0
M  V30 5392 C 511.029 -3.6945 -2.09264 0
M  V30 5393 O 512.053 -3.13214 -1.69633 0
M  V30 5394 O 510.912 -4.68072 -2.82082 0
M  V30 5395 H 508.006 -0.689314 -0.456919 0
M  V30 5396 H 510.552 -1.68238 -0.222283 0
M  V30 5397 H 509.324 -3.82177 -0.840039 0
M  V30 5398 H 508.947 -3.1547 -2.42001 0
M  V30 5399 N 509.944 0.496216 -1.49584 0
M  V30 5400 C 511.169 1.27865 -1.63295 0
M  V30 5401 C 511.594 1.85592 -0.306156 0
M  V30 5402 O 510.952 1.66092 0.726851 0
M  V30 5403 C 511 2.38128 -2.7079 0
M  V30 5404 O 510.104 3.42108 -2.30296 0
M  V30 5405 H 509.445 0.377279 -0.546403 0
M  V30 5406 H 511.975 0.593497 -1.95803 0
M  V30 5407 H 511.985 2.8382 -2.93104 0
M  V30 5408 H 510.66 1.95479 -3.67098 0
M  V30 5409 H 509.237 3.02301 -2.18331 0
M  V30 5410 N 511.423 1.38739 0.74761 0
M  V30 5411 C 512.648 1.38702 1.54197 0
M  V30 5412 C 513.073 -0.019664 1.8809 0
M  V30 5413 O 512.431 -1.00333 1.51006 0
M  V30 5414 C 512.479 2.25492 2.814 0
M  V30 5415 O 511.583 1.67613 3.76802 0
M  V30 5416 H 510.924 0.472863 0.466151 0
M  V30 5417 H 513.454 1.82577 0.923413 0
M  V30 5418 H 513.464 2.39561 3.30264 0
M  V30 5419 H 512.139 3.27727 2.56062 0
M  V30 5420 H 510.716 1.62718 3.35526 0
M  V30 5421 N 512.901 -0.976442 1.23707 0
M  V30 5422 C 514.149 -1.71487 1.06942 0
M  V30 5423 C 514.47 -1.9098 -0.393897 0
M  V30 5424 O 513.74 -1.48128 -1.28198 0
M  V30 5425 H 512.32 -0.635425 0.392739 0
M  V30 5426 H 514.982 -1.17515 1.55487 0
M  V30 5427 H 514.078 -2.70286 1.56051 0
M  V30 5428 N 514.379 -1.04941 -1.1758 0
M  V30 5429 C 515.628 -0.753124 -1.87112 0
M  V30 5430 C 515.941 0.722507 -1.81767 0
M  V30 5431 O 517.147 1.13265 -2.46746 0
M  V30 5432 C 515.603 -1.29695 -3.35719 0
M  V30 5433 C 515.211 -2.80184 -3.49572 0
M  V30 5434 C 516.955 -1.07759 -4.10595 0
M  V30 5435 C 514.862 -3.2788 -4.92187 0
M  V30 5436 H 513.792 -0.278034 -0.700866 0
M  V30 5437 H 516.443 -1.26637 -1.32798 0
M  V30 5438 H 514.825 -0.711522 -3.89555 0
M  V30 5439 H 515.999 -3.44561 -3.05965 0
M  V30 5440 H 514.314 -3.00632 -2.88113 0
M  V30 5441 H 516.911 -1.40899 -5.15802 0
M  V30 5442 H 517.254 -0.0152302 -4.16297 0
M  V30 5443 H 517.787 -1.62809 -3.62957 0
M  V30 5444 H 514.526 -4.33535 -4.91658 0
M  V30 5445 H 514.046 -2.68245 -5.36475 0
M  V30 5446 H 515.725 -3.22412 -5.60945 0
M  V30 5447 N 515.857 1.33968 -0.830081 0
M  V30 5448 C 517.273 1.51003 -0.516742 0
M  V30 5449 C 517.473 1.77286 0.957694 0
M  V30 5450 O 516.529 1.82797 1.74188 0
M  V30 5451 C 517.842 2.67036 -1.38247 0
M  V30 5452 C 519.39 2.80919 -1.38034 0
M  V30 5453 C 519.865 4.00004 -2.23071 0
M  V30 5454 N 521.356 4.07224 -2.20733 0
M  V30 5455 C 522.091 4.98541 -2.83275 0
M  V30 5456 N 521.587 5.95033 -3.54835 0
M  V30 5457 N 523.38 4.91469 -2.72791 0
M  V30 5458 H 515.531 1.15168 -1.78466 0
M  V30 5459 H 517.794 0.565443 -0.760906 0
M  V30 5460 H 517.5 2.54266 -2.42985 0
M  V30 5461 H 517.374 3.62226 -1.05225 0
M  V30 5462 H 519.761 2.93127 -0.340713 0
M  V30 5463 H 519.842 1.86517 -1.75057 0
M  V30 5464 H 519.486 3.88557 -3.27087 0
M  V30 5465 H 519.416 4.93634 -1.83394 0
M  V30 5466 H 521.907 3.38162 -1.68687 0
M  V30 5467 H 522.22 6.61357 -3.99784 0
M  V30 5468 H 520.565 5.95135 -3.58942 0
M  V30 5469 H 523.756 4.15048 -2.16456 0
M  V30 5470 H 523.929 5.62439 -3.21818 0
M  V30 5471 N 517.335 0.585699 1.46312 0
M  V30 5472 C 518.265 -0.133556 2.33118 0
M  V30 5473 C 519.246 -0.880707 1.45525 0
M  V30 5474 O 520.431 -0.855579 1.74337 0
M  V30 5475 C 517.561 -1.14585 3.27853 0
M  V30 5476 C 516.515 -0.513341 4.2491 0
M  V30 5477 C 515.841 -1.63231 5.09175 0
M  V30 5478 C 517.141 0.551413 5.19381 0
M  V30 5479 H 518.835 0.59121 2.93505 0
M  V30 5480 H 516.381 0.285761 1.41136 0
M  V30 5481 H 518.334 -1.65741 3.87438 0
M  V30 5482 H 517.058 -1.90093 2.65579 0
M  V30 5483 H 515.717 -0.0228349 3.66593 0
M  V30 5484 H 515.365 -2.37713 4.43285 0
M  V30 5485 H 515.065 -1.21473 5.74907 0
M  V30 5486 H 516.589 -2.14658 5.71624 0
M  V30 5487 H 518.003 0.124804 5.73164 0
M  V30 5488 H 516.4 0.889486 5.93471 0
M  V30 5489 H 517.47 1.43655 4.63132 0
M  V30 5490 N 518.813 -1.54241 0.323641 0
M  V30 5491 C 520.043 -2.04687 -0.280464 0
M  V30 5492 C 520.451 -1.19939 -1.46326 0
M  V30 5493 O 519.794 -0.222872 -1.82343 0
M  V30 5494 C 519.856 -3.50978 -0.778123 0
M  V30 5495 C 519.52 -4.56127 0.282371 0
M  V30 5496 C 520.517 -5.07726 1.11847 0
M  V30 5497 C 518.202 -5.00451 0.430582 0
M  V30 5498 C 520.196 -6.02212 2.08851 0
M  V30 5499 C 517.883 -5.94752 1.40404 0
M  V30 5500 C 518.881 -6.45519 2.23147 0
M  V30 5501 O 518.569 -7.37968 3.1884 0
M  V30 5502 H 518.301 -0.673192 -0.0615473 0
M  V30 5503 H 520.855 -1.99999 0.467921 0
M  V30 5504 H 519.085 -3.53064 -1.57742 0
M  V30 5505 H 520.774 -3.84499 -1.30058 0
M  V30 5506 H 521.54 -4.74261 1.01496 0
M  V30 5507 H 517.419 -4.6055 -0.203569 0
M  V30 5508 H 520.963 -6.41761 2.73474 0
M  V30 5509 H 516.86 -6.27633 1.5082 0
M  V30 5510 H 517.628 -7.55841 3.14079 0
M  V30 5511 N 520.291 -0.0518155 -1.57515 0
M  V30 5512 C 521.521 0.63048 -1.96745 0
M  V30 5513 C 521.929 1.64875 -0.928054 0
M  V30 5514 O 521.272 1.83449 0.0960678 0
M  V30 5515 C 521.334 1.37381 -3.32215 0
M  V30 5516 C 520.998 0.511298 -4.54131 0
M  V30 5517 C 521.995 -0.222884 -5.19422 0
M  V30 5518 C 519.68 0.442035 -5.00351 0
M  V30 5519 C 521.674 -1.01476 -6.2927 0
M  V30 5520 C 519.361 -0.35353 -6.10077 0
M  V30 5521 C 520.359 -1.08062 -6.74397 0
M  V30 5522 O 520.047 -1.8631 -7.82013 0
M  V30 5523 H 519.779 0.177126 -0.652382 0
M  V30 5524 H 522.333 -0.114726 -2.05079 0
M  V30 5525 H 520.563 2.16466 -3.20436 0
M  V30 5526 H 522.252 1.9464 -3.56188 0
M  V30 5527 H 523.018 -0.178846 -4.8467 0
M  V30 5528 H 518.897 0.997562 -4.50077 0
M  V30 5529 H 522.441 -1.58279 -6.79407 0
M  V30 5530 H 518.338 -0.399205 -6.44264 0
M  V30 5531 H 519.106 -1.78528 -7.98793 0
M  V30 5532 N 521.769 1.56035 0.221574 0
M  V30 5533 C 522.997 1.8313 0.962864 0
M  V30 5534 C 523.412 0.630934 1.77946 0
M  V30 5535 O 522.769 -0.400519 1.78051 0
M  V30 5536 C 522.82 3.08742 1.88045 0
M  V30 5537 O 522.541 4.24147 1.09686 0
M  V30 5538 C 524.042 3.48824 2.73563 0
M  V30 5539 H 521.262 0.608775 0.282194 0
M  V30 5540 H 523.806 2.03124 0.23681 0
M  V30 5541 H 521.961 2.90723 2.56045 0
M  V30 5542 H 522.375 4.95505 1.71974 0
M  V30 5543 H 523.849 4.39752 3.3365 0
M  V30 5544 H 524.326 2.70575 3.45956 0
M  V30 5545 H 524.932 3.69282 2.10976 0
M  V30 5546 N 523.247 -0.488276 1.49845 0
M  V30 5547 C 524.21 -1.57069 1.66919 0
M  V30 5548 C 525.21 -1.51445 0.540479 0
M  V30 5549 O 526.4 -1.5437 0.807188 0
M  V30 5550 C 523.532 -2.96718 1.67844 0
M  V30 5551 H 524.725 -1.43254 2.63474 0
M  V30 5552 H 522.278 -0.713435 1.39068 0
M  V30 5553 H 523.013 -3.15996 0.7292 0
M  V30 5554 H 522.798 -3.02208 2.49826 0
M  V30 5555 H 524.288 -3.75335 1.83066 0
M  V30 5556 N 524.725 -1.39134 -0.740242 0
M  V30 5557 C 525.672 -1.37434 -1.8542 0
M  V30 5558 C 526.642 -0.234822 -1.64432 0
M  V30 5559 O 527.827 -0.429125 -1.85912 0
M  V30 5560 C 524.967 -1.21844 -3.22875 0
M  V30 5561 C 524.08 -2.45296 -3.55603 0
M  V30 5562 C 523.215 -2.22334 -4.82432 0
M  V30 5563 C 522.254 -3.41488 -5.07988 0
M  V30 5564 N 521.391 -3.17877 -6.26018 0
M  V30 5565 H 526.231 -2.3266 -1.86207 0
M  V30 5566 H 523.768 -1.15578 -0.909946 0
M  V30 5567 H 525.726 -1.10818 -4.02213 0
M  V30 5568 H 524.356 -0.3025 -3.21379 0
M  V30 5569 H 523.408 -2.66945 -2.71006 0
M  V30 5570 H 524.72 -3.34063 -3.7041 0
M  V30 5571 H 523.874 -2.0852 -5.69741 0
M  V30 5572 H 522.613 -1.30954 -4.6979 0
M  V30 5573 H 521.618 -3.55807 -4.19144 0
M  V30 5574 H 522.843 -4.33763 -5.22519 0
M  V30 5575 H 520.789 -2.29156 -6.14673 0
M  V30 5576 H 520.706 -4.00198 -6.41387 0
M  V30 5577 H 521.974 -3.07746 -7.16179 0
M  V30 5578 N 526.204 0.969867 -1.24223 0
M  V30 5579 C 527.134 2.08191 -1.05729 0
M  V30 5580 C 528.115 1.70075 0.0290765 0
M  V30 5581 O 529.3 1.93712 -0.137583 0
M  V30 5582 C 526.43 3.40991 -0.658995 0
M  V30 5583 C 525.384 3.93054 -1.69389 0
M  V30 5584 C 524.71 5.22171 -1.15072 0
M  V30 5585 C 526.01 4.21137 -3.08935 0
M  V30 5586 H 527.704 2.23921 -1.98746 0
M  V30 5587 H 525.25 1.07602 -0.956967 0
M  V30 5588 H 527.203 4.18221 -0.51662 0
M  V30 5589 H 525.927 3.25155 0.30686 0
M  V30 5590 H 524.586 3.17977 -1.82444 0
M  V30 5591 H 524.234 5.02694 -0.175539 0
M  V30 5592 H 523.934 5.57973 -1.84229 0
M  V30 5593 H 525.458 6.02013 -1.02042 0
M  V30 5594 H 526.872 4.8908 -2.99121 0
M  V30 5595 H 525.269 4.68163 -3.75425 0
M  V30 5596 H 526.339 3.27996 -3.57137 0
M  V30 5597 N 527.682 1.05563 1.17022 0
M  V30 5598 C 529.098 0.777684 1.39371 0
M  V30 5599 C 529.298 -0.626269 1.91521 0
M  V30 5600 O 528.354 -1.38806 2.10924 0
M  V30 5601 C 529.667 1.83642 2.3811 0
M  V30 5602 C 531.215 1.85907 2.51809 0
M  V30 5603 C 531.69 2.90813 3.53824 0
M  V30 5604 N 533.181 2.898 3.61345 0
M  V30 5605 C 533.916 3.6762 4.40049 0
M  V30 5606 N 533.412 4.55237 5.22237 0
M  V30 5607 N 535.205 3.56044 4.34959 0
M  V30 5608 H 527.356 1.9614 0.815047 0
M  V30 5609 H 529.619 0.849527 0.420722 0
M  V30 5610 H 529.325 2.84425 2.06871 0
M  V30 5611 H 529.199 1.6812 3.37662 0
M  V30 5612 H 531.586 0.857865 2.82356 0
M  V30 5613 H 531.667 2.05506 1.52318 0
M  V30 5614 H 531.311 3.91122 3.24015 0
M  V30 5615 H 531.241 2.68465 4.53028 0
M  V30 5616 H 533.732 2.26274 3.02669 0
M  V30 5617 H 534.045 5.11291 5.79484 0
M  V30 5618 H 532.39 4.59296 5.21605 0
M  V30 5619 H 535.581 2.86986 3.69806 0
M  V30 5620 H 535.754 4.16938 4.96051 0
M  V30 5621 N 529.16 -1.33526 0.837174 0
M  V30 5622 C 530.576 -1.50727 0.524743 0
M  V30 5623 C 530.776 -1.77792 -0.948279 0
M  V30 5624 O 529.832 -1.83719 -1.73216 0
M  V30 5625 C 531.145 -2.66299 1.39661 0
M  V30 5626 C 532.693 -2.80183 1.39521 0
M  V30 5627 C 533.168 -3.98815 2.25189 0
M  V30 5628 N 534.659 -4.06047 2.2289 0
M  V30 5629 C 535.394 -4.97032 2.85915 0
M  V30 5630 N 534.89 -5.93143 3.57985 0
M  V30 5631 N 536.683 -4.90015 2.75394 0
M  V30 5632 H 528.834 -1.1422 1.79074 0
M  V30 5633 H 531.097 -0.561399 0.763894 0
M  V30 5634 H 530.803 -2.52974 2.4433 0
M  V30 5635 H 530.677 -3.61663 1.07145 0
M  V30 5636 H 533.064 -2.92942 0.356253 0
M  V30 5637 H 533.145 -1.85586 1.76044 0
M  V30 5638 H 532.789 -3.86817 3.29143 0
M  V30 5639 H 532.719 -4.92654 1.86009 0
M  V30 5640 H 535.21 -3.37262 1.70478 0
M  V30 5641 H 535.523 -6.59227 4.03286 0
M  V30 5642 H 533.868 -5.93223 3.62093 0
M  V30 5643 H 537.059 -4.13894 2.18654 0
M  V30 5644 H 537.232 -5.60724 3.24796 0
M  V30 5645 N 530.638 -0.59345 -1.46 0
M  V30 5646 C 531.885 -0.0831523 -2.02329 0
M  V30 5647 C 532.213 1.28093 -1.46364 0
M  V30 5648 O 531.468 1.85526 -0.622793 0
M  V30 5649 C 531.767 0.021178 -3.57394 0
M  V30 5650 C 531.433 -1.27671 -4.32448 0
M  V30 5651 C 530.095 -1.63227 -4.5267 0
M  V30 5652 C 532.447 -2.13511 -4.7546 0
M  V30 5653 C 529.775 -2.84401 -5.1316 0
M  V30 5654 C 532.127 -3.33922 -5.37289 0
M  V30 5655 C 530.791 -3.69747 -5.55737 0
M  V30 5656 H 530.061 -0.0304276 -0.740375 0
M  V30 5657 H 532.708 -0.772239 -1.75239 0
M  V30 5658 H 531.013 0.793454 -3.83682 0
M  V30 5659 H 532.71 0.431942 -3.98667 0
M  V30 5660 H 529.3 -0.989937 -4.17011 0
M  V30 5661 H 533.484 -1.87344 -4.59582 0
M  V30 5662 H 528.74 -3.12282 -5.25633 0
M  V30 5663 H 532.914 -4.00698 -5.69574 0
M  V30 5664 H 530.541 -4.6373 -6.02377 0
M  V30 5665 N 532.116 1.54067 -0.331816 0
M  V30 5666 C 533.064 2.26105 0.54582 0
M  V30 5667 C 534.058 1.27816 1.11173 0
M  V30 5668 O 535.264 1.45565 1.05882 0
M  V30 5669 H 531.639 0.726363 0.194683 0
M  V30 5670 H 533.61 2.98282 -0.083931 0
M  V30 5671 C 532.359 3.03814 1.69092 0
M  V30 5672 H 531.682 3.79269 1.26473 0
M  V30 5673 H 533.122 3.57453 2.28043 0
M  V30 5674 C 531.581 2.12606 2.61343 0
M  V30 5675 O 532.111 1.71437 3.6328 0
M  V30 5676 N 530.317 1.77925 2.29763 0
M  V30 5677 H 529.864 2.11602 1.46909 0
M  V30 5678 H 529.822 1.1718 2.91747 0
M  V30 5679 N 533.594 0.0601682 1.57485 0
M  V30 5680 C 534.557 -0.896373 2.10945 0
M  V30 5681 C 535.557 -1.23402 1.03095 0
M  V30 5682 O 536.747 -1.16921 1.29132 0
M  V30 5683 C 533.879 -2.20346 2.60116 0
M  V30 5684 H 535.072 -0.432778 2.96761 0
M  V30 5685 H 532.625 -0.188372 1.55161 0
M  V30 5686 H 533.36 -2.71268 1.7772 0
M  V30 5687 H 533.145 -1.9714 3.38937 0
M  V30 5688 H 534.635 -2.88846 3.01592 0
M  V30 5689 N 535.072 -1.5615 -0.213296 0
M  V30 5690 C 536.32 -1.79191 -0.934612 0
M  V30 5691 C 536.641 -0.630112 -1.84539 0
M  V30 5692 O 535.911 0.35257 -1.92701 0
M  V30 5693 H 534.491 -0.660937 -0.348097 0
M  V30 5694 H 537.153 -1.93618 -0.22317 0
M  V30 5695 H 536.249 -2.71656 -1.53654 0
M  V30 5696 N 536.55 0.480323 -1.50102 0
M  V30 5697 C 537.799 1.22979 -1.59872 0
M  V30 5698 C 538.112 1.93282 -0.30022 0
M  V30 5699 O 539.318 2.70086 -0.276709 0
M  V30 5700 C 537.774 2.23408 -2.82164 0
M  V30 5701 C 537.382 1.5895 -4.18854 0
M  V30 5702 C 539.126 2.99055 -3.01275 0
M  V30 5703 C 537.033 2.57611 -5.32344 0
M  V30 5704 H 535.963 0.462707 -0.59533 0
M  V30 5705 H 538.614 0.501291 -1.7652 0
M  V30 5706 H 536.996 2.99511 -2.59055 0
M  V30 5707 H 538.17 0.887 -4.52182 0
M  V30 5708 H 536.485 0.956191 -4.05273 0
M  V30 5709 H 539.082 3.72876 -3.83233 0
M  V30 5710 H 539.425 3.57897 -2.12639 0
M  V30 5711 H 539.958 2.30066 -3.24522 0
M  V30 5712 H 536.697 2.03521 -6.23105 0
M  V30 5713 H 536.217 3.26041 -5.03445 0
M  V30 5714 H 537.896 3.19627 -5.62537 0
M  V30 5715 N 538.028 1.39524 0.732853 0
M  V30 5716 C 538.961 1.32806 1.85574 0
M  V30 5717 C 539.939 0.201354 1.61348 0
M  V30 5718 O 541.123 0.38216 1.84585 0
M  V30 5719 C 538.25 1.06271 3.21596 0
M  V30 5720 C 537.296 2.21161 3.64678 0
M  V30 5721 S 538.129 3.83454 3.73796 0
M  V30 5722 C 539.285 3.59149 5.12604 0
M  V30 5723 H 539.518 2.27838 1.9099 0
M  V30 5724 H 537.051 1.25605 0.897927 0
M  V30 5725 H 539.009 0.916461 4.00139 0
M  V30 5726 H 537.67 0.129223 3.13834 0
M  V30 5727 H 536.863 1.98193 4.63396 0
M  V30 5728 H 536.465 2.32 2.93346 0
M  V30 5729 H 538.757 3.16547 5.99003 0
M  V30 5730 H 539.7 4.57335 5.40602 0
M  V30 5731 H 540.108 2.93203 4.82382 0
M  V30 5732 N 539.506 -0.963266 1.24736 0
M  V30 5733 C 540.416 -2.09246 1.06082 0
M  V30 5734 C 541.432 -1.74 0.000363101 0
M  V30 5735 O 542.608 -2.0041 0.199479 0
M  V30 5736 C 539.673 -3.40115 0.672498 0
M  V30 5737 C 538.734 -3.89282 1.80993 0
M  V30 5738 C 537.967 -5.13905 1.44004 0
M  V30 5739 O 538.19 -5.69434 0.331835 0
M  V30 5740 O 537.124 -5.57566 2.26723 0
M  V30 5741 H 540.95 -2.27881 2.00759 0
M  V30 5742 H 538.535 -1.07649 1.03595 0
M  V30 5743 H 540.417 -4.18797 0.467668 0
M  V30 5744 H 539.092 -3.22771 -0.245102 0
M  V30 5745 H 537.999 -3.11642 2.06955 0
M  V30 5746 H 539.332 -4.1111 2.70646 0
M  V30 5747 N 540.985 -1.06182 -1.16461 0
M  V30 5748 C 541.915 -0.692861 -2.22984 0
M  V30 5749 C 542.896 0.314122 -1.67174 0
M  V30 5750 O 544.081 0.189499 -1.93273 0
M  V30 5751 C 541.211 -0.07732 -3.47214 0
M  V30 5752 C 540.165 -1.01015 -4.15909 0
M  V30 5753 C 539.491 -0.257973 -5.34077 0
M  V30 5754 C 540.791 -2.33868 -4.67015 0
M  V30 5755 H 542.485 -1.58343 -2.54102 0
M  V30 5756 H 540.031 -0.76279 -1.22137 0
M  V30 5757 H 541.984 0.19266 -4.20959 0
M  V30 5758 H 540.708 0.848254 -3.15392 0
M  V30 5759 H 539.367 -1.26486 -3.44088 0
M  V30 5760 H 539.015 0.670684 -4.98509 0
M  V30 5761 H 538.715 -0.879638 -5.80979 0
M  V30 5762 H 540.239 0.00448788 -6.106 0
M  V30 5763 H 541.653 -2.1279 -5.32347 0
M  V30 5764 H 540.05 -2.91522 -5.24533 0
M  V30 5765 H 541.12 -2.97019 -3.83286 0
M  V30 5766 N 542.463 1.3308 -0.844243 0
M  V30 5767 C 543.711 1.97215 -0.441676 0
M  V30 5768 C 544.032 1.67185 1.0037 0
M  V30 5769 O 543.302 0.973588 1.69994 0
M  V30 5770 H 541.882 0.72959 -0.160335 0
M  V30 5771 H 544.544 1.62348 -1.07838 0
M  V30 5772 H 543.64 3.06698 -0.57815 0
M  V30 5773 N 543.941 0.601185 1.45683 0
M  V30 5774 C 544.871 -0.108824 2.33246 0
M  V30 5775 C 545.852 -0.865223 1.46451 0
M  V30 5776 O 547.037 -0.83704 1.75235 0
M  V30 5777 C 544.167 -1.11101 3.2905 0
M  V30 5778 C 543.121 -0.468244 4.25431 0
M  V30 5779 C 542.447 -1.57822 5.10878 0
M  V30 5780 C 543.747 0.606469 5.18767 0
M  V30 5781 H 545.441 0.622306 2.92861 0
M  V30 5782 H 542.987 0.300714 1.40825 0
M  V30 5783 H 544.94 -1.61622 3.89174 0
M  V30 5784 H 543.664 -1.87265 2.67581 0
M  V30 5785 H 542.323 0.0160484 3.66596 0
M  V30 5786 H 541.971 -2.32998 4.45781 0
M  V30 5787 H 541.671 -1.15369 5.76163 0
M  V30 5788 H 543.195 -2.08583 5.73869 0
M  V30 5789 H 544.609 0.185589 5.73 0
M  V30 5790 H 543.006 0.952381 5.92494 0
M  V30 5791 H 544.076 1.48559 4.61582 0
M  V30 5792 N 545.419 -1.53889 0.339982 0
M  V30 5793 C 546.665 -2.01152 -0.258003 0
M  V30 5794 C 546.998 -1.22749 -1.50487 0
M  V30 5795 O 546.273 -0.314156 -1.91946 0
M  V30 5796 C 546.556 -3.55468 -0.575717 0
M  V30 5797 C 546.409 -4.44584 0.682996 0
M  V30 5798 C 547.728 -4.1768 -1.38677 0
M  V30 5799 H 544.847 -0.731198 -0.0922992 0
M  V30 5800 H 547.489 -1.84352 0.459814 0
M  V30 5801 H 545.639 -3.69914 -1.18725 0
M  V30 5802 H 547.311 -4.41981 1.32102 0
M  V30 5803 H 545.554 -4.13592 1.3086 0
M  V30 5804 H 546.225 -5.5043 0.416001 0
M  V30 5805 H 548.701 -4.0691 -0.869705 0
M  V30 5806 H 547.577 -5.25734 -1.57783 0
M  V30 5807 H 547.838 -3.72069 -2.38782 0
M  V30 5808 N 546.897 -0.0685191 -1.57451 0
M  V30 5809 C 548.127 0.609577 -1.97402 0
M  V30 5810 C 548.535 1.63882 -0.945489 0
M  V30 5811 O 547.878 1.8354 0.0766052 0
M  V30 5812 C 547.94 1.3385 -3.33653 0
M  V30 5813 C 547.604 0.463103 -4.54648 0
M  V30 5814 C 548.601 -0.277964 -5.19156 0
M  V30 5815 C 546.286 0.388941 -5.00792 0
M  V30 5816 C 548.28 -1.08145 -6.28159 0
M  V30 5817 C 545.967 -0.418217 -6.09667 0
M  V30 5818 C 546.965 -1.15208 -6.73213 0
M  V30 5819 O 546.653 -1.94594 -7.79993 0
M  V30 5820 H 546.385 0.170197 -0.654224 0
M  V30 5821 H 548.939 -0.13647 -2.04946 0
M  V30 5822 H 547.169 2.13055 -3.22714 0
M  V30 5823 H 548.858 1.90851 -3.58233 0
M  V30 5824 H 549.624 -0.230241 -4.84453 0
M  V30 5825 H 545.503 0.949769 -4.5111 0
M  V30 5826 H 549.047 -1.65476 -6.7769 0
M  V30 5827 H 544.944 -0.467515 -6.43805 0
M  V30 5828 H 545.712 -1.8699 -7.96854 0
M  V30 5829 N 548.375 1.56261 0.205012 0
M  V30 5830 C 549.603 1.84141 0.943386 0
M  V30 5831 C 550.018 0.649772 1.77266 0
M  V30 5832 O 549.375 -0.381612 1.78466 0
M  V30 5833 C 549.426 3.10719 1.84759 0
M  V30 5834 O 549.147 4.25286 1.05181 0
M  V30 5835 C 550.648 3.51706 2.69848 0
M  V30 5836 H 547.868 0.611734 0.275721 0
M  V30 5837 H 550.412 2.03364 0.215253 0
M  V30 5838 H 548.567 2.93422 2.52947 0
M  V30 5839 H 548.981 4.97301 1.66709 0
M  V30 5840 H 550.455 4.43266 3.28967 0
M  V30 5841 H 550.932 2.7423 3.43067 0
M  V30 5842 H 551.538 3.71499 2.07047 0
M  V30 5843 N 549.853 -0.472356 1.50355 0
M  V30 5844 C 551.264 -1.05326 1.54154 0
M  V30 5845 C 551.615 -1.93155 0.344303 0
M  V30 5846 O 550.74 -2.09479 -0.542928 0
M  V30 5847 C 551.335 -1.91691 2.79356 0
M  V30 5848 C 549.894 -2.44892 2.8584 0
M  V30 5849 C 549.041 -1.23205 2.48426 0
M  V30 5850 H 551.992 -0.255027 1.56637 0
M  V30 5851 H 552.013 -2.76742 2.6114 0
M  V30 5852 H 551.525 -1.27741 3.66475 0
M  V30 5853 H 549.626 -3.12399 2.0307 0
M  V30 5854 H 549.739 -2.80086 3.88701 0
M  V30 5855 H 548.103 -1.56643 2.00836 0
M  V30 5856 H 548.886 -0.609194 3.37852 0
M  V30 5857 N 551.331 -1.39911 -0.725443 0
M  V30 5858 C 552.577 -1.37858 -1.48738 0
M  V30 5859 C 552.91 0.0224187 -1.94187 0
M  V30 5860 O 552.185 0.989204 -1.67466 0
M  V30 5861 C 552.468 -2.3594 -2.72038 0
M  V30 5862 C 552.321 -3.85023 -2.32546 0
M  V30 5863 C 553.64 -2.31704 -3.74167 0
M  V30 5864 H 550.759 -0.502074 -0.539528 0
M  V30 5865 H 553.401 -1.70974 -0.828728 0
M  V30 5866 H 551.551 -2.0783 -3.28236 0
M  V30 5867 H 553.223 -4.2392 -1.81905 0
M  V30 5868 H 551.466 -4.01334 -1.64661 0
M  V30 5869 H 552.137 -4.49152 -3.20884 0
M  V30 5870 H 554.613 -2.5658 -3.27576 0
M  V30 5871 H 553.489 -3.02395 -4.58092 0
M  V30 5872 H 553.75 -1.3253 -4.21768 0
M  V30 5873 N 552.809 0.956637 -1.25245 0
M  V30 5874 C 553.742 2.05232 -0.99775 0
M  V30 5875 C 554.72 1.62439 0.0723137 0
M  V30 5876 O 555.904 1.88381 -0.066926 0
M  V30 5877 C 553.031 3.34871 -0.507861 0
M  V30 5878 C 552.077 3.96625 -1.56815 0
M  V30 5879 S 552.91 4.32853 -3.15276 0
M  V30 5880 C 554.066 5.65613 -2.68017 0
M  V30 5881 H 554.299 2.26521 -1.9255 0
M  V30 5882 H 551.832 1.09601 -1.08752 0
M  V30 5883 H 553.79 4.09845 -0.231858 0
M  V30 5884 H 552.451 3.11551 0.399356 0
M  V30 5885 H 551.644 4.90087 -1.17604 0
M  V30 5886 H 551.246 3.28124 -1.79473 0
M  V30 5887 H 553.538 6.43635 -2.11518 0
M  V30 5888 H 554.481 6.09693 -3.60112 0
M  V30 5889 H 554.889 5.24751 -2.0808 0
M  V30 5890 N 554.287 1.06798 1.15896 0
M  V30 5891 C 555.25 0.687328 2.18651 0
M  V30 5892 C 556.25 -0.269559 1.58524 0
M  V30 5893 O 557.44 -0.0512627 1.74125 0
M  V30 5894 C 554.572 0.0121642 3.40898 0
M  V30 5895 H 555.765 1.59701 2.53842 0
M  V30 5896 H 553.318 0.863828 1.3026 0
M  V30 5897 H 554.053 -0.910025 3.1127 0
M  V30 5898 H 553.838 0.700309 3.85795 0
M  V30 5899 H 555.328 -0.239703 4.16911 0
M  V30 5900 N 555.766 -1.3263 0.851289 0
M  V30 5901 C 557.015 -1.96633 0.449267 0
M  V30 5902 C 557.328 -1.68131 -0.999562 0
M  V30 5903 O 558.534 -2.25845 -1.50685 0
M  V30 5904 C 556.99 -3.51946 0.752446 0
M  V30 5905 C 556.598 -3.89311 2.21678 0
M  V30 5906 C 558.342 -4.22437 0.417983 0
M  V30 5907 C 556.249 -5.37655 2.46336 0
M  V30 5908 H 555.179 -0.735888 0.164269 0
M  V30 5909 H 557.83 -1.51073 1.0416 0
M  V30 5910 H 556.212 -3.95899 0.0895858 0
M  V30 5911 H 557.386 -3.56378 2.92115 0
M  V30 5912 H 555.701 -3.31836 2.51543 0
M  V30 5913 H 558.298 -5.31549 0.579674 0
M  V30 5914 H 558.641 -4.11349 -0.640115 0
M  V30 5915 H 559.174 -3.84057 1.03659 0
M  V30 5916 H 555.913 -5.5376 3.50757 0
M  V30 5917 H 555.433 -5.72005 1.80473 0
M  V30 5918 H 557.112 -6.04695 2.30115 0
M  V30 5919 N 557.244 -0.608902 -1.45362 0
M  V30 5920 C 558.655 -0.189511 -1.85736 0
M  V30 5921 C 559.006 1.2539 -1.50903 0
M  V30 5922 O 558.131 1.95094 -0.936347 0
M  V30 5923 C 558.726 -0.33716 -3.37118 0
M  V30 5924 C 557.285 0.0275487 -3.7639 0
M  V30 5925 C 556.432 -0.660983 -2.69307 0
M  V30 5926 H 559.383 -0.815499 -1.36144 0
M  V30 5927 H 559.404 0.430257 -3.7806 0
M  V30 5928 H 558.916 -1.38779 -3.62439 0
M  V30 5929 H 557.017 1.0773 -3.56686 0
M  V30 5930 H 557.13 -0.367018 -4.77692 0
M  V30 5931 H 555.494 -0.0984958 -2.54509 0
M  V30 5932 H 556.277 -1.71377 -2.97464 0
M  V30 5933 N 558.722 1.53707 -0.348139 0
M  V30 5934 C 560.133 1.86213 0.134797 0
M  V30 5935 C 560.484 1.26925 1.49614 0
M  V30 5936 O 559.609 0.584573 2.08355 0
M  V30 5937 C 560.204 3.37866 0.251371 0
M  V30 5938 C 558.763 3.70233 0.678543 0
M  V30 5939 C 557.91 2.76683 -0.184925 0
M  V30 5940 H 560.861 1.48204 -0.567571 0
M  V30 5941 H 560.882 3.64908 1.07806 0
M  V30 5942 H 560.394 3.80988 -0.739581 0
M  V30 5943 H 558.495 3.32659 1.67835 0
M  V30 5944 H 558.608 4.76836 0.465251 0
M  V30 5945 H 556.972 2.52374 0.343465 0
M  V30 5946 H 557.755 3.22635 -1.1731 0
M  V30 5947 N 560.2 0.0768682 1.57412 0
M  V30 5948 C 561.616 -0.279772 1.57129 0
M  V30 5949 C 561.816 -1.69688 1.08666 0
M  V30 5950 O 560.872 -2.40953 0.754843 0
M  V30 5951 C 562.185 -0.0848055 3.0058 0
M  V30 5952 C 563.733 -0.153954 3.12621 0
M  V30 5953 C 564.208 0.0127946 4.57998 0
M  V30 5954 N 565.699 -0.0426435 4.6318 0
M  V30 5955 C 566.434 0.0618892 5.73367 0
M  V30 5956 N 565.93 0.220229 6.9245 0
M  V30 5957 N 567.723 0.00446072 5.621 0
M  V30 5958 H 559.874 1.00297 1.87228 0
M  V30 5959 H 562.137 0.391565 0.863354 0
M  V30 5960 H 561.843 0.89325 3.40168 0
M  V30 5961 H 561.717 -0.834961 3.67843 0
M  V30 5962 H 564.104 -1.1225 2.72917 0
M  V30 5963 H 564.185 0.627389 2.47987 0
M  V30 5964 H 563.829 0.978128 4.98392 0
M  V30 5965 H 563.759 -0.788016 5.20671 0
M  V30 5966 H 566.25 -0.163226 3.77547 0
M  V30 5967 H 566.563 0.291999 7.72248 0
M  V30 5968 H 564.908 0.255658 6.9453 0
M  V30 5969 H 568.099 -0.117979 4.67951 0
M  V30 5970 H 568.272 0.0893796 6.47938 0
M  V30 5971 N 561.678 -1.56367 -0.196722 0
M  V30 5972 C 562.588 -1.97617 -1.2643 0
M  V30 5973 C 563.604 -0.883598 -1.49895 0
M  V30 5974 O 564.78 -1.18921 -1.62541 0
M  V30 5975 C 561.845 -2.30595 -2.58895 0
M  V30 5976 C 560.906 -3.53551 -2.43516 0
M  V30 5977 C 560.139 -3.84946 -3.69665 0
M  V30 5978 O 560.362 -3.17655 -4.73763 0
M  V30 5979 O 559.296 -4.78379 -3.65291 0
M  V30 5980 H 563.122 -2.88648 -0.944233 0
M  V30 5981 H 560.707 -1.43901 -0.401592 0
M  V30 5982 H 562.589 -2.52889 -3.37083 0
M  V30 5983 H 561.264 -1.42732 -2.90533 0
M  V30 5984 H 560.171 -3.36507 -1.63445 0
M  V30 5985 H 561.504 -4.41875 -2.16812 0
M  V30 5986 N 563.156 0.464375 -1.50603 0
M  V30 5987 C 564.384 1.23907 -1.65695 0
M  V30 5988 C 564.799 1.85658 -0.343027 0
M  V30 5989 O 564.156 1.69529 0.675739 0
M  V30 5990 C 564.207 2.3429 -2.75301 0
M  V30 5991 O 563.928 1.7507 -4.01599 0
M  V30 5992 C 565.429 3.25051 -3.01424 0
M  V30 5993 H 562.649 0.374485 -0.556778 0
M  V30 5994 H 565.193 0.55353 -1.96866 0
M  V30 5995 H 563.348 2.98607 -2.46804 0
M  V30 5996 H 563.762 2.47812 -4.62266 0
M  V30 5997 H 565.236 3.98699 -3.81763 0
M  V30 5998 H 565.713 3.84227 -2.12758 0
M  V30 5999 H 566.319 2.66463 -3.31477 0
M  V30 6000 N 564.634 1.40294 0.718013 0
M  V30 6001 C 565.597 1.4012 1.81381 0
M  V30 6002 C 566.597 0.295405 1.58063 0
M  V30 6003 O 567.787 0.554187 1.6515 0
M  V30 6004 C 564.919 1.19056 3.19435 0
M  V30 6005 H 566.112 2.37645 1.82933 0
M  V30 6006 H 563.665 1.26107 0.923405 0
M  V30 6007 H 564.4 0.222809 3.23534 0
M  V30 6008 H 564.185 1.99152 3.37758 0
M  V30 6009 H 565.675 1.21716 3.99468 0
M  V30 6010 N 566.112 -0.949982 1.2575 0
M  V30 6011 C 567.359 -1.69515 1.10774 0
M  V30 6012 C 567.687 -1.91316 -0.350479 0
M  V30 6013 O 566.942 -1.48515 -1.27443 0
M  V30 6014 C 567.241 -3.08039 1.81237 0
M  V30 6015 C 566.907 -3.06023 3.31151 0
M  V30 6016 C 565.569 -3.0518 3.72047 0
M  V30 6017 C 567.921 -2.98998 4.26907 0
M  V30 6018 C 565.249 -2.95067 5.07102 0
M  V30 6019 C 567.601 -2.90426 5.61992 0
M  V30 6020 C 566.265 -2.87922 6.0221 0
M  V30 6021 H 565.535 -0.6203 0.405351 0
M  V30 6022 H 568.182 -1.10953 1.56082 0
M  V30 6023 H 566.487 -3.70172 1.28373 0
M  V30 6024 H 568.184 -3.64526 1.67098 0
M  V30 6025 H 564.774 -3.07453 2.98614 0
M  V30 6026 H 568.958 -2.98764 3.963 0
M  V30 6027 H 564.214 -2.915 5.37436 0
M  V30 6028 H 568.388 -2.83952 6.35881 0
M  V30 6029 H 566.015 -2.79841 7.06819 0
M  V30 6030 N 567.59 -1.07411 -1.15328 0
M  V30 6031 C 568.839 -0.792643 -1.85473 0
M  V30 6032 C 569.152 0.683789 -1.83259 0
M  V30 6033 O 570.358 1.08005 -2.49093 0
M  V30 6034 C 568.814 -1.36787 -3.32892 0
M  V30 6035 C 568.422 -2.87536 -3.43551 0
M  V30 6036 C 570.166 -1.16444 -4.08217 0
M  V30 6037 C 568.073 -3.38247 -4.85122 0
M  V30 6038 H 567.003 -0.292838 -0.694811 0
M  V30 6039 H 569.654 -1.29426 -1.30082 0
M  V30 6040 H 568.036 -0.793993 -3.87958 0
M  V30 6041 H 569.21 -3.50973 -2.98588 0
M  V30 6042 H 567.525 -3.06676 -2.81672 0
M  V30 6043 H 570.122 -1.51808 -5.12697 0
M  V30 6044 H 570.465 -0.10353 -4.16171 0
M  V30 6045 H 570.998 -1.70472 -3.59422 0
M  V30 6046 H 567.737 -4.43866 -4.82351 0
M  V30 6047 H 567.257 -2.79564 -5.30664 0
M  V30 6048 H 568.936 -3.34238 -5.5398 0
M  V30 6049 N 569.068 1.32177 -0.85831 0
M  V30 6050 C 569.998 2.31282 -0.321041 0
M  V30 6051 C 570.979 1.59841 0.581786 0
M  V30 6052 O 572.164 1.87619 0.501262 0
M  V30 6053 C 569.294 3.4385 0.48832 0
M  V30 6054 C 568.248 4.26799 -0.320391 0
M  V30 6055 C 567.574 5.31164 0.613934 0
M  V30 6056 C 568.874 4.98829 -1.54813 0
M  V30 6057 H 570.568 2.76469 -1.14915 0
M  V30 6058 H 568.114 1.32916 -0.554028 0
M  V30 6059 H 570.067 4.12224 0.874626 0
M  V30 6060 H 568.791 2.97401 1.34983 0
M  V30 6061 H 567.45 3.60077 -0.688497 0
M  V30 6062 H 567.098 4.80967 1.47239 0
M  V30 6063 H 566.798 5.8755 0.0768097 0
M  V30 6064 H 568.322 6.024 0.997336 0
M  V30 6065 H 569.736 5.59864 -1.23392 0
M  V30 6066 H 568.133 5.64957 -2.02346 0
M  V30 6067 H 569.203 4.26483 -2.30739 0
M  V30 6068 N 570.547 0.616602 1.45037 0
M  V30 6069 C 571.775 0.121968 2.0654 0
M  V30 6070 C 572.19 -1.19743 1.45969 0
M  V30 6071 O 571.547 -1.73133 0.577168 0
M  V30 6072 C 571.598 -0.0145171 3.61497 0
M  V30 6073 O 571.319 1.25269 4.19809 0
M  V30 6074 C 572.82 -0.539555 4.40004 0
M  V30 6075 H 570.04 0.0729837 0.667019 0
M  V30 6076 H 572.584 0.846891 1.8614 0
M  V30 6077 H 570.739 -0.689809 3.81209 0
M  V30 6078 H 571.153 1.08816 5.13088 0
M  V30 6079 H 572.627 -0.584112 5.48901 0
M  V30 6080 H 573.104 -1.56368 4.10421 0
M  V30 6081 H 573.71 0.101995 4.25178 0
M  V30 6082 N 572.025 -1.5352 0.356285 0
M  V30 6083 C 573.273 -2.00719 -0.235837 0
M  V30 6084 C 573.594 -1.24551 -1.5004 0
M  V30 6085 O 572.864 -0.356185 -1.92635 0
M  V30 6086 H 571.444 -0.741542 -0.0901366 0
M  V30 6087 H 574.106 -1.88887 0.480378 0
M  V30 6088 H 573.202 -3.08551 -0.469357 0
M  V30 6089 N 573.503 -0.0852151 -1.57369 0
M  V30 6090 C 574.733 0.588605 -1.98038 0
M  V30 6091 C 575.141 1.62869 -0.962817 0
M  V30 6092 O 574.484 1.83611 0.057134 0
M  V30 6093 C 574.546 1.30303 -3.35054 0
M  V30 6094 C 574.21 0.414855 -4.55113 0
M  V30 6095 C 575.207 -0.333011 -5.18832 0
M  V30 6096 C 572.892 0.335804 -5.01176 0
M  V30 6097 C 574.886 -1.14801 -6.26976 0
M  V30 6098 C 572.573 -0.482857 -6.09189 0
M  V30 6099 C 573.571 -1.22342 -6.71953 0
M  V30 6100 O 573.259 -2.02855 -7.77885 0
M  V30 6101 H 572.991 0.163249 -0.655992 0
M  V30 6102 H 575.545 -0.1582 -2.0479 0
M  V30 6103 H 573.775 2.0962 -3.24956 0
M  V30 6104 H 575.464 1.87041 -3.60237 0
M  V30 6105 H 576.23 -0.281611 -4.84182 0
M  V30 6106 H 572.109 0.901869 -4.52092 0
M  V30 6107 H 575.653 -1.72654 -6.75897 0
M  V30 6108 H 571.55 -0.535773 -6.43273 0
M  V30 6109 H 572.318 -1.95432 -7.94826 0
M  V30 6110 N 574.981 1.5647 0.188427 0
M  V30 6111 C 576.221 1.82803 0.914469 0
M  V30 6112 C 576.585 0.663681 1.80165 0
M  V30 6113 O 577.786 0.807059 2.56398 0
M  V30 6114 C 576.057 3.14187 1.70357 0
M  V30 6115 S 577.616 3.61947 2.48072 0
M  V30 6116 H 574.434 0.641497 0.306599 0
M  V30 6117 H 577.036 1.94694 0.177361 0
M  V30 6118 H 575.74 3.96937 1.04255 0
M  V30 6119 H 575.271 3.05192 2.48237 0
M  V30 6120 H 577.286 3.27913 3.72407 0
M  V30 6121 N 576.459 -0.456382 1.50847 0
M  V30 6122 C 577.687 -1.23026 1.66349 0
M  V30 6123 C 578.102 -1.85473 0.352868 0
M  V30 6124 O 577.459 -1.69885 -0.666739 0
M  V30 6125 C 577.51 -2.32827 2.76539 0
M  V30 6126 O 577.231 -1.72938 4.02522 0
M  V30 6127 C 578.732 -3.23448 3.03144 0
M  V30 6128 H 575.952 -0.371527 0.558756 0
M  V30 6129 H 578.496 -0.543082 1.97157 0
M  V30 6130 H 576.651 -2.97294 2.48384 0
M  V30 6131 H 577.065 -2.45357 4.63573 0
M  V30 6132 H 578.539 -3.96669 3.83872 0
M  V30 6133 H 579.016 -3.83094 2.14793 0
M  V30 6134 H 579.622 -2.64702 3.32886 0
M  V30 6135 N 577.937 -1.40673 -0.710563 0
M  V30 6136 C 579.214 -1.29718 -1.46398 0
M  V30 6137 C 579.594 0.082177 -2.1094 0
M  V30 6138 O 578.942 1.09536 -2.00534 0
M  V30 6139 C 579.152 -2.43967 -2.49562 0
M  V30 6140 C 580.5 -2.84436 -3.15248 0
M  V30 6141 O 581.524 -2.43597 -2.59883 0
M  V30 6142 O 580.383 -3.55008 -4.1549 0
M  V30 6143 H 577.477 -0.509697 -0.651258 0
M  V30 6144 H 580.023 -1.52603 -0.742312 0
M  V30 6145 H 578.795 -3.36076 -2.0042 0
M  V30 6146 H 578.418 -2.22879 -3.29258 0
M  V30 6147 N 579.415 0.9433 -1.26252 0
M  V30 6148 C 580.362 2.0417 -1.07625 0
M  V30 6149 C 581.332 1.6609 0.0180738 0
M  V30 6150 O 582.517 1.90276 -0.141289 0
M  V30 6151 C 579.657 3.37653 -0.713043 0
M  V30 6152 C 578.77 3.88783 -1.8834 0
M  V30 6153 C 577.905 5.10642 -1.4635 0
M  V30 6154 C 576.944 5.54028 -2.60229 0
M  V30 6155 N 576.081 6.67092 -2.18936 0
M  V30 6156 H 580.921 2.19436 -2.01623 0
M  V30 6157 H 578.458 1.07519 -1.00389 0
M  V30 6158 H 580.416 4.14391 -0.483358 0
M  V30 6159 H 579.046 3.22241 0.18996 0
M  V30 6160 H 578.098 3.08464 -2.22608 0
M  V30 6161 H 579.41 4.16922 -2.73821 0
M  V30 6162 H 578.564 5.94832 -1.19414 0
M  V30 6163 H 577.303 4.84244 -0.579568 0
M  V30 6164 H 576.308 4.68396 -2.87898 0
M  V30 6165 H 577.533 5.82429 -3.49219 0
M  V30 6166 H 575.479 6.42381 -1.32974 0
M  V30 6167 H 575.396 6.94806 -2.97961 0
M  V30 6168 H 576.664 7.54662 -1.95206 0
M  V30 6169 N 580.893 1.08022 1.14757 0
M  V30 6170 C 582.133 0.816959 1.87364 0
M  V30 6171 C 582.497 -0.645407 1.80827 0
M  V30 6172 O 583.698 -1.024 2.48531 0
M  V30 6173 C 581.969 1.31961 3.32146 0
M  V30 6174 S 583.528 1.18806 4.2241 0
M  V30 6175 H 580.346 0.295862 0.646519 0
M  V30 6176 H 582.948 1.3807 1.38408 0
M  V30 6177 H 581.652 2.37847 3.3445 0
M  V30 6178 H 581.183 0.751371 3.86158 0
M  V30 6179 H 583.198 0.129865 4.9603 0
M  V30 6180 N 582.371 -1.3172 0.865308 0
M  V30 6181 C 583.599 -2.01057 0.488251 0
M  V30 6182 C 584.014 -1.64979 -0.918 0
M  V30 6183 O 583.371 -0.876597 -1.60069 0
M  V30 6184 C 583.422 -3.55964 0.630224 0
M  V30 6185 O 583.143 -3.90749 1.98109 0
M  V30 6186 C 584.644 -4.42574 0.253567 0
M  V30 6187 H 581.864 -0.64332 0.190736 0
M  V30 6188 H 584.408 -1.68058 1.16519 0
M  V30 6189 H 582.563 -3.874 0.000895422 0
M  V30 6190 H 582.977 -4.85467 1.9855 0
M  V30 6191 H 584.451 -5.50521 0.403875 0
M  V30 6192 H 584.928 -4.31724 -0.806895 0
M  V30 6193 H 585.534 -4.16547 0.858404 0
M  V30 6194 N 583.85 -0.624285 -1.44708 0
M  V30 6195 C 584.782 0.12305 -2.28869 0
M  V30 6196 C 585.795 0.81557 -1.40898 0
M  V30 6197 O 586.984 0.678162 -1.65116 0
M  V30 6198 C 584.084 1.19612 -3.1709 0
M  V30 6199 C 583.257 0.587452 -4.33437 0
M  V30 6200 C 582.316 1.55358 -5.02743 0
M  V30 6201 O 581.341 1.07338 -5.58988 0
M  V30 6202 N 582.543 2.88798 -5.03563 0
M  V30 6203 H 585.308 -0.599193 -2.93649 0
M  V30 6204 H 582.87 -0.464954 -1.5508 0
M  V30 6205 H 584.861 1.84261 -3.60319 0
M  V30 6206 H 583.432 1.82067 -2.54107 0
M  V30 6207 H 582.652 -0.237509 -3.93484 0
M  V30 6208 H 583.94 0.161326 -5.08544 0
M  V30 6209 H 583.338 3.30399 -4.59188 0
M  V30 6210 H 581.894 3.48826 -5.50603 0
M  V30 6211 N 585.328 1.53329 -0.364422 0
M  V30 6212 C 586.258 2.28627 0.474543 0
M  V30 6213 C 587.239 1.31009 1.08492 0
M  V30 6214 O 588.424 1.59878 1.10239 0
M  V30 6215 C 585.554 3.07465 1.61501 0
M  V30 6216 C 584.508 4.1276 1.13194 0
M  V30 6217 C 583.834 4.79674 2.36255 0
M  V30 6218 C 585.134 5.21847 0.217507 0
M  V30 6219 H 586.828 2.99005 -0.153656 0
M  V30 6220 H 584.374 1.43803 -0.0753406 0
M  V30 6221 H 586.327 3.58889 2.20855 0
M  V30 6222 H 585.051 2.34775 2.27042 0
M  V30 6223 H 583.71 3.62281 0.56109 0
M  V30 6224 H 583.358 4.03557 3.00251 0
M  V30 6225 H 583.058 5.50827 2.04606 0
M  V30 6226 H 584.582 5.33892 2.96297 0
M  V30 6227 H 585.996 5.6878 0.718493 0
M  V30 6228 H 584.393 6.00099 -0.00806408 0
M  V30 6229 H 585.463 4.7921 -0.740653 0
M  V30 6230 N 586.806 0.0935595 1.57322 0
M  V30 6231 C 587.769 -0.851426 2.12799 0
M  V30 6232 C 588.769 -1.21187 1.0569 0
M  V30 6233 O 589.959 -1.14156 1.31583 0
M  V30 6234 C 587.091 -2.14779 2.64731 0
M  V30 6235 H 588.284 -0.369733 2.97612 0
M  V30 6236 H 585.837 -0.155417 1.55525 0
M  V30 6237 H 586.572 -2.67437 1.83434 0
M  V30 6238 H 586.357 -1.89907 3.43042 0
M  V30 6239 H 587.847 -2.82383 3.07651 0
M  V30 6240 N 588.284 -1.56567 -0.180126 0
M  V30 6241 C 589.214 -1.98753 -1.22553 0
M  V30 6242 C 590.195 -0.86175 -1.46656 0
M  V30 6243 O 591.38 -1.12719 -1.58139 0
M  V30 6244 C 588.51 -2.33988 -2.56645 0
M  V30 6245 C 587.464 -3.49445 -2.47128 0
M  V30 6246 C 586.79 -3.70397 -3.8563 0
M  V30 6247 C 588.09 -4.83171 -1.98352 0
M  V30 6248 H 589.784 -2.86332 -0.874896 0
M  V30 6249 H 587.33 -1.37757 -0.419414 0
M  V30 6250 H 589.283 -2.62097 -3.29974 0
M  V30 6251 H 588.007 -1.43309 -2.93479 0
M  V30 6252 H 586.666 -3.2145 -1.76254 0
M  V30 6253 H 586.314 -2.77023 -4.19842 0
M  V30 6254 H 586.014 -4.48077 -3.80132 0
M  V30 6255 H 587.538 -4.00897 -4.60558 0
M  V30 6256 H 588.952 -5.10213 -2.61449 0
M  V30 6257 H 587.349 -5.64425 -2.03823 0
M  V30 6258 H 588.419 -4.75753 -0.937402 0
M  V30 6259 N 589.762 0.448376 -1.51087 0
M  V30 6260 C 591.173 1.0286 -1.5581 0
M  V30 6261 C 591.524 1.92583 -0.374989 0
M  V30 6262 O 590.649 2.10316 0.509533 0
M  V30 6263 C 591.244 1.87223 -2.8237 0
M  V30 6264 C 589.803 2.40314 -2.897 0
M  V30 6265 C 588.95 1.19238 -2.50355 0
M  V30 6266 H 591.901 0.230075 -1.57023 0
M  V30 6267 H 591.922 2.72553 -2.6551 0
M  V30 6268 H 591.434 1.21894 -3.68461 0
M  V30 6269 H 589.535 3.09129 -2.08014 0
M  V30 6270 H 589.648 2.73866 -3.93108 0
M  V30 6271 H 588.012 1.53428 -2.03303 0
M  V30 6272 H 588.795 0.555367 -3.38778 0
M  V30 6273 N 591.24 1.41047 0.703093 0
M  V30 6274 C 592.651 1.35657 1.28274 0
M  V30 6275 C 593.002 0.0360309 1.96167 0
M  V30 6276 O 592.127 -0.865833 1.98324 0
M  V30 6277 C 592.722 2.45707 2.33267 0
M  V30 6278 C 591.281 2.43738 2.86825 0
M  V30 6279 C 590.428 2.25941 1.60767 0
M  V30 6280 H 593.379 1.50672 0.49836 0
M  V30 6281 H 593.4 2.14333 3.14391 0
M  V30 6282 H 592.912 3.41805 1.83824 0
M  V30 6283 H 591.013 1.51375 3.40465 0
M  V30 6284 H 591.126 3.39779 3.37768 0
M  V30 6285 H 589.49 1.73681 1.86298 0
M  V30 6286 H 590.273 3.24054 1.1333 0
M  V30 6287 N 592.718 -0.936591 1.26751 0
M  V30 6288 C 593.943 -1.72288 1.15462 0
M  V30 6289 C 594.368 -1.85915 -0.285887 0
M  V30 6290 O 593.726 -1.35272 -1.20711 0
M  V30 6291 C 593.774 -3.10503 1.83359 0
M  V30 6292 O 592.878 -3.96745 1.1255 0
M  V30 6293 H 592.219 -0.52843 0.402067 0
M  V30 6294 H 594.749 -1.17271 1.67656 0
M  V30 6295 H 594.759 -3.60867 1.90365 0
M  V30 6296 H 593.434 -2.99901 2.88153 0
M  V30 6297 H 592.011 -3.55191 1.13551 0
M  V30 6298 N 594.196 -1.08629 -1.14182 0
M  V30 6299 C 595.444 -0.815731 -1.84906 0
M  V30 6300 C 595.765 0.660441 -1.83475 0
M  V30 6301 O 595.035 1.47888 -1.28476 0
M  V30 6302 H 593.615 -0.298773 -0.684648 0
M  V30 6303 H 596.277 -1.37274 -1.38354 0
M  V30 6304 H 595.373 -1.16193 -2.89665 0
M  V30 6305 N 595.674 1.31259 -0.872281 0
M  V30 6306 C 596.923 1.95893 -0.480493 0
M  V30 6307 C 597.236 1.697 0.972688 0
M  V30 6308 O 598.442 2.28214 1.47073 0
M  V30 6309 C 596.898 3.50705 -0.808342 0
M  V30 6310 C 596.506 3.85735 -2.27844 0
M  V30 6311 C 598.25 4.21719 -0.485136 0
M  V30 6312 C 596.157 5.33668 -2.54858 0
M  V30 6313 H 595.087 0.733182 -0.175955 0
M  V30 6314 H 597.738 1.49396 -1.0655 0
M  V30 6315 H 596.12 3.95706 -0.152558 0
M  V30 6316 H 597.294 3.51686 -2.97748 0
M  V30 6317 H 595.609 3.27792 -2.56791 0
M  V30 6318 H 598.206 5.30559 -0.664166 0
M  V30 6319 H 598.549 4.12316 0.574592 0
M  V30 6320 H 599.082 3.82359 -1.09756 0
M  V30 6321 H 595.821 5.48109 -3.59523 0
M  V30 6322 H 595.341 5.69061 -1.8955 0
M  V30 6323 H 597.02 6.00958 -2.39706 0
M  V30 6324 N 597.152 0.631951 1.44375 0
M  V30 6325 C 598.102 -0.0943862 2.27805 0
M  V30 6326 C 599.086 -0.815359 1.38711 0
M  V30 6327 O 600.278 -0.701331 1.62513 0
M  V30 6328 C 597.407 -1.07472 3.26044 0
M  V30 6329 C 596.493 -0.353329 4.22626 0
M  V30 6330 N 596.884 0.618512 5.02004 0
M  V30 6331 C 595.182 -0.597662 4.41977 0
M  V30 6332 C 595.883 1.0448 5.7224 0
M  V30 6333 N 594.859 0.383413 5.42246 0
M  V30 6334 H 598.661 0.651672 2.86584 0
M  V30 6335 H 596.175 0.45752 1.55822 0
M  V30 6336 H 598.172 -1.60969 3.84571 0
M  V30 6337 H 596.832 -1.82107 2.68825 0
M  V30 6338 H 597.843 0.996356 5.08226 0
M  V30 6339 H 594.52 -1.32682 3.95856 0
M  V30 6340 H 595.91 1.84773 6.45994 0
M  V30 6341 N 598.631 -1.53133 0.372548 0
M  V30 6342 C 599.88 -2.00539 -0.216115 0
M  V30 6343 C 600.193 -1.26374 -1.49295 0
M  V30 6344 O 601.399 -1.64404 -2.16064 0
M  V30 6345 C 599.855 -3.57253 -0.435678 0
M  V30 6346 C 599.463 -4.40302 0.82693 0
M  V30 6347 C 601.207 -4.12995 -0.981618 0
M  V30 6348 C 599.114 -5.88583 0.576567 0
M  V30 6349 H 598.044 -0.749246 -0.084536 0
M  V30 6350 H 600.695 -1.76771 0.492364 0
M  V30 6351 H 599.077 -3.77202 -1.20559 0
M  V30 6352 H 600.251 -4.32124 1.60017 0
M  V30 6353 H 598.566 -3.95699 1.29659 0
M  V30 6354 H 601.163 -5.21418 -1.18436 0
M  V30 6355 H 601.506 -3.68027 -1.94581 0
M  V30 6356 H 602.039 -3.96871 -0.271696 0
M  V30 6357 H 598.778 -6.37841 1.51128 0
M  V30 6358 H 598.298 -5.99592 -0.158047 0
M  V30 6359 H 599.977 -6.46676 0.204722 0
M  V30 6360 N 600.109 -0.101901 -1.5727 0
M  V30 6361 C 601.356 0.560197 -1.94597 0
M  V30 6362 C 601.684 1.67767 -0.984101 0
M  V30 6363 O 600.939 1.95699 -0.00489193 0
M  V30 6364 C 601.238 1.14898 -3.38427 0
M  V30 6365 C 600.904 0.154613 -4.50635 0
M  V30 6366 C 599.566 -0.118861 -4.81053 0
M  V30 6367 C 601.918 -0.523979 -5.18559 0
M  V30 6368 C 599.246 -1.0775 -5.76721 0
M  V30 6369 C 601.598 -1.47114 -6.15256 0
M  V30 6370 C 600.262 -1.75278 -6.44076 0
M  V30 6371 H 599.532 0.204991 -0.712081 0
M  V30 6372 H 602.179 -0.17918 -1.9066 0
M  V30 6373 H 600.484 1.96476 -3.38976 0
M  V30 6374 H 602.181 1.66909 -3.64613 0
M  V30 6375 H 598.771 0.377948 -4.2693 0
M  V30 6376 H 602.955 -0.325851 -4.95229 0
M  V30 6377 H 598.211 -1.30263 -5.97362 0
M  V30 6378 H 602.385 -2.00274 -6.66981 0
M  V30 6379 H 600.012 -2.49717 -7.18015 0
M  V30 6380 N 601.587 1.56661 0.17182 0
M  V30 6381 C 602.55 1.9549 1.19651 0
M  V30 6382 C 603.55 0.838501 1.37207 0
M  V30 6383 O 604.74 1.10556 1.34622 0
M  V30 6384 C 601.872 2.24927 2.56166 0
M  V30 6385 H 603.065 2.87184 0.864007 0
M  V30 6386 H 600.618 1.50711 0.41425 0
M  V30 6387 H 601.353 1.35944 2.94431 0
M  V30 6388 H 601.138 3.06301 2.4479 0
M  V30 6389 H 602.628 2.55891 3.30014 0
M  V30 6390 N 603.065 -0.440357 1.51323 0
M  V30 6391 C 604.29 -1.21716 1.67928 0
M  V30 6392 C 604.715 -1.84328 0.374826 0
M  V30 6393 O 604.073 -1.68675 -0.664706 0
M  V30 6394 C 604.121 -2.27914 2.79442 0
M  V30 6395 O 603.225 -3.33325 2.42834 0
M  V30 6396 H 602.566 -0.35674 0.560029 0
M  V30 6397 H 605.096 -0.520417 1.97871 0
M  V30 6398 H 605.106 -2.72746 3.03436 0
M  V30 6399 H 603.781 -1.8172 3.741 0
M  V30 6400 H 602.358 -2.9399 2.294 0
M  V30 6401 N 604.543 -1.41418 -0.695603 0
M  V30 6402 C 605.475 -1.39195 -1.82092 0
M  V30 6403 C 606.488 -0.294132 -1.60121 0
M  V30 6404 O 607.677 -0.555854 -1.69625 0
M  V30 6405 C 604.777 -1.14828 -3.18854 0
M  V30 6406 C 603.95 -2.36649 -3.67853 0
M  V30 6407 C 603.009 -2.08139 -4.83285 0
M  V30 6408 O 602.035 -2.81177 -4.94902 0
M  V30 6409 N 603.237 -1.07162 -5.70523 0
M  V30 6410 H 606.002 -2.36185 -1.84491 0
M  V30 6411 H 603.563 -1.3603 -0.877923 0
M  V30 6412 H 605.555 -0.937075 -3.93702 0
M  V30 6413 H 604.125 -0.264358 -3.1148 0
M  V30 6414 H 603.345 -2.73472 -2.83913 0
M  V30 6415 H 604.633 -3.17816 -3.97329 0
M  V30 6416 H 604.031 -0.467124 -5.63768 0
M  V30 6417 H 602.588 -0.920311 -6.4527 0
M  V30 6418 N 606.021 0.929856 -1.27246 0
M  V30 6419 C 606.951 2.04722 -1.12299 0
M  V30 6420 C 607.932 1.70082 -0.0250464 0
M  V30 6421 O 609.117 1.93176 -0.199141 0
M  V30 6422 C 606.247 3.38721 -0.767145 0
M  V30 6423 C 605.201 3.87466 -1.81808 0
M  V30 6424 C 604.527 5.18246 -1.31626 0
M  V30 6425 C 605.827 4.11095 -3.22177 0
M  V30 6426 H 607.521 2.17485 -2.05769 0
M  V30 6427 H 605.067 1.04503 -0.990715 0
M  V30 6428 H 607.02 4.16366 -0.649413 0
M  V30 6429 H 605.744 3.25967 0.203259 0
M  V30 6430 H 604.403 3.12012 -1.92468 0
M  V30 6431 H 604.051 5.01881 -0.335378 0
M  V30 6432 H 603.751 5.51829 -2.01887 0
M  V30 6433 H 605.275 5.98462 -1.21143 0
M  V30 6434 H 606.689 4.79316 -3.1453 0
M  V30 6435 H 605.086 4.55982 -3.90129 0
M  V30 6436 H 606.156 3.16468 -3.67391 0
M  V30 6437 N 607.499 1.09233 1.13605 0
M  V30 6438 C 608.449 0.6994 2.17008 0
M  V30 6439 C 609.433 -0.285238 1.58352 0
M  V30 6440 O 610.625 -0.09592 1.7674 0
M  V30 6441 C 607.754 0.11938 3.43092 0
M  V30 6442 C 606.84 1.13031 4.0876 0
M  V30 6443 N 607.231 2.31673 4.49623 0
M  V30 6444 C 605.529 0.967999 4.35369 0
M  V30 6445 C 606.23 2.95964 5.00779 0
M  V30 6446 N 605.206 2.23534 4.95513 0
M  V30 6447 H 609.008 1.60272 2.46354 0
M  V30 6448 H 606.522 0.968257 1.30378 0
M  V30 6449 H 608.519 -0.180122 4.16511 0
M  V30 6450 H 607.179 -0.778816 3.15221 0
M  V30 6451 H 608.19 2.69277 4.42391 0
M  V30 6452 H 604.867 0.124319 4.17315 0
M  V30 6453 H 606.257 3.96813 5.42208 0
M  V30 6454 N 608.977 -1.30795 0.87923 0
M  V30 6455 C 610.205 -2.00527 0.509548 0
M  V30 6456 C 610.62 -1.65944 -0.90045 0
M  V30 6457 O 609.977 -0.893525 -1.5913 0
M  V30 6458 C 610.028 -3.55276 0.667943 0
M  V30 6459 O 609.749 -3.88625 2.02242 0
M  V30 6460 C 611.25 -4.4228 0.300494 0
M  V30 6461 H 608.47 -0.641261 0.197549 0
M  V30 6462 H 611.014 -1.66813 1.18295 0
M  V30 6463 H 609.169 -3.87377 0.0419843 0
M  V30 6464 H 609.583 -4.83334 2.03688 0
M  V30 6465 H 611.057 -5.50061 0.462242 0
M  V30 6466 H 611.534 -4.32556 -0.76106 0
M  V30 6467 H 612.14 -4.15613 0.902536 0
M  V30 6468 N 610.455 -0.639598 -1.44038 0
M  V30 6469 C 611.405 0.0823038 -2.27851 0
M  V30 6470 C 612.389 0.807991 -1.39141 0
M  V30 6471 O 613.581 0.692702 -1.62882 0
M  V30 6472 C 610.71 1.05742 -3.26609 0
M  V30 6473 C 609.796 0.330911 -4.22807 0
M  V30 6474 N 610.187 -0.645126 -5.01669 0
M  V30 6475 C 608.485 0.574214 -4.42288 0
M  V30 6476 C 609.186 -1.07513 -5.71678 0
M  V30 6477 N 608.162 -0.412164 -5.42035 0
M  V30 6478 H 611.964 -0.666861 -2.86234 0
M  V30 6479 H 609.478 -0.465777 -1.55577 0
M  V30 6480 H 611.475 1.58927 -3.85419 0
M  V30 6481 H 610.135 1.80679 -2.69787 0
M  V30 6482 H 611.146 -1.02329 -5.0769 0
M  V30 6483 H 607.823 1.30581 -3.96554 0
M  V30 6484 H 609.213 -1.88196 -6.45005 0
M  V30 6485 N 611.933 1.52934 -0.380664 0
M  V30 6486 C 612.863 2.29118 0.450268 0
M  V30 6487 C 613.844 1.32153 1.07096 0
M  V30 6488 O 615.029 1.61038 1.08537 0
M  V30 6489 C 612.159 3.09161 1.58231 0
M  V30 6490 C 611.113 4.13938 1.0881 0
M  V30 6491 C 610.439 4.82153 2.31155 0
M  V30 6492 C 611.739 5.22048 0.162146 0
M  V30 6493 H 613.433 2.98826 -0.185361 0
M  V30 6494 H 610.979 1.43715 -0.0905886 0
M  V30 6495 H 612.932 3.61211 2.17036 0
M  V30 6496 H 611.656 2.3717 2.2454 0
M  V30 6497 H 610.315 3.62855 0.522633 0
M  V30 6498 H 609.963 4.06719 2.95953 0
M  V30 6499 H 609.663 5.52966 1.98752 0
M  V30 6500 H 611.187 5.37004 2.90618 0
M  V30 6501 H 612.601 5.6951 0.658126 0
M  V30 6502 H 610.998 6.00057 -0.0717122 0
M  V30 6503 H 612.068 4.78398 -0.791438 0
M  V30 6504 N 613.412 0.11024 1.57214 0
M  V30 6505 C 614.64 -0.557834 1.99238 0
M  V30 6506 C 615.055 -1.60778 0.989734 0
M  V30 6507 O 614.412 -1.82491 -0.0186092 0
M  V30 6508 C 614.463 -1.19189 3.41286 0
M  V30 6509 O 614.184 -0.183919 4.37714 0
M  V30 6510 C 615.685 -1.94413 3.98395 0
M  V30 6511 H 612.905 -0.148392 0.654386 0
M  V30 6512 H 615.449 0.193996 2.03578 0
M  V30 6513 H 613.604 -1.89456 3.37913 0
M  V30 6514 H 614.018 -0.643475 5.20538 0
M  V30 6515 H 615.492 -2.34116 4.99894 0
M  V30 6516 H 615.969 -2.81592 3.3705 0
M  V30 6517 H 616.575 -1.28928 4.05287 0
M  V30 6518 N 614.89 -1.56749 -0.16351 0
M  V30 6519 C 616.138 -1.82074 -0.87713 0
M  V30 6520 C 616.459 -0.688503 -1.82441 0
M  V30 6521 O 615.729 0.291085 -1.93725 0
M  V30 6522 H 614.309 -0.671677 -0.326893 0
M  V30 6523 H 616.971 -1.9423 -0.161459 0
M  V30 6524 H 616.067 -2.76407 -1.44934 0
M  V30 6525 N 616.368 0.432326 -1.51554 0
M  V30 6526 C 617.784 0.769195 -1.39841 0
M  V30 6527 C 617.984 1.95584 -0.484675 0
M  V30 6528 O 617.04 2.52433 0.0582829 0
M  V30 6529 C 618.353 1.04487 -2.81963 0
M  V30 6530 C 619.901 1.149 -2.91148 0
M  V30 6531 C 620.376 1.45758 -4.34187 0
M  V30 6532 N 621.867 1.52671 -4.37317 0
M  V30 6533 C 622.602 1.78129 -5.4503 0
M  V30 6534 N 622.098 2.01345 -6.62897 0
M  V30 6535 N 623.891 1.79953 -5.32516 0
M  V30 6536 H 616.042 -0.349122 -2.09511 0
M  V30 6537 H 618.305 -0.0938113 -0.943347 0
M  V30 6538 H 618.011 0.24557 -3.50842 0
M  V30 6539 H 617.885 1.97119 -3.21596 0
M  V30 6540 H 620.272 1.93891 -2.22464 0
M  V30 6541 H 620.353 0.201568 -2.55005 0
M  V30 6542 H 619.997 0.672917 -5.03423 0
M  V30 6543 H 619.927 2.41715 -4.67848 0
M  V30 6544 H 622.418 1.36612 -3.52343 0
M  V30 6545 H 622.731 2.20155 -7.40778 0
M  V30 6546 H 621.076 1.98657 -6.66003 0
M  V30 6547 H 624.267 1.61337 -4.39418 0
M  V30 6548 H 624.44 1.99455 -6.1654 0
M  V30 6549 N 617.846 1.41785 0.688094 0
M  V30 6550 C 618.793 1.44221 1.80191 0
M  V30 6551 C 619.763 0.295688 1.63447 0
M  V30 6552 O 620.948 0.49783 1.84191 0
M  V30 6553 C 618.088 1.33743 3.1813 0
M  V30 6554 C 617.201 2.58325 3.46254 0
M  V30 6555 C 616.336 2.40086 4.73848 0
M  V30 6556 C 615.375 3.60107 4.94964 0
M  V30 6557 N 614.512 3.40892 6.13789 0
M  V30 6558 H 619.352 2.39411 1.77444 0
M  V30 6559 H 616.889 1.18876 0.866423 0
M  V30 6560 H 618.847 1.25669 3.97823 0
M  V30 6561 H 617.477 0.42157 3.20035 0
M  V30 6562 H 616.529 2.7682 2.60912 0
M  V30 6563 H 617.841 3.4758 3.57756 0
M  V30 6564 H 616.995 2.29522 5.61609 0
M  V30 6565 H 615.734 1.483 4.64606 0
M  V30 6566 H 614.739 3.71118 4.05649 0
M  V30 6567 H 615.964 4.52857 5.06061 0
M  V30 6568 H 613.91 2.51812 6.05745 0
M  V30 6569 H 613.827 4.23727 6.26092 0
M  V30 6570 H 615.095 3.34114 7.04264 0
M  V30 6571 N 619.324 -0.923095 1.27737 0
M  V30 6572 C 620.57 -1.67375 1.14514 0
M  V30 6573 C 620.903 -1.91751 -0.307424 0
M  V30 6574 O 620.178 -1.51119 -1.22447 0
M  V30 6575 C 620.461 -3.03745 1.9342 0
M  V30 6576 C 620.314 -2.86581 3.46686 0
M  V30 6577 C 621.633 -4.04144 1.74228 0
M  V30 6578 H 618.752 -0.607427 0.417374 0
M  V30 6579 H 621.394 -1.07089 1.56946 0
M  V30 6580 H 619.544 -3.55204 1.5736 0
M  V30 6581 H 621.216 -2.42203 3.92601 0
M  V30 6582 H 619.459 -2.21829 3.72793 0
M  V30 6583 H 620.13 -3.83381 3.97143 0
M  V30 6584 H 622.606 -3.61712 2.05678 0
M  V30 6585 H 621.482 -4.97543 2.31824 0
M  V30 6586 H 621.743 -4.36661 0.691373 0
M  V30 6587 N 620.802 -1.09834 -1.13024 0
M  V30 6588 C 622.048 -0.83819 -1.84668 0
M  V30 6589 C 622.381 0.634645 -1.83537 0
M  V30 6590 O 621.656 1.46753 -1.27647 0
M  V30 6591 C 621.939 -1.37933 -3.32636 0
M  V30 6592 C 621.792 -2.91857 -3.42257 0
M  V30 6593 C 623.111 -1.01654 -4.28199 0
M  V30 6594 H 620.23 -0.30595 -0.670495 0
M  V30 6595 H 622.872 -1.36044 -1.32635 0
M  V30 6596 H 621.022 -0.935111 -3.77078 0
M  V30 6597 H 622.694 -3.44759 -3.06495 0
M  V30 6598 H 620.937 -3.28776 -2.83 0
M  V30 6599 H 621.608 -3.24799 -4.46329 0
M  V30 6600 H 624.084 -1.39973 -3.9185 0
M  V30 6601 H 622.96 -1.42217 -5.30156 0
M  V30 6602 H 623.221 0.0747794 -4.42037 0
M  V30 6603 N 622.28 1.30327 -0.886154 0
M  V30 6604 C 623.508 2.00254 -0.520176 0
M  V30 6605 C 623.923 1.66419 0.891637 0
M  V30 6606 O 623.28 0.901951 1.58654 0
M  V30 6607 C 623.331 3.54916 -0.686775 0
M  V30 6608 O 623.052 3.87547 -2.04301 0
M  V30 6609 C 624.553 4.42115 -0.323945 0
M  V30 6610 H 621.773 0.640204 -0.200947 0
M  V30 6611 H 624.317 1.66183 -1.19178 0
M  V30 6612 H 622.472 3.8735 -0.0625273 0
M  V30 6613 H 622.886 4.82247 -2.06249 0
M  V30 6614 H 624.36 5.49808 -0.491407 0
M  V30 6615 H 624.837 4.32953 0.73811 0
M  V30 6616 H 625.443 4.15129 -0.924565 0
M  V30 6617 N 623.758 0.647228 1.43697 0
M  V30 6618 C 625.004 0.158422 2.0218 0
M  V30 6619 C 625.337 -1.22233 1.50907 0
M  V30 6620 O 624.612 -1.81478 0.699702 0
M  V30 6621 C 624.895 0.1627 3.59732 0
M  V30 6622 C 624.748 1.57694 4.21251 0
M  V30 6623 C 626.067 -0.504138 4.37203 0
M  V30 6624 H 623.186 0.059042 0.734631 0
M  V30 6625 H 625.828 0.826772 1.71069 0
M  V30 6626 H 623.978 -0.406414 3.86368 0
M  V30 6627 H 625.65 2.19618 4.05667 0
M  V30 6628 H 623.893 2.12603 3.7813 0
M  V30 6629 H 624.564 1.53183 5.3032 0
M  V30 6630 H 627.04 -0.0199841 4.16095 0
M  V30 6631 H 625.916 -0.470394 5.46881 0
M  V30 6632 H 626.177 -1.57726 4.13007 0
M  V30 6633 N 625.236 -1.5273 0.388769 0
M  V30 6634 C 626.166 -2.29353 -0.438111 0
M  V30 6635 C 627.147 -1.32719 -1.06394 0
M  V30 6636 O 628.332 -1.61612 -1.07681 0
M  V30 6637 C 625.462 -3.09995 -1.56589 0
M  V30 6638 C 624.416 -4.14509 -1.06613 0
M  V30 6639 C 623.742 -4.83372 -2.28594 0
M  V30 6640 C 625.042 -5.22127 -0.134459 0
M  V30 6641 H 626.736 -2.98723 0.201206 0
M  V30 6642 H 624.282 -1.43665 0.0982089 0
M  V30 6643 H 626.235 -3.62357 -2.15118 0
M  V30 6644 H 624.959 -2.38357 -2.23279 0
M  V30 6645 H 623.618 -3.63128 -0.503383 0
M  V30 6646 H 623.266 -4.08283 -2.93792 0
M  V30 6647 H 622.966 -5.54012 -1.95817 0
M  V30 6648 H 624.49 -5.38538 -2.87766 0
M  V30 6649 H 625.904 -5.69851 -0.627914 0
M  V30 6650 H 624.301 -6.00011 0.103534 0
M  V30 6651 H 625.371 -4.77971 0.816798 0
M  V30 6652 N 626.714 -0.118576 -1.57153 0
M  V30 6653 C 627.96 0.540326 -1.95469 0
M  V30 6654 C 628.293 1.66356 -1.00196 0
M  V30 6655 O 627.568 1.94461 -0.039104 0
M  V30 6656 C 627.851 1.07342 -3.43729 0
M  V30 6657 C 627.704 -0.0463732 -4.49776 0
M  V30 6658 C 629.023 1.96442 -3.93826 0
M  V30 6659 H 626.142 0.19494 -0.710751 0
M  V30 6660 H 628.784 -0.19405 -1.89006 0
M  V30 6661 H 626.934 1.69925 -3.49368 0
M  V30 6662 H 628.606 -0.681648 -4.56236 0
M  V30 6663 H 626.849 -0.709574 -4.27957 0
M  V30 6664 H 627.52 0.367856 -5.50773 0
M  V30 6665 H 629.996 1.43731 -3.90488 0
M  V30 6666 H 628.872 2.3066 -4.98084 0
M  V30 6667 H 629.133 2.89077 -3.34495 0
M  V30 6668 N 628.193 1.56834 0.155195 0
M  V30 6669 C 629.609 1.51315 0.50755 0
M  V30 6670 C 629.809 0.825614 1.83809 0
M  V30 6671 O 628.865 0.39271 2.49427 0
M  V30 6672 C 630.178 2.96074 0.52542 0
M  V30 6673 C 631.726 3.06968 0.611505 0
M  V30 6674 C 632.201 4.53218 0.660115 0
M  V30 6675 N 633.692 4.5753 0.722564 0
M  V30 6676 C 634.427 5.68056 0.781023 0
M  V30 6677 N 633.923 6.88173 0.799327 0
M  V30 6678 N 635.716 5.56068 0.821278 0
M  V30 6679 H 627.867 1.9993 -0.717063 0
M  V30 6680 H 630.13 0.911507 -0.260496 0
M  V30 6681 H 629.836 3.49599 -0.383875 0
M  V30 6682 H 629.71 3.51587 1.36624 0
M  V30 6683 H 632.097 2.53468 1.51122 0
M  V30 6684 H 632.178 2.54513 -0.256306 0
M  V30 6685 H 631.822 5.07354 -0.23541 0
M  V30 6686 H 631.752 5.03447 1.5443 0
M  V30 6687 H 634.243 3.71054 0.716049 0
M  V30 6688 H 634.556 7.6816 0.845553 0
M  V30 6689 H 632.901 6.90751 0.767337 0
M  V30 6690 H 636.092 4.61142 0.804091 0
M  V30 6691 H 636.265 6.42223 0.863372 0
M  V30 6692 N 629.671 -0.424282 1.51781 0
M  V30 6693 C 630.948 -1.18464 1.55646 0
M  V30 6694 C 631.328 -2.08529 0.328438 0
M  V30 6695 O 630.676 -2.17969 -0.685693 0
M  V30 6696 C 630.886 -1.97514 2.87731 0
M  V30 6697 C 632.234 -2.54106 3.40169 0
M  V30 6698 O 633.258 -2.07711 2.89369 0
M  V30 6699 O 632.117 -3.38759 4.28841 0
M  V30 6700 H 629.211 -0.540055 0.626314 0
M  V30 6701 H 631.757 -0.432291 1.64102 0
M  V30 6702 H 630.529 -1.31444 3.68562 0
M  V30 6703 H 630.152 -2.79787 2.82498 0
M  V30 6704 N 631.149 -1.42148 -0.680565 0
M  V30 6705 C 632.397 -1.42029 -1.43779 0
M  V30 6706 C 632.718 -0.0356347 -1.94967 0
M  V30 6707 O 631.988 0.924936 -1.7269 0
M  V30 6708 H 630.568 -0.522835 -0.533529 0
M  V30 6709 H 633.23 -1.7752 -0.804538 0
M  V30 6710 H 632.326 -2.11658 -2.29363 0
M  V30 6711 N 632.627 0.916307 -1.28225 0
M  V30 6712 C 634.043 1.19425 -1.05876 0
M  V30 6713 C 634.243 2.005 0.2005 0
M  V30 6714 O 633.299 2.35806 0.902873 0
M  V30 6715 C 634.612 1.93133 -2.30478 0
M  V30 6716 C 636.16 2.06026 -2.35632 0
M  V30 6717 C 636.635 2.83141 -3.59994 0
M  V30 6718 N 638.126 2.90704 -3.60618 0
M  V30 6719 C 638.861 3.50865 -4.53521 0
M  V30 6720 N 638.357 4.12327 -5.56739 0
M  V30 6721 N 640.15 3.48379 -4.41122 0
M  V30 6722 H 632.301 0.37496 -2.09064 0
M  V30 6723 H 634.564 0.228531 -0.920042 0
M  V30 6724 H 634.27 1.40985 -3.22205 0
M  V30 6725 H 634.144 2.93696 -2.36691 0
M  V30 6726 H 636.531 2.57355 -1.44404 0
M  V30 6727 H 636.612 1.04647 -2.33415 0
M  V30 6728 H 636.256 2.32492 -4.51564 0
M  V30 6729 H 636.186 3.84829 -3.59464 0
M  V30 6730 H 638.677 2.47034 -2.85977 0
M  V30 6731 H 638.99 4.56205 -6.23776 0
M  V30 6732 H 637.335 4.10839 -5.60568 0
M  V30 6733 H 640.526 2.99572 -3.59686 0
M  V30 6734 H 640.699 3.94974 -5.13712 0
M  V30 6735 N 634.105 1.10431 1.1244 0
M  V30 6736 C 635.015 0.765502 2.21759 0
M  V30 6737 C 636.031 -0.236966 1.72379 0
M  V30 6738 O 637.207 -0.0757329 2.01258 0
M  V30 6739 C 634.272 0.202316 3.46109 0
M  V30 6740 C 633.333 1.26205 4.1033 0
M  V30 6741 C 632.566 0.725648 5.28744 0
M  V30 6742 O 632.789 -0.447942 5.68638 0
M  V30 6743 O 631.723 1.48555 5.83279 0
M  V30 6744 H 635.549 1.67801 2.53133 0
M  V30 6745 H 633.134 0.879443 1.20773 0
M  V30 6746 H 635.016 -0.107918 4.21262 0
M  V30 6747 H 633.691 -0.683052 3.16411 0
M  V30 6748 H 632.598 1.62514 3.36957 0
M  V30 6749 H 633.931 2.12044 4.44183 0
M  V30 6750 N 635.583 -1.29855 0.893053 0
M  V30 6751 C 636.829 -1.96488 0.52574 0
M  V30 6752 C 637.184 -1.69164 -0.916594 0
M  V30 6753 O 636.477 -0.990405 -1.64017 0
M  V30 6754 C 636.671 -3.49515 0.746588 0
M  V30 6755 C 636.5 -3.91715 2.20884 0
M  V30 6756 C 635.27 -4.16915 2.85499 0
M  V30 6757 C 637.468 -4.03934 3.18342 0
M  V30 6758 N 635.45 -4.45634 4.22236 0
M  V30 6759 C 636.821 -4.36629 4.40176 0
M  V30 6760 C 638.876 -3.86387 3.14021 0
M  V30 6761 C 637.579 -4.53605 5.58243 0
M  V30 6762 C 639.605 -4.04569 4.31367 0
M  V30 6763 C 638.967 -4.37617 5.5197 0
M  V30 6764 H 635.066 -0.743657 0.241863 0
M  V30 6765 H 637.65 -1.56927 1.15248 0
M  V30 6766 H 635.821 -3.88113 0.149281 0
M  V30 6767 H 637.553 -4.03224 0.345372 0
M  V30 6768 H 634.308 -4.10423 2.36326 0
M  V30 6769 H 634.732 -4.64114 4.92876 0
M  V30 6770 H 639.374 -3.59906 2.21873 0
M  V30 6771 H 637.092 -4.78925 6.50889 0
M  V30 6772 H 640.678 -3.92452 4.29503 0
M  V30 6773 H 639.558 -4.51395 6.41258 0
M  V30 6774 N 637.061 -0.65484 -1.43351 0
M  V30 6775 C 637.971 0.0363603 -2.34572 0
M  V30 6776 C 638.987 0.810432 -1.53974 0
M  V30 6777 O 640.163 0.757308 -1.86619 0
M  V30 6778 C 637.228 0.989733 -3.32273 0
M  V30 6779 C 636.289 0.212414 -4.28774 0
M  V30 6780 C 635.522 1.12038 -5.21808 0
M  V30 6781 O 635.745 2.35967 -5.19303 0
M  V30 6782 O 634.679 0.59191 -5.98982 0
M  V30 6783 H 638.505 -0.714527 -2.95175 0
M  V30 6784 H 636.09 -0.415029 -1.4352 0
M  V30 6785 H 637.972 1.53759 -3.92347 0
M  V30 6786 H 636.647 1.72082 -2.74171 0
M  V30 6787 H 635.554 -0.379062 -3.72175 0
M  V30 6788 H 636.887 -0.479138 -4.89862 0
M  V30 6789 N 638.539 1.52521 -0.396863 0
M  V30 6790 C 639.788 2.00857 0.184184 0
M  V30 6791 C 640.101 1.28733 1.47265 0
M  V30 6792 O 641.307 1.67821 2.13421 0
M  V30 6793 C 639.763 3.57901 0.378787 0
M  V30 6794 C 639.371 4.38931 -0.896873 0
M  V30 6795 C 641.115 4.14504 0.915789 0
M  V30 6796 C 639.022 5.87591 -0.670133 0
M  V30 6797 H 637.952 0.750496 0.0726055 0
M  V30 6798 H 640.603 1.75965 -0.520425 0
M  V30 6799 H 638.985 3.79072 1.14543 0
M  V30 6800 H 640.159 4.29524 -1.66872 0
M  V30 6801 H 638.474 3.93586 -1.35938 0
M  V30 6802 H 641.071 5.23236 1.10126 0
M  V30 6803 H 641.414 3.71076 1.88701 0
M  V30 6804 H 641.947 3.97253 0.208523 0
M  V30 6805 H 638.686 6.35355 -1.61257 0
M  V30 6806 H 638.206 5.99767 0.0626368 0
M  V30 6807 H 639.885 6.46268 -0.307577 0
M  V30 6808 N 640.017 0.126909 1.57088 0
M  V30 6809 C 641.263 -0.529952 1.95753 0
M  V30 6810 C 641.596 -1.65823 1.01077 0
M  V30 6811 O 640.871 -1.94437 0.0494162 0
M  V30 6812 C 641.154 -1.05517 3.44294 0
M  V30 6813 C 641.007 0.0702253 4.49745 0
M  V30 6814 C 642.326 -1.9435 3.94862 0
M  V30 6815 H 639.445 -0.191168 0.711775 0
M  V30 6816 H 642.087 0.204071 1.88901 0
M  V30 6817 H 640.237 -1.68069 3.50264 0
M  V30 6818 H 641.909 0.705834 4.55868 0
M  V30 6819 H 640.152 0.732259 4.27575 0
M  V30 6820 H 640.823 -0.338642 5.5096 0
M  V30 6821 H 643.299 -1.41658 3.91244 0
M  V30 6822 H 642.175 -2.28015 4.993 0
M  V30 6823 H 642.436 -2.87299 3.36024 0
M  V30 6824 N 641.495 -1.56914 -0.146875 0
M  V30 6825 C 642.443 -1.99224 -1.20053 0
M  V30 6826 C 643.437 -0.884661 -1.44465 0
M  V30 6827 O 644.643 -1.06984 -1.44756 0
M  V30 6828 H 641.018 -0.634191 -0.404112 0
M  V30 6829 H 642.989 -2.86998 -0.816987 0
M  V30 6830 C 641.738 -2.38899 -2.52632 0
M  V30 6831 H 641.061 -3.23677 -2.34677 0
M  V30 6832 H 642.501 -2.72326 -3.24984 0
M  V30 6833 C 640.96 -1.2417 -3.13183 0
M  V30 6834 O 641.49 -0.542503 -3.9802 0
M  V30 6835 N 639.696 -1.00592 -2.72635 0
M  V30 6836 H 639.243 -1.57627 -2.03744 0
M  V30 6837 H 639.201 -0.240174 -3.13481 0
M  V30 6838 N 642.974 0.416227 -1.52004 0
M  V30 6839 C 643.906 1.52552 -1.71058 0
M  V30 6840 C 644.919 1.51693 -0.59102 0
M  V30 6841 O 646.108 1.56087 -0.865973 0
M  V30 6842 C 643.208 2.91455 -1.72937 0
M  V30 6843 C 642.381 3.16584 -3.01816 0
M  V30 6844 C 641.44 4.35322 -2.95603 0
M  V30 6845 O 640.466 4.32947 -3.6952 0
M  V30 6846 N 641.668 5.40049 -2.12903 0
M  V30 6847 H 644.433 1.36604 -2.66757 0
M  V30 6848 H 641.994 0.60544 -1.50153 0
M  V30 6849 H 643.986 3.68944 -1.66321 0
M  V30 6850 H 642.556 3.00895 -0.847418 0
M  V30 6851 H 641.776 2.27203 -3.22137 0
M  V30 6852 H 643.064 3.30213 -3.87088 0
M  V30 6853 H 642.462 5.44823 -1.52265 0
M  V30 6854 H 641.019 6.16308 -2.1215 0
M  V30 6855 N 644.452 1.42507 0.673017 0
M  V30 6856 C 645.729 1.33554 1.42908 0
M  V30 6857 C 646.109 -0.0262211 2.11084 0
M  V30 6858 O 645.457 -1.04181 2.03368 0
M  V30 6859 C 645.667 2.50498 2.43006 0
M  V30 6860 C 647.015 2.92694 3.07596 0
M  V30 6861 O 648.039 2.50401 2.53333 0
M  V30 6862 O 646.898 3.65899 4.05931 0
M  V30 6863 H 643.992 0.526785 0.637516 0
M  V30 6864 H 646.538 1.54518 0.701591 0
M  V30 6865 H 645.31 3.41272 1.9144 0
M  V30 6866 H 644.933 2.3153 3.23233 0
M  V30 6867 N 645.93 -0.909495 1.28709 0
M  V30 6868 C 646.878 -2.03381 1.12866 0
M  V30 6869 C 647.872 -1.69335 0.0468074 0
M  V30 6870 O 649.078 -1.78819 0.205891 0
M  V30 6871 H 645.453 -0.666452 0.348348 0
M  V30 6872 H 647.424 -2.13885 2.08077 0
M  V30 6873 C 646.173 -3.38092 0.811742 0
M  V30 6874 H 645.496 -3.64786 1.63619 0
M  V30 6875 H 646.936 -4.17477 0.740869 0
M  V30 6876 C 645.395 -3.33395 -0.484679 0
M  V30 6877 O 645.925 -3.72089 -1.5137 0
M  V30 6878 N 644.131 -2.86491 -0.486961 0
M  V30 6879 H 643.678 -2.55199 0.350877 0
M  V30 6880 H 643.636 -2.83731 -1.3544 0
M  V30 6881 N 647.408 -1.11026 -1.11852 0
M  V30 6882 C 648.358 -0.733836 -2.15868 0
M  V30 6883 C 649.342 0.26001 -1.58785 0
M  V30 6884 O 650.534 0.0677901 -1.7687 0
M  V30 6885 C 647.663 -0.173948 -3.42859 0
M  V30 6886 C 646.749 -1.1952 -4.0691 0
M  V30 6887 N 647.14 -2.38797 -4.45881 0
M  V30 6888 C 645.438 -1.03714 -4.33773 0
M  V30 6889 C 646.139 -3.03894 -4.96007 0
M  V30 6890 N 645.115 -2.31389 -4.91894 0
M  V30 6891 H 648.917 -1.64171 -2.43773 0
M  V30 6892 H 646.431 -0.988877 -1.28822 0
M  V30 6893 H 648.428 0.113836 -4.16745 0
M  V30 6894 H 647.088 0.728568 -3.16421 0
M  V30 6895 H 648.099 -2.76281 -4.38051 0
M  V30 6896 H 644.776 -0.190694 -4.17064 0
M  V30 6897 H 646.166 -4.05389 -5.35826 0
M  V30 6898 N 648.886 1.2938 -0.899927 0
M  V30 6899 C 650.116 1.99402 -0.540601 0
M  V30 6900 C 650.524 1.67534 0.87914 0
M  V30 6901 O 649.867 0.916821 1.59186 0
M  V30 6902 C 649.929 3.53514 -0.653326 0
M  V30 6903 C 649.593 4.08937 -2.04009 0
M  V30 6904 C 650.59 4.23815 -3.01126 0
M  V30 6905 C 648.275 4.43962 -2.34953 0
M  V30 6906 C 650.269 4.72951 -4.27313 0
M  V30 6907 C 647.956 4.92795 -3.61382 0
M  V30 6908 C 648.954 5.07244 -4.57376 0
M  V30 6909 O 648.642 5.55017 -5.8156 0
M  V30 6910 H 648.374 0.64383 -0.206057 0
M  V30 6911 H 650.928 1.65878 -1.21134 0
M  V30 6912 H 649.158 3.86628 0.0744449 0
M  V30 6913 H 650.847 4.04767 -0.303118 0
M  V30 6914 H 651.613 3.97043 -2.78535 0
M  V30 6915 H 647.492 4.31974 -1.60994 0
M  V30 6916 H 651.036 4.84144 -5.02245 0
M  V30 6917 H 646.933 5.19004 -3.83804 0
M  V30 6918 H 647.701 5.73331 -5.84153 0
M  V30 6919 N 650.364 0.662433 1.43002 0
M  V30 6920 C 651.589 0.186003 2.06564 0
M  V30 6921 C 652.014 -1.14314 1.49379 0
M  V30 6922 O 651.372 -1.70824 0.607346 0
M  V30 6923 C 651.42 0.118269 3.60406 0
M  V30 6924 O 650.524 -0.916859 4.02079 0
M  V30 6925 H 649.865 0.0990981 0.656563 0
M  V30 6926 H 652.395 0.907958 1.8335 0
M  V30 6927 H 652.405 -0.0619981 4.07953 0
M  V30 6928 H 651.08 1.08849 4.01403 0
M  V30 6929 H 649.657 -0.708635 3.66105 0
M  V30 6930 N 651.842 -1.52309 0.404946 0
M  V30 6931 C 653.253 -1.86585 -0.0655926 0
M  V30 6932 C 653.604 -1.3239 -1.44801 0
M  V30 6933 O 652.729 -0.6615 -2.06042 0
M  V30 6934 C 653.324 -3.38566 -0.125801 0
M  V30 6935 C 651.883 -3.72497 -0.540666 0
M  V30 6936 C 651.03 -2.75806 0.287487 0
M  V30 6937 H 653.981 -1.45995 0.622185 0
M  V30 6938 H 654.002 -3.68658 -0.941888 0
M  V30 6939 H 653.514 -3.77981 0.880473 0
M  V30 6940 H 651.615 -3.38659 -1.55373 0
M  V30 6941 H 651.728 -4.78234 -0.287956 0
M  V30 6942 H 650.092 -2.53474 -0.249561 0
M  V30 6943 H 650.875 -3.18059 1.29203 0
M  V30 6944 N 653.32 -0.135238 -1.57019 0
M  V30 6945 C 654.27 0.820408 -2.12728 0
M  V30 6946 C 655.254 1.21735 -1.05211 0
M  V30 6947 O 656.446 1.18574 -1.31413 0
M  V30 6948 C 653.575 2.06414 -2.74314 0
M  V30 6949 C 652.661 1.69083 -3.88937 0
M  V30 6950 N 653.052 1.0251 -4.95303 0
M  V30 6951 C 651.35 1.98434 -3.99425 0
M  V30 6952 C 652.051 0.846749 -5.75504 0
M  V30 6953 N 651.027 1.3769 -5.25873 0
M  V30 6954 H 654.829 0.302426 -2.9234 0
M  V30 6955 H 652.343 0.0667009 -1.62263 0
M  V30 6956 H 654.34 2.75863 -3.12579 0
M  V30 6957 H 653 2.58741 -1.96171 0
M  V30 6958 H 654.011 0.687207 -5.1332 0
M  V30 6959 H 650.688 2.52693 -3.32344 0
M  V30 6960 H 652.078 0.322949 -6.71123 0
M  V30 6961 N 654.798 1.5699 0.138552 0
M  V30 6962 C 656.045 1.83809 0.849732 0
M  V30 6963 C 656.373 0.717409 1.80786 0
M  V30 6964 O 655.628 -0.292897 1.93496 0
M  V30 6965 C 655.927 3.17007 1.65049 0
M  V30 6966 C 655.593 4.43037 0.838398 0
M  V30 6967 C 654.255 4.77262 0.614385 0
M  V30 6968 C 656.607 5.20495 0.271044 0
M  V30 6969 C 653.935 5.864 -0.187552 0
M  V30 6970 C 656.287 6.30476 -0.517979 0
M  V30 6971 C 654.951 6.63245 -0.75249 0
M  V30 6972 H 654.221 0.672605 0.310939 0
M  V30 6973 H 656.868 1.91166 0.112971 0
M  V30 6974 H 655.173 3.05138 2.4576 0
M  V30 6975 H 656.87 3.34975 2.20437 0
M  V30 6976 H 653.46 4.16211 1.02307 0
M  V30 6977 H 657.644 4.94422 0.431371 0
M  V30 6978 H 652.9 6.10226 -0.378659 0
M  V30 6979 H 657.074 6.89686 -0.964694 0
M  V30 6980 H 654.701 7.47648 -1.37573 0
M  V30 6981 N 656.276 -0.40816 1.52223 0
M  V30 6982 C 657.208 -1.51642 1.71864 0
M  V30 6983 C 658.221 -1.51378 0.599056 0
M  V30 6984 O 659.41 -1.55626 0.874239 0
M  V30 6985 C 656.51 -2.90534 1.74481 0
M  V30 6986 C 655.683 -3.14979 3.03491 0
M  V30 6987 C 654.742 -4.33749 2.97907 0
M  V30 6988 O 653.768 -4.30982 3.71811 0
M  V30 6989 N 654.97 -5.38912 2.15764 0
M  V30 6990 H 657.735 -1.35188 2.67478 0
M  V30 6991 H 655.296 -0.597468 1.50472 0
M  V30 6992 H 657.288 -3.68056 1.68275 0
M  V30 6993 H 655.858 -3.00441 0.863363 0
M  V30 6994 H 655.078 -2.25492 3.23337 0
M  V30 6995 H 656.366 -3.28156 3.88833 0
M  V30 6996 H 655.764 -5.44008 1.55152 0
M  V30 6997 H 654.321 -6.15174 2.15415 0
M  V30 6998 N 657.755 -1.42862 -0.66545 0
M  V30 6999 C 658.665 -1.49491 -1.80803 0
M  V30 7000 C 659.681 -0.382914 -1.69734 0
M  V30 7001 O 660.857 -0.635223 -1.9112 0
M  V30 7002 C 657.922 -1.40383 -3.17007 0
M  V30 7003 C 656.983 -2.62152 -3.39963 0
M  V30 7004 C 656.216 -2.53469 -4.69669 0
M  V30 7005 O 656.439 -1.57568 -5.48205 0
M  V30 7006 O 655.373 -3.43763 -4.94075 0
M  V30 7007 H 659.199 -2.45949 -1.78165 0
M  V30 7008 H 656.784 -1.24728 -0.822387 0
M  V30 7009 H 658.666 -1.377 -3.98267 0
M  V30 7010 H 657.341 -0.470546 -3.20262 0
M  V30 7011 H 656.248 -2.70409 -2.58515 0
M  V30 7012 H 657.581 -3.54411 -3.41546 0
M  V30 7013 N 659.233 0.902656 -1.29189 0
M  V30 7014 C 660.482 1.6475 -1.16362 0
M  V30 7015 C 660.795 1.93517 0.284682 0
M  V30 7016 O 662.001 2.66192 0.534229 0
M  V30 7017 C 660.457 2.96848 -2.03493 0
M  V30 7018 C 660.065 2.75687 -3.5313 0
M  V30 7019 C 661.809 3.74762 -1.99383 0
M  V30 7020 C 659.716 4.03492 -4.32375 0
M  V30 7021 H 658.646 0.618041 -0.431904 0
M  V30 7022 H 661.297 1.0008 -1.53806 0
M  V30 7023 H 659.679 3.62715 -1.58916 0
M  V30 7024 H 660.853 2.18431 -4.05739 0
M  V30 7025 H 659.168 2.11171 -3.58881 0
M  V30 7026 H 661.765 4.69515 -2.5585 0
M  V30 7027 H 662.108 4.04767 -0.973123 0
M  V30 7028 H 662.641 3.15732 -2.41988 0
M  V30 7029 H 659.38 3.78656 -5.3507 0
M  V30 7030 H 658.9 4.60318 -3.84535 0
M  V30 7031 H 660.579 4.71662 -4.42881 0
M  V30 7032 N 660.711 1.11618 1.11262 0
M  V30 7033 C 662.127 0.850468 1.35053 0
M  V30 7034 C 662.327 -0.523868 1.94571 0
M  V30 7035 O 661.383 -1.2743 2.17986 0
M  V30 7036 C 662.696 1.96005 2.28041 0
M  V30 7037 C 664.244 1.98993 2.416 0
M  V30 7038 C 664.719 3.0916 3.37911 0
M  V30 7039 N 666.21 3.08547 3.45475 0
M  V30 7040 C 666.945 3.9043 4.19943 0
M  V30 7041 N 666.441 4.8228 4.97371 0
M  V30 7042 N 668.234 3.786 4.15474 0
M  V30 7043 H 660.385 2.00184 0.709932 0
M  V30 7044 H 662.648 0.870635 0.375099 0
M  V30 7045 H 662.354 2.9499 1.91503 0
M  V30 7046 H 662.228 1.85782 3.28275 0
M  V30 7047 H 664.615 1.00633 2.77411 0
M  V30 7048 H 664.696 2.13292 1.4121 0
M  V30 7049 H 664.34 4.07748 3.02827 0
M  V30 7050 H 664.27 2.92102 4.3816 0
M  V30 7051 H 666.761 2.42 2.90249 0
M  V30 7052 H 667.074 5.41289 5.51567 0
M  V30 7053 H 665.419 4.863 4.96525 0
M  V30 7054 H 668.61 3.06185 3.54074 0
M  V30 7055 H 668.783 4.42647 4.73253 0
M  V30 7056 N 662.189 -1.289 0.906776 0
M  V30 7057 C 663.122 -2.25737 0.334362 0
M  V30 7058 C 664.1 -1.52745 -0.557474 0
M  V30 7059 O 665.284 -1.81673 -0.502697 0
M  V30 7060 C 662.411 -3.34642 -0.522716 0
M  V30 7061 C 661.457 -4.25424 0.302777 0
M  V30 7062 S 662.29 -5.07629 1.70508 0
M  V30 7063 C 663.446 -6.20031 0.855118 0
M  V30 7064 H 663.679 -2.73941 1.15514 0
M  V30 7065 H 661.212 -1.37233 0.707573 0
M  V30 7066 H 663.17 -3.97845 -1.01141 0
M  V30 7067 H 661.831 -2.85119 -1.31781 0
M  V30 7068 H 661.024 -5.02767 -0.352257 0
M  V30 7069 H 660.626 -3.66908 0.724873 0
M  V30 7070 H 662.918 -6.77451 0.0816418 0
M  V30 7071 H 663.861 -6.89767 1.60087 0
M  V30 7072 H 664.269 -5.63035 0.406375 0
M  V30 7073 N 663.667 -0.670007 -1.42649 0
M  V30 7074 C 664.597 -0.00258501 -2.335 0
M  V30 7075 C 665.578 0.794364 -1.50412 0
M  V30 7076 O 666.763 0.75248 -1.79029 0
M  V30 7077 C 663.893 0.952748 -3.33976 0
M  V30 7078 C 662.847 0.264733 -4.2718 0
M  V30 7079 C 662.173 1.33267 -5.17826 0
M  V30 7080 C 663.473 -0.853289 -5.15283 0
M  V30 7081 H 665.167 -0.761326 -2.89559 0
M  V30 7082 H 662.713 -0.367561 -1.3923 0
M  V30 7083 H 664.666 1.4287 -3.96442 0
M  V30 7084 H 663.39 1.74285 -2.7621 0
M  V30 7085 H 662.049 -0.190938 -3.66102 0
M  V30 7086 H 661.697 2.11464 -4.5639 0
M  V30 7087 H 661.397 0.877476 -5.81011 0
M  V30 7088 H 662.921 1.80965 -5.83167 0
M  V30 7089 H 664.335 -0.458763 -5.71462 0
M  V30 7090 H 662.732 -1.23398 -5.87276 0
M  V30 7091 H 663.802 -1.70412 -4.53969 0
M  V30 7092 N 665.145 1.52092 -0.413018 0
M  V30 7093 C 666.092 2.27119 0.410558 0
M  V30 7094 C 667.062 1.29692 1.03774 0
M  V30 7095 O 668.247 1.58561 1.06128 0
M  V30 7096 C 665.387 3.09863 1.51918 0
M  V30 7097 C 664.5 4.22252 0.912528 0
M  V30 7098 C 663.635 4.92348 1.99417 0
M  V30 7099 C 662.674 5.96694 1.36466 0
M  V30 7100 N 661.811 6.60292 2.38661 0
M  V30 7101 H 666.651 2.97067 -0.235661 0
M  V30 7102 H 664.188 1.46542 -0.128055 0
M  V30 7103 H 666.146 3.56144 2.17295 0
M  V30 7104 H 664.776 2.42078 2.13537 0
M  V30 7105 H 663.828 3.80113 0.147697 0
M  V30 7106 H 665.14 4.9709 0.412717 0
M  V30 7107 H 664.294 5.42054 2.72512 0
M  V30 7108 H 663.033 4.17087 2.52764 0
M  V30 7109 H 662.038 5.46304 0.61906 0
M  V30 7110 H 663.263 6.73899 0.838827 0
M  V30 7111 H 661.209 5.87858 2.91134 0
M  V30 7112 H 661.126 7.30816 1.93503 0
M  V30 7113 H 662.394 7.14635 3.11314 0
M  V30 7114 N 666.623 0.143563 1.56945 0
M  V30 7115 C 667.57 -0.797433 2.16586 0
M  V30 7116 C 668.54 -1.24654 1.09775 0
M  V30 7117 O 669.725 -1.31968 1.37801 0
M  V30 7118 C 666.865 -2.03253 2.78895 0
M  V30 7119 C 665.978 -1.62954 4.00087 0
M  V30 7120 C 665.113 -2.81617 4.50406 0
M  V30 7121 C 664.152 -2.37675 5.64072 0
M  V30 7122 N 663.289 -3.49335 6.09023 0
M  V30 7123 H 668.129 -0.282023 2.96662 0
M  V30 7124 H 665.666 -0.127494 1.46546 0
M  V30 7125 H 667.624 -2.75653 3.13163 0
M  V30 7126 H 666.254 -2.52211 2.01469 0
M  V30 7127 H 665.306 -0.803322 3.71821 0
M  V30 7128 H 666.618 -1.26679 4.82446 0
M  V30 7129 H 665.772 -3.62212 4.86711 0
M  V30 7130 H 664.511 -3.21134 3.67048 0
M  V30 7131 H 663.516 -1.55519 5.27346 0
M  V30 7132 H 664.741 -1.99247 6.49213 0
M  V30 7133 H 662.687 -3.8848 5.28601 0
M  V30 7134 H 662.604 -3.17064 6.86299 0
M  V30 7135 H 663.872 -4.30297 6.49973 0
M  V30 7136 N 668.101 -1.57061 -0.130224 0
M  V30 7137 C 669.347 -1.8453 -0.841216 0
M  V30 7138 C 669.68 -0.727666 -1.80052 0
M  V30 7139 O 668.955 0.267419 -1.92653 0
M  V30 7140 C 669.238 -3.22553 -1.60099 0
M  V30 7141 C 669.091 -4.44901 -0.662048 0
M  V30 7142 C 670.41 -3.58003 -2.55973 0
M  V30 7143 H 667.529 -0.671215 -0.304366 0
M  V30 7144 H 670.171 -1.89705 -0.105821 0
M  V30 7145 H 668.321 -3.18272 -2.22789 0
M  V30 7146 H 669.993 -4.61278 -0.0448559 0
M  V30 7147 H 668.236 -4.33791 0.0272253 0
M  V30 7148 H 668.907 -5.3812 -1.23006 0
M  V30 7149 H 671.383 -3.63002 -2.03393 0
M  V30 7150 H 670.259 -4.55576 -3.06172 0
M  V30 7151 H 670.52 -2.84833 -3.38116 0
M  V30 7152 N 669.579 0.400081 -1.52437 0
M  V30 7153 C 670.825 1.14788 -1.67187 0
M  V30 7154 C 671.158 1.89928 -0.405074 0
M  V30 7155 O 670.433 1.85118 0.596804 0
M  V30 7156 C 670.716 2.13507 -2.89977 0
M  V30 7157 C 670.569 1.42204 -4.2673 0
M  V30 7158 C 671.888 3.14069 -3.083 0
M  V30 7159 H 669.007 0.415939 -0.608411 0
M  V30 7160 H 671.649 0.432542 -1.85011 0
M  V30 7161 H 669.799 2.7451 -2.74912 0
M  V30 7162 H 671.471 0.842503 -4.53541 0
M  V30 7163 H 669.714 0.723939 -4.27717 0
M  V30 7164 H 670.385 2.14281 -5.08712 0
M  V30 7165 H 672.861 2.63148 -3.22323 0
M  V30 7166 H 671.737 3.80398 -3.95713 0
M  V30 7167 H 671.998 3.82309 -2.22018 0
M  V30 7168 N 671.057 1.43213 0.657864 0
M  V30 7169 C 672.282 1.48227 1.45064 0
M  V30 7170 C 672.707 0.0999939 1.87834 0
M  V30 7171 O 672.065 -0.905269 1.57081 0
M  V30 7172 C 672.113 2.42931 2.6649 0
M  V30 7173 O 671.217 1.91237 3.6538 0
M  V30 7174 H 670.558 0.501551 0.435135 0
M  V30 7175 H 673.088 1.8808 0.805431 0
M  V30 7176 H 673.098 2.6008 3.1436 0
M  V30 7177 H 671.773 3.43348 2.34701 0
M  V30 7178 H 670.35 1.83726 3.24498 0
M  V30 7179 N 672.536 -0.895792 1.29666 0
M  V30 7180 C 673.782 -1.64908 1.18039 0
M  V30 7181 C 674.115 -1.9236 -0.266682 0
M  V30 7182 O 673.39 -1.53682 -1.19214 0
M  V30 7183 C 673.673 -2.99574 1.99819 0
M  V30 7184 C 673.526 -2.79163 3.52687 0
M  V30 7185 C 674.845 -4.00358 1.82761 0
M  V30 7186 H 671.964 -0.598437 0.430165 0
M  V30 7187 H 674.606 -1.03736 1.59182 0
M  V30 7188 H 672.756 -3.51786 1.64859 0
M  V30 7189 H 674.428 -2.33821 3.9765 0
M  V30 7190 H 672.671 -2.13871 3.77414 0
M  V30 7191 H 673.342 -3.74871 4.05186 0
M  V30 7192 H 675.818 -3.57268 2.13304 0
M  V30 7193 H 674.694 -4.92514 2.42325 0
M  V30 7194 H 674.955 -4.35096 0.783839 0
M  V30 7195 N 674.014 -1.12206 -1.10668 0
M  V30 7196 C 674.964 -0.75669 -2.15077 0
M  V30 7197 C 675.948 0.243154 -1.59052 0
M  V30 7198 O 677.14 0.0490268 -1.76932 0
M  V30 7199 C 674.269 -0.210303 -3.42655 0
M  V30 7200 C 673.355 -1.23829 -4.05619 0
M  V30 7201 N 673.746 -2.43513 -4.43323 0
M  V30 7202 C 672.044 -1.08309 -4.32649 0
M  V30 7203 C 672.745 -3.09138 -4.92756 0
M  V30 7204 N 671.721 -2.36593 -4.89413 0
M  V30 7205 H 675.523 -1.66747 -2.42018 0
M  V30 7206 H 673.037 -1.00248 -1.27765 0
M  V30 7207 H 675.034 0.0696287 -4.16842 0
M  V30 7208 H 673.694 0.694967 -3.17176 0
M  V30 7209 H 674.705 -2.80912 -4.35097 0
M  V30 7210 H 671.382 -0.234919 -4.16839 0
M  V30 7211 H 672.772 -4.11049 -5.31496 0
M  V30 7212 N 675.492 1.28418 -0.913599 0
M  V30 7213 C 676.903 1.77024 -0.593237 0
M  V30 7214 C 677.254 1.74779 0.891441 0
M  V30 7215 O 676.379 1.34237 1.69733 0
M  V30 7216 C 676.974 3.21456 -1.07011 0
M  V30 7217 C 675.533 3.67786 -0.800664 0
M  V30 7218 C 674.68 2.48185 -1.23691 0
M  V30 7219 H 677.631 1.14883 -1.09487 0
M  V30 7220 H 677.652 3.78269 -0.411481 0
M  V30 7221 H 677.164 3.23058 -2.1507 0
M  V30 7222 H 675.265 3.71644 0.266725 0
M  V30 7223 H 675.378 4.57934 -1.4083 0
M  V30 7224 H 673.742 2.46116 -0.655655 0
M  V30 7225 H 674.525 2.52506 -2.32585 0
M  V30 7226 N 676.97 0.677563 1.42291 0
M  V30 7227 C 678.218 0.200578 2.01102 0
M  V30 7228 C 678.539 -1.19803 1.53858 0
M  V30 7229 O 677.809 -1.80496 0.761439 0
M  V30 7230 H 676.389 0.0711634 0.743603 0
M  V30 7231 H 679.051 0.874691 1.7417 0
M  V30 7232 H 678.147 0.204 3.11433 0
M  V30 7233 N 678.448 -1.51871 0.421078 0
M  V30 7234 C 679.725 -1.9447 -0.20993 0
M  V30 7235 C 680.105 -1.35875 -1.61558 0
M  V30 7236 O 679.453 -0.539294 -2.22045 0
M  V30 7237 C 679.663 -3.48402 -0.204165 0
M  V30 7238 C 681.011 -4.2254 -0.417696 0
M  V30 7239 O 682.035 -3.55074 -0.282999 0
M  V30 7240 O 680.894 -5.422 -0.684239 0
M  V30 7241 H 677.988 -0.815283 -0.138718 0
M  V30 7242 H 680.534 -1.62832 0.477884 0
M  V30 7243 H 679.306 -3.83464 0.779183 0
M  V30 7244 H 678.929 -3.86436 -0.935576 0
M  V30 7245 N 679.926 -0.151884 -1.56866 0
M  V30 7246 C 681.172 0.498742 -1.96572 0
M  V30 7247 C 681.505 1.64194 -1.03702 0
M  V30 7248 O 680.78 1.94334 -0.0803432 0
M  V30 7249 C 681.063 1.00027 -3.45929 0
M  V30 7250 C 680.916 -0.141767 -4.49577 0
M  V30 7251 C 682.235 1.88044 -3.97904 0
M  V30 7252 H 679.354 0.17982 -0.714726 0
M  V30 7253 H 681.996 -0.234097 -1.88552 0
M  V30 7254 H 680.146 1.62476 -3.52894 0
M  V30 7255 H 681.818 -0.778269 -4.54687 0
M  V30 7256 H 680.061 -0.80019 -4.26356 0
M  V30 7257 H 680.732 0.250947 -5.51429 0
M  V30 7258 H 683.208 1.35416 -3.93449 0
M  V30 7259 H 682.084 2.20043 -5.02864 0
M  V30 7260 H 682.345 2.81916 -3.40552 0
M  V30 7261 N 681.404 1.57128 0.121893 0
M  V30 7262 C 682.334 2.03165 1.15092 0
M  V30 7263 C 683.315 0.915587 1.43356 0
M  V30 7264 O 684.5 1.1851 1.53847 0
M  V30 7265 C 681.63 2.43352 2.47784 0
M  V30 7266 C 680.584 3.58376 2.33989 0
M  V30 7267 C 679.91 3.84454 3.71617 0
M  V30 7268 C 681.21 4.90199 1.80283 0
M  V30 7269 H 682.904 2.89382 0.768023 0
M  V30 7270 H 680.45 1.39218 0.367998 0
M  V30 7271 H 682.403 2.74163 3.20019 0
M  V30 7272 H 681.127 1.54103 2.87958 0
M  V30 7273 H 679.786 3.2777 1.64202 0
M  V30 7274 H 679.434 2.92414 4.09271 0
M  V30 7275 H 679.134 4.61877 3.6324 0
M  V30 7276 H 680.658 4.17714 4.45362 0
M  V30 7277 H 682.072 5.19565 2.42333 0
M  V30 7278 H 680.469 5.71601 1.82735 0
M  V30 7279 H 681.539 4.78904 0.760184 0
M  V30 7280 N 682.882 -0.391992 1.52647 0
M  V30 7281 C 684.131 -1.13449 1.6677 0
M  V30 7282 C 684.444 -1.91203 0.412399 0
M  V30 7283 O 685.65 -2.68013 0.433707 0
M  V30 7284 C 684.106 -2.06577 2.9471 0
M  V30 7285 C 683.714 -1.3426 4.27409 0
M  V30 7286 C 685.458 -2.80981 3.18198 0
M  V30 7287 C 683.365 -2.26136 5.46458 0
M  V30 7288 H 682.295 -0.427211 0.621295 0
M  V30 7289 H 684.946 -0.397522 1.79142 0
M  V30 7290 H 683.328 -2.83898 2.76076 0
M  V30 7291 H 684.502 -0.621856 4.56585 0
M  V30 7292 H 682.817 -0.718279 4.10158 0
M  V30 7293 H 685.414 -3.49898 4.04321 0
M  V30 7294 H 685.757 -3.44891 2.33144 0
M  V30 7295 H 686.29 -2.10754 3.37383 0
M  V30 7296 H 683.029 -1.66846 6.33911 0
M  V30 7297 H 682.549 -2.96134 5.21598 0
M  V30 7298 H 684.228 -2.86286 5.80215 0
M  V30 7299 N 684.36 -1.4356 -0.65026 0
M  V30 7300 C 685.588 -1.48779 -1.43779 0
M  V30 7301 C 686.003 -0.106593 -1.88499 0
M  V30 7302 O 685.36 0.883766 -1.59674 0
M  V30 7303 C 685.411 -2.43618 -2.67081 0
M  V30 7304 O 685.132 -3.76367 -2.24231 0
M  V30 7305 C 686.633 -2.5811 -3.60409 0
M  V30 7306 H 683.853 -0.50521 -0.441593 0
M  V30 7307 H 686.397 -1.88332 -0.796941 0
M  V30 7308 H 684.552 -2.07253 -3.273 0
M  V30 7309 H 684.966 -4.27394 -3.0403 0
M  V30 7310 H 686.44 -3.28539 -4.43583 0
M  V30 7311 H 686.917 -1.627 -4.07953 0
M  V30 7312 H 687.523 -2.95298 -3.0607 0
M  V30 7313 N 685.838 0.888903 -1.30139 0
M  V30 7314 C 687.063 1.67884 -1.21777 0
M  V30 7315 C 687.488 1.86848 0.216689 0
M  V30 7316 O 686.846 1.39659 1.15608 0
M  V30 7317 C 686.894 3.03483 -1.94757 0
M  V30 7318 O 685.998 3.92294 -1.27198 0
M  V30 7319 H 685.339 0.513144 -0.421402 0
M  V30 7320 H 687.869 1.10968 -1.71893 0
M  V30 7321 H 687.879 3.53553 -2.03627 0
M  V30 7322 H 686.554 2.89 -2.99085 0
M  V30 7323 H 685.131 3.50732 -1.26655 0
M  V30 7324 N 687.317 1.12792 1.10072 0
M  V30 7325 C 688.557 0.895691 1.8373 0
M  V30 7326 C 688.921 -0.568131 1.83402 0
M  V30 7327 O 690.122 -0.917666 2.52651 0
M  V30 7328 C 688.393 1.4593 3.2625 0
M  V30 7329 S 689.952 1.36615 4.16991 0
M  V30 7330 H 686.77 0.323017 0.633389 0
M  V30 7331 H 689.372 1.43816 1.32428 0
M  V30 7332 H 688.076 2.51818 3.24062 0
M  V30 7333 H 687.607 0.914478 3.82624 0
M  V30 7334 H 689.622 0.340131 4.95033 0
M  V30 7335 N 688.795 -1.27931 0.920396 0
M  V30 7336 C 690.023 -1.98805 0.573087 0
M  V30 7337 C 690.438 -1.68724 -0.847201 0
M  V30 7338 O 689.795 -0.943699 -1.56207 0
M  V30 7339 C 689.846 -3.52971 0.780633 0
M  V30 7340 O 689.567 -3.81994 2.14504 0
M  V30 7341 C 691.068 -4.411 0.44105 0
M  V30 7342 H 688.288 -0.634651 0.21785 0
M  V30 7343 H 690.832 -1.62965 1.23542 0
M  V30 7344 H 688.987 -3.87048 0.165204 0
M  V30 7345 H 689.401 -4.76609 2.18962 0
M  V30 7346 H 690.875 -5.48312 0.637006 0
M  V30 7347 H 691.352 -4.34758 -0.62306 0
M  V30 7348 H 691.958 -4.12532 1.0343 0
M  V30 7349 N 690.273 -0.685099 -1.4193 0
M  V30 7350 C 691.503 -0.220052 -2.05425 0
M  V30 7351 C 691.911 1.13185 -1.51611 0
M  V30 7352 O 691.254 1.71631 -0.654875 0
M  V30 7353 C 691.316 -0.0888364 -3.5939 0
M  V30 7354 C 690.98 -1.37109 -4.35947 0
M  V30 7355 C 691.977 -2.30675 -4.65924 0
M  V30 7356 C 689.662 -1.62155 -4.75406 0
M  V30 7357 C 691.656 -3.47556 -5.34306 0
M  V30 7358 C 689.343 -2.79324 -5.43527 0
M  V30 7359 C 690.341 -3.71848 -5.72903 0
M  V30 7360 O 690.029 -4.86966 -6.39624 0
M  V30 7361 H 689.761 -0.102165 -0.668235 0
M  V30 7362 H 692.315 -0.935194 -1.82875 0
M  V30 7363 H 690.545 0.681981 -3.80639 0
M  V30 7364 H 692.234 0.337669 -4.04493 0
M  V30 7365 H 693 -2.12579 -4.3593 0
M  V30 7366 H 688.879 -0.910053 -4.51928 0
M  V30 7367 H 692.423 -4.19794 -5.57153 0
M  V30 7368 H 688.32 -2.97342 -5.72938 0
M  V30 7369 H 689.088 -4.86644 -6.58118 0
M  V30 7370 N 691.751 1.51645 -0.429126 0
M  V30 7371 C 692.699 2.29119 0.400921 0
M  V30 7372 C 693.693 1.34628 1.02819 0
M  V30 7373 O 694.899 1.52004 0.964098 0
M  V30 7374 H 691.274 0.737273 0.148095 0
M  V30 7375 H 693.245 2.97144 -0.273457 0
M  V30 7376 C 691.994 3.13953 1.49429 0
M  V30 7377 H 691.317 3.86544 1.02097 0
M  V30 7378 H 692.757 3.71232 2.04849 0
M  V30 7379 C 691.216 2.28796 2.47293 0
M  V30 7380 O 691.746 1.94193 3.51642 0
M  V30 7381 N 689.952 1.92177 2.17982 0
M  V30 7382 H 689.499 2.20517 1.33154 0
M  V30 7383 H 689.457 1.35497 2.83704 0
M  V30 7384 N 693.229 0.160201 1.56784 0
M  V30 7385 C 694.457 -0.494165 2.00912 0
M  V30 7386 C 694.872 -1.57548 1.04038 0
M  V30 7387 O 694.229 -1.82457 0.0394581 0
M  V30 7388 C 694.28 -1.08271 3.44905 0
M  V30 7389 O 694.001 -0.0445704 4.38077 0
M  V30 7390 C 695.502 -1.8164 4.04378 0
M  V30 7391 H 692.722 -0.127498 0.658776 0
M  V30 7392 H 695.266 0.258665 2.02858 0
M  V30 7393 H 693.421 -1.78609 3.4377 0
M  V30 7394 H 693.835 -0.477544 5.22322 0
M  V30 7395 H 695.309 -2.18094 5.07089 0
M  V30 7396 H 695.786 -2.70727 3.45838 0
M  V30 7397 H 696.392 -1.15969 4.09184 0
M  V30 7398 N 694.707 -1.5719 -0.113559 0
M  V30 7399 C 695.617 -2.04041 -1.15777 0
M  V30 7400 C 696.633 -0.961812 -1.45001 0
M  V30 7401 O 697.809 -1.2737 -1.56009 0
M  V30 7402 C 694.874 -2.43994 -2.46308 0
M  V30 7403 C 693.935 -3.65962 -2.24433 0
M  V30 7404 C 693.168 -4.04 -3.4874 0
M  V30 7405 O 693.391 -3.42321 -4.56259 0
M  V30 7406 O 692.325 -4.97069 -3.3942 0
M  V30 7407 H 696.151 -2.93248 -0.789899 0
M  V30 7408 H 693.736 -1.45828 -0.324748 0
M  V30 7409 H 695.618 -2.70401 -3.23204 0
M  V30 7410 H 694.293 -1.57932 -2.82558 0
M  V30 7411 H 693.2 -3.44697 -1.45377 0
M  V30 7412 H 694.533 -4.52746 -1.93084 0
M  V30 7413 N 696.185 0.383891 -1.52853 0
M  V30 7414 C 697.462 1.14296 -1.58732 0
M  V30 7415 C 697.842 2.07585 -0.383611 0
M  V30 7416 O 697.19 2.1971 0.627661 0
M  V30 7417 C 697.4 1.89816 -2.92867 0
M  V30 7418 C 698.748 2.44998 -3.46787 0
M  V30 7419 O 699.772 1.99966 -2.94774 0
M  V30 7420 O 698.631 3.2727 -4.37672 0
M  V30 7421 H 695.725 0.52326 -0.640413 0
M  V30 7422 H 698.271 0.388631 -1.6519 0
M  V30 7423 H 697.043 1.21626 -3.71918 0
M  V30 7424 H 696.666 2.72199 -2.89816 0
M  V30 7425 N 697.663 1.43903 0.642637 0
M  V30 7426 C 699.079 1.27536 0.959519 0
M  V30 7427 C 699.279 0.202751 2.00477 0
M  V30 7428 O 698.335 -0.415256 2.49062 0
M  V30 7429 C 699.648 2.6432 1.43372 0
M  V30 7430 C 701.196 2.71937 1.54981 0
M  V30 7431 C 701.671 4.09164 2.05789 0
M  V30 7432 N 703.162 4.11282 2.13076 0
M  V30 7433 C 703.897 5.14303 2.53534 0
M  V30 7434 N 703.393 6.27693 2.93212 0
M  V30 7435 N 705.186 5.01657 2.53567 0
M  V30 7436 H 697.337 2.12344 -0.0488376 0
M  V30 7437 H 699.6 0.947124 0.0407559 0
M  V30 7438 H 699.306 3.43826 0.740048 0
M  V30 7439 H 699.18 2.90432 2.40685 0
M  V30 7440 H 701.567 1.92757 2.23448 0
M  V30 7441 H 701.648 2.49578 0.560739 0
M  V30 7442 H 701.292 4.88815 1.37921 0
M  V30 7443 H 701.222 4.28893 3.05546 0
M  V30 7444 H 703.713 3.2944 1.85143 0
M  V30 7445 H 704.026 7.02125 3.22863 0
M  V30 7446 H 702.371 6.31149 2.90991 0
M  V30 7447 H 705.562 4.12134 2.21952 0
M  V30 7448 H 705.735 5.82072 2.84774 0
M  V30 7449 N 699.141 -0.881989 1.30609 0
M  V30 7450 C 700.051 -2.02076 1.19174 0
M  V30 7451 C 701.067 -1.73645 0.11102 0
M  V30 7452 O 702.243 -1.98735 0.326528 0
M  V30 7453 C 699.308 -3.3515 0.887438 0
M  V30 7454 C 698.369 -3.76983 2.05383 0
M  V30 7455 C 697.602 -5.03707 1.76395 0
M  V30 7456 O 697.825 -5.66171 0.693302 0
M  V30 7457 O 696.759 -5.42019 2.61723 0
M  V30 7458 H 700.585 -2.14652 2.14845 0
M  V30 7459 H 698.17 -1.00843 1.10232 0
M  V30 7460 H 700.052 -4.14975 0.73306 0
M  V30 7461 H 698.727 -3.23676 -0.0393354 0
M  V30 7462 H 697.634 -2.97849 2.26355 0
M  V30 7463 H 698.967 -3.93066 2.96243 0
M  V30 7464 N 700.619 -1.13374 -1.09472 0
M  V30 7465 C 701.549 -0.833268 -2.18126 0
M  V30 7466 C 702.53 0.207169 -1.68834 0
M  V30 7467 O 703.715 0.0662012 -1.94087 0
M  V30 7468 C 700.845 -0.297979 -3.46019 0
M  V30 7469 C 699.799 -1.27261 -4.08642 0
M  V30 7470 C 699.125 -0.597104 -5.31356 0
M  V30 7471 C 700.425 -2.63095 -4.51197 0
M  V30 7472 H 702.119 -1.74182 -2.43518 0
M  V30 7473 H 699.665 -0.838921 -1.17039 0
M  V30 7474 H 701.618 -0.0754444 -4.21332 0
M  V30 7475 H 700.342 0.645959 -3.20148 0
M  V30 7476 H 699.001 -1.48113 -3.35348 0
M  V30 7477 H 698.649 0.352293 -5.01765 0
M  V30 7478 H 698.349 -1.24734 -5.74208 0
M  V30 7479 H 699.873 -0.38384 -6.09392 0
M  V30 7480 H 701.287 -2.46214 -5.17737 0
M  V30 7481 H 699.684 -3.2429 -5.04932 0
M  V30 7482 H 700.754 -3.20793 -3.6362 0
M  V30 7483 N 702.098 1.27442 -0.927168 0
M  V30 7484 C 703.061 2.2512 -0.430525 0
M  V30 7485 C 704.061 1.54357 0.450619 0
M  V30 7486 O 705.251 1.72371 0.251774 0
M  V30 7487 C 702.383 3.38763 0.381144 0
M  V30 7488 H 703.576 2.70569 -1.29354 0
M  V30 7489 H 701.129 1.39355 -0.707806 0
M  V30 7490 H 701.864 2.98695 1.263 0
M  V30 7491 H 701.649 3.91298 -0.250618 0
M  V30 7492 H 703.139 4.11364 0.719012 0
M  V30 7493 N 703.576 0.692616 1.41565 0
M  V30 7494 C 704.804 0.231279 2.05603 0
M  V30 7495 C 705.219 -1.11837 1.52111 0
M  V30 7496 O 704.576 -1.6983 0.66813 0
M  V30 7497 C 704.627 0.177125 3.61066 0
M  V30 7498 O 704.348 1.47346 4.12578 0
M  V30 7499 C 705.849 -0.30556 4.42246 0
M  V30 7500 H 703.069 0.108238 0.662213 0
M  V30 7501 H 705.613 0.944369 1.81389 0
M  V30 7502 H 703.768 -0.486769 3.8433 0
M  V30 7503 H 704.182 1.35861 5.06599 0
M  V30 7504 H 705.656 -0.29233 5.51225 0
M  V30 7505 H 706.133 -1.34393 4.18133 0
M  V30 7506 H 706.739 0.327229 4.24039 0
M  V30 7507 N 705.054 -1.51416 0.437162 0
M  V30 7508 C 706.3 -2.02386 -0.129555 0
M  V30 7509 C 706.633 -1.32071 -1.42376 0
M  V30 7510 O 705.908 -0.43559 -1.8956 0
M  V30 7511 C 706.191 -3.5841 -0.348487 0
M  V30 7512 C 706.044 -4.39341 0.964352 0
M  V30 7513 C 707.363 -4.25654 -1.11834 0
M  V30 7514 H 704.482 -0.735587 -0.0456109 0
M  V30 7515 H 707.124 -1.81055 0.576124 0
M  V30 7516 H 705.274 -3.76716 -0.949592 0
M  V30 7517 H 706.946 -4.32685 1.59942 0
M  V30 7518 H 705.189 -4.04432 1.56898 0
M  V30 7519 H 705.86 -5.4667 0.765212 0
M  V30 7520 H 708.336 -4.11617 -0.609165 0
M  V30 7521 H 707.212 -5.34704 -1.24029 0
M  V30 7522 H 707.473 -3.86502 -2.14636 0
M  V30 7523 N 706.532 -0.168513 -1.56696 0
M  V30 7524 C 707.78 0.476216 -1.96409 0
M  V30 7525 C 708.101 1.63968 -1.05544 0
M  V30 7526 O 707.371 1.95525 -0.121235 0
M  V30 7527 H 705.951 0.178921 -0.725256 0
M  V30 7528 H 708.613 -0.249042 -1.93302 0
M  V30 7529 H 707.709 0.838094 -3.00637 0
M  V30 7530 N 708.01 1.57248 0.105221 0
M  V30 7531 C 709.258 1.85204 0.808951 0
M  V30 7532 C 709.579 0.75574 1.7976 0
M  V30 7533 O 708.849 -0.218984 1.94672 0
M  V30 7534 H 707.429 0.683346 0.301739 0
M  V30 7535 H 710.091 1.94695 0.0892605 0
M  V30 7536 H 709.187 2.81595 1.34575 0
M  V30 7537 N 709.488 -0.375779 1.53054 0
M  V30 7538 C 710.735 -1.11948 1.68742 0
M  V30 7539 C 711.063 -1.89596 0.434015 0
M  V30 7540 O 710.318 -1.86787 -0.583867 0
M  V30 7541 C 710.617 -2.11356 2.88207 0
M  V30 7542 C 710.283 -1.50266 4.25124 0
M  V30 7543 C 708.945 -1.33333 4.62359 0
M  V30 7544 C 711.297 -1.05976 5.10312 0
M  V30 7545 C 708.625 -0.706765 5.82427 0
M  V30 7546 C 710.977 -0.447241 6.31017 0
M  V30 7547 C 709.641 -0.265314 6.66973 0
M  V30 7548 H 708.911 -0.409648 0.61747 0
M  V30 7549 H 711.558 -0.402492 1.87222 0
M  V30 7550 H 709.863 -2.89322 2.64197 0
M  V30 7551 H 711.56 -2.68833 2.97539 0
M  V30 7552 H 708.15 -1.64437 3.95801 0
M  V30 7553 H 712.334 -1.17855 4.82104 0
M  V30 7554 H 707.59 -0.554132 6.08884 0
M  V30 7555 H 711.764 -0.0958064 6.96334 0
M  V30 7556 H 709.391 0.222267 7.59875 0
M  V30 7557 N 710.966 -1.44241 -0.634997 0
M  V30 7558 C 712.214 -1.46531 -1.39187 0
M  V30 7559 C 712.535 -0.0976441 -1.94755 0
M  V30 7560 O 711.805 0.869528 -1.75545 0
M  V30 7561 H 710.385 -0.539544 -0.516625 0
M  V30 7562 H 713.047 -1.79989 -0.747655 0
M  V30 7563 H 712.143 -2.18848 -2.22513 0
M  V30 7564 N 712.444 0.87505 -1.31075 0
M  V30 7565 C 713.693 1.62245 -1.19831 0
M  V30 7566 C 714.006 1.94078 0.24357 0
M  V30 7567 O 715.212 2.67265 0.477646 0
M  V30 7568 C 713.668 2.92464 -2.09744 0
M  V30 7569 C 713.276 2.68134 -3.58898 0
M  V30 7570 C 715.02 3.70449 -2.07287 0
M  V30 7571 C 712.927 3.9423 -4.40836 0
M  V30 7572 H 711.857 0.608741 -0.444916 0
M  V30 7573 H 714.508 0.967947 -1.55894 0
M  V30 7574 H 712.89 3.59262 -1.66574 0
M  V30 7575 H 714.064 2.09776 -4.10281 0
M  V30 7576 H 712.379 2.03511 -3.6328 0
M  V30 7577 H 714.976 4.63983 -2.65752 0
M  V30 7578 H 715.319 4.02611 -1.05876 0
M  V30 7579 H 715.852 3.10528 -2.48631 0
M  V30 7580 H 712.591 3.67221 -5.42982 0
M  V30 7581 H 712.111 4.52058 -3.94213 0
M  V30 7582 H 713.79 4.62162 -4.52786 0
M  V30 7583 N 713.922 1.13953 1.08869 0
M  V30 7584 C 714.852 0.844824 2.17681 0
M  V30 7585 C 715.833 -0.198213 1.68941 0
M  V30 7586 O 717.018 -0.0559073 1.9412 0
M  V30 7587 C 714.148 0.316325 3.45856 0
M  V30 7588 C 713.102 1.29426 4.07962 0
M  V30 7589 C 712.428 0.625275 5.31031 0
M  V30 7590 C 713.728 2.65484 4.49795 0
M  V30 7591 H 715.422 1.75471 2.42591 0
M  V30 7592 H 712.968 0.845116 1.16592 0
M  V30 7593 H 714.921 0.0977876 4.21287 0
M  V30 7594 H 713.645 -0.628972 3.20486 0
M  V30 7595 H 712.304 1.49889 3.34558 0
M  V30 7596 H 711.952 -0.325678 5.01945 0
M  V30 7597 H 711.652 1.27777 5.73539 0
M  V30 7598 H 713.176 0.416152 6.0918 0
M  V30 7599 H 714.59 2.48957 5.16424 0
M  V30 7600 H 712.987 3.26963 5.03205 0
M  V30 7601 H 714.057 3.22717 3.61914 0
M  V30 7602 N 715.4 -1.26948 0.933913 0
M  V30 7603 C 716.31 -2.30366 0.443671 0
M  V30 7604 C 717.326 -1.67284 -0.478745 0
M  V30 7605 O 718.502 -1.98156 -0.360043 0
M  V30 7606 C 715.567 -3.45485 -0.289974 0
M  V30 7607 C 714.628 -4.24069 0.668114 0
M  V30 7608 C 713.861 -5.33691 -0.0306138 0
M  V30 7609 O 714.084 -5.5656 -1.24888 0
M  V30 7610 O 713.018 -5.98441 0.644384 0
M  V30 7611 H 716.844 -2.74349 1.30254 0
M  V30 7612 H 714.429 -1.32012 0.699506 0
M  V30 7613 H 716.311 -4.15486 -0.70353 0
M  V30 7614 H 714.986 -3.03546 -1.12435 0
M  V30 7615 H 713.893 -3.56579 1.13147 0
M  V30 7616 H 715.226 -4.69739 1.46989 0
M  V30 7617 N 716.879 -0.700114 -1.41195 0
M  V30 7618 C 717.789 -0.0382854 -2.34569 0
M  V30 7619 C 718.805 0.761036 -1.56474 0
M  V30 7620 O 719.981 0.697553 -1.88934 0
M  V30 7621 C 717.046 0.883522 -3.35253 0
M  V30 7622 C 716.107 0.0758957 -4.29233 0
M  V30 7623 C 715.34 0.9538 -5.25108 0
M  V30 7624 O 715.563 2.19326 -5.26547 0
M  V30 7625 O 714.497 0.401049 -6.00562 0
M  V30 7626 H 718.323 -0.808073 -2.92752 0
M  V30 7627 H 715.908 -0.460479 -1.42127 0
M  V30 7628 H 717.79 1.41199 -3.9704 0
M  V30 7629 H 716.465 1.63272 -2.79506 0
M  V30 7630 H 715.372 -0.497274 -3.7078 0
M  V30 7631 H 716.705 -0.634741 -4.8809 0
M  V30 7632 N 718.357 1.51182 -0.445186 0
M  V30 7633 C 719.29 2.24528 0.4077 0
M  V30 7634 C 720.268 1.26778 1.01814 0
M  V30 7635 O 721.452 1.55934 1.05909 0
M  V30 7636 C 718.579 3.00171 1.56892 0
M  V30 7637 C 717.625 4.12641 1.0784 0
M  V30 7638 S 718.458 5.35498 0.014049 0
M  V30 7639 C 719.614 6.14681 1.17975 0
M  V30 7640 H 719.847 2.96522 -0.214987 0
M  V30 7641 H 717.38 1.52681 -0.229781 0
M  V30 7642 H 719.338 3.44349 2.23459 0
M  V30 7643 H 717.999 2.27752 2.16304 0
M  V30 7644 H 717.192 4.64875 1.94698 0
M  V30 7645 H 716.794 3.70765 0.490852 0
M  V30 7646 H 719.086 6.44244 2.09658 0
M  V30 7647 H 720.029 7.04659 0.697222 0
M  V30 7648 H 720.437 5.46299 1.42187 0
M  V30 7649 N 719.835 0.176821 1.56605 0
M  V30 7650 C 721.075 -0.469104 1.98944 0
M  V30 7651 C 721.439 -1.60048 1.06059 0
M  V30 7652 O 722.64 -2.30934 1.3756 0
M  V30 7653 C 720.911 -0.934571 3.44965 0
M  V30 7654 S 722.47 -1.58091 4.09332 0
M  V30 7655 H 719.288 -0.150695 0.694847 0
M  V30 7656 H 721.89 0.27558 1.93548 0
M  V30 7657 H 720.594 -0.100814 4.10276 0
M  V30 7658 H 720.125 -1.71316 3.54139 0
M  V30 7659 H 722.14 -2.86922 4.04834 0
M  V30 7660 N 721.313 -1.57302 -0.09688 0
M  V30 7661 C 722.559 -1.86273 -0.801885 0
M  V30 7662 C 722.892 -0.765694 -1.78468 0
M  V30 7663 O 722.167 0.226495 -1.93177 0
M  V30 7664 C 722.45 -3.25876 -1.53221 0
M  V30 7665 C 722.303 -4.46205 -0.567529 0
M  V30 7666 C 723.622 -3.63352 -2.48321 0
M  V30 7667 H 720.741 -0.67752 -0.29006 0
M  V30 7668 H 723.383 -1.89887 -0.0655577 0
M  V30 7669 H 721.533 -3.22926 -2.15988 0
M  V30 7670 H 723.205 -4.6127 0.0529982 0
M  V30 7671 H 721.448 -4.33636 0.119233 0
M  V30 7672 H 722.119 -5.40608 -1.11564 0
M  V30 7673 H 724.595 -3.67234 -1.95648 0
M  V30 7674 H 723.471 -4.61968 -2.9644 0
M  V30 7675 H 723.732 -2.91941 -3.31998 0
M  V30 7676 N 722.791 0.367657 -1.53252 0
M  V30 7677 C 723.739 1.47061 -1.8021 0
M  V30 7678 C 724.733 1.55539 -0.671112 0
M  V30 7679 O 725.939 1.58451 -0.854014 0
M  V30 7680 H 722.314 0.489868 -0.570555 0
M  V30 7681 H 724.285 1.21527 -2.72532 0
M  V30 7682 C 723.034 2.83924 -2.00706 0
M  V30 7683 H 722.357 2.78158 -2.87172 0
M  V30 7684 H 723.797 3.60281 -2.23547 0
M  V30 7685 C 722.256 3.27613 -0.785568 0
M  V30 7686 O 722.786 4.01691 0.0267459 0
M  V30 7687 N 720.992 2.84134 -0.609597 0
M  V30 7688 H 720.539 2.24017 -1.27178 0
M  V30 7689 H 720.497 3.13723 0.206281 0
M  V30 7690 N 724.269 1.44576 0.627338 0
M  V30 7691 C 725.499 1.50829 1.41189 0
M  V30 7692 C 725.907 0.133083 1.88731 0
M  V30 7693 O 725.25 -0.87199 1.61685 0
M  V30 7694 C 725.312 2.41449 2.66351 0
M  V30 7695 C 724.976 3.88549 2.40579 0
M  V30 7696 C 725.973 4.78981 2.0217 0
M  V30 7697 C 723.658 4.33287 2.54102 0
M  V30 7698 C 725.652 6.12153 1.77618 0
M  V30 7699 C 723.339 5.66505 2.29163 0
M  V30 7700 C 724.337 6.55756 1.9098 0
M  V30 7701 O 724.025 7.86506 1.66321 0
M  V30 7702 H 723.757 0.513797 0.439304 0
M  V30 7703 H 726.311 1.90256 0.774059 0
M  V30 7704 H 724.541 1.96955 3.32784 0
M  V30 7705 H 726.23 2.38608 3.28361 0
M  V30 7706 H 726.996 4.45689 1.91277 0
M  V30 7707 H 722.875 3.64074 2.82792 0
M  V30 7708 H 726.419 6.81776 1.47739 0
M  V30 7709 H 722.316 5.99358 2.39668 0
M  V30 7710 H 723.084 7.98341 1.80536 0
M  V30 7711 N 725.747 -0.868086 1.31537 0
M  V30 7712 C 726.993 -1.62367 1.2151 0
M  V30 7713 C 727.326 -1.92883 -0.225819 0
M  V30 7714 O 726.601 -1.56176 -1.15927 0
M  V30 7715 C 726.884 -2.95268 2.06129 0
M  V30 7716 C 726.737 -2.71619 3.58529 0
M  V30 7717 C 728.056 -3.96391 1.91212 0
M  V30 7718 H 725.175 -0.589178 0.442762 0
M  V30 7719 H 727.817 -1.00336 1.61347 0
M  V30 7720 H 725.967 -3.4821 1.72284 0
M  V30 7721 H 727.639 -2.25334 4.0252 0
M  V30 7722 H 725.882 -2.05817 3.81866 0
M  V30 7723 H 726.553 -3.66192 4.13047 0
M  V30 7724 H 729.029 -3.52663 2.20834 0
M  V30 7725 H 727.905 -4.87263 2.52718 0
M  V30 7726 H 728.166 -4.33335 0.875953 0
M  V30 7727 N 727.225 -1.14528 -1.08264 0
M  V30 7728 C 728.175 -0.802141 -2.13424 0
M  V30 7729 C 729.159 0.209362 -1.59532 0
M  V30 7730 O 730.351 0.0114859 -1.76996 0
M  V30 7731 C 727.48 -0.282938 -3.42132 0
M  V30 7732 C 726.566 -1.32405 -4.02902 0
M  V30 7733 N 726.957 -2.52861 -4.38058 0
M  V30 7734 C 725.255 -1.17462 -4.30254 0
M  V30 7735 C 725.956 -3.1952 -4.86088 0
M  V30 7736 N 724.932 -2.46921 -4.84284 0
M  V30 7737 H 728.734 -1.71843 -2.38426 0
M  V30 7738 H 726.248 -1.02936 -1.2561 0
M  V30 7739 H 728.245 -0.0188053 -4.16896 0
M  V30 7740 H 726.905 0.627533 -3.18578 0
M  V30 7741 H 727.916 -2.90078 -4.2904 0
M  V30 7742 H 724.593 -0.323283 -4.16246 0
M  V30 7743 H 725.983 -4.2223 -5.22658 0
M  V30 7744 N 728.703 1.26451 -0.940633 0
M  V30 7745 C 729.933 1.97581 -0.603766 0
M  V30 7746 C 730.341 1.70246 0.825395 0
M  V30 7747 O 729.684 0.967001 1.56188 0
M  V30 7748 C 729.746 3.51256 -0.765463 0
M  V30 7749 C 729.41 4.0224 -2.16915 0
M  V30 7750 C 730.407 4.1402 -3.14457 0
M  V30 7751 C 728.092 4.36263 -2.48958 0
M  V30 7752 C 730.086 4.59117 -4.42143 0
M  V30 7753 C 727.773 4.81048 -3.76877 0
M  V30 7754 C 728.771 4.92436 -4.73282 0
M  V30 7755 O 728.459 5.36234 -5.98923 0
M  V30 7756 H 728.191 0.636948 -0.226436 0
M  V30 7757 H 730.745 1.61941 -1.2635 0
M  V30 7758 H 728.975 3.86669 -0.0485956 0
M  V30 7759 H 730.664 4.03597 -0.431738 0
M  V30 7760 H 731.43 3.87981 -2.91026 0
M  V30 7761 H 727.309 4.26634 -1.74656 0
M  V30 7762 H 730.853 4.6792 -5.17394 0
M  V30 7763 H 726.75 5.06531 -4.00121 0
M  V30 7764 H 727.518 5.54456 -6.02097 0
M  V30 7765 N 730.181 0.707592 1.40822 0
M  V30 7766 C 731.411 0.252706 2.05049 0
M  V30 7767 C 731.819 -1.10758 1.53393 0
M  V30 7768 O 731.162 -1.70567 0.682097 0
M  V30 7769 C 731.224 0.146001 3.59203 0
M  V30 7770 C 730.888 1.44027 4.33711 0
M  V30 7771 C 731.885 2.38058 4.62195 0
M  V30 7772 C 729.57 1.69698 4.72766 0
M  V30 7773 C 731.564 3.56013 5.28709 0
M  V30 7774 C 729.251 2.87936 5.39014 0
M  V30 7775 C 730.249 3.80915 5.66915 0
M  V30 7776 O 729.937 4.9708 6.31796 0
M  V30 7777 H 729.669 0.112784 0.666525 0
M  V30 7778 H 732.223 0.96417 1.81364 0
M  V30 7779 H 730.453 -0.621338 3.81676 0
M  V30 7780 H 732.142 -0.273275 4.04979 0
M  V30 7781 H 732.908 2.19487 4.32493 0
M  V30 7782 H 728.787 0.981835 4.50423 0
M  V30 7783 H 732.331 4.28604 5.50404 0
M  V30 7784 H 728.228 3.06419 5.68135 0
M  V30 7785 H 728.996 4.97053 6.50293 0
M  V30 7786 N 731.66 -1.50943 0.453197 0
M  V30 7787 C 733.071 -1.86699 -0.00619892 0
M  V30 7788 C 733.422 -1.3693 -1.40515 0
M  V30 7789 O 732.547 -0.726715 -2.03833 0
M  V30 7790 C 733.142 -3.38795 -0.018025 0
M  V30 7791 C 731.701 -3.74028 -0.421885 0
M  V30 7792 C 730.848 -2.74752 0.375087 0
M  V30 7793 H 733.799 -1.43942 0.668317 0
M  V30 7794 H 733.82 -3.71468 -0.824125 0
M  V30 7795 H 733.332 -3.74988 1.00028 0
M  V30 7796 H 731.433 -3.43431 -1.44521 0
M  V30 7797 H 731.546 -4.78908 -0.135664 0
M  V30 7798 H 729.91 -2.5414 -0.168794 0
M  V30 7799 H 730.693 -3.13787 1.39256 0
M  V30 7800 N 733.138 -0.185124 -1.56509 0
M  V30 7801 C 734.07 0.771401 -2.15829 0
M  V30 7802 C 735.083 1.18392 -1.11747 0
M  V30 7803 O 736.272 1.12137 -1.38879 0
M  V30 7804 C 733.372 2.05169 -2.69739 0
M  V30 7805 C 732.545 1.80056 -3.98621 0
M  V30 7806 C 731.604 2.92435 -4.37456 0
M  V30 7807 O 730.63 2.62473 -5.05071 0
M  V30 7808 N 731.832 4.20554 -4.00143 0
M  V30 7809 H 734.597 0.264184 -2.98533 0
M  V30 7810 H 732.158 -0.00281069 -1.619 0
M  V30 7811 H 734.15 2.7947 -2.92709 0
M  V30 7812 H 732.72 2.47041 -1.91545 0
M  V30 7813 H 731.94 0.895862 -3.83885 0
M  V30 7814 H 733.228 1.60662 -4.82768 0
M  V30 7815 H 732.626 4.47753 -3.45736 0
M  V30 7816 H 731.183 4.91514 -4.28085 0
M  V30 7817 N 734.616 1.57351 0.0885366 0
M  V30 7818 C 735.844 1.90631 0.804196 0
M  V30 7819 C 736.259 0.779474 1.71958 0
M  V30 7820 O 735.616 -0.248179 1.80805 0
M  V30 7821 C 735.667 3.23568 1.61202 0
M  V30 7822 O 735.388 4.31917 0.733447 0
M  V30 7823 C 736.889 3.70753 2.43016 0
M  V30 7824 H 734.109 0.630501 0.229585 0
M  V30 7825 H 736.653 2.044 0.0638092 0
M  V30 7826 H 734.808 3.11377 2.30485 0
M  V30 7827 H 735.222 5.08297 1.29361 0
M  V30 7828 H 736.696 4.66447 2.9518 0
M  V30 7829 H 737.173 2.98922 3.2178 0
M  V30 7830 H 737.779 3.85834 1.7892 0
M  V30 7831 N 736.094 -0.359525 1.53444 0
M  V30 7832 C 737.026 -1.46098 1.76602 0
M  V30 7833 C 738.039 -1.49395 0.646912 0
M  V30 7834 O 739.228 -1.52765 0.923307 0
M  V30 7835 C 736.328 -2.84836 1.83635 0
M  V30 7836 C 735.501 -3.05164 3.13358 0
M  V30 7837 C 734.56 -4.24051 3.11556 0
M  V30 7838 O 733.586 -4.18935 3.85334 0
M  V30 7839 N 734.788 -5.31775 2.328 0
M  V30 7840 H 737.553 -1.2661 2.71643 0
M  V30 7841 H 735.114 -0.549294 1.52297 0
M  V30 7842 H 737.106 -3.62516 1.799 0
M  V30 7843 H 735.676 -2.97542 0.958509 0
M  V30 7844 H 734.896 -2.15091 3.30348 0
M  V30 7845 H 736.184 -3.15619 3.99076 0
M  V30 7846 H 735.582 -5.38796 1.7238 0
M  V30 7847 H 734.139 -6.0801 2.34877 0
M  V30 7848 N 737.572 -1.44907 -0.619662 0
M  V30 7849 C 738.502 -1.55488 -1.742 0
M  V30 7850 C 739.483 -0.407143 -1.65156 0
M  V30 7851 O 740.668 -0.628743 -1.8374 0
M  V30 7852 C 737.798 -1.5097 -3.1277 0
M  V30 7853 C 736.752 -2.64337 -3.36615 0
M  V30 7854 C 736.078 -2.44872 -4.75333 0
M  V30 7855 C 737.378 -4.06423 -3.28051 0
M  V30 7856 H 739.072 -2.49432 -1.65602 0
M  V30 7857 H 736.618 -1.20047 -0.795281 0
M  V30 7858 H 738.571 -1.56971 -3.91073 0
M  V30 7859 H 737.295 -0.535486 -3.2218 0
M  V30 7860 H 735.954 -2.57744 -2.60698 0
M  V30 7861 H 735.602 -1.45617 -4.81461 0
M  V30 7862 H 735.302 -3.20888 -4.92244 0
M  V30 7863 H 736.826 -2.52709 -5.55851 0
M  V30 7864 H 738.24 -4.14324 -3.96243 0
M  V30 7865 H 736.637 -4.82733 -3.56495 0
M  V30 7866 H 737.707 -4.29183 -2.25676 0
M  V30 7867 N 739.05 0.861098 -1.31996 0
M  V30 7868 C 739.96 2.00154 -1.22374 0
M  V30 7869 C 740.976 1.73447 -0.138631 0
M  V30 7870 O 742.152 1.98191 -0.358104 0
M  V30 7871 C 739.217 3.33696 -0.940645 0
M  V30 7872 C 738.278 3.73668 -2.11355 0
M  V30 7873 C 737.511 5.00837 -1.84386 0
M  V30 7874 O 737.734 5.64996 -0.783287 0
M  V30 7875 O 736.668 5.37787 -2.70313 0
M  V30 7876 H 740.494 2.11207 -2.18233 0
M  V30 7877 H 738.079 0.990768 -1.11822 0
M  V30 7878 H 739.961 4.13756 -0.798987 0
M  V30 7879 H 738.636 3.23698 -0.0121636 0
M  V30 7880 H 737.543 2.94211 -2.31065 0
M  V30 7881 H 738.876 3.88303 -3.02459 0
M  V30 7882 N 740.528 1.15101 1.07655 0
M  V30 7883 C 741.458 0.867864 2.16773 0
M  V30 7884 C 742.439 -0.180283 1.69142 0
M  V30 7885 O 743.624 -0.0353152 1.94168 0
M  V30 7886 C 740.754 0.35299 3.45501 0
M  V30 7887 C 739.708 1.33746 4.06566 0
M  V30 7888 C 739.034 0.681562 5.30338 0
M  V30 7889 C 740.334 2.7024 4.46954 0
M  V30 7890 H 742.028 1.78034 2.40716 0
M  V30 7891 H 739.574 0.857435 1.15689 0
M  V30 7892 H 741.527 0.142465 4.21159 0
M  V30 7893 H 740.251 -0.594945 3.21135 0
M  V30 7894 H 738.91 1.53429 3.32949 0
M  V30 7895 H 738.558 -0.272422 5.02262 0
M  V30 7896 H 738.258 1.33853 5.72151 0
M  V30 7897 H 739.782 0.48074 6.08705 0
M  V30 7898 H 741.196 2.5442 5.13754 0
M  V30 7899 H 739.593 3.32282 4.99709 0
M  V30 7900 H 740.663 3.26537 3.58471 0
M  V30 7901 N 742.006 -1.2595 0.947325 0
M  V30 7902 C 743.246 -1.95218 0.605743 0
M  V30 7903 C 743.61 -1.72624 -0.84054 0
M  V30 7904 O 744.811 -2.35748 -1.29136 0
M  V30 7905 C 743.082 -3.44654 0.94596 0
M  V30 7906 S 744.641 -4.32922 0.715849 0
M  V30 7907 H 741.459 -0.675159 0.222894 0
M  V30 7908 H 744.061 -1.52766 1.21995 0
M  V30 7909 H 742.765 -3.586 1.99585 0
M  V30 7910 H 742.296 -3.92082 0.321718 0
M  V30 7911 H 744.311 -4.94445 -0.416959 0
M  V30 7912 N 743.484 -0.715051 -1.40445 0
M  V30 7913 C 744.431 -0.0621393 -2.30716 0
M  V30 7914 C 745.401 0.750871 -1.48159 0
M  V30 7915 O 746.586 0.714928 -1.76899 0
M  V30 7916 C 743.726 0.854036 -3.34365 0
M  V30 7917 C 742.839 0.0305565 -4.31989 0
M  V30 7918 C 741.974 0.946162 -5.22706 0
M  V30 7919 C 741.013 0.116741 -6.11989 0
M  V30 7920 N 740.15 0.987194 -6.95125 0
M  V30 7921 H 744.99 -0.83764 -2.85985 0
M  V30 7922 H 742.527 -0.424759 -1.40834 0
M  V30 7923 H 744.485 1.39946 -3.93028 0
M  V30 7924 H 743.115 1.59572 -2.806 0
M  V30 7925 H 742.167 -0.632044 -3.75112 0
M  V30 7926 H 743.479 -0.611615 -4.95036 0
M  V30 7927 H 742.633 1.56014 -5.86297 0
M  V30 7928 H 741.372 1.62216 -4.59932 0
M  V30 7929 H 740.377 -0.510176 -5.47428 0
M  V30 7930 H 741.602 -0.555742 -6.76822 0
M  V30 7931 H 739.548 1.64885 -6.3494 0
M  V30 7932 H 739.465 0.401046 -7.54936 0
M  V30 7933 H 740.733 1.58737 -7.63166 0
M  V30 7934 N 744.962 1.50701 -0.461195 0
M  V30 7935 C 746.187 2.07171 0.0974773 0
M  V30 7936 C 746.612 1.32391 1.3362 0
M  V30 7937 O 745.97 0.368676 1.77512 0
M  V30 7938 C 746.018 3.58651 0.374409 0
M  V30 7939 O 745.122 3.85816 1.4567 0
M  V30 7940 H 744.463 0.663944 -0.00862047 0
M  V30 7941 H 746.993 1.94021 -0.649394 0
M  V30 7942 H 747.003 4.03295 0.617843 0
M  V30 7943 H 745.678 4.12498 -0.530829 0
M  V30 7944 H 744.255 3.53018 1.20136 0
M  V30 7945 N 746.441 0.193421 1.56409 0
M  V30 7946 C 747.404 -0.714371 2.17783 0
M  V30 7947 C 748.404 -1.1422 1.13183 0
M  V30 7948 O 749.594 -1.05557 1.38576 0
M  V30 7949 C 746.726 -1.97509 2.77855 0
M  V30 7950 H 747.919 -0.179714 2.99361 0
M  V30 7951 H 745.472 -0.0561944 1.56199 0
M  V30 7952 H 746.207 -2.5523 2.0007 0
M  V30 7953 H 745.992 -1.67706 3.54425 0
M  V30 7954 H 747.482 -2.62246 3.24987 0
M  V30 7955 N 747.919 -1.57396 -0.0801906 0
M  V30 7956 C 749.165 -1.87113 -0.782083 0
M  V30 7957 C 749.498 -0.78458 -1.77646 0
M  V30 7958 O 748.773 0.205993 -1.93406 0
M  V30 7959 C 749.056 -3.27483 -1.49756 0
M  V30 7960 C 748.909 -4.46782 -0.520171 0
M  V30 7961 C 750.228 -3.65965 -2.44454 0
M  V30 7962 H 747.347 -0.680559 -0.282858 0
M  V30 7963 H 749.989 -1.89946 -0.0454139 0
M  V30 7964 H 748.139 -3.25199 -2.12551 0
M  V30 7965 H 749.811 -4.61187 0.101919 0
M  V30 7966 H 748.054 -4.33485 0.165219 0
M  V30 7967 H 748.725 -5.41761 -1.05824 0
M  V30 7968 H 751.201 -3.69289 -1.91742 0
M  V30 7969 H 750.077 -4.65086 -2.91524 0
M  V30 7970 H 750.338 -2.95446 -3.28883 0
M  V30 7971 N 749.397 0.351382 -1.53633 0
M  V30 7972 C 750.674 1.10903 -1.6112 0
M  V30 7973 C 751.054 2.06725 -0.427556 0
M  V30 7974 O 750.402 2.20992 0.580916 0
M  V30 7975 C 750.612 1.83561 -2.96827 0
M  V30 7976 C 751.96 2.37587 -3.51906 0
M  V30 7977 O 752.984 1.93669 -2.9895 0
M  V30 7978 O 751.843 3.17913 -4.44515 0
M  V30 7979 H 748.937 0.509558 -0.651368 0
M  V30 7980 H 751.483 0.353504 -1.65977 0
M  V30 7981 H 750.255 1.1371 -3.74414 0
M  V30 7982 H 749.878 2.6599 -2.95525 0
M  V30 7983 N 750.875 1.45233 0.611969 0
M  V30 7984 C 751.838 1.53189 1.70487 0
M  V30 7985 C 752.838 0.411839 1.55437 0
M  V30 7986 O 754.028 0.675164 1.60584 0
M  V30 7987 C 751.16 1.42422 3.09723 0
M  V30 7988 H 752.353 2.5056 1.64802 0
M  V30 7989 H 749.906 1.32609 0.827318 0
M  V30 7990 H 750.641 0.462185 3.2099 0
M  V30 7991 H 750.426 2.23658 3.22055 0
M  V30 7992 H 751.916 1.51012 3.89339 0
M  V30 7993 N 752.353 -0.854086 1.3245 0
M  V30 7994 C 753.601 -1.60513 1.228 0
M  V30 7995 C 753.922 -1.93865 -0.210073 0
M  V30 7996 O 753.192 -1.59673 -1.13496 0
M  V30 7997 H 751.772 -0.595099 0.451516 0
M  V30 7998 H 754.434 -1.0216 1.6598 0
M  V30 7999 H 753.53 -2.54182 1.81102 0
M  V30 8000 N 753.831 -1.1567 -1.07043 0
M  V30 8001 C 755.078 -0.933517 -1.79699 0
M  V30 8002 C 755.406 0.539162 -1.86878 0
M  V30 8003 O 754.661 1.41592 -1.35093 0
M  V30 8004 C 754.96 -1.49677 -3.24548 0
M  V30 8005 C 754.626 -2.99047 -3.37463 0
M  V30 8006 C 753.288 -3.39824 -3.40695 0
M  V30 8007 C 755.64 -3.95027 -3.40004 0
M  V30 8008 C 752.968 -4.75215 -3.44075 0
M  V30 8009 C 755.32 -5.30295 -3.44921 0
M  V30 8010 C 753.984 -5.70562 -3.46432 0
M  V30 8011 H 753.254 -0.341598 -0.657565 0
M  V30 8012 H 755.901 -1.44263 -1.25938 0
M  V30 8013 H 754.206 -0.908915 -3.81111 0
M  V30 8014 H 755.903 -1.29986 -3.79348 0
M  V30 8015 H 752.493 -2.6653 -3.35648 0
M  V30 8016 H 756.677 -3.64596 -3.36725 0
M  V30 8017 H 751.933 -5.05754 -3.43545 0
M  V30 8018 H 756.107 -6.0446 -3.45833 0
M  V30 8019 H 753.734 -6.75456 -3.48803 0
M  V30 8020 N 755.309 1.25446 -0.953992 0
M  V30 8021 C 756.239 2.28264 -0.491717 0
M  V30 8022 C 757.22 1.63717 0.461617 0
M  V30 8023 O 758.405 1.90821 0.36071 0
M  V30 8024 C 755.535 3.46525 0.231915 0
M  V30 8025 C 754.489 4.23247 -0.636098 0
M  V30 8026 C 753.815 5.34254 0.218238 0
M  V30 8027 C 755.115 4.85971 -1.91389 0
M  V30 8028 H 756.809 2.67183 -1.35106 0
M  V30 8029 H 754.355 1.2844 -0.651095 0
M  V30 8030 H 756.308 4.17576 0.566439 0
M  V30 8031 H 755.032 3.06594 1.12551 0
M  V30 8032 H 753.691 3.53978 -0.953696 0
M  V30 8033 H 753.339 4.90564 1.11156 0
M  V30 8034 H 753.039 5.86501 -0.359232 0
M  V30 8035 H 754.563 6.08138 0.547743 0
M  V30 8036 H 755.977 5.49168 -1.64581 0
M  V30 8037 H 754.374 5.48391 -2.43696 0
M  V30 8038 H 755.444 4.08192 -2.61738 0
M  V30 8039 N 756.787 0.722489 1.40064 0
M  V30 8040 C 757.719 0.0349057 2.29173 0
M  V30 8041 C 758.732 -0.716571 1.46182 0
M  V30 8042 O 759.921 -0.562806 1.69395 0
M  V30 8043 C 757.021 -0.974839 3.24577 0
M  V30 8044 C 756.194 -0.287471 4.36454 0
M  V30 8045 C 755.253 -1.20356 5.12251 0
M  V30 8046 O 754.279 -0.685753 5.65054 0
M  V30 8047 N 755.481 -2.53422 5.22262 0
M  V30 8048 H 758.246 0.800058 2.88824 0
M  V30 8049 H 755.807 0.57068 1.51509 0
M  V30 8050 H 757.799 -1.59002 3.72157 0
M  V30 8051 H 756.369 -1.6413 2.66046 0
M  V30 8052 H 755.589 0.508008 3.90913 0
M  V30 8053 H 756.877 0.189382 5.08447 0
M  V30 8054 H 756.275 -2.97981 4.80857 0
M  V30 8055 H 754.832 -3.10067 5.73325 0
M  V30 8056 N 758.265 -1.50454 0.469181 0
M  V30 8057 C 759.212 -2.28486 -0.325982 0
M  V30 8058 C 760.182 -1.33455 -0.988893 0
M  V30 8059 O 761.367 -1.6239 -1.0017 0
M  V30 8060 C 758.507 -3.15288 -1.40313 0
M  V30 8061 C 757.62 -4.25348 -0.755183 0
M  V30 8062 C 756.755 -4.9941 -1.81006 0
M  V30 8063 C 755.794 -6.01348 -1.14226 0
M  V30 8064 N 754.931 -6.68695 -2.1399 0
M  V30 8065 H 759.771 -2.95987 0.345753 0
M  V30 8066 H 757.308 -1.45965 0.182355 0
M  V30 8067 H 759.266 -3.63964 -2.03927 0
M  V30 8068 H 757.896 -2.49837 -2.04405 0
M  V30 8069 H 756.948 -3.80399 -0.00651901 0
M  V30 8070 H 758.26 -4.98279 -0.227941 0
M  V30 8071 H 757.414 -5.51794 -2.52206 0
M  V30 8072 H 756.153 -4.26181 -2.3711 0
M  V30 8073 H 755.158 -5.48225 -0.415876 0
M  V30 8074 H 756.383 -6.76548 -0.588135 0
M  V30 8075 H 754.329 -5.98258 -2.69115 0
M  V30 8076 H 754.246 -7.37495 -1.66246 0
M  V30 8077 H 755.514 -7.25697 -2.84576 0
M  V30 8078 N 759.743 -0.201713 -1.56304 0
M  V30 8079 C 760.973 0.440084 -2.01858 0
M  V30 8080 C 761.381 1.55279 -1.08098 0
M  V30 8081 O 760.724 1.83529 -0.0792216 0
M  V30 8082 C 760.786 1.05091 -3.43797 0
M  V30 8083 C 760.45 0.0761208 -4.56937 0
M  V30 8084 C 761.447 -0.716951 -5.14933 0
M  V30 8085 C 759.132 -0.0368815 -5.02286 0
M  V30 8086 C 761.126 -1.60993 -6.16733 0
M  V30 8087 C 758.813 -0.933409 -6.03929 0
M  V30 8088 C 759.811 -1.71849 -6.61027 0
M  V30 8089 O 759.499 -2.59998 -7.60695 0
M  V30 8090 H 759.231 0.114139 -0.666294 0
M  V30 8091 H 761.785 -0.309672 -2.03052 0
M  V30 8092 H 760.015 1.84938 -3.3961 0
M  V30 8093 H 761.704 1.59804 -3.73118 0
M  V30 8094 H 762.47 -0.63999 -4.80759 0
M  V30 8095 H 758.349 0.564034 -4.57537 0
M  V30 8096 H 761.893 -2.22315 -6.61227 0
M  V30 8097 H 757.79 -1.01146 -6.37526 0
M  V30 8098 H 758.558 -2.53851 -7.7814 0
M  V30 8099 N 761.222 1.57436 0.0718424 0
M  V30 8100 C 762.469 1.87248 0.771007 0
M  V30 8101 C 762.797 0.793441 1.7758 0
M  V30 8102 O 762.052 -0.210565 1.94564 0
M  V30 8103 C 762.351 3.23723 1.51455 0
M  V30 8104 C 762.017 4.46194 0.649736 0
M  V30 8105 C 760.679 4.79438 0.411409 0
M  V30 8106 C 763.031 5.21176 0.05004 0
M  V30 8107 C 760.359 5.85077 -0.436096 0
M  V30 8108 C 762.711 6.27712 -0.784919 0
M  V30 8109 C 761.375 6.59457 -1.03312 0
M  V30 8110 H 760.645 0.685188 0.282132 0
M  V30 8111 H 763.292 1.91474 0.0317896 0
M  V30 8112 H 761.597 3.15287 2.32597 0
M  V30 8113 H 763.294 3.44023 2.06031 0
M  V30 8114 H 759.884 4.20175 0.84562 0
M  V30 8115 H 764.068 4.95806 0.221282 0
M  V30 8116 H 759.324 6.08071 -0.637136 0
M  V30 8117 H 763.498 6.84974 -1.25635 0
M  V30 8118 H 761.125 7.4114 -1.6916 0
M  V30 8119 N 762.7 -0.34323 1.53817 0
M  V30 8120 C 763.65 -1.42217 1.78208 0
M  V30 8121 C 764.634 -1.4774 0.637304 0
M  V30 8122 O 765.826 -1.52605 0.896705 0
M  V30 8123 C 762.955 -2.79354 1.9954 0
M  V30 8124 C 762.041 -2.78222 3.20084 0
M  V30 8125 N 762.432 -2.46719 4.41547 0
M  V30 8126 C 760.73 -3.09368 3.21259 0
M  V30 8127 C 761.431 -2.53828 5.23399 0
M  V30 8128 N 760.407 -2.89464 4.60121 0
M  V30 8129 H 764.209 -1.16759 2.69712 0
M  V30 8130 H 761.723 -0.551592 1.52746 0
M  V30 8131 H 763.72 -3.57095 2.15148 0
M  V30 8132 H 762.38 -3.05759 1.09278 0
M  V30 8133 H 763.391 -2.19912 4.68891 0
M  V30 8134 H 760.068 -3.40942 2.40966 0
M  V30 8135 H 761.458 -2.32629 6.30344 0
M  V30 8136 N 764.178 -1.45556 -0.604258 0
M  V30 8137 C 765.108 -1.57327 -1.72541 0
M  V30 8138 C 766.089 -0.424637 -1.64714 0
M  V30 8139 O 767.274 -0.648196 -1.83063 0
M  V30 8140 C 764.404 -1.54279 -3.11152 0
M  V30 8141 C 763.358 -2.67893 -3.33792 0
M  V30 8142 C 762.684 -2.499 -4.72709 0
M  V30 8143 C 763.984 -4.0988 -3.23722 0
M  V30 8144 H 765.678 -2.51175 -1.62947 0
M  V30 8145 H 763.224 -1.20884 -0.782504 0
M  V30 8146 H 765.177 -1.6111 -3.89386 0
M  V30 8147 H 763.901 -0.569627 -3.21594 0
M  V30 8148 H 762.56 -2.60495 -2.57949 0
M  V30 8149 H 762.208 -1.50715 -4.79889 0
M  V30 8150 H 761.908 -3.26091 -4.88813 0
M  V30 8151 H 763.432 -2.5859 -5.5314 0
M  V30 8152 H 764.846 -4.18503 -3.91826 0
M  V30 8153 H 763.243 -4.86487 -3.51355 0
M  V30 8154 H 764.313 -4.31553 -2.21111 0
M  V30 8155 N 765.656 0.84705 -1.32902 0
M  V30 8156 C 766.905 1.59667 -1.23245 0
M  V30 8157 C 767.218 1.94551 0.202349 0
M  V30 8158 O 768.424 2.68218 0.420847 0
M  V30 8159 C 766.88 2.8795 -2.15901 0
M  V30 8160 C 766.488 2.60461 -3.64505 0
M  V30 8161 C 768.232 3.65968 -2.15098 0
M  V30 8162 C 766.139 3.84791 -4.49099 0
M  V30 8163 H 765.069 0.599167 -0.457728 0
M  V30 8164 H 767.72 0.934662 -1.57912 0
M  V30 8165 H 766.102 3.55648 -1.74157 0
M  V30 8166 H 767.276 2.01026 -4.14639 0
M  V30 8167 H 765.591 1.9576 -3.67515 0
M  V30 8168 H 768.188 4.58241 -2.75534 0
M  V30 8169 H 768.531 4.00275 -1.14392 0
M  V30 8170 H 769.064 3.05184 -2.55162 0
M  V30 8171 H 765.803 3.55621 -5.50649 0
M  V30 8172 H 765.323 4.43594 -4.03713 0
M  V30 8173 H 767.002 4.52454 -4.62487 0
M  V30 8174 N 767.134 1.16236 1.06428 0
M  V30 8175 C 768.082 0.863669 2.15971 0
M  V30 8176 C 769.076 -0.166723 1.68578 0
M  V30 8177 O 770.282 -0.0208425 1.79988 0
M  V30 8178 H 766.657 0.261684 0.705 0
M  V30 8179 H 768.628 1.79498 2.38376 0
M  V30 8180 C 767.377 0.379697 3.45621 0
M  V30 8181 H 766.7 1.16399 3.82481 0
M  V30 8182 H 768.14 0.209458 4.23482 0
M  V30 8183 C 766.599 -0.900499 3.24642 0
M  V30 8184 O 767.129 -1.97004 3.50074 0
M  V30 8185 N 765.335 -0.843721 2.78082 0
M  V30 8186 H 764.882 0.0268429 2.57586 0
M  V30 8187 H 764.84 -1.70078 2.64425 0
M  V30 8188 N 768.612 -1.24939 0.960631 0
M  V30 8189 C 770.028 -1.45039 0.666018 0
M  V30 8190 C 770.228 -1.86021 -0.774501 0
M  V30 8191 O 769.284 -1.99392 -1.54916 0
M  V30 8192 C 770.597 -2.51775 1.64408 0
M  V30 8193 C 772.145 -2.6561 1.65592 0
M  V30 8194 C 772.62 -3.75536 2.62177 0
M  V30 8195 N 774.111 -3.82954 2.60577 0
M  V30 8196 C 774.846 -4.67517 3.31987 0
M  V30 8197 N 774.342 -5.56321 4.1289 0
M  V30 8198 N 776.135 -4.61535 3.20845 0
M  V30 8199 H 768.286 -0.96632 1.89145 0
M  V30 8200 H 770.549 -0.486034 0.813926 0
M  V30 8201 H 770.255 -2.28534 2.67329 0
M  V30 8202 H 770.129 -3.49804 1.41128 0
M  V30 8203 H 772.516 -2.88212 0.633846 0
M  V30 8204 H 772.597 -1.67962 1.92931 0
M  V30 8205 H 772.241 -3.53684 3.64514 0
M  V30 8206 H 772.171 -4.72682 2.32119 0
M  V30 8207 H 774.662 -3.19478 2.01847 0
M  V30 8208 H 774.975 -6.17787 4.64283 0
M  V30 8209 H 773.32 -5.5601 4.16987 0
M  V30 8210 H 776.511 -3.91169 2.57108 0
M  V30 8211 H 776.684 -5.27214 3.76762 0
M  V30 8212 N 770.09 -0.729906 -1.39679 0
M  V30 8213 C 771.337 -0.275622 -2.00615 0
M  V30 8214 C 771.665 1.13559 -1.57907 0
M  V30 8215 O 770.92 1.78745 -0.796789 0
M  V30 8216 C 771.219 -0.319564 -3.55968 0
M  V30 8217 C 770.885 -1.68308 -4.1831 0
M  V30 8218 C 769.547 -2.05629 -4.35052 0
M  V30 8219 C 771.899 -2.57857 -4.52945 0
M  V30 8220 C 769.227 -3.32018 -4.83716 0
M  V30 8221 C 771.579 -3.83613 -5.03015 0
M  V30 8222 C 770.243 -4.21033 -5.17965 0
M  V30 8223 H 769.513 -0.100857 -0.734104 0
M  V30 8224 H 772.16 -0.93575 -1.67081 0
M  V30 8225 H 770.465 0.42414 -3.89497 0
M  V30 8226 H 772.162 0.0499905 -4.00969 0
M  V30 8227 H 768.752 -1.3829 -4.05677 0
M  V30 8228 H 772.936 -2.30295 -4.39634 0
M  V30 8229 H 768.192 -3.6096 -4.93475 0
M  V30 8230 H 772.366 -4.53162 -5.28788 0
M  V30 8231 H 769.993 -5.19034 -5.55435 0
M  V30 8232 N 771.568 1.50203 -0.477153 0
M  V30 8233 C 772.516 2.30278 0.327826 0
M  V30 8234 C 773.51 1.37831 0.984839 0
M  V30 8235 O 774.716 1.54994 0.915251 0
M  V30 8236 H 771.091 0.741612 0.124564 0
M  V30 8237 H 773.062 2.96124 -0.367853 0
M  V30 8238 C 771.811 3.18548 1.39365 0
M  V30 8239 H 771.134 3.89596 0.897475 0
M  V30 8240 H 772.574 3.77561 1.92934 0
M  V30 8241 C 771.033 2.36548 2.39889 0
M  V30 8242 O 771.563 2.05282 3.45286 0
M  V30 8243 N 769.769 1.99015 2.11758 0
M  V30 8244 H 769.316 2.24641 1.26071 0
M  V30 8245 H 769.274 1.44454 2.7925 0
M  V30 8246 N 773.046 0.209999 1.56195 0
M  V30 8247 C 773.994 -0.721416 2.2113 0
M  V30 8248 C 774.988 -1.20852 1.18706 0
M  V30 8249 O 776.194 -1.16968 1.36815 0
M  V30 8250 H 772.569 -0.251033 0.708863 0
M  V30 8251 H 774.54 -0.150193 2.98022 0
M  V30 8252 C 773.289 -1.92392 2.89621 0
M  V30 8253 H 772.612 -1.5582 3.68185 0
M  V30 8254 H 774.052 -2.55367 3.38473 0
M  V30 8255 C 772.511 -2.77208 1.91461 0
M  V30 8256 O 773.041 -3.75603 1.42426 0
M  V30 8257 N 771.247 -2.43006 1.59363 0
M  V30 8258 H 770.794 -1.63047 1.99433 0
M  V30 8259 H 770.752 -3.00036 0.939449 0
M  V30 8260 N 774.524 -1.57472 -0.0634922 0
M  V30 8261 C 775.434 -2.07621 -1.09227 0
M  V30 8262 C 776.45 -1.00746 -1.41867 0
M  V30 8263 O 777.626 -1.32269 -1.51878 0
M  V30 8264 C 774.691 -2.51707 -2.38421 0
M  V30 8265 C 773.752 -3.72917 -2.12676 0
M  V30 8266 C 772.985 -4.14891 -3.3571 0
M  V30 8267 O 773.208 -3.56663 -4.45137 0
M  V30 8268 O 772.142 -5.07616 -3.23434 0
M  V30 8269 H 775.968 -2.95612 -0.696205 0
M  V30 8270 H 773.553 -1.46787 -0.27819 0
M  V30 8271 H 775.435 -2.80547 -3.14438 0
M  V30 8272 H 774.11 -1.66842 -2.77391 0
M  V30 8273 H 773.017 -3.49148 -1.34337 0
M  V30 8274 H 774.35 -4.5866 -1.78583 0
M  V30 8275 N 776.003 0.335068 -1.53997 0
M  V30 8276 C 777.28 1.09188 -1.62288 0
M  V30 8277 C 777.66 2.0626 -0.449458 0
M  V30 8278 O 777.008 2.21596 0.557444 0
M  V30 8279 C 777.218 1.80403 -2.98757 0
M  V30 8280 C 778.566 2.33841 -3.54406 0
M  V30 8281 O 779.59 1.90487 -3.00987 0
M  V30 8282 O 778.449 3.1318 -4.47862 0
M  V30 8283 H 775.543 0.502621 -0.656736 0
M  V30 8284 H 778.089 0.33588 -1.66343 0
M  V30 8285 H 776.861 1.09732 -3.75599 0
M  V30 8286 H 776.484 2.62841 -2.9833 0
M  V30 8287 N 777.481 1.45874 0.596531 0
M  V30 8288 C 778.727 1.5069 1.35722 0
M  V30 8289 C 779.06 0.152506 1.936 0
M  V30 8290 O 778.335 -0.834411 1.75692 0
M  V30 8291 C 778.618 2.59474 2.4969 0
M  V30 8292 C 778.471 4.04396 1.96937 0
M  V30 8293 C 779.79 2.64451 3.51787 0
M  V30 8294 H 776.909 0.548611 0.492133 0
M  V30 8295 H 779.551 1.77741 0.671428 0
M  V30 8296 H 777.701 2.36539 3.08191 0
M  V30 8297 H 779.373 4.38576 1.43 0
M  V30 8298 H 777.616 4.14529 1.27859 0
M  V30 8299 H 778.287 4.76218 2.79143 0
M  V30 8300 H 780.763 2.85031 3.03145 0
M  V30 8301 H 779.639 3.42411 4.29006 0
M  V30 8302 H 779.9 1.69965 4.08123 0
M  V30 8303 N 778.959 -0.83999 1.33349 0
M  V30 8304 C 780.199 -1.60888 1.26073 0
M  V30 8305 C 780.563 -1.91234 -0.17129 0
M  V30 8306 O 781.764 -2.66269 -0.36799 0
M  V30 8307 C 780.035 -2.88438 2.11042 0
M  V30 8308 S 781.594 -3.79116 2.20944 0
M  V30 8309 H 778.412 -0.55166 0.448545 0
M  V30 8310 H 781.014 -0.99359 1.68369 0
M  V30 8311 H 779.718 -2.64113 3.14121 0
M  V30 8312 H 779.249 -3.54974 1.69579 0
M  V30 8313 H 781.264 -4.76921 1.36969 0
M  V30 8314 N 780.437 -1.16799 -1.0581 0
M  V30 8315 C 781.665 -0.97687 -1.82387 0
M  V30 8316 C 782.08 0.474917 -1.82729 0
M  V30 8317 O 781.437 1.3297 -1.25001 0
M  V30 8318 C 781.488 -1.50279 -3.28783 0
M  V30 8319 O 781.209 -2.89772 -3.28578 0
M  V30 8320 C 782.71 -1.35538 -4.22071 0
M  V30 8321 H 779.93 -0.345977 -0.574927 0
M  V30 8322 H 782.474 -1.54942 -1.33466 0
M  V30 8323 H 780.629 -0.972414 -3.74997 0
M  V30 8324 H 781.043 -3.13954 -4.20159 0
M  V30 8325 H 782.517 -1.7716 -5.22799 0
M  V30 8326 H 782.994 -0.301598 -4.38163 0
M  V30 8327 H 783.6 -1.87562 -3.81708 0
M  V30 8328 N 781.915 1.24427 -0.967243 0
M  V30 8329 C 783.155 1.9423 -0.636723 0
M  V30 8330 C 783.519 1.73939 0.812971 0
M  V30 8331 O 784.72 2.37773 1.25369 0
M  V30 8332 C 782.991 3.43105 -1.00067 0
M  V30 8333 S 784.55 4.31728 -0.784633 0
M  V30 8334 H 781.368 0.671527 -0.233607 0
M  V30 8335 H 783.97 1.50806 -1.2441 0
M  V30 8336 H 782.674 3.5538 -2.05264 0
M  V30 8337 H 782.205 3.91521 -0.384054 0
M  V30 8338 H 784.22 4.95046 0.338244 0
M  V30 8339 N 783.393 0.737304 1.3929 0
M  V30 8340 C 784.804 0.355966 1.83275 0
M  V30 8341 C 785.155 -1.11295 1.6158 0
M  V30 8342 O 784.28 -1.85871 1.10819 0
M  V30 8343 C 784.875 0.63931 3.32713 0
M  V30 8344 C 783.434 0.31144 3.75109 0
M  V30 8345 C 782.581 0.900765 2.62262 0
M  V30 8346 H 785.532 0.934763 1.28249 0
M  V30 8347 H 785.553 -0.0881293 3.80398 0
M  V30 8348 H 785.065 1.70847 3.48472 0
M  V30 8349 H 783.166 -0.751791 3.64937 0
M  V30 8350 H 783.279 0.795611 4.72448 0
M  V30 8351 H 781.643 0.327239 2.52589 0
M  V30 8352 H 782.426 1.97463 2.80826 0
M  V30 8353 N 784.871 -1.49948 0.485112 0
M  V30 8354 C 785.803 -2.26691 -0.338222 0
M  V30 8355 C 786.816 -1.32584 -0.944742 0
M  V30 8356 O 788.005 -1.57989 -0.830772 0
M  V30 8357 C 785.105 -3.04405 -1.48966 0
M  V30 8358 C 784.278 -4.25971 -0.993371 0
M  V30 8359 C 783.337 -4.85861 -2.02052 0
M  V30 8360 O 782.363 -5.46382 -1.59547 0
M  V30 8361 N 783.565 -4.74101 -3.34975 0
M  V30 8362 H 786.33 -2.97989 0.319748 0
M  V30 8363 H 783.891 -1.58772 0.316714 0
M  V30 8364 H 785.883 -3.41348 -2.17403 0
M  V30 8365 H 784.453 -2.35815 -2.05207 0
M  V30 8366 H 783.673 -3.93971 -0.134424 0
M  V30 8367 H 784.961 -5.0476 -0.639934 0
M  V30 8368 H 784.359 -4.26002 -3.72208 0
M  V30 8369 H 782.916 -5.15274 -3.9917 0
M  V30 8370 N 786.349 -0.21828 -1.56081 0
M  V30 8371 C 787.312 0.679633 -2.18892 0
M  V30 8372 C 788.312 1.12405 -1.14986 0
M  V30 8373 O 789.502 1.03339 -1.40238 0
M  V30 8374 C 786.634 1.93063 -2.80962 0
M  V30 8375 H 787.827 0.132066 -2.99609 0
M  V30 8376 H 785.38 0.0313374 -1.56269 0
M  V30 8377 H 786.115 2.52015 -2.04106 0
M  V30 8378 H 785.9 1.62046 -3.57048 0
M  V30 8379 H 787.39 2.57043 -3.29118 0
M  V30 8380 N 787.827 1.57504 0.0551401 0
M  V30 8381 C 789.052 1.92682 0.767352 0
M  V30 8382 C 789.477 0.81614 1.69472 0
M  V30 8383 O 788.835 -0.229989 1.79835 0
M  V30 8384 C 788.883 3.26866 1.52286 0
M  V30 8385 O 787.987 3.17274 2.63459 0
M  V30 8386 H 787.328 0.630502 0.208238 0
M  V30 8387 H 789.858 2.04592 0.0184026 0
M  V30 8388 H 789.868 3.61138 1.8985 0
M  V30 8389 H 788.543 4.07276 0.842541 0
M  V30 8390 H 787.12 2.94589 2.2863 0
M  V30 8391 N 789.305 -0.326896 1.54172 0
M  V30 8392 C 790.551 -1.06681 1.72473 0
M  V30 8393 C 790.884 -1.87779 0.49523 0
M  V30 8394 O 790.159 -1.87754 -0.507803 0
M  V30 8395 C 790.442 -1.99429 2.99834 0
M  V30 8396 C 790.295 -1.21682 4.33028 0
M  V30 8397 C 791.614 -2.99002 3.22933 0
M  V30 8398 H 788.733 -0.386438 0.627563 0
M  V30 8399 H 791.375 -0.343779 1.86864 0
M  V30 8400 H 789.525 -2.61081 2.87696 0
M  V30 8401 H 791.197 -0.625153 4.57044 0
M  V30 8402 H 789.44 -0.519045 4.30684 0
M  V30 8403 H 790.111 -1.89766 5.18356 0
M  V30 8404 H 792.587 -2.4747 3.34511 0
M  V30 8405 H 791.463 -3.61085 4.13412 0
M  V30 8406 H 791.724 -3.71281 2.40006 0
M  V30 8407 N 790.784 -1.46188 -0.588786 0
M  V30 8408 C 792.009 -1.5498 -1.37826 0
M  V30 8409 C 792.434 -0.189498 -1.87143 0
M  V30 8410 O 791.792 0.829293 -1.61222 0
M  V30 8411 C 791.84 -2.55369 -2.54596 0
M  V30 8412 O 790.944 -2.08452 -3.55839 0
M  V30 8413 H 790.285 -0.521741 -0.41071 0
M  V30 8414 H 792.815 -1.91708 -0.714779 0
M  V30 8415 H 792.825 -2.74782 -3.01594 0
M  V30 8416 H 791.5 -3.54155 -2.18052 0
M  V30 8417 H 790.077 -1.98999 -3.15363 0
M  V30 8418 N 792.262 0.832906 -1.33792 0
M  V30 8419 C 793.194 1.95042 -1.2038 0
M  V30 8420 C 794.207 1.62253 -0.133299 0
M  V30 8421 O 795.396 1.74315 -0.384261 0
M  V30 8422 C 792.496 3.287 -0.825215 0
M  V30 8423 C 791.669 3.89581 -1.98861 0
M  V30 8424 C 790.728 5.01602 -1.59003 0
M  V30 8425 O 789.754 5.20431 -2.30522 0
M  V30 8426 N 790.956 5.78356 -0.498446 0
M  V30 8427 H 793.721 2.07083 -2.16649 0
M  V30 8428 H 791.282 1.00896 -1.26616 0
M  V30 8429 H 793.274 4.01074 -0.540559 0
M  V30 8430 H 791.844 3.12565 0.0469796 0
M  V30 8431 H 791.064 3.09723 -2.43856 0
M  V30 8432 H 792.352 4.26989 -2.76691 0
M  V30 8433 H 791.75 5.65618 0.0963297 0
M  V30 8434 H 790.307 6.51226 -0.273485 0
M  V30 8435 N 793.74 1.17359 1.05189 0
M  V30 8436 C 794.672 0.848078 2.12933 0
M  V30 8437 C 795.685 -0.149521 1.62112 0
M  V30 8438 O 796.874 0.0767797 1.78335 0
M  V30 8439 C 793.974 0.243889 3.38021 0
M  V30 8440 C 793.147 1.28436 4.18118 0
M  V30 8441 C 792.206 0.697926 5.21551 0
M  V30 8442 O 791.232 1.36973 5.52473 0
M  V30 8443 N 792.434 -0.510024 5.78255 0
M  V30 8444 H 795.199 1.7754 2.41453 0
M  V30 8445 H 792.76 1.07244 1.21286 0
M  V30 8446 H 794.752 -0.161727 4.04377 0
M  V30 8447 H 793.322 -0.58722 3.07035 0
M  V30 8448 H 792.542 1.86573 3.47252 0
M  V30 8449 H 793.83 1.98617 4.68432 0
M  V30 8450 H 793.228 -1.07378 5.55416 0
M  V30 8451 H 791.785 -0.857705 6.46132 0
M  V30 8452 N 795.218 -1.23913 0.973828 0
M  V30 8453 C 796.465 -1.92151 0.639079 0
M  V30 8454 C 796.793 -1.76064 -0.826545 0
M  V30 8455 O 796.048 -1.11126 -1.61088 0
M  V30 8456 C 796.347 -3.4406 0.967356 0
M  V30 8457 C 796.013 -3.80321 2.42212 0
M  V30 8458 C 794.675 -3.8993 2.81971 0
M  V30 8459 C 797.027 -3.97935 3.36596 0
M  V30 8460 C 794.355 -4.14575 4.15144 0
M  V30 8461 C 796.707 -4.24079 4.69404 0
M  V30 8462 C 795.371 -4.31908 5.08932 0
M  V30 8463 H 794.641 -0.70313 0.233856 0
M  V30 8464 H 797.288 -1.47072 1.22646 0
M  V30 8465 H 795.593 -3.90667 0.297807 0
M  V30 8466 H 797.29 -3.95077 0.686654 0
M  V30 8467 H 793.88 -3.73411 2.10385 0
M  V30 8468 H 798.064 -3.89908 3.07059 0
M  V30 8469 H 793.32 -4.18858 4.45385 0
M  V30 8470 H 797.494 -4.36652 5.42502 0
M  V30 8471 H 795.121 -4.50758 6.12145 0
M  V30 8472 N 796.696 -0.74468 -1.38897 0
M  V30 8473 C 797.924 -0.307428 -2.04603 0
M  V30 8474 C 798.339 1.06115 -1.56157 0
M  V30 8475 O 797.696 1.67233 -0.730701 0
M  V30 8476 C 797.747 -0.31101 -3.6016 0
M  V30 8477 O 797.468 -1.62557 -4.06825 0
M  V30 8478 C 798.969 0.141213 -4.43075 0
M  V30 8479 H 796.189 -0.132741 -0.657739 0
M  V30 8480 H 798.733 -1.01104 -1.77759 0
M  V30 8481 H 796.888 0.343792 -3.85872 0
M  V30 8482 H 797.302 -1.54569 -5.01207 0
M  V30 8483 H 798.776 0.0875449 -5.51931 0
M  V30 8484 H 799.253 1.18782 -4.22833 0
M  V30 8485 H 799.859 -0.484383 -4.22533 0
M  V30 8486 N 798.174 1.49689 -0.493057 0
M  V30 8487 C 799.399 2.07331 0.0535114 0
M  V30 8488 C 799.824 1.35196 1.30781 0
M  V30 8489 O 799.182 0.406246 1.7669 0
M  V30 8490 C 799.23 3.59364 0.29825 0
M  V30 8491 O 798.334 3.88819 1.37454 0
M  V30 8492 H 797.675 0.663612 -0.0227018 0
M  V30 8493 H 800.205 1.926 -0.690402 0
M  V30 8494 H 800.215 4.04515 0.532159 0
M  V30 8495 H 798.89 4.1128 -0.618207 0
M  V30 8496 H 797.467 3.55487 1.12621 0
M  V30 8497 N 799.652 0.226554 1.55963 0
M  V30 8498 C 800.898 -0.404387 1.98727 0
M  V30 8499 C 801.231 -1.59059 1.11418 0
M  V30 8500 O 800.506 -1.93729 0.172971 0
M  V30 8501 C 800.789 -0.834081 3.50307 0
M  V30 8502 C 800.642 0.356104 4.48388 0
M  V30 8503 C 801.961 -1.68845 4.06423 0
M  V30 8504 H 799.08 -0.145515 0.722492 0
M  V30 8505 H 801.722 0.323791 1.87221 0
M  V30 8506 H 799.872 -1.45454 3.60244 0
M  V30 8507 H 801.544 0.99432 4.50456 0
M  V30 8508 H 799.787 1.0027 4.22053 0
M  V30 8509 H 800.458 0.0124333 5.51999 0
M  V30 8510 H 802.934 -1.16489 3.99461 0
M  V30 8511 H 801.81 -1.958 5.1279 0
M  V30 8512 H 802.071 -2.65347 3.53615 0
M  V30 8513 N 801.13 -1.57531 -0.0467866 0
M  V30 8514 C 802.541 -1.76945 -0.595603 0
M  V30 8515 C 802.892 -0.855354 -1.76573 0
M  V30 8516 O 802.017 -0.045668 -2.16352 0
M  V30 8517 C 802.612 -3.20881 -1.08725 0
M  V30 8518 C 801.171 -3.41553 -1.58172 0
M  V30 8519 C 800.318 -2.72533 -0.511968 0
M  V30 8520 H 803.269 -1.57682 0.179436 0
M  V30 8521 H 803.29 -3.26419 -1.95528 0
M  V30 8522 H 802.802 -3.87385 -0.235398 0
M  V30 8523 H 800.903 -2.80199 -2.456 0
M  V30 8524 H 801.016 -4.50104 -1.64143 0
M  V30 8525 H 799.38 -2.35797 -0.962899 0
M  V30 8526 H 800.163 -3.41709 0.330117 0
M  V30 8527 N 802.608 0.318715 -1.54344 0
M  V30 8528 C 803.854 1.05383 -1.73971 0
M  V30 8529 C 804.209 1.85524 -0.509781 0
M  V30 8530 O 803.502 1.8502 0.49782 0
M  V30 8531 C 803.696 2.00514 -2.95853 0
M  V30 8532 C 803.525 1.29728 -4.30582 0
M  V30 8533 C 802.295 1.03177 -4.94654 0
M  V30 8534 C 804.493 0.710718 -5.09366 0
M  V30 8535 N 802.475 0.29232 -6.13204 0
M  V30 8536 C 803.846 0.103132 -6.19914 0
M  V30 8537 C 805.901 0.614011 -4.94099 0
M  V30 8538 C 804.604 -0.591782 -7.16862 0
M  V30 8539 C 806.63 -0.0672115 -5.91362 0
M  V30 8540 C 805.992 -0.663721 -7.01266 0
M  V30 8541 H 802.091 0.369157 -0.689382 0
M  V30 8542 H 804.675 0.334453 -1.91806 0
M  V30 8543 H 802.846 2.69719 -2.79475 0
M  V30 8544 H 804.578 2.67046 -3.04086 0
M  V30 8545 H 801.333 1.32536 -4.54677 0
M  V30 8546 H 801.757 -0.0634005 -6.7697 0
M  V30 8547 H 806.399 1.06091 -4.09273 0
M  V30 8548 H 804.117 -1.0505 -8.01243 0
M  V30 8549 H 807.703 -0.141742 -5.81627 0
M  V30 8550 H 806.583 -1.18248 -7.75234 0
M  V30 8551 N 804.086 1.46499 0.581025 0
M  V30 8552 C 805.034 1.57562 1.71105 0
M  V30 8553 C 806.028 0.44403 1.63477 0
M  V30 8554 O 807.234 0.620964 1.6895 0
M  V30 8555 H 803.609 0.495415 0.565746 0
M  V30 8556 H 805.58 2.5257 1.58905 0
M  V30 8557 C 804.329 1.58465 3.0949 0
M  V30 8558 H 803.652 2.44877 3.16031 0
M  V30 8559 H 805.092 1.70261 3.88313 0
M  V30 8560 C 803.551 0.313596 3.35437 0
M  V30 8561 O 804.081 -0.595456 3.97262 0
M  V30 8562 N 802.287 0.200986 2.89904 0
M  V30 8563 H 801.834 0.941643 2.39773 0
M  V30 8564 H 801.792 -0.648577 3.07638 0
M  V30 8565 N 805.565 -0.825799 1.34232 0
M  V30 8566 C 806.79 -1.61883 1.29648 0
M  V30 8567 C 807.215 -1.87669 -0.127295 0
M  V30 8568 O 806.573 -1.45016 -1.08813 0
M  V30 8569 C 806.621 -2.93846 2.09014 0
M  V30 8570 O 805.725 -3.85778 1.4577 0
M  V30 8571 H 805.066 -0.492454 0.445405 0
M  V30 8572 H 807.596 -1.02641 1.76992 0
M  V30 8573 H 807.606 -3.43435 2.20264 0
M  V30 8574 H 806.281 -2.74401 3.12533 0
M  V30 8575 H 804.858 -3.4429 1.43245 0
M  V30 8576 N 807.043 -1.17915 -1.04565 0
M  V30 8577 C 808.29 -0.971424 -1.77678 0
M  V30 8578 C 808.618 0.499401 -1.87979 0
M  V30 8579 O 807.873 1.38695 -1.38066 0
M  V30 8580 C 808.172 -1.56528 -3.213 0
M  V30 8581 C 807.838 -3.06138 -3.31044 0
M  V30 8582 C 806.5 -3.46974 -3.33411 0
M  V30 8583 C 808.852 -4.02151 -3.31548 0
M  V30 8584 C 806.18 -4.82406 -3.33918 0
M  V30 8585 C 808.532 -5.37492 -3.33595 0
M  V30 8586 C 807.196 -5.77782 -3.34251 0
M  V30 8587 H 806.466 -0.355469 -0.650171 0
M  V30 8588 H 809.113 -1.46902 -1.22849 0
M  V30 8589 H 807.418 -0.98955 -3.79098 0
M  V30 8590 H 809.115 -1.38003 -3.76505 0
M  V30 8591 H 805.705 -2.73589 -3.29919 0
M  V30 8592 H 809.889 -3.71656 -3.28916 0
M  V30 8593 H 805.145 -5.12927 -3.3274 0
M  V30 8594 H 809.319 -6.1166 -3.32934 0
M  V30 8595 H 806.946 -6.82702 -3.34397 0
M  V30 8596 N 808.521 1.23394 -0.980386 0
M  V30 8597 C 809.469 2.26872 -0.513018 0
M  V30 8598 C 810.463 1.63853 0.429948 0
M  V30 8599 O 811.669 1.77417 0.303842 0
M  V30 8600 H 808.044 0.737398 -0.147473 0
M  V30 8601 H 810.015 2.63654 -1.39746 0
M  V30 8602 C 808.764 3.47289 0.168962 0
M  V30 8603 H 808.087 3.96033 -0.547546 0
M  V30 8604 H 809.527 4.21502 0.459616 0
M  V30 8605 C 807.986 3.06425 1.40019 0
M  V30 8606 O 808.516 3.14708 2.49643 0
M  V30 8607 N 806.722 2.61339 1.27084 0
M  V30 8608 H 806.269 2.54799 0.378872 0
M  V30 8609 H 806.227 2.34364 2.09573 0
M  V30 8610 N 809.999 0.752036 1.385 0
M  V30 8611 C 811.415 0.42946 1.53713 0
M  V30 8612 C 811.615 -1.0576 1.71514 0
M  V30 8613 O 810.671 -1.84366 1.72527 0
M  V30 8614 C 811.984 1.22735 2.74511 0
M  V30 8615 C 813.532 1.21727 2.8836 0
M  V30 8616 C 814.007 1.99809 4.12117 0
M  V30 8617 N 815.498 1.97062 4.19191 0
M  V30 8618 C 816.233 2.54274 5.13938 0
M  V30 8619 N 815.729 3.20193 6.14368 0
M  V30 8620 N 817.522 2.44212 5.06277 0
M  V30 8621 H 809.673 1.71581 1.25195 0
M  V30 8622 H 811.936 0.727293 0.60807 0
M  V30 8623 H 811.642 2.28032 2.67758 0
M  V30 8624 H 811.516 0.843186 3.67655 0
M  V30 8625 H 813.903 0.172367 2.94596 0
M  V30 8626 H 813.984 1.64094 1.96232 0
M  V30 8627 H 813.628 3.0431 4.06642 0
M  V30 8628 H 813.558 1.54837 5.03322 0
M  V30 8629 H 816.049 1.49054 3.47263 0
M  V30 8630 H 816.362 3.61272 6.83156 0
M  V30 8631 H 814.707 3.24287 6.14705 0
M  V30 8632 H 817.898 1.92343 4.26757 0
M  V30 8633 H 818.071 2.89096 5.79937 0
M  V30 8634 N 811.477 -1.49425 0.500989 0
M  V30 8635 C 812.754 -1.9531 -0.106551 0
M  V30 8636 C 813.134 -1.44248 -1.54129 0
M  V30 8637 O 812.482 -0.656237 -2.18874 0
M  V30 8638 C 812.692 -3.48995 -0.0191972 0
M  V30 8639 C 814.04 -4.24161 -0.193129 0
M  V30 8640 O 815.064 -3.56075 -0.0943843 0
M  V30 8641 O 813.923 -5.45064 -0.395869 0
M  V30 8642 H 811.017 -0.82149 -0.0953068 0
M  V30 8643 H 813.563 -1.6007 0.563526 0
M  V30 8644 H 812.335 -3.78794 0.981353 0
M  V30 8645 H 811.958 -3.90852 -0.72942 0
M  V30 8646 N 812.955 -0.234822 -1.55841 0
M  V30 8647 C 814.201 0.393843 -1.98939 0
M  V30 8648 C 814.534 1.58466 -1.1226 0
M  V30 8649 O 813.809 1.93635 -0.183242 0
M  V30 8650 C 814.092 0.815492 -3.50745 0
M  V30 8651 C 813.945 -0.379878 -4.48193 0
M  V30 8652 C 815.264 1.66687 -4.07312 0
M  V30 8653 H 812.383 0.141681 -0.723253 0
M  V30 8654 H 815.025 -0.333716 -1.87046 0
M  V30 8655 H 813.175 1.43541 -3.6101 0
M  V30 8656 H 814.847 -1.0182 -4.49923 0
M  V30 8657 H 813.09 -1.02507 -4.21515 0
M  V30 8658 H 813.761 -0.0417069 -5.51984 0
M  V30 8659 H 816.237 1.14369 -4.00074 0
M  V30 8660 H 815.113 1.93078 -5.13821 0
M  V30 8661 H 815.374 2.63468 -3.55017 0
M  V30 8662 N 814.433 1.57553 0.0384317 0
M  V30 8663 C 815.363 2.0898 1.04161 0
M  V30 8664 C 816.344 0.99029 1.38301 0
M  V30 8665 O 817.529 1.26499 1.47349 0
M  V30 8666 C 814.659 2.56145 2.34536 0
M  V30 8667 C 813.613 3.70275 2.14663 0
M  V30 8668 C 812.939 4.03612 3.50715 0
M  V30 8669 C 814.239 4.99067 1.54045 0
M  V30 8670 H 815.933 2.93046 0.613548 0
M  V30 8671 H 813.479 1.40973 0.293684 0
M  V30 8672 H 815.432 2.90741 3.05037 0
M  V30 8673 H 814.156 1.6915 2.79385 0
M  V30 8674 H 812.815 3.36013 1.46597 0
M  V30 8675 H 812.463 3.13698 3.93195 0
M  V30 8676 H 812.163 4.80482 3.38247 0
M  V30 8677 H 813.687 4.40735 4.22593 0
M  V30 8678 H 815.101 5.3168 2.14451 0
M  V30 8679 H 813.498 5.80484 1.52178 0
M  V30 8680 H 814.568 4.8226 0.505259 0
M  V30 8681 N 815.911 -0.310526 1.54511 0
M  V30 8682 C 816.858 -1.38264 1.84802 0
M  V30 8683 C 817.828 -1.50808 0.696141 0
M  V30 8684 O 819.013 -1.6582 0.943846 0
M  V30 8685 C 816.153 -2.74422 2.09252 0
M  V30 8686 C 815.266 -2.70405 3.36906 0
M  V30 8687 C 814.401 -3.98495 3.51248 0
M  V30 8688 C 813.44 -3.88836 4.72729 0
M  V30 8689 N 812.577 -5.08683 4.83928 0
M  V30 8690 H 817.417 -1.11732 2.76261 0
M  V30 8691 H 814.954 -0.540609 1.36806 0
M  V30 8692 H 816.912 -3.53593 2.21422 0
M  V30 8693 H 815.542 -2.99235 1.2107 0
M  V30 8694 H 814.594 -1.83151 3.33406 0
M  V30 8695 H 815.906 -2.59155 4.26193 0
M  V30 8696 H 815.06 -4.861 3.63031 0
M  V30 8697 H 813.799 -4.12567 2.60077 0
M  V30 8698 H 812.804 -2.99615 4.60989 0
M  V30 8699 H 814.029 -3.76318 5.65298 0
M  V30 8700 H 811.975 -5.23236 3.95677 0
M  V30 8701 H 811.892 -4.99819 5.67201 0
M  V30 8702 H 813.16 -5.97966 5.00057 0
M  V30 8703 N 817.389 -1.46805 -0.573248 0
M  V30 8704 C 818.352 -1.57655 -1.66366 0
M  V30 8705 C 819.352 -0.452905 -1.5429 0
M  V30 8706 O 820.542 -0.717502 -1.58737 0
M  V30 8707 C 817.674 -1.50584 -3.05839 0
M  V30 8708 H 818.867 -2.54842 -1.581 0
M  V30 8709 H 816.42 -1.34756 -0.791868 0
M  V30 8710 H 817.155 -0.547127 -3.19651 0
M  V30 8711 H 816.94 -2.32118 -3.16012 0
M  V30 8712 H 818.43 -1.61282 -3.85199 0
M  V30 8713 N 818.867 0.818669 -1.34668 0
M  V30 8714 C 819.797 1.94468 -1.29245 0
M  V30 8715 C 820.778 1.69257 -0.169101 0
M  V30 8716 O 821.963 1.90794 -0.362143 0
M  V30 8717 C 819.093 3.31001 -1.05145 0
M  V30 8718 C 818.047 3.70663 -2.13992 0
M  V30 8719 C 817.373 5.05226 -1.75074 0
M  V30 8720 C 818.673 3.82312 -3.55858 0
M  V30 8721 H 820.367 1.99263 -2.2346 0
M  V30 8722 H 817.913 0.957304 -1.07572 0
M  V30 8723 H 819.866 4.09364 -0.999949 0
M  V30 8724 H 818.59 3.26517 -0.0737312 0
M  V30 8725 H 817.249 2.94578 -2.18219 0
M  V30 8726 H 816.897 4.97233 -0.759518 0
M  V30 8727 H 816.597 5.32734 -2.47928 0
M  V30 8728 H 818.121 5.86042 -1.71427 0
M  V30 8729 H 819.535 4.50935 -3.5402 0
M  V30 8730 H 817.932 4.21278 -4.2737 0
M  V30 8731 H 819.002 2.84193 -3.9289 0
M  V30 8732 N 820.346 1.18468 1.03938 0
M  V30 8733 C 821.576 1.0043 1.80547 0
M  V30 8734 C 821.984 -0.450407 1.83761 0
M  V30 8735 O 821.327 -1.32463 1.27276 0
M  V30 8736 C 821.389 1.48437 3.27424 0
M  V30 8737 C 821.053 2.96372 3.47869 0
M  V30 8738 C 822.05 3.94217 3.38953 0
M  V30 8739 C 819.735 3.34831 3.74424 0
M  V30 8740 C 821.729 5.28517 3.56298 0
M  V30 8741 C 819.416 4.69294 3.91416 0
M  V30 8742 C 820.414 5.65946 3.82354 0
M  V30 8743 O 820.102 6.97974 3.98858 0
M  V30 8744 H 819.834 0.354853 0.575374 0
M  V30 8745 H 822.388 1.57473 1.31876 0
M  V30 8746 H 820.618 0.857601 3.7707 0
M  V30 8747 H 822.307 1.2677 3.85596 0
M  V30 8748 H 823.073 3.6585 3.184 0
M  V30 8749 H 818.952 2.60161 3.80575 0
M  V30 8750 H 822.496 6.03943 3.49141 0
M  V30 8751 H 818.393 4.97361 4.11463 0
M  V30 8752 H 819.161 7.04895 4.1601 0
M  V30 8753 N 821.824 -1.22873 0.986916 0
M  V30 8754 C 823.049 -1.96028 0.677341 0
M  V30 8755 C 823.474 -1.72487 -0.750319 0
M  V30 8756 O 822.832 -1.00036 -1.51203 0
M  V30 8757 C 822.88 -3.46983 0.981593 0
M  V30 8758 O 821.984 -4.12328 0.0770729 0
M  V30 8759 H 821.325 -0.613458 0.254096 0
M  V30 8760 H 823.855 -1.56132 1.32227 0
M  V30 8761 H 823.865 -3.9747 0.920969 0
M  V30 8762 H 822.54 -3.63442 2.02194 0
M  V30 8763 H 821.117 -3.72402 0.192666 0
M  V30 8764 N 823.302 -0.75937 -1.38099 0
M  V30 8765 C 824.549 -0.318113 -1.99986 0
M  V30 8766 C 824.877 1.10184 -1.6028 0
M  V30 8767 O 824.132 1.77015 -0.834524 0
M  V30 8768 C 824.431 -0.394999 -3.55211 0
M  V30 8769 C 824.097 -1.77143 -4.14646 0
M  V30 8770 C 822.759 -2.14811 -4.30592 0
M  V30 8771 C 825.111 -2.67407 -4.47373 0
M  V30 8772 C 822.439 -3.42203 -4.76565 0
M  V30 8773 C 824.791 -3.94196 -4.94765 0
M  V30 8774 C 823.455 -4.31925 -5.08918 0
M  V30 8775 H 822.725 -0.116406 -0.7318 0
M  V30 8776 H 825.372 -0.97098 -1.65058 0
M  V30 8777 H 823.677 0.341426 -3.9031 0
M  V30 8778 H 825.374 -0.0350722 -4.00985 0
M  V30 8779 H 821.964 -1.46864 -4.02652 0
M  V30 8780 H 826.148 -2.39569 -4.3465 0
M  V30 8781 H 821.404 -3.71346 -4.85708 0
M  V30 8782 H 825.578 -4.64276 -5.19057 0
M  V30 8783 H 823.205 -5.30699 -5.443 0
M  V30 8784 N 824.78 1.49157 -0.508906 0
M  V30 8785 C 825.743 2.27784 0.25434 0
M  V30 8786 C 826.743 1.34132 0.88686 0
M  V30 8787 O 827.933 1.5722 0.750168 0
M  V30 8788 C 825.065 3.12347 1.36573 0
M  V30 8789 H 826.258 2.96718 -0.435714 0
M  V30 8790 H 823.811 1.54052 -0.264128 0
M  V30 8791 H 824.546 2.47997 2.08969 0
M  V30 8792 H 824.331 3.81213 0.917543 0
M  V30 8793 H 825.821 3.71712 1.90315 0
M  V30 8794 N 826.258 0.243083 1.55714 0
M  V30 8795 C 827.669 -0.260788 1.8487 0
M  V30 8796 C 828.02 -1.57879 1.16485 0
M  V30 8797 O 827.145 -2.1184 0.441908 0
M  V30 8798 C 827.74 -0.479954 3.35383 0
M  V30 8799 C 826.299 -0.928096 3.64778 0
M  V30 8800 C 825.446 -0.00316416 2.773 0
M  V30 8801 H 828.397 0.465743 1.51712 0
M  V30 8802 H 828.418 -1.32308 3.56756 0
M  V30 8803 H 827.93 0.479468 3.85127 0
M  V30 8804 H 826.031 -1.90012 3.20509 0
M  V30 8805 H 826.144 -0.7876 4.72582 0
M  V30 8806 H 824.508 -0.513849 2.49463 0
M  V30 8807 H 825.291 0.951562 3.29849 0
M  V30 8808 N 827.736 -1.57571 -0.0300757 0
M  V30 8809 C 828.985 -1.88407 -0.720126 0
M  V30 8810 C 829.298 -0.841466 -1.76575 0
M  V30 8811 O 830.504 -1.03902 -2.50832 0
M  V30 8812 C 828.96 -3.34348 -1.33188 0
M  V30 8813 C 828.568 -4.46837 -0.32266 0
M  V30 8814 C 830.312 -3.74333 -2.00187 0
M  V30 8815 C 828.219 -5.83838 -0.942703 0
M  V30 8816 H 827.149 -0.702952 -0.272718 0
M  V30 8817 H 829.8 -1.83482 0.0255337 0
M  V30 8818 H 828.182 -3.34014 -2.12721 0
M  V30 8819 H 829.356 -4.58638 0.445887 0
M  V30 8820 H 827.671 -4.15678 0.245181 0
M  V30 8821 H 830.268 -4.74008 -2.47428 0
M  V30 8822 H 830.611 -3.06275 -2.81959 0
M  V30 8823 H 831.144 -3.76837 -1.2743 0
M  V30 8824 H 827.883 -6.55294 -0.164413 0
M  V30 8825 H 827.403 -5.75759 -1.68111 0
M  V30 8826 H 829.082 -6.30535 -1.45034 0
M  V30 8827 N 829.214 0.302327 -1.54673 0
M  V30 8828 C 830.439 1.06103 -1.78205 0
M  V30 8829 C 830.864 1.80204 -0.53926 0
M  V30 8830 O 830.222 1.73975 0.510142 0
M  V30 8831 C 830.27 2.01829 -2.98827 0
M  V30 8832 O 829.374 3.10108 -2.71858 0
M  V30 8833 H 828.715 0.30487 -0.589873 0
M  V30 8834 H 831.245 0.340153 -2.01753 0
M  V30 8835 H 831.255 2.44319 -3.2676 0
M  V30 8836 H 829.93 1.473 -3.88942 0
M  V30 8837 H 828.507 2.72142 -2.54937 0
M  V30 8838 N 830.692 1.47107 0.565454 0
M  V30 8839 C 831.625 1.53505 1.68853 0
M  V30 8840 C 832.603 0.387806 1.57908 0
M  V30 8841 O 833.787 0.594433 1.78882 0
M  V30 8842 C 830.914 1.42985 3.07039 0
M  V30 8843 C 829.96 2.62109 3.36454 0
M  V30 8844 S 830.793 4.2436 3.26617 0
M  V30 8845 C 831.949 4.16378 4.67312 0
M  V30 8846 H 832.182 2.48522 1.63169 0
M  V30 8847 H 829.715 1.35204 0.745609 0
M  V30 8848 H 831.673 1.37602 3.8675 0
M  V30 8849 H 830.334 0.493671 3.10196 0
M  V30 8850 H 829.527 2.50788 4.37174 0
M  V30 8851 H 829.129 2.64571 2.64345 0
M  V30 8852 H 831.421 3.84123 5.58082 0
M  V30 8853 H 832.364 5.17156 4.83689 0
M  V30 8854 H 832.772 3.47363 4.44971 0
M  V30 8855 N 832.17 -0.811516 1.35101 0
M  V30 8856 C 833.12 -1.91227 1.24163 0
M  V30 8857 C 834.104 -1.60307 0.138012 0
M  V30 8858 O 835.296 -1.73116 0.368767 0
M  V30 8859 C 832.425 -3.2808 1.01085 0
M  V30 8860 C 831.511 -3.65082 2.15815 0
M  V30 8861 N 831.902 -3.73558 3.4101 0
M  V30 8862 C 830.2 -3.95005 2.07092 0
M  V30 8863 C 830.901 -4.06158 4.16426 0
M  V30 8864 N 829.877 -4.19982 3.45132 0
M  V30 8865 H 833.679 -1.95975 2.19023 0
M  V30 8866 H 831.193 -1.00583 1.27503 0
M  V30 8867 H 833.19 -4.06771 0.913382 0
M  V30 8868 H 831.85 -3.24622 0.0710406 0
M  V30 8869 H 832.861 -3.56761 3.75423 0
M  V30 8870 H 829.538 -3.99601 1.20937 0
M  V30 8871 H 830.928 -4.19824 5.24592 0
M  V30 8872 N 833.648 -1.19017 -1.03309 0
M  V30 8873 C 834.888 -1.00129 -1.78195 0
M  V30 8874 C 835.252 0.460236 -1.86402 0
M  V30 8875 O 836.453 0.768802 -2.57571 0
M  V30 8876 C 834.724 -1.64703 -3.17187 0
M  V30 8877 S 836.283 -1.60695 -4.08317 0
M  V30 8878 H 833.101 -0.359395 -0.613479 0
M  V30 8879 H 835.703 -1.51293 -1.23818 0
M  V30 8880 H 834.407 -2.70283 -3.08829 0
M  V30 8881 H 833.938 -1.136 -3.76641 0
M  V30 8882 H 835.953 -0.628171 -4.92208 0
M  V30 8883 N 835.127 1.22348 -0.993418 0
M  V30 8884 C 836.075 2.26315 -0.537052 0
M  V30 8885 C 837.069 1.643 0.412545 0
M  V30 8886 O 838.275 1.77729 0.285008 0
M  V30 8887 H 834.65 0.735792 -0.155286 0
M  V30 8888 H 836.621 2.62157 -1.42535 0
M  V30 8889 C 835.37 3.47449 0.132118 0
M  V30 8890 H 834.693 3.9543 -0.589519 0
M  V30 8891 H 836.133 4.21965 0.414884 0
M  V30 8892 C 834.592 3.07893 1.36761 0
M  V30 8893 O 835.122 3.17338 2.46291 0
M  V30 8894 N 833.328 2.62672 1.24305 0
M  V30 8895 H 832.875 2.55186 0.351826 0
M  V30 8896 H 832.833 2.36574 2.07076 0
M  V30 8897 N 836.605 0.766683 1.37694 0
M  V30 8898 C 837.552 0.147725 2.30327 0
M  V30 8899 C 838.522 -0.695366 1.50844 0
M  V30 8900 O 839.707 -0.64878 1.79431 0
M  V30 8901 C 836.847 -0.72935 3.37305 0
M  V30 8902 C 835.96 0.129795 4.31805 0
M  V30 8903 C 835.095 -0.751511 5.25857 0
M  V30 8904 C 834.134 0.110475 6.12 0
M  V30 8905 N 833.271 -0.728522 6.9831 0
M  V30 8906 H 838.111 0.943204 2.82679 0
M  V30 8907 H 835.648 0.476736 1.3916 0
M  V30 8908 H 837.606 -1.25263 3.97951 0
M  V30 8909 H 836.236 -1.49048 2.86329 0
M  V30 8910 H 835.288 0.770829 3.72508 0
M  V30 8911 H 836.6 0.794923 4.92425 0
M  V30 8912 H 835.754 -1.34146 5.91684 0
M  V30 8913 H 834.493 -1.45034 4.65636 0
M  V30 8914 H 833.498 0.712999 5.45157 0
M  V30 8915 H 834.723 0.806557 6.74293 0
M  V30 8916 H 832.669 -1.41206 6.40622 0
M  V30 8917 H 832.586 -0.12058 7.55904 0
M  V30 8918 H 833.854 -1.30303 7.68532 0
M  V30 8919 N 838.083 -1.48885 0.516809 0
M  V30 8920 C 839.308 -2.0739 -0.0205201 0
M  V30 8921 C 839.733 -1.37259 -1.28614 0
M  V30 8922 O 839.091 -0.434304 -1.76021 0
M  V30 8923 C 839.139 -3.59793 -0.24104 0
M  V30 8924 O 838.243 -3.90957 -1.31251 0
M  V30 8925 H 837.584 -0.663167 0.0332564 0
M  V30 8926 H 840.114 -1.91477 0.720956 0
M  V30 8927 H 840.124 -4.0531 -0.467737 0
M  V30 8928 H 838.799 -4.10244 0.68356 0
M  V30 8929 H 837.376 -3.57234 -1.06951 0
M  V30 8930 N 839.561 -0.251338 -1.55583 0
M  V30 8931 C 840.786 0.379136 -2.03905 0
M  V30 8932 C 841.211 1.50428 -1.12929 0
M  V30 8933 O 840.569 1.80882 -0.123114 0
M  V30 8934 C 840.617 0.86009 -3.50193 0
M  V30 8935 O 839.721 1.96932 -3.62342 0
M  V30 8936 H 839.062 0.0820183 -0.658915 0
M  V30 8937 H 841.592 -0.378692 -2.01065 0
M  V30 8938 H 841.602 1.16214 -3.91099 0
M  V30 8939 H 840.277 0.0367559 -4.15884 0
M  V30 8940 H 838.854 1.67163 -3.33333 0
M  V30 8941 N 841.039 1.57585 0.0217189 0
M  V30 8942 C 842.002 2.06004 1.00474 0
M  V30 8943 C 843.002 0.965461 1.2859 0
M  V30 8944 O 844.192 1.22884 1.23471 0
M  V30 8945 C 841.324 2.48319 2.33561 0
M  V30 8946 H 842.517 2.94112 0.586346 0
M  V30 8947 H 840.07 1.53973 0.268716 0
M  V30 8948 H 840.805 1.63389 2.80133 0
M  V30 8949 H 840.59 3.28239 2.1448 0
M  V30 8950 H 842.08 2.86181 3.04122 0
M  V30 8951 N 842.517 -0.29412 1.54831 0
M  V30 8952 C 843.763 -1.02999 1.74697 0
M  V30 8953 C 844.096 -1.86687 0.534949 0
M  V30 8954 O 843.371 -1.88789 -0.467863 0
M  V30 8955 C 843.654 -1.93024 3.03996 0
M  V30 8956 C 843.507 -1.1247 4.35512 0
M  V30 8957 C 844.826 -2.92085 3.29203 0
M  V30 8958 H 841.945 -0.373039 0.635618 0
M  V30 8959 H 844.587 -0.304065 1.87551 0
M  V30 8960 H 842.737 -2.5492 2.93169 0
M  V30 8961 H 844.409 -0.528067 4.58268 0
M  V30 8962 H 842.652 -0.427574 4.31688 0
M  V30 8963 H 843.323 -1.78728 5.22265 0
M  V30 8964 H 845.799 -2.40319 3.39685 0
M  V30 8965 H 844.675 -3.52234 4.20978 0
M  V30 8966 H 844.936 -3.66107 2.47827 0
M  V30 8967 N 843.995 -1.47404 -0.557645 0
M  V30 8968 C 845.411 -1.32913 -0.88353 0
M  V30 8969 C 845.611 -0.31929 -1.98954 0
M  V30 8970 O 844.667 0.26934 -2.51059 0
M  V30 8971 C 845.98 -2.72229 -1.27718 0
M  V30 8972 C 847.528 -2.8051 -1.38863 0
M  V30 8973 C 848.003 -4.20466 -1.81583 0
M  V30 8974 N 849.494 -4.23005 -1.88735 0
M  V30 8975 C 850.229 -5.2821 -2.23118 0
M  V30 8976 N 849.725 -6.4372 -2.56117 0
M  V30 8977 N 851.518 -5.15588 -2.23888 0
M  V30 8978 H 843.669 -2.11698 0.172557 0
M  V30 8979 H 845.932 -0.947889 0.0145334 0
M  V30 8980 H 845.638 -3.47556 -0.538329 0
M  V30 8981 H 845.512 -3.03971 -2.23342 0
M  V30 8982 H 847.899 -2.05457 -2.11829 0
M  V30 8983 H 847.98 -2.52423 -0.414274 0
M  V30 8984 H 847.624 -4.96025 -1.09187 0
M  V30 8985 H 847.554 -4.45977 -2.80021 0
M  V30 8986 H 850.045 -3.39674 -1.65621 0
M  V30 8987 H 850.358 -7.19754 -2.81378 0
M  V30 8988 H 848.703 -6.47041 -2.53698 0
M  V30 8989 H 851.894 -4.24374 -1.97546 0
M  V30 8990 H 852.067 -5.97685 -2.50353 0
M  V30 8991 N 845.473 0.80434 -1.35529 0
M  V30 8992 C 846.72 1.56154 -1.28927 0
M  V30 8993 C 847.048 1.94026 0.135682 0
M  V30 8994 O 846.303 1.61759 1.10148 0
M  V30 8995 C 846.602 2.85988 -2.14349 0
M  V30 8996 C 846.268 2.67323 -3.6311 0
M  V30 8997 C 844.93 2.61941 -4.03659 0
M  V30 8998 C 847.282 2.49699 -4.57493 0
M  V30 8999 C 844.61 2.3688 -5.36754 0
M  V30 9000 C 846.962 2.26168 -5.90788 0
M  V30 9001 C 845.626 2.19209 -6.30479 0
M  V30 9002 H 844.896 0.571407 -0.471779 0
M  V30 9003 H 847.543 0.929193 -1.67446 0
M  V30 9004 H 845.848 3.53612 -1.68718 0
M  V30 9005 H 847.545 3.43697 -2.06576 0
M  V30 9006 H 844.135 2.72361 -3.30934 0
M  V30 9007 H 848.319 2.52869 -4.27049 0
M  V30 9008 H 843.575 2.29964 -5.66504 0
M  V30 9009 H 847.749 2.11522 -6.63499 0
M  V30 9010 H 845.376 1.99553 -7.33541 0
M  V30 9011 N 846.951 1.19563 1.02676 0
M  V30 9012 C 847.883 0.893054 2.11086 0
M  V30 9013 C 848.896 -0.115101 1.62393 0
M  V30 9014 O 850.085 0.11459 1.78132 0
M  V30 9015 C 847.185 0.315533 3.37428 0
M  V30 9016 C 846.358 1.37276 4.153 0
M  V30 9017 C 845.417 0.808398 5.19953 0
M  V30 9018 O 844.443 1.48661 5.49444 0
M  V30 9019 N 845.645 -0.387253 5.79207 0
M  V30 9020 H 848.41 1.82622 2.37633 0
M  V30 9021 H 845.971 1.09792 1.18984 0
M  V30 9022 H 847.963 -0.0759166 4.04629 0
M  V30 9023 H 846.533 -0.521961 3.08211 0
M  V30 9024 H 845.753 1.93897 3.43217 0
M  V30 9025 H 847.041 2.08509 4.64114 0
M  V30 9026 H 846.439 -0.955725 5.57568 0
M  V30 9027 H 844.996 -0.720457 6.47806 0
M  V30 9028 N 848.429 -1.21819 0.999893 0
M  V30 9029 C 849.677 -1.90375 0.678351 0
M  V30 9030 C 849.998 -1.78155 -0.792824 0
M  V30 9031 O 849.268 -1.17319 -1.56885 0
M  V30 9032 H 847.848 -0.704661 0.247915 0
M  V30 9033 H 850.51 -1.48021 1.2679 0
M  V30 9034 H 849.606 -2.97385 0.947023 0
M  V30 9035 N 849.908 -0.773975 -1.37286 0
M  V30 9036 C 850.818 -0.162571 -2.34036 0
M  V30 9037 C 851.834 0.677022 -1.60289 0
M  V30 9038 O 853.01 0.596423 -1.92366 0
M  V30 9039 C 850.075 0.70457 -3.39465 0
M  V30 9040 C 849.136 -0.151738 -4.29032 0
M  V30 9041 C 848.369 0.674111 -5.29426 0
M  V30 9042 O 848.592 1.91107 -5.37433 0
M  V30 9043 O 847.526 0.0821398 -6.01844 0
M  V30 9044 H 851.352 -0.962119 -2.88057 0
M  V30 9045 H 848.937 -0.53517 -1.39486 0
M  V30 9046 H 850.819 1.19954 -4.03967 0
M  V30 9047 H 849.494 1.48227 -2.87768 0
M  V30 9048 H 848.401 -0.693118 -3.67623 0
M  V30 9049 H 849.734 -0.892575 -4.84039 0
M  V30 9050 N 851.386 1.48609 -0.524698 0
M  V30 9051 C 852.632 2.034 0.00323579 0
M  V30 9052 C 852.987 1.39513 1.32491 0
M  V30 9053 O 852.28 0.529876 1.84127 0
M  V30 9054 C 852.474 3.56906 0.187873 0
M  V30 9055 C 852.303 4.35674 -1.11436 0
M  V30 9056 C 851.073 4.76809 -1.67276 0
M  V30 9057 C 853.271 4.72814 -2.02365 0
M  V30 9058 N 851.253 5.40093 -2.91843 0
M  V30 9059 C 852.624 5.36062 -3.11508 0
M  V30 9060 C 854.679 4.54747 -2.02755 0
M  V30 9061 C 853.382 5.83154 -4.21099 0
M  V30 9062 C 855.408 5.02815 -3.11337 0
M  V30 9063 C 854.77 5.66084 -4.19199 0
M  V30 9064 H 850.869 0.780967 -0.0401842 0
M  V30 9065 H 853.453 1.81495 -0.704808 0
M  V30 9066 H 851.624 3.78645 0.864996 0
M  V30 9067 H 853.356 3.98335 0.714938 0
M  V30 9068 H 850.111 4.57754 -1.21483 0
M  V30 9069 H 850.535 5.76305 -3.55249 0
M  V30 9070 H 855.177 4.05217 -1.20661 0
M  V30 9071 H 852.895 6.31692 -5.03975 0
M  V30 9072 H 856.481 4.9063 -3.12688 0
M  V30 9073 H 855.361 6.02604 -5.01834 0
M  V30 9074 N 852.864 0.259585 1.55447 0
M  V30 9075 C 853.812 -0.6507 2.23313 0
M  V30 9076 C 854.806 -1.17014 1.22491 0
M  V30 9077 O 856.012 -1.12557 1.40467 0
M  V30 9078 H 852.387 -0.228354 0.71649 0
M  V30 9079 H 854.358 -0.0553039 2.98349 0
M  V30 9080 C 853.107 -1.83081 2.95596 0
M  V30 9081 H 852.43 -1.44027 3.72956 0
M  V30 9082 H 853.87 -2.44469 3.46426 0
M  V30 9083 C 852.329 -2.70976 2.00184 0
M  V30 9084 O 852.859 -3.70882 1.54304 0
M  V30 9085 N 851.065 -2.37813 1.67014 0
M  V30 9086 H 850.612 -1.5662 2.04519 0
M  V30 9087 H 850.57 -2.96896 1.03443 0
M  V30 9088 N 854.342 -1.57594 -0.0133615 0
M  V30 9089 C 855.272 -2.10611 -1.00823 0
M  V30 9090 C 856.253 -1.01217 -1.36708 0
M  V30 9091 O 857.438 -1.28827 -1.45318 0
M  V30 9092 C 854.568 -2.59844 -2.30431 0
M  V30 9093 C 853.522 -3.73644 -2.08745 0
M  V30 9094 C 852.848 -4.09141 -3.4425 0
M  V30 9095 C 854.148 -5.01454 -1.46086 0
M  V30 9096 H 855.842 -2.93985 -0.566849 0
M  V30 9097 H 853.388 -1.41423 -0.271219 0
M  V30 9098 H 855.341 -2.95557 -3.00373 0
M  V30 9099 H 854.065 -1.73573 -2.76658 0
M  V30 9100 H 852.724 -3.38303 -1.41232 0
M  V30 9101 H 852.372 -3.19914 -3.88155 0
M  V30 9102 H 852.072 -4.85802 -3.3056 0
M  V30 9103 H 853.596 -4.47402 -4.15528 0
M  V30 9104 H 855.01 -5.35024 -2.05966 0
M  V30 9105 H 853.407 -5.82832 -1.42924 0
M  V30 9106 H 854.477 -4.83003 -0.428471 0
M  V30 9107 N 855.82 0.285905 -1.54985 0
M  V30 9108 C 856.752 1.37505 -1.83371 0
M  V30 9109 C 857.765 1.46138 -0.717454 0
M  V30 9110 O 858.954 1.48186 -0.995142 0
M  V30 9111 C 856.054 2.7575 -1.97016 0
M  V30 9112 C 855.227 2.89866 -3.27561 0
M  V30 9113 C 854.286 4.08704 -3.31433 0
M  V30 9114 O 853.312 4.00073 -4.04883 0
M  V30 9115 N 854.514 5.20062 -2.57907 0
M  V30 9116 H 857.279 1.13505 -2.77375 0
M  V30 9117 H 854.84 0.476006 -1.54744 0
M  V30 9118 H 856.832 3.5352 -1.96991 0
M  V30 9119 H 855.402 2.9263 -1.09938 0
M  V30 9120 H 854.622 1.99085 -3.40234 0
M  V30 9121 H 855.91 2.96219 -4.13681 0
M  V30 9122 H 855.308 5.29958 -1.97891 0
M  V30 9123 H 853.865 5.96111 -2.63619 0
M  V30 9124 N 857.298 1.47698 0.54982 0
M  V30 9125 C 858.709 1.48474 1.13191 0
M  V30 9126 C 859.06 0.243504 1.94683 0
M  V30 9127 O 858.185 -0.651009 2.06375 0
M  V30 9128 C 858.78 2.69022 2.05944 0
M  V30 9129 C 857.339 2.72733 2.5941 0
M  V30 9130 C 856.486 2.41691 1.35944 0
M  V30 9131 H 859.437 1.55101 0.336048 0
M  V30 9132 H 859.458 2.46412 2.89934 0
M  V30 9133 H 858.97 3.59345 1.46605 0
M  V30 9134 H 857.071 1.86568 3.22526 0
M  V30 9135 H 857.184 3.73628 2.99899 0
M  V30 9136 H 855.548 1.92428 1.66864 0
M  V30 9137 H 856.331 3.34231 0.783869 0
M  V30 9138 N 858.776 -0.797141 1.35954 0
M  V30 9139 C 859.706 -1.92387 1.32323 0
M  V30 9140 C 860.687 -1.68967 0.196007 0
M  V30 9141 O 861.872 -1.90193 0.39245 0
M  V30 9142 C 859.002 -3.29286 1.10398 0
M  V30 9143 C 857.956 -3.67212 2.19862 0
M  V30 9144 C 857.282 -5.02377 1.8309 0
M  V30 9145 C 858.582 -3.76602 3.61896 0
M  V30 9146 H 860.276 -1.95683 2.26602 0
M  V30 9147 H 857.822 -0.94007 1.09081 0
M  V30 9148 H 859.775 -4.07721 1.06495 0
M  V30 9149 H 858.499 -3.26358 0.125668 0
M  V30 9150 H 857.158 -2.91069 2.22878 0
M  V30 9151 H 856.806 -4.95961 0.838527 0
M  V30 9152 H 856.506 -5.28722 2.56372 0
M  V30 9153 H 858.03 -5.8324 1.80729 0
M  V30 9154 H 859.444 -4.45246 3.6115 0
M  V30 9155 H 857.841 -4.14425 4.34018 0
M  V30 9156 H 858.911 -2.77906 3.97361 0
M  V30 9157 N 860.254 -1.20106 -1.0204 0
M  V30 9158 C 861.665 -1.00992 -1.57027 0
M  V30 9159 C 862.016 0.434782 -1.91322 0
M  V30 9160 O 861.141 1.31557 -1.71819 0
M  V30 9161 C 861.736 -1.82697 -2.85319 0
M  V30 9162 C 860.295 -1.67959 -3.36848 0
M  V30 9163 C 859.442 -1.80868 -2.10195 0
M  V30 9164 H 862.393 -1.34354 -0.844676 0
M  V30 9165 H 862.414 -1.32809 -3.5657 0
M  V30 9166 H 861.926 -2.87839 -2.60328 0
M  V30 9167 H 860.027 -0.654389 -3.66809 0
M  V30 9168 H 860.14 -2.49006 -4.09308 0
M  V30 9169 H 858.504 -1.24015 -2.22469 0
M  V30 9170 H 859.287 -2.87486 -1.87635 0
M  V30 9171 N 861.732 1.21287 -1.00634 0
M  V30 9172 C 862.679 2.23705 -0.567876 0
M  V30 9173 C 863.649 1.61043 0.406753 0
M  V30 9174 O 864.834 1.88289 0.308499 0
M  V30 9175 C 861.974 3.44961 0.097996 0
M  V30 9176 C 861.087 4.22091 -0.919972 0
M  V30 9177 C 860.222 5.30718 -0.226222 0
M  V30 9178 C 859.261 5.99581 -1.23165 0
M  V30 9179 N 858.398 6.99821 -0.565278 0
M  V30 9180 H 863.238 2.60571 -1.44592 0
M  V30 9181 H 860.775 1.28049 -0.724006 0
M  V30 9182 H 862.733 4.1418 0.501097 0
M  V30 9183 H 861.363 3.08818 0.939744 0
M  V30 9184 H 860.415 3.52038 -1.44131 0
M  V30 9185 H 861.727 4.69476 -1.68505 0
M  V30 9186 H 860.881 6.06253 0.232917 0
M  V30 9187 H 859.62 4.84343 0.571247 0
M  V30 9188 H 858.625 5.22816 -1.70128 0
M  V30 9189 H 859.85 6.48042 -2.03022 0
M  V30 9190 H 857.796 6.55656 0.212508 0
M  V30 9191 H 857.713 7.4528 -1.26858 0
M  V30 9192 H 858.981 7.79393 -0.129389 0
M  V30 9193 N 863.21 0.781244 1.36873 0
M  V30 9194 C 864.456 0.350407 1.9975 0
M  V30 9195 C 864.789 -1.07293 1.6187 0
M  V30 9196 O 864.064 -1.73983 0.869491 0
M  V30 9197 C 864.347 0.504834 3.56544 0
M  V30 9198 C 864.2 1.97127 4.04303 0
M  V30 9199 C 865.519 -0.0851272 4.40018 0
M  V30 9200 H 862.638 0.128794 0.725659 0
M  V30 9201 H 865.28 0.98606 1.6241 0
M  V30 9202 H 863.43 -0.0363006 3.88483 0
M  V30 9203 H 865.102 2.57284 3.82887 0
M  V30 9204 H 863.345 2.47676 3.56145 0
M  V30 9205 H 864.016 2.03033 5.13305 0
M  V30 9206 H 866.492 0.376704 4.14391 0
M  V30 9207 H 865.368 0.0530015 5.48874 0
M  V30 9208 H 865.629 -1.17642 4.2616 0
M  V30 9209 N 864.689 -1.48329 0.532571 0
M  V30 9210 C 865.938 -2.017 -0.00259705 0
M  V30 9211 C 866.251 -1.41469 -1.35077 0
M  V30 9212 O 867.457 -1.86354 -1.97445 0
M  V30 9213 C 865.913 -3.59858 -0.0550179 0
M  V30 9214 C 865.521 -4.29073 1.28842 0
M  V30 9215 C 867.265 -4.21066 -0.538878 0
M  V30 9216 C 865.172 -5.79171 1.19644 0
M  V30 9217 H 864.102 -0.753985 -0.00474081 0
M  V30 9218 H 866.753 -1.70565 0.676739 0
M  V30 9219 H 865.135 -3.87846 -0.799486 0
M  V30 9220 H 866.309 -4.12755 2.04865 0
M  V30 9221 H 864.624 -3.79748 1.70822 0
M  V30 9222 H 867.221 -5.31026 -0.6257 0
M  V30 9223 H 867.564 -3.86559 -1.54525 0
M  V30 9224 H 868.097 -3.97517 0.149984 0
M  V30 9225 H 864.836 -6.18257 2.17805 0
M  V30 9226 H 864.356 -5.97895 0.477609 0
M  V30 9227 H 866.035 -6.40875 0.888186 0
M  V30 9228 N 866.167 -0.267825 -1.55308 0
M  V30 9229 C 867.392 0.357487 -2.04296 0
M  V30 9230 C 867.817 1.49222 -1.14518 0
M  V30 9231 O 867.175 1.80741 -0.142292 0
M  V30 9232 C 867.223 0.822899 -3.51085 0
M  V30 9233 O 866.327 1.93078 -3.6441 0
M  V30 9234 H 865.668 0.075025 -0.659748 0
M  V30 9235 H 868.198 -0.399996 -2.00652 0
M  V30 9236 H 868.208 1.12059 -3.92309 0
M  V30 9237 H 866.883 -0.0073562 -4.15899 0
M  V30 9238 H 865.46 1.63618 -3.35087 0
M  V30 9239 N 867.645 1.57599 0.00500368 0
M  V30 9240 C 868.873 1.94626 0.702016 0
M  V30 9241 C 869.288 0.86953 1.67585 0
M  V30 9242 O 868.645 -0.15199 1.81866 0
M  V30 9243 C 868.696 3.31658 1.43824 0
M  V30 9244 O 868.417 4.35197 0.503467 0
M  V30 9245 C 869.918 3.83114 2.23021 0
M  V30 9246 H 867.138 0.641785 0.195841 0
M  V30 9247 H 869.682 2.04451 -0.0446287 0
M  V30 9248 H 867.837 3.23156 2.13655 0
M  V30 9249 H 868.251 5.1444 1.02235 0
M  V30 9250 H 869.725 4.81438 2.7004 0
M  V30 9251 H 870.202 3.15559 3.05482 0
M  V30 9252 H 870.808 3.94775 1.58216 0
M  V30 9253 N 869.123 -0.277682 1.55134 0
M  V30 9254 C 870.053 -1.34742 1.90701 0
M  V30 9255 C 871.034 -1.51757 0.768354 0
M  V30 9256 O 872.219 -1.64879 1.02609 0
M  V30 9257 C 869.349 -2.70775 2.17481 0
M  V30 9258 C 868.303 -2.68497 3.33307 0
M  V30 9259 C 867.629 -4.08037 3.45557 0
M  V30 9260 C 868.929 -2.28178 4.69821 0
M  V30 9261 H 870.623 -1.05224 2.803 0
M  V30 9262 H 868.169 -0.504738 1.34864 0
M  V30 9263 H 870.122 -3.45719 2.40949 0
M  V30 9264 H 868.846 -3.01867 1.24676 0
M  V30 9265 H 867.505 -1.9601 3.09799 0
M  V30 9266 H 867.153 -4.36344 2.50226 0
M  V30 9267 H 866.853 -4.07409 4.23429 0
M  V30 9268 H 868.377 -4.84726 3.71312 0
M  V30 9269 H 869.791 -2.92843 4.92865 0
M  V30 9270 H 868.188 -2.3872 5.50575 0
M  V30 9271 H 869.258 -1.23308 4.6896 0
M  V30 9272 N 870.601 -1.47988 -0.541979 0
M  V30 9273 C 871.511 -1.64276 -1.67483 0
M  V30 9274 C 872.527 -0.525387 -1.65879 0
M  V30 9275 O 873.703 -0.794912 -1.85049 0
M  V30 9276 C 870.768 -1.66744 -3.03969 0
M  V30 9277 C 869.829 -2.90021 -3.16522 0
M  V30 9278 C 869.062 -2.92362 -4.46498 0
M  V30 9279 O 869.285 -2.03462 -5.32878 0
M  V30 9280 O 868.219 -3.84399 -4.63164 0
M  V30 9281 H 872.045 -2.60164 -1.5668 0
M  V30 9282 H 869.63 -1.31249 -0.71372 0
M  V30 9283 H 871.512 -1.70958 -3.85164 0
M  V30 9284 H 870.187 -0.740277 -3.15122 0
M  V30 9285 H 869.094 -2.91345 -2.34667 0
M  V30 9286 H 870.427 -3.82082 -3.10281 0
M  V30 9287 N 872.079 0.78992 -1.36375 0
M  V30 9288 C 872.989 1.93386 -1.32812 0
M  V30 9289 C 874.005 1.72468 -0.230377 0
M  V30 9290 O 875.181 1.96014 -0.462657 0
M  V30 9291 C 872.246 3.2824 -1.11621 0
M  V30 9292 C 871.307 3.61939 -2.30865 0
M  V30 9293 C 870.54 4.90359 -2.10675 0
M  V30 9294 O 870.763 5.6005 -1.08168 0
M  V30 9295 O 869.697 5.22702 -2.9844 0
M  V30 9296 H 873.523 1.99342 -2.29121 0
M  V30 9297 H 871.108 0.9301 -1.16917 0
M  V30 9298 H 872.99 4.08939 -1.01719 0
M  V30 9299 H 871.665 3.23178 -0.183732 0
M  V30 9300 H 870.572 2.81549 -2.46335 0
M  V30 9301 H 871.905 3.71725 -3.22617 0
M  V30 9302 N 873.557 1.20646 1.01402 0
M  V30 9303 C 874.968 1.01823 1.56489 0
M  V30 9304 C 875.319 -0.42463 1.9155 0
M  V30 9305 O 874.444 -1.30644 1.72514 0
M  V30 9306 C 875.039 1.84208 2.84347 0
M  V30 9307 C 873.598 1.69743 3.35953 0
M  V30 9308 C 872.745 1.8198 2.09233 0
M  V30 9309 H 875.696 1.348 0.837539 0
M  V30 9310 H 875.717 1.34698 3.55861 0
M  V30 9311 H 875.229 2.89215 2.58798 0
M  V30 9312 H 873.33 0.673833 3.66456 0
M  V30 9313 H 873.443 2.51173 4.07981 0
M  V30 9314 H 871.807 1.25193 2.21808 0
M  V30 9315 H 872.59 2.88477 1.86107 0
M  V30 9316 N 875.035 -1.20752 1.01276 0
M  V30 9317 C 876.263 -1.94006 0.718976 0
M  V30 9318 C 876.678 -1.74544 -0.719711 0
M  V30 9319 O 876.035 -1.05697 -1.48776 0
M  V30 9320 C 876.086 -3.46208 1.04031 0
M  V30 9321 O 875.807 -3.65031 2.42248 0
M  V30 9322 C 877.308 -4.36614 0.767032 0
M  V30 9323 H 874.528 -0.616743 0.264327 0
M  V30 9324 H 877.072 -1.53352 1.3529 0
M  V30 9325 H 875.227 -3.84756 0.451852 0
M  V30 9326 H 875.641 -4.59054 2.53712 0
M  V30 9327 H 877.115 -5.42076 1.04198 0
M  V30 9328 H 877.592 -4.38182 -0.298851 0
M  V30 9329 H 878.198 -4.03723 1.33746 0
M  V30 9330 N 876.513 -0.788492 -1.36457 0
M  V30 9331 C 877.924 -0.423742 -1.81828 0
M  V30 9332 C 878.275 1.05221 -1.65599 0
M  V30 9333 O 877.4 1.8163 -1.17641 0
M  V30 9334 C 877.995 -0.762354 -3.30112 0
M  V30 9335 C 876.554 -0.450445 -3.73695 0
M  V30 9336 C 875.701 -0.997482 -2.58738 0
M  V30 9337 H 878.652 -0.981718 -1.24692 0
M  V30 9338 H 878.673 -0.0531136 -3.80463 0
M  V30 9339 H 878.185 -1.83662 -3.41891 0
M  V30 9340 H 876.286 0.615829 -3.67476 0
M  V30 9341 H 876.399 -0.970408 -4.69169 0
M  V30 9342 H 874.763 -0.420761 -2.51201 0
M  V30 9343 H 875.546 -2.07749 -2.73304 0
M  V30 9344 N 877.991 1.48044 -0.54043 0
M  V30 9345 C 878.923 2.2779 0.253854 0
M  V30 9346 C 879.936 1.35999 0.894883 0
M  V30 9347 O 881.125 1.60963 0.771563 0
M  V30 9348 C 878.225 3.09724 1.37566 0
M  V30 9349 C 877.398 4.29364 0.83459 0
M  V30 9350 C 876.457 4.93026 1.83881 0
M  V30 9351 O 875.483 5.51927 1.39159 0
M  V30 9352 N 876.685 4.86207 3.17149 0
M  V30 9353 H 879.45 2.96597 -0.430125 0
M  V30 9354 H 877.011 1.57487 -0.375423 0
M  V30 9355 H 879.003 3.49181 2.04584 0
M  V30 9356 H 877.573 2.43269 1.96314 0
M  V30 9357 H 876.793 3.94198 -0.0118878 0
M  V30 9358 H 878.081 5.06787 0.452155 0
M  V30 9359 H 877.479 4.39523 3.56141 0
M  V30 9360 H 876.036 5.29733 3.79771 0
M  V30 9361 N 879.47 0.276058 1.55163 0
M  V30 9362 C 880.71 -0.341634 2.01525 0
M  V30 9363 C 881.074 -1.52979 1.16023 0
M  V30 9364 O 882.275 -2.21718 1.51968 0
M  V30 9365 C 880.546 -0.713294 3.5021 0
M  V30 9366 S 882.105 -1.31739 4.18558 0
M  V30 9367 H 878.923 -0.1062 0.703024 0
M  V30 9368 H 881.525 0.398112 1.91404 0
M  V30 9369 H 880.229 0.160311 4.10087 0
M  V30 9370 H 879.76 -1.48448 3.64317 0
M  V30 9371 H 881.775 -2.60595 4.22261 0
M  V30 9372 N 880.948 -1.576 0.00335426 0
M  V30 9373 C 882.359 -1.7875 -0.539008 0
M  V30 9374 C 882.71 -0.911097 -1.73763 0
M  V30 9375 O 881.835 -0.114476 -2.16097 0
M  V30 9376 C 882.43 -3.24177 -0.984611 0
M  V30 9377 C 880.989 -3.46412 -1.47226 0
M  V30 9378 C 880.136 -2.74024 -0.425004 0
M  V30 9379 H 883.087 -1.57032 0.229511 0
M  V30 9380 H 883.108 -3.32474 -1.85044 0
M  V30 9381 H 882.62 -3.87938 -0.112035 0
M  V30 9382 H 880.721 -2.8787 -2.36562 0
M  V30 9383 H 880.834 -4.55098 -1.49741 0
M  V30 9384 H 879.198 -2.38741 -0.887394 0
M  V30 9385 H 879.981 -3.40486 0.438662 0
M  V30 9386 N 882.426 0.269451 -1.5528 0
M  V30 9387 C 883.654 1.01872 -1.80082 0
M  V30 9388 C 884.069 1.79802 -0.575917 0
M  V30 9389 O 883.426 1.76735 0.455081 0
M  V30 9390 C 883.477 1.9745 -3.02813 0
M  V30 9391 O 883.198 1.22677 -4.20573 0
M  V30 9392 C 884.699 2.8416 -3.40247 0
M  V30 9393 H 881.919 0.300781 -0.59981 0
M  V30 9394 H 884.463 0.29916 -2.023 0
M  V30 9395 H 882.618 2.64864 -2.82712 0
M  V30 9396 H 883.032 1.87129 -4.89982 0
M  V30 9397 H 884.506 3.47014 -4.29284 0
M  V30 9398 H 884.983 3.54113 -2.59809 0
M  V30 9399 H 885.589 2.22232 -3.6262 0
M  V30 9400 N 883.904 1.48273 0.534124 0
M  V30 9401 C 885.129 1.59988 1.31979 0
M  V30 9402 C 885.554 0.258824 1.86311 0
M  V30 9403 O 884.912 -0.768885 1.64188 0
M  V30 9404 C 884.96 2.64642 2.44943 0
M  V30 9405 O 884.064 2.21515 3.47858 0
M  V30 9406 H 883.405 0.536625 0.391063 0
M  V30 9407 H 885.935 1.94229 0.643135 0
M  V30 9408 H 885.945 2.85786 2.91187 0
M  V30 9409 H 884.62 3.62004 2.04758 0
M  V30 9410 H 883.197 2.10567 3.0776 0
M  V30 9411 N 885.382 -0.782676 1.36792 0
M  V30 9412 C 886.314 -1.9044 1.27536 0
M  V30 9413 C 887.327 -1.61647 0.193426 0
M  V30 9414 O 888.516 -1.72769 0.448692 0
M  V30 9415 C 885.616 -3.2541 0.946641 0
M  V30 9416 C 884.789 -3.81932 2.13183 0
M  V30 9417 C 883.848 -4.95355 1.7751 0
M  V30 9418 O 882.874 -5.11517 2.49678 0
M  V30 9419 N 884.076 -5.76108 0.712755 0
M  V30 9420 H 886.841 -1.98899 2.24186 0
M  V30 9421 H 884.402 -0.96127 1.30274 0
M  V30 9422 H 886.394 -3.98791 0.689043 0
M  V30 9423 H 884.964 -3.12524 0.0690591 0
M  V30 9424 H 884.184 -3.00459 2.55183 0
M  V30 9425 H 885.472 -4.16426 2.92347 0
M  V30 9426 H 884.87 -5.65586 0.113662 0
M  V30 9427 H 883.427 -6.49762 0.514995 0
M  V30 9428 N 886.86 -1.21182 -1.00761 0
M  V30 9429 C 888.108 -1.02543 -1.74153 0
M  V30 9430 C 888.429 0.442372 -1.89916 0
M  V30 9431 O 887.699 1.31927 -1.44818 0
M  V30 9432 H 886.279 -0.37644 -0.645214 0
M  V30 9433 H 888.941 -1.52446 -1.21434 0
M  V30 9434 H 888.037 -1.49122 -2.7417 0
M  V30 9435 N 888.338 1.20213 -1.01915 0
M  V30 9436 C 889.754 1.41696 -0.734459 0
M  V30 9437 C 889.954 1.89504 0.684867 0
M  V30 9438 O 889.01 2.06556 1.45227 0
M  V30 9439 C 890.323 2.43644 -1.76233 0
M  V30 9440 C 891.871 2.57406 -1.78076 0
M  V30 9441 C 892.346 3.626 -2.79796 0
M  V30 9442 N 893.837 3.70086 -2.78551 0
M  V30 9443 C 894.572 4.51145 -3.53915 0
M  V30 9444 N 894.068 5.35988 -4.38963 0
M  V30 9445 N 895.861 4.45702 -3.425 0
M  V30 9446 H 888.012 0.874976 -1.93541 0
M  V30 9447 H 890.275 0.446647 -0.836188 0
M  V30 9448 H 889.981 2.15519 -2.77929 0
M  V30 9449 H 889.855 3.42672 -1.57657 0
M  V30 9450 H 892.242 2.8486 -0.770634 0
M  V30 9451 H 892.323 1.58565 -2.00725 0
M  V30 9452 H 891.967 3.35889 -3.80973 0
M  V30 9453 H 891.897 4.61069 -2.54407 0
M  V30 9454 H 894.388 3.09484 -2.1686 0
M  V30 9455 H 894.701 5.94932 -4.9323 0
M  V30 9456 H 893.046 5.35482 -4.4304 0
M  V30 9457 H 896.237 3.78456 -2.75478 0
M  V30 9458 H 896.41 5.08637 -4.01487 0
M  V30 9459 N 889.816 0.795718 1.36037 0
M  V30 9460 C 891.041 0.38204 2.03851 0
M  V30 9461 C 891.466 -0.995553 1.59594 0
M  V30 9462 O 890.824 -1.64258 0.767401 0
M  V30 9463 C 890.872 0.461248 3.57638 0
M  V30 9464 O 889.976 -0.529448 4.08987 0
M  V30 9465 H 889.317 0.161227 0.644129 0
M  V30 9466 H 891.847 1.07858 1.73861 0
M  V30 9467 H 891.857 0.32712 4.06687 0
M  V30 9468 H 890.532 1.46613 3.89201 0
M  V30 9469 H 889.109 -0.35646 3.71192 0
M  V30 9470 N 891.294 -1.47756 0.548274 0
M  V30 9471 C 892.705 -1.8636 0.112547 0
M  V30 9472 C 893.056 -1.45589 -1.31523 0
M  V30 9473 O 892.181 -0.854874 -1.98799 0
M  V30 9474 C 892.776 -3.38224 0.197473 0
M  V30 9475 C 891.335 -3.75954 -0.183163 0
M  V30 9476 C 890.482 -2.7181 0.549059 0
M  V30 9477 H 893.433 -1.394 0.758506 0
M  V30 9478 H 893.454 -3.75957 -0.586217 0
M  V30 9479 H 892.966 -3.67868 1.23673 0
M  V30 9480 H 891.067 -3.51926 -1.22387 0
M  V30 9481 H 891.18 -4.78801 0.169178 0
M  V30 9482 H 889.544 -2.54699 -0.00682862 0
M  V30 9483 H 890.327 -3.04296 1.5893 0
M  V30 9484 N 892.772 -0.284283 -1.55015 0
M  V30 9485 C 893.735 0.586182 -2.21577 0
M  V30 9486 C 894.735 1.07427 -1.1965 0
M  V30 9487 O 895.925 0.972977 -1.44495 0
M  V30 9488 C 893.057 1.80973 -2.88897 0
M  V30 9489 H 894.25 0.00487253 -2.999 0
M  V30 9490 H 891.803 -0.0349696 -1.56261 0
M  V30 9491 H 892.538 2.43131 -2.14611 0
M  V30 9492 H 892.323 1.46757 -3.636 0
M  V30 9493 H 893.813 2.42853 -3.39724 0
M  V30 9494 N 894.251 1.57596 -0.0117121 0
M  V30 9495 C 895.499 1.90694 0.669342 0
M  V30 9496 C 895.82 0.886999 1.73659 0
M  V30 9497 O 895.09 -0.0739779 1.9576 0
M  V30 9498 H 893.67 0.703846 0.250219 0
M  V30 9499 H 896.332 1.94821 -0.0554057 0
M  V30 9500 H 895.428 2.90802 1.13316 0
M  V30 9501 N 895.729 -0.261212 1.5542 0
M  V30 9502 C 897.14 -0.83138 1.67167 0
M  V30 9503 C 897.491 -1.8659 0.606525 0
M  V30 9504 O 896.616 -2.14953 -0.24985 0
M  V30 9505 C 897.211 -1.51475 3.03052 0
M  V30 9506 C 895.77 -2.0328 3.16787 0
M  V30 9507 C 894.917 -0.878903 2.63003 0
M  V30 9508 H 897.868 -0.0373102 1.58656 0
M  V30 9509 H 897.889 -2.38222 2.96699 0
M  V30 9510 H 897.401 -0.76157 3.80554 0
M  V30 9511 H 895.502 -2.81523 2.44082 0
M  V30 9512 H 895.615 -2.24001 4.2351 0
M  V30 9513 H 893.979 -1.27551 2.2046 0
M  V30 9514 H 894.762 -0.13904 3.43018 0
M  V30 9515 N 897.207 -1.48554 -0.526253 0
M  V30 9516 C 898.435 -1.60429 -1.30652 0
M  V30 9517 C 898.85 -0.265963 -1.86917 0
M  V30 9518 O 898.207 0.745262 -1.6659 0
M  V30 9519 C 898.258 -2.65377 -2.45473 0
M  V30 9520 O 897.979 -3.94017 -1.91527 0
M  V30 9521 C 899.48 -2.87726 -3.37237 0
M  V30 9522 H 896.7 -0.540817 -0.397187 0
M  V30 9523 H 899.244 -1.94409 -0.634461 0
M  V30 9524 H 897.399 -2.34246 -3.08557 0
M  V30 9525 H 897.813 -4.51623 -2.66715 0
M  V30 9526 H 899.287 -3.64951 -4.14144 0
M  V30 9527 H 899.764 -1.96688 -3.92696 0
M  V30 9528 H 900.37 -3.20176 -2.79942 0
M  V30 9529 N 898.685 0.775411 -1.37205 0
M  V30 9530 C 899.931 1.53611 -1.32407 0
M  V30 9531 C 900.264 1.9398 0.0924103 0
M  V30 9532 O 899.539 1.63791 1.04893 0
M  V30 9533 C 899.822 2.80367 -2.25979 0
M  V30 9534 C 899.675 2.46275 -3.76389 0
M  V30 9535 C 900.994 3.82277 -2.18064 0
M  V30 9536 H 898.113 0.557278 -0.482297 0
M  V30 9537 H 900.755 0.889826 -1.67875 0
M  V30 9538 H 898.905 3.35515 -1.95862 0
M  V30 9539 H 900.577 1.9707 -4.17087 0
M  V30 9540 H 898.82 1.79023 -3.95137 0
M  V30 9541 H 899.491 3.36868 -4.37291 0
M  V30 9542 H 901.967 3.36613 -2.44604 0
M  V30 9543 H 900.843 4.68696 -2.85684 0
M  V30 9544 H 901.104 4.26272 -1.17239 0
M  V30 9545 N 900.163 1.21714 1.00117 0
M  V30 9546 C 901.409 1.03823 1.74208 0
M  V30 9547 C 901.742 -0.426733 1.89454 0
M  V30 9548 O 901.017 -1.31658 1.43166 0
M  V30 9549 C 901.3 1.74047 3.15246 0
M  V30 9550 C 901.153 3.28087 3.077 0
M  V30 9551 C 902.472 1.48614 4.14249 0
M  V30 9552 H 899.591 0.378573 0.632338 0
M  V30 9553 H 902.233 1.49942 1.16694 0
M  V30 9554 H 900.383 1.3484 3.64349 0
M  V30 9555 H 902.055 3.76686 2.6628 0
M  V30 9556 H 900.298 3.58191 2.44707 0
M  V30 9557 H 900.969 3.72392 4.07466 0
M  V30 9558 H 903.445 1.82656 3.73866 0
M  V30 9559 H 902.321 2.00257 5.11066 0
M  V30 9560 H 902.582 0.416957 4.40129 0
M  V30 9561 N 901.641 -1.19671 1.02551 0
M  V30 9562 C 902.866 -1.93774 0.739363 0
M  V30 9563 C 903.291 -1.74787 -0.695064 0
M  V30 9564 O 902.649 -1.04796 -1.47944 0
M  V30 9565 C 902.697 -3.43684 1.09149 0
M  V30 9566 O 901.801 -4.11874 0.208213 0
M  V30 9567 H 901.142 -0.605064 0.273484 0
M  V30 9568 H 903.672 -1.51846 1.37128 0
M  V30 9569 H 903.682 -3.94339 1.04695 0
M  V30 9570 H 902.357 -3.56826 2.13654 0
M  V30 9571 H 900.934 -3.716 0.311045 0
M  V30 9572 N 903.119 -0.802921 -1.35613 0
M  V30 9573 C 904.368 -0.378087 -1.98125 0
M  V30 9574 C 904.681 1.05953 -1.64418 0
M  V30 9575 O 905.887 1.58729 -2.20266 0
M  V30 9576 C 904.343 -0.625077 -3.5443 0
M  V30 9577 C 903.951 -2.07499 -3.97049 0
M  V30 9578 C 905.695 -0.265419 -4.23669 0
M  V30 9579 C 903.602 -2.26793 -5.46186 0
M  V30 9580 H 902.532 -0.137633 -0.741332 0
M  V30 9581 H 905.183 -0.986461 -1.54729 0
M  V30 9582 H 903.565 0.0531975 -3.95964 0
M  V30 9583 H 904.739 -2.79077 -3.66678 0
M  V30 9584 H 903.054 -2.39417 -3.40688 0
M  V30 9585 H 905.651 -0.387669 -5.33293 0
M  V30 9586 H 905.994 0.787994 -4.08774 0
M  V30 9587 H 906.527 -0.897464 -3.87544 0
M  V30 9588 H 903.266 -3.30566 -5.66045 0
M  V30 9589 H 902.786 -1.59735 -5.78139 0
M  V30 9590 H 904.465 -2.08165 -6.12598 0
M  V30 9591 N 904.597 1.47463 -0.556102 0
M  V30 9592 C 905.845 2.02075 -0.0315712 0
M  V30 9593 C 906.166 1.43292 1.32259 0
M  V30 9594 O 905.436 0.60771 1.86236 0
M  V30 9595 H 904.016 0.74695 -0.0086816 0
M  V30 9596 H 906.678 1.80879 -0.725859 0
M  V30 9597 H 905.774 3.12047 0.0573538 0
M  V30 9598 N 906.075 0.2925 1.54862 0
M  V30 9599 C 907.323 -0.318633 1.99572 0
M  V30 9600 C 907.644 -1.55062 1.1824 0
M  V30 9601 O 906.914 -1.93943 0.276226 0
M  V30 9602 H 905.494 -0.120722 0.737181 0
M  V30 9603 H 908.156 0.401862 1.90712 0
M  V30 9604 H 907.252 -0.596542 3.06346 0
M  V30 9605 N 907.553 -1.57587 0.0200696 0
M  V30 9606 C 908.801 -1.91046 -0.65922 0
M  V30 9607 C 909.122 -0.896197 -1.73186 0
M  V30 9608 O 908.392 0.0635952 -1.95797 0
M  V30 9609 H 906.972 -0.705163 -0.246483 0
M  V30 9610 H 909.634 -1.94789 0.0657368 0
M  V30 9611 H 908.73 -2.91399 -1.11773 0
M  V30 9612 N 909.032 0.252966 -1.55557 0
M  V30 9613 C 909.979 1.3131 -1.89806 0
M  V30 9614 C 910.949 1.48121 -0.751633 0
M  V30 9615 O 912.134 1.62202 -1.00474 0
M  V30 9616 C 909.274 2.66467 -2.19293 0
M  V30 9617 C 908.387 2.57714 -3.46709 0
M  V30 9618 C 907.522 3.85184 -3.65796 0
M  V30 9619 C 906.561 3.71023 -4.86835 0
M  V30 9620 N 905.698 4.90371 -5.02474 0
M  V30 9621 H 910.538 1.01402 -2.80217 0
M  V30 9622 H 908.075 0.489462 -1.38718 0
M  V30 9623 H 910.033 3.45132 -2.34392 0
M  V30 9624 H 908.663 2.94536 -1.32093 0
M  V30 9625 H 907.715 1.70651 -3.39974 0
M  V30 9626 H 909.027 2.43158 -4.35517 0
M  V30 9627 H 908.181 4.72292 -3.80822 0
M  V30 9628 H 906.92 4.0263 -2.7521 0
M  V30 9629 H 905.925 2.82299 -4.71792 0
M  V30 9630 H 907.15 3.55078 -5.78875 0
M  V30 9631 H 905.096 5.0819 -4.14824 0
M  V30 9632 H 905.013 4.78423 -5.85361 0
M  V30 9633 H 906.281 5.78995 -5.21905 0
M  V30 9634 N 910.51 1.48831 0.518367 0
M  V30 9635 C 911.758 1.57128 1.27103 0
M  V30 9636 C 912.079 0.252098 1.93364 0
M  V30 9637 O 911.349 -0.727281 1.819 0
M  V30 9638 H 909.929 0.578891 0.472116 0
M  V30 9639 H 912.591 1.85361 0.602262 0
M  V30 9640 H 911.687 2.35838 2.04418 0
M  V30 9641 O 912.027 -0.663479 1.47242 0
M  V30 9642 H 912.718 -1.31658 1.42077 0
M  V30 END ATOM
M  V30 BEGIN BOND
M  V30 END BOND
M  V30 END CTAB
M  END
$$$$
