drugbank_target|Q14012 Calcium/calmodulin-dependent protein kinase type 1 (DB12010)
 OpenBabel12092121143D

  0  0  0     0  0            999 V3000
M  V30 BEGIN CTAB
M  V30 COUNTS 5767 5831 0 0 0
M  V30 BEGIN ATOM
M  V30 1 H -0.908 1.98254 -0.117106 0
M  V30 2 N 0 1.576 0 0
M  V30 3 C 0.933 2.03868 1.02534 0
M  V30 4 C 1.911 0.928543 1.3348 0
M  V30 5 O 3.095 1.19667 1.45644 0
M  V30 6 C 0.222 2.43627 2.35294 0
M  V30 7 C -0.732 3.65373 2.2001 0
M  V30 8 S 0.101 5.13292 1.52614 0
M  V30 9 C 1.257 5.56322 2.86805 0
M  V30 10 H 1.49 2.90518 0.631377 0
M  V30 11 H -0.977 1.52953 0.210867 0
M  V30 12 H 0.981 2.67203 3.11629 0
M  V30 13 H -0.358 1.57376 2.7183 0
M  V30 14 H -1.165 3.90944 3.18086 0
M  V30 15 H -1.563 3.418 1.51819 0
M  V30 16 H 0.729 5.58782 3.83104 0
M  V30 17 H 1.672 6.56266 2.65933 0
M  V30 18 H 2.08 4.83886 2.90714 0
M  V30 19 N 1.4781 -0.272755 1.55222 0
M  V30 20 C 2.4081 -1.34136 1.91127 0
M  V30 21 C 3.3891 -1.51513 0.773168 0
M  V30 22 O 4.5741 -1.64552 1.03132 0
M  V30 23 C 1.7041 -2.70083 2.1834 0
M  V30 24 C 0.6581 -2.67437 3.34158 0
M  V30 25 C -0.0159 -4.06938 3.46851 0
M  V30 26 C 1.2841 -2.26686 4.70543 0
M  V30 27 H 2.9781 -1.04333 2.80633 0
M  V30 28 H 0.5241 -0.500454 1.35024 0
M  V30 29 H 2.4771 -3.44952 2.42046 0
M  V30 30 H 1.2011 -3.01469 1.25634 0
M  V30 31 H -0.1399 -1.95026 3.1042 0
M  V30 32 H -0.4919 -4.35547 2.51611 0
M  V30 33 H -0.7919 -4.06062 4.2472 0
M  V30 34 H 0.7321 -4.83545 3.72849 0
M  V30 35 H 2.1461 -2.91277 4.93792 0
M  V30 36 H 0.5431 -2.36971 5.5133 0
M  V30 37 H 1.6131 -1.21818 4.69349 0
M  V30 38 N 2.9562 -1.48159 -0.537278 0
M  V30 39 C 4.2042 -1.55497 -1.29094 0
M  V30 40 C 4.5252 -0.227454 -1.93669 0
M  V30 41 O 3.7952 0.750386 -1.80959 0
M  V30 42 H 2.3752 -0.572832 -0.47945 0
M  V30 43 H 5.0372 -1.84579 -0.625818 0
M  V30 44 H 4.1332 -2.33216 -2.07405 0
M  V30 45 N 4.4343 0.785586 -1.36625 0
M  V30 46 C 5.3973 1.87999 -1.31107 0
M  V30 47 C 6.3973 1.59316 -0.217959 0
M  V30 48 O 7.5873 1.67656 -0.472977 0
M  V30 49 C 4.7193 3.24861 -1.03334 0
M  V30 50 H 5.9123 1.94307 -2.2844 0
M  V30 51 H 3.4653 0.983813 -1.21453 0
M  V30 52 H 4.2003 3.24235 -0.0647432 0
M  V30 53 H 3.9853 3.4707 -1.82441 0
M  V30 54 H 5.4753 4.04929 -1.02088 0
M  V30 55 N 5.9124 1.20967 1.01018 0
M  V30 56 C 7.1584 1.02526 1.74975 0
M  V30 57 C 7.4914 -0.4408 1.89131 0
M  V30 58 O 6.7664 -1.32718 1.42184 0
M  V30 59 C 7.0494 1.71699 3.1653 0
M  V30 60 C 6.9024 3.25791 3.10129 0
M  V30 61 C 8.2214 1.45531 4.15342 0
M  V30 62 H 5.3404 0.373863 0.635134 0
M  V30 63 H 7.9824 1.49071 1.17805 0
M  V30 64 H 6.1324 1.32128 3.65341 0
M  V30 65 H 7.8044 3.74697 2.69072 0
M  V30 66 H 6.0474 3.56363 2.47362 0
M  V30 67 H 6.7184 3.69353 4.10222 0
M  V30 68 H 9.1944 1.79872 3.75213 0
M  V30 69 H 8.0704 1.96453 5.1254 0
M  V30 70 H 8.3314 0.384237 4.40427 0
M  V30 71 N 7.3905 -1.2043 1.01659 0
M  V30 72 C 8.3005 -2.2689 0.596484 0
M  V30 73 C 9.3165 -1.70107 -0.36599 0
M  V30 74 O 10.4925 -2.00117 -0.226942 0
M  V30 75 C 7.5575 -3.4665 -0.0586659 0
M  V30 76 C 6.6185 -4.18662 0.949751 0
M  V30 77 C 5.8515 -5.32705 0.32577 0
M  V30 78 O 6.0745 -5.63656 -0.874509 0
M  V30 79 O 5.0085 -5.92803 1.04249 0
M  V30 80 H 8.8345 -2.65041 1.4828 0
M  V30 81 H 6.4195 -1.27048 0.786082 0
M  V30 82 H 8.3015 -4.19256 -0.424564 0
M  V30 83 H 6.9765 -3.10375 -0.91918 0
M  V30 84 H 5.8835 -3.48229 1.36702 0
M  V30 85 H 7.2165 -4.58878 1.78023 0
M  V30 86 N 8.8686 -0.792821 -1.36206 0
M  V30 87 C 10.1166 -0.366062 -1.98757 0
M  V30 88 C 10.4376 1.0668 -1.63231 0
M  V30 89 O 9.7076 1.73587 -0.907978 0
M  V30 90 H 8.2876 -0.132364 -0.735179 0
M  V30 91 H 10.9496 -1.01562 -1.66347 0
M  V30 92 H 10.0456 -0.460638 -3.08682 0
M  V30 93 N 10.3467 1.47872 -0.545128 0
M  V30 94 C 11.7577 1.86384 -0.108581 0
M  V30 95 C 12.1087 1.45309 1.31832 0
M  V30 96 O 11.2337 0.850641 1.9898 0
M  V30 97 C 11.8287 3.38265 -0.190274 0
M  V30 98 C 10.3877 3.75914 0.191164 0
M  V30 99 C 9.5347 2.71926 -0.543273 0
M  V30 100 H 12.4857 1.39561 -0.755537 0
M  V30 101 H 12.5067 3.75831 0.594217 0
M  V30 102 H 12.0187 3.6813 -1.2289 0
M  V30 103 H 10.1197 3.51665 1.23136 0
M  V30 104 H 10.2327 4.78836 -0.158987 0
M  V30 105 H 8.5967 2.54697 0.0122495 0
M  V30 106 H 9.3797 3.04634 -1.58282 0
M  V30 107 N 11.8248 0.280983 1.55075 0
M  V30 108 C 13.2408 -0.0729964 1.59433 0
M  V30 109 C 13.4408 -1.5411 1.29817 0
M  V30 110 O 12.4968 -2.29086 1.06187 0
M  V30 111 C 13.8098 0.306921 2.9913 0
M  V30 112 C 15.3578 0.254023 3.11968 0
M  V30 113 C 15.8328 0.608467 4.5394 0
M  V30 114 N 17.3238 0.560241 4.59799 0
M  V30 115 C 18.0588 0.80722 5.6769 0
M  V30 116 N 17.5548 1.11912 6.83701 0
M  V30 117 N 19.3478 0.735623 5.57266 0
M  V30 118 H 11.4988 1.238 1.7259 0
M  V30 119 H 13.7618 0.500547 0.805082 0
M  V30 120 H 13.4678 1.32816 3.25657 0
M  V30 121 H 13.3418 -0.349363 3.75579 0
M  V30 122 H 15.7288 -0.75794 2.852 0
M  V30 123 H 15.8098 0.944649 2.37718 0
M  V30 124 H 15.4538 1.61814 4.81434 0
M  V30 125 H 15.3838 -0.104013 5.26497 0
M  V30 126 H 17.8748 0.329288 3.76463 0
M  V30 127 H 18.1878 1.29409 7.61888 0
M  V30 128 H 16.5328 1.15695 6.85303 0
M  V30 129 H 19.7238 0.491752 4.6551 0
M  V30 130 H 19.8968 0.931482 6.4127 0
M  V30 131 N 13.3029 -1.57598 0.00835791 0
M  V30 132 C 14.5489 -1.92046 -0.670055 0
M  V30 133 C 14.9039 -0.88351 -1.70915 0
M  V30 134 O 14.1969 0.103223 -1.91322 0
M  V30 135 C 14.3909 -3.3101 -1.34787 0
M  V30 136 C 14.2199 -4.48126 -0.375945 0
M  V30 137 C 12.9899 -5.05297 0.0166914 0
M  V30 138 C 15.1879 -5.1303 0.361272 0
M  V30 139 N 13.1699 -6.05931 0.985952 0
M  V30 140 C 14.5409 -6.08571 1.18495 0
M  V30 141 C 16.5959 -4.9609 0.42421 0
M  V30 142 C 15.2989 -6.88996 2.06584 0
M  V30 143 C 17.3249 -5.77107 1.29236 0
M  V30 144 C 16.6869 -6.72248 2.10386 0
M  V30 145 H 12.7859 -0.75096 -0.218136 0
M  V30 146 H 15.3699 -1.94572 0.0706669 0
M  V30 147 H 13.5409 -3.29342 -2.05884 0
M  V30 148 H 15.2729 -3.52864 -1.98164 0
M  V30 149 H 12.0279 -4.72279 -0.353435 0
M  V30 150 H 12.4519 -6.60932 1.4662 0
M  V30 151 H 17.0939 -4.22378 -0.188915 0
M  V30 152 H 14.8119 -7.62028 2.6896 0
M  V30 153 H 18.3979 -5.66038 1.34508 0
M  V30 154 H 17.2779 -7.33846 2.76476 0
M  V30 155 N 14.781 0.264519 -1.55364 0
M  V30 156 C 15.728 1.32717 -1.88825 0
M  V30 157 C 16.698 1.48675 -0.740605 0
M  V30 158 O 17.883 1.62945 -0.992657 0
M  V30 159 C 15.023 2.68089 -2.17307 0
M  V30 160 C 14.136 2.60284 -3.44785 0
M  V30 161 C 13.271 3.87892 -3.62924 0
M  V30 162 C 12.31 3.74631 -4.84064 0
M  V30 163 N 11.447 4.94092 -4.98816 0
M  V30 164 H 16.287 1.03481 -2.79456 0
M  V30 165 H 13.824 0.499757 -1.3835 0
M  V30 166 H 15.782 3.46864 -2.31821 0
M  V30 167 H 14.412 2.95509 -1.299 0
M  V30 168 H 13.464 1.73173 -3.38697 0
M  V30 169 H 14.776 2.46388 -4.33698 0
M  V30 170 H 13.93 4.75109 -3.77302 0
M  V30 171 H 12.669 4.04664 -2.7221 0
M  V30 172 H 11.674 2.85797 -4.69681 0
M  V30 173 H 12.899 3.5937 -5.76221 0
M  V30 174 H 10.845 5.11259 -4.11036 0
M  V30 175 H 10.762 4.8276 -5.81789 0
M  V30 176 H 12.03 5.82857 -5.17588 0
M  V30 177 N 16.2591 1.48442 0.529413 0
M  V30 178 C 17.1911 1.59095 1.64989 0
M  V30 179 C 18.2041 0.475212 1.5571 0
M  V30 180 O 19.3931 0.746081 1.6216 0
M  V30 181 C 16.4931 1.50518 3.0364 0
M  V30 182 C 15.6661 2.77142 3.38395 0
M  V30 183 C 14.7251 2.62012 4.56329 0
M  V30 184 O 13.7511 3.35898 4.59522 0
M  V30 185 N 14.9531 1.71667 5.54536 0
M  V30 186 H 17.7181 2.55723 1.56287 0
M  V30 187 H 15.2791 1.45173 0.716697 0
M  V30 188 H 17.2711 1.38091 3.80412 0
M  V30 189 H 15.8411 0.618627 3.06418 0
M  V30 190 H 15.0611 3.0413 2.50796 0
M  V30 191 H 16.3491 3.61146 3.58401 0
M  V30 192 H 15.7471 1.10841 5.54735 0
M  V30 193 H 14.3041 1.65178 6.30523 0
M  V30 194 N 17.7372 -0.778329 1.37039 0
M  V30 195 C 18.7002 -1.87301 1.32102 0
M  V30 196 C 19.7002 -1.59198 0.226405 0
M  V30 197 O 20.8902 -1.67403 0.481861 0
M  V30 198 C 18.0222 -3.24309 1.05055 0
M  V30 199 H 19.2152 -1.93093 2.29467 0
M  V30 200 H 16.7682 -0.977358 1.21973 0
M  V30 201 H 17.5032 -3.24196 0.0819373 0
M  V30 202 H 17.2882 -3.46098 1.84279 0
M  V30 203 H 18.7782 -4.04382 1.04234 0
M  V30 204 N 19.2153 -1.21501 -1.00376 0
M  V30 205 C 20.1253 -0.991447 -2.12621 0
M  V30 206 C 21.1413 0.0568446 -1.73907 0
M  V30 207 O 22.3173 -0.13348 -2.00957 0
M  V30 208 C 19.3823 -0.560312 -3.42142 0
M  V30 209 C 18.4433 -1.68096 -3.95022 0
M  V30 210 C 17.6763 -1.2703 -5.18362 0
M  V30 211 O 17.8993 -0.144438 -5.70217 0
M  V30 212 O 16.8333 -2.08269 -5.64719 0
M  V30 213 H 20.6593 -1.93158 -2.34358 0
M  V30 214 H 18.2443 -0.999999 -1.10997 0
M  V30 215 H 20.1263 -0.329724 -4.20108 0
M  V30 216 H 18.8013 0.351089 -3.2179 0
M  V30 217 H 17.7083 -1.96597 -3.18278 0
M  V30 218 H 19.0413 -2.56983 -4.19786 0
M  V30 219 N 20.6934 1.19889 -1.02296 0
M  V30 220 C 21.9704 1.85148 -0.630832 0
M  V30 221 C 22.3504 1.91385 0.890782 0
M  V30 222 O 21.6984 1.42642 1.78509 0
M  V30 223 C 21.9084 3.24442 -1.28602 0
M  V30 224 C 23.2564 4.00663 -1.4055 0
M  V30 225 O 24.2804 3.33818 -1.24273 0
M  V30 226 O 23.1394 5.20387 -1.66913 0
M  V30 227 H 20.2334 0.797613 -0.218499 0
M  V30 228 H 22.7794 1.27427 -1.12074 0
M  V30 229 H 21.5514 3.14704 -2.32545 0
M  V30 230 H 21.1744 3.89802 -0.7836 0
M  V30 231 N 22.1715 0.800033 1.35784 0
M  V30 232 C 23.4205 0.37387 1.98205 0
M  V30 233 C 23.7335 -1.06302 1.64193 0
M  V30 234 O 24.9395 -1.59198 2.19928 0
M  V30 235 C 23.3955 0.617532 3.54562 0
M  V30 236 C 23.0035 2.06654 3.9749 0
M  V30 237 C 24.7475 0.256401 4.23725 0
M  V30 238 C 22.6545 2.2563 5.46667 0
M  V30 239 H 21.5845 0.136055 0.741623 0
M  V30 240 H 24.2355 0.983166 1.54939 0
M  V30 241 H 22.6175 -0.0616248 3.95952 0
M  V30 242 H 23.7915 2.78296 3.67271 0
M  V30 243 H 22.1065 2.38691 3.41197 0
M  V30 244 H 24.7035 0.376318 5.33374 0
M  V30 245 H 25.0465 -0.796692 4.08606 0
M  V30 246 H 25.5795 0.889214 3.87734 0
M  V30 247 H 22.3185 3.2936 5.66747 0
M  V30 248 H 21.8385 1.58504 5.78478 0
M  V30 249 H 23.5175 2.06861 6.1304 0
M  V30 250 N 23.6496 -1.47581 0.552962 0
M  V30 251 C 25.0656 -1.5818 0.212424 0
M  V30 252 C 25.2656 -1.55213 -1.28496 0
M  V30 253 O 24.3216 -1.45329 -2.06484 0
M  V30 254 C 25.6346 -2.88865 0.835318 0
M  V30 255 C 27.1826 -3.0244 0.806156 0
M  V30 256 C 27.6576 -4.35819 1.40804 0
M  V30 257 N 29.1486 -4.42444 1.37103 0
M  V30 258 C 29.8836 -5.44202 1.80641 0
M  V30 259 N 29.3796 -6.52795 2.32015 0
M  V30 260 N 31.1726 -5.35222 1.71738 0
M  V30 261 H 23.3236 -1.47753 1.52587 0
M  V30 262 H 25.5866 -0.702941 0.636064 0
M  V30 263 H 25.2926 -2.9676 1.88749 0
M  V30 264 H 25.1666 -3.7579 0.325848 0
M  V30 265 H 27.5536 -2.94144 -0.237317 0
M  V30 266 H 27.6346 -2.17068 1.35334 0
M  V30 267 H 27.2786 -4.44871 2.45056 0
M  V30 268 H 27.2086 -5.19916 0.836338 0
M  V30 269 H 29.6996 -3.6456 0.995202 0
M  V30 270 H 30.0126 -7.26609 2.63171 0
M  V30 271 H 28.3576 -6.53696 2.36023 0
M  V30 272 H 31.5486 -4.49284 1.31382 0
M  V30 273 H 31.7216 -6.14389 2.05987 0
M  V30 274 N 25.1277 -0.289203 -1.54924 0
M  V30 275 C 26.4047 0.376032 -1.91951 0
M  V30 276 C 26.7847 1.72622 -1.21511 0
M  V30 277 O 26.1327 2.25853 -0.346767 0
M  V30 278 C 26.3427 0.502378 -3.45365 0
M  V30 279 C 27.6907 0.778741 -4.17398 0
M  V30 280 O 28.7147 0.586647 -3.51336 0
M  V30 281 O 27.5737 1.14698 -5.34328 0
M  V30 282 H 24.6677 0.208167 -0.800372 0
M  V30 283 H 27.2137 -0.336394 -1.66332 0
M  V30 284 H 25.9857 -0.447255 -3.88736 0
M  V30 285 H 25.6087 1.26373 -3.76982 0
M  V30 286 N 26.6058 1.57591 -0.0167156 0
M  V30 287 C 27.8548 1.90461 0.663877 0
M  V30 288 C 28.1678 0.893515 1.73999 0
M  V30 289 O 29.3738 1.11302 2.47637 0
M  V30 290 C 27.8298 3.38155 1.23204 0
M  V30 291 C 27.4378 4.47597 0.189866 0
M  V30 292 C 29.1818 3.80111 1.88986 0
M  V30 293 C 27.0888 5.86379 0.768964 0
M  V30 294 H 26.0188 0.710738 0.251729 0
M  V30 295 H 28.6698 1.83326 -0.0799926 0
M  V30 296 H 27.0518 3.40182 2.02712 0
M  V30 297 H 28.2258 4.57112 -0.581846 0
M  V30 298 H 26.5408 4.14766 -0.368475 0
M  V30 299 H 29.1378 4.81145 2.33247 0
M  V30 300 H 29.4808 3.14511 2.72743 0
M  V30 301 H 30.0138 3.80454 1.16187 0
M  V30 302 H 26.7528 6.55493 -0.0301957 0
M  V30 303 H 26.2728 5.80496 1.50945 0
M  V30 304 H 27.9518 6.34563 1.26251 0
M  V30 305 N 28.0839 -0.256276 1.55502 0
M  V30 306 C 29.3139 -1.00196 1.80677 0
M  V30 307 C 29.7219 -1.79805 0.588797 0
M  V30 308 O 29.0649 -1.78055 -0.451883 0
M  V30 309 C 29.1269 -1.99515 2.99055 0
M  V30 310 C 28.7909 -1.38688 4.35448 0
M  V30 311 C 29.7879 -0.794079 5.138 0
M  V30 312 C 27.4729 -1.40906 4.82132 0
M  V30 313 C 29.4669 -0.231562 6.36979 0
M  V30 314 C 27.1539 -0.842684 6.05262 0
M  V30 315 C 28.1519 -0.254953 6.82524 0
M  V30 316 O 27.8399 0.3027 8.0333 0
M  V30 317 H 27.5719 -0.300919 0.60533 0
M  V30 318 H 30.1259 -0.287307 2.03381 0
M  V30 319 H 28.3559 -2.74785 2.72084 0
M  V30 320 H 30.0449 -2.60349 3.11405 0
M  V30 321 H 30.8109 -0.769519 4.78856 0
M  V30 322 H 26.6899 -1.85591 4.21992 0
M  V30 323 H 30.2339 0.227816 6.97228 0
M  V30 324 H 26.1309 -0.86454 6.39684 0
M  V30 325 H 26.8989 0.193662 8.18271 0
M  V30 326 N 29.562 -1.4872 -0.521534 0
M  V30 327 C 30.839 -1.4766 -1.2828 0
M  V30 328 C 31.219 -0.19292 -2.10217 0
M  V30 329 O 30.567 0.825193 -2.13079 0
M  V30 330 C 30.777 -2.74358 -2.15705 0
M  V30 331 C 32.125 -3.23028 -2.75569 0
M  V30 332 O 33.149 -2.75333 -2.25987 0
M  V30 333 O 32.008 -4.0604 -3.65778 0
M  V30 334 H 29.102 -0.590085 -0.579421 0
M  V30 335 H 31.648 -1.60963 -0.537492 0
M  V30 336 H 30.42 -3.59292 -1.54999 0
M  V30 337 H 30.043 -2.63816 -2.97467 0
M  V30 338 N 31.0401 0.771051 -1.3745 0
M  V30 339 C 32.2871 1.52963 -1.32697 0
M  V30 340 C 32.6151 1.94299 0.0883274 0
M  V30 341 O 31.8701 1.64397 1.0617 0
M  V30 342 C 32.1691 2.80676 -2.2126 0
M  V30 343 C 31.8351 2.58389 -3.69521 0
M  V30 344 C 30.4971 2.52019 -4.09927 0
M  V30 345 C 32.8491 2.38469 -4.63446 0
M  V30 346 C 30.1771 2.23721 -5.42371 0
M  V30 347 C 32.5291 2.11694 -5.96128 0
M  V30 348 C 31.1931 2.03769 -6.35637 0
M  V30 349 H 30.4631 0.559732 -0.485573 0
M  V30 350 H 33.1101 0.888083 -1.69662 0
M  V30 351 H 31.4151 3.49392 -1.77291 0
M  V30 352 H 33.1121 3.38557 -2.14895 0
M  V30 353 H 29.7021 2.6421 -3.37478 0
M  V30 354 H 33.8861 2.4238 -4.33089 0
M  V30 355 H 29.1421 2.16081 -5.71943 0
M  V30 356 H 33.3161 1.9528 -6.6846 0
M  V30 357 H 30.9431 1.81606 -7.38189 0
M  V30 358 N 32.5182 1.22032 0.997298 0
M  V30 359 C 33.9342 0.979326 1.26021 0
M  V30 360 C 34.1342 -0.32972 1.98784 0
M  V30 361 O 33.1902 -1.05345 2.29475 0
M  V30 362 C 34.5032 2.17509 2.07631 0
M  V30 363 C 36.0512 2.21817 2.2083 0
M  V30 364 C 36.5262 3.40933 3.05825 0
M  V30 365 N 38.0172 3.41067 3.13412 0
M  V30 366 C 38.7522 4.29885 3.79455 0
M  V30 367 N 38.2482 5.28914 4.47462 0
M  V30 368 N 40.0412 4.17673 3.76173 0
M  V30 369 H 32.1922 2.06202 0.509352 0
M  V30 370 H 34.4552 0.90334 0.287541 0
M  V30 371 H 34.1612 3.12415 1.61524 0
M  V30 372 H 34.0352 2.17206 3.08385 0
M  V30 373 H 36.4222 1.27462 2.66153 0
M  V30 374 H 36.5032 2.2616 1.1952 0
M  V30 375 H 36.1472 4.35586 2.61203 0
M  V30 376 H 36.0772 3.33829 4.07266 0
M  V30 377 H 38.5682 2.69406 2.65007 0
M  V30 378 H 38.8812 5.92973 4.95583 0
M  V30 379 H 37.2262 5.32831 4.46224 0
M  V30 380 H 40.4172 3.39564 3.22202 0
M  V30 381 H 40.5902 4.87098 4.27363 0
M  V30 382 N 33.9963 -1.19345 1.0293 0
M  V30 383 C 35.2733 -1.84811 0.640642 0
M  V30 384 C 35.6533 -1.91855 -0.88062 0
M  V30 385 O 35.0013 -1.43587 -1.7775 0
M  V30 386 C 35.2113 -3.23755 1.30321 0
M  V30 387 C 36.5593 -3.99912 1.42673 0
M  V30 388 O 37.5833 -3.33155 1.26041 0
M  V30 389 O 36.4423 -5.19494 1.6967 0
M  V30 390 H 33.5363 -0.796443 0.222726 0
M  V30 391 H 36.0823 -1.26831 1.12748 0
M  V30 392 H 34.8543 -3.13466 2.34211 0
M  V30 393 H 34.4773 -3.89381 0.804261 0
M  V30 394 N 35.4744 -0.807222 -1.35358 0
M  V30 395 C 36.7204 -0.388463 -1.99045 0
M  V30 396 C 37.0534 1.04184 -1.63888 0
M  V30 397 O 36.3284 1.72292 -0.902535 0
M  V30 398 C 36.6114 -0.572783 -3.55515 0
M  V30 399 C 36.4644 -2.04807 -4.00468 0
M  V30 400 C 37.7834 0.00114064 -4.401 0
M  V30 401 H 34.9024 -0.142619 -0.723069 0
M  V30 402 H 37.5444 -1.01687 -1.60498 0
M  V30 403 H 35.6944 -0.0378425 -3.88482 0
M  V30 404 H 37.3664 -2.64544 -3.77908 0
M  V30 405 H 35.6094 -2.54427 -3.51353 0
M  V30 406 H 36.2804 -2.12792 -5.09337 0
M  V30 407 H 38.7564 -0.455716 -4.13597 0
M  V30 408 H 37.6324 -0.157737 -5.48673 0
M  V30 409 H 37.8934 1.09488 -4.28328 0
M  V30 410 N 36.9525 1.47285 -0.560781 0
M  V30 411 C 37.8825 2.32857 0.173105 0
M  V30 412 C 38.8635 1.44009 0.905281 0
M  V30 413 O 40.0485 1.7286 0.885046 0
M  V30 414 C 37.1785 3.25861 1.20133 0
M  V30 415 C 36.1325 4.23978 0.585388 0
M  V30 416 C 35.4585 5.06332 1.7185 0
M  V30 417 C 36.7585 5.20242 -0.463178 0
M  V30 418 H 38.4525 2.94466 -0.541307 0
M  V30 419 H 35.9985 1.41601 -0.261764 0
M  V30 420 H 37.9515 3.84569 1.72293 0
M  V30 421 H 36.6755 2.62315 1.94573 0
M  V30 422 H 35.3345 3.66501 0.085054 0
M  V30 423 H 34.9825 4.39186 2.45203 0
M  V30 424 H 34.6825 5.72762 1.31213 0
M  V30 425 H 36.2065 5.67899 2.24329 0
M  V30 426 H 37.6205 5.73293 -0.027502 0
M  V30 427 H 36.0175 5.94896 -0.788627 0
M  V30 428 H 37.0875 4.65504 -1.35773 0
M  V30 429 N 38.4306 0.297415 1.54768 0
M  V30 430 C 39.6786 -0.312295 1.99673 0
M  V30 431 C 39.9996 -1.54686 1.18732 0
M  V30 432 O 39.2696 -1.93854 0.282382 0
M  V30 433 H 37.8496 -0.118381 0.73756 0
M  V30 434 H 40.5116 0.407915 1.90583 0
M  V30 435 H 39.6076 -0.586813 3.06534 0
M  V30 436 N 39.9087 -1.5758 0.0250728 0
M  V30 437 C 41.1367 -1.9593 -0.664747 0
M  V30 438 C 41.5517 -0.901352 -1.65895 0
M  V30 439 O 40.9087 0.117255 -1.82123 0
M  V30 440 C 40.9597 -3.34342 -1.37468 0
M  V30 441 O 40.6807 -4.36079 -0.420324 0
M  V30 442 C 42.1817 -3.873 -2.1567 0
M  V30 443 H 39.4017 -0.645405 -0.183557 0
M  V30 444 H 41.9457 -2.04329 0.0836372 0
M  V30 445 H 40.1007 -3.27175 -2.0745 0
M  V30 446 H 40.5147 -5.16297 -0.923991 0
M  V30 447 H 41.9887 -4.86504 -2.60803 0
M  V30 448 H 42.4657 -3.21331 -2.99405 0
M  V30 449 H 43.0717 -3.97723 -1.50654 0
M  V30 450 N 41.3868 0.248026 -1.55636 0
M  V30 451 C 42.6348 0.974295 -1.77065 0
M  V30 452 C 42.9558 1.85897 -0.588849 0
M  V30 453 O 42.2258 1.91868 0.395407 0
M  V30 454 H 40.8058 0.362733 -0.653019 0
M  V30 455 H 43.4678 0.266244 -1.93073 0
M  V30 456 H 42.5638 1.59667 -2.68166 0
M  V30 457 N 42.8649 1.48995 0.513639 0
M  V30 458 C 43.8279 1.64229 1.59879 0
M  V30 459 C 44.8279 0.514696 1.5234 0
M  V30 460 O 46.0179 0.78087 1.55718 0
M  V30 461 C 43.1499 1.62783 2.99524 0
M  V30 462 H 44.3429 2.61004 1.47705 0
M  V30 463 H 41.8959 1.37837 0.736936 0
M  V30 464 H 42.6309 0.675461 3.17188 0
M  V30 465 H 42.4159 2.4466 3.06404 0
M  V30 466 H 43.9059 1.76669 3.78388 0
M  V30 467 N 44.343 -0.763751 1.37857 0
M  V30 468 C 45.59 -1.52257 1.33506 0
M  V30 469 C 45.918 -1.94343 -0.078022 0
M  V30 470 O 45.173 -1.64958 -1.05297 0
M  V30 471 C 45.472 -2.79499 2.22745 0
M  V30 472 C 45.138 -2.56426 3.70886 0
M  V30 473 C 43.8 -2.49842 4.11257 0
M  V30 474 C 46.152 -2.36008 4.64704 0
M  V30 475 C 43.48 -2.20841 5.43549 0
M  V30 476 C 45.832 -2.0853 5.97242 0
M  V30 477 C 44.496 -2.00396 6.36709 0
M  V30 478 H 43.766 -0.557149 0.488534 0
M  V30 479 H 46.413 -0.879073 1.70131 0
M  V30 480 H 44.718 -3.48447 1.79142 0
M  V30 481 H 46.415 -3.37413 2.16688 0
M  V30 482 H 43.005 -2.62416 3.38874 0
M  V30 483 H 47.189 -2.40079 4.34368 0
M  V30 484 H 42.445 -2.13045 5.73081 0
M  V30 485 H 46.619 -1.91732 6.69486 0
M  V30 486 H 44.246 -1.77688 7.39142 0
M  V30 487 N 45.8211 -1.22559 -0.990812 0
M  V30 488 C 47.0461 -1.07862 -1.77145 0
M  V30 489 C 47.4711 0.366447 -1.84496 0
M  V30 490 O 46.8291 1.26478 -1.29896 0
M  V30 491 C 46.8771 -1.69686 -3.18181 0
M  V30 492 O 45.9811 -0.951946 -4.01263 0
M  V30 493 H 45.3221 -0.378712 -0.545411 0
M  V30 494 H 47.8521 -1.62399 -1.2445 0
M  V30 495 H 47.8621 -1.74496 -3.68802 0
M  V30 496 H 46.5371 -2.74841 -3.12146 0
M  V30 497 H 45.1141 -0.980011 -3.59792 0
M  V30 498 N 47.2992 1.18797 -1.03562 0
M  V30 499 C 48.2092 2.25913 -0.632505 0
M  V30 500 C 49.2252 1.70668 0.338882 0
M  V30 501 O 50.4012 2.00453 0.195076 0
M  V30 502 C 47.4662 3.467 0.00350942 0
M  V30 503 C 46.5272 4.17098 -1.01624 0
M  V30 504 C 45.7602 5.32119 -0.410478 0
M  V30 505 O 45.9832 5.64976 0.784725 0
M  V30 506 O 44.9172 5.9107 -1.13667 0
M  V30 507 H 48.7432 2.62648 -1.52478 0
M  V30 508 H 46.3282 1.25781 -0.806195 0
M  V30 509 H 48.2102 4.19878 0.35781 0
M  V30 510 H 46.8852 3.11798 0.869686 0
M  V30 511 H 45.7922 3.4601 -1.42224 0
M  V30 512 H 47.1252 4.55987 -1.85301 0
M  V30 513 N 48.7773 0.814389 1.34928 0
M  V30 514 C 50.0233 0.399013 1.98836 0
M  V30 515 C 50.3563 -1.03314 1.64438 0
M  V30 516 O 49.6313 -1.71811 0.911659 0
M  V30 517 C 49.9143 0.591629 3.55207 0
M  V30 518 C 49.7673 2.06928 3.99376 0
M  V30 519 C 51.0863 0.022199 4.40094 0
M  V30 520 H 48.2053 0.146451 0.722303 0
M  V30 521 H 50.8473 1.02537 1.59957 0
M  V30 522 H 48.9973 0.0584441 3.88456 0
M  V30 523 H 50.6693 2.66544 3.76499 0
M  V30 524 H 48.9123 2.56287 3.49999 0
M  V30 525 H 49.5833 2.1549 5.08201 0
M  V30 526 H 52.0593 0.477643 4.13349 0
M  V30 527 H 50.9353 0.186832 5.48582 0
M  V30 528 H 51.1963 -1.07215 4.28902 0
M  V30 529 N 50.2554 -1.46986 0.568584 0
M  V30 530 C 51.5044 -2.01646 0.0465894 0
M  V30 531 C 51.8174 -1.44721 -1.31587 0
M  V30 532 O 53.0234 -1.91113 -1.92842 0
M  V30 533 C 51.4794 -3.59885 0.032752 0
M  V30 534 C 51.0874 -4.25804 1.39266 0
M  V30 535 C 52.8314 -4.22255 -0.436038 0
M  V30 536 C 50.7384 -5.76081 1.33732 0
M  V30 537 H 49.6684 -0.753876 0.013647 0
M  V30 538 H 52.3194 -1.68864 0.718131 0
M  V30 539 H 50.7014 -3.8968 -0.704669 0
M  V30 540 H 51.8754 -4.07637 2.1487 0
M  V30 541 H 50.1904 -3.7547 1.80032 0
M  V30 542 H 52.7874 -5.32394 -0.49602 0
M  V30 543 H 53.1304 -3.90212 -1.45053 0
M  V30 544 H 53.6634 -3.97033 0.246877 0
M  V30 545 H 50.4024 -6.12761 2.32817 0
M  V30 546 H 49.9224 -5.96553 0.623267 0
M  V30 547 H 51.6014 -6.38518 1.0442 0
M  V30 548 N 51.7335 -0.305618 -1.54608 0
M  V30 549 C 52.6635 0.561482 -2.26649 0
M  V30 550 C 53.6445 1.13415 -1.26772 0
M  V30 551 O 54.8295 1.16262 -1.55553 0
M  V30 552 C 51.9595 1.73122 -3.01075 0
M  V30 553 C 50.9135 1.2887 -4.08138 0
M  V30 554 C 50.2395 2.54396 -4.70305 0
M  V30 555 C 51.5395 0.416578 -5.20636 0
M  V30 556 H 53.2335 -0.0393902 -2.99374 0
M  V30 557 H 50.7795 -0.020385 -1.43986 0
M  V30 558 H 52.7325 2.34396 -3.50195 0
M  V30 559 H 51.4565 2.3584 -2.25936 0
M  V30 560 H 50.1155 0.698991 -3.59875 0
M  V30 561 H 49.7635 3.15439 -3.918 0
M  V30 562 H 49.4635 2.25486 -5.42614 0
M  V30 563 H 50.9875 3.16464 -5.2219 0
M  V30 564 H 52.4015 0.935116 -5.65622 0
M  V30 565 H 50.7985 0.221046 -5.99693 0
M  V30 566 H 51.8685 -0.557162 -4.81688 0
M  V30 567 N 53.2116 1.57565 -0.0334293 0
M  V30 568 C 54.1746 2.09393 0.932048 0
M  V30 569 C 55.1746 1.00986 1.25134 0
M  V30 570 O 56.3646 1.27129 1.19096 0
M  V30 571 C 53.4966 2.56338 2.2473 0
M  V30 572 H 54.6896 2.95984 0.483085 0
M  V30 573 H 52.2426 1.54819 0.21468 0
M  V30 574 H 52.9776 1.7309 2.74245 0
M  V30 575 H 52.7626 3.35542 2.02865 0
M  V30 576 H 54.2526 2.96646 2.93923 0
M  V30 577 N 54.6897 -0.239769 1.55765 0
M  V30 578 C 55.5997 -1.31831 1.94056 0
M  V30 579 C 56.6157 -1.52275 0.841925 0
M  V30 580 O 57.7917 -1.65759 1.14394 0
M  V30 581 C 54.8567 -2.65156 2.23368 0
M  V30 582 C 53.9177 -2.53173 3.46701 0
M  V30 583 C 53.1507 -3.8014 3.74606 0
M  V30 584 O 53.3737 -4.82343 3.04469 0
M  V30 585 O 52.3077 -3.78344 4.68123 0
M  V30 586 H 56.1337 -1.02347 2.85935 0
M  V30 587 H 53.7187 -0.441123 1.42739 0
M  V30 588 H 55.6007 -3.43929 2.43497 0
M  V30 589 H 54.2757 -2.94358 1.34666 0
M  V30 590 H 53.1827 -1.72662 3.31871 0
M  V30 591 H 54.5157 -2.28915 4.35728 0
M  V30 592 N 56.1678 -1.49265 -0.50573 0
M  V30 593 C 57.4448 -1.49012 -1.26707 0
M  V30 594 C 57.8248 -0.215205 -2.1 0
M  V30 595 O 57.1728 0.802547 -2.13943 0
M  V30 596 C 57.3828 -2.7663 -2.12783 0
M  V30 597 C 58.7308 -3.25932 -2.72127 0
M  V30 598 O 59.7548 -2.77715 -2.23054 0
M  V30 599 O 58.6138 -4.09897 -3.61451 0
M  V30 600 H 55.7078 -0.596197 -0.57313 0
M  V30 601 H 58.2538 -1.61524 -0.52039 0
M  V30 602 H 57.0258 -3.60916 -1.5118 0
M  V30 603 H 56.6488 -2.66956 -2.94653 0
M  V30 604 N 57.6459 0.756429 -1.3826 0
M  V30 605 C 58.5929 1.87011 -1.35261 0
M  V30 606 C 59.5629 1.64695 -0.215616 0
M  V30 607 O 60.7479 1.864 -0.407399 0
M  V30 608 C 57.8879 3.24275 -1.18068 0
M  V30 609 C 57.0009 3.58442 -2.41129 0
M  V30 610 C 56.1359 4.84994 -2.16689 0
M  V30 611 C 55.1749 5.11939 -3.35537 0
M  V30 612 N 54.3119 6.29685 -3.10549 0
M  V30 613 H 59.1519 1.8891 -2.30472 0
M  V30 614 H 56.6889 0.923373 -1.14509 0
M  V30 615 H 58.6469 4.03479 -1.06116 0
M  V30 616 H 57.2769 3.21711 -0.264973 0
M  V30 617 H 56.3289 2.74103 -2.63764 0
M  V30 618 H 57.6409 3.74283 -3.29717 0
M  V30 619 H 56.7949 5.72135 -2.01857 0
M  V30 620 H 55.5339 4.71286 -1.25462 0
M  V30 621 H 54.5389 4.23268 -3.50891 0
M  V30 622 H 55.7639 5.27546 -4.27635 0
M  V30 623 H 53.7099 6.17306 -2.21967 0
M  V30 624 H 53.6269 6.46014 -3.92686 0
M  V30 625 H 54.8949 7.19722 -2.99367 0
M  V30 626 N 59.124 1.23083 0.984299 0
M  V30 627 C 60.54 0.992637 1.24975 0
M  V30 628 C 60.74 -0.308618 1.99123 0
M  V30 629 O 59.796 -1.02905 2.30579 0
M  V30 630 C 61.109 2.19698 2.05312 0
M  V30 631 C 62.657 2.24147 2.18465 0
M  V30 632 C 63.132 3.44157 3.02192 0
M  V30 633 N 64.623 3.44372 3.09777 0
M  V30 634 C 65.358 4.33886 3.74874 0
M  V30 635 N 64.854 5.3363 4.41827 0
M  V30 636 N 66.647 4.21639 3.71721 0
M  V30 637 H 58.798 2.06731 0.487453 0
M  V30 638 H 61.061 0.906339 0.277944 0
M  V30 639 H 60.767 3.1411 1.58201 0
M  V30 640 H 60.641 2.20465 3.06064 0
M  V30 641 H 63.028 1.30277 2.64786 0
M  V30 642 H 63.109 2.27415 1.17115 0
M  V30 643 H 62.753 4.38332 2.56568 0
M  V30 644 H 62.683 3.3813 4.03702 0
M  V30 645 H 65.174 2.72201 2.62135 0
M  V30 646 H 65.487 5.98196 4.89266 0
M  V30 647 H 63.832 5.37534 4.40548 0
M  V30 648 H 67.023 3.42962 3.18582 0
M  V30 649 H 67.196 4.91604 4.22173 0
M  V30 650 N 60.6021 -1.18246 1.0419 0
M  V30 651 C 61.8301 -1.92195 0.766072 0
M  V30 652 C 62.2451 -1.76247 -0.676933 0
M  V30 653 O 61.6021 -1.09293 -1.46155 0
M  V30 654 C 61.6531 -3.43568 1.12442 0
M  V30 655 O 61.3741 -3.59015 2.51078 0
M  V30 656 C 62.8751 -4.34613 0.873275 0
M  V30 657 H 60.0951 -0.610114 0.279288 0
M  V30 658 H 62.6391 -1.50007 1.38989 0
M  V30 659 H 60.7941 -3.8354 0.545542 0
M  V30 660 H 61.2081 -4.5273 2.64831 0
M  V30 661 H 62.6821 -5.39374 1.17385 0
M  V30 662 H 63.1591 -4.38781 -0.191909 0
M  V30 663 H 63.7651 -4.00341 1.43551 0
M  V30 664 N 62.0802 -0.821533 -1.34494 0
M  V30 665 C 63.0122 -0.199946 -2.28326 0
M  V30 666 C 64.0252 0.609377 -1.50965 0
M  V30 667 O 65.2142 0.439285 -1.7301 0
M  V30 668 C 62.3142 0.738431 -3.30757 0
M  V30 669 C 61.4872 -0.0277632 -4.37391 0
M  V30 670 C 60.5462 0.831332 -5.19591 0
M  V30 671 O 59.5722 0.276822 -5.68526 0
M  V30 672 N 60.7742 2.15132 -5.39165 0
M  V30 673 H 63.5392 -1.00609 -2.82308 0
M  V30 674 H 61.1002 -0.678366 -1.47003 0
M  V30 675 H 63.0922 1.31773 -3.82646 0
M  V30 676 H 61.6622 1.44533 -2.7718 0
M  V30 677 H 60.8822 -0.788359 -3.86236 0
M  V30 678 H 62.1702 -0.555251 -5.05761 0
M  V30 679 H 61.5682 2.62559 -5.01078 0
M  V30 680 H 60.1252 2.6795 -5.94177 0
M  V30 681 N 63.5583 1.46682 -0.576371 0
M  V30 682 C 64.5053 2.30241 0.160499 0
M  V30 683 C 65.4753 1.40233 0.890162 0
M  V30 684 O 66.6603 1.69186 0.882084 0
M  V30 685 C 63.8003 3.24578 1.1723 0
M  V30 686 C 62.9133 4.29684 0.446736 0
M  V30 687 C 62.0483 5.11154 1.44551 0
M  V30 688 C 61.0873 6.08015 0.70599 0
M  V30 689 N 60.2243 6.82376 1.65251 0
M  V30 690 H 65.0643 2.92727 -0.558127 0
M  V30 691 H 62.6013 1.44272 -0.287056 0
M  V30 692 H 64.5593 3.77711 1.77172 0
M  V30 693 H 63.1893 2.63916 1.85872 0
M  V30 694 H 62.2413 3.79458 -0.267594 0
M  V30 695 H 63.5533 4.98626 -0.131686 0
M  V30 696 H 62.7073 5.68533 2.11791 0
M  V30 697 H 61.4463 4.42158 2.05786 0
M  V30 698 H 60.4513 5.49796 0.0197725 0
M  V30 699 H 61.6763 6.79028 0.09912 0
M  V30 700 H 59.6223 6.16094 2.25308 0
M  V30 701 H 59.5393 7.47556 1.12673 0
M  V30 702 H 60.8073 7.44316 2.31546 0
M  V30 703 N 65.0364 0.313813 1.54444 0
M  V30 704 C 65.9664 -0.549454 2.26943 0
M  V30 705 C 66.9474 -1.12741 1.27372 0
M  V30 706 O 68.1324 -1.15436 1.56167 0
M  V30 707 C 65.2624 -1.71523 3.01989 0
M  V30 708 C 64.2164 -1.26703 4.08816 0
M  V30 709 C 63.5424 -2.51898 4.71647 0
M  V30 710 C 64.8424 -0.388962 5.2085 0
M  V30 711 H 66.5364 0.0552661 2.99349 0
M  V30 712 H 64.0824 0.0280207 1.43973 0
M  V30 713 H 66.0354 -2.32535 3.51433 0
M  V30 714 H 64.7594 -2.34639 2.27183 0
M  V30 715 H 63.4184 -0.679896 3.6024 0
M  V30 716 H 63.0664 -3.13356 3.93468 0
M  V30 717 H 62.7664 -2.22605 5.43802 0
M  V30 718 H 64.2904 -3.1369 5.23861 0
M  V30 719 H 65.7044 -0.905107 5.6611 0
M  V30 720 H 64.1014 -0.18924 5.99802 0
M  V30 721 H 65.1714 0.582699 4.81386 0
M  V30 722 N 66.5145 -1.57545 0.0417849 0
M  V30 723 C 67.7605 -1.92601 -0.635021 0
M  V30 724 C 68.0935 -0.919627 -1.71045 0
M  V30 725 O 67.3685 0.0557892 -1.9442 0
M  V30 726 C 67.6515 -3.38085 -1.23979 0
M  V30 727 C 67.5045 -4.49467 -0.173057 0
M  V30 728 C 68.8235 -3.83776 -2.15416 0
M  V30 729 H 65.9425 -0.700397 -0.229374 0
M  V30 730 H 68.5845 -1.89728 0.101633 0
M  V30 731 H 66.7345 -3.40664 -1.86762 0
M  V30 732 H 68.4065 -4.59018 0.458312 0
M  V30 733 H 66.6495 -4.30909 0.499996 0
M  V30 734 H 67.3205 -5.48323 -0.636054 0
M  V30 735 H 69.7965 -3.83013 -1.62605 0
M  V30 736 H 68.6725 -4.8624 -2.54679 0
M  V30 737 H 68.9335 -3.19998 -3.05047 0
M  V30 738 N 67.9926 0.231505 -1.5589 0
M  V30 739 C 68.9556 1.27028 -1.90779 0
M  V30 740 C 69.9556 1.40308 -0.785507 0
M  V30 741 O 71.1456 1.38744 -1.05336 0
M  V30 742 C 68.2776 2.64566 -2.14983 0
M  V30 743 H 69.4706 0.973017 -2.83677 0
M  V30 744 H 67.0236 0.471486 -1.49019 0
M  V30 745 H 67.7586 2.99406 -1.24604 0
M  V30 746 H 67.5436 2.56305 -2.96732 0
M  V30 747 H 69.0336 3.39543 -2.43105 0
M  V30 748 N 69.4707 1.49531 0.497807 0
M  V30 749 C 70.7197 1.58426 1.24837 0
M  V30 750 C 71.0327 0.277643 1.93619 0
M  V30 751 O 72.2387 0.24517 2.70391 0
M  V30 752 C 70.6947 2.79538 2.26686 0
M  V30 753 C 70.3027 4.16971 1.63828 0
M  V30 754 C 72.0467 2.97764 3.0255 0
M  V30 755 C 69.9537 5.29301 2.63807 0
M  V30 756 H 68.8837 0.58989 0.469623 0
M  V30 757 H 71.5347 1.75923 0.521857 0
M  V30 758 H 69.9167 2.55542 3.02514 0
M  V30 759 H 71.0907 4.51116 0.939711 0
M  V30 760 H 69.4057 4.04129 1.00342 0
M  V30 761 H 72.0027 3.78856 3.77323 0
M  V30 762 H 72.3457 2.08448 3.60354 0
M  V30 763 H 72.8787 3.21815 2.33838 0
M  V30 764 H 69.6177 6.20687 2.10779 0
M  V30 765 H 69.1377 4.99606 3.31894 0
M  V30 766 H 70.8167 5.58768 3.2617 0
M  V30 767 N 70.9488 -0.749086 1.3866 0
M  V30 768 C 71.8958 -1.86291 1.36251 0
M  V30 769 C 72.8658 -1.64578 0.224347 0
M  V30 770 O 74.0508 -1.86181 0.417279 0
M  V30 771 C 71.1908 -3.23644 1.19786 0
M  V30 772 C 70.3038 -3.57158 2.43027 0
M  V30 773 C 69.4388 -4.83838 2.19258 0
M  V30 774 C 68.4778 -5.10152 3.38247 0
M  V30 775 N 67.6148 -6.28029 3.13884 0
M  V30 776 H 72.4548 -1.87685 2.3147 0
M  V30 777 H 69.9918 -0.917287 1.14997 0
M  V30 778 H 71.9498 -4.0291 1.08254 0
M  V30 779 H 70.5798 -3.21566 0.282031 0
M  V30 780 H 69.6318 -2.72701 2.65214 0
M  V30 781 H 70.9438 -3.7253 3.31697 0
M  V30 782 H 70.0978 -5.71057 2.04888 0
M  V30 783 H 68.8368 -4.70614 1.2796 0
M  V30 784 H 67.8418 -4.21401 3.53131 0
M  V30 785 H 69.0668 -5.25271 4.30427 0
M  V30 786 H 67.0128 -6.1612 2.25238 0
M  V30 787 H 66.9298 -6.43922 3.96106 0
M  V30 788 H 68.1978 -7.18124 3.03179 0
M  V30 789 N 72.4269 -1.23603 -0.977757 0
M  V30 790 C 73.6669 -1.08148 -1.73446 0
M  V30 791 C 74.0309 0.374785 -1.88307 0
M  V30 792 O 75.2319 0.650588 -2.60808 0
M  V30 793 C 73.5029 -1.78991 -3.0935 0
M  V30 794 S 75.0619 -1.79141 -4.00567 0
M  V30 795 H 71.8799 -0.386987 -0.596458 0
M  V30 796 H 74.4819 -1.5678 -1.16792 0
M  V30 797 H 73.1859 -2.8408 -2.96187 0
M  V30 798 H 72.7169 -1.30651 -3.71071 0
M  V30 799 H 74.7319 -0.851892 -4.88833 0
M  V30 800 N 73.905 1.17692 -1.04816 0
M  V30 801 C 75.154 1.87192 -0.751132 0
M  V30 802 C 75.467 1.8169 0.724441 0
M  V30 803 O 76.673 2.46625 1.13527 0
M  V30 804 C 75.129 3.35857 -1.29338 0
M  V30 805 C 74.737 3.4987 -2.79812 0
M  V30 806 C 76.481 4.10709 -1.07322 0
M  V30 807 C 74.388 4.92536 -3.27356 0
M  V30 808 H 73.318 0.701162 -0.277288 0
M  V30 809 H 75.969 1.32932 -1.26496 0
M  V30 810 H 74.351 3.89631 -0.707376 0
M  V30 811 H 75.525 3.06332 -3.44235 0
M  V30 812 H 73.84 2.88433 -3.00325 0
M  V30 813 H 76.437 5.15952 -1.4035 0
M  V30 814 H 76.78 4.16299 -0.0108001 0
M  V30 815 H 77.313 3.6313 -1.62423 0
M  V30 816 H 74.052 4.92119 -4.33012 0
M  V30 817 H 73.572 5.3676 -2.67673 0
M  V30 818 H 75.251 5.61288 -3.21815 0
M  V30 819 N 75.3831 0.828654 1.34056 0
M  V30 820 C 76.3461 0.259927 2.27721 0
M  V30 821 C 77.3461 -0.565478 1.50529 0
M  V30 822 O 78.5361 -0.38075 1.69988 0
M  V30 823 C 75.6681 -0.634944 3.34935 0
M  V30 824 H 76.8611 1.0863 2.79534 0
M  V30 825 H 74.4141 0.600951 1.44285 0
M  V30 826 H 75.1491 -1.48416 2.88346 0
M  V30 827 H 74.9341 -0.0444999 3.92075 0
M  V30 828 H 76.4241 -1.02648 4.04788 0
M  V30 829 N 76.8612 -1.46375 0.584142 0
M  V30 830 C 77.8082 -2.30323 -0.148286 0
M  V30 831 C 78.7782 -1.40703 -0.882713 0
M  V30 832 O 79.9632 -1.69651 -0.873099 0
M  V30 833 C 77.1032 -3.25196 -1.15507 0
M  V30 834 C 76.2162 -4.29915 -0.423943 0
M  V30 835 C 75.3512 -5.11914 -1.41838 0
M  V30 836 C 74.3902 -6.08381 -0.673736 0
M  V30 837 N 73.5272 -6.83242 -1.6163 0
M  V30 838 H 78.3672 -2.92427 0.573644 0
M  V30 839 H 75.9042 -1.44118 0.294703 0
M  V30 840 H 77.8622 -3.78646 -1.75166 0
M  V30 841 H 76.4922 -2.64898 -1.8447 0
M  V30 842 H 75.5442 -3.7931 0.287714 0
M  V30 843 H 76.8562 -4.98549 0.158128 0
M  V30 844 H 76.0102 -5.69648 -2.08773 0
M  V30 845 H 74.7492 -4.43243 -2.03438 0
M  V30 846 H 73.7542 -5.49799 0.00938483 0
M  V30 847 H 74.9792 -6.79071 -0.0631082 0
M  V30 848 H 72.9252 -6.1728 -2.22038 0
M  V30 849 H 72.8422 -7.48144 -1.08707 0
M  V30 850 H 74.1102 -7.45534 -2.27596 0
M  V30 851 N 78.3393 -0.321999 -1.54275 0
M  V30 852 C 79.2493 0.553631 -2.27974 0
M  V30 853 C 80.2653 1.13054 -1.32268 0
M  V30 854 O 81.4413 1.15084 -1.6528 0
M  V30 855 C 78.5063 1.69927 -3.02201 0
M  V30 856 C 77.5673 1.15433 -4.1349 0
M  V30 857 C 76.8003 2.24537 -4.84168 0
M  V30 858 O 77.0233 3.44852 -4.5435 0
M  V30 859 O 75.9573 1.90044 -5.7111 0
M  V30 860 H 79.7833 -0.0448345 -3.03667 0
M  V30 861 H 77.3683 -0.0877418 -1.49142 0
M  V30 862 H 79.2503 2.3663 -3.48689 0
M  V30 863 H 77.9253 2.28395 -2.29385 0
M  V30 864 H 76.8323 0.452436 -3.71354 0
M  V30 865 H 78.1653 0.614805 -4.88345 0
M  V30 866 N 79.8174 1.5752 -0.0501392 0
M  V30 867 C 80.7804 2.1037 0.909786 0
M  V30 868 C 81.7804 1.02308 1.24056 0
M  V30 869 O 82.9704 1.28385 1.17741 0
M  V30 870 C 80.1024 2.58708 2.21998 0
M  V30 871 H 81.2954 2.96479 0.451665 0
M  V30 872 H 78.8484 1.55038 0.198248 0
M  V30 873 H 79.5834 1.75989 2.72394 0
M  V30 874 H 79.3684 3.37675 1.99295 0
M  V30 875 H 80.8584 2.99747 2.9076 0
M  V30 876 N 81.2955 -0.223234 1.56011 0
M  V30 877 C 82.2255 -1.27988 1.95298 0
M  V30 878 C 83.2065 -1.48976 0.820979 0
M  V30 879 O 84.3915 -1.61188 1.08315 0
M  V30 880 C 81.5215 -2.63 2.26822 0
M  V30 881 C 80.4755 -2.56671 3.42497 0
M  V30 882 C 79.8015 -3.95697 3.59622 0
M  V30 883 C 81.1015 -2.11601 4.77517 0
M  V30 884 H 82.7955 -0.953525 2.8381 0
M  V30 885 H 80.3415 -0.457244 1.36548 0
M  V30 886 H 82.2945 -3.37077 2.52898 0
M  V30 887 H 81.0185 -2.9732 1.35161 0
M  V30 888 H 79.6775 -1.85051 3.16467 0
M  V30 889 H 79.3255 -4.27322 2.6534 0
M  V30 890 H 79.0255 -3.92345 4.37424 0
M  V30 891 H 80.5495 -4.71438 3.88044 0
M  V30 892 H 81.9635 -2.7542 5.02809 0
M  V30 893 H 80.3605 -2.19311 5.5859 0
M  V30 894 H 81.4305 -1.06824 4.72987 0
M  V30 895 N 82.7736 -1.49793 -0.48987 0
M  V30 896 C 83.6836 -1.70036 -1.61632 0
M  V30 897 C 84.6996 -0.583102 -1.63939 0
M  V30 898 O 85.8756 -0.859169 -1.82154 0
M  V30 899 C 82.9406 -1.77277 -2.97949 0
M  V30 900 C 82.0016 -3.00918 -3.06181 0
M  V30 901 C 81.2346 -3.07804 -4.35996 0
M  V30 902 O 81.4576 -2.21982 -5.25433 0
M  V30 903 O 80.3916 -4.00369 -4.49431 0
M  V30 904 H 84.2176 -2.65486 -1.47482 0
M  V30 905 H 81.8026 -1.33666 -0.667362 0
M  V30 906 H 83.6846 -1.84329 -3.78947 0
M  V30 907 H 82.3596 -0.850076 -3.12339 0
M  V30 908 H 81.2666 -2.99377 -2.2433 0
M  V30 909 H 82.5996 -3.92704 -2.96723 0
M  V30 910 N 84.2517 0.741722 -1.39055 0
M  V30 911 C 85.4997 1.49818 -1.35643 0
M  V30 912 C 85.8207 1.94938 0.0491642 0
M  V30 913 O 85.0907 1.68505 0.999141 0
M  V30 914 H 83.6707 0.555755 -0.499144 0
M  V30 915 H 86.3327 0.880957 -1.73854 0
M  V30 916 H 85.4287 2.38348 -2.01486 0
M  V30 917 N 85.7298 1.2412 0.971189 0
M  V30 918 C 86.6768 1.0305 2.06517 0
M  V30 919 C 87.6468 -0.0550666 1.66009 0
M  V30 920 O 88.8318 0.0988688 1.90544 0
M  V30 921 C 85.9718 0.637653 3.39158 0
M  V30 922 C 85.0848 1.79633 3.92882 0
M  V30 923 C 84.2198 1.34939 5.13775 0
M  V30 924 C 83.2588 2.47823 5.59687 0
M  V30 925 N 82.3958 2.04022 6.71803 0
M  V30 926 H 87.2358 1.96685 2.23873 0
M  V30 927 H 84.7728 0.979694 1.09729 0
M  V30 928 H 86.7308 0.390931 4.15364 0
M  V30 929 H 85.3608 -0.261693 3.21737 0
M  V30 930 H 84.4128 2.15681 3.13346 0
M  V30 931 H 85.7248 2.64466 4.22918 0
M  V30 932 H 84.8788 1.06134 5.97345 0
M  V30 933 H 83.6178 0.471557 4.85415 0
M  V30 934 H 82.6228 2.77392 4.74693 0
M  V30 935 H 83.8478 3.36158 5.90063 0
M  V30 936 H 81.7938 1.18632 6.45184 0
M  V30 937 H 81.7108 2.82409 7.01271 0
M  V30 938 H 82.9788 1.78347 7.58823 0
M  V30 939 N 87.2079 -1.17134 1.05439 0
M  V30 940 C 88.1179 -2.24878 0.668365 0
M  V30 941 C 89.1339 -1.71186 -0.311687 0
M  V30 942 O 90.3099 -2.00738 -0.163161 0
M  V30 943 C 87.3749 -3.46662 0.051648 0
M  V30 944 C 86.4359 -4.15429 1.08246 0
M  V30 945 C 85.6689 -5.31399 0.495082 0
M  V30 946 O 85.8919 -5.66153 -0.694743 0
M  V30 947 O 84.8259 -5.89187 1.23056 0
M  V30 948 H 88.6519 -2.60189 1.56637 0
M  V30 949 H 86.2369 -1.24482 0.826104 0
M  V30 950 H 88.1189 -4.20394 -0.290966 0
M  V30 951 H 86.7939 -3.13142 -0.819971 0
M  V30 952 H 85.7009 -3.43704 1.47711 0
M  V30 953 H 87.0339 -4.52982 1.92532 0
M  V30 954 N 88.686 -0.835752 -1.33615 0
M  V30 955 C 89.934 -0.429109 -1.97492 0
M  V30 956 C 90.255 1.01433 -1.66543 0
M  V30 957 O 89.525 1.70611 -0.962744 0
M  V30 958 H 88.105 -0.155686 -0.730596 0
M  V30 959 H 90.767 -1.06802 -1.63031 0
M  V30 960 H 89.863 -0.55861 -3.0706 0
M  V30 961 N 90.1641 1.46063 -0.591896 0
M  V30 962 C 91.3891 2.07226 -0.0850314 0
M  V30 963 C 91.8141 1.43625 1.21463 0
M  V30 964 O 91.1721 0.523305 1.73583 0
M  V30 965 C 91.2201 3.60554 0.0576567 0
M  V30 966 O 90.3241 3.97128 1.11188 0
M  V30 967 H 89.6651 0.660615 -0.0669568 0
M  V30 968 H 92.1951 1.8756 -0.81745 0
M  V30 969 H 92.2051 4.07165 0.2609 0
M  V30 970 H 90.8801 4.06235 -0.891416 0
M  V30 971 H 89.4571 3.62213 0.886356 0
M  V30 972 N 91.6422 0.330177 1.54103 0
M  V30 973 C 92.5752 -0.575477 2.20825 0
M  V30 974 C 93.5532 -1.11064 1.18758 0
M  V30 975 O 94.7372 -1.17341 1.47524 0
M  V30 976 C 91.8642 -1.79032 2.87516 0
M  V30 977 C 90.9102 -1.38581 4.03358 0
M  V30 978 S 91.7432 -0.416911 5.33875 0
M  V30 979 C 92.8992 -1.63889 6.04062 0
M  V30 980 H 93.1322 -0.00872114 2.97299 0
M  V30 981 H 90.6652 0.114254 1.53977 0
M  V30 982 H 92.6232 -2.48734 3.2656 0
M  V30 983 H 91.2842 -2.32827 2.10832 0
M  V30 984 H 90.4772 -2.29123 4.48908 0
M  V30 985 H 90.0792 -0.768419 3.66021 0
M  V30 986 H 92.3712 -2.57536 6.26643 0
M  V30 987 H 93.3142 -1.22542 6.97416 0
M  V30 988 H 93.7222 -1.82887 5.34053 0
M  V30 989 N 93.1203 -1.57491 0.0584922 0
M  V30 990 C 94.0303 -2.15448 -0.928414 0
M  V30 991 C 95.0463 -1.11416 -1.3365 0
M  V30 992 O 96.2223 -1.4362 -1.41193 0
M  V30 993 C 93.2873 -2.69393 -2.18239 0
M  V30 994 C 92.3483 -3.88249 -1.83196 0
M  V30 995 C 91.5813 -4.39613 -3.02616 0
M  V30 996 O 91.8043 -3.90023 -4.16219 0
M  V30 997 O 90.7383 -5.31111 -2.83204 0
M  V30 998 H 94.5643 -3.00112 -0.465483 0
M  V30 999 H 92.1493 -1.48499 -0.163826 0
M  V30 1000 H 94.0313 -3.04026 -2.91798 0
M  V30 1001 H 92.7063 -1.87796 -2.63656 0
M  V30 1002 H 91.6133 -3.58492 -1.06931 0
M  V30 1003 H 92.9463 -4.71098 -1.42573 0
M  V30 1004 N 94.5984 0.214957 -1.56127 0
M  V30 1005 C 95.5464 1.28601 -1.93816 0
M  V30 1006 C 96.5404 1.48175 -0.821016 0
M  V30 1007 O 97.7464 1.49271 -1.0059 0
M  V30 1008 H 94.1214 0.431302 -0.616022 0
M  V30 1009 H 96.0924 0.940991 -2.83175 0
M  V30 1010 C 94.8414 2.62779 -2.27689 0
M  V30 1011 H 94.1644 2.48527 -3.13168 0
M  V30 1012 H 95.6044 3.36517 -2.57939 0
M  V30 1013 C 94.0634 3.18285 -1.10436 0
M  V30 1014 O 94.5934 4.00002 -0.368945 0
M  V30 1015 N 92.7994 2.7675 -0.886433 0
M  V30 1016 H 92.3464 2.10404 -1.48619 0
M  V30 1017 H 92.3044 3.14229 -0.103656 0
M  V30 1018 N 96.0765 1.50051 0.48192 0
M  V30 1019 C 96.9865 1.7089 1.60728 0
M  V30 1020 C 98.0025 0.591788 1.63627 0
M  V30 1021 O 99.1785 0.868817 1.81696 0
M  V30 1022 C 96.2435 1.78855 2.97005 0
M  V30 1023 C 95.3045 3.02537 3.04581 0
M  V30 1024 C 94.5375 3.10112 4.34357 0
M  V30 1025 O 94.7605 2.24765 5.24249 0
M  V30 1026 O 93.6945 4.02747 4.47301 0
M  V30 1027 H 97.5205 2.66264 1.46072 0
M  V30 1028 H 95.1055 1.34018 0.660264 0
M  V30 1029 H 96.9875 1.86336 3.77964 0
M  V30 1030 H 95.6625 0.866628 3.11883 0
M  V30 1031 H 94.5695 3.00563 2.22739 0
M  V30 1032 H 95.9025 3.94272 2.94636 0
M  V30 1033 N 97.5546 -0.734337 1.39446 0
M  V30 1034 C 98.8036 -1.48937 1.36017 0
M  V30 1035 C 99.1166 -1.95557 -0.0409005 0
M  V30 1036 O 100.323 -2.70779 -0.19778 0
M  V30 1037 C 98.7786 -2.69125 2.38955 0
M  V30 1038 C 98.3866 -2.29452 3.8478 0
M  V30 1039 C 100.131 -3.46944 2.44603 0
M  V30 1040 C 98.0376 -3.46366 4.79358 0
M  V30 1041 H 96.9676 -0.559296 0.505672 0
M  V30 1042 H 99.6186 -0.800983 1.65095 0
M  V30 1043 H 98.0006 -3.40041 2.02948 0
M  V30 1044 H 99.1746 -1.66077 4.29831 0
M  V30 1045 H 97.4896 -1.64723 3.82433 0
M  V30 1046 H 100.087 -4.33907 3.12456 0
M  V30 1047 H 100.43 -3.89454 1.47076 0
M  V30 1048 H 100.963 -2.83056 2.79507 0
M  V30 1049 H 97.7016 -3.08905 5.78151 0
M  V30 1050 H 97.2216 -4.08719 4.38986 0
M  V30 1051 H 98.9006 -4.12691 4.98292 0
M  V30 1052 N 99.0327 -1.24633 -0.964593 0
M  V30 1053 C 99.9957 -1.0424 -2.04124 0
M  V30 1054 C 100.996 0.00137563 -1.608 0
M  V30 1055 O 102.186 -0.239883 -1.7254 0
M  V30 1056 C 99.3177 -0.580588 -3.3592 0
M  V30 1057 H 100.511 -1.99803 -2.23649 0
M  V30 1058 H 98.0637 -1.06899 -1.14027 0
M  V30 1059 H 98.7987 0.3781 -3.22088 0
M  V30 1060 H 98.5837 -1.33398 -3.6871 0
M  V30 1061 H 100.074 -0.459034 -4.15069 0
M  V30 1062 N 100.511 1.16574 -1.06058 0
M  V30 1063 C 101.757 1.87324 -0.777022 0
M  V30 1064 C 102.09 1.81351 0.694645 0
M  V30 1065 O 101.365 1.22753 1.50871 0
M  V30 1066 C 101.648 3.36991 -1.26922 0
M  V30 1067 C 101.501 3.51667 -2.80447 0
M  V30 1068 C 102.82 4.3131 -0.87521 0
M  V30 1069 H 99.9388 0.680191 -0.28374 0
M  V30 1070 H 102.581 1.37036 -1.3161 0
M  V30 1071 H 100.731 3.79949 -0.81063 0
M  V30 1072 H 102.403 3.17664 -3.34495 0
M  V30 1073 H 100.646 2.93656 -3.19294 0
M  V30 1074 H 101.317 4.56766 -3.0995 0
M  V30 1075 H 103.793 3.9624 -1.27014 0
M  V30 1076 H 102.669 5.34545 -1.2471 0
M  V30 1077 H 102.93 4.41552 0.220071 0
M  V30 1078 N 101.989 0.842826 1.3317 0
M  V30 1079 C 102.919 0.294028 2.31641 0
M  V30 1080 C 103.9 -0.600401 1.59151 0
M  V30 1081 O 105.085 -0.523124 1.87022 0
M  V30 1082 C 102.215 -0.528416 3.43257 0
M  V30 1083 C 101.169 0.27056 4.27144 0
M  V30 1084 C 100.495 -0.675881 5.30411 0
M  V30 1085 C 101.795 1.48981 5.00602 0
M  V30 1086 H 103.489 1.11681 2.77791 0
M  V30 1087 H 101.035 0.538478 1.33553 0
M  V30 1088 H 102.988 -0.922674 4.11175 0
M  V30 1089 H 101.712 -1.38445 2.95805 0
M  V30 1090 H 100.371 0.646427 3.60856 0
M  V30 1091 H 100.019 -1.52842 4.79216 0
M  V30 1092 H 99.7189 -0.145374 5.8742 0
M  V30 1093 H 101.243 -1.06757 6.01195 0
M  V30 1094 H 102.657 1.16849 5.61266 0
M  V30 1095 H 101.054 1.95739 5.6728 0
M  V30 1096 H 102.124 2.25746 4.29147 0
M  V30 1097 N 103.467 -1.45747 0.599634 0
M  V30 1098 C 104.417 -2.27538 -0.145107 0
M  V30 1099 C 105.401 -1.3686 -0.846055 0
M  V30 1100 O 106.593 -1.6091 -0.737357 0
M  V30 1101 C 103.722 -3.23569 -1.14708 0
M  V30 1102 C 102.808 -4.21734 -0.447383 0
M  V30 1103 N 103.199 -5.03257 0.506535 0
M  V30 1104 C 101.497 -4.40536 -0.695966 0
M  V30 1105 C 102.198 -5.74426 0.917068 0
M  V30 1106 N 101.174 -5.42966 0.26253 0
M  V30 1107 H 104.976 -2.87965 0.587672 0
M  V30 1108 H 102.49 -1.56803 0.422697 0
M  V30 1109 H 104.487 -3.8089 -1.69495 0
M  V30 1110 H 103.147 -2.64702 -1.8805 0
M  V30 1111 H 104.158 -5.10319 0.882899 0
M  V30 1112 H 100.835 -3.92802 -1.41467 0
M  V30 1113 H 102.225 -6.4995 1.70338 0
M  V30 1114 N 104.945 -0.338344 -1.53925 0
M  V30 1115 C 105.892 0.520845 -2.24846 0
M  V30 1116 C 106.862 1.09976 -1.24477 0
M  V30 1117 O 108.047 1.13735 -1.53196 0
M  V30 1118 C 105.187 1.6685 -3.02084 0
M  V30 1119 C 104.3 1.11739 -4.17299 0
M  V30 1120 C 103.435 2.23193 -4.82036 0
M  V30 1121 C 102.474 1.65407 -5.89328 0
M  V30 1122 N 101.611 2.70582 -6.47866 0
M  V30 1123 H 106.451 -0.0904881 -2.97863 0
M  V30 1124 H 103.988 -0.0564282 -1.46992 0
M  V30 1125 H 105.946 2.34407 -3.45122 0
M  V30 1126 H 104.576 2.2509 -2.31375 0
M  V30 1127 H 103.628 0.332919 -3.7894 0
M  V30 1128 H 104.94 0.654677 -4.94485 0
M  V30 1129 H 104.094 2.98626 -5.28117 0
M  V30 1130 H 102.833 2.72807 -4.04262 0
M  V30 1131 H 101.838 0.884779 -5.42634 0
M  V30 1132 H 103.063 1.16652 -6.69006 0
M  V30 1133 H 101.009 3.1946 -5.72959 0
M  V30 1134 H 100.926 2.28917 -7.20509 0
M  V30 1135 H 102.194 3.45799 -6.98601 0
M  V30 1136 N 106.423 1.57458 -0.0668435 0
M  V30 1137 C 107.672 1.92477 0.602947 0
M  V30 1138 C 107.985 0.948419 1.71068 0
M  V30 1139 O 109.191 1.19124 2.43971 0
M  V30 1140 C 107.647 3.41903 1.12383 0
M  V30 1141 C 107.255 4.47975 0.04737 0
M  V30 1142 C 108.999 3.85931 1.76797 0
M  V30 1143 C 106.906 5.88529 0.582022 0
M  V30 1144 H 105.836 0.718387 0.22899 0
M  V30 1145 H 108.487 1.82978 -0.138276 0
M  V30 1146 H 106.869 3.46459 1.91787 0
M  V30 1147 H 108.043 4.55029 -0.726978 0
M  V30 1148 H 106.358 4.13384 -0.500243 0
M  V30 1149 H 108.955 4.88322 2.17821 0
M  V30 1150 H 109.298 3.23029 2.62599 0
M  V30 1151 H 109.831 3.83958 1.04024 0
M  V30 1152 H 106.57 6.55065 -0.238721 0
M  V30 1153 H 106.09 5.85004 1.324 0
M  V30 1154 H 107.769 6.38258 1.05999 0
M  V30 1155 N 107.901 -0.206675 1.56239 0
M  V30 1156 C 108.848 -1.25617 1.93621 0
M  V30 1157 C 109.818 -1.45824 0.795274 0
M  V30 1158 O 111.003 -1.59148 1.05245 0
M  V30 1159 C 108.143 -2.59839 2.27107 0
M  V30 1160 C 107.256 -2.47308 3.54207 0
M  V30 1161 C 106.391 -3.74155 3.7707 0
M  V30 1162 C 105.43 -3.56407 4.97635 0
M  V30 1163 N 104.567 -4.75238 5.1681 0
M  V30 1164 H 109.407 -0.930383 2.83104 0
M  V30 1165 H 106.944 -0.448065 1.4011 0
M  V30 1166 H 108.902 -3.38021 2.44535 0
M  V30 1167 H 107.532 -2.90485 1.40778 0
M  V30 1168 H 106.584 -1.60483 3.4489 0
M  V30 1169 H 107.896 -2.30122 4.42544 0
M  V30 1170 H 107.05 -4.60778 3.94675 0
M  V30 1171 H 105.789 -3.94282 2.87042 0
M  V30 1172 H 104.794 -2.68168 4.79964 0
M  V30 1173 H 106.019 -3.37736 5.89161 0
M  V30 1174 H 103.965 -4.95651 4.29728 0
M  V30 1175 H 103.882 -4.60835 5.99306 0
M  V30 1176 H 105.15 -5.63246 5.38864 0
M  V30 1177 N 109.379 -1.50304 -0.473955 0
M  V30 1178 C 110.329 -1.65347 -1.56985 0
M  V30 1179 C 111.313 -0.508176 -1.52664 0
M  V30 1180 O 112.505 -0.762446 -1.59737 0
M  V30 1181 C 109.634 -1.74832 -2.95447 0
M  V30 1182 C 108.72 -2.95028 -3.04662 0
M  V30 1183 N 109.111 -4.18747 -2.83698 0
M  V30 1184 C 107.409 -2.93527 -3.35795 0
M  V30 1185 C 108.11 -4.99687 -2.97805 0
M  V30 1186 N 107.086 -4.33585 -3.2788 0
M  V30 1187 H 110.888 -2.58698 -1.39472 0
M  V30 1188 H 108.402 -1.47449 -0.680629 0
M  V30 1189 H 110.399 -1.83712 -3.7424 0
M  V30 1190 H 109.059 -0.826376 -3.14008 0
M  V30 1191 H 110.07 -4.48291 -2.59337 0
M  V30 1192 H 106.747 -2.10821 -3.60362 0
M  V30 1193 H 108.137 -6.08057 -2.85861 0
M  V30 1194 N 110.857 0.726932 -1.39834 0
M  V30 1195 C 112.268 1.30558 -1.3346 0
M  V30 1196 C 112.619 1.962 -0.00273003 0
M  V30 1197 O 111.744 1.96826 0.899371 0
M  V30 1198 C 112.339 2.37404 -2.41713 0
M  V30 1199 C 110.898 2.90921 -2.38835 0
M  V30 1200 C 110.045 1.64578 -2.2318 0
M  V30 1201 H 112.996 0.523862 -1.49804 0
M  V30 1202 H 113.017 3.17984 -2.08966 0
M  V30 1203 H 112.529 1.89599 -3.38635 0
M  V30 1204 H 110.63 3.42985 -1.45575 0
M  V30 1205 H 110.743 3.43487 -3.33997 0
M  V30 1206 H 109.107 1.89219 -1.70494 0
M  V30 1207 H 109.89 1.18814 -3.22084 0
M  V30 1208 N 112.336 1.25143 0.95797 0
M  V30 1209 C 113.284 1.05019 2.07542 0
M  V30 1210 C 114.278 -0.0178751 1.69391 0
M  V30 1211 O 115.484 0.137472 1.79474 0
M  V30 1212 H 111.859 0.32265 0.679265 0
M  V30 1213 H 113.83 1.99759 2.21673 0
M  V30 1214 C 112.579 0.682074 3.40944 0
M  V30 1215 H 111.902 1.49573 3.70767 0
M  V30 1216 H 113.342 0.580945 4.20001 0
M  V30 1217 C 111.801 -0.611608 3.31302 0
M  V30 1218 O 112.331 -1.65465 3.66038 0
M  V30 1219 N 110.537 -0.595982 2.84423 0
M  V30 1220 H 110.084 0.253192 2.56353 0
M  V30 1221 H 110.042 -1.46173 2.78354 0
M  V30 1222 N 113.814 -1.1601 1.06675 0
M  V30 1223 C 115.063 -1.85973 0.780818 0
M  V30 1224 C 115.376 -1.82819 -0.695444 0
M  V30 1225 O 116.582 -2.484 -1.09589 0
M  V30 1226 C 115.038 -3.33757 1.34665 0
M  V30 1227 C 114.646 -3.45374 2.85343 0
M  V30 1228 C 116.39 -4.0895 1.13843 0
M  V30 1229 C 114.297 -4.87266 3.35151 0
M  V30 1230 H 113.227 -0.696661 0.288407 0
M  V30 1231 H 115.878 -1.30903 1.28595 0
M  V30 1232 H 114.26 -3.88456 0.769274 0
M  V30 1233 H 115.434 -3.00816 3.49065 0
M  V30 1234 H 113.749 -2.83619 3.04876 0
M  V30 1235 H 116.346 -5.13654 1.4854 0
M  V30 1236 H 116.689 -4.16229 0.0770282 0
M  V30 1237 H 117.222 -3.605 1.68179 0
M  V30 1238 H 113.961 -4.85168 4.40786 0
M  V30 1239 H 113.481 -5.32433 2.76179 0
M  V30 1240 H 115.16 -5.56097 3.30704 0
M  V30 1241 N 115.292 -0.849877 -1.32721 0
M  V30 1242 C 116.538 -0.451591 -1.97708 0
M  V30 1243 C 116.871 0.989175 -1.6712 0
M  V30 1244 O 116.146 1.69334 -0.956891 0
M  V30 1245 C 116.429 -0.685598 -3.53513 0
M  V30 1246 C 116.282 -2.17444 -3.93749 0
M  V30 1247 C 117.601 -0.138874 -4.39881 0
M  V30 1248 H 114.72 -0.16555 -0.718166 0
M  V30 1249 H 117.362 -1.06742 -1.57182 0
M  V30 1250 H 115.512 -0.161416 -3.88165 0
M  V30 1251 H 117.184 -2.76433 -3.693 0
M  V30 1252 H 115.427 -2.65476 -3.43081 0
M  V30 1253 H 116.098 -2.28888 -5.02309 0
M  V30 1254 H 118.574 -0.587068 -4.11938 0
M  V30 1255 H 117.45 -0.332213 -5.47894 0
M  V30 1256 H 117.711 0.95806 -4.31594 0
M  V30 1257 N 116.77 1.45427 -0.607355 0
M  V30 1258 C 117.733 2.28974 0.101693 0
M  V30 1259 C 118.733 1.39754 0.795329 0
M  V30 1260 O 119.923 1.61878 0.643527 0
M  V30 1261 C 117.055 3.20768 1.15414 0
M  V30 1262 H 118.248 2.93147 -0.632844 0
M  V30 1263 H 115.801 1.51945 -0.366391 0
M  V30 1264 H 116.536 2.61395 1.91945 0
M  V30 1265 H 116.321 3.86489 0.66098 0
M  V30 1266 H 117.811 3.83589 1.65073 0
M  V30 1267 N 118.248 0.346503 1.53744 0
M  V30 1268 C 119.178 -0.501193 2.28058 0
M  V30 1269 C 120.159 -1.10014 1.29734 0
M  V30 1270 O 121.344 -1.12097 1.58581 0
M  V30 1271 C 118.474 -1.65078 3.05559 0
M  V30 1272 C 117.428 -1.18003 4.11411 0
M  V30 1273 C 116.754 -2.41837 4.76884 0
M  V30 1274 C 118.054 -0.278394 5.21558 0
M  V30 1275 H 119.748 0.11875 2.99164 0
M  V30 1276 H 117.294 0.0585531 1.43881 0
M  V30 1277 H 119.247 -2.25028 3.56287 0
M  V30 1278 H 117.971 -2.29767 2.32109 0
M  V30 1279 H 116.63 -0.603331 3.61601 0
M  V30 1280 H 116.278 -3.0494 4.00026 0
M  V30 1281 H 115.978 -2.1102 5.48402 0
M  V30 1282 H 117.502 -3.02508 5.30397 0
M  V30 1283 H 118.916 -0.784823 5.67903 0
M  V30 1284 H 117.313 -0.0619707 6.00068 0
M  V30 1285 H 118.383 0.684677 4.80042 0
M  V30 1286 N 119.726 -1.57421 0.075193 0
M  V30 1287 C 121.003 -1.85029 -0.634329 0
M  V30 1288 C 121.383 -0.968305 -1.87582 0
M  V30 1289 O 120.731 -0.0354749 -2.28472 0
M  V30 1290 C 120.941 -3.35286 -0.968742 0
M  V30 1291 C 122.289 -4.02875 -1.34077 0
M  V30 1292 O 123.313 -3.40051 -1.06037 0
M  V30 1293 O 122.172 -5.13691 -1.86506 0
M  V30 1294 H 119.266 -0.7645 -0.315387 0
M  V30 1295 H 121.812 -1.69366 0.106382 0
M  V30 1296 H 120.584 -3.91203 -0.0871376 0
M  V30 1297 H 120.207 -3.56223 -1.7661 0
M  V30 1298 N 121.204 0.198386 -1.56346 0
M  V30 1299 C 122.481 0.944982 -1.71258 0
M  V30 1300 C 122.861 2.0151 -0.629048 0
M  V30 1301 O 122.209 2.25639 0.360473 0
M  V30 1302 C 122.419 1.5344 -3.1346 0
M  V30 1303 C 123.767 2.01778 -3.73591 0
M  V30 1304 O 124.791 1.63288 -3.16568 0
M  V30 1305 O 123.65 2.72594 -4.73661 0
M  V30 1306 H 120.744 0.442939 -0.69838 0
M  V30 1307 H 123.29 0.188342 -1.68652 0
M  V30 1308 H 122.062 0.762869 -3.83792 0
M  V30 1309 H 121.685 2.35596 -3.20282 0
M  V30 1310 N 122.682 1.50554 0.465978 0
M  V30 1311 C 123.931 1.61038 1.21448 0
M  V30 1312 C 124.244 0.31865 1.92987 0
M  V30 1313 O 125.45 0.302469 2.6981 0
M  V30 1314 C 123.906 2.84283 2.20706 0
M  V30 1315 C 123.514 4.20352 1.54946 0
M  V30 1316 C 125.258 3.04115 2.96166 0
M  V30 1317 C 123.165 5.34778 2.5252 0
M  V30 1318 H 122.095 0.599718 0.457005 0
M  V30 1319 H 124.746 1.7699 0.484424 0
M  V30 1320 H 123.128 2.61901 2.97025 0
M  V30 1321 H 124.302 4.53008 0.843811 0
M  V30 1322 H 122.617 4.06167 0.917475 0
M  V30 1323 H 125.214 3.86774 3.69202 0
M  V30 1324 H 125.557 2.16045 3.55852 0
M  V30 1325 H 126.09 3.26702 2.26959 0
M  V30 1326 H 122.829 6.25018 1.97566 0
M  V30 1327 H 122.349 5.06534 3.21222 0
M  V30 1328 H 124.028 5.65561 3.14245 0
M  V30 1329 N 124.16 -0.719506 1.40217 0
M  V30 1330 C 125.39 -1.50646 1.41384 0
M  V30 1331 C 125.798 -1.89197 0.0107743 0
M  V30 1332 O 125.141 -1.55709 -0.974708 0
M  V30 1333 C 125.203 -2.81405 2.23722 0
M  V30 1334 C 124.867 -2.65199 3.72181 0
M  V30 1335 C 125.864 -2.32717 4.64907 0
M  V30 1336 C 123.549 -2.81586 4.1595 0
M  V30 1337 C 125.543 -2.16827 5.99387 0
M  V30 1338 C 123.23 -2.65313 5.50502 0
M  V30 1339 C 124.228 -2.32981 6.42035 0
M  V30 1340 O 123.916 -2.16827 7.74107 0
M  V30 1341 H 123.648 -0.471606 0.484318 0
M  V30 1342 H 126.202 -0.895456 1.84853 0
M  V30 1343 H 124.432 -3.44823 1.75026 0
M  V30 1344 H 126.121 -3.43102 2.16878 0
M  V30 1345 H 126.887 -2.19694 4.32388 0
M  V30 1346 H 122.766 -3.0574 3.45027 0
M  V30 1347 H 126.31 -1.91513 6.70797 0
M  V30 1348 H 122.207 -2.7792 5.82607 0
M  V30 1349 H 122.975 -2.31778 7.84998 0
M  V30 1350 N 125.638 -1.25649 -0.95132 0
M  V30 1351 C 126.548 -1.08073 -2.08224 0
M  V30 1352 C 127.564 -0.0169666 -1.73992 0
M  V30 1353 O 128.74 -0.218593 -2.0021 0
M  V30 1354 C 125.805 -0.704922 -3.39458 0
M  V30 1355 C 124.866 -1.84699 -3.87537 0
M  V30 1356 C 124.099 -1.48902 -5.12508 0
M  V30 1357 O 124.322 -0.386156 -5.69091 0
M  V30 1358 O 123.256 -2.32033 -5.55378 0
M  V30 1359 H 127.082 -2.02924 -2.25954 0
M  V30 1360 H 124.667 -1.04618 -1.06656 0
M  V30 1361 H 126.549 -0.507609 -4.18332 0
M  V30 1362 H 125.224 0.214291 -3.2299 0
M  V30 1363 H 124.131 -2.09919 -3.09653 0
M  V30 1364 H 125.464 -2.74557 -4.08509 0
M  V30 1365 N 127.117 1.15442 -1.07289 0
M  V30 1366 C 128.342 1.90638 -0.816828 0
M  V30 1367 C 128.767 1.77445 0.624083 0
M  V30 1368 O 128.125 1.10671 1.43602 0
M  V30 1369 C 128.173 3.39008 -1.22906 0
M  V30 1370 O 127.277 4.10701 -0.373975 0
M  V30 1371 H 126.618 0.593555 -0.297638 0
M  V30 1372 H 129.148 1.46198 -1.43134 0
M  V30 1373 H 129.158 3.89801 -1.20497 0
M  V30 1374 H 127.833 3.47929 -2.27856 0
M  V30 1375 H 126.41 3.70046 -0.460499 0
M  V30 1376 N 128.595 0.856903 1.32268 0
M  V30 1377 C 129.843 0.460474 1.96784 0
M  V30 1378 C 130.164 -0.987701 1.68135 0
M  V30 1379 O 129.434 -1.69058 0.989765 0
M  V30 1380 H 128.014 0.167289 0.728027 0
M  V30 1381 H 130.676 1.09383 1.61312 0
M  V30 1382 H 129.772 0.60739 3.06133 0
M  V30 1383 N 130.073 -1.45103 0.615059 0
M  V30 1384 C 131.321 -2.01784 0.112955 0
M  V30 1385 C 131.642 -1.48504 -1.26378 0
M  V30 1386 O 130.912 -0.682245 -1.83636 0
M  V30 1387 H 129.492 -0.745993 0.0387668 0
M  V30 1388 H 132.154 -1.77808 0.798141 0
M  V30 1389 H 131.25 -3.12025 0.0684069 0
M  V30 1390 N 131.551 -0.354651 -1.53558 0
M  V30 1391 C 132.501 0.513179 -2.2215 0
M  V30 1392 C 133.485 1.05734 -1.21281 0
M  V30 1393 O 134.677 0.989202 -1.46778 0
M  V30 1394 C 131.806 1.65798 -3.00609 0
M  V30 1395 C 130.892 1.12722 -4.08845 0
M  V30 1396 N 131.283 0.318563 -5.04796 0
M  V30 1397 C 129.581 1.40307 -4.23356 0
M  V30 1398 C 130.282 0.0292224 -5.81693 0
M  V30 1399 N 129.258 0.623891 -5.40008 0
M  V30 1400 H 133.06 -0.111586 -2.93688 0
M  V30 1401 H 130.574 -0.162091 -1.61589 0
M  V30 1402 H 132.571 2.29176 -3.48258 0
M  V30 1403 H 131.231 2.28591 -2.306 0
M  V30 1404 H 132.242 -0.0413091 -5.17884 0
M  V30 1405 H 128.919 2.03458 -3.6457 0
M  V30 1406 H 130.309 -0.623808 -6.68998 0
M  V30 1407 N 133.029 1.57378 -0.0835403 0
M  V30 1408 C 133.959 2.1641 0.87686 0
M  V30 1409 C 134.94 1.09429 1.30228 0
M  V30 1410 O 136.125 1.37516 1.37124 0
M  V30 1411 C 133.255 2.73517 2.14022 0
M  V30 1412 C 132.209 3.85769 1.85381 0
M  V30 1413 C 131.535 4.29529 3.18448 0
M  V30 1414 C 132.835 5.09486 1.14984 0
M  V30 1415 H 134.529 2.96914 0.385059 0
M  V30 1416 H 132.075 1.42823 0.18377 0
M  V30 1417 H 134.028 3.13463 2.81636 0
M  V30 1418 H 132.752 1.90252 2.65465 0
M  V30 1419 H 131.411 3.46345 1.20169 0
M  V30 1420 H 131.059 3.43169 3.67755 0
M  V30 1421 H 130.759 5.05204 3.00071 0
M  V30 1422 H 132.283 4.72099 3.8724 0
M  V30 1423 H 133.697 5.46674 1.72687 0
M  V30 1424 H 132.094 5.90515 1.06826 0
M  V30 1425 H 133.164 4.84724 0.130749 0
M  V30 1426 N 134.507 -0.190092 1.56449 0
M  V30 1427 C 135.737 -0.92443 1.84764 0
M  V30 1428 C 136.145 -1.77146 0.664529 0
M  V30 1429 O 135.488 -1.79812 -0.375957 0
M  V30 1430 C 135.55 -1.86651 3.07248 0
M  V30 1431 C 135.214 -1.20094 4.40938 0
M  V30 1432 C 136.211 -0.575445 5.16706 0
M  V30 1433 C 133.896 -1.2033 4.87674 0
M  V30 1434 C 135.89 0.0388111 6.37388 0
M  V30 1435 C 133.577 -0.585214 6.08291 0
M  V30 1436 C 134.575 0.0347578 6.82991 0
M  V30 1437 O 134.263 0.643147 8.01323 0
M  V30 1438 H 133.995 -0.274974 0.617548 0
M  V30 1439 H 136.549 -0.200788 2.04416 0
M  V30 1440 H 134.779 -2.62998 2.83494 0
M  V30 1441 H 136.468 -2.46907 3.22167 0
M  V30 1442 H 137.234 -0.565728 4.81689 0
M  V30 1443 H 133.113 -1.67526 4.29484 0
M  V30 1444 H 136.657 0.523329 6.95634 0
M  V30 1445 H 132.554 -0.592451 6.42775 0
M  V30 1446 H 133.322 0.540545 8.16713 0
M  V30 1447 N 135.985 -1.50799 -0.457987 0
M  V30 1448 C 136.915 -1.73553 -1.5621 0
M  V30 1449 C 137.896 -0.584774 -1.59732 0
M  V30 1450 O 139.081 -0.825314 -1.7579 0
M  V30 1451 C 136.211 -1.84169 -2.94447 0
M  V30 1452 C 135.165 -2.99461 -3.0579 0
M  V30 1453 C 134.491 -2.95235 -4.45803 0
M  V30 1454 C 135.791 -4.39766 -2.81786 0
M  V30 1455 H 137.485 -2.66 -1.37421 0
M  V30 1456 H 135.031 -1.28002 -0.659662 0
M  V30 1457 H 136.984 -1.98672 -3.71628 0
M  V30 1458 H 135.708 -0.883545 -3.14422 0
M  V30 1459 H 134.367 -2.8463 -2.31044 0
M  V30 1460 H 134.015 -1.97239 -4.62715 0
M  V30 1461 H 133.715 -3.72642 -4.54326 0
M  V30 1462 H 135.239 -3.11803 -5.24987 0
M  V30 1463 H 136.653 -4.55054 -3.4871 0
M  V30 1464 H 135.05 -5.18722 -3.0174 0
M  V30 1465 H 136.12 -4.51229 -1.7754 0
M  V30 1466 N 137.463 0.71206 -1.40597 0
M  V30 1467 C 138.712 1.46754 -1.38369 0
M  V30 1468 C 139.025 1.95598 0.0097839 0
M  V30 1469 O 140.231 2.71059 0.154677 0
M  V30 1470 C 138.687 2.65289 -2.43207 0
M  V30 1471 C 138.295 2.23301 -3.88382 0
M  V30 1472 C 140.039 3.43008 -2.50091 0
M  V30 1473 C 137.946 3.38696 -4.84808 0
M  V30 1474 H 136.876 0.55118 -0.514506 0
M  V30 1475 H 139.527 0.774616 -1.66349 0
M  V30 1476 H 137.909 3.36769 -2.08332 0
M  V30 1477 H 139.083 1.59218 -4.32419 0
M  V30 1478 H 137.398 1.58618 -3.85006 0
M  V30 1479 H 139.995 4.28881 -3.1932 0
M  V30 1480 H 140.338 3.87065 -1.53253 0
M  V30 1481 H 140.871 2.78574 -2.83974 0
M  V30 1482 H 137.61 2.99668 -5.82992 0
M  V30 1483 H 137.13 4.01683 -4.45433 0
M  V30 1484 H 138.809 4.04712 -5.04794 0
M  V30 1485 N 138.941 1.26152 0.944643 0
M  V30 1486 C 139.874 1.01729 2.04271 0
M  V30 1487 C 140.852 -0.0568101 1.62501 0
M  V30 1488 O 142.036 0.0848987 1.88309 0
M  V30 1489 C 139.163 0.539792 3.34371 0
M  V30 1490 C 138.209 1.60593 3.9511 0
M  V30 1491 S 139.042 3.19392 4.29825 0
M  V30 1492 C 140.198 2.73402 5.63029 0
M  V30 1493 H 140.431 1.94703 2.24673 0
M  V30 1494 H 137.964 1.09793 1.08558 0
M  V30 1495 H 139.922 0.270956 4.09605 0
M  V30 1496 H 138.583 -0.369609 3.11918 0
M  V30 1497 H 137.776 1.22275 4.88943 0
M  V30 1498 H 137.378 1.82596 3.26397 0
M  V30 1499 H 139.67 2.1765 6.41588 0
M  V30 1500 H 140.613 3.65913 6.06229 0
M  V30 1501 H 141.021 2.13077 5.22741 0
M  V30 1502 N 140.419 -1.14872 1.07899 0
M  V30 1503 C 141.351 -2.19425 0.662231 0
M  V30 1504 C 142.364 -1.60231 -0.288079 0
M  V30 1505 O 143.553 -1.78336 -0.076534 0
M  V30 1506 C 140.653 -3.38867 -0.0470695 0
M  V30 1507 C 139.826 -4.27597 0.920831 0
M  V30 1508 C 138.885 -5.25616 0.247805 0
M  V30 1509 O 137.911 -5.62189 0.890599 0
M  V30 1510 N 139.113 -5.71746 -1.00435 0
M  V30 1511 H 141.878 -2.55797 1.56166 0
M  V30 1512 H 139.439 -1.30042 0.964404 0
M  V30 1513 H 141.431 -4.01497 -0.50813 0
M  V30 1514 H 140.001 -3.00864 -0.848523 0
M  V30 1515 H 139.221 -3.61982 1.56087 0
M  V30 1516 H 140.509 -4.83748 1.57688 0
M  V30 1517 H 139.907 -5.44153 -1.54642 0
M  V30 1518 H 138.464 -6.36389 -1.40899 0
M  V30 1519 N 141.898 -0.863906 -1.31812 0
M  V30 1520 C 142.828 -0.330843 -2.31144 0
M  V30 1521 C 143.809 0.575005 -1.60087 0
M  V30 1522 O 144.994 0.493304 -1.8783 0
M  V30 1523 C 142.124 0.47374 -3.44054 0
M  V30 1524 C 141.078 -0.338481 -4.26659 0
M  V30 1525 C 140.404 0.591412 -5.31419 0
M  V30 1526 C 141.704 -1.56926 -4.98168 0
M  V30 1527 H 143.398 -1.16086 -2.75979 0
M  V30 1528 H 140.944 -0.559657 -1.32679 0
M  V30 1529 H 142.897 0.857143 -4.12591 0
M  V30 1530 H 141.621 1.33721 -2.9797 0
M  V30 1531 H 140.28 -0.703754 -3.59782 0
M  V30 1532 H 139.928 1.45199 -4.81587 0
M  V30 1533 H 139.628 0.0519022 -5.87577 0
M  V30 1534 H 141.152 0.97179 -6.02817 0
M  V30 1535 H 142.566 -1.25764 -5.59336 0
M  V30 1536 H 140.963 -2.04739 -5.64094 0
M  V30 1537 H 142.033 -2.32544 -4.25501 0
M  V30 1538 N 143.376 1.44774 -0.622745 0
M  V30 1539 C 144.622 2.0242 -0.124083 0
M  V30 1540 C 144.955 1.4881 1.24777 0
M  V30 1541 O 144.23 0.668799 1.8264 0
M  V30 1542 C 144.513 3.59957 -0.101619 0
M  V30 1543 C 144.366 4.23867 -1.50521 0
M  V30 1544 C 145.685 4.36284 0.578272 0
M  V30 1545 H 142.804 0.735528 -0.0465645 0
M  V30 1546 H 145.446 1.72447 -0.797617 0
M  V30 1547 H 143.596 3.85623 0.471934 0
M  V30 1548 H 145.268 4.09336 -2.12701 0
M  V30 1549 H 143.511 3.81684 -2.06154 0
M  V30 1550 H 144.182 5.32843 -1.4416 0
M  V30 1551 H 146.658 4.16001 0.0906057 0
M  V30 1552 H 145.534 5.46004 0.563149 0
M  V30 1553 H 145.795 4.10271 1.64713 0
M  V30 1554 N 144.854 0.36279 1.53368 0
M  V30 1555 C 146.079 -0.231226 2.06107 0
M  V30 1556 C 146.504 -1.419 1.23474 0
M  V30 1557 O 145.862 -1.79524 0.253128 0
M  V30 1558 C 145.91 -0.605523 3.5548 0
M  V30 1559 O 145.014 -1.70312 3.7559 0
M  V30 1560 H 144.355 -0.034327 0.663112 0
M  V30 1561 H 146.885 0.522584 1.97814 0
M  V30 1562 H 146.895 -0.877314 3.98456 0
M  V30 1563 H 145.57 0.263004 4.15068 0
M  V30 1564 H 144.147 -1.4271 3.44512 0
M  V30 1565 N 146.332 -1.57332 0.0918853 0
M  V30 1566 C 147.58 -1.93853 -0.571446 0
M  V30 1567 C 147.901 -0.974212 -1.6892 0
M  V30 1568 O 147.171 -0.0257254 -1.95883 0
M  V30 1569 H 145.751 -0.715666 -0.214082 0
M  V30 1570 H 148.413 -1.94287 0.154464 0
M  V30 1571 H 147.509 -2.96191 -0.983729 0
M  V30 1572 N 147.81 0.181792 -1.56548 0
M  V30 1573 C 149.058 0.89832 -1.81038 0
M  V30 1574 C 149.379 1.83232 -0.667164 0
M  V30 1575 O 148.649 1.93372 0.313673 0
M  V30 1576 H 147.229 0.33471 -0.667816 0
M  V30 1577 H 149.891 0.184116 -1.94028 0
M  V30 1578 H 148.987 1.4815 -2.74696 0
M  V30 1579 N 149.288 1.51039 0.449983 0
M  V30 1580 C 150.198 1.74261 1.57067 0
M  V30 1581 C 151.214 0.626363 1.62335 0
M  V30 1582 O 152.39 0.907162 1.79812 0
M  V30 1583 C 149.455 1.85114 2.93144 0
M  V30 1584 C 148.516 3.0893 2.98095 0
M  V30 1585 C 147.749 3.19256 4.27681 0
M  V30 1586 O 147.972 2.35835 5.19363 0
M  V30 1587 O 146.906 4.12144 4.38658 0
M  V30 1588 H 150.732 2.69303 1.40391 0
M  V30 1589 H 148.317 1.35389 0.631688 0
M  V30 1590 H 150.199 1.94311 3.73926 0
M  V30 1591 H 148.874 0.932588 3.09975 0
M  V30 1592 H 147.781 3.0522 2.16314 0
M  V30 1593 H 149.114 4.00433 2.86206 0
M  V30 1594 N 150.766 -0.704594 1.40972 0
M  V30 1595 C 151.696 -1.83124 1.44872 0
M  V30 1596 C 152.677 -1.67281 0.30838 0
M  V30 1597 O 153.862 -1.87149 0.518556 0
M  V30 1598 C 150.992 -3.21181 1.32136 0
M  V30 1599 C 149.946 -3.51714 2.43888 0
M  V30 1600 C 149.272 -4.89032 2.16222 0
M  V30 1601 C 150.572 -3.516 3.86232 0
M  V30 1602 H 152.266 -1.80117 2.39161 0
M  V30 1603 H 149.812 -0.865145 1.15114 0
M  V30 1604 H 151.765 -3.99702 1.33479 0
M  V30 1605 H 150.489 -3.24791 0.343279 0
M  V30 1606 H 149.148 -2.75539 2.41813 0
M  V30 1607 H 148.796 -4.89256 1.16778 0
M  V30 1608 H 148.496 -5.10426 2.911 0
M  V30 1609 H 150.02 -5.69873 2.19265 0
M  V30 1610 H 151.434 -4.2014 3.9007 0
M  V30 1611 H 149.831 -3.84523 4.60719 0
M  V30 1612 H 150.901 -2.50757 4.15029 0
M  V30 1613 N 152.244 -1.26651 -0.937939 0
M  V30 1614 C 153.491 -1.12387 -1.6845 0
M  V30 1615 C 153.819 0.332208 -1.91642 0
M  V30 1616 O 153.074 1.2602 -1.49725 0
M  V30 1617 C 153.373 -1.84168 -3.06295 0
M  V30 1618 C 153.039 -3.34056 -3.02849 0
M  V30 1619 C 151.701 -3.74942 -3.01616 0
M  V30 1620 C 154.053 -4.29741 -2.9491 0
M  V30 1621 C 151.381 -5.09894 -2.90215 0
M  V30 1622 C 153.733 -5.64738 -2.8505 0
M  V30 1623 C 152.397 -6.0493 -2.82162 0
M  V30 1624 H 151.667 -0.411252 -0.616403 0
M  V30 1625 H 154.314 -1.57134 -1.09459 0
M  V30 1626 H 152.619 -1.319 -3.6893 0
M  V30 1627 H 154.316 -1.70569 -3.62915 0
M  V30 1628 H 150.906 -3.01534 -3.0459 0
M  V30 1629 H 155.09 -3.99133 -2.94969 0
M  V30 1630 H 150.346 -5.40194 -2.86358 0
M  V30 1631 H 154.52 -6.38561 -2.77872 0
M  V30 1632 H 152.147 -7.09457 -2.73084 0
M  V30 1633 N 153.722 1.14298 -1.08507 0
M  V30 1634 C 154.999 1.81544 -0.728088 0
M  V30 1635 C 155.379 1.95838 0.78808 0
M  V30 1636 O 154.727 1.51904 1.70697 0
M  V30 1637 C 154.937 3.17169 -1.45619 0
M  V30 1638 C 156.285 3.9265 -1.61591 0
M  V30 1639 O 157.309 3.26762 -1.41793 0
M  V30 1640 O 156.168 5.10807 -1.94263 0
M  V30 1641 H 153.262 0.78491 -0.260471 0
M  V30 1642 H 155.808 1.21307 -1.18671 0
M  V30 1643 H 154.58 3.01934 -2.489 0
M  V30 1644 H 154.203 3.851 -0.989124 0
M  V30 1645 N 155.201 0.870884 1.31352 0
M  V30 1646 C 156.617 0.562932 1.49343 0
M  V30 1647 C 156.817 -0.902725 1.80148 0
M  V30 1648 O 155.873 -1.68484 1.88067 0
M  V30 1649 C 157.186 1.46393 2.62659 0
M  V30 1650 C 158.734 1.46607 2.76542 0
M  V30 1651 C 159.209 2.35266 3.92955 0
M  V30 1652 N 160.7 2.33151 4.00243 0
M  V30 1653 C 161.435 2.98471 4.89594 0
M  V30 1654 N 160.931 3.72964 5.8384 0
M  V30 1655 N 162.724 2.87775 4.82848 0
M  V30 1656 H 154.875 1.81923 1.09626 0
M  V30 1657 H 157.138 0.777934 0.541777 0
M  V30 1658 H 156.844 2.50689 2.46674 0
M  V30 1659 H 156.718 1.16314 3.58819 0
M  V30 1660 H 159.105 0.43069 2.9194 0
M  V30 1661 H 159.186 1.8071 1.81046 0
M  V30 1662 H 158.83 3.38881 3.78315 0
M  V30 1663 H 158.76 1.98487 4.87761 0
M  V30 1664 H 161.251 1.79006 3.32814 0
M  V30 1665 H 161.564 4.19932 6.4875 0
M  V30 1666 H 159.909 3.77073 5.83816 0
M  V30 1667 H 163.1 2.29116 4.08195 0
M  V30 1668 H 163.273 3.38961 5.52277 0
M  V30 1669 N 156.679 -1.44442 0.630414 0
M  V30 1670 C 157.928 -2.01267 0.132073 0
M  V30 1671 C 158.241 -1.50172 -1.25331 0
M  V30 1672 O 159.447 -1.9912 -1.84562 0
M  V30 1673 C 157.903 -3.59422 0.185362 0
M  V30 1674 C 157.511 -4.19514 1.57201 0
M  V30 1675 C 159.255 -4.23724 -0.256553 0
M  V30 1676 C 157.162 -5.69891 1.58045 0
M  V30 1677 H 156.092 -0.752619 0.0456092 0
M  V30 1678 H 158.743 -1.65666 0.789106 0
M  V30 1679 H 157.125 -3.92318 -0.538759 0
M  V30 1680 H 158.299 -3.98156 2.31966 0
M  V30 1681 H 156.614 -3.67496 1.95795 0
M  V30 1682 H 159.211 -5.34019 -0.269767 0
M  V30 1683 H 159.554 -3.96013 -1.28372 0
M  V30 1684 H 160.087 -3.95629 0.41505 0
M  V30 1685 H 156.826 -6.02336 2.58597 0
M  V30 1686 H 156.346 -5.93373 0.875725 0
M  V30 1687 H 158.025 -6.33515 1.31408 0
M  V30 1688 N 158.157 -0.370918 -1.53173 0
M  V30 1689 C 159.403 0.217423 -2.01631 0
M  V30 1690 C 159.736 1.47983 -1.25756 0
M  V30 1691 O 159.011 1.91274 -0.352764 0
M  V30 1692 C 159.294 0.503982 -3.56556 0
M  V30 1693 C 159.147 -0.77243 -4.43118 0
M  V30 1694 C 160.466 1.30234 -4.20389 0
M  V30 1695 H 157.585 0.0775486 -0.732909 0
M  V30 1696 H 160.227 -0.496863 -1.83388 0
M  V30 1697 H 158.377 1.11248 -3.72231 0
M  V30 1698 H 160.049 -1.4098 -4.39229 0
M  V30 1699 H 158.292 -1.39167 -4.10871 0
M  V30 1700 H 158.963 -0.526815 -5.4948 0
M  V30 1701 H 161.439 0.787546 -4.08579 0
M  V30 1702 H 160.315 1.47158 -5.28806 0
M  V30 1703 H 160.576 2.31237 -3.76805 0
M  V30 1704 N 159.635 1.57281 -0.100228 0
M  V30 1705 C 160.545 2.17833 0.870965 0
M  V30 1706 C 161.561 1.14921 1.30649 0
M  V30 1707 O 162.737 1.47313 1.37335 0
M  V30 1708 C 159.802 2.75085 2.1102 0
M  V30 1709 C 158.863 3.9297 1.72838 0
M  V30 1710 C 158.096 4.47482 2.90854 0
M  V30 1711 O 158.319 4.00922 4.05731 0
M  V30 1712 O 157.253 5.38433 2.69023 0
M  V30 1713 H 161.079 3.0124 0.38575 0
M  V30 1714 H 158.664 1.48881 0.124397 0
M  V30 1715 H 160.546 3.11656 2.83634 0
M  V30 1716 H 159.221 1.94721 2.58584 0
M  V30 1717 H 158.128 3.61201 0.973883 0
M  V30 1718 H 159.461 4.74713 1.30033 0
M  V30 1719 N 161.113 -0.173488 1.56642 0
M  V30 1720 C 162.06 -1.21482 1.96242 0
M  V30 1721 C 163.03 -1.44104 0.826027 0
M  V30 1722 O 164.215 -1.5688 1.08597 0
M  V30 1723 C 161.355 -2.54964 2.32567 0
M  V30 1724 C 160.468 -2.39739 3.59373 0
M  V30 1725 C 159.603 -3.66072 3.84921 0
M  V30 1726 C 158.642 -3.45771 5.05083 0
M  V30 1727 N 157.779 -4.64169 5.26775 0
M  V30 1728 H 162.619 -0.870123 2.85014 0
M  V30 1729 H 160.156 -0.418245 1.41029 0
M  V30 1730 H 162.114 -3.32758 2.5165 0
M  V30 1731 H 160.744 -2.87433 1.46908 0
M  V30 1732 H 159.796 -1.53131 3.48217 0
M  V30 1733 H 161.108 -2.20683 4.47326 0
M  V30 1734 H 160.262 -4.52303 4.0436 0
M  V30 1735 H 159.001 -3.88105 2.9534 0
M  V30 1736 H 158.006 -2.57927 4.85545 0
M  V30 1737 H 159.231 -3.25163 5.96193 0
M  V30 1738 H 157.177 -4.86425 4.40144 0
M  V30 1739 H 157.094 -4.48019 6.08946 0
M  V30 1740 H 158.362 -5.51689 5.5069 0
M  V30 1741 N 162.591 -1.51276 -0.441967 0
M  V30 1742 C 163.839 -1.63392 -1.18943 0
M  V30 1743 C 164.16 -0.350159 -1.9183 0
M  V30 1744 O 163.43 0.633784 -1.85364 0
M  V30 1745 H 162.01 -0.602164 -0.442049 0
M  V30 1746 H 164.672 -1.88186 -0.507165 0
M  V30 1747 H 163.768 -2.45934 -1.92154 0
M  V30 1748 N 164.069 0.697108 -1.41344 0
M  V30 1749 C 165.316 1.45714 -1.40619 0
M  V30 1750 C 165.644 1.94494 -0.0147907 0
M  V30 1751 O 164.899 1.69794 0.973066 0
M  V30 1752 C 165.198 2.68553 -2.35826 0
M  V30 1753 C 164.864 2.38438 -3.82698 0
M  V30 1754 C 163.526 2.29936 -4.22709 0
M  V30 1755 C 165.878 2.13567 -4.75435 0
M  V30 1756 C 163.206 1.94656 -5.53467 0
M  V30 1757 C 165.558 1.79797 -6.06511 0
M  V30 1758 C 164.222 1.69789 -6.45545 0
M  V30 1759 H 163.492 0.533206 -0.51456 0
M  V30 1760 H 166.139 0.796901 -1.74131 0
M  V30 1761 H 164.444 3.39503 -1.95563 0
M  V30 1762 H 166.141 3.2669 -2.32539 0
M  V30 1763 H 162.731 2.4595 -3.51008 0
M  V30 1764 H 166.915 2.19082 -4.45328 0
M  V30 1765 H 162.171 1.8546 -5.82593 0
M  V30 1766 H 166.345 1.59572 -6.77872 0
M  V30 1767 H 163.972 1.4222 -7.46778 0
M  V30 1768 N 165.547 1.27147 0.931209 0
M  V30 1769 C 166.777 1.15914 1.71019 0
M  V30 1770 C 167.185 -0.287112 1.87009 0
M  V30 1771 O 166.528 -1.20761 1.38429 0
M  V30 1772 C 166.59 1.76647 3.13107 0
M  V30 1773 C 166.254 3.25807 3.20467 0
M  V30 1774 C 167.251 4.22489 3.02983 0
M  V30 1775 C 164.936 3.66452 3.43538 0
M  V30 1776 C 166.93 5.57794 3.08454 0
M  V30 1777 C 164.617 5.01888 3.48643 0
M  V30 1778 C 165.615 5.97369 3.31119 0
M  V30 1779 O 165.303 7.30337 3.35952 0
M  V30 1780 H 165.035 0.404062 0.54195 0
M  V30 1781 H 167.589 1.68457 1.17521 0
M  V30 1782 H 165.819 1.18578 3.68071 0
M  V30 1783 H 167.508 1.60179 3.72958 0
M  V30 1784 H 168.274 3.92425 2.85004 0
M  V30 1785 H 164.153 2.92611 3.5623 0
M  V30 1786 H 167.697 6.32298 2.94694 0
M  V30 1787 H 163.594 5.31609 3.66145 0
M  V30 1788 H 164.362 7.38739 3.5243 0
M  V30 1789 N 167.025 -1.13721 1.09112 0
M  V30 1790 C 168.253 -1.88773 0.846899 0
M  V30 1791 C 168.668 -1.7896 -0.601572 0
M  V30 1792 O 168.025 -1.15394 -1.41388 0
M  V30 1793 C 168.076 -3.3849 1.26913 0
M  V30 1794 O 167.797 -3.48043 2.66079 0
M  V30 1795 C 169.298 -4.30518 1.05682 0
M  V30 1796 H 166.518 -0.59772 0.304914 0
M  V30 1797 H 169.062 -1.43977 1.45227 0
M  V30 1798 H 167.217 -3.80881 0.707723 0
M  V30 1799 H 167.631 -4.4109 2.83795 0
M  V30 1800 H 169.105 -5.3391 1.40156 0
M  V30 1801 H 169.582 -4.392 -0.00563416 0
M  V30 1802 H 170.188 -3.93893 1.60402 0
M  V30 1803 N 168.503 -0.877838 -1.30888 0
M  V30 1804 C 169.413 -0.343096 -2.32078 0
M  V30 1805 C 170.429 0.551022 -1.65045 0
M  V30 1806 O 171.605 0.445854 -1.96403 0
M  V30 1807 C 168.67 0.439905 -3.43898 0
M  V30 1808 C 167.731 -0.483111 -4.26573 0
M  V30 1809 C 166.964 0.262616 -5.33053 0
M  V30 1810 O 167.187 1.48967 -5.50604 0
M  V30 1811 O 166.121 -0.383593 -6.00676 0
M  V30 1812 H 169.947 -1.18203 -2.79753 0
M  V30 1813 H 167.532 -0.64145 -1.34929 0
M  V30 1814 H 169.414 0.883504 -4.12034 0
M  V30 1815 H 168.089 1.25526 -2.98371 0
M  V30 1816 H 166.996 -0.975374 -3.61161 0
M  V30 1817 H 168.329 -1.26427 -4.75686 0
M  V30 1818 N 169.982 1.44106 -0.638065 0
M  V30 1819 C 171.398 1.56672 -0.304286 0
M  V30 1820 C 171.598 1.6244 1.19228 0
M  V30 1821 O 170.654 1.57121 1.9766 0
M  V30 1822 C 171.967 2.83503 -1.00231 0
M  V30 1823 C 173.515 2.97226 -0.981116 0
M  V30 1824 C 173.99 4.26868 -1.65974 0
M  V30 1825 N 175.481 4.33698 -1.62666 0
M  V30 1826 C 176.216 5.32745 -2.12063 0
M  V30 1827 N 175.712 6.38157 -2.6968 0
M  V30 1828 N 177.505 5.24299 -2.02651 0
M  V30 1829 H 169.656 1.38605 -1.60942 0
M  V30 1830 H 171.919 0.664661 -0.675965 0
M  V30 1831 H 171.625 2.85251 -2.0573 0
M  V30 1832 H 171.499 3.73251 -0.54439 0
M  V30 1833 H 173.886 2.95027 0.0654188 0
M  V30 1834 H 173.967 2.08808 -1.47759 0
M  V30 1835 H 173.611 4.29826 -2.70576 0
M  V30 1836 H 173.541 5.14156 -1.13804 0
M  V30 1837 H 176.032 3.58138 -1.20606 0
M  V30 1838 H 176.345 7.10029 -3.05087 0
M  V30 1839 H 174.69 6.38823 -2.73734 0
M  V30 1840 H 177.881 4.4086 -1.57353 0
M  V30 1841 H 178.054 6.01334 -2.41457 0
M  V30 1842 N 171.46 0.379036 1.52974 0
M  V30 1843 C 172.737 -0.263479 1.93817 0
M  V30 1844 C 173.117 -1.65244 1.31368 0
M  V30 1845 O 172.465 -2.23448 0.477856 0
M  V30 1846 C 172.675 -0.300166 3.47707 0
M  V30 1847 C 174.023 -0.534061 4.21228 0
M  V30 1848 O 175.047 -0.38081 3.54159 0
M  V30 1849 O 173.906 -0.833501 5.40106 0
M  V30 1850 H 171 -0.161149 0.811147 0
M  V30 1851 H 173.546 0.432798 1.64088 0
M  V30 1852 H 172.318 0.673138 3.85467 0
M  V30 1853 H 171.941 -1.04179 3.83709 0
M  V30 1854 N 172.938 -1.57226 0.108567 0
M  V30 1855 C 173.901 -2.13602 -0.831082 0
M  V30 1856 C 174.901 -1.06841 -1.20173 0
M  V30 1857 O 176.091 -1.32666 -1.12895 0
M  V30 1858 C 173.223 -2.66769 -2.12243 0
M  V30 1859 H 174.416 -2.97951 -0.341317 0
M  V30 1860 H 171.969 -1.55667 -0.14057 0
M  V30 1861 H 172.704 -1.85977 -2.65675 0
M  V30 1862 H 172.489 -3.44839 -1.86625 0
M  V30 1863 H 173.979 -3.10332 -2.79435 0
M  V30 1864 N 174.416 0.165178 -1.56732 0
M  V30 1865 C 175.641 0.900253 -1.86843 0
M  V30 1866 C 176.066 1.74766 -0.695596 0
M  V30 1867 O 175.424 1.77786 0.35522 0
M  V30 1868 C 175.472 1.74777 -3.15413 0
M  V30 1869 O 174.576 2.85007 -2.98068 0
M  V30 1870 H 173.917 0.251832 -0.614391 0
M  V30 1871 H 176.447 0.161468 -2.03962 0
M  V30 1872 H 176.457 2.14646 -3.46974 0
M  V30 1873 H 175.132 1.12537 -4.00385 0
M  V30 1874 H 173.709 2.48676 -2.77875 0
M  V30 1875 N 175.894 1.51508 0.433938 0
M  V30 1876 C 177.31 1.39759 0.770682 0
M  V30 1877 C 177.51 0.482594 1.95636 0
M  V30 1878 O 176.566 -0.0609691 2.52426 0
M  V30 1879 C 177.879 2.81851 1.04787 0
M  V30 1880 C 179.427 2.91025 1.1521 0
M  V30 1881 C 179.902 4.34032 1.46219 0
M  V30 1882 N 181.393 4.37154 1.53136 0
M  V30 1883 C 182.128 5.4484 1.78709 0
M  V30 1884 N 181.624 6.62682 2.02051 0
M  V30 1885 N 183.417 5.32324 1.80519 0
M  V30 1886 H 175.568 2.09548 -0.346892 0
M  V30 1887 H 177.831 0.943446 -0.0928074 0
M  V30 1888 H 177.537 3.50815 0.249304 0
M  V30 1889 H 177.411 3.21386 1.97461 0
M  V30 1890 H 179.798 2.22257 1.94128 0
M  V30 1891 H 179.879 2.54983 0.204281 0
M  V30 1892 H 179.523 5.03351 0.678274 0
M  V30 1893 H 179.453 4.6759 2.42212 0
M  V30 1894 H 181.944 3.52197 1.36987 0
M  V30 1895 H 182.257 7.40543 2.20943 0
M  V30 1896 H 180.602 6.65791 1.99366 0
M  V30 1897 H 183.793 4.39246 1.61805 0
M  V30 1898 H 183.966 6.16328 2.00111 0
M  V30 1899 N 177.372 -0.689602 1.41712 0
M  V30 1900 C 178.302 -1.81577 1.46806 0
M  V30 1901 C 179.283 -1.66945 0.326105 0
M  V30 1902 O 180.468 -1.86588 0.538377 0
M  V30 1903 C 177.598 -3.19762 1.35535 0
M  V30 1904 C 176.552 -3.49107 2.47605 0
M  V30 1905 C 175.878 -4.86711 2.21397 0
M  V30 1906 C 177.178 -3.47483 3.89939 0
M  V30 1907 H 178.872 -1.7757 2.41058 0
M  V30 1908 H 176.418 -0.852887 1.16025 0
M  V30 1909 H 178.371 -3.98263 1.3771 0
M  V30 1910 H 177.095 -3.24409 0.377708 0
M  V30 1911 H 175.754 -2.72959 2.44722 0
M  V30 1912 H 175.402 -4.8799 1.21961 0
M  V30 1913 H 175.102 -5.0731 2.96497 0
M  V30 1914 H 176.626 -5.67515 2.25297 0
M  V30 1915 H 178.04 -4.1598 3.94505 0
M  V30 1916 H 176.437 -3.79615 4.64771 0
M  V30 1917 H 177.507 -2.46341 4.17665 0
M  V30 1918 N 178.85 -1.27639 -0.924453 0
M  V30 1919 C 180.099 -1.13549 -1.66702 0
M  V30 1920 C 180.412 0.317487 -1.93006 0
M  V30 1921 O 181.618 0.579333 -2.65247 0
M  V30 1922 C 180.074 -1.98426 -3.00259 0
M  V30 1923 C 179.682 -3.484 -2.81641 0
M  V30 1924 C 181.426 -1.92993 -3.78092 0
M  V30 1925 C 179.333 -4.25464 -4.10773 0
M  V30 1926 H 178.263 -0.421351 -0.625283 0
M  V30 1927 H 180.914 -1.52085 -1.02676 0
M  V30 1928 H 179.296 -1.52736 -3.6536 0
M  V30 1929 H 180.47 -4.01973 -2.25287 0
M  V30 1930 H 178.785 -3.55245 -2.17232 0
M  V30 1931 H 181.382 -2.47844 -4.7379 0
M  V30 1932 H 181.725 -0.904281 -4.0636 0
M  V30 1933 H 182.258 -2.36595 -3.19793 0
M  V30 1934 H 178.997 -5.28566 -3.87683 0
M  V30 1935 H 178.517 -3.76667 -4.66779 0
M  V30 1936 H 180.196 -4.34812 -4.79111 0
M  V30 1937 N 180.328 1.1314 -1.09713 0
M  V30 1938 C 181.575 1.84484 -0.834987 0
M  V30 1939 C 181.903 1.83689 0.639418 0
M  V30 1940 O 181.158 1.2724 1.4869 0
M  V30 1941 C 181.457 3.32167 -1.3191 0
M  V30 1942 C 181.123 3.53139 -2.80363 0
M  V30 1943 C 179.785 3.58571 -3.20905 0
M  V30 1944 C 182.137 3.60866 -3.76065 0
M  V30 1945 C 179.465 3.69267 -4.55916 0
M  V30 1946 C 181.817 3.73089 -5.10869 0
M  V30 1947 C 180.481 3.76775 -5.50996 0
M  V30 1948 H 179.751 0.675073 -0.305544 0
M  V30 1949 H 182.398 1.33554 -1.37243 0
M  V30 1950 H 180.703 3.85469 -0.701517 0
M  V30 1951 H 182.4 3.85821 -1.09284 0
M  V30 1952 H 178.99 3.49569 -2.47991 0
M  V30 1953 H 183.174 3.55946 -3.45855 0
M  V30 1954 H 178.43 3.70388 -4.86438 0
M  V30 1955 H 182.604 3.78011 -5.84877 0
M  V30 1956 H 180.231 3.84815 -6.55608 0
M  V30 1957 N 181.806 0.884767 1.30421 0
M  V30 1958 C 182.738 0.308655 2.27112 0
M  V30 1959 C 183.751 -0.536655 1.53701 0
M  V30 1960 O 184.94 -0.35624 1.74909 0
M  V30 1961 C 182.04 -0.579782 3.33904 0
M  V30 1962 C 181.213 0.236417 4.36761 0
M  V30 1963 C 180.272 -0.582482 5.22966 0
M  V30 1964 O 179.298 -0.00525502 5.692 0
M  V30 1965 N 180.5 -1.89163 5.48815 0
M  V30 1966 H 183.265 1.13964 2.77186 0
M  V30 1967 H 180.826 0.747731 1.43599 0
M  V30 1968 H 182.818 -1.13366 3.88497 0
M  V30 1969 H 181.388 -1.31144 2.83761 0
M  V30 1970 H 180.608 0.97174 3.82035 0
M  V30 1971 H 181.896 0.795924 5.02536 0
M  V30 1972 H 181.294 -2.38352 5.13035 0
M  V30 1973 H 179.851 -2.39296 6.06284 0
M  V30 1974 N 183.284 -1.43765 0.645699 0
M  V30 1975 C 184.53 -2.02197 0.156271 0
M  V30 1976 C 184.863 -1.50776 -1.22393 0
M  V30 1977 O 184.138 -0.697771 -1.81553 0
M  V30 1978 C 184.421 -3.59749 0.158872 0
M  V30 1979 C 184.274 -4.21419 1.57245 0
M  V30 1980 C 185.593 -4.37149 -0.50879 0
M  V30 1981 H 182.712 -0.734694 0.0582602 0
M  V30 1982 H 185.354 -1.71157 0.824951 0
M  V30 1983 H 183.504 -3.86325 -0.410525 0
M  V30 1984 H 185.176 -4.059 2.19186 0
M  V30 1985 H 183.419 -3.78356 2.122 0
M  V30 1986 H 184.09 -5.30482 1.52619 0
M  V30 1987 H 186.566 -4.16093 -0.024412 0
M  V30 1988 H 185.442 -5.4683 -0.476213 0
M  V30 1989 H 185.703 -4.12839 -1.58165 0
M  V30 1990 N 184.763 -0.387143 -1.52771 0
M  V30 1991 C 185.693 0.440551 -2.29306 0
M  V30 1992 C 186.674 1.06535 -1.32606 0
M  V30 1993 O 187.859 1.07853 -1.61497 0
M  V30 1994 C 184.989 1.56919 -3.09829 0
M  V30 1995 C 183.943 1.07054 -4.14395 0
M  V30 1996 C 183.269 2.29109 -4.83129 0
M  V30 1997 C 184.569 0.140015 -5.22112 0
M  V30 1998 H 186.263 -0.198026 -2.98744 0
M  V30 1999 H 183.809 -0.09668 -1.43675 0
M  V30 2000 H 185.762 2.15503 -3.62128 0
M  V30 2001 H 184.486 2.23532 -2.3812 0
M  V30 2002 H 183.145 0.507247 -3.63074 0
M  V30 2003 H 182.793 2.94227 -4.0797 0
M  V30 2004 H 182.493 1.96406 -5.53804 0
M  V30 2005 H 184.017 2.88339 -5.38231 0
M  V30 2006 H 185.431 0.633978 -5.69784 0
M  V30 2007 H 183.828 -0.0971485 -6.00021 0
M  V30 2008 H 184.898 -0.811711 -4.78058 0
M  V30 2009 N 186.241 1.57166 -0.116904 0
M  V30 2010 C 187.518 1.86645 0.585049 0
M  V30 2011 C 187.898 1.0177 1.84949 0
M  V30 2012 O 187.246 0.0960379 2.28298 0
M  V30 2013 C 187.456 3.37736 0.879507 0
M  V30 2014 C 188.804 4.06289 1.23348 0
M  V30 2015 O 189.828 3.42743 0.969836 0
M  V30 2016 O 188.687 5.18455 1.7282 0
M  V30 2017 H 185.781 0.772593 0.295007 0
M  V30 2018 H 188.327 1.69025 -0.151249 0
M  V30 2019 H 187.099 3.91296 -0.0166136 0
M  V30 2020 H 186.722 3.6078 1.67103 0
M  V30 2021 N 187.719 -0.156864 1.56817 0
M  V30 2022 C 188.682 -1.17781 1.96622 0
M  V30 2023 C 189.682 -1.36401 0.851555 0
M  V30 2024 O 190.872 -1.33561 1.11836 0
M  V30 2025 C 188.004 -2.54008 2.27361 0
M  V30 2026 H 189.197 -0.836564 2.87996 0
M  V30 2027 H 186.75 -0.39985 1.51099 0
M  V30 2028 H 187.485 -2.9312 1.38748 0
M  V30 2029 H 187.27 -2.41856 3.08623 0
M  V30 2030 H 188.76 -3.27558 2.59029 0
M  V30 2031 N 189.197 -1.51736 -0.425897 0
M  V30 2032 C 190.443 -1.65214 -1.1761 0
M  V30 2033 C 190.776 -0.372778 -1.90589 0
M  V30 2034 O 190.051 0.628139 -1.84078 0
M  V30 2035 C 190.334 -2.86312 -2.18398 0
M  V30 2036 C 190.187 -4.24254 -1.49426 0
M  V30 2037 C 191.506 -3.02925 -3.19256 0
M  V30 2038 H 188.625 -0.601263 -0.426206 0
M  V30 2039 H 191.267 -1.8425 -0.463882 0
M  V30 2040 H 189.417 -2.70213 -2.79137 0
M  V30 2041 H 191.089 -4.52046 -0.919362 0
M  V30 2042 H 189.332 -4.26426 -0.796432 0
M  V30 2043 H 190.003 -5.05001 -2.22885 0
M  V30 2044 H 192.479 -3.1781 -2.68581 0
M  V30 2045 H 191.355 -3.89199 -3.8706 0
M  V30 2046 H 191.616 -2.15497 -3.86023 0
M  V30 2047 N 190.675 0.682077 -1.42076 0
M  V30 2048 C 191.622 1.79578 -1.44984 0
M  V30 2049 C 192.592 1.6332 -0.302614 0
M  V30 2050 O 193.777 1.83978 -0.505633 0
M  V30 2051 C 190.917 3.1756 -1.35091 0
M  V30 2052 C 190.03 3.45156 -2.59791 0
M  V30 2053 C 189.165 4.72826 -2.42093 0
M  V30 2054 C 188.204 4.93433 -3.62202 0
M  V30 2055 N 187.341 6.12338 -3.43491 0
M  V30 2056 H 192.181 1.76427 -2.40161 0
M  V30 2057 H 189.718 0.861376 -1.19242 0
M  V30 2058 H 191.676 3.97287 -1.27354 0
M  V30 2059 H 190.306 3.19854 -0.435133 0
M  V30 2060 H 189.358 2.59736 -2.77923 0
M  V30 2061 H 190.67 3.5628 -3.49094 0
M  V30 2062 H 189.824 5.60631 -2.319 0
M  V30 2063 H 188.563 4.63973 -1.50268 0
M  V30 2064 H 187.568 4.04073 -3.72834 0
M  V30 2065 H 188.793 5.04136 -4.54998 0
M  V30 2066 H 186.739 6.04672 -2.54377 0
M  V30 2067 H 186.656 6.2429 -4.26377 0
M  V30 2068 H 187.924 7.02841 -3.37097 0
M  V30 2069 N 192.153 1.28127 0.917671 0
M  V30 2070 C 193.383 1.17722 1.6978 0
M  V30 2071 C 193.791 -0.267261 1.87303 0
M  V30 2072 O 193.134 -1.19286 1.39702 0
M  V30 2073 C 193.196 1.79958 3.11216 0
M  V30 2074 C 192.86 3.29187 3.16993 0
M  V30 2075 C 193.857 4.25679 2.98485 0
M  V30 2076 C 191.542 3.70075 3.39632 0
M  V30 2077 C 193.536 5.61035 3.02521 0
M  V30 2078 C 191.223 5.05557 3.433 0
M  V30 2079 C 192.221 6.00847 3.24764 0
M  V30 2080 O 191.909 7.33859 3.28187 0
M  V30 2081 H 191.641 0.409788 0.537634 0
M  V30 2082 H 194.195 1.69694 1.15728 0
M  V30 2083 H 192.425 1.22475 3.66793 0
M  V30 2084 H 194.114 1.64125 3.71238 0
M  V30 2085 H 194.88 3.95426 2.80826 0
M  V30 2086 H 190.759 2.96373 3.53106 0
M  V30 2087 H 194.303 6.35388 2.87971 0
M  V30 2088 H 190.2 5.35462 3.60486 0
M  V30 2089 H 190.968 7.42436 3.44575 0
M  V30 2090 N 193.631 -1.12557 1.10312 0
M  V30 2091 C 194.561 -2.20341 0.772798 0
M  V30 2092 C 195.542 -1.68198 -0.25365 0
M  V30 2093 O 196.727 -1.93831 -0.119699 0
M  V30 2094 C 193.857 -3.46709 0.202443 0
M  V30 2095 C 192.811 -4.11996 1.15943 0
M  V30 2096 C 192.137 -5.328 0.450345 0
M  V30 2097 C 193.437 -4.5828 2.50552 0
M  V30 2098 H 195.131 -2.48229 1.674 0
M  V30 2099 H 192.677 -1.19308 0.806326 0
M  V30 2100 H 194.63 -4.2138 -0.0407752 0
M  V30 2101 H 193.354 -3.18245 -0.734001 0
M  V30 2102 H 192.013 -3.39305 1.38808 0
M  V30 2103 H 191.661 -5.00602 -0.490531 0
M  V30 2104 H 191.361 -5.7743 1.08851 0
M  V30 2105 H 192.885 -6.10219 0.215642 0
M  V30 2106 H 194.299 -5.2433 2.31843 0
M  V30 2107 H 192.696 -5.13683 3.10242 0
M  V30 2108 H 193.766 -3.72329 3.10643 0
M  V30 2109 N 195.109 -0.891671 -1.2995 0
M  V30 2110 C 196.059 -0.334811 -2.25528 0
M  V30 2111 C 197.043 0.540553 -1.51548 0
M  V30 2112 O 198.235 0.383882 -1.72787 0
M  V30 2113 C 195.364 0.44374 -3.4042 0
M  V30 2114 C 194.45 -0.44609 -4.21747 0
M  V30 2115 N 194.841 -1.54963 -4.81477 0
M  V30 2116 C 193.139 -0.242415 -4.45341 0
M  V30 2117 C 193.84 -2.10015 -5.42465 0
M  V30 2118 N 192.816 -1.39423 -5.25416 0
M  V30 2119 H 196.618 -1.17792 -2.69262 0
M  V30 2120 H 194.132 -0.741822 -1.44467 0
M  V30 2121 H 196.129 0.859362 -4.07947 0
M  V30 2122 H 194.789 1.28421 -2.98225 0
M  V30 2123 H 195.8 -1.93244 -4.80497 0
M  V30 2124 H 192.477 0.560342 -4.13723 0
M  V30 2125 H 193.867 -3.02724 -5.9984 0
M  V30 2126 N 196.587 1.43421 -0.653314 0
M  V30 2127 C 197.864 1.95361 -0.0966581 0
M  V30 2128 C 198.244 1.59461 1.38331 0
M  V30 2129 O 197.592 0.879777 2.10884 0
M  V30 2130 C 197.802 3.47311 -0.342988 0
M  V30 2131 C 199.15 4.23875 -0.24798 0
M  V30 2132 O 200.174 3.55133 -0.275553 0
M  V30 2133 O 199.033 5.4623 -0.171771 0
M  V30 2134 H 196.127 0.826945 0.00956291 0
M  V30 2135 H 198.673 1.5336 -0.726558 0
M  V30 2136 H 197.445 3.66569 -1.36906 0
M  V30 2137 H 197.068 3.9631 0.319975 0
M  V30 2138 N 198.065 0.39524 1.52563 0
M  V30 2139 C 198.995 -0.428384 2.29537 0
M  V30 2140 C 199.976 -1.05831 1.33169 0
M  V30 2141 O 201.161 -1.06995 1.62067 0
M  V30 2142 C 198.291 -1.55274 3.10656 0
M  V30 2143 C 197.245 -1.04855 4.14957 0
M  V30 2144 C 196.571 -2.26543 4.84337 0
M  V30 2145 C 197.871 -0.112324 5.22179 0
M  V30 2146 H 199.565 0.213867 2.98635 0
M  V30 2147 H 197.111 0.104298 1.43622 0
M  V30 2148 H 199.064 -2.1358 3.63265 0
M  V30 2149 H 197.788 -2.22266 2.39302 0
M  V30 2150 H 196.447 -0.487985 3.63338 0
M  V30 2151 H 196.095 -2.92059 4.09525 0
M  V30 2152 H 195.795 -1.93466 5.54837 0
M  V30 2153 H 197.319 -2.85481 5.39753 0
M  V30 2154 H 198.733 -0.603752 5.70112 0
M  V30 2155 H 197.13 0.128968 5.99961 0
M  V30 2156 H 198.2 0.837052 4.77621 0
M  V30 2157 N 199.544 -1.57102 0.125237 0
M  V30 2158 C 200.792 -1.95021 -0.530198 0
M  V30 2159 C 201.113 -1.00982 -1.66816 0
M  V30 2160 O 200.383 -0.0672693 -1.95784 0
M  V30 2161 H 198.963 -0.720046 -0.198853 0
M  V30 2162 H 201.625 -1.93916 0.19564 0
M  V30 2163 H 200.721 -2.98211 -0.920681 0
M  V30 2164 N 201.022 0.148545 -1.56898 0
M  V30 2165 C 202.271 0.85984 -1.82454 0
M  V30 2166 C 202.584 1.82406 -0.706229 0
M  V30 2167 O 203.79 2.57938 -0.847349 0
M  V30 2168 C 202.246 1.57967 -3.2338 0
M  V30 2169 C 201.854 0.65794 -4.43142 0
M  V30 2170 C 203.598 2.27784 -3.58211 0
M  V30 2171 C 201.505 1.3793 -5.75091 0
M  V30 2172 H 200.435 0.324834 -0.68044 0
M  V30 2173 H 203.086 0.112588 -1.83154 0
M  V30 2174 H 201.468 2.37249 -3.17063 0
M  V30 2175 H 202.642 -0.0995497 -4.60692 0
M  V30 2176 H 200.957 0.0682643 -4.16344 0
M  V30 2177 H 203.554 2.8239 -4.54048 0
M  V30 2178 H 203.897 3.04204 -2.84193 0
M  V30 2179 H 204.43 1.55421 -3.66182 0
M  V30 2180 H 201.169 0.656982 -6.52199 0
M  V30 2181 H 200.689 2.10954 -5.61479 0
M  V30 2182 H 202.368 1.92063 -6.17835 0
M  V30 2183 N 202.5 1.5196 0.417844 0
M  V30 2184 C 203.746 1.65836 1.16732 0
M  V30 2185 C 204.079 0.382881 1.90388 0
M  V30 2186 O 203.354 -0.618368 1.84408 0
M  V30 2187 C 203.637 2.87466 2.16876 0
M  V30 2188 C 203.49 4.25041 1.47174 0
M  V30 2189 C 204.809 3.04613 3.17646 0
M  V30 2190 H 201.928 0.603515 0.423011 0
M  V30 2191 H 204.57 1.84494 0.454105 0
M  V30 2192 H 202.72 2.71689 2.777 0
M  V30 2193 H 204.392 4.52527 0.895376 0
M  V30 2194 H 202.635 4.26843 0.773806 0
M  V30 2195 H 203.306 5.06176 2.20204 0
M  V30 2196 H 205.782 3.1923 2.66892 0
M  V30 2197 H 204.658 3.91247 3.8499 0
M  V30 2198 H 204.919 2.17541 3.84874 0
M  V30 2199 N 203.978 -0.674533 1.42435 0
M  V30 2200 C 204.928 -1.7807 1.4239 0
M  V30 2201 C 205.912 -1.58169 0.295202 0
M  V30 2202 O 207.104 -1.68643 0.537449 0
M  V30 2203 C 204.233 -3.16532 1.32901 0
M  V30 2204 C 203.319 -3.42055 2.50717 0
M  V30 2205 N 203.71 -3.38162 3.76139 0
M  V30 2206 C 202.008 -3.72692 2.44983 0
M  V30 2207 C 202.709 -3.63177 4.54398 0
M  V30 2208 N 201.685 -3.83954 3.84812 0
M  V30 2209 H 205.487 -1.73454 2.37257 0
M  V30 2210 H 203.001 -0.875381 1.36788 0
M  V30 2211 H 204.998 -3.958 1.30951 0
M  V30 2212 H 203.658 -3.22345 0.390363 0
M  V30 2213 H 204.669 -3.18057 4.0873 0
M  V30 2214 H 201.346 -3.85749 1.59699 0
M  V30 2215 H 202.736 -3.66125 5.63384 0
M  V30 2216 N 205.456 -1.28612 -0.910864 0
M  V30 2217 C 206.872 -1.06381 -1.18976 0
M  V30 2218 C 207.072 0.191998 -2.00583 0
M  V30 2219 O 206.128 0.892869 -2.36187 0
M  V30 2220 C 207.441 -2.31295 -1.92154 0
M  V30 2221 C 208.989 -2.36503 -2.05025 0
M  V30 2222 C 209.464 -3.61191 -2.81612 0
M  V30 2223 N 210.955 -3.61847 -2.89172 0
M  V30 2224 C 211.69 -4.55004 -3.4894 0
M  V30 2225 N 211.186 -5.58482 -4.09963 0
M  V30 2226 N 212.979 -4.42594 -3.46506 0
M  V30 2227 H 205.13 -2.09221 -0.366094 0
M  V30 2228 H 207.393 -0.921003 -0.224629 0
M  V30 2229 H 207.099 -3.228 -1.39618 0
M  V30 2230 H 206.973 -2.37934 -2.9269 0
M  V30 2231 H 209.36 -1.45494 -2.5674 0
M  V30 2232 H 209.441 -2.33857 -1.03657 0
M  V30 2233 H 209.085 -4.52545 -2.30576 0
M  V30 2234 H 209.015 -3.61092 -3.83302 0
M  V30 2235 H 211.506 -2.87022 -2.45819 0
M  V30 2236 H 211.819 -6.25704 -4.53557 0
M  V30 2237 H 210.164 -5.62305 -4.08459 0
M  V30 2238 H 213.355 -3.60953 -2.98045 0
M  V30 2239 H 213.528 -5.15381 -3.92793 0
M  V30 2240 N 206.934 1.1197 -1.10907 0
M  V30 2241 C 208.211 1.79959 -0.766432 0
M  V30 2242 C 208.591 1.97466 0.746363 0
M  V30 2243 O 207.939 1.55491 1.67436 0
M  V30 2244 C 208.149 3.14009 -1.52314 0
M  V30 2245 C 209.497 3.89134 -1.69883 0
M  V30 2246 O 210.521 3.2368 -1.48692 0
M  V30 2247 O 209.38 5.06572 -2.05054 0
M  V30 2248 H 206.474 0.779208 -0.277062 0
M  V30 2249 H 209.02 1.18762 -1.21217 0
M  V30 2250 H 207.792 2.96587 -2.55249 0
M  V30 2251 H 207.415 3.82915 -1.07059 0
M  V30 2252 N 208.412 0.89855 1.29475 0
M  V30 2253 C 209.342 0.39201 2.30186 0
M  V30 2254 C 210.323 -0.532359 1.61555 0
M  V30 2255 O 211.508 -0.443331 1.89072 0
M  V30 2256 C 208.638 -0.382353 3.45189 0
M  V30 2257 C 207.592 0.451483 4.25612 0
M  V30 2258 C 206.918 -0.450307 5.328 0
M  V30 2259 C 208.218 1.70079 4.93832 0
M  V30 2260 H 209.912 1.23362 2.72804 0
M  V30 2261 H 207.458 0.594638 1.31149 0
M  V30 2262 H 209.411 -0.747451 4.14718 0
M  V30 2263 H 208.135 -1.25774 3.01411 0
M  V30 2264 H 206.794 0.798897 3.57789 0
M  V30 2265 H 206.442 -1.32379 4.85268 0
M  V30 2266 H 206.142 0.103902 5.87508 0
M  V30 2267 H 207.666 -0.811623 6.05182 0
M  V30 2268 H 209.08 1.40549 5.55805 0
M  V30 2269 H 207.477 2.19623 5.58467 0
M  V30 2270 H 208.547 2.43744 4.19186 0
M  V30 2271 N 209.89 -1.43072 0.660911 0
M  V30 2272 C 210.837 -2.30785 -0.0259884 0
M  V30 2273 C 211.807 -1.45184 -0.806888 0
M  V30 2274 O 212.992 -1.74041 -0.781943 0
M  V30 2275 C 210.132 -3.30861 -0.981067 0
M  V30 2276 C 209.245 -4.31558 -0.195458 0
M  V30 2277 C 208.38 -5.18712 -1.14503 0
M  V30 2278 C 207.419 -6.11097 -0.350299 0
M  V30 2279 N 206.556 -6.90849 -1.25186 0
M  V30 2280 H 211.396 -2.88975 0.727846 0
M  V30 2281 H 208.933 -1.42353 0.370682 0
M  V30 2282 H 210.891 -3.87399 -1.54849 0
M  V30 2283 H 209.521 -2.74304 -1.70169 0
M  V30 2284 H 208.573 -3.77252 0.488374 0
M  V30 2285 H 209.885 -4.9701 0.422176 0
M  V30 2286 H 209.039 -5.79914 -1.78284 0
M  V30 2287 H 207.778 -4.53404 -1.79656 0
M  V30 2288 H 206.783 -5.48976 0.300808 0
M  V30 2289 H 208.008 -6.7845 0.296941 0
M  V30 2290 H 205.954 -6.28182 -1.89005 0
M  V30 2291 H 205.871 -7.52854 -0.688971 0
M  V30 2292 H 207.139 -7.5655 -1.87757 0
M  V30 2293 N 211.368 -0.403325 -1.52352 0
M  V30 2294 C 212.779 0.0675782 -1.86578 0
M  V30 2295 C 213.13 1.44941 -1.32236 0
M  V30 2296 O 212.255 2.06112 -0.659307 0
M  V30 2297 C 212.85 0.129404 -3.38553 0
M  V30 2298 C 211.409 0.544629 -3.72439 0
M  V30 2299 C 210.556 -0.284551 -2.75836 0
M  V30 2300 H 213.507 -0.620631 -1.46061 0
M  V30 2301 H 213.528 0.94581 -3.68558 0
M  V30 2302 H 213.04 -0.87645 -3.78074 0
M  V30 2303 H 211.141 1.55734 -3.38493 0
M  V30 2304 H 211.254 0.293046 -4.78203 0
M  V30 2305 H 209.618 0.252258 -2.53448 0
M  V30 2306 H 210.401 -1.28865 -3.18196 0
M  V30 2307 N 212.846 1.57033 -0.133567 0
M  V30 2308 C 213.756 2.19632 0.824564 0
M  V30 2309 C 214.772 1.17666 1.28182 0
M  V30 2310 O 215.948 1.50193 1.3418 0
M  V30 2311 C 213.013 2.79499 2.05137 0
M  V30 2312 C 212.074 3.96548 1.64464 0
M  V30 2313 C 211.307 4.5355 2.81297 0
M  V30 2314 O 211.53 4.09438 3.97136 0
M  V30 2315 O 210.464 5.44018 2.57542 0
M  V30 2316 H 214.29 3.01991 0.321766 0
M  V30 2317 H 211.875 1.49112 0.0927889 0
M  V30 2318 H 213.757 3.17602 2.7696 0
M  V30 2319 H 212.432 2.00162 2.54395 0
M  V30 2320 H 211.339 3.63186 0.897048 0
M  V30 2321 H 212.672 4.77364 1.19934 0
M  V30 2322 N 214.325 -0.140222 1.56975 0
M  V30 2323 C 215.273 -1.19207 1.99731 0
M  V30 2324 C 216.267 -1.44089 0.890777 0
M  V30 2325 O 217.473 -1.44301 1.07597 0
M  V30 2326 H 213.848 -0.40142 0.635898 0
M  V30 2327 H 215.819 -0.804813 2.87342 0
M  V30 2328 C 214.568 -2.51617 2.39967 0
M  V30 2329 H 213.891 -2.33303 3.24669 0
M  V30 2330 H 215.331 -3.23827 2.73701 0
M  V30 2331 C 213.79 -3.12654 1.25496 0
M  V30 2332 O 214.32 -3.97786 0.559371 0
M  V30 2333 N 212.526 -2.72206 1.01746 0
M  V30 2334 H 212.073 -2.03074 1.58489 0
M  V30 2335 H 212.031 -3.13377 0.253461 0
M  V30 2336 N 215.803 -1.52179 -0.40978 0
M  V30 2337 C 216.733 -1.78435 -1.5061 0
M  V30 2338 C 217.714 -0.635295 -1.57791 0
M  V30 2339 O 218.899 -0.880823 -1.73076 0
M  V30 2340 C 216.029 -1.93444 -2.88439 0
M  V30 2341 C 214.983 -3.09038 -2.96108 0
M  V30 2342 C 214.309 -3.09268 -4.36185 0
M  V30 2343 C 215.609 -4.48508 -2.67652 0
M  V30 2344 H 217.303 -2.70237 -1.28889 0
M  V30 2345 H 214.849 -1.30036 -0.618605 0
M  V30 2346 H 216.802 -2.10394 -3.65119 0
M  V30 2347 H 215.526 -0.983129 -3.11452 0
M  V30 2348 H 214.185 -2.91837 -2.21872 0
M  V30 2349 H 213.833 -2.11861 -4.56206 0
M  V30 2350 H 213.533 -3.86907 -4.42241 0
M  V30 2351 H 215.057 -3.28348 -5.14801 0
M  V30 2352 H 216.471 -4.65918 -3.34056 0
M  V30 2353 H 214.868 -5.28059 -2.85085 0
M  V30 2354 H 215.938 -4.56649 -1.63095 0
M  V30 2355 N 217.281 0.66697 -1.42791 0
M  V30 2356 C 218.211 1.79218 -1.49677 0
M  V30 2357 C 219.192 1.66405 -0.352623 0
M  V30 2358 O 220.377 1.85708 -0.567993 0
M  V30 2359 C 217.507 3.17565 -1.40605 0
M  V30 2360 C 216.461 3.45124 -2.53127 0
M  V30 2361 C 215.787 4.83127 -2.29112 0
M  V30 2362 C 217.087 3.41236 -3.95418 0
M  V30 2363 H 218.781 1.73713 -2.43853 0
M  V30 2364 H 216.327 0.83432 -1.17367 0
M  V30 2365 H 218.28 3.96022 -1.44029 0
M  V30 2366 H 217.004 3.23767 -0.429271 0
M  V30 2367 H 215.663 2.69031 -2.49034 0
M  V30 2368 H 215.311 4.85988 -1.29709 0
M  V30 2369 H 215.011 5.02528 -3.04531 0
M  V30 2370 H 216.535 5.63859 -2.34297 0
M  V30 2371 H 217.949 4.09651 -4.01073 0
M  V30 2372 H 216.346 3.72173 -4.70752 0
M  V30 2373 H 217.416 2.39665 -4.21532 0
M  V30 2374 N 218.759 1.29093 0.90403 0
M  V30 2375 C 219.989 1.19516 1.68522 0
M  V30 2376 C 220.397 -0.24738 1.87576 0
M  V30 2377 O 219.74 -1.17798 1.40959 0
M  V30 2378 C 219.802 1.83249 3.0929 0
M  V30 2379 C 219.466 3.32531 3.13484 0
M  V30 2380 C 220.463 4.28821 2.93953 0
M  V30 2381 C 218.148 3.73656 3.35688 0
M  V30 2382 C 220.142 5.64212 2.96553 0
M  V30 2383 C 217.829 5.0917 3.37919 0
M  V30 2384 C 218.827 6.04258 3.18373 0
M  V30 2385 O 218.515 7.37298 3.20385 0
M  V30 2386 H 218.247 0.415467 0.533257 0
M  V30 2387 H 220.801 1.70912 1.13922 0
M  V30 2388 H 219.031 1.26358 3.65473 0
M  V30 2389 H 220.72 1.68054 3.69476 0
M  V30 2390 H 221.486 3.98382 2.76616 0
M  V30 2391 H 217.365 3.00101 3.49943 0
M  V30 2392 H 220.909 6.38407 2.81216 0
M  V30 2393 H 216.806 5.39256 3.54787 0
M  V30 2394 H 217.574 7.46048 3.36681 0
M  V30 2395 N 220.237 -1.11381 1.11499 0
M  V30 2396 C 221.467 -1.86663 0.885464 0
M  V30 2397 C 221.875 -1.80464 -0.568281 0
M  V30 2398 O 221.218 -1.18445 -1.40415 0
M  V30 2399 C 221.28 -3.36337 1.26956 0
M  V30 2400 C 220.944 -3.66304 2.73259 0
M  V30 2401 C 221.941 -3.63733 3.71476 0
M  V30 2402 C 219.626 -3.9529 3.09921 0
M  V30 2403 C 221.62 -3.89725 5.04374 0
M  V30 2404 C 219.307 -4.20941 4.43004 0
M  V30 2405 C 220.305 -4.18147 5.40039 0
M  V30 2406 O 219.993 -4.43153 6.70724 0
M  V30 2407 H 219.725 -0.597114 0.316908 0
M  V30 2408 H 222.279 -1.41782 1.48617 0
M  V30 2409 H 220.509 -3.81826 0.611999 0
M  V30 2410 H 222.198 -3.92986 1.01573 0
M  V30 2411 H 222.964 -3.41389 3.44498 0
M  V30 2412 H 218.843 -3.966 2.35009 0
M  V30 2413 H 222.387 -3.8746 5.80104 0
M  V30 2414 H 218.284 -4.42761 4.69716 0
M  V30 2415 H 219.052 -4.60717 6.76522 0
M  V30 2416 N 221.715 -0.905404 -1.28997 0
M  V30 2417 C 222.94 -0.549175 -1.99997 0
M  V30 2418 C 223.365 0.860276 -1.67275 0
M  V30 2419 O 222.723 1.57355 -0.900502 0
M  V30 2420 C 222.771 -0.755185 -3.52604 0
M  V30 2421 O 221.875 0.189692 -4.11964 0
M  V30 2422 H 221.216 -0.213899 -0.628604 0
M  V30 2423 H 223.746 -1.21856 -1.64354 0
M  V30 2424 H 223.756 -0.662045 -4.02593 0
M  V30 2425 H 222.431 -1.78271 -3.75755 0
M  V30 2426 H 221.008 0.0485257 -3.72868 0
M  V30 2427 N 223.193 1.4272 -0.668489 0
M  V30 2428 C 224.123 2.335 -0.000100175 0
M  V30 2429 C 225.104 1.50328 0.795964 0
M  V30 2430 O 226.289 1.78949 0.754385 0
M  V30 2431 C 223.419 3.33874 0.956302 0
M  V30 2432 C 222.373 4.27152 0.269278 0
M  V30 2433 C 221.699 5.17684 1.33818 0
M  V30 2434 C 222.999 5.15373 -0.847805 0
M  V30 2435 H 224.693 2.89639 -0.758244 0
M  V30 2436 H 222.239 1.39269 -0.366079 0
M  V30 2437 H 224.192 3.9629 1.43292 0
M  V30 2438 H 222.916 2.76025 1.74579 0
M  V30 2439 H 221.575 3.66123 -0.187042 0
M  V30 2440 H 221.223 4.56165 2.1195 0
M  V30 2441 H 220.923 5.80918 0.883659 0
M  V30 2442 H 222.447 5.82974 1.81586 0
M  V30 2443 H 223.861 5.7151 -0.452681 0
M  V30 2444 H 222.258 5.87407 -1.22773 0
M  V30 2445 H 223.328 4.5415 -1.69929 0
M  V30 2446 N 224.671 0.411399 1.52136 0
M  V30 2447 C 225.948 -0.222308 1.94333 0
M  V30 2448 C 226.328 -1.6242 1.34844 0
M  V30 2449 O 225.676 -2.22384 0.525145 0
M  V30 2450 C 225.886 -0.226345 3.48265 0
M  V30 2451 C 227.234 -0.444592 4.22266 0
M  V30 2452 O 228.258 -0.305602 3.54887 0
M  V30 2453 O 227.117 -0.718749 5.41753 0
M  V30 2454 H 224.211 -0.143907 0.814383 0
M  V30 2455 H 226.757 0.467506 1.63133 0
M  V30 2456 H 225.529 0.75475 3.83952 0
M  V30 2457 H 225.152 -0.960163 3.85832 0
M  V30 2458 N 226.149 -1.5696 0.141893 0
M  V30 2459 C 227.059 -2.20066 -0.812905 0
M  V30 2460 C 228.075 -1.18344 -1.27557 0
M  V30 2461 O 229.251 -1.50902 -1.33381 0
M  V30 2462 C 226.316 -2.80583 -2.03652 0
M  V30 2463 C 225.377 -3.97414 -1.62359 0
M  V30 2464 C 224.61 -4.55036 -2.78887 0
M  V30 2465 O 224.833 -4.11538 -3.94959 0
M  V30 2466 O 223.767 -5.45376 -2.54653 0
M  V30 2467 H 227.593 -3.02157 -0.305746 0
M  V30 2468 H 225.178 -1.49159 -0.0848799 0
M  V30 2469 H 227.06 -3.19067 -2.75272 0
M  V30 2470 H 225.735 -2.01508 -2.5333 0
M  V30 2471 H 224.642 -3.63656 -0.877775 0
M  V30 2472 H 225.975 -4.77994 -1.17401 0
M  V30 2473 N 227.627 0.131896 -1.57047 0
M  V30 2474 C 228.904 0.871495 -1.75112 0
M  V30 2475 C 229.284 1.9866 -0.713949 0
M  V30 2476 O 228.632 2.26965 0.264447 0
M  V30 2477 C 228.842 1.40007 -3.19686 0
M  V30 2478 C 230.19 1.85752 -3.81813 0
M  V30 2479 O 231.214 1.49715 -3.23209 0
M  V30 2480 O 230.073 2.5226 -4.84796 0
M  V30 2481 H 227.167 0.412919 -0.716538 0
M  V30 2482 H 229.713 0.116641 -1.69299 0
M  V30 2483 H 228.485 0.599404 -3.86682 0
M  V30 2484 H 228.108 2.218 -3.29986 0
M  V30 2485 N 229.106 1.52395 0.401703 0
M  V30 2486 C 230.331 1.70972 1.17403 0
M  V30 2487 C 230.756 0.421615 1.83314 0
M  V30 2488 O 230.114 -0.621564 1.70312 0
M  V30 2489 C 230.162 2.85151 2.20728 0
M  V30 2490 O 229.266 2.51238 3.27037 0
M  V30 2491 H 228.607 0.568927 0.342372 0
M  V30 2492 H 231.137 1.99131 0.469891 0
M  V30 2493 H 231.147 3.10279 2.64936 0
M  V30 2494 H 229.822 3.78603 1.7214 0
M  V30 2495 H 228.399 2.36808 2.88057 0
M  V30 2496 N 230.584 -0.659388 1.43143 0
M  V30 2497 C 231.531 -1.77249 1.47822 0
M  V30 2498 C 232.501 -1.62818 0.328558 0
M  V30 2499 O 233.686 -1.83151 0.534838 0
M  V30 2500 C 230.826 -3.15371 1.40126 0
M  V30 2501 C 229.939 -3.4098 2.65249 0
M  V30 2502 C 229.074 -4.68915 2.49584 0
M  V30 2503 C 228.113 -4.87608 3.70006 0
M  V30 2504 N 227.25 -6.06796 3.53189 0
M  V30 2505 H 232.09 -1.72584 2.42938 0
M  V30 2506 H 229.627 -0.842297 1.20598 0
M  V30 2507 H 231.585 -3.9521 1.33659 0
M  V30 2508 H 230.215 -3.19121 0.485964 0
M  V30 2509 H 229.267 -2.55282 2.8202 0
M  V30 2510 H 230.579 -3.50681 3.54717 0
M  V30 2511 H 229.733 -5.56871 2.4079 0
M  V30 2512 H 228.472 -4.61524 1.5763 0
M  V30 2513 H 227.477 -3.9809 3.79215 0
M  V30 2514 H 228.702 -4.96834 4.62961 0
M  V30 2515 H 226.648 -6.00549 2.63965 0
M  V30 2516 H 226.565 -6.17428 4.36255 0
M  V30 2517 H 227.833 -6.9739 3.48236 0
M  V30 2518 N 232.062 -1.29571 -0.897171 0
M  V30 2519 C 233.311 -1.1706 -1.64256 0
M  V30 2520 C 233.624 0.276476 -1.93636 0
M  V30 2521 O 234.83 0.52294 -2.66416 0
M  V30 2522 C 233.286 -2.0475 -2.95982 0
M  V30 2523 C 232.894 -3.54295 -2.74187 0
M  V30 2524 C 234.638 -2.0097 -3.73914 0
M  V30 2525 C 232.545 -4.34081 -4.01656 0
M  V30 2526 H 231.475 -0.43452 -0.616205 0
M  V30 2527 H 234.126 -1.54229 -0.994268 0
M  V30 2528 H 232.508 -1.60452 -3.62038 0
M  V30 2529 H 233.682 -4.06662 -2.1671 0
M  V30 2530 H 231.997 -3.59773 -2.09648 0
M  V30 2531 H 234.594 -2.57838 -4.68427 0
M  V30 2532 H 234.937 -0.990273 -4.0435 0
M  V30 2533 H 235.47 -2.43325 -3.14703 0
M  V30 2534 H 232.209 -5.36671 -3.76384 0
M  V30 2535 H 231.729 -3.86483 -4.58684 0
M  V30 2536 H 233.408 -4.44877 -4.69781 0
M  V30 2537 N 233.54 1.10788 -1.12088 0
M  V30 2538 C 234.473 2.16237 -0.729168 0
M  V30 2539 C 235.451 1.60207 0.277921 0
M  V30 2540 O 236.635 1.87707 0.172737 0
M  V30 2541 C 233.762 3.38609 -0.0786848 0
M  V30 2542 C 232.808 4.13322 -1.05201 0
M  V30 2543 S 233.641 4.69371 -2.57781 0
M  V30 2544 C 234.797 5.95058 -1.94053 0
M  V30 2545 H 235.03 2.4913 -1.62239 0
M  V30 2546 H 232.563 1.22519 -0.939603 0
M  V30 2547 H 234.521 4.09473 0.290254 0
M  V30 2548 H 233.182 3.03962 0.791593 0
M  V30 2549 H 232.375 5.01051 -0.544433 0
M  V30 2550 H 231.977 3.48251 -1.36371 0
M  V30 2551 H 234.269 6.65278 -1.28107 0
M  V30 2552 H 235.212 6.50472 -2.79807 0
M  V30 2553 H 235.62 5.46918 -1.39787 0
M  V30 2554 N 235.018 0.912232 1.28515 0
M  V30 2555 C 236.267 0.540504 1.94323 0
M  V30 2556 C 236.58 -0.920044 1.72611 0
M  V30 2557 O 237.786 -1.39986 2.32629 0
M  V30 2558 C 236.242 0.915803 3.48053 0
M  V30 2559 C 235.85 2.39598 3.78546 0
M  V30 2560 C 237.594 0.614588 4.20027 0
M  V30 2561 C 235.501 2.71148 5.25578 0
M  V30 2562 H 234.431 0.198418 0.727424 0
M  V30 2563 H 237.082 1.11094 1.46049 0
M  V30 2564 H 235.464 0.274168 3.9505 0
M  V30 2565 H 236.638 3.08422 3.42364 0
M  V30 2566 H 234.953 2.66749 3.1974 0
M  V30 2567 H 237.55 0.827002 5.28266 0
M  V30 2568 H 237.893 -0.447531 4.13887 0
M  V30 2569 H 238.426 1.21462 3.78803 0
M  V30 2570 H 235.165 3.76207 5.36794 0
M  V30 2571 H 234.685 2.0696 5.62963 0
M  V30 2572 H 236.364 2.58072 5.93302 0
M  V30 2573 N 236.496 -1.42363 0.676048 0
M  V30 2574 C 237.721 -2.06377 0.205705 0
M  V30 2575 C 238.146 -1.50463 -1.12883 0
M  V30 2576 O 237.504 -0.623619 -1.70237 0
M  V30 2577 C 237.552 -3.60277 0.152655 0
M  V30 2578 O 236.656 -4.02935 -0.87845 0
M  V30 2579 H 235.997 -0.655588 0.105359 0
M  V30 2580 H 238.527 -1.82475 0.925412 0
M  V30 2581 H 238.537 -4.07993 -0.0230675 0
M  V30 2582 H 237.212 -4.00346 1.12675 0
M  V30 2583 H 235.789 -3.66764 -0.673668 0
M  V30 2584 N 237.974 -0.419461 -1.51915 0
M  V30 2585 C 239.251 0.211999 -1.94448 0
M  V30 2586 C 239.631 1.61703 -1.35703 0
M  V30 2587 O 238.979 2.22102 -0.536931 0
M  V30 2588 C 239.189 0.207872 -3.4838 0
M  V30 2589 C 240.537 0.422192 -4.22496 0
M  V30 2590 O 241.561 0.286778 -3.55044 0
M  V30 2591 O 240.42 0.690009 -5.42126 0
M  V30 2592 H 237.514 0.139586 -0.815135 0
M  V30 2593 H 240.06 -0.476151 -1.62883 0
M  V30 2594 H 238.832 -0.775102 -3.83546 0
M  V30 2595 H 238.455 0.939688 -3.86336 0
M  V30 2596 N 239.452 1.56882 -0.150215 0
M  V30 2597 C 240.699 1.96228 0.500093 0
M  V30 2598 C 241.027 1.03522 1.64661 0
M  V30 2599 O 240.282 0.0650683 1.95592 0
M  V30 2600 C 240.581 3.41801 1.04437 0
M  V30 2601 C 240.247 4.50897 0.0159671 0
M  V30 2602 C 238.909 4.8046 -0.266731 0
M  V30 2603 C 241.261 5.16703 -0.683192 0
M  V30 2604 C 238.589 5.73135 -1.25434 0
M  V30 2605 C 240.941 6.10441 -1.65964 0
M  V30 2606 C 239.605 6.38382 -1.95 0
M  V30 2607 H 238.875 0.718048 0.182997 0
M  V30 2608 H 241.522 1.90019 -0.237724 0
M  V30 2609 H 239.827 3.44857 1.85959 0
M  V30 2610 H 241.524 3.69573 1.55618 0
M  V30 2611 H 238.114 4.27891 0.246485 0
M  V30 2612 H 242.298 4.93993 -0.477983 0
M  V30 2613 H 237.554 5.93074 -1.48571 0
M  V30 2614 H 241.728 6.60507 -2.20689 0
M  V30 2615 H 239.355 7.09996 -2.71679 0
M  V30 2616 N 240.93 -0.123565 1.57115 0
M  V30 2617 C 242.178 -0.83051 1.84247 0
M  V30 2618 C 242.499 -1.80629 0.73471 0
M  V30 2619 O 241.769 -1.94403 -0.241688 0
M  V30 2620 H 240.349 -0.309694 0.679778 0
M  V30 2621 H 243.011 -0.111976 1.94578 0
M  V30 2622 H 242.107 -1.37852 2.80006 0
M  V30 2623 N 242.408 -1.52605 -0.393616 0
M  V30 2624 C 243.338 -1.80022 -1.48709 0
M  V30 2625 C 244.319 -0.651995 -1.57108 0
M  V30 2626 O 245.504 -0.89913 -1.72132 0
M  V30 2627 C 242.634 -1.96492 -2.86371 0
M  V30 2628 C 241.588 -3.12161 -2.92813 0
M  V30 2629 C 240.914 -3.13877 -4.3288 0
M  V30 2630 C 242.214 -4.51322 -2.6288 0
M  V30 2631 H 243.908 -2.71589 -1.26015 0
M  V30 2632 H 241.454 -1.30684 -0.604778 0
M  V30 2633 H 243.407 -2.14255 -3.62867 0
M  V30 2634 H 242.131 -1.01611 -3.10391 0
M  V30 2635 H 240.79 -2.94173 -2.18764 0
M  V30 2636 H 240.438 -2.16687 -4.53933 0
M  V30 2637 H 240.138 -3.91576 -4.38112 0
M  V30 2638 H 241.662 -3.33789 -5.1129 0
M  V30 2639 H 243.076 -4.69435 -3.29096 0
M  V30 2640 H 241.473 -5.31053 -2.79468 0
M  V30 2641 H 242.543 -4.58353 -1.58242 0
M  V30 2642 N 243.887 0.651787 -1.4349 0
M  V30 2643 C 245.112 1.44434 -1.48841 0
M  V30 2644 C 245.537 1.8779 -0.107955 0
M  V30 2645 O 244.895 1.57464 0.898602 0
M  V30 2646 C 244.943 2.65458 -2.44059 0
M  V30 2647 O 244.047 3.64566 -1.92784 0
M  V30 2648 H 243.388 0.433005 -0.503391 0
M  V30 2649 H 245.918 0.797451 -1.88419 0
M  V30 2650 H 245.928 3.13255 -2.6141 0
M  V30 2651 H 244.603 2.33244 -3.4434 0
M  V30 2652 H 243.18 3.23716 -1.851 0
M  V30 2653 N 245.365 1.30045 0.890287 0
M  V30 2654 C 246.312 1.15976 1.99545 0
M  V30 2655 C 247.282 0.0506202 1.66023 0
M  V30 2656 O 248.467 0.219847 1.89529 0
M  V30 2657 C 245.607 0.852054 3.34416 0
M  V30 2658 C 244.72 2.04255 3.80662 0
M  V30 2659 C 243.855 1.6734 5.04154 0
M  V30 2660 C 242.894 2.82916 5.42794 0
M  V30 2661 N 242.031 2.46333 6.57468 0
M  V30 2662 H 246.871 2.10524 2.10911 0
M  V30 2663 H 244.408 1.04749 1.03276 0
M  V30 2664 H 246.366 0.654296 4.12037 0
M  V30 2665 H 244.996 -0.0565502 3.2275 0
M  V30 2666 H 244.048 2.35172 2.98995 0
M  V30 2667 H 245.36 2.90826 4.05242 0
M  V30 2668 H 244.514 1.43908 5.89386 0
M  V30 2669 H 243.253 0.779308 4.81433 0
M  V30 2670 H 242.258 3.0702 4.56091 0
M  V30 2671 H 243.483 3.73004 5.6749 0
M  V30 2672 H 241.429 1.59423 6.36334 0
M  V30 2673 H 241.346 3.26436 6.81891 0
M  V30 2674 H 242.614 2.26244 7.45945 0
M  V30 2675 N 246.843 -1.10192 1.12674 0
M  V30 2676 C 247.776 -2.15847 0.740625 0
M  V30 2677 C 248.754 -1.60352 -0.269421 0
M  V30 2678 O 249.938 -1.87796 -0.16278 0
M  V30 2679 C 247.065 -3.38562 0.096641 0
M  V30 2680 C 246.111 -4.12758 1.07391 0
M  V30 2681 S 246.944 -4.67997 2.60267 0
M  V30 2682 C 248.1 -5.94021 1.97206 0
M  V30 2683 H 248.333 -2.48266 1.63558 0
M  V30 2684 H 245.866 -1.22019 0.946087 0
M  V30 2685 H 247.824 -4.09621 -0.268535 0
M  V30 2686 H 246.485 -3.04377 -0.775462 0
M  V30 2687 H 245.678 -5.00755 0.570997 0
M  V30 2688 H 245.28 -3.47523 1.38216 0
M  V30 2689 H 247.572 -6.64589 1.31634 0
M  V30 2690 H 248.515 -6.48979 2.83253 0
M  V30 2691 H 248.923 -5.46169 1.42686 0
M  V30 2692 N 248.321 -0.919034 -1.28029 0
M  V30 2693 C 249.231 -0.416756 -2.30869 0
M  V30 2694 C 250.247 0.498235 -1.66714 0
M  V30 2695 O 251.423 0.383144 -1.97722 0
M  V30 2696 C 248.488 0.330274 -3.45123 0
M  V30 2697 C 247.549 -0.618578 -4.2482 0
M  V30 2698 C 246.782 0.0928959 -5.33619 0
M  V30 2699 O 247.005 1.31375 -5.55065 0
M  V30 2700 O 245.939 -0.574499 -5.99152 0
M  V30 2701 H 249.765 -1.27043 -2.75851 0
M  V30 2702 H 247.35 -0.684052 -1.3282 0
M  V30 2703 H 249.232 0.751972 -4.14636 0
M  V30 2704 H 247.907 1.1597 -3.02213 0
M  V30 2705 H 246.814 -1.08978 -3.57875 0
M  V30 2706 H 248.147 -1.41497 -4.71423 0
M  V30 2707 N 249.799 1.42003 -0.683588 0
M  V30 2708 C 251.076 1.95112 -0.138075 0
M  V30 2709 C 251.456 1.62359 1.34918 0
M  V30 2710 O 250.804 0.924311 2.08971 0
M  V30 2711 C 251.014 3.46505 -0.416581 0
M  V30 2712 C 252.362 4.23254 -0.337834 0
M  V30 2713 O 253.386 3.54468 -0.35082 0
M  V30 2714 O 252.245 5.45743 -0.287596 0
M  V30 2715 H 249.339 0.826961 -0.00797996 0
M  V30 2716 H 251.885 1.51784 -0.758924 0
M  V30 2717 H 250.657 3.63582 -1.4465 0
M  V30 2718 H 250.28 3.969 0.235839 0
M  V30 2719 N 251.277 0.427512 1.51691 0
M  V30 2720 C 252.688 -0.0378867 1.86662 0
M  V30 2721 C 253.039 -1.42819 1.34525 0
M  V30 2722 O 252.164 -2.05037 0.692014 0
M  V30 2723 C 252.759 -0.0755266 3.38716 0
M  V30 2724 C 251.318 -0.485309 3.73258 0
M  V30 2725 C 250.465 0.328399 2.75349 0
M  V30 2726 H 253.416 0.64379 1.45055 0
M  V30 2727 H 253.437 -0.887056 3.70016 0
M  V30 2728 H 252.949 0.936487 3.76632 0
M  V30 2729 H 251.05 -1.50329 3.40928 0
M  V30 2730 H 251.163 -0.21693 4.78609 0
M  V30 2731 H 249.527 -0.211905 2.53817 0
M  V30 2732 H 250.31 1.3391 3.16106 0
M  V30 2733 N 252.755 -1.56801 0.158532 0
M  V30 2734 C 254.003 -1.96102 -0.488712 0
M  V30 2735 C 254.324 -1.04498 -1.64636 0
M  V30 2736 O 253.594 -0.108783 -1.95598 0
M  V30 2737 H 252.174 -0.724102 -0.183535 0
M  V30 2738 H 254.836 -1.93457 0.236728 0
M  V30 2739 H 253.932 -3.00097 -0.857219 0
M  V30 2740 N 254.233 0.115231 -1.57178 0
M  V30 2741 C 255.458 0.840354 -1.89612 0
M  V30 2742 C 255.883 1.72464 -0.750845 0
M  V30 2743 O 255.241 1.78826 0.298478 0
M  V30 2744 C 255.289 1.64654 -3.20814 0
M  V30 2745 O 254.393 2.7538 -3.06985 0
M  V30 2746 H 253.734 0.232158 -0.622092 0
M  V30 2747 H 256.264 0.0964977 -2.04372 0
M  V30 2748 H 256.274 2.03499 -3.53627 0
M  V30 2749 H 254.949 0.997416 -4.03763 0
M  V30 2750 H 253.526 2.3971 -2.85646 0
M  V30 2751 N 255.711 1.52812 0.385517 0
M  V30 2752 C 256.957 1.68275 1.13188 0
M  V30 2753 C 257.29 0.423179 1.89533 0
M  V30 2754 O 256.565 -0.579113 1.85679 0
M  V30 2755 C 256.848 2.92001 2.1073 0
M  V30 2756 C 256.701 4.28067 1.38125 0
M  V30 2757 C 258.02 3.11283 3.11113 0
M  V30 2758 H 255.139 0.612352 0.410115 0
M  V30 2759 H 257.781 1.85415 0.414869 0
M  V30 2760 H 255.931 2.77519 2.71874 0
M  V30 2761 H 257.603 4.54324 0.799187 0
M  V30 2762 H 255.846 4.28388 0.683092 0
M  V30 2763 H 256.517 5.10733 2.09417 0
M  V30 2764 H 258.993 3.2482 2.6006 0
M  V30 2765 H 257.869 3.99325 3.76605 0
M  V30 2766 H 258.13 2.25656 3.80173 0
M  V30 2767 N 257.189 -0.644168 1.43834 0
M  V30 2768 C 258.119 -1.76814 1.52509 0
M  V30 2769 C 259.1 -1.65823 0.379052 0
M  V30 2770 O 260.285 -1.84781 0.597466 0
M  V30 2771 C 257.415 -3.15288 1.4564 0
M  V30 2772 C 256.369 -3.41053 2.58586 0
M  V30 2773 C 255.695 -4.79421 2.36769 0
M  V30 2774 C 256.995 -3.34902 4.00797 0
M  V30 2775 H 258.689 -1.69812 2.46586 0
M  V30 2776 H 256.235 -0.815542 1.1868 0
M  V30 2777 H 258.188 -3.93681 1.50311 0
M  V30 2778 H 256.912 -3.23043 0.480725 0
M  V30 2779 H 255.571 -2.65035 2.53282 0
M  V30 2780 H 255.219 -4.83863 1.37424 0
M  V30 2781 H 254.919 -4.9762 3.12487 0
M  V30 2782 H 256.443 -5.6006 2.43238 0
M  V30 2783 H 257.857 -4.03218 4.07539 0
M  V30 2784 H 256.254 -3.64637 4.76613 0
M  V30 2785 H 257.324 -2.32928 4.25291 0
M  V30 2786 N 258.668 -1.30515 -0.883378 0
M  V30 2787 C 259.893 -1.22487 -1.67367 0
M  V30 2788 C 260.318 0.208767 -1.86938 0
M  V30 2789 O 259.676 1.15015 -1.40148 0
M  V30 2790 C 259.724 -1.96041 -3.02655 0
M  V30 2791 O 258.828 -1.28859 -3.91751 0
M  V30 2792 H 258.169 -0.423573 -0.511353 0
M  V30 2793 H 260.699 -1.72362 -1.10239 0
M  V30 2794 H 260.709 -2.05124 -3.52687 0
M  V30 2795 H 259.384 -3.00307 -2.8773 0
M  V30 2796 H 257.961 -1.28141 -3.50192 0
M  V30 2797 N 260.146 1.09593 -1.13257 0
M  V30 2798 C 261.374 1.855 -0.916378 0
M  V30 2799 C 261.789 1.81069 0.534738 0
M  V30 2800 O 261.146 1.20562 1.37007 0
M  V30 2801 C 261.197 3.33546 -1.39388 0
M  V30 2802 O 260.918 3.37927 -2.78813 0
M  V30 2803 C 262.419 4.26299 -1.21588 0
M  V30 2804 H 259.639 0.585991 -0.326887 0
M  V30 2805 H 262.183 1.38488 -1.5047 0
M  V30 2806 H 260.338 3.77992 -0.848597 0
M  V30 2807 H 260.752 4.30254 -2.9997 0
M  V30 2808 H 262.226 5.28341 -1.59876 0
M  V30 2809 H 262.703 4.38918 -0.157376 0
M  V30 2810 H 263.309 3.87668 -1.7491 0
M  V30 2811 N 261.624 0.925811 1.2754 0
M  V30 2812 C 262.587 0.428129 2.25166 0
M  V30 2813 C 263.587 -0.452261 1.54309 0
M  V30 2814 O 264.777 -0.253608 1.72344 0
M  V30 2815 C 261.909 -0.384749 3.38722 0
M  V30 2816 H 263.102 1.29066 2.70706 0
M  V30 2817 H 260.655 0.706323 1.3943 0
M  V30 2818 H 261.39 -1.26618 2.98561 0
M  V30 2819 H 261.175 0.246454 3.91325 0
M  V30 2820 H 262.665 -0.723389 4.11287 0
M  V30 2821 N 263.102 -1.41638 0.69111 0
M  V30 2822 C 264.342 -2.03166 0.224291 0
M  V30 2823 C 264.706 -1.53537 -1.15284 0
M  V30 2824 O 265.907 -2.0696 -1.71525 0
M  V30 2825 C 264.178 -3.56342 0.274758 0
M  V30 2826 S 265.737 -4.3864 -0.118669 0
M  V30 2827 H 262.555 -0.705188 0.0907263 0
M  V30 2828 H 265.157 -1.7314 0.907895 0
M  V30 2829 H 263.861 -3.89958 1.2791 0
M  V30 2830 H 263.392 -3.91063 -0.428142 0
M  V30 2831 H 265.407 -4.77549 -1.34764 0
M  V30 2832 N 264.58 -0.43555 -1.51462 0
M  V30 2833 C 265.828 0.131254 -2.01673 0
M  V30 2834 C 266.149 1.43368 -1.32177 0
M  V30 2835 O 265.419 1.90524 -0.455769 0
M  V30 2836 H 263.999 0.0514954 -0.745223 0
M  V30 2837 H 266.661 -0.577847 -1.86137 0
M  V30 2838 H 265.757 0.308446 -3.10572 0
M  V30 2839 N 266.058 1.56714 -0.166846 0
M  V30 2840 C 267.286 2.0112 0.485644 0
M  V30 2841 C 267.701 1.04705 1.57106 0
M  V30 2842 O 267.058 0.0471923 1.82439 0
M  V30 2843 C 267.109 3.45361 1.06808 0
M  V30 2844 O 266.83 4.38092 0.0259995 0
M  V30 2845 C 268.331 4.05145 1.79924 0
M  V30 2846 H 265.551 0.65931 0.124704 0
M  V30 2847 H 268.095 2.02746 -0.267262 0
M  V30 2848 H 266.25 3.44524 1.7715 0
M  V30 2849 H 266.664 5.22519 0.455398 0
M  V30 2850 H 268.138 5.08009 2.15942 0
M  V30 2851 H 268.615 3.46982 2.69258 0
M  V30 2852 H 269.221 4.09672 1.14234 0
M  V30 2853 N 267.536 -0.106894 1.57237 0
M  V30 2854 C 268.947 -0.662723 1.74542 0
M  V30 2855 C 269.298 -1.7971 0.787319 0
M  V30 2856 O 268.423 -2.16368 -0.0369636 0
M  V30 2857 C 269.018 -1.20896 3.16496 0
M  V30 2858 C 267.577 -1.71096 3.35266 0
M  V30 2859 C 266.724 -0.615642 2.7038 0
M  V30 2860 H 269.675 0.119106 1.58252 0
M  V30 2861 H 269.696 -2.07847 3.18716 0
M  V30 2862 H 269.208 -0.383122 3.86204 0
M  V30 2863 H 267.309 -2.56119 2.70618 0
M  V30 2864 H 267.422 -1.81208 4.43509 0
M  V30 2865 H 265.786 -1.05222 2.31949 0
M  V30 2866 H 266.569 0.199419 3.4272 0
M  V30 2867 N 269.014 -1.53014 -0.377408 0
M  V30 2868 C 270.262 -1.6829 -1.11906 0
M  V30 2869 C 270.583 -0.431206 -1.90173 0
M  V30 2870 O 269.853 0.554595 -1.87886 0
M  V30 2871 H 268.433 -0.620371 -0.416112 0
M  V30 2872 H 271.095 -1.90167 -0.426893 0
M  V30 2873 H 270.191 -2.53862 -1.8155 0
M  V30 2874 N 270.492 0.636531 -1.44174 0
M  V30 2875 C 271.722 1.42146 -1.49927 0
M  V30 2876 C 272.13 1.88812 -0.121063 0
M  V30 2877 O 271.473 1.61126 0.882267 0
M  V30 2878 C 271.535 2.67883 -2.39748 0
M  V30 2879 C 271.199 2.43048 -3.8701 0
M  V30 2880 C 272.196 2.05216 -4.77684 0
M  V30 2881 C 269.881 2.56856 -4.3166 0
M  V30 2882 C 271.875 1.81512 -6.11009 0
M  V30 2883 C 269.562 2.32766 -5.65034 0
M  V30 2884 C 270.56 1.95152 -6.54526 0
M  V30 2885 O 270.248 1.71326 -7.85431 0
M  V30 2886 H 269.98 0.442567 -0.51099 0
M  V30 2887 H 272.534 0.786158 -1.8976 0
M  V30 2888 H 270.764 3.34032 -1.94832 0
M  V30 2889 H 272.453 3.29874 -2.36513 0
M  V30 2890 H 273.219 1.94111 -4.44462 0
M  V30 2891 H 269.098 2.85104 -3.62266 0
M  V30 2892 H 272.642 1.52077 -6.80822 0
M  V30 2893 H 268.539 2.43479 -5.97819 0
M  V30 2894 H 269.307 1.85616 -7.97176 0
M  V30 2895 N 271.97 1.30982 0.876444 0
M  V30 2896 C 273.216 1.20474 1.63138 0
M  V30 2897 C 273.549 -0.238096 1.92735 0
M  V30 2898 O 272.824 -1.1692 1.55435 0
M  V30 2899 C 273.107 2.04244 2.96574 0
M  V30 2900 C 272.96 3.56793 2.73896 0
M  V30 2901 C 274.279 1.88684 3.97601 0
M  V30 2902 H 271.398 0.439001 0.591985 0
M  V30 2903 H 274.04 1.60704 1.01361 0
M  V30 2904 H 272.19 1.70063 3.493 0
M  V30 2905 H 273.862 4.01077 2.27892 0
M  V30 2906 H 272.105 3.80548 2.08245 0
M  V30 2907 H 272.776 4.10706 3.68815 0
M  V30 2908 H 275.252 2.18584 3.54062 0
M  V30 2909 H 274.128 2.4961 4.88862 0
M  V30 2910 H 274.389 0.848343 4.33884 0
M  V30 2911 N 273.449 -1.08991 1.13837 0
M  V30 2912 C 274.412 -2.13925 0.822715 0
M  V30 2913 C 275.412 -1.599 -0.1699 0
M  V30 2914 O 276.602 -1.74104 0.0577251 0
M  V30 2915 C 273.734 -3.40155 0.225318 0
M  V30 2916 H 274.927 -2.43358 1.75262 0
M  V30 2917 H 272.48 -1.24603 0.943594 0
M  V30 2918 H 273.215 -3.16352 -0.713594 0
M  V30 2919 H 273 -3.80661 0.940193 0
M  V30 2920 H 274.49 -4.17594 0.0214784 0
M  V30 2921 N 274.927 -0.932562 -1.27047 0
M  V30 2922 C 276.338 -0.619451 -1.76124 0
M  V30 2923 C 276.689 0.865397 -1.76083 0
M  V30 2924 O 275.814 1.67722 -1.36742 0
M  V30 2925 C 276.409 -1.11771 -3.19832 0
M  V30 2926 C 274.968 -0.855174 -3.66557 0
M  V30 2927 C 274.115 -1.27362 -2.46321 0
M  V30 2928 H 277.066 -1.11181 -1.13245 0
M  V30 2929 H 277.087 -0.46759 -3.77616 0
M  V30 2930 H 276.599 -2.19842 -3.1983 0
M  V30 2931 H 274.7 0.211524 -3.71999 0
M  V30 2932 H 274.813 -1.47613 -4.55793 0
M  V30 2933 H 273.177 -0.692119 -2.45116 0
M  V30 2934 H 273.96 -2.36307 -2.49025 0
M  V30 2935 N 276.405 1.4127 -0.698611 0
M  V30 2936 C 277.315 2.34573 -0.0357891 0
M  V30 2937 C 278.331 1.56393 0.762701 0
M  V30 2938 O 279.507 1.8886 0.699564 0
M  V30 2939 C 276.572 3.35159 0.887089 0
M  V30 2940 C 275.633 4.29225 0.0804634 0
M  V30 2941 C 274.866 5.25006 0.959387 0
M  V30 2942 O 275.089 5.26314 2.19886 0
M  V30 2943 O 274.023 6.00519 0.407439 0
M  V30 2944 H 277.849 2.92838 -0.804957 0
M  V30 2945 H 275.434 1.42175 -0.458966 0
M  V30 2946 H 277.316 3.9689 1.41621 0
M  V30 2947 H 275.991 2.79333 1.6357 0
M  V30 2948 H 274.898 3.70833 -0.493328 0
M  V30 2949 H 276.231 4.88157 -0.629547 0
M  V30 2950 N 277.883 0.443576 1.51229 0
M  V30 2951 C 279.129 -0.120975 2.02439 0
M  V30 2952 C 279.462 -1.41815 1.32674 0
M  V30 2953 O 278.737 -1.89373 0.443622 0
M  V30 2954 C 279.02 -0.333291 3.58554 0
M  V30 2955 C 278.873 0.982968 4.38928 0
M  V30 2956 C 280.192 -1.10028 4.26124 0
M  V30 2957 H 277.311 -0.0424923 0.735774 0
M  V30 2958 H 279.953 0.583794 1.80809 0
M  V30 2959 H 278.103 -0.933614 3.77115 0
M  V30 2960 H 279.775 1.61775 4.32003 0
M  V30 2961 H 278.018 1.58611 4.03763 0
M  V30 2962 H 278.689 0.788379 5.46341 0
M  V30 2963 H 281.165 -0.591711 4.11871 0
M  V30 2964 H 280.041 -1.21761 5.35225 0
M  V30 2965 H 280.302 -2.12996 3.87408 0
M  V30 2966 N 279.361 -1.56624 0.175154 0
M  V30 2967 C 280.291 -2.21155 -0.749195 0
M  V30 2968 C 281.272 -1.16836 -1.23626 0
M  V30 2969 O 282.457 -1.45277 -1.28873 0
M  V30 2970 C 279.587 -2.8553 -1.97711 0
M  V30 2971 C 278.541 -3.95921 -1.62575 0
M  V30 2972 C 277.867 -4.47365 -2.92864 0
M  V30 2973 C 279.167 -5.15323 -0.850838 0
M  V30 2974 H 280.861 -2.98653 -0.211295 0
M  V30 2975 H 278.407 -1.43651 -0.100188 0
M  V30 2976 H 280.36 -3.2935 -2.62881 0
M  V30 2977 H 279.084 -2.05406 -2.53921 0
M  V30 2978 H 277.743 -3.52762 -0.997719 0
M  V30 2979 H 277.391 -3.64027 -3.47122 0
M  V30 2980 H 277.091 -5.21839 -2.70106 0
M  V30 2981 H 278.615 -4.93873 -3.59056 0
M  V30 2982 H 280.029 -5.55812 -1.40521 0
M  V30 2983 H 278.426 -5.95739 -0.722154 0
M  V30 2984 H 279.496 -4.84661 0.152082 0
M  V30 2985 N 280.839 0.0985539 -1.57292 0
M  V30 2986 C 281.802 1.10402 -2.00858 0
M  V30 2987 C 282.802 1.33146 -0.901593 0
M  V30 2988 O 283.992 1.29318 -1.16716 0
M  V30 2989 C 281.124 2.45394 -2.36632 0
M  V30 2990 H 282.317 0.729099 -2.90902 0
M  V30 2991 H 279.87 0.343495 -1.52479 0
M  V30 2992 H 280.605 2.87769 -1.49531 0
M  V30 2993 H 280.39 2.30235 -3.17387 0
M  V30 2994 H 281.88 3.17718 -2.71007 0
M  V30 2995 N 282.317 1.53212 0.369288 0
M  V30 2996 C 283.249 1.75668 1.47219 0
M  V30 2997 C 284.262 0.637387 1.49804 0
M  V30 2998 O 285.451 0.913561 1.5335 0
M  V30 2999 C 282.551 1.81818 2.85999 0
M  V30 3000 C 281.724 3.11409 3.07153 0
M  V30 3001 C 280.783 3.08849 4.26026 0
M  V30 3002 O 279.809 3.82659 4.2138 0
M  V30 3003 N 281.011 2.29409 5.33246 0
M  V30 3004 H 283.776 2.70832 1.28337 0
M  V30 3005 H 281.337 1.51944 0.55898 0
M  V30 3006 H 283.329 1.77588 3.63655 0
M  V30 3007 H 281.899 0.939544 2.98146 0
M  V30 3008 H 281.119 3.28971 2.1719 0
M  V30 3009 H 282.407 3.97059 3.18154 0
M  V30 3010 H 281.805 1.68946 5.39883 0
M  V30 3011 H 280.362 2.31001 6.09493 0
M  V30 3012 N 283.795 -0.628877 1.44509 0
M  V30 3013 C 284.742 -1.74074 1.51549 0
M  V30 3014 C 285.712 -1.62084 0.363021 0
M  V30 3015 O 286.897 -1.81975 0.573567 0
M  V30 3016 C 284.037 -3.12328 1.46784 0
M  V30 3017 C 283.15 -3.35277 2.72422 0
M  V30 3018 C 282.285 -4.63515 2.59475 0
M  V30 3019 C 281.324 -4.7965 3.80266 0
M  V30 3020 N 280.461 -5.99168 3.65981 0
M  V30 3021 H 285.301 -1.67392 2.46544 0
M  V30 3022 H 282.838 -0.816527 1.22357 0
M  V30 3023 H 284.796 -3.92286 1.42012 0
M  V30 3024 H 283.426 -3.18018 0.553544 0
M  V30 3025 H 282.478 -2.49242 2.87372 0
M  V30 3026 H 283.79 -3.43078 3.62076 0
M  V30 3027 H 282.944 -5.51638 2.52548 0
M  V30 3028 H 281.683 -4.58076 1.67384 0
M  V30 3029 H 280.688 -3.89957 3.87574 0
M  V30 3030 H 281.913 -4.86902 4.73395 0
M  V30 3031 H 279.859 -5.94814 2.76644 0
M  V30 3032 H 279.776 -6.08035 4.49254 0
M  V30 3033 H 281.044 -6.89846 3.6295 0
M  V30 3034 N 285.273 -1.31445 -0.869486 0
M  V30 3035 C 286.684 -1.19042 -1.43826 0
M  V30 3036 C 287.035 0.202919 -1.95148 0
M  V30 3037 O 286.16 1.10071 -1.86315 0
M  V30 3038 C 286.755 -2.15499 -2.6143 0
M  V30 3039 C 285.314 -2.07028 -3.14351 0
M  V30 3040 C 284.461 -2.04701 -1.87063 0
M  V30 3041 H 287.412 -1.43489 -0.677984 0
M  V30 3042 H 287.433 -1.74488 -3.38134 0
M  V30 3043 H 286.945 -3.16899 -2.24046 0
M  V30 3044 H 285.046 -1.08825 -3.56354 0
M  V30 3045 H 285.159 -2.96157 -3.766 0
M  V30 3046 H 283.523 -1.49724 -2.06046 0
M  V30 3047 H 284.306 -3.07857 -1.51917 0
M  V30 3048 N 286.751 1.08385 -1.14413 0
M  V30 3049 C 287.981 1.8425 -0.934644 0
M  V30 3050 C 288.389 1.81907 0.520234 0
M  V30 3051 O 287.732 1.22126 1.37226 0
M  V30 3052 C 287.794 3.32853 -1.35828 0
M  V30 3053 C 287.458 3.5893 -2.82875 0
M  V30 3054 C 288.455 3.53756 -3.80989 0
M  V30 3055 C 286.14 3.86934 -3.20293 0
M  V30 3056 C 288.134 3.76216 -5.14529 0
M  V30 3057 C 285.821 4.09047 -4.54008 0
M  V30 3058 C 286.819 4.03682 -5.50936 0
M  V30 3059 O 286.507 4.25214 -6.82238 0
M  V30 3060 H 286.239 0.588502 -0.332628 0
M  V30 3061 H 288.793 1.37792 -1.52324 0
M  V30 3062 H 287.023 3.8007 -0.713019 0
M  V30 3063 H 288.712 3.90154 -1.11957 0
M  V30 3064 H 289.478 3.32135 -3.53428 0
M  V30 3065 H 285.357 3.9023 -2.45442 0
M  V30 3066 H 288.901 3.71943 -5.90173 0
M  V30 3067 H 284.798 4.30151 -4.8129 0
M  V30 3068 H 285.566 4.42619 -6.88499 0
M  V30 3069 N 288.23 0.939286 1.26551 0
M  V30 3070 C 289.455 0.602008 1.98471 0
M  V30 3071 C 289.88 -0.815624 1.69497 0
M  V30 3072 O 289.238 -1.54912 0.941905 0
M  V30 3073 C 289.286 0.848407 3.50477 0
M  V30 3074 O 288.39 -0.0804009 4.12322 0
M  V30 3075 H 287.731 0.23049 0.622712 0
M  V30 3076 H 290.261 1.2617 1.61066 0
M  V30 3077 H 290.271 0.768553 4.00696 0
M  V30 3078 H 288.946 1.88171 3.70897 0
M  V30 3079 H 287.523 0.0503508 3.72866 0
M  V30 3080 N 289.708 -1.40897 0.706093 0
M  V30 3081 C 290.655 -2.30751 0.0474474 0
M  V30 3082 C 291.625 -1.47678 -0.76029 0
M  V30 3083 O 292.81 -1.76441 -0.726177 0
M  V30 3084 C 289.95 -3.33815 -0.875309 0
M  V30 3085 C 289.063 -4.31961 -0.0580623 0
M  V30 3086 C 288.198 -5.22093 -0.979425 0
M  V30 3087 C 287.237 -6.11902 -0.155706 0
M  V30 3088 N 286.374 -6.94482 -1.03144 0
M  V30 3089 H 291.214 -2.86513 0.819413 0
M  V30 3090 H 288.751 -1.41102 0.415783 0
M  V30 3091 H 290.709 -3.92129 -1.42446 0
M  V30 3092 H 289.339 -2.79579 -1.61356 0
M  V30 3093 H 288.391 -3.75507 0.608147 0
M  V30 3094 H 289.703 -4.95415 0.580082 0
M  V30 3095 H 288.857 -5.85292 -1.59744 0
M  V30 3096 H 287.596 -4.5889 -1.65141 0
M  V30 3097 H 286.601 -5.47742 0.475309 0
M  V30 3098 H 287.826 -6.77162 0.512635 0
M  V30 3099 H 285.772 -6.33877 -1.68924 0
M  V30 3100 H 285.689 -7.54665 -0.449108 0
M  V30 3101 H 286.957 -7.6214 -1.63593 0
M  V30 3102 N 291.186 -0.45159 -1.50991 0
M  V30 3103 C 292.149 0.341117 -2.26647 0
M  V30 3104 C 293.149 0.937422 -1.30649 0
M  V30 3105 O 294.339 0.809644 -1.54241 0
M  V30 3106 C 291.471 1.48398 -3.06905 0
M  V30 3107 H 292.664 -0.322117 -2.98165 0
M  V30 3108 H 290.217 -0.205122 -1.54948 0
M  V30 3109 H 290.952 2.18284 -2.39838 0
M  V30 3110 H 290.737 1.06241 -3.77432 0
M  V30 3111 H 292.227 2.04367 -3.64176 0
M  V30 3112 N 292.664 1.56529 -0.183458 0
M  V30 3113 C 293.91 1.97537 0.459036 0
M  V30 3114 C 294.243 1.06989 1.62071 0
M  V30 3115 O 293.518 0.11948 1.94133 0
M  V30 3116 C 293.801 3.47874 0.930368 0
M  V30 3117 C 293.654 4.492 -0.232317 0
M  V30 3118 C 294.973 4.01612 1.79989 0
M  V30 3119 H 292.092 0.718204 0.165383 0
M  V30 3120 H 294.734 1.88042 -0.272038 0
M  V30 3121 H 292.884 3.56095 1.55333 0
M  V30 3122 H 294.556 4.53027 -0.86972 0
M  V30 3123 H 292.799 4.24657 -0.885928 0
M  V30 3124 H 293.47 5.51823 0.139796 0
M  V30 3125 H 295.946 3.96097 1.27461 0
M  V30 3126 H 294.822 5.07195 2.09867 0
M  V30 3127 H 295.083 3.46163 2.74998 0
M  V30 3128 N 294.142 -0.090211 1.57342 0
M  V30 3129 C 295.419 -0.824761 1.77361 0
M  V30 3130 C 295.799 -1.96698 0.76637 0
M  V30 3131 O 295.147 -2.27586 -0.204179 0
M  V30 3132 C 295.357 -1.31481 3.23286 0
M  V30 3133 C 296.705 -1.75563 3.86604 0
M  V30 3134 O 297.729 -1.41093 3.27065 0
M  V30 3135 O 296.588 -2.39317 4.91314 0
M  V30 3136 H 293.682 -0.393776 0.727234 0
M  V30 3137 H 296.228 -0.0717138 1.69548 0
M  V30 3138 H 295 -0.496671 3.88135 0
M  V30 3139 H 294.623 -2.12973 3.35751 0
M  V30 3140 N 295.62 -1.53406 -0.361157 0
M  V30 3141 C 296.86 -1.71507 -1.11197 0
M  V30 3142 C 297.224 -0.459337 -1.86425 0
M  V30 3143 O 298.425 -0.517102 -2.63779 0
M  V30 3144 C 296.696 -2.93307 -2.0422 0
M  V30 3145 S 298.255 -3.32135 -2.86761 0
M  V30 3146 H 295.073 -0.603448 -0.375995 0
M  V30 3147 H 297.675 -1.91516 -0.392642 0
M  V30 3148 H 296.379 -3.82891 -1.47724 0
M  V30 3149 H 295.91 -2.75712 -2.80618 0
M  V30 3150 H 297.925 -2.84493 -4.06544 0
M  V30 3151 N 297.098 0.621204 -1.44841 0
M  V30 3152 C 298.344 1.38073 -1.49357 0
M  V30 3153 C 298.699 1.91973 -0.128115 0
M  V30 3154 O 297.992 1.71311 0.858087 0
M  V30 3155 C 298.186 2.55675 -2.4973 0
M  V30 3156 C 298.015 2.13289 -3.95901 0
M  V30 3157 C 296.785 2.001 -4.63991 0
M  V30 3158 C 298.983 1.7159 -4.84831 0
M  V30 3159 N 296.965 1.51381 -5.94943 0
M  V30 3160 C 298.336 1.34188 -6.05304 0
M  V30 3161 C 300.391 1.59059 -4.7181 0
M  V30 3162 C 299.094 0.855085 -7.14199 0
M  V30 3163 C 301.12 1.11784 -5.8074 0
M  V30 3164 C 300.482 0.753385 -7.0036 0
M  V30 3165 H 296.581 0.499675 -0.601539 0
M  V30 3166 H 299.165 0.711609 -1.8123 0
M  V30 3167 H 297.336 3.20201 -2.19832 0
M  V30 3168 H 299.068 3.22509 -2.4448 0
M  V30 3169 H 295.823 2.20863 -4.18947 0
M  V30 3170 H 296.247 1.29293 -6.64539 0
M  V30 3171 H 300.889 1.85865 -3.79755 0
M  V30 3172 H 298.607 0.574552 -8.06055 0
M  V30 3173 H 302.193 1.02533 -5.72694 0
M  V30 3174 H 301.073 0.393183 -7.83214 0
M  V30 3175 N 298.576 1.31904 0.862503 0
M  V30 3176 C 299.801 1.25135 1.65397 0
M  V30 3177 C 300.226 -0.179 1.87246 0
M  V30 3178 O 299.584 -1.1277 1.4196 0
M  V30 3179 C 299.632 2.00832 2.99498 0
M  V30 3180 O 298.736 1.35075 3.89652 0
M  V30 3181 H 298.077 0.431655 0.504549 0
M  V30 3182 H 300.607 1.74094 1.07483 0
M  V30 3183 H 300.617 2.10709 3.49379 0
M  V30 3184 H 299.292 3.04847 2.82916 0
M  V30 3185 H 297.869 1.33696 3.48109 0
M  V30 3186 N 300.054 -1.07777 1.14986 0
M  V30 3187 C 301.303 -1.79669 0.916617 0
M  V30 3188 C 301.616 -1.87474 -0.557917 0
M  V30 3189 O 302.822 -2.55845 -0.908617 0
M  V30 3190 C 301.278 -3.22848 1.59051 0
M  V30 3191 C 300.886 -3.23257 3.10176 0
M  V30 3192 C 302.63 -3.99379 1.43864 0
M  V30 3193 C 300.537 -4.61063 3.70372 0
M  V30 3194 H 299.467 -0.673349 0.33929 0
M  V30 3195 H 302.118 -1.21003 1.37951 0
M  V30 3196 H 300.5 -3.8168 1.0553 0
M  V30 3197 H 301.674 -2.74095 3.70417 0
M  V30 3198 H 299.989 -2.60222 3.25074 0
M  V30 3199 H 302.586 -5.0122 1.86232 0
M  V30 3200 H 302.929 -4.14511 0.385564 0
M  V30 3201 H 303.462 -3.47032 1.94457 0
M  V30 3202 H 300.201 -4.51135 4.7556 0
M  V30 3203 H 299.721 -5.1048 3.14913 0
M  V30 3204 H 301.4 -5.30034 3.71043 0
M  V30 3205 N 301.532 -0.945985 -1.26051 0
M  V30 3206 C 302.78 -0.594941 -1.93145 0
M  V30 3207 C 303.101 0.86953 -1.7454 0
M  V30 3208 O 302.371 1.61838 -1.10387 0
M  V30 3209 H 300.951 -0.217044 -0.714773 0
M  V30 3210 H 303.613 -1.20235 -1.53393 0
M  V30 3211 H 302.709 -0.816835 -3.01221 0
M  V30 3212 N 303.011 1.40521 -0.713556 0
M  V30 3213 C 304.257 2.01221 -0.252564 0
M  V30 3214 C 304.59 1.56444 1.1506 0
M  V30 3215 O 303.865 0.783597 1.78017 0
M  V30 3216 C 304.148 3.58582 -0.330332 0
M  V30 3217 C 304.001 4.13437 -1.77173 0
M  V30 3218 C 305.32 4.39079 0.299641 0
M  V30 3219 H 302.439 0.731077 -0.0932471 0
M  V30 3220 H 305.081 1.67026 -0.905673 0
M  V30 3221 H 303.231 3.87844 0.225737 0
M  V30 3222 H 304.903 3.9498 -2.38303 0
M  V30 3223 H 303.146 3.67801 -2.3001 0
M  V30 3224 H 303.817 5.22597 -1.77755 0
M  V30 3225 H 306.293 4.15735 -0.174139 0
M  V30 3226 H 305.169 5.4848 0.214771 0
M  V30 3227 H 305.43 4.19915 1.38288 0
M  V30 3228 N 304.489 0.459591 1.5075 0
M  V30 3229 C 305.738 -0.100971 2.01447 0
M  V30 3230 C 306.051 -1.41816 1.34713 0
M  V30 3231 O 307.257 -2.06299 1.76502 0
M  V30 3232 C 305.713 -0.23047 3.59161 0
M  V30 3233 C 305.321 1.0776 4.34847 0
M  V30 3234 C 307.065 -0.743608 4.17936 0
M  V30 3235 C 304.972 0.91253 5.84317 0
M  V30 3236 H 303.902 -0.0415102 0.752856 0
M  V30 3237 H 306.553 0.592742 1.73663 0
M  V30 3238 H 304.935 -0.987703 3.83485 0
M  V30 3239 H 306.109 1.8449 4.22256 0
M  V30 3240 H 304.424 1.52097 3.87628 0
M  V30 3241 H 307.021 -0.883959 5.27343 0
M  V30 3242 H 307.364 -1.73196 3.78562 0
M  V30 3243 H 307.897 -0.04408 3.97776 0
M  V30 3244 H 304.636 1.87391 6.28144 0
M  V30 3245 H 304.156 0.185422 5.99513 0
M  V30 3246 H 305.835 0.574547 6.44444 0
M  V30 3247 N 305.967 -1.56429 0.191757 0
M  V30 3248 C 306.93 -2.17707 -0.716688 0
M  V30 3249 C 307.93 -1.13061 -1.14341 0
M  V30 3250 O 309.12 -1.38464 -1.05704 0
M  V30 3251 C 306.252 -2.77644 -1.97804 0
M  V30 3252 H 307.445 -2.99342 -0.1829 0
M  V30 3253 H 304.998 -1.56193 -0.0578566 0
M  V30 3254 H 305.733 -1.99799 -2.55443 0
M  V30 3255 H 305.518 -3.54246 -1.68083 0
M  V30 3256 H 307.008 -3.24708 -2.62592 0
M  V30 3257 N 307.445 0.0818655 -1.57387 0
M  V30 3258 C 308.675 0.794954 -1.90694 0
M  V30 3259 C 309.083 1.72147 -0.784982 0
M  V30 3260 O 308.426 1.81974 0.251196 0
M  V30 3261 C 308.488 1.65042 -3.19376 0
M  V30 3262 C 308.152 0.894337 -4.48164 0
M  V30 3263 C 309.149 0.21813 -5.19442 0
M  V30 3264 C 306.834 0.864495 -4.94805 0
M  V30 3265 C 308.828 -0.477802 -6.35607 0
M  V30 3266 C 306.515 0.164785 -6.10878 0
M  V30 3267 C 307.513 -0.505173 -6.81129 0
M  V30 3268 O 307.201 -1.19363 -7.94989 0
M  V30 3269 H 306.933 0.231779 -0.635023 0
M  V30 3270 H 309.487 0.059493 -2.05314 0
M  V30 3271 H 307.717 2.42844 -3.00938 0
M  V30 3272 H 309.406 2.24127 -3.38411 0
M  V30 3273 H 310.172 0.232558 -4.84442 0
M  V30 3274 H 306.051 1.37542 -4.40004 0
M  V30 3275 H 309.595 -1.00129 -6.90377 0
M  V30 3276 H 305.492 0.148249 -6.4533 0
M  V30 3277 H 306.26 -1.10188 -8.11049 0
M  V30 3278 N 308.923 1.53595 0.353017 0
M  V30 3279 C 310.172 1.69603 1.09168 0
M  V30 3280 C 310.485 0.460925 1.90092 0
M  V30 3281 O 311.691 0.501774 2.66823 0
M  V30 3282 C 310.147 2.99872 1.9901 0
M  V30 3283 C 309.755 4.30687 1.23339 0
M  V30 3284 C 311.499 3.25246 2.72792 0
M  V30 3285 C 309.406 5.52036 2.12156 0
M  V30 3286 H 308.336 0.631966 0.411261 0
M  V30 3287 H 310.987 1.80096 0.351802 0
M  V30 3288 H 309.369 2.83212 2.7678 0
M  V30 3289 H 310.543 4.58019 0.505456 0
M  V30 3290 H 308.858 4.11853 0.613663 0
M  V30 3291 H 311.455 4.13095 3.39495 0
M  V30 3292 H 311.798 2.41846 3.38846 0
M  V30 3293 H 312.331 3.42638 2.021 0
M  V30 3294 H 309.07 6.37951 1.50659 0
M  V30 3295 H 308.59 5.28966 2.82764 0
M  V30 3296 H 310.269 5.87313 2.71427 0
M  V30 3297 N 310.401 -0.613514 1.45168 0
M  V30 3298 C 311.331 -1.7354 1.56225 0
M  V30 3299 C 312.312 -1.64981 0.41414 0
M  V30 3300 O 313.497 -1.83472 0.636526 0
M  V30 3301 C 310.627 -3.12128 1.52295 0
M  V30 3302 C 309.581 -3.35491 2.65762 0
M  V30 3303 C 308.907 -4.74291 2.46885 0
M  V30 3304 C 310.207 -3.26325 4.0781 0
M  V30 3305 H 311.901 -1.64543 2.50132 0
M  V30 3306 H 309.447 -0.790185 1.20383 0
M  V30 3307 H 311.4 -3.90404 1.58628 0
M  V30 3308 H 310.124 -3.2195 0.549139 0
M  V30 3309 H 308.783 -2.59603 2.58847 0
M  V30 3310 H 308.431 -4.80839 1.47657 0
M  V30 3311 H 308.131 -4.9088 3.22972 0
M  V30 3312 H 309.655 -5.54775 2.55063 0
M  V30 3313 H 311.069 -3.94483 4.16 0
M  V30 3314 H 309.466 -3.54445 4.8424 0
M  V30 3315 H 310.536 -2.23855 4.30136 0
M  V30 3316 N 311.879 -1.3236 -0.855495 0
M  V30 3317 C 312.809 -1.23833 -1.97958 0
M  V30 3318 C 313.79 -0.122361 -1.69659 0
M  V30 3319 O 314.975 -0.30939 -1.9172 0
M  V30 3320 C 312.105 -0.959772 -3.33775 0
M  V30 3321 C 311.059 -2.03689 -3.76424 0
M  V30 3322 C 310.385 -1.61075 -5.09862 0
M  V30 3323 C 311.685 -3.4518 -3.9198 0
M  V30 3324 H 313.379 -2.1788 -2.0535 0
M  V30 3325 H 310.925 -1.04891 -0.986605 0
M  V30 3326 H 312.878 -0.886678 -4.11966 0
M  V30 3327 H 311.602 0.0163404 -3.26596 0
M  V30 3328 H 310.261 -2.10012 -3.00484 0
M  V30 3329 H 309.909 -0.622107 -4.99138 0
M  V30 3330 H 309.609 -2.33143 -5.39368 0
M  V30 3331 H 311.133 -1.55201 -5.90546 0
M  V30 3332 H 312.547 -3.4145 -4.60526 0
M  V30 3333 H 310.944 -4.1559 -4.32903 0
M  V30 3334 H 312.014 -3.84903 -2.94919 0
M  V30 3335 N 313.357 1.07166 -1.15556 0
M  V30 3336 C 314.597 1.81391 -0.94216 0
M  V30 3337 C 314.961 1.84788 0.521272 0
M  V30 3338 O 316.162 2.54904 0.85307 0
M  V30 3339 C 314.433 3.22431 -1.54185 0
M  V30 3340 S 315.992 4.13379 -1.47183 0
M  V30 3341 H 312.81 0.624963 -0.339031 0
M  V30 3342 H 315.412 1.28725 -1.4714 0
M  V30 3343 H 314.116 3.17548 -2.59984 0
M  V30 3344 H 313.647 3.80172 -1.01156 0
M  V30 3345 H 315.662 4.94007 -0.466004 0
M  V30 3346 N 314.835 0.952656 1.25548 0
M  V30 3347 C 316.083 0.605176 1.92826 0
M  V30 3348 C 316.404 -0.860261 1.74999 0
M  V30 3349 O 315.674 -1.6125 1.11244 0
M  V30 3350 H 314.254 0.220832 0.713612 0
M  V30 3351 H 316.916 1.21047 1.52754 0
M  V30 3352 H 316.012 0.832798 3.00784 0
M  V30 3353 N 316.313 -1.40141 0.720998 0
M  V30 3354 C 317.543 -2.04798 0.27226 0
M  V30 3355 C 317.951 -1.54442 -1.09289 0
M  V30 3356 O 317.294 -0.698342 -1.69908 0
M  V30 3357 C 317.356 -3.59048 0.18027 0
M  V30 3358 C 317.02 -4.32317 1.48159 0
M  V30 3359 C 318.017 -4.59902 2.42458 0
M  V30 3360 C 315.702 -4.71125 1.74202 0
M  V30 3361 C 317.696 -5.25288 3.61042 0
M  V30 3362 C 315.383 -5.36242 2.93066 0
M  V30 3363 C 316.381 -5.63254 3.86308 0
M  V30 3364 O 316.069 -6.27024 5.03086 0
M  V30 3365 H 315.801 -0.665419 0.119139 0
M  V30 3366 H 318.355 -1.80436 0.981432 0
M  V30 3367 H 316.585 -3.82251 -0.58489 0
M  V30 3368 H 318.274 -4.05221 -0.234618 0
M  V30 3369 H 319.04 -4.30379 2.23604 0
M  V30 3370 H 314.919 -4.49466 1.02477 0
M  V30 3371 H 318.463 -5.46289 4.33837 0
M  V30 3372 H 314.36 -5.65185 3.11826 0
M  V30 3373 H 315.128 -6.4552 5.03235 0
M  V30 3374 N 317.792 -0.46758 -1.50504 0
M  V30 3375 C 319.203 -0.0116166 -1.86696 0
M  V30 3376 C 319.554 1.39202 -1.38265 0
M  V30 3377 O 318.679 2.0313 -0.746132 0
M  V30 3378 C 319.274 -0.0143044 -3.38797 0
M  V30 3379 C 317.833 0.386175 -3.74414 0
M  V30 3380 C 316.98 -0.401287 -2.74381 0
M  V30 3381 H 319.931 -0.682022 -1.43297 0
M  V30 3382 H 319.952 0.788641 -3.72237 0
M  V30 3383 H 319.464 -1.03602 -3.74016 0
M  V30 3384 H 317.565 1.41237 -3.44794 0
M  V30 3385 H 317.678 0.0899596 -4.79016 0
M  V30 3386 H 316.042 0.144536 -2.5429 0
M  V30 3387 H 316.825 -1.42244 -3.12444 0
M  V30 3388 N 319.27 1.56325 -0.20005 0
M  V30 3389 C 320.681 1.8408 0.31167 0
M  V30 3390 C 321.032 1.12087 1.61031 0
M  V30 3391 O 320.157 0.38332 2.12978 0
M  V30 3392 C 320.752 3.33932 0.57226 0
M  V30 3393 C 319.311 3.6208 1.02834 0
M  V30 3394 C 318.458 2.77186 0.079634 0
M  V30 3395 H 321.409 1.52939 -0.423729 0
M  V30 3396 H 321.43 3.52971 1.42096 0
M  V30 3397 H 320.942 3.86303 -0.37308 0
M  V30 3398 H 319.043 3.15147 1.98778 0
M  V30 3399 H 319.156 4.7023 0.917624 0
M  V30 3400 H 317.52 2.47951 0.582448 0
M  V30 3401 H 318.303 3.32347 -0.860238 0
M  V30 3402 N 320.748 -0.0735177 1.57428 0
M  V30 3403 C 321.995 -0.772999 1.87166 0
M  V30 3404 C 322.323 -1.77665 0.791551 0
M  V30 3405 O 321.578 -1.94541 -0.212636 0
M  V30 3406 C 321.877 -1.51799 3.23561 0
M  V30 3407 C 321.543 -0.654484 4.46125 0
M  V30 3408 C 320.205 -0.416511 4.79394 0
M  V30 3409 C 322.557 -0.0555862 5.2117 0
M  V30 3410 C 319.885 0.429869 5.85123 0
M  V30 3411 C 322.237 0.778239 6.27795 0
M  V30 3412 C 320.901 1.0261 6.59566 0
M  V30 3413 H 320.171 -0.282861 0.684888 0
M  V30 3414 H 322.818 -0.0338272 1.9147 0
M  V30 3415 H 321.123 -2.32932 3.1504 0
M  V30 3416 H 322.82 -2.06397 3.43804 0
M  V30 3417 H 319.41 -0.850091 4.20085 0
M  V30 3418 H 323.594 -0.226558 4.95783 0
M  V30 3419 H 318.85 0.630665 6.08139 0
M  V30 3420 H 323.024 1.24906 6.85107 0
M  V30 3421 H 320.651 1.68371 7.4132 0
M  V30 3422 N 322.226 -1.5378 -0.344866 0
M  V30 3423 C 323.456 -1.74646 -1.10374 0
M  V30 3424 C 323.864 -0.48491 -1.8288 0
M  V30 3425 O 323.207 0.553062 -1.75177 0
M  V30 3426 C 323.269 -2.87145 -2.16306 0
M  V30 3427 C 322.933 -4.26795 -1.63386 0
M  V30 3428 C 323.93 -5.08412 -1.08688 0
M  V30 3429 C 321.615 -4.73276 -1.68272 0
M  V30 3430 C 323.609 -6.34609 -0.595792 0
M  V30 3431 C 321.296 -5.99446 -1.18776 0
M  V30 3432 C 322.294 -6.79946 -0.645215 0
M  V30 3433 O 321.982 -8.03745 -0.157626 0
M  V30 3434 H 321.714 -0.587112 -0.335075 0
M  V30 3435 H 324.268 -2.01403 -0.403252 0
M  V30 3436 H 322.498 -2.55909 -2.89909 0
M  V30 3437 H 324.187 -2.95992 -2.77747 0
M  V30 3438 H 324.953 -4.73666 -1.04236 0
M  V30 3439 H 320.832 -4.10677 -2.09442 0
M  V30 3440 H 324.376 -6.97389 -0.171654 0
M  V30 3441 H 320.273 -6.33687 -1.22928 0
M  V30 3442 H 321.041 -8.18038 -0.275037 0
M  V30 3443 N 323.704 0.605807 -1.45491 0
M  V30 3444 C 324.981 1.36522 -1.40075 0
M  V30 3445 C 325.361 2.10976 -0.0722744 0
M  V30 3446 O 324.709 2.08007 0.945808 0
M  V30 3447 C 324.919 2.31056 -2.61561 0
M  V30 3448 C 326.267 2.93608 -3.06724 0
M  V30 3449 O 327.291 2.41376 -2.61946 0
M  V30 3450 O 326.15 3.88421 -3.84437 0
M  V30 3451 H 323.244 0.612248 -0.555951 0
M  V30 3452 H 325.79 0.628747 -1.57623 0
M  V30 3453 H 324.562 1.75311 -3.49831 0
M  V30 3454 H 324.185 3.12081 -2.46356 0
M  V30 3455 N 325.182 1.32811 0.848464 0
M  V30 3456 C 326.092 1.24278 1.98978 0
M  V30 3457 C 327.108 0.155176 1.73307 0
M  V30 3458 O 328.284 0.376999 1.9784 0
M  V30 3459 C 325.349 0.972444 3.32783 0
M  V30 3460 C 324.41 2.14911 3.71634 0
M  V30 3461 C 323.643 1.89157 4.99054 0
M  V30 3462 O 323.866 0.837165 5.64223 0
M  V30 3463 O 322.8 2.75433 5.35183 0
M  V30 3464 H 326.626 2.20238 2.09115 0
M  V30 3465 H 324.211 1.12762 0.980052 0
M  V30 3466 H 326.093 0.838432 4.12975 0
M  V30 3467 H 324.768 0.043051 3.23671 0
M  V30 3468 H 323.675 2.33862 2.91992 0
M  V30 3469 H 325.008 3.06151 3.85399 0
M  V30 3470 N 326.66 -1.06551 1.16123 0
M  V30 3471 C 327.608 -2.16063 0.861371 0
M  V30 3472 C 328.602 -1.6856 -0.168517 0
M  V30 3473 O 329.808 -1.79986 -0.0227579 0
M  V30 3474 H 326.183 -0.705278 0.260934 0
M  V30 3475 H 328.154 -2.38567 1.79244 0
M  V30 3476 C 326.903 -3.45661 0.376018 0
M  V30 3477 H 326.226 -3.82604 1.15992 0
M  V30 3478 H 327.666 -4.23504 0.204951 0
M  V30 3479 C 326.125 -3.24546 -0.903954 0
M  V30 3480 O 326.655 -3.49865 -1.97377 0
M  V30 3481 N 324.861 -2.77992 -0.846679 0
M  V30 3482 H 324.408 -2.57589 0.0241017 0
M  V30 3483 H 324.366 -2.64244 -1.70359 0
M  V30 3484 N 328.138 -0.959301 -1.25041 0
M  V30 3485 C 329.415 -0.533805 -1.88175 0
M  V30 3486 C 329.795 0.988994 -1.865 0
M  V30 3487 O 329.143 1.85677 -1.33177 0
M  V30 3488 C 329.353 -1.11575 -3.30684 0
M  V30 3489 C 330.701 -1.19548 -4.07423 0
M  V30 3490 O 331.725 -1.06765 -3.39823 0
M  V30 3491 O 330.584 -1.39656 -5.28354 0
M  V30 3492 H 327.678 -0.176772 -0.807887 0
M  V30 3493 H 330.224 -1.05303 -1.33076 0
M  V30 3494 H 328.996 -2.15884 -3.26358 0
M  V30 3495 H 328.619 -0.580059 -3.93346 0
M  V30 3496 N 329.616 1.39756 -0.72842 0
M  V30 3497 C 330.579 2.29012 -0.0927297 0
M  V30 3498 C 331.579 1.45992 0.674025 0
M  V30 3499 O 332.769 1.66749 0.50402 0
M  V30 3500 C 329.901 3.29396 0.878137 0
M  V30 3501 H 331.094 2.86729 -0.879011 0
M  V30 3502 H 328.647 1.48293 -0.493847 0
M  V30 3503 H 329.382 2.76722 1.69101 0
M  V30 3504 H 329.167 3.907 0.331051 0
M  V30 3505 H 330.657 3.96199 1.3197 0
M  V30 3506 N 331.094 0.475555 1.50254 0
M  V30 3507 C 332.041 -0.316293 2.28622 0
M  V30 3508 C 333.011 -0.983227 1.33873 0
M  V30 3509 O 334.196 -0.994805 1.62814 0
M  V30 3510 C 331.336 -1.38975 3.1588 0
M  V30 3511 C 330.449 -0.737146 4.25664 0
M  V30 3512 C 329.584 -1.78887 5.00173 0
M  V30 3513 C 328.623 -1.11676 6.01826 0
M  V30 3514 N 327.76 -2.11154 6.69596 0
M  V30 3515 H 332.6 0.358297 2.95838 0
M  V30 3516 H 330.137 0.188541 1.45887 0
M  V30 3517 H 332.095 -2.02383 3.64825 0
M  V30 3518 H 330.725 -2.03344 2.50701 0
M  V30 3519 H 329.777 0.0096065 3.80399 0
M  V30 3520 H 331.089 -0.206816 4.98371 0
M  V30 3521 H 330.243 -2.49865 5.52859 0
M  V30 3522 H 328.982 -2.35302 4.27182 0
M  V30 3523 H 327.987 -0.392633 5.48396 0
M  V30 3524 H 329.212 -0.55945 6.76792 0
M  V30 3525 H 327.158 -2.66577 5.99394 0
M  V30 3526 H 327.075 -1.63118 7.38193 0
M  V30 3527 H 328.343 -2.81497 7.26897 0
M  V30 3528 N 332.573 -1.56217 0.208337 0
M  V30 3529 C 333.503 -2.22694 -0.702116 0
M  V30 3530 C 334.484 -1.19432 -1.2112 0
M  V30 3531 O 335.669 -1.47978 -1.25762 0
M  V30 3532 C 332.799 -2.8966 -1.9161 0
M  V30 3533 C 331.753 -3.9928 -1.5414 0
M  V30 3534 C 331.079 -4.53476 -2.83308 0
M  V30 3535 C 332.379 -5.17012 -0.741339 0
M  V30 3536 H 334.073 -2.99034 -0.147898 0
M  V30 3537 H 331.619 -1.43831 -0.0696951 0
M  V30 3538 H 333.572 -3.34852 -2.55836 0
M  V30 3539 H 332.296 -2.10746 -2.49507 0
M  V30 3540 H 330.955 -3.54799 -0.922668 0
M  V30 3541 H 330.603 -3.71308 -3.39322 0
M  V30 3542 H 330.303 -5.27451 -2.58976 0
M  V30 3543 H 331.827 -5.01378 -3.485 0
M  V30 3544 H 333.241 -5.58667 -1.28699 0
M  V30 3545 H 331.638 -5.97137 -0.595627 0
M  V30 3546 H 332.708 -4.8423 0.254851 0
M  V30 3547 N 334.051 0.0651679 -1.57465 0
M  V30 3548 C 335.298 0.763063 -1.87573 0
M  V30 3549 C 335.626 1.77242 -0.800961 0
M  V30 3550 O 334.881 1.94651 0.202316 0
M  V30 3551 C 335.18 1.50081 -3.24362 0
M  V30 3552 C 334.846 0.630816 -4.46466 0
M  V30 3553 C 333.508 0.391082 -4.79608 0
M  V30 3554 C 335.86 0.0279465 -5.21193 0
M  V30 3555 C 333.188 -0.460894 -5.84887 0
M  V30 3556 C 335.54 -0.811522 -6.27373 0
M  V30 3557 C 334.204 -1.06106 -6.59013 0
M  V30 3558 H 333.474 0.279224 -0.686378 0
M  V30 3559 H 336.121 0.0236726 -1.91485 0
M  V30 3560 H 334.426 2.31258 -3.16271 0
M  V30 3561 H 336.123 2.04571 -3.44894 0
M  V30 3562 H 332.713 0.8278 -4.2053 0
M  V30 3563 H 336.897 0.200262 -4.95896 0
M  V30 3564 H 332.153 -0.662907 -6.07796 0
M  V30 3565 H 336.327 -1.28537 -6.84435 0
M  V30 3566 H 333.954 -1.723 -7.40417 0
M  V30 3567 N 335.529 1.53961 0.336706 0
M  V30 3568 C 336.439 1.85432 1.43708 0
M  V30 3569 C 337.455 0.745053 1.57242 0
M  V30 3570 O 338.631 1.03804 1.72588 0
M  V30 3571 C 335.696 2.06349 2.78605 0
M  V30 3572 C 334.757 3.30191 2.74358 0
M  V30 3573 C 333.99 3.50101 4.02822 0
M  V30 3574 O 334.213 2.7371 5.00439 0
M  V30 3575 O 333.147 4.43547 4.06878 0
M  V30 3576 H 336.973 2.78975 1.20028 0
M  V30 3577 H 334.558 1.39701 0.52952 0
M  V30 3578 H 336.44 2.21513 3.58483 0
M  V30 3579 H 335.115 1.15995 3.02203 0
M  V30 3580 H 334.022 3.20425 1.93078 0
M  V30 3581 H 335.355 4.2056 2.55715 0
M  V30 3582 N 337.007 -0.598083 1.45811 0
M  V30 3583 C 337.939 -1.72231 1.51225 0
M  V30 3584 C 338.952 -1.57757 0.402059 0
M  V30 3585 O 340.141 -1.65464 0.669624 0
M  V30 3586 C 337.241 -3.10331 1.3619 0
M  V30 3587 C 336.414 -3.50955 2.61054 0
M  V30 3588 C 335.473 -4.68055 2.40439 0
M  V30 3589 O 334.499 -4.74691 3.14097 0
M  V30 3590 N 335.701 -5.61941 1.45612 0
M  V30 3591 H 338.466 -1.68046 2.48154 0
M  V30 3592 H 336.027 -0.783637 1.41671 0
M  V30 3593 H 338.019 -3.86439 1.20195 0
M  V30 3594 H 336.589 -3.0897 0.475015 0
M  V30 3595 H 335.809 -2.64711 2.92099 0
M  V30 3596 H 337.097 -3.74858 3.44034 0
M  V30 3597 H 336.495 -5.59301 0.848431 0
M  V30 3598 H 335.052 -6.37542 1.35585 0
M  V30 3599 N 338.485 -1.33259 -0.841409 0
M  V30 3600 C 339.734 -1.23921 -1.59143 0
M  V30 3601 C 340.047 0.1941 -1.94635 0
M  V30 3602 O 341.253 0.409474 -2.68394 0
M  V30 3603 C 339.709 -2.17119 -2.87032 0
M  V30 3604 C 339.317 -3.65606 -2.58914 0
M  V30 3605 C 341.061 -2.16648 -3.65053 0
M  V30 3606 C 338.968 -4.50726 -3.82884 0
M  V30 3607 H 337.898 -0.460264 -0.597221 0
M  V30 3608 H 340.549 -1.58307 -0.927959 0
M  V30 3609 H 338.931 -1.75663 -3.54906 0
M  V30 3610 H 340.105 -4.15487 -1.99267 0
M  V30 3611 H 338.42 -3.68341 -1.942 0
M  V30 3612 H 341.017 -2.77474 -4.57069 0
M  V30 3613 H 341.36 -1.16088 -3.99787 0
M  V30 3614 H 341.893 -2.56453 -3.041 0
M  V30 3615 H 338.632 -5.52151 -3.53283 0
M  V30 3616 H 338.152 -4.0559 -4.41879 0
M  V30 3617 H 339.831 -4.64401 -4.50489 0
M  V30 3618 N 339.963 1.05934 -1.16686 0
M  V30 3619 C 340.893 2.1546 -0.899949 0
M  V30 3620 C 341.874 1.69391 0.155154 0
M  V30 3621 O 343.059 1.94199 0.00648693 0
M  V30 3622 C 340.189 3.44939 -0.404241 0
M  V30 3623 C 339.143 4.04536 -1.39767 0
M  V30 3624 C 338.469 5.29268 -0.760216 0
M  V30 3625 C 339.769 4.42893 -2.76845 0
M  V30 3626 H 341.463 2.38046 -1.81588 0
M  V30 3627 H 339.009 1.14404 -0.874514 0
M  V30 3628 H 340.962 4.20901 -0.204971 0
M  V30 3629 H 339.686 3.21983 0.547206 0
M  V30 3630 H 338.345 3.30635 -1.58355 0
M  V30 3631 H 337.993 5.02611 0.197831 0
M  V30 3632 H 337.693 5.70101 -1.42332 0
M  V30 3633 H 339.217 6.07924 -0.57105 0
M  V30 3634 H 340.631 5.09921 -2.62019 0
M  V30 3635 H 339.028 4.94721 -3.39663 0
M  V30 3636 H 340.098 3.53584 -3.31823 0
M  V30 3637 N 341.441 0.965919 1.2453 0
M  V30 3638 C 342.388 0.49402 2.25451 0
M  V30 3639 C 343.358 -0.45948 1.59618 0
M  V30 3640 O 344.543 -0.370238 1.87173 0
M  V30 3641 C 341.683 -0.211359 3.44452 0
M  V30 3642 C 340.796 0.7807 4.24887 0
M  V30 3643 C 339.931 0.0516105 5.31175 0
M  V30 3644 C 338.97 1.03385 6.03306 0
M  V30 3645 N 338.107 0.334887 7.01301 0
M  V30 3646 H 342.947 1.35946 2.65184 0
M  V30 3647 H 340.484 0.681515 1.3036 0
M  V30 3648 H 342.442 -0.637 4.12308 0
M  V30 3649 H 341.072 -1.04077 3.05562 0
M  V30 3650 H 340.124 1.32479 3.56586 0
M  V30 3651 H 341.436 1.52978 4.74762 0
M  V30 3652 H 340.59 -0.432114 6.05159 0
M  V30 3653 H 339.329 -0.730179 4.82203 0
M  V30 3654 H 338.334 1.52847 5.28127 0
M  V30 3655 H 339.559 1.81606 6.54367 0
M  V30 3656 H 337.505 -0.427959 6.54603 0
M  V30 3657 H 337.422 1.02287 7.49048 0
M  V30 3658 H 338.69 -0.126928 7.79397 0
M  V30 3659 N 342.919 -1.39368 0.735821 0
M  V30 3660 C 343.882 -2.2896 0.104874 0
M  V30 3661 C 344.882 -1.46347 -0.666274 0
M  V30 3662 O 346.072 -1.67014 -0.49517 0
M  V30 3663 C 343.204 -3.29857 -0.860656 0
M  V30 3664 H 344.397 -2.86259 0.894205 0
M  V30 3665 H 341.95 -1.48029 0.501704 0
M  V30 3666 H 342.685 -2.77615 -1.67631 0
M  V30 3667 H 342.47 -3.9087 -0.310327 0
M  V30 3668 H 343.96 -3.96893 -1.29867 0
M  V30 3669 N 344.397 -0.483516 -1.5 0
M  V30 3670 C 345.307 0.309172 -2.32554 0
M  V30 3671 C 346.323 0.984159 -1.43493 0
M  V30 3672 O 347.499 0.969399 -1.76535 0
M  V30 3673 C 344.564 1.36979 -3.18493 0
M  V30 3674 C 343.625 0.710095 -4.23387 0
M  V30 3675 C 342.858 1.72018 -5.05218 0
M  V30 3676 O 343.081 2.94813 -4.88305 0
M  V30 3677 O 342.015 1.28515 -5.8802 0
M  V30 3678 H 345.841 -0.366064 -3.01486 0
M  V30 3679 H 343.426 -0.24514 -1.47375 0
M  V30 3680 H 345.308 1.98385 -3.71781 0
M  V30 3681 H 343.983 2.02828 -2.52275 0
M  V30 3682 H 342.89 0.0567539 -3.74057 0
M  V30 3683 H 344.223 0.0943557 -4.9211 0
M  V30 3684 N 345.875 1.56104 -0.216619 0
M  V30 3685 C 347.105 2.02269 0.420802 0
M  V30 3686 C 347.513 1.09575 1.5424 0
M  V30 3687 O 346.856 0.0967308 1.83445 0
M  V30 3688 C 346.918 3.44784 1.01806 0
M  V30 3689 C 346.582 4.56988 0.0325154 0
M  V30 3690 C 347.579 5.14225 -0.766055 0
M  V30 3691 C 345.264 5.02228 -0.0848092 0
M  V30 3692 C 347.258 6.15169 -1.6687 0
M  V30 3693 C 344.945 6.03011 -0.990994 0
M  V30 3694 C 345.943 6.59357 -1.78149 0
M  V30 3695 O 345.631 7.58179 -2.67245 0
M  V30 3696 H 345.363 0.667353 0.107776 0
M  V30 3697 H 347.917 2.02747 -0.329034 0
M  V30 3698 H 346.147 3.41359 1.81689 0
M  V30 3699 H 347.836 3.74626 1.56237 0
M  V30 3700 H 348.602 4.80126 -0.685836 0
M  V30 3701 H 344.481 4.58054 0.520349 0
M  V30 3702 H 348.025 6.59076 -2.28615 0
M  V30 3703 H 343.922 6.36532 -1.07225 0
M  V30 3704 H 344.69 7.75682 -2.61265 0
M  V30 3705 N 347.353 -0.0568162 1.57498 0
M  V30 3706 C 348.263 -1.08346 2.08083 0
M  V30 3707 C 349.279 -1.41439 1.01346 0
M  V30 3708 O 350.455 -1.51316 1.32912 0
M  V30 3709 C 347.52 -2.37352 2.52715 0
M  V30 3710 C 346.581 -2.11093 3.73816 0
M  V30 3711 C 345.814 -3.33949 4.1631 0
M  V30 3712 O 346.037 -4.43622 3.58547 0
M  V30 3713 O 344.971 -3.21279 5.08983 0
M  V30 3714 H 348.797 -0.683667 2.95905 0
M  V30 3715 H 346.382 -0.271965 1.46904 0
M  V30 3716 H 348.264 -3.13246 2.81877 0
M  V30 3717 H 346.939 -2.76681 1.68016 0
M  V30 3718 H 345.846 -1.32856 3.49714 0
M  V30 3719 H 347.179 -1.76637 4.59413 0
M  V30 3720 N 348.832 -1.54138 -0.328536 0
M  V30 3721 C 350.079 -1.72105 -1.06706 0
M  V30 3722 C 350.407 -0.492111 -1.88171 0
M  V30 3723 O 349.662 0.526153 -1.88494 0
M  V30 3724 C 349.961 -2.9457 -2.02393 0
M  V30 3725 C 349.627 -4.29544 -1.37122 0
M  V30 3726 C 348.289 -4.6624 -1.19052 0
M  V30 3727 C 350.641 -5.1333 -0.902331 0
M  V30 3728 C 347.969 -5.84325 -0.527331 0
M  V30 3729 C 350.321 -6.32094 -0.252988 0
M  V30 3730 C 348.985 -6.67473 -0.0600901 0
M  V30 3731 H 348.255 -0.629775 -0.390466 0
M  V30 3732 H 350.902 -1.88372 -0.34473 0
M  V30 3733 H 349.207 -2.72969 -2.81061 0
M  V30 3734 H 350.904 -3.05665 -2.59557 0
M  V30 3735 H 347.494 -4.0067 -1.52188 0
M  V30 3736 H 351.678 -4.855 -1.02974 0
M  V30 3737 H 346.934 -6.103 -0.366634 0
M  V30 3738 H 351.108 -6.96299 0.118366 0
M  V30 3739 H 348.735 -7.58832 0.455828 0
M  V30 3740 N 350.31 0.590341 -1.46126 0
M  V30 3741 C 351.587 1.35029 -1.41515 0
M  V30 3742 C 351.967 2.10888 -0.0946472 0
M  V30 3743 O 351.315 2.08998 0.923693 0
M  V30 3744 C 351.525 2.28269 -2.63997 0
M  V30 3745 C 352.873 2.90338 -3.09821 0
M  V30 3746 O 353.897 2.38585 -2.64492 0
M  V30 3747 O 352.756 3.84321 -3.88535 0
M  V30 3748 H 349.85 0.606317 -0.562413 0
M  V30 3749 H 352.396 0.611994 -1.58281 0
M  V30 3750 H 351.168 1.71591 -3.51671 0
M  V30 3751 H 350.791 3.0945 -2.49652 0
M  V30 3752 N 351.788 1.33704 0.83433 0
M  V30 3753 C 353.013 1.28615 1.62705 0
M  V30 3754 C 353.438 -0.139242 1.87584 0
M  V30 3755 O 352.796 -1.09734 1.4432 0
M  V30 3756 C 352.844 2.07139 2.95171 0
M  V30 3757 O 351.948 1.4331 3.86699 0
M  V30 3758 H 351.289 0.44226 0.49528 0
M  V30 3759 H 353.819 1.76335 1.03766 0
M  V30 3760 H 353.829 2.18073 3.44831 0
M  V30 3761 H 352.504 3.10779 2.76386 0
M  V30 3762 H 351.081 1.4105 3.45195 0
M  V30 3763 N 353.266 -1.05314 1.17247 0
M  V30 3764 C 354.677 -1.59753 0.96623 0
M  V30 3765 C 355.028 -1.9005 -0.487378 0
M  V30 3766 O 354.153 -1.68126 -1.36245 0
M  V30 3767 C 354.748 -2.90249 1.74759 0
M  V30 3768 C 353.307 -3.41352 1.58606 0
M  V30 3769 C 352.454 -2.15103 1.75002 0
M  V30 3770 H 355.405 -0.881406 1.31973 0
M  V30 3771 H 355.426 -3.60097 1.22925 0
M  V30 3772 H 354.938 -2.68166 2.8055 0
M  V30 3773 H 353.039 -3.68474 0.552985 0
M  V30 3774 H 353.152 -4.16019 2.37624 0
M  V30 3775 H 351.516 -2.25804 1.17833 0
M  V30 3776 H 352.299 -1.95491 2.82202 0
M  V30 3777 N 354.744 -0.972509 -1.24016 0
M  V30 3778 C 355.974 -0.653853 -1.9598 0
M  V30 3779 C 356.382 0.781801 -1.72292 0
M  V30 3780 O 355.725 1.53677 -1.00644 0
M  V30 3781 C 355.787 -0.854608 -3.49194 0
M  V30 3782 C 355.451 -2.27082 -3.96589 0
M  V30 3783 C 356.448 -3.24892 -4.05883 0
M  V30 3784 C 354.133 -2.5998 -4.29786 0
M  V30 3785 C 356.127 -4.53684 -4.47716 0
M  V30 3786 C 353.814 -3.88997 -4.71301 0
M  V30 3787 C 354.812 -4.85661 -4.80232 0
M  V30 3788 O 354.5 -6.12376 -5.20818 0
M  V30 3789 H 354.232 -0.242572 -0.630979 0
M  V30 3790 H 356.786 -1.30431 -1.58673 0
M  V30 3791 H 355.016 -0.146985 -3.86421 0
M  V30 3792 H 356.705 -0.534311 -4.02368 0
M  V30 3793 H 357.471 -3.00805 -3.80449 0
M  V30 3794 H 353.35 -1.85457 -4.22051 0
M  V30 3795 H 356.894 -5.29135 -4.54601 0
M  V30 3796 H 352.791 -4.12882 -4.96184 0
M  V30 3797 H 353.559 -6.16013 -5.38953 0
M  V30 3798 N 356.222 1.38976 -0.743202 0
M  V30 3799 C 357.468 2.01114 -0.304109 0
M  V30 3800 C 357.823 1.57929 1.09892 0
M  V30 3801 O 357.116 0.801983 1.74008 0
M  V30 3802 C 357.31 3.55647 -0.353517 0
M  V30 3803 C 357.139 4.13837 -1.75981 0
M  V30 3804 C 355.909 4.46062 -2.37395 0
M  V30 3805 C 358.107 4.36812 -2.71477 0
M  V30 3806 N 356.089 4.898 -3.70093 0
M  V30 3807 C 357.46 4.82844 -3.88923 0
M  V30 3808 C 359.515 4.18893 -2.69134 0
M  V30 3809 C 358.218 5.12837 -5.04371 0
M  V30 3810 C 360.244 4.50005 -3.83731 0
M  V30 3811 C 359.606 4.96251 -4.99914 0
M  V30 3812 H 355.705 0.765931 -0.157716 0
M  V30 3813 H 358.289 1.68763 -0.970931 0
M  V30 3814 H 356.46 3.87368 0.282987 0
M  V30 3815 H 358.192 4.04564 0.104904 0
M  V30 3816 H 354.947 4.34145 -1.89248 0
M  V30 3817 H 355.371 5.16016 -4.38242 0
M  V30 3818 H 360.013 3.82335 -1.80499 0
M  V30 3819 H 357.731 5.48297 -5.9363 0
M  V30 3820 H 361.317 4.37755 -3.83225 0
M  V30 3821 H 360.197 5.19867 -5.87118 0
M  V30 3822 N 357.7 0.491464 1.49741 0
M  V30 3823 C 358.977 -0.118984 1.95238 0
M  V30 3824 C 359.357 -1.55044 1.43264 0
M  V30 3825 O 358.705 -2.19287 0.642287 0
M  V30 3826 C 358.915 -0.0414187 3.48975 0
M  V30 3827 C 360.263 -0.220133 4.24029 0
M  V30 3828 O 361.287 -0.117055 3.56008 0
M  V30 3829 O 360.146 -0.430567 5.44801 0
M  V30 3830 H 357.24 -0.100536 0.820866 0
M  V30 3831 H 359.786 0.553322 1.60426 0
M  V30 3832 H 358.558 0.957214 3.79412 0
M  V30 3833 H 358.181 -0.754292 3.9038 0
M  V30 3834 N 359.178 -1.55987 0.224894 0
M  V30 3835 C 360.455 -1.90232 -0.455083 0
M  V30 3836 C 360.835 -1.14269 -1.77499 0
M  V30 3837 O 360.183 -0.253079 -2.27094 0
M  V30 3838 C 360.393 -3.42993 -0.644758 0
M  V30 3839 C 361.741 -4.13821 -0.950669 0
M  V30 3840 O 362.765 -3.4861 -0.731423 0
M  V30 3841 O 361.624 -5.29128 -1.36695 0
M  V30 3842 H 358.718 -0.79108 -0.241084 0
M  V30 3843 H 361.264 -1.67581 0.267327 0
M  V30 3844 H 360.036 -3.90252 0.28613 0
M  V30 3845 H 359.659 -3.71434 -1.41853 0
M  V30 3846 N 360.656 0.0484629 -1.57525 0
M  V30 3847 C 361.905 0.742065 -1.87553 0
M  V30 3848 C 362.218 1.77545 -0.820802 0
M  V30 3849 O 363.424 2.52027 -1.00967 0
M  V30 3850 C 361.88 1.37081 -3.32771 0
M  V30 3851 C 361.488 0.374786 -4.4643 0
M  V30 3852 C 363.232 2.04542 -3.71972 0
M  V30 3853 C 361.139 1.01077 -5.82698 0
M  V30 3854 H 360.069 0.280903 -0.699721 0
M  V30 3855 H 362.72 -0.00411877 -1.835 0
M  V30 3856 H 361.102 2.16605 -3.31509 0
M  V30 3857 H 362.276 -0.392331 -4.59127 0
M  V30 3858 H 360.591 -0.196653 -4.15935 0
M  V30 3859 H 363.188 2.52943 -4.71088 0
M  V30 3860 H 363.531 2.85515 -3.02964 0
M  V30 3861 H 364.064 1.31819 -3.75325 0
M  V30 3862 H 360.803 0.240878 -6.55057 0
M  V30 3863 H 360.323 1.74819 -5.73758 0
M  V30 3864 H 362.002 1.52383 -6.28799 0
M  V30 3865 N 362.134 1.5431 0.320358 0
M  V30 3866 C 363.359 1.76954 1.08175 0
M  V30 3867 C 363.784 0.518193 1.80821 0
M  V30 3868 O 363.142 -0.530411 1.73368 0
M  V30 3869 C 363.19 2.96451 2.05303 0
M  V30 3870 O 362.294 2.68221 3.13259 0
M  V30 3871 H 361.635 0.586275 0.311733 0
M  V30 3872 H 364.165 2.01342 0.363676 0
M  V30 3873 H 364.175 3.23887 2.48116 0
M  V30 3874 H 362.85 3.87196 1.51829 0
M  V30 3875 H 361.427 2.51744 2.75099 0
M  V30 3876 N 363.613 -0.582584 1.46437 0
M  V30 3877 C 364.89 -1.34276 1.4223 0
M  V30 3878 C 365.27 -2.10835 0.10583 0
M  V30 3879 O 364.618 -2.09485 -0.912596 0
M  V30 3880 C 364.828 -2.26865 2.65204 0
M  V30 3881 C 366.176 -2.88691 3.11356 0
M  V30 3882 O 367.2 -2.37178 2.65753 0
M  V30 3883 O 366.059 -3.82255 3.90568 0
M  V30 3884 H 363.153 -0.603326 0.565621 0
M  V30 3885 H 365.699 -0.603591 1.58603 0
M  V30 3886 H 364.471 -1.69724 3.52576 0
M  V30 3887 H 364.094 -3.08122 2.5129 0
M  V30 3888 N 365.091 -1.34144 -0.827227 0
M  V30 3889 C 366.316 -1.29476 -1.62021 0
M  V30 3890 C 366.741 0.129292 -1.87655 0
M  V30 3891 O 366.099 1.08967 -1.449 0
M  V30 3892 C 366.147 -2.08702 -2.94068 0
M  V30 3893 O 365.251 -1.45359 -3.85933 0
M  V30 3894 H 364.592 -0.444881 -0.492927 0
M  V30 3895 H 367.122 -1.76882 -1.02829 0
M  V30 3896 H 367.132 -2.19898 -3.43669 0
M  V30 3897 H 365.807 -3.12241 -2.74734 0
M  V30 3898 H 364.384 -1.42879 -3.44442 0
M  V30 3899 N 366.569 1.04691 -1.17803 0
M  V30 3900 C 367.532 2.10724 -0.901545 0
M  V30 3901 C 368.532 1.6042 0.110437 0
M  V30 3902 O 369.722 1.7377 -0.122303 0
M  V30 3903 C 366.854 3.39084 -0.351409 0
M  V30 3904 H 368.047 2.36686 -1.84174 0
M  V30 3905 H 365.6 1.21015 -0.98919 0
M  V30 3906 H 366.335 3.18782 0.59569 0
M  V30 3907 H 366.12 3.76909 -1.08083 0
M  V30 3908 H 367.61 4.17227 -0.176451 0
M  V30 3909 N 368.047 0.979072 1.23499 0
M  V30 3910 C 368.994 0.517904 2.24914 0
M  V30 3911 C 369.964 -0.442525 1.60097 0
M  V30 3912 O 371.149 -0.350365 1.87556 0
M  V30 3913 C 368.289 -0.174813 3.44657 0
M  V30 3914 C 367.402 0.825721 4.24035 0
M  V30 3915 C 366.537 0.107946 5.3109 0
M  V30 3916 C 365.576 1.09778 6.02175 0
M  V30 3917 N 364.713 0.40925 7.00906 0
M  V30 3918 H 369.553 1.38751 2.63727 0
M  V30 3919 H 367.09 0.695303 1.2963 0
M  V30 3920 H 369.048 -0.593233 4.12961 0
M  V30 3921 H 367.678 -1.0083 3.06648 0
M  V30 3922 H 366.73 1.36253 3.55161 0
M  V30 3923 H 368.042 1.58005 4.73113 0
M  V30 3924 H 367.196 -0.367904 6.05583 0
M  V30 3925 H 365.935 -0.678994 4.8295 0
M  V30 3926 H 364.94 1.5844 5.26476 0
M  V30 3927 H 366.165 1.88536 6.52404 0
M  V30 3928 H 364.111 -0.358506 6.5502 0
M  V30 3929 H 364.028 1.10226 7.47921 0
M  V30 3930 H 365.296 -0.0442557 7.79487 0
M  V30 3931 N 369.525 -1.3858 0.750561 0
M  V30 3932 C 370.802 -1.94231 0.231009 0
M  V30 3933 C 371.182 -1.68611 -1.27018 0
M  V30 3934 O 370.53 -1.02296 -2.04323 0
M  V30 3935 C 370.74 -3.44123 0.581428 0
M  V30 3936 C 372.088 -4.2116 0.539389 0
M  V30 3937 O 373.112 -3.52391 0.519541 0
M  V30 3938 O 371.971 -5.43749 0.54765 0
M  V30 3939 H 369.065 -0.825639 0.0474263 0
M  V30 3940 H 371.611 -1.4799 0.830478 0
M  V30 3941 H 370.383 -3.56267 1.61833 0
M  V30 3942 H 370.006 -3.97573 -0.0462047 0
M  V30 3943 N 371.003 -0.499398 -1.49478 0
M  V30 3944 C 372.25 0.0456899 -2.02448 0
M  V30 3945 C 372.578 1.37142 -1.37921 0
M  V30 3946 O 371.833 1.89111 -0.503544 0
M  V30 3947 C 372.132 0.248424 -3.56536 0
M  V30 3948 C 371.798 -0.999107 -4.39692 0
M  V30 3949 C 370.46 -1.34108 -4.62135 0
M  V30 3950 C 372.812 -1.82842 -4.88076 0
M  V30 3951 C 370.14 -2.51191 -5.30208 0
M  V30 3952 C 372.492 -2.99076 -5.57437 0
M  V30 3953 C 371.156 -3.33655 -5.78127 0
M  V30 3954 H 370.426 0.0167191 -0.740811 0
M  V30 3955 H 373.073 -0.65923 -1.79795 0
M  V30 3956 H 371.378 1.03586 -3.77859 0
M  V30 3957 H 373.075 0.684605 -3.95113 0
M  V30 3958 H 369.665 -0.722729 -4.22463 0
M  V30 3959 H 373.849 -1.57737 -4.70566 0
M  V30 3960 H 369.105 -2.78221 -5.44429 0
M  V30 3961 H 373.279 -3.63664 -5.93904 0
M  V30 3962 H 370.906 -4.24483 -6.30649 0
M  V30 3963 N 372.481 1.55866 -0.233164 0
M  V30 3964 C 373.73 1.97779 0.39579 0
M  V30 3965 C 374.043 1.12419 1.60066 0
M  V30 3966 O 375.249 1.44283 2.29988 0
M  V30 3967 C 373.705 3.5188 0.755556 0
M  V30 3968 C 373.313 4.45959 -0.427152 0
M  V30 3969 C 375.057 4.02479 1.34946 0
M  V30 3970 C 372.964 5.91383 -0.0443043 0
M  V30 3971 H 371.894 0.738592 0.15165 0
M  V30 3972 H 374.545 1.80486 -0.331212 0
M  V30 3973 H 372.927 3.64816 1.5403 0
M  V30 3974 H 374.101 4.44776 -1.20462 0
M  V30 3975 H 372.416 4.05765 -0.935068 0
M  V30 3976 H 375.013 5.08637 1.649 0
M  V30 3977 H 375.356 3.49014 2.26925 0
M  V30 3978 H 375.889 3.92813 0.62791 0
M  V30 3979 H 372.628 6.48857 -0.930874 0
M  V30 3980 H 372.148 5.95734 0.697238 0
M  V30 3981 H 373.827 6.45893 0.378334 0
M  V30 3982 N 373.959 -0.0401083 1.57549 0
M  V30 3983 C 375.375 -0.395556 1.54621 0
M  V30 3984 C 375.575 -1.77281 0.957799 0
M  V30 3985 O 374.631 -2.45888 0.574031 0
M  V30 3986 C 375.944 -0.307535 2.99123 0
M  V30 3987 C 377.492 -0.385425 3.10618 0
M  V30 3988 C 377.967 -0.326973 4.56831 0
M  V30 3989 N 379.458 -0.386102 4.61588 0
M  V30 3990 C 380.193 -0.363591 5.72246 0
M  V30 3991 N 379.689 -0.29402 6.92176 0
M  V30 3992 N 381.482 -0.412503 5.60584 0
M  V30 3993 H 373.633 0.861325 1.94152 0
M  V30 3994 H 375.896 0.326445 0.890021 0
M  V30 3995 H 375.602 0.638461 3.45856 0
M  V30 3996 H 375.476 -1.10552 3.60636 0
M  V30 3997 H 377.863 -1.32185 2.63839 0
M  V30 3998 H 377.944 0.44171 2.51957 0
M  V30 3999 H 377.588 0.605738 5.04275 0
M  V30 4000 H 377.518 -1.17207 5.13391 0
M  V30 4001 H 380.009 -0.442832 3.75296 0
M  V30 4002 H 380.322 -0.28164 7.72287 0
M  V30 4003 H 378.667 -0.260232 6.94513 0
M  V30 4004 H 381.858 -0.464769 4.65787 0
M  V30 4005 H 382.031 -0.391492 6.46816 0
M  V30 4006 N 375.437 -1.54477 -0.31217 0
M  V30 4007 C 376.387 -1.81037 -1.38598 0
M  V30 4008 C 377.371 -0.666941 -1.46426 0
M  V30 4009 O 378.563 -0.927269 -1.50767 0
M  V30 4010 C 375.692 -2.05127 -2.75277 0
M  V30 4011 C 374.778 -3.25624 -2.71716 0
M  V30 4012 N 375.169 -4.46428 -2.37773 0
M  V30 4013 C 373.467 -3.27427 -3.02833 0
M  V30 4014 C 374.168 -5.28406 -2.43232 0
M  V30 4015 N 373.144 -4.6586 -2.80135 0
M  V30 4016 H 376.946 -2.7201 -1.11301 0
M  V30 4017 H 374.46 -1.53826 -0.520705 0
M  V30 4018 H 376.457 -2.22299 -3.52688 0
M  V30 4019 H 375.117 -1.15416 -3.03495 0
M  V30 4020 H 376.128 -4.73227 -2.1042 0
M  V30 4021 H 372.805 -2.47786 -3.36018 0
M  V30 4022 H 374.195 -6.34903 -2.19882 0
M  V30 4023 N 376.915 0.57481 -1.46744 0
M  V30 4024 C 377.845 1.69337 -1.60771 0
M  V30 4025 C 378.826 1.63825 -0.457736 0
M  V30 4026 O 380.011 1.8172 -0.684947 0
M  V30 4027 C 377.141 3.0798 -1.60517 0
M  V30 4028 C 376.095 3.28327 -2.74564 0
M  V30 4029 C 375.421 4.67578 -2.59373 0
M  V30 4030 C 376.721 3.15398 -4.16319 0
M  V30 4031 H 378.415 1.57853 -2.54407 0
M  V30 4032 H 375.961 0.75799 -1.22436 0
M  V30 4033 H 377.914 3.86061 -1.68923 0
M  V30 4034 H 376.638 3.20381 -0.634305 0
M  V30 4035 H 375.297 2.52649 -2.65639 0
M  V30 4036 H 374.945 4.76755 -1.60353 0
M  V30 4037 H 374.645 4.82144 -3.35873 0
M  V30 4038 H 376.169 5.47817 -2.69682 0
M  V30 4039 H 377.583 3.83315 -4.26313 0
M  V30 4040 H 375.98 3.41482 -4.93468 0
M  V30 4041 H 377.05 2.12372 -4.3592 0
M  V30 4042 N 378.394 1.34581 0.820102 0
M  V30 4043 C 379.327 1.20735 1.93644 0
M  V30 4044 C 380.305 0.0983343 1.62302 0
M  V30 4045 O 381.489 0.263997 1.86642 0
M  V30 4046 C 378.616 0.856037 3.27704 0
M  V30 4047 C 377.662 1.97521 3.78005 0
M  V30 4048 S 378.495 3.58906 3.97425 0
M  V30 4049 C 379.651 3.25822 5.34407 0
M  V30 4050 H 379.884 2.15231 2.05093 0
M  V30 4051 H 377.417 1.1964 0.97599 0
M  V30 4052 H 379.375 0.660133 4.05157 0
M  V30 4053 H 378.036 -0.0706253 3.14021 0
M  V30 4054 H 377.229 1.68321 4.75062 0
M  V30 4055 H 376.831 2.12875 3.07507 0
M  V30 4056 H 379.123 2.77812 6.17922 0
M  V30 4057 H 380.066 4.22029 5.68592 0
M  V30 4058 H 380.474 2.61932 5.00052 0
M  V30 4059 N 379.872 -1.04064 1.18357 0
M  V30 4060 C 380.782 -2.15569 0.925596 0
M  V30 4061 C 381.798 -1.7365 -0.110295 0
M  V30 4062 O 382.974 -2.01273 0.0716218 0
M  V30 4063 C 380.039 -3.43704 0.454836 0
M  V30 4064 C 379.1 -4.00004 1.55869 0
M  V30 4065 C 378.333 -5.22023 1.1103 0
M  V30 4066 O 378.556 -5.70392 -0.0309756 0
M  V30 4067 O 377.49 -5.70856 1.90805 0
M  V30 4068 H 381.316 -2.40187 1.8586 0
M  V30 4069 H 378.901 -1.1402 0.965394 0
M  V30 4070 H 380.783 -4.20923 0.200382 0
M  V30 4071 H 379.458 -3.20559 -0.449876 0
M  V30 4072 H 378.365 -3.24172 1.86716 0
M  V30 4073 H 379.698 -4.2749 2.43953 0
M  V30 4074 N 381.35 -0.985608 -1.22978 0
M  V30 4075 C 382.297 -0.529825 -2.24636 0
M  V30 4076 C 383.267 0.434028 -1.60329 0
M  V30 4077 O 384.452 0.340414 -1.87739 0
M  V30 4078 C 381.592 0.156533 -3.44745 0
M  V30 4079 C 380.705 -0.848197 -4.23591 0
M  V30 4080 C 379.84 -0.136109 -5.31026 0
M  V30 4081 C 378.879 -1.1297 -6.01585 0
M  V30 4082 N 378.016 -0.446415 -7.00679 0
M  V30 4083 H 382.856 -1.40148 -2.62988 0
M  V30 4084 H 380.393 -0.702168 -1.29259 0
M  V30 4085 H 382.351 0.571324 -4.1327 0
M  V30 4086 H 380.981 0.992025 -3.07179 0
M  V30 4087 H 380.033 -1.38135 -3.54433 0
M  V30 4088 H 381.345 -1.60512 -4.72268 0
M  V30 4089 H 380.499 0.335784 -6.0577 0
M  V30 4090 H 379.238 0.653373 -4.83304 0
M  V30 4091 H 378.243 -1.6123 -5.25628 0
M  V30 4092 H 379.468 -1.91993 -6.51395 0
M  V30 4093 H 377.414 0.323763 -6.55201 0
M  V30 4094 H 377.331 -1.1419 -7.47326 0
M  V30 4095 H 378.599 0.00291697 -7.795 0
M  V30 4096 N 382.828 1.3818 -0.7579 0
M  V30 4097 C 384.105 1.94106 -0.241306 0
M  V30 4098 C 384.485 1.69282 1.26122 0
M  V30 4099 O 383.833 1.03378 2.03777 0
M  V30 4100 C 384.043 3.43809 -0.59967 0
M  V30 4101 C 385.391 4.20868 -0.561717 0
M  V30 4102 O 386.415 3.5211 -0.538222 0
M  V30 4103 O 385.274 5.43451 -0.576478 0
M  V30 4104 H 382.368 0.825376 -0.0518042 0
M  V30 4105 H 384.914 1.47548 -0.838315 0
M  V30 4106 H 383.686 3.55403 -1.6372 0
M  V30 4107 H 383.309 3.97592 0.0251197 0
M  V30 4108 N 384.306 0.507319 1.49211 0
M  V30 4109 C 385.717 0.0611118 1.866 0
M  V30 4110 C 386.068 -1.35488 1.41907 0
M  V30 4111 O 385.193 -2.0108 0.799726 0
M  V30 4112 C 385.788 0.104125 3.3864 0
M  V30 4113 C 384.347 -0.28677 3.75306 0
M  V30 4114 C 383.494 0.473893 2.73221 0
M  V30 4115 H 386.445 0.719775 1.41439 0
M  V30 4116 H 386.466 -0.689672 3.74198 0
M  V30 4117 H 385.978 1.13482 3.71138 0
M  V30 4118 H 384.079 -1.32046 3.48417 0
M  V30 4119 H 384.192 0.0370745 4.79086 0
M  V30 4120 H 382.556 -0.0770644 2.54583 0
M  V30 4121 H 383.339 1.50478 3.08563 0
M  V30 4122 N 385.784 -1.5574 0.241426 0
M  V30 4123 C 386.694 -2.2479 -0.671305 0
M  V30 4124 C 387.71 -1.26217 -1.19772 0
M  V30 4125 O 388.886 -1.59079 -1.23514 0
M  V30 4126 C 385.951 -2.92966 -1.85396 0
M  V30 4127 C 385.012 -4.06935 -1.36756 0
M  V30 4128 C 384.245 -4.71851 -2.49384 0
M  V30 4129 O 384.468 -4.35823 -3.67987 0
M  V30 4130 O 383.402 -5.60467 -2.19454 0
M  V30 4131 H 387.228 -3.0349 -0.112966 0
M  V30 4132 H 384.813 -1.49397 0.0101513 0
M  V30 4133 H 386.695 -3.35927 -2.54423 0
M  V30 4134 H 385.37 -2.17211 -2.40002 0
M  V30 4135 H 384.277 -3.68503 -0.644726 0
M  V30 4136 H 385.61 -4.84492 -0.867647 0
M  V30 4137 N 387.262 0.0317525 -1.57568 0
M  V30 4138 C 388.209 1.0332 -2.06382 0
M  V30 4139 C 389.179 1.36082 -0.952414 0
M  V30 4140 O 390.364 1.46466 -1.2228 0
M  V30 4141 C 387.504 2.32989 -2.54578 0
M  V30 4142 C 386.617 2.0641 -3.79498 0
M  V30 4143 C 385.752 3.2993 -4.16317 0
M  V30 4144 C 384.791 2.98893 -5.34162 0
M  V30 4145 N 383.928 4.14857 -5.66426 0
M  V30 4146 H 388.768 0.609982 -2.9169 0
M  V30 4147 H 386.305 0.289573 -1.44222 0
M  V30 4148 H 388.263 3.0875 -2.80587 0
M  V30 4149 H 386.893 2.73039 -1.7219 0
M  V30 4150 H 385.945 1.21158 -3.6059 0
M  V30 4151 H 387.257 1.79513 -4.65378 0
M  V30 4152 H 386.411 4.1406 -4.4344 0
M  V30 4153 H 385.15 3.59938 -3.29083 0
M  V30 4154 H 384.155 2.13164 -5.06795 0
M  V30 4155 H 385.38 2.70165 -6.23047 0
M  V30 4156 H 383.326 4.44821 -4.82151 0
M  V30 4157 H 383.243 3.91374 -6.4681 0
M  V30 4158 H 384.511 4.99868 -5.98124 0
M  V30 4159 N 388.74 1.54641 0.303973 0
M  V30 4160 C 390.156 1.45788 0.649463 0
M  V30 4161 C 390.356 0.64666 1.90842 0
M  V30 4162 O 389.412 0.153183 2.52035 0
M  V30 4163 C 390.725 2.89718 0.805227 0
M  V30 4164 C 392.273 2.99742 0.901305 0
M  V30 4165 C 392.748 4.44863 1.08909 0
M  V30 4166 N 394.239 4.48559 1.15536 0
M  V30 4167 C 394.974 5.58026 1.3189 0
M  V30 4168 N 394.47 6.77422 1.45161 0
M  V30 4169 N 396.263 5.45708 1.34755 0
M  V30 4170 H 388.414 2.05854 -0.523237 0
M  V30 4171 H 390.677 0.932186 -0.172431 0
M  V30 4172 H 390.383 3.51666 -0.0489108 0
M  V30 4173 H 390.257 3.36964 1.69513 0
M  V30 4174 H 392.644 2.3791 1.74593 0
M  V30 4175 H 392.725 2.55797 -0.0125531 0
M  V30 4176 H 392.369 5.07288 0.249241 0
M  V30 4177 H 392.299 4.86436 2.01713 0
M  V30 4178 H 394.79 3.6254 1.06646 0
M  V30 4179 H 395.103 7.56604 1.57387 0
M  V30 4180 H 393.448 6.80292 1.42223 0
M  V30 4181 H 396.639 4.51378 1.23996 0
M  V30 4182 H 396.812 6.3107 1.47157 0
M  V30 4183 N 390.218 -0.567019 1.47046 0
M  V30 4184 C 391.465 -1.32462 1.53167 0
M  V30 4185 C 391.793 -1.93571 0.189841 0
M  V30 4186 O 391.048 -1.77865 -0.816243 0
M  V30 4187 C 391.347 -2.4623 2.59047 0
M  V30 4188 C 391.013 -2.03014 4.02612 0
M  V30 4189 C 389.675 -1.90944 4.41694 0
M  V30 4190 C 392.027 -1.69895 4.92732 0
M  V30 4191 C 389.355 -1.44035 5.68745 0
M  V30 4192 C 391.707 -1.2446 6.20236 0
M  V30 4193 C 390.371 -1.10979 6.5821 0
M  V30 4194 H 389.641 -0.484713 0.560477 0
M  V30 4195 H 392.288 -0.636888 1.80599 0
M  V30 4196 H 390.593 -3.20517 2.25335 0
M  V30 4197 H 392.29 -3.04427 2.61008 0
M  V30 4198 H 388.88 -2.13348 3.71726 0
M  V30 4199 H 393.064 -1.78098 4.63244 0
M  V30 4200 H 388.32 -1.32254 5.96925 0
M  V30 4201 H 392.494 -0.978924 6.89485 0
M  V30 4202 H 390.121 -0.744078 7.5655 0
M  V30 4203 N 391.696 -1.35014 -0.812953 0
M  V30 4204 C 392.924 -1.31031 -1.6012 0
M  V30 4205 C 393.339 0.113558 -1.88458 0
M  V30 4206 O 392.696 1.06363 -1.48301 0
M  V30 4207 C 392.747 -2.10872 -2.93624 0
M  V30 4208 O 392.468 -3.47706 -2.66518 0
M  V30 4209 C 393.969 -2.14401 -3.88004 0
M  V30 4210 H 391.189 -0.45037 -0.497401 0
M  V30 4211 H 393.733 -1.77775 -1.01076 0
M  V30 4212 H 391.888 -1.67744 -3.492 0
M  V30 4213 H 392.302 -3.89097 -3.51715 0
M  V30 4214 H 393.776 -2.74669 -4.78812 0
M  V30 4215 H 394.253 -1.14105 -4.24119 0
M  V30 4216 H 394.859 -2.57662 -3.38364 0
M  V30 4217 N 393.175 1.03435 -1.18907 0
M  V30 4218 C 394.415 1.78302 -0.999391 0
M  V30 4219 C 394.779 1.86353 0.462219 0
M  V30 4220 O 395.98 2.57489 0.771543 0
M  V30 4221 C 394.251 3.17362 -1.64365 0
M  V30 4222 S 395.81 4.08488 -1.6026 0
M  V30 4223 H 392.628 0.613861 -0.358742 0
M  V30 4224 H 395.23 1.23979 -1.51161 0
M  V30 4225 H 393.934 3.09116 -2.69955 0
M  V30 4226 H 393.465 3.76762 -1.13199 0
M  V30 4227 H 395.48 4.92274 -0.622932 0
M  V30 4228 N 394.653 0.992116 1.22453 0
M  V30 4229 C 395.563 0.55065 2.28046 0
M  V30 4230 C 396.579 -0.400189 1.69335 0
M  V30 4231 O 397.755 -0.267215 1.99619 0
M  V30 4232 C 394.82 -0.128496 3.46462 0
M  V30 4233 C 393.881 0.865208 4.20491 0
M  V30 4234 C 393.114 0.218377 5.33253 0
M  V30 4235 O 393.337 -0.987894 5.6178 0
M  V30 4236 O 392.271 0.922845 5.94783 0
M  V30 4237 H 396.097 1.4291 2.67975 0
M  V30 4238 H 393.682 0.760326 1.28606 0
M  V30 4239 H 395.564 -0.508947 4.18315 0
M  V30 4240 H 394.239 -0.981526 3.0846 0
M  V30 4241 H 393.146 1.29658 3.50913 0
M  V30 4242 H 394.479 1.68741 4.62371 0
M  V30 4243 N 396.131 -1.37776 0.765217 0
M  V30 4244 C 397.063 -2.28958 0.105361 0
M  V30 4245 C 398.076 -1.48316 -0.67128 0
M  V30 4246 O 399.265 -1.71046 -0.51045 0
M  V30 4247 C 396.365 -3.27421 -0.874569 0
M  V30 4248 C 395.538 -4.37132 -0.153123 0
M  V30 4249 C 394.597 -5.1571 -1.04547 0
M  V30 4250 O 393.623 -5.66896 -0.511672 0
M  V30 4251 N 394.825 -5.29808 -2.37243 0
M  V30 4252 H 397.59 -2.86227 0.888495 0
M  V30 4253 H 395.151 -1.49682 0.617 0
M  V30 4254 H 397.143 -3.7687 -1.47483 0
M  V30 4255 H 395.713 -2.70967 -1.55871 0
M  V30 4256 H 394.933 -3.89166 0.627975 0
M  V30 4257 H 396.221 -5.07625 0.345643 0
M  V30 4258 H 395.619 -4.89793 -2.83054 0
M  V30 4259 H 394.176 -5.82589 -2.9229 0
M  V30 4260 N 397.609 -0.515225 -1.4894 0
M  V30 4261 C 398.572 0.244681 -2.2789 0
M  V30 4262 C 399.572 0.881166 -1.34507 0
M  V30 4263 O 400.762 0.743497 -1.57537 0
M  V30 4264 C 397.894 1.35247 -3.12923 0
M  V30 4265 H 399.087 -0.448289 -2.96531 0
M  V30 4266 H 396.64 -0.270656 -1.53939 0
M  V30 4267 H 397.375 2.07916 -2.48881 0
M  V30 4268 H 397.16 0.901374 -3.81599 0
M  V30 4269 H 398.65 1.88737 -3.72516 0
M  V30 4270 N 399.087 1.5561 -0.249682 0
M  V30 4271 C 400.017 2.24477 0.642826 0
M  V30 4272 C 400.998 1.22601 1.17911 0
M  V30 4273 O 402.183 1.5126 1.21795 0
M  V30 4274 C 399.313 2.94638 1.83863 0
M  V30 4275 C 398.267 4.03227 1.435 0
M  V30 4276 C 397.593 4.60828 2.71186 0
M  V30 4277 C 398.893 5.18796 0.604002 0
M  V30 4278 H 400.587 2.99321 0.0685625 0
M  V30 4279 H 398.133 1.43965 0.0315363 0
M  V30 4280 H 400.086 3.41517 2.46868 0
M  V30 4281 H 398.81 2.17287 2.43832 0
M  V30 4282 H 397.469 3.57121 0.828275 0
M  V30 4283 H 397.117 3.80174 3.29358 0
M  V30 4284 H 396.817 5.34132 2.44901 0
M  V30 4285 H 398.341 5.10442 3.35084 0
M  V30 4286 H 399.755 5.61883 1.13842 0
M  V30 4287 H 398.152 5.98506 0.437097 0
M  V30 4288 H 399.222 4.83384 -0.383147 0
M  V30 4289 N 400.565 -0.0233959 1.57583 0
M  V30 4290 C 401.497 -1.04994 2.03737 0
M  V30 4291 C 402.51 -1.32125 0.951152 0
M  V30 4292 O 403.699 -1.29512 1.22837 0
M  V30 4293 C 400.799 -2.39026 2.40249 0
M  V30 4294 C 399.972 -2.31171 3.7132 0
M  V30 4295 C 399.031 -3.47698 3.94959 0
M  V30 4296 O 398.057 -3.26937 4.65941 0
M  V30 4297 N 399.259 -4.6976 3.41037 0
M  V30 4298 H 402.024 -0.656507 2.92421 0
M  V30 4299 H 399.585 -0.211235 1.60516 0
M  V30 4300 H 401.577 -3.15712 2.53196 0
M  V30 4301 H 400.147 -2.70194 1.57207 0
M  V30 4302 H 399.367 -1.39547 3.68674 0
M  V30 4303 H 400.655 -2.23071 4.57293 0
M  V30 4304 H 400.053 -4.89528 2.83512 0
M  V30 4305 H 398.61 -5.43791 3.59353 0
M  V30 4306 N 402.043 -1.548 -0.295768 0
M  V30 4307 C 402.993 -1.82497 -1.3667 0
M  V30 4308 C 403.977 -0.682434 -1.45711 0
M  V30 4309 O 405.169 -0.943207 -1.49775 0
M  V30 4310 C 402.298 -2.08036 -2.73086 0
M  V30 4311 C 401.384 -3.28488 -2.68247 0
M  V30 4312 N 401.775 -4.48924 -2.33025 0
M  V30 4313 C 400.073 -3.3062 -2.99343 0
M  V30 4314 C 400.774 -5.30956 -2.37613 0
M  V30 4315 N 399.75 -4.68805 -2.75178 0
M  V30 4316 H 403.552 -2.73175 -1.0841 0
M  V30 4317 H 401.066 -1.5437 -0.504361 0
M  V30 4318 H 403.063 -2.26027 -3.5031 0
M  V30 4319 H 401.723 -1.18629 -3.02254 0
M  V30 4320 H 402.734 -4.75432 -2.05389 0
M  V30 4321 H 399.411 -2.51336 -3.33371 0
M  V30 4322 H 400.801 -6.37199 -2.13135 0
M  V30 4323 N 403.521 0.559213 -1.47345 0
M  V30 4324 C 404.932 1.14134 -1.47751 0
M  V30 4325 C 405.283 1.94834 -0.231103 0
M  V30 4326 O 404.408 2.05957 0.664137 0
M  V30 4327 C 405.003 2.07653 -2.67705 0
M  V30 4328 C 403.562 2.61141 -2.71076 0
M  V30 4329 C 402.709 1.3748 -2.40821 0
M  V30 4330 H 405.66 0.345917 -1.54884 0
M  V30 4331 H 405.681 2.91497 -2.44561 0
M  V30 4332 H 405.193 1.4889 -3.58404 0
M  V30 4333 H 403.294 3.23707 -1.84511 0
M  V30 4334 H 403.407 3.02272 -3.7171 0
M  V30 4335 H 401.771 1.68086 -1.91362 0
M  V30 4336 H 402.554 0.805135 -3.33725 0
M  V30 4337 N 404.999 1.35443 0.805782 0
M  V30 4338 C 406.245 1.2996 1.56467 0
M  V30 4339 C 406.6 -0.124742 1.91995 0
M  V30 4340 O 405.893 -1.07533 1.58579 0
M  V30 4341 C 406.087 2.14045 2.86216 0
M  V30 4342 C 405.916 3.64512 2.63365 0
M  V30 4343 C 404.686 4.33744 2.59219 0
M  V30 4344 C 406.884 4.58142 2.33688 0
M  V30 4345 N 404.866 5.69953 2.28094 0
M  V30 4346 C 406.237 5.8248 2.12408 0
M  V30 4347 C 408.292 4.46877 2.19558 0
M  V30 4348 C 406.995 6.96818 1.78429 0
M  V30 4349 C 409.021 5.61065 1.86976 0
M  V30 4350 C 408.383 6.84431 1.66532 0
M  V30 4351 H 404.482 0.530817 0.574245 0
M  V30 4352 H 407.066 1.70333 0.943126 0
M  V30 4353 H 405.237 1.75942 3.46264 0
M  V30 4354 H 406.969 2.00075 3.51784 0
M  V30 4355 H 403.724 3.86365 2.73896 0
M  V30 4356 H 404.148 6.41845 2.15323 0
M  V30 4357 H 408.79 3.52102 2.34061 0
M  V30 4358 H 406.508 7.91559 1.62664 0
M  V30 4359 H 410.094 5.54302 1.7675 0
M  V30 4360 H 408.974 7.71294 1.41688 0
M  V30 4361 N 406.477 -1.02803 1.19454 0
M  V30 4362 C 407.726 -1.7562 0.991996 0
M  V30 4363 C 408.039 -1.89672 -0.477901 0
M  V30 4364 O 409.245 -2.59468 -0.799287 0
M  V30 4365 C 407.701 -3.15812 1.72601 0
M  V30 4366 C 407.309 -3.0981 3.23607 0
M  V30 4367 C 409.053 -3.92918 1.60674 0
M  V30 4368 C 406.96 -4.44939 3.89594 0
M  V30 4369 H 405.89 -0.658352 0.367543 0
M  V30 4370 H 408.541 -1.15044 1.42959 0
M  V30 4371 H 406.923 -3.7686 1.21624 0
M  V30 4372 H 408.097 -2.58138 3.81709 0
M  V30 4373 H 406.412 -2.46201 3.35819 0
M  V30 4374 H 409.009 -4.9287 2.07323 0
M  V30 4375 H 409.352 -4.12502 0.561025 0
M  V30 4376 H 409.885 -3.38472 2.09001 0
M  V30 4377 H 406.624 -4.30559 4.94267 0
M  V30 4378 H 406.144 -4.96664 3.36281 0
M  V30 4379 H 407.823 -5.1382 3.93189 0
M  V30 4380 N 407.956 -0.998596 -1.21925 0
M  V30 4381 C 408.919 -0.558679 -2.22287 0
M  V30 4382 C 409.919 0.361525 -1.56683 0
M  V30 4383 O 411.109 0.152695 -1.73529 0
M  V30 4384 C 408.241 0.18661 -3.40389 0
M  V30 4385 H 409.434 -1.4463 -2.62721 0
M  V30 4386 H 406.987 -0.786413 -1.35075 0
M  V30 4387 H 407.722 1.08996 -3.05435 0
M  V30 4388 H 407.507 -0.474188 -3.89222 0
M  V30 4389 H 408.997 0.482367 -4.14805 0
M  V30 4390 N 409.434 1.37368 -0.772513 0
M  V30 4391 C 410.682 1.99279 -0.336516 0
M  V30 4392 C 411.003 1.6163 1.09091 0
M  V30 4393 O 410.273 0.882109 1.74916 0
M  V30 4394 H 408.853 0.737063 -0.121435 0
M  V30 4395 H 411.515 1.67836 -0.990809 0
M  V30 4396 H 410.611 3.09332 -0.414763 0
M  V30 4397 N 410.912 0.523116 1.48665 0
M  V30 4398 C 412.189 -0.0775449 1.95446 0
M  V30 4399 C 412.569 -1.5197 1.4652 0
M  V30 4400 O 411.917 -2.17876 0.688657 0
M  V30 4401 C 412.127 0.0326135 3.48985 0
M  V30 4402 C 413.475 -0.130141 4.24401 0
M  V30 4403 O 414.499 -0.0415142 3.56176 0
M  V30 4404 O 413.358 -0.31491 5.45592 0
M  V30 4405 H 410.452 -0.0831012 0.822814 0
M  V30 4406 H 412.998 0.587227 1.59216 0
M  V30 4407 H 411.77 1.03748 3.77296 0
M  V30 4408 H 411.393 -0.671317 3.91892 0
M  V30 4409 N 412.39 -1.55475 0.257931 0
M  V30 4410 C 413.618 -2.03609 -0.367559 0
M  V30 4411 C 414.033 -1.13687 -1.50734 0
M  V30 4412 O 413.39 -0.153479 -1.81853 0
M  V30 4413 C 413.441 -3.51001 -0.864908 0
M  V30 4414 O 413.162 -4.37499 0.229465 0
M  V30 4415 C 414.663 -4.14946 -1.55997 0
M  V30 4416 H 411.883 -0.665459 -0.0860521 0
M  V30 4417 H 414.427 -2.00843 0.385014 0
M  V30 4418 H 412.582 -3.54266 -1.56762 0
M  V30 4419 H 412.996 -5.24286 -0.14998 0
M  V30 4420 H 414.47 -5.19735 -1.85956 0
M  V30 4421 H 414.947 -3.6209 -2.4857 0
M  V30 4422 H 415.553 -4.15635 -0.901543 0
M  V30 4423 N 413.868 0.0150385 -1.57593 0
M  V30 4424 C 414.831 0.995996 -2.06428 0
M  V30 4425 C 415.831 1.2818 -0.970903 0
M  V30 4426 O 417.021 1.22949 -1.23406 0
M  V30 4427 C 414.153 2.32506 -2.49307 0
M  V30 4428 H 415.346 0.573873 -2.94358 0
M  V30 4429 H 412.899 0.262186 -1.54085 0
M  V30 4430 H 413.634 2.79438 -1.64575 0
M  V30 4431 H 413.419 2.13087 -3.29145 0
M  V30 4432 H 414.909 3.02906 -2.87468 0
M  V30 4433 N 415.346 1.54954 0.287554 0
M  V30 4434 C 416.276 1.89839 1.35954 0
M  V30 4435 C 417.257 0.758675 1.52244 0
M  V30 4436 O 418.442 1.01557 1.65529 0
M  V30 4437 C 415.572 2.15753 2.72154 0
M  V30 4438 C 414.526 3.3159 2.70614 0
M  V30 4439 C 413.852 3.42952 4.10229 0
M  V30 4440 C 415.152 4.68359 2.31165 0
M  V30 4441 H 416.846 2.79625 1.07007 0
M  V30 4442 H 414.392 1.3454 0.513316 0
M  V30 4443 H 416.345 2.38743 3.47246 0
M  V30 4444 H 415.069 1.22752 3.02654 0
M  V30 4445 H 413.728 3.08545 1.97979 0
M  V30 4446 H 413.376 2.47443 4.37928 0
M  V30 4447 H 413.076 4.20826 4.10097 0
M  V30 4448 H 414.6 3.68218 4.87081 0
M  V30 4449 H 416.014 4.9099 2.95976 0
M  V30 4450 H 414.411 5.49044 2.42221 0
M  V30 4451 H 415.481 4.68165 1.26291 0
M  V30 4452 N 416.824 -0.551391 1.4764 0
M  V30 4453 C 418.101 -1.31229 1.45046 0
M  V30 4454 C 418.481 -2.10563 0.150527 0
M  V30 4455 O 417.829 -2.11374 -0.867956 0
M  V30 4456 C 418.039 -2.21189 2.69956 0
M  V30 4457 C 419.387 -2.82021 3.1741 0
M  V30 4458 O 420.411 -2.31488 2.70724 0
M  V30 4459 O 419.27 -3.73885 3.98588 0
M  V30 4460 H 416.364 -0.591193 0.578291 0
M  V30 4461 H 418.91 -0.569813 1.59847 0
M  V30 4462 H 417.682 -1.62207 3.56096 0
M  V30 4463 H 417.305 -3.02722 2.57769 0
M  V30 4464 N 418.302 -1.35869 -0.798587 0
M  V30 4465 C 419.249 -1.29446 -1.91082 0
M  V30 4466 C 420.219 -0.16487 -1.6528 0
M  V30 4467 O 421.404 -0.349888 -1.87564 0
M  V30 4468 C 418.544 -1.0804 -3.27752 0
M  V30 4469 C 417.657 -2.29993 -3.65687 0
M  V30 4470 C 416.792 -2.01673 -4.91428 0
M  V30 4471 C 415.831 -3.19636 -5.22015 0
M  V30 4472 N 414.968 -2.91039 -6.38937 0
M  V30 4473 H 419.808 -2.24553 -1.95907 0
M  V30 4474 H 417.345 -1.11615 -0.958148 0
M  V30 4475 H 419.303 -0.936586 -4.06551 0
M  V30 4476 H 417.933 -0.16592 -3.22373 0
M  V30 4477 H 416.985 -2.55211 -2.82085 0
M  V30 4478 H 418.297 -3.18052 -3.84245 0
M  V30 4479 H 417.451 -1.84168 -5.78072 0
M  V30 4480 H 416.19 -1.10911 -4.74921 0
M  V30 4481 H 415.195 -3.37709 -4.33858 0
M  V30 4482 H 416.42 -4.11211 -5.40447 0
M  V30 4483 H 414.366 -2.0288 -6.2384 0
M  V30 4484 H 414.283 -3.72635 -6.57784 0
M  V30 4485 H 415.551 -2.77093 -7.28587 0
M  V30 4486 N 419.78 1.02168 -1.19998 0
M  V30 4487 C 420.728 2.12717 -0.940967 0
M  V30 4488 C 421.722 1.69069 0.105841 0
M  V30 4489 O 422.928 1.79946 -0.0440583 0
M  V30 4490 H 419.303 0.695108 -0.28693 0
M  V30 4491 H 421.274 2.3175 -1.87975 0
M  V30 4492 C 420.023 3.44027 -0.504049 0
M  V30 4493 H 419.346 3.78036 -1.30112 0
M  V30 4494 H 420.786 4.22452 -0.361991 0
M  V30 4495 C 419.245 3.27678 0.782878 0
M  V30 4496 O 419.775 3.56949 1.84256 0
M  V30 4497 N 417.981 2.80943 0.742921 0
M  V30 4498 H 417.528 2.57322 -0.119687 0
M  V30 4499 H 417.486 2.70385 1.60435 0
M  V30 4500 N 421.258 1.00505 1.21394 0
M  V30 4501 C 422.507 0.683159 1.89778 0
M  V30 4502 C 422.82 -0.789471 1.7896 0
M  V30 4503 O 424.026 -1.22344 2.42372 0
M  V30 4504 C 422.482 1.17146 3.40301 0
M  V30 4505 C 422.09 2.67017 3.5973 0
M  V30 4506 C 423.834 0.924461 4.14311 0
M  V30 4507 C 421.741 3.09387 5.04017 0
M  V30 4508 H 420.671 0.25183 0.710702 0
M  V30 4509 H 423.322 1.21622 1.37406 0
M  V30 4510 H 421.704 0.566451 3.91928 0
M  V30 4511 H 422.878 3.32968 3.18542 0
M  V30 4512 H 421.193 2.89732 2.99073 0
M  V30 4513 H 423.79 1.21658 5.20676 0
M  V30 4514 H 424.133 -0.139286 4.16067 0
M  V30 4515 H 424.666 1.49226 3.6875 0
M  V30 4516 H 421.405 4.14989 5.07409 0
M  V30 4517 H 420.925 2.48149 5.46061 0
M  V30 4518 H 422.604 3.01371 5.72525 0
M  V30 4519 N 422.737 -1.36956 0.779787 0
M  V30 4520 C 423.687 -2.27539 0.144892 0
M  V30 4521 C 424.671 -1.46493 -0.665488 0
M  V30 4522 O 425.863 -1.68968 -0.527141 0
M  V30 4523 C 422.992 -3.35512 -0.727082 0
M  V30 4524 C 422.078 -4.24001 0.0915642 0
M  V30 4525 N 422.469 -4.92757 1.14125 0
M  V30 4526 C 420.767 -4.45807 -0.131141 0
M  V30 4527 C 421.468 -5.58138 1.6388 0
M  V30 4528 N 420.444 -5.35241 0.94962 0
M  V30 4529 H 424.246 -2.78176 0.948446 0
M  V30 4530 H 421.76 -1.50169 0.618315 0
M  V30 4531 H 423.757 -3.99324 -1.19776 0
M  V30 4532 H 422.417 -2.86431 -1.52929 0
M  V30 4533 H 423.428 -4.94984 1.52353 0
M  V30 4534 H 420.105 -4.07582 -0.904621 0
M  V30 4535 H 421.495 -6.23071 2.51461 0
M  V30 4536 N 424.215 -0.530993 -1.48385 0
M  V30 4537 C 425.147 0.268353 -2.27624 0
M  V30 4538 C 426.16 0.903525 -1.35426 0
M  V30 4539 O 427.349 0.781796 -1.60469 0
M  V30 4540 C 424.449 1.39535 -3.08842 0
M  V30 4541 C 423.622 0.861913 -4.28824 0
M  V30 4542 C 422.681 1.87016 -4.91845 0
M  V30 4543 O 421.707 1.4267 -5.5103 0
M  V30 4544 N 422.909 3.20238 -4.84178 0
M  V30 4545 H 425.674 -0.41123 -2.96865 0
M  V30 4546 H 423.235 -0.365387 -1.57723 0
M  V30 4547 H 425.227 2.06803 -3.47871 0
M  V30 4548 H 423.797 1.97859 -2.42014 0
M  V30 4549 H 423.017 0.0132126 -3.94198 0
M  V30 4550 H 424.305 0.484415 -5.06489 0
M  V30 4551 H 423.703 3.58932 -4.37246 0
M  V30 4552 H 422.26 3.83136 -5.27305 0
M  V30 4553 N 425.693 1.55336 -0.266172 0
M  V30 4554 C 426.918 2.04258 0.359661 0
M  V30 4555 C 427.343 1.14359 1.49344 0
M  V30 4556 O 426.701 0.140369 1.80756 0
M  V30 4557 C 426.749 3.50997 0.826635 0
M  V30 4558 O 425.853 3.64204 1.93466 0
M  V30 4559 H 425.194 0.659668 0.075727 0
M  V30 4560 H 427.724 2.00694 -0.39786 0
M  V30 4561 H 427.734 3.9219 1.12477 0
M  V30 4562 H 426.409 4.159 -0.00293032 0
M  V30 4563 H 424.986 3.34913 1.63974 0
M  V30 4564 N 427.171 -0.0066808 1.57599 0
M  V30 4565 C 428.417 -0.693947 1.90558 0
M  V30 4566 C 428.75 -1.73792 0.866594 0
M  V30 4567 O 428.025 -1.94156 -0.115548 0
M  V30 4568 C 428.308 -1.34317 3.34112 0
M  V30 4569 C 428.161 -0.311189 4.48722 0
M  V30 4570 C 429.48 -2.27116 3.7697 0
M  V30 4571 H 426.599 -0.250803 0.693013 0
M  V30 4572 H 429.241 0.043242 1.89951 0
M  V30 4573 H 427.391 -1.9715 3.3476 0
M  V30 4574 H 429.063 0.316944 4.6021 0
M  V30 4575 H 427.306 0.367253 4.32243 0
M  V30 4576 H 427.977 -0.804366 5.46108 0
M  V30 4577 H 430.453 -1.74306 3.77831 0
M  V30 4578 H 429.329 -2.69511 4.78179 0
M  V30 4579 H 429.59 -3.14743 3.10466 0
M  V30 4580 N 428.649 -1.55105 -0.279332 0
M  V30 4581 C 429.874 -1.7976 -1.03446 0
M  V30 4582 C 430.299 -0.565952 -1.79384 0
M  V30 4583 O 429.657 0.484259 -1.74713 0
M  V30 4584 C 429.705 -3.0179 -1.97371 0
M  V30 4585 O 428.809 -2.76432 -3.06038 0
M  V30 4586 H 428.15 -0.594334 -0.29608 0
M  V30 4587 H 430.68 -2.02235 -0.310165 0
M  V30 4588 H 430.69 -3.30351 -2.39441 0
M  V30 4589 H 429.365 -3.91085 -1.4151 0
M  V30 4590 H 427.942 -2.58949 -2.68328 0
M  V30 4591 N 430.127 0.543554 -1.4793 0
M  V30 4592 C 431.037 1.67657 -1.64098 0
M  V30 4593 C 432.053 1.65934 -0.523622 0
M  V30 4594 O 433.229 1.85133 -0.792943 0
M  V30 4595 C 430.294 3.04146 -1.66421 0
M  V30 4596 C 429.355 3.16831 -2.89684 0
M  V30 4597 C 428.588 4.46809 -2.91886 0
M  V30 4598 O 428.811 5.33095 -2.02895 0
M  V30 4599 O 427.745 4.63573 -3.83906 0
M  V30 4600 H 431.571 1.56957 -2.59997 0
M  V30 4601 H 429.156 0.715116 -1.31173 0
M  V30 4602 H 431.038 3.85346 -1.70548 0
M  V30 4603 H 429.713 3.152 -0.736923 0
M  V30 4604 H 428.62 2.34977 -2.91095 0
M  V30 4605 H 429.953 3.10687 -3.81752 0
M  V30 4606 N 431.605 1.3629 0.791371 0
M  V30 4607 C 432.537 1.26321 1.91248 0
M  V30 4608 C 433.55 0.18313 1.61767 0
M  V30 4609 O 434.739 0.437682 1.73051 0
M  V30 4610 C 431.839 0.925901 3.26007 0
M  V30 4611 C 431.012 2.10746 3.83281 0
M  V30 4612 C 430.071 1.74352 4.96475 0
M  V30 4613 O 429.097 2.46416 5.13096 0
M  V30 4614 N 430.299 0.676058 5.7655 0
M  V30 4615 H 433.064 2.22915 2.00323 0
M  V30 4616 H 430.625 1.29659 0.969546 0
M  V30 4617 H 432.617 0.663636 3.99222 0
M  V30 4618 H 431.187 0.0491581 3.12561 0
M  V30 4619 H 430.407 2.53264 3.02077 0
M  V30 4620 H 431.695 2.8969 4.18279 0
M  V30 4621 H 431.093 0.0776467 5.65647 0
M  V30 4622 H 429.65 0.473612 6.50077 0
M  V30 4623 N 433.083 -1.0153 1.20538 0
M  V30 4624 C 434.332 -1.74558 1.01057 0
M  V30 4625 C 434.645 -1.90168 -0.457756 0
M  V30 4626 O 435.851 -2.60301 -0.771722 0
M  V30 4627 C 434.307 -3.13963 1.75941 0
M  V30 4628 C 433.915 -3.06361 3.26875 0
M  V30 4629 C 435.659 -3.91191 1.64832 0
M  V30 4630 C 433.566 -4.40782 3.94291 0
M  V30 4631 H 432.496 -0.654417 0.374505 0
M  V30 4632 H 435.147 -1.13521 1.44171 0
M  V30 4633 H 433.529 -3.75549 1.25614 0
M  V30 4634 H 434.703 -2.54074 3.84425 0
M  V30 4635 H 433.018 -2.42625 3.38411 0
M  V30 4636 H 435.615 -4.90644 2.12539 0
M  V30 4637 H 435.958 -4.11884 0.604745 0
M  V30 4638 H 436.491 -3.36236 2.12579 0
M  V30 4639 H 433.23 -4.25292 4.98805 0
M  V30 4640 H 432.75 -4.9307 3.41529 0
M  V30 4641 H 434.429 -5.09621 3.98617 0
M  V30 4642 N 434.561 -1.01147 -1.20859 0
M  V30 4643 C 435.508 -0.577354 -2.23462 0
M  V30 4644 C 436.478 0.399922 -1.61214 0
M  V30 4645 O 437.663 0.300515 -1.88419 0
M  V30 4646 C 434.803 0.083372 -3.44999 0
M  V30 4647 C 433.916 -0.937856 -4.21697 0
M  V30 4648 C 433.051 -0.248717 -5.30617 0
M  V30 4649 C 432.09 -1.25705 -5.99053 0
M  V30 4650 N 431.227 -0.594939 -6.99575 0
M  V30 4651 H 436.067 -1.45695 -2.59956 0
M  V30 4652 H 433.604 -0.729428 -1.27741 0
M  V30 4653 H 435.562 0.483535 -4.14388 0
M  V30 4654 H 434.192 0.926645 -3.09214 0
M  V30 4655 H 433.244 -1.45622 -3.51423 0
M  V30 4656 H 434.556 -1.70493 -4.68757 0
M  V30 4657 H 433.71 0.207215 -6.06346 0
M  V30 4658 H 432.449 0.55071 -4.84581 0
M  V30 4659 H 431.454 -1.72343 -5.2209 0
M  V30 4660 H 432.679 -2.05767 -6.47176 0
M  V30 4661 H 430.625 0.184713 -6.5574 0
M  V30 4662 H 430.542 -1.30017 -7.44736 0
M  V30 4663 H 431.81 -0.162427 -7.79331 0
M  V30 4664 N 436.039 1.36541 -0.78704 0
M  V30 4665 C 436.986 2.30082 -0.181901 0
M  V30 4666 C 437.956 1.5186 0.672896 0
M  V30 4667 O 439.141 1.80374 0.622072 0
M  V30 4668 C 436.281 3.3835 0.679197 0
M  V30 4669 C 435.394 4.31565 -0.193882 0
M  V30 4670 C 434.529 5.26915 0.673364 0
M  V30 4671 C 433.568 6.11769 -0.201315 0
M  V30 4672 N 432.705 6.99315 0.624777 0
M  V30 4673 H 437.545 2.81248 -0.985064 0
M  V30 4674 H 435.082 1.38437 -0.497342 0
M  V30 4675 H 437.04 3.99767 1.19341 0
M  V30 4676 H 435.67 2.8851 1.44781 0
M  V30 4677 H 434.722 3.71323 -0.826044 0
M  V30 4678 H 436.034 4.91191 -0.867937 0
M  V30 4679 H 435.188 5.9361 1.25348 0
M  V30 4680 H 433.927 4.67737 1.38105 0
M  V30 4681 H 432.932 5.44039 -0.793849 0
M  V30 4682 H 434.157 6.73022 -0.906568 0
M  V30 4683 H 432.103 6.42648 1.3168 0
M  V30 4684 H 432.02 7.56 0.00835237 0
M  V30 4685 H 433.288 7.70382 1.18879 0
M  V30 4686 N 437.518 0.538854 1.48102 0
M  V30 4687 C 438.466 -0.232325 2.31437 0
M  V30 4688 C 439.46 -0.927004 1.41785 0
M  V30 4689 O 440.666 -0.850378 1.58646 0
M  V30 4690 H 437.041 -0.0937916 0.746128 0
M  V30 4691 H 439.012 0.489986 2.9435 0
M  V30 4692 C 437.761 -1.26074 3.24038 0
M  V30 4693 H 437.084 -0.735609 3.92974 0
M  V30 4694 H 438.524 -1.77157 3.85216 0
M  V30 4695 C 436.983 -2.29902 2.46265 0
M  V30 4696 O 437.513 -3.36502 2.19384 0
M  V30 4697 N 435.719 -2.03348 2.07601 0
M  V30 4698 H 435.266 -1.16675 2.29662 0
M  V30 4699 H 435.224 -2.73038 1.55877 0
M  V30 4700 N 438.996 -1.55193 0.274407 0
M  V30 4701 C 440.243 -1.99581 -0.342579 0
M  V30 4702 C 440.571 -1.1628 -1.55914 0
M  V30 4703 O 439.826 -0.22029 -1.94456 0
M  V30 4704 C 440.125 -3.49019 -0.769458 0
M  V30 4705 C 439.791 -4.49598 0.342389 0
M  V30 4706 C 438.453 -4.76821 0.647686 0
M  V30 4707 C 440.805 -5.0964 1.09163 0
M  V30 4708 C 438.133 -5.61354 1.70581 0
M  V30 4709 C 440.485 -5.95323 2.13948 0
M  V30 4710 C 439.149 -6.20867 2.45113 0
M  V30 4711 H 438.419 -0.730319 -0.125358 0
M  V30 4712 H 441.066 -1.87529 0.387971 0
M  V30 4713 H 439.371 -3.58544 -1.57967 0
M  V30 4714 H 441.068 -3.8077 -1.25757 0
M  V30 4715 H 437.658 -4.28496 0.094318 0
M  V30 4716 H 441.842 -4.88632 0.869024 0
M  V30 4717 H 437.098 -5.79392 1.9523 0
M  V30 4718 H 441.272 -6.40881 2.72478 0
M  V30 4719 H 438.899 -6.86162 3.27239 0
M  V30 4720 N 440.474 -0.00167713 -1.576 0
M  V30 4721 C 441.437 0.974046 -2.07473 0
M  V30 4722 C 442.437 1.27143 -0.984444 0
M  V30 4723 O 443.627 1.21633 -1.24703 0
M  V30 4724 C 440.759 2.29849 -2.51759 0
M  V30 4725 H 441.952 0.54262 -2.9495 0
M  V30 4726 H 439.505 0.245829 -1.54355 0
M  V30 4727 H 440.24 2.77677 -1.67529 0
M  V30 4728 H 440.025 2.09584 -3.31386 0
M  V30 4729 H 441.515 2.9984 -2.90664 0
M  V30 4730 N 441.952 1.55251 0.271103 0
M  V30 4731 C 442.899 1.88261 1.33516 0
M  V30 4732 C 443.869 0.734296 1.48988 0
M  V30 4733 O 445.054 0.985741 1.63364 0
M  V30 4734 C 442.194 2.16168 2.69008 0
M  V30 4735 C 441.307 3.43678 2.61743 0
M  V30 4736 C 440.442 3.61276 3.89427 0
M  V30 4737 C 439.481 4.82472 3.7668 0
M  V30 4738 N 438.618 4.96717 4.96202 0
M  V30 4739 H 443.458 2.79015 1.04665 0
M  V30 4740 H 440.995 1.38137 0.505618 0
M  V30 4741 H 442.953 2.30349 3.47844 0
M  V30 4742 H 441.583 1.28646 2.96057 0
M  V30 4743 H 440.635 3.37959 1.74607 0
M  V30 4744 H 441.947 4.3265 2.48224 0
M  V30 4745 H 441.101 3.75284 4.76704 0
M  V30 4746 H 439.84 2.70492 4.05814 0
M  V30 4747 H 438.845 4.68465 2.87786 0
M  V30 4748 H 440.07 5.74692 3.61809 0
M  V30 4749 H 438.016 4.08865 5.12997 0
M  V30 4750 H 437.933 5.79738 4.85222 0
M  V30 4751 H 439.201 5.15113 5.85046 0
M  V30 4752 N 443.43 -0.535701 1.48216 0
M  V30 4753 C 444.655 -1.32149 1.59848 0
M  V30 4754 C 445.08 -1.86338 0.256842 0
M  V30 4755 O 444.438 -1.64107 -0.770632 0
M  V30 4756 C 444.486 -2.45224 2.64381 0
M  V30 4757 O 443.59 -3.48093 2.21144 0
M  V30 4758 H 442.931 -0.391634 0.536208 0
M  V30 4759 H 445.461 -0.645202 1.94161 0
M  V30 4760 H 445.471 -2.91491 2.85476 0
M  V30 4761 H 444.146 -2.05143 3.61786 0
M  V30 4762 H 442.723 -3.07984 2.10239 0
M  V30 4763 N 444.908 -1.36708 -0.784132 0
M  V30 4764 C 445.855 -1.31466 -1.89698 0
M  V30 4765 C 446.825 -0.18239 -1.65096 0
M  V30 4766 O 448.01 -0.369762 -1.87183 0
M  V30 4767 C 445.15 -1.1151 -3.26588 0
M  V30 4768 C 444.263 -2.33859 -3.63227 0
M  V30 4769 C 443.398 -2.06873 -4.89262 0
M  V30 4770 C 442.437 -3.25154 -5.18595 0
M  V30 4771 N 441.574 -2.978 -6.35814 0
M  V30 4772 H 446.414 -2.26619 -1.93515 0
M  V30 4773 H 443.951 -1.12625 -0.946256 0
M  V30 4774 H 445.909 -0.979653 -4.05535 0
M  V30 4775 H 444.539 -0.200103 -3.22179 0
M  V30 4776 H 443.591 -2.58188 -2.79362 0
M  V30 4777 H 444.903 -3.22109 -3.8085 0
M  V30 4778 H 444.057 -1.90289 -5.76086 0
M  V30 4779 H 442.796 -1.15942 -4.73718 0
M  V30 4780 H 441.801 -3.42292 -4.30251 0
M  V30 4781 H 443.026 -4.1692 -5.36055 0
M  V30 4782 H 440.972 -2.09485 -6.21653 0
M  V30 4783 H 440.889 -3.7959 -6.53794 0
M  V30 4784 H 442.157 -2.84805 -7.25607 0
M  V30 4785 N 446.386 1.0089 -1.21074 0
M  V30 4786 C 447.632 1.7497 -1.03717 0
M  V30 4787 C 447.987 1.8764 0.425344 0
M  V30 4788 O 447.28 1.39679 1.3115 0
M  V30 4789 C 447.474 3.16335 -1.66334 0
M  V30 4790 C 447.303 3.17449 -3.18522 0
M  V30 4791 C 446.073 3.2425 -3.87543 0
M  V30 4792 C 448.271 3.02877 -4.15656 0
M  V30 4793 N 446.253 3.14949 -5.26954 0
M  V30 4794 C 447.624 3.0143 -5.41793 0
M  V30 4795 C 449.679 2.8715 -4.06755 0
M  V30 4796 C 448.382 2.85869 -6.60054 0
M  V30 4797 C 450.408 2.72944 -5.24648 0
M  V30 4798 C 449.77 2.72171 -6.49694 0
M  V30 4799 H 445.869 0.650627 -0.43383 0
M  V30 4800 H 448.453 1.19944 -1.53367 0
M  V30 4801 H 446.624 3.69638 -1.19256 0
M  V30 4802 H 448.356 3.78888 -1.42219 0
M  V30 4803 H 445.111 3.31288 -3.38446 0
M  V30 4804 H 445.535 3.13651 -5.9996 0
M  V30 4805 H 450.177 2.86557 -3.10878 0
M  V30 4806 H 447.895 2.8521 -7.56096 0
M  V30 4807 H 451.481 2.61782 -5.19578 0
M  V30 4808 H 450.361 2.61307 -7.39384 0
M  V30 4809 N 447.864 1.01787 1.20321 0
M  V30 4810 C 448.811 0.589197 2.23153 0
M  V30 4811 C 449.781 -0.391367 1.61423 0
M  V30 4812 O 450.966 -0.290518 1.88575 0
M  V30 4813 C 448.106 -0.0650747 3.45039 0
M  V30 4814 C 447.219 0.960207 4.21194 0
M  V30 4815 C 446.354 0.276854 5.30478 0
M  V30 4816 C 445.393 1.2888 5.98378 0
M  V30 4817 N 444.53 0.632031 6.99249 0
M  V30 4818 H 449.37 1.47071 2.59179 0
M  V30 4819 H 446.907 0.736192 1.27352 0
M  V30 4820 H 448.865 -0.461552 4.14639 0
M  V30 4821 H 447.495 -0.910233 3.09701 0
M  V30 4822 H 446.547 1.47484 3.50646 0
M  V30 4823 H 447.859 1.72977 4.67847 0
M  V30 4824 H 447.013 -0.175056 6.06447 0
M  V30 4825 H 445.752 -0.525004 4.84866 0
M  V30 4826 H 444.757 1.75109 5.21169 0
M  V30 4827 H 445.982 2.09196 6.46076 0
M  V30 4828 H 443.928 -0.149935 6.55829 0
M  V30 4829 H 443.845 1.33964 7.44036 0
M  V30 4830 H 445.113 0.203755 7.79234 0
M  V30 4831 N 449.342 -1.36122 0.79427 0
M  V30 4832 C 450.274 -2.28683 0.153903 0
M  V30 4833 C 451.287 -1.49707 -0.639669 0
M  V30 4834 O 452.476 -1.7209 -0.474054 0
M  V30 4835 C 449.576 -3.29202 -0.804921 0
M  V30 4836 C 448.749 -4.37358 -0.060366 0
M  V30 4837 C 447.808 -5.17811 -0.935849 0
M  V30 4838 O 446.834 -5.67853 -0.391309 0
M  V30 4839 N 448.036 -5.34721 -2.25951 0
M  V30 4840 H 450.801 -2.84278 0.949008 0
M  V30 4841 H 448.362 -1.4834 0.648611 0
M  V30 4842 H 450.354 -3.79914 -1.39455 0
M  V30 4843 H 448.924 -2.74212 -1.50088 0
M  V30 4844 H 448.144 -3.87746 0.710382 0
M  V30 4845 H 449.432 -5.06777 0.45324 0
M  V30 4846 H 448.83 -4.95687 -2.72601 0
M  V30 4847 H 447.387 -5.88657 -2.79867 0
M  V30 4848 N 450.82 -0.546701 -1.47814 0
M  V30 4849 C 451.783 0.196287 -2.28358 0
M  V30 4850 C 452.783 0.852437 -1.36346 0
M  V30 4851 O 453.973 0.709913 -1.59078 0
M  V30 4852 C 451.105 1.28579 -3.15722 0
M  V30 4853 H 452.298 -0.511086 -2.95513 0
M  V30 4854 H 449.851 -0.303248 -1.5333 0
M  V30 4855 H 450.586 2.0259 -2.53235 0
M  V30 4856 H 450.371 0.820229 -3.83425 0
M  V30 4857 H 451.861 1.80793 -3.76435 0
M  V30 4858 N 452.299 1.55045 -0.282633 0
M  V30 4859 C 453.546 1.9976 0.33199 0
M  V30 4860 C 453.874 1.17105 1.55295 0
M  V30 4861 O 453.129 0.230599 1.94337 0
M  V30 4862 C 453.428 3.49422 0.750938 0
M  V30 4863 C 453.094 4.4941 -0.366228 0
M  V30 4864 C 451.756 4.76471 -0.672964 0
M  V30 4865 C 454.108 5.09054 -1.11864 0
M  V30 4866 C 451.436 5.60442 -1.73556 0
M  V30 4867 C 453.788 5.9418 -2.17102 0
M  V30 4868 C 452.452 6.19558 -2.48402 0
M  V30 4869 H 451.722 0.730974 0.121484 0
M  V30 4870 H 454.369 1.8732 -0.39791 0
M  V30 4871 H 452.674 3.59377 1.56063 0
M  V30 4872 H 454.371 3.81432 1.23736 0
M  V30 4873 H 450.961 4.2844 -0.117041 0
M  V30 4874 H 455.145 4.88165 -0.894925 0
M  V30 4875 H 450.401 5.78349 -1.983 0
M  V30 4876 H 454.575 6.39427 -2.75873 0
M  V30 4877 H 452.202 6.84417 -3.30874 0
M  V30 4878 N 453.777 0.010035 1.57597 0
M  V30 4879 C 454.725 -0.996272 2.10184 0
M  V30 4880 C 455.719 -1.34942 1.02406 0
M  V30 4881 O 456.925 -1.33389 1.20861 0
M  V30 4882 H 453.3 -0.338982 0.671264 0
M  V30 4883 H 455.271 -0.527272 2.93705 0
M  V30 4884 C 454.02 -2.27599 2.62857 0
M  V30 4885 H 453.343 -2.01295 3.45428 0
M  V30 4886 H 454.783 -2.96265 3.0332 0
M  V30 4887 C 453.242 -2.99269 1.54725 0
M  V30 4888 O 453.772 -3.90644 0.93597 0
M  V30 4889 N 451.978 -2.61269 1.27228 0
M  V30 4890 H 451.525 -1.87043 1.77123 0
M  V30 4891 H 451.483 -3.09534 0.550999 0
M  V30 4892 N 455.255 -1.55392 -0.262866 0
M  V30 4893 C 456.218 -1.88181 -1.30846 0
M  V30 4894 C 457.218 -0.757079 -1.41862 0
M  V30 4895 O 458.408 -1.02519 -1.40838 0
M  V30 4896 C 455.54 -2.09609 -2.68844 0
M  V30 4897 H 456.733 -2.81659 -1.02997 0
M  V30 4898 H 454.286 -1.48039 -0.501414 0
M  V30 4899 H 455.021 -1.18547 -3.01856 0
M  V30 4900 H 454.806 -2.91508 -2.62231 0
M  V30 4901 H 456.296 -2.36215 -3.44372 0
M  V30 4902 N 456.733 0.527833 -1.48498 0
M  V30 4903 C 457.961 1.30823 -1.6029 0
M  V30 4904 C 458.376 1.86945 -0.263974 0
M  V30 4905 O 457.733 1.6651 0.747034 0
M  V30 4906 C 457.784 2.45756 -2.65116 0
M  V30 4907 O 457.505 1.91946 -3.93813 0
M  V30 4908 C 459.006 3.37543 -2.87367 0
M  V30 4909 H 456.226 0.397763 -0.540394 0
M  V30 4910 H 458.77 0.636529 -1.94341 0
M  V30 4911 H 456.925 3.08806 -2.33917 0
M  V30 4912 H 457.339 2.67195 -4.51339 0
M  V30 4913 H 458.813 4.14532 -3.6451 0
M  V30 4914 H 459.29 3.92905 -1.9627 0
M  V30 4915 H 459.896 2.80283 -3.19878 0
M  V30 4916 N 458.211 1.37122 0.776871 0
M  V30 4917 C 459.174 1.32301 1.8716 0
M  V30 4918 C 460.174 0.228099 1.59174 0
M  V30 4919 O 461.364 0.483642 1.67352 0
M  V30 4920 C 458.496 1.054 3.24197 0
M  V30 4921 H 459.689 2.29673 1.92848 0
M  V30 4922 H 457.242 1.22077 0.97606 0
M  V30 4923 H 457.977 0.0853872 3.24188 0
M  V30 4924 H 457.762 1.84648 3.45901 0
M  V30 4925 H 459.252 1.04664 4.04271 0
M  V30 4926 N 459.689 -1.00246 1.21608 0
M  V30 4927 C 460.935 -1.74319 1.03638 0
M  V30 4928 C 461.268 -1.89408 -0.428749 0
M  V30 4929 O 460.543 -1.43026 -1.3181 0
M  V30 4930 C 460.826 -3.15431 1.73711 0
M  V30 4931 C 460.679 -3.08049 3.27759 0
M  V30 4932 C 461.998 -4.14407 1.48173 0
M  V30 4933 H 459.117 -0.632741 0.377899 0
M  V30 4934 H 461.759 -1.16853 1.49818 0
M  V30 4935 H 459.909 -3.64493 1.34452 0
M  V30 4936 H 461.581 -2.66681 3.76403 0
M  V30 4937 H 459.824 -2.45088 3.57931 0
M  V30 4938 H 460.495 -4.07862 3.71958 0
M  V30 4939 H 462.971 -3.74061 1.82258 0
M  V30 4940 H 461.847 -5.11279 1.99713 0
M  V30 4941 H 462.108 -4.40174 0.412273 0
M  V30 4942 N 461.167 -1.02423 -1.1978 0
M  V30 4943 C 462.413 -0.719051 -1.89625 0
M  V30 4944 C 462.746 0.750083 -1.7913 0
M  V30 4945 O 462.021 1.54574 -1.18056 0
M  V30 4946 C 462.304 -1.16499 -3.40735 0
M  V30 4947 C 462.157 -2.695 -3.60125 0
M  V30 4948 C 463.476 -0.742166 -4.33797 0
M  V30 4949 H 460.595 -0.26269 -0.688595 0
M  V30 4950 H 463.237 -1.27333 -1.41018 0
M  V30 4951 H 461.387 -0.69341 -3.82262 0
M  V30 4952 H 463.059 -3.24569 -3.278 0
M  V30 4953 H 461.302 -3.10113 -3.03336 0
M  V30 4954 H 461.973 -2.95757 -4.66081 0
M  V30 4955 H 464.449 -1.1477 -3.99959 0
M  V30 4956 H 463.325 -1.08213 -5.38127 0
M  V30 4957 H 463.586 0.355747 -4.40666 0
M  V30 4958 N 462.645 1.35699 -0.801477 0
M  V30 4959 C 464.061 1.52065 -0.484596 0
M  V30 4960 C 464.261 1.75215 0.995084 0
M  V30 4961 O 463.317 1.79061 1.78026 0
M  V30 4962 C 464.63 2.69908 -1.32552 0
M  V30 4963 C 466.178 2.83784 -1.32044 0
M  V30 4964 C 466.653 4.04646 -2.14536 0
M  V30 4965 N 468.144 4.11814 -2.12046 0
M  V30 4966 C 468.879 5.04437 -2.72636 0
M  V30 4967 N 468.375 6.02426 -3.42133 0
M  V30 4968 N 470.168 4.97144 -2.62305 0
M  V30 4969 H 462.319 1.18928 -1.75983 0
M  V30 4970 H 464.582 0.581455 -0.748741 0
M  V30 4971 H 464.288 2.59363 -2.37537 0
M  V30 4972 H 464.162 3.64376 -0.975181 0
M  V30 4973 H 466.549 2.93783 -0.27846 0
M  V30 4974 H 466.63 1.90188 -1.71062 0
M  V30 4975 H 466.274 3.95407 -3.18772 0
M  V30 4976 H 466.204 4.97413 -1.72882 0
M  V30 4977 H 468.695 3.41664 -1.61476 0
M  V30 4978 H 469.008 6.69688 -3.85666 0
M  V30 4979 H 467.353 6.02615 -3.46237 0
M  V30 4980 H 470.544 4.19546 -2.07603 0
M  V30 4981 H 470.717 5.69138 -3.09815 0
M  V30 4982 N 464.123 0.554532 1.47522 0
M  V30 4983 C 465.073 -0.215008 2.26984 0
M  V30 4984 C 466.057 -0.88774 1.34194 0
M  V30 4985 O 467.249 -0.786489 1.58567 0
M  V30 4986 C 464.378 -1.24604 3.19889 0
M  V30 4987 C 463.464 -0.576857 4.20159 0
M  V30 4988 N 463.855 0.351541 5.04577 0
M  V30 4989 C 462.153 -0.831104 4.38188 0
M  V30 4990 C 462.854 0.739995 5.76974 0
M  V30 4991 N 461.83 0.0954407 5.43516 0
M  V30 4992 H 465.632 0.498843 2.89636 0
M  V30 4993 H 463.146 0.374279 1.58028 0
M  V30 4994 H 465.143 -1.81128 3.75498 0
M  V30 4995 H 463.803 -1.96101 2.58794 0
M  V30 4996 H 464.814 0.725556 5.12792 0
M  V30 4997 H 461.491 -1.53479 3.88266 0
M  V30 4998 H 462.881 1.50271 6.5488 0
M  V30 4999 N 465.601 -1.54893 0.290851 0
M  V30 5000 C 466.534 -2.19289 -0.631489 0
M  V30 5001 C 467.512 -1.15893 -1.14051 0
M  V30 5002 O 468.696 -1.4449 -1.21058 0
M  V30 5003 C 465.823 -2.82866 -1.86291 0
M  V30 5004 C 464.869 -3.997 -1.48801 0
M  V30 5005 S 465.702 -5.32641 -0.552644 0
M  V30 5006 C 466.858 -5.99696 -1.79209 0
M  V30 5007 H 467.091 -2.9718 -0.0843791 0
M  V30 5008 H 464.624 -1.54218 0.075031 0
M  V30 5009 H 466.582 -3.20124 -2.56964 0
M  V30 5010 H 465.243 -2.04839 -2.38117 0
M  V30 5011 H 464.436 -4.42932 -2.40473 0
M  V30 5012 H 464.038 -3.63947 -0.861321 0
M  V30 5013 H 466.33 -6.19886 -2.734 0
M  V30 5014 H 467.273 -6.94071 -1.40251 0
M  V30 5015 H 467.681 -5.29226 -1.96419 0
M  V30 5016 N 467.08 -0.0183926 -1.57589 0
M  V30 5017 C 468.496 0.337897 -1.55982 0
M  V30 5018 C 468.696 1.73604 -1.02294 0
M  V30 5019 O 467.752 2.43589 -0.664895 0
M  V30 5020 C 469.065 0.196305 -3.00059 0
M  V30 5021 C 470.613 0.269875 -3.11834 0
M  V30 5022 C 471.088 0.157197 -4.5773 0
M  V30 5023 N 472.579 0.214521 -4.62703 0
M  V30 5024 C 473.314 0.150955 -5.73201 0
M  V30 5025 N 472.81 0.0369212 -6.9279 0
M  V30 5026 N 474.603 0.204162 -5.61729 0
M  V30 5027 H 466.754 -0.93279 -1.90821 0
M  V30 5028 H 469.017 -0.359253 -0.877292 0
M  V30 5029 H 468.723 -0.766383 -3.43248 0
M  V30 5030 H 468.597 0.970908 -3.6449 0
M  V30 5031 H 470.984 1.22302 -2.68563 0
M  V30 5032 H 471.065 -0.534918 -2.50144 0
M  V30 5033 H 470.709 -0.792479 -5.01679 0
M  V30 5034 H 470.639 0.980717 -5.17387 0
M  V30 5035 H 473.13 0.303238 -3.76681 0
M  V30 5036 H 473.443 -0.00518321 -7.728 0
M  V30 5037 H 471.788 0.0022886 -6.95 0
M  V30 5038 H 474.979 0.291575 -4.67191 0
M  V30 5039 H 475.152 0.15116 -6.47824 0
M  V30 5040 N 468.558 1.5553 0.254621 0
M  V30 5041 C 469.505 1.89666 1.31512 0
M  V30 5042 C 470.475 0.750057 1.482 0
M  V30 5043 O 471.66 1.00301 1.62309 0
M  V30 5044 C 468.8 2.19009 2.667 0
M  V30 5045 C 467.913 3.46435 2.58083 0
M  V30 5046 C 467.048 3.65386 3.85573 0
M  V30 5047 C 466.087 4.8644 3.71541 0
M  V30 5048 N 465.224 5.01952 4.90906 0
M  V30 5049 H 470.064 2.80109 1.017 0
M  V30 5050 H 467.601 1.38666 0.490938 0
M  V30 5051 H 469.559 2.34025 3.45381 0
M  V30 5052 H 468.189 1.31779 2.94676 0
M  V30 5053 H 467.241 3.39792 1.71013 0
M  V30 5054 H 468.553 4.35258 2.43622 0
M  V30 5055 H 467.707 3.80319 4.72697 0
M  V30 5056 H 466.446 2.74781 4.02922 0
M  V30 5057 H 465.451 4.71491 2.82801 0
M  V30 5058 H 466.676 5.78497 3.55694 0
M  V30 5059 H 464.622 4.14283 5.08631 0
M  V30 5060 H 464.539 5.84851 4.79046 0
M  V30 5061 H 465.807 5.21289 5.7955 0
M  V30 5062 N 470.036 -0.519951 1.48776 0
M  V30 5063 C 470.966 -1.63253 1.66945 0
M  V30 5064 C 471.947 -1.62014 0.518224 0
M  V30 5065 O 473.132 -1.79053 0.751919 0
M  V30 5066 C 470.262 -3.0181 1.71836 0
M  V30 5067 C 469.216 -3.17911 2.8656 0
M  V30 5068 C 468.542 -4.5763 2.76548 0
M  V30 5069 C 469.842 -2.99729 4.27738 0
M  V30 5070 H 471.536 -1.48302 2.6009 0
M  V30 5071 H 469.082 -0.712026 1.25165 0
M  V30 5072 H 471.035 -3.79525 1.83135 0
M  V30 5073 H 469.759 -3.17806 0.752775 0
M  V30 5074 H 468.418 -2.42616 2.74833 0
M  V30 5075 H 468.066 -4.70476 1.77937 0
M  V30 5076 H 467.766 -4.69346 3.53536 0
M  V30 5077 H 469.29 -5.37431 2.89828 0
M  V30 5078 H 470.704 -3.67228 4.40246 0
M  V30 5079 H 469.101 -3.22932 5.05801 0
M  V30 5080 H 470.171 -1.96047 4.43502 0
M  V30 5081 N 471.514 -1.37532 -0.769588 0
M  V30 5082 C 472.446 -1.29347 -1.89214 0
M  V30 5083 C 473.459 -0.208842 -1.61455 0
M  V30 5084 O 474.648 -0.465158 -1.72333 0
M  V30 5085 C 471.748 -0.977649 -3.24492 0
M  V30 5086 C 470.921 -2.16817 -3.7988 0
M  V30 5087 C 469.98 -1.82229 -4.93639 0
M  V30 5088 O 469.006 -2.54548 -5.09111 0
M  V30 5089 N 470.208 -0.767696 -5.75401 0
M  V30 5090 H 472.973 -2.26073 -1.96751 0
M  V30 5091 H 470.534 -1.31185 -0.948795 0
M  V30 5092 H 472.526 -0.727065 -3.98115 0
M  V30 5093 H 471.096 -0.0988777 -3.12444 0
M  V30 5094 H 470.316 -2.58038 -2.9801 0
M  V30 5095 H 471.604 -2.96308 -4.13617 0
M  V30 5096 H 471.002 -0.167626 -5.65452 0
M  V30 5097 H 469.559 -0.576973 -6.49241 0
M  V30 5098 N 472.992 0.995999 -1.22138 0
M  V30 5099 C 473.922 2.10387 -1.01289 0
M  V30 5100 C 474.903 1.69975 0.0651454 0
M  V30 5101 O 476.088 1.9396 -0.0964628 0
M  V30 5102 C 473.218 3.42312 -0.586517 0
M  V30 5103 C 472.172 3.96558 -1.61014 0
M  V30 5104 C 471.498 5.24494 -1.0397 0
M  V30 5105 C 472.798 4.27595 -2.99933 0
M  V30 5106 H 474.492 2.28086 -1.93951 0
M  V30 5107 H 472.038 1.09607 -0.933928 0
M  V30 5108 H 473.991 4.19223 -0.427793 0
M  V30 5109 H 472.715 3.24431 0.375761 0
M  V30 5110 H 471.374 3.21776 -1.75658 0
M  V30 5111 H 471.022 5.02953 -0.0688703 0
M  V30 5112 H 470.722 5.61755 -1.72352 0
M  V30 5113 H 472.246 6.04042 -0.892494 0
M  V30 5114 H 473.66 4.95315 -2.8868 0
M  V30 5115 H 472.057 4.76021 -3.6541 0
M  V30 5116 H 473.127 3.35498 -3.50099 0
M  V30 5117 N 474.47 1.03057 1.19235 0
M  V30 5118 C 475.718 0.726581 1.88587 0
M  V30 5119 C 476.039 -0.747227 1.80115 0
M  V30 5120 O 475.309 -1.53849 1.21274 0
M  V30 5121 H 473.889 0.265768 0.698124 0
M  V30 5122 H 476.551 1.30516 1.44746 0
M  V30 5123 H 475.647 1.0224 2.94879 0
M  V30 5124 N 475.948 -1.35272 0.808662 0
M  V30 5125 C 477.176 -2.02946 0.402537 0
M  V30 5126 C 477.591 -1.60937 -0.987147 0
M  V30 5127 O 476.948 -0.807917 -1.63643 0
M  V30 5128 C 476.999 -3.58317 0.47868 0
M  V30 5129 O 476.72 -3.98799 1.81358 0
M  V30 5130 C 478.221 -4.43251 0.0656281 0
M  V30 5131 H 475.441 -0.650831 0.163279 0
M  V30 5132 H 477.985 -1.72849 1.09286 0
M  V30 5133 H 476.14 -3.87055 -0.163415 0
M  V30 5134 H 476.554 -4.93451 1.77781 0
M  V30 5135 H 478.028 -5.51738 0.170017 0
M  V30 5136 H 478.505 -4.27913 -0.989278 0
M  V30 5137 H 479.111 -4.19813 0.68096 0
M  V30 5138 N 477.426 -0.562348 -1.47226 0
M  V30 5139 C 478.651 -0.0432632 -2.07355 0
M  V30 5140 C 479.076 1.24332 -1.41149 0
M  V30 5141 O 478.434 1.74603 -0.488226 0
M  V30 5142 C 478.482 0.130288 -3.60365 0
M  V30 5143 O 477.586 1.19166 -3.94808 0
M  V30 5144 H 476.927 -0.0536334 -0.66183 0
M  V30 5145 H 479.457 -0.779495 -1.89169 0
M  V30 5146 H 479.467 0.342881 -4.06557 0
M  V30 5147 H 478.142 -0.809389 -4.07948 0
M  V30 5148 H 476.719 0.959153 -3.60354 0
M  V30 5149 N 478.904 1.54736 -0.299062 0
M  V30 5150 C 479.836 2.20891 0.61153 0
M  V30 5151 C 480.849 1.20104 1.09904 0
M  V30 5152 O 482.038 1.46707 1.01683 0
M  V30 5153 C 479.138 2.84018 1.84897 0
M  V30 5154 C 478.311 4.10719 1.50428 0
M  V30 5155 C 477.37 4.57667 2.59667 0
M  V30 5156 O 476.396 5.2291 2.24842 0
M  V30 5157 N 477.598 4.29821 3.90172 0
M  V30 5158 H 480.363 2.99666 0.0452001 0
M  V30 5159 H 477.924 1.61446 -0.121178 0
M  V30 5160 H 479.916 3.1236 2.5732 0
M  V30 5161 H 478.486 2.09095 2.32375 0
M  V30 5162 H 477.706 3.89408 0.612781 0
M  V30 5163 H 478.994 4.93223 1.24934 0
M  V30 5164 H 478.392 3.77549 4.21276 0
M  V30 5165 H 476.949 4.62877 4.58899 0
M  V30 5166 N 480.382 0.0267497 1.57577 0
M  V30 5167 C 481.292 -0.971633 2.13533 0
M  V30 5168 C 482.308 -1.35868 1.08701 0
M  V30 5169 O 483.484 -1.44058 1.40746 0
M  V30 5170 C 480.549 -2.23622 2.64941 0
M  V30 5171 C 479.61 -1.90982 3.8448 0
M  V30 5172 C 478.843 -3.11411 4.33427 0
M  V30 5173 O 479.066 -4.23992 3.81558 0
M  V30 5174 O 478 -2.93848 5.25297 0
M  V30 5175 H 481.826 -0.525853 2.99113 0
M  V30 5176 H 479.411 -0.193712 1.48139 0
M  V30 5177 H 481.293 -2.97864 2.98086 0
M  V30 5178 H 479.968 -2.67386 1.82446 0
M  V30 5179 H 478.875 -1.14132 3.56265 0
M  V30 5180 H 480.208 -1.52036 4.6813 0
M  V30 5181 N 481.861 -1.55662 -0.24637 0
M  V30 5182 C 483.109 -1.77168 -0.972411 0
M  V30 5183 C 483.43 -0.590827 -1.85834 0
M  V30 5184 O 482.7 0.393365 -1.9191 0
M  V30 5185 H 481.28 -0.653405 -0.362038 0
M  V30 5186 H 483.942 -1.93101 -0.264189 0
M  V30 5187 H 483.038 -2.68335 -1.59382 0
M  V30 5188 N 483.339 0.512053 -1.4905 0
M  V30 5189 C 484.271 1.63121 -1.6101 0
M  V30 5190 C 485.284 1.55145 -0.493352 0
M  V30 5191 O 486.473 1.61278 -0.764955 0
M  V30 5192 C 483.573 3.01863 -1.54052 0
M  V30 5193 C 482.746 3.35138 -2.81072 0
M  V30 5194 C 481.805 4.5324 -2.67319 0
M  V30 5195 O 480.831 4.55571 -3.41238 0
M  V30 5196 N 482.033 5.52495 -1.78127 0
M  V30 5197 H 484.798 1.53292 -2.5753 0
M  V30 5198 H 482.359 0.699706 -1.45999 0
M  V30 5199 H 484.351 3.78774 -1.42521 0
M  V30 5200 H 482.921 3.05675 -0.654345 0
M  V30 5201 H 482.141 2.4723 -3.07036 0
M  V30 5202 H 483.429 3.54162 -3.65304 0
M  V30 5203 H 482.827 5.53403 -1.17308 0
M  V30 5204 H 481.384 6.28553 -1.72525 0
M  V30 5205 N 484.817 1.37938 0.762283 0
M  V30 5206 C 486.065 1.33404 1.51815 0
M  V30 5207 C 486.386 -0.0780975 1.94844 0
M  V30 5208 O 485.656 -1.02405 1.67003 0
M  V30 5209 H 484.236 0.490839 0.563104 0
M  V30 5210 H 486.898 1.72527 0.906669 0
M  V30 5211 H 485.994 1.97926 2.41313 0
M  V30 5212 N 486.295 -0.989507 1.22664 0
M  V30 5213 C 487.227 -2.0824 0.957542 0
M  V30 5214 C 488.24 -1.6267 -0.0651098 0
M  V30 5215 O 489.429 -1.77695 0.169312 0
M  V30 5216 C 486.529 -3.36298 0.419145 0
M  V30 5217 C 485.702 -4.10882 1.49982 0
M  V30 5218 C 484.761 -5.17221 0.967904 0
M  V30 5219 O 483.787 -5.44613 1.65487 0
M  V30 5220 N 484.989 -5.80124 -0.20896 0
M  V30 5221 H 487.754 -2.31904 1.89843 0
M  V30 5222 H 485.315 -1.15552 1.13399 0
M  V30 5223 H 487.307 -4.04671 0.0485451 0
M  V30 5224 H 485.877 -3.09671 -0.426937 0
M  V30 5225 H 485.097 -3.37092 2.04359 0
M  V30 5226 H 486.385 -4.57482 2.22682 0
M  V30 5227 H 485.783 -5.60244 -0.783818 0
M  V30 5228 H 484.34 -6.49715 -0.520913 0
M  V30 5229 N 487.773 -1.03688 -1.18687 0
M  V30 5230 C 489.001 -0.757918 -1.92518 0
M  V30 5231 C 489.416 0.684398 -1.75959 0
M  V30 5232 O 488.773 1.46617 -1.08673 0
M  V30 5233 C 488.824 -1.10985 -3.44042 0
M  V30 5234 O 488.545 -2.49554 -3.60076 0
M  V30 5235 C 490.046 -0.854844 -4.3498 0
M  V30 5236 H 487.266 -0.276699 -0.611293 0
M  V30 5237 H 489.81 -1.38352 -1.50595 0
M  V30 5238 H 487.965 -0.529279 -3.83767 0
M  V30 5239 H 488.379 -2.6291 -4.53849 0
M  V30 5240 H 489.853 -1.15098 -5.39867 0
M  V30 5241 H 490.33 0.210507 -4.38695 0
M  V30 5242 H 490.936 -1.41853 -4.00946 0
M  V30 5243 N 489.251 1.34841 -0.815825 0
M  V30 5244 C 490.214 2.27959 -0.238185 0
M  V30 5245 C 491.214 1.49983 0.579816 0
M  V30 5246 O 492.404 1.69617 0.396953 0
M  V30 5247 C 489.536 3.34314 0.666876 0
M  V30 5248 H 490.729 2.80558 -1.05958 0
M  V30 5249 H 488.282 1.44852 -0.587156 0
M  V30 5250 H 489.017 2.86916 1.5116 0
M  V30 5251 H 488.802 3.92014 0.0819106 0
M  V30 5252 H 490.292 4.0379 1.06506 0
M  V30 5253 N 490.729 0.570148 1.46925 0
M  V30 5254 C 491.954 0.0542592 2.07329 0
M  V30 5255 C 492.379 -1.23582 1.41806 0
M  V30 5256 O 491.737 -1.74341 0.497479 0
M  V30 5257 C 491.785 -0.111175 3.60429 0
M  V30 5258 O 490.889 -1.17071 3.95434 0
M  V30 5259 H 490.23 0.0571425 0.661537 0
M  V30 5260 H 492.76 0.789516 1.88753 0
M  V30 5261 H 492.77 -0.321315 4.06733 0
M  V30 5262 H 491.445 0.831012 4.07513 0
M  V30 5263 H 490.022 -0.940029 3.60857 0
M  V30 5264 N 492.207 -1.54576 0.307264 0
M  V30 5265 C 493.157 -2.20467 -0.581249 0
M  V30 5266 C 494.141 -1.17972 -1.09414 0
M  V30 5267 O 495.333 -1.43667 -1.03387 0
M  V30 5268 C 492.462 -2.95369 -1.74963 0
M  V30 5269 C 491.548 -4.05186 -1.25241 0
M  V30 5270 N 491.939 -5.03577 -0.47364 0
M  V30 5271 C 490.237 -4.18841 -1.53259 0
M  V30 5272 C 490.938 -5.81328 -0.208083 0
M  V30 5273 N 489.914 -5.37834 -0.789651 0
M  V30 5274 H 493.716 -2.93892 0.0212221 0
M  V30 5275 H 491.23 -1.62011 0.112325 0
M  V30 5276 H 493.227 -3.41046 -2.39777 0
M  V30 5277 H 491.887 -2.23461 -2.35574 0
M  V30 5278 H 492.898 -5.17766 -0.117963 0
M  V30 5279 H 489.575 -3.58141 -2.14573 0
M  V30 5280 H 490.965 -6.706 0.417793 0
M  V30 5281 N 493.685 -0.035106 -1.57561 0
M  V30 5282 C 494.933 0.64096 -1.91667 0
M  V30 5283 C 495.254 1.72323 -0.912681 0
M  V30 5284 O 494.524 1.95849 0.0449089 0
M  V30 5285 H 493.104 0.239743 -0.707483 0
M  V30 5286 H 495.766 -0.084321 -1.94718 0
M  V30 5287 H 494.862 1.08987 -2.92452 0
M  V30 5288 N 495.163 1.55791 0.238111 0
M  V30 5289 C 496.073 1.94196 1.31625 0
M  V30 5290 C 497.089 0.843545 1.52185 0
M  V30 5291 O 498.265 1.1457 1.65637 0
M  V30 5292 C 495.33 2.2365 2.64918 0
M  V30 5293 C 494.391 3.46971 2.52804 0
M  V30 5294 C 493.624 3.7501 3.79741 0
M  V30 5295 O 493.847 3.04982 4.82019 0
M  V30 5296 O 492.781 4.68525 3.77846 0
M  V30 5297 H 496.607 2.86044 1.02043 0
M  V30 5298 H 494.192 1.42786 0.439603 0
M  V30 5299 H 496.074 2.43863 3.4367 0
M  V30 5300 H 494.749 1.34979 2.94215 0
M  V30 5301 H 493.656 3.32055 1.72309 0
M  V30 5302 H 494.989 4.35971 2.28451 0
M  V30 5303 N 496.642 -0.504142 1.49319 0
M  V30 5304 C 497.572 -1.61473 1.68667 0
M  V30 5305 C 498.553 -1.61455 0.535378 0
M  V30 5306 O 499.738 -1.78245 0.770868 0
M  V30 5307 C 496.868 -2.99971 1.75028 0
M  V30 5308 C 495.822 -3.14854 2.89916 0
M  V30 5309 C 495.148 -4.54671 2.81387 0
M  V30 5310 C 496.448 -2.95176 4.30893 0
M  V30 5311 H 498.142 -1.45535 2.61648 0
M  V30 5312 H 495.688 -0.698711 1.25913 0
M  V30 5313 H 497.641 -3.77562 1.8715 0
M  V30 5314 H 496.365 -3.1699 0.786441 0
M  V30 5315 H 495.024 -2.39687 2.77391 0
M  V30 5316 H 494.672 -4.68562 1.82917 0
M  V30 5317 H 494.372 -4.6557 3.58494 0
M  V30 5318 H 495.896 -5.34327 2.95512 0
M  V30 5319 H 497.31 -3.62538 4.44116 0
M  V30 5320 H 495.707 -3.17549 5.09198 0
M  V30 5321 H 496.777 -1.91332 4.45556 0
M  V30 5322 N 498.12 -1.38341 -0.754957 0
M  V30 5323 C 499.05 -1.38176 -1.88227 0
M  V30 5324 C 500.031 -0.247873 -1.68284 0
M  V30 5325 O 501.216 -0.45075 -1.88896 0
M  V30 5326 C 498.346 -1.20471 -3.25736 0
M  V30 5327 C 497.3 -2.3105 -3.60278 0
M  V30 5328 C 496.626 -1.98452 -4.96509 0
M  V30 5329 C 497.926 -3.73305 -3.65295 0
M  V30 5330 H 499.62 -2.32512 -1.88622 0
M  V30 5331 H 497.166 -1.1192 -0.906082 0
M  V30 5332 H 499.119 -1.18982 -4.04254 0
M  V30 5333 H 497.843 -0.225965 -3.25817 0
M  V30 5334 H 496.502 -2.31723 -2.84078 0
M  V30 5335 H 496.15 -0.990641 -4.93148 0
M  V30 5336 H 495.85 -2.7251 -5.20588 0
M  V30 5337 H 497.374 -1.98578 -5.77407 0
M  V30 5338 H 498.788 -3.7467 -4.3393 0
M  V30 5339 H 497.185 -4.46557 -4.00883 0
M  V30 5340 H 498.255 -4.05719 -2.65556 0
M  V30 5341 N 499.598 0.982988 -1.23187 0
M  V30 5342 C 500.826 1.75921 -1.08901 0
M  V30 5343 C 501.241 1.85341 0.359719 0
M  V30 5344 O 500.598 1.33072 1.24892 0
M  V30 5345 C 500.649 3.18742 -1.70545 0
M  V30 5346 O 500.37 3.09814 -3.09753 0
M  V30 5347 C 501.871 4.1277 -1.61667 0
M  V30 5348 H 499.091 0.552166 -0.381252 0
M  V30 5349 H 501.635 1.23516 -1.62985 0
M  V30 5350 H 499.79 3.68182 -1.20501 0
M  V30 5351 H 500.204 3.99703 -3.39614 0
M  V30 5352 H 501.678 5.10697 -2.09506 0
M  V30 5353 H 502.155 4.3542 -0.575009 0
M  V30 5354 H 502.761 3.69232 -2.11064 0
M  V30 5355 N 501.076 1.04316 1.18135 0
M  V30 5356 C 502.487 0.775505 1.69832 0
M  V30 5357 C 502.838 -0.703348 1.8316 0
M  V30 5358 O 501.963 -1.54729 1.51287 0
M  V30 5359 C 502.558 1.40112 3.0847 0
M  V30 5360 C 501.117 1.18172 3.57368 0
M  V30 5361 C 500.264 1.49022 2.33854 0
M  V30 5362 H 503.215 1.20925 1.02775 0
M  V30 5363 H 503.236 0.805672 3.71873 0
M  V30 5364 H 502.748 2.47744 2.98738 0
M  V30 5365 H 500.849 0.124258 3.72393 0
M  V30 5366 H 500.962 1.8805 4.40652 0
M  V30 5367 H 499.326 0.909995 2.37889 0
M  V30 5368 H 500.109 2.57768 2.26738 0
M  V30 5369 N 502.554 -1.34406 0.822964 0
M  V30 5370 C 503.8 -1.98578 0.411666 0
M  V30 5371 C 504.133 -1.65093 -1.02264 0
M  V30 5372 O 503.408 -0.92258 -1.71227 0
M  V30 5373 C 503.691 -3.54823 0.614235 0
M  V30 5374 C 503.544 -3.9805 2.09466 0
M  V30 5375 C 504.863 -4.40071 0.050221 0
M  V30 5376 H 501.982 -0.721355 0.151047 0
M  V30 5377 H 504.624 -1.59301 1.03554 0
M  V30 5378 H 502.774 -3.88411 0.0831774 0
M  V30 5379 H 504.446 -3.74795 2.68936 0
M  V30 5380 H 502.689 -3.4836 2.5851 0
M  V30 5381 H 503.36 -5.06819 2.18721 0
M  V30 5382 H 505.836 -4.13037 0.503953 0
M  V30 5383 H 504.712 -5.48452 0.221759 0
M  V30 5384 H 504.973 -4.29576 -1.04482 0
M  V30 5385 N 504.032 -0.577932 -1.46621 0
M  V30 5386 C 504.995 0.147805 -2.28723 0
M  V30 5387 C 505.995 0.823325 -1.38123 0
M  V30 5388 O 507.185 0.676011 -1.60548 0
M  V30 5389 C 504.317 1.21853 -3.18378 0
M  V30 5390 H 505.51 -0.573654 -2.94362 0
M  V30 5391 H 503.063 -0.335703 -1.52652 0
M  V30 5392 H 503.798 1.97173 -2.57475 0
M  V30 5393 H 503.583 0.738714 -3.85078 0
M  V30 5394 H 505.073 1.72768 -3.80186 0
M  V30 5395 N 505.51 1.54411 -0.315457 0
M  V30 5396 C 506.758 2.00023 0.288971 0
M  V30 5397 C 507.079 1.20529 1.5329 0
M  V30 5398 O 506.349 0.304986 1.93511 0
M  V30 5399 H 504.929 0.738891 0.109766 0
M  V30 5400 H 507.591 1.90094 -0.430129 0
M  V30 5401 H 506.687 3.07198 0.550999 0
M  V30 5402 N 506.988 0.0434614 1.5754 0
M  V30 5403 C 508.236 -0.630786 1.92004 0
M  V30 5404 C 508.557 -1.71836 0.921807 0
M  V30 5405 O 507.827 -1.9587 -0.034522 0
M  V30 5406 H 506.407 -0.235988 0.708745 0
M  V30 5407 H 509.069 0.0946462 1.9467 0
M  V30 5408 H 508.165 -1.07434 2.93026 0
M  V30 5409 N 508.466 -1.55915 -0.229846 0
M  V30 5410 C 509.877 -1.68809 -0.797531 0
M  V30 5411 C 510.228 -0.643995 -1.8533 0
M  V30 5412 O 509.353 0.206492 -2.15413 0
M  V30 5413 C 509.948 -3.06043 -1.45338 0
M  V30 5414 C 508.507 -3.20819 -1.96856 0
M  V30 5415 C 507.654 -2.6472 -0.825736 0
M  V30 5416 H 510.605 -1.58699 -0.00533733 0
M  V30 5417 H 510.626 -3.01438 -2.32196 0
M  V30 5418 H 510.138 -3.82012 -0.684743 0
M  V30 5419 H 508.239 -2.49704 -2.76548 0
M  V30 5420 H 508.352 -4.27937 -2.15423 0
M  V30 5421 H 506.716 -2.22985 -1.23084 0
M  V30 5422 H 507.499 -3.43229 -0.0699019 0
M  V30 5423 N 509.944 0.496216 -1.49584 0
M  V30 5424 C 510.907 1.57952 -1.66084 0
M  V30 5425 C 511.907 1.51729 -0.53244 0
M  V30 5426 O 513.097 1.54796 -0.79899 0
M  V30 5427 C 510.229 2.97604 -1.66268 0
M  V30 5428 H 511.422 1.44649 -2.6271 0
M  V30 5429 H 508.975 0.7208 -1.38687 0
M  V30 5430 H 509.71 3.16378 -0.712432 0
M  V30 5431 H 509.495 3.03528 -2.4822 0
M  V30 5432 H 510.985 3.76301 -1.81073 0
M  V30 5433 N 511.423 1.38739 0.74761 0
M  V30 5434 C 512.386 1.36241 1.84312 0
M  V30 5435 C 513.386 0.261811 1.58654 0
M  V30 5436 O 514.576 0.519031 1.66288 0
M  V30 5437 C 511.708 1.12253 3.21888 0
M  V30 5438 H 512.901 2.33712 1.87933 0
M  V30 5439 H 510.454 1.2412 0.949946 0
M  V30 5440 H 511.189 0.154133 3.23934 0
M  V30 5441 H 510.974 1.91943 3.41907 0
M  V30 5442 H 512.464 1.13215 4.0196 0
M  V30 5443 N 512.901 -0.976442 1.23707 0
M  V30 5444 C 514.149 -1.71487 1.06942 0
M  V30 5445 C 514.47 -1.9098 -0.393897 0
M  V30 5446 O 513.74 -1.48128 -1.28198 0
M  V30 5447 H 512.32 -0.635425 0.392739 0
M  V30 5448 H 514.982 -1.17515 1.55487 0
M  V30 5449 H 514.078 -2.70286 1.56051 0
M  V30 5450 N 514.379 -1.04941 -1.1758 0
M  V30 5451 C 515.619 -0.766996 -1.89464 0
M  V30 5452 C 515.983 0.693123 -1.79053 0
M  V30 5453 O 517.184 1.08953 -2.45729 0
M  V30 5454 C 515.455 -1.23108 -3.35528 0
M  V30 5455 S 517.014 -1.07565 -4.25412 0
M  V30 5456 H 513.832 -0.278616 -0.654136 0
M  V30 5457 H 516.434 -1.34352 -1.4202 0
M  V30 5458 H 515.138 -2.28896 -3.40639 0
M  V30 5459 H 514.669 -0.648724 -3.88014 0
M  V30 5460 H 516.684 0.00169467 -4.962 0
M  V30 5461 N 515.857 1.33968 -0.830081 0
M  V30 5462 C 517.097 1.99879 -0.427521 0
M  V30 5463 C 517.461 1.64355 0.992546 0
M  V30 5464 O 518.662 2.23164 1.49837 0
M  V30 5465 C 516.933 3.51771 -0.631815 0
M  V30 5466 S 518.492 4.37608 -0.323168 0
M  V30 5467 H 515.31 0.692485 -0.161202 0
M  V30 5468 H 517.912 1.63129 -1.07745 0
M  V30 5469 H 516.616 3.75113 -1.66488 0
M  V30 5470 H 516.147 3.93386 0.0325936 0
M  V30 5471 H 518.162 4.88683 0.860432 0
M  V30 5472 N 517.335 0.585699 1.46312 0
M  V30 5473 C 518.575 0.0751432 2.04262 0
M  V30 5474 C 518.939 -1.26201 1.44697 0
M  V30 5475 O 520.14 -1.86198 1.93865 0
M  V30 5476 C 518.411 0.013478 3.57397 0
M  V30 5477 S 519.97 -0.439068 4.36598 0
M  V30 5478 H 516.788 0.0389228 0.709934 0
M  V30 5479 H 519.39 0.778871 1.79315 0
M  V30 5480 H 518.094 0.990558 3.98266 0
M  V30 5481 H 517.625 -0.712927 3.86886 0
M  V30 5482 H 519.64 -1.6932 4.66417 0
M  V30 5483 N 518.813 -1.54241 0.323641 0
M  V30 5484 C 520.229 -1.59574 -0.0290018 0
M  V30 5485 C 520.429 -1.34017 -1.50472 0
M  V30 5486 O 519.485 -1.12464 -2.26071 0
M  V30 5487 C 520.798 -2.98169 0.389295 0
M  V30 5488 C 522.346 -3.11148 0.339958 0
M  V30 5489 C 522.821 -4.5209 0.733418 0
M  V30 5490 N 524.312 -4.5808 0.686827 0
M  V30 5491 C 525.047 -5.65248 0.963464 0
M  V30 5492 N 524.543 -6.80355 1.30724 0
M  V30 5493 N 526.336 -5.55025 0.88902 0
M  V30 5494 H 518.487 -1.6911 1.28512 0
M  V30 5495 H 520.75 -0.790972 0.522558 0
M  V30 5496 H 520.456 -3.21871 1.41746 0
M  V30 5497 H 520.33 -3.76399 -0.245657 0
M  V30 5498 H 522.717 -2.87182 -0.679002 0
M  V30 5499 H 522.798 -2.35023 1.00985 0
M  V30 5500 H 522.442 -4.76788 1.75029 0
M  V30 5501 H 522.372 -5.26584 0.0412189 0
M  V30 5502 H 524.863 -3.75411 0.43298 0
M  V30 5503 H 525.176 -7.58029 1.5037 0
M  V30 5504 H 523.521 -6.81851 1.3455 0
M  V30 5505 H 526.712 -4.63977 0.619939 0
M  V30 5506 H 526.885 -6.38458 1.10797 0
M  V30 5507 N 520.291 -0.0518155 -1.57515 0
M  V30 5508 C 521.568 0.661727 -1.84067 0
M  V30 5509 C 521.948 1.88999 -0.940351 0
M  V30 5510 O 521.296 2.285 -0.00155404 0
M  V30 5511 C 521.506 1.01841 -3.3381 0
M  V30 5512 C 522.854 1.40043 -4.00841 0
M  V30 5513 O 523.878 1.11073 -3.38439 0
M  V30 5514 O 522.737 1.94111 -5.10865 0
M  V30 5515 H 519.831 0.326702 -0.759733 0
M  V30 5516 H 522.377 -0.0812277 -1.69505 0
M  V30 5517 H 521.149 0.145202 -3.91031 0
M  V30 5518 H 520.772 1.81879 -3.53562 0
M  V30 5519 N 521.769 1.56035 0.221574 0
M  V30 5520 C 523.009 1.80822 0.953038 0
M  V30 5521 C 523.373 0.625316 1.81532 0
M  V30 5522 O 524.574 0.752491 2.58052 0
M  V30 5523 C 522.845 3.10503 1.76983 0
M  V30 5524 S 524.404 3.56604 2.55693 0
M  V30 5525 H 521.222 0.634849 0.320137 0
M  V30 5526 H 523.824 1.94274 0.218619 0
M  V30 5527 H 522.528 3.94636 1.12651 0
M  V30 5528 H 522.059 2.99858 2.54655 0
M  V30 5529 H 524.074 3.1994 3.79279 0
M  V30 5530 N 523.247 -0.488276 1.49845 0
M  V30 5531 C 524.487 -1.2516 1.61599 0
M  V30 5532 C 524.851 -1.89615 0.301706 0
M  V30 5533 O 526.052 -2.67182 0.29453 0
M  V30 5534 C 524.323 -2.2805 2.75187 0
M  V30 5535 S 525.882 -3.13552 3.0697 0
M  V30 5536 H 522.7 -0.425178 0.569864 0
M  V30 5537 H 525.302 -0.551545 1.87559 0
M  V30 5538 H 524.006 -1.7925 3.69185 0
M  V30 5539 H 523.537 -3.02708 2.5126 0
M  V30 5540 H 525.552 -4.28927 2.49471 0
M  V30 5541 N 524.725 -1.39134 -0.740242 0
M  V30 5542 C 525.971 -1.36273 -1.50192 0
M  V30 5543 C 526.304 0.0430136 -1.94152 0
M  V30 5544 O 525.579 1.00691 -1.66408 0
M  V30 5545 C 525.862 -2.33041 -2.74525 0
M  V30 5546 C 525.715 -3.82535 -2.36617 0
M  V30 5547 C 527.034 -2.27723 -3.76604 0
M  V30 5548 H 524.153 -0.496323 -0.544823 0
M  V30 5549 H 526.795 -1.70085 -0.846815 0
M  V30 5550 H 524.945 -2.04337 -3.30422 0
M  V30 5551 H 526.617 -4.21967 -1.86391 0
M  V30 5552 H 524.86 -3.99565 -1.68909 0
M  V30 5553 H 525.531 -4.45723 -3.2563 0
M  V30 5554 H 528.007 -2.53091 -3.30279 0
M  V30 5555 H 526.883 -2.97519 -4.61274 0
M  V30 5556 H 527.144 -1.28049 -4.2315 0
M  V30 5557 N 526.204 0.969867 -1.24223 0
M  V30 5558 C 527.114 2.09806 -1.0497 0
M  V30 5559 C 528.13 1.73998 0.00886455 0
M  V30 5560 O 529.306 2.00513 -0.188848 0
M  V30 5561 C 526.371 3.40467 -0.654452 0
M  V30 5562 C 525.432 3.90236 -1.78926 0
M  V30 5563 C 524.665 5.14662 -1.41277 0
M  V30 5564 O 524.888 5.69602 -0.301632 0
M  V30 5565 O 523.822 5.58761 -2.23763 0
M  V30 5566 H 527.648 2.28942 -1.99548 0
M  V30 5567 H 525.233 1.08197 -1.03023 0
M  V30 5568 H 527.115 4.19039 -0.445452 0
M  V30 5569 H 525.79 3.22636 0.262216 0
M  V30 5570 H 524.697 3.12735 -2.05299 0
M  V30 5571 H 526.03 4.1254 -2.68462 0
M  V30 5572 N 527.682 1.05563 1.17022 0
M  V30 5573 C 529.093 0.793475 1.69 0
M  V30 5574 C 529.444 -0.683882 1.83895 0
M  V30 5575 O 528.569 -1.53116 1.5292 0
M  V30 5576 C 529.164 1.43376 3.06967 0
M  V30 5577 C 527.723 1.21956 3.56095 0
M  V30 5578 C 526.87 1.51494 2.3226 0
M  V30 5579 H 529.821 1.22008 1.01487 0
M  V30 5580 H 529.842 0.845068 3.70997 0
M  V30 5581 H 529.354 2.50899 2.96093 0
M  V30 5582 H 527.455 0.163749 3.7224 0
M  V30 5583 H 527.568 1.92713 4.38633 0
M  V30 5584 H 525.932 0.935175 2.3691 0
M  V30 5585 H 526.715 2.60159 2.23992 0
M  V30 5586 N 529.16 -1.33526 0.837174 0
M  V30 5587 C 530.408 -1.97446 0.431211 0
M  V30 5588 C 530.729 -1.6665 -1.01255 0
M  V30 5589 O 529.999 -0.964559 -1.70508 0
M  V30 5590 H 528.579 -0.73043 0.156463 0
M  V30 5591 H 531.241 -1.62918 1.06976 0
M  V30 5592 H 530.337 -3.07001 0.561877 0
M  V30 5593 N 530.638 -0.59345 -1.46 0
M  V30 5594 C 531.866 -0.0890934 -2.06708 0
M  V30 5595 C 532.281 1.2205 -1.44046 0
M  V30 5596 O 531.638 1.74029 -0.549551 0
M  V30 5597 C 531.689 0.0720263 -3.61428 0
M  V30 5598 O 531.41 -1.18574 -4.21748 0
M  V30 5599 C 532.911 0.609487 -4.3909 0
M  V30 5600 H 530.131 -0.0623628 -0.668096 0
M  V30 5601 H 532.675 -0.817171 -1.87464 0
M  V30 5602 H 530.83 0.750369 -3.80063 0
M  V30 5603 H 531.244 -1.0064 -5.14754 0
M  V30 5604 H 532.718 0.671363 -5.47902 0
M  V30 5605 H 533.195 1.62878 -4.07882 0
M  V30 5606 H 533.801 -0.03434 -4.25286 0
M  V30 5607 N 532.116 1.54067 -0.331816 0
M  V30 5608 C 533.026 2.28322 0.539104 0
M  V30 5609 C 534.042 1.32985 1.1221 0
M  V30 5610 O 535.218 1.6601 1.1403 0
M  V30 5611 C 532.283 3.03277 1.68 0
M  V30 5612 C 531.344 4.14216 1.12798 0
M  V30 5613 C 530.577 4.85588 2.2145 0
M  V30 5614 O 530.8 4.56536 3.41952 0
M  V30 5615 O 529.734 5.72309 1.86404 0
M  V30 5616 H 533.56 3.03632 -0.0641692 0
M  V30 5617 H 531.145 1.49083 -0.0972365 0
M  V30 5618 H 533.027 3.50189 2.34405 0
M  V30 5619 H 531.702 2.30834 2.2693 0
M  V30 5620 H 530.609 3.71635 0.428782 0
M  V30 5621 H 531.942 4.88727 0.583698 0
M  V30 5622 N 533.594 0.0601682 1.57485 0
M  V30 5623 C 534.524 -0.90889 2.15085 0
M  V30 5624 C 535.505 -1.31838 1.07484 0
M  V30 5625 O 536.69 -1.3915 1.35466 0
M  V30 5626 C 533.82 -2.18059 2.7031 0
M  V30 5627 C 532.774 -1.91088 3.82974 0
M  V30 5628 C 532.1 -3.24789 4.24754 0
M  V30 5629 C 533.4 -1.22535 5.07723 0
M  V30 5630 H 535.094 -0.429093 2.96309 0
M  V30 5631 H 532.64 -0.204952 1.42534 0
M  V30 5632 H 534.593 -2.86258 3.09248 0
M  V30 5633 H 533.317 -2.6826 1.8629 0
M  V30 5634 H 531.976 -1.25297 3.44523 0
M  V30 5635 H 531.624 -3.72809 3.37672 0
M  V30 5636 H 531.324 -3.07538 5.00694 0
M  V30 5637 H 532.848 -3.94205 4.66299 0
M  V30 5638 H 534.262 -1.80783 5.4405 0
M  V30 5639 H 532.659 -1.1558 5.88864 0
M  V30 5640 H 533.729 -0.202692 4.84476 0
M  V30 5641 N 535.072 -1.5615 -0.213296 0
M  V30 5642 C 536.297 -1.83986 -0.957282 0
M  V30 5643 C 536.722 -0.641526 -1.76822 0
M  V30 5644 O 536.08 0.409722 -1.7661 0
M  V30 5645 C 536.128 -3.09889 -1.84393 0
M  V30 5646 O 535.232 -2.89163 -2.94038 0
M  V30 5647 H 534.573 -0.606357 -0.270605 0
M  V30 5648 H 537.103 -2.03369 -0.224111 0
M  V30 5649 H 537.113 -3.40209 -2.25215 0
M  V30 5650 H 535.788 -3.96735 -1.24795 0
M  V30 5651 H 534.365 -2.70097 -2.57103 0
M  V30 5652 N 536.55 0.480323 -1.50102 0
M  V30 5653 C 537.961 1.06142 -1.53593 0
M  V30 5654 C 538.312 1.93335 -0.334055 0
M  V30 5655 O 537.437 2.09188 0.55403 0
M  V30 5656 C 538.032 1.9317 -2.78336 0
M  V30 5657 C 536.591 2.46405 -2.84538 0
M  V30 5658 C 535.738 1.24521 -2.4777 0
M  V30 5659 H 538.689 0.26333 -1.565 0
M  V30 5660 H 538.71 2.78123 -2.59669 0
M  V30 5661 H 538.222 1.29683 -3.65792 0
M  V30 5662 H 536.323 3.13472 -2.01411 0
M  V30 5663 H 536.436 2.82143 -3.87211 0
M  V30 5664 H 534.8 1.57706 -2.00003 0
M  V30 5665 H 535.583 0.627102 -3.37524 0
M  V30 5666 N 538.028 1.39524 0.732853 0
M  V30 5667 C 539.256 1.40143 1.52209 0
M  V30 5668 C 539.671 -0.00348836 1.888 0
M  V30 5669 O 539.028 -0.975357 1.5425 0
M  V30 5670 C 539.079 2.27632 2.8083 0
M  V30 5671 O 538.8 3.62654 2.45792 0
M  V30 5672 C 540.301 2.36658 3.74844 0
M  V30 5673 H 537.521 0.478604 0.470297 0
M  V30 5674 H 540.065 1.83366 0.905388 0
M  V30 5675 H 538.22 1.87818 3.38826 0
M  V30 5676 H 538.634 4.08941 3.28431 0
M  V30 5677 H 540.108 3.02118 4.61984 0
M  V30 5678 H 540.585 1.38638 4.16745 0
M  V30 5679 H 541.191 2.76951 3.22766 0
M  V30 5680 N 539.506 -0.963266 1.24736 0
M  V30 5681 C 540.436 -2.07628 1.06832 0
M  V30 5682 C 541.417 -1.70088 -0.0200566 0
M  V30 5683 O 542.602 -1.93636 0.147854 0
M  V30 5684 C 539.732 -3.40636 0.677069 0
M  V30 5685 C 538.686 -3.9215 1.71471 0
M  V30 5686 C 538.012 -5.21553 1.1784 0
M  V30 5687 C 539.312 -4.19493 3.11164 0
M  V30 5688 H 541.006 -2.22864 1.9993 0
M  V30 5689 H 538.552 -1.07093 0.96266 0
M  V30 5690 H 540.505 -4.17941 0.538792 0
M  V30 5691 H 539.229 -3.25313 -0.289612 0
M  V30 5692 H 537.888 -3.17005 1.84128 0
M  V30 5693 H 537.536 -5.02593 0.202195 0
M  V30 5694 H 537.236 -5.56988 1.87185 0
M  V30 5695 H 538.76 -6.01463 1.05233 0
M  V30 5696 H 540.174 -4.87487 3.01711 0
M  V30 5697 H 538.571 -4.66165 3.77902 0
M  V30 5698 H 539.641 -3.26097 3.58871 0
M  V30 5699 N 540.985 -1.06182 -1.16461 0
M  V30 5700 C 542.396 -0.802426 -1.68576 0
M  V30 5701 C 542.747 0.67412 -1.84255 0
M  V30 5702 O 541.872 1.52303 -1.5373 0
M  V30 5703 C 542.467 -1.45002 -3.06202 0
M  V30 5704 C 541.026 -1.23843 -3.55443 0
M  V30 5705 C 540.173 -1.52724 -2.31454 0
M  V30 5706 H 543.124 -1.22545 -1.00839 0
M  V30 5707 H 543.145 -0.864731 -3.70544 0
M  V30 5708 H 542.657 -2.52466 -2.94759 0
M  V30 5709 H 540.758 -0.183487 -3.72148 0
M  V30 5710 H 540.871 -1.95036 -4.37604 0
M  V30 5711 H 539.235 -0.947726 -2.36411 0
M  V30 5712 H 540.018 -2.61343 -2.22609 0
M  V30 5713 N 542.463 1.3308 -0.844243 0
M  V30 5714 C 543.413 2.26589 -0.253289 0
M  V30 5715 C 544.397 1.49501 0.594836 0
M  V30 5716 O 545.589 1.71291 0.445924 0
M  V30 5717 C 542.718 3.38599 0.566176 0
M  V30 5718 C 541.804 4.23081 -0.293756 0
M  V30 5719 N 542.195 4.86751 -1.37505 0
M  V30 5720 C 540.493 4.45925 -0.0817086 0
M  V30 5721 C 541.194 5.49684 -1.90323 0
M  V30 5722 N 540.17 5.30101 -1.20391 0
M  V30 5723 H 543.972 2.73334 -1.08009 0
M  V30 5724 H 541.486 1.47048 -0.689258 0
M  V30 5725 H 543.483 4.04584 1.00587 0
M  V30 5726 H 542.143 2.93401 1.39089 0
M  V30 5727 H 543.154 4.87151 -1.75796 0
M  V30 5728 H 539.831 4.11434 0.709129 0
M  V30 5729 H 541.221 6.10363 -2.80902 0
M  V30 5730 N 543.941 0.601185 1.45683 0
M  V30 5731 C 544.873 -0.159446 2.28645 0
M  V30 5732 C 545.886 -0.837882 1.39583 0
M  V30 5733 O 547.075 -0.704344 1.64016 0
M  V30 5734 C 544.175 -1.24641 3.15147 0
M  V30 5735 C 543.348 -0.656334 4.32448 0
M  V30 5736 C 542.407 -1.63337 5.00208 0
M  V30 5737 O 541.433 -1.16217 5.57209 0
M  V30 5738 N 542.635 -2.96773 4.98905 0
M  V30 5739 H 545.4 0.5524 2.94565 0
M  V30 5740 H 542.961 0.440223 1.558 0
M  V30 5741 H 544.953 -1.8997 3.57342 0
M  V30 5742 H 543.523 -1.86087 2.51178 0
M  V30 5743 H 542.743 0.174879 3.93812 0
M  V30 5744 H 544.031 -0.242211 5.08223 0
M  V30 5745 H 543.429 -3.37662 4.53873 0
M  V30 5746 H 541.986 -3.57541 5.44984 0
M  V30 5747 N 545.419 -1.53889 0.339982 0
M  V30 5748 C 546.349 -2.27843 -0.510856 0
M  V30 5749 C 547.33 -1.29267 -1.10563 0
M  V30 5750 O 548.515 -1.58104 -1.12768 0
M  V30 5751 C 545.645 -3.04857 -1.66372 0
M  V30 5752 C 544.599 -4.10907 -1.19746 0
M  V30 5753 C 543.925 -4.75855 -2.43857 0
M  V30 5754 C 545.225 -5.21435 -0.300501 0
M  V30 5755 H 546.919 -2.99212 0.106067 0
M  V30 5756 H 544.465 -1.43904 0.0524533 0
M  V30 5757 H 546.418 -3.5533 -2.26537 0
M  V30 5758 H 545.142 -2.31133 -2.30749 0
M  V30 5759 H 543.801 -3.61342 -0.618654 0
M  V30 5760 H 543.449 -3.9873 -3.06633 0
M  V30 5761 H 543.149 -5.47502 -2.13343 0
M  V30 5762 H 544.673 -5.2911 -3.04754 0
M  V30 5763 H 546.087 -5.67565 -0.80889 0
M  V30 5764 H 544.484 -6.00036 -0.0874076 0
M  V30 5765 H 545.554 -4.80328 0.664321 0
M  V30 5766 O 546.936 -0.208127 -1.60153 0
M  V30 5767 H 547.627 0.374888 -1.90038 0
M  V30 END ATOM
M  V30 BEGIN BOND
M  V30 END BOND
M  V30 END CTAB
M  END
$$$$
