drugbank_target|Q2M2I8 AP2-associated protein kinase 1 (DB12010)
 OpenBabel12092121143D

  0  0  0     0  0            999 V3000
M  V30 BEGIN CTAB
M  V30 COUNTS 14547 14709 0 0 0
M  V30 BEGIN ATOM
M  V30 1 H -0.908 1.98254 -0.117106 0
M  V30 2 N 0 1.576 0 0
M  V30 3 C 0.933 2.03868 1.02534 0
M  V30 4 C 1.911 0.928543 1.3348 0
M  V30 5 O 3.095 1.19667 1.45644 0
M  V30 6 C 0.222 2.43627 2.35294 0
M  V30 7 C -0.732 3.65373 2.2001 0
M  V30 8 S 0.101 5.13292 1.52614 0
M  V30 9 C 1.257 5.56322 2.86805 0
M  V30 10 H 1.49 2.90518 0.631377 0
M  V30 11 H -0.977 1.52953 0.210867 0
M  V30 12 H 0.981 2.67203 3.11629 0
M  V30 13 H -0.358 1.57376 2.7183 0
M  V30 14 H -1.165 3.90944 3.18086 0
M  V30 15 H -1.563 3.418 1.51819 0
M  V30 16 H 0.729 5.58782 3.83104 0
M  V30 17 H 1.672 6.56266 2.65933 0
M  V30 18 H 2.08 4.83886 2.90714 0
M  V30 19 N 1.4781 -0.272755 1.55222 0
M  V30 20 C 2.4251 -1.33716 1.88119 0
M  V30 21 C 3.3951 -1.49066 0.73271 0
M  V30 22 O 4.5801 -1.63469 0.984002 0
M  V30 23 C 1.7201 -2.69238 2.15882 0
M  V30 24 C 0.8331 -2.62108 3.43399 0
M  V30 25 C -0.0319 -3.89811 3.60861 0
M  V30 26 C -0.9929 -3.77193 4.8207 0
M  V30 27 N -1.8559 -4.9673 4.96189 0
M  V30 28 H 2.9841 -1.04962 2.78903 0
M  V30 29 H 0.5211 -0.507088 1.38083 0
M  V30 30 H 2.4791 -3.48089 2.29978 0
M  V30 31 H 1.1091 -2.96194 1.28331 0
M  V30 32 H 0.1611 -1.74967 3.37773 0
M  V30 33 H 1.4731 -2.48685 4.32386 0
M  V30 34 H 0.6271 -4.77103 3.74777 0
M  V30 35 H -0.6339 -4.06102 2.7006 0
M  V30 36 H -1.6289 -2.88284 4.68159 0
M  V30 37 H -0.4039 -3.62421 5.74307 0
M  V30 38 H -2.4579 -5.13431 4.08319 0
M  V30 39 H -2.5409 -4.85839 5.79221 0
M  V30 40 H -1.2729 -5.85594 5.1449 0
M  V30 41 N 2.9562 -1.48159 -0.537278 0
M  V30 42 C 3.9032 -1.62138 -1.64256 0
M  V30 43 C 4.8732 -0.463668 -1.59497 0
M  V30 44 O 6.0582 -0.686241 -1.78032 0
M  V30 45 C 3.1982 -1.66028 -3.02537 0
M  V30 46 C 2.3112 -2.92855 -3.17585 0
M  V30 47 C 1.4462 -2.87952 -4.46382 0
M  V30 48 C 0.4852 -4.09516 -4.54932 0
M  V30 49 N -0.3778 -4.02733 -5.75109 0
M  V30 50 H 4.4622 -2.56529 -1.51647 0
M  V30 51 H 1.9992 -1.27224 -0.738414 0
M  V30 52 H 3.9572 -1.66265 -3.82638 0
M  V30 53 H 2.5872 -0.751331 -3.13934 0
M  V30 54 H 1.6392 -3.02395 -2.30784 0
M  V30 55 H 2.9512 -3.82822 -3.19764 0
M  V30 56 H 2.1052 -2.8655 -5.34765 0
M  V30 57 H 0.8442 -1.95702 -4.46712 0
M  V30 58 H -0.1508 -4.11201 -3.64957 0
M  V30 59 H 1.0742 -5.02917 -4.56346 0
M  V30 60 H -0.9798 -3.13299 -5.76351 0
M  V30 61 H -1.0628 -4.86397 -5.78752 0
M  V30 62 H 0.2052 -4.05379 -6.65799 0
M  V30 63 N 4.4343 0.785586 -1.36625 0
M  V30 64 C 5.6813 1.54362 -1.31067 0
M  V30 65 C 6.0093 1.94195 0.10893 0
M  V30 66 O 5.2643 1.63262 1.07908 0
M  V30 67 C 5.5633 2.83007 -2.1827 0
M  V30 68 C 5.2293 2.62294 -3.6676 0
M  V30 69 C 3.8913 2.56353 -4.0723 0
M  V30 70 C 6.2433 2.43371 -4.6089 0
M  V30 71 C 3.5713 2.29461 -5.39967 0
M  V30 72 C 5.9233 2.18005 -5.93849 0
M  V30 73 C 4.5873 2.105 -6.3344 0
M  V30 74 H 3.8573 0.564851 -0.479609 0
M  V30 75 H 6.5043 0.906028 -1.68711 0
M  V30 76 H 4.8093 3.51253 -1.73576 0
M  V30 77 H 6.5063 3.40817 -2.11292 0
M  V30 78 H 3.0963 2.67774 -3.34656 0
M  V30 79 H 7.2803 2.46959 -4.30494 0
M  V30 80 H 2.5363 2.22135 -5.69619 0
M  V30 81 H 6.7103 2.02359 -6.66351 0
M  V30 82 H 4.3373 1.89425 -7.36222 0
M  V30 83 N 5.9124 1.20967 1.01018 0
M  V30 84 C 7.1594 1.02374 1.74716 0
M  V30 85 C 7.4874 -0.443375 1.89379 0
M  V30 86 O 6.7424 -1.34535 1.42123 0
M  V30 87 C 7.0414 1.65997 3.16512 0
M  V30 88 C 6.7074 3.15831 3.2181 0
M  V30 89 C 5.3694 3.56719 3.22963 0
M  V30 90 C 7.7214 4.11816 3.19464 0
M  V30 91 C 5.0494 4.92107 3.19449 0
M  V30 92 C 7.4014 5.47158 3.17491 0
M  V30 93 C 6.0654 5.87451 3.16951 0
M  V30 94 H 5.3354 0.374614 0.639332 0
M  V30 95 H 7.9824 1.50485 1.18434 0
M  V30 96 H 6.2874 1.10166 3.75993 0
M  V30 97 H 7.9844 1.49119 3.72242 0
M  V30 98 H 4.5744 2.83263 3.21652 0
M  V30 99 H 8.7584 3.81257 3.17737 0
M  V30 100 H 4.0144 5.22579 3.17366 0
M  V30 101 H 8.1884 6.21274 3.14629 0
M  V30 102 H 5.8154 6.92329 3.13983 0
M  V30 103 N 7.3905 -1.2043 1.01659 0
M  V30 104 C 8.6675 -1.8548 0.621004 0
M  V30 105 C 9.0475 -1.9091 -0.900919 0
M  V30 106 O 8.3955 -1.41694 -1.79263 0
M  V30 107 C 8.6055 -3.25119 1.2688 0
M  V30 108 C 9.9535 -4.01403 1.38423 0
M  V30 109 O 10.9775 -3.34473 1.22501 0
M  V30 110 O 9.8365 -5.21265 1.64151 0
M  V30 111 H 6.9305 -0.798761 0.214266 0
M  V30 112 H 9.4765 -1.28019 1.11396 0
M  V30 113 H 8.2485 -3.15932 2.30873 0
M  V30 114 H 7.8715 -3.90212 0.762917 0
M  V30 115 N 8.8686 -0.792821 -1.36206 0
M  V30 116 C 10.0936 -0.377701 -2.03932 0
M  V30 117 C 10.5186 0.998947 -1.59382 0
M  V30 118 O 9.8766 1.64421 -0.763903 0
M  V30 119 C 9.9246 -0.453635 -3.57735 0
M  V30 120 O 9.0286 0.538151 -4.08874 0
M  V30 121 H 8.3696 -0.159855 -0.644471 0
M  V30 122 H 10.8996 -1.07488 -1.7409 0
M  V30 123 H 10.9096 -0.318464 -4.06755 0
M  V30 124 H 9.5846 -1.45784 -3.89512 0
M  V30 125 H 8.1616 0.364359 -3.71116 0
M  V30 126 N 10.3467 1.47872 -0.545128 0
M  V30 127 C 11.7627 1.5829 -0.204032 0
M  V30 128 C 11.9627 1.54529 1.29317 0
M  V30 129 O 11.0187 1.44232 2.07252 0
M  V30 130 C 12.3317 2.89304 -0.819987 0
M  V30 131 C 13.8797 3.02864 -0.790105 0
M  V30 132 C 14.3547 4.3656 -1.38491 0
M  V30 133 N 15.8457 4.43165 -1.34755 0
M  V30 134 C 16.5807 5.45153 -1.77753 0
M  V30 135 N 16.0767 6.54016 -2.2855 0
M  V30 136 N 17.8697 5.36125 -1.68897 0
M  V30 137 H 10.0207 1.4856 -1.51802 0
M  V30 138 H 12.2837 0.706305 -0.632327 0
M  V30 139 H 11.9897 2.97757 -1.87173 0
M  V30 140 H 11.8637 3.75957 -0.305915 0
M  V30 141 H 14.2507 2.94014 0.252913 0
M  V30 142 H 14.3317 2.17782 -1.34181 0
M  V30 143 H 13.9757 4.46164 -2.42693 0
M  V30 144 H 13.9057 5.20353 -0.808754 0
M  V30 145 H 16.3967 3.65083 -0.975855 0
M  V30 146 H 16.7097 7.27994 -2.59314 0
M  V30 147 H 15.0547 6.54938 -2.32553 0
M  V30 148 H 18.2457 4.49975 -1.28998 0
M  V30 149 H 18.4187 6.15472 -2.02726 0
M  V30 150 N 11.8248 0.280983 1.55075 0
M  V30 151 C 13.2408 -0.0729964 1.59433 0
M  V30 152 C 13.4408 -1.5411 1.29817 0
M  V30 153 O 12.4968 -2.29086 1.06187 0
M  V30 154 C 13.8098 0.306921 2.9913 0
M  V30 155 C 15.3578 0.254023 3.11968 0
M  V30 156 C 15.8328 0.608467 4.5394 0
M  V30 157 N 17.3238 0.560241 4.59799 0
M  V30 158 C 18.0588 0.80722 5.6769 0
M  V30 159 N 17.5548 1.11912 6.83701 0
M  V30 160 N 19.3478 0.735623 5.57266 0
M  V30 161 H 11.4988 1.238 1.7259 0
M  V30 162 H 13.7618 0.500547 0.805082 0
M  V30 163 H 13.4678 1.32816 3.25657 0
M  V30 164 H 13.3418 -0.349363 3.75579 0
M  V30 165 H 15.7288 -0.75794 2.852 0
M  V30 166 H 15.8098 0.944649 2.37718 0
M  V30 167 H 15.4538 1.61814 4.81434 0
M  V30 168 H 15.3838 -0.104013 5.26497 0
M  V30 169 H 17.8748 0.329288 3.76463 0
M  V30 170 H 18.1878 1.29409 7.61888 0
M  V30 171 H 16.5328 1.15695 6.85303 0
M  V30 172 H 19.7238 0.491752 4.6551 0
M  V30 173 H 19.8968 0.931482 6.4127 0
M  V30 174 N 13.3029 -1.57598 0.00835791 0
M  V30 175 C 14.2129 -2.12385 -0.996487 0
M  V30 176 C 15.2289 -1.07108 -1.37127 0
M  V30 177 O 16.4049 -1.39055 -1.4569 0
M  V30 178 C 13.4699 -2.62314 -2.26699 0
M  V30 179 C 12.5309 -3.82225 -1.95456 0
M  V30 180 C 11.7639 -4.29763 -3.16449 0
M  V30 181 O 11.9869 -3.76584 -4.28416 0
M  V30 182 O 10.9209 -5.21832 -2.99958 0
M  V30 183 H 14.7469 -2.98479 -0.560725 0
M  V30 184 H 12.3319 -1.47903 -0.210987 0
M  V30 185 H 14.2139 -2.94589 -3.01322 0
M  V30 186 H 12.8889 -1.79313 -2.69497 0
M  V30 187 H 11.7959 -3.54909 -1.18282 0
M  V30 188 H 13.1289 -4.66324 -1.57489 0
M  V30 189 N 14.781 0.264519 -1.55364 0
M  V30 190 C 15.713 1.34965 -1.85248 0
M  V30 191 C 16.726 1.45136 -0.737525 0
M  V30 192 O 17.915 1.46801 -1.01547 0
M  V30 193 C 15.015 2.73008 -2.00797 0
M  V30 194 C 14.188 2.85324 -3.31525 0
M  V30 195 C 13.247 4.04097 -3.37034 0
M  V30 196 O 12.273 3.94455 -4.10358 0
M  V30 197 N 13.475 5.16458 -2.65049 0
M  V30 198 H 16.24 1.09672 -2.78913 0
M  V30 199 H 13.801 0.454635 -1.55386 0
M  V30 200 H 15.793 3.50772 -2.01844 0
M  V30 201 H 14.363 2.91087 -1.1396 0
M  V30 202 H 13.583 1.94377 -3.42945 0
M  V30 203 H 14.871 2.9049 -4.17724 0
M  V30 204 H 14.269 5.27181 -2.05175 0
M  V30 205 H 12.826 5.92422 -2.71809 0
M  V30 206 N 16.2591 1.48442 0.529413 0
M  V30 207 C 17.5071 1.56179 1.28267 0
M  V30 208 C 17.8281 0.237721 1.93546 0
M  V30 209 O 17.0981 -0.740779 1.81354 0
M  V30 210 H 15.6781 0.575367 0.476405 0
M  V30 211 H 18.3401 1.84909 0.61602 0
M  V30 212 H 17.4361 2.34312 2.06165 0
M  V30 213 N 17.7372 -0.778329 1.37039 0
M  V30 214 C 18.9852 -1.53361 1.31623 0
M  V30 215 C 19.3062 -1.94739 -0.100831 0
M  V30 216 O 18.5762 -1.65797 -1.04347 0
M  V30 217 H 17.1562 -0.568794 0.484234 0
M  V30 218 H 19.8182 -0.926742 1.71457 0
M  V30 219 H 18.9142 -2.43606 1.95096 0
M  V30 220 N 19.2153 -1.21501 -1.00376 0
M  V30 221 C 20.4403 -1.05977 -1.78279 0
M  V30 222 C 20.8653 0.385994 -1.84097 0
M  V30 223 O 20.2233 1.27849 -1.28547 0
M  V30 224 C 20.2713 -1.66302 -3.19963 0
M  V30 225 O 19.3753 -0.909333 -4.0225 0
M  V30 226 H 18.7163 -0.372906 -0.549397 0
M  V30 227 H 21.2463 -1.6107 -1.26165 0
M  V30 228 H 21.2563 -1.70574 -3.70632 0
M  V30 229 H 19.9313 -2.71515 -3.15043 0
M  V30 230 H 18.5083 -0.941795 -3.60811 0
M  V30 231 N 20.6934 1.19889 -1.02296 0
M  V30 232 C 21.9414 1.89046 -0.714558 0
M  V30 233 C 22.2624 1.79636 0.758681 0
M  V30 234 O 21.5324 1.20292 1.54618 0
M  V30 235 H 20.1124 0.699802 -0.261317 0
M  V30 236 H 22.7744 1.45574 -1.29592 0
M  V30 237 H 21.8704 2.95524 -1.0036 0
M  V30 238 N 22.1715 0.800033 1.35784 0
M  V30 239 C 23.1015 0.220184 2.3246 0
M  V30 240 C 24.0825 -0.65073 1.57161 0
M  V30 241 O 25.2675 -0.582359 1.85263 0
M  V30 242 C 22.3975 -0.637353 3.41402 0
M  V30 243 C 21.3515 0.134531 4.27789 0
M  V30 244 C 20.6775 -0.844285 5.27992 0
M  V30 245 C 21.9775 1.32979 5.05088 0
M  V30 246 H 23.6715 1.02787 2.81203 0
M  V30 247 H 21.2175 0.495717 1.35199 0
M  V30 248 H 23.1705 -1.05302 4.08031 0
M  V30 249 H 21.8945 -1.47785 2.91251 0
M  V30 250 H 20.5535 0.531296 3.6273 0
M  V30 251 H 20.2015 -1.68011 4.74111 0
M  V30 252 H 19.9015 -0.332184 5.8666 0
M  V30 253 H 21.4255 -1.2583 5.97494 0
M  V30 254 H 22.8395 0.98934 5.64699 0
M  V30 255 H 21.2365 1.77593 5.7322 0
M  V30 256 H 22.3065 2.11978 4.36111 0
M  V30 257 N 23.6496 -1.47581 0.552962 0
M  V30 258 C 24.8976 -2.02082 0.0272703 0
M  V30 259 C 25.2186 -1.4301 -1.32563 0
M  V30 260 O 24.4886 -0.603745 -1.86365 0
M  V30 261 H 23.0686 -0.746966 0.00709182 0
M  V30 262 H 25.7306 -1.81033 0.722008 0
M  V30 263 H 24.8266 -3.12034 -0.0639951 0
M  V30 264 N 25.1277 -0.289203 -1.54924 0
M  V30 265 C 26.3527 0.329299 -2.04769 0
M  V30 266 C 26.7777 1.4763 -1.16564 0
M  V30 267 O 26.1357 1.80527 -0.167186 0
M  V30 268 C 26.1837 0.774438 -3.52186 0
M  V30 269 O 25.2877 1.88038 -3.67036 0
M  V30 270 H 24.6287 0.0659259 -0.660719 0
M  V30 271 H 27.1587 -0.42761 -2.00082 0
M  V30 272 H 27.1687 1.06642 -3.93816 0
M  V30 273 H 25.8437 -0.0646707 -4.1585 0
M  V30 274 H 24.4207 1.58985 -3.3731 0
M  V30 275 N 26.6058 1.57591 -0.0167156 0
M  V30 276 C 27.8538 1.90906 0.663285 0
M  V30 277 C 28.1748 0.892509 1.73376 0
M  V30 278 O 27.4448 -0.0677623 1.95783 0
M  V30 279 H 26.0248 0.704637 0.247983 0
M  V30 280 H 28.6868 1.94803 -0.0615909 0
M  V30 281 H 27.7828 2.9116 1.12393 0
M  V30 282 N 28.0839 -0.256276 1.55502 0
M  V30 283 C 29.3089 -1.00766 1.81276 0
M  V30 284 C 29.7339 -1.78524 0.59252 0
M  V30 285 O 29.0919 -1.75413 -0.45827 0
M  V30 286 C 29.1399 -1.92869 3.04687 0
M  V30 287 O 28.2439 -3.019 2.80945 0
M  V30 288 H 27.5849 -0.287224 0.598664 0
M  V30 289 H 30.1149 -0.280109 2.02674 0
M  V30 290 H 30.1249 -2.34511 3.33869 0
M  V30 291 H 28.7999 -1.35689 3.93143 0
M  V30 292 H 27.3769 -2.64454 2.62904 0
M  V30 293 N 29.562 -1.4872 -0.521534 0
M  V30 294 C 30.787 -1.61101 -1.30618 0
M  V30 295 C 31.212 -0.274611 -1.86085 0
M  V30 296 O 30.57 0.754937 -1.64834 0
M  V30 297 C 30.618 -2.66709 -2.4269 0
M  V30 298 O 29.722 -2.24456 -3.45967 0
M  V30 299 H 29.063 -0.539921 -0.386499 0
M  V30 300 H 31.593 -1.94767 -0.626645 0
M  V30 301 H 31.603 -2.88245 -2.88754 0
M  V30 302 H 30.278 -3.63727 -2.01682 0
M  V30 303 H 28.855 -2.13168 -3.05964 0
M  V30 304 N 31.0401 0.771051 -1.3745 0
M  V30 305 C 32.2881 1.52661 -1.32435 0
M  V30 306 C 32.6091 1.9479 0.0905024 0
M  V30 307 O 31.8791 1.66348 1.03466 0
M  V30 308 H 30.4591 0.566218 -0.487244 0
M  V30 309 H 33.1211 0.917636 -1.71946 0
M  V30 310 H 32.2171 2.42568 -1.96385 0
M  V30 311 N 32.5182 1.22032 0.997298 0
M  V30 312 C 33.7662 1.04016 1.73278 0
M  V30 313 C 34.0872 -0.426255 1.90284 0
M  V30 314 O 33.3572 -1.30694 1.45931 0
M  V30 315 H 31.9372 0.381897 0.642 0
M  V30 316 H 34.5992 1.5347 1.20137 0
M  V30 317 H 33.6952 1.51441 2.72896 0
M  V30 318 N 33.9963 -1.19345 1.0293 0
M  V30 319 C 35.2443 -1.88665 0.724574 0
M  V30 320 C 35.5653 -1.80036 -0.749144 0
M  V30 321 O 34.8353 -1.2111 -1.53978 0
M  V30 322 H 33.4153 -0.698406 0.265025 0
M  V30 323 H 36.0773 -1.44885 1.30362 0
M  V30 324 H 35.1733 -2.94987 1.01926 0
M  V30 325 N 35.4744 -0.807222 -1.35358 0
M  V30 326 C 36.7224 -0.387122 -1.98358 0
M  V30 327 C 37.0434 1.04942 -1.64354 0
M  V30 328 O 36.3134 1.72615 -0.926339 0
M  V30 329 H 34.8934 -0.140154 -0.733734 0
M  V30 330 H 37.5554 -1.0332 -1.6526 0
M  V30 331 H 36.6514 -0.493352 -3.08176 0
M  V30 332 N 36.9525 1.47285 -0.560781 0
M  V30 333 C 38.1775 2.07359 -0.0410566 0
M  V30 334 C 38.6025 1.41017 1.24483 0
M  V30 335 O 37.9605 0.486368 1.74654 0
M  V30 336 C 38.0085 3.6035 0.134123 0
M  V30 337 O 37.1125 3.94681 1.19587 0
M  V30 338 H 36.4535 0.661887 -0.0529291 0
M  V30 339 H 38.9835 1.89252 -0.777482 0
M  V30 340 H 38.9935 4.0652 0.347207 0
M  V30 341 H 37.6685 4.08034 -0.805047 0
M  V30 342 H 36.2455 3.60251 0.962987 0
M  V30 343 N 38.4306 0.297415 1.54768 0
M  V30 344 C 39.6586 -0.315623 2.04478 0
M  V30 345 C 40.0736 -1.47792 1.17486 0
M  V30 346 O 39.4306 -1.81404 0.19971 0
M  V30 347 C 39.4816 -0.7753 3.53088 0
M  V30 348 O 39.2026 0.340732 4.36773 0
M  V30 349 C 40.7036 -1.45386 4.18781 0
M  V30 350 H 37.9236 -0.0690887 0.667434 0
M  V30 351 H 40.4676 0.436003 1.99798 0
M  V30 352 H 38.6226 -1.47696 3.58141 0
M  V30 353 H 39.0366 -0.0165035 5.24497 0
M  V30 354 H 40.5106 -1.72669 5.24299 0
M  V30 355 H 40.9876 -2.39275 3.68299 0
M  V30 356 H 41.5936 -0.795475 4.17795 0
M  V30 357 N 39.9087 -1.5758 0.0250728 0
M  V30 358 C 41.1337 -1.96337 -0.668317 0
M  V30 359 C 41.5587 -0.901314 -1.651 0
M  V30 360 O 40.9167 0.138187 -1.80773 0
M  V30 361 C 40.9647 -3.34191 -1.35457 0
M  V30 362 O 40.0687 -3.30269 -2.46974 0
M  V30 363 H 39.4097 -0.640281 -0.175887 0
M  V30 364 H 41.9397 -2.0442 0.0857224 0
M  V30 365 H 41.9497 -3.70331 -1.71228 0
M  V30 366 H 40.6247 -4.11036 -0.634218 0
M  V30 367 H 39.2017 -3.05841 -2.13344 0
M  V30 368 N 41.3868 0.248026 -1.55636 0
M  V30 369 C 42.6348 0.974295 -1.77065 0
M  V30 370 C 42.9558 1.85897 -0.588849 0
M  V30 371 O 42.2258 1.91868 0.395407 0
M  V30 372 H 40.8058 0.362733 -0.653019 0
M  V30 373 H 43.4678 0.266244 -1.93073 0
M  V30 374 H 42.5638 1.59667 -2.68166 0
M  V30 375 N 42.8649 1.48995 0.513639 0
M  V30 376 C 43.7949 1.67636 1.62544 0
M  V30 377 C 44.7759 0.525087 1.61793 0
M  V30 378 O 45.9609 0.759502 1.78732 0
M  V30 379 C 43.0909 1.73114 3.01079 0
M  V30 380 C 42.0449 2.87905 3.16693 0
M  V30 381 C 41.3709 2.78486 4.56453 0
M  V30 382 C 42.6709 4.29005 2.97913 0
M  V30 383 H 44.3649 2.60716 1.47198 0
M  V30 384 H 41.9109 1.25465 0.706714 0
M  V30 385 H 43.8639 1.84742 3.78746 0
M  V30 386 H 42.5879 0.766241 3.17484 0
M  V30 387 H 41.2469 2.75859 2.41448 0
M  V30 388 H 40.8949 1.7993 4.69717 0
M  V30 389 H 40.5949 3.55523 4.67843 0
M  V30 390 H 42.1189 2.92104 5.36197 0
M  V30 391 H 43.5329 4.41798 3.65359 0
M  V30 392 H 41.9299 5.07166 3.20785 0
M  V30 393 H 42.9999 4.44329 1.94165 0
M  V30 394 N 44.343 -0.763751 1.37857 0
M  V30 395 C 45.591 -1.51957 1.33243 0
M  V30 396 C 45.912 -1.94835 -0.0801709 0
M  V30 397 O 45.182 -1.66894 -1.02582 0
M  V30 398 H 43.762 -0.563626 0.49024 0
M  V30 399 H 46.424 -0.908504 1.7243 0
M  V30 400 H 45.52 -2.41523 1.97669 0
M  V30 401 N 45.8211 -1.22559 -0.990812 0
M  V30 402 C 47.0461 -1.07862 -1.77145 0
M  V30 403 C 47.4711 0.366447 -1.84496 0
M  V30 404 O 46.8291 1.26478 -1.29896 0
M  V30 405 C 46.8771 -1.69686 -3.18181 0
M  V30 406 O 45.9811 -0.951946 -4.01263 0
M  V30 407 H 45.3221 -0.378712 -0.545411 0
M  V30 408 H 47.8521 -1.62399 -1.2445 0
M  V30 409 H 47.8621 -1.74496 -3.68802 0
M  V30 410 H 46.5371 -2.74841 -3.12146 0
M  V30 411 H 45.1141 -0.980011 -3.59792 0
M  V30 412 N 47.2992 1.18797 -1.03562 0
M  V30 413 C 48.5472 1.88278 -0.734569 0
M  V30 414 C 48.8682 1.8043 0.739586 0
M  V30 415 O 48.1382 1.21925 1.53333 0
M  V30 416 H 46.7182 0.696991 -0.268725 0
M  V30 417 H 49.3802 1.44192 -1.31129 0
M  V30 418 H 48.4762 2.94443 -1.03489 0
M  V30 419 N 48.7773 0.814389 1.34928 0
M  V30 420 C 50.0073 0.41054 2.0248 0
M  V30 421 C 50.4153 -0.985625 1.61499 0
M  V30 422 O 49.7583 -1.64781 0.811976 0
M  V30 423 C 49.8203 0.423384 3.56998 0
M  V30 424 C 49.4843 1.77141 4.21272 0
M  V30 425 C 50.4813 2.73093 4.42398 0
M  V30 426 C 48.1663 2.05755 4.58225 0
M  V30 427 C 50.1603 3.95838 4.9959 0
M  V30 428 C 47.8473 3.28762 5.1513 0
M  V30 429 C 48.8453 4.23621 5.35755 0
M  V30 430 O 48.5333 5.44456 5.91458 0
M  V30 431 H 48.2653 0.163997 0.655806 0
M  V30 432 H 50.8193 1.10155 1.73364 0
M  V30 433 H 49.0493 -0.324276 3.85338 0
M  V30 434 H 50.7383 0.0407683 4.0588 0
M  V30 435 H 51.5043 2.5228 4.14222 0
M  V30 436 H 47.3833 1.32727 4.4148 0
M  V30 437 H 50.9273 4.69891 5.15605 0
M  V30 438 H 46.8243 3.49443 5.42734 0
M  V30 439 H 47.5923 5.4586 6.09901 0
M  V30 440 N 50.2554 -1.46986 0.568584 0
M  V30 441 C 51.5044 -2.01646 0.0465894 0
M  V30 442 C 51.8174 -1.44721 -1.31587 0
M  V30 443 O 53.0234 -1.91113 -1.92842 0
M  V30 444 C 51.4794 -3.59885 0.032752 0
M  V30 445 C 51.0874 -4.25804 1.39266 0
M  V30 446 C 52.8314 -4.22255 -0.436038 0
M  V30 447 C 50.7384 -5.76081 1.33732 0
M  V30 448 H 49.6684 -0.753876 0.013647 0
M  V30 449 H 52.3194 -1.68864 0.718131 0
M  V30 450 H 50.7014 -3.8968 -0.704669 0
M  V30 451 H 51.8754 -4.07637 2.1487 0
M  V30 452 H 50.1904 -3.7547 1.80032 0
M  V30 453 H 52.7874 -5.32394 -0.49602 0
M  V30 454 H 53.1304 -3.90212 -1.45053 0
M  V30 455 H 53.6634 -3.97033 0.246877 0
M  V30 456 H 50.4024 -6.12761 2.32817 0
M  V30 457 H 49.9224 -5.96553 0.623267 0
M  V30 458 H 51.6014 -6.38518 1.0442 0
M  V30 459 N 51.7335 -0.305618 -1.54608 0
M  V30 460 C 52.9815 0.301701 -1.99835 0
M  V30 461 C 53.3025 1.54054 -1.19551 0
M  V30 462 O 52.5725 1.93702 -0.292658 0
M  V30 463 H 51.1525 0.114468 -0.738178 0
M  V30 464 H 53.8145 -0.418016 -1.90364 0
M  V30 465 H 52.9105 0.570548 -3.06841 0
M  V30 466 N 53.2116 1.57565 -0.0334293 0
M  V30 467 C 54.6276 1.56297 0.322997 0
M  V30 468 C 54.8276 1.03945 1.7262 0
M  V30 469 O 53.8836 0.688109 2.42943 0
M  V30 470 C 55.1966 3.00232 0.167664 0
M  V30 471 C 56.7446 3.12078 0.240107 0
M  V30 472 C 57.2196 4.57859 0.113513 0
M  V30 473 N 58.7106 4.62887 0.170359 0
M  V30 474 C 59.4456 5.73319 0.0962517 0
M  V30 475 N 58.9416 6.92794 -0.0291881 0
M  V30 476 N 60.7346 5.61898 0.150551 0
M  V30 477 H 52.8856 1.89923 -0.950956 0
M  V30 478 H 55.1486 0.873824 -0.367608 0
M  V30 479 H 54.8546 3.42501 -0.799102 0
M  V30 480 H 54.7286 3.654 0.936083 0
M  V30 481 H 57.1156 2.69718 1.19733 0
M  V30 482 H 57.1966 2.49623 -0.558763 0
M  V30 483 H 56.8406 5.009 -0.840314 0
M  V30 484 H 56.7706 5.18299 0.931302 0
M  V30 485 H 59.2616 3.76954 0.26728 0
M  V30 486 H 59.5746 7.7276 -0.0789252 0
M  V30 487 H 57.9196 6.94971 -0.0640299 0
M  V30 488 H 61.1106 4.67448 0.246981 0
M  V30 489 H 61.2836 6.47938 0.0893365 0
M  V30 490 N 54.6897 -0.239769 1.55765 0
M  V30 491 C 55.9357 -0.968234 1.78194 0
M  V30 492 C 56.2687 -1.84701 0.599938 0
M  V30 493 O 55.5437 -1.9031 -0.401524 0
M  V30 494 C 55.8267 -1.8227 3.10564 0
M  V30 495 C 55.6797 -0.971633 4.3918 0
M  V30 496 C 56.9987 -2.80388 3.39221 0
M  V30 497 H 54.1177 -0.350572 0.648281 0
M  V30 498 H 56.7597 -0.238259 1.885 0
M  V30 499 H 54.9097 -2.44507 3.01908 0
M  V30 500 H 56.5817 -0.367408 4.59835 0
M  V30 501 H 54.8247 -0.276276 4.32919 0
M  V30 502 H 55.4957 -1.60346 5.28198 0
M  V30 503 H 57.9717 -2.28287 3.47885 0
M  V30 504 H 56.8477 -3.3729 4.33044 0
M  V30 505 H 57.1087 -3.57212 2.60484 0
M  V30 506 N 56.1678 -1.49265 -0.50573 0
M  V30 507 C 57.4148 -1.58513 -1.26015 0
M  V30 508 C 57.7428 -0.26972 -1.92621 0
M  V30 509 O 56.9978 0.741997 -1.81088 0
M  V30 510 C 57.2968 -2.69008 -2.35308 0
M  V30 511 C 56.9628 -4.10662 -1.86192 0
M  V30 512 C 55.6248 -4.49212 -1.72516 0
M  V30 513 C 57.9768 -4.99336 -1.49375 0
M  V30 514 C 55.3048 -5.74214 -1.20394 0
M  V30 515 C 57.6568 -6.24852 -0.987072 0
M  V30 516 C 56.3208 -6.62236 -0.836669 0
M  V30 517 H 55.5908 -0.580041 -0.461122 0
M  V30 518 H 58.2378 -1.83078 -0.561665 0
M  V30 519 H 56.5428 -2.38396 -3.10926 0
M  V30 520 H 58.2398 -2.73373 -2.93374 0
M  V30 521 H 54.8298 -3.8023 -1.97795 0
M  V30 522 H 59.0138 -4.70212 -1.5879 0
M  V30 523 H 54.2698 -6.01883 -1.07458 0
M  V30 524 H 58.4438 -6.92944 -0.692983 0
M  V30 525 H 56.0708 -7.58979 -0.430607 0
M  V30 526 N 57.6459 0.756429 -1.3826 0
M  V30 527 C 58.8939 1.51248 -1.34047 0
M  V30 528 C 59.2149 1.94875 0.0698372 0
M  V30 529 O 58.4849 1.67436 1.01696 0
M  V30 530 H 57.0649 0.561018 -0.493222 0
M  V30 531 H 59.7269 0.899347 -1.7291 0
M  V30 532 H 58.8229 2.40472 -1.98947 0
M  V30 533 N 59.124 1.23083 0.984299 0
M  V30 534 C 60.373 1.05466 1.71929 0
M  V30 535 C 60.686 -0.409211 1.91272 0
M  V30 536 O 61.892 -0.705226 2.62181 0
M  V30 537 C 60.348 1.83874 3.09384 0
M  V30 538 C 59.956 3.34566 2.97943 0
M  V30 539 C 61.7 1.74734 3.8687 0
M  V30 540 C 59.607 4.05381 4.30605 0
M  V30 541 H 58.537 0.391039 0.644674 0
M  V30 542 H 61.188 1.47013 1.09815 0
M  V30 543 H 59.57 1.35131 3.72231 0
M  V30 544 H 60.744 3.90767 2.44209 0
M  V30 545 H 59.059 3.44476 2.33934 0
M  V30 546 H 61.656 2.24957 4.85076 0
M  V30 547 H 61.999 0.709372 4.10212 0
M  V30 548 H 62.532 2.21067 3.30717 0
M  V30 549 H 59.271 5.09467 4.1246 0
M  V30 550 H 58.791 3.53967 4.84218 0
M  V30 551 H 60.47 4.11458 4.99311 0
M  V30 552 N 60.6021 -1.18246 1.0419 0
M  V30 553 C 61.8501 -1.87886 0.744543 0
M  V30 554 C 62.1711 -1.8082 -0.730006 0
M  V30 555 O 61.4411 -1.22736 -1.52685 0
M  V30 556 H 60.0211 -0.695556 0.272417 0
M  V30 557 H 62.6831 -1.43494 1.31892 0
M  V30 558 H 61.7791 -2.9389 1.05049 0
M  V30 559 N 62.0802 -0.821533 -1.34494 0
M  V30 560 C 63.4962 -0.507117 -1.51329 0
M  V30 561 C 63.6962 0.968964 -1.76673 0
M  V30 562 O 62.7522 1.75348 -1.81685 0
M  V30 563 C 64.0652 -1.36544 -2.67911 0
M  V30 564 C 65.6132 -1.36242 -2.81793 0
M  V30 565 C 66.0882 -2.2052 -4.01416 0
M  V30 566 N 67.5792 -2.18136 -4.08621 0
M  V30 567 C 68.3142 -2.80095 -5.00334 0
M  V30 568 N 67.8102 -3.51039 -5.9728 0
M  V30 569 N 69.6032 -2.69656 -4.93196 0
M  V30 570 H 61.7542 -1.77729 -1.16302 0
M  V30 571 H 64.0172 -0.757291 -0.570276 0
M  V30 572 H 63.7232 -2.41361 -2.55808 0
M  V30 573 H 63.5972 -1.02917 -3.62888 0
M  V30 574 H 65.9842 -0.322041 -2.93338 0
M  V30 575 H 66.0652 -1.73866 -1.87628 0
M  V30 576 H 65.7092 -3.24607 -3.90631 0
M  V30 577 H 65.6392 -1.80247 -4.94791 0
M  V30 578 H 68.1302 -1.6653 -3.39229 0
M  V30 579 H 68.4432 -3.95565 -6.63889 0
M  V30 580 H 66.7882 -3.55145 -5.97409 0
M  V30 581 H 69.9792 -2.13808 -4.16418 0
M  V30 582 H 70.1522 -3.1823 -5.64476 0
M  V30 583 N 63.5583 1.46682 -0.576371 0
M  V30 584 C 64.4903 2.28341 0.198231 0
M  V30 585 C 65.5033 1.38141 0.861453 0
M  V30 586 O 66.6923 1.62797 0.732082 0
M  V30 587 C 63.7923 3.12986 1.29972 0
M  V30 588 C 62.9653 4.31271 0.729639 0
M  V30 589 C 62.0243 4.97363 1.71803 0
M  V30 590 O 61.0503 5.55156 1.25658 0
M  V30 591 N 62.2523 4.93796 3.05198 0
M  V30 592 H 65.0173 2.9546 -0.502324 0
M  V30 593 H 62.5783 1.56525 -0.413715 0
M  V30 594 H 64.5703 3.54066 1.96008 0
M  V30 595 H 63.1403 2.47984 1.90323 0
M  V30 596 H 62.3603 3.94052 -0.108012 0
M  V30 597 H 63.6483 5.07739 0.328438 0
M  V30 598 H 63.0463 4.48077 3.45317 0
M  V30 599 H 61.6033 5.38837 3.6674 0
M  V30 600 N 65.0364 0.313813 1.54444 0
M  V30 601 C 65.9684 -0.590425 2.21465 0
M  V30 602 C 66.9814 -1.08753 1.21147 0
M  V30 603 O 68.1704 -1.00278 1.4767 0
M  V30 604 C 65.2704 -1.82179 2.85769 0
M  V30 605 C 64.4434 -1.46502 4.12136 0
M  V30 606 C 63.5024 -2.55288 4.60124 0
M  V30 607 O 62.5284 -2.19842 5.25032 0
M  V30 608 N 63.7304 -3.86053 4.33525 0
M  V30 609 H 66.4954 -0.0166033 2.99695 0
M  V30 610 H 64.0564 0.136578 1.61323 0
M  V30 611 H 66.0484 -2.54328 3.14801 0
M  V30 612 H 64.6184 -2.30369 2.11303 0
M  V30 613 H 63.8384 -0.575595 3.89975 0
M  V30 614 H 65.1264 -1.20221 4.94393 0
M  V30 615 H 64.5244 -4.17654 3.81552 0
M  V30 616 H 63.0814 -4.54461 4.67235 0
M  V30 617 N 66.5145 -1.57545 0.0417849 0
M  V30 618 C 67.7605 -1.92601 -0.635021 0
M  V30 619 C 68.0935 -0.919627 -1.71045 0
M  V30 620 O 67.3685 0.0557892 -1.9442 0
M  V30 621 C 67.6515 -3.38085 -1.23979 0
M  V30 622 C 67.5045 -4.49467 -0.173057 0
M  V30 623 C 68.8235 -3.83776 -2.15416 0
M  V30 624 H 65.9425 -0.700397 -0.229374 0
M  V30 625 H 68.5845 -1.89728 0.101633 0
M  V30 626 H 66.7345 -3.40664 -1.86762 0
M  V30 627 H 68.4065 -4.59018 0.458312 0
M  V30 628 H 66.6495 -4.30909 0.499996 0
M  V30 629 H 67.3205 -5.48323 -0.636054 0
M  V30 630 H 69.7965 -3.83013 -1.62605 0
M  V30 631 H 68.6725 -4.8624 -2.54679 0
M  V30 632 H 68.9335 -3.19998 -3.05047 0
M  V30 633 N 67.9926 0.231505 -1.5589 0
M  V30 634 C 69.2206 0.974505 -1.82513 0
M  V30 635 C 69.6356 1.78344 -0.619591 0
M  V30 636 O 68.9926 1.77792 0.411848 0
M  V30 637 C 69.0436 1.90007 -3.07538 0
M  V30 638 O 68.7646 1.12385 -4.2344 0
M  V30 639 C 70.2656 2.75779 -3.47075 0
M  V30 640 H 67.4856 0.286065 -0.606966 0
M  V30 641 H 70.0296 0.249739 -2.02969 0
M  V30 642 H 68.1846 2.57891 -2.89086 0
M  V30 643 H 68.5986 1.75125 -4.944 0
M  V30 644 H 70.0726 3.36443 -4.37619 0
M  V30 645 H 70.5496 3.47672 -2.68367 0
M  V30 646 H 71.1556 2.13323 -3.67931 0
M  V30 647 N 69.4707 1.49531 0.497807 0
M  V30 648 C 70.7167 1.59415 1.25358 0
M  V30 649 C 71.0497 0.281422 1.9215 0
M  V30 650 O 70.3247 -0.715249 1.80871 0
M  V30 651 C 70.6077 2.75566 2.3181 0
M  V30 652 C 70.4607 4.16642 1.69498 0
M  V30 653 C 71.7797 2.87347 3.33346 0
M  V30 654 H 68.8987 0.580244 0.454408 0
M  V30 655 H 71.5407 1.81827 0.551262 0
M  V30 656 H 69.6907 2.56587 2.91711 0
M  V30 657 H 71.3627 4.47145 1.13399 0
M  V30 658 H 69.6057 4.22141 0.998978 0
M  V30 659 H 70.2767 4.93792 2.46725 0
M  V30 660 H 72.7527 3.04634 2.83438 0
M  V30 661 H 71.6287 3.70289 4.05188 0
M  V30 662 H 71.8897 1.96834 3.95865 0
M  V30 663 N 70.9488 -0.749086 1.3866 0
M  V30 664 C 72.2258 -1.4992 1.25632 0
M  V30 665 C 72.6058 -2.10633 -0.140317 0
M  V30 666 O 71.9538 -1.97437 -1.15025 0
M  V30 667 C 72.1638 -2.56195 2.36992 0
M  V30 668 C 73.5118 -3.22972 2.75634 0
M  V30 669 O 74.5358 -2.66502 2.36337 0
M  V30 670 O 73.3948 -4.25122 3.43415 0
M  V30 671 H 70.4888 -0.665067 0.491544 0
M  V30 672 H 73.0348 -0.784113 1.50498 0
M  V30 673 H 71.8068 -2.09612 3.30422 0
M  V30 674 H 71.4298 -3.35279 2.13714 0
M  V30 675 N 72.4269 -1.23603 -0.977757 0
M  V30 676 C 73.3369 -1.03632 -2.1047 0
M  V30 677 C 74.3529 0.0199435 -1.73989 0
M  V30 678 O 75.5289 -0.176076 -2.00629 0
M  V30 679 C 72.5939 -0.63276 -3.40877 0
M  V30 680 C 71.6549 -1.76437 -3.91367 0
M  V30 681 C 70.8879 -1.37997 -5.15551 0
M  V30 682 O 71.1109 -0.265357 -5.69782 0
M  V30 683 O 70.0449 -2.20201 -5.60174 0
M  V30 684 H 73.8709 -1.98086 -2.30208 0
M  V30 685 H 71.4559 -1.02332 -1.08851 0
M  V30 686 H 73.3379 -0.418761 -4.19314 0
M  V30 687 H 72.0129 0.282754 -3.22463 0
M  V30 688 H 70.9199 -2.03304 -3.14036 0
M  V30 689 H 72.2529 -2.6583 -4.14241 0
M  V30 690 N 73.905 1.17692 -1.04816 0
M  V30 691 C 75.151 1.88137 -0.75711 0
M  V30 692 C 75.484 1.80604 0.713841 0
M  V30 693 O 74.759 1.21146 1.52164 0
M  V30 694 C 75.042 3.38318 -1.2334 0
M  V30 695 C 74.895 3.54622 -2.76701 0
M  V30 696 C 76.214 4.32214 -0.829415 0
M  V30 697 H 73.333 0.683163 -0.27651 0
M  V30 698 H 75.975 1.38424 -1.30149 0
M  V30 699 H 74.125 3.80787 -0.770286 0
M  V30 700 H 75.797 3.21194 -3.31107 0
M  V30 701 H 74.04 2.97026 -3.16161 0
M  V30 702 H 74.711 4.60028 -3.05088 0
M  V30 703 H 77.187 3.97565 -1.22805 0
M  V30 704 H 76.063 5.35838 -1.19033 0
M  V30 705 H 76.324 4.41294 0.266891 0
M  V30 706 N 75.3831 0.828654 1.34056 0
M  V30 707 C 76.3131 0.269443 2.3194 0
M  V30 708 C 77.2941 -0.617247 1.58506 0
M  V30 709 O 78.4791 -0.542931 1.86456 0
M  V30 710 C 75.6091 -0.564793 3.42677 0
M  V30 711 C 74.5631 0.225241 4.27407 0
M  V30 712 C 73.8891 -0.7321 5.29664 0
M  V30 713 C 75.1891 1.43663 5.02154 0
M  V30 714 H 76.8831 1.08728 2.7896 0
M  V30 715 H 74.4291 0.524283 1.34117 0
M  V30 716 H 76.3821 -0.966233 4.10173 0
M  V30 717 H 75.1061 -1.41574 2.9432 0
M  V30 718 H 73.7651 0.608117 3.61521 0
M  V30 719 H 73.4131 -1.57916 4.77568 0
M  V30 720 H 73.1131 -0.20767 5.87233 0
M  V30 721 H 74.6371 -1.13128 6.00029 0
M  V30 722 H 76.0511 1.1089 5.62473 0
M  V30 723 H 74.4481 1.89711 5.69324 0
M  V30 724 H 75.5181 2.21181 4.31517 0
M  V30 725 N 76.8612 -1.46375 0.584142 0
M  V30 726 C 77.8242 -2.28784 -0.138108 0
M  V30 727 C 78.8242 -1.38471 -0.817462 0
M  V30 728 O 80.0142 -1.60833 -0.669199 0
M  V30 729 C 77.1462 -3.18892 -1.20503 0
M  V30 730 H 78.3392 -2.94117 0.586127 0
M  V30 731 H 75.8922 -1.52509 0.342171 0
M  V30 732 H 76.6272 -2.58309 -1.96079 0
M  V30 733 H 76.4122 -3.85388 -0.722384 0
M  V30 734 H 77.9022 -3.80914 -1.71155 0
M  V30 735 N 78.3393 -0.321999 -1.54275 0
M  V30 736 C 79.2493 0.553631 -2.27974 0
M  V30 737 C 80.2653 1.13054 -1.32268 0
M  V30 738 O 81.4413 1.15084 -1.6528 0
M  V30 739 C 78.5063 1.69927 -3.02201 0
M  V30 740 C 77.5673 1.15433 -4.1349 0
M  V30 741 C 76.8003 2.24537 -4.84168 0
M  V30 742 O 77.0233 3.44852 -4.5435 0
M  V30 743 O 75.9573 1.90044 -5.7111 0
M  V30 744 H 79.7833 -0.0448345 -3.03667 0
M  V30 745 H 77.3683 -0.0877418 -1.49142 0
M  V30 746 H 79.2503 2.3663 -3.48689 0
M  V30 747 H 77.9253 2.28395 -2.29385 0
M  V30 748 H 76.8323 0.452436 -3.71354 0
M  V30 749 H 78.1653 0.614805 -4.88345 0
M  V30 750 N 79.8174 1.5752 -0.0501392 0
M  V30 751 C 81.0654 1.9227 0.622642 0
M  V30 752 C 81.3864 0.929083 1.71444 0
M  V30 753 O 80.6564 -0.0262186 1.95882 0
M  V30 754 H 79.2364 0.709739 0.232981 0
M  V30 755 H 81.8984 1.94628 -0.102898 0
M  V30 756 H 80.9944 2.93479 1.06191 0
M  V30 757 N 81.2955 -0.223234 1.56011 0
M  V30 758 C 82.5435 -0.946003 1.78592 0
M  V30 759 C 82.8645 -1.84936 0.618349 0
M  V30 760 O 82.1345 -1.92473 -0.364833 0
M  V30 761 H 80.7145 -0.352298 0.658707 0
M  V30 762 H 83.3765 -0.235494 1.93472 0
M  V30 763 H 82.4725 -1.55381 2.70672 0
M  V30 764 N 82.7736 -1.49793 -0.48987 0
M  V30 765 C 84.0206 -1.59841 -1.24327 0
M  V30 766 C 84.3486 -0.290135 -1.92324 0
M  V30 767 O 83.6036 0.722749 -1.81865 0
M  V30 768 C 83.9026 -2.71488 -2.32441 0
M  V30 769 C 83.5686 -4.12614 -1.81826 0
M  V30 770 C 82.2306 -4.51017 -1.67742 0
M  V30 771 C 84.5826 -5.00892 -1.4407 0
M  V30 772 C 81.9106 -5.75459 -1.14297 0
M  V30 773 C 84.2626 -6.25863 -0.920742 0
M  V30 774 C 82.9266 -6.63086 -0.766383 0
M  V30 775 H 82.1966 -0.584899 -0.454944 0
M  V30 776 H 84.8436 -1.83663 -0.542215 0
M  V30 777 H 83.1486 -2.4168 -3.0838 0
M  V30 778 H 84.8456 -2.76469 -2.90458 0
M  V30 779 H 81.4356 -3.82307 -1.93751 0
M  V30 780 H 85.6196 -4.7187 -1.53794 0
M  V30 781 H 80.8756 -6.02989 -1.01068 0
M  V30 782 H 85.0496 -6.9364 -0.619448 0
M  V30 783 H 82.6766 -7.59393 -0.350083 0
M  V30 784 N 84.2517 0.741722 -1.39055 0
M  V30 785 C 85.2147 1.83733 -1.37021 0
M  V30 786 C 86.2147 1.58542 -0.268534 0
M  V30 787 O 87.4047 1.66067 -0.526076 0
M  V30 788 C 84.5367 3.2141 -1.13617 0
M  V30 789 H 85.7297 1.86941 -2.34506 0
M  V30 790 H 83.2827 0.944676 -1.24521 0
M  V30 791 H 84.0177 3.23865 -0.167863 0
M  V30 792 H 83.8027 3.4109 -1.93391 0
M  V30 793 H 85.2927 4.01477 -1.14918 0
M  V30 794 N 85.7298 1.2412 0.971189 0
M  V30 795 C 86.9788 1.07284 1.70801 0
M  V30 796 C 87.2918 -0.388902 1.91695 0
M  V30 797 O 88.4978 -0.677379 2.62914 0
M  V30 798 C 86.9538 1.87145 3.07416 0
M  V30 799 C 86.5618 3.37707 2.94377 0
M  V30 800 C 88.3058 1.78828 3.84995 0
M  V30 801 C 86.2128 4.09925 4.26281 0
M  V30 802 H 85.1428 0.397854 0.64049 0
M  V30 803 H 87.7938 1.4817 1.0825 0
M  V30 804 H 86.1758 1.39071 3.70777 0
M  V30 805 H 87.3498 3.93335 2.4005 0
M  V30 806 H 85.6648 3.46938 2.30267 0
M  V30 807 H 88.2618 2.30089 4.82662 0
M  V30 808 H 88.6048 0.75284 4.09436 0
M  V30 809 H 89.1378 2.24563 3.28354 0
M  V30 810 H 85.8768 5.13813 4.07033 0
M  V30 811 H 85.3968 3.59083 4.80437 0
M  V30 812 H 87.0758 4.1673 4.94919 0
M  V30 813 N 87.2079 -1.17134 1.05439 0
M  V30 814 C 88.4539 -1.87733 0.767077 0
M  V30 815 C 88.7869 -1.8098 -0.704253 0
M  V30 816 O 88.0619 -1.21951 -1.5152 0
M  V30 817 C 88.3449 -3.37659 1.25133 0
M  V30 818 C 88.1979 -3.53149 2.78578 0
M  V30 819 C 89.5169 -4.31768 0.852324 0
M  V30 820 H 86.6359 -0.681687 0.280129 0
M  V30 821 H 89.2779 -1.37732 1.30881 0
M  V30 822 H 87.4279 -3.80373 0.790469 0
M  V30 823 H 89.0999 -3.19434 3.32806 0
M  V30 824 H 87.3429 -2.95345 3.17732 0
M  V30 825 H 88.0139 -4.58403 3.07523 0
M  V30 826 H 90.4899 -3.96909 1.24911 0
M  V30 827 H 89.3659 -5.35199 1.21873 0
M  V30 828 H 89.6269 -4.41429 -0.243485 0
M  V30 829 N 88.686 -0.835752 -1.33615 0
M  V30 830 C 89.933 -0.429959 -1.97883 0
M  V30 831 C 90.261 1.01006 -1.66217 0
M  V30 832 O 89.516 1.72047 -0.93265 0
M  V30 833 C 89.815 -0.593925 -3.52431 0
M  V30 834 C 89.481 -2.00158 -4.04039 0
M  V30 835 C 88.143 -2.38662 -4.17844 0
M  V30 836 C 90.495 -2.92117 -4.31644 0
M  V30 837 C 87.823 -3.68435 -4.56588 0
M  V30 838 C 90.175 -4.21368 -4.71838 0
M  V30 839 C 88.839 -4.59833 -4.83849 0
M  V30 840 H 88.109 -0.157333 -0.724104 0
M  V30 841 H 90.756 -1.06217 -1.59343 0
M  V30 842 H 89.061 0.121619 -3.91611 0
M  V30 843 H 90.758 -0.260282 -4.00154 0
M  V30 844 H 87.348 -1.69252 -3.93766 0
M  V30 845 H 91.532 -2.63608 -4.20505 0
M  V30 846 H 86.788 -3.98046 -4.64079 0
M  V30 847 H 90.962 -4.92703 -4.92155 0
M  V30 848 H 88.589 -5.60438 -5.13627 0
M  V30 849 N 90.1641 1.46063 -0.591896 0
M  V30 850 C 91.0941 2.33172 0.123673 0
M  V30 851 C 92.0751 1.45897 0.87453 0
M  V30 852 O 93.2601 1.74698 0.848181 0
M  V30 853 C 90.3901 3.28336 1.13194 0
M  V30 854 C 89.3441 4.25124 0.495324 0
M  V30 855 C 88.6701 5.09863 1.61071 0
M  V30 856 C 89.9701 5.19143 -0.573425 0
M  V30 857 H 91.6641 2.93252 -0.603646 0
M  V30 858 H 89.2101 1.41014 -0.291741 0
M  V30 859 H 91.1631 3.88137 1.64097 0
M  V30 860 H 89.8871 2.66383 1.88965 0
M  V30 861 H 88.5461 3.66599 0.00729452 0
M  V30 862 H 88.1941 4.44288 2.35832 0
M  V30 863 H 87.8941 5.75417 1.19035 0
M  V30 864 H 89.4181 5.72529 2.12233 0
M  V30 865 H 90.8321 5.73106 -0.1491 0
M  V30 866 H 89.2291 5.93089 -0.914636 0
M  V30 867 H 90.2991 4.62519 -1.45617 0
M  V30 868 N 91.6422 0.330177 1.54103 0
M  V30 869 C 92.8882 -0.270806 2.00984 0
M  V30 870 C 93.2212 -1.51265 1.21789 0
M  V30 871 O 92.4962 -1.92142 0.301927 0
M  V30 872 C 92.7792 -0.598339 3.55094 0
M  V30 873 C 92.6322 0.654674 4.4501 0
M  V30 874 C 93.9512 -1.41334 4.16789 0
M  V30 875 H 91.0702 -0.0969531 0.730595 0
M  V30 876 H 93.7122 0.448066 1.84641 0
M  V30 877 H 91.8622 -1.21078 3.69151 0
M  V30 878 H 93.5342 1.29285 4.42813 0
M  V30 879 H 91.7772 1.28224 4.14416 0
M  V30 880 H 92.4482 0.380944 5.50684 0
M  V30 881 H 94.9242 -0.895597 4.06347 0
M  V30 882 H 93.8002 -1.61127 5.24718 0
M  V30 883 H 94.0612 -2.41146 3.70541 0
M  V30 884 N 93.1203 -1.57491 0.0584922 0
M  V30 885 C 94.5363 -1.56792 -0.298091 0
M  V30 886 C 94.7363 -1.06679 -1.70944 0
M  V30 887 O 93.7923 -0.726672 -2.41818 0
M  V30 888 C 95.1053 -3.00461 -0.119879 0
M  V30 889 C 96.6533 -3.1242 -0.190428 0
M  V30 890 C 97.1283 -4.57982 -0.0406567 0
M  V30 891 N 98.6193 -4.63099 -0.0966958 0
M  V30 892 C 99.3543 -5.734 -0.00502943 0
M  V30 893 N 98.8503 -6.9266 0.139402 0
M  V30 894 N 100.643 -5.62067 -0.0611391 0
M  V30 895 H 92.7943 -1.88386 0.98105 0
M  V30 896 H 95.0573 -0.867865 0.381463 0
M  V30 897 H 94.7633 -3.41187 0.85349 0
M  V30 898 H 94.6373 -3.66843 -0.877833 0
M  V30 899 H 97.0243 -2.71589 -1.15427 0
M  V30 900 H 97.1053 -2.48702 0.598405 0
M  V30 901 H 96.7493 -4.995 0.919897 0
M  V30 902 H 96.6793 -5.19715 -0.848727 0
M  V30 903 H 99.1703 -3.77331 -0.207277 0
M  V30 904 H 99.4833 -7.72536 0.201855 0
M  V30 905 H 97.8283 -6.94781 0.174586 0
M  V30 906 H 101.019 -4.67782 -0.172583 0
M  V30 907 H 101.192 -6.47999 0.0137562 0
M  V30 908 N 94.5984 0.214957 -1.56127 0
M  V30 909 C 95.8264 0.955092 -1.83536 0
M  V30 910 C 96.2414 1.77677 -0.638472 0
M  V30 911 O 95.5984 1.78219 0.392968 0
M  V30 912 C 95.6494 1.86734 -3.09536 0
M  V30 913 O 95.3704 1.07887 -4.24608 0
M  V30 914 C 96.8714 2.72082 -3.4998 0
M  V30 915 H 94.0914 0.279611 -0.609966 0
M  V30 916 H 96.6354 0.228197 -2.03223 0
M  V30 917 H 94.7904 2.5481 -2.91806 0
M  V30 918 H 95.2044 1.69872 -4.9623 0
M  V30 919 H 96.6784 3.31782 -4.41163 0
M  V30 920 H 97.1554 3.44806 -2.7204 0
M  V30 921 H 97.7614 2.09409 -3.70173 0
M  V30 922 N 96.0765 1.50051 0.48192 0
M  V30 923 C 97.3015 1.64508 1.26301 0
M  V30 924 C 97.7265 0.323851 1.85291 0
M  V30 925 O 97.0845 -0.710969 1.66778 0
M  V30 926 C 97.1325 2.7305 2.35533 0
M  V30 927 O 96.2365 2.3355 3.39895 0
M  V30 928 H 95.5775 0.549978 0.372048 0
M  V30 929 H 98.1075 1.9636 0.574786 0
M  V30 930 H 98.1175 2.95799 2.8101 0
M  V30 931 H 96.7925 3.68946 1.91967 0
M  V30 932 H 95.3695 2.21205 3.00204 0
M  V30 933 N 97.5546 -0.734337 1.39446 0
M  V30 934 C 98.5026 -1.86971 1.38364 0
M  V30 935 C 99.4966 -1.67288 0.266687 0
M  V30 936 O 100.703 -1.74621 0.436755 0
M  V30 937 H 97.0776 -0.615474 0.432082 0
M  V30 938 H 99.0486 -1.85 2.34132 0
M  V30 939 C 97.7976 -3.2466 1.24465 0
M  V30 940 H 97.1206 -3.40402 2.09682 0
M  V30 941 H 98.5606 -4.04292 1.27764 0
M  V30 942 C 97.0196 -3.36867 -0.0468674 0
M  V30 943 O 97.5496 -3.88618 -1.01681 0
M  V30 944 N 95.7556 -2.90391 -0.110145 0
M  V30 945 H 95.3026 -2.48466 0.679868 0
M  V30 946 H 95.2606 -2.98939 -0.973799 0
M  V30 947 N 99.0327 -1.24633 -0.964593 0
M  V30 948 C 100.281 -1.08573 -1.70459 0
M  V30 949 C 100.602 0.375655 -1.91347 0
M  V30 950 O 99.8717 1.26779 -1.49345 0
M  V30 951 H 98.4517 -0.398784 -0.631649 0
M  V30 952 H 101.114 -1.56601 -1.16026 0
M  V30 953 H 100.21 -1.58623 -2.68785 0
M  V30 954 N 100.511 1.16574 -1.06058 0
M  V30 955 C 101.444 2.19798 -0.61352 0
M  V30 956 C 102.422 1.58509 0.362453 0
M  V30 957 O 103.606 1.86527 0.271994 0
M  V30 958 C 100.733 3.3855 0.100915 0
M  V30 959 C 99.7788 4.18317 -0.831438 0
M  V30 960 S 100.612 4.82375 -2.32539 0
M  V30 961 C 101.768 6.04508 -1.62238 0
M  V30 962 H 102.001 2.5738 -1.48805 0
M  V30 963 H 99.5338 1.27327 -0.873338 0
M  V30 964 H 101.492 4.07358 0.506898 0
M  V30 965 H 100.153 2.99338 0.951604 0
M  V30 966 H 99.3458 5.03232 -0.278071 0
M  V30 967 H 98.9478 3.5499 -1.17719 0
M  V30 968 H 101.24 6.71133 -0.926622 0
M  V30 969 H 102.183 6.64389 -2.44934 0
M  V30 970 H 102.591 5.53559 -1.106 0
M  V30 971 N 101.989 0.842826 1.3317 0
M  V30 972 C 102.936 0.276885 2.29133 0
M  V30 973 C 103.906 -0.609527 1.54512 0
M  V30 974 O 105.091 -0.546955 1.82792 0
M  V30 975 C 102.231 -0.538707 3.40869 0
M  V30 976 C 101.344 0.372169 4.30394 0
M  V30 977 C 100.479 -0.454908 5.29249 0
M  V30 978 C 99.5179 0.45411 6.10413 0
M  V30 979 N 98.6549 -0.335075 7.013 0
M  V30 980 H 103.495 1.10052 2.76934 0
M  V30 981 H 101.032 0.554161 1.36262 0
M  V30 982 H 102.99 -1.02709 4.0436 0
M  V30 983 H 101.62 -1.32727 2.9425 0
M  V30 984 H 100.672 0.97888 3.6759 0
M  V30 985 H 101.984 1.0703 4.87182 0
M  V30 986 H 101.138 -1.00695 5.98285 0
M  V30 987 H 99.8769 -1.18646 4.73048 0
M  V30 988 H 98.8819 1.01813 5.40291 0
M  V30 989 H 100.107 1.18409 6.68697 0
M  V30 990 H 98.0529 -1.04994 6.47543 0
M  V30 991 H 97.9699 0.304262 7.55387 0
M  V30 992 H 99.2379 -0.869224 7.74638 0
M  V30 993 N 103.467 -1.45747 0.599634 0
M  V30 994 C 104.707 -2.04181 0.0946309 0
M  V30 995 C 105.071 -1.45895 -1.24815 0
M  V30 996 O 106.272 -1.95633 -1.8434 0
M  V30 997 C 104.543 -3.57368 0.047581 0
M  V30 998 S 106.102 -4.36997 -0.397387 0
M  V30 999 H 102.92 -0.70953 0.0456954 0
M  V30 1000 H 105.522 -1.78564 0.795946 0
M  V30 1001 H 104.226 -3.97303 1.02852 0
M  V30 1002 H 103.757 -3.87549 -0.675977 0
M  V30 1003 H 105.772 -4.68012 -1.64862 0
M  V30 1004 N 104.945 -0.338344 -1.53925 0
M  V30 1005 C 105.908 0.508299 -2.23493 0
M  V30 1006 C 106.908 1.03175 -1.23335 0
M  V30 1007 O 108.098 0.921826 -1.47811 0
M  V30 1008 C 105.23 1.70754 -2.95052 0
M  V30 1009 H 106.423 -0.100058 -2.99733 0
M  V30 1010 H 103.976 -0.0896198 -1.56043 0
M  V30 1011 H 104.711 2.35474 -2.22986 0
M  V30 1012 H 104.496 1.33946 -3.68512 0
M  V30 1013 H 105.986 2.30818 -3.48013 0
M  V30 1014 N 106.423 1.57458 -0.0668435 0
M  V30 1015 C 107.353 2.15468 0.899764 0
M  V30 1016 C 108.334 1.08042 1.31381 0
M  V30 1017 O 109.519 1.36054 1.38574 0
M  V30 1018 C 106.649 2.71232 2.16911 0
M  V30 1019 C 105.603 3.83781 1.89463 0
M  V30 1020 C 104.929 4.26127 3.22986 0
M  V30 1021 C 106.229 5.08238 1.20381 0
M  V30 1022 H 107.923 2.96488 0.416529 0
M  V30 1023 H 105.469 1.4262 0.198908 0
M  V30 1024 H 107.422 3.10458 2.84945 0
M  V30 1025 H 106.146 1.87426 2.67468 0
M  V30 1026 H 104.805 3.45051 1.23836 0
M  V30 1027 H 104.453 3.39249 3.71374 0
M  V30 1028 H 104.153 5.01993 3.05413 0
M  V30 1029 H 105.677 4.67966 3.92225 0
M  V30 1030 H 107.091 5.44811 1.78475 0
M  V30 1031 H 105.488 5.89349 1.13083 0
M  V30 1032 H 106.558 4.84558 0.182153 0
M  V30 1033 N 107.901 -0.206675 1.56239 0
M  V30 1034 C 108.848 -1.25617 1.93621 0
M  V30 1035 C 109.818 -1.45824 0.795274 0
M  V30 1036 O 111.003 -1.59148 1.05245 0
M  V30 1037 C 108.143 -2.59839 2.27107 0
M  V30 1038 C 107.256 -2.47308 3.54207 0
M  V30 1039 C 106.391 -3.74155 3.7707 0
M  V30 1040 C 105.43 -3.56407 4.97635 0
M  V30 1041 N 104.567 -4.75238 5.1681 0
M  V30 1042 H 109.407 -0.930383 2.83104 0
M  V30 1043 H 106.944 -0.448065 1.4011 0
M  V30 1044 H 108.902 -3.38021 2.44535 0
M  V30 1045 H 107.532 -2.90485 1.40778 0
M  V30 1046 H 106.584 -1.60483 3.4489 0
M  V30 1047 H 107.896 -2.30122 4.42544 0
M  V30 1048 H 107.05 -4.60778 3.94675 0
M  V30 1049 H 105.789 -3.94282 2.87042 0
M  V30 1050 H 104.794 -2.68168 4.79964 0
M  V30 1051 H 106.019 -3.37736 5.89161 0
M  V30 1052 H 103.965 -4.95651 4.29728 0
M  V30 1053 H 103.882 -4.60835 5.99306 0
M  V30 1054 H 105.15 -5.63246 5.38864 0
M  V30 1055 N 109.379 -1.50304 -0.473955 0
M  V30 1056 C 110.795 -1.37667 -0.807466 0
M  V30 1057 C 110.995 -0.430555 -1.96846 0
M  V30 1058 O 110.051 0.127874 -2.52176 0
M  V30 1059 C 111.364 -2.78974 -1.12223 0
M  V30 1060 C 112.912 -2.87868 -1.22885 0
M  V30 1061 C 113.387 -4.30003 -1.57676 0
M  V30 1062 N 114.878 -4.3294 -1.64673 0
M  V30 1063 C 115.613 -5.3991 -1.93091 0
M  V30 1064 N 115.109 -6.57092 -2.1955 0
M  V30 1065 N 116.902 -5.27351 -1.94569 0
M  V30 1066 H 109.053 -2.10394 0.291212 0
M  V30 1067 H 111.316 -0.945575 0.0677609 0
M  V30 1068 H 111.022 -3.50031 -0.342229 0
M  V30 1069 H 110.896 -3.16038 -2.05913 0
M  V30 1070 H 113.283 -2.17032 -1.99953 0
M  V30 1071 H 113.364 -2.54352 -0.271814 0
M  V30 1072 H 113.008 -5.01375 -0.81149 0
M  V30 1073 H 112.938 -4.61004 -2.54525 0
M  V30 1074 H 115.429 -3.48441 -1.46277 0
M  V30 1075 H 115.742 -7.34425 -2.405 0
M  V30 1076 H 114.087 -6.60272 -2.16948 0
M  V30 1077 H 117.278 -4.34801 -1.73394 0
M  V30 1078 H 117.451 -6.10805 -2.16381 0
M  V30 1079 N 110.857 0.726932 -1.39834 0
M  V30 1080 C 111.79 1.8501 -1.33592 0
M  V30 1081 C 112.768 1.61262 -0.208191 0
M  V30 1082 O 113.952 1.84422 -0.389981 0
M  V30 1083 C 111.079 3.21143 -1.07633 0
M  V30 1084 C 110.125 3.63737 -2.22705 0
M  V30 1085 S 110.958 3.72167 -3.85035 0
M  V30 1086 C 112.114 5.11077 -3.61318 0
M  V30 1087 H 112.347 1.90022 -2.28646 0
M  V30 1088 H 109.88 0.892595 -1.25985 0
M  V30 1089 H 111.838 3.99747 -0.933415 0
M  V30 1090 H 110.499 3.13776 -0.142526 0
M  V30 1091 H 109.692 4.62551 -2.00155 0
M  V30 1092 H 109.294 2.9236 -2.33242 0
M  V30 1093 H 111.586 5.97656 -3.19083 0
M  V30 1094 H 112.529 5.38658 -4.59623 0
M  V30 1095 H 112.937 4.81135 -2.95245 0
M  V30 1096 N 112.336 1.25143 0.95797 0
M  V30 1097 C 113.583 1.09692 1.70217 0
M  V30 1098 C 113.911 -0.362654 1.91089 0
M  V30 1099 O 113.166 -1.28386 1.47701 0
M  V30 1100 C 113.465 1.79272 3.09187 0
M  V30 1101 C 113.131 3.29196 3.08125 0
M  V30 1102 C 111.793 3.70096 3.07543 0
M  V30 1103 C 114.145 4.24995 3.0171 0
M  V30 1104 C 111.473 5.05213 2.9829 0
M  V30 1105 C 113.825 5.60132 2.93999 0
M  V30 1106 C 112.489 6.00365 2.9175 0
M  V30 1107 H 111.759 0.401393 0.622868 0
M  V30 1108 H 114.406 1.55372 1.11945 0
M  V30 1109 H 112.711 1.26014 3.70982 0
M  V30 1110 H 114.408 1.64773 3.65583 0
M  V30 1111 H 110.998 2.96651 3.09348 0
M  V30 1112 H 115.182 3.9439 3.01281 0
M  V30 1113 H 110.438 5.35569 2.94916 0
M  V30 1114 H 114.612 6.3406 2.87996 0
M  V30 1115 H 112.239 7.05023 2.84336 0
M  V30 1116 N 113.814 -1.1601 1.06675 0
M  V30 1117 C 115.06 -1.86909 0.786945 0
M  V30 1118 C 115.393 -1.81717 -0.685018 0
M  V30 1119 O 114.668 -1.23551 -1.50218 0
M  V30 1120 C 114.951 -3.36313 1.28707 0
M  V30 1121 C 114.804 -3.50175 2.82308 0
M  V30 1122 C 116.123 -4.3084 0.898071 0
M  V30 1123 H 113.242 -0.678677 0.287343 0
M  V30 1124 H 115.884 -1.36336 1.32334 0
M  V30 1125 H 114.034 -3.79513 0.830768 0
M  V30 1126 H 115.706 -3.15886 3.36175 0
M  V30 1127 H 113.949 -2.91959 3.20847 0
M  V30 1128 H 114.62 -4.55116 3.12368 0
M  V30 1129 H 117.096 -3.95561 1.29114 0
M  V30 1130 H 115.972 -5.33876 1.27543 0
M  V30 1131 H 116.233 -4.41662 -0.196651 0
M  V30 1132 N 115.292 -0.849877 -1.32721 0
M  V30 1133 C 116.24 -0.279745 -2.30912 0
M  V30 1134 C 117.234 0.594278 -1.58634 0
M  V30 1135 O 118.44 0.482613 -1.73409 0
M  V30 1136 H 114.815 -0.0717521 -0.748569 0
M  V30 1137 H 116.786 -1.12222 -2.76494 0
M  V30 1138 C 115.535 0.521108 -3.43773 0
M  V30 1139 H 114.858 -0.142141 -3.99547 0
M  V30 1140 H 116.298 0.885693 -4.14646 0
M  V30 1141 C 114.757 1.70442 -2.90605 0
M  V30 1142 O 115.287 2.8034 -2.87702 0
M  V30 1143 N 113.493 1.52991 -2.47067 0
M  V30 1144 H 113.04 0.635914 -2.49628 0
M  V30 1145 H 112.998 2.32311 -2.11847 0
M  V30 1146 N 116.77 1.45427 -0.607355 0
M  V30 1147 C 117.718 2.32269 0.12411 0
M  V30 1148 C 118.712 1.45955 0.859854 0
M  V30 1149 O 119.918 1.6244 0.775447 0
M  V30 1150 H 116.293 0.749691 0.0588839 0
M  V30 1151 H 118.264 2.91743 -0.626762 0
M  V30 1152 C 117.013 3.29567 1.1082 0
M  V30 1153 H 116.336 3.95978 0.551492 0
M  V30 1154 H 117.776 3.93061 1.58995 0
M  V30 1155 C 116.235 2.56722 2.18164 0
M  V30 1156 O 116.765 2.34842 3.25902 0
M  V30 1157 N 114.971 2.16861 1.93442 0
M  V30 1158 H 114.518 2.34855 1.05834 0
M  V30 1159 H 114.476 1.68444 2.65469 0
M  V30 1160 N 118.248 0.346503 1.53744 0
M  V30 1161 C 119.158 -0.517293 2.28826 0
M  V30 1162 C 120.174 -1.10935 1.3405 0
M  V30 1163 O 121.35 -1.1244 1.6709 0
M  V30 1164 C 118.415 -1.65098 3.04866 0
M  V30 1165 C 117.476 -1.0884 4.15274 0
M  V30 1166 C 116.709 -2.16806 4.87679 0
M  V30 1167 O 116.932 -3.3758 4.59778 0
M  V30 1168 O 115.866 -1.80934 5.74061 0
M  V30 1169 H 119.692 0.0931396 3.03557 0
M  V30 1170 H 117.277 0.111458 1.48984 0
M  V30 1171 H 119.159 -2.31053 3.5241 0
M  V30 1172 H 117.834 -2.24717 2.32989 0
M  V30 1173 H 116.741 -0.3933 3.72027 0
M  V30 1174 H 118.074 -0.537036 4.89261 0
M  V30 1175 N 119.726 -1.57421 0.075193 0
M  V30 1176 C 120.676 -2.09441 -0.901025 0
M  V30 1177 C 121.66 -1.00486 -1.25663 0
M  V30 1178 O 122.852 -1.2679 -1.23504 0
M  V30 1179 C 119.981 -2.66233 -2.16737 0
M  V30 1180 C 119.067 -3.82198 -1.83808 0
M  V30 1181 N 119.458 -4.91028 -1.21345 0
M  V30 1182 C 117.756 -3.91558 -2.13538 0
M  V30 1183 C 118.457 -5.71852 -1.06585 0
M  V30 1184 N 117.433 -5.20233 -1.57667 0
M  V30 1185 H 121.235 -2.90972 -0.413815 0
M  V30 1186 H 118.749 -1.6189 -0.128601 0
M  V30 1187 H 120.746 -3.01819 -2.87595 0
M  V30 1188 H 119.406 -1.8615 -2.66042 0
M  V30 1189 H 120.417 -5.10323 -0.88268 0
M  V30 1190 H 117.094 -3.22454 -2.65197 0
M  V30 1191 H 118.484 -6.69401 -0.578933 0
M  V30 1192 N 121.204 0.198386 -1.56346 0
M  V30 1193 C 122.481 0.944982 -1.71258 0
M  V30 1194 C 122.861 2.0151 -0.629048 0
M  V30 1195 O 122.209 2.25639 0.360473 0
M  V30 1196 C 122.419 1.5344 -3.1346 0
M  V30 1197 C 123.767 2.01778 -3.73591 0
M  V30 1198 O 124.791 1.63288 -3.16568 0
M  V30 1199 O 123.65 2.72594 -4.73661 0
M  V30 1200 H 120.744 0.442939 -0.69838 0
M  V30 1201 H 123.29 0.188342 -1.68652 0
M  V30 1202 H 122.062 0.762869 -3.83792 0
M  V30 1203 H 121.685 2.35596 -3.20282 0
M  V30 1204 N 122.682 1.50554 0.465978 0
M  V30 1205 C 123.612 1.72722 1.57128 0
M  V30 1206 C 124.593 0.576294 1.6004 0
M  V30 1207 O 125.778 0.81598 1.76225 0
M  V30 1208 C 122.908 1.82605 2.95419 0
M  V30 1209 C 121.862 2.97835 3.07373 0
M  V30 1210 C 121.188 2.92867 4.47363 0
M  V30 1211 C 122.488 4.38265 2.84114 0
M  V30 1212 H 124.182 2.65267 1.38829 0
M  V30 1213 H 121.728 1.2765 0.666441 0
M  V30 1214 H 123.681 1.96698 3.72677 0
M  V30 1215 H 122.405 0.866858 3.14886 0
M  V30 1216 H 121.064 2.83401 2.3255 0
M  V30 1217 H 120.712 1.94783 4.63755 0
M  V30 1218 H 120.412 3.70227 4.56296 0
M  V30 1219 H 121.936 3.09015 5.26633 0
M  V30 1220 H 123.35 4.53198 3.51118 0
M  V30 1221 H 121.747 5.17115 3.04487 0
M  V30 1222 H 122.817 4.50281 1.7993 0
M  V30 1223 N 124.16 -0.719506 1.40217 0
M  V30 1224 C 125.092 -1.84428 1.36084 0
M  V30 1225 C 126.105 -1.60597 0.266913 0
M  V30 1226 O 127.294 -1.70544 0.526983 0
M  V30 1227 C 124.394 -3.20757 1.094 0
M  V30 1228 C 123.567 -3.71817 2.30372 0
M  V30 1229 C 122.626 -4.86748 1.99907 0
M  V30 1230 O 121.652 -4.99603 2.72737 0
M  V30 1231 N 122.854 -5.7226 0.974635 0
M  V30 1232 H 125.619 -1.88473 2.33019 0
M  V30 1233 H 123.18 -0.900885 1.3452 0
M  V30 1234 H 125.172 -3.95235 0.870116 0
M  V30 1235 H 123.742 -3.11884 0.211452 0
M  V30 1236 H 122.962 -2.88514 2.68614 0
M  V30 1237 H 124.25 -4.02666 3.11026 0
M  V30 1238 H 123.648 -5.6448 0.371368 0
M  V30 1239 H 122.205 -6.46739 0.810656 0
M  V30 1240 N 125.638 -1.25649 -0.95132 0
M  V30 1241 C 126.884 -1.10757 -1.69884 0
M  V30 1242 C 127.217 0.350061 -1.91019 0
M  V30 1243 O 126.492 1.25783 -1.48354 0
M  V30 1244 C 126.775 -1.86606 -3.07978 0
M  V30 1245 C 126.628 -3.40217 -2.94232 0
M  V30 1246 C 127.947 -1.65182 -4.07925 0
M  V30 1247 H 125.066 -0.40374 -0.616574 0
M  V30 1248 H 127.708 -1.54521 -1.10558 0
M  V30 1249 H 125.858 -1.49409 -3.58621 0
M  V30 1250 H 127.53 -3.87108 -2.50889 0
M  V30 1251 H 125.773 -3.67759 -2.30078 0
M  V30 1252 H 126.444 -3.88505 -3.92133 0
M  V30 1253 H 128.92 -1.9757 -3.66204 0
M  V30 1254 H 127.796 -2.20683 -5.02583 0
M  V30 1255 H 128.057 -0.593933 -4.38092 0
M  V30 1256 N 127.117 1.15442 -1.07289 0
M  V30 1257 C 128.357 1.8788 -0.805012 0
M  V30 1258 C 128.721 1.80413 0.656907 0
M  V30 1259 O 129.922 2.47874 1.0398 0
M  V30 1260 C 128.193 3.3298 -1.29843 0
M  V30 1261 S 129.752 4.23158 -1.16114 0
M  V30 1262 H 126.57 0.64839 -0.291739 0
M  V30 1263 H 129.172 1.39285 -1.37186 0
M  V30 1264 H 127.876 3.35958 -2.35712 0
M  V30 1265 H 127.407 3.86629 -0.726767 0
M  V30 1266 H 129.422 4.96103 -0.0982778 0
M  V30 1267 N 128.595 0.856903 1.32268 0
M  V30 1268 C 129.542 0.301172 2.28827 0
M  V30 1269 C 130.512 -0.593104 1.5515 0
M  V30 1270 O 131.697 -0.527537 1.83362 0
M  V30 1271 C 128.837 -0.502523 3.41422 0
M  V30 1272 C 127.95 0.417797 4.29975 0
M  V30 1273 C 127.085 -0.398749 5.29701 0
M  V30 1274 C 126.124 0.518827 6.09897 0
M  V30 1275 N 125.261 -0.260674 7.01616 0
M  V30 1276 H 130.101 1.12983 2.75751 0
M  V30 1277 H 127.638 0.568582 1.35667 0
M  V30 1278 H 129.596 -0.984141 4.05426 0
M  V30 1279 H 128.226 -1.29599 2.95642 0
M  V30 1280 H 127.278 1.01781 3.66531 0
M  V30 1281 H 128.59 1.12191 4.86019 0
M  V30 1282 H 127.744 -0.943435 5.9932 0
M  V30 1283 H 126.483 -1.13622 4.7428 0
M  V30 1284 H 125.488 1.07538 5.39181 0
M  V30 1285 H 126.713 1.25495 6.67404 0
M  V30 1286 H 124.659 -0.981198 6.4862 0
M  V30 1287 H 124.576 0.384364 7.55022 0
M  V30 1288 H 125.844 -0.787014 7.75517 0
M  V30 1289 N 130.073 -1.45103 0.615059 0
M  V30 1290 C 131.489 -1.57137 0.279322 0
M  V30 1291 C 131.689 -1.60523 -1.21797 0
M  V30 1292 O 130.745 -1.53956 -2.00134 0
M  V30 1293 C 132.058 -2.85062 0.957083 0
M  V30 1294 C 133.606 -2.98749 0.933706 0
M  V30 1295 C 134.081 -4.29455 1.59162 0
M  V30 1296 N 135.572 -4.36231 1.55746 0
M  V30 1297 C 136.307 -5.36051 2.0356 0
M  V30 1298 N 135.803 -6.42367 2.59494 0
M  V30 1299 N 137.596 -5.27456 1.94284 0
M  V30 1300 H 129.747 -1.41148 1.58717 0
M  V30 1301 H 132.01 -0.675331 0.665306 0
M  V30 1302 H 131.716 -2.88488 2.01166 0
M  V30 1303 H 131.59 -3.7407 0.48494 0
M  V30 1304 H 133.977 -2.94886 -0.112347 0
M  V30 1305 H 134.058 -2.11132 1.44419 0
M  V30 1306 H 133.702 -4.34077 2.63704 0
M  V30 1307 H 133.632 -5.15901 1.0561 0
M  V30 1308 H 136.123 -3.60011 1.14893 0
M  V30 1309 H 136.436 -7.14793 2.93752 0
M  V30 1310 H 134.781 -6.43097 2.63537 0
M  V30 1311 H 137.972 -4.43308 1.5032 0
M  V30 1312 H 138.145 -6.05099 2.3186 0
M  V30 1313 N 131.551 -0.354651 -1.53558 0
M  V30 1314 C 132.461 0.50515 -2.29097 0
M  V30 1315 C 133.477 1.10223 -1.34636 0
M  V30 1316 O 134.653 1.11553 -1.67684 0
M  V30 1317 C 131.718 1.63479 -3.05738 0
M  V30 1318 C 130.779 1.06636 -4.15845 0
M  V30 1319 C 130.012 2.14217 -4.88822 0
M  V30 1320 O 130.235 3.35137 -4.61562 0
M  V30 1321 O 129.169 1.77887 -5.75013 0
M  V30 1322 H 132.995 -0.109237 -3.03503 0
M  V30 1323 H 130.58 -0.119357 -1.48922 0
M  V30 1324 H 132.462 2.2918 -3.5363 0
M  V30 1325 H 131.137 2.23478 -2.34178 0
M  V30 1326 H 130.044 0.373565 -3.7223 0
M  V30 1327 H 131.377 0.511081 -4.89539 0
M  V30 1328 N 133.029 1.57378 -0.0835403 0
M  V30 1329 C 134.278 1.93106 0.582498 0
M  V30 1330 C 134.591 0.96651 1.70053 0
M  V30 1331 O 135.797 1.21705 2.42693 0
M  V30 1332 C 134.253 3.43076 1.08751 0
M  V30 1333 C 133.861 4.48 -0.000146404 0
M  V30 1334 C 135.605 3.87785 1.72694 0
M  V30 1335 C 133.512 5.89113 0.519568 0
M  V30 1336 H 132.442 0.720775 0.221358 0
M  V30 1337 H 135.093 1.82821 -0.157675 0
M  V30 1338 H 133.475 3.48474 1.88101 0
M  V30 1339 H 134.649 4.54233 -0.775199 0
M  V30 1340 H 132.964 4.1283 -0.54406 0
M  V30 1341 H 135.561 4.90604 2.1263 0
M  V30 1342 H 135.904 3.25796 2.59158 0
M  V30 1343 H 136.437 3.8504 0.999457 0
M  V30 1344 H 133.176 6.54775 -0.308186 0
M  V30 1345 H 132.696 5.86376 1.26188 0
M  V30 1346 H 134.375 6.39346 0.992237 0
M  V30 1347 N 134.507 -0.190092 1.56449 0
M  V30 1348 C 135.439 -1.25973 1.91477 0
M  V30 1349 C 136.452 -1.41452 0.805931 0
M  V30 1350 O 137.641 -1.41789 1.08435 0
M  V30 1351 C 134.741 -2.63117 2.13594 0
M  V30 1352 C 133.914 -2.69182 3.4476 0
M  V30 1353 C 132.973 -3.87557 3.5593 0
M  V30 1354 O 131.999 -3.74427 4.28711 0
M  V30 1355 N 133.201 -5.03224 2.89388 0
M  V30 1356 H 135.966 -0.962394 2.83828 0
M  V30 1357 H 133.527 -0.379981 1.57378 0
M  V30 1358 H 135.519 -3.40742 2.1835 0
M  V30 1359 H 134.089 -2.85319 1.27719 0
M  V30 1360 H 133.309 -1.77793 3.51828 0
M  V30 1361 H 134.597 -2.70229 4.31107 0
M  V30 1362 H 133.995 -5.16791 2.30094 0
M  V30 1363 H 132.552 -5.78778 2.99764 0
M  V30 1364 N 135.985 -1.50799 -0.457987 0
M  V30 1365 C 137.234 -1.6168 -1.20593 0
M  V30 1366 C 137.547 -0.32888 -1.92815 0
M  V30 1367 O 138.753 -0.316773 -2.69646 0
M  V30 1368 C 137.209 -2.8545 -2.19195 0
M  V30 1369 C 136.817 -4.21168 -1.52715 0
M  V30 1370 C 138.561 -3.05681 -2.94549 0
M  V30 1371 C 136.468 -5.3611 -2.4968 0
M  V30 1372 H 135.398 -0.602134 -0.453818 0
M  V30 1373 H 138.049 -1.77245 -0.475031 0
M  V30 1374 H 136.431 -2.63472 -2.95632 0
M  V30 1375 H 137.605 -4.53449 -0.819775 0
M  V30 1376 H 135.92 -4.06648 -0.895922 0
M  V30 1377 H 138.517 -3.88727 -3.67145 0
M  V30 1378 H 138.86 -2.17929 -3.54701 0
M  V30 1379 H 139.393 -3.27901 -2.25223 0
M  V30 1380 H 136.132 -6.26057 -1.94249 0
M  V30 1381 H 135.652 -5.0823 -3.18532 0
M  V30 1382 H 137.331 -5.6722 -3.11241 0
M  V30 1383 N 137.463 0.71206 -1.40597 0
M  V30 1384 C 138.396 1.83582 -1.35546 0
M  V30 1385 C 139.374 1.61032 -0.225284 0
M  V30 1386 O 140.558 1.83998 -0.409519 0
M  V30 1387 C 137.685 3.19983 -1.11034 0
M  V30 1388 C 136.731 3.61355 -2.2655 0
M  V30 1389 S 137.564 3.68062 -3.88961 0
M  V30 1390 C 138.72 5.07216 -3.66719 0
M  V30 1391 H 138.953 1.87586 -2.30648 0
M  V30 1392 H 136.486 0.879182 -1.26924 0
M  V30 1393 H 138.444 3.98734 -0.975761 0
M  V30 1394 H 137.105 3.13608 -0.175798 0
M  V30 1395 H 136.298 4.60403 -2.0505 0
M  V30 1396 H 135.9 2.8987 -2.36329 0
M  V30 1397 H 138.192 5.94238 -3.25404 0
M  V30 1398 H 139.135 5.33753 -4.6531 0
M  V30 1399 H 139.543 4.77976 -3.00332 0
M  V30 1400 N 138.941 1.26152 0.944643 0
M  V30 1401 C 140.357 1.03189 1.21754 0
M  V30 1402 C 140.557 -0.245112 2.00004 0
M  V30 1403 O 139.613 -0.955176 2.33736 0
M  V30 1404 C 140.926 2.26119 1.98219 0
M  V30 1405 C 142.474 2.30984 2.11224 0
M  V30 1406 C 142.949 3.53597 2.91089 0
M  V30 1407 N 144.44 3.54053 2.98664 0
M  V30 1408 C 145.175 4.45593 3.60881 0
M  V30 1409 N 144.671 5.47416 4.24626 0
M  V30 1410 N 146.464 4.33252 3.58119 0
M  V30 1411 H 138.615 2.08177 0.421437 0
M  V30 1412 H 140.878 0.914723 0.248969 0
M  V30 1413 H 140.584 3.18984 1.48128 0
M  V30 1414 H 140.458 2.3009 2.98895 0
M  V30 1415 H 142.845 1.38635 2.60508 0
M  V30 1416 H 142.926 2.31026 1.09821 0
M  V30 1417 H 142.57 4.46273 2.42493 0
M  V30 1418 H 142.5 3.50802 3.92741 0
M  V30 1419 H 144.991 2.80403 2.53343 0
M  V30 1420 H 145.304 6.13459 4.69987 0
M  V30 1421 H 143.649 5.51278 4.23223 0
M  V30 1422 H 146.84 3.52924 3.0751 0
M  V30 1423 H 147.013 5.04786 4.06319 0
M  V30 1424 N 140.419 -1.14872 1.07899 0
M  V30 1425 C 141.696 -1.81928 0.71845 0
M  V30 1426 C 142.076 -1.95417 -0.798455 0
M  V30 1427 O 141.424 -1.50997 -1.715 0
M  V30 1428 C 141.634 -3.17937 1.43935 0
M  V30 1429 C 142.982 -3.93501 1.59506 0
M  V30 1430 O 144.006 -3.27509 1.40058 0
M  V30 1431 O 142.865 -5.1183 1.91551 0
M  V30 1432 H 139.959 -0.78628 0.256305 0
M  V30 1433 H 142.505 -1.21934 1.18026 0
M  V30 1434 H 141.277 -3.0325 2.47295 0
M  V30 1435 H 140.9 -3.85619 0.968687 0
M  V30 1436 N 141.898 -0.863906 -1.31812 0
M  V30 1437 C 142.828 -0.330843 -2.31144 0
M  V30 1438 C 143.809 0.575005 -1.60087 0
M  V30 1439 O 144.994 0.493304 -1.8783 0
M  V30 1440 C 142.124 0.47374 -3.44054 0
M  V30 1441 C 141.078 -0.338481 -4.26659 0
M  V30 1442 C 140.404 0.591412 -5.31419 0
M  V30 1443 C 141.704 -1.56926 -4.98168 0
M  V30 1444 H 143.398 -1.16086 -2.75979 0
M  V30 1445 H 140.944 -0.559657 -1.32679 0
M  V30 1446 H 142.897 0.857143 -4.12591 0
M  V30 1447 H 141.621 1.33721 -2.9797 0
M  V30 1448 H 140.28 -0.703754 -3.59782 0
M  V30 1449 H 139.928 1.45199 -4.81587 0
M  V30 1450 H 139.628 0.0519022 -5.87577 0
M  V30 1451 H 141.152 0.97179 -6.02817 0
M  V30 1452 H 142.566 -1.25764 -5.59336 0
M  V30 1453 H 140.963 -2.04739 -5.64094 0
M  V30 1454 H 142.033 -2.32544 -4.25501 0
M  V30 1455 N 143.376 1.44774 -0.622745 0
M  V30 1456 C 144.601 2.06999 -0.128968 0
M  V30 1457 C 145.026 1.4617 1.1839 0
M  V30 1458 O 144.384 0.560007 1.72434 0
M  V30 1459 C 144.432 3.60595 -0.0188351 0
M  V30 1460 O 143.536 3.99398 1.02739 0
M  V30 1461 H 142.877 0.659047 -0.0809544 0
M  V30 1462 H 145.407 1.85784 -0.85705 0
M  V30 1463 H 145.417 4.07627 0.174476 0
M  V30 1464 H 144.092 4.04252 -0.977384 0
M  V30 1465 H 142.669 3.64011 0.809326 0
M  V30 1466 N 144.854 0.36279 1.53368 0
M  V30 1467 C 146.102 -0.227326 2.00817 0
M  V30 1468 C 146.423 -1.49511 1.25186 0
M  V30 1469 O 145.693 -1.92482 0.364348 0
M  V30 1470 H 144.273 -0.0869923 0.741917 0
M  V30 1471 H 146.935 0.488381 1.88682 0
M  V30 1472 H 146.031 -0.456273 3.08747 0
M  V30 1473 N 146.332 -1.57332 0.0918853 0
M  V30 1474 C 147.282 -2.10385 -0.87876 0
M  V30 1475 C 148.266 -1.01814 -1.24591 0
M  V30 1476 O 149.458 -1.28093 -1.22152 0
M  V30 1477 C 146.587 -2.68517 -2.13901 0
M  V30 1478 C 145.673 -3.84126 -1.79744 0
M  V30 1479 N 146.064 -4.92288 -1.1613 0
M  V30 1480 C 144.362 -3.93801 -2.09373 0
M  V30 1481 C 145.063 -5.7295 -1.00513 0
M  V30 1482 N 144.039 -5.21876 -1.5214 0
M  V30 1483 H 147.841 -2.91395 -0.38293 0
M  V30 1484 H 145.355 -1.62017 -0.111423 0
M  V30 1485 H 147.352 -3.04852 -2.84378 0
M  V30 1486 H 146.012 -1.88961 -2.64053 0
M  V30 1487 H 147.023 -5.1123 -0.828504 0
M  V30 1488 H 143.7 -3.25249 -2.61762 0
M  V30 1489 H 145.09 -6.69978 -0.507902 0
M  V30 1490 N 147.81 0.181792 -1.56548 0
M  V30 1491 C 148.757 1.22521 -1.95595 0
M  V30 1492 C 149.727 1.4454 -0.818373 0
M  V30 1493 O 150.912 1.57454 -1.07763 0
M  V30 1494 C 148.052 2.56193 -2.31212 0
M  V30 1495 C 147.165 2.41641 -3.58097 0
M  V30 1496 C 146.3 3.68108 -3.82975 0
M  V30 1497 C 145.339 3.48445 -5.03242 0
M  V30 1498 N 144.476 4.66956 -5.24306 0
M  V30 1499 H 149.316 0.885226 -2.84548 0
M  V30 1500 H 146.853 0.425718 -1.40805 0
M  V30 1501 H 148.811 3.34088 -2.49882 0
M  V30 1502 H 147.441 2.88208 -1.45382 0
M  V30 1503 H 146.493 1.54976 -3.474 0
M  V30 1504 H 147.805 2.23052 -4.46149 0
M  V30 1505 H 146.959 4.54441 -4.01956 0
M  V30 1506 H 145.698 3.89666 -2.93278 0
M  V30 1507 H 144.703 2.60499 -4.8417 0
M  V30 1508 H 145.928 3.2832 -5.9446 0
M  V30 1509 H 143.874 4.88752 -4.37559 0
M  V30 1510 H 143.791 4.51242 -6.06561 0
M  V30 1511 H 145.059 5.54602 -5.47756 0
M  V30 1512 N 149.288 1.51039 0.449983 0
M  V30 1513 C 150.236 1.71995 1.5659 0
M  V30 1514 C 151.23 0.586029 1.5894 0
M  V30 1515 O 152.436 0.76709 1.62837 0
M  V30 1516 H 148.811 0.543233 0.520001 0
M  V30 1517 H 150.782 2.65562 1.36085 0
M  V30 1518 C 149.531 1.8506 2.9436 0
M  V30 1519 H 148.854 2.71712 2.93279 0
M  V30 1520 H 150.294 2.0374 3.71842 0
M  V30 1521 C 148.753 0.607277 3.31382 0
M  V30 1522 O 149.283 -0.243903 4.00959 0
M  V30 1523 N 147.489 0.455073 2.87015 0
M  V30 1524 H 147.036 1.14879 2.30566 0
M  V30 1525 H 146.994 -0.375611 3.12148 0
M  V30 1526 N 150.766 -0.704594 1.40972 0
M  V30 1527 C 152.015 -1.46018 1.39146 0
M  V30 1528 C 152.328 -1.956 0.000589254 0
M  V30 1529 O 153.534 -2.71137 -0.1403 0
M  V30 1530 C 151.99 -2.63996 2.4461 0
M  V30 1531 C 151.598 -2.21238 3.89561 0
M  V30 1532 C 153.342 -3.41677 2.51907 0
M  V30 1533 C 151.249 -3.3612 4.86598 0
M  V30 1534 H 150.179 -0.548444 0.517422 0
M  V30 1535 H 152.83 -0.765784 1.66757 0
M  V30 1536 H 151.212 -3.3566 2.10115 0
M  V30 1537 H 152.386 -1.56923 4.33257 0
M  V30 1538 H 150.701 -1.56574 3.85841 0
M  V30 1539 H 153.298 -4.27182 3.2159 0
M  V30 1540 H 153.641 -3.86247 1.55303 0
M  V30 1541 H 154.174 -2.77064 2.85448 0
M  V30 1542 H 150.913 -2.96572 5.84573 0
M  V30 1543 H 150.433 -3.99315 4.47557 0
M  V30 1544 H 152.112 -4.02029 5.06934 0
M  V30 1545 N 152.244 -1.26651 -0.937939 0
M  V30 1546 C 153.49 -1.12553 -1.687 0
M  V30 1547 C 153.823 0.329782 -1.91379 0
M  V30 1548 O 153.098 1.24202 -1.4968 0
M  V30 1549 C 153.381 -1.89862 -3.05981 0
M  V30 1550 C 153.234 -3.43318 -2.90607 0
M  V30 1551 C 154.553 -1.69499 -4.0615 0
M  V30 1552 H 151.672 -0.410257 -0.612257 0
M  V30 1553 H 154.314 -1.55685 -1.08913 0
M  V30 1554 H 152.464 -1.53204 -3.57017 0
M  V30 1555 H 154.136 -3.89747 -2.46769 0
M  V30 1556 H 152.379 -3.70179 -2.26164 0
M  V30 1557 H 153.05 -3.92642 -3.8799 0
M  V30 1558 H 155.526 -2.01442 -3.64088 0
M  V30 1559 H 154.402 -2.26002 -5.00214 0
M  V30 1560 H 154.663 -0.640365 -4.37438 0
M  V30 1561 N 153.722 1.14298 -1.08507 0
M  V30 1562 C 154.97 1.84993 -0.813763 0
M  V30 1563 C 155.291 1.83405 0.662393 0
M  V30 1564 O 154.561 1.28319 1.48024 0
M  V30 1565 H 153.141 0.684966 -0.298045 0
M  V30 1566 H 155.803 1.385 -1.37126 0
M  V30 1567 H 154.899 2.89788 -1.15884 0
M  V30 1568 N 155.201 0.870884 1.31352 0
M  V30 1569 C 156.431 0.496049 2.00557 0
M  V30 1570 C 156.839 -0.916241 1.65534 0
M  V30 1571 O 156.182 -1.61188 0.881134 0
M  V30 1572 C 156.244 0.574418 3.54881 0
M  V30 1573 C 155.908 1.94849 4.1338 0
M  V30 1574 C 156.905 2.91611 4.30417 0
M  V30 1575 C 154.59 2.25005 4.49086 0
M  V30 1576 C 156.584 4.16672 4.82352 0
M  V30 1577 C 154.271 3.50315 5.00722 0
M  V30 1578 C 155.269 4.45964 5.17306 0
M  V30 1579 O 154.957 5.69052 5.67833 0
M  V30 1580 H 154.689 0.191664 0.64826 0
M  V30 1581 H 157.243 1.17409 1.68536 0
M  V30 1582 H 155.473 -0.160549 3.86367 0
M  V30 1583 H 157.162 0.212879 4.05341 0
M  V30 1584 H 157.928 2.69622 4.03149 0
M  V30 1585 H 153.807 1.51332 4.35453 0
M  V30 1586 H 157.351 4.91336 4.95211 0
M  V30 1587 H 153.248 3.72147 5.27424 0
M  V30 1588 H 154.016 5.71236 5.86201 0
M  V30 1589 N 156.679 -1.44442 0.630414 0
M  V30 1590 C 157.928 -2.01267 0.132073 0
M  V30 1591 C 158.241 -1.50172 -1.25331 0
M  V30 1592 O 159.447 -1.9912 -1.84562 0
M  V30 1593 C 157.903 -3.59422 0.185362 0
M  V30 1594 C 157.511 -4.19514 1.57201 0
M  V30 1595 C 159.255 -4.23724 -0.256553 0
M  V30 1596 C 157.162 -5.69891 1.58045 0
M  V30 1597 H 156.092 -0.752619 0.0456092 0
M  V30 1598 H 158.743 -1.65666 0.789106 0
M  V30 1599 H 157.125 -3.92318 -0.538759 0
M  V30 1600 H 158.299 -3.98156 2.31966 0
M  V30 1601 H 156.614 -3.67496 1.95795 0
M  V30 1602 H 159.211 -5.34019 -0.269767 0
M  V30 1603 H 159.554 -3.96013 -1.28372 0
M  V30 1604 H 160.087 -3.95629 0.41505 0
M  V30 1605 H 156.826 -6.02336 2.58597 0
M  V30 1606 H 156.346 -5.93373 0.875725 0
M  V30 1607 H 158.025 -6.33515 1.31408 0
M  V30 1608 N 158.157 -0.370918 -1.53173 0
M  V30 1609 C 159.434 0.273754 -1.93675 0
M  V30 1610 C 159.814 1.65938 -1.3049 0
M  V30 1611 O 159.162 2.23698 -0.465999 0
M  V30 1612 C 159.372 0.318602 -3.47543 0
M  V30 1613 C 160.72 0.556392 -4.20939 0
M  V30 1614 O 161.744 0.399587 -3.53952 0
M  V30 1615 O 160.603 0.862133 -5.39657 0
M  V30 1616 H 157.697 0.165448 -0.810281 0
M  V30 1617 H 160.243 -0.42409 -1.64315 0
M  V30 1618 H 159.015 -0.652687 -3.85818 0
M  V30 1619 H 158.638 1.06212 -3.83151 0
M  V30 1620 N 159.635 1.57281 -0.100228 0
M  V30 1621 C 160.86 1.99302 0.573881 0
M  V30 1622 C 161.285 0.979059 1.60611 0
M  V30 1623 O 160.643 -0.0517803 1.81226 0
M  V30 1624 C 160.691 3.40274 1.19358 0
M  V30 1625 O 159.795 3.41676 2.30935 0
M  V30 1626 H 159.136 0.647944 0.145138 0
M  V30 1627 H 161.666 2.03779 -0.183156 0
M  V30 1628 H 161.676 3.78078 1.53365 0
M  V30 1629 H 160.351 4.13594 0.437385 0
M  V30 1630 H 158.928 3.15672 1.98509 0
M  V30 1631 N 161.113 -0.173488 1.56642 0
M  V30 1632 C 162.338 -0.910149 1.86363 0
M  V30 1633 C 162.763 -1.75132 0.686318 0
M  V30 1634 O 162.121 -1.77595 -0.364643 0
M  V30 1635 C 162.169 -1.76447 3.14482 0
M  V30 1636 O 161.273 -2.86584 2.96553 0
M  V30 1637 H 160.614 -0.255086 0.613047 0
M  V30 1638 H 163.144 -0.172283 2.03873 0
M  V30 1639 H 163.154 -2.16483 3.45831 0
M  V30 1640 H 161.829 -1.14658 3.99783 0
M  V30 1641 H 160.406 -2.50146 2.76553 0
M  V30 1642 N 162.591 -1.51276 -0.441967 0
M  V30 1643 C 163.84 -1.6295 -1.18871 0
M  V30 1644 C 164.153 -0.349312 -1.92456 0
M  V30 1645 O 165.359 -0.345355 -2.69295 0
M  V30 1646 C 163.815 -2.87759 -2.16155 0
M  V30 1647 C 163.423 -4.22764 -1.48239 0
M  V30 1648 C 165.167 -3.08788 -2.91291 0
M  V30 1649 C 163.074 -5.38728 -2.4398 0
M  V30 1650 H 162.004 -0.606913 -0.447406 0
M  V30 1651 H 164.655 -1.77739 -0.456205 0
M  V30 1652 H 163.037 -2.66593 -2.92821 0
M  V30 1653 H 164.211 -4.54293 -0.771635 0
M  V30 1654 H 162.526 -4.07575 -0.852741 0
M  V30 1655 H 165.123 -3.92599 -3.63002 0
M  V30 1656 H 165.466 -2.21679 -3.5237 0
M  V30 1657 H 165.999 -3.30272 -2.21733 0
M  V30 1658 H 162.738 -6.28082 -1.87598 0
M  V30 1659 H 162.258 -5.1158 -3.13123 0
M  V30 1660 H 163.937 -5.70489 -3.05207 0
M  V30 1661 N 164.069 0.697108 -1.41344 0
M  V30 1662 C 165.017 1.83237 -1.43272 0
M  V30 1663 C 166.011 1.66522 -0.310947 0
M  V30 1664 O 167.217 1.73402 -0.482899 0
M  V30 1665 H 163.592 0.603802 -0.448249 0
M  V30 1666 H 165.563 1.78727 -2.38954 0
M  V30 1667 C 164.312 3.21245 -1.33029 0
M  V30 1668 H 163.635 3.34723 -2.18633 0
M  V30 1669 H 165.075 4.00763 -1.38439 0
M  V30 1670 C 163.534 3.36873 -0.0424635 0
M  V30 1671 O 164.064 3.91177 0.913421 0
M  V30 1672 N 162.27 2.90581 0.0331145 0
M  V30 1673 H 161.817 2.46577 -0.745506 0
M  V30 1674 H 161.775 3.01416 0.894199 0
M  V30 1675 N 165.547 1.27147 0.931209 0
M  V30 1676 C 166.495 1.09398 2.05268 0
M  V30 1677 C 167.489 0.0180591 1.6939 0
M  V30 1678 O 168.695 0.17551 1.79142 0
M  V30 1679 H 165.07 0.336986 0.672268 0
M  V30 1680 H 167.041 2.04416 2.17386 0
M  V30 1681 C 165.79 0.75424 3.39421 0
M  V30 1682 H 165.113 1.57404 3.67511 0
M  V30 1683 H 166.553 0.669903 4.18674 0
M  V30 1684 C 165.012 -0.541197 3.32525 0
M  V30 1685 O 165.542 -1.57664 3.69466 0
M  V30 1686 N 163.748 -0.535517 2.85623 0
M  V30 1687 H 163.295 0.307511 2.55758 0
M  V30 1688 H 163.253 -1.40236 2.81392 0
M  V30 1689 N 167.025 -1.13721 1.09112 0
M  V30 1690 C 168.271 -1.85198 0.826414 0
M  V30 1691 C 168.604 -1.83129 -0.646319 0
M  V30 1692 O 167.879 -1.2671 -1.47563 0
M  V30 1693 C 168.162 -3.33507 1.35812 0
M  V30 1694 C 168.015 -3.44108 2.89672 0
M  V30 1695 C 169.334 -4.28838 0.989256 0
M  V30 1696 H 166.453 -0.67243 0.301675 0
M  V30 1697 H 169.095 -1.33499 1.35197 0
M  V30 1698 H 167.245 -3.77666 0.911082 0
M  V30 1699 H 168.917 -3.08684 3.428 0
M  V30 1700 H 167.16 -2.85087 3.26967 0
M  V30 1701 H 167.831 -4.48388 3.21951 0
M  V30 1702 H 170.307 -3.92734 1.37475 0
M  V30 1703 H 169.183 -5.31051 1.38838 0
M  V30 1704 H 169.444 -4.4198 -0.102924 0
M  V30 1705 N 168.503 -0.877838 -1.30888 0
M  V30 1706 C 169.728 -0.506629 -2.01117 0
M  V30 1707 C 170.153 0.895564 -1.65412 0
M  V30 1708 O 169.511 1.5923 -0.866922 0
M  V30 1709 C 169.559 -0.680223 -3.54126 0
M  V30 1710 O 168.663 0.277033 -4.11468 0
M  V30 1711 H 168.004 -0.200518 -0.633 0
M  V30 1712 H 170.534 -1.18342 -1.66902 0
M  V30 1713 H 170.544 -0.5765 -4.03907 0
M  V30 1714 H 169.219 -1.70261 -3.79452 0
M  V30 1715 H 167.796 0.127606 -3.72682 0
M  V30 1716 N 169.982 1.44106 -0.638065 0
M  V30 1717 C 171.207 2.0685 -0.150916 0
M  V30 1718 C 171.632 1.47417 1.16833 0
M  V30 1719 O 170.99 0.578264 1.71831 0
M  V30 1720 C 171.038 3.60555 -0.05708 0
M  V30 1721 O 170.142 4.00465 0.984972 0
M  V30 1722 H 169.483 0.658151 -0.0879399 0
M  V30 1723 H 172.013 1.84865 -0.876707 0
M  V30 1724 H 172.023 4.07789 0.131232 0
M  V30 1725 H 170.698 4.03193 -1.02021 0
M  V30 1726 H 169.275 3.64849 0.770672 0
M  V30 1727 N 171.46 0.379036 1.52974 0
M  V30 1728 C 172.708 -0.206014 2.01047 0
M  V30 1729 C 173.029 -1.48175 1.26765 0
M  V30 1730 O 172.299 -1.92085 0.384743 0
M  V30 1731 H 170.879 -0.0791184 0.742798 0
M  V30 1732 H 173.541 0.508366 1.88153 0
M  V30 1733 H 172.637 -0.423501 3.09213 0
M  V30 1734 N 172.938 -1.57226 0.108567 0
M  V30 1735 C 174.215 -1.86333 -0.594939 0
M  V30 1736 C 174.595 -1.00788 -1.85486 0
M  V30 1737 O 173.943 -0.0839293 -2.28346 0
M  V30 1738 C 174.153 -3.37265 -0.897405 0
M  V30 1739 C 175.501 -4.05629 -1.25501 0
M  V30 1740 O 176.525 -3.42224 -0.987998 0
M  V30 1741 O 175.384 -5.17531 -1.75567 0
M  V30 1742 H 172.478 -0.771018 -0.2991 0
M  V30 1743 H 175.024 -1.69102 0.142283 0
M  V30 1744 H 173.796 -3.913 -0.00413806 0
M  V30 1745 H 173.419 -3.59889 -1.69014 0
M  V30 1746 N 174.416 0.165178 -1.56732 0
M  V30 1747 C 175.662 0.882112 -1.82611 0
M  V30 1748 C 175.995 1.81628 -0.687378 0
M  V30 1749 O 175.27 1.92009 0.310267 0
M  V30 1750 C 175.553 1.67245 -3.18906 0
M  V30 1751 C 175.406 0.760987 -4.43316 0
M  V30 1752 C 176.725 2.63884 -3.52212 0
M  V30 1753 H 173.844 0.319242 -0.664269 0
M  V30 1754 H 176.486 0.148052 -1.89422 0
M  V30 1755 H 174.636 2.29824 -3.1323 0
M  V30 1756 H 176.308 0.147596 -4.61064 0
M  V30 1757 H 174.551 0.0694102 -4.33744 0
M  V30 1758 H 175.222 1.34962 -5.35247 0
M  V30 1759 H 177.698 2.11429 -3.58381 0
M  V30 1760 H 176.574 3.16245 -4.48643 0
M  V30 1761 H 176.835 3.44377 -2.77231 0
M  V30 1762 N 175.894 1.51508 0.433938 0
M  V30 1763 C 177.14 1.65549 1.18173 0
M  V30 1764 C 177.495 0.368751 1.88833 0
M  V30 1765 O 176.788 -0.635616 1.8075 0
M  V30 1766 C 176.982 2.79928 2.22205 0
M  V30 1767 C 176.811 4.19601 1.61756 0
M  V30 1768 C 175.581 4.85489 1.40101 0
M  V30 1769 C 177.779 5.02574 1.09194 0
M  V30 1770 N 175.761 6.09266 0.752859 0
M  V30 1771 C 177.132 6.17381 0.569255 0
M  V30 1772 C 179.187 4.88079 0.984025 0
M  V30 1773 C 177.89 7.19282 -0.0507472 0
M  V30 1774 C 179.916 5.90191 0.377912 0
M  V30 1775 C 179.278 7.04272 -0.134216 0
M  V30 1776 H 175.377 0.659653 0.419979 0
M  V30 1777 H 177.961 1.88746 0.477818 0
M  V30 1778 H 176.132 2.5839 2.89982 0
M  V30 1779 H 177.864 2.83132 2.89168 0
M  V30 1780 H 174.619 4.43417 1.66369 0
M  V30 1781 H 175.043 6.75528 0.446123 0
M  V30 1782 H 179.685 4.00131 1.36583 0
M  V30 1783 H 177.403 8.06876 -0.444676 0
M  V30 1784 H 180.989 5.81045 0.296269 0
M  V30 1785 H 179.869 7.81933 -0.59585 0
M  V30 1786 N 177.372 -0.689602 1.41712 0
M  V30 1787 C 178.282 -1.83314 1.46401 0
M  V30 1788 C 179.298 -1.7036 0.35405 0
M  V30 1789 O 180.474 -1.92171 0.602692 0
M  V30 1790 C 177.539 -3.19344 1.34982 0
M  V30 1791 C 176.6 -3.44363 2.56344 0
M  V30 1792 C 175.833 -4.73904 2.45461 0
M  V30 1793 O 176.056 -5.508 1.48241 0
M  V30 1794 O 174.99 -4.99839 3.35328 0
M  V30 1795 H 178.816 -1.82314 2.42889 0
M  V30 1796 H 176.401 -0.843438 1.23315 0
M  V30 1797 H 178.283 -4.00547 1.3092 0
M  V30 1798 H 176.958 -3.21014 0.41612 0
M  V30 1799 H 175.865 -2.63067 2.65982 0
M  V30 1800 H 177.198 -3.47512 3.48563 0
M  V30 1801 N 178.85 -1.27639 -0.924453 0
M  V30 1802 C 180.096 -1.14336 -1.67497 0
M  V30 1803 C 180.429 0.309465 -1.91718 0
M  V30 1804 O 179.704 1.22608 -1.50989 0
M  V30 1805 C 179.987 -1.93096 -3.0395 0
M  V30 1806 C 179.84 -3.46381 -2.8695 0
M  V30 1807 C 181.159 -1.73798 -4.0433 0
M  V30 1808 H 178.278 -0.416728 -0.607871 0
M  V30 1809 H 180.92 -1.56832 -1.07256 0
M  V30 1810 H 179.07 -1.56982 -3.55372 0
M  V30 1811 H 180.742 -3.92343 -2.42621 0
M  V30 1812 H 178.985 -3.72557 -2.22225 0
M  V30 1813 H 179.656 -3.96735 -3.83804 0
M  V30 1814 H 182.132 -2.05293 -3.61931 0
M  V30 1815 H 181.008 -2.31294 -4.97789 0
M  V30 1816 H 181.269 -0.686725 -4.36734 0
M  V30 1817 N 180.328 1.1314 -1.09713 0
M  V30 1818 C 181.258 2.20748 -0.761102 0
M  V30 1819 C 182.239 1.68061 0.262566 0
M  V30 1820 O 183.424 1.93765 0.129977 0
M  V30 1821 C 180.554 3.46812 -0.184054 0
M  V30 1822 C 179.508 4.12606 -1.13757 0
M  V30 1823 C 178.834 5.33031 -0.422083 0
M  V30 1824 C 180.134 4.59603 -2.48118 0
M  V30 1825 H 181.828 2.49113 -1.66082 0
M  V30 1826 H 179.374 1.19734 -0.799987 0
M  V30 1827 H 181.327 4.21353 0.0631215 0
M  V30 1828 H 180.051 3.17851 0.750868 0
M  V30 1829 H 178.71 3.40036 -1.37007 0
M  V30 1830 H 178.358 5.00335 0.517072 0
M  V30 1831 H 178.058 5.77999 -1.05788 0
M  V30 1832 H 179.582 6.10325 -0.183277 0
M  V30 1833 H 180.996 5.25552 -2.29059 0
M  V30 1834 H 179.393 5.15321 -3.07514 0
M  V30 1835 H 180.463 3.73971 -3.08665 0
M  V30 1836 N 181.806 0.884767 1.30421 0
M  V30 1837 C 183.055 0.499164 1.95426 0
M  V30 1838 C 183.368 -0.95645 1.70621 0
M  V30 1839 O 184.574 -1.44889 2.29607 0
M  V30 1840 C 183.03 0.84177 3.49917 0
M  V30 1841 C 182.638 2.31514 3.83543 0
M  V30 1842 C 184.382 0.525355 4.21237 0
M  V30 1843 C 182.289 2.59939 5.31212 0
M  V30 1844 H 181.219 0.182944 0.73147 0
M  V30 1845 H 183.87 1.07971 1.48373 0
M  V30 1846 H 182.252 0.190311 3.95542 0
M  V30 1847 H 183.426 3.0109 3.48829 0
M  V30 1848 H 181.741 2.59907 3.25326 0
M  V30 1849 H 184.338 0.714762 5.29901 0
M  V30 1850 H 184.681 -0.535222 4.12845 0
M  V30 1851 H 185.214 1.134 3.81294 0
M  V30 1852 H 181.953 3.64736 5.44654 0
M  V30 1853 H 181.473 1.94972 5.67227 0
M  V30 1854 H 183.152 2.45429 5.98643 0
M  V30 1855 N 183.284 -1.43765 0.645699 0
M  V30 1856 C 184.214 -2.33471 -0.0370477 0
M  V30 1857 C 185.195 -1.49042 -0.819779 0
M  V30 1858 O 186.38 -1.77726 -0.782758 0
M  V30 1859 C 183.51 -3.32311 -1.0093 0
M  V30 1860 C 182.464 -4.2667 -0.337201 0
M  V30 1861 C 181.79 -5.1549 -1.42037 0
M  V30 1862 C 183.09 -5.16657 0.765706 0
M  V30 1863 H 184.784 -2.90809 0.712069 0
M  V30 1864 H 182.33 -1.39834 0.343876 0
M  V30 1865 H 184.283 -3.9396 -1.49578 0
M  V30 1866 H 183.007 -2.73213 -1.78948 0
M  V30 1867 H 181.666 -3.66374 0.128771 0
M  V30 1868 H 181.314 -4.52735 -2.1918 0
M  V30 1869 H 181.014 -5.79438 -0.975966 0
M  V30 1870 H 182.538 -5.80012 -1.90838 0
M  V30 1871 H 183.952 -5.72158 0.361702 0
M  V30 1872 H 182.349 -5.89286 1.13413 0
M  V30 1873 H 183.419 -4.56796 1.62683 0
M  V30 1874 N 184.763 -0.387143 -1.52771 0
M  V30 1875 C 185.696 0.493123 -2.22808 0
M  V30 1876 C 186.674 1.0658 -1.22798 0
M  V30 1877 O 187.858 1.11785 -1.51777 0
M  V30 1878 C 184.985 1.68238 -2.93962 0
M  V30 1879 C 184.031 1.23515 -4.08223 0
M  V30 1880 S 184.864 0.21848 -5.35054 0
M  V30 1881 C 186.02 1.41357 -6.09729 0
M  V30 1882 H 186.253 -0.101625 -2.97126 0
M  V30 1883 H 183.786 -0.171323 -1.53447 0
M  V30 1884 H 185.744 2.36443 -3.35567 0
M  V30 1885 H 184.405 2.24842 -2.19328 0
M  V30 1886 H 183.598 2.12304 -4.57103 0
M  V30 1887 H 183.2 0.632044 -3.68621 0
M  V30 1888 H 185.492 2.34101 -6.3577 0
M  V30 1889 H 186.435 0.965736 -7.01484 0
M  V30 1890 H 186.843 1.6294 -5.40473 0
M  V30 1891 N 186.241 1.57166 -0.116904 0
M  V30 1892 C 187.518 1.86645 0.585049 0
M  V30 1893 C 187.898 1.0177 1.84949 0
M  V30 1894 O 187.246 0.0960379 2.28298 0
M  V30 1895 C 187.456 3.37736 0.879507 0
M  V30 1896 C 188.804 4.06289 1.23348 0
M  V30 1897 O 189.828 3.42743 0.969836 0
M  V30 1898 O 188.687 5.18455 1.7282 0
M  V30 1899 H 185.781 0.772593 0.295007 0
M  V30 1900 H 188.327 1.69025 -0.151249 0
M  V30 1901 H 187.099 3.91296 -0.0166136 0
M  V30 1902 H 186.722 3.6078 1.67103 0
M  V30 1903 N 187.719 -0.156864 1.56817 0
M  V30 1904 C 188.966 -0.871125 1.82805 0
M  V30 1905 C 189.294 -1.81611 0.696262 0
M  V30 1906 O 188.549 -1.93141 -0.315459 0
M  V30 1907 C 188.848 -1.68737 3.1506 0
M  V30 1908 C 188.514 -0.890045 4.42028 0
M  V30 1909 C 187.176 -0.670042 4.76512 0
M  V30 1910 C 189.528 -0.331769 5.20143 0
M  V30 1911 C 186.856 0.119104 5.86579 0
M  V30 1912 C 189.208 0.444365 6.31037 0
M  V30 1913 C 187.872 0.675035 6.64078 0
M  V30 1914 H 187.142 -0.318767 0.668931 0
M  V30 1915 H 189.789 -0.135274 1.91022 0
M  V30 1916 H 188.094 -2.49304 3.0225 0
M  V30 1917 H 189.791 -2.24331 3.3238 0
M  V30 1918 H 186.381 -1.07157 4.14988 0
M  V30 1919 H 190.565 -0.489043 4.93885 0
M  V30 1920 H 185.821 0.307417 6.10627 0
M  V30 1921 H 189.995 0.884139 6.90765 0
M  V30 1922 H 187.622 1.28839 7.49203 0
M  V30 1923 N 189.197 -1.51736 -0.425897 0
M  V30 1924 C 190.437 -1.66636 -1.18371 0
M  V30 1925 C 190.801 -0.379854 -1.88205 0
M  V30 1926 O 192.002 -0.404758 -2.65735 0
M  V30 1927 C 190.273 -2.84382 -2.16476 0
M  V30 1928 S 191.832 -3.19673 -3.0059 0
M  V30 1929 H 188.65 -0.586957 -0.40125 0
M  V30 1930 H 191.252 -1.89679 -0.473518 0
M  V30 1931 H 189.956 -3.76281 -1.63831 0
M  V30 1932 H 189.487 -2.63562 -2.92059 0
M  V30 1933 H 191.502 -2.66994 -4.18245 0
M  V30 1934 N 190.675 0.682077 -1.42076 0
M  V30 1935 C 192.091 0.994324 -1.24841 0
M  V30 1936 C 192.291 2.0096 -0.147389 0
M  V30 1937 O 191.347 2.47822 0.483782 0
M  V30 1938 C 192.66 1.50607 -2.60265 0
M  V30 1939 C 194.208 1.62421 -2.6756 0
M  V30 1940 C 194.683 2.16994 -4.03333 0
M  V30 1941 N 196.174 2.24337 -4.0525 0
M  V30 1942 C 196.909 2.67621 -5.07116 0
M  V30 1943 N 196.405 3.1041 -6.19368 0
M  V30 1944 N 198.198 2.67305 -4.94474 0
M  V30 1945 H 190.349 0.00973908 -2.12398 0
M  V30 1946 H 192.612 0.0668593 -0.945639 0
M  V30 1947 H 192.318 0.834583 -3.41654 0
M  V30 1948 H 192.192 2.48602 -2.83684 0
M  V30 1949 H 194.579 2.28678 -1.86521 0
M  V30 1950 H 194.66 0.629352 -2.47937 0
M  V30 1951 H 194.304 1.51349 -4.84826 0
M  V30 1952 H 194.234 3.17258 -4.20304 0
M  V30 1953 H 196.725 1.94158 -3.24209 0
M  V30 1954 H 197.038 3.42103 -6.92954 0
M  V30 1955 H 195.383 3.08286 -6.22884 0
M  V30 1956 H 198.574 2.33233 -4.05857 0
M  V30 1957 H 198.747 3.00718 -5.73997 0
M  V30 1958 N 192.153 1.28127 0.917671 0
M  V30 1959 C 193.401 1.14825 1.66312 0
M  V30 1960 C 193.722 -0.304379 1.9261 0
M  V30 1961 O 192.992 -1.21149 1.53947 0
M  V30 1962 H 191.572 0.421953 0.616413 0
M  V30 1963 H 194.234 1.608 1.10134 0
M  V30 1964 H 193.33 1.68489 2.62712 0
M  V30 1965 N 193.631 -1.12557 1.10312 0
M  V30 1966 C 194.879 -1.83675 0.843091 0
M  V30 1967 C 195.2 -1.84435 -0.633131 0
M  V30 1968 O 194.47 -1.30657 -1.45964 0
M  V30 1969 H 193.05 -0.680138 0.308904 0
M  V30 1970 H 195.712 -1.36301 1.39313 0
M  V30 1971 H 194.808 -2.87908 1.2048 0
M  V30 1972 N 195.109 -0.891671 -1.2995 0
M  V30 1973 C 196.041 -0.320695 -2.26945 0
M  V30 1974 C 197.054 0.528497 -1.53983 0
M  V30 1975 O 198.243 0.346959 -1.75096 0
M  V30 1976 C 195.343 0.562066 -3.34207 0
M  V30 1977 C 194.516 -0.259576 -4.36629 0
M  V30 1978 C 193.575 0.554739 -5.23268 0
M  V30 1979 O 192.601 -0.0249311 -5.69195 0
M  V30 1980 N 193.803 1.8625 -5.4981 0
M  V30 1981 H 196.568 -1.15432 -2.76578 0
M  V30 1982 H 194.129 -0.755336 -1.432 0
M  V30 1983 H 196.121 1.11304 -3.89093 0
M  V30 1984 H 194.691 1.29637 -2.84452 0
M  V30 1985 H 193.911 -0.991986 -3.81514 0
M  V30 1986 H 195.199 -0.822564 -5.02107 0
M  V30 1987 H 194.597 2.35628 -5.14292 0
M  V30 1988 H 193.154 2.36078 -6.07545 0
M  V30 1989 N 196.587 1.43421 -0.653314 0
M  V30 1990 C 197.833 2.02111 -0.166992 0
M  V30 1991 C 198.166 1.51423 1.21592 0
M  V30 1992 O 197.441 0.707389 1.8118 0
M  V30 1993 C 197.724 3.5966 -0.177948 0
M  V30 1994 C 197.577 4.20579 -1.59478 0
M  V30 1995 C 198.896 4.37413 0.4856 0
M  V30 1996 H 196.015 0.734374 -0.0621557 0
M  V30 1997 H 198.657 1.70717 -0.834016 0
M  V30 1998 H 196.807 3.86537 0.390032 0
M  V30 1999 H 198.479 4.04732 -2.21336 0
M  V30 2000 H 196.722 3.77226 -2.14204 0
M  V30 2001 H 197.393 5.29665 -1.5543 0
M  V30 2002 H 199.869 4.161 0.00234528 0
M  V30 2003 H 198.745 5.47075 0.447207 0
M  V30 2004 H 199.006 4.13672 1.55974 0
M  V30 2005 N 198.065 0.39524 1.52563 0
M  V30 2006 C 199.311 -0.185318 2.01952 0
M  V30 2007 C 199.644 -1.45964 1.28095 0
M  V30 2008 O 198.919 -1.90689 0.38315 0
M  V30 2009 C 199.202 -0.447193 3.57312 0
M  V30 2010 C 199.055 0.842828 4.41833 0
M  V30 2011 C 200.374 -1.23529 4.22408 0
M  V30 2012 H 197.493 -0.0658788 0.73405 0
M  V30 2013 H 200.135 0.525975 1.82575 0
M  V30 2014 H 198.285 -1.05312 3.73954 0
M  V30 2015 H 199.957 1.4795 4.36931 0
M  V30 2016 H 198.2 1.45686 4.08605 0
M  V30 2017 H 198.871 0.614165 5.48573 0
M  V30 2018 H 201.347 -0.722445 4.0978 0
M  V30 2019 H 200.223 -1.38727 5.3108 0
M  V30 2020 H 200.484 -2.25213 3.80436 0
M  V30 2021 N 199.544 -1.57102 0.125237 0
M  V30 2022 C 200.492 -2.16905 -0.839927 0
M  V30 2023 C 201.486 -1.11998 -1.27094 0
M  V30 2024 O 202.692 -1.3029 -1.24195 0
M  V30 2025 H 199.067 -0.694252 -0.288995 0
M  V30 2026 H 201.038 -2.96774 -0.311115 0
M  V30 2027 C 199.787 -2.78795 -2.07771 0
M  V30 2028 H 199.11 -3.59221 -1.755 0
M  V30 2029 H 200.55 -3.2417 -2.73295 0
M  V30 2030 C 199.009 -1.76193 -2.87155 0
M  V30 2031 O 199.539 -1.21909 -3.82755 0
M  V30 2032 N 197.745 -1.45991 -2.51267 0
M  V30 2033 H 197.292 -1.90325 -1.73592 0
M  V30 2034 H 197.25 -0.775844 -3.04677 0
M  V30 2035 N 201.022 0.148545 -1.56898 0
M  V30 2036 C 201.952 1.18524 -2.01182 0
M  V30 2037 C 202.933 1.4489 -0.891123 0
M  V30 2038 O 204.118 1.55836 -1.15882 0
M  V30 2039 C 201.248 2.51879 -2.39112 0
M  V30 2040 C 200.202 2.40038 -3.54353 0
M  V30 2041 C 199.528 3.78089 -3.78091 0
M  V30 2042 C 200.828 1.88577 -4.87069 0
M  V30 2043 H 202.522 0.817029 -2.88036 0
M  V30 2044 H 200.068 0.391575 -1.38574 0
M  V30 2045 H 202.021 3.24627 -2.68692 0
M  V30 2046 H 200.745 2.90532 -1.49193 0
M  V30 2047 H 199.404 1.69742 -3.24936 0
M  V30 2048 H 199.052 4.14175 -2.85426 0
M  V30 2049 H 198.752 3.71028 -4.55645 0
M  V30 2050 H 200.276 4.52387 -4.10095 0
M  V30 2051 H 201.69 2.51117 -5.15377 0
M  V30 2052 H 200.087 1.9241 -5.68417 0
M  V30 2053 H 201.157 0.84136 -4.77545 0
M  V30 2054 N 202.5 1.5196 0.417844 0
M  V30 2055 C 203.433 1.69387 1.52916 0
M  V30 2056 C 204.411 0.541419 1.53321 0
M  V30 2057 O 205.595 0.767695 1.72159 0
M  V30 2058 C 202.722 1.72525 2.91467 0
M  V30 2059 C 201.768 2.93967 3.09008 0
M  V30 2060 S 202.601 4.54461 2.83242 0
M  V30 2061 C 203.757 4.60372 4.24038 0
M  V30 2062 H 203.99 2.63382 1.37903 0
M  V30 2063 H 201.523 1.41889 0.608845 0
M  V30 2064 H 203.481 1.75018 3.7132 0
M  V30 2065 H 202.142 0.796733 3.03827 0
M  V30 2066 H 201.335 2.92619 4.10353 0
M  V30 2067 H 200.937 2.89316 2.37007 0
M  V30 2068 H 203.229 4.37213 5.17544 0
M  V30 2069 H 204.172 5.62273 4.30412 0
M  V30 2070 H 204.58 3.89492 4.08602 0
M  V30 2071 N 203.978 -0.674533 1.42435 0
M  V30 2072 C 204.926 -1.80934 1.46169 0
M  V30 2073 C 205.92 -1.66006 0.3374 0
M  V30 2074 O 207.126 -1.72611 0.510425 0
M  V30 2075 H 203.501 -0.596594 0.457798 0
M  V30 2076 H 205.472 -1.74903 2.41767 0
M  V30 2077 C 204.221 -3.19088 1.38123 0
M  V30 2078 H 203.544 -3.31203 2.23931 0
M  V30 2079 H 204.984 -3.9851 1.44797 0
M  V30 2080 C 203.443 -3.36763 0.0960517 0
M  V30 2081 O 203.973 -3.92581 -0.851073 0
M  V30 2082 N 202.179 -2.90597 0.0131186 0
M  V30 2083 H 201.726 -2.45359 0.784639 0
M  V30 2084 H 201.684 -3.028 -0.846133 0
M  V30 2085 N 205.456 -1.28612 -0.910864 0
M  V30 2086 C 206.388 -1.08589 -2.01844 0
M  V30 2087 C 207.401 -0.0367419 -1.62759 0
M  V30 2088 O 208.59 -0.280101 -1.76289 0
M  V30 2089 C 205.69 -0.628626 -3.33019 0
M  V30 2090 C 204.863 -1.75382 -4.00699 0
M  V30 2091 C 203.922 -1.28945 -5.10156 0
M  V30 2092 O 202.948 -1.9922 -5.33198 0
M  V30 2093 N 204.15 -0.154224 -5.80295 0
M  V30 2094 H 206.915 -2.03973 -2.19579 0
M  V30 2095 H 204.476 -1.20403 -1.08234 0
M  V30 2096 H 206.468 -0.301508 -4.03575 0
M  V30 2097 H 205.038 0.232451 -3.11735 0
M  V30 2098 H 204.258 -2.25039 -3.23653 0
M  V30 2099 H 205.546 -2.50854 -4.42662 0
M  V30 2100 H 204.944 0.43194 -5.64049 0
M  V30 2101 H 203.501 0.113599 -6.51701 0
M  V30 2102 N 206.934 1.1197 -1.10907 0
M  V30 2103 C 208.35 1.35591 -0.841852 0
M  V30 2104 C 208.55 1.94233 0.536246 0
M  V30 2105 O 207.606 2.1717 1.28816 0
M  V30 2106 C 208.919 2.29284 -1.94549 0
M  V30 2107 C 210.467 2.42862 -1.97451 0
M  V30 2108 C 210.942 3.39873 -3.07002 0
M  V30 2109 N 212.433 3.47433 -3.06341 0
M  V30 2110 C 213.168 4.22421 -3.87748 0
M  V30 2111 N 212.664 5.00432 -4.79103 0
M  V30 2112 N 214.457 4.17876 -3.75946 0
M  V30 2113 H 206.608 0.722664 -1.99728 0
M  V30 2114 H 208.871 0.380635 -0.868229 0
M  V30 2115 H 208.577 1.93378 -2.93765 0
M  V30 2116 H 208.451 3.29452 -1.83688 0
M  V30 2117 H 210.838 2.78046 -0.988645 0
M  V30 2118 H 210.919 1.42566 -2.12388 0
M  V30 2119 H 210.563 3.05417 -4.05811 0
M  V30 2120 H 210.493 4.40011 -2.89306 0
M  V30 2121 H 212.984 2.91784 -2.40147 0
M  V30 2122 H 213.297 5.55002 -5.37766 0
M  V30 2123 H 211.642 4.99612 -4.83128 0
M  V30 2124 H 214.833 3.56016 -3.03924 0
M  V30 2125 H 215.006 4.76061 -4.39624 0
M  V30 2126 N 208.412 0.89855 1.29475 0
M  V30 2127 C 209.342 0.39201 2.30186 0
M  V30 2128 C 210.323 -0.532359 1.61555 0
M  V30 2129 O 211.508 -0.443331 1.89072 0
M  V30 2130 C 208.638 -0.382353 3.45189 0
M  V30 2131 C 207.592 0.451483 4.25612 0
M  V30 2132 C 206.918 -0.450307 5.328 0
M  V30 2133 C 208.218 1.70079 4.93832 0
M  V30 2134 H 209.912 1.23362 2.72804 0
M  V30 2135 H 207.458 0.594638 1.31149 0
M  V30 2136 H 209.411 -0.747451 4.14718 0
M  V30 2137 H 208.135 -1.25774 3.01411 0
M  V30 2138 H 206.794 0.798897 3.57789 0
M  V30 2139 H 206.442 -1.32379 4.85268 0
M  V30 2140 H 206.142 0.103902 5.87508 0
M  V30 2141 H 207.666 -0.811623 6.05182 0
M  V30 2142 H 209.08 1.40549 5.55805 0
M  V30 2143 H 207.477 2.19623 5.58467 0
M  V30 2144 H 208.547 2.43744 4.19186 0
M  V30 2145 N 209.89 -1.43072 0.660911 0
M  V30 2146 C 210.822 -2.29108 -0.0647641 0
M  V30 2147 C 211.835 -1.42928 -0.779448 0
M  V30 2148 O 213.024 -1.66788 -0.635921 0
M  V30 2149 C 210.124 -3.20032 -1.11503 0
M  V30 2150 C 209.297 -4.34792 -0.476955 0
M  V30 2151 C 208.356 -5.06534 -1.42513 0
M  V30 2152 O 207.382 -5.61538 -0.930771 0
M  V30 2153 N 208.584 -5.1075 -2.75889 0
M  V30 2154 H 211.349 -2.92029 0.673731 0
M  V30 2155 H 208.91 -1.53846 0.50427 0
M  V30 2156 H 210.902 -3.64892 -1.75032 0
M  V30 2157 H 209.472 -2.58658 -1.75541 0
M  V30 2158 H 208.692 -3.92752 0.337572 0
M  V30 2159 H 209.98 -5.0879 -0.0318525 0
M  V30 2160 H 209.378 -4.67447 -3.18606 0
M  V30 2161 H 207.935 -5.59302 -3.347 0
M  V30 2162 N 211.368 -0.403325 -1.52352 0
M  V30 2163 C 212.596 0.174012 -2.06167 0
M  V30 2164 C 213.011 1.39347 -1.27388 0
M  V30 2165 O 212.368 1.79597 -0.324201 0
M  V30 2166 C 212.419 0.530223 -3.5759 0
M  V30 2167 O 212.14 -0.640806 -4.33388 0
M  V30 2168 C 213.641 1.16192 -4.27802 0
M  V30 2169 H 210.861 0.0229464 -0.670608 0
M  V30 2170 H 213.405 -0.572604 -1.9632 0
M  V30 2171 H 211.56 1.22673 -3.67464 0
M  V30 2172 H 211.974 -0.344851 -5.23365 0
M  V30 2173 H 213.448 1.36141 -5.34948 0
M  V30 2174 H 213.925 2.13335 -3.83907 0
M  V30 2175 H 214.531 0.505775 -4.22282 0
M  V30 2176 N 212.846 1.57033 -0.133567 0
M  V30 2177 C 214.094 1.953 0.519848 0
M  V30 2178 C 214.415 1.01866 1.66278 0
M  V30 2179 O 213.685 0.0776513 1.95746 0
M  V30 2180 H 212.265 0.721091 0.195032 0
M  V30 2181 H 214.927 1.93809 -0.205921 0
M  V30 2182 H 214.023 2.98695 0.904854 0
M  V30 2183 N 214.325 -0.140222 1.56975 0
M  V30 2184 C 215.572 -0.851687 1.83719 0
M  V30 2185 C 215.9 -1.80862 0.715485 0
M  V30 2186 O 215.155 -1.93464 -0.294956 0
M  V30 2187 C 215.454 -1.65386 3.16832 0
M  V30 2188 C 215.12 -0.843112 4.42947 0
M  V30 2189 C 213.782 -0.619464 4.77196 0
M  V30 2190 C 216.134 -0.276582 5.20466 0
M  V30 2191 C 213.462 0.181312 5.8642 0
M  V30 2192 C 215.814 0.51127 6.30531 0
M  V30 2193 C 214.478 0.745432 6.63325 0
M  V30 2194 H 213.748 -0.311654 0.672274 0
M  V30 2195 H 216.395 -0.115006 1.91154 0
M  V30 2196 H 214.7 -2.46084 3.04877 0
M  V30 2197 H 216.397 -2.20793 3.34741 0
M  V30 2198 H 212.987 -1.0275 4.16101 0
M  V30 2199 H 217.171 -0.436632 4.94376 0
M  V30 2200 H 212.427 0.372165 6.10266 0
M  V30 2201 H 216.601 0.957354 6.89788 0
M  V30 2202 H 214.228 1.36778 7.47794 0
M  V30 2203 N 215.803 -1.52179 -0.40978 0
M  V30 2204 C 217.031 -1.70054 -1.17853 0
M  V30 2205 C 217.446 -0.409735 -1.843 0
M  V30 2206 O 216.803 0.614183 -1.71855 0
M  V30 2207 C 216.854 -2.83568 -2.24213 0
M  V30 2208 O 216.575 -4.0765 -1.60478 0
M  V30 2209 C 218.076 -3.12947 -3.13973 0
M  V30 2210 H 215.296 -0.569917 -0.354169 0
M  V30 2211 H 217.84 -1.98734 -0.482198 0
M  V30 2212 H 215.995 -2.57409 -2.89516 0
M  V30 2213 H 216.409 -4.70899 -2.30986 0
M  V30 2214 H 217.883 -3.95889 -3.84677 0
M  V30 2215 H 218.36 -2.26472 -3.76307 0
M  V30 2216 H 218.966 -3.40868 -2.5434 0
M  V30 2217 N 217.281 0.66697 -1.42791 0
M  V30 2218 C 218.191 1.80962 -1.49299 0
M  V30 2219 C 219.207 1.69775 -0.381108 0
M  V30 2220 O 220.383 1.91188 -0.633188 0
M  V30 2221 C 217.448 3.17156 -1.40045 0
M  V30 2222 C 216.509 3.40242 -2.6179 0
M  V30 2223 C 215.742 4.69939 -2.52969 0
M  V30 2224 O 215.965 5.48372 -1.56985 0
M  V30 2225 O 214.899 4.94441 -3.43237 0
M  V30 2226 H 218.725 1.78427 -2.45759 0
M  V30 2227 H 216.31 0.823713 -1.24641 0
M  V30 2228 H 218.192 3.98413 -1.37276 0
M  V30 2229 H 216.867 3.20312 -0.467138 0
M  V30 2230 H 215.774 2.58802 -2.70134 0
M  V30 2231 H 217.107 3.41923 -3.54047 0
M  V30 2232 N 218.759 1.29093 0.90403 0
M  V30 2233 C 219.707 1.13727 2.02901 0
M  V30 2234 C 220.701 0.0539853 1.69314 0
M  V30 2235 O 221.907 0.213469 1.7873 0
M  V30 2236 H 218.282 0.35117 0.664969 0
M  V30 2237 H 220.253 2.08982 2.13001 0
M  V30 2238 C 219.002 0.826066 3.37745 0
M  V30 2239 H 218.325 1.65164 3.64089 0
M  V30 2240 H 219.765 0.758559 4.17159 0
M  V30 2241 C 218.224 -0.470541 3.33598 0
M  V30 2242 O 218.754 -1.49792 3.72727 0
M  V30 2243 N 216.96 -0.474812 2.86695 0
M  V30 2244 H 216.507 0.361692 2.55048 0
M  V30 2245 H 216.465 -1.34236 2.84303 0
M  V30 2246 N 220.237 -1.11381 1.11499 0
M  V30 2247 C 221.147 -2.21019 0.786628 0
M  V30 2248 C 222.163 -1.72597 -0.220507 0
M  V30 2249 O 223.339 -2.01321 -0.0565251 0
M  V30 2250 C 220.404 -3.459 0.235333 0
M  V30 2251 C 219.465 -4.09107 1.30115 0
M  V30 2252 C 218.698 -5.28027 0.776068 0
M  V30 2253 O 218.921 -5.6904 -0.393661 0
M  V30 2254 O 217.855 -5.81835 1.54114 0
M  V30 2255 H 221.681 -2.51521 1.70209 0
M  V30 2256 H 219.266 -1.19928 0.890928 0
M  V30 2257 H 221.148 -4.21346 -0.067715 0
M  V30 2258 H 219.823 -3.17049 -0.652828 0
M  V30 2259 H 218.73 -3.35391 1.65722 0
M  V30 2260 H 220.063 -4.42139 2.16273 0
M  V30 2261 N 221.715 -0.905404 -1.28997 0
M  V30 2262 C 222.961 -0.535039 -1.95615 0
M  V30 2263 C 223.294 0.917404 -1.71165 0
M  V30 2264 O 222.569 1.65123 -1.02785 0
M  V30 2265 C 222.852 -0.834918 -3.50287 0
M  V30 2266 C 222.705 -2.33948 -3.84172 0
M  V30 2267 C 224.024 -0.325318 -4.38896 0
M  V30 2268 H 221.143 -0.195861 -0.710498 0
M  V30 2269 H 223.785 -1.13313 -1.52513 0
M  V30 2270 H 221.935 -0.325904 -3.87131 0
M  V30 2271 H 223.607 -2.91847 -3.57243 0
M  V30 2272 H 221.85 -2.79789 -3.31513 0
M  V30 2273 H 222.521 -2.49987 -4.92149 0
M  V30 2274 H 224.997 -0.761256 -4.09077 0
M  V30 2275 H 223.873 -0.564295 -5.45992 0
M  V30 2276 H 224.134 0.774144 -4.35269 0
M  V30 2277 N 223.193 1.4272 -0.668489 0
M  V30 2278 C 224.123 2.335 -0.000100175 0
M  V30 2279 C 225.104 1.50328 0.795964 0
M  V30 2280 O 226.289 1.78949 0.754385 0
M  V30 2281 C 223.419 3.33874 0.956302 0
M  V30 2282 C 222.373 4.27152 0.269278 0
M  V30 2283 C 221.699 5.17684 1.33818 0
M  V30 2284 C 222.999 5.15373 -0.847805 0
M  V30 2285 H 224.693 2.89639 -0.758244 0
M  V30 2286 H 222.239 1.39269 -0.366079 0
M  V30 2287 H 224.192 3.9629 1.43292 0
M  V30 2288 H 222.916 2.76025 1.74579 0
M  V30 2289 H 221.575 3.66123 -0.187042 0
M  V30 2290 H 221.223 4.56165 2.1195 0
M  V30 2291 H 220.923 5.80918 0.883659 0
M  V30 2292 H 222.447 5.82974 1.81586 0
M  V30 2293 H 223.861 5.7151 -0.452681 0
M  V30 2294 H 222.258 5.87407 -1.22773 0
M  V30 2295 H 223.328 4.5415 -1.69929 0
M  V30 2296 N 224.671 0.411399 1.52136 0
M  V30 2297 C 225.603 -0.448386 2.24771 0
M  V30 2298 C 226.616 -1.00828 1.27818 0
M  V30 2299 O 227.805 -0.906841 1.53749 0
M  V30 2300 C 224.905 -1.63636 2.96777 0
M  V30 2301 C 224.078 -1.19995 4.20618 0
M  V30 2302 C 223.137 -2.25509 4.75428 0
M  V30 2303 O 222.163 -1.86007 5.3795 0
M  V30 2304 N 223.365 -3.577 4.57199 0
M  V30 2305 H 226.13 0.174025 2.99194 0
M  V30 2306 H 223.691 0.238897 1.60128 0
M  V30 2307 H 225.683 -2.33793 3.30338 0
M  V30 2308 H 224.253 -2.16465 2.25526 0
M  V30 2309 H 223.473 -0.326421 3.92846 0
M  V30 2310 H 224.761 -0.885365 5.01038 0
M  V30 2311 H 224.159 -3.92543 4.07341 0
M  V30 2312 H 222.716 -4.23827 4.95191 0
M  V30 2313 N 226.149 -1.5696 0.141893 0
M  V30 2314 C 227.398 -1.95135 -0.510427 0
M  V30 2315 C 227.711 -1.02896 -1.66348 0
M  V30 2316 O 228.917 -1.30629 -2.38009 0
M  V30 2317 C 227.373 -3.46876 -0.959427 0
M  V30 2318 C 226.981 -4.47691 0.166419 0
M  V30 2319 C 228.725 -3.93927 -1.58183 0
M  V30 2320 C 226.632 -5.90636 -0.300565 0
M  V30 2321 H 225.562 -0.728494 -0.194454 0
M  V30 2322 H 228.213 -1.8211 0.22542 0
M  V30 2323 H 226.595 -3.55215 -1.75038 0
M  V30 2324 H 227.769 -4.51043 0.94325 0
M  V30 2325 H 226.084 -4.10527 0.696905 0
M  V30 2326 H 228.681 -4.98158 -1.94275 0
M  V30 2327 H 229.024 -3.3519 -2.46888 0
M  V30 2328 H 229.557 -3.88484 -0.855863 0
M  V30 2329 H 226.296 -6.5318 0.550989 0
M  V30 2330 H 225.816 -5.90655 -1.04338 0
M  V30 2331 H 227.495 -6.42588 -0.754265 0
M  V30 2332 N 227.627 0.131896 -1.57047 0
M  V30 2333 C 228.874 0.841932 -1.84168 0
M  V30 2334 C 229.202 1.8048 -0.725066 0
M  V30 2335 O 228.457 1.93618 0.284692 0
M  V30 2336 C 228.756 1.63703 -3.17704 0
M  V30 2337 C 228.422 0.81961 -4.43388 0
M  V30 2338 C 227.084 0.594148 -4.77518 0
M  V30 2339 C 229.436 0.248977 -5.20605 0
M  V30 2340 C 226.764 -0.212409 -5.86315 0
M  V30 2341 C 229.116 -0.544701 -6.30251 0
M  V30 2342 C 227.78 -0.780599 -6.6292 0
M  V30 2343 H 227.05 0.308085 -0.673917 0
M  V30 2344 H 229.697 0.104867 -1.91213 0
M  V30 2345 H 228.002 2.44464 -3.06177 0
M  V30 2346 H 229.699 2.19015 -3.35907 0
M  V30 2347 H 226.289 1.00542 -4.16641 0
M  V30 2348 H 230.473 0.410408 -4.946 0
M  V30 2349 H 225.729 -0.404524 -6.1006 0
M  V30 2350 H 229.903 -0.993922 -6.89271 0
M  V30 2351 H 227.53 -1.40742 -7.47058 0
M  V30 2352 N 229.106 1.52395 0.401703 0
M  V30 2353 C 230.346 1.68498 1.15705 0
M  V30 2354 C 230.71 0.409748 1.87577 0
M  V30 2355 O 231.911 0.446983 2.65058 0
M  V30 2356 C 230.182 2.87789 2.11924 0
M  V30 2357 S 231.741 3.24415 2.95466 0
M  V30 2358 H 228.559 0.593267 0.391862 0
M  V30 2359 H 231.161 1.90408 0.443282 0
M  V30 2360 H 229.865 3.7884 1.57824 0
M  V30 2361 H 229.396 2.68175 2.87829 0
M  V30 2362 H 231.411 2.73614 4.13944 0
M  V30 2363 N 230.584 -0.659388 1.43143 0
M  V30 2364 C 231.861 -1.41627 1.34912 0
M  V30 2365 C 232.241 -2.11099 -0.00607785 0
M  V30 2366 O 231.589 -2.04353 -1.02236 0
M  V30 2367 C 231.799 -2.40604 2.52805 0
M  V30 2368 C 233.147 -3.04789 2.95616 0
M  V30 2369 O 234.171 -2.50932 2.52807 0
M  V30 2370 O 233.03 -4.02421 3.69756 0
M  V30 2371 H 230.124 -0.63246 0.532844 0
M  V30 2372 H 232.67 -0.686814 1.5518 0
M  V30 2373 H 231.442 -1.88174 3.43083 0
M  V30 2374 H 231.065 -3.21009 2.34604 0
M  V30 2375 N 232.062 -1.29571 -0.897171 0
M  V30 2376 C 233.29 -1.20583 -1.68129 0
M  V30 2377 C 233.705 0.233181 -1.87354 0
M  V30 2378 O 233.062 1.15579 -1.41236 0
M  V30 2379 C 233.113 -1.91772 -3.06441 0
M  V30 2380 O 232.834 -3.30053 -2.88091 0
M  V30 2381 C 234.335 -1.89291 -4.00854 0
M  V30 2382 H 231.555 -0.417826 -0.525036 0
M  V30 2383 H 234.099 -1.70987 -1.12177 0
M  V30 2384 H 232.254 -1.45196 -3.59161 0
M  V30 2385 H 232.668 -3.65942 -3.75748 0
M  V30 2386 H 234.142 -2.43662 -4.95311 0
M  V30 2387 H 234.619 -0.869014 -4.30517 0
M  V30 2388 H 235.225 -2.35622 -3.54066 0
M  V30 2389 N 233.54 1.10788 -1.12088 0
M  V30 2390 C 234.78 1.84297 -0.883974 0
M  V30 2391 C 235.144 1.83036 0.579797 0
M  V30 2392 O 236.345 2.52061 0.933734 0
M  V30 2393 C 234.616 3.27173 -1.43849 0
M  V30 2394 S 236.175 4.17853 -1.33957 0
M  V30 2395 H 232.993 0.635433 -0.318977 0
M  V30 2396 H 235.595 1.33341 -1.4297 0
M  V30 2397 H 234.299 3.25658 -2.49749 0
M  V30 2398 H 233.83 3.83198 -0.890096 0
M  V30 2399 H 235.845 4.95239 -0.308603 0
M  V30 2400 N 235.018 0.912232 1.28515 0
M  V30 2401 C 235.928 0.404506 2.31086 0
M  V30 2402 C 236.944 -0.50707 1.66448 0
M  V30 2403 O 238.12 -0.393624 1.97516 0
M  V30 2404 C 235.185 -0.348572 3.44943 0
M  V30 2405 C 234.246 0.59604 4.25142 0
M  V30 2406 C 233.479 -0.121194 5.33562 0
M  V30 2407 O 233.702 -1.34317 5.5436 0
M  V30 2408 O 232.636 0.542716 5.99448 0
M  V30 2409 H 236.462 1.25579 2.76521 0
M  V30 2410 H 234.047 0.676998 1.33181 0
M  V30 2411 H 235.929 -0.77395 4.14232 0
M  V30 2412 H 234.604 -1.17571 3.01594 0
M  V30 2413 H 233.511 1.07079 3.58448 0
M  V30 2414 H 234.844 1.38995 4.72167 0
M  V30 2415 N 236.496 -1.42363 0.676048 0
M  V30 2416 C 237.459 -2.29199 0.00766941 0
M  V30 2417 C 238.459 -1.43389 -0.727745 0
M  V30 2418 O 239.649 -1.64764 -0.56556 0
M  V30 2419 C 236.781 -3.2591 -0.999785 0
M  V30 2420 H 237.974 -2.89794 0.771988 0
M  V30 2421 H 235.527 -1.50024 0.438468 0
M  V30 2422 H 236.262 -2.70256 -1.79255 0
M  V30 2423 H 236.047 -3.89202 -0.475829 0
M  V30 2424 H 237.537 -3.91028 -1.46583 0
M  V30 2425 N 237.974 -0.419461 -1.51915 0
M  V30 2426 C 239.22 0.153166 -2.02221 0
M  V30 2427 C 239.553 1.43907 -1.30401 0
M  V30 2428 O 238.828 1.90055 -0.413438 0
M  V30 2429 C 239.111 0.390291 -3.57979 0
M  V30 2430 C 238.964 -0.913014 -4.40436 0
M  V30 2431 C 240.283 1.16794 -4.2432 0
M  V30 2432 H 237.402 0.0541924 -0.735005 0
M  V30 2433 H 240.044 -0.554955 -1.81715 0
M  V30 2434 H 238.194 0.993491 -3.75582 0
M  V30 2435 H 239.866 -1.54882 -4.34522 0
M  V30 2436 H 238.109 -1.52168 -4.06236 0
M  V30 2437 H 238.78 -0.701361 -5.47526 0
M  V30 2438 H 241.256 0.657161 -4.10878 0
M  V30 2439 H 240.132 1.3026 -5.3322 0
M  V30 2440 H 240.393 2.19132 -3.83971 0
M  V30 2441 N 239.452 1.56882 -0.150215 0
M  V30 2442 C 240.415 2.1573 0.774157 0
M  V30 2443 C 241.415 1.0999 1.17298 0
M  V30 2444 O 242.605 1.35613 1.09338 0
M  V30 2445 C 239.737 2.72302 2.05096 0
M  V30 2446 H 240.93 2.98752 0.262201 0
M  V30 2447 H 238.483 1.55985 0.099248 0
M  V30 2448 H 239.218 1.92956 2.6065 0
M  V30 2449 H 239.003 3.49665 1.77416 0
M  V30 2450 H 240.493 3.17632 2.71109 0
M  V30 2451 N 240.93 -0.123565 1.57115 0
M  V30 2452 C 242.346 -0.476961 1.52306 0
M  V30 2453 C 242.546 -1.82109 0.86248 0
M  V30 2454 O 241.602 -2.48586 0.442884 0
M  V30 2455 C 242.915 -0.465661 2.97073 0
M  V30 2456 C 244.463 -0.549534 3.08138 0
M  V30 2457 C 244.938 -0.568669 4.54456 0
M  V30 2458 N 246.429 -0.630237 4.58892 0
M  V30 2459 C 247.164 -0.666415 5.69514 0
M  V30 2460 N 246.66 -0.660514 6.89644 0
M  V30 2461 N 248.453 -0.709077 5.5761 0
M  V30 2462 H 240.604 0.757198 1.98445 0
M  V30 2463 H 242.867 0.278808 0.906074 0
M  V30 2464 H 242.573 0.454232 3.48754 0
M  V30 2465 H 242.447 -1.29513 3.54269 0
M  V30 2466 H 244.834 -1.45985 2.56461 0
M  V30 2467 H 244.915 0.307532 2.53945 0
M  V30 2468 H 244.559 0.337581 5.06777 0
M  V30 2469 H 244.489 -1.44256 5.06456 0
M  V30 2470 H 246.98 -0.641146 3.72421 0
M  V30 2471 H 247.293 -0.690616 7.69708 0
M  V30 2472 H 245.638 -0.628012 6.92157 0
M  V30 2473 H 248.829 -0.711019 4.62668 0
M  V30 2474 H 249.002 -0.733804 6.43832 0
M  V30 2475 N 242.408 -1.52605 -0.393616 0
M  V30 2476 C 243.338 -1.80022 -1.48709 0
M  V30 2477 C 244.319 -0.651995 -1.57108 0
M  V30 2478 O 245.504 -0.89913 -1.72132 0
M  V30 2479 C 242.634 -1.96492 -2.86371 0
M  V30 2480 C 241.588 -3.12161 -2.92813 0
M  V30 2481 C 240.914 -3.13877 -4.3288 0
M  V30 2482 C 242.214 -4.51322 -2.6288 0
M  V30 2483 H 243.908 -2.71589 -1.26015 0
M  V30 2484 H 241.454 -1.30684 -0.604778 0
M  V30 2485 H 243.407 -2.14255 -3.62867 0
M  V30 2486 H 242.131 -1.01611 -3.10391 0
M  V30 2487 H 240.79 -2.94173 -2.18764 0
M  V30 2488 H 240.438 -2.16687 -4.53933 0
M  V30 2489 H 240.138 -3.91576 -4.38112 0
M  V30 2490 H 241.662 -3.33789 -5.1129 0
M  V30 2491 H 243.076 -4.69435 -3.29096 0
M  V30 2492 H 241.473 -5.31053 -2.79468 0
M  V30 2493 H 242.543 -4.58353 -1.58242 0
M  V30 2494 N 243.887 0.651787 -1.4349 0
M  V30 2495 C 244.837 1.75783 -1.45205 0
M  V30 2496 C 245.821 1.57679 -0.320328 0
M  V30 2497 O 247.013 1.67767 -0.564211 0
M  V30 2498 C 244.142 3.14377 -1.3792 0
M  V30 2499 C 243.228 3.38023 -2.56127 0
M  V30 2500 N 243.619 3.32135 -3.81471 0
M  V30 2501 C 241.917 3.68747 -2.50882 0
M  V30 2502 C 242.618 3.55902 -4.60118 0
M  V30 2503 N 241.594 3.77783 -3.90872 0
M  V30 2504 H 245.396 1.69657 -2.39987 0
M  V30 2505 H 242.91 0.853508 -1.38163 0
M  V30 2506 H 244.907 3.93666 -1.37231 0
M  V30 2507 H 243.567 3.21683 -0.441596 0
M  V30 2508 H 244.578 3.11515 -4.13738 0
M  V30 2509 H 241.255 3.8316 -1.65816 0
M  V30 2510 H 242.645 3.57116 -5.69138 0
M  V30 2511 N 245.365 1.30045 0.890287 0
M  V30 2512 C 246.297 1.11786 2.00091 0
M  V30 2513 C 247.31 0.0626307 1.62679 0
M  V30 2514 O 248.499 0.308112 1.75821 0
M  V30 2515 C 245.599 0.681527 3.31977 0
M  V30 2516 C 244.772 1.81735 3.97858 0
M  V30 2517 C 243.831 1.37045 5.08041 0
M  V30 2518 O 242.857 2.07677 5.29961 0
M  V30 2519 N 244.059 0.246525 5.79976 0
M  V30 2520 H 246.824 2.07441 2.16306 0
M  V30 2521 H 244.385 1.2211 1.06305 0
M  V30 2522 H 246.377 0.365675 4.03045 0
M  V30 2523 H 244.947 -0.182828 3.12065 0
M  V30 2524 H 244.167 2.30159 3.20032 0
M  V30 2525 H 245.455 2.57865 4.38615 0
M  V30 2526 H 244.853 -0.34215 5.64664 0
M  V30 2527 H 243.41 -0.00990438 6.51799 0
M  V30 2528 N 246.843 -1.10192 1.12674 0
M  V30 2529 C 248.083 -1.83825 0.893736 0
M  V30 2530 C 248.447 -1.83341 -0.570082 0
M  V30 2531 O 249.648 -2.52553 -0.920354 0
M  V30 2532 C 247.919 -3.26405 1.45582 0
M  V30 2533 S 249.478 -4.17136 1.36171 0
M  V30 2534 H 246.296 -0.633732 0.322342 0
M  V30 2535 H 248.898 -1.32581 1.43675 0
M  V30 2536 H 247.602 -3.24329 2.51473 0
M  V30 2537 H 247.133 -3.82721 0.910405 0
M  V30 2538 H 249.148 -4.95069 0.334863 0
M  V30 2539 N 248.321 -0.919034 -1.28029 0
M  V30 2540 C 249.268 -0.410005 -2.27129 0
M  V30 2541 C 250.238 0.518405 -1.57803 0
M  V30 2542 O 251.423 0.439451 -1.8567 0
M  V30 2543 C 248.563 0.339054 -3.4343 0
M  V30 2544 C 247.676 -0.622468 -4.27492 0
M  V30 2545 C 246.811 0.145567 -5.31001 0
M  V30 2546 C 245.85 -0.809226 -6.06727 0
M  V30 2547 N 244.987 -0.0743728 -7.02061 0
M  V30 2548 H 249.827 -1.26011 -2.70047 0
M  V30 2549 H 247.364 -0.632663 -1.328 0
M  V30 2550 H 249.322 0.789586 -4.0966 0
M  V30 2551 H 247.952 1.15346 -3.01488 0
M  V30 2552 H 247.004 -1.19153 -3.61257 0
M  V30 2553 H 248.316 -1.35252 -4.80113 0
M  V30 2554 H 247.47 0.656417 -6.03139 0
M  V30 2555 H 246.209 0.908643 -4.79161 0
M  V30 2556 H 245.214 -1.3314 -5.33436 0
M  V30 2557 H 246.439 -1.57194 -6.60656 0
M  V30 2558 H 244.385 0.670616 -6.52563 0
M  V30 2559 H 244.302 -0.744157 -7.52329 0
M  V30 2560 H 245.57 0.416109 -7.78389 0
M  V30 2561 N 249.799 1.42003 -0.683588 0
M  V30 2562 C 251.027 2.05746 -0.218182 0
M  V30 2563 C 251.442 1.51396 1.12804 0
M  V30 2564 O 250.799 0.657303 1.70252 0
M  V30 2565 C 250.85 3.61171 -0.154131 0
M  V30 2566 O 250.571 4.13508 -1.44716 0
M  V30 2567 C 252.072 4.42042 0.333713 0
M  V30 2568 H 249.292 0.662888 -0.10402 0
M  V30 2569 H 251.836 1.81987 -0.9328 0
M  V30 2570 H 249.991 3.84012 0.511231 0
M  V30 2571 H 250.405 5.07453 -1.32632 0
M  V30 2572 H 251.879 5.51028 0.327423 0
M  V30 2573 H 252.356 4.17269 1.37053 0
M  V30 2574 H 252.962 4.24239 -0.300222 0
M  V30 2575 N 251.277 0.427512 1.51691 0
M  V30 2576 C 252.688 -0.0378867 1.86662 0
M  V30 2577 C 253.039 -1.42819 1.34525 0
M  V30 2578 O 252.164 -2.05037 0.692014 0
M  V30 2579 C 252.759 -0.0755266 3.38716 0
M  V30 2580 C 251.318 -0.485309 3.73258 0
M  V30 2581 C 250.465 0.328399 2.75349 0
M  V30 2582 H 253.416 0.64379 1.45055 0
M  V30 2583 H 253.437 -0.887056 3.70016 0
M  V30 2584 H 252.949 0.936487 3.76632 0
M  V30 2585 H 251.05 -1.50329 3.40928 0
M  V30 2586 H 251.163 -0.21693 4.78609 0
M  V30 2587 H 249.527 -0.211905 2.53817 0
M  V30 2588 H 250.31 1.3391 3.16106 0
M  V30 2589 N 252.755 -1.56801 0.158532 0
M  V30 2590 C 254.004 -1.95665 -0.489702 0
M  V30 2591 C 254.317 -1.04654 -1.65248 0
M  V30 2592 O 255.523 -1.33146 -2.3661 0
M  V30 2593 C 253.979 -3.47874 -0.922582 0
M  V30 2594 C 253.587 -4.47489 0.213893 0
M  V30 2595 C 255.331 -3.95583 -1.53996 0
M  V30 2596 C 253.238 -5.90921 -0.237903 0
M  V30 2597 H 252.168 -0.730516 -0.186716 0
M  V30 2598 H 254.819 -1.81861 0.244722 0
M  V30 2599 H 253.201 -3.57051 -1.71261 0
M  V30 2600 H 254.375 -4.50017 0.991036 0
M  V30 2601 H 252.69 -4.09764 0.740407 0
M  V30 2602 H 255.287 -5.0019 -1.8898 0
M  V30 2603 H 255.63 -3.37789 -2.43319 0
M  V30 2604 H 256.163 -3.8937 -0.814611 0
M  V30 2605 H 252.902 -6.52559 0.620236 0
M  V30 2606 H 252.422 -5.91729 -0.980676 0
M  V30 2607 H 254.101 -6.43352 -0.686067 0
M  V30 2608 N 254.233 0.115231 -1.57178 0
M  V30 2609 C 255.482 0.820945 -1.84237 0
M  V30 2610 C 255.795 1.80866 -0.744761 0
M  V30 2611 O 257.001 2.56083 -0.901871 0
M  V30 2612 C 255.457 1.51072 -3.26658 0
M  V30 2613 C 255.065 0.563795 -4.44438 0
M  V30 2614 C 256.809 2.20134 -3.62962 0
M  V30 2615 C 254.716 1.25701 -5.77887 0
M  V30 2616 H 253.646 0.310328 -0.687177 0
M  V30 2617 H 256.297 0.0737134 -1.83352 0
M  V30 2618 H 254.679 2.30471 -3.22024 0
M  V30 2619 H 255.853 -0.197247 -4.60378 0
M  V30 2620 H 254.168 -0.0200638 -4.16395 0
M  V30 2621 H 256.765 2.72696 -4.59936 0
M  V30 2622 H 257.108 2.98107 -2.90582 0
M  V30 2623 H 257.641 1.47619 -3.69396 0
M  V30 2624 H 254.38 0.518493 -6.53446 0
M  V30 2625 H 253.9 1.98997 -5.65827 0
M  V30 2626 H 255.579 1.78915 -6.2177 0
M  V30 2627 N 255.711 1.52812 0.385517 0
M  V30 2628 C 256.661 1.74219 1.47078 0
M  V30 2629 C 257.645 0.59632 1.49442 0
M  V30 2630 O 258.837 0.85428 1.5502 0
M  V30 2631 C 255.966 1.9176 2.84751 0
M  V30 2632 C 255.052 3.12289 2.86943 0
M  V30 2633 N 255.443 4.34575 2.58802 0
M  V30 2634 C 253.741 3.12605 3.1811 0
M  V30 2635 C 254.442 5.162 2.68166 0
M  V30 2636 N 253.418 4.51964 3.02043 0
M  V30 2637 H 257.22 2.6639 1.24152 0
M  V30 2638 H 254.734 1.51166 0.593504 0
M  V30 2639 H 256.731 2.05218 3.62893 0
M  V30 2640 H 255.391 1.00805 3.08656 0
M  V30 2641 H 256.402 4.62649 2.32759 0
M  V30 2642 H 253.079 2.31472 3.47458 0
M  V30 2643 H 254.469 6.23689 2.49923 0
M  V30 2644 N 257.189 -0.644168 1.43834 0
M  V30 2645 C 258.605 -0.960875 1.27434 0
M  V30 2646 C 258.805 -2.00499 0.200618 0
M  V30 2647 O 257.861 -2.49018 -0.417906 0
M  V30 2648 C 259.174 -1.43653 2.64167 0
M  V30 2649 C 260.722 -1.55271 2.71772 0
M  V30 2650 C 261.197 -2.06224 4.08944 0
M  V30 2651 N 262.688 -2.13513 4.11055 0
M  V30 2652 C 263.423 -2.54081 5.14033 0
M  V30 2653 N 262.919 -2.9388 6.27381 0
M  V30 2654 N 264.712 -2.54101 5.01387 0
M  V30 2655 H 256.863 0.0465779 2.12349 0
M  V30 2656 H 259.126 -0.0417638 0.94708 0
M  V30 2657 H 258.832 -0.743706 3.43747 0
M  V30 2658 H 258.706 -2.40993 2.90176 0
M  V30 2659 H 261.093 -2.23653 1.92519 0
M  V30 2660 H 261.174 -0.563395 2.49519 0
M  V30 2661 H 260.818 -1.38441 4.88668 0
M  V30 2662 H 260.748 -3.06003 4.28567 0
M  V30 2663 H 263.239 -1.85493 3.29242 0
M  V30 2664 H 263.552 -3.2361 7.01781 0
M  V30 2665 H 261.897 -2.91663 6.30839 0
M  V30 2666 H 265.088 -2.22391 4.11898 0
M  V30 2667 H 265.261 -2.85394 5.81768 0
M  V30 2668 N 258.668 -1.30515 -0.883378 0
M  V30 2669 C 259.945 -1.10086 -1.6168 0
M  V30 2670 C 260.325 0.349269 -2.08191 0
M  V30 2671 O 259.673 1.34105 -1.85008 0
M  V30 2672 C 259.883 -2.10315 -2.78511 0
M  V30 2673 C 261.231 -2.42119 -3.48803 0
M  V30 2674 O 262.255 -2.08638 -2.88702 0
M  V30 2675 O 261.114 -2.99396 -4.57192 0
M  V30 2676 H 258.208 -0.422907 -0.710689 0
M  V30 2677 H 260.754 -1.41947 -0.930015 0
M  V30 2678 H 259.526 -3.07917 -2.41459 0
M  V30 2679 H 259.149 -1.79282 -3.54886 0
M  V30 2680 N 260.146 1.09593 -1.13257 0
M  V30 2681 C 261.076 2.18214 -0.830946 0
M  V30 2682 C 262.057 1.68812 0.208966 0
M  V30 2683 O 263.242 1.9408 0.0682666 0
M  V30 2684 C 260.372 3.46051 -0.294296 0
M  V30 2685 C 259.326 4.08778 -1.26826 0
M  V30 2686 C 258.652 5.31419 -0.591449 0
M  V30 2687 C 259.952 4.51476 -2.62615 0
M  V30 2688 H 261.646 2.43703 -1.73923 0
M  V30 2689 H 259.192 1.17128 -0.837675 0
M  V30 2690 H 261.145 4.2134 -0.0709606 0
M  V30 2691 H 259.869 3.20079 0.649366 0
M  V30 2692 H 258.528 3.35505 -1.47756 0
M  V30 2693 H 258.176 5.01727 0.357633 0
M  V30 2694 H 257.876 5.74341 -1.24123 0
M  V30 2695 H 259.4 6.09433 -0.377355 0
M  V30 2696 H 260.814 5.17999 -2.45663 0
M  V30 2697 H 259.211 5.05277 -3.23752 0
M  V30 2698 H 260.281 3.63962 -3.20406 0
M  V30 2699 N 261.624 0.925811 1.2754 0
M  V30 2700 C 262.571 0.422045 2.26908 0
M  V30 2701 C 263.541 -0.510029 1.58076 0
M  V30 2702 O 264.726 -0.429599 1.85901 0
M  V30 2703 C 261.866 -0.320837 3.43605 0
M  V30 2704 C 260.979 0.64513 4.27156 0
M  V30 2705 C 260.114 -0.117405 5.3107 0
M  V30 2706 C 259.153 0.841391 6.0629 0
M  V30 2707 N 258.29 0.111604 7.02011 0
M  V30 2708 H 263.13 1.27441 2.69375 0
M  V30 2709 H 260.667 0.639697 1.32462 0
M  V30 2710 H 262.625 -0.76785 4.10073 0
M  V30 2711 H 261.255 -1.13745 3.02096 0
M  V30 2712 H 260.307 1.21067 3.6062 0
M  V30 2713 H 261.619 1.37797 4.79389 0
M  V30 2714 H 260.773 -0.624422 6.03478 0
M  V30 2715 H 259.512 -0.883219 4.79636 0
M  V30 2716 H 258.517 1.35967 5.32722 0
M  V30 2717 H 259.742 1.60696 6.59813 0
M  V30 2718 H 257.688 -0.635999 6.5291 0
M  V30 2719 H 257.605 0.784044 7.51923 0
M  V30 2720 H 258.873 -0.374823 7.78598 0
M  V30 2721 N 263.102 -1.41638 0.69111 0
M  V30 2722 C 264.348 -2.01598 0.220519 0
M  V30 2723 C 264.681 -1.54594 -1.17535 0
M  V30 2724 O 263.956 -0.755177 -1.79241 0
M  V30 2725 C 264.239 -3.59062 0.273243 0
M  V30 2726 C 264.092 -4.16203 1.70573 0
M  V30 2727 C 265.411 -4.38546 -0.369457 0
M  V30 2728 H 262.53 -0.732468 0.0816045 0
M  V30 2729 H 265.172 -1.68445 0.878986 0
M  V30 2730 H 263.322 -3.87435 -0.287411 0
M  V30 2731 H 264.994 -3.98722 2.31989 0
M  V30 2732 H 263.237 -3.71414 2.2413 0
M  V30 2733 H 263.908 -5.25358 1.69419 0
M  V30 2734 H 266.384 -4.1596 0.107977 0
M  V30 2735 H 265.26 -5.48069 -0.302002 0
M  V30 2736 H 265.521 -4.17662 -1.44951 0
M  V30 2737 N 264.58 -0.43555 -1.51462 0
M  V30 2738 C 265.49 0.383001 -2.31453 0
M  V30 2739 C 266.506 1.02931 -1.4029 0
M  V30 2740 O 267.682 1.02507 -1.73362 0
M  V30 2741 C 264.747 1.47043 -3.13973 0
M  V30 2742 C 263.808 0.844433 -4.20913 0
M  V30 2743 C 263.041 1.88004 -4.9949 0
M  V30 2744 O 263.264 3.10199 -4.78678 0
M  V30 2745 O 262.198 1.47157 -5.83634 0
M  V30 2746 H 266.024 -0.269964 -3.02498 0
M  V30 2747 H 263.609 -0.19813 -1.4808 0
M  V30 2748 H 265.491 2.10113 -3.65281 0
M  V30 2749 H 264.166 2.10751 -2.45695 0
M  V30 2750 H 263.073 0.175729 -3.73687 0
M  V30 2751 H 264.406 0.250869 -4.9156 0
M  V30 2752 N 266.058 1.56714 -0.166846 0
M  V30 2753 C 267.006 2.19056 0.782123 0
M  V30 2754 C 268 1.15328 1.24079 0
M  V30 2755 O 269.206 1.33537 1.20697 0
M  V30 2756 H 265.581 0.70167 0.270486 0
M  V30 2757 H 267.552 2.97494 0.232322 0
M  V30 2758 C 266.301 2.84206 2.00306 0
M  V30 2759 H 265.624 3.63748 1.65914 0
M  V30 2760 H 267.064 3.31302 2.64604 0
M  V30 2761 C 265.523 1.83744 2.82382 0
M  V30 2762 O 266.053 1.32014 3.79388 0
M  V30 2763 N 264.259 1.52601 2.47308 0
M  V30 2764 H 263.806 1.9486 1.68485 0
M  V30 2765 H 263.764 0.856351 3.02513 0
M  V30 2766 N 267.536 -0.106894 1.57237 0
M  V30 2767 C 268.785 -0.811163 1.8467 0
M  V30 2768 C 269.098 -1.80469 0.754342 0
M  V30 2769 O 270.304 -2.55601 0.915439 0
M  V30 2770 C 268.76 -1.49337 3.27454 0
M  V30 2771 C 268.368 -0.540217 4.44731 0
M  V30 2772 C 270.112 -2.18206 3.64124 0
M  V30 2773 C 268.019 -1.22634 5.78545 0
M  V30 2774 H 266.949 -0.306679 0.688813 0
M  V30 2775 H 269.6 -0.0639887 1.83388 0
M  V30 2776 H 267.982 -2.2876 3.23241 0
M  V30 2777 H 269.156 0.221659 4.60267 0
M  V30 2778 H 267.471 0.042146 4.16379 0
M  V30 2779 H 270.068 -2.70253 4.61376 0
M  V30 2780 H 270.411 -2.96562 2.92158 0
M  V30 2781 H 270.944 -1.45658 3.70174 0
M  V30 2782 H 267.683 -0.483832 6.53712 0
M  V30 2783 H 267.203 -1.95993 5.66874 0
M  V30 2784 H 268.882 -1.75615 6.2271 0
M  V30 2785 N 269.014 -1.53014 -0.377408 0
M  V30 2786 C 269.944 -1.81589 -1.46791 0
M  V30 2787 C 270.925 -0.668622 -1.56408 0
M  V30 2788 O 272.11 -0.917337 -1.71168 0
M  V30 2789 C 269.24 -1.99519 -2.8427 0
M  V30 2790 C 268.194 -3.15249 -2.89486 0
M  V30 2791 C 267.52 -3.18451 -4.29527 0
M  V30 2792 C 268.82 -4.54084 -2.58079 0
M  V30 2793 H 270.514 -2.7291 -1.23127 0
M  V30 2794 H 268.06 -1.31319 -0.590883 0
M  V30 2795 H 270.013 -2.18092 -3.60575 0
M  V30 2796 H 268.737 -1.04897 -3.09296 0
M  V30 2797 H 267.396 -2.96477 -2.15631 0
M  V30 2798 H 267.044 -2.2149 -4.5161 0
M  V30 2799 H 266.744 -3.962 -4.33934 0
M  V30 2800 H 268.268 -3.39193 -5.07721 0
M  V30 2801 H 269.682 -4.72899 -3.24098 0
M  V30 2802 H 268.079 -5.33987 -2.7382 0
M  V30 2803 H 269.149 -4.60006 -1.53372 0
M  V30 2804 N 270.492 0.636531 -1.44174 0
M  V30 2805 C 271.422 1.76003 -1.53444 0
M  V30 2806 C 272.403 1.65619 -0.387841 0
M  V30 2807 O 273.588 1.84461 -0.607257 0
M  V30 2808 C 270.718 3.14511 -1.4731 0
M  V30 2809 C 269.672 3.39677 -2.60391 0
M  V30 2810 C 268.998 4.78159 -2.39308 0
M  V30 2811 C 270.298 3.32772 -4.02567 0
M  V30 2812 H 271.992 1.68501 -2.47483 0
M  V30 2813 H 269.538 0.809237 -1.19111 0
M  V30 2814 H 271.491 3.92878 -1.52397 0
M  V30 2815 H 270.215 3.22783 -0.49785 0
M  V30 2816 H 268.874 2.63688 -2.54684 0
M  V30 2817 H 268.522 4.83128 -1.39988 0
M  V30 2818 H 268.222 4.95956 -3.15122 0
M  V30 2819 H 269.746 5.58762 -2.46205 0
M  V30 2820 H 271.16 4.01051 -4.09672 0
M  V30 2821 H 269.557 3.62104 -4.7854 0
M  V30 2822 H 270.627 2.30669 -4.2652 0
M  V30 2823 N 271.97 1.30982 0.876444 0
M  V30 2824 C 272.92 1.14688 1.97055 0
M  V30 2825 C 273.904 0.0596593 1.60789 0
M  V30 2826 O 275.096 0.283892 1.74708 0
M  V30 2827 C 272.225 0.849627 3.3262 0
M  V30 2828 C 271.311 1.97752 3.75173 0
M  V30 2829 N 271.702 3.22384 3.89746 0
M  V30 2830 C 270 1.8758 4.04635 0
M  V30 2831 C 270.701 3.96121 4.25985 0
M  V30 2832 N 269.677 3.24237 4.36315 0
M  V30 2833 H 273.479 2.09204 2.06424 0
M  V30 2834 H 270.993 1.22445 1.06682 0
M  V30 2835 H 272.99 0.713895 4.10742 0
M  V30 2836 H 271.65 -0.087376 3.24582 0
M  V30 2837 H 272.661 3.57575 3.74647 0
M  V30 2838 H 269.338 1.01303 4.05024 0
M  V30 2839 H 270.728 5.03491 4.44911 0
M  V30 2840 N 273.449 -1.08991 1.13837 0
M  V30 2841 C 274.726 -1.77863 0.813876 0
M  V30 2842 C 275.106 -1.99375 -0.693746 0
M  V30 2843 O 274.454 -1.59875 -1.63255 0
M  V30 2844 C 274.664 -3.0986 1.60586 0
M  V30 2845 C 276.012 -3.84493 1.8014 0
M  V30 2846 O 277.036 -3.19624 1.57222 0
M  V30 2847 O 275.895 -5.00957 2.18413 0
M  V30 2848 H 272.989 -0.771589 0.297624 0
M  V30 2849 H 275.535 -1.15507 1.24323 0
M  V30 2850 H 274.307 -2.89715 2.63022 0
M  V30 2851 H 273.93 -3.79942 1.17173 0
M  V30 2852 N 274.927 -0.932562 -1.27047 0
M  V30 2853 C 276.343 -0.633544 -1.46487 0
M  V30 2854 C 276.543 0.815746 -1.84249 0
M  V30 2855 O 275.599 1.59319 -1.95892 0
M  V30 2856 C 276.912 -1.58758 -2.55375 0
M  V30 2857 C 278.46 -1.59634 -2.69232 0
M  V30 2858 C 278.935 -2.53747 -3.81283 0
M  V30 2859 N 280.426 -2.51982 -3.88664 0
M  V30 2860 C 281.161 -3.21491 -4.74796 0
M  V30 2861 N 280.657 -4.00395 -5.65381 0
M  V30 2862 N 282.45 -3.10485 -4.68568 0
M  V30 2863 H 274.601 -1.86946 -1.00821 0
M  V30 2864 H 276.864 -0.802897 -0.504044 0
M  V30 2865 H 276.57 -2.62172 -2.34432 0
M  V30 2866 H 276.444 -1.33301 -3.52861 0
M  V30 2867 H 278.831 -0.569488 -2.89553 0
M  V30 2868 H 278.912 -1.89142 -1.72218 0
M  V30 2869 H 278.556 -3.56545 -3.61715 0
M  V30 2870 H 278.486 -2.21532 -4.77735 0
M  V30 2871 H 280.977 -1.94681 -3.23895 0
M  V30 2872 H 281.29 -4.50406 -6.27976 0
M  V30 2873 H 279.635 -4.04498 -5.65161 0
M  V30 2874 H 282.826 -2.48331 -3.96799 0
M  V30 2875 H 282.999 -3.64925 -5.35475 0
M  V30 2876 N 276.405 1.4127 -0.698611 0
M  V30 2877 C 277.653 2.00782 -0.230409 0
M  V30 2878 C 277.974 1.5562 1.17505 0
M  V30 2879 O 277.244 0.78815 1.79346 0
M  V30 2880 H 275.824 0.742464 -0.0821944 0
M  V30 2881 H 278.486 1.72852 -0.90045 0
M  V30 2882 H 277.582 3.11095 -0.25021 0
M  V30 2883 N 277.883 0.443576 1.51229 0
M  V30 2884 C 278.833 -0.382787 2.24764 0
M  V30 2885 C 279.817 -0.984836 1.27239 0
M  V30 2886 O 281.009 -0.901943 1.52296 0
M  V30 2887 C 278.138 -1.47989 3.09765 0
M  V30 2888 C 277.224 -0.886931 4.14722 0
M  V30 2889 N 277.615 -0.0237103 5.05794 0
M  V30 2890 C 275.913 -1.15385 4.30816 0
M  V30 2891 C 276.614 0.309971 5.80874 0
M  V30 2892 N 275.59 -0.307989 5.42727 0
M  V30 2893 H 279.392 0.282624 2.92538 0
M  V30 2894 H 276.906 0.256027 1.60369 0
M  V30 2895 H 278.903 -2.08482 3.61027 0
M  V30 2896 H 277.563 -2.14758 2.43535 0
M  V30 2897 H 278.574 0.34318 5.16762 0
M  V30 2898 H 275.251 -1.81857 3.75812 0
M  V30 2899 H 276.641 1.01279 6.64223 0
M  V30 2900 N 279.361 -1.56624 0.175154 0
M  V30 2901 C 280.591 -2.01082 -0.474283 0
M  V30 2902 C 280.999 -1.05447 -1.57091 0
M  V30 2903 O 280.342 -0.0480595 -1.83637 0
M  V30 2904 C 280.404 -3.41963 -1.10911 0
M  V30 2905 C 280.068 -4.56742 -0.153666 0
M  V30 2906 C 281.065 -5.16076 0.629448 0
M  V30 2907 C 278.75 -5.02277 -0.0483776 0
M  V30 2908 C 280.744 -6.19377 1.50501 0
M  V30 2909 C 278.431 -6.05427 0.830768 0
M  V30 2910 C 279.429 -6.63849 1.60605 0
M  V30 2911 O 279.117 -7.64998 2.47049 0
M  V30 2912 H 278.849 -0.664261 -0.125432 0
M  V30 2913 H 281.403 -2.03549 0.275163 0
M  V30 2914 H 279.633 -3.36422 -1.90676 0
M  V30 2915 H 281.322 -3.70352 -1.66114 0
M  V30 2916 H 282.088 -4.81776 0.558297 0
M  V30 2917 H 277.967 -4.56513 -0.641611 0
M  V30 2918 H 281.511 -6.64906 2.1106 0
M  V30 2919 H 277.408 -6.39151 0.903107 0
M  V30 2920 H 278.176 -7.82336 2.40607 0
M  V30 2921 N 280.839 0.0985539 -1.57292 0
M  V30 2922 C 282.085 0.803867 -1.86188 0
M  V30 2923 C 282.418 1.78549 -0.763794 0
M  V30 2924 O 281.693 1.93153 0.22855 0
M  V30 2925 C 281.976 1.53568 -3.25713 0
M  V30 2926 C 281.829 0.572277 -4.46145 0
M  V30 2927 C 283.148 2.48708 -3.63087 0
M  V30 2928 H 280.267 0.290781 -0.677211 0
M  V30 2929 H 282.909 0.0675783 -1.8988 0
M  V30 2930 H 281.059 2.16332 -3.22696 0
M  V30 2931 H 282.731 -0.0480894 -4.61275 0
M  V30 2932 H 280.974 -0.114618 -4.33649 0
M  V30 2933 H 281.645 1.12139 -5.40489 0
M  V30 2934 H 284.121 1.96039 -3.67026 0
M  V30 2935 H 282.997 2.96932 -4.61652 0
M  V30 2936 H 283.258 3.32309 -2.91588 0
M  V30 2937 N 282.317 1.53212 0.369288 0
M  V30 2938 C 283.247 1.82365 1.45826 0
M  V30 2939 C 284.228 0.676907 1.56051 0
M  V30 2940 O 285.413 0.926401 1.70679 0
M  V30 2941 C 282.543 2.01023 2.83208 0
M  V30 2942 C 281.497 3.1678 2.8781 0
M  V30 2943 C 280.823 3.20724 4.27832 0
M  V30 2944 C 282.123 4.55447 2.55667 0
M  V30 2945 H 283.817 2.73559 1.21678 0
M  V30 2946 H 281.363 1.3163 0.583911 0
M  V30 2947 H 283.316 2.20001 3.59413 0
M  V30 2948 H 282.04 1.06536 3.08736 0
M  V30 2949 H 280.699 2.97616 2.14056 0
M  V30 2950 H 280.347 2.23882 4.50429 0
M  V30 2951 H 280.047 3.98496 4.31827 0
M  V30 2952 H 281.571 3.41881 5.05915 0
M  V30 2953 H 282.985 4.74611 3.21586 0
M  V30 2954 H 281.382 5.35432 2.70984 0
M  V30 2955 H 282.452 4.60812 1.5093 0
M  V30 2956 N 283.795 -0.628877 1.44509 0
M  V30 2957 C 285.035 -1.39993 1.48934 0
M  V30 2958 C 285.399 -1.91627 0.119604 0
M  V30 2959 O 286.6 -2.68772 0.0385283 0
M  V30 2960 C 284.871 -2.53241 2.52198 0
M  V30 2961 S 286.43 -3.41383 2.75687 0
M  V30 2962 H 283.248 -0.477558 0.526744 0
M  V30 2963 H 285.85 -0.727804 1.81448 0
M  V30 2964 H 284.554 -2.13622 3.50419 0
M  V30 2965 H 284.085 -3.25278 2.21264 0
M  V30 2966 H 286.1 -4.50752 2.07453 0
M  V30 2967 N 285.273 -1.31445 -0.869486 0
M  V30 2968 C 286.55 -1.11795 -1.60503 0
M  V30 2969 C 286.93 0.327168 -2.08549 0
M  V30 2970 O 286.278 1.32135 -1.8642 0
M  V30 2971 C 286.488 -2.13258 -2.76265 0
M  V30 2972 C 287.836 -2.45805 -3.46215 0
M  V30 2973 O 288.86 -2.11688 -2.86473 0
M  V30 2974 O 287.719 -3.04228 -4.5399 0
M  V30 2975 H 284.813 -0.430421 -0.706163 0
M  V30 2976 H 287.359 -1.42925 -0.914907 0
M  V30 2977 H 286.131 -3.10461 -2.3818 0
M  V30 2978 H 285.754 -1.83035 -3.52964 0
M  V30 2979 N 286.751 1.08385 -1.14413 0
M  V30 2980 C 287.998 1.80776 -0.912482 0
M  V30 2981 C 288.326 1.86236 0.560934 0
M  V30 2982 O 287.581 1.33431 1.43159 0
M  V30 2983 C 287.88 3.26273 -1.45879 0
M  V30 2984 C 287.546 3.4093 -2.95089 0
M  V30 2985 C 286.208 3.44638 -3.35824 0
M  V30 2986 C 288.56 3.44591 -3.91033 0
M  V30 2987 C 285.888 3.49597 -4.71167 0
M  V30 2988 C 288.24 3.51086 -5.26233 0
M  V30 2989 C 286.904 3.53067 -5.6648 0
M  V30 2990 H 286.174 0.661507 -0.333901 0
M  V30 2991 H 288.821 1.27613 -1.42784 0
M  V30 2992 H 287.126 3.82146 -0.864376 0
M  V30 2993 H 288.823 3.80839 -1.2555 0
M  V30 2994 H 285.413 3.38736 -2.62594 0
M  V30 2995 H 289.597 3.40957 -3.60641 0
M  V30 2996 H 284.853 3.49424 -5.0171 0
M  V30 2997 H 289.027 3.52864 -6.00383 0
M  V30 2998 H 286.654 3.56662 -6.71339 0
M  V30 2999 N 288.23 0.939286 1.26551 0
M  V30 3000 C 289.478 0.58469 1.93457 0
M  V30 3001 C 289.799 -0.878774 1.74076 0
M  V30 3002 O 289.069 -1.62421 1.09528 0
M  V30 3003 H 287.649 0.21325 0.715914 0
M  V30 3004 H 290.311 1.1942 1.54029 0
M  V30 3005 H 289.407 0.800849 3.0165 0
M  V30 3006 N 289.708 -1.40897 0.706093 0
M  V30 3007 C 290.933 -2.05895 0.249435 0
M  V30 3008 C 291.358 -1.52823 -1.09666 0
M  V30 3009 O 290.716 -0.659589 -1.68876 0
M  V30 3010 C 290.764 -3.59872 0.22904 0
M  V30 3011 O 289.868 -4.04708 -0.792784 0
M  V30 3012 H 289.209 -0.653206 0.119241 0
M  V30 3013 H 291.739 -1.80471 0.96391 0
M  V30 3014 H 291.749 -4.07951 0.0634791 0
M  V30 3015 H 290.424 -3.97866 1.21141 0
M  V30 3016 H 289.001 -3.68111 -0.59572 0
M  V30 3017 N 291.186 -0.45159 -1.50991 0
M  V30 3018 C 292.149 0.341117 -2.26647 0
M  V30 3019 C 293.149 0.937422 -1.30649 0
M  V30 3020 O 294.339 0.809644 -1.54241 0
M  V30 3021 C 291.471 1.48398 -3.06905 0
M  V30 3022 H 292.664 -0.322117 -2.98165 0
M  V30 3023 H 290.217 -0.205122 -1.54948 0
M  V30 3024 H 290.952 2.18284 -2.39838 0
M  V30 3025 H 290.737 1.06241 -3.77432 0
M  V30 3026 H 292.227 2.04367 -3.64176 0
M  V30 3027 N 292.664 1.56529 -0.183458 0
M  V30 3028 C 293.892 2.01623 0.464285 0
M  V30 3029 C 294.307 1.06366 1.55986 0
M  V30 3030 O 293.664 0.0665398 1.82379 0
M  V30 3031 C 293.715 3.46475 1.03139 0
M  V30 3032 O 293.436 4.38095 -0.0204675 0
M  V30 3033 C 294.937 4.0703 1.75617 0
M  V30 3034 H 292.157 0.660596 0.117704 0
M  V30 3035 H 294.701 2.02451 -0.288751 0
M  V30 3036 H 292.856 3.46383 1.73486 0
M  V30 3037 H 293.27 5.22973 0.399952 0
M  V30 3038 H 294.744 5.10271 2.10542 0
M  V30 3039 H 295.221 3.49819 2.65563 0
M  V30 3040 H 295.827 4.1086 1.09882 0
M  V30 3041 N 294.142 -0.090211 1.57342 0
M  V30 3042 C 295.09 -1.12792 2.03422 0
M  V30 3043 C 296.084 -1.41182 0.936166 0
M  V30 3044 O 297.29 -1.40805 1.12133 0
M  V30 3045 H 293.665 -0.380986 0.648347 0
M  V30 3046 H 295.636 -0.71299 2.89757 0
M  V30 3047 C 294.385 -2.43855 2.47851 0
M  V30 3048 H 293.708 -2.22855 3.31927 0
M  V30 3049 H 295.148 -3.14955 2.83865 0
M  V30 3050 C 293.607 -3.08503 1.3538 0
M  V30 3051 O 294.137 -3.95805 0.685641 0
M  V30 3052 N 292.343 -2.68831 1.10355 0
M  V30 3053 H 291.89 -1.97929 1.64869 0
M  V30 3054 H 291.848 -3.12412 0.353031 0
M  V30 3055 N 295.62 -1.53406 -0.361157 0
M  V30 3056 C 296.567 -1.80156 -1.44265 0
M  V30 3057 C 297.537 -0.646183 -1.53015 0
M  V30 3058 O 298.722 -0.888818 -1.68833 0
M  V30 3059 C 295.862 -2.00116 -2.81154 0
M  V30 3060 C 294.975 -3.27833 -2.81335 0
M  V30 3061 C 294.11 -3.37957 -4.09828 0
M  V30 3062 C 293.149 -4.59689 -4.04168 0
M  V30 3063 N 292.286 -4.66942 -5.24318 0
M  V30 3064 H 297.126 -2.72438 -1.20754 0
M  V30 3065 H 294.663 -1.34954 -0.585296 0
M  V30 3066 H 296.621 -2.09677 -3.60682 0
M  V30 3067 H 295.251 -1.11167 -3.03054 0
M  V30 3068 H 294.303 -3.27204 -1.94014 0
M  V30 3069 H 295.615 -4.17442 -2.73027 0
M  V30 3070 H 294.769 -3.46853 -4.97773 0
M  V30 3071 H 293.508 -2.46372 -4.20894 0
M  V30 3072 H 292.513 -4.50889 -3.14609 0
M  V30 3073 H 293.738 -5.5262 -3.947 0
M  V30 3074 H 291.684 -3.7826 -5.35962 0
M  V30 3075 H 291.601 -5.50462 -5.18197 0
M  V30 3076 H 292.869 -4.80127 -6.14084 0
M  V30 3077 N 297.098 0.621204 -1.44841 0
M  V30 3078 C 298.345 1.38055 -1.48145 0
M  V30 3079 C 298.673 1.94143 -0.117867 0
M  V30 3080 O 297.928 1.74713 0.881694 0
M  V30 3081 C 298.227 2.55675 -2.4973 0
M  V30 3082 C 297.893 2.17817 -3.94799 0
M  V30 3083 C 296.555 2.07205 -4.34303 0
M  V30 3084 C 298.907 1.88065 -4.86087 0
M  V30 3085 C 296.235 1.65045 -5.63007 0
M  V30 3086 C 298.587 1.47394 -6.15189 0
M  V30 3087 C 297.251 1.35331 -6.53637 0
M  V30 3088 H 296.521 0.505181 -0.542101 0
M  V30 3089 H 299.168 0.703477 -1.78111 0
M  V30 3090 H 297.473 3.2866 -2.13284 0
M  V30 3091 H 299.17 3.13904 -2.4953 0
M  V30 3092 H 295.76 2.26998 -3.63552 0
M  V30 3093 H 299.944 1.95168 -4.56315 0
M  V30 3094 H 295.2 1.54317 -5.91605 0
M  V30 3095 H 299.374 1.23415 -6.85377 0
M  V30 3096 H 297.001 1.02435 -7.53267 0
M  V30 3097 N 298.576 1.31904 0.862503 0
M  V30 3098 C 299.508 1.16005 1.97675 0
M  V30 3099 C 300.521 0.0971234 1.6251 0
M  V30 3100 O 301.71 0.345337 1.75128 0
M  V30 3101 C 298.81 0.751791 3.30456 0
M  V30 3102 C 297.983 1.90133 3.93914 0
M  V30 3103 C 297.042 1.4779 5.05019 0
M  V30 3104 O 296.068 2.18872 5.25437 0
M  V30 3105 N 297.27 0.369491 5.79323 0
M  V30 3106 H 300.035 2.11982 2.11857 0
M  V30 3107 H 297.596 1.24337 1.03691 0
M  V30 3108 H 299.588 0.451084 4.02178 0
M  V30 3109 H 298.158 -0.116593 3.12382 0
M  V30 3110 H 297.378 2.36896 3.15078 0
M  V30 3111 H 298.666 2.67111 4.33047 0
M  V30 3112 H 298.064 -0.222299 5.65263 0
M  V30 3113 H 296.621 0.128354 6.51674 0
M  V30 3114 N 300.054 -1.07777 1.14986 0
M  V30 3115 C 301.002 -2.16964 0.838406 0
M  V30 3116 C 301.996 -1.68372 -0.186386 0
M  V30 3117 O 303.202 -1.79951 -0.0418465 0
M  V30 3118 H 299.577 -0.708006 0.253439 0
M  V30 3119 H 301.548 -2.40454 1.76704 0
M  V30 3120 C 300.297 -3.4604 0.339335 0
M  V30 3121 H 299.62 -3.83813 1.11927 0
M  V30 3122 H 301.06 -4.23698 0.160021 0
M  V30 3123 C 299.519 -3.23569 -0.938325 0
M  V30 3124 O 300.049 -3.47752 -2.01077 0
M  V30 3125 N 298.255 -2.77079 -0.876117 0
M  V30 3126 H 297.802 -2.576 -0.00322037 0
M  V30 3127 H 297.76 -2.62422 -1.73153 0
M  V30 3128 N 301.532 -0.945985 -1.26051 0
M  V30 3129 C 302.943 -0.638096 -1.75457 0
M  V30 3130 C 303.294 0.846672 -1.76991 0
M  V30 3131 O 302.419 1.66262 -1.38513 0
M  V30 3132 C 303.014 -1.15157 -3.18629 0
M  V30 3133 C 301.573 -0.894004 -3.65629 0
M  V30 3134 C 300.72 -1.29967 -2.44957 0
M  V30 3135 H 303.671 -1.12376 -1.1206 0
M  V30 3136 H 303.692 -0.507615 -3.77099 0
M  V30 3137 H 303.204 -2.23222 -3.1748 0
M  V30 3138 H 301.305 0.172057 -3.72203 0
M  V30 3139 H 301.418 -1.52439 -4.54202 0
M  V30 3140 H 299.782 -0.718078 -2.44368 0
M  V30 3141 H 300.565 -2.38935 -2.46505 0
M  V30 3142 N 303.011 1.40521 -0.713556 0
M  V30 3143 C 303.943 2.29191 -0.0203126 0
M  V30 3144 C 304.956 1.45723 0.725864 0
M  V30 3145 O 306.145 1.69033 0.573581 0
M  V30 3146 C 303.245 3.2395 0.995486 0
M  V30 3147 C 302.418 4.36262 0.315256 0
M  V30 3148 C 301.477 5.11474 1.23616 0
M  V30 3149 O 300.503 5.64606 0.721719 0
M  V30 3150 N 301.705 5.20638 2.56743 0
M  V30 3151 H 304.47 2.89327 -0.781652 0
M  V30 3152 H 302.031 1.51869 -0.561022 0
M  V30 3153 H 304.023 3.71137 1.61368 0
M  V30 3154 H 302.593 2.64995 1.6582 0
M  V30 3155 H 301.813 3.91228 -0.483106 0
M  V30 3156 H 303.101 5.08558 -0.157004 0
M  V30 3157 H 302.499 4.7895 3.01037 0
M  V30 3158 H 301.056 5.71339 3.13712 0
M  V30 3159 N 304.489 0.459591 1.5075 0
M  V30 3160 C 305.717 -0.0973749 2.06671 0
M  V30 3161 C 306.132 -1.34524 1.32472 0
M  V30 3162 O 305.489 -1.7827 0.390634 0
M  V30 3163 C 305.54 -0.39714 3.59312 0
M  V30 3164 O 305.261 0.801214 4.30711 0
M  V30 3165 C 306.762 -1.00234 4.31819 0
M  V30 3166 H 303.982 0.00195854 0.670997 0
M  V30 3167 H 306.526 0.645072 1.94059 0
M  V30 3168 H 304.681 -1.08951 3.71764 0
M  V30 3169 H 305.095 0.538857 5.21725 0
M  V30 3170 H 306.569 -1.16193 5.39632 0
M  V30 3171 H 307.046 -1.98939 3.91561 0
M  V30 3172 H 307.652 -0.348699 4.23868 0
M  V30 3173 N 305.967 -1.56429 0.191757 0
M  V30 3174 C 306.877 -2.22541 -0.742481 0
M  V30 3175 C 307.893 -1.22342 -1.23727 0
M  V30 3176 O 309.069 -1.55069 -1.28513 0
M  V30 3177 C 306.134 -2.8692 -1.94623 0
M  V30 3178 C 305.195 -4.02378 -1.49633 0
M  V30 3179 C 304.428 -4.63678 -2.6427 0
M  V30 3180 O 304.651 -4.23895 -3.81666 0
M  V30 3181 O 303.585 -5.53202 -2.37174 0
M  V30 3182 H 307.411 -3.02977 -0.209462 0
M  V30 3183 H 304.996 -1.49353 -0.0373832 0
M  V30 3184 H 306.878 -3.27663 -2.64982 0
M  V30 3185 H 305.553 -2.09466 -2.46791 0
M  V30 3186 H 304.46 -3.66265 -0.761636 0
M  V30 3187 H 305.793 -4.81487 -1.02134 0
M  V30 3188 N 307.445 0.0818655 -1.57387 0
M  V30 3189 C 308.693 0.781368 -1.86384 0
M  V30 3190 C 309.014 1.78618 -0.782342 0
M  V30 3191 O 308.284 1.94976 0.190061 0
M  V30 3192 H 306.864 0.291562 -0.687751 0
M  V30 3193 H 309.526 0.060348 -1.94807 0
M  V30 3194 H 308.622 1.3038 -2.83562 0
M  V30 3195 N 308.923 1.53595 0.353017 0
M  V30 3196 C 310.169 1.70638 1.09593 0
M  V30 3197 C 310.502 0.463286 1.88593 0
M  V30 3198 O 309.777 -0.539597 1.86865 0
M  V30 3199 C 310.06 2.96406 2.04489 0
M  V30 3200 C 309.913 4.30901 1.29014 0
M  V30 3201 C 311.232 3.17812 3.0444 0
M  V30 3202 H 308.351 0.620913 0.397034 0
M  V30 3203 H 310.993 1.86254 0.375446 0
M  V30 3204 H 309.143 2.83223 2.65927 0
M  V30 3205 H 310.815 4.55917 0.702638 0
M  V30 3206 H 309.058 4.29741 0.592071 0
M  V30 3207 H 309.729 5.1506 1.98537 0
M  V30 3208 H 312.205 3.30263 2.53112 0
M  V30 3209 H 311.081 4.07223 3.6805 0
M  V30 3210 H 311.342 2.33669 3.75301 0
M  V30 3211 N 310.401 -0.613514 1.45168 0
M  V30 3212 C 311.349 -1.74572 1.53712 0
M  V30 3213 C 312.343 -1.64426 0.407505 0
M  V30 3214 O 313.549 -1.70291 0.583176 0
M  V30 3215 H 309.924 -0.576641 0.48269 0
M  V30 3216 H 311.895 -1.64492 2.48968 0
M  V30 3217 C 310.644 -3.12943 1.51532 0
M  V30 3218 H 309.967 -3.21407 2.37776 0
M  V30 3219 H 311.407 -3.9201 1.61569 0
M  V30 3220 C 309.866 -3.36053 0.238798 0
M  V30 3221 O 310.396 -3.95837 -0.6838 0
M  V30 3222 N 308.602 -2.9028 0.136359 0
M  V30 3223 H 308.149 -2.41811 0.887999 0
M  V30 3224 H 308.107 -3.06116 -0.716944 0
M  V30 3225 N 311.879 -1.3236 -0.855495 0
M  V30 3226 C 312.842 -1.21164 -1.94556 0
M  V30 3227 C 313.842 -0.134908 -1.60233 0
M  V30 3228 O 315.032 -0.385249 -1.69887 0
M  V30 3229 C 312.164 -0.863192 -3.29791 0
M  V30 3230 H 313.357 -2.18038 -2.05911 0
M  V30 3231 H 310.91 -1.16179 -1.04557 0
M  V30 3232 H 311.645 0.103769 -3.24134 0
M  V30 3233 H 311.43 -1.64166 -3.56078 0
M  V30 3234 H 312.92 -0.809156 -4.09686 0
M  V30 3235 N 313.357 1.07166 -1.15556 0
M  V30 3236 C 314.603 1.80065 -0.932984 0
M  V30 3237 C 314.936 1.86586 0.53845 0
M  V30 3238 O 314.211 1.35098 1.39924 0
M  V30 3239 C 314.494 3.25022 -1.55025 0
M  V30 3240 C 314.347 3.26634 -3.09242 0
M  V30 3241 C 315.666 4.22341 -1.2376 0
M  V30 3242 H 312.785 0.653697 -0.340366 0
M  V30 3243 H 315.427 1.25389 -1.4275 0
M  V30 3244 H 313.577 3.71712 -1.12972 0
M  V30 3245 H 315.249 2.88173 -3.60214 0
M  V30 3246 H 313.492 2.65539 -3.43033 0
M  V30 3247 H 314.163 4.28854 -3.47546 0
M  V30 3248 H 316.639 3.8405 -1.60139 0
M  V30 3249 H 315.515 5.22053 -1.69564 0
M  V30 3250 H 315.776 4.41828 -0.154938 0
M  V30 3251 N 314.835 0.952656 1.25548 0
M  V30 3252 C 315.745 0.47782 2.29682 0
M  V30 3253 C 316.761 -0.453859 1.67977 0
M  V30 3254 O 317.937 -0.330587 1.98668 0
M  V30 3255 C 315.002 -0.238655 3.45878 0
M  V30 3256 C 314.063 0.730994 4.23031 0
M  V30 3257 C 313.296 0.0486165 5.33678 0
M  V30 3258 O 313.519 -1.16612 5.58353 0
M  V30 3259 O 312.453 0.733152 5.97418 0
M  V30 3260 H 316.279 1.34312 2.72386 0
M  V30 3261 H 313.864 0.719026 1.30959 0
M  V30 3262 H 315.746 -0.641774 4.16484 0
M  V30 3263 H 314.421 -1.07916 3.05181 0
M  V30 3264 H 313.328 1.18428 3.5486 0
M  V30 3265 H 314.661 1.53946 4.67506 0
M  V30 3266 N 316.313 -1.40141 0.720998 0
M  V30 3267 C 317.59 -1.94677 0.189757 0
M  V30 3268 C 317.97 -1.65879 -1.30566 0
M  V30 3269 O 317.318 -0.979391 -2.06447 0
M  V30 3270 C 317.528 -3.45279 0.508304 0
M  V30 3271 C 318.876 -4.22209 0.449934 0
M  V30 3272 O 319.9 -3.53413 0.444677 0
M  V30 3273 O 318.759 -5.44788 0.432189 0
M  V30 3274 H 315.853 -0.826459 0.0299026 0
M  V30 3275 H 318.399 -1.49719 0.7989 0
M  V30 3276 H 317.171 -3.59619 1.54239 0
M  V30 3277 H 316.794 -3.97386 -0.130525 0
M  V30 3278 N 317.792 -0.46758 -1.50504 0
M  V30 3279 C 318.702 0.33382 -2.32213 0
M  V30 3280 C 319.718 0.999323 -1.42441 0
M  V30 3281 O 320.894 0.988068 -1.75497 0
M  V30 3282 C 317.959 1.4035 -3.17022 0
M  V30 3283 C 317.02 0.754961 -4.2261 0
M  V30 3284 C 316.253 1.77367 -5.03365 0
M  V30 3285 O 316.476 2.99976 -4.8515 0
M  V30 3286 O 315.41 1.34744 -5.86624 0
M  V30 3287 H 319.236 -0.334067 -3.01857 0
M  V30 3288 H 316.821 -0.229496 -1.47627 0
M  V30 3289 H 318.703 2.02318 -3.69656 0
M  V30 3290 H 317.378 2.05492 -2.5011 0
M  V30 3291 H 316.285 0.0964244 -3.73976 0
M  V30 3292 H 317.618 0.146545 -4.91982 0
M  V30 3293 N 319.27 1.56325 -0.20005 0
M  V30 3294 C 320.519 1.96895 0.437652 0
M  V30 3295 C 320.832 1.08999 1.62415 0
M  V30 3296 O 322.038 1.39372 2.32997 0
M  V30 3297 C 320.494 3.50198 0.830025 0
M  V30 3298 C 320.102 4.46765 -0.332461 0
M  V30 3299 C 321.846 3.99526 1.43453 0
M  V30 3300 C 319.753 5.91344 0.0811468 0
M  V30 3301 H 318.683 0.735209 0.167282 0
M  V30 3302 H 321.334 1.81148 -0.292853 0
M  V30 3303 H 319.716 3.61467 1.61734 0
M  V30 3304 H 320.89 4.47231 -1.11 0
M  V30 3305 H 319.205 4.07657 -0.848789 0
M  V30 3306 H 321.802 5.05025 1.75652 0
M  V30 3307 H 322.145 3.44122 2.34277 0
M  V30 3308 H 322.678 3.91393 0.71109 0
M  V30 3309 H 319.417 6.50685 -0.793033 0
M  V30 3310 H 318.937 5.94121 0.823445 0
M  V30 3311 H 320.616 6.44945 0.515252 0
M  V30 3312 N 320.748 -0.0735177 1.57428 0
M  V30 3313 C 321.695 -1.08756 2.0357 0
M  V30 3314 C 322.665 -1.38559 0.916 0
M  V30 3315 O 323.85 -1.49656 1.18354 0
M  V30 3316 C 320.99 -2.39657 2.48311 0
M  V30 3317 C 320.103 -2.16399 3.73892 0
M  V30 3318 C 319.238 -3.40852 4.07423 0
M  V30 3319 C 318.277 -3.1295 5.2605 0
M  V30 3320 N 317.414 -4.29729 5.55228 0
M  V30 3321 H 322.254 -0.687104 2.8997 0
M  V30 3322 H 319.791 -0.327709 1.43403 0
M  V30 3323 H 321.749 -3.16081 2.72303 0
M  V30 3324 H 320.379 -2.77508 1.64891 0
M  V30 3325 H 319.431 -1.30676 3.57251 0
M  V30 3326 H 320.743 -1.91788 4.60455 0
M  V30 3327 H 319.897 -4.25671 4.32306 0
M  V30 3328 H 318.636 -3.68537 3.19425 0
M  V30 3329 H 317.641 -2.26526 5.00965 0
M  V30 3330 H 318.866 -2.86589 6.15665 0
M  V30 3331 H 316.812 -4.57448 4.70188 0
M  V30 3332 H 316.729 -4.08385 6.36206 0
M  V30 3333 H 317.997 -5.1555 5.84661 0
M  V30 3334 N 322.226 -1.5378 -0.344866 0
M  V30 3335 C 323.173 -1.81676 -1.42346 0
M  V30 3336 C 324.143 -0.662376 -1.52321 0
M  V30 3337 O 325.328 -0.906675 -1.67881 0
M  V30 3338 C 322.468 -2.03087 -2.79015 0
M  V30 3339 C 321.581 -3.30799 -2.77842 0
M  V30 3340 C 320.716 -3.42285 -4.0622 0
M  V30 3341 C 319.755 -4.6395 -3.9927 0
M  V30 3342 N 318.892 -4.72477 -5.19336 0
M  V30 3343 H 323.732 -2.73703 -1.17858 0
M  V30 3344 H 321.269 -1.35568 -0.570949 0
M  V30 3345 H 323.227 -2.1349 -3.58438 0
M  V30 3346 H 321.857 -1.14375 -3.01858 0
M  V30 3347 H 320.909 -3.29244 -1.90533 0
M  V30 3348 H 322.221 -4.20314 -2.68584 0
M  V30 3349 H 321.375 -3.52113 -4.94066 0
M  V30 3350 H 320.114 -2.50823 -4.18258 0
M  V30 3351 H 319.119 -4.54201 -3.09809 0
M  V30 3352 H 320.344 -5.56775 -3.88817 0
M  V30 3353 H 318.29 -3.83924 -5.3192 0
M  V30 3354 H 318.207 -5.55927 -5.12329 0
M  V30 3355 H 319.475 -4.86613 -6.08957 0
M  V30 3356 N 323.704 0.605807 -1.45491 0
M  V30 3357 C 324.934 1.38934 -1.52908 0
M  V30 3358 C 325.342 1.88513 -0.161086 0
M  V30 3359 O 324.685 1.62962 0.847891 0
M  V30 3360 C 324.747 2.62737 -2.45376 0
M  V30 3361 C 324.411 2.34785 -3.92078 0
M  V30 3362 C 325.408 1.95038 -4.8193 0
M  V30 3363 C 323.093 2.47642 -4.37011 0
M  V30 3364 C 325.087 1.68511 -6.14722 0
M  V30 3365 C 322.774 2.20728 -5.69844 0
M  V30 3366 C 323.772 1.81225 -6.58519 0
M  V30 3367 O 323.46 1.54627 -7.88889 0
M  V30 3368 H 323.192 0.431629 -0.520262 0
M  V30 3369 H 325.746 0.74573 -1.91384 0
M  V30 3370 H 323.976 3.29824 -2.01874 0
M  V30 3371 H 325.665 3.24783 -2.43456 0
M  V30 3372 H 326.431 1.84639 -4.48479 0
M  V30 3373 H 322.31 2.77356 -3.68232 0
M  V30 3374 H 325.854 1.37602 -6.83894 0
M  V30 3375 H 321.751 2.30744 -6.02849 0
M  V30 3376 H 322.519 1.68665 -8.00933 0
M  V30 3377 N 325.182 1.32811 0.848464 0
M  V30 3378 C 326.41 1.26739 1.63538 0
M  V30 3379 C 326.825 -0.163484 1.88091 0
M  V30 3380 O 326.182 -1.10258 1.45429 0
M  V30 3381 C 326.233 2.03013 2.99112 0
M  V30 3382 O 325.954 3.40518 2.75643 0
M  V30 3383 C 327.455 2.04038 3.93552 0
M  V30 3384 H 324.675 0.437024 0.509167 0
M  V30 3385 H 327.219 1.75033 1.05753 0
M  V30 3386 H 325.374 1.58426 3.53525 0
M  V30 3387 H 325.788 3.79635 3.61908 0
M  V30 3388 H 327.262 2.61877 4.85926 0
M  V30 3389 H 327.739 1.0282 4.26995 0
M  V30 3390 H 328.345 2.486 3.45077 0
M  V30 3391 N 326.66 -1.06551 1.16123 0
M  V30 3392 C 327.888 -1.83005 0.965237 0
M  V30 3393 C 328.303 -1.82423 -0.486542 0
M  V30 3394 O 327.66 -1.24152 -1.33763 0
M  V30 3395 C 327.711 -3.29733 1.48183 0
M  V30 3396 O 327.432 -3.30416 2.87674 0
M  V30 3397 C 328.933 -4.22926 1.32848 0
M  V30 3398 H 326.153 -0.577118 0.342309 0
M  V30 3399 H 328.697 -1.3445 1.54089 0
M  V30 3400 H 326.852 -3.75609 0.948517 0
M  V30 3401 H 327.266 -4.22149 3.11272 0
M  V30 3402 H 328.74 -5.23916 1.73827 0
M  V30 3403 H 329.217 -4.38346 0.273692 0
M  V30 3404 H 329.823 -3.82894 1.85127 0
M  V30 3405 N 328.138 -0.959301 -1.25041 0
M  V30 3406 C 329.068 -0.501388 -2.28053 0
M  V30 3407 C 330.049 0.454673 -1.63911 0
M  V30 3408 O 331.234 0.352618 -1.90972 0
M  V30 3409 C 328.364 0.217224 -3.4662 0
M  V30 3410 C 327.318 -0.654034 -4.22973 0
M  V30 3411 C 326.644 0.195589 -5.34342 0
M  V30 3412 C 327.944 -1.93447 -4.85155 0
M  V30 3413 H 329.638 -1.36238 -2.66608 0
M  V30 3414 H 327.184 -0.656534 -1.28163 0
M  V30 3415 H 329.137 0.548732 -4.17812 0
M  V30 3416 H 327.861 1.1125 -3.07068 0
M  V30 3417 H 326.52 -0.968693 -3.5357 0
M  V30 3418 H 326.168 1.09076 -4.91031 0
M  V30 3419 H 325.868 -0.384091 -5.86343 0
M  V30 3420 H 327.392 0.521958 -6.08365 0
M  V30 3421 H 328.806 -1.66908 -5.48466 0
M  V30 3422 H 327.203 -2.46018 -5.47353 0
M  V30 3423 H 328.273 -2.63466 -4.07079 0
M  V30 3424 N 329.616 1.39756 -0.72842 0
M  V30 3425 C 330.841 2.05472 -0.282159 0
M  V30 3426 C 331.266 1.54549 1.07221 0
M  V30 3427 O 330.624 0.686372 1.67805 0
M  V30 3428 C 330.672 3.59462 -0.286264 0
M  V30 3429 O 329.776 4.05918 0.728298 0
M  V30 3430 H 329.117 0.651226 -0.129618 0
M  V30 3431 H 331.647 1.78915 -0.992499 0
M  V30 3432 H 331.657 4.07798 -0.128373 0
M  V30 3433 H 330.332 3.95889 -1.27456 0
M  V30 3434 H 328.909 3.69012 0.537081 0
M  V30 3435 N 331.094 0.475555 1.50254 0
M  V30 3436 C 332.324 -0.0753399 2.06463 0
M  V30 3437 C 332.732 -1.33661 1.33908 0
M  V30 3438 O 332.075 -1.79219 0.403257 0
M  V30 3439 C 332.137 -0.424921 3.5698 0
M  V30 3440 C 331.801 0.734965 4.51051 0
M  V30 3441 C 332.798 1.61827 4.94073 0
M  V30 3442 C 330.483 0.926557 4.9368 0
M  V30 3443 C 332.477 2.67754 5.78434 0
M  V30 3444 C 330.164 1.98904 5.77824 0
M  V30 3445 C 331.162 2.8629 6.20103 0
M  V30 3446 O 330.85 3.90708 7.02568 0
M  V30 3447 H 330.582 0.00576308 0.675975 0
M  V30 3448 H 333.136 0.664662 1.94349 0
M  V30 3449 H 331.366 -1.21817 3.67012 0
M  V30 3450 H 333.055 -0.911422 3.95535 0
M  V30 3451 H 333.821 1.48196 4.61804 0
M  V30 3452 H 329.7 0.25584 4.6029 0
M  V30 3453 H 333.244 3.35992 6.11355 0
M  V30 3454 H 329.141 2.12541 6.09505 0
M  V30 3455 H 329.909 3.87751 7.20827 0
M  V30 3456 N 332.573 -1.56217 0.208337 0
M  V30 3457 C 333.989 -1.58919 -0.14729 0
M  V30 3458 C 334.189 -1.22486 -1.59998 0
M  V30 3459 O 333.245 -0.953849 -2.3379 0
M  V30 3460 C 334.558 -3.00236 0.167048 0
M  V30 3461 C 336.106 -3.12813 0.108219 0
M  V30 3462 C 336.581 -4.56284 0.396049 0
M  V30 3463 N 338.072 -4.61912 0.345142 0
M  V30 3464 C 338.807 -5.70837 0.541523 0
M  V30 3465 N 338.303 -6.88178 0.798968 0
M  V30 3466 N 340.096 -5.60091 0.474867 0
M  V30 3467 H 332.247 -1.78177 1.15614 0
M  V30 3468 H 334.51 -0.827555 0.462446 0
M  V30 3469 H 334.216 -3.31499 1.1748 0
M  V30 3470 H 334.09 -3.7354 -0.524184 0
M  V30 3471 H 336.477 -2.81354 -0.890157 0
M  V30 3472 H 336.558 -2.41866 0.832729 0
M  V30 3473 H 336.202 -4.88458 1.3918 0
M  V30 3474 H 336.132 -5.25439 -0.349502 0
M  V30 3475 H 338.623 -3.77589 0.153316 0
M  V30 3476 H 338.936 -7.67095 0.93727 0
M  V30 3477 H 337.281 -6.89953 0.836013 0
M  V30 3478 H 340.472 -4.67297 0.274064 0
M  V30 3479 H 340.645 -6.44917 0.631326 0
M  V30 3480 N 334.051 0.0651679 -1.57465 0
M  V30 3481 C 335.014 1.06117 -2.03155 0
M  V30 3482 C 336.014 1.31204 -0.929632 0
M  V30 3483 O 337.204 1.26813 -1.19432 0
M  V30 3484 C 334.336 2.4032 -2.41783 0
M  V30 3485 H 335.529 0.667231 -2.92383 0
M  V30 3486 H 333.082 0.311075 -1.53173 0
M  V30 3487 H 333.817 2.84532 -1.55601 0
M  V30 3488 H 333.602 2.23451 -3.22199 0
M  V30 3489 H 335.092 3.11898 -2.77685 0
M  V30 3490 N 335.529 1.53961 0.336706 0
M  V30 3491 C 336.94 1.62914 0.911925 0
M  V30 3492 C 337.291 0.514795 1.89326 0
M  V30 3493 O 336.416 -0.354395 2.13478 0
M  V30 3494 C 337.011 2.95304 1.66076 0
M  V30 3495 C 335.57 3.06496 2.18489 0
M  V30 3496 C 334.717 2.58403 1.00613 0
M  V30 3497 H 337.668 1.58285 0.114649 0
M  V30 3498 H 337.689 2.84727 2.5241 0
M  V30 3499 H 337.201 3.76387 0.946276 0
M  V30 3500 H 335.302 2.3006 2.93092 0
M  V30 3501 H 335.415 4.1208 2.44391 0
M  V30 3502 H 333.779 2.13977 1.38152 0
M  V30 3503 H 334.562 3.41932 0.306179 0
M  V30 3504 N 337.007 -0.598083 1.45811 0
M  V30 3505 C 337.917 -1.73632 1.57763 0
M  V30 3506 C 338.933 -1.67763 0.461676 0
M  V30 3507 O 340.109 -1.87949 0.723685 0
M  V30 3508 C 337.174 -3.10114 1.55018 0
M  V30 3509 C 336.235 -3.27364 2.77726 0
M  V30 3510 C 335.468 -4.57334 2.75102 0
M  V30 3511 O 335.691 -5.40258 1.8297 0
M  V30 3512 O 334.625 -4.77502 3.66437 0
M  V30 3513 H 338.451 -1.66498 2.53992 0
M  V30 3514 H 336.036 -0.763308 1.28429 0
M  V30 3515 H 337.918 -3.9141 1.56129 0
M  V30 3516 H 336.593 -3.17718 0.619431 0
M  V30 3517 H 335.5 -2.45619 2.82174 0
M  V30 3518 H 336.833 -3.24641 3.69958 0
M  V30 3519 N 338.485 -1.33259 -0.841409 0
M  V30 3520 C 339.418 -1.1764 -1.95541 0
M  V30 3521 C 340.396 -0.072501 -1.62438 0
M  V30 3522 O 341.58 -0.23427 -1.87039 0
M  V30 3523 C 338.707 -0.803794 -3.29024 0
M  V30 3524 C 337.753 -1.91482 -3.81099 0
M  V30 3525 S 338.586 -3.52538 -4.03085 0
M  V30 3526 C 339.742 -3.17279 -5.39523 0
M  V30 3527 H 339.975 -2.11941 -2.08491 0
M  V30 3528 H 337.508 -1.18072 -0.9949 0
M  V30 3529 H 339.466 -0.595592 -4.06156 0
M  V30 3530 H 338.127 0.120574 -3.13868 0
M  V30 3531 H 337.32 -1.60742 -4.7768 0
M  V30 3532 H 336.922 -2.07956 -3.10854 0
M  V30 3533 H 339.214 -2.67946 -6.22263 0
M  V30 3534 H 340.157 -4.1293 -5.75234 0
M  V30 3535 H 340.565 -2.53943 -5.04156 0
M  V30 3536 N 339.963 1.05934 -1.16686 0
M  V30 3537 C 341.209 1.79065 -0.95203 0
M  V30 3538 C 341.542 1.87147 0.518629 0
M  V30 3539 O 340.817 1.36574 1.38484 0
M  V30 3540 C 341.1 3.23359 -1.58464 0
M  V30 3541 C 340.953 3.23336 -3.12689 0
M  V30 3542 C 342.272 4.21004 -1.28232 0
M  V30 3543 H 339.391 0.65005 -0.34728 0
M  V30 3544 H 342.033 1.23868 -1.44072 0
M  V30 3545 H 340.183 3.70493 -1.16908 0
M  V30 3546 H 341.855 2.84336 -3.6325 0
M  V30 3547 H 340.098 2.61886 -3.4583 0
M  V30 3548 H 340.769 4.25144 -3.52075 0
M  V30 3549 H 343.245 3.8233 -1.64203 0
M  V30 3550 H 342.121 5.20225 -1.75092 0
M  V30 3551 H 342.382 4.41639 -0.201791 0
M  V30 3552 N 341.441 0.965919 1.2453 0
M  V30 3553 C 342.389 0.486506 2.27455 0
M  V30 3554 C 343.383 -0.449041 1.6334 0
M  V30 3555 O 344.589 -0.324527 1.7705 0
M  V30 3556 H 340.964 0.138857 0.739069 0
M  V30 3557 H 342.935 1.3666 2.65267 0
M  V30 3558 C 341.684 -0.209481 3.47068 0
M  V30 3559 H 341.007 0.50129 3.96645 0
M  V30 3560 H 342.447 -0.508775 4.20936 0
M  V30 3561 C 340.906 -1.43586 3.0477 0
M  V30 3562 O 341.436 -2.53299 3.11773 0
M  V30 3563 N 339.642 -1.30126 2.59838 0
M  V30 3564 H 339.189 -0.408583 2.54339 0
M  V30 3565 H 339.147 -2.12294 2.31902 0
M  V30 3566 N 342.919 -1.39368 0.735821 0
M  V30 3567 C 343.849 -2.33234 0.111506 0
M  V30 3568 C 344.83 -1.53954 -0.723334 0
M  V30 3569 O 346.015 -1.82344 -0.668147 0
M  V30 3570 C 343.145 -3.38057 -0.795917 0
M  V30 3571 C 342.099 -4.2795 -0.065172 0
M  V30 3572 C 341.425 -5.23479 -1.08967 0
M  V30 3573 C 342.725 -5.10741 1.09273 0
M  V30 3574 H 344.419 -2.85692 0.895571 0
M  V30 3575 H 341.965 -1.37364 0.432109 0
M  V30 3576 H 343.918 -4.02675 -1.24221 0
M  V30 3577 H 342.642 -2.8404 -1.61211 0
M  V30 3578 H 341.301 -3.64813 0.361511 0
M  V30 3579 H 340.949 -4.65758 -1.89944 0
M  V30 3580 H 340.649 -5.84472 -0.605489 0
M  V30 3581 H 342.173 -5.90974 -1.53565 0
M  V30 3582 H 343.587 -5.68699 0.724841 0
M  V30 3583 H 341.984 -5.8088 1.50659 0
M  V30 3584 H 343.054 -4.45525 1.91404 0
M  V30 3585 N 344.397 -0.483516 -1.5 0
M  V30 3586 C 345.627 0.0643896 -2.065 0
M  V30 3587 C 346.035 1.32949 -1.34615 0
M  V30 3588 O 345.378 1.79003 -0.412756 0
M  V30 3589 C 345.44 0.405983 -3.572 0
M  V30 3590 C 345.104 -0.758875 -4.50655 0
M  V30 3591 C 346.101 -1.64445 -4.93208 0
M  V30 3592 C 343.786 -0.952725 -4.93182 0
M  V30 3593 C 345.78 -2.70818 -5.77006 0
M  V30 3594 C 343.467 -2.01966 -5.76761 0
M  V30 3595 C 344.465 -2.89574 -6.18576 0
M  V30 3596 O 344.153 -3.94429 -7.00486 0
M  V30 3597 H 343.885 -0.00934786 -0.675935 0
M  V30 3598 H 346.439 -0.674959 -1.93993 0
M  V30 3599 H 344.669 1.19869 -3.67652 0
M  V30 3600 H 346.358 0.890433 -3.96013 0
M  V30 3601 H 347.124 -1.50643 -4.61012 0
M  V30 3602 H 343.003 -0.280247 -4.60147 0
M  V30 3603 H 346.547 -3.3923 -6.09565 0
M  V30 3604 H 342.444 -2.1577 -6.0837 0
M  V30 3605 H 343.212 -3.91568 -7.1876 0
M  V30 3606 N 345.875 1.56104 -0.216619 0
M  V30 3607 C 347.1 2.0301 0.424462 0
M  V30 3608 C 347.525 1.0955 1.52907 0
M  V30 3609 O 346.883 0.0827914 1.81111 0
M  V30 3610 C 346.931 3.4819 0.937883 0
M  V30 3611 O 346.035 3.57865 2.04955 0
M  V30 3612 H 345.376 0.656925 0.0966755 0
M  V30 3613 H 347.906 2.01859 -0.33381 0
M  V30 3614 H 347.916 3.88413 1.24897 0
M  V30 3615 H 346.591 4.15699 0.129387 0
M  V30 3616 H 345.168 3.29527 1.74546 0
M  V30 3617 N 347.353 -0.0568162 1.57498 0
M  V30 3618 C 348.601 -0.751617 1.87604 0
M  V30 3619 C 348.922 -1.77351 0.81066 0
M  V30 3620 O 348.192 -1.95254 -0.159018 0
M  V30 3621 H 346.772 -0.280583 0.692302 0
M  V30 3622 H 349.434 -0.0293483 1.94878 0
M  V30 3623 H 348.53 -1.25852 2.856 0
M  V30 3624 N 348.832 -1.54138 -0.328536 0
M  V30 3625 C 349.779 -1.83176 -1.40411 0
M  V30 3626 C 350.749 -0.678494 -1.5161 0
M  V30 3627 O 351.934 -0.92443 -1.6691 0
M  V30 3628 C 349.074 -2.06035 -2.76846 0
M  V30 3629 C 348.187 -3.33727 -2.74318 0
M  V30 3630 C 347.322 -3.46574 -4.02567 0
M  V30 3631 C 346.361 -4.68159 -3.94327 0
M  V30 3632 N 345.498 -4.77959 -5.14296 0
M  V30 3633 H 350.338 -2.74938 -1.14948 0
M  V30 3634 H 347.875 -1.36166 -0.556538 0
M  V30 3635 H 349.833 -2.1728 -3.56153 0
M  V30 3636 H 348.463 -1.1757 -3.00628 0
M  V30 3637 H 347.515 -3.31246 -1.8703 0
M  V30 3638 H 348.827 -4.23139 -2.64111 0
M  V30 3639 H 347.981 -3.57333 -4.90304 0
M  V30 3640 H 346.72 -2.55245 -4.15574 0
M  V30 3641 H 345.725 -4.57461 -3.04974 0
M  V30 3642 H 346.95 -5.60868 -3.82889 0
M  V30 3643 H 344.896 -3.89544 -5.27818 0
M  V30 3644 H 344.813 -5.6133 -5.06404 0
M  V30 3645 H 346.081 -4.93044 -6.03761 0
M  V30 3646 N 350.31 0.590341 -1.46126 0
M  V30 3647 C 351.559 1.34499 -1.50309 0
M  V30 3648 C 351.872 1.94977 -0.156021 0
M  V30 3649 O 353.078 2.71395 -0.0756037 0
M  V30 3650 C 351.534 2.43723 -2.64815 0
M  V30 3651 C 351.142 1.89582 -4.0591 0
M  V30 3652 C 352.886 3.20579 -2.78262 0
M  V30 3653 C 350.793 2.9639 -5.11769 0
M  V30 3654 H 349.723 0.505593 -0.559368 0
M  V30 3655 H 352.374 0.630848 -1.72315 0
M  V30 3656 H 350.756 3.17902 -2.36124 0
M  V30 3657 H 351.93 1.21997 -4.44357 0
M  V30 3658 H 350.245 1.25418 -3.97063 0
M  V30 3659 H 352.842 4.00276 -3.54519 0
M  V30 3660 H 353.185 3.72684 -1.85505 0
M  V30 3661 H 353.718 2.53505 -3.06562 0
M  V30 3662 H 350.457 2.49181 -6.06291 0
M  V30 3663 H 349.977 3.62487 -4.77873 0
M  V30 3664 H 351.656 3.60474 -5.37278 0
M  V30 3665 N 351.788 1.33704 0.83433 0
M  V30 3666 C 353.037 1.24763 1.58484 0
M  V30 3667 C 353.35 -0.183775 1.94735 0
M  V30 3668 O 354.556 -0.395234 2.68608 0
M  V30 3669 C 353.012 2.18638 2.85876 0
M  V30 3670 C 352.62 3.66974 2.56971 0
M  V30 3671 C 354.364 2.18581 3.63899 0
M  V30 3672 C 352.271 4.5275 3.80488 0
M  V30 3673 H 351.201 0.463425 0.594772 0
M  V30 3674 H 353.852 1.58797 0.919551 0
M  V30 3675 H 352.234 1.77542 3.5397 0
M  V30 3676 H 353.408 4.16538 1.9706 0
M  V30 3677 H 351.723 3.69366 1.92244 0
M  V30 3678 H 354.32 2.79894 4.55591 0
M  V30 3679 H 354.663 1.18207 3.99165 0
M  V30 3680 H 355.196 2.58062 3.02735 0
M  V30 3681 H 351.935 5.54017 3.5035 0
M  V30 3682 H 351.455 4.07927 4.39722 0
M  V30 3683 H 353.134 4.66784 4.4802 0
M  V30 3684 N 353.266 -1.05314 1.17247 0
M  V30 3685 C 354.494 -1.81971 0.984593 0
M  V30 3686 C 354.909 -1.82929 -0.467166 0
M  V30 3687 O 354.266 -1.25564 -1.32438 0
M  V30 3688 C 354.317 -3.28143 1.51672 0
M  V30 3689 O 354.038 -3.27347 2.91163 0
M  V30 3690 C 355.539 -4.21493 1.37326 0
M  V30 3691 H 352.759 -0.573455 0.348411 0
M  V30 3692 H 355.303 -1.32808 1.55506 0
M  V30 3693 H 353.458 -3.74582 0.988302 0
M  V30 3694 H 353.872 -4.18824 3.15732 0
M  V30 3695 H 355.346 -5.22043 1.79375 0
M  V30 3696 H 355.823 -4.38031 0.320169 0
M  V30 3697 H 356.429 -3.80909 1.89178 0
M  V30 3698 N 354.744 -0.972509 -1.24016 0
M  V30 3699 C 355.972 -0.654803 -1.96265 0
M  V30 3700 C 356.387 0.776708 -1.72083 0
M  V30 3701 O 355.744 1.52171 -1.00748 0
M  V30 3702 C 355.795 -0.92592 -3.49441 0
M  V30 3703 O 355.516 -2.30116 -3.72798 0
M  V30 3704 C 357.017 -0.623068 -4.38899 0
M  V30 3705 H 354.237 -0.243907 -0.6251 0
M  V30 3706 H 356.781 -1.30175 -1.57717 0
M  V30 3707 H 354.936 -0.325108 -3.86033 0
M  V30 3708 H 355.35 -2.38483 -4.67147 0
M  V30 3709 H 356.824 -0.863189 -5.45209 0
M  V30 3710 H 357.301 0.442754 -4.36963 0
M  V30 3711 H 357.907 -1.204 -4.07902 0
M  V30 3712 N 356.222 1.38976 -0.743202 0
M  V30 3713 C 357.169 2.30544 -0.10861 0
M  V30 3714 C 358.139 1.49642 0.720869 0
M  V30 3715 O 359.324 1.78304 0.679142 0
M  V30 3716 C 356.464 3.36018 0.786496 0
M  V30 3717 C 355.577 4.31963 -0.0564849 0
M  V30 3718 C 354.712 5.24506 0.840657 0
M  V30 3719 C 353.751 6.121 -0.00658363 0
M  V30 3720 N 352.888 6.96973 0.846943 0
M  V30 3721 H 357.728 2.8424 -0.895088 0
M  V30 3722 H 355.265 1.3995 -0.453048 0
M  V30 3723 H 357.223 3.95768 1.31999 0
M  V30 3724 H 355.853 2.83758 1.53887 0
M  V30 3725 H 354.905 3.73763 -0.707492 0
M  V30 3726 H 356.217 4.93703 -0.711229 0
M  V30 3727 H 355.371 5.89322 1.4417 0
M  V30 3728 H 354.11 4.63107 1.52916 0
M  V30 3729 H 353.115 5.46289 -0.620366 0
M  V30 3730 H 354.34 6.75565 -0.691992 0
M  V30 3731 H 352.286 6.38133 1.52059 0
M  V30 3732 H 352.203 7.5559 0.248864 0
M  V30 3733 H 353.471 7.6621 1.43328 0
M  V30 3734 N 357.7 0.491464 1.49741 0
M  V30 3735 C 358.663 -0.280906 2.27472 0
M  V30 3736 C 359.663 -0.902454 1.33088 0
M  V30 3737 O 360.853 -0.768465 1.56334 0
M  V30 3738 C 357.985 -1.40209 3.10732 0
M  V30 3739 H 359.178 0.401056 2.97206 0
M  V30 3740 H 356.731 0.246131 1.5435 0
M  V30 3741 H 357.466 -2.11849 2.45541 0
M  V30 3742 H 357.251 -0.961969 3.80117 0
M  V30 3743 H 358.741 -1.9464 3.69466 0
M  V30 3744 N 359.178 -1.55987 0.224894 0
M  V30 3745 C 360.455 -1.90232 -0.455083 0
M  V30 3746 C 360.835 -1.14269 -1.77499 0
M  V30 3747 O 360.183 -0.253079 -2.27094 0
M  V30 3748 C 360.393 -3.42993 -0.644758 0
M  V30 3749 C 361.741 -4.13821 -0.950669 0
M  V30 3750 O 362.765 -3.4861 -0.731423 0
M  V30 3751 O 361.624 -5.29128 -1.36695 0
M  V30 3752 H 358.718 -0.79108 -0.241084 0
M  V30 3753 H 361.264 -1.67581 0.267327 0
M  V30 3754 H 360.036 -3.90252 0.28613 0
M  V30 3755 H 359.659 -3.71434 -1.41853 0
M  V30 3756 N 360.656 0.0484629 -1.57525 0
M  V30 3757 C 361.905 0.742065 -1.87553 0
M  V30 3758 C 362.218 1.77545 -0.820802 0
M  V30 3759 O 363.424 2.52027 -1.00967 0
M  V30 3760 C 361.88 1.37081 -3.32771 0
M  V30 3761 C 361.488 0.374786 -4.4643 0
M  V30 3762 C 363.232 2.04542 -3.71972 0
M  V30 3763 C 361.139 1.01077 -5.82698 0
M  V30 3764 H 360.069 0.280903 -0.699721 0
M  V30 3765 H 362.72 -0.00411877 -1.835 0
M  V30 3766 H 361.102 2.16605 -3.31509 0
M  V30 3767 H 362.276 -0.392331 -4.59127 0
M  V30 3768 H 360.591 -0.196653 -4.15935 0
M  V30 3769 H 363.188 2.52943 -4.71088 0
M  V30 3770 H 363.531 2.85515 -3.02964 0
M  V30 3771 H 364.064 1.31819 -3.75325 0
M  V30 3772 H 360.803 0.240878 -6.55057 0
M  V30 3773 H 360.323 1.74819 -5.73758 0
M  V30 3774 H 362.002 1.52383 -6.28799 0
M  V30 3775 N 362.134 1.5431 0.320358 0
M  V30 3776 C 363.38 1.73859 1.05568 0
M  V30 3777 C 363.735 0.507807 1.85578 0
M  V30 3778 O 363.028 -0.499789 1.84967 0
M  V30 3779 C 363.222 2.95639 2.00828 0
M  V30 3780 C 363.051 4.30444 1.30186 0
M  V30 3781 C 361.821 4.94544 1.03703 0
M  V30 3782 C 364.019 5.0929 0.716138 0
M  V30 3783 N 362.001 6.13172 0.298846 0
M  V30 3784 C 363.372 6.19903 0.109729 0
M  V30 3785 C 365.427 4.94034 0.619269 0
M  V30 3786 C 364.13 7.16924 -0.584153 0
M  V30 3787 C 366.156 5.91369 -0.0609184 0
M  V30 3788 C 365.518 7.01336 -0.656258 0
M  V30 3789 H 361.617 0.688988 0.36989 0
M  V30 3790 H 364.201 1.9177 0.336494 0
M  V30 3791 H 362.372 2.79188 2.70016 0
M  V30 3792 H 364.104 3.03802 2.6737 0
M  V30 3793 H 360.859 4.54536 1.33019 0
M  V30 3794 H 361.283 6.76977 -0.0561964 0
M  V30 3795 H 365.925 4.0916 1.06526 0
M  V30 3796 H 363.643 8.01354 -1.04197 0
M  V30 3797 H 367.229 5.81642 -0.135552 0
M  V30 3798 H 366.109 7.75359 -1.17423 0
M  V30 3799 N 363.613 -0.582584 1.46437 0
M  V30 3800 C 364.576 -1.67366 1.56592 0
M  V30 3801 C 365.576 -1.54575 0.443072 0
M  V30 3802 O 366.766 -1.59191 0.707381 0
M  V30 3803 C 363.898 -3.06791 1.48634 0
M  V30 3804 H 365.091 -1.5972 2.5383 0
M  V30 3805 H 362.644 -0.800432 1.34249 0
M  V30 3806 H 363.379 -3.19993 0.526763 0
M  V30 3807 H 363.164 -3.17484 2.30101 0
M  V30 3808 H 364.654 -3.86218 1.58826 0
M  V30 3809 N 365.091 -1.34144 -0.827227 0
M  V30 3810 C 366.021 -1.28005 -1.95287 0
M  V30 3811 C 367.002 -0.158321 -1.69362 0
M  V30 3812 O 368.187 -0.349987 -1.9102 0
M  V30 3813 C 365.317 -1.03036 -3.31664 0
M  V30 3814 C 364.271 -2.11628 -3.72019 0
M  V30 3815 C 363.597 -1.71854 -5.0633 0
M  V30 3816 C 364.897 -3.53417 -3.8457 0
M  V30 3817 H 366.591 -2.22187 -2.00682 0
M  V30 3818 H 364.137 -1.0696 -0.964135 0
M  V30 3819 H 366.09 -0.973863 -4.09993 0
M  V30 3820 H 364.814 -0.0529391 -3.26557 0
M  V30 3821 H 363.473 -2.16339 -2.95961 0
M  V30 3822 H 363.121 -0.727841 -4.97706 0
M  V30 3823 H 362.821 -2.44531 -5.34302 0
M  V30 3824 H 364.345 -1.67692 -5.87122 0
M  V30 3825 H 365.759 -3.51142 -4.5318 0
M  V30 3826 H 364.156 -4.24679 -4.2399 0
M  V30 3827 H 365.226 -3.91072 -2.86689 0
M  V30 3828 N 366.569 1.04691 -1.17803 0
M  V30 3829 C 367.817 1.7743 -0.967617 0
M  V30 3830 C 368.138 1.88359 0.504574 0
M  V30 3831 O 367.408 1.40402 1.36617 0
M  V30 3832 H 365.988 0.657242 -0.355024 0
M  V30 3833 H 368.65 1.2638 -1.48371 0
M  V30 3834 H 367.746 2.78924 -1.40027 0
M  V30 3835 N 368.047 0.979072 1.23499 0
M  V30 3836 C 369.287 0.655228 1.93613 0
M  V30 3837 C 369.651 -0.796336 1.74707 0
M  V30 3838 O 370.852 -1.23094 2.38959 0
M  V30 3839 C 369.123 1.03337 3.42135 0
M  V30 3840 S 370.682 0.825793 4.3096 0
M  V30 3841 H 367.5 0.240004 0.669267 0
M  V30 3842 H 370.102 1.25843 1.49612 0
M  V30 3843 H 368.806 2.08646 3.53405 0
M  V30 3844 H 368.337 0.421397 3.91137 0
M  V30 3845 H 370.352 -0.290991 4.95346 0
M  V30 3846 N 369.525 -1.3858 0.750561 0
M  V30 3847 C 370.455 -2.33102 0.136237 0
M  V30 3848 C 371.436 -1.54713 -0.706965 0
M  V30 3849 O 372.621 -1.83043 -0.648769 0
M  V30 3850 C 369.751 -3.38882 -0.760017 0
M  V30 3851 C 368.705 -4.27995 -0.0197785 0
M  V30 3852 C 368.031 -5.24605 -1.03408 0
M  V30 3853 C 369.331 -5.09554 1.14684 0
M  V30 3854 H 371.025 -2.84726 0.925822 0
M  V30 3855 H 368.571 -1.36898 0.446654 0
M  V30 3856 H 370.524 -4.0397 -1.19943 0
M  V30 3857 H 369.248 -2.85734 -1.58189 0
M  V30 3858 H 367.907 -3.64409 0.400184 0
M  V30 3859 H 367.555 -4.67746 -1.84994 0
M  V30 3860 H 367.255 -5.85081 -0.543464 0
M  V30 3861 H 368.779 -5.9257 -1.47288 0
M  V30 3862 H 370.193 -5.67899 0.785118 0
M  V30 3863 H 368.59 -5.7925 1.56812 0
M  V30 3864 H 369.66 -4.4347 1.96118 0
M  V30 3865 N 371.003 -0.499398 -1.49478 0
M  V30 3866 C 371.933 0.269244 -2.31943 0
M  V30 3867 C 372.914 0.964054 -1.40143 0
M  V30 3868 O 374.099 0.955767 -1.69052 0
M  V30 3869 C 371.229 1.33504 -3.20615 0
M  V30 3870 C 370.183 0.760202 -4.21195 0
M  V30 3871 C 369.509 1.9264 -4.98792 0
M  V30 3872 C 370.809 -0.247661 -5.21712 0
M  V30 3873 H 372.503 -0.419082 -2.96452 0
M  V30 3874 H 370.049 -0.202988 -1.42562 0
M  V30 3875 H 372.002 1.88048 -3.77115 0
M  V30 3876 H 370.726 2.05253 -2.54045 0
M  V30 3877 H 369.385 0.23653 -3.65836 0
M  V30 3878 H 369.033 2.63154 -4.28671 0
M  V30 3879 H 368.733 1.54785 -5.66847 0
M  V30 3880 H 370.257 2.4762 -5.58137 0
M  V30 3881 H 371.671 0.209579 -5.72917 0
M  V30 3882 H 370.068 -0.541962 -5.97648 0
M  V30 3883 H 371.138 -1.16409 -4.7072 0
M  V30 3884 N 372.481 1.55866 -0.233164 0
M  V30 3885 C 373.711 2.02704 0.399325 0
M  V30 3886 C 374.119 1.11204 1.53069 0
M  V30 3887 O 373.462 0.116182 1.83332 0
M  V30 3888 C 373.524 3.45844 0.981429 0
M  V30 3889 C 373.188 4.56997 -0.0159561 0
M  V30 3890 C 374.185 5.13384 -0.820552 0
M  V30 3891 C 371.87 5.0211 -0.138072 0
M  V30 3892 C 373.864 6.13365 -1.73386 0
M  V30 3893 C 371.551 6.01926 -1.0549 0
M  V30 3894 C 372.549 6.57431 -1.85132 0
M  V30 3895 O 372.237 7.55302 -2.75272 0
M  V30 3896 H 371.969 0.668459 0.100692 0
M  V30 3897 H 374.523 2.02387 -0.35052 0
M  V30 3898 H 372.753 3.43267 1.78058 0
M  V30 3899 H 374.442 3.76262 1.52255 0
M  V30 3900 H 375.208 4.79372 -0.736721 0
M  V30 3901 H 371.087 4.5858 0.471737 0
M  V30 3902 H 374.631 6.56614 -2.35592 0
M  V30 3903 H 370.528 6.35359 -1.1397 0
M  V30 3904 H 371.296 7.72867 -2.69477 0
M  V30 3905 N 373.959 -0.0401083 1.57549 0
M  V30 3906 C 374.906 -1.04413 2.05831 0
M  V30 3907 C 375.876 -1.36585 0.945184 0
M  V30 3908 O 377.061 -1.47112 1.21502 0
M  V30 3909 C 374.201 -2.34336 2.53339 0
M  V30 3910 C 373.314 -2.08419 3.78398 0
M  V30 3911 C 372.449 -3.32133 4.14561 0
M  V30 3912 C 371.488 -3.01721 5.3257 0
M  V30 3913 N 370.625 -4.17855 5.64218 0
M  V30 3914 H 375.465 -0.625442 2.91363 0
M  V30 3915 H 373.002 -0.297218 1.44066 0
M  V30 3916 H 374.96 -3.10234 2.78946 0
M  V30 3917 H 373.59 -2.73948 1.7074 0
M  V30 3918 H 372.642 -1.23069 3.59942 0
M  V30 3919 H 373.954 -1.81978 4.64419 0
M  V30 3920 H 373.108 -4.16406 4.41238 0
M  V30 3921 H 371.847 -3.61678 3.2717 0
M  V30 3922 H 370.852 -2.15849 5.05657 0
M  V30 3923 H 372.077 -2.73466 6.21605 0
M  V30 3924 H 370.023 -4.47372 4.79786 0
M  V30 3925 H 369.94 -3.94798 6.44725 0
M  V30 3926 H 371.208 -5.03033 5.95465 0
M  V30 3927 N 375.437 -1.54477 -0.31217 0
M  V30 3928 C 376.367 -1.87652 -1.38957 0
M  V30 3929 C 377.348 -0.734358 -1.53431 0
M  V30 3930 O 378.533 -0.98911 -1.67123 0
M  V30 3931 C 375.663 -2.11396 -2.75552 0
M  V30 3932 C 374.617 -3.27243 -2.75855 0
M  V30 3933 C 373.943 -3.36382 -4.15633 0
M  V30 3934 C 375.243 -4.64622 -2.38587 0
M  V30 3935 H 376.937 -2.77887 -1.11442 0
M  V30 3936 H 374.483 -1.33707 -0.534655 0
M  V30 3937 H 376.436 -2.33189 -3.51 0
M  V30 3938 H 375.16 -1.17921 -3.04569 0
M  V30 3939 H 373.819 -3.05356 -2.02863 0
M  V30 3940 H 373.467 -2.40445 -4.41809 0
M  V30 3941 H 373.167 -4.14249 -4.1674 0
M  V30 3942 H 374.691 -3.60422 -4.92877 0
M  V30 3943 H 376.105 -4.86219 -3.03749 0
M  V30 3944 H 374.502 -5.45121 -2.50925 0
M  V30 3945 H 375.572 -4.66097 -1.33723 0
M  V30 3946 N 376.915 0.57481 -1.46744 0
M  V30 3947 C 378.155 1.34369 -1.54027 0
M  V30 3948 C 378.519 1.91051 -0.190642 0
M  V30 3949 O 379.72 2.68444 -0.138255 0
M  V30 3950 C 377.991 2.43706 -2.61423 0
M  V30 3951 S 379.55 3.30915 -2.88167 0
M  V30 3952 H 376.368 0.45768 -0.544105 0
M  V30 3953 H 378.97 0.659959 -1.84024 0
M  V30 3954 H 377.674 2.0047 -3.58106 0
M  V30 3955 H 377.205 3.16842 -2.33184 0
M  V30 3956 H 379.22 4.42742 -2.24039 0
M  V30 3957 N 378.394 1.34581 0.820102 0
M  V30 3958 C 379.624 1.29991 1.6058 0
M  V30 3959 C 380.032 -0.127588 1.88769 0
M  V30 3960 O 379.375 -1.08595 1.48165 0
M  V30 3961 C 379.437 2.02548 2.9701 0
M  V30 3962 C 379.101 3.51794 2.91701 0
M  V30 3963 C 380.098 4.46647 2.66087 0
M  V30 3964 C 377.783 3.94249 3.11245 0
M  V30 3965 C 379.777 5.81929 2.60071 0
M  V30 3966 C 377.464 5.2963 3.04853 0
M  V30 3967 C 378.462 6.23282 2.793 0
M  V30 3968 O 378.15 7.56181 2.72847 0
M  V30 3969 H 377.882 0.448539 0.505756 0
M  V30 3970 H 380.436 1.77811 1.02822 0
M  V30 3971 H 378.666 1.49345 3.56697 0
M  V30 3972 H 380.355 1.91211 3.58041 0
M  V30 3973 H 381.121 4.15168 2.5072 0
M  V30 3974 H 377 3.21749 3.30149 0
M  V30 3975 H 380.544 6.54999 2.40046 0
M  V30 3976 H 376.441 5.60727 3.19774 0
M  V30 3977 H 377.209 7.6595 2.88553 0
M  V30 3978 N 379.872 -1.04064 1.18357 0
M  V30 3979 C 381.119 -1.77265 0.978947 0
M  V30 3980 C 381.447 -1.88189 -0.491428 0
M  V30 3981 O 380.702 -1.38653 -1.38108 0
M  V30 3982 C 381.001 -3.20634 1.57888 0
M  V30 3983 C 380.667 -3.29743 3.07539 0
M  V30 3984 C 379.329 -3.31937 3.48384 0
M  V30 3985 C 381.681 -3.29841 4.03552 0
M  V30 3986 C 379.009 -3.3187 4.83818 0
M  V30 3987 C 381.361 -3.31313 5.38901 0
M  V30 3988 C 380.025 -3.31799 5.79194 0
M  V30 3989 H 379.295 -0.648659 0.358222 0
M  V30 3990 H 381.942 -1.22225 1.47422 0
M  V30 3991 H 380.247 -3.78675 1.00561 0
M  V30 3992 H 381.944 -3.75917 1.39598 0
M  V30 3993 H 378.534 -3.28757 2.74986 0
M  V30 3994 H 382.718 -3.27337 3.73047 0
M  V30 3995 H 377.974 -3.30562 5.14333 0
M  V30 3996 H 382.148 -3.30338 6.13066 0
M  V30 3997 H 379.775 -3.315 6.84114 0
M  V30 3998 N 381.35 -0.985608 -1.22978 0
M  V30 3999 C 382.578 -0.675582 -1.95559 0
M  V30 4000 C 382.993 0.758413 -1.72897 0
M  V30 4001 O 382.35 1.51094 -1.02357 0
M  V30 4002 C 382.401 -0.96293 -3.48439 0
M  V30 4003 O 382.122 -2.34057 -3.70336 0
M  V30 4004 C 383.623 -0.669585 -4.38214 0
M  V30 4005 H 380.843 -0.250523 -0.622478 0
M  V30 4006 H 383.387 -1.3184 -1.56328 0
M  V30 4007 H 381.542 -0.366033 -3.85667 0
M  V30 4008 H 381.956 -2.43424 -4.64591 0
M  V30 4009 H 383.43 -0.920967 -5.44263 0
M  V30 4010 H 383.907 0.396383 -4.37408 0
M  V30 4011 H 384.513 -1.2472 -4.06602 0
M  V30 4012 N 382.828 1.3818 -0.7579 0
M  V30 4013 C 383.758 2.33027 -0.148597 0
M  V30 4014 C 384.739 1.55085 0.69875 0
M  V30 4015 O 385.924 1.83384 0.639053 0
M  V30 4016 C 383.054 3.3928 0.742034 0
M  V30 4017 C 382.008 4.28 -0.00291946 0
M  V30 4018 C 381.334 5.25146 1.00625 0
M  V30 4019 C 382.634 5.08938 -1.17385 0
M  V30 4020 H 384.328 2.84231 -0.940909 0
M  V30 4021 H 381.874 1.36659 -0.453908 0
M  V30 4022 H 383.827 4.046 1.17799 0
M  V30 4023 H 382.551 2.86569 1.56671 0
M  V30 4024 H 381.21 3.64192 -0.419504 0
M  V30 4025 H 380.858 4.68721 1.8251 0
M  V30 4026 H 380.558 5.85361 0.512428 0
M  V30 4027 H 382.082 5.93342 1.44143 0
M  V30 4028 H 383.496 5.67474 -0.815224 0
M  V30 4029 H 381.893 5.7841 -1.59882 0
M  V30 4030 H 382.963 4.42424 -1.98468 0
M  V30 4031 N 384.306 0.507319 1.49211 0
M  V30 4032 C 385.717 0.0611118 1.866 0
M  V30 4033 C 386.068 -1.35488 1.41907 0
M  V30 4034 O 385.193 -2.0108 0.799726 0
M  V30 4035 C 385.788 0.104125 3.3864 0
M  V30 4036 C 384.347 -0.28677 3.75306 0
M  V30 4037 C 383.494 0.473893 2.73221 0
M  V30 4038 H 386.445 0.719775 1.41439 0
M  V30 4039 H 386.466 -0.689672 3.74198 0
M  V30 4040 H 385.978 1.13482 3.71138 0
M  V30 4041 H 384.079 -1.32046 3.48417 0
M  V30 4042 H 384.192 0.0370745 4.79086 0
M  V30 4043 H 382.556 -0.0770644 2.54583 0
M  V30 4044 H 383.339 1.50478 3.08563 0
M  V30 4045 N 385.784 -1.5574 0.241426 0
M  V30 4046 C 387.031 -1.9881 -0.384836 0
M  V30 4047 C 387.359 -1.12947 -1.58346 0
M  V30 4048 O 386.614 -0.178993 -1.9488 0
M  V30 4049 C 386.913 -3.47308 -0.843317 0
M  V30 4050 C 386.579 -4.50223 0.246946 0
M  V30 4051 C 385.241 -4.78088 0.546399 0
M  V30 4052 C 387.593 -5.11841 0.983282 0
M  V30 4053 C 384.921 -5.64846 1.58636 0
M  V30 4054 C 387.273 -5.99727 2.01272 0
M  V30 4055 C 385.937 -6.25927 2.31888 0
M  V30 4056 H 385.207 -0.727496 -0.140821 0
M  V30 4057 H 387.854 -1.8831 0.348106 0
M  V30 4058 H 386.159 -3.55112 -1.65537 0
M  V30 4059 H 387.856 -3.78017 -1.33806 0
M  V30 4060 H 384.446 -4.286 0.00340639 0
M  V30 4061 H 388.63 -4.90366 0.765182 0
M  V30 4062 H 383.886 -5.83403 1.82896 0
M  V30 4063 H 388.06 -6.46517 2.58823 0
M  V30 4064 H 385.687 -6.92949 3.12611 0
M  V30 4065 N 387.262 0.0317525 -1.57568 0
M  V30 4066 C 388.51 0.721676 -1.88776 0
M  V30 4067 C 388.831 1.76039 -0.838772 0
M  V30 4068 O 388.101 1.95482 0.127935 0
M  V30 4069 H 386.681 0.269534 -0.696678 0
M  V30 4070 H 389.343 -0.00165879 -1.949 0
M  V30 4071 H 388.439 1.21293 -2.87566 0
M  V30 4072 N 388.74 1.54641 0.303973 0
M  V30 4073 C 389.65 1.88439 1.39743 0
M  V30 4074 C 390.666 0.778239 1.55626 0
M  V30 4075 O 391.842 1.07442 1.70347 0
M  V30 4076 C 388.907 2.12212 2.74166 0
M  V30 4077 C 387.968 3.35936 2.67293 0
M  V30 4078 C 387.201 3.58566 3.95305 0
M  V30 4079 O 387.424 2.84263 4.9452 0
M  V30 4080 O 386.358 4.52078 3.97378 0
M  V30 4081 H 390.184 2.81458 1.14083 0
M  V30 4082 H 387.769 1.40793 0.499768 0
M  V30 4083 H 389.651 2.29067 3.53704 0
M  V30 4084 H 388.326 1.22379 2.99675 0
M  V30 4085 H 387.233 3.24448 1.86237 0
M  V30 4086 H 388.566 4.2589 2.46736 0
M  V30 4087 N 390.218 -0.567019 1.47046 0
M  V30 4088 C 391.443 -1.3551 1.57009 0
M  V30 4089 C 391.868 -1.86841 0.217259 0
M  V30 4090 O 391.226 -1.62435 -0.805268 0
M  V30 4091 C 391.274 -2.50777 2.5912 0
M  V30 4092 O 390.378 -3.52706 2.13711 0
M  V30 4093 H 389.719 -0.402919 0.52778 0
M  V30 4094 H 392.249 -0.686241 1.92748 0
M  V30 4095 H 392.259 -2.97481 2.79229 0
M  V30 4096 H 390.934 -2.12771 3.57353 0
M  V30 4097 H 389.511 -3.12374 2.03659 0
M  V30 4098 N 391.696 -1.35014 -0.812953 0
M  V30 4099 C 392.628 -1.23262 -1.93233 0
M  V30 4100 C 393.641 -0.157371 -1.62038 0
M  V30 4101 O 394.83 -0.410096 -1.73725 0
M  V30 4102 C 391.93 -0.87392 -3.27438 0
M  V30 4103 C 391.103 -2.04622 -3.86586 0
M  V30 4104 C 390.162 -1.66432 -4.99186 0
M  V30 4105 O 389.188 -2.38222 -5.16951 0
M  V30 4106 N 390.39 -0.584248 -5.77552 0
M  V30 4107 H 393.155 -2.19699 -2.03844 0
M  V30 4108 H 390.716 -1.281 -0.99005 0
M  V30 4109 H 392.708 -0.600039 -4.00227 0
M  V30 4110 H 391.278 0.00057392 -3.126 0
M  V30 4111 H 390.498 -2.48427 -3.06068 0
M  V30 4112 H 391.786 -2.82999 -4.22835 0
M  V30 4113 H 391.184 0.0123526 -5.65699 0
M  V30 4114 H 389.741 -0.37013 -6.50748 0
M  V30 4115 N 393.175 1.03435 -1.18907 0
M  V30 4116 C 394.421 1.77005 -0.989798 0
M  V30 4117 C 394.754 1.88205 0.478816 0
M  V30 4118 O 394.029 1.39481 1.35556 0
M  V30 4119 C 394.312 3.19925 -1.65287 0
M  V30 4120 C 394.165 3.1663 -3.19477 0
M  V30 4121 C 395.484 4.18189 -1.37134 0
M  V30 4122 H 392.603 0.642538 -0.360991 0
M  V30 4123 H 395.245 1.20784 -1.46667 0
M  V30 4124 H 393.395 3.67929 -1.24741 0
M  V30 4125 H 395.067 2.76567 -3.692 0
M  V30 4126 H 393.31 2.54491 -3.51307 0
M  V30 4127 H 393.981 4.1758 -3.61013 0
M  V30 4128 H 396.457 3.78761 -1.72276 0
M  V30 4129 H 395.333 5.16394 -1.86087 0
M  V30 4130 H 395.594 4.41112 -0.295424 0
M  V30 4131 N 394.653 0.992116 1.22453 0
M  V30 4132 C 395.616 0.546883 2.2258 0
M  V30 4133 C 396.616 -0.369829 1.56489 0
M  V30 4134 O 397.806 -0.161896 1.73446 0
M  V30 4135 C 394.938 -0.204659 3.40285 0
M  V30 4136 H 396.131 1.43234 2.63484 0
M  V30 4137 H 393.684 0.779239 1.3549 0
M  V30 4138 H 394.419 -1.10614 3.04853 0
M  V30 4139 H 394.204 0.45354 3.89468 0
M  V30 4140 H 395.694 -0.504358 4.14543 0
M  V30 4141 N 396.131 -1.37776 0.765217 0
M  V30 4142 C 397.38 -1.99092 0.323307 0
M  V30 4143 C 397.693 -1.61434 -1.10446 0
M  V30 4144 O 398.899 -2.15805 -1.64743 0
M  V30 4145 C 397.355 -3.56019 0.527098 0
M  V30 4146 C 396.963 -4.0262 1.96471 0
M  V30 4147 C 398.707 -4.2424 0.148483 0
M  V30 4148 C 396.614 -5.52233 2.11644 0
M  V30 4149 H 395.544 -0.744846 0.117137 0
M  V30 4150 H 398.195 -1.57391 0.943417 0
M  V30 4151 H 396.577 -3.95667 -0.162372 0
M  V30 4152 H 397.751 -3.74234 2.68859 0
M  V30 4153 H 396.066 -3.47161 2.29931 0
M  V30 4154 H 398.663 -5.34159 0.240456 0
M  V30 4155 H 399.006 -4.06446 -0.900422 0
M  V30 4156 H 399.539 -3.89872 0.79025 0
M  V30 4157 H 396.278 -5.74945 3.1483 0
M  V30 4158 H 395.798 -5.82324 1.4373 0
M  V30 4159 H 397.477 -6.18106 1.91193 0
M  V30 4160 N 397.609 -0.515225 -1.4894 0
M  V30 4161 C 398.849 0.0223983 -2.04388 0
M  V30 4162 C 399.213 1.32961 -1.38511 0
M  V30 4163 O 400.414 1.95236 -1.8476 0
M  V30 4164 C 398.685 0.157056 -3.57055 0
M  V30 4165 S 400.244 0.646875 -4.34006 0
M  V30 4166 H 397.062 -0.00500662 -0.710982 0
M  V30 4167 H 399.664 -0.69243 -1.82827 0
M  V30 4168 H 398.368 -0.799412 -4.02539 0
M  V30 4169 H 397.899 0.896704 -3.83044 0
M  V30 4170 H 399.914 1.91381 -4.57808 0
M  V30 4171 N 399.087 1.5561 -0.249682 0
M  V30 4172 C 400.364 1.90932 0.424761 0
M  V30 4173 C 400.744 1.17078 1.75658 0
M  V30 4174 O 400.092 0.289176 2.26663 0
M  V30 4175 C 400.302 3.43975 0.590109 0
M  V30 4176 C 401.65 4.15281 0.884714 0
M  V30 4177 O 402.674 3.49729 0.67587 0
M  V30 4178 O 401.533 5.31236 1.28259 0
M  V30 4179 H 398.627 0.794815 0.228468 0
M  V30 4180 H 401.173 1.67135 -0.293954 0
M  V30 4181 H 399.945 3.89748 -0.34818 0
M  V30 4182 H 399.568 3.73644 1.35926 0
M  V30 4183 N 400.565 -0.0233959 1.57583 0
M  V30 4184 C 401.813 -0.711654 1.89156 0
M  V30 4185 C 402.134 -1.75591 0.848096 0
M  V30 4186 O 401.404 -1.95547 -0.117566 0
M  V30 4187 H 399.984 -0.265835 0.698098 0
M  V30 4188 H 402.646 0.0119948 1.94896 0
M  V30 4189 H 401.742 -1.19766 2.88206 0
M  V30 4190 N 402.043 -1.548 -0.295768 0
M  V30 4191 C 402.991 -1.86874 -1.38495 0
M  V30 4192 C 403.985 -0.742938 -1.52239 0
M  V30 4193 O 405.191 -0.926999 -1.54294 0
M  V30 4194 H 401.566 -0.592786 -0.462719 0
M  V30 4195 H 403.537 -2.77904 -1.08682 0
M  V30 4196 C 402.286 -2.13732 -2.74252 0
M  V30 4197 H 401.609 -2.99835 -2.64459 0
M  V30 4198 H 403.049 -2.4011 -3.49461 0
M  V30 4199 C 401.508 -0.937539 -3.23592 0
M  V30 4200 O 402.038 -0.160665 -4.01379 0
M  V30 4201 N 400.244 -0.741478 -2.80981 0
M  V30 4202 H 399.791 -1.37489 -2.1784 0
M  V30 4203 H 399.749 0.0597103 -3.14343 0
M  V30 4204 N 403.521 0.559213 -1.47345 0
M  V30 4205 C 404.768 1.31648 -1.53867 0
M  V30 4206 C 405.096 1.93468 -0.200104 0
M  V30 4207 O 404.351 1.78295 0.806799 0
M  V30 4208 C 404.65 2.44853 -2.6035 0
M  V30 4209 C 404.316 2.00876 -4.03683 0
M  V30 4210 C 402.978 1.88599 -4.42701 0
M  V30 4211 C 405.33 1.67279 -4.93626 0
M  V30 4212 C 402.658 1.41017 -5.69501 0
M  V30 4213 C 405.01 1.21169 -6.20887 0
M  V30 4214 C 403.674 1.07487 -6.58789 0
M  V30 4215 H 402.944 0.481734 -0.56304 0
M  V30 4216 H 405.591 0.627301 -1.80934 0
M  V30 4217 H 403.896 3.19318 -2.27032 0
M  V30 4218 H 405.593 3.03039 -2.62619 0
M  V30 4219 H 402.183 2.11374 -3.72853 0
M  V30 4220 H 406.367 1.75638 -4.64182 0
M  V30 4221 H 401.623 1.29086 -5.97618 0
M  V30 4222 H 405.797 0.942345 -6.89995 0
M  V30 4223 H 403.424 0.703946 -7.56934 0
M  V30 4224 N 404.999 1.35443 0.805782 0
M  V30 4225 C 406.227 1.31878 1.59423 0
M  V30 4226 C 406.642 -0.103562 1.88516 0
M  V30 4227 O 405.999 -1.05575 1.48863 0
M  V30 4228 C 406.05 2.12426 2.92502 0
M  V30 4229 O 405.771 3.49115 2.6467 0
M  V30 4230 C 407.272 2.16455 3.86862 0
M  V30 4231 H 404.492 0.453002 0.495005 0
M  V30 4232 H 407.036 1.78309 1.00131 0
M  V30 4233 H 405.191 1.69593 3.48306 0
M  V30 4234 H 405.605 3.90957 3.49647 0
M  V30 4235 H 407.079 2.77204 4.77349 0
M  V30 4236 H 407.556 1.16352 4.23508 0
M  V30 4237 H 408.162 2.59453 3.36993 0
M  V30 4238 N 406.477 -1.02803 1.19454 0
M  V30 4239 C 407.726 -1.7562 0.991996 0
M  V30 4240 C 408.039 -1.89672 -0.477901 0
M  V30 4241 O 409.245 -2.59468 -0.799287 0
M  V30 4242 C 407.701 -3.15812 1.72601 0
M  V30 4243 C 407.309 -3.0981 3.23607 0
M  V30 4244 C 409.053 -3.92918 1.60674 0
M  V30 4245 C 406.96 -4.44939 3.89594 0
M  V30 4246 H 405.89 -0.658352 0.367543 0
M  V30 4247 H 408.541 -1.15044 1.42959 0
M  V30 4248 H 406.923 -3.7686 1.21624 0
M  V30 4249 H 408.097 -2.58138 3.81709 0
M  V30 4250 H 406.412 -2.46201 3.35819 0
M  V30 4251 H 409.009 -4.9287 2.07323 0
M  V30 4252 H 409.352 -4.12502 0.561025 0
M  V30 4253 H 409.885 -3.38472 2.09001 0
M  V30 4254 H 406.624 -4.30559 4.94267 0
M  V30 4255 H 406.144 -4.96664 3.36281 0
M  V30 4256 H 407.823 -5.1382 3.93189 0
M  V30 4257 N 407.956 -0.998596 -1.21925 0
M  V30 4258 C 409.367 -0.711939 -1.72593 0
M  V30 4259 C 409.718 0.770842 -1.80423 0
M  V30 4260 O 408.843 1.60237 -1.4544 0
M  V30 4261 C 409.438 -1.28567 -3.13458 0
M  V30 4262 C 407.997 -1.04828 -3.61508 0
M  V30 4263 C 407.144 -1.4024 -2.39224 0
M  V30 4264 H 410.095 -1.17027 -1.07193 0
M  V30 4265 H 410.116 -0.667098 -3.74607 0
M  V30 4266 H 409.628 -2.36486 -3.07727 0
M  V30 4267 H 407.729 0.0140383 -3.72597 0
M  V30 4268 H 407.842 -1.71566 -4.47328 0
M  V30 4269 H 406.206 -0.821077 -2.41103 0
M  V30 4270 H 406.989 -2.49176 -2.36149 0
M  V30 4271 N 409.434 1.37368 -0.772513 0
M  V30 4272 C 410.711 1.93839 -0.26188 0
M  V30 4273 C 411.091 1.7061 1.24319 0
M  V30 4274 O 410.439 1.05534 2.02669 0
M  V30 4275 C 410.649 3.43154 -0.636102 0
M  V30 4276 C 411.997 4.20249 -0.606324 0
M  V30 4277 O 413.021 3.5152 -0.575538 0
M  V30 4278 O 411.88 5.42809 -0.634086 0
M  V30 4279 H 408.974 0.82478 -0.0605555 0
M  V30 4280 H 411.52 1.4665 -0.853917 0
M  V30 4281 H 410.292 3.53647 -1.6748 0
M  V30 4282 H 409.915 3.97596 -0.0170516 0
M  V30 4283 N 410.912 0.523116 1.48665 0
M  V30 4284 C 411.86 -0.256859 2.31177 0
M  V30 4285 C 412.854 -0.94199 1.40794 0
M  V30 4286 O 414.06 -0.867157 1.57735 0
M  V30 4287 H 410.435 -0.1017 0.745091 0
M  V30 4288 H 412.406 0.458739 2.94853 0
M  V30 4289 C 411.155 -1.29503 3.22683 0
M  V30 4290 H 410.478 -0.777248 3.92172 0
M  V30 4291 H 411.918 -1.81233 3.83315 0
M  V30 4292 C 410.377 -2.32501 2.43813 0
M  V30 4293 O 410.907 -3.3881 2.15803 0
M  V30 4294 N 409.113 -2.05538 2.05432 0
M  V30 4295 H 408.66 -1.19104 2.28412 0
M  V30 4296 H 408.618 -2.74676 1.52973 0
M  V30 4297 N 412.39 -1.55475 0.257931 0
M  V30 4298 C 413.615 -2.04064 -0.370488 0
M  V30 4299 C 414.04 -1.13565 -1.49948 0
M  V30 4300 O 413.398 -0.130781 -1.80828 0
M  V30 4301 C 413.446 -3.50554 -0.845237 0
M  V30 4302 O 412.55 -3.63173 -1.95394 0
M  V30 4303 H 411.891 -0.659257 -0.0792243 0
M  V30 4304 H 414.421 -2.00903 0.387212 0
M  V30 4305 H 414.431 -3.91588 -1.14555 0
M  V30 4306 H 413.106 -4.15896 -0.0191259 0
M  V30 4307 H 411.683 -3.34039 -1.65748 0
M  V30 4308 N 413.868 0.0150385 -1.57593 0
M  V30 4309 C 415.284 0.370907 -1.5523 0
M  V30 4310 C 415.484 1.75735 -0.985882 0
M  V30 4311 O 414.54 2.44944 -0.613077 0
M  V30 4312 C 415.853 0.259908 -2.99575 0
M  V30 4313 C 417.401 0.335959 -3.11192 0
M  V30 4314 C 417.876 0.254253 -4.57294 0
M  V30 4315 N 419.367 0.312618 -4.62144 0
M  V30 4316 C 420.102 0.272505 -5.72752 0
M  V30 4317 N 419.598 0.183864 -6.92556 0
M  V30 4318 N 421.391 0.323267 -5.6117 0
M  V30 4319 H 413.542 -0.892104 -1.92757 0
M  V30 4320 H 415.805 -0.340563 -0.884715 0
M  V30 4321 H 415.511 -0.693403 -3.44797 0
M  V30 4322 H 415.385 1.048 -3.62349 0
M  V30 4323 H 417.772 1.27971 -2.65909 0
M  V30 4324 H 417.853 -0.481739 -2.51223 0
M  V30 4325 H 417.497 -0.685887 -5.03247 0
M  V30 4326 H 417.427 1.09024 -5.15191 0
M  V30 4327 H 419.918 0.38307 -3.75953 0
M  V30 4328 H 420.231 0.15874 -7.72637 0
M  V30 4329 H 418.576 0.149708 -6.94839 0
M  V30 4330 H 421.767 0.390607 -4.66467 0
M  V30 4331 H 421.94 0.288539 -6.47357 0
M  V30 4332 N 415.346 1.54954 0.287554 0
M  V30 4333 C 416.576 1.78622 1.03816 0
M  V30 4334 C 416.984 0.552451 1.80955 0
M  V30 4335 O 416.327 -0.487665 1.77109 0
M  V30 4336 C 416.389 2.94975 2.055 0
M  V30 4337 C 416.053 4.32565 1.47433 0
M  V30 4338 C 417.05 5.12096 0.897436 0
M  V30 4339 C 414.735 4.79195 1.50591 0
M  V30 4340 C 416.729 6.36383 0.359851 0
M  V30 4341 C 414.416 6.03441 0.964459 0
M  V30 4342 C 415.414 6.81872 0.392413 0
M  V30 4343 O 415.102 8.03777 -0.140788 0
M  V30 4344 H 414.834 0.599144 0.313053 0
M  V30 4345 H 417.388 2.02761 0.328225 0
M  V30 4346 H 415.618 2.66493 2.80211 0
M  V30 4347 H 417.307 3.06097 2.6657 0
M  V30 4348 H 418.073 4.77209 0.865841 0
M  V30 4349 H 413.952 4.18167 1.94055 0
M  V30 4350 H 417.496 6.97545 -0.0872951 0
M  V30 4351 H 413.393 6.37813 0.993246 0
M  V30 4352 H 414.161 8.18495 -0.0287617 0
M  V30 4353 N 416.824 -0.551391 1.4764 0
M  V30 4354 C 418.049 -1.33837 1.58437 0
M  V30 4355 C 418.474 -1.866 0.237063 0
M  V30 4356 O 417.832 -1.6328 -0.787994 0
M  V30 4357 C 417.88 -2.48014 2.61766 0
M  V30 4358 O 416.984 -3.50419 2.1744 0
M  V30 4359 H 416.325 -0.397299 0.532024 0
M  V30 4360 H 418.855 -0.665759 1.93465 0
M  V30 4361 H 418.865 -2.94503 2.82369 0
M  V30 4362 H 417.54 -2.08969 3.5959 0
M  V30 4363 H 416.117 -3.10196 2.06961 0
M  V30 4364 N 418.302 -1.35869 -0.798587 0
M  V30 4365 C 419.234 -1.25305 -1.91915 0
M  V30 4366 C 420.247 -0.174548 -1.61862 0
M  V30 4367 O 421.436 -0.428499 -1.73281 0
M  V30 4368 C 418.536 -0.9086 -3.26493 0
M  V30 4369 C 417.709 -2.08711 -3.84394 0
M  V30 4370 C 416.768 -1.71717 -4.97393 0
M  V30 4371 O 415.794 -2.43692 -5.14396 0
M  V30 4372 N 416.996 -0.645473 -5.769 0
M  V30 4373 H 419.761 -2.21849 -2.01502 0
M  V30 4374 H 417.322 -1.29143 -0.976408 0
M  V30 4375 H 419.314 -0.642455 -3.99568 0
M  V30 4376 H 417.884 -0.0325815 -3.12583 0
M  V30 4377 H 417.104 -2.51659 -3.03416 0
M  V30 4378 H 418.392 -2.87468 -4.19809 0
M  V30 4379 H 417.79 -0.047648 -5.6568 0
M  V30 4380 H 416.347 -0.43913 -6.50319 0
M  V30 4381 N 419.78 1.02168 -1.19998 0
M  V30 4382 C 421.057 1.72816 -0.916191 0
M  V30 4383 C 421.437 2.03081 0.576325 0
M  V30 4384 O 420.785 1.69122 1.53656 0
M  V30 4385 C 420.995 2.9997 -1.78378 0
M  V30 4386 C 422.343 3.73336 -2.02251 0
M  V30 4387 O 423.367 3.09914 -1.75589 0
M  V30 4388 O 422.226 4.87371 -2.47249 0
M  V30 4389 H 419.32 0.752924 -0.342103 0
M  V30 4390 H 421.866 1.08062 -1.30846 0
M  V30 4391 H 420.638 2.73888 -2.79466 0
M  V30 4392 H 420.261 3.72464 -1.39126 0
M  V30 4393 N 421.258 1.00505 1.21394 0
M  V30 4394 C 422.191 0.51032 2.22421 0
M  V30 4395 C 423.169 -0.436 1.56645 0
M  V30 4396 O 424.353 -0.358709 1.85055 0
M  V30 4397 C 421.48 -0.258733 3.3771 0
M  V30 4398 C 420.526 0.635395 4.2174 0
M  V30 4399 S 421.359 2.09783 4.92698 0
M  V30 4400 C 422.515 1.33862 6.11418 0
M  V30 4401 H 422.748 1.36637 2.64041 0
M  V30 4402 H 420.281 0.812991 1.31262 0
M  V30 4403 H 422.239 -0.696372 4.0455 0
M  V30 4404 H 420.9 -1.0902 2.94573 0
M  V30 4405 H 420.093 0.0430189 5.03982 0
M  V30 4406 H 419.695 1.01031 3.60095 0
M  V30 4407 H 421.987 0.612541 6.74725 0
M  V30 4408 H 422.93 2.13675 6.75092 0
M  V30 4409 H 423.338 0.846568 5.58116 0
M  V30 4410 N 422.737 -1.36956 0.779787 0
M  V30 4411 C 423.687 -2.27539 0.144892 0
M  V30 4412 C 424.671 -1.46493 -0.665488 0
M  V30 4413 O 425.863 -1.68968 -0.527141 0
M  V30 4414 C 422.992 -3.35512 -0.727082 0
M  V30 4415 C 422.078 -4.24001 0.0915642 0
M  V30 4416 N 422.469 -4.92757 1.14125 0
M  V30 4417 C 420.767 -4.45807 -0.131141 0
M  V30 4418 C 421.468 -5.58138 1.6388 0
M  V30 4419 N 420.444 -5.35241 0.94962 0
M  V30 4420 H 424.246 -2.78176 0.948446 0
M  V30 4421 H 421.76 -1.50169 0.618315 0
M  V30 4422 H 423.757 -3.99324 -1.19776 0
M  V30 4423 H 422.417 -2.86431 -1.52929 0
M  V30 4424 H 423.428 -4.94984 1.52353 0
M  V30 4425 H 420.105 -4.07582 -0.904621 0
M  V30 4426 H 421.495 -6.23071 2.51461 0
M  V30 4427 N 424.215 -0.530993 -1.48385 0
M  V30 4428 C 425.455 0.000718982 -2.044 0
M  V30 4429 C 425.819 1.31485 -1.39913 0
M  V30 4430 O 427.02 1.93265 -1.86821 0
M  V30 4431 C 425.291 0.119177 -3.57201 0
M  V30 4432 S 426.85 0.600806 -4.34667 0
M  V30 4433 H 423.668 -0.0125473 -0.710889 0
M  V30 4434 H 426.27 -0.711783 -1.82082 0
M  V30 4435 H 424.974 -0.842061 -4.01668 0
M  V30 4436 H 424.505 0.856026 -3.83974 0
M  V30 4437 H 426.52 1.86514 -4.59812 0
M  V30 4438 N 425.693 1.55336 -0.266172 0
M  V30 4439 C 426.623 2.25146 0.618981 0
M  V30 4440 C 427.604 1.23845 1.16604 0
M  V30 4441 O 428.789 1.52544 1.20183 0
M  V30 4442 C 425.919 2.96572 1.80728 0
M  V30 4443 C 424.873 4.04726 1.39215 0
M  V30 4444 C 424.199 4.63678 2.66283 0
M  V30 4445 C 425.499 5.19407 0.548942 0
M  V30 4446 H 427.193 2.99377 0.0368116 0
M  V30 4447 H 424.739 1.43991 0.0162651 0
M  V30 4448 H 426.692 3.44116 2.43232 0
M  V30 4449 H 425.416 2.19861 2.41514 0
M  V30 4450 H 424.075 3.57979 0.790351 0
M  V30 4451 H 423.723 3.83646 3.25308 0
M  V30 4452 H 423.423 5.367 2.39222 0
M  V30 4453 H 424.947 5.13967 3.29651 0
M  V30 4454 H 426.361 5.63059 1.07876 0
M  V30 4455 H 424.758 5.98936 0.373593 0
M  V30 4456 H 425.828 4.8295 -0.434394 0
M  V30 4457 N 427.171 -0.0066808 1.57599 0
M  V30 4458 C 428.42 -0.692078 1.89455 0
M  V30 4459 C 428.733 -1.75306 0.867586 0
M  V30 4460 O 429.939 -2.49262 1.07614 0
M  V30 4461 C 428.395 -1.2821 3.36289 0
M  V30 4462 C 428.003 -0.256291 4.47266 0
M  V30 4463 C 429.747 -1.94608 3.77264 0
M  V30 4464 C 427.654 -0.855927 5.85173 0
M  V30 4465 H 426.584 -0.262252 0.706923 0
M  V30 4466 H 429.235 0.052769 1.83424 0
M  V30 4467 H 427.617 -2.0774 3.37135 0
M  V30 4468 H 428.791 0.513923 4.57925 0
M  V30 4469 H 427.106 0.306862 4.15268 0
M  V30 4470 H 429.703 -2.40364 4.77629 0
M  V30 4471 H 430.046 -2.77382 3.10427 0
M  V30 4472 H 430.579 -1.21822 3.78688 0
M  V30 4473 H 427.318 -0.0671161 6.55466 0
M  V30 4474 H 426.838 -1.59546 5.78191 0
M  V30 4475 H 428.517 -1.35658 6.32618 0
M  V30 4476 N 428.649 -1.55105 -0.279332 0
M  V30 4477 C 430.065 -1.46803 -0.626187 0
M  V30 4478 C 430.265 -0.676939 -1.89789 0
M  V30 4479 O 429.321 -0.19326 -2.51759 0
M  V30 4480 C 430.634 -2.90962 -0.759034 0
M  V30 4481 C 432.182 -3.01138 -0.853504 0
M  V30 4482 C 432.657 -4.46539 -1.01818 0
M  V30 4483 N 434.148 -4.50341 -1.08386 0
M  V30 4484 C 434.883 -5.60053 -1.22996 0
M  V30 4485 N 434.379 -6.79645 -1.34366 0
M  V30 4486 N 436.172 -5.47783 -1.26056 0
M  V30 4487 H 428.323 -2.04996 0.555921 0
M  V30 4488 H 430.586 -0.929325 0.187239 0
M  V30 4489 H 430.292 -3.51544 0.104852 0
M  V30 4490 H 430.166 -3.39619 -1.64131 0
M  V30 4491 H 432.553 -2.40658 -1.70786 0
M  V30 4492 H 432.634 -2.55745 0.0532466 0
M  V30 4493 H 432.278 -5.0762 -0.168504 0
M  V30 4494 H 432.208 -4.89583 -1.93948 0
M  V30 4495 H 434.699 -3.64191 -1.00864 0
M  V30 4496 H 435.012 -7.59012 -1.4533 0
M  V30 4497 H 433.357 -6.82469 -1.31382 0
M  V30 4498 H 436.548 -4.53294 -1.168 0
M  V30 4499 H 436.721 -6.33331 -1.37098 0
M  V30 4500 N 430.127 0.543554 -1.4793 0
M  V30 4501 C 431.357 1.32324 -1.58663 0
M  V30 4502 C 431.765 1.8766 -0.240896 0
M  V30 4503 O 431.108 1.66411 0.778011 0
M  V30 4504 C 431.17 2.52094 -2.56299 0
M  V30 4505 C 430.834 2.17944 -4.01683 0
M  V30 4506 C 431.831 1.74422 -4.89768 0
M  V30 4507 C 429.516 2.28884 -4.47121 0
M  V30 4508 C 431.51 1.42287 -6.21316 0
M  V30 4509 C 429.197 1.96361 -5.78693 0
M  V30 4510 C 430.195 1.53132 -6.65612 0
M  V30 4511 O 429.883 1.21029 -7.94737 0
M  V30 4512 H 429.615 0.409174 -0.538101 0
M  V30 4513 H 432.169 0.663887 -1.94375 0
M  V30 4514 H 430.399 3.20965 -2.15681 0
M  V30 4515 H 432.088 3.14165 -2.57012 0
M  V30 4516 H 432.854 1.65452 -4.55907 0
M  V30 4517 H 428.733 2.61488 -3.79664 0
M  V30 4518 H 432.277 1.08472 -6.89115 0
M  V30 4519 H 428.174 2.04967 -6.12094 0
M  V30 4520 H 428.942 1.34543 -8.07366 0
M  V30 4521 N 431.605 1.3629 0.791371 0
M  V30 4522 C 432.538 1.24816 1.9104 0
M  V30 4523 C 433.516 0.132739 1.62057 0
M  V30 4524 O 434.7 0.303527 1.8604 0
M  V30 4525 C 431.827 0.925355 3.25814 0
M  V30 4526 C 430.873 2.05495 3.7373 0
M  V30 4527 S 431.706 3.67255 3.89723 0
M  V30 4528 C 432.862 3.37084 5.27376 0
M  V30 4529 H 433.095 2.19533 2.00481 0
M  V30 4530 H 430.628 1.21684 0.950393 0
M  V30 4531 H 432.586 0.745924 4.03666 0
M  V30 4532 H 431.247 -0.00400098 3.141 0
M  V30 4533 H 430.44 1.7836 4.71385 0
M  V30 4534 H 430.042 2.1935 3.02922 0
M  V30 4535 H 432.334 2.90856 6.1189 0
M  V30 4536 H 433.277 4.33995 5.59512 0
M  V30 4537 H 433.685 2.7248 4.94383 0
M  V30 4538 N 433.083 -1.0153 1.20538 0
M  V30 4539 C 434.013 -2.11972 0.979295 0
M  V30 4540 C 434.994 -1.6985 -0.0921787 0
M  V30 4541 O 436.179 -1.94089 0.0655932 0
M  V30 4542 C 433.309 -3.43201 0.531984 0
M  V30 4543 C 432.263 -3.9907 1.54685 0
M  V30 4544 C 431.589 -5.26082 0.956127 0
M  V30 4545 C 432.889 -4.32313 2.93092 0
M  V30 4546 H 434.583 -2.31143 1.90298 0
M  V30 4547 H 432.129 -1.11079 0.916372 0
M  V30 4548 H 434.082 -4.1985 0.361044 0
M  V30 4549 H 432.806 -3.23792 -0.427327 0
M  V30 4550 H 431.465 -3.2453 1.70517 0
M  V30 4551 H 431.113 -5.02999 -0.0111538 0
M  V30 4552 H 430.813 -5.64426 1.63393 0
M  V30 4553 H 432.337 -6.05386 0.796284 0
M  V30 4554 H 433.751 -4.99845 2.80763 0
M  V30 4555 H 432.148 -4.81774 3.57791 0
M  V30 4556 H 433.218 -3.41025 3.44717 0
M  V30 4557 N 434.561 -1.01147 -1.20859 0
M  V30 4558 C 435.471 -0.58686 -2.27141 0
M  V30 4559 C 436.487 0.373198 -1.69951 0
M  V30 4560 O 437.663 0.235423 -2.00019 0
M  V30 4561 C 434.728 0.0733602 -3.46622 0
M  V30 4562 C 433.789 -0.931995 -4.19061 0
M  V30 4563 C 433.022 -0.303186 -5.32838 0
M  V30 4564 O 433.245 0.898395 -5.63281 0
M  V30 4565 O 432.179 -1.01735 -5.9324 0
M  V30 4566 H 436.005 -1.47155 -2.65667 0
M  V30 4567 H 433.59 -0.780689 -1.2738 0
M  V30 4568 H 435.472 0.442333 -4.19072 0
M  V30 4569 H 434.147 0.932329 -3.09983 0
M  V30 4570 H 433.054 -1.35224 -3.48805 0
M  V30 4571 H 434.387 -1.76076 -4.59628 0
M  V30 4572 N 436.039 1.36541 -0.78704 0
M  V30 4573 C 437.45 1.81873 -0.421807 0
M  V30 4574 C 437.801 1.65487 1.05397 0
M  V30 4575 O 436.926 1.17448 1.81755 0
M  V30 4576 C 437.521 3.30192 -0.758841 0
M  V30 4577 C 436.08 3.73743 -0.446468 0
M  V30 4578 C 435.227 2.58844 -0.994728 0
M  V30 4579 H 438.178 1.24796 -0.98039 0
M  V30 4580 H 438.199 3.80468 -0.0490648 0
M  V30 4581 H 437.711 3.42087 -1.83299 0
M  V30 4582 H 435.812 3.6741 0.619739 0
M  V30 4583 H 435.925 4.69272 -0.965415 0
M  V30 4584 H 434.289 2.51245 -0.418087 0
M  V30 4585 H 435.072 2.73525 -2.07458 0
M  V30 4586 N 437.518 0.538854 1.48102 0
M  V30 4587 C 438.795 -0.0568108 1.95517 0
M  V30 4588 C 439.175 -1.50408 1.48124 0
M  V30 4589 O 438.523 -2.17133 0.711727 0
M  V30 4590 C 438.733 0.0696262 3.48931 0
M  V30 4591 C 440.081 -0.0851202 4.24515 0
M  V30 4592 O 441.105 -0.0037347 3.562 0
M  V30 4593 O 439.964 -0.257025 5.45895 0
M  V30 4594 H 437.058 -0.0743695 0.823649 0
M  V30 4595 H 439.604 0.604081 1.58584 0
M  V30 4596 H 438.376 1.07744 3.76174 0
M  V30 4597 H 437.999 -0.629714 3.92582 0
M  V30 4598 N 438.996 -1.55193 0.274407 0
M  V30 4599 C 440.407 -1.85358 -0.223488 0
M  V30 4600 C 440.758 -1.19642 -1.555 0
M  V30 4601 O 439.883 -0.484498 -2.10907 0
M  V30 4602 C 440.478 -3.36282 -0.412285 0
M  V30 4603 C 439.037 -3.66574 -0.854413 0
M  V30 4604 C 438.184 -2.7725 0.0527056 0
M  V30 4605 H 441.135 -1.50743 0.496215 0
M  V30 4606 H 441.156 -3.59349 -1.25094 0
M  V30 4607 H 440.668 -3.84083 0.556965 0
M  V30 4608 H 438.769 -3.24273 -1.83516 0
M  V30 4609 H 438.882 -4.74073 -0.692226 0
M  V30 4610 H 437.246 -2.50447 -0.463484 0
M  V30 4611 H 438.029 -3.27865 1.01783 0
M  V30 4612 N 440.474 -0.00167713 -1.576 0
M  V30 4613 C 441.751 0.719951 -1.81868 0
M  V30 4614 C 442.131 1.91895 -0.879747 0
M  V30 4615 O 441.479 2.28389 0.0711423 0
M  V30 4616 C 441.689 1.12409 -3.30402 0
M  V30 4617 C 443.037 1.52724 -3.96182 0
M  V30 4618 O 444.061 1.21784 -3.34734 0
M  V30 4619 O 442.92 2.10265 -5.04431 0
M  V30 4620 H 440.014 0.350707 -0.748955 0
M  V30 4621 H 442.56 -0.0272597 -1.69678 0
M  V30 4622 H 441.332 0.269532 -3.90371 0
M  V30 4623 H 440.955 1.93035 -3.47596 0
M  V30 4624 N 441.952 1.55251 0.271103 0
M  V30 4625 C 442.899 1.88261 1.33516 0
M  V30 4626 C 443.869 0.734296 1.48988 0
M  V30 4627 O 445.054 0.985741 1.63364 0
M  V30 4628 C 442.194 2.16168 2.69008 0
M  V30 4629 C 441.307 3.43678 2.61743 0
M  V30 4630 C 440.442 3.61276 3.89427 0
M  V30 4631 C 439.481 4.82472 3.7668 0
M  V30 4632 N 438.618 4.96717 4.96202 0
M  V30 4633 H 443.458 2.79015 1.04665 0
M  V30 4634 H 440.995 1.38137 0.505618 0
M  V30 4635 H 442.953 2.30349 3.47844 0
M  V30 4636 H 441.583 1.28646 2.96057 0
M  V30 4637 H 440.635 3.37959 1.74607 0
M  V30 4638 H 441.947 4.3265 2.48224 0
M  V30 4639 H 441.101 3.75284 4.76704 0
M  V30 4640 H 439.84 2.70492 4.05814 0
M  V30 4641 H 438.845 4.68465 2.87786 0
M  V30 4642 H 440.07 5.74692 3.61809 0
M  V30 4643 H 438.016 4.08865 5.12997 0
M  V30 4644 H 437.933 5.79738 4.85222 0
M  V30 4645 H 439.201 5.15113 5.85046 0
M  V30 4646 N 443.43 -0.535701 1.48216 0
M  V30 4647 C 444.846 -0.863701 1.3421 0
M  V30 4648 C 445.046 -1.98458 0.34879 0
M  V30 4649 O 444.102 -2.51432 -0.23204 0
M  V30 4650 C 445.415 -1.23662 2.74095 0
M  V30 4651 C 446.963 -1.34683 2.82541 0
M  V30 4652 C 447.438 -1.75322 4.23115 0
M  V30 4653 N 448.929 -1.82434 4.2576 0
M  V30 4654 C 449.664 -2.15252 5.31464 0
M  V30 4655 N 449.16 -2.46533 6.47452 0
M  V30 4656 N 450.953 -2.16209 5.18855 0
M  V30 4657 H 443.104 0.203965 2.11418 0
M  V30 4658 H 445.367 0.0286033 0.947568 0
M  V30 4659 H 445.073 -0.486674 3.48316 0
M  V30 4660 H 444.947 -2.18805 3.07253 0
M  V30 4661 H 447.334 -2.08756 2.08579 0
M  V30 4662 H 447.415 -0.376756 2.5301 0
M  V30 4663 H 447.059 -1.01812 4.97591 0
M  V30 4664 H 446.989 -2.7337 4.50085 0
M  V30 4665 H 449.48 -1.6056 3.42095 0
M  V30 4666 H 449.793 -2.70662 7.23852 0
M  V30 4667 H 448.138 -2.44065 6.50736 0
M  V30 4668 H 451.329 -1.91224 4.2726 0
M  V30 4669 H 451.502 -2.41453 6.01335 0
M  V30 4670 N 444.908 -1.36708 -0.784132 0
M  V30 4671 C 446.319 -1.27947 -1.35965 0
M  V30 4672 C 446.67 0.0784013 -1.96043 0
M  V30 4673 O 445.795 0.979989 -1.92938 0
M  V30 4674 C 446.39 -2.31689 -2.47195 0
M  V30 4675 C 444.949 -2.26601 -3.00548 0
M  V30 4676 C 444.096 -2.16184 -1.73666 0
M  V30 4677 H 447.047 -1.4751 -0.585358 0
M  V30 4678 H 447.068 -1.95638 -3.26352 0
M  V30 4679 H 446.58 -3.30506 -2.03439 0
M  V30 4680 H 444.681 -1.31268 -3.48711 0
M  V30 4681 H 444.794 -3.19508 -3.57004 0
M  V30 4682 H 443.158 -1.62524 -1.96107 0
M  V30 4683 H 443.941 -3.16896 -1.32031 0
M  V30 4684 N 446.386 1.0089 -1.21074 0
M  V30 4685 C 447.663 1.71834 -0.934469 0
M  V30 4686 C 448.043 2.0368 0.554753 0
M  V30 4687 O 447.391 1.70742 1.51854 0
M  V30 4688 C 447.601 2.98061 -1.8155 0
M  V30 4689 C 448.949 3.7117 -2.06199 0
M  V30 4690 O 449.973 3.08034 -1.78867 0
M  V30 4691 O 448.832 4.84721 -2.52404 0
M  V30 4692 H 445.926 0.749253 -0.35007 0
M  V30 4693 H 448.472 1.06668 -1.31985 0
M  V30 4694 H 447.244 2.70908 -2.82355 0
M  V30 4695 H 446.867 3.70968 -1.43068 0
M  V30 4696 N 447.864 1.01787 1.20321 0
M  V30 4697 C 449.113 0.703249 1.89043 0
M  V30 4698 C 449.426 -0.770445 1.79787 0
M  V30 4699 O 450.632 -1.19767 2.43656 0
M  V30 4700 C 449.088 1.20749 3.3904 0
M  V30 4701 C 448.696 2.70817 3.56878 0
M  V30 4702 C 450.44 0.968352 4.13308 0
M  V30 4703 C 448.347 3.14716 5.00708 0
M  V30 4704 H 447.277 0.259354 0.707991 0
M  V30 4705 H 449.928 1.23072 1.36108 0
M  V30 4706 H 448.31 0.607989 3.91305 0
M  V30 4707 H 449.484 3.36327 3.14993 0
M  V30 4708 H 447.799 2.92888 2.95983 0
M  V30 4709 H 450.396 1.27173 5.19356 0
M  V30 4710 H 450.739 -0.095149 4.16191 0
M  V30 4711 H 451.272 1.53129 3.67146 0
M  V30 4712 H 448.011 4.20347 5.02979 0
M  V30 4713 H 447.531 2.53927 5.43398 0
M  V30 4714 H 449.21 3.07426 5.69296 0
M  V30 4715 N 449.342 -1.36122 0.79427 0
M  V30 4716 C 450.572 -2.03067 0.380437 0
M  V30 4717 C 450.98 -1.60018 -1.00949 0
M  V30 4718 O 450.323 -0.787425 -1.65968 0
M  V30 4719 C 450.385 -3.57587 0.37034 0
M  V30 4720 C 450.049 -4.23855 1.70867 0
M  V30 4721 C 451.046 -4.46404 2.66496 0
M  V30 4722 C 448.731 -4.61229 1.9893 0
M  V30 4723 C 450.725 -5.05412 3.88378 0
M  V30 4724 C 448.412 -5.19953 3.21079 0
M  V30 4725 C 449.41 -5.41985 4.15621 0
M  V30 4726 O 449.098 -5.99475 5.35616 0
M  V30 4727 H 448.83 -0.658168 0.154243 0
M  V30 4728 H 451.384 -1.7498 1.0757 0
M  V30 4729 H 449.614 -3.84814 -0.381444 0
M  V30 4730 H 451.303 -4.05895 -0.0194894 0
M  V30 4731 H 452.069 -4.17921 2.46103 0
M  V30 4732 H 447.948 -4.43402 1.26158 0
M  V30 4733 H 451.492 -5.22524 4.62185 0
M  V30 4734 H 447.389 -5.47862 3.41347 0
M  V30 4735 H 448.157 -6.17937 5.36745 0
M  V30 4736 N 450.82 -0.546701 -1.47814 0
M  V30 4737 C 451.752 0.244196 -2.27895 0
M  V30 4738 C 452.765 0.88911 -1.36377 0
M  V30 4739 O 453.954 0.764733 -1.61289 0
M  V30 4740 C 451.054 1.36252 -3.10304 0
M  V30 4741 C 450.227 0.816382 -4.29714 0
M  V30 4742 C 449.286 1.81789 -4.93801 0
M  V30 4743 O 448.312 1.36818 -5.52512 0
M  V30 4744 N 449.514 3.15085 -4.87547 0
M  V30 4745 H 452.279 -0.442694 -2.96412 0
M  V30 4746 H 449.84 -0.382095 -1.57327 0
M  V30 4747 H 451.832 2.03102 -3.50045 0
M  V30 4748 H 450.402 1.95281 -2.44099 0
M  V30 4749 H 449.622 -0.0285981 -3.9419 0
M  V30 4750 H 450.91 0.430668 -5.06974 0
M  V30 4751 H 450.308 3.54275 -4.41028 0
M  V30 4752 H 448.865 3.77522 -5.31339 0
M  V30 4753 N 452.299 1.55045 -0.282633 0
M  V30 4754 C 453.545 2.00056 0.332481 0
M  V30 4755 C 453.878 1.1708 1.54939 0
M  V30 4756 O 453.153 0.2427 1.9298 0
M  V30 4757 C 453.436 3.53086 0.70725 0
M  V30 4758 C 453.289 4.46813 -0.517521 0
M  V30 4759 C 454.608 4.12245 1.54084 0
M  V30 4760 H 451.727 0.727268 0.119373 0
M  V30 4761 H 454.369 1.85932 -0.391076 0
M  V30 4762 H 452.519 3.65253 1.32372 0
M  V30 4763 H 454.191 4.46579 -1.15607 0
M  V30 4764 H 452.434 4.18163 -1.1542 0
M  V30 4765 H 453.105 5.51595 -0.211426 0
M  V30 4766 H 455.581 4.03401 1.02013 0
M  V30 4767 H 454.457 5.19515 1.77186 0
M  V30 4768 H 454.718 3.62951 2.52427 0
M  V30 4769 N 453.777 0.010035 1.57597 0
M  V30 4770 C 455.002 -0.687021 1.95691 0
M  V30 4771 C 455.427 -1.65952 0.885519 0
M  V30 4772 O 454.785 -1.80633 -0.15543 0
M  V30 4773 C 454.833 -1.3864 3.32884 0
M  V30 4774 O 453.937 -2.50115 3.27897 0
M  V30 4775 H 453.278 -0.181989 0.638573 0
M  V30 4776 H 455.808 0.0662122 2.04493 0
M  V30 4777 H 455.818 -1.74754 3.6868 0
M  V30 4778 H 454.493 -0.673411 4.10412 0
M  V30 4779 H 453.07 -2.16253 3.03791 0
M  V30 4780 N 455.255 -1.55392 -0.262866 0
M  V30 4781 C 456.485 -1.80251 -1.00961 0
M  V30 4782 C 456.893 -0.58117 -1.80053 0
M  V30 4783 O 456.236 0.459427 -1.77862 0
M  V30 4784 C 456.298 -2.98207 -2.00781 0
M  V30 4785 C 455.962 -4.34856 -1.40533 0
M  V30 4786 C 456.959 -5.13459 -0.815853 0
M  V30 4787 C 454.644 -4.8153 -1.42948 0
M  V30 4788 C 456.638 -6.36875 -0.258562 0
M  V30 4789 C 454.325 -6.04899 -0.868334 0
M  V30 4790 C 455.323 -6.8241 -0.283884 0
M  V30 4791 O 455.011 -8.03451 0.268644 0
M  V30 4792 H 454.743 -0.604049 -0.303482 0
M  V30 4793 H 457.297 -2.03257 -0.295926 0
M  V30 4794 H 455.527 -2.70917 -2.75936 0
M  V30 4795 H 457.216 -3.10299 -2.61667 0
M  V30 4796 H 457.982 -4.78526 -0.789812 0
M  V30 4797 H 453.861 -4.21201 -1.87378 0
M  V30 4798 H 457.405 -6.97318 0.198257 0
M  V30 4799 H 453.302 -6.39312 -0.891649 0
M  V30 4800 H 454.07 -8.18346 0.158974 0
M  V30 4801 N 456.733 0.527833 -1.48498 0
M  V30 4802 C 457.98 1.28354 -1.56625 0
M  V30 4803 C 458.308 1.93 -0.241096 0
M  V30 4804 O 457.563 1.79967 0.768798 0
M  V30 4805 C 457.862 2.39275 -2.65485 0
M  V30 4806 C 457.528 1.92268 -4.07853 0
M  V30 4807 C 456.19 1.79166 -4.46602 0
M  V30 4808 C 458.542 1.56771 -4.97064 0
M  V30 4809 C 455.87 1.28905 -5.72364 0
M  V30 4810 C 458.222 1.07972 -6.23318 0
M  V30 4811 C 456.886 0.934887 -6.60921 0
M  V30 4812 H 456.156 0.469682 -0.573131 0
M  V30 4813 H 458.803 0.588781 -1.82224 0
M  V30 4814 H 457.108 3.1443 -2.33754 0
M  V30 4815 H 458.805 2.974 -2.68988 0
M  V30 4816 H 455.395 2.03417 -3.77252 0
M  V30 4817 H 459.579 1.65753 -4.67803 0
M  V30 4818 H 454.835 1.16381 -6.00221 0
M  V30 4819 H 459.009 0.795775 -6.91838 0
M  V30 4820 H 456.636 0.543231 -7.58257 0
M  V30 4821 N 458.211 1.37122 0.776871 0
M  V30 4822 C 459.436 1.354 1.57104 0
M  V30 4823 C 459.861 -0.0595562 1.88006 0
M  V30 4824 O 459.219 -1.03514 1.48844 0
M  V30 4825 C 459.267 2.19472 2.8612 0
M  V30 4826 O 458.371 1.59582 3.80273 0
M  V30 4827 H 457.712 0.462869 0.476076 0
M  V30 4828 H 460.242 1.80577 0.961932 0
M  V30 4829 H 460.252 2.32502 3.35271 0
M  V30 4830 H 458.927 3.22222 2.62956 0
M  V30 4831 H 457.504 1.55564 3.38902 0
M  V30 4832 N 459.689 -1.00246 1.21608 0
M  V30 4833 C 460.936 -1.74061 1.03485 0
M  V30 4834 C 461.264 -1.89658 -0.431308 0
M  V30 4835 O 460.519 -1.42976 -1.33627 0
M  V30 4836 C 460.818 -3.15448 1.68009 0
M  V30 4837 C 460.484 -3.19792 3.17874 0
M  V30 4838 C 459.146 -3.20685 3.58768 0
M  V30 4839 C 461.498 -3.16835 4.13842 0
M  V30 4840 C 458.826 -3.16309 4.94131 0
M  V30 4841 C 461.178 -3.14001 5.49169 0
M  V30 4842 C 459.842 -3.13204 5.89457 0
M  V30 4843 H 459.112 -0.636934 0.378677 0
M  V30 4844 H 461.759 -1.17473 1.51236 0
M  V30 4845 H 460.064 -3.75284 1.12557 0
M  V30 4846 H 461.761 -3.71285 1.51487 0
M  V30 4847 H 458.351 -3.19842 2.85305 0
M  V30 4848 H 462.535 -3.15303 3.83272 0
M  V30 4849 H 457.791 -3.14032 5.24589 0
M  V30 4850 H 461.965 -3.10667 6.23265 0
M  V30 4851 H 459.592 -3.09568 6.94314 0
M  V30 4852 N 461.167 -1.02423 -1.1978 0
M  V30 4853 C 462.114 -0.601023 -2.22837 0
M  V30 4854 C 463.084 0.382801 -1.61629 0
M  V30 4855 O 464.269 0.280514 -1.88727 0
M  V30 4856 C 461.409 0.0467755 -3.45068 0
M  V30 4857 C 460.522 -0.98253 -4.20678 0
M  V30 4858 C 459.657 -0.304982 -5.30324 0
M  V30 4859 C 458.696 -1.32052 -5.97686 0
M  V30 4860 N 457.833 -0.669105 -6.98904 0
M  V30 4861 H 462.673 -1.48444 -2.58396 0
M  V30 4862 H 460.21 -0.742936 -1.2696 0
M  V30 4863 H 462.168 0.439556 -4.14878 0
M  V30 4864 H 460.798 0.893796 -3.10179 0
M  V30 4865 H 459.85 -1.49341 -3.49859 0
M  V30 4866 H 461.162 -1.75455 -4.66923 0
M  V30 4867 H 460.316 0.142893 -6.06532 0
M  V30 4868 H 459.055 0.499283 -4.85138 0
M  V30 4869 H 458.06 -1.7787 -5.20233 0
M  V30 4870 H 459.285 -2.1262 -6.44957 0
M  V30 4871 H 457.231 0.115152 -6.55899 0
M  V30 4872 H 457.148 -1.37908 -7.43315 0
M  V30 4873 H 458.416 -0.245076 -7.79115 0
M  V30 4874 N 462.645 1.35699 -0.801477 0
M  V30 4875 C 463.575 2.32436 -0.222658 0
M  V30 4876 C 464.556 1.5723 0.649057 0
M  V30 4877 O 465.741 1.85324 0.580387 0
M  V30 4878 C 462.871 3.41469 0.633719 0
M  V30 4879 C 461.825 4.27774 -0.139083 0
M  V30 4880 C 461.151 5.28082 0.838666 0
M  V30 4881 C 462.451 5.04946 -1.33517 0
M  V30 4882 H 464.145 2.81094 -1.03086 0
M  V30 4883 H 461.691 1.35146 -0.497155 0
M  V30 4884 H 463.644 4.08143 1.04868 0
M  V30 4885 H 462.368 2.91408 1.47475 0
M  V30 4886 H 461.027 3.62673 -0.535156 0
M  V30 4887 H 460.675 4.7429 1.67506 0
M  V30 4888 H 460.375 5.86695 0.32594 0
M  V30 4889 H 461.899 5.97628 1.25194 0
M  V30 4890 H 463.313 5.64593 -0.995349 0
M  V30 4891 H 461.71 5.7303 -1.78202 0
M  V30 4892 H 462.78 4.35886 -2.12442 0
M  V30 4893 N 464.123 0.554532 1.47522 0
M  V30 4894 C 465.053 -0.182974 2.32782 0
M  V30 4895 C 466.034 -0.911377 1.43624 0
M  V30 4896 O 467.219 -0.892366 1.72483 0
M  V30 4897 C 464.349 -1.21513 3.25349 0
M  V30 4898 C 463.303 -0.603355 4.23726 0
M  V30 4899 C 462.629 -1.73995 5.05598 0
M  V30 4900 C 463.929 0.441121 5.20434 0
M  V30 4901 H 465.623 0.52882 2.94693 0
M  V30 4902 H 463.169 0.255759 1.41711 0
M  V30 4903 H 465.122 -1.73922 3.83835 0
M  V30 4904 H 463.846 -1.95683 2.61487 0
M  V30 4905 H 462.505 -0.10059 3.66462 0
M  V30 4906 H 462.153 -2.47063 4.38143 0
M  V30 4907 H 461.853 -1.3364 5.72201 0
M  V30 4908 H 463.377 -2.26735 5.66942 0
M  V30 4909 H 464.791 0.00319931 5.733 0
M  V30 4910 H 463.188 0.763402 5.95224 0
M  V30 4911 H 464.258 1.33799 4.66075 0
M  V30 4912 N 465.601 -1.54893 0.290851 0
M  V30 4913 C 466.548 -2.23138 -0.58974 0
M  V30 4914 C 467.518 -1.21036 -1.13752 0
M  V30 4915 O 468.703 -1.49626 -1.18392 0
M  V30 4916 C 465.843 -2.96811 -1.76061 0
M  V30 4917 C 464.956 -4.13665 -1.24519 0
M  V30 4918 C 464.091 -4.74944 -2.3791 0
M  V30 4919 C 463.13 -5.83963 -1.83451 0
M  V30 4920 N 462.267 -6.39239 -2.90376 0
M  V30 4921 H 467.107 -2.98 -0.00114915 0
M  V30 4922 H 464.644 -1.47096 0.0112006 0
M  V30 4923 H 466.602 -3.37751 -2.44909 0
M  V30 4924 H 465.232 -2.24344 -2.32098 0
M  V30 4925 H 464.284 -3.77737 -0.449288 0
M  V30 4926 H 465.596 -4.92238 -0.806424 0
M  V30 4927 H 464.75 -5.18684 -3.14724 0
M  V30 4928 H 463.489 -3.95682 -2.85109 0
M  V30 4929 H 462.494 -5.39657 -1.05122 0
M  V30 4930 H 463.719 -6.65103 -1.37169 0
M  V30 4931 H 461.665 -5.62864 -3.36927 0
M  V30 4932 H 461.582 -7.13129 -2.50965 0
M  V30 4933 H 462.85 -6.87637 -3.67118 0
M  V30 4934 N 467.08 -0.0183926 -1.57589 0
M  V30 4935 C 468.027 0.967022 -2.09565 0
M  V30 4936 C 468.997 1.32983 -0.995225 0
M  V30 4937 O 470.182 1.42501 -1.26878 0
M  V30 4938 C 467.322 2.24772 -2.61861 0
M  V30 4939 C 466.435 1.94232 -3.85873 0
M  V30 4940 C 465.57 3.16518 -4.26603 0
M  V30 4941 C 464.609 2.81748 -5.43401 0
M  V30 4942 N 463.746 3.96626 -5.79338 0
M  V30 4943 H 468.586 0.516874 -2.93483 0
M  V30 4944 H 466.123 0.243544 -1.4507 0
M  V30 4945 H 468.081 2.99667 -2.90268 0
M  V30 4946 H 466.711 2.67423 -1.8079 0
M  V30 4947 H 465.763 1.09625 -3.64262 0
M  V30 4948 H 467.075 1.64616 -4.70853 0
M  V30 4949 H 466.229 3.99743 -4.56389 0
M  V30 4950 H 464.968 3.49286 -3.40368 0
M  V30 4951 H 463.973 1.96933 -5.1332 0
M  V30 4952 H 465.198 2.50207 -6.31327 0
M  V30 4953 H 463.144 4.29257 -4.96059 0
M  V30 4954 H 463.061 3.70598 -6.58933 0
M  V30 4955 H 464.329 4.80586 -6.13724 0
M  V30 4956 N 468.558 1.5553 0.254621 0
M  V30 4957 C 469.468 1.92789 1.33677 0
M  V30 4958 C 470.484 0.827356 1.53071 0
M  V30 4959 O 471.66 1.12807 1.66843 0
M  V30 4960 C 468.725 2.20827 2.67275 0
M  V30 4961 C 467.786 3.4427 2.5647 0
M  V30 4962 C 467.019 3.70961 3.83697 0
M  V30 4963 O 467.242 2.99852 4.85227 0
M  V30 4964 O 466.176 4.64491 3.82794 0
M  V30 4965 H 470.002 2.84945 1.05071 0
M  V30 4966 H 467.587 1.42312 0.454723 0
M  V30 4967 H 469.469 2.40204 3.46237 0
M  V30 4968 H 468.144 1.31851 2.9563 0
M  V30 4969 H 467.051 3.30209 1.75821 0
M  V30 4970 H 468.384 4.33524 2.33062 0
M  V30 4971 N 470.036 -0.519951 1.48776 0
M  V30 4972 C 471.276 -1.2856 1.58908 0
M  V30 4973 C 471.64 -1.90212 0.261418 0
M  V30 4974 O 472.841 -2.67746 0.237791 0
M  V30 4975 C 471.112 -2.33836 2.70288 0
M  V30 4976 S 472.671 -3.19992 3.0025 0
M  V30 4977 H 469.489 -0.43717 0.560717 0
M  V30 4978 H 472.091 -0.591205 1.86346 0
M  V30 4979 H 470.795 -1.87041 3.653 0
M  V30 4980 H 470.326 -3.07969 2.44783 0
M  V30 4981 H 472.341 -4.34122 2.40317 0
M  V30 4982 N 471.514 -1.37532 -0.769588 0
M  V30 4983 C 472.925 -1.29382 -1.346 0
M  V30 4984 C 473.276 0.0576039 -1.96115 0
M  V30 4985 O 472.401 0.95947 -1.93967 0
M  V30 4986 C 472.996 -2.34298 -2.44724 0
M  V30 4987 C 471.555 -2.29776 -2.98128 0
M  V30 4988 C 470.702 -2.18013 -1.71364 0
M  V30 4989 H 473.653 -1.48123 -0.56968 0
M  V30 4990 H 473.674 -1.99089 -3.24259 0
M  V30 4991 H 473.186 -3.32645 -1.99922 0
M  V30 4992 H 471.287 -1.34959 -3.47299 0
M  V30 4993 H 471.4 -3.23276 -3.53595 0
M  V30 4994 H 469.764 -1.64595 -1.94372 0
M  V30 4995 H 470.547 -3.18278 -1.28662 0
M  V30 4996 N 472.992 0.995999 -1.22138 0
M  V30 4997 C 474.241 1.72928 -1.03821 0
M  V30 4998 C 474.554 1.90872 0.427444 0
M  V30 4999 O 475.76 2.61496 0.730212 0
M  V30 5000 C 474.216 3.11124 -1.80913 0
M  V30 5001 C 473.824 3.01122 -3.31707 0
M  V30 5002 C 475.568 3.8852 -1.71035 0
M  V30 5003 C 473.475 4.34453 -4.01253 0
M  V30 5004 H 472.405 0.648376 -0.384869 0
M  V30 5005 H 475.056 1.11213 -1.45959 0
M  V30 5006 H 473.438 3.73503 -1.31573 0
M  V30 5007 H 474.612 2.47926 -3.88419 0
M  V30 5008 H 472.927 2.3721 -3.42228 0
M  V30 5009 H 475.524 4.872 -2.20318 0
M  V30 5010 H 475.867 4.1087 -0.670196 0
M  V30 5011 H 476.4 3.32812 -2.17902 0
M  V30 5012 H 473.139 4.17303 -5.05508 0
M  V30 5013 H 472.659 4.87574 -3.49331 0
M  V30 5014 H 474.338 5.03215 -4.06674 0
M  V30 5015 N 474.47 1.03057 1.19235 0
M  V30 5016 C 475.881 0.757449 1.70645 0
M  V30 5017 C 476.232 -0.722735 1.82403 0
M  V30 5018 O 475.357 -1.56325 1.49638 0
M  V30 5019 C 475.952 1.36833 3.09939 0
M  V30 5020 C 474.511 1.14375 3.58602 0
M  V30 5021 C 473.658 1.46533 2.35422 0
M  V30 5022 H 476.609 1.19828 1.04052 0
M  V30 5023 H 476.63 0.766184 3.72706 0
M  V30 5024 H 476.142 2.44562 3.01349 0
M  V30 5025 H 474.243 0.0847542 3.72504 0
M  V30 5026 H 474.356 1.83366 4.42622 0
M  V30 5027 H 472.72 0.884712 2.38841 0
M  V30 5028 H 473.503 2.55349 2.2946 0
M  V30 5029 N 475.948 -1.35272 0.808662 0
M  V30 5030 C 476.896 -2.31663 0.208606 0
M  V30 5031 C 477.89 -1.56731 -0.642778 0
M  V30 5032 O 479.096 -1.71843 -0.53571 0
M  V30 5033 H 475.471 -0.750421 0.0486993 0
M  V30 5034 H 477.442 -2.79814 1.03666 0
M  V30 5035 C 476.191 -3.42008 -0.626573 0
M  V30 5036 H 475.514 -3.99795 0.0192103 0
M  V30 5037 H 476.954 -4.11727 -1.01278 0
M  V30 5038 C 475.413 -2.85226 -1.79298 0
M  V30 5039 O 475.943 -2.78945 -2.89055 0
M  V30 5040 N 474.149 -2.42245 -1.60516 0
M  V30 5041 H 473.696 -2.47554 -0.712375 0
M  V30 5042 H 473.654 -2.04603 -2.38715 0
M  V30 5043 N 477.426 -0.562348 -1.47226 0
M  V30 5044 C 478.672 -0.0402761 -2.0276 0
M  V30 5045 C 479.005 1.30823 -1.43523 0
M  V30 5046 O 478.28 1.85249 -0.592705 0
M  V30 5047 C 478.563 0.047311 -3.60069 0
M  V30 5048 C 478.416 -1.32865 -4.29729 0
M  V30 5049 C 479.735 0.758182 -4.3352 0
M  V30 5050 H 476.854 -0.0161105 -0.736824 0
M  V30 5051 H 479.496 -0.725628 -1.75598 0
M  V30 5052 H 477.646 0.630986 -3.83342 0
M  V30 5053 H 479.318 -1.95593 -4.17781 0
M  V30 5054 H 477.561 -1.90195 -3.89882 0
M  V30 5055 H 478.232 -1.22004 -5.38349 0
M  V30 5056 H 480.708 0.262546 -4.15271 0
M  V30 5057 H 479.584 0.78844 -5.43208 0
M  V30 5058 H 479.845 1.81537 -4.03109 0
M  V30 5059 N 478.904 1.54736 -0.299062 0
M  V30 5060 C 479.836 2.20891 0.61153 0
M  V30 5061 C 480.849 1.20104 1.09904 0
M  V30 5062 O 482.038 1.46707 1.01683 0
M  V30 5063 C 479.138 2.84018 1.84897 0
M  V30 5064 C 478.311 4.10719 1.50428 0
M  V30 5065 C 477.37 4.57667 2.59667 0
M  V30 5066 O 476.396 5.2291 2.24842 0
M  V30 5067 N 477.598 4.29821 3.90172 0
M  V30 5068 H 480.363 2.99666 0.0452001 0
M  V30 5069 H 477.924 1.61446 -0.121178 0
M  V30 5070 H 479.916 3.1236 2.5732 0
M  V30 5071 H 478.486 2.09095 2.32375 0
M  V30 5072 H 477.706 3.89408 0.612781 0
M  V30 5073 H 478.994 4.93223 1.24934 0
M  V30 5074 H 478.392 3.77549 4.21276 0
M  V30 5075 H 476.949 4.62877 4.58899 0
M  V30 5076 N 480.382 0.0267497 1.57577 0
M  V30 5077 C 481.33 -0.973923 2.11229 0
M  V30 5078 C 482.324 -1.33849 1.03831 0
M  V30 5079 O 483.53 -1.321 1.22269 0
M  V30 5080 H 479.905 -0.331844 0.674821 0
M  V30 5081 H 481.876 -0.496092 2.94247 0
M  V30 5082 C 480.625 -2.24798 2.65257 0
M  V30 5083 H 479.948 -1.9762 3.47543 0
M  V30 5084 H 481.388 -2.93031 3.06445 0
M  V30 5085 C 479.847 -2.97611 1.57891 0
M  V30 5086 O 480.377 -3.89629 0.97735 0
M  V30 5087 N 478.583 -2.59905 1.29992 0
M  V30 5088 H 478.13 -1.85154 1.79097 0
M  V30 5089 H 478.088 -3.08932 0.583798 0
M  V30 5090 N 481.861 -1.55662 -0.24637 0
M  V30 5091 C 483.086 -1.81914 -0.996093 0
M  V30 5092 C 483.511 -0.603875 -1.78143 0
M  V30 5093 O 482.869 0.447091 -1.75701 0
M  V30 5094 C 482.917 -3.05908 -1.90925 0
M  V30 5095 O 482.021 -2.82861 -3.00105 0
M  V30 5096 H 481.362 -0.600481 -0.283406 0
M  V30 5097 H 483.892 -2.02848 -0.267199 0
M  V30 5098 H 483.902 -3.35356 -2.3238 0
M  V30 5099 H 482.577 -3.93999 -1.33183 0
M  V30 5100 H 481.154 -2.64583 -2.62775 0
M  V30 5101 N 483.339 0.512053 -1.4905 0
M  V30 5102 C 484.75 1.09376 -1.51307 0
M  V30 5103 C 485.101 1.94 -0.292971 0
M  V30 5104 O 484.226 2.07965 0.598277 0
M  V30 5105 C 484.821 1.99031 -2.74176 0
M  V30 5106 C 483.38 2.52385 -2.79247 0
M  V30 5107 C 482.527 1.29749 -2.45073 0
M  V30 5108 H 485.478 0.296467 -1.55906 0
M  V30 5109 H 485.499 2.83569 -2.53711 0
M  V30 5110 H 485.011 1.37412 -3.62959 0
M  V30 5111 H 483.112 3.17673 -1.94716 0
M  V30 5112 H 483.225 2.90293 -3.81139 0
M  V30 5113 H 481.589 1.61912 -1.96612 0
M  V30 5114 H 482.372 0.698555 -3.36118 0
M  V30 5115 N 484.817 1.37938 0.762283 0
M  V30 5116 C 486.066 1.32989 1.51647 0
M  V30 5117 C 486.379 -0.0802922 1.95435 0
M  V30 5118 O 487.585 -0.252295 2.70325 0
M  V30 5119 C 486.041 2.33485 2.73885 0
M  V30 5120 C 485.649 3.80079 2.37157 0
M  V30 5121 C 487.393 2.37563 3.51801 0
M  V30 5122 C 485.3 4.72283 3.55954 0
M  V30 5123 H 484.23 0.494301 0.56937 0
M  V30 5124 H 486.881 1.63448 0.834083 0
M  V30 5125 H 485.263 1.96056 3.44061 0
M  V30 5126 H 486.437 4.26398 1.74704 0
M  V30 5127 H 484.752 3.79037 1.72395 0
M  V30 5128 H 487.349 3.0365 4.40114 0
M  V30 5129 H 487.692 1.39199 3.92338 0
M  V30 5130 H 488.225 2.73747 2.8863 0
M  V30 5131 H 484.964 5.7181 3.2049 0
M  V30 5132 H 484.484 4.30663 4.1748 0
M  V30 5133 H 486.163 4.89876 4.22647 0
M  V30 5134 N 486.295 -0.989507 1.22664 0
M  V30 5135 C 487.706 -1.54406 1.04955 0
M  V30 5136 C 488.057 -1.92366 -0.385951 0
M  V30 5137 O 487.182 -1.75111 -1.27142 0
M  V30 5138 C 487.777 -2.80578 1.89899 0
M  V30 5139 C 486.336 -3.32464 1.76478 0
M  V30 5140 C 485.483 -2.05524 1.86159 0
M  V30 5141 H 488.434 -0.810211 1.3646 0
M  V30 5142 H 488.455 -3.53075 1.4184 0
M  V30 5143 H 487.967 -2.52918 2.94371 0
M  V30 5144 H 486.068 -3.65024 0.747528 0
M  V30 5145 H 486.181 -4.02838 2.59342 0
M  V30 5146 H 484.545 -2.19241 1.29636 0
M  V30 5147 H 485.328 -1.80258 2.92168 0
M  V30 5148 N 487.773 -1.03688 -1.18687 0
M  V30 5149 C 488.736 -0.629115 -2.20397 0
M  V30 5150 C 489.736 0.311495 -1.57754 0
M  V30 5151 O 490.926 0.0974107 -1.73927 0
M  V30 5152 C 488.058 0.0782231 -3.4081 0
M  V30 5153 H 489.251 -1.52915 -2.57987 0
M  V30 5154 H 486.804 -0.828988 -1.32505 0
M  V30 5155 H 487.539 0.992233 -3.08748 0
M  V30 5156 H 487.324 -0.597776 -3.87517 0
M  V30 5157 H 488.814 0.350156 -4.16129 0
M  V30 5158 N 489.251 1.34841 -0.815825 0
M  V30 5159 C 490.198 2.29644 -0.230664 0
M  V30 5160 C 491.168 1.53253 0.640533 0
M  V30 5161 O 492.353 1.81653 0.583672 0
M  V30 5162 C 489.493 3.39715 0.607275 0
M  V30 5163 C 488.606 4.31056 -0.28538 0
M  V30 5164 C 487.741 5.28225 0.561446 0
M  V30 5165 C 486.78 6.11204 -0.331035 0
M  V30 5166 N 485.917 7.00483 0.476302 0
M  V30 5167 H 490.757 2.79095 -1.0445 0
M  V30 5168 H 488.294 1.37351 -0.526595 0
M  V30 5169 H 490.252 4.02208 1.10835 0
M  V30 5170 H 488.882 2.91517 1.38629 0
M  V30 5171 H 487.934 3.69487 -0.904621 0
M  V30 5172 H 489.246 4.89239 -0.97193 0
M  V30 5173 H 488.4 5.96135 1.12728 0
M  V30 5174 H 487.139 4.70562 1.28153 0
M  V30 5175 H 486.144 5.42232 -0.909069 0
M  V30 5176 H 487.369 6.70947 -1.04912 0
M  V30 5177 H 485.315 6.45296 1.18019 0
M  V30 5178 H 485.232 7.55847 -0.152008 0
M  V30 5179 H 486.5 7.7273 1.02512 0
M  V30 5180 N 490.729 0.570148 1.46925 0
M  V30 5181 C 491.659 -0.158274 2.32963 0
M  V30 5182 C 492.64 -0.896093 1.44583 0
M  V30 5183 O 493.825 -0.874022 1.7342 0
M  V30 5184 C 490.955 -1.18055 3.26619 0
M  V30 5185 C 489.909 -0.558379 4.24342 0
M  V30 5186 C 489.235 -1.68623 5.07415 0
M  V30 5187 C 490.535 0.496295 5.19937 0
M  V30 5188 H 492.229 0.560046 2.94115 0
M  V30 5189 H 489.775 0.270775 1.41431 0
M  V30 5190 H 491.728 -1.69841 3.85658 0
M  V30 5191 H 490.452 -1.92899 2.63548 0
M  V30 5192 H 489.111 -0.0617157 3.66548 0
M  V30 5193 H 488.759 -2.42402 4.40738 0
M  V30 5194 H 488.459 -1.27564 5.73586 0
M  V30 5195 H 489.983 -2.20709 5.69315 0
M  V30 5196 H 491.397 0.0640052 5.73264 0
M  V30 5197 H 489.794 0.82649 5.94381 0
M  V30 5198 H 490.864 1.38735 4.6463 0
M  V30 5199 N 492.207 -1.54576 0.307264 0
M  V30 5200 C 493.618 -1.8579 -0.184121 0
M  V30 5201 C 493.969 -1.22914 -1.52927 0
M  V30 5202 O 493.094 -0.529126 -2.09831 0
M  V30 5203 C 493.689 -3.37081 -0.340862 0
M  V30 5204 C 492.248 -3.68304 -0.776465 0
M  V30 5205 C 491.395 -2.77076 0.111503 0
M  V30 5206 H 494.346 -1.49656 0.528078 0
M  V30 5207 H 494.367 -3.61922 -1.17443 0
M  V30 5208 H 493.879 -3.82815 0.638309 0
M  V30 5209 H 491.98 -3.28092 -1.76596 0
M  V30 5210 H 492.093 -4.75434 -0.591512 0
M  V30 5211 H 490.457 -2.51374 -0.410256 0
M  V30 5212 H 491.24 -3.25632 1.08714 0
M  V30 5213 N 493.685 -0.035106 -1.57561 0
M  V30 5214 C 494.595 0.960295 -2.14046 0
M  V30 5215 C 495.611 1.3529 -1.0942 0
M  V30 5216 O 496.787 1.43309 -1.41508 0
M  V30 5217 C 493.852 2.22214 -2.66124 0
M  V30 5218 C 492.913 1.8894 -3.85487 0
M  V30 5219 C 492.146 3.09109 -4.35072 0
M  V30 5220 O 492.369 4.21963 -3.83802 0
M  V30 5221 O 491.303 2.91058 -5.26848 0
M  V30 5222 H 495.129 0.509983 -2.99387 0
M  V30 5223 H 492.714 0.185853 -1.48239 0
M  V30 5224 H 494.596 2.96279 -2.99661 0
M  V30 5225 H 493.271 2.66414 -1.83862 0
M  V30 5226 H 492.178 1.12241 -3.56865 0
M  V30 5227 H 493.511 1.49551 -4.6893 0
M  V30 5228 N 495.163 1.55791 0.238111 0
M  V30 5229 C 496.574 1.68383 0.806472 0
M  V30 5230 C 496.925 0.634157 1.85669 0
M  V30 5231 O 496.05 -0.217913 2.153 0
M  V30 5232 C 496.645 3.05268 1.46959 0
M  V30 5233 C 495.204 3.1977 1.98555 0
M  V30 5234 C 494.351 2.64279 0.839763 0
M  V30 5235 H 497.302 1.58694 0.0137535 0
M  V30 5236 H 497.323 3.00203 2.33792 0
M  V30 5237 H 496.835 3.81643 0.704993 0
M  V30 5238 H 494.936 2.48234 2.77868 0
M  V30 5239 H 495.049 4.26788 2.17689 0
M  V30 5240 H 493.413 2.22329 1.24265 0
M  V30 5241 H 494.196 3.43187 0.0881032 0
M  V30 5242 N 496.642 -0.504142 1.49319 0
M  V30 5243 C 497.888 -1.26033 1.58882 0
M  V30 5244 C 498.221 -1.92268 0.273274 0
M  V30 5245 O 497.496 -1.80567 -0.72291 0
M  V30 5246 C 497.779 -2.32976 2.7458 0
M  V30 5247 C 497.632 -1.71263 4.1592 0
M  V30 5248 C 498.951 -3.34561 2.85932 0
M  V30 5249 H 496.07 -0.456863 0.578312 0
M  V30 5250 H 498.712 -0.558965 1.81592 0
M  V30 5251 H 496.862 -2.92796 2.55348 0
M  V30 5252 H 498.534 -1.15294 4.4666 0
M  V30 5253 H 496.777 -1.01686 4.21714 0
M  V30 5254 H 497.448 -2.48816 4.92742 0
M  V30 5255 H 499.924 -2.84727 3.0343 0
M  V30 5256 H 498.8 -4.06754 3.68568 0
M  V30 5257 H 499.061 -3.96695 1.95154 0
M  V30 5258 N 498.12 -1.38341 -0.754957 0
M  V30 5259 C 499.067 -1.3546 -1.86867 0
M  V30 5260 C 500.037 -0.217369 -1.64672 0
M  V30 5261 O 501.222 -0.409383 -1.86356 0
M  V30 5262 C 498.362 -1.18413 -3.24149 0
M  V30 5263 C 497.475 -2.41511 -3.58185 0
M  V30 5264 C 496.61 -2.17205 -4.84763 0
M  V30 5265 C 495.649 -3.36081 -5.11582 0
M  V30 5266 N 494.786 -3.11219 -6.29354 0
M  V30 5267 H 499.626 -2.30672 -1.88664 0
M  V30 5268 H 497.163 -1.14607 -0.922154 0
M  V30 5269 H 499.121 -1.06545 -4.03366 0
M  V30 5270 H 497.751 -0.268397 -3.21682 0
M  V30 5271 H 496.803 -2.64056 -2.73822 0
M  V30 5272 H 498.115 -3.30115 -3.73932 0
M  V30 5273 H 497.269 -2.02465 -5.7192 0
M  V30 5274 H 496.008 -1.25964 -4.71152 0
M  V30 5275 H 495.013 -3.51341 -4.22894 0
M  V30 5276 H 496.238 -4.28196 -5.27091 0
M  V30 5277 H 494.184 -2.22624 -6.17069 0
M  V30 5278 H 494.101 -3.93373 -6.45596 0
M  V30 5279 H 495.369 -3.00132 -7.19403 0
M  V30 5280 N 499.598 0.982988 -1.23187 0
M  V30 5281 C 500.561 2.05649 -1.01198 0
M  V30 5282 C 501.561 1.6078 0.0252464 0
M  V30 5283 O 502.751 1.72878 -0.214243 0
M  V30 5284 C 499.883 3.36744 -0.530656 0
M  V30 5285 H 501.076 2.2659 -1.96461 0
M  V30 5286 H 498.629 1.15602 -1.05195 0
M  V30 5287 H 499.364 3.21492 0.425873 0
M  V30 5288 H 499.149 3.7065 -1.2791 0
M  V30 5289 H 500.639 4.15705 -0.397366 0
M  V30 5290 N 501.076 1.04316 1.18135 0
M  V30 5291 C 502.301 0.768047 1.92655 0
M  V30 5292 C 502.726 -0.66904 1.758 0
M  V30 5293 O 502.084 -1.46372 1.06981 0
M  V30 5294 C 502.132 1.14239 3.42026 0
M  V30 5295 O 501.236 0.269333 4.1152 0
M  V30 5296 H 500.577 0.282436 0.600937 0
M  V30 5297 H 503.107 1.39367 1.49793 0
M  V30 5298 H 503.117 1.10538 3.92741 0
M  V30 5299 H 501.792 2.18928 3.53615 0
M  V30 5300 H 500.369 0.366175 3.71098 0
M  V30 5301 N 502.554 -1.34406 0.822964 0
M  V30 5302 C 503.464 -2.33298 0.246838 0
M  V30 5303 C 504.48 -1.62625 -0.618797 0
M  V30 5304 O 505.656 -1.94391 -0.526685 0
M  V30 5305 C 502.721 -3.41785 -0.581731 0
M  V30 5306 C 501.782 -4.28206 0.306309 0
M  V30 5307 C 501.015 -5.31512 -0.48281 0
M  V30 5308 O 501.238 -5.43973 -1.71607 0
M  V30 5309 O 500.172 -6.01749 0.134884 0
M  V30 5310 H 503.998 -2.84401 1.06534 0
M  V30 5311 H 501.583 -1.37466 0.585108 0
M  V30 5312 H 503.465 -4.08028 -1.05313 0
M  V30 5313 H 502.14 -2.92925 -1.37756 0
M  V30 5314 H 501.047 -3.64885 0.825199 0
M  V30 5315 H 502.38 -4.80507 1.06649 0
M  V30 5316 N 504.032 -0.577932 -1.46621 0
M  V30 5317 C 504.995 0.147805 -2.28723 0
M  V30 5318 C 505.995 0.823325 -1.38123 0
M  V30 5319 O 507.185 0.676011 -1.60548 0
M  V30 5320 C 504.317 1.21853 -3.18378 0
M  V30 5321 H 505.51 -0.573654 -2.94362 0
M  V30 5322 H 503.063 -0.335703 -1.52652 0
M  V30 5323 H 503.798 1.97173 -2.57475 0
M  V30 5324 H 503.583 0.738714 -3.85078 0
M  V30 5325 H 505.073 1.72768 -3.80186 0
M  V30 5326 N 505.51 1.54411 -0.315457 0
M  V30 5327 C 506.473 2.22713 0.54142 0
M  V30 5328 C 507.473 1.2179 1.04995 0
M  V30 5329 O 508.663 1.46426 0.943667 0
M  V30 5330 C 505.795 2.92485 1.75116 0
M  V30 5331 H 506.988 2.99849 -0.0555508 0
M  V30 5332 H 504.541 1.56159 -0.0664453 0
M  V30 5333 H 505.276 2.19466 2.38758 0
M  V30 5334 H 505.061 3.66483 1.39401 0
M  V30 5335 H 506.551 3.44548 2.35959 0
M  V30 5336 N 506.988 0.0434614 1.5754 0
M  V30 5337 C 507.951 -0.918696 2.09982 0
M  V30 5338 C 508.951 -1.24488 1.01781 0
M  V30 5339 O 510.141 -1.18284 1.27885 0
M  V30 5340 C 507.273 -2.23093 2.57764 0
M  V30 5341 H 508.466 -0.464229 2.96285 0
M  V30 5342 H 506.019 -0.204818 1.54952 0
M  V30 5343 H 506.754 -2.73137 1.74832 0
M  V30 5344 H 506.539 -2.00724 3.36827 0
M  V30 5345 H 508.029 -2.92028 2.98512 0
M  V30 5346 N 508.466 -1.55915 -0.229846 0
M  V30 5347 C 509.413 -1.91734 -1.28478 0
M  V30 5348 C 510.383 -0.773539 -1.46988 0
M  V30 5349 O 511.568 -1.02871 -1.60693 0
M  V30 5350 C 508.708 -2.23224 -2.63182 0
M  V30 5351 C 507.821 -3.50497 -2.52539 0
M  V30 5352 C 506.956 -3.71474 -3.79711 0
M  V30 5353 C 505.995 -4.92289 -3.63755 0
M  V30 5354 N 505.132 -5.09698 -4.82858 0
M  V30 5355 H 509.972 -2.81692 -0.972308 0
M  V30 5356 H 507.509 -1.39429 -0.468815 0
M  V30 5357 H 509.467 -2.3949 -3.41614 0
M  V30 5358 H 508.097 -1.36451 -2.92542 0
M  V30 5359 H 507.149 -3.4247 -1.65585 0
M  V30 5360 H 508.461 -4.39079 -2.36666 0
M  V30 5361 H 507.615 -3.87791 -4.66586 0
M  V30 5362 H 506.354 -2.81157 -3.985 0
M  V30 5363 H 505.359 -4.7593 -2.75264 0
M  V30 5364 H 506.584 -5.84083 -3.46445 0
M  V30 5365 H 504.53 -4.22322 -5.01976 0
M  V30 5366 H 504.447 -5.92399 -4.69681 0
M  V30 5367 H 505.715 -5.30443 -5.71183 0
M  V30 5368 N 509.944 0.496216 -1.49584 0
M  V30 5369 C 510.891 1.59722 -1.66606 0
M  V30 5370 C 511.861 1.58158 -0.507477 0
M  V30 5371 O 513.046 1.76072 -0.735076 0
M  V30 5372 C 510.186 2.97844 -1.74308 0
M  V30 5373 C 509.299 3.09388 -3.01502 0
M  V30 5374 C 508.434 4.38271 -3.00153 0
M  V30 5375 C 507.473 4.43466 -4.21906 0
M  V30 5376 N 506.61 5.63784 -4.1844 0
M  V30 5377 H 511.45 1.44515 -2.60613 0
M  V30 5378 H 508.987 0.703048 -1.29212 0
M  V30 5379 H 510.945 3.77907 -1.76754 0
M  V30 5380 H 509.575 3.11743 -0.837619 0
M  V30 5381 H 508.627 2.22357 -3.08645 0
M  V30 5382 H 509.939 3.09085 -3.91494 0
M  V30 5383 H 509.093 5.2666 -3.01188 0
M  V30 5384 H 507.832 4.41146 -2.07947 0
M  V30 5385 H 506.837 3.53478 -4.21109 0
M  V30 5386 H 508.062 4.42303 -5.1531 0
M  V30 5387 H 506.008 5.67491 -3.29074 0
M  V30 5388 H 505.925 5.65118 -5.02173 0
M  V30 5389 H 507.193 6.54367 -4.23585 0
M  V30 5390 N 511.423 1.38739 0.74761 0
M  V30 5391 C 512.651 1.38521 1.53686 0
M  V30 5392 C 513.066 -0.0235129 1.88785 0
M  V30 5393 O 512.423 -0.991662 1.53207 0
M  V30 5394 C 512.474 2.24641 2.83229 0
M  V30 5395 O 512.195 3.60026 2.49625 0
M  V30 5396 C 513.696 2.32669 3.77333 0
M  V30 5397 H 510.916 0.473589 0.475347 0
M  V30 5398 H 513.46 1.82395 0.924786 0
M  V30 5399 H 511.615 1.84213 3.40799 0
M  V30 5400 H 512.029 4.05435 3.3275 0
M  V30 5401 H 513.503 2.97201 4.65162 0
M  V30 5402 H 513.98 1.3421 4.18192 0
M  V30 5403 H 514.586 2.73512 3.25685 0
M  V30 5404 N 512.901 -0.976442 1.23707 0
M  V30 5405 C 513.833 -2.07212 0.979574 0
M  V30 5406 C 514.846 -1.6273 -0.0478528 0
M  V30 5407 O 516.035 -1.77506 0.18815 0
M  V30 5408 C 513.135 -3.35835 0.45479 0
M  V30 5409 C 512.308 -4.09268 1.54331 0
M  V30 5410 C 511.367 -5.16166 1.02271 0
M  V30 5411 O 510.393 -5.42827 1.71254 0
M  V30 5412 N 511.595 -5.80313 -0.147419 0
M  V30 5413 H 514.36 -2.29878 1.92292 0
M  V30 5414 H 511.921 -1.14343 1.14618 0
M  V30 5415 H 513.913 -4.04597 0.0914631 0
M  V30 5416 H 512.483 -3.10106 -0.394068 0
M  V30 5417 H 511.703 -3.34906 2.07923 0
M  V30 5418 H 512.991 -4.55095 2.27522 0
M  V30 5419 H 512.389 -5.61043 -0.724353 0
M  V30 5420 H 510.946 -6.50231 -0.451972 0
M  V30 5421 N 514.379 -1.04941 -1.1758 0
M  V30 5422 C 515.79 -0.784501 -1.69418 0
M  V30 5423 C 516.141 0.693625 -1.8353 0
M  V30 5424 O 515.266 1.53925 -1.52106 0
M  V30 5425 C 515.861 -1.41746 -3.07723 0
M  V30 5426 C 514.42 -1.20066 -3.56737 0
M  V30 5427 C 513.567 -1.5026 -2.33061 0
M  V30 5428 H 516.518 -1.21469 -1.02133 0
M  V30 5429 H 516.539 -0.825381 -3.7144 0
M  V30 5430 H 516.051 -2.49325 -2.9742 0
M  V30 5431 H 514.152 -0.144006 -3.72322 0
M  V30 5432 H 514.265 -1.90384 -4.39648 0
M  V30 5433 H 512.629 -0.922598 -2.37403 0
M  V30 5434 H 513.412 -2.58967 -2.25368 0
M  V30 5435 N 515.857 1.33968 -0.830081 0
M  V30 5436 C 516.804 2.29387 -0.255008 0
M  V30 5437 C 517.774 1.53923 0.624243 0
M  V30 5438 O 518.959 1.82262 0.564372 0
M  V30 5439 C 516.099 3.4034 0.571209 0
M  V30 5440 C 515.212 4.30729 -0.331083 0
M  V30 5441 C 514.347 5.2879 0.505389 0
M  V30 5442 C 513.386 6.10819 -0.395843 0
M  V30 5443 N 512.523 7.00948 0.401979 0
M  V30 5444 H 517.363 2.77972 -1.07404 0
M  V30 5445 H 514.9 1.36785 -0.541133 0
M  V30 5446 H 516.858 4.03361 1.06562 0
M  V30 5447 H 515.488 2.9297 1.35529 0
M  V30 5448 H 514.54 3.68507 -0.943759 0
M  V30 5449 H 515.852 4.88181 -1.02377 0
M  V30 5450 H 515.006 5.97297 1.06399 0
M  V30 5451 H 513.745 4.71894 1.23155 0
M  V30 5452 H 512.75 5.41238 -0.966529 0
M  V30 5453 H 513.975 6.69797 -1.12023 0
M  V30 5454 H 511.921 6.46512 1.11168 0
M  V30 5455 H 511.838 7.55643 -0.232167 0
M  V30 5456 H 513.106 7.73774 0.943102 0
M  V30 5457 N 517.335 0.585699 1.46312 0
M  V30 5458 C 518.298 -0.135673 2.28798 0
M  V30 5459 C 519.298 -0.815988 1.38558 0
M  V30 5460 O 520.488 -0.667487 1.60904 0
M  V30 5461 C 517.62 -1.20163 3.1902 0
M  V30 5462 H 518.813 0.589257 2.94054 0
M  V30 5463 H 516.366 0.343794 1.52472 0
M  V30 5464 H 517.101 -1.95804 2.58517 0
M  V30 5465 H 516.886 -0.718282 3.85465 0
M  V30 5466 H 518.376 -1.70749 3.81096 0
M  V30 5467 N 518.813 -1.54241 0.323641 0
M  V30 5468 C 520.229 -1.59574 -0.0290018 0
M  V30 5469 C 520.429 -1.34017 -1.50472 0
M  V30 5470 O 519.485 -1.12464 -2.26071 0
M  V30 5471 C 520.798 -2.98169 0.389295 0
M  V30 5472 C 522.346 -3.11148 0.339958 0
M  V30 5473 C 522.821 -4.5209 0.733418 0
M  V30 5474 N 524.312 -4.5808 0.686827 0
M  V30 5475 C 525.047 -5.65248 0.963464 0
M  V30 5476 N 524.543 -6.80355 1.30724 0
M  V30 5477 N 526.336 -5.55025 0.88902 0
M  V30 5478 H 518.487 -1.6911 1.28512 0
M  V30 5479 H 520.75 -0.790972 0.522558 0
M  V30 5480 H 520.456 -3.21871 1.41746 0
M  V30 5481 H 520.33 -3.76399 -0.245657 0
M  V30 5482 H 522.717 -2.87182 -0.679002 0
M  V30 5483 H 522.798 -2.35023 1.00985 0
M  V30 5484 H 522.442 -4.76788 1.75029 0
M  V30 5485 H 522.372 -5.26584 0.0412189 0
M  V30 5486 H 524.863 -3.75411 0.43298 0
M  V30 5487 H 525.176 -7.58029 1.5037 0
M  V30 5488 H 523.521 -6.81851 1.3455 0
M  V30 5489 H 526.712 -4.63977 0.619939 0
M  V30 5490 H 526.885 -6.38458 1.10797 0
M  V30 5491 N 520.291 -0.0518155 -1.57515 0
M  V30 5492 C 521.221 0.920283 -2.146 0
M  V30 5493 C 522.202 1.32406 -1.06783 0
M  V30 5494 O 523.387 1.39866 -1.34726 0
M  V30 5495 C 520.517 2.1949 -2.6915 0
M  V30 5496 C 519.471 1.93116 -3.81956 0
M  V30 5497 C 518.797 3.27037 -4.23026 0
M  V30 5498 C 520.097 1.25225 -5.07066 0
M  V30 5499 H 521.791 0.444801 -2.96077 0
M  V30 5500 H 519.337 0.212508 -1.42423 0
M  V30 5501 H 521.29 2.87894 -3.07725 0
M  V30 5502 H 520.014 2.69244 -1.84865 0
M  V30 5503 H 518.673 1.27123 -3.43854 0
M  V30 5504 H 518.321 3.74595 -3.3569 0
M  V30 5505 H 518.021 3.10189 -4.99056 0
M  V30 5506 H 519.545 3.96673 -4.64202 0
M  V30 5507 H 520.959 1.83666 -5.43083 0
M  V30 5508 H 519.356 1.18702 -5.88243 0
M  V30 5509 H 520.426 0.228382 -4.84362 0
M  V30 5510 N 521.769 1.56035 0.221574 0
M  V30 5511 C 522.997 1.8313 0.962864 0
M  V30 5512 C 523.412 0.630934 1.77946 0
M  V30 5513 O 522.769 -0.400519 1.78051 0
M  V30 5514 C 522.82 3.08742 1.88045 0
M  V30 5515 O 522.541 4.24147 1.09686 0
M  V30 5516 C 524.042 3.48824 2.73563 0
M  V30 5517 H 521.262 0.608775 0.282194 0
M  V30 5518 H 523.806 2.03124 0.23681 0
M  V30 5519 H 521.961 2.90723 2.56045 0
M  V30 5520 H 522.375 4.95505 1.71974 0
M  V30 5521 H 523.849 4.39752 3.3365 0
M  V30 5522 H 524.326 2.70575 3.45956 0
M  V30 5523 H 524.932 3.69282 2.10976 0
M  V30 5524 N 523.247 -0.488276 1.49845 0
M  V30 5525 C 524.524 -1.24959 1.50481 0
M  V30 5526 C 524.904 -2.09735 0.239698 0
M  V30 5527 O 524.252 -2.14865 -0.777524 0
M  V30 5528 C 524.462 -2.0954 2.79095 0
M  V30 5529 C 525.81 -2.68305 3.29086 0
M  V30 5530 O 526.834 -2.19797 2.80299 0
M  V30 5531 O 525.693 -3.56643 4.14087 0
M  V30 5532 H 522.787 -0.566133 0.602845 0
M  V30 5533 H 525.333 -0.501504 1.6212 0
M  V30 5534 H 524.105 -1.46958 3.62656 0
M  V30 5535 H 523.728 -2.91517 2.70377 0
M  V30 5536 N 524.725 -1.39134 -0.740242 0
M  V30 5537 C 526.136 -1.32208 -1.31825 0
M  V30 5538 C 526.487 0.0159919 -1.96193 0
M  V30 5539 O 525.612 0.918111 -1.95958 0
M  V30 5540 C 526.207 -2.39436 -2.39699 0
M  V30 5541 C 524.766 -2.36048 -2.93187 0
M  V30 5542 C 523.913 -2.21599 -1.66701 0
M  V30 5543 H 526.864 -1.49298 -0.538133 0
M  V30 5544 H 526.885 -2.05922 -3.19963 0
M  V30 5545 H 526.397 -3.36811 -1.92821 0
M  V30 5546 H 524.498 -1.42295 -3.44359 0
M  V30 5547 H 524.611 -3.30704 -3.46658 0
M  V30 5548 H 522.975 -1.68681 -1.90837 0
M  V30 5549 H 523.758 -3.20936 -1.21882 0
M  V30 5550 N 526.204 0.969867 -1.24223 0
M  V30 5551 C 527.453 1.70687 -1.07466 0
M  V30 5552 C 527.766 1.91736 0.386861 0
M  V30 5553 O 528.972 2.62986 0.674581 0
M  V30 5554 C 527.428 3.07217 -1.87472 0
M  V30 5555 C 527.036 2.94018 -3.3802 0
M  V30 5556 C 528.78 3.84804 -1.79237 0
M  V30 5557 C 526.687 4.25844 -4.10379 0
M  V30 5558 H 525.617 0.640067 -0.398536 0
M  V30 5559 H 528.268 1.08092 -1.48285 0
M  V30 5560 H 526.65 3.70628 -1.39466 0
M  V30 5561 H 527.824 2.39632 -3.9359 0
M  V30 5562 H 526.139 2.29898 -3.47183 0
M  V30 5563 H 528.736 4.82417 -2.30603 0
M  V30 5564 H 529.079 4.09356 -0.757197 0
M  V30 5565 H 529.612 3.28115 -2.24912 0
M  V30 5566 H 526.351 4.06486 -5.14246 0
M  V30 5567 H 525.871 4.80054 -3.59594 0
M  V30 5568 H 527.55 4.94475 -4.17257 0
M  V30 5569 N 527.682 1.05563 1.17022 0
M  V30 5570 C 529.093 0.793475 1.69 0
M  V30 5571 C 529.444 -0.683882 1.83895 0
M  V30 5572 O 528.569 -1.53116 1.5292 0
M  V30 5573 C 529.164 1.43376 3.06967 0
M  V30 5574 C 527.723 1.21956 3.56095 0
M  V30 5575 C 526.87 1.51494 2.3226 0
M  V30 5576 H 529.821 1.22008 1.01487 0
M  V30 5577 H 529.842 0.845068 3.70997 0
M  V30 5578 H 529.354 2.50899 2.96093 0
M  V30 5579 H 527.455 0.163749 3.7224 0
M  V30 5580 H 527.568 1.92713 4.38633 0
M  V30 5581 H 525.932 0.935175 2.3691 0
M  V30 5582 H 526.715 2.60159 2.23992 0
M  V30 5583 N 529.16 -1.33526 0.837174 0
M  V30 5584 C 530.388 -2.02047 0.445494 0
M  V30 5585 C 530.803 -1.62995 -0.952788 0
M  V30 5586 O 530.16 -0.842447 -1.61892 0
M  V30 5587 C 530.211 -3.57221 0.554577 0
M  V30 5588 O 529.932 -3.94863 1.89776 0
M  V30 5589 C 531.433 -4.43012 0.159634 0
M  V30 5590 H 528.653 -0.647221 0.177048 0
M  V30 5591 H 531.197 -1.70492 1.12928 0
M  V30 5592 H 529.352 -3.87315 -0.0812781 0
M  V30 5593 H 529.766 -4.89569 1.88208 0
M  V30 5594 H 531.24 -5.51253 0.28701 0
M  V30 5595 H 531.717 -4.29916 -0.898289 0
M  V30 5596 H 532.323 -4.18274 0.769855 0
M  V30 5597 N 530.638 -0.59345 -1.46 0
M  V30 5598 C 531.866 -0.0890934 -2.06708 0
M  V30 5599 C 532.281 1.2205 -1.44046 0
M  V30 5600 O 531.638 1.74029 -0.549551 0
M  V30 5601 C 531.689 0.0720263 -3.61428 0
M  V30 5602 O 531.41 -1.18574 -4.21748 0
M  V30 5603 C 532.911 0.609487 -4.3909 0
M  V30 5604 H 530.131 -0.0623628 -0.668096 0
M  V30 5605 H 532.675 -0.817171 -1.87464 0
M  V30 5606 H 530.83 0.750369 -3.80063 0
M  V30 5607 H 531.244 -1.0064 -5.14754 0
M  V30 5608 H 532.718 0.671363 -5.47902 0
M  V30 5609 H 533.195 1.62878 -4.07882 0
M  V30 5610 H 533.801 -0.03434 -4.25286 0
M  V30 5611 N 532.116 1.54067 -0.331816 0
M  V30 5612 C 533.026 2.28322 0.539104 0
M  V30 5613 C 534.042 1.32985 1.1221 0
M  V30 5614 O 535.218 1.6601 1.1403 0
M  V30 5615 C 532.283 3.03277 1.68 0
M  V30 5616 C 531.344 4.14216 1.12798 0
M  V30 5617 C 530.577 4.85588 2.2145 0
M  V30 5618 O 530.8 4.56536 3.41952 0
M  V30 5619 O 529.734 5.72309 1.86404 0
M  V30 5620 H 533.56 3.03632 -0.0641692 0
M  V30 5621 H 531.145 1.49083 -0.0972365 0
M  V30 5622 H 533.027 3.50189 2.34405 0
M  V30 5623 H 531.702 2.30834 2.2693 0
M  V30 5624 H 530.609 3.71635 0.428782 0
M  V30 5625 H 531.942 4.88727 0.583698 0
M  V30 5626 N 533.594 0.0601682 1.57485 0
M  V30 5627 C 534.822 -0.620937 1.97363 0
M  V30 5628 C 535.237 -1.63846 0.938082 0
M  V30 5629 O 534.594 -1.82339 -0.0766578 0
M  V30 5630 C 534.645 -1.29987 3.37321 0
M  V30 5631 O 534.366 -0.323081 4.36907 0
M  V30 5632 C 535.867 -2.06989 3.92008 0
M  V30 5633 H 533.087 -0.169135 0.649334 0
M  V30 5634 H 535.631 0.129132 2.04092 0
M  V30 5635 H 533.786 -2.0011 3.31715 0
M  V30 5636 H 534.2 -0.808754 5.18227 0
M  V30 5637 H 535.674 -2.49901 4.92192 0
M  V30 5638 H 536.151 -2.92173 3.2792 0
M  V30 5639 H 536.757 -1.41757 4.0098 0
M  V30 5640 N 535.072 -1.5615 -0.213296 0
M  V30 5641 C 536.297 -1.83986 -0.957282 0
M  V30 5642 C 536.722 -0.641526 -1.76822 0
M  V30 5643 O 536.08 0.409722 -1.7661 0
M  V30 5644 C 536.128 -3.09889 -1.84393 0
M  V30 5645 O 535.232 -2.89163 -2.94038 0
M  V30 5646 H 534.573 -0.606357 -0.270605 0
M  V30 5647 H 537.103 -2.03369 -0.224111 0
M  V30 5648 H 537.113 -3.40209 -2.25215 0
M  V30 5649 H 535.788 -3.96735 -1.24795 0
M  V30 5650 H 534.365 -2.70097 -2.57103 0
M  V30 5651 N 536.55 0.480323 -1.50102 0
M  V30 5652 C 537.799 1.22979 -1.59872 0
M  V30 5653 C 538.112 1.93282 -0.30022 0
M  V30 5654 O 539.318 2.70086 -0.276709 0
M  V30 5655 C 537.774 2.23408 -2.82164 0
M  V30 5656 C 537.382 1.5895 -4.18854 0
M  V30 5657 C 539.126 2.99055 -3.01275 0
M  V30 5658 C 537.033 2.57611 -5.32344 0
M  V30 5659 H 535.963 0.462707 -0.59533 0
M  V30 5660 H 538.614 0.501291 -1.7652 0
M  V30 5661 H 536.996 2.99511 -2.59055 0
M  V30 5662 H 538.17 0.887 -4.52182 0
M  V30 5663 H 536.485 0.956191 -4.05273 0
M  V30 5664 H 539.082 3.72876 -3.83233 0
M  V30 5665 H 539.425 3.57897 -2.12639 0
M  V30 5666 H 539.958 2.30066 -3.24522 0
M  V30 5667 H 536.697 2.03521 -6.23105 0
M  V30 5668 H 536.217 3.26041 -5.03445 0
M  V30 5669 H 537.896 3.19627 -5.62537 0
M  V30 5670 N 538.028 1.39524 0.732853 0
M  V30 5671 C 538.991 1.38189 1.82857 0
M  V30 5672 C 539.991 0.278624 1.58368 0
M  V30 5673 O 541.181 0.536639 1.65728 0
M  V30 5674 C 538.313 1.15661 3.2068 0
M  V30 5675 H 539.506 2.35692 1.85444 0
M  V30 5676 H 537.059 1.2512 0.936728 0
M  V30 5677 H 537.794 0.188482 3.23752 0
M  V30 5678 H 537.579 1.95559 3.39852 0
M  V30 5679 H 539.069 1.17472 4.00737 0
M  V30 5680 N 539.506 -0.963266 1.24736 0
M  V30 5681 C 540.917 -1.52145 1.08207 0
M  V30 5682 C 541.268 -1.93142 -0.345061 0
M  V30 5683 O 540.393 -1.77769 -1.23399 0
M  V30 5684 C 540.988 -2.76486 1.95808 0
M  V30 5685 C 539.547 -3.28646 1.8349 0
M  V30 5686 C 538.694 -2.01529 1.90476 0
M  V30 5687 H 541.645 -0.781083 1.38148 0
M  V30 5688 H 541.666 -3.49986 1.49297 0
M  V30 5689 H 541.178 -2.46617 2.99669 0
M  V30 5690 H 539.279 -3.63357 0.824787 0
M  V30 5691 H 539.392 -3.97246 2.67829 0
M  V30 5692 H 537.756 -2.16442 1.34258 0
M  V30 5693 H 538.539 -1.7402 2.95926 0
M  V30 5694 N 540.985 -1.06182 -1.16461 0
M  V30 5695 C 542.401 -0.785065 -1.38956 0
M  V30 5696 C 542.601 0.616103 -1.9185 0
M  V30 5697 O 541.657 1.37686 -2.11657 0
M  V30 5698 C 542.97 -1.84902 -2.37132 0
M  V30 5699 C 544.518 -1.8724 -2.50819 0
M  V30 5700 C 544.993 -2.92686 -3.52277 0
M  V30 5701 N 546.484 -2.91712 -3.59803 0
M  V30 5702 C 547.219 -3.69949 -4.38093 0
M  V30 5703 N 546.715 -4.58 -5.19815 0
M  V30 5704 N 548.508 -3.58346 -4.33064 0
M  V30 5705 H 540.659 -1.96569 -0.804634 0
M  V30 5706 H 542.922 -0.851747 -0.416211 0
M  V30 5707 H 542.628 -2.85518 -2.0536 0
M  V30 5708 H 542.502 -1.69908 -3.36766 0
M  V30 5709 H 544.889 -0.872827 -2.81897 0
M  V30 5710 H 544.97 -2.06311 -1.51226 0
M  V30 5711 H 544.614 -3.92835 -3.21937 0
M  V30 5712 H 544.544 -2.70864 -4.51598 0
M  V30 5713 H 547.035 -2.27876 -3.01464 0
M  V30 5714 H 547.348 -5.14357 -5.76764 0
M  V30 5715 H 545.693 -4.62056 -5.19162 0
M  V30 5716 H 548.884 -2.88943 -3.68279 0
M  V30 5717 H 549.057 -4.19563 -4.93833 0
M  V30 5718 N 542.463 1.3308 -0.844243 0
M  V30 5719 C 543.395 2.27954 -0.238671 0
M  V30 5720 C 544.408 1.51978 0.583665 0
M  V30 5721 O 545.597 1.73731 0.409857 0
M  V30 5722 C 542.697 3.31963 0.682185 0
M  V30 5723 C 541.87 4.37281 -0.101998 0
M  V30 5724 C 540.929 5.20928 0.743022 0
M  V30 5725 O 539.955 5.68914 0.180285 0
M  V30 5726 N 541.157 5.42738 2.0595 0
M  V30 5727 H 543.922 2.8056 -1.05386 0
M  V30 5728 H 541.483 1.4583 -0.70322 0
M  V30 5729 H 543.475 3.84828 1.25259 0
M  V30 5730 H 542.045 2.79594 1.39808 0
M  V30 5731 H 541.265 3.84843 -0.853802 0
M  V30 5732 H 542.553 5.04746 -0.641015 0
M  V30 5733 H 541.951 5.05463 2.54016 0
M  V30 5734 H 540.508 5.98639 2.57827 0
M  V30 5735 N 543.941 0.601185 1.45683 0
M  V30 5736 C 545.357 0.264315 1.57396 0
M  V30 5737 C 545.557 -1.23324 1.59353 0
M  V30 5738 O 544.613 -2.01594 1.52039 0
M  V30 5739 C 545.926 0.929839 2.85962 0
M  V30 5740 C 547.474 0.905156 2.99626 0
M  V30 5741 C 547.949 1.55057 4.30954 0
M  V30 5742 N 549.44 1.51576 4.37697 0
M  V30 5743 C 550.175 1.98436 5.37969 0
M  V30 5744 N 549.671 2.53352 6.44813 0
M  V30 5745 N 551.464 1.89242 5.29286 0
M  V30 5746 H 543.615 1.57363 1.42656 0
M  V30 5747 H 545.878 0.658831 0.681649 0
M  V30 5748 H 545.584 1.98404 2.90394 0
M  V30 5749 H 545.458 0.449224 3.74515 0
M  V30 5750 H 547.845 -0.14048 2.94765 0
M  V30 5751 H 547.926 1.42397 2.12501 0
M  V30 5752 H 547.57 2.5955 4.36573 0
M  V30 5753 H 547.5 1.00682 5.16886 0
M  V30 5754 H 549.991 1.11452 3.61091 0
M  V30 5755 H 550.304 2.86918 7.17564 0
M  V30 5756 H 548.649 2.57388 6.45582 0
M  V30 5757 H 551.84 1.46083 4.44722 0
M  V30 5758 H 552.013 2.26075 6.07284 0
M  V30 5759 N 545.419 -1.53889 0.339982 0
M  V30 5760 C 546.83 -1.86139 -0.144671 0
M  V30 5761 C 547.181 -1.2613 -1.50285 0
M  V30 5762 O 546.306 -0.573515 -2.08662 0
M  V30 5763 C 546.901 -3.37728 -0.269285 0
M  V30 5764 C 545.46 -3.69868 -0.698168 0
M  V30 5765 C 544.607 -2.76777 0.170249 0
M  V30 5766 H 547.558 -1.48503 0.559704 0
M  V30 5767 H 547.579 -3.64331 -1.0974 0
M  V30 5768 H 547.091 -3.81375 0.719366 0
M  V30 5769 H 545.192 -3.31764 -1.69597 0
M  V30 5770 H 545.305 -4.76582 -0.490533 0
M  V30 5771 H 543.669 -2.52188 -0.356844 0
M  V30 5772 H 544.452 -3.23253 1.15597 0
M  V30 5773 N 546.897 -0.0685191 -1.57451 0
M  V30 5774 C 547.844 0.899861 -2.12535 0
M  V30 5775 C 548.814 1.29749 -1.03703 0
M  V30 5776 O 549.999 1.38392 -1.31348 0
M  V30 5777 C 547.139 2.16328 -2.6888 0
M  V30 5778 C 546.252 1.81857 -3.91857 0
M  V30 5779 C 545.387 3.02786 -4.36457 0
M  V30 5780 C 544.426 2.64317 -5.5209 0
M  V30 5781 N 543.563 3.77994 -5.91663 0
M  V30 5782 H 548.403 0.423243 -2.94979 0
M  V30 5783 H 545.94 0.197268 -1.45771 0
M  V30 5784 H 547.898 2.90281 -2.99655 0
M  V30 5785 H 546.528 2.61536 -1.89206 0
M  V30 5786 H 545.58 0.979808 -3.67565 0
M  V30 5787 H 546.892 1.49553 -4.75852 0
M  V30 5788 H 546.046 3.85021 -4.68875 0
M  V30 5789 H 544.785 3.38281 -3.51308 0
M  V30 5790 H 543.79 1.80503 -5.19325 0
M  V30 5791 H 545.015 2.29995 -6.38967 0
M  V30 5792 H 542.961 4.13258 -5.09464 0
M  V30 5793 H 542.878 3.49447 -6.7039 0
M  V30 5794 H 544.146 4.60818 -6.28703 0
M  V30 5795 N 548.375 1.56261 0.205012 0
M  V30 5796 C 549.338 1.92908 1.23771 0
M  V30 5797 C 550.338 0.809208 1.38955 0
M  V30 5798 O 551.528 1.07676 1.36936 0
M  V30 5799 C 548.66 2.19442 2.60879 0
M  V30 5800 H 549.853 2.85287 0.924728 0
M  V30 5801 H 547.406 1.49798 0.446125 0
M  V30 5802 H 548.141 1.29668 2.97248 0
M  V30 5803 H 547.926 3.0104 2.51232 0
M  V30 5804 H 549.416 2.48833 3.35368 0
M  V30 5805 N 549.853 -0.472356 1.50355 0
M  V30 5806 C 551.101 -1.22211 1.60962 0
M  V30 5807 C 551.422 -1.92497 0.311439 0
M  V30 5808 O 550.692 -1.8405 -0.671002 0
M  V30 5809 H 549.272 -0.454092 0.593135 0
M  V30 5810 H 551.934 -0.544977 1.87126 0
M  V30 5811 H 551.03 -1.9707 2.42012 0
M  V30 5812 N 551.331 -1.39911 -0.725443 0
M  V30 5813 C 552.263 -1.35301 -1.85003 0
M  V30 5814 C 553.276 -0.260102 -1.60709 0
M  V30 5815 O 554.465 -0.519749 -1.70766 0
M  V30 5816 C 551.565 -1.08039 -3.21218 0
M  V30 5817 C 550.738 -2.28793 -3.7279 0
M  V30 5818 C 549.797 -1.97841 -4.87591 0
M  V30 5819 O 548.823 -2.70616 -5.00755 0
M  V30 5820 N 550.025 -0.950367 -5.72668 0
M  V30 5821 H 552.79 -2.32218 -1.89459 0
M  V30 5822 H 550.351 -1.34137 -0.90658 0
M  V30 5823 H 552.343 -0.853354 -3.95601 0
M  V30 5824 H 550.913 -0.198229 -3.11971 0
M  V30 5825 H 550.133 -2.67388 -2.8965 0
M  V30 5826 H 551.421 -3.09317 -4.03981 0
M  V30 5827 H 550.819 -0.347436 -5.64632 0
M  V30 5828 H 549.376 -0.783232 -6.47077 0
M  V30 5829 N 552.809 0.956637 -1.25245 0
M  V30 5830 C 554.037 1.73571 -1.12608 0
M  V30 5831 C 554.452 1.86063 0.320324 0
M  V30 5832 O 553.809 1.35691 1.22042 0
M  V30 5833 C 553.86 3.15053 -1.77268 0
M  V30 5834 O 553.581 3.03174 -3.16255 0
M  V30 5835 C 555.082 4.09248 -1.70386 0
M  V30 5836 H 552.302 0.543955 -0.392879 0
M  V30 5837 H 554.846 1.20031 -1.65568 0
M  V30 5838 H 553.001 3.65543 -1.28284 0
M  V30 5839 H 553.415 3.9241 -3.48015 0
M  V30 5840 H 554.889 5.06138 -2.20291 0
M  V30 5841 H 555.366 4.34102 -0.667239 0
M  V30 5842 H 555.972 3.64672 -2.18849 0
M  V30 5843 N 554.287 1.06798 1.15896 0
M  V30 5844 C 555.219 0.641263 2.20046 0
M  V30 5845 C 556.232 -0.303355 1.59949 0
M  V30 5846 O 557.421 -0.0935478 1.78255 0
M  V30 5847 C 554.521 -0.0794029 3.38807 0
M  V30 5848 C 553.694 0.879986 4.28457 0
M  V30 5849 C 552.753 0.197638 5.25829 0
M  V30 5850 O 551.779 0.836913 5.63014 0
M  V30 5851 N 552.981 -1.05886 5.70761 0
M  V30 5852 H 555.746 1.53718 2.57276 0
M  V30 5853 H 553.307 0.951951 1.30956 0
M  V30 5854 H 555.299 -0.546418 4.00994 0
M  V30 5855 H 553.869 -0.877193 3.0004 0
M  V30 5856 H 553.089 1.52625 3.63454 0
M  V30 5857 H 554.377 1.53065 4.8523 0
M  V30 5858 H 553.775 -1.59828 5.42652 0
M  V30 5859 H 552.332 -1.46965 6.35015 0
M  V30 5860 N 555.766 -1.3263 0.851289 0
M  V30 5861 C 557.177 -1.79653 0.5081 0
M  V30 5862 C 557.528 -1.70327 -0.973815 0
M  V30 5863 O 556.653 -1.25986 -1.75944 0
M  V30 5864 C 557.248 -3.26196 0.915515 0
M  V30 5865 C 555.807 -3.71187 0.624277 0
M  V30 5866 C 554.954 -2.53804 1.11709 0
M  V30 5867 H 557.905 -1.19976 1.03882 0
M  V30 5868 H 557.926 -3.79801 0.230535 0
M  V30 5869 H 557.438 -3.32952 1.99411 0
M  V30 5870 H 555.539 -3.69948 -0.443737 0
M  V30 5871 H 555.652 -4.64132 1.18821 0
M  V30 5872 H 554.016 -2.48964 0.537484 0
M  V30 5873 H 554.799 -2.63315 2.20272 0
M  V30 5874 N 557.244 -0.608902 -1.45362 0
M  V30 5875 C 558.192 0.121639 -2.32282 0
M  V30 5876 C 559.186 0.858301 -1.46046 0
M  V30 5877 O 560.392 0.773718 -1.62523 0
M  V30 5878 H 556.767 0.058086 -0.749753 0
M  V30 5879 H 558.738 -0.629866 -2.91677 0
M  V30 5880 C 557.487 1.1047 -3.29684 0
M  V30 5881 H 556.81 0.547278 -3.96036 0
M  V30 5882 H 558.25 1.58576 -3.9323 0
M  V30 5883 C 556.709 2.17891 -2.56954 0
M  V30 5884 O 557.239 3.25652 -2.35189 0
M  V30 5885 N 555.445 1.93211 -2.17066 0
M  V30 5886 H 554.992 1.05584 -2.34967 0
M  V30 5887 H 554.95 2.6529 -1.68727 0
M  V30 5888 N 558.722 1.53707 -0.348139 0
M  V30 5889 C 560.133 1.86213 0.134797 0
M  V30 5890 C 560.484 1.26925 1.49614 0
M  V30 5891 O 559.609 0.584573 2.08355 0
M  V30 5892 C 560.204 3.37866 0.251371 0
M  V30 5893 C 558.763 3.70233 0.678543 0
M  V30 5894 C 557.91 2.76683 -0.184925 0
M  V30 5895 H 560.861 1.48204 -0.567571 0
M  V30 5896 H 560.882 3.64908 1.07806 0
M  V30 5897 H 560.394 3.80988 -0.739581 0
M  V30 5898 H 558.495 3.32659 1.67835 0
M  V30 5899 H 558.608 4.76836 0.465251 0
M  V30 5900 H 556.972 2.52374 0.343465 0
M  V30 5901 H 557.755 3.22635 -1.1731 0
M  V30 5902 N 560.2 0.0768682 1.57412 0
M  V30 5903 C 561.448 -0.589918 1.93299 0
M  V30 5904 C 561.769 -1.69842 0.958049 0
M  V30 5905 O 561.039 -1.95899 0.00703261 0
M  V30 5906 H 559.619 -0.220901 0.713591 0
M  V30 5907 H 562.281 0.135917 1.94425 0
M  V30 5908 H 561.377 -1.01195 2.95239 0
M  V30 5909 N 561.678 -1.56367 -0.196722 0
M  V30 5910 C 562.927 -1.79724 -0.915539 0
M  V30 5911 C 563.24 -0.649804 -1.84491 0
M  V30 5912 O 564.446 -0.767631 -2.60422 0
M  V30 5913 C 562.902 -3.18369 -1.67836 0
M  V30 5914 C 562.51 -4.4091 -0.793897 0
M  V30 5915 C 564.254 -3.51037 -2.38691 0
M  V30 5916 C 562.161 -5.70577 -1.55549 0
M  V30 5917 H 561.091 -0.67013 -0.345604 0
M  V30 5918 H 563.742 -1.82721 -0.168856 0
M  V30 5919 H 562.124 -3.09617 -2.46887 0
M  V30 5920 H 563.298 -4.60781 -0.042163 0
M  V30 5921 H 561.613 -4.15937 -0.19626 0
M  V30 5922 H 564.21 -4.4515 -2.96219 0
M  V30 5923 H 564.553 -2.74704 -3.12799 0
M  V30 5924 H 565.086 -3.61229 -1.66608 0
M  V30 5925 H 561.825 -6.49871 -0.857226 0
M  V30 5926 H 561.345 -5.54726 -2.2812 0
M  V30 5927 H 563.024 -6.11637 -2.10971 0
M  V30 5928 N 563.156 0.464375 -1.50603 0
M  V30 5929 C 564.086 1.56944 -1.72889 0
M  V30 5930 C 565.067 1.59979 -0.577997 0
M  V30 5931 O 566.252 1.76138 -0.817855 0
M  V30 5932 C 563.382 2.95225 -1.8292 0
M  V30 5933 C 562.336 3.07056 -2.98162 0
M  V30 5934 C 561.662 4.47051 -2.93343 0
M  V30 5935 C 562.962 2.83648 -4.38567 0
M  V30 5936 H 564.656 1.38547 -2.65415 0
M  V30 5937 H 562.202 0.665082 -1.27721 0
M  V30 5938 H 564.155 3.72467 -1.97095 0
M  V30 5939 H 562.879 3.14793 -0.870209 0
M  V30 5940 H 561.538 2.32248 -2.83648 0
M  V30 5941 H 561.186 4.63547 -1.95276 0
M  V30 5942 H 560.886 4.55902 -3.70712 0
M  V30 5943 H 562.41 5.26304 -3.09575 0
M  V30 5944 H 563.824 3.50636 -4.53572 0
M  V30 5945 H 562.221 3.03937 -5.17438 0
M  V30 5946 H 563.291 1.79451 -4.50472 0
M  V30 5947 N 564.634 1.40294 0.718013 0
M  V30 5948 C 566.045 1.34289 1.29705 0
M  V30 5949 C 566.396 0.0152228 1.96194 0
M  V30 5950 O 565.521 -0.88682 1.97394 0
M  V30 5951 C 566.116 2.43219 2.3586 0
M  V30 5952 C 564.675 2.40682 2.89394 0
M  V30 5953 C 563.822 2.24223 1.63154 0
M  V30 5954 H 566.773 1.50135 0.514312 0
M  V30 5955 H 566.794 2.10986 3.16647 0
M  V30 5956 H 566.306 3.39836 1.87439 0
M  V30 5957 H 564.407 1.47756 3.42051 0
M  V30 5958 H 564.52 3.36177 3.41353 0
M  V30 5959 H 562.884 1.71696 1.88129 0
M  V30 5960 H 563.667 3.22834 1.16761 0
M  V30 5961 N 566.112 -0.949982 1.2575 0
M  V30 5962 C 567.361 -1.68956 1.10168 0
M  V30 5963 C 567.674 -1.92327 -0.356309 0
M  V30 5964 O 568.88 -2.64026 -0.632657 0
M  V30 5965 C 567.336 -3.04196 1.92336 0
M  V30 5966 C 566.944 -2.88603 3.42655 0
M  V30 5967 C 568.688 -3.81904 1.85336 0
M  V30 5968 C 566.595 -4.19262 4.17101 0
M  V30 5969 H 565.525 -0.633645 0.408668 0
M  V30 5970 H 568.176 -1.05719 1.49986 0
M  V30 5971 H 566.558 -3.68363 1.45344 0
M  V30 5972 H 567.732 -2.3334 3.97353 0
M  V30 5973 H 566.047 -2.24345 3.50796 0
M  V30 5974 H 568.644 -4.78688 2.38248 0
M  V30 5975 H 568.987 -4.08099 0.822226 0
M  V30 5976 H 569.52 -3.24495 2.30104 0
M  V30 5977 H 566.259 -3.98254 5.20648 0
M  V30 5978 H 565.779 -4.74273 3.67186 0
M  V30 5979 H 567.458 -4.87775 4.25071 0
M  V30 5980 N 567.59 -1.07411 -1.15328 0
M  V30 5981 C 568.522 -0.652924 -2.19703 0
M  V30 5982 C 569.535 0.294869 -1.60107 0
M  V30 5983 O 570.724 0.0840932 -1.78302 0
M  V30 5984 C 567.824 0.061434 -3.38844 0
M  V30 5985 C 566.997 -0.902696 -4.27984 0
M  V30 5986 C 566.056 -0.225521 -5.25717 0
M  V30 5987 O 565.082 -0.86676 -5.62562 0
M  V30 5988 N 566.284 1.02858 -5.71315 0
M  V30 5989 H 569.049 -1.55081 -2.56457 0
M  V30 5990 H 566.61 -0.958883 -1.30449 0
M  V30 5991 H 568.602 0.525145 -4.01278 0
M  V30 5992 H 567.172 0.861269 -3.00501 0
M  V30 5993 H 566.392 -1.54551 -3.6264 0
M  V30 5994 H 567.68 -1.55636 -4.84412 0
M  V30 5995 H 567.078 1.56948 -5.43492 0
M  V30 5996 H 565.635 1.43596 -6.35786 0
M  V30 5997 N 569.068 1.32177 -0.85831 0
M  V30 5998 C 570.479 1.79381 -0.517621 0
M  V30 5999 C 570.83 1.70841 0.964769 0
M  V30 6000 O 569.955 1.26917 1.75274 0
M  V30 6001 C 570.55 3.25706 -0.932801 0
M  V30 6002 C 569.109 3.70851 -0.643953 0
M  V30 6003 C 568.256 2.53208 -1.13054 0
M  V30 6004 H 571.207 1.19424 -1.04516 0
M  V30 6005 H 571.228 3.79673 -0.250674 0
M  V30 6006 H 570.74 3.31889 -2.01174 0
M  V30 6007 H 568.841 3.70178 0.424112 0
M  V30 6008 H 568.954 4.63495 -1.21281 0
M  V30 6009 H 567.318 2.48676 -0.550679 0
M  V30 6010 H 568.101 2.62143 -2.21666 0
M  V30 6011 N 570.547 0.616602 1.45037 0
M  V30 6012 C 571.51 -0.0871112 2.29034 0
M  V30 6013 C 572.51 -0.786414 1.40258 0
M  V30 6014 O 573.7 -0.633207 1.62284 0
M  V30 6015 C 570.832 -1.13369 3.21497 0
M  V30 6016 H 572.025 0.651497 2.92738 0
M  V30 6017 H 569.578 0.376058 1.51709 0
M  V30 6018 H 570.313 -1.90277 2.62612 0
M  V30 6019 H 570.098 -0.636358 3.86902 0
M  V30 6020 H 571.588 -1.62627 3.84633 0
M  V30 6021 N 572.025 -1.5352 0.356285 0
M  V30 6022 C 572.955 -2.28372 -0.486661 0
M  V30 6023 C 573.936 -1.30432 -1.09185 0
M  V30 6024 O 575.121 -1.59291 -1.11085 0
M  V30 6025 C 572.251 -3.06604 -1.63129 0
M  V30 6026 C 571.205 -4.12154 -1.15381 0
M  V30 6027 C 570.531 -4.78415 -2.38796 0
M  V30 6028 C 571.831 -5.21724 -0.245179 0
M  V30 6029 H 573.525 -2.99083 0.137797 0
M  V30 6030 H 571.071 -1.43841 0.0677134 0
M  V30 6031 H 573.024 -3.57712 -2.22755 0
M  V30 6032 H 571.748 -2.33568 -2.28284 0
M  V30 6033 H 570.407 -3.61978 -0.580294 0
M  V30 6034 H 570.055 -4.01959 -3.02387 0
M  V30 6035 H 569.755 -5.49734 -2.07524 0
M  V30 6036 H 571.279 -5.32313 -2.99125 0
M  V30 6037 H 572.693 -5.68391 -0.748646 0
M  V30 6038 H 571.09 -6.00095 -0.0237608 0
M  V30 6039 H 572.16 -4.79596 0.715229 0
M  V30 6040 N 573.503 -0.0852151 -1.57369 0
M  V30 6041 C 574.731 0.58946 -1.98325 0
M  V30 6042 C 575.146 1.62333 -0.96403 0
M  V30 6043 O 574.503 1.82438 0.0476395 0
M  V30 6044 C 574.554 1.24604 -3.39347 0
M  V30 6045 O 574.275 0.253532 -4.37366 0
M  V30 6046 C 575.776 2.00726 -3.95252 0
M  V30 6047 H 572.996 0.158783 -0.651942 0
M  V30 6048 H 575.54 -0.161584 -2.03861 0
M  V30 6049 H 573.695 1.94808 -3.34856 0
M  V30 6050 H 574.109 0.726207 -5.19448 0
M  V30 6051 H 575.583 2.42039 -4.96106 0
M  V30 6052 H 576.06 2.86919 -3.32527 0
M  V30 6053 H 576.666 1.3536 -4.03185 0
M  V30 6054 N 574.981 1.5647 0.188427 0
M  V30 6055 C 576.392 1.70864 0.752494 0
M  V30 6056 C 576.743 0.692905 1.83557 0
M  V30 6057 O 575.868 -0.149307 2.15884 0
M  V30 6058 C 576.463 3.09789 1.37173 0
M  V30 6059 C 575.022 3.25925 1.88281 0
M  V30 6060 C 574.169 2.66817 0.755259 0
M  V30 6061 H 577.12 1.58657 -0.0367408 0
M  V30 6062 H 577.141 3.07489 2.24122 0
M  V30 6063 H 576.653 3.83693 0.583219 0
M  V30 6064 H 574.754 2.56948 2.6983 0
M  V30 6065 H 574.867 4.33498 2.04001 0
M  V30 6066 H 573.231 2.2617 1.17128 0
M  V30 6067 H 574.014 3.43294 -0.0211237 0
M  V30 6068 N 576.459 -0.456382 1.50847 0
M  V30 6069 C 577.875 -0.791345 1.386 0
M  V30 6070 C 578.075 -1.9633 0.453498 0
M  V30 6071 O 577.131 -2.52308 -0.0984353 0
M  V30 6072 C 578.444 -1.08959 2.80265 0
M  V30 6073 C 579.992 -1.19517 2.89283 0
M  V30 6074 C 580.467 -1.52647 4.31814 0
M  V30 6075 N 581.958 -1.59609 4.34832 0
M  V30 6076 C 582.693 -1.86777 5.42127 0
M  V30 6077 N 582.189 -2.11866 6.59609 0
M  V30 6078 N 583.982 -1.88402 5.29586 0
M  V30 6079 H 576.133 0.315746 2.1004 0
M  V30 6080 H 578.396 0.0787916 0.94472 0
M  V30 6081 H 578.102 -0.301355 3.50407 0
M  V30 6082 H 577.976 -2.02211 3.18419 0
M  V30 6083 H 580.363 -1.97406 2.19351 0
M  V30 6084 H 580.444 -0.242111 2.54652 0
M  V30 6085 H 580.088 -0.752922 5.02288 0
M  V30 6086 H 580.018 -2.49127 4.63943 0
M  V30 6087 H 582.509 -1.42201 3.50125 0
M  V30 6088 H 582.822 -2.31912 7.37182 0
M  V30 6089 H 581.167 -2.09228 6.62758 0
M  V30 6090 H 584.358 -1.68307 4.36795 0
M  V30 6091 H 584.531 -2.09238 6.13289 0
M  V30 6092 N 577.937 -1.40673 -0.710563 0
M  V30 6093 C 578.884 -1.41336 -1.82463 0
M  V30 6094 C 579.854 -0.269648 -1.63897 0
M  V30 6095 O 581.039 -0.468463 -1.8496 0
M  V30 6096 C 578.179 -1.28665 -3.20218 0
M  V30 6097 C 577.292 -2.52784 -3.5032 0
M  V30 6098 C 576.427 -2.32517 -4.77608 0
M  V30 6099 C 575.466 -3.52187 -5.0063 0
M  V30 6100 N 574.603 -3.31084 -6.19135 0
M  V30 6101 H 579.443 -2.36558 -1.8123 0
M  V30 6102 H 576.98 -1.17483 -0.885226 0
M  V30 6103 H 578.938 -1.19324 -3.99772 0
M  V30 6104 H 577.568 -0.370602 -3.20666 0
M  V30 6105 H 576.62 -2.72634 -2.65283 0
M  V30 6106 H 577.932 -3.41845 -3.63241 0
M  V30 6107 H 577.086 -2.20558 -5.65189 0
M  V30 6108 H 575.825 -1.40889 -4.66906 0
M  V30 6109 H 574.83 -3.64617 -4.11502 0
M  V30 6110 H 576.055 -4.44749 -5.13201 0
M  V30 6111 H 574.001 -2.42143 -6.09674 0
M  V30 6112 H 573.918 -4.13713 -6.32754 0
M  V30 6113 H 575.186 -3.22868 -7.0949 0
M  V30 6114 N 579.415 0.9433 -1.26252 0
M  V30 6115 C 580.831 1.21644 -1.03319 0
M  V30 6116 C 581.031 2.0003 0.242983 0
M  V30 6117 O 580.087 2.33838 0.952688 0
M  V30 6118 C 581.4 1.97978 -2.2633 0
M  V30 6119 C 582.948 2.10978 -2.31209 0
M  V30 6120 C 583.423 2.90713 -3.53907 0
M  V30 6121 N 584.914 2.98287 -3.54371 0
M  V30 6122 C 585.649 3.60406 -4.45976 0
M  V30 6123 N 585.145 4.24043 -5.47868 0
M  V30 6124 N 586.938 3.57658 -4.33633 0
M  V30 6125 H 579.089 0.419221 -2.08222 0
M  V30 6126 H 581.352 0.247995 -0.914988 0
M  V30 6127 H 581.058 1.47788 -3.19142 0
M  V30 6128 H 580.932 2.9865 -2.30408 0
M  V30 6129 H 583.319 2.6036 -1.38913 0
M  V30 6130 H 583.4 1.09575 -2.31143 0
M  V30 6131 H 583.044 2.42018 -4.46531 0
M  V30 6132 H 582.974 3.92367 -3.5122 0
M  V30 6133 H 585.465 2.53044 -2.80673 0
M  V30 6134 H 585.778 4.69334 -6.13959 0
M  V30 6135 H 584.123 4.22637 -5.51728 0
M  V30 6136 H 587.314 3.07134 -3.53251 0
M  V30 6137 H 587.487 4.05782 -5.05218 0
M  V30 6138 N 580.893 1.08022 1.14757 0
M  V30 6139 C 581.856 0.71048 2.1791 0
M  V30 6140 C 582.856 -0.252731 1.58801 0
M  V30 6141 O 584.046 -0.0327915 1.74169 0
M  V30 6142 C 581.178 0.0483203 3.40866 0
M  V30 6143 H 582.371 1.62384 2.52134 0
M  V30 6144 H 579.924 0.877595 1.29337 0
M  V30 6145 H 580.659 -0.876959 3.12218 0
M  V30 6146 H 580.444 0.741189 3.85031 0
M  V30 6147 H 581.934 -0.195471 4.17142 0
M  V30 6148 N 582.371 -1.3172 0.865308 0
M  V30 6149 C 583.599 -2.01057 0.488251 0
M  V30 6150 C 584.014 -1.64979 -0.918 0
M  V30 6151 O 583.371 -0.876597 -1.60069 0
M  V30 6152 C 583.422 -3.55964 0.630224 0
M  V30 6153 O 583.143 -3.90749 1.98109 0
M  V30 6154 C 584.644 -4.42574 0.253567 0
M  V30 6155 H 581.864 -0.64332 0.190736 0
M  V30 6156 H 584.408 -1.68058 1.16519 0
M  V30 6157 H 582.563 -3.874 0.000895422 0
M  V30 6158 H 582.977 -4.85467 1.9855 0
M  V30 6159 H 584.451 -5.50521 0.403875 0
M  V30 6160 H 584.928 -4.31724 -0.806895 0
M  V30 6161 H 585.534 -4.16547 0.858404 0
M  V30 6162 N 583.85 -0.624285 -1.44708 0
M  V30 6163 C 585.096 -0.126237 -2.02407 0
M  V30 6164 C 585.428 1.24618 -1.48943 0
M  V30 6165 O 584.704 1.82569 -0.670742 0
M  V30 6166 C 584.986 -0.105449 -3.59946 0
M  V30 6167 C 584.84 -1.50972 -4.23707 0
M  V30 6168 C 586.159 0.573629 -4.36346 0
M  V30 6169 H 583.278 -0.0473472 -0.735478 0
M  V30 6170 H 585.92 -0.799452 -1.72362 0
M  V30 6171 H 584.07 0.46783 -3.85673 0
M  V30 6172 H 585.742 -2.13136 -4.0911 0
M  V30 6173 H 583.985 -2.0656 -3.81465 0
M  V30 6174 H 584.656 -1.44727 -5.32689 0
M  V30 6175 H 587.132 0.0861787 -4.16011 0
M  V30 6176 H 586.008 0.557338 -5.46063 0
M  V30 6177 H 586.269 1.64276 -4.10446 0
M  V30 6178 N 585.328 1.53329 -0.364422 0
M  V30 6179 C 586.26 2.23286 0.517293 0
M  V30 6180 C 587.273 1.24657 1.04711 0
M  V30 6181 O 588.462 1.50887 0.95369 0
M  V30 6182 C 585.562 2.91604 1.72685 0
M  V30 6183 C 584.735 4.1673 1.32873 0
M  V30 6184 C 583.794 4.68269 2.40022 0
M  V30 6185 O 582.82 5.31976 2.02461 0
M  V30 6186 N 584.022 4.45983 3.7159 0
M  V30 6187 H 586.787 2.99588 -0.0819391 0
M  V30 6188 H 584.348 1.60787 -0.189544 0
M  V30 6189 H 586.34 3.22992 2.4384 0
M  V30 6190 H 584.91 2.18763 2.23297 0
M  V30 6191 H 584.13 3.91657 0.447069 0
M  V30 6192 H 585.418 4.98078 1.03902 0
M  V30 6193 H 584.816 3.95077 4.04883 0
M  V30 6194 H 583.373 4.81924 4.38854 0
M  V30 6195 N 586.806 0.0935595 1.57322 0
M  V30 6196 C 588.217 -0.435807 1.81542 0
M  V30 6197 C 588.568 -1.68263 1.00907 0
M  V30 6198 O 587.693 -2.15087 0.237983 0
M  V30 6199 C 588.288 -0.797436 3.29282 0
M  V30 6200 C 586.847 -1.27155 3.54272 0
M  V30 6201 C 585.994 -0.267455 2.76007 0
M  V30 6202 H 588.945 0.31902 1.5546 0
M  V30 6203 H 588.966 -1.6571 3.42521 0
M  V30 6204 H 588.478 0.110206 3.87943 0
M  V30 6205 H 586.579 -2.19696 3.00939 0
M  V30 6206 H 586.692 -1.23445 4.62923 0
M  V30 6207 H 585.056 -0.749282 2.43429 0
M  V30 6208 H 585.839 0.632839 3.37417 0
M  V30 6209 N 588.284 -1.56567 -0.180126 0
M  V30 6210 C 589.695 -1.7126 -0.743422 0
M  V30 6211 C 590.046 -0.70263 -1.83187 0
M  V30 6212 O 589.171 0.137856 -2.1596 0
M  V30 6213 C 589.766 -3.10512 -1.35528 0
M  V30 6214 C 588.325 -3.26919 -1.8655 0
M  V30 6215 C 587.472 -2.67213 -0.741099 0
M  V30 6216 H 590.423 -1.58636 0.0451543 0
M  V30 6217 H 590.444 -3.08673 -2.22489 0
M  V30 6218 H 589.956 -3.83997 -0.562862 0
M  V30 6219 H 588.057 -2.58376 -2.68464 0
M  V30 6220 H 588.17 -4.34574 -2.01699 0
M  V30 6221 H 586.534 -2.26788 -1.15927 0
M  V30 6222 H 587.317 -3.43277 0.0393291 0
M  V30 6223 N 589.762 0.448376 -1.51087 0
M  V30 6224 C 591.173 1.0286 -1.5581 0
M  V30 6225 C 591.524 1.92583 -0.374989 0
M  V30 6226 O 590.649 2.10316 0.509533 0
M  V30 6227 C 591.244 1.87223 -2.8237 0
M  V30 6228 C 589.803 2.40314 -2.897 0
M  V30 6229 C 588.95 1.19238 -2.50355 0
M  V30 6230 H 591.901 0.230075 -1.57023 0
M  V30 6231 H 591.922 2.72553 -2.6551 0
M  V30 6232 H 591.434 1.21894 -3.68461 0
M  V30 6233 H 589.535 3.09129 -2.08014 0
M  V30 6234 H 589.648 2.73866 -3.93108 0
M  V30 6235 H 588.012 1.53428 -2.03303 0
M  V30 6236 H 588.795 0.555367 -3.38778 0
M  V30 6237 N 591.24 1.41047 0.703093 0
M  V30 6238 C 592.172 1.38228 1.82827 0
M  V30 6239 C 593.185 0.285637 1.60275 0
M  V30 6240 O 594.374 0.54685 1.69917 0
M  V30 6241 C 591.474 1.13136 3.19458 0
M  V30 6242 C 590.647 2.34695 3.69103 0
M  V30 6243 C 589.706 2.05574 4.84382 0
M  V30 6244 O 588.732 2.78549 4.96386 0
M  V30 6245 N 589.934 1.04135 5.71083 0
M  V30 6246 H 592.699 2.35203 1.85741 0
M  V30 6247 H 590.26 1.35562 0.885125 0
M  V30 6248 H 592.252 0.916183 3.94193 0
M  V30 6249 H 590.822 0.247836 3.11616 0
M  V30 6250 H 590.042 2.71963 2.85359 0
M  V30 6251 H 591.33 3.15705 3.99009 0
M  V30 6252 H 590.728 0.43722 5.64008 0
M  V30 6253 H 589.285 0.886078 6.45749 0
M  V30 6254 N 592.718 -0.936591 1.26751 0
M  V30 6255 C 593.681 -2.01752 1.08761 0
M  V30 6256 C 594.681 -1.60763 0.0344435 0
M  V30 6257 O 595.871 -1.71963 0.278258 0
M  V30 6258 C 593.003 -3.34543 0.655271 0
M  V30 6259 H 594.196 -2.19143 2.04735 0
M  V30 6260 H 591.749 -1.11618 1.09413 0
M  V30 6261 H 592.484 -3.22851 -0.30626 0
M  V30 6262 H 592.269 -3.65647 1.41578 0
M  V30 6263 H 593.759 -4.13944 0.551378 0
M  V30 6264 N 594.196 -1.08629 -1.14182 0
M  V30 6265 C 595.159 -0.722027 -2.1753 0
M  V30 6266 C 596.159 0.244305 -1.58933 0
M  V30 6267 O 597.349 0.0235545 -1.74184 0
M  V30 6268 C 594.481 -0.0663966 -3.40835 0
M  V30 6269 H 595.674 -1.63719 -2.51269 0
M  V30 6270 H 593.227 -0.884442 -1.28869 0
M  V30 6271 H 593.962 0.860389 -3.12678 0
M  V30 6272 H 593.747 -0.761598 -3.84632 0
M  V30 6273 H 595.237 0.173346 -4.1724 0
M  V30 6274 N 595.674 1.31259 -0.872281 0
M  V30 6275 C 596.922 1.96233 -0.483409 0
M  V30 6276 C 597.243 1.69276 0.968012 0
M  V30 6277 O 596.513 1.00943 1.67891 0
M  V30 6278 H 595.093 0.726025 -0.175774 0
M  V30 6279 H 597.755 1.60024 -1.11258 0
M  V30 6280 H 596.851 3.05403 -0.643075 0
M  V30 6281 N 597.152 0.631951 1.44375 0
M  V30 6282 C 598.377 0.142146 2.06912 0
M  V30 6283 C 598.802 -1.17456 1.4692 0
M  V30 6284 O 598.16 -1.72074 0.570975 0
M  V30 6285 C 598.208 0.0417952 3.60576 0
M  V30 6286 O 597.312 -1.00194 4.00044 0
M  V30 6287 H 596.653 0.0851491 0.658518 0
M  V30 6288 H 599.183 0.868863 1.85235 0
M  V30 6289 H 599.193 -0.148517 4.0773 0
M  V30 6290 H 597.868 1.0031 4.03622 0
M  V30 6291 H 596.445 -0.786131 3.64519 0
M  V30 6292 N 598.631 -1.53133 0.372548 0
M  V30 6293 C 599.856 -2.0625 -0.218098 0
M  V30 6294 C 600.281 -1.24375 -1.41111 0
M  V30 6295 O 599.639 -0.264554 -1.79359 0
M  V30 6296 C 599.687 -3.55858 -0.582876 0
M  V30 6297 O 598.791 -3.76667 -1.67917 0
M  V30 6298 H 598.132 -0.663317 -0.030104 0
M  V30 6299 H 600.662 -1.97477 0.535169 0
M  V30 6300 H 600.672 -3.99007 -0.851925 0
M  V30 6301 H 599.347 -4.14892 0.289428 0
M  V30 6302 H 597.924 -3.45413 -1.40513 0
M  V30 6303 N 600.109 -0.101901 -1.5727 0
M  V30 6304 C 601.057 0.872034 -2.15635 0
M  V30 6305 C 602.051 1.28742 -1.10099 0
M  V30 6306 O 603.257 1.26116 -1.28432 0
M  V30 6307 H 599.632 0.299269 -0.689886 0
M  V30 6308 H 601.603 0.355137 -2.96279 0
M  V30 6309 C 600.352 2.11886 -2.7568 0
M  V30 6310 H 599.675 1.80813 -3.56576 0
M  V30 6311 H 601.115 2.78077 -3.20077 0
M  V30 6312 C 599.574 2.89739 -1.7191 0
M  V30 6313 O 600.104 3.84522 -1.16213 0
M  V30 6314 N 598.31 2.53407 -1.42245 0
M  V30 6315 H 597.857 1.76398 -1.87727 0
M  V30 6316 H 597.815 3.05795 -0.730529 0
M  V30 6317 N 601.587 1.56661 0.17182 0
M  V30 6318 C 602.519 1.92934 1.2373 0
M  V30 6319 C 603.532 0.822385 1.40502 0
M  V30 6320 O 604.721 1.10083 1.40514 0
M  V30 6321 C 601.821 2.16651 2.60607 0
M  V30 6322 C 600.994 3.47878 2.6514 0
M  V30 6323 C 600.053 3.60429 3.83377 0
M  V30 6324 O 599.079 4.33051 3.69398 0
M  V30 6325 N 600.281 2.95241 4.99813 0
M  V30 6326 H 603.046 2.84931 0.929205 0
M  V30 6327 H 600.607 1.5781 0.361588 0
M  V30 6328 H 602.599 2.22312 3.38171 0
M  V30 6329 H 601.169 1.3104 2.83809 0
M  V30 6330 H 600.389 3.53879 1.73675 0
M  V30 6331 H 601.677 4.34232 2.6518 0
M  V30 6332 H 601.075 2.3611 5.14071 0
M  V30 6333 H 599.632 3.06499 5.75241 0
M  V30 6334 N 603.065 -0.440357 1.51323 0
M  V30 6335 C 604.476 -1.02032 1.56353 0
M  V30 6336 C 604.827 -1.92382 0.385197 0
M  V30 6337 O 603.952 -2.10583 -0.498373 0
M  V30 6338 C 604.547 -1.85723 2.83359 0
M  V30 6339 C 603.106 -2.38774 2.90971 0
M  V30 6340 C 602.253 -1.17908 2.50984 0
M  V30 6341 H 605.204 -0.221744 1.57143 0
M  V30 6342 H 605.225 -2.71141 2.66951 0
M  V30 6343 H 604.737 -1.19939 3.69102 0
M  V30 6344 H 602.838 -3.08021 2.09651 0
M  V30 6345 H 602.951 -2.71778 3.94555 0
M  V30 6346 H 601.315 -1.52347 2.04114 0
M  V30 6347 H 602.098 -0.537393 3.39068 0
M  V30 6348 N 604.543 -1.41418 -0.695603 0
M  V30 6349 C 605.791 -1.40496 -1.45277 0
M  V30 6350 C 606.112 -0.0149538 -1.94994 0
M  V30 6351 O 605.382 0.9432 -1.71699 0
M  V30 6352 H 603.962 -0.517147 -0.539044 0
M  V30 6353 H 606.624 -1.76656 -0.823321 0
M  V30 6354 H 605.72 -2.09214 -2.31595 0
M  V30 6355 N 606.021 0.929856 -1.27246 0
M  V30 6356 C 606.951 2.04722 -1.12299 0
M  V30 6357 C 607.932 1.70082 -0.0250464 0
M  V30 6358 O 609.117 1.93176 -0.199141 0
M  V30 6359 C 606.247 3.38721 -0.767145 0
M  V30 6360 C 605.201 3.87466 -1.81808 0
M  V30 6361 C 604.527 5.18246 -1.31626 0
M  V30 6362 C 605.827 4.11095 -3.22177 0
M  V30 6363 H 607.521 2.17485 -2.05769 0
M  V30 6364 H 605.067 1.04503 -0.990715 0
M  V30 6365 H 607.02 4.16366 -0.649413 0
M  V30 6366 H 605.744 3.25967 0.203259 0
M  V30 6367 H 604.403 3.12012 -1.92468 0
M  V30 6368 H 604.051 5.01881 -0.335378 0
M  V30 6369 H 603.751 5.51829 -2.01887 0
M  V30 6370 H 605.275 5.98462 -1.21143 0
M  V30 6371 H 606.689 4.79316 -3.1453 0
M  V30 6372 H 605.086 4.55982 -3.90129 0
M  V30 6373 H 606.156 3.16468 -3.67391 0
M  V30 6374 N 607.499 1.09233 1.13605 0
M  V30 6375 C 608.429 0.751738 2.21068 0
M  V30 6376 C 609.41 -0.269688 1.67948 0
M  V30 6377 O 610.595 -0.13819 1.93708 0
M  V30 6378 C 607.725 0.16935 3.46887 0
M  V30 6379 C 606.679 1.12007 4.13084 0
M  V30 6380 C 606.005 0.399483 5.33206 0
M  V30 6381 C 607.305 2.46168 4.6065 0
M  V30 6382 H 608.999 1.65024 2.49815 0
M  V30 6383 H 606.545 0.794905 1.20072 0
M  V30 6384 H 608.498 -0.0809824 4.21322 0
M  V30 6385 H 607.222 -0.764335 3.1753 0
M  V30 6386 H 605.881 1.35564 3.40614 0
M  V30 6387 H 605.529 -0.538277 5.00112 0
M  V30 6388 H 605.229 1.03337 5.78442 0
M  V30 6389 H 606.753 0.157403 6.10397 0
M  V30 6390 H 608.167 2.26829 5.26518 0
M  V30 6391 H 606.564 3.05326 5.1662 0
M  V30 6392 H 607.634 3.07076 3.75276 0
M  V30 6393 N 608.977 -1.30795 0.87923 0
M  V30 6394 C 609.94 -2.26563 0.346676 0
M  V30 6395 C 610.94 -1.52578 -0.507597 0
M  V30 6396 O 612.13 -1.71318 -0.315575 0
M  V30 6397 C 609.262 -3.37115 -0.506611 0
M  V30 6398 H 610.455 -2.75183 1.19223 0
M  V30 6399 H 608.008 -1.41886 0.655598 0
M  V30 6400 H 608.743 -2.93802 -1.37299 0
M  V30 6401 H 608.528 -3.91959 0.105218 0
M  V30 6402 H 610.018 -4.08412 -0.871192 0
M  V30 6403 N 610.455 -0.639598 -1.44038 0
M  V30 6404 C 611.68 -0.153117 -2.06834 0
M  V30 6405 C 612.105 1.16676 -1.47541 0
M  V30 6406 O 611.463 1.71769 -0.580093 0
M  V30 6407 C 611.511 -0.0609169 -3.60549 0
M  V30 6408 O 610.615 0.98071 -4.00569 0
M  V30 6409 H 609.956 -0.0886402 -0.658057 0
M  V30 6410 H 612.486 -0.878674 -1.84771 0
M  V30 6411 H 612.496 0.126892 -4.07803 0
M  V30 6412 H 611.171 -1.0245 -4.03084 0
M  V30 6413 H 609.748 0.766789 -3.64931 0
M  V30 6414 N 611.933 1.52934 -0.380664 0
M  V30 6415 C 613.179 2.01765 0.20458 0
M  V30 6416 C 613.512 1.26696 1.47179 0
M  V30 6417 O 612.787 0.364936 1.91046 0
M  V30 6418 C 613.07 3.56869 0.481269 0
M  V30 6419 C 612.923 4.42617 -0.800629 0
M  V30 6420 C 614.242 4.2121 1.27554 0
M  V30 6421 H 611.361 0.733388 0.0728803 0
M  V30 6422 H 614.003 1.83068 -0.50853 0
M  V30 6423 H 612.153 3.72932 1.08875 0
M  V30 6424 H 613.825 4.38323 -1.43773 0
M  V30 6425 H 612.068 4.09977 -1.4178 0
M  V30 6426 H 612.739 5.49134 -0.561791 0
M  V30 6427 H 615.215 4.09072 0.761514 0
M  V30 6428 H 614.091 5.29732 1.43788 0
M  V30 6429 H 614.352 3.78269 2.28833 0
M  V30 6430 N 613.412 0.11024 1.57214 0
M  V30 6431 C 614.823 -0.416527 1.81994 0
M  V30 6432 C 615.174 -1.67183 1.02686 0
M  V30 6433 O 614.299 -2.14823 0.260782 0
M  V30 6434 C 614.894 -0.762466 3.30109 0
M  V30 6435 C 613.453 -1.23391 3.556 0
M  V30 6436 C 612.6 -0.238166 2.76275 0
M  V30 6437 H 615.551 0.335491 1.55113 0
M  V30 6438 H 615.572 -1.62068 3.44259 0
M  V30 6439 H 615.084 0.151346 3.87805 0
M  V30 6440 H 613.185 -2.16492 3.03253 0
M  V30 6441 H 613.298 -1.18528 4.64207 0
M  V30 6442 H 611.662 -0.723421 2.4421 0
M  V30 6443 H 612.445 0.668591 3.36727 0
M  V30 6444 N 614.89 -1.56749 -0.16351 0
M  V30 6445 C 615.822 -1.93587 -1.22705 0
M  V30 6446 C 616.835 -0.829824 -1.40063 0
M  V30 6447 O 618.024 -1.10826 -1.39928 0
M  V30 6448 C 615.124 -2.1803 -2.59454 0
M  V30 6449 C 614.297 -3.4928 -2.63292 0
M  V30 6450 C 613.356 -3.62457 -3.8146 0
M  V30 6451 O 612.382 -4.35004 -3.67096 0
M  V30 6452 N 613.584 -2.97888 -4.9824 0
M  V30 6453 H 616.349 -2.8542 -0.914081 0
M  V30 6454 H 613.91 -1.58 -0.353214 0
M  V30 6455 H 615.902 -2.24102 -3.36987 0
M  V30 6456 H 614.472 -1.32543 -2.8311 0
M  V30 6457 H 613.692 -3.54795 -1.71796 0
M  V30 6458 H 614.98 -4.35632 -2.62873 0
M  V30 6459 H 614.378 -2.38833 -5.12811 0
M  V30 6460 H 612.935 -3.09545 -5.73607 0
M  V30 6461 N 616.368 0.432326 -1.51554 0
M  V30 6462 C 617.779 1.01202 -1.56892 0
M  V30 6463 C 618.13 1.92175 -0.395394 0
M  V30 6464 O 617.255 2.10844 0.487198 0
M  V30 6465 C 617.85 1.84217 -2.8434 0
M  V30 6466 C 616.409 2.37228 -2.92233 0
M  V30 6467 C 615.556 1.16576 -2.51606 0
M  V30 6468 H 618.507 0.213407 -1.57259 0
M  V30 6469 H 618.528 2.69721 -2.68385 0
M  V30 6470 H 618.04 1.17979 -3.69733 0
M  V30 6471 H 616.141 3.06905 -2.11282 0
M  V30 6472 H 616.254 2.69682 -3.95991 0
M  V30 6473 H 614.618 1.51263 -2.04919 0
M  V30 6474 H 615.401 0.519404 -3.39348 0
M  V30 6475 N 617.846 1.41785 0.688094 0
M  V30 6476 C 618.793 1.44221 1.80191 0
M  V30 6477 C 619.763 0.295688 1.63447 0
M  V30 6478 O 620.948 0.49783 1.84191 0
M  V30 6479 C 618.088 1.33743 3.1813 0
M  V30 6480 C 617.201 2.58325 3.46254 0
M  V30 6481 C 616.336 2.40086 4.73848 0
M  V30 6482 C 615.375 3.60107 4.94964 0
M  V30 6483 N 614.512 3.40892 6.13789 0
M  V30 6484 H 619.352 2.39411 1.77444 0
M  V30 6485 H 616.889 1.18876 0.866423 0
M  V30 6486 H 618.847 1.25669 3.97823 0
M  V30 6487 H 617.477 0.42157 3.20035 0
M  V30 6488 H 616.529 2.7682 2.60912 0
M  V30 6489 H 617.841 3.4758 3.57756 0
M  V30 6490 H 616.995 2.29522 5.61609 0
M  V30 6491 H 615.734 1.483 4.64606 0
M  V30 6492 H 614.739 3.71118 4.05649 0
M  V30 6493 H 615.964 4.52857 5.06061 0
M  V30 6494 H 613.91 2.51812 6.05745 0
M  V30 6495 H 613.827 4.23727 6.26092 0
M  V30 6496 H 615.095 3.34114 7.04264 0
M  V30 6497 N 619.324 -0.923095 1.27737 0
M  V30 6498 C 620.735 -1.48626 1.12993 0
M  V30 6499 C 621.086 -1.94142 -0.283439 0
M  V30 6500 O 620.211 -1.81605 -1.17681 0
M  V30 6501 C 620.806 -2.70117 2.04505 0
M  V30 6502 C 619.365 -3.22642 1.93853 0
M  V30 6503 C 618.512 -1.95368 1.96791 0
M  V30 6504 H 621.463 -0.736737 1.40563 0
M  V30 6505 H 621.484 -3.4506 1.60356 0
M  V30 6506 H 620.996 -2.36959 3.07363 0
M  V30 6507 H 619.097 -3.60549 0.939968 0
M  V30 6508 H 619.21 -3.88525 2.80331 0
M  V30 6509 H 617.574 -2.12061 1.41076 0
M  V30 6510 H 618.357 -1.64517 3.01312 0
M  V30 6511 N 620.802 -1.09834 -1.13024 0
M  V30 6512 C 621.734 -0.699379 -2.18269 0
M  V30 6513 C 622.747 0.260841 -1.60697 0
M  V30 6514 O 623.936 0.0462538 -1.7844 0
M  V30 6515 C 621.036 -0.0104537 -3.38898 0
M  V30 6516 C 620.209 -0.993275 -4.25973 0
M  V30 6517 C 619.268 -0.336982 -5.2512 0
M  V30 6518 O 618.294 -0.985892 -5.60597 0
M  V30 6519 N 619.496 0.90716 -5.73368 0
M  V30 6520 H 622.261 -1.60486 -2.5311 0
M  V30 6521 H 619.822 -0.986337 -1.28386 0
M  V30 6522 H 621.814 0.43991 -4.02302 0
M  V30 6523 H 620.384 0.797335 -3.0226 0
M  V30 6524 H 619.604 -1.62208 -3.5928 0
M  V30 6525 H 620.892 -1.65876 -4.81002 0
M  V30 6526 H 620.29 1.45384 -5.46699 0
M  V30 6527 H 618.847 1.30077 -6.38689 0
M  V30 6528 N 622.28 1.30327 -0.886154 0
M  V30 6529 C 623.243 2.26376 -0.358687 0
M  V30 6530 C 624.243 1.52845 0.499498 0
M  V30 6531 O 625.433 1.71483 0.306485 0
M  V30 6532 C 622.565 3.37379 0.488726 0
M  V30 6533 H 623.758 2.74547 -1.20681 0
M  V30 6534 H 621.311 1.41536 -0.663113 0
M  V30 6535 H 622.046 2.94526 1.35739 0
M  V30 6536 H 621.831 3.91897 -0.126003 0
M  V30 6537 H 623.321 4.08868 0.84952 0
M  V30 6538 N 623.758 0.647228 1.43697 0
M  V30 6539 C 625.169 0.238689 1.85168 0
M  V30 6540 C 625.52 -1.21345 1.54175 0
M  V30 6541 O 624.645 -1.92542 0.987743 0
M  V30 6542 C 625.24 0.426422 3.36106 0
M  V30 6543 C 623.799 0.0722541 3.76331 0
M  V30 6544 C 622.946 0.732153 2.6746 0
M  V30 6545 H 625.897 0.851309 1.33934 0
M  V30 6546 H 625.918 -0.32987 3.79067 0
M  V30 6547 H 625.43 1.48339 3.58632 0
M  V30 6548 H 623.531 -0.982355 3.59417 0
M  V30 6549 H 623.644 0.493541 4.76551 0
M  V30 6550 H 622.008 0.16594 2.54159 0
M  V30 6551 H 622.791 1.79204 2.92816 0
M  V30 6552 N 625.236 -1.5273 0.388769 0
M  V30 6553 C 626.647 -1.86505 -0.0853788 0
M  V30 6554 C 626.998 -1.30847 -1.46197 0
M  V30 6555 O 626.123 -0.639609 -2.06732 0
M  V30 6556 C 626.718 -3.38414 -0.161703 0
M  V30 6557 C 625.277 -3.71902 -0.580144 0
M  V30 6558 C 624.424 -2.76095 0.258218 0
M  V30 6559 H 627.375 -1.46647 0.606665 0
M  V30 6560 H 627.396 -3.67638 -0.980936 0
M  V30 6561 H 626.908 -3.78893 0.840333 0
M  V30 6562 H 625.009 -3.36992 -1.58957 0
M  V30 6563 H 625.122 -4.77902 -0.338663 0
M  V30 6564 H 623.486 -2.53195 -0.276432 0
M  V30 6565 H 624.269 -3.19411 1.25822 0
M  V30 6566 N 626.714 -0.118576 -1.57153 0
M  V30 6567 C 627.939 0.550582 -1.99958 0
M  V30 6568 C 628.364 1.59458 -0.997736 0
M  V30 6569 O 627.722 1.81274 0.0306269 0
M  V30 6570 C 627.77 1.15379 -3.41643 0
M  V30 6571 O 626.874 2.26932 -3.44348 0
M  V30 6572 H 626.215 0.137567 -0.649593 0
M  V30 6573 H 628.745 -0.206926 -2.03551 0
M  V30 6574 H 628.755 1.48942 -3.79843 0
M  V30 6575 H 627.43 0.389087 -4.14076 0
M  V30 6576 H 626.007 1.94812 -3.17967 0
M  V30 6577 N 628.193 1.56834 0.155195 0
M  V30 6578 C 629.125 1.94235 1.21677 0
M  V30 6579 C 630.138 0.83724 1.39621 0
M  V30 6580 O 631.327 1.11567 1.39338 0
M  V30 6581 C 628.427 2.19402 2.58294 0
M  V30 6582 C 627.6 3.50671 2.61436 0
M  V30 6583 C 626.659 3.64475 3.79532 0
M  V30 6584 O 625.685 4.36945 3.64784 0
M  V30 6585 N 626.887 3.00526 4.96653 0
M  V30 6586 H 629.652 2.85901 0.898932 0
M  V30 6587 H 627.213 1.58185 0.34483 0
M  V30 6588 H 629.205 2.25886 3.35794 0
M  V30 6589 H 627.775 1.34042 2.82403 0
M  V30 6590 H 626.995 3.55702 1.69912 0
M  V30 6591 H 628.283 4.3702 2.60559 0
M  V30 6592 H 627.681 2.41549 5.11538 0
M  V30 6593 H 626.238 3.12583 5.71958 0
M  V30 6594 N 629.671 -0.424282 1.51781 0
M  V30 6595 C 631.082 -1.00368 1.57427 0
M  V30 6596 C 631.433 -1.91962 0.40558 0
M  V30 6597 O 630.558 -2.111 -0.47601 0
M  V30 6598 C 631.153 -1.82707 2.85313 0
M  V30 6599 C 629.712 -2.35675 2.93487 0
M  V30 6600 C 628.859 -1.1524 2.5222 0
M  V30 6601 H 631.81 -0.205064 1.5737 0
M  V30 6602 H 631.831 -2.68294 2.69812 0
M  V30 6603 H 631.343 -1.16017 3.70353 0
M  V30 6604 H 629.444 -3.05781 2.12906 0
M  V30 6605 H 629.557 -2.67578 3.97415 0
M  V30 6606 H 627.921 -1.50174 2.05718 0
M  V30 6607 H 628.704 -0.5014 3.39619 0
M  V30 6608 N 631.149 -1.42148 -0.680565 0
M  V30 6609 C 632.079 -1.4796 -1.80638 0
M  V30 6610 C 633.06 -0.336728 -1.66734 0
M  V30 6611 O 634.245 -0.550247 -1.86242 0
M  V30 6612 C 631.375 -1.37569 -3.18892 0
M  V30 6613 C 630.329 -2.49823 -3.47524 0
M  V30 6614 C 629.655 -2.24491 -4.85291 0
M  V30 6615 C 630.955 -3.92144 -3.44994 0
M  V30 6616 H 632.649 -2.42184 -1.76032 0
M  V30 6617 H 630.195 -1.16566 -0.845481 0
M  V30 6618 H 632.148 -1.40243 -3.97379 0
M  V30 6619 H 630.872 -0.398357 -3.24162 0
M  V30 6620 H 629.531 -2.46455 -2.71395 0
M  V30 6621 H 629.179 -1.25066 -4.87204 0
M  V30 6622 H 628.879 -2.99722 -5.05411 0
M  V30 6623 H 630.403 -2.28906 -5.66069 0
M  V30 6624 H 631.817 -3.97145 -4.13459 0
M  V30 6625 H 630.214 -4.67179 -3.76648 0
M  V30 6626 H 631.284 -4.19225 -2.43676 0
M  V30 6627 N 632.627 0.916307 -1.28225 0
M  V30 6628 C 634.038 1.48024 -1.13779 0
M  V30 6629 C 634.389 1.94289 0.273139 0
M  V30 6630 O 633.514 1.82226 1.16716 0
M  V30 6631 C 634.109 2.69029 -2.05935 0
M  V30 6632 C 632.668 3.2161 -1.95561 0
M  V30 6633 C 631.815 1.94321 -1.97825 0
M  V30 6634 H 634.766 0.729272 -1.40951 0
M  V30 6635 H 634.787 3.44204 -1.62184 0
M  V30 6636 H 634.299 2.35325 -3.08616 0
M  V30 6637 H 632.4 3.60045 -0.959076 0
M  V30 6638 H 632.513 3.87032 -2.82388 0
M  V30 6639 H 630.877 2.1131 -1.42198 0
M  V30 6640 H 631.66 1.62917 -3.0218 0
M  V30 6641 N 634.105 1.10431 1.1244 0
M  V30 6642 C 635.037 0.710945 2.17895 0
M  V30 6643 C 636.05 -0.252315 1.60833 0
M  V30 6644 O 637.239 -0.03679 1.78462 0
M  V30 6645 C 634.339 0.0284262 3.38888 0
M  V30 6646 C 633.512 1.01585 4.2544 0
M  V30 6647 C 632.571 0.364826 5.24934 0
M  V30 6648 O 631.597 1.01561 5.60066 0
M  V30 6649 N 632.799 -0.87674 5.73841 0
M  V30 6650 H 635.564 1.61826 2.52255 0
M  V30 6651 H 633.125 0.993132 1.27861 0
M  V30 6652 H 635.117 -0.418568 4.0253 0
M  V30 6653 H 633.687 -0.781294 3.02679 0
M  V30 6654 H 632.907 1.64111 3.58415 0
M  V30 6655 H 634.195 1.68425 4.80115 0
M  V30 6656 H 633.593 -1.42483 5.47462 0
M  V30 6657 H 632.15 -1.26688 6.39369 0
M  V30 6658 N 635.583 -1.29855 0.893053 0
M  V30 6659 C 636.811 -1.99976 0.530788 0
M  V30 6660 C 637.226 -1.66889 -0.882799 0
M  V30 6661 O 636.583 -0.910352 -1.58173 0
M  V30 6662 C 636.634 -3.54547 0.705587 0
M  V30 6663 O 636.355 -3.86458 2.06353 0
M  V30 6664 C 637.856 -4.41937 0.347387 0
M  V30 6665 H 635.076 -0.639129 0.204339 0
M  V30 6666 H 637.62 -1.65549 1.20057 0
M  V30 6667 H 635.775 -3.87311 0.0830685 0
M  V30 6668 H 636.189 -4.81146 2.08803 0
M  V30 6669 H 637.663 -5.4954 0.520557 0
M  V30 6670 H 638.14 -4.33339 -0.715139 0
M  V30 6671 H 638.746 -4.14633 0.946567 0
M  V30 6672 N 637.061 -0.65484 -1.43351 0
M  V30 6673 C 637.993 0.0744757 -2.29079 0
M  V30 6674 C 639.006 0.7855 -1.42596 0
M  V30 6675 O 640.195 0.642986 -1.66517 0
M  V30 6676 C 637.295 1.12859 -3.19556 0
M  V30 6677 C 636.468 0.495381 -4.34586 0
M  V30 6678 C 635.527 1.44659 -5.05925 0
M  V30 6679 O 634.553 0.954567 -5.61139 0
M  V30 6680 N 635.755 2.78051 -5.09576 0
M  V30 6681 H 638.52 -0.661346 -2.92312 0
M  V30 6682 H 636.081 -0.497744 -1.54059 0
M  V30 6683 H 638.073 1.76577 -3.64147 0
M  V30 6684 H 636.643 1.76636 -2.57912 0
M  V30 6685 H 635.863 -0.32092 -3.92892 0
M  V30 6686 H 637.151 0.0534203 -5.08772 0
M  V30 6687 H 636.549 3.20584 -4.66093 0
M  V30 6688 H 635.106 3.37068 -5.57878 0
M  V30 6689 N 638.539 1.52521 -0.396863 0
M  V30 6690 C 639.502 2.2527 0.422604 0
M  V30 6691 C 640.502 1.27184 0.983913 0
M  V30 6692 O 641.692 1.51222 0.864723 0
M  V30 6693 C 638.824 3.01356 1.59365 0
M  V30 6694 H 640.017 2.99133 -0.214416 0
M  V30 6695 H 637.57 1.55587 -0.149128 0
M  V30 6696 H 638.305 2.31813 2.26789 0
M  V30 6697 H 638.09 3.73357 1.19779 0
M  V30 6698 H 639.58 3.56571 2.17363 0
M  V30 6699 N 640.017 0.126909 1.57088 0
M  V30 6700 C 640.964 -0.82036 2.15728 0
M  V30 6701 C 641.934 -1.25811 1.08447 0
M  V30 6702 O 643.119 -1.33422 1.36393 0
M  V30 6703 C 640.259 -2.06199 2.76724 0
M  V30 6704 C 639.372 -1.67188 3.98337 0
M  V30 6705 C 638.507 -2.86378 4.47393 0
M  V30 6706 C 637.546 -2.43644 5.61519 0
M  V30 6707 N 636.683 -3.55775 6.05284 0
M  V30 6708 H 641.523 -0.313472 2.96347 0
M  V30 6709 H 639.06 -0.14303 1.46403 0
M  V30 6710 H 641.018 -2.78959 3.10222 0
M  V30 6711 H 639.648 -2.54333 1.98782 0
M  V30 6712 H 638.7 -0.842714 3.70948 0
M  V30 6713 H 640.012 -1.31789 4.81075 0
M  V30 6714 H 639.166 -3.67353 4.82842 0
M  V30 6715 H 637.905 -3.25009 3.63621 0
M  V30 6716 H 636.91 -1.61104 5.25667 0
M  V30 6717 H 638.135 -2.06122 6.47063 0
M  V30 6718 H 636.081 -3.94065 5.24451 0
M  V30 6719 H 635.998 -3.24325 6.82898 0
M  V30 6720 H 637.266 -4.37166 6.45373 0
M  V30 6721 N 641.495 -1.56914 -0.146875 0
M  V30 6722 C 642.427 -1.94878 -1.20645 0
M  V30 6723 C 643.44 -0.844633 -1.39175 0
M  V30 6724 O 644.629 -1.12304 -1.38744 0
M  V30 6725 C 641.729 -2.20769 -2.57127 0
M  V30 6726 C 640.902 -3.52053 -2.59572 0
M  V30 6727 C 639.961 -3.66482 -3.77594 0
M  V30 6728 O 638.987 -4.38873 -3.62462 0
M  V30 6729 N 640.189 -3.03156 -4.95052 0
M  V30 6730 H 642.954 -2.86374 -0.883757 0
M  V30 6731 H 640.515 -1.58366 -0.336436 0
M  V30 6732 H 642.507 -2.27664 -3.34591 0
M  V30 6733 H 641.077 -1.35538 -2.81688 0
M  V30 6734 H 640.297 -3.56598 -1.68023 0
M  V30 6735 H 641.585 -4.38396 -2.58238 0
M  V30 6736 H 640.983 -2.44258 -5.10249 0
M  V30 6737 H 639.54 -3.15611 -5.70292 0
M  V30 6738 N 642.974 0.416227 -1.52004 0
M  V30 6739 C 644.385 0.995319 -1.57957 0
M  V30 6740 C 644.736 1.91744 -0.415754 0
M  V30 6741 O 643.861 2.11349 0.464808 0
M  V30 6742 C 644.456 1.81191 -2.86278 0
M  V30 6743 C 643.015 2.34115 -2.94732 0
M  V30 6744 C 642.162 1.139 -2.52828 0
M  V30 6745 H 645.113 0.196716 -1.57476 0
M  V30 6746 H 645.134 2.66859 -2.71231 0
M  V30 6747 H 644.646 1.14051 -3.70963 0
M  V30 6748 H 642.747 3.04647 -2.14525 0
M  V30 6749 H 642.86 2.65466 -3.98829 0
M  V30 6750 H 641.224 1.49081 -2.06511 0
M  V30 6751 H 642.007 0.483383 -3.3988 0
M  V30 6752 N 644.452 1.42507 0.673017 0
M  V30 6753 C 645.384 1.42074 1.79854 0
M  V30 6754 C 646.397 0.319569 1.59633 0
M  V30 6755 O 647.586 0.582769 1.68719 0
M  V30 6756 C 644.686 1.19886 3.16987 0
M  V30 6757 C 643.859 2.42471 3.64042 0
M  V30 6758 C 642.918 2.15802 4.79913 0
M  V30 6759 O 641.944 2.89015 4.90366 0
M  V30 6760 N 643.146 1.16225 5.68746 0
M  V30 6761 H 645.911 2.3909 1.8071 0
M  V30 6762 H 643.472 1.37409 0.856171 0
M  V30 6763 H 645.464 0.999591 3.92161 0
M  V30 6764 H 644.034 0.313879 3.1102 0
M  V30 6765 H 643.254 2.77954 2.79526 0
M  V30 6766 H 644.542 3.24097 3.92223 0
M  V30 6767 H 643.94 0.556756 5.62954 0
M  V30 6768 H 642.497 1.02285 6.43724 0
M  V30 6769 N 645.93 -0.909495 1.28709 0
M  V30 6770 C 646.893 -1.99399 1.13016 0
M  V30 6771 C 647.893 -1.60654 0.068536 0
M  V30 6772 O 649.083 -1.71334 0.314671 0
M  V30 6773 C 646.215 -3.33078 0.726085 0
M  V30 6774 H 647.408 -2.14751 2.09338 0
M  V30 6775 H 644.961 -1.09272 1.11756 0
M  V30 6776 H 645.696 -3.23428 -0.23771 0
M  V30 6777 H 645.481 -3.62562 1.49302 0
M  V30 6778 H 646.971 -4.12681 0.639058 0
M  V30 6779 N 647.408 -1.11026 -1.11852 0
M  V30 6780 C 648.819 -0.873203 -1.65021 0
M  V30 6781 C 649.17 0.595364 -1.86949 0
M  V30 6782 O 648.295 1.45645 -1.60051 0
M  V30 6783 C 648.89 -1.57859 -2.99777 0
M  V30 6784 C 647.449 -1.38807 -3.49871 0
M  V30 6785 C 646.596 -1.62403 -2.24768 0
M  V30 6786 H 649.547 -1.26712 -0.955503 0
M  V30 6787 H 649.568 -1.02111 -3.66543 0
M  V30 6788 H 649.08 -2.6474 -2.83786 0
M  V30 6789 H 647.181 -0.341163 -3.71035 0
M  V30 6790 H 647.294 -2.13421 -4.28938 0
M  V30 6791 H 645.658 -1.04714 -2.32179 0
M  V30 6792 H 646.441 -2.70549 -2.11324 0
M  V30 6793 N 648.886 1.2938 -0.899927 0
M  V30 6794 C 650.297 1.77644 -0.574427 0
M  V30 6795 C 650.648 1.73824 0.909928 0
M  V30 6796 O 649.773 1.32429 1.71147 0
M  V30 6797 C 650.368 3.22573 -1.03595 0
M  V30 6798 C 648.927 3.68614 -0.76161 0
M  V30 6799 C 648.074 2.49483 -1.21052 0
M  V30 6800 H 651.025 1.16038 -1.08263 0
M  V30 6801 H 651.046 3.78684 -0.371337 0
M  V30 6802 H 650.558 3.25321 -2.11631 0
M  V30 6803 H 648.659 3.7134 0.306127 0
M  V30 6804 H 648.772 4.59402 -1.35965 0
M  V30 6805 H 647.136 2.46798 -0.629515 0
M  V30 6806 H 647.919 2.54959 -2.29893 0
M  V30 6807 N 650.364 0.662433 1.43002 0
M  V30 6808 C 651.592 0.187615 2.06048 0
M  V30 6809 C 652.007 -1.15039 1.49705 0
M  V30 6810 O 651.364 -1.71209 0.631956 0
M  V30 6811 C 651.415 0.100498 3.6136 0
M  V30 6812 O 651.136 1.38562 4.15611 0
M  V30 6813 C 652.637 -0.399298 4.41498 0
M  V30 6814 H 649.857 0.0941675 0.664359 0
M  V30 6815 H 652.401 0.905681 1.83351 0
M  V30 6816 H 650.556 -0.568181 3.83211 0
M  V30 6817 H 650.97 1.25084 5.09366 0
M  V30 6818 H 652.444 -0.409187 5.50481 0
M  V30 6819 H 652.921 -1.43232 4.15188 0
M  V30 6820 H 653.527 0.23721 4.24638 0
M  V30 6821 N 651.842 -1.52309 0.404946 0
M  V30 6822 C 653.253 -1.86585 -0.0655926 0
M  V30 6823 C 653.604 -1.3239 -1.44801 0
M  V30 6824 O 652.729 -0.6615 -2.06042 0
M  V30 6825 C 653.324 -3.38566 -0.125801 0
M  V30 6826 C 651.883 -3.72497 -0.540666 0
M  V30 6827 C 651.03 -2.75806 0.287487 0
M  V30 6828 H 653.981 -1.45995 0.622185 0
M  V30 6829 H 654.002 -3.68658 -0.941888 0
M  V30 6830 H 653.514 -3.77981 0.880473 0
M  V30 6831 H 651.615 -3.38659 -1.55373 0
M  V30 6832 H 651.728 -4.78234 -0.287956 0
M  V30 6833 H 650.092 -2.53474 -0.249561 0
M  V30 6834 H 650.875 -3.18059 1.29203 0
M  V30 6835 N 653.32 -0.135238 -1.57019 0
M  V30 6836 C 654.252 0.839675 -2.13265 0
M  V30 6837 C 655.265 1.21887 -1.07923 0
M  V30 6838 O 656.454 1.16499 -1.35241 0
M  V30 6839 C 653.554 2.13647 -2.63075 0
M  V30 6840 C 652.727 1.92646 -3.92691 0
M  V30 6841 C 651.786 3.06205 -4.27931 0
M  V30 6842 O 650.812 2.78409 -4.96465 0
M  V30 6843 N 652.014 4.33072 -3.86561 0
M  V30 6844 H 654.779 0.359026 -2.97542 0
M  V30 6845 H 652.34 0.0486979 -1.61827 0
M  V30 6846 H 654.332 2.88641 -2.8367 0
M  V30 6847 H 652.902 2.5301 -1.83588 0
M  V30 6848 H 652.122 1.01754 -3.80841 0
M  V30 6849 H 653.41 1.75939 -4.77413 0
M  V30 6850 H 652.808 4.58526 -3.31316 0
M  V30 6851 H 651.365 5.04885 -4.12231 0
M  V30 6852 N 654.798 1.5699 0.138552 0
M  V30 6853 C 655.73 1.95515 1.1961 0
M  V30 6854 C 656.743 0.852002 1.38726 0
M  V30 6855 O 657.932 1.13038 1.38147 0
M  V30 6856 C 655.032 2.2213 2.55952 0
M  V30 6857 C 654.205 3.53424 2.57702 0
M  V30 6858 C 653.264 3.6848 3.75645 0
M  V30 6859 O 652.29 4.4079 3.60129 0
M  V30 6860 N 653.492 3.05777 4.93438 0
M  V30 6861 H 656.257 2.86838 0.868557 0
M  V30 6862 H 653.818 1.58542 0.328033 0
M  V30 6863 H 655.81 2.29435 3.33379 0
M  V30 6864 H 654.38 1.3703 2.80965 0
M  V30 6865 H 653.6 3.57484 1.6613 0
M  V30 6866 H 654.888 4.39759 2.55909 0
M  V30 6867 H 654.286 2.46961 5.08947 0
M  V30 6868 H 652.843 3.18631 5.6861 0
M  V30 6869 N 656.276 -0.40816 1.52223 0
M  V30 6870 C 657.504 -1.17672 1.70179 0
M  V30 6871 C 657.919 -1.84257 0.411696 0
M  V30 6872 O 657.276 -1.7192 -0.612354 0
M  V30 6873 C 657.327 -2.23911 2.83806 0
M  V30 6874 O 657.048 -1.60044 4.0782 0
M  V30 6875 C 658.549 -3.1364 3.13281 0
M  V30 6876 H 655.769 -0.353562 0.570293 0
M  V30 6877 H 658.313 -0.480083 1.98785 0
M  V30 6878 H 656.468 -2.89242 2.57717 0
M  V30 6879 H 656.882 -2.30484 4.71145 0
M  V30 6880 H 658.356 -3.84255 3.96298 0
M  V30 6881 H 658.833 -3.76066 2.26872 0
M  V30 6882 H 659.439 -2.53977 3.41139 0
M  V30 6883 N 657.755 -1.42862 -0.66545 0
M  V30 6884 C 659.166 -1.3901 -1.24632 0
M  V30 6885 C 659.517 -0.0880285 -1.96002 0
M  V30 6886 O 658.642 0.812947 -2.0055 0
M  V30 6887 C 659.237 -2.51806 -2.2667 0
M  V30 6888 C 657.796 -2.51257 -2.80262 0
M  V30 6889 C 656.943 -2.30124 -1.5472 0
M  V30 6890 H 659.894 -1.5194 -0.458237 0
M  V30 6891 H 659.915 -2.22593 -3.08598 0
M  V30 6892 H 659.427 -3.46558 -1.74697 0
M  V30 6893 H 657.528 -1.60349 -3.36332 0
M  V30 6894 H 657.641 -3.48614 -3.28641 0
M  V30 6895 H 656.005 -1.7856 -1.81627 0
M  V30 6896 H 656.788 -3.26945 -1.04699 0
M  V30 6897 N 659.233 0.902656 -1.29189 0
M  V30 6898 C 660.458 1.69167 -1.19989 0
M  V30 6899 C 660.883 1.86607 0.236495 0
M  V30 6900 O 660.241 1.38425 1.17082 0
M  V30 6901 C 660.289 3.05532 -1.91527 0
M  V30 6902 O 659.393 3.93621 -1.2303 0
M  V30 6903 H 658.734 0.517584 -0.415936 0
M  V30 6904 H 661.264 1.12785 -1.70706 0
M  V30 6905 H 661.274 3.55693 -1.99866 0
M  V30 6906 H 659.949 2.92156 -2.96003 0
M  V30 6907 H 658.526 3.52055 -1.22928 0
M  V30 6908 N 660.711 1.11618 1.11262 0
M  V30 6909 C 661.939 0.888739 1.8684 0
M  V30 6910 C 662.354 -0.561558 1.80255 0
M  V30 6911 O 661.711 -1.38782 1.18515 0
M  V30 6912 C 661.762 1.34422 3.35579 0
M  V30 6913 O 661.483 2.73766 3.42029 0
M  V30 6914 C 662.984 1.15246 4.28058 0
M  V30 6915 H 660.204 0.318152 0.590779 0
M  V30 6916 H 662.748 1.48398 1.40707 0
M  V30 6917 H 660.903 0.79239 3.7921 0
M  V30 6918 H 661.317 2.9355 4.34659 0
M  V30 6919 H 662.791 1.52015 5.30656 0
M  V30 6920 H 663.268 0.0922007 4.39103 0
M  V30 6921 H 663.874 1.69136 3.90222 0
M  V30 6922 N 662.189 -1.289 0.906776 0
M  V30 6923 C 663.121 -2.26556 0.347159 0
M  V30 6924 C 664.134 -1.54589 -0.51049 0
M  V30 6925 O 665.323 -1.75489 -0.326501 0
M  V30 6926 C 662.423 -3.3484 -0.523024 0
M  V30 6927 C 661.596 -4.36296 0.310515 0
M  V30 6928 C 660.655 -5.23879 -0.493634 0
M  V30 6929 O 659.681 -5.69127 0.0913569 0
M  V30 6930 N 660.883 -5.51946 -1.7982 0
M  V30 6931 H 663.648 -2.75212 1.18652 0
M  V30 6932 H 661.209 -1.42309 0.771996 0
M  V30 6933 H 663.201 -3.90366 -1.06756 0
M  V30 6934 H 661.771 -2.85946 -1.26309 0
M  V30 6935 H 660.991 -3.80331 1.03644 0
M  V30 6936 H 662.279 -5.01113 0.881106 0
M  V30 6937 H 661.677 -5.17006 -2.2961 0
M  V30 6938 H 660.234 -6.10258 -2.28971 0
M  V30 6939 N 663.667 -0.670007 -1.42649 0
M  V30 6940 C 664.63 0.00204659 -2.292 0
M  V30 6941 C 665.63 0.733817 -1.4308 0
M  V30 6942 O 666.82 0.57254 -1.64522 0
M  V30 6943 C 663.952 1.01359 -3.25483 0
M  V30 6944 H 665.145 -0.759696 -2.90118 0
M  V30 6945 H 662.698 -0.432105 -1.50208 0
M  V30 6946 H 663.433 1.80399 -2.69493 0
M  V30 6947 H 663.218 0.492323 -3.88997 0
M  V30 6948 H 664.708 1.4824 -3.90403 0
M  V30 6949 N 665.145 1.52092 -0.413018 0
M  V30 6950 C 666.077 2.24819 0.445994 0
M  V30 6951 C 667.09 1.27925 1.00692 0
M  V30 6952 O 668.279 1.53845 0.905204 0
M  V30 6953 C 665.379 2.96951 1.6332 0
M  V30 6954 C 664.552 4.20746 1.19548 0
M  V30 6955 C 663.611 4.75668 2.25003 0
M  V30 6956 O 662.637 5.38148 1.85434 0
M  V30 6957 N 663.839 4.57579 3.57214 0
M  V30 6958 H 666.604 2.99176 -0.177209 0
M  V30 6959 H 664.165 1.60102 -0.240601 0
M  V30 6960 H 666.157 3.30586 2.33441 0
M  V30 6961 H 664.727 2.25756 2.16225 0
M  V30 6962 H 663.947 3.92881 0.32224 0
M  V30 6963 H 665.235 5.01132 0.880033 0
M  V30 6964 H 664.633 4.07758 3.92109 0
M  V30 6965 H 663.19 4.95642 4.23299 0
M  V30 6966 N 666.623 0.143563 1.56945 0
M  V30 6967 C 667.871 -0.507402 1.95627 0
M  V30 6968 C 668.192 -1.65626 1.02922 0
M  V30 6969 O 667.462 -1.95693 0.0901136 0
M  V30 6970 H 666.042 -0.190436 0.722318 0
M  V30 6971 H 668.704 0.218257 1.93674 0
M  V30 6972 H 667.8 -0.885816 2.99265 0
M  V30 6973 N 668.101 -1.57061 -0.130224 0
M  V30 6974 C 669.031 -2.02552 -1.16168 0
M  V30 6975 C 670.012 -0.907971 -1.4384 0
M  V30 6976 O 671.197 -1.17693 -1.54473 0
M  V30 6977 C 668.327 -2.42035 -2.49071 0
M  V30 6978 C 667.281 -3.5713 -2.35886 0
M  V30 6979 C 666.607 -3.82478 -3.7365 0
M  V30 6980 C 667.907 -4.89236 -1.8288 0
M  V30 6981 H 669.601 -2.8897 -0.783359 0
M  V30 6982 H 667.147 -1.39021 -0.375376 0
M  V30 6983 H 669.1 -2.72462 -3.21469 0
M  V30 6984 H 667.824 -1.52573 -2.88771 0
M  V30 6985 H 666.483 -3.26895 -1.65938 0
M  V30 6986 H 666.131 -2.9024 -4.10816 0
M  V30 6987 H 665.831 -4.59944 -3.65685 0
M  V30 6988 H 667.355 -4.15347 -4.47571 0
M  V30 6989 H 668.769 -5.18272 -2.45085 0
M  V30 6990 H 667.166 -5.70624 -1.85763 0
M  V30 6991 H 668.236 -4.78494 -0.785571 0
M  V30 6992 N 669.579 0.400081 -1.52437 0
M  V30 6993 C 670.99 0.97851 -1.59003 0
M  V30 6994 C 671.341 1.91293 -0.436068 0
M  V30 6995 O 670.466 2.1183 0.442365 0
M  V30 6996 C 671.061 1.78145 -2.88184 0
M  V30 6997 C 669.62 2.30976 -2.97199 0
M  V30 6998 C 668.767 1.11212 -2.54022 0
M  V30 6999 H 671.718 0.180002 -1.57676 0
M  V30 7000 H 671.739 2.63968 -2.74046 0
M  V30 7001 H 671.251 1.1011 -3.72152 0
M  V30 7002 H 669.352 3.02355 -2.17744 0
M  V30 7003 H 669.465 2.61221 -4.01622 0
M  V30 7004 H 667.829 1.46882 -2.08081 0
M  V30 7005 H 668.612 0.447307 -3.40373 0
M  V30 7006 N 671.057 1.43213 0.657864 0
M  V30 7007 C 672.02 1.47687 1.75275 0
M  V30 7008 C 673.02 0.362179 1.56668 0
M  V30 7009 O 674.21 0.623734 1.62651 0
M  V30 7010 C 671.342 1.32497 3.14098 0
M  V30 7011 H 672.535 2.4519 1.7269 0
M  V30 7012 H 670.088 1.2991 0.869087 0
M  V30 7013 H 670.823 0.359831 3.22298 0
M  V30 7014 H 670.608 2.13299 3.29008 0
M  V30 7015 H 672.098 1.38549 3.93946 0
M  V30 7016 N 672.536 -0.895792 1.29666 0
M  V30 7017 C 673.468 -2.00563 1.10937 0
M  V30 7018 C 674.481 -1.62705 0.055734 0
M  V30 7019 O 675.67 -1.7595 0.300656 0
M  V30 7020 C 672.77 -3.32262 0.667448 0
M  V30 7021 C 671.943 -3.98625 1.80047 0
M  V30 7022 C 671.002 -5.08617 1.3489 0
M  V30 7023 O 670.028 -5.30837 2.05429 0
M  V30 7024 N 671.23 -5.80076 0.221937 0
M  V30 7025 H 673.995 -2.17184 2.06522 0
M  V30 7026 H 671.556 -1.06822 1.21658 0
M  V30 7027 H 673.548 -4.03196 0.348586 0
M  V30 7028 H 672.118 -3.11985 -0.196055 0
M  V30 7029 H 671.338 -3.21005 2.28801 0
M  V30 7030 H 672.626 -4.39704 2.56003 0
M  V30 7031 H 672.024 -5.64514 -0.366084 0
M  V30 7032 H 670.581 -6.51789 -0.0375346 0
M  V30 7033 N 674.014 -1.12206 -1.10668 0
M  V30 7034 C 674.977 -0.790867 -2.15123 0
M  V30 7035 C 675.977 0.193618 -1.5963 0
M  V30 7036 O 677.167 -0.0318728 -1.74171 0
M  V30 7037 C 674.299 -0.174797 -3.40452 0
M  V30 7038 H 675.492 -1.7163 -2.45933 0
M  V30 7039 H 673.045 -0.924993 -1.2599 0
M  V30 7040 H 673.78 0.760478 -3.15257 0
M  V30 7041 H 673.565 -0.88358 -3.82015 0
M  V30 7042 H 675.055 0.0405162 -4.1758 0
M  V30 7043 N 675.492 1.28418 -0.913599 0
M  V30 7044 C 676.424 2.26368 -0.359169 0
M  V30 7045 C 677.437 1.54858 0.502285 0
M  V30 7046 O 678.626 1.75659 0.31719 0
M  V30 7047 C 675.726 3.35112 0.50526 0
M  V30 7048 C 674.899 4.36126 -0.333648 0
M  V30 7049 C 673.958 5.24134 0.465845 0
M  V30 7050 O 672.984 5.6907 -0.121538 0
M  V30 7051 N 674.186 5.52892 1.76891 0
M  V30 7052 H 676.951 2.74579 -1.2011 0
M  V30 7053 H 674.512 1.41898 -0.779532 0
M  V30 7054 H 676.504 3.90926 1.04684 0
M  V30 7055 H 675.074 2.86611 1.2479 0
M  V30 7056 H 674.294 3.79776 -1.0566 0
M  V30 7057 H 675.582 5.00638 -0.907669 0
M  V30 7058 H 674.98 5.18217 2.26865 0
M  V30 7059 H 673.537 6.11464 2.25732 0
M  V30 7060 N 676.97 0.677563 1.42291 0
M  V30 7061 C 677.933 0.0101085 2.29198 0
M  V30 7062 C 678.933 -0.726219 1.43467 0
M  V30 7063 O 680.123 -0.563807 1.64824 0
M  V30 7064 C 677.255 -0.996316 3.26016 0
M  V30 7065 H 678.448 0.775071 2.89711 0
M  V30 7066 H 676.001 0.440065 1.49977 0
M  V30 7067 H 676.736 -1.78967 2.70446 0
M  V30 7068 H 676.521 -0.471687 3.89253 0
M  V30 7069 H 678.011 -1.46167 3.91184 0
M  V30 7070 N 678.448 -1.51871 0.421078 0
M  V30 7071 C 679.676 -2.06356 -0.14994 0
M  V30 7072 C 680.091 -1.29006 -1.37851 0
M  V30 7073 O 679.448 -0.345139 -1.79207 0
M  V30 7074 C 679.499 -3.58185 -0.488454 0
M  V30 7075 O 679.22 -4.32611 0.691341 0
M  V30 7076 C 680.721 -4.29129 -1.11191 0
M  V30 7077 H 677.941 -0.67083 -0.0151186 0
M  V30 7078 H 680.485 -1.95638 0.595476 0
M  V30 7079 H 678.64 -3.68871 -1.18376 0
M  V30 7080 H 679.054 -5.22927 0.405906 0
M  V30 7081 H 680.528 -5.36501 -1.29889 0
M  V30 7082 H 681.005 -3.86371 -2.0884 0
M  V30 7083 H 681.611 -4.22843 -0.456458 0
M  V30 7084 N 679.926 -0.151884 -1.56866 0
M  V30 7085 C 681.337 0.368128 -1.83035 0
M  V30 7086 C 681.688 1.64402 -1.07082 0
M  V30 7087 O 680.813 2.14056 -0.317647 0
M  V30 7088 C 681.408 0.674676 -3.32014 0
M  V30 7089 C 679.967 1.13919 -3.58747 0
M  V30 7090 C 679.114 0.164833 -2.7681 0
M  V30 7091 H 682.065 -0.376499 -1.54169 0
M  V30 7092 H 682.086 1.52883 -3.48435 0
M  V30 7093 H 681.598 -0.254113 -3.87267 0
M  V30 7094 H 679.699 2.08375 -3.08886 0
M  V30 7095 H 679.812 1.06179 -4.67186 0
M  V30 7096 H 678.176 0.658419 -2.46043 0
M  V30 7097 H 678.959 -0.757633 -3.34836 0
M  V30 7098 N 681.404 1.57128 0.121893 0
M  V30 7099 C 682.336 1.96773 1.17529 0
M  V30 7100 C 683.349 0.866668 1.37814 0
M  V30 7101 O 684.538 1.14497 1.3694 0
M  V30 7102 C 681.638 2.24832 2.53582 0
M  V30 7103 C 680.811 3.56138 2.53939 0
M  V30 7104 C 679.87 3.72443 3.71716 0
M  V30 7105 O 678.896 4.44584 3.55434 0
M  V30 7106 N 680.098 3.10993 4.90167 0
M  V30 7107 H 682.863 2.87743 0.838086 0
M  V30 7108 H 680.424 1.58881 0.311199 0
M  V30 7109 H 682.416 2.32958 3.30927 0
M  V30 7110 H 680.986 1.40002 2.79496 0
M  V30 7111 H 680.206 3.59226 1.62329 0
M  V30 7112 H 681.494 4.42448 2.51231 0
M  V30 7113 H 680.892 2.52345 5.06299 0
M  V30 7114 H 679.449 3.24644 5.65198 0
M  V30 7115 N 682.882 -0.391992 1.52647 0
M  V30 7116 C 683.832 -1.47815 1.73594 0
M  V30 7117 C 684.816 -1.49693 0.589979 0
M  V30 7118 O 686.008 -1.5538 0.847701 0
M  V30 7119 C 683.137 -2.85561 1.90551 0
M  V30 7120 C 682.223 -2.88264 3.1107 0
M  V30 7121 N 682.614 -2.60642 4.33474 0
M  V30 7122 C 680.912 -3.19432 3.11254 0
M  V30 7123 C 681.613 -2.70351 5.15058 0
M  V30 7124 N 680.589 -3.03956 4.50679 0
M  V30 7125 H 684.391 -1.2528 2.65861 0
M  V30 7126 H 681.905 -0.599907 1.50913 0
M  V30 7127 H 683.902 -3.63759 2.03678 0
M  V30 7128 H 682.562 -3.09081 0.994952 0
M  V30 7129 H 683.573 -2.34718 4.61658 0
M  V30 7130 H 680.25 -3.48436 2.29997 0
M  V30 7131 H 681.64 -2.52565 6.22624 0
M  V30 7132 N 684.36 -1.4356 -0.65026 0
M  V30 7133 C 685.292 -1.44918 -1.77571 0
M  V30 7134 C 686.305 -0.344925 -1.59104 0
M  V30 7135 O 687.494 -0.609537 -1.6777 0
M  V30 7136 C 684.594 -1.24914 -3.15039 0
M  V30 7137 C 683.767 -2.48232 -3.60138 0
M  V30 7138 C 682.826 -2.23409 -4.76419 0
M  V30 7139 O 681.852 -2.9678 -4.85706 0
M  V30 7140 N 683.054 -1.25259 -5.66825 0
M  V30 7141 H 685.819 -2.41935 -1.76883 0
M  V30 7142 H 683.38 -1.38754 -0.834202 0
M  V30 7143 H 685.372 -1.06185 -3.90521 0
M  V30 7144 H 683.942 -0.363319 -3.10481 0
M  V30 7145 H 683.162 -2.82366 -2.75069 0
M  V30 7146 H 684.45 -3.30296 -3.87017 0
M  V30 7147 H 683.848 -0.646246 -5.61997 0
M  V30 7148 H 682.405 -1.12513 -6.42016 0
M  V30 7149 N 685.838 0.888903 -1.30139 0
M  V30 7150 C 686.77 1.99972 -1.11999 0
M  V30 7151 C 687.783 1.62673 -0.0643619 0
M  V30 7152 O 688.972 1.75788 -0.309983 0
M  V30 7153 C 686.072 3.31904 -0.685059 0
M  V30 7154 C 685.245 3.97665 -1.82158 0
M  V30 7155 C 684.304 5.07894 -1.37585 0
M  V30 7156 O 683.33 5.2974 -2.08241 0
M  V30 7157 N 684.532 5.7995 -0.252697 0
M  V30 7158 H 687.297 2.16085 -2.07671 0
M  V30 7159 H 684.858 1.06175 -1.22223 0
M  V30 7160 H 686.85 4.03005 -0.369964 0
M  V30 7161 H 685.42 3.12084 0.179507 0
M  V30 7162 H 684.64 3.19787 -2.305 0
M  V30 7163 H 685.928 4.3834 -2.58332 0
M  V30 7164 H 685.326 5.647 0.336141 0
M  V30 7165 H 683.883 6.518 0.00296813 0
M  V30 7166 N 687.317 1.12792 1.10072 0
M  V30 7167 C 688.249 0.757003 2.16338 0
M  V30 7168 C 689.262 -0.218144 1.61332 0
M  V30 7169 O 690.451 0.0010727 1.785 0
M  V30 7170 C 687.551 0.100303 3.38752 0
M  V30 7171 C 686.724 1.10586 4.2319 0
M  V30 7172 C 685.783 0.47609 5.24042 0
M  V30 7173 O 684.809 1.13418 5.57786 0
M  V30 7174 N 686.011 -0.754823 5.75572 0
M  V30 7175 H 688.776 1.6714 2.48766 0
M  V30 7176 H 686.337 1.02003 1.25726 0
M  V30 7177 H 688.329 -0.333092 4.03327 0
M  V30 7178 H 686.899 -0.716915 3.04268 0
M  V30 7179 H 686.119 1.71677 3.54853 0
M  V30 7180 H 687.407 1.78571 4.76435 0
M  V30 7181 H 686.805 -1.30838 5.50362 0
M  V30 7182 H 685.362 -1.13098 6.41913 0
M  V30 7183 N 688.795 -1.27931 0.920396 0
M  V30 7184 C 689.725 -2.29487 0.431024 0
M  V30 7185 C 690.706 -1.62435 -0.504861 0
M  V30 7186 O 691.891 -1.89797 -0.411176 0
M  V30 7187 C 689.021 -3.45788 -0.323709 0
M  V30 7188 C 687.975 -4.24784 0.523658 0
M  V30 7189 C 687.301 -5.33488 -0.359809 0
M  V30 7190 C 688.601 -4.90874 1.78437 0
M  V30 7191 H 690.295 -2.70671 1.27975 0
M  V30 7192 H 687.841 -1.30121 0.616813 0
M  V30 7193 H 689.794 -4.15927 -0.676952 0
M  V30 7194 H 688.518 -3.03502 -1.2064 0
M  V30 7195 H 687.177 -3.56382 0.85951 0
M  V30 7196 H 686.825 -4.87445 -1.24124 0
M  V30 7197 H 686.525 -5.87247 0.203605 0
M  V30 7198 H 688.049 -6.06472 -0.708787 0
M  V30 7199 H 689.463 -5.53339 1.49963 0
M  V30 7200 H 687.86 -5.54659 2.29071 0
M  V30 7201 H 688.93 -4.14988 2.50824 0
M  V30 7202 N 690.273 -0.685099 -1.4193 0
M  V30 7203 C 691.52 -0.211658 -2.01391 0
M  V30 7204 C 691.848 1.18526 -1.54214 0
M  V30 7205 O 691.103 1.81189 -0.739519 0
M  V30 7206 C 691.402 -0.206154 -3.56805 0
M  V30 7207 C 691.068 -1.54915 -4.23453 0
M  V30 7208 C 689.73 -1.91684 -4.41373 0
M  V30 7209 C 692.082 -2.43317 -4.60919 0
M  V30 7210 C 689.41 -3.16461 -4.94034 0
M  V30 7211 C 691.762 -3.67415 -5.14965 0
M  V30 7212 C 690.426 -4.04341 -5.31098 0
M  V30 7213 H 689.696 -0.0774511 -0.736941 0
M  V30 7214 H 692.343 -0.882121 -1.69973 0
M  V30 7215 H 690.648 0.547841 -3.87951 0
M  V30 7216 H 692.345 0.17753 -4.00607 0
M  V30 7217 H 688.935 -1.25314 -4.09871 0
M  V30 7218 H 693.119 -2.16192 -4.46738 0
M  V30 7219 H 688.375 -3.45078 -5.04709 0
M  V30 7220 H 692.549 -4.3611 -5.42938 0
M  V30 7221 H 690.176 -5.01101 -5.71666 0
M  V30 7222 N 691.751 1.51645 -0.429126 0
M  V30 7223 C 692.681 2.30434 0.377148 0
M  V30 7224 C 693.662 1.35493 1.02838 0
M  V30 7225 O 694.847 1.6441 1.03359 0
M  V30 7226 C 691.977 3.14038 1.48315 0
M  V30 7227 C 690.931 4.1719 0.955855 0
M  V30 7228 C 690.257 4.89263 2.15698 0
M  V30 7229 C 691.557 5.223 -0.00402136 0
M  V30 7230 H 693.251 2.98085 -0.280336 0
M  V30 7231 H 690.797 1.43354 -0.136265 0
M  V30 7232 H 692.75 3.67933 2.05435 0
M  V30 7233 H 691.474 2.44193 2.16881 0
M  V30 7234 H 690.133 3.64335 0.406929 0
M  V30 7235 H 689.781 4.15929 2.82864 0
M  V30 7236 H 689.481 5.59009 1.81059 0
M  V30 7237 H 691.005 5.45978 2.73387 0
M  V30 7238 H 692.419 5.71315 0.476607 0
M  V30 7239 H 690.816 5.99525 -0.26258 0
M  V30 7240 H 691.886 4.75638 -0.943236 0
M  V30 7241 N 693.229 0.160201 1.56784 0
M  V30 7242 C 694.176 -0.774416 2.1742 0
M  V30 7243 C 695.146 -1.23483 1.11091 0
M  V30 7244 O 696.331 -1.30499 1.39193 0
M  V30 7245 C 693.471 -2.00283 2.81035 0
M  V30 7246 C 692.584 -1.58701 4.01793 0
M  V30 7247 C 691.719 -2.76824 4.53367 0
M  V30 7248 C 690.758 -2.31679 5.66561 0
M  V30 7249 N 689.895 -3.42856 6.12694 0
M  V30 7250 H 694.735 -0.250542 2.96945 0
M  V30 7251 H 692.272 -0.111943 1.46673 0
M  V30 7252 H 694.23 -2.72316 3.16069 0
M  V30 7253 H 692.86 -2.5006 2.04132 0
M  V30 7254 H 691.912 -0.76384 3.72652 0
M  V30 7255 H 693.224 -1.21555 4.83762 0
M  V30 7256 H 692.378 -3.57029 4.90525 0
M  V30 7257 H 691.117 -3.17223 3.70433 0
M  V30 7258 H 690.122 -1.49917 5.28966 0
M  V30 7259 H 691.347 -1.9235 6.5129 0
M  V30 7260 H 689.293 -3.82852 5.32692 0
M  V30 7261 H 689.21 -3.09767 6.89624 0
M  V30 7262 H 690.478 -4.23379 6.545 0
M  V30 7263 N 694.707 -1.5719 -0.113559 0
M  V30 7264 C 695.639 -1.97393 -1.16484 0
M  V30 7265 C 696.652 -0.873964 -1.37352 0
M  V30 7266 O 697.841 -1.15222 -1.36331 0
M  V30 7267 C 694.941 -2.26174 -2.52386 0
M  V30 7268 C 694.114 -3.57479 -2.52046 0
M  V30 7269 C 693.173 -3.74409 -3.69735 0
M  V30 7270 O 692.199 -4.46463 -3.53071 0
M  V30 7271 N 693.401 -3.13588 -4.88511 0
M  V30 7272 H 696.166 -2.88184 -0.822814 0
M  V30 7273 H 693.727 -1.59044 -0.302769 0
M  V30 7274 H 695.719 -2.3471 -3.29687 0
M  V30 7275 H 694.289 -1.41483 -2.7875 0
M  V30 7276 H 693.509 -3.60081 -1.60421 0
M  V30 7277 H 694.797 -4.43775 -2.48881 0
M  V30 7278 H 694.195 -2.55026 -5.04953 0
M  V30 7279 H 692.752 -3.27637 -5.63469 0
M  V30 7280 N 696.185 0.383891 -1.52853 0
M  V30 7281 C 697.117 1.48889 -1.74255 0
M  V30 7282 C 698.13 1.50405 -0.623063 0
M  V30 7283 O 699.319 1.54215 -0.898887 0
M  V30 7284 C 696.419 2.87721 -1.79081 0
M  V30 7285 C 695.592 3.10111 -3.08464 0
M  V30 7286 C 694.651 4.28954 -3.0477 0
M  V30 7287 O 693.677 4.25012 -3.78621 0
M  V30 7288 N 694.879 5.35411 -2.24311 0
M  V30 7289 H 697.644 1.30915 -2.69595 0
M  V30 7290 H 695.205 0.573454 -1.51404 0
M  V30 7291 H 697.197 3.65333 -1.7411 0
M  V30 7292 H 695.767 2.99029 -0.911052 0
M  V30 7293 H 694.987 2.20319 -3.26884 0
M  V30 7294 H 696.275 3.21928 -3.94005 0
M  V30 7295 H 695.673 5.41471 -1.63787 0
M  V30 7296 H 694.23 6.1167 -2.25175 0
M  V30 7297 N 697.663 1.43903 0.642637 0
M  V30 7298 C 698.595 1.45857 1.768 0
M  V30 7299 C 699.608 0.353358 1.58919 0
M  V30 7300 O 700.797 0.618426 1.67445 0
M  V30 7301 C 697.897 1.26583 3.14372 0
M  V30 7302 C 697.07 2.50139 3.58817 0
M  V30 7303 C 696.129 2.25933 4.75227 0
M  V30 7304 O 695.155 2.99351 4.84125 0
M  V30 7305 N 696.357 1.28263 5.66153 0
M  V30 7306 H 699.122 2.42869 1.75598 0
M  V30 7307 H 696.683 1.39194 0.826832 0
M  V30 7308 H 698.675 1.08255 3.89953 0
M  V30 7309 H 697.245 0.37978 3.10284 0
M  V30 7310 H 696.465 2.83821 2.73568 0
M  V30 7311 H 697.753 3.32344 3.8526 0
M  V30 7312 H 697.151 0.676041 5.61646 0
M  V30 7313 H 695.708 1.15916 6.4141 0
M  V30 7314 N 699.141 -0.881989 1.30609 0
M  V30 7315 C 700.073 -1.99375 1.13058 0
M  V30 7316 C 701.086 -1.62636 0.0729879 0
M  V30 7317 O 702.275 -1.75621 0.319301 0
M  V30 7318 C 699.375 -3.31536 0.702651 0
M  V30 7319 C 698.548 -3.96693 1.84265 0
M  V30 7320 C 697.607 -5.07158 1.40277 0
M  V30 7321 O 696.633 -5.28628 2.11048 0
M  V30 7322 N 697.835 -5.79808 0.283449 0
M  V30 7323 H 700.6 -2.14981 2.08814 0
M  V30 7324 H 698.161 -1.05526 1.22784 0
M  V30 7325 H 700.153 -4.02804 0.391331 0
M  V30 7326 H 698.723 -3.12175 -0.162954 0
M  V30 7327 H 697.943 -3.1856 2.32192 0
M  V30 7328 H 699.231 -4.36964 2.60653 0
M  V30 7329 H 698.629 -5.64871 -0.306189 0
M  V30 7330 H 697.186 -6.51792 0.0315985 0
M  V30 7331 N 700.619 -1.13374 -1.09472 0
M  V30 7332 C 701.551 -0.768466 -2.15933 0
M  V30 7333 C 702.564 0.209585 -1.61445 0
M  V30 7334 O 703.753 -0.010539 -1.78497 0
M  V30 7335 C 700.853 -0.118266 -3.38694 0
M  V30 7336 C 700.026 -1.12829 -4.22597 0
M  V30 7337 C 699.085 -0.503875 -5.23782 0
M  V30 7338 O 698.111 -1.16374 -5.57177 0
M  V30 7339 N 699.313 0.724288 -5.75964 0
M  V30 7340 H 702.078 -1.68457 -2.47876 0
M  V30 7341 H 699.639 -1.02668 -1.25183 0
M  V30 7342 H 701.631 0.311698 -4.03498 0
M  V30 7343 H 700.201 0.700769 -3.04644 0
M  V30 7344 H 699.421 -1.73556 -3.53938 0
M  V30 7345 H 700.709 -1.81095 -4.75481 0
M  V30 7346 H 700.107 1.27918 -5.51048 0
M  V30 7347 H 698.664 1.09692 -6.42504 0
M  V30 7348 N 702.098 1.27442 -0.927168 0
M  V30 7349 C 703.03 2.25975 -0.383158 0
M  V30 7350 C 704.043 1.55382 0.485832 0
M  V30 7351 O 705.232 1.75986 0.298541 0
M  V30 7352 C 702.332 3.35629 0.469688 0
M  V30 7353 C 701.505 4.35747 -0.379886 0
M  V30 7354 C 700.564 5.24598 0.410227 0
M  V30 7355 O 699.59 5.68909 -0.181888 0
M  V30 7356 N 700.792 5.54737 1.71017 0
M  V30 7357 H 703.557 2.7329 -1.23015 0
M  V30 7358 H 701.118 1.41063 -0.794539 0
M  V30 7359 H 703.11 3.92015 1.00532 0
M  V30 7360 H 701.68 2.87919 1.21744 0
M  V30 7361 H 700.9 3.78634 -1.09682 0
M  V30 7362 H 702.188 4.99648 -0.960717 0
M  V30 7363 H 701.586 5.20594 2.21356 0
M  V30 7364 H 700.143 6.13824 2.19234 0
M  V30 7365 N 703.576 0.692616 1.41565 0
M  V30 7366 C 704.508 -0.0137132 2.29196 0
M  V30 7367 C 705.521 -0.747417 1.44629 0
M  V30 7368 O 706.71 -0.598611 1.68163 0
M  V30 7369 C 703.81 -1.04347 3.22436 0
M  V30 7370 C 702.983 -0.379985 4.35746 0
M  V30 7371 C 702.042 -1.31195 5.09583 0
M  V30 7372 O 701.068 -0.805455 5.63472 0
M  V30 7373 N 702.27 -2.64443 5.16769 0
M  V30 7374 H 705.035 0.738614 2.90456 0
M  V30 7375 H 702.596 0.538415 1.52685 0
M  V30 7376 H 704.588 -1.6686 3.687 0
M  V30 7377 H 703.158 -1.69736 2.62504 0
M  V30 7378 H 702.378 0.424975 3.91903 0
M  V30 7379 H 703.666 0.0814904 5.08735 0
M  V30 7380 H 703.064 -3.08114 4.74428 0
M  V30 7381 H 701.621 -3.22159 5.66619 0
M  V30 7382 N 705.054 -1.51416 0.437162 0
M  V30 7383 C 706.465 -1.86682 -0.0260005 0
M  V30 7384 C 706.816 -1.35432 -1.4196 0
M  V30 7385 O 705.941 -0.705055 -2.04592 0
M  V30 7386 C 706.536 -3.38757 -0.0539577 0
M  V30 7387 C 705.095 -3.7356 -0.461532 0
M  V30 7388 C 704.242 -2.75134 0.345924 0
M  V30 7389 H 707.193 -1.44642 0.653013 0
M  V30 7390 H 707.214 -3.70573 -0.863478 0
M  V30 7391 H 706.726 -3.76028 0.96045 0
M  V30 7392 H 704.827 -3.41878 -1.48155 0
M  V30 7393 H 704.94 -4.78737 -0.186451 0
M  V30 7394 H 703.304 -2.53947 -0.195739 0
M  V30 7395 H 704.087 -3.15247 1.35921 0
M  V30 7396 N 706.532 -0.168513 -1.56696 0
M  V30 7397 C 707.943 0.348694 -1.83415 0
M  V30 7398 C 708.294 1.63257 -1.0882 0
M  V30 7399 O 707.419 2.13707 -0.340333 0
M  V30 7400 C 708.014 0.639423 -3.32711 0
M  V30 7401 C 706.573 1.10108 -3.59935 0
M  V30 7402 C 705.72 0.135464 -2.76969 0
M  V30 7403 H 708.671 -0.392829 -1.53761 0
M  V30 7404 H 708.692 1.49179 -3.50037 0
M  V30 7405 H 708.204 -0.295173 -3.86976 0
M  V30 7406 H 706.305 2.05088 -3.11079 0
M  V30 7407 H 706.418 1.01218 -4.68286 0
M  V30 7408 H 704.782 0.632286 -2.46727 0
M  V30 7409 H 705.565 -0.793104 -3.34013 0
M  V30 7410 N 708.01 1.57248 0.105221 0
M  V30 7411 C 709.421 1.74612 0.660865 0
M  V30 7412 C 709.772 0.789231 1.79626 0
M  V30 7413 O 708.897 -0.0346611 2.16372 0
M  V30 7414 C 709.492 3.16624 1.20559 0
M  V30 7415 C 708.051 3.35447 1.7074 0
M  V30 7416 C 707.198 2.70445 0.612764 0
M  V30 7417 H 710.149 1.5824 -0.12079 0
M  V30 7418 H 710.17 3.18937 2.07508 0
M  V30 7419 H 709.682 3.86245 0.379012 0
M  V30 7420 H 707.783 2.7089 2.5583 0
M  V30 7421 H 707.896 4.43702 1.80736 0
M  V30 7422 H 706.26 2.32061 1.04975 0
M  V30 7423 H 707.043 3.42699 -0.203066 0
M  V30 7424 N 709.488 -0.375779 1.53054 0
M  V30 7425 C 710.451 -1.44254 1.7811 0
M  V30 7426 C 711.451 -1.47018 0.651328 0
M  V30 7427 O 712.641 -1.47957 0.919472 0
M  V30 7428 C 709.773 -2.8345 1.89391 0
M  V30 7429 H 710.966 -1.23316 2.73374 0
M  V30 7430 H 708.519 -0.608312 1.43977 0
M  V30 7431 H 709.254 -3.09716 0.961589 0
M  V30 7432 H 709.039 -2.82844 2.71555 0
M  V30 7433 H 710.529 -3.60722 2.10404 0
M  V30 7434 N 710.966 -1.44241 -0.634997 0
M  V30 7435 C 711.898 -1.46793 -1.76024 0
M  V30 7436 C 712.911 -0.361781 -1.58729 0
M  V30 7437 O 714.1 -0.627297 -1.67114 0
M  V30 7438 C 711.2 -1.28248 -3.13697 0
M  V30 7439 C 710.373 -2.52038 -3.57485 0
M  V30 7440 C 709.432 -2.2845 -4.74022 0
M  V30 7441 O 708.458 -3.01915 -4.82531 0
M  V30 7442 N 709.66 -1.31264 -5.65464 0
M  V30 7443 H 712.425 -2.43797 -1.74307 0
M  V30 7444 H 709.986 -1.39631 -0.819438 0
M  V30 7445 H 711.978 -1.10321 -3.89373 0
M  V30 7446 H 710.548 -0.39623 -3.10079 0
M  V30 7447 H 709.768 -2.85268 -2.72059 0
M  V30 7448 H 711.056 -3.34382 -3.83492 0
M  V30 7449 H 710.454 -0.705817 -5.6128 0
M  V30 7450 H 709.011 -1.19316 -6.40786 0
M  V30 7451 N 712.444 0.87505 -1.31075 0
M  V30 7452 C 713.376 1.98773 -1.14114 0
M  V30 7453 C 714.389 1.62595 -0.0816119 0
M  V30 7454 O 715.578 1.75449 -0.32861 0
M  V30 7455 C 712.678 3.31159 -0.720224 0
M  V30 7456 C 711.851 3.9571 -1.86366 0
M  V30 7457 C 710.91 5.06407 -1.42965 0
M  V30 7458 O 709.936 5.27501 -2.13848 0
M  V30 7459 N 711.138 5.79649 -0.314194 0
M  V30 7460 H 713.903 2.1387 -2.09951 0
M  V30 7461 H 711.464 1.04873 -1.23342 0
M  V30 7462 H 713.456 4.0259 -0.412687 0
M  V30 7463 H 712.026 3.12257 0.146396 0
M  V30 7464 H 711.246 3.17324 -2.33879 0
M  V30 7465 H 712.534 4.35576 -2.62966 0
M  V30 7466 H 711.932 5.65025 0.276228 0
M  V30 7467 H 710.489 6.51766 -0.0661641 0
M  V30 7468 N 713.922 1.13953 1.08869 0
M  V30 7469 C 714.854 0.779906 2.15523 0
M  V30 7470 C 715.867 -0.20102 1.61554 0
M  V30 7471 O 717.056 0.0200049 1.78489 0
M  V30 7472 C 714.156 0.136226 3.38626 0
M  V30 7473 C 713.329 1.15069 4.21993 0
M  V30 7474 C 712.388 0.531645 5.23507 0
M  V30 7475 O 711.414 1.19327 5.56552 0
M  V30 7476 N 712.616 -0.693734 5.7634 0
M  V30 7477 H 715.381 1.69769 2.46979 0
M  V30 7478 H 712.942 1.03331 1.24637 0
M  V30 7479 H 714.934 -0.290295 4.03658 0
M  V30 7480 H 713.504 -0.684603 3.05011 0
M  V30 7481 H 712.724 1.75431 3.53012 0
M  V30 7482 H 714.012 1.83614 4.74514 0
M  V30 7483 H 713.41 -1.24994 5.51718 0
M  V30 7484 H 711.967 -1.06283 6.43076 0
M  V30 7485 N 715.4 -1.26948 0.933913 0
M  V30 7486 C 716.811 -1.76058 0.621324 0
M  V30 7487 C 717.162 -1.76175 -0.863522 0
M  V30 7488 O 716.287 -1.36921 -1.67576 0
M  V30 7489 C 716.882 -3.19713 1.12111 0
M  V30 7490 C 715.441 -3.66465 0.859074 0
M  V30 7491 C 714.588 -2.46186 1.27624 0
M  V30 7492 H 717.539 -1.13127 1.11301 0
M  V30 7493 H 717.56 -3.77566 0.471608 0
M  V30 7494 H 717.072 -3.19596 2.20182 0
M  V30 7495 H 715.173 -3.72021 -0.207566 0
M  V30 7496 H 715.286 -4.55636 1.48098 0
M  V30 7497 H 713.65 -2.45042 0.694727 0
M  V30 7498 H 714.433 -2.48774 2.36572 0
M  V30 7499 N 716.879 -0.700114 -1.41195 0
M  V30 7500 C 717.842 -0.0465706 -2.29153 0
M  V30 7501 C 718.842 0.703302 -1.44604 0
M  V30 7502 O 720.032 0.537513 -1.657 0
M  V30 7503 C 717.164 0.944324 -3.2756 0
M  V30 7504 H 718.357 -0.821064 -2.88442 0
M  V30 7505 H 715.91 -0.463869 -1.49258 0
M  V30 7506 H 716.645 1.74642 -2.73259 0
M  V30 7507 H 716.43 0.409701 -3.89954 0
M  V30 7508 H 717.92 1.39925 -3.9346 0
M  V30 7509 N 718.357 1.51182 -0.445186 0
M  V30 7510 C 719.605 2.01753 0.11841 0
M  V30 7511 C 719.926 1.33087 1.42523 0
M  V30 7512 O 719.196 0.467891 1.9023 0
M  V30 7513 H 717.776 0.745536 0.0467492 0
M  V30 7514 H 720.438 1.85765 -0.589688 0
M  V30 7515 H 719.534 3.10762 0.288665 0
M  V30 7516 N 719.835 0.176821 1.56605 0
M  V30 7517 C 721.063 -0.472828 2.01425 0
M  V30 7518 C 721.478 -1.56436 1.05703 0
M  V30 7519 O 720.835 -1.82405 0.058808 0
M  V30 7520 C 720.886 -1.04607 3.46034 0
M  V30 7521 O 720.607 0.00189608 4.381 0
M  V30 7522 C 722.108 -1.7734 4.06282 0
M  V30 7523 H 719.328 -0.120503 0.660091 0
M  V30 7524 H 721.872 0.280166 2.02572 0
M  V30 7525 H 720.027 -1.74953 3.45645 0
M  V30 7526 H 720.441 -0.422118 5.22799 0
M  V30 7527 H 721.915 -2.12703 5.09374 0
M  V30 7528 H 722.392 -2.67043 3.4869 0
M  V30 7529 H 722.998 -1.11623 4.10391 0
M  V30 7530 N 721.313 -1.57302 -0.09688 0
M  V30 7531 C 722.56 -1.85997 -0.800699 0
M  V30 7532 C 722.888 -0.765089 -1.7882 0
M  V30 7533 O 722.143 0.241492 -1.94204 0
M  V30 7534 C 722.442 -3.21272 -1.56586 0
M  V30 7535 C 722.108 -4.45104 -0.72064 0
M  V30 7536 C 720.77 -4.78723 -0.487632 0
M  V30 7537 C 723.122 -5.2103 -0.132948 0
M  V30 7538 C 720.45 -5.85697 0.34296 0
M  V30 7539 C 722.802 -6.28881 0.684957 0
M  V30 7540 C 721.466 -6.61017 0.928073 0
M  V30 7541 H 720.736 -0.680613 -0.292997 0
M  V30 7542 H 723.383 -1.91399 -0.0622474 0
M  V30 7543 H 721.688 -3.11547 -2.37583 0
M  V30 7544 H 723.385 -3.40702 -2.11478 0
M  V30 7545 H 719.975 -4.18777 -0.912359 0
M  V30 7546 H 724.159 -4.95392 -0.300132 0
M  V30 7547 H 719.415 -6.09008 0.540317 0
M  V30 7548 H 723.589 -6.86886 1.14721 0
M  V30 7549 H 721.216 -7.43738 1.57348 0
M  V30 7550 N 722.791 0.367657 -1.53252 0
M  V30 7551 C 724.021 1.12955 -1.72988 0
M  V30 7552 C 724.429 1.8358 -0.457708 0
M  V30 7553 O 723.772 1.74336 0.579006 0
M  V30 7554 C 723.834 2.20545 -2.83902 0
M  V30 7555 C 723.498 1.69704 -4.24323 0
M  V30 7556 C 724.495 1.16223 -5.06743 0
M  V30 7557 C 722.18 1.7528 -4.70725 0
M  V30 7558 C 724.174 0.689935 -6.33655 0
M  V30 7559 C 721.861 1.27662 -5.97617 0
M  V30 7560 C 722.859 0.746083 -6.78913 0
M  V30 7561 O 722.547 0.276925 -8.03423 0
M  V30 7562 H 722.279 0.343753 -0.582074 0
M  V30 7563 H 724.833 0.433106 -2.00782 0
M  V30 7564 H 723.063 2.93676 -2.51577 0
M  V30 7565 H 724.752 2.82111 -2.91836 0
M  V30 7566 H 725.518 1.11256 -4.72067 0
M  V30 7567 H 721.397 2.15515 -4.07522 0
M  V30 7568 H 724.941 0.275164 -6.97057 0
M  V30 7569 H 720.838 1.32322 -6.31792 0
M  V30 7570 H 721.606 0.396445 -8.17539 0
M  V30 7571 N 724.269 1.44576 0.627338 0
M  V30 7572 C 725.201 1.47724 1.75243 0
M  V30 7573 C 726.214 0.370193 1.58535 0
M  V30 7574 O 727.403 0.636151 1.66779 0
M  V30 7575 C 724.503 1.2991 3.13012 0
M  V30 7576 C 723.676 2.5393 3.56143 0
M  V30 7577 C 722.735 2.30961 4.72804 0
M  V30 7578 O 721.761 3.04469 4.80923 0
M  V30 7579 N 722.963 1.34261 5.6476 0
M  V30 7580 H 725.728 2.44718 1.73012 0
M  V30 7581 H 723.289 1.40064 0.812022 0
M  V30 7582 H 725.281 1.12385 3.88782 0
M  V30 7583 H 723.851 0.412668 3.09864 0
M  V30 7584 H 723.071 2.86707 2.70542 0
M  V30 7585 H 724.359 3.36411 3.81713 0
M  V30 7586 H 723.757 0.735573 5.60897 0
M  V30 7587 H 722.314 1.22713 6.40144 0
M  V30 7588 N 725.747 -0.868086 1.31537 0
M  V30 7589 C 726.679 -1.98165 1.15166 0
M  V30 7590 C 727.692 -1.6255 0.0902335 0
M  V30 7591 O 728.881 -1.75272 0.33791 0
M  V30 7592 C 725.981 -3.30772 0.737776 0
M  V30 7593 C 725.154 -3.94716 1.88462 0
M  V30 7594 C 724.213 -5.05641 1.45648 0
M  V30 7595 O 723.239 -5.2636 2.16642 0
M  V30 7596 N 724.441 -5.79474 0.34493 0
M  V30 7597 H 727.206 -2.12754 2.11083 0
M  V30 7598 H 724.767 -1.04217 1.23897 0
M  V30 7599 H 726.759 -4.02366 0.434032 0
M  V30 7600 H 725.329 -3.1233 -0.129834 0
M  V30 7601 H 724.549 -3.16079 2.35558 0
M  V30 7602 H 725.837 -4.34175 2.65273 0
M  V30 7603 H 725.235 -5.65164 -0.246259 0
M  V30 7604 H 723.792 -6.51722 0.100728 0
M  V30 7605 N 727.225 -1.14528 -1.08264 0
M  V30 7606 C 728.157 -0.791325 -2.15106 0
M  V30 7607 C 729.17 0.192449 -1.61659 0
M  V30 7608 O 730.359 -0.0294704 -1.78476 0
M  V30 7609 C 727.459 -0.154183 -3.38549 0
M  V30 7610 C 726.632 -1.17305 -4.21377 0
M  V30 7611 C 725.691 -0.559401 -5.23218 0
M  V30 7612 O 724.717 -1.22277 -5.55911 0
M  V30 7613 N 725.919 0.663159 -5.767 0
M  V30 7614 H 728.684 -1.71076 -2.46075 0
M  V30 7615 H 726.245 -1.0399 -1.24087 0
M  V30 7616 H 728.237 0.268884 -4.03806 0
M  V30 7617 H 726.807 0.668418 -3.0537 0
M  V30 7618 H 726.027 -1.773 -3.52077 0
M  V30 7619 H 727.315 -1.86128 -4.73533 0
M  V30 7620 H 726.713 1.22066 -5.52373 0
M  V30 7621 H 725.27 1.02871 -6.43631 0
M  V30 7622 N 728.703 1.26451 -0.940633 0
M  V30 7623 C 729.635 2.25556 -0.407104 0
M  V30 7624 C 730.648 1.55888 0.469324 0
M  V30 7625 O 731.837 1.76292 0.279858 0
M  V30 7626 C 728.937 3.36109 0.434064 0
M  V30 7627 C 728.11 4.3532 -0.426082 0
M  V30 7628 C 727.169 5.25004 0.354563 0
M  V30 7629 O 726.195 5.68684 -0.242219 0
M  V30 7630 N 727.397 5.5652 1.65123 0
M  V30 7631 H 730.162 2.7197 -1.25907 0
M  V30 7632 H 727.723 1.40212 -0.809456 0
M  V30 7633 H 729.715 3.93059 0.963684 0
M  V30 7634 H 728.285 2.89194 1.18683 0
M  V30 7635 H 727.505 3.77449 -1.13692 0
M  V30 7636 H 728.793 4.986 -1.01366 0
M  V30 7637 H 728.191 5.22912 2.15822 0
M  V30 7638 H 726.748 6.16115 2.12711 0
M  V30 7639 N 730.181 0.707592 1.40822 0
M  V30 7640 C 731.144 0.0587224 2.29125 0
M  V30 7641 C 732.144 -0.695624 1.44975 0
M  V30 7642 O 733.334 -0.528718 1.65983 0
M  V30 7643 C 730.466 -0.926939 3.28056 0
M  V30 7644 H 731.659 0.836349 2.88002 0
M  V30 7645 H 729.212 0.471778 1.4901 0
M  V30 7646 H 729.947 -1.7319 2.74182 0
M  V30 7647 H 729.732 -0.389015 3.90165 0
M  V30 7648 H 731.222 -1.37837 3.94196 0
M  V30 7649 N 731.66 -1.50943 0.453197 0
M  V30 7650 C 732.592 -2.25922 -0.38623 0
M  V30 7651 C 733.605 -1.3055 -0.972652 0
M  V30 7652 O 734.794 -1.56191 -0.864097 0
M  V30 7653 C 731.894 -3.01176 -1.5539 0
M  V30 7654 C 731.067 -4.23768 -1.0835 0
M  V30 7655 C 730.126 -4.81466 -2.12313 0
M  V30 7656 O 729.152 -5.42875 -1.71101 0
M  V30 7657 N 730.354 -4.66889 -3.44956 0
M  V30 7658 H 733.119 -2.98601 0.256468 0
M  V30 7659 H 730.68 -1.59408 0.282965 0
M  V30 7660 H 732.672 -3.36659 -2.24594 0
M  V30 7661 H 731.242 -2.31409 -2.10163 0
M  V30 7662 H 730.462 -3.93597 -0.217961 0
M  V30 7663 H 731.75 -5.03289 -0.746857 0
M  V30 7664 H 731.148 -4.18011 -3.81161 0
M  V30 7665 H 729.705 -5.06691 -4.1001 0
M  V30 7666 N 733.138 -0.185124 -1.56509 0
M  V30 7667 C 734.366 0.462139 -2.01673 0
M  V30 7668 C 734.781 1.55873 -1.06532 0
M  V30 7669 O 734.138 1.82371 -0.0684805 0
M  V30 7670 C 734.189 1.0277 -3.46584 0
M  V30 7671 O 733.91 -0.0251296 -4.38093 0
M  V30 7672 C 735.411 1.75183 -4.07217 0
M  V30 7673 H 732.631 0.117001 -0.660721 0
M  V30 7674 H 735.175 -0.290905 -2.0242 0
M  V30 7675 H 733.33 1.73118 -3.46568 0
M  V30 7676 H 733.744 0.394387 -5.23015 0
M  V30 7677 H 735.218 2.09999 -5.10494 0
M  V30 7678 H 735.695 2.6519 -3.50101 0
M  V30 7679 H 736.301 1.09445 -4.10977 0
M  V30 7680 N 734.616 1.57351 0.0885366 0
M  V30 7681 C 735.548 1.99221 1.13329 0
M  V30 7682 C 736.561 0.895705 1.35945 0
M  V30 7683 O 737.75 1.17376 1.34481 0
M  V30 7684 C 734.85 2.3016 2.48756 0
M  V30 7685 C 734.023 3.61444 2.46327 0
M  V30 7686 C 733.082 3.80244 3.63732 0
M  V30 7687 O 732.108 4.52024 3.45924 0
M  V30 7688 N 733.31 3.2132 4.8346 0
M  V30 7689 H 736.075 2.89456 0.776862 0
M  V30 7690 H 733.636 1.59505 0.277428 0
M  V30 7691 H 735.628 2.39925 3.25911 0
M  V30 7692 H 734.198 1.459 2.76464 0
M  V30 7693 H 733.418 3.62588 1.54673 0
M  V30 7694 H 734.706 4.47678 2.41789 0
M  V30 7695 H 734.104 2.63028 5.00832 0
M  V30 7696 H 732.661 3.3656 5.58185 0
M  V30 7697 N 736.094 -0.359525 1.53444 0
M  V30 7698 C 737.026 -1.46098 1.76602 0
M  V30 7699 C 738.039 -1.49395 0.646912 0
M  V30 7700 O 739.228 -1.52765 0.923307 0
M  V30 7701 C 736.328 -2.84836 1.83635 0
M  V30 7702 C 735.501 -3.05164 3.13358 0
M  V30 7703 C 734.56 -4.24051 3.11556 0
M  V30 7704 O 733.586 -4.18935 3.85334 0
M  V30 7705 N 734.788 -5.31775 2.328 0
M  V30 7706 H 737.553 -1.2661 2.71643 0
M  V30 7707 H 735.114 -0.549294 1.52297 0
M  V30 7708 H 737.106 -3.62516 1.799 0
M  V30 7709 H 735.676 -2.97542 0.958509 0
M  V30 7710 H 734.896 -2.15091 3.30348 0
M  V30 7711 H 736.184 -3.15619 3.99076 0
M  V30 7712 H 735.582 -5.38796 1.7238 0
M  V30 7713 H 734.139 -6.0801 2.34877 0
M  V30 7714 N 737.572 -1.44907 -0.619662 0
M  V30 7715 C 738.819 -1.48292 -1.37898 0
M  V30 7716 C 739.147 -0.119933 -1.9413 0
M  V30 7717 O 738.402 0.879834 -1.74807 0
M  V30 7718 C 738.701 -2.50002 -2.55409 0
M  V30 7719 C 738.367 -3.95031 -2.17397 0
M  V30 7720 C 737.029 -4.34524 -2.06743 0
M  V30 7721 C 739.381 -4.86287 -1.87548 0
M  V30 7722 C 736.709 -5.63183 -1.64445 0
M  V30 7723 C 739.061 -6.15346 -1.4674 0
M  V30 7724 C 737.725 -6.53781 -1.34636 0
M  V30 7725 H 736.995 -0.542638 -0.504603 0
M  V30 7726 H 739.642 -1.78186 -0.701581 0
M  V30 7727 H 737.947 -2.13634 -3.28433 0
M  V30 7728 H 739.644 -2.49864 -3.13639 0
M  V30 7729 H 736.234 -3.63793 -2.26611 0
M  V30 7730 H 740.418 -4.56522 -1.94682 0
M  V30 7731 H 735.674 -5.91769 -1.53687 0
M  V30 7732 H 739.848 -6.85508 -1.22685 0
M  V30 7733 H 737.475 -7.53375 -1.01634 0
M  V30 7734 N 739.05 0.861098 -1.31996 0
M  V30 7735 C 739.982 1.97551 -1.16216 0
M  V30 7736 C 740.995 1.625 -0.0988527 0
M  V30 7737 O 742.184 1.75091 -0.3472 0
M  V30 7738 C 739.284 3.30376 -0.755307 0
M  V30 7739 C 738.457 3.93711 -1.90552 0
M  V30 7740 C 737.516 5.04862 -1.48328 0
M  V30 7741 O 736.542 5.25204 -2.19431 0
M  V30 7742 N 737.744 5.79283 -0.375656 0
M  V30 7743 H 740.509 2.11632 -2.12208 0
M  V30 7744 H 738.07 1.03559 -1.24448 0
M  V30 7745 H 740.062 4.0213 -0.455364 0
M  V30 7746 H 738.632 3.12395 0.113269 0
M  V30 7747 H 737.852 3.14825 -2.37231 0
M  V30 7748 H 739.14 4.32762 -2.67571 0
M  V30 7749 H 738.538 5.65286 0.216284 0
M  V30 7750 H 737.095 6.5166 -0.135289 0
M  V30 7751 N 740.528 1.15101 1.07655 0
M  V30 7752 C 741.491 0.847625 2.12951 0
M  V30 7753 C 742.491 -0.151227 1.60087 0
M  V30 7754 O 743.681 0.0780399 1.74025 0
M  V30 7755 C 740.813 0.265 3.39868 0
M  V30 7756 H 742.006 1.7809 2.41296 0
M  V30 7757 H 739.559 0.958072 1.23494 0
M  V30 7758 H 740.294 -0.676625 3.17163 0
M  V30 7759 H 740.079 0.984554 3.79538 0
M  V30 7760 H 741.569 0.0702121 4.17541 0
M  V30 7761 N 742.006 -1.2595 0.947325 0
M  V30 7762 C 743.252 -1.9375 0.599064 0
M  V30 7763 C 743.585 -1.74088 -0.860632 0
M  V30 7764 O 742.86 -1.08158 -1.61654 0
M  V30 7765 C 743.143 -3.47353 0.949634 0
M  V30 7766 C 742.996 -3.76273 2.46452 0
M  V30 7767 C 744.315 -4.37589 0.469442 0
M  V30 7768 H 741.434 -0.703674 0.219115 0
M  V30 7769 H 744.076 -1.48705 1.18266 0
M  V30 7770 H 742.226 -3.8585 0.453008 0
M  V30 7771 H 743.898 -3.47455 3.03435 0
M  V30 7772 H 742.141 -3.22135 2.90537 0
M  V30 7773 H 742.812 -4.83664 2.66032 0
M  V30 7774 H 745.288 -4.06353 0.89534 0
M  V30 7775 H 744.164 -5.43841 0.7435 0
M  V30 7776 H 744.425 -4.37579 -0.630618 0
M  V30 7777 N 743.484 -0.715051 -1.40445 0
M  V30 7778 C 744.434 -0.038591 -2.27967 0
M  V30 7779 C 745.418 0.733099 -1.43229 0
M  V30 7780 O 746.61 0.605388 -1.66325 0
M  V30 7781 C 743.739 0.882801 -3.31755 0
M  V30 7782 C 742.825 0.106325 -4.23967 0
M  V30 7783 N 743.216 -0.910143 -4.97544 0
M  V30 7784 C 741.514 0.33896 -4.4471 0
M  V30 7785 C 742.215 -1.37665 -5.65175 0
M  V30 7786 N 741.191 -0.698905 -5.39088 0
M  V30 7787 H 744.993 -0.81765 -2.82297 0
M  V30 7788 H 742.507 -0.547591 -1.5289 0
M  V30 7789 H 744.504 1.38273 -3.93302 0
M  V30 7790 H 743.164 1.66124 -2.78985 0
M  V30 7791 H 744.175 -1.29097 -5.01552 0
M  V30 7792 H 740.852 1.09377 -4.02918 0
M  V30 7793 H 742.242 -2.22122 -6.34123 0
M  V30 7794 N 744.962 1.50701 -0.461195 0
M  V30 7795 C 746.373 1.867 -0.00370227 0
M  V30 7796 C 746.724 1.37673 1.39787 0
M  V30 7797 O 745.849 0.737515 2.03445 0
M  V30 7798 C 746.444 3.388 5.75786e-05 0
M  V30 7799 C 745.003 3.74247 0.402044 0
M  V30 7800 C 744.15 2.74549 -0.389652 0
M  V30 7801 H 747.101 1.43585 -0.675942 0
M  V30 7802 H 747.122 3.719 0.804414 0
M  V30 7803 H 746.634 3.74452 -1.02015 0
M  V30 7804 H 744.735 3.44192 1.42697 0
M  V30 7805 H 744.848 4.78973 0.110265 0
M  V30 7806 H 743.212 2.54226 0.155314 0
M  V30 7807 H 743.995 3.13044 -1.40919 0
M  V30 7808 N 746.441 0.193421 1.56409 0
M  V30 7809 C 747.404 -0.714371 2.17783 0
M  V30 7810 C 748.404 -1.1422 1.13183 0
M  V30 7811 O 749.594 -1.05557 1.38576 0
M  V30 7812 C 746.726 -1.97509 2.77855 0
M  V30 7813 H 747.919 -0.179714 2.99361 0
M  V30 7814 H 745.472 -0.0561944 1.56199 0
M  V30 7815 H 746.207 -2.5523 2.0007 0
M  V30 7816 H 745.992 -1.67706 3.54425 0
M  V30 7817 H 747.482 -2.62246 3.24987 0
M  V30 7818 N 747.919 -1.57396 -0.0801906 0
M  V30 7819 C 749.147 -1.91055 -0.794075 0
M  V30 7820 C 749.562 -0.788583 -1.71542 0
M  V30 7821 O 748.919 0.238587 -1.80934 0
M  V30 7822 C 748.97 -3.24418 -1.59484 0
M  V30 7823 O 748.691 -4.323 -0.710532 0
M  V30 7824 C 750.192 -3.72037 -2.41046 0
M  V30 7825 H 747.412 -0.63171 -0.226238 0
M  V30 7826 H 749.956 -2.04431 -0.0529685 0
M  V30 7827 H 748.111 -3.12595 -2.2883 0
M  V30 7828 H 748.525 -5.08976 -1.26663 0
M  V30 7829 H 749.999 -4.68006 -2.92702 0
M  V30 7830 H 750.476 -3.00624 -3.2019 0
M  V30 7831 H 751.082 -3.86777 -1.76871 0
M  V30 7832 N 749.397 0.351382 -1.53633 0
M  V30 7833 C 750.329 1.45159 -1.77374 0
M  V30 7834 C 751.342 1.4905 -0.654826 0
M  V30 7835 O 752.531 1.52274 -0.931396 0
M  V30 7836 C 749.631 2.83858 -1.85143 0
M  V30 7837 C 748.804 3.03498 -3.14972 0
M  V30 7838 C 747.863 4.22393 -3.138 0
M  V30 7839 O 746.889 4.16885 -3.87551 0
M  V30 7840 N 748.091 5.30533 -2.35617 0
M  V30 7841 H 750.856 1.25167 -2.72311 0
M  V30 7842 H 748.417 0.54121 -1.52586 0
M  V30 7843 H 750.409 3.61557 -1.8182 0
M  V30 7844 H 748.979 2.9703 -0.974275 0
M  V30 7845 H 748.199 2.13336 -3.31484 0
M  V30 7846 H 749.487 3.13498 -4.00745 0
M  V30 7847 H 748.885 5.37875 -1.75235 0
M  V30 7848 H 747.442 6.06756 -2.38098 0
M  V30 7849 N 750.875 1.45233 0.611969 0
M  V30 7850 C 751.822 1.5357 1.72293 0
M  V30 7851 C 752.792 0.381912 1.6165 0
M  V30 7852 O 753.977 0.594765 1.81293 0
M  V30 7853 C 751.117 1.50419 3.10593 0
M  V30 7854 C 750.23 2.76316 3.32074 0
M  V30 7855 C 749.365 2.64866 4.60456 0
M  V30 7856 C 748.404 3.85838 4.7518 0
M  V30 7857 N 747.541 3.72949 5.94856 0
M  V30 7858 H 752.381 2.4848 1.64504 0
M  V30 7859 H 749.918 1.23302 0.802191 0
M  V30 7860 H 751.876 1.4658 3.90602 0
M  V30 7861 H 750.506 0.590621 3.17351 0
M  V30 7862 H 749.558 2.90261 2.45872 0
M  V30 7863 H 750.87 3.66055 3.38829 0
M  V30 7864 H 750.024 2.58969 5.48653 0
M  V30 7865 H 748.763 1.72719 4.56092 0
M  V30 7866 H 747.768 3.92099 3.85407 0
M  V30 7867 H 748.993 4.79045 4.81344 0
M  V30 7868 H 746.939 2.83567 5.91545 0
M  V30 7869 H 746.856 4.56319 6.02751 0
M  V30 7870 H 748.124 3.70976 6.85563 0
M  V30 7871 N 752.353 -0.854086 1.3245 0
M  V30 7872 C 753.764 -1.42427 1.20712 0
M  V30 7873 C 754.115 -1.95371 -0.18013 0
M  V30 7874 O 753.24 -1.87587 -1.07889 0
M  V30 7875 C 753.835 -2.58897 2.18536 0
M  V30 7876 C 752.394 -3.11913 2.10683 0
M  V30 7877 C 751.541 -1.84661 2.06871 0
M  V30 7878 H 754.492 -0.661192 1.4427 0
M  V30 7879 H 754.513 -3.36074 1.78422 0
M  V30 7880 H 754.025 -2.20333 3.19492 0
M  V30 7881 H 752.126 -3.55059 1.12977 0
M  V30 7882 H 752.239 -3.73119 3.00532 0
M  V30 7883 H 750.603 -2.04285 1.52118 0
M  V30 7884 H 751.386 -1.48314 3.09609 0
M  V30 7885 N 753.831 -1.1567 -1.07043 0
M  V30 7886 C 754.794 -0.858906 -2.12498 0
M  V30 7887 C 755.794 0.142735 -1.60165 0
M  V30 7888 O 756.984 -0.0872678 -1.73981 0
M  V30 7889 C 754.116 -0.283021 -3.39723 0
M  V30 7890 H 755.309 -1.79368 -2.40348 0
M  V30 7891 H 752.862 -0.964608 -1.22984 0
M  V30 7892 H 753.597 0.659796 -3.17517 0
M  V30 7893 H 753.382 -1.00467 -3.7901 0
M  V30 7894 H 754.872 -0.0923543 -4.17498 0
M  V30 7895 N 755.309 1.25446 -0.953992 0
M  V30 7896 C 756.558 1.92441 -0.604101 0
M  V30 7897 C 756.871 1.75543 0.862796 0
M  V30 7898 O 758.077 2.37106 1.32262 0
M  V30 7899 C 756.533 3.44854 -1.02974 0
M  V30 7900 C 756.141 3.70464 -2.51914 0
M  V30 7901 C 757.885 4.1778 -0.752352 0
M  V30 7902 C 755.792 5.1638 -2.88281 0
M  V30 7903 H 754.722 0.720508 -0.222227 0
M  V30 7904 H 757.373 1.42318 -1.15836 0
M  V30 7905 H 755.755 3.93935 -0.403904 0
M  V30 7906 H 756.929 3.32038 -3.19511 0
M  V30 7907 H 755.244 3.10797 -2.77117 0
M  V30 7908 H 757.841 5.25261 -1.00024 0
M  V30 7909 H 758.184 4.15135 0.311212 0
M  V30 7910 H 758.717 3.74605 -1.33851 0
M  V30 7911 H 755.456 5.24135 -3.93653 0
M  V30 7912 H 754.976 5.55855 -2.25357 0
M  V30 7913 H 756.655 5.84497 -2.77439 0
M  V30 7914 N 756.787 0.722489 1.40064 0
M  V30 7915 C 757.75 0.0830209 2.2905 0
M  V30 7916 C 758.75 -0.680208 1.45705 0
M  V30 7917 O 759.94 -0.511084 1.66534 0
M  V30 7918 C 757.072 -0.892092 3.29021 0
M  V30 7919 H 758.265 0.866848 2.87099 0
M  V30 7920 H 755.818 0.487556 1.48501 0
M  V30 7921 H 756.553 -1.70273 2.76003 0
M  V30 7922 H 756.338 -0.34761 3.90556 0
M  V30 7923 H 757.828 -1.33648 3.95636 0
M  V30 7924 N 758.265 -1.50454 0.469181 0
M  V30 7925 C 759.197 -2.26319 -0.362247 0
M  V30 7926 C 760.21 -1.31574 -0.958751 0
M  V30 7927 O 761.399 -1.57099 -0.847482 0
M  V30 7928 C 758.499 -3.02808 -1.52187 0
M  V30 7929 C 757.672 -4.24893 -1.03849 0
M  V30 7930 C 756.731 -4.83691 -2.07194 0
M  V30 7931 O 755.757 -5.44659 -1.65333 0
M  V30 7932 N 756.959 -4.70522 -3.39985 0
M  V30 7933 H 759.724 -2.98312 0.288124 0
M  V30 7934 H 757.285 -1.59099 0.299856 0
M  V30 7935 H 759.277 -3.39023 -2.21011 0
M  V30 7936 H 757.847 -2.33625 -2.07697 0
M  V30 7937 H 757.067 -3.93806 -0.176203 0
M  V30 7938 H 758.355 -5.04053 -0.693435 0
M  V30 7939 H 757.753 -4.2203 -3.76706 0
M  V30 7940 H 756.31 -5.11011 -4.04612 0
M  V30 7941 N 759.743 -0.201713 -1.56304 0
M  V30 7942 C 760.99 0.435307 -1.97766 0
M  V30 7943 C 761.318 1.61169 -1.0888 0
M  V30 7944 O 760.573 1.95272 -0.12934 0
M  V30 7945 C 760.872 0.931432 -3.45049 0
M  V30 7946 C 760.538 -0.132287 -4.50706 0
M  V30 7947 C 759.2 -0.424552 -4.79323 0
M  V30 7948 C 761.552 -0.852703 -5.14177 0
M  V30 7949 C 758.88 -1.4421 -5.68701 0
M  V30 7950 C 761.232 -1.85944 -6.04655 0
M  V30 7951 C 759.896 -2.15884 -6.31625 0
M  V30 7952 H 759.166 0.15929 -0.723676 0
M  V30 7953 H 761.813 -0.300069 -1.89134 0
M  V30 7954 H 760.118 1.7452 -3.50785 0
M  V30 7955 H 761.815 1.43383 -3.74489 0
M  V30 7956 H 758.405 0.105671 -4.2847 0
M  V30 7957 H 762.589 -0.640139 -4.92154 0
M  V30 7958 H 757.845 -1.6799 -5.87869 0
M  V30 7959 H 762.019 -2.42286 -6.52894 0
M  V30 7960 H 759.646 -2.94875 -7.0068 0
M  V30 7961 N 761.222 1.57436 0.0718424 0
M  V30 7962 C 762.633 1.75975 0.623678 0
M  V30 7963 C 762.984 0.827155 1.77912 0
M  V30 7964 O 762.109 0.0112425 2.16397 0
M  V30 7965 C 762.704 3.1911 1.13816 0
M  V30 7966 C 761.263 3.38994 1.63586 0
M  V30 7967 C 760.41 2.71684 0.555261 0
M  V30 7968 H 763.361 1.57948 -0.154328 0
M  V30 7969 H 763.382 3.23267 2.00696 0
M  V30 7970 H 762.894 3.86962 0.296998 0
M  V30 7971 H 760.995 2.76256 2.50027 0
M  V30 7972 H 761.108 4.47436 1.71283 0
M  V30 7973 H 759.472 2.34236 1.00029 0
M  V30 7974 H 760.255 3.42191 -0.275712 0
M  V30 7975 N 762.7 -0.34323 1.53817 0
M  V30 7976 C 763.946 -1.08504 1.71332 0
M  V30 7977 C 764.279 -1.88294 0.475285 0
M  V30 7978 O 763.554 -1.87205 -0.527688 0
M  V30 7979 C 763.837 -2.02597 2.97702 0
M  V30 7980 C 763.69 -1.26268 4.31713 0
M  V30 7981 C 765.009 -3.0241 3.19744 0
M  V30 7982 H 762.128 -0.393072 0.623429 0
M  V30 7983 H 764.77 -0.363579 1.86489 0
M  V30 7984 H 762.92 -2.64118 2.8491 0
M  V30 7985 H 764.592 -0.673594 4.56356 0
M  V30 7986 H 762.835 -0.564696 4.30109 0
M  V30 7987 H 763.506 -1.95253 5.16314 0
M  V30 7988 H 765.982 -2.51004 3.31868 0
M  V30 7989 H 764.858 -3.65449 4.09558 0
M  V30 7990 H 765.119 -3.73806 2.36054 0
M  V30 7991 N 764.178 -1.45556 -0.604258 0
M  V30 7992 C 765.424 -1.49968 -1.36519 0
M  V30 7993 C 765.757 -0.142236 -1.93678 0
M  V30 7994 O 765.032 0.843717 -1.75247 0
M  V30 7995 C 765.315 -2.58146 -2.51063 0
M  V30 7996 C 765.168 -4.03346 -1.99078 0
M  V30 7997 C 766.487 -2.62581 -3.53184 0
M  V30 7998 H 763.606 -0.545993 -0.495036 0
M  V30 7999 H 766.248 -1.77382 -0.680845 0
M  V30 8000 H 764.398 -2.34901 -3.09441 0
M  V30 8001 H 766.07 -4.37811 -1.45323 0
M  V30 8002 H 764.313 -4.13845 -1.30055 0
M  V30 8003 H 764.984 -4.74731 -2.81664 0
M  V30 8004 H 767.46 -2.83419 -3.04652 0
M  V30 8005 H 766.336 -3.40131 -4.30816 0
M  V30 8006 H 766.597 -1.67798 -4.09019 0
M  V30 8007 N 765.656 0.84705 -1.32902 0
M  V30 8008 C 766.881 1.63925 -1.27056 0
M  V30 8009 C 767.306 1.87443 0.157136 0
M  V30 8010 O 766.664 1.43266 1.11106 0
M  V30 8011 C 766.712 2.97134 -2.04313 0
M  V30 8012 O 765.816 3.88049 -1.39614 0
M  V30 8013 H 765.157 0.499477 -0.437514 0
M  V30 8014 H 767.687 1.05443 -1.75336 0
M  V30 8015 H 767.697 3.46896 -2.14772 0
M  V30 8016 H 766.372 2.79339 -3.08128 0
M  V30 8017 H 764.949 3.46525 -1.3775 0
M  V30 8018 N 767.134 1.16236 1.06428 0
M  V30 8019 C 768.066 0.825446 2.1382 0
M  V30 8020 C 769.079 -0.166707 1.61944 0
M  V30 8021 O 770.268 0.0578606 1.78406 0
M  V30 8022 C 767.368 0.208023 3.38261 0
M  V30 8023 C 766.541 1.23994 4.19457 0
M  V30 8024 C 765.6 0.642569 5.22262 0
M  V30 8025 O 764.626 1.31106 5.53895 0
M  V30 8026 N 765.828 -0.571327 5.77682 0
M  V30 8027 H 768.593 1.7497 2.43322 0
M  V30 8028 H 766.154 1.05951 1.22417 0
M  V30 8029 H 768.146 -0.204608 4.04182 0
M  V30 8030 H 766.716 -0.619752 3.06395 0
M  V30 8031 H 765.936 1.82879 3.49212 0
M  V30 8032 H 767.224 1.93638 4.70512 0
M  V30 8033 H 766.622 -1.13263 5.54245 0
M  V30 8034 H 765.179 -0.926187 6.45186 0
M  V30 8035 N 768.612 -1.24939 0.960631 0
M  V30 8036 C 769.86 -1.92437 0.617441 0
M  V30 8037 C 770.181 -1.75543 -0.849101 0
M  V30 8038 O 769.451 -1.12269 -1.60538 0
M  V30 8039 H 768.031 -0.712192 0.225371 0
M  V30 8040 H 770.693 -1.5198 1.22017 0
M  V30 8041 H 769.789 -3.00247 0.851933 0
M  V30 8042 N 770.09 -0.729906 -1.39679 0
M  V30 8043 C 771.338 -0.275077 -2.00219 0
M  V30 8044 C 771.659 1.1401 -1.58199 0
M  V30 8045 O 770.929 1.77546 -0.827904 0
M  V30 8046 H 769.509 -0.0987127 -0.740449 0
M  V30 8047 H 772.171 -0.93873 -1.70804 0
M  V30 8048 H 771.267 -0.319446 -3.10461 0
M  V30 8049 N 771.568 1.50203 -0.477153 0
M  V30 8050 C 772.793 2.07263 0.0754986 0
M  V30 8051 C 773.218 1.33801 1.32208 0
M  V30 8052 O 772.576 0.387482 1.77111 0
M  V30 8053 C 772.624 3.59028 0.336348 0
M  V30 8054 O 771.728 3.87339 1.4157 0
M  V30 8055 H 771.069 0.663815 -0.015662 0
M  V30 8056 H 773.599 1.93321 -0.669936 0
M  V30 8057 H 773.609 4.03927 0.575034 0
M  V30 8058 H 772.284 4.11912 -0.574551 0
M  V30 8059 H 770.861 3.54272 1.16385 0
M  V30 8060 N 773.046 0.209999 1.56195 0
M  V30 8061 C 773.978 -0.736967 2.17029 0
M  V30 8062 C 774.991 -1.16599 1.13616 0
M  V30 8063 O 776.18 -1.09914 1.40646 0
M  V30 8064 C 773.28 -2.00852 2.72969 0
M  V30 8065 C 772.453 -1.73691 4.01435 0
M  V30 8066 C 771.512 -2.85439 4.42053 0
M  V30 8067 O 770.538 -2.54405 5.09183 0
M  V30 8068 N 771.74 -4.14135 4.06783 0
M  V30 8069 H 774.505 -0.216656 2.98916 0
M  V30 8070 H 772.066 0.0285672 1.61875 0
M  V30 8071 H 774.058 -2.74778 2.97118 0
M  V30 8072 H 772.628 -2.43963 1.95451 0
M  V30 8073 H 771.848 -0.834676 3.85262 0
M  V30 8074 H 773.136 -1.52961 4.85263 0
M  V30 8075 H 772.534 -4.42196 3.52816 0
M  V30 8076 H 771.091 -4.84642 4.35851 0
M  V30 8077 N 774.524 -1.57472 -0.0634922 0
M  V30 8078 C 775.456 -2.00999 -1.10145 0
M  V30 8079 C 776.469 -0.917219 -1.34503 0
M  V30 8080 O 777.658 -1.19501 -1.32596 0
M  V30 8081 C 774.758 -2.34089 -2.45063 0
M  V30 8082 C 773.931 -3.65317 -2.40546 0
M  V30 8083 C 772.99 -3.85982 -3.57637 0
M  V30 8084 O 772.016 -4.5747 -3.38689 0
M  V30 8085 N 773.218 -3.28971 -4.78287 0
M  V30 8086 H 775.983 -2.90656 -0.730714 0
M  V30 8087 H 773.544 -1.59926 -0.252017 0
M  V30 8088 H 775.536 -2.4508 -3.22053 0
M  V30 8089 H 774.106 -1.50279 -2.74107 0
M  V30 8090 H 773.326 -3.65003 -1.48885 0
M  V30 8091 H 774.614 -4.51468 -2.34636 0
M  V30 8092 H 774.012 -2.70962 -4.96584 0
M  V30 8093 H 772.569 -3.45398 -5.5276 0
M  V30 8094 N 776.003 0.335068 -1.53997 0
M  V30 8095 C 776.935 1.4327 -1.78903 0
M  V30 8096 C 777.948 1.48347 -0.670598 0
M  V30 8097 O 779.137 1.51277 -0.947494 0
M  V30 8098 C 776.237 2.81878 -1.88144 0
M  V30 8099 C 775.41 3.00141 -3.18174 0
M  V30 8100 C 774.469 4.19041 -3.18263 0
M  V30 8101 O 773.495 4.12751 -3.9195 0
M  V30 8102 N 774.697 5.28004 -2.41231 0
M  V30 8103 H 777.462 1.22272 -2.73623 0
M  V30 8104 H 775.023 0.524996 -1.53152 0
M  V30 8105 H 777.015 3.59609 -1.85644 0
M  V30 8106 H 775.585 2.9598 -1.00572 0
M  V30 8107 H 774.805 2.09808 -3.33728 0
M  V30 8108 H 776.093 3.0923 -4.04047 0
M  V30 8109 H 775.491 5.35986 -1.8093 0
M  V30 8110 H 774.048 6.04196 -2.44521 0
M  V30 8111 N 777.481 1.45874 0.596531 0
M  V30 8112 C 778.411 1.5824 1.71705 0
M  V30 8113 C 779.392 0.433366 1.64487 0
M  V30 8114 O 780.577 0.657895 1.82717 0
M  V30 8115 C 777.707 1.55927 3.10329 0
M  V30 8116 C 776.661 2.69659 3.32367 0
M  V30 8117 C 775.987 2.52403 4.71377 0
M  V30 8118 C 777.287 4.11591 3.21544 0
M  V30 8119 H 778.981 2.52035 1.61613 0
M  V30 8120 H 776.527 1.21297 0.776082 0
M  V30 8121 H 778.48 1.63173 3.88526 0
M  V30 8122 H 777.204 0.586674 3.21288 0
M  V30 8123 H 775.863 2.61859 2.56564 0
M  V30 8124 H 775.511 1.53258 4.79083 0
M  V30 8125 H 775.211 3.28679 4.87077 0
M  V30 8126 H 776.735 2.6152 5.5176 0
M  V30 8127 H 778.149 4.20576 3.89601 0
M  V30 8128 H 776.546 4.88344 3.4877 0
M  V30 8129 H 777.616 4.32719 2.1882 0
M  V30 8130 N 778.959 -0.83999 1.33349 0
M  V30 8131 C 779.892 -1.95415 1.17848 0
M  V30 8132 C 780.87 -1.6243 0.0742296 0
M  V30 8133 O 782.054 -1.87014 0.23626 0
M  V30 8134 C 779.181 -3.28938 0.807295 0
M  V30 8135 C 778.227 -3.80895 1.91888 0
M  V30 8136 S 779.06 -4.02709 3.52967 0
M  V30 8137 C 780.216 -5.39185 3.17853 0
M  V30 8138 H 780.449 -2.08265 2.12162 0
M  V30 8139 H 777.982 -0.993643 1.18178 0
M  V30 8140 H 779.94 -4.06093 0.599914 0
M  V30 8141 H 778.601 -3.13881 -0.117234 0
M  V30 8142 H 777.794 -4.77508 1.6125 0
M  V30 8143 H 777.396 -3.10633 2.08286 0
M  V30 8144 H 779.688 -6.21978 2.68608 0
M  V30 8145 H 780.631 -5.74795 4.13542 0
M  V30 8146 H 781.039 -5.03885 2.5448 0
M  V30 8147 N 780.437 -1.16799 -1.0581 0
M  V30 8148 C 781.369 -0.836774 -2.13379 0
M  V30 8149 C 782.382 0.158116 -1.6203 0
M  V30 8150 O 783.571 -0.0673211 -1.78373 0
M  V30 8151 C 780.671 -0.225959 -3.38146 0
M  V30 8152 C 779.844 -1.26217 -4.18794 0
M  V30 8153 C 778.903 -0.670257 -5.21914 0
M  V30 8154 O 777.929 -1.34042 -5.53192 0
M  V30 8155 N 779.131 0.540683 -5.77977 0
M  V30 8156 H 781.896 -1.76257 -2.42391 0
M  V30 8157 H 779.457 -1.06599 -1.21853 0
M  V30 8158 H 781.449 0.18317 -4.04285 0
M  V30 8159 H 780.019 0.603494 -3.06719 0
M  V30 8160 H 779.239 -1.84729 -3.48237 0
M  V30 8161 H 780.527 -1.9613 -4.69479 0
M  V30 8162 H 779.925 1.10322 -5.54838 0
M  V30 8163 H 778.482 0.891958 -6.45668 0
M  V30 8164 N 781.915 1.24427 -0.967243 0
M  V30 8165 C 782.863 2.27403 -0.488927 0
M  V30 8166 C 783.857 1.63388 0.447302 0
M  V30 8167 O 785.063 1.77085 0.322643 0
M  V30 8168 H 781.438 0.738921 -0.139643 0
M  V30 8169 H 783.409 2.65122 -1.36942 0
M  V30 8170 C 782.158 3.4709 0.205787 0
M  V30 8171 H 781.481 3.96591 -0.50551 0
M  V30 8172 H 782.921 4.2099 0.504296 0
M  V30 8173 C 781.38 3.04923 1.43261 0
M  V30 8174 O 781.91 3.12043 2.52967 0
M  V30 8175 N 780.116 2.59976 1.29849 0
M  V30 8176 H 779.663 2.54382 0.405876 0
M  V30 8177 H 779.621 2.32128 2.12047 0
M  V30 8178 N 783.393 0.737304 1.3929 0
M  V30 8179 C 784.64 0.286257 2.00467 0
M  V30 8180 C 784.968 -1.1272 1.58507 0
M  V30 8181 O 784.223 -1.7832 0.806257 0
M  V30 8182 C 784.522 0.338438 3.55794 0
M  V30 8183 C 784.188 1.70524 4.17411 0
M  V30 8184 C 782.85 2.07934 4.33955 0
M  V30 8185 C 785.202 2.60256 4.51571 0
M  V30 8186 C 782.53 3.34578 4.81948 0
M  V30 8187 C 784.882 3.86275 5.00974 0
M  V30 8188 C 783.546 4.23774 5.15725 0
M  V30 8189 H 782.816 0.104749 0.733559 0
M  V30 8190 H 785.463 0.944598 1.66582 0
M  V30 8191 H 783.768 -0.403478 3.89717 0
M  V30 8192 H 785.465 -0.0287255 4.0099 0
M  V30 8193 H 782.055 1.40439 4.04938 0
M  V30 8194 H 786.239 2.32624 4.38406 0
M  V30 8195 H 781.495 3.63572 4.91554 0
M  V30 8196 H 785.669 4.5596 5.26378 0
M  V30 8197 H 783.296 5.21972 5.52674 0
M  V30 8198 N 784.871 -1.49948 0.485112 0
M  V30 8199 C 786.101 -2.06506 -0.0621921 0
M  V30 8200 C 786.509 -1.34756 -1.32806 0
M  V30 8201 O 785.852 -0.41466 -1.78959 0
M  V30 8202 C 785.914 -3.57243 -0.402182 0
M  V30 8203 C 785.578 -4.50574 0.763671 0
M  V30 8204 C 786.575 -4.93032 1.6497 0
M  V30 8205 C 784.26 -4.9308 0.957973 0
M  V30 8206 C 786.254 -5.76718 2.71432 0
M  V30 8207 C 783.941 -5.76546 2.0258 0
M  V30 8208 C 784.939 -6.18267 2.90232 0
M  V30 8209 O 784.627 -7.00066 3.95174 0
M  V30 8210 H 784.359 -0.675925 0.0100672 0
M  V30 8211 H 786.913 -1.93922 0.677023 0
M  V30 8212 H 785.143 -3.6778 -1.19478 0
M  V30 8213 H 786.832 -3.96107 -0.886219 0
M  V30 8214 H 787.598 -4.60851 1.51134 0
M  V30 8215 H 783.477 -4.60117 0.285144 0
M  V30 8216 H 787.021 -6.09203 3.39878 0
M  V30 8217 H 782.918 -6.0814 2.16417 0
M  V30 8218 H 783.686 -7.18343 3.92333 0
M  V30 8219 N 786.349 -0.21828 -1.56081 0
M  V30 8220 C 787.281 0.725447 -2.17416 0
M  V30 8221 C 788.294 1.15995 -1.14233 0
M  V30 8222 O 789.483 1.09166 -1.41227 0
M  V30 8223 C 786.583 1.99401 -2.7403 0
M  V30 8224 C 785.756 1.7156 -4.02351 0
M  V30 8225 C 784.815 2.8309 -4.43561 0
M  V30 8226 O 783.841 2.51701 -5.10525 0
M  V30 8227 N 785.043 4.11972 -4.08973 0
M  V30 8228 H 787.808 0.200801 -2.99027 0
M  V30 8229 H 785.369 -0.0371514 -1.61857 0
M  V30 8230 H 787.361 2.73198 -2.98571 0
M  V30 8231 H 785.931 2.42923 -1.96742 0
M  V30 8232 H 785.151 0.814233 -3.85699 0
M  V30 8233 H 786.439 1.50385 -4.86068 0
M  V30 8234 H 785.837 4.40319 -3.55156 0
M  V30 8235 H 784.394 4.82323 -4.38415 0
M  V30 8236 N 787.827 1.57504 0.0551401 0
M  V30 8237 C 788.759 2.0158 1.09078 0
M  V30 8238 C 789.772 0.92434 1.34014 0
M  V30 8239 O 790.961 1.20202 1.31961 0
M  V30 8240 C 788.061 2.35385 2.43818 0
M  V30 8241 C 787.234 3.66588 2.38605 0
M  V30 8242 C 786.293 3.87874 3.55585 0
M  V30 8243 O 785.319 4.59259 3.36258 0
M  V30 8244 N 786.521 3.31503 4.76536 0
M  V30 8245 H 789.286 2.91039 0.71529 0
M  V30 8246 H 786.847 1.60058 0.243532 0
M  V30 8247 H 788.839 2.46784 3.20749 0
M  V30 8248 H 787.409 1.51731 2.73307 0
M  V30 8249 H 786.629 3.65787 1.46947 0
M  V30 8250 H 787.917 4.52706 2.32239 0
M  V30 8251 H 787.315 2.73592 4.9514 0
M  V30 8252 H 785.872 3.48324 5.50921 0
M  V30 8253 N 789.305 -0.326896 1.54172 0
M  V30 8254 C 790.237 -1.42319 1.79661 0
M  V30 8255 C 791.25 -1.47989 0.678456 0
M  V30 8256 O 792.439 -1.50773 0.955503 0
M  V30 8257 C 789.539 -2.80876 1.89636 0
M  V30 8258 C 788.712 -2.98449 3.19761 0
M  V30 8259 C 787.771 -4.17347 3.2048 0
M  V30 8260 O 786.797 -4.10667 3.94134 0
M  V30 8261 N 787.999 -5.26717 2.44027 0
M  V30 8262 H 790.764 -1.20819 2.74268 0
M  V30 8263 H 788.325 -0.516866 1.53428 0
M  V30 8264 H 790.317 -3.58619 1.87549 0
M  V30 8265 H 788.887 -2.95442 1.02141 0
M  V30 8266 H 788.107 -2.08035 3.34836 0
M  V30 8267 H 789.395 -3.07083 4.05681 0
M  V30 8268 H 788.793 -5.35019 1.8377 0
M  V30 8269 H 787.35 -6.02891 2.47721 0
M  V30 8270 N 790.784 -1.46188 -0.588786 0
M  V30 8271 C 791.716 -1.52319 -1.71265 0
M  V30 8272 C 792.729 -0.412096 -1.57498 0
M  V30 8273 O 793.918 -0.680146 -1.65034 0
M  V30 8274 C 791.018 -1.38164 -3.09458 0
M  V30 8275 C 790.191 -2.63284 -3.49286 0
M  V30 8276 C 789.25 -2.43415 -4.66514 0
M  V30 8277 O 788.276 -3.17113 -4.72682 0
M  V30 8278 N 789.478 -1.49187 -5.61002 0
M  V30 8279 H 792.243 -2.49219 -1.66463 0
M  V30 8280 H 789.804 -1.42167 -0.774601 0
M  V30 8281 H 791.796 -1.22653 -3.85666 0
M  V30 8282 H 790.366 -0.494678 -3.08661 0
M  V30 8283 H 789.586 -2.93779 -2.62845 0
M  V30 8284 H 790.874 -3.46413 -3.7266 0
M  V30 8285 H 790.272 -0.884027 -5.5875 0
M  V30 8286 H 788.829 -1.39642 -6.36666 0
M  V30 8287 N 792.262 0.832906 -1.33792 0
M  V30 8288 C 793.194 1.95042 -1.2038 0
M  V30 8289 C 794.207 1.62253 -0.133299 0
M  V30 8290 O 795.396 1.74315 -0.384261 0
M  V30 8291 C 792.496 3.287 -0.825215 0
M  V30 8292 C 791.669 3.89581 -1.98861 0
M  V30 8293 C 790.728 5.01602 -1.59003 0
M  V30 8294 O 789.754 5.20431 -2.30522 0
M  V30 8295 N 790.956 5.78356 -0.498446 0
M  V30 8296 H 793.721 2.07083 -2.16649 0
M  V30 8297 H 791.282 1.00896 -1.26616 0
M  V30 8298 H 793.274 4.01074 -0.540559 0
M  V30 8299 H 791.844 3.12565 0.0469796 0
M  V30 8300 H 791.064 3.09723 -2.43856 0
M  V30 8301 H 792.352 4.26989 -2.76691 0
M  V30 8302 H 791.75 5.65618 0.0963297 0
M  V30 8303 H 790.307 6.51226 -0.273485 0
M  V30 8304 N 793.74 1.17359 1.05189 0
M  V30 8305 C 794.672 0.848078 2.12933 0
M  V30 8306 C 795.685 -0.149521 1.62112 0
M  V30 8307 O 796.874 0.0767797 1.78335 0
M  V30 8308 C 793.974 0.243889 3.38021 0
M  V30 8309 C 793.147 1.28436 4.18118 0
M  V30 8310 C 792.206 0.697926 5.21551 0
M  V30 8311 O 791.232 1.36973 5.52473 0
M  V30 8312 N 792.434 -0.510024 5.78255 0
M  V30 8313 H 795.199 1.7754 2.41453 0
M  V30 8314 H 792.76 1.07244 1.21286 0
M  V30 8315 H 794.752 -0.161727 4.04377 0
M  V30 8316 H 793.322 -0.58722 3.07035 0
M  V30 8317 H 792.542 1.86573 3.47252 0
M  V30 8318 H 793.83 1.98617 4.68432 0
M  V30 8319 H 793.228 -1.07378 5.55416 0
M  V30 8320 H 791.785 -0.857705 6.46132 0
M  V30 8321 N 795.218 -1.23913 0.973828 0
M  V30 8322 C 796.15 -2.24397 0.466763 0
M  V30 8323 C 797.163 -1.57078 -0.427828 0
M  V30 8324 O 798.352 -1.76973 -0.233019 0
M  V30 8325 C 795.452 -3.37141 -0.344798 0
M  V30 8326 C 794.625 -4.34037 0.541349 0
M  V30 8327 C 793.684 -5.2576 -0.215243 0
M  V30 8328 O 792.71 -5.67842 0.39291 0
M  V30 8329 N 793.912 -5.60702 -1.5031 0
M  V30 8330 H 796.677 -2.68536 1.33074 0
M  V30 8331 H 794.238 -1.38017 0.846346 0
M  V30 8332 H 796.23 -3.95476 -0.859133 0
M  V30 8333 H 794.8 -2.92239 -1.10974 0
M  V30 8334 H 794.02 -3.74302 1.23659 0
M  V30 8335 H 795.308 -4.95738 1.1455 0
M  V30 8336 H 794.706 -5.28451 -2.01882 0
M  V30 8337 H 793.263 -6.21538 -1.96301 0
M  V30 8338 N 796.696 -0.74468 -1.38897 0
M  V30 8339 C 797.628 -0.0713608 -2.29089 0
M  V30 8340 C 798.641 0.693224 -1.47303 0
M  V30 8341 O 799.83 0.535785 -1.70269 0
M  V30 8342 C 796.93 0.923078 -3.26087 0
M  V30 8343 C 796.103 0.217998 -4.36856 0
M  V30 8344 C 795.162 1.12192 -5.14101 0
M  V30 8345 O 794.188 0.595771 -5.66073 0
M  V30 8346 N 795.39 2.45082 -5.26227 0
M  V30 8347 H 798.155 -0.845906 -2.87514 0
M  V30 8348 H 795.716 -0.594712 -1.50581 0
M  V30 8349 H 797.708 1.53061 -3.74639 0
M  V30 8350 H 796.278 1.59876 -2.68623 0
M  V30 8351 H 795.498 -0.570134 -3.90055 0
M  V30 8352 H 796.786 -0.270248 -5.08082 0
M  V30 8353 H 796.184 2.90294 -4.85537 0
M  V30 8354 H 794.741 3.00907 -5.78185 0
M  V30 8355 N 798.174 1.49689 -0.493057 0
M  V30 8356 C 799.106 2.26867 0.326195 0
M  V30 8357 C 800.119 1.33083 0.937697 0
M  V30 8358 O 801.308 1.58427 0.822382 0
M  V30 8359 C 798.408 3.0519 1.4735 0
M  V30 8360 C 797.581 4.26491 0.970767 0
M  V30 8361 C 796.64 4.86926 1.99473 0
M  V30 8362 O 795.666 5.47221 1.56647 0
M  V30 8363 N 796.868 4.75871 3.32456 0
M  V30 8364 H 799.633 2.97816 -0.335547 0
M  V30 8365 H 797.194 1.58602 -0.325129 0
M  V30 8366 H 799.186 3.42496 2.15589 0
M  V30 8367 H 797.756 2.369 2.03954 0
M  V30 8368 H 796.976 3.94036 0.113529 0
M  V30 8369 H 798.264 5.05092 0.613156 0
M  V30 8370 H 797.662 4.2797 3.69944 0
M  V30 8371 H 796.219 5.17383 3.96431 0
M  V30 8372 N 799.652 0.226554 1.55963 0
M  V30 8373 C 800.584 -0.713907 2.17798 0
M  V30 8374 C 801.597 -1.15387 1.14846 0
M  V30 8375 O 802.786 -1.08416 1.41804 0
M  V30 8376 C 799.886 -1.97945 2.75084 0
M  V30 8377 C 799.059 -1.69424 4.03255 0
M  V30 8378 C 798.118 -2.80734 4.45056 0
M  V30 8379 O 797.144 -2.4899 5.11852 0
M  V30 8380 N 798.346 -4.09797 4.11152 0
M  V30 8381 H 801.111 -0.18494 2.99129 0
M  V30 8382 H 798.672 0.0457346 1.61835 0
M  V30 8383 H 800.664 -2.71611 3.00016 0
M  V30 8384 H 799.234 -2.41876 1.98027 0
M  V30 8385 H 798.454 -0.793767 3.86126 0
M  V30 8386 H 799.742 -1.47806 4.86858 0
M  V30 8387 H 799.14 -4.38429 3.57486 0
M  V30 8388 H 797.697 -4.79992 4.40966 0
M  V30 8389 N 801.13 -1.57531 -0.0467866 0
M  V30 8390 C 802.062 -2.02156 -1.08007 0
M  V30 8391 C 803.075 -0.931434 -1.33522 0
M  V30 8392 O 804.264 -1.209 -1.31321 0
M  V30 8393 C 801.364 -2.36675 -2.42566 0
M  V30 8394 C 800.537 -3.67848 -2.36658 0
M  V30 8395 C 799.596 -3.89754 -3.53523 0
M  V30 8396 O 798.622 -4.61036 -3.33818 0
M  V30 8397 N 799.824 -3.34025 -4.74771 0
M  V30 8398 H 802.589 -2.91414 -0.699845 0
M  V30 8399 H 800.15 -1.60185 -0.235041 0
M  V30 8400 H 802.142 -2.48482 -3.19435 0
M  V30 8401 H 800.712 -1.53178 -2.72498 0
M  V30 8402 H 799.932 -3.66561 -1.45005 0
M  V30 8403 H 801.22 -4.53931 -2.29835 0
M  V30 8404 H 800.618 -2.76214 -4.93683 0
M  V30 8405 H 799.175 -3.51241 -5.49066 0
M  V30 8406 N 802.608 0.318715 -1.54344 0
M  V30 8407 C 803.54 1.41364 -1.80413 0
M  V30 8408 C 804.553 1.47627 -0.686294 0
M  V30 8409 O 805.742 1.50264 -0.963486 0
M  V30 8410 C 802.842 2.79867 -1.91123 0
M  V30 8411 C 802.015 2.96749 -3.21339 0
M  V30 8412 C 801.074 4.15642 -3.22689 0
M  V30 8413 O 800.1 4.08571 -3.96306 0
M  V30 8414 N 801.302 5.25416 -2.46817 0
M  V30 8415 H 804.067 1.19363 -2.74905 0
M  V30 8416 H 801.628 0.508722 -1.537 0
M  V30 8417 H 803.62 3.57619 -1.89448 0
M  V30 8418 H 802.19 2.94896 -1.03706 0
M  V30 8419 H 801.41 2.06257 -3.35934 0
M  V30 8420 H 802.698 3.04927 -4.07304 0
M  V30 8421 H 802.096 5.34037 -1.86605 0
M  V30 8422 H 800.653 6.01569 -2.50915 0
M  V30 8423 N 804.086 1.46499 0.581025 0
M  V30 8424 C 805.018 1.53225 1.70455 0
M  V30 8425 C 806.031 0.420443 1.57277 0
M  V30 8426 O 807.22 0.688888 1.64671 0
M  V30 8427 C 804.32 1.39803 3.08721 0
M  V30 8428 C 803.493 2.65132 3.47884 0
M  V30 8429 C 802.552 2.45886 4.65217 0
M  V30 8430 O 801.578 3.19615 4.70993 0
M  V30 8431 N 802.78 1.5216 5.60203 0
M  V30 8432 H 805.545 2.50098 1.65139 0
M  V30 8433 H 803.106 1.42576 0.76705 0
M  V30 8434 H 805.098 1.24697 3.8501 0
M  V30 8435 H 803.668 0.51104 3.08394 0
M  V30 8436 H 802.888 2.95169 2.61284 0
M  V30 8437 H 804.176 3.48385 3.70817 0
M  V30 8438 H 803.574 0.913646 5.58273 0
M  V30 8439 H 802.131 1.43017 6.35916 0
M  V30 8440 N 805.565 -0.825799 1.34232 0
M  V30 8441 C 806.497 -1.94401 1.21413 0
M  V30 8442 C 807.51 -1.6218 0.141902 0
M  V30 8443 O 808.699 -1.74109 0.3935 0
M  V30 8444 C 805.799 -3.28257 0.842635 0
M  V30 8445 C 804.972 -3.88521 2.00924 0
M  V30 8446 C 804.031 -5.00752 1.61661 0
M  V30 8447 O 803.057 -5.19201 2.33279 0
M  V30 8448 N 804.259 -5.78084 0.52911 0
M  V30 8449 H 807.024 -2.05931 2.17744 0
M  V30 8450 H 804.585 -1.00223 1.27149 0
M  V30 8451 H 806.577 -4.00781 0.561822 0
M  V30 8452 H 805.147 -3.12585 -0.0304029 0
M  V30 8453 H 804.367 -3.08425 2.45495 0
M  V30 8454 H 805.655 -4.25516 2.78951 0
M  V30 8455 H 805.053 -5.65661 -0.0663322 0
M  V30 8456 H 803.61 -6.51072 0.308017 0
M  V30 8457 N 807.043 -1.17915 -1.04565 0
M  V30 8458 C 807.973 -0.925033 -2.14395 0
M  V30 8459 C 808.954 0.135375 -1.6956 0
M  V30 8460 O 810.139 -0.0161774 -1.94193 0
M  V30 8461 C 807.269 -0.444469 -3.44444 0
M  V30 8462 C 806.223 -1.44478 -4.02877 0
M  V30 8463 C 805.549 -0.821933 -5.28345 0
M  V30 8464 C 806.849 -2.81995 -4.39632 0
M  V30 8465 H 808.543 -1.84354 -2.35911 0
M  V30 8466 H 806.089 -0.887806 -1.13375 0
M  V30 8467 H 808.042 -0.254078 -4.20633 0
M  V30 8468 H 806.766 0.509592 -3.226 0
M  V30 8469 H 805.425 -1.62203 -3.28764 0
M  V30 8470 H 805.073 0.139161 -5.02807 0
M  V30 8471 H 804.773 -1.48976 -5.68401 0
M  V30 8472 H 806.297 -0.641959 -6.07216 0
M  V30 8473 H 807.711 -2.67952 -5.06828 0
M  V30 8474 H 806.108 -3.45414 -4.90723 0
M  V30 8475 H 807.178 -3.35927 -3.49687 0
M  V30 8476 N 808.521 1.23394 -0.980386 0
M  V30 8477 C 809.484 2.23092 -0.525619 0
M  V30 8478 C 810.484 1.56129 0.384745 0
M  V30 8479 O 811.674 1.73284 0.178439 0
M  V30 8480 C 808.806 3.40074 0.23712 0
M  V30 8481 H 809.999 2.64839 -1.40714 0
M  V30 8482 H 807.552 1.36227 -0.766275 0
M  V30 8483 H 808.287 3.03783 1.13518 0
M  V30 8484 H 808.072 3.89883 -0.416356 0
M  V30 8485 H 809.562 4.14043 0.543892 0
M  V30 8486 N 809.999 0.752036 1.385 0
M  V30 8487 C 811.227 0.318274 2.04437 0
M  V30 8488 C 811.642 -1.05285 1.56718 0
M  V30 8489 O 810.999 -1.66844 0.73956 0
M  V30 8490 C 811.05 0.330106 3.5999 0
M  V30 8491 O 810.771 1.64712 4.05957 0
M  V30 8492 C 812.272 -0.117713 4.43144 0
M  V30 8493 H 809.492 0.136228 0.657026 0
M  V30 8494 H 812.036 1.02045 1.7722 0
M  V30 8495 H 810.191 -0.323323 3.86048 0
M  V30 8496 H 810.605 1.57225 5.0038 0
M  V30 8497 H 812.079 -0.0582735 5.51969 0
M  V30 8498 H 812.556 -1.16538 4.23457 0
M  V30 8499 H 813.162 0.506784 4.2227 0
M  V30 8500 N 811.477 -1.49425 0.500989 0
M  V30 8501 C 812.44 -2.27646 -0.266416 0
M  V30 8502 C 813.44 -1.3366 -0.893961 0
M  V30 8503 O 814.63 -1.5682 -0.758495 0
M  V30 8504 C 811.762 -3.11618 -1.38227 0
M  V30 8505 H 812.955 -2.96945 0.419973 0
M  V30 8506 H 810.508 -1.5419 0.255954 0
M  V30 8507 H 811.243 -2.46885 -2.10281 0
M  V30 8508 H 811.028 -3.80721 -0.937746 0
M  V30 8509 H 812.518 -3.70698 -1.92283 0
M  V30 8510 N 812.955 -0.234822 -1.55841 0
M  V30 8511 C 813.885 0.664217 -2.23854 0
M  V30 8512 C 814.866 1.19076 -1.2147 0
M  V30 8513 O 816.051 1.23232 -1.50091 0
M  V30 8514 C 813.181 1.86666 -2.9287 0
M  V30 8515 C 812.135 1.47341 -4.01839 0
M  V30 8516 C 811.461 2.75571 -4.58219 0
M  V30 8517 C 812.761 0.653479 -5.18196 0
M  V30 8518 H 814.455 0.0971213 -2.99242 0
M  V30 8519 H 812.001 0.0452724 -1.43929 0
M  V30 8520 H 813.954 2.50116 -3.39146 0
M  V30 8521 H 812.678 2.45894 -2.1495 0
M  V30 8522 H 811.337 0.862314 -3.56314 0
M  V30 8523 H 810.985 3.32971 -3.77014 0
M  V30 8524 H 810.685 2.49987 -5.31771 0
M  V30 8525 H 812.209 3.39939 -5.07221 0
M  V30 8526 H 813.623 1.19198 -5.60771 0
M  V30 8527 H 812.02 0.494188 -5.98062 0
M  V30 8528 H 813.09 -0.337004 -4.83728 0
M  V30 8529 N 814.433 1.57553 0.0384317 0
M  V30 8530 C 815.383 2.02404 1.0496 0
M  V30 8531 C 816.367 0.911705 1.32577 0
M  V30 8532 O 817.559 1.17561 1.32319 0
M  V30 8533 C 814.688 2.49924 2.35357 0
M  V30 8534 C 813.774 3.6796 2.1087 0
M  V30 8535 N 814.165 4.81009 1.56411 0
M  V30 8536 C 812.463 3.75153 2.41197 0
M  V30 8537 C 813.164 5.62686 1.47512 0
M  V30 8538 N 812.14 5.0752 1.94742 0
M  V30 8539 H 815.942 2.87234 0.622399 0
M  V30 8540 H 813.456 1.60543 0.244916 0
M  V30 8541 H 815.453 2.80312 3.08595 0
M  V30 8542 H 814.113 1.66496 2.78763 0
M  V30 8543 H 815.124 5.02636 1.2481 0
M  V30 8544 H 811.801 3.02507 2.87742 0
M  V30 8545 H 813.191 6.6349 1.05976 0
M  V30 8546 N 815.911 -0.310526 1.54511 0
M  V30 8547 C 816.843 -1.40405 1.8116 0
M  V30 8548 C 817.856 -1.47261 0.694114 0
M  V30 8549 O 819.045 -1.49751 0.971441 0
M  V30 8550 C 816.145 -2.78849 1.92604 0
M  V30 8551 C 815.318 -2.95041 3.22908 0
M  V30 8552 C 814.377 -4.13925 3.24889 0
M  V30 8553 O 813.403 -4.06463 3.98467 0
M  V30 8554 N 814.605 -5.24099 2.496 0
M  V30 8555 H 817.37 -1.17903 2.75534 0
M  V30 8556 H 814.931 -0.500564 1.53967 0
M  V30 8557 H 816.923 -3.5661 1.91342 0
M  V30 8558 H 815.493 -2.94342 1.05268 0
M  V30 8559 H 814.713 -2.04472 3.37023 0
M  V30 8560 H 816.001 -3.02763 4.08916 0
M  V30 8561 H 815.399 -5.33039 1.89435 0
M  V30 8562 H 813.956 -6.0023 2.54102 0
M  V30 8563 N 817.389 -1.46805 -0.573248 0
M  V30 8564 C 818.321 -1.54127 -1.6964 0
M  V30 8565 C 819.334 -0.428778 -1.57052 0
M  V30 8566 O 820.523 -0.697612 -1.64303 0
M  V30 8567 C 817.623 -1.41438 -3.07975 0
M  V30 8568 C 816.796 -2.66974 -3.46474 0
M  V30 8569 C 815.855 -2.48349 -4.63906 0
M  V30 8570 O 814.881 -3.22109 -4.69292 0
M  V30 8571 N 816.083 -1.55129 -5.59388 0
M  V30 8572 H 818.848 -2.50971 -1.6381 0
M  V30 8573 H 816.409 -1.42981 -0.759479 0
M  V30 8574 H 818.401 -1.26737 -3.84343 0
M  V30 8575 H 816.971 -0.527388 -3.08119 0
M  V30 8576 H 816.191 -2.9655 -2.59715 0
M  V30 8577 H 817.479 -3.50347 -3.68964 0
M  V30 8578 H 816.877 -0.94324 -5.57781 0
M  V30 8579 H 815.434 -1.46387 -6.35149 0
M  V30 8580 N 818.867 0.818669 -1.34668 0
M  V30 8581 C 819.799 1.93754 -1.22442 0
M  V30 8582 C 820.812 1.62103 -0.150501 0
M  V30 8583 O 822.001 1.73898 -0.402728 0
M  V30 8584 C 819.101 3.27806 -0.860031 0
M  V30 8585 C 818.274 3.8745 -2.02981 0
M  V30 8586 C 817.333 4.99887 -1.64314 0
M  V30 8587 O 816.359 5.17957 -2.36029 0
M  V30 8588 N 817.561 5.77795 -0.55976 0
M  V30 8589 H 820.326 2.04773 -2.18833 0
M  V30 8590 H 817.887 0.995472 -1.27679 0
M  V30 8591 H 819.879 4.00478 -0.583068 0
M  V30 8592 H 818.449 3.12597 0.0138253 0
M  V30 8593 H 817.669 3.07119 -2.47127 0
M  V30 8594 H 818.957 4.2403 -2.81204 0
M  V30 8595 H 818.355 5.65688 0.0363329 0
M  V30 8596 H 816.912 6.50899 -0.342541 0
M  V30 8597 N 820.346 1.18468 1.03938 0
M  V30 8598 C 821.276 0.936389 2.13902 0
M  V30 8599 C 822.257 -0.126381 1.6963 0
M  V30 8600 O 823.442 0.0264757 1.94182 0
M  V30 8601 C 820.572 0.462729 3.44204 0
M  V30 8602 C 819.526 1.46613 4.02105 0
M  V30 8603 C 818.852 0.84994 5.27902 0
M  V30 8604 C 820.152 2.84323 4.3813 0
M  V30 8605 H 821.846 1.85602 2.3493 0
M  V30 8606 H 819.392 0.893806 1.12903 0
M  V30 8607 H 821.345 0.276382 4.20493 0
M  V30 8608 H 820.069 -0.492477 3.22866 0
M  V30 8609 H 818.728 1.63944 3.27899 0
M  V30 8610 H 818.376 -0.112493 5.02874 0
M  V30 8611 H 818.076 1.51988 5.67603 0
M  V30 8612 H 819.6 0.674152 6.06867 0
M  V30 8613 H 821.014 2.70636 5.054 0
M  V30 8614 H 819.411 3.48012 4.88884 0
M  V30 8615 H 820.481 3.37776 3.47901 0
M  V30 8616 N 821.824 -1.22873 0.986916 0
M  V30 8617 C 822.757 -2.23154 0.477245 0
M  V30 8618 C 823.735 -1.55981 -0.459206 0
M  V30 8619 O 824.919 -1.84503 -0.386141 0
M  V30 8620 C 822.046 -3.37289 -0.308838 0
M  V30 8621 C 821.092 -4.22637 0.572717 0
M  V30 8622 S 821.925 -4.95758 2.02446 0
M  V30 8623 C 823.081 -6.13338 1.2477 0
M  V30 8624 H 823.314 -2.6604 1.32702 0
M  V30 8625 H 820.847 -1.32455 0.793415 0
M  V30 8626 H 822.805 -4.03472 -0.756351 0
M  V30 8627 H 821.466 -2.92922 -1.13381 0
M  V30 8628 H 820.659 -5.0399 -0.0318024 0
M  V30 8629 H 820.261 -3.61555 0.956746 0
M  V30 8630 H 822.553 -6.7556 0.51231 0
M  V30 8631 H 823.496 -6.78189 2.03629 0
M  V30 8632 H 823.904 -5.59311 0.763622 0
M  V30 8633 N 823.302 -0.75937 -1.38099 0
M  V30 8634 C 824.53 -0.329111 -2.04266 0
M  V30 8635 C 824.945 1.04453 -1.57274 0
M  V30 8636 O 824.302 1.66449 -0.748397 0
M  V30 8637 C 824.353 -0.349192 -3.5981 0
M  V30 8638 O 824.074 -1.66863 -4.05078 0
M  V30 8639 C 825.575 0.0942106 -4.432 0
M  V30 8640 H 822.795 -0.13971 -0.656294 0
M  V30 8641 H 825.339 -1.02984 -1.76677 0
M  V30 8642 H 823.494 0.302846 -3.86214 0
M  V30 8643 H 823.908 -1.59877 -4.9954 0
M  V30 8644 H 825.382 0.0290004 -5.51992 0
M  V30 8645 H 825.859 1.1429 -4.24069 0
M  V30 8646 H 826.465 -0.529171 -4.21995 0
M  V30 8647 N 824.78 1.49157 -0.508906 0
M  V30 8648 C 825.712 2.272 0.302115 0
M  V30 8649 C 826.725 1.3407 0.923529 0
M  V30 8650 O 827.914 1.5929 0.805532 0
M  V30 8651 C 825.014 3.06736 1.44105 0
M  V30 8652 C 824.187 4.27497 0.925477 0
M  V30 8653 C 823.246 4.89014 1.94297 0
M  V30 8654 O 822.272 5.48851 1.50834 0
M  V30 8655 N 823.474 4.7937 3.2739 0
M  V30 8656 H 826.239 2.97443 -0.367115 0
M  V30 8657 H 823.8 1.58248 -0.341933 0
M  V30 8658 H 825.792 3.44763 2.11944 0
M  V30 8659 H 824.362 2.3905 2.0143 0
M  V30 8660 H 823.582 3.94135 0.0717301 0
M  V30 8661 H 824.87 5.05714 0.55955 0
M  V30 8662 H 824.268 4.31869 3.65384 0
M  V30 8663 H 822.825 5.21559 3.90922 0
M  V30 8664 N 826.258 0.243083 1.55714 0
M  V30 8665 C 827.19 -0.690766 2.18543 0
M  V30 8666 C 828.203 -1.14163 1.16064 0
M  V30 8667 O 829.392 -1.06906 1.42946 0
M  V30 8668 C 826.492 -1.95016 2.77168 0
M  V30 8669 C 825.665 -1.65137 4.05029 0
M  V30 8670 C 824.724 -2.75998 4.48009 0
M  V30 8671 O 823.75 -2.43547 5.14464 0
M  V30 8672 N 824.952 -4.05414 4.15476 0
M  V30 8673 H 827.717 -0.153203 2.99308 0
M  V30 8674 H 825.278 0.0628968 1.61778 0
M  V30 8675 H 827.27 -2.68414 3.0288 0
M  V30 8676 H 825.84 -2.39762 2.00582 0
M  V30 8677 H 825.06 -0.752768 3.86946 0
M  V30 8678 H 826.348 -1.42633 4.88399 0
M  V30 8679 H 825.746 -4.34613 3.62116 0
M  V30 8680 H 824.303 -4.75288 4.46032 0
M  V30 8681 N 827.736 -1.57571 -0.0300757 0
M  V30 8682 C 828.699 -2.05468 -1.01565 0
M  V30 8683 C 829.699 -0.958628 -1.29101 0
M  V30 8684 O 830.889 -1.22228 -1.24121 0
M  V30 8685 C 828.021 -2.47077 -2.34874 0
M  V30 8686 H 829.214 -2.93797 -0.601936 0
M  V30 8687 H 826.767 -1.53828 -0.276878 0
M  V30 8688 H 827.502 -1.61901 -2.80996 0
M  V30 8689 H 827.287 -3.27097 -2.16218 0
M  V30 8690 H 828.777 -2.84564 -3.05635 0
M  V30 8691 N 829.214 0.302327 -1.54673 0
M  V30 8692 C 830.177 1.35592 -1.8479 0
M  V30 8693 C 831.177 1.43743 -0.72073 0
M  V30 8694 O 832.367 1.43402 -0.989017 0
M  V30 8695 C 829.499 2.74091 -2.02699 0
M  V30 8696 H 830.692 1.10132 -2.78946 0
M  V30 8697 H 828.245 0.538926 -1.46715 0
M  V30 8698 H 828.98 3.04775 -1.10826 0
M  V30 8699 H 828.765 2.69565 -2.8474 0
M  V30 8700 H 830.255 3.50272 -2.27374 0
M  V30 8701 N 830.692 1.47107 0.565454 0
M  V30 8702 C 831.622 1.61846 1.68309 0
M  V30 8703 C 832.603 0.468159 1.63531 0
M  V30 8704 O 833.788 0.696504 1.8128 0
M  V30 8705 C 830.918 1.62474 3.06952 0
M  V30 8706 C 829.872 2.76649 3.26572 0
M  V30 8707 C 829.198 2.62345 4.65917 0
M  V30 8708 C 830.498 4.18319 3.12741 0
M  V30 8709 H 832.192 2.55407 1.5623 0
M  V30 8710 H 829.738 1.22916 0.750179 0
M  V30 8711 H 831.691 1.71378 3.84977 0
M  V30 8712 H 830.415 0.654692 3.19971 0
M  V30 8713 H 829.074 2.67242 2.50952 0
M  V30 8714 H 828.722 1.63386 4.75725 0
M  V30 8715 H 828.422 3.38936 4.79996 0
M  V30 8716 H 829.946 2.73165 5.46089 0
M  V30 8717 H 831.36 4.28745 3.80593 0
M  V30 8718 H 829.757 4.95632 3.38333 0
M  V30 8719 H 830.827 4.37263 2.09592 0
M  V30 8720 N 832.17 -0.811516 1.35101 0
M  V30 8721 C 833.102 -1.93102 1.23468 0
M  V30 8722 C 834.115 -1.62021 0.159095 0
M  V30 8723 O 835.304 -1.73682 0.411945 0
M  V30 8724 C 832.404 -3.27345 0.877404 0
M  V30 8725 C 831.577 -3.86368 2.05033 0
M  V30 8726 C 830.636 -4.99009 1.66963 0
M  V30 8727 O 829.662 -5.16698 2.38772 0
M  V30 8728 N 830.864 -5.7749 0.590394 0
M  V30 8729 H 833.629 -2.0361 2.19916 0
M  V30 8730 H 831.19 -0.988687 1.28205 0
M  V30 8731 H 833.182 -4.00163 0.604298 0
M  V30 8732 H 831.752 -3.126 0.00275267 0
M  V30 8733 H 830.972 -3.05804 2.48752 0
M  V30 8734 H 832.26 -4.22533 2.83449 0
M  V30 8735 H 831.658 -5.657 -0.00633259 0
M  V30 8736 H 830.215 -6.50708 0.377055 0
M  V30 8737 N 833.648 -1.19017 -1.03309 0
M  V30 8738 C 834.58 -0.881847 -2.11556 0
M  V30 8739 C 835.593 0.123711 -1.62329 0
M  V30 8740 O 836.782 -0.105141 -1.7819 0
M  V30 8741 C 833.882 -0.297634 -3.37591 0
M  V30 8742 C 833.055 -1.35072 -4.16022 0
M  V30 8743 C 832.114 -0.780812 -5.20375 0
M  V30 8744 O 831.14 -1.45745 -5.50224 0
M  V30 8745 N 832.342 0.417964 -5.78993 0
M  V30 8746 H 835.107 -1.81359 -2.38598 0
M  V30 8747 H 832.668 -1.0916 -1.19565 0
M  V30 8748 H 834.66 0.097374 -4.04583 0
M  V30 8749 H 833.23 0.538299 -3.0793 0
M  V30 8750 H 832.45 -1.92074 -3.4424 0
M  V30 8751 H 833.738 -2.06044 -4.65213 0
M  V30 8752 H 833.136 0.985281 -5.57054 0
M  V30 8753 H 831.693 0.754802 -6.47415 0
M  V30 8754 N 835.127 1.22348 -0.993418 0
M  V30 8755 C 836.074 2.24294 -0.544118 0
M  V30 8756 C 837.044 1.60602 0.42381 0
M  V30 8757 O 838.229 1.87952 0.328453 0
M  V30 8758 C 835.369 3.44837 0.134578 0
M  V30 8759 C 834.482 4.23043 -0.875151 0
M  V30 8760 C 833.617 5.30928 -0.169919 0
M  V30 8761 C 832.656 6.00853 -1.16798 0
M  V30 8762 N 831.793 7.00381 -0.491021 0
M  V30 8763 H 836.633 2.6209 -1.4182 0
M  V30 8764 H 834.17 1.2881 -0.710384 0
M  V30 8765 H 836.128 4.13625 0.544998 0
M  V30 8766 H 834.758 3.07804 0.972446 0
M  V30 8767 H 833.81 3.53546 -1.40389 0
M  V30 8768 H 835.122 4.71237 -1.63516 0
M  V30 8769 H 834.276 6.05972 0.297205 0
M  V30 8770 H 833.015 4.8371 0.622586 0
M  V30 8771 H 832.02 5.24591 -1.64573 0
M  V30 8772 H 833.245 6.50159 -1.96137 0
M  V30 8773 H 831.191 6.55393 0.282037 0
M  V30 8774 H 831.108 7.46584 -1.18947 0
M  V30 8775 H 832.376 7.79486 -0.0467169 0
M  V30 8776 N 836.605 0.766683 1.37694 0
M  V30 8777 C 838.016 0.394761 1.82479 0
M  V30 8778 C 838.367 -1.07842 1.63904 0
M  V30 8779 O 837.492 -1.83479 1.14737 0
M  V30 8780 C 838.087 0.70974 3.31283 0
M  V30 8781 C 836.646 0.390936 3.74364 0
M  V30 8782 C 835.793 0.956192 2.60293 0
M  V30 8783 H 838.744 0.961756 1.26238 0
M  V30 8784 H 838.765 -0.00742144 3.80499 0
M  V30 8785 H 838.277 1.782 3.4477 0
M  V30 8786 H 836.378 -0.674213 3.66449 0
M  V30 8787 H 836.491 0.895645 4.70654 0
M  V30 8788 H 834.855 0.380744 2.51838 0
M  V30 8789 H 835.638 2.03375 2.76575 0
M  V30 8790 N 838.083 -1.48885 0.516809 0
M  V30 8791 C 839.311 -2.06892 -0.0184017 0
M  V30 8792 C 839.726 -1.37511 -1.29368 0
M  V30 8793 O 839.083 -0.458409 -1.76649 0
M  V30 8794 C 839.134 -3.60566 -0.259673 0
M  V30 8795 O 838.855 -4.27338 0.965065 0
M  V30 8796 C 840.356 -4.35331 -0.836751 0
M  V30 8797 H 837.576 -0.670433 0.0275743 0
M  V30 8798 H 840.12 -1.91455 0.718689 0
M  V30 8799 H 838.275 -3.75653 -0.94678 0
M  V30 8800 H 838.689 -5.19287 0.737647 0
M  V30 8801 H 840.163 -5.43675 -0.955065 0
M  V30 8802 H 840.64 -3.9887 -1.83845 0
M  V30 8803 H 841.246 -4.2489 -0.186622 0
M  V30 8804 N 839.561 -0.251338 -1.55583 0
M  V30 8805 C 840.494 0.687092 -2.1761 0
M  V30 8806 C 841.472 1.16963 -1.12953 0
M  V30 8807 O 842.656 1.24696 -1.41362 0
M  V30 8808 C 839.783 1.93429 -2.78034 0
M  V30 8809 C 838.829 1.58925 -3.95784 0
M  V30 8810 S 839.662 0.688019 -5.31062 0
M  V30 8811 C 840.818 1.94413 -5.94941 0
M  V30 8812 H 841.051 0.159982 -2.96869 0
M  V30 8813 H 838.584 -0.0357593 -1.54359 0
M  V30 8814 H 840.542 2.65028 -3.13481 0
M  V30 8815 H 839.203 2.43253 -1.98713 0
M  V30 8816 H 838.396 2.51668 -4.36668 0
M  V30 8817 H 837.998 0.953664 -3.61637 0
M  V30 8818 H 840.29 2.89087 -6.12727 0
M  V30 8819 H 841.233 1.5787 -6.90277 0
M  V30 8820 H 841.641 2.09824 -5.24056 0
M  V30 8821 N 841.039 1.57585 0.0217189 0
M  V30 8822 C 842.002 2.06004 1.00474 0
M  V30 8823 C 843.002 0.965461 1.2859 0
M  V30 8824 O 844.192 1.22884 1.23471 0
M  V30 8825 C 841.324 2.48319 2.33561 0
M  V30 8826 H 842.517 2.94112 0.586346 0
M  V30 8827 H 840.07 1.53973 0.268716 0
M  V30 8828 H 840.805 1.63389 2.80133 0
M  V30 8829 H 840.59 3.28239 2.1448 0
M  V30 8830 H 842.08 2.86181 3.04122 0
M  V30 8831 N 842.517 -0.29412 1.54831 0
M  V30 8832 C 843.48 -1.3461 1.85507 0
M  V30 8833 C 844.48 -1.43359 0.728343 0
M  V30 8834 O 845.67 -1.42875 0.996609 0
M  V30 8835 C 842.802 -2.73012 2.0415 0
M  V30 8836 H 843.995 -1.08651 2.79526 0
M  V30 8837 H 841.548 -0.531138 1.46999 0
M  V30 8838 H 842.283 -3.04183 1.12441 0
M  V30 8839 H 842.068 -2.68051 2.86166 0
M  V30 8840 H 843.558 -3.49061 2.29229 0
M  V30 8841 N 843.995 -1.47404 -0.557645 0
M  V30 8842 C 845.243 -1.53703 -1.31224 0
M  V30 8843 C 845.564 -0.200742 -1.93964 0
M  V30 8844 O 844.834 0.775253 -1.79907 0
M  V30 8845 H 843.414 -0.566171 -0.487299 0
M  V30 8846 H 846.076 -1.83699 -0.651195 0
M  V30 8847 H 845.172 -2.30335 -2.10599 0
M  V30 8848 N 845.473 0.80434 -1.35529 0
M  V30 8849 C 846.405 1.92445 -1.2449 0
M  V30 8850 C 847.418 1.61934 -0.167685 0
M  V30 8851 O 848.607 1.73461 -0.42115 0
M  V30 8852 C 845.707 3.26875 -0.894751 0
M  V30 8853 C 844.88 3.85275 -2.07079 0
M  V30 8854 C 843.939 4.98116 -1.69607 0
M  V30 8855 O 842.965 5.15424 -2.41509 0
M  V30 8856 N 844.167 5.77169 -0.621012 0
M  V30 8857 H 846.932 2.02441 -2.20993 0
M  V30 8858 H 844.493 0.981874 -1.28728 0
M  V30 8859 H 846.485 3.99837 -0.625511 0
M  V30 8860 H 845.055 3.12594 -0.0193306 0
M  V30 8861 H 844.275 3.0448 -2.5037 0
M  V30 8862 H 845.563 4.21024 -2.85685 0
M  V30 8863 H 844.961 5.65695 -0.0236679 0
M  V30 8864 H 843.518 6.50499 -0.411558 0
M  V30 8865 N 846.951 1.19563 1.02676 0
M  V30 8866 C 847.883 0.893054 2.11086 0
M  V30 8867 C 848.896 -0.115101 1.62393 0
M  V30 8868 O 850.085 0.11459 1.78132 0
M  V30 8869 C 847.185 0.315533 3.37428 0
M  V30 8870 C 846.358 1.37276 4.153 0
M  V30 8871 C 845.417 0.808398 5.19953 0
M  V30 8872 O 844.443 1.48661 5.49444 0
M  V30 8873 N 845.645 -0.387253 5.79207 0
M  V30 8874 H 848.41 1.82622 2.37633 0
M  V30 8875 H 845.971 1.09792 1.18984 0
M  V30 8876 H 847.963 -0.0759166 4.04629 0
M  V30 8877 H 846.533 -0.521961 3.08211 0
M  V30 8878 H 845.753 1.93897 3.43217 0
M  V30 8879 H 847.041 2.08509 4.64114 0
M  V30 8880 H 846.439 -0.955725 5.57568 0
M  V30 8881 H 844.996 -0.720457 6.47806 0
M  V30 8882 N 848.429 -1.21819 0.999893 0
M  V30 8883 C 849.84 -1.72517 0.713775 0
M  V30 8884 C 850.191 -1.80505 -0.768922 0
M  V30 8885 O 849.316 -1.45611 -1.60083 0
M  V30 8886 C 849.911 -3.13321 1.28901 0
M  V30 8887 C 848.47 -3.61396 1.05212 0
M  V30 8888 C 847.617 -2.39074 1.40494 0
M  V30 8889 H 850.568 -1.07068 1.17141 0
M  V30 8890 H 850.589 -3.74535 0.671084 0
M  V30 8891 H 850.101 -3.07475 2.36814 0
M  V30 8892 H 848.202 -3.72599 -0.0100732 0
M  V30 8893 H 848.315 -4.47145 1.72042 0
M  V30 8894 H 846.679 -2.41015 0.823642 0
M  V30 8895 H 847.462 -2.35884 2.49427 0
M  V30 8896 N 849.908 -0.773975 -1.37286 0
M  V30 8897 C 850.84 -0.119938 -2.28886 0
M  V30 8898 C 851.853 0.661822 -1.48741 0
M  V30 8899 O 853.042 0.499548 -1.71367 0
M  V30 8900 C 850.142 0.853703 -3.27971 0
M  V30 8901 C 849.315 0.125286 -4.37221 0
M  V30 8902 C 848.374 1.01261 -5.16365 0
M  V30 8903 O 847.4 0.475565 -5.6721 0
M  V30 8904 N 848.602 2.33864 -5.31308 0
M  V30 8905 H 851.367 -0.906702 -2.85655 0
M  V30 8906 H 848.928 -0.626519 -1.49286 0
M  V30 8907 H 850.92 1.4508 -3.77801 0
M  V30 8908 H 849.49 1.54142 -2.71954 0
M  V30 8909 H 848.71 -0.652742 -3.88758 0
M  V30 8910 H 849.998 -0.377959 -5.07394 0
M  V30 8911 H 849.396 2.79929 -4.91585 0
M  V30 8912 H 847.953 2.88575 -5.84438 0
M  V30 8913 N 851.386 1.48609 -0.524698 0
M  V30 8914 C 852.797 1.86516 -0.0828846 0
M  V30 8915 C 853.148 1.43478 1.33822 0
M  V30 8916 O 852.273 0.823139 2.00133 0
M  V30 8917 C 852.868 3.38495 -0.143639 0
M  V30 8918 C 851.427 3.75615 0.242951 0
M  V30 8919 C 850.574 2.72649 -0.505747 0
M  V30 8920 H 853.525 1.40589 -0.736233 0
M  V30 8921 H 853.546 3.74977 0.645955 0
M  V30 8922 H 853.058 3.69789 -1.17805 0
M  V30 8923 H 851.159 3.49935 1.27971 0
M  V30 8924 H 851.272 4.7901 -0.0929834 0
M  V30 8925 H 849.636 2.54656 0.0473482 0
M  V30 8926 H 850.419 3.06786 -1.54069 0
M  V30 8927 N 852.864 0.259585 1.55447 0
M  V30 8928 C 853.796 -0.667548 2.19263 0
M  V30 8929 C 854.809 -1.12925 1.17268 0
M  V30 8930 O 855.998 -1.05384 1.44071 0
M  V30 8931 C 853.098 -1.92066 2.7922 0
M  V30 8932 C 852.271 -1.60832 4.06758 0
M  V30 8933 C 851.33 -2.71231 4.50911 0
M  V30 8934 O 850.356 -2.38077 5.17019 0
M  V30 8935 N 851.558 -4.00984 4.19752 0
M  V30 8936 H 854.323 -0.121449 2.99454 0
M  V30 8937 H 851.884 0.0800519 1.61702 0
M  V30 8938 H 853.876 -2.65186 3.0571 0
M  V30 8939 H 852.446 -2.37621 2.03113 0
M  V30 8940 H 851.666 -0.711685 3.87722 0
M  V30 8941 H 852.954 -1.37445 4.89884 0
M  V30 8942 H 852.352 -4.30748 3.66706 0
M  V30 8943 H 850.909 -4.7053 4.51048 0
M  V30 8944 N 854.342 -1.57594 -0.0133615 0
M  V30 8945 C 855.753 -1.78168 -0.557937 0
M  V30 8946 C 856.104 -0.892616 -1.74719 0
M  V30 8947 O 855.229 -0.0915491 -2.16206 0
M  V30 8948 C 855.824 -3.23115 -1.01894 0
M  V30 8949 C 854.383 -3.44831 -1.50892 0
M  V30 8950 C 853.53 -2.73558 -0.454044 0
M  V30 8951 H 856.481 -1.57266 0.212843 0
M  V30 8952 H 856.502 -3.30493 -1.8856 0
M  V30 8953 H 856.014 -3.87798 -0.153175 0
M  V30 8954 H 854.115 -2.85345 -2.39602 0
M  V30 8955 H 854.228 -4.53485 -1.54559 0
M  V30 8956 H 852.592 -2.37787 -0.912666 0
M  V30 8957 H 853.375 -3.40932 0.402524 0
M  V30 8958 N 855.82 0.285905 -1.54985 0
M  V30 8959 C 856.783 1.33625 -1.86218 0
M  V30 8960 C 857.783 1.42971 -0.735936 0
M  V30 8961 O 858.973 1.42345 -1.00417 0
M  V30 8962 C 856.105 2.71926 -2.05595 0
M  V30 8963 H 857.298 1.07167 -2.80099 0
M  V30 8964 H 854.851 0.523335 -1.47278 0
M  V30 8965 H 855.586 3.03583 -1.14053 0
M  V30 8966 H 855.371 2.6653 -2.87583 0
M  V30 8967 H 856.861 3.47841 -2.31077 0
M  V30 8968 N 857.298 1.47698 0.54982 0
M  V30 8969 C 858.261 1.60282 1.63837 0
M  V30 8970 C 859.261 0.477394 1.5355 0
M  V30 8971 O 860.451 0.742665 1.57576 0
M  V30 8972 C 857.583 1.55431 3.03404 0
M  V30 8973 H 858.776 2.57325 1.54026 0
M  V30 8974 H 856.329 1.35999 0.770329 0
M  V30 8975 H 857.064 0.597912 3.1874 0
M  V30 8976 H 856.849 2.37116 3.12279 0
M  V30 8977 H 858.339 1.6739 3.82584 0
M  V30 8978 N 858.776 -0.797141 1.35954 0
M  V30 8979 C 859.739 -1.89104 1.29508 0
M  V30 8980 C 860.739 -1.59495 0.204444 0
M  V30 8981 O 861.929 -1.68051 0.458746 0
M  V30 8982 C 859.061 -3.25726 1.00576 0
M  V30 8983 H 860.254 -1.96237 2.26785 0
M  V30 8984 H 857.807 -0.994075 1.20614 0
M  V30 8985 H 858.542 -3.24279 0.0372519 0
M  V30 8986 H 858.327 -3.48604 1.79492 0
M  V30 8987 H 859.817 -4.0578 0.986508 0
M  V30 8988 N 860.254 -1.20106 -1.0204 0
M  V30 8989 C 861.665 -1.00992 -1.57027 0
M  V30 8990 C 862.016 0.434782 -1.91322 0
M  V30 8991 O 861.141 1.31557 -1.71819 0
M  V30 8992 C 861.736 -1.82697 -2.85319 0
M  V30 8993 C 860.295 -1.67959 -3.36848 0
M  V30 8994 C 859.442 -1.80868 -2.10195 0
M  V30 8995 H 862.393 -1.34354 -0.844676 0
M  V30 8996 H 862.414 -1.32809 -3.5657 0
M  V30 8997 H 861.926 -2.87839 -2.60328 0
M  V30 8998 H 860.027 -0.654389 -3.66809 0
M  V30 8999 H 860.14 -2.49006 -4.09308 0
M  V30 9000 H 858.504 -1.24015 -2.22469 0
M  V30 9001 H 859.287 -2.87486 -1.87635 0
M  V30 9002 N 861.732 1.21287 -1.00634 0
M  V30 9003 C 862.664 2.2308 -0.526094 0
M  V30 9004 C 863.677 1.58157 0.386031 0
M  V30 9005 O 864.866 1.77528 0.186016 0
M  V30 9006 C 861.966 3.37937 0.255289 0
M  V30 9007 C 861.139 4.32449 -0.656236 0
M  V30 9008 C 860.198 5.26145 0.0757714 0
M  V30 9009 O 859.224 5.66601 -0.543325 0
M  V30 9010 N 860.426 5.6449 1.35391 0
M  V30 9011 H 863.191 2.64913 -1.40147 0
M  V30 9012 H 860.752 1.35724 -0.882641 0
M  V30 9013 H 862.744 3.97614 0.753977 0
M  V30 9014 H 861.314 2.95078 1.03187 0
M  V30 9015 H 860.534 3.70892 -1.3354 0
M  V30 9016 H 861.822 4.92526 -1.27653 0
M  V30 9017 H 861.22 5.33617 1.878 0
M  V30 9018 H 859.777 6.26524 1.79753 0
M  V30 9019 N 863.21 0.781244 1.36873 0
M  V30 9020 C 864.621 0.414093 1.8205 0
M  V30 9021 C 864.972 -1.06098 1.65039 0
M  V30 9022 O 864.097 -1.82251 1.16677 0
M  V30 9023 C 864.692 0.744837 3.30511 0
M  V30 9024 C 863.251 0.430621 3.73929 0
M  V30 9025 C 862.398 0.983746 2.59264 0
M  V30 9026 H 865.349 0.975091 1.2521 0
M  V30 9027 H 865.37 0.032936 3.80486 0
M  V30 9028 H 864.882 1.81847 3.42861 0
M  V30 9029 H 862.983 -0.635308 3.67144 0
M  V30 9030 H 863.096 0.945514 4.69677 0
M  V30 9031 H 861.46 0.407433 2.5142 0
M  V30 9032 H 862.243 2.06297 2.74402 0
M  V30 9033 N 864.689 -1.48329 0.532571 0
M  V30 9034 C 865.652 -2.2816 -0.218069 0
M  V30 9035 C 866.652 -1.35526 -0.865409 0
M  V30 9036 O 867.842 -1.58394 -0.725061 0
M  V30 9037 C 864.974 -3.1448 -1.31586 0
M  V30 9038 H 866.167 -2.95987 0.482865 0
M  V30 9039 H 863.72 -1.53612 0.288603 0
M  V30 9040 H 864.455 -2.5129 -2.04997 0
M  V30 9041 H 864.24 -3.82625 -0.856779 0
M  V30 9042 H 865.73 -3.74693 -1.84377 0
M  V30 9043 N 866.167 -0.267825 -1.55308 0
M  V30 9044 C 867.578 0.231344 -1.85261 0
M  V30 9045 C 867.929 1.56006 -1.18982 0
M  V30 9046 O 867.054 2.1111 -0.475554 0
M  V30 9047 C 867.649 0.426537 -3.36104 0
M  V30 9048 C 866.208 0.869945 -3.66209 0
M  V30 9049 C 865.355 -0.0409522 -2.7727 0
M  V30 9050 H 868.306 -0.489821 -1.50952 0
M  V30 9051 H 868.327 1.26616 -3.58816 0
M  V30 9052 H 867.839 -0.540678 -3.84315 0
M  V30 9053 H 865.94 1.84889 -3.23492 0
M  V30 9054 H 866.053 0.712316 -4.73775 0
M  V30 9055 H 864.417 0.474097 -2.50249 0
M  V30 9056 H 865.2 -1.00392 -3.28293 0
M  V30 9057 N 867.645 1.57599 0.00500368 0
M  V30 9058 C 868.608 2.07058 0.982832 0
M  V30 9059 C 869.608 0.979045 1.27559 0
M  V30 9060 O 870.798 1.24187 1.22161 0
M  V30 9061 C 867.93 2.50782 2.30914 0
M  V30 9062 H 869.123 2.94718 0.555119 0
M  V30 9063 H 866.676 1.54249 0.25237 0
M  V30 9064 H 867.411 1.66351 2.78385 0
M  V30 9065 H 867.196 3.30495 2.10987 0
M  V30 9066 H 868.686 2.89391 3.0107 0
M  V30 9067 N 869.123 -0.277682 1.55134 0
M  V30 9068 C 870.055 -1.36531 1.84098 0
M  V30 9069 C 871.068 -1.45756 0.725194 0
M  V30 9070 O 872.257 -1.47656 1.00299 0
M  V30 9071 C 869.357 -2.74701 1.98476 0
M  V30 9072 C 868.53 -2.88125 3.29094 0
M  V30 9073 C 867.589 -4.0694 3.33596 0
M  V30 9074 O 866.615 -3.9792 4.06999 0
M  V30 9075 N 867.817 -5.18687 2.60661 0
M  V30 9076 H 870.582 -1.12032 2.77973 0
M  V30 9077 H 868.143 -0.467793 1.54995 0
M  V30 9078 H 870.135 -3.52471 1.98863 0
M  V30 9079 H 868.705 -2.92043 1.11488 0
M  V30 9080 H 867.925 -1.97277 3.41285 0
M  V30 9081 H 869.213 -2.94021 4.15246 0
M  V30 9082 H 868.611 -5.28901 2.00699 0
M  V30 9083 H 867.168 -5.94705 2.66776 0
M  V30 9084 N 870.601 -1.47988 -0.541979 0
M  V30 9085 C 871.511 -1.64276 -1.67483 0
M  V30 9086 C 872.527 -0.525387 -1.65879 0
M  V30 9087 O 873.703 -0.794912 -1.85049 0
M  V30 9088 C 870.768 -1.66744 -3.03969 0
M  V30 9089 C 869.829 -2.90021 -3.16522 0
M  V30 9090 C 869.062 -2.92362 -4.46498 0
M  V30 9091 O 869.285 -2.03462 -5.32878 0
M  V30 9092 O 868.219 -3.84399 -4.63164 0
M  V30 9093 H 872.045 -2.60164 -1.5668 0
M  V30 9094 H 869.63 -1.31249 -0.71372 0
M  V30 9095 H 871.512 -1.70958 -3.85164 0
M  V30 9096 H 870.187 -0.740277 -3.15122 0
M  V30 9097 H 869.094 -2.91345 -2.34667 0
M  V30 9098 H 870.427 -3.82082 -3.10281 0
M  V30 9099 N 872.079 0.78992 -1.36375 0
M  V30 9100 C 873.49 1.36506 -1.2737 0
M  V30 9101 C 873.841 1.96008 0.086711 0
M  V30 9102 O 872.966 1.92521 0.988159 0
M  V30 9103 C 873.561 2.48175 -2.30639 0
M  V30 9104 C 872.12 3.01506 -2.25325 0
M  V30 9105 C 871.267 1.74581 -2.15445 0
M  V30 9106 H 874.218 0.591606 -1.47261 0
M  V30 9107 H 874.239 3.27179 -1.94253 0
M  V30 9108 H 873.751 2.04838 -3.2964 0
M  V30 9109 H 871.852 3.49265 -1.29788 0
M  V30 9110 H 871.965 3.58355 -3.17992 0
M  V30 9111 H 870.329 1.96794 -1.61692 0
M  V30 9112 H 871.112 1.33373 -3.16333 0
M  V30 9113 N 873.557 1.20646 1.01402 0
M  V30 9114 C 874.52 0.959314 2.08158 0
M  V30 9115 C 875.52 -0.0661558 1.60664 0
M  V30 9116 O 876.71 0.170177 1.73367 0
M  V30 9117 C 873.842 0.444785 3.37986 0
M  V30 9118 H 875.035 1.90631 2.31517 0
M  V30 9119 H 872.588 1.02219 1.18241 0
M  V30 9120 H 873.323 -0.507553 3.20304 0
M  V30 9121 H 873.108 1.18435 3.73785 0
M  V30 9122 H 874.598 0.291443 4.16582 0
M  V30 9123 N 875.035 -1.20752 1.01276 0
M  V30 9124 C 876.284 -1.8934 0.695229 0
M  V30 9125 C 876.597 -1.79459 -0.77806 0
M  V30 9126 O 877.803 -2.43146 -1.20799 0
M  V30 9127 C 876.259 -3.39548 1.1931 0
M  V30 9128 C 875.867 -3.58023 2.69302 0
M  V30 9129 C 877.611 -4.13714 0.950823 0
M  V30 9130 C 875.518 -5.02037 3.1259 0
M  V30 9131 H 874.448 -0.709084 0.25635 0
M  V30 9132 H 877.099 -1.36629 1.22494 0
M  V30 9133 H 875.481 -3.91559 0.591395 0
M  V30 9134 H 876.655 -3.16416 3.34989 0
M  V30 9135 H 874.97 -2.97222 2.9163 0
M  V30 9136 H 877.567 -5.19891 1.24971 0
M  V30 9137 H 877.91 -4.16147 -0.112791 0
M  V30 9138 H 878.443 -3.67792 1.51571 0
M  V30 9139 H 875.182 -5.04757 4.18211 0
M  V30 9140 H 874.702 -5.44469 2.51621 0
M  V30 9141 H 876.381 -5.70594 3.0501 0
M  V30 9142 N 876.513 -0.788492 -1.36457 0
M  V30 9143 C 877.445 -0.144208 -2.28746 0
M  V30 9144 C 878.458 0.646009 -1.49434 0
M  V30 9145 O 879.647 0.481344 -1.71888 0
M  V30 9146 C 876.747 0.818869 -3.28858 0
M  V30 9147 C 875.92 0.0789055 -4.37329 0
M  V30 9148 C 874.979 0.957791 -5.1741 0
M  V30 9149 O 874.005 0.415378 -5.67682 0
M  V30 9150 N 875.207 2.28216 -5.33758 0
M  V30 9151 H 877.972 -0.936949 -2.84678 0
M  V30 9152 H 875.533 -0.642317 -1.48613 0
M  V30 9153 H 877.525 1.41065 -3.79319 0
M  V30 9154 H 876.095 1.51249 -2.73573 0
M  V30 9155 H 875.315 -0.693939 -3.88044 0
M  V30 9156 H 876.603 -0.431753 -5.06965 0
M  V30 9157 H 876.001 2.747 -4.94527 0
M  V30 9158 H 874.558 2.8236 -5.87466 0
M  V30 9159 N 877.991 1.48044 -0.54043 0
M  V30 9160 C 878.954 2.28273 0.205966 0
M  V30 9161 C 879.954 1.35983 0.858209 0
M  V30 9162 O 881.144 1.58776 0.716651 0
M  V30 9163 C 878.276 3.15174 1.29917 0
M  V30 9164 H 879.469 2.95727 -0.498555 0
M  V30 9165 H 877.022 1.53457 -0.296745 0
M  V30 9166 H 877.757 2.52374 2.03661 0
M  V30 9167 H 877.542 3.83074 0.836475 0
M  V30 9168 H 879.032 3.75666 1.82387 0
M  V30 9169 N 879.47 0.276058 1.55163 0
M  V30 9170 C 880.881 -0.221516 1.85381 0
M  V30 9171 C 881.232 -1.55372 1.19808 0
M  V30 9172 O 880.357 -2.10855 0.486742 0
M  V30 9173 C 880.952 -0.408706 3.36326 0
M  V30 9174 C 879.511 -0.850512 3.66665 0
M  V30 9175 C 878.658 0.055656 2.77244 0
M  V30 9176 H 881.609 0.497819 1.5069 0
M  V30 9177 H 881.63 -1.24711 3.59482 0
M  V30 9178 H 881.142 0.561052 3.84023 0
M  V30 9179 H 879.243 -1.83171 3.24468 0
M  V30 9180 H 879.356 -0.687181 4.74146 0
M  V30 9181 H 877.72 -0.460819 2.50497 0
M  V30 9182 H 878.503 1.02131 3.27756 0
M  V30 9183 N 880.948 -1.576 0.00335426 0
M  V30 9184 C 882.194 -1.90996 -0.681799 0
M  V30 9185 C 882.527 -0.877643 -1.73237 0
M  V30 9186 O 881.802 0.103183 -1.94226 0
M  V30 9187 C 882.085 -3.34961 -1.32187 0
M  V30 9188 C 881.938 -4.48911 -0.28261 0
M  V30 9189 C 883.257 -3.78408 -2.24711 0
M  V30 9190 H 880.376 -0.694596 -0.246386 0
M  V30 9191 H 883.018 -1.89919 0.055336 0
M  V30 9192 H 881.168 -3.36008 -1.95014 0
M  V30 9193 H 882.84 -4.59999 0.346241 0
M  V30 9194 H 881.083 -4.32 0.394768 0
M  V30 9195 H 881.754 -5.46609 -0.769576 0
M  V30 9196 H 884.23 -3.78934 -1.71897 0
M  V30 9197 H 883.106 -4.79885 -2.66461 0
M  V30 9198 H 883.367 -3.12464 -3.1276 0
M  V30 9199 N 882.426 0.269451 -1.5528 0
M  V30 9200 C 883.842 0.616827 -1.47199 0
M  V30 9201 C 884.042 1.89354 -0.68901 0
M  V30 9202 O 883.098 2.51631 -0.209287 0
M  V30 9203 C 884.411 0.740492 -2.9144 0
M  V30 9204 C 885.959 0.834312 -3.01676 0
M  V30 9205 C 886.434 0.989725 -4.47178 0
M  V30 9206 N 887.925 1.05516 -4.51022 0
M  V30 9207 C 888.66 1.19427 -5.60825 0
M  V30 9208 N 888.156 1.30035 -6.80487 0
M  V30 9209 N 889.949 1.22566 -5.48575 0
M  V30 9210 H 882.1 -0.568962 -2.04638 0
M  V30 9211 H 884.363 -0.193153 -0.928114 0
M  V30 9212 H 884.069 -0.127234 -3.5147 0
M  V30 9213 H 883.943 1.61965 -3.40657 0
M  V30 9214 H 886.33 1.6925 -2.4174 0
M  V30 9215 H 886.411 -0.0695298 -2.55705 0
M  V30 9216 H 886.055 0.136179 -5.07717 0
M  V30 9217 H 885.985 1.90827 -4.90808 0
M  V30 9218 H 888.476 0.985434 -3.64825 0
M  V30 9219 H 888.789 1.40494 -7.59922 0
M  V30 9220 H 887.134 1.27033 -6.83292 0
M  V30 9221 H 890.325 1.13911 -4.54029 0
M  V30 9222 H 890.498 1.33063 -6.34191 0
M  V30 9223 N 883.904 1.48273 0.534124 0
M  V30 9224 C 884.836 1.5857 1.65494 0
M  V30 9225 C 885.849 0.470266 1.5586 0
M  V30 9226 O 887.038 0.740928 1.62396 0
M  V30 9227 C 884.138 1.49554 3.04117 0
M  V30 9228 C 883.311 2.76066 3.39273 0
M  V30 9229 C 882.37 2.60562 4.57159 0
M  V30 9230 O 881.396 3.34438 4.60587 0
M  V30 9231 N 882.598 1.69906 5.55079 0
M  V30 9232 H 885.363 2.55226 1.57099 0
M  V30 9233 H 882.924 1.44944 0.721303 0
M  V30 9234 H 884.916 1.36882 3.80848 0
M  V30 9235 H 883.486 0.608895 3.06613 0
M  V30 9236 H 882.706 3.03332 2.51761 0
M  V30 9237 H 883.994 3.60006 3.59546 0
M  V30 9238 H 883.392 1.09079 5.55084 0
M  V30 9239 H 881.949 1.63175 6.31044 0
M  V30 9240 N 885.382 -0.782676 1.36792 0
M  V30 9241 C 886.314 -1.9044 1.27536 0
M  V30 9242 C 887.327 -1.61647 0.193426 0
M  V30 9243 O 888.516 -1.72769 0.448692 0
M  V30 9244 C 885.616 -3.2541 0.946641 0
M  V30 9245 C 884.789 -3.81932 2.13183 0
M  V30 9246 C 883.848 -4.95355 1.7751 0
M  V30 9247 O 882.874 -5.11517 2.49678 0
M  V30 9248 N 884.076 -5.76108 0.712755 0
M  V30 9249 H 886.841 -1.98899 2.24186 0
M  V30 9250 H 884.402 -0.96127 1.30274 0
M  V30 9251 H 886.394 -3.98791 0.689043 0
M  V30 9252 H 884.964 -3.12524 0.0690591 0
M  V30 9253 H 884.184 -3.00459 2.55183 0
M  V30 9254 H 885.472 -4.16426 2.92347 0
M  V30 9255 H 884.87 -5.65586 0.113662 0
M  V30 9256 H 883.427 -6.49762 0.514995 0
M  V30 9257 N 886.86 -1.21182 -1.00761 0
M  V30 9258 C 888.271 -1.02652 -1.55947 0
M  V30 9259 C 888.622 0.414466 -1.91772 0
M  V30 9260 O 887.747 1.29727 -1.73204 0
M  V30 9261 C 888.342 -1.85713 -2.83366 0
M  V30 9262 C 886.901 -1.71523 -3.35048 0
M  V30 9263 C 886.048 -1.83087 -2.08265 0
M  V30 9264 H 888.999 -1.35242 -0.830379 0
M  V30 9265 H 889.02 -1.36583 -3.55141 0
M  V30 9266 H 888.532 -2.90584 -2.5726 0
M  V30 9267 H 886.633 -0.693257 -3.66094 0
M  V30 9268 H 886.746 -2.53333 -4.06644 0
M  V30 9269 H 885.11 -1.26367 -2.21141 0
M  V30 9270 H 885.893 -2.8946 -1.84575 0
M  V30 9271 N 888.338 1.20213 -1.01915 0
M  V30 9272 C 889.285 2.2309 -0.591571 0
M  V30 9273 C 890.255 1.61465 0.389649 0
M  V30 9274 O 891.44 1.88606 0.288511 0
M  V30 9275 C 888.58 3.45045 0.0614028 0
M  V30 9276 C 887.693 4.21091 -0.964688 0
M  V30 9277 C 886.828 5.30448 -0.282499 0
M  V30 9278 C 885.867 5.98241 -1.29517 0
M  V30 9279 N 885.004 6.99182 -0.639472 0
M  V30 9280 H 889.844 2.59023 -1.47347 0
M  V30 9281 H 887.381 1.27274 -0.737547 0
M  V30 9282 H 889.339 4.14688 0.45714 0
M  V30 9283 H 887.969 3.09797 0.906937 0
M  V30 9284 H 887.021 3.50489 -1.47857 0
M  V30 9285 H 888.333 4.67662 -1.73475 0
M  V30 9286 H 887.487 6.06466 0.168603 0
M  V30 9287 H 886.226 4.84922 0.519843 0
M  V30 9288 H 885.231 5.20982 -1.75663 0
M  V30 9289 H 886.456 6.45853 -2.09884 0
M  V30 9290 H 884.402 6.55844 0.142955 0
M  V30 9291 H 884.319 7.43893 -1.34756 0
M  V30 9292 H 885.587 7.79212 -0.212047 0
M  V30 9293 N 889.816 0.795718 1.36037 0
M  V30 9294 C 891.062 0.371574 1.99367 0
M  V30 9295 C 891.395 -1.0557 1.62999 0
M  V30 9296 O 890.67 -1.73051 0.887895 0
M  V30 9297 C 890.953 0.542622 3.55988 0
M  V30 9298 C 890.806 2.01404 4.0219 0
M  V30 9299 C 892.125 -0.0384527 4.40083 0
M  V30 9300 H 889.244 0.136483 0.724252 0
M  V30 9301 H 891.886 1.00323 1.61355 0
M  V30 9302 H 890.036 0.0049053 3.885 0
M  V30 9303 H 891.708 2.6133 3.80137 0
M  V30 9304 H 889.951 2.51439 3.53498 0
M  V30 9305 H 890.622 2.08466 5.11122 0
M  V30 9306 H 893.098 0.420634 4.13968 0
M  V30 9307 H 891.974 0.111214 5.48787 0
M  V30 9308 H 892.235 -1.13116 4.27384 0
M  V30 9309 N 891.294 -1.47756 0.548274 0
M  V30 9310 C 892.226 -2.27921 -0.24177 0
M  V30 9311 C 893.239 -1.36471 -0.887658 0
M  V30 9312 O 894.428 -1.6137 -0.763016 0
M  V30 9313 C 891.528 -3.10449 -1.35922 0
M  V30 9314 C 890.701 -4.298 -0.811808 0
M  V30 9315 C 889.76 -4.93994 -1.81264 0
M  V30 9316 O 888.786 -5.52657 -1.3623 0
M  V30 9317 N 889.988 -4.87882 -3.14566 0
M  V30 9318 H 892.753 -2.96365 0.445848 0
M  V30 9319 H 890.314 -1.57286 0.383769 0
M  V30 9320 H 892.306 -3.50261 -2.02729 0
M  V30 9321 H 890.876 -2.44306 -1.95021 0
M  V30 9322 H 890.096 -3.94186 0.0327929 0
M  V30 9323 H 891.384 -5.0702 -0.425272 0
M  V30 9324 H 890.782 -4.41405 -3.53805 0
M  V30 9325 H 889.339 -5.3174 -3.76956 0
M  V30 9326 N 892.772 -0.284283 -1.55015 0
M  V30 9327 C 894 0.332948 -2.04203 0
M  V30 9328 C 894.415 1.48783 -1.16229 0
M  V30 9329 O 893.772 1.81567 -0.184323 0
M  V30 9330 C 893.823 0.805207 -3.52418 0
M  V30 9331 O 893.544 -0.303689 -4.37046 0
M  V30 9332 C 895.045 1.48931 -4.17534 0
M  V30 9333 H 892.265 0.0747447 -0.666824 0
M  V30 9334 H 894.809 -0.419048 -2.00161 0
M  V30 9335 H 892.964 1.50727 -3.56876 0
M  V30 9336 H 893.378 0.0609703 -5.24465 0
M  V30 9337 H 894.852 1.77108 -5.22816 0
M  V30 9338 H 895.329 2.42389 -3.66257 0
M  V30 9339 H 895.935 0.830867 -4.17105 0
M  V30 9340 N 894.251 1.57596 -0.0117121 0
M  V30 9341 C 895.479 1.9536 0.681334 0
M  V30 9342 C 895.894 0.887255 1.66653 0
M  V30 9343 O 895.251 -0.132692 1.82017 0
M  V30 9344 C 895.302 3.33165 1.40298 0
M  V30 9345 O 895.023 4.35707 0.45728 0
M  V30 9346 C 896.524 3.85458 2.18946 0
M  V30 9347 H 893.744 0.643826 0.189023 0
M  V30 9348 H 896.288 2.04392 -0.066311 0
M  V30 9349 H 894.443 3.25404 2.10216 0
M  V30 9350 H 894.857 5.15495 0.96773 0
M  V30 9351 H 896.331 4.84275 2.64918 0
M  V30 9352 H 896.808 3.18781 3.02118 0
M  V30 9353 H 897.414 3.96431 1.5402 0
M  V30 9354 N 895.729 -0.261212 1.5542 0
M  V30 9355 C 897.14 -0.83138 1.67167 0
M  V30 9356 C 897.491 -1.8659 0.606525 0
M  V30 9357 O 896.616 -2.14953 -0.24985 0
M  V30 9358 C 897.211 -1.51475 3.03052 0
M  V30 9359 C 895.77 -2.0328 3.16787 0
M  V30 9360 C 894.917 -0.878903 2.63003 0
M  V30 9361 H 897.868 -0.0373102 1.58656 0
M  V30 9362 H 897.889 -2.38222 2.96699 0
M  V30 9363 H 897.401 -0.76157 3.80554 0
M  V30 9364 H 895.502 -2.81523 2.44082 0
M  V30 9365 H 895.615 -2.24001 4.2351 0
M  V30 9366 H 893.979 -1.27551 2.2046 0
M  V30 9367 H 894.762 -0.13904 3.43018 0
M  V30 9368 N 897.207 -1.48554 -0.526253 0
M  V30 9369 C 898.618 -1.50256 -1.10815 0
M  V30 9370 C 898.969 -0.274445 -1.94271 0
M  V30 9371 O 898.094 0.618094 -2.07385 0
M  V30 9372 C 898.689 -2.72264 -2.01638 0
M  V30 9373 C 897.248 -2.76826 -2.55038 0
M  V30 9374 C 896.395 -2.43823 -1.32081 0
M  V30 9375 H 899.346 -1.55616 -0.31133 0
M  V30 9376 H 899.367 -2.50993 -2.85977 0
M  V30 9377 H 898.879 -3.61632 -1.4087 0
M  V30 9378 H 896.98 -1.91676 -3.19517 0
M  V30 9379 H 897.093 -3.78351 -2.93917 0
M  V30 9380 H 895.457 -1.95058 -1.63781 0
M  V30 9381 H 896.24 -3.35436 -0.730596 0
M  V30 9382 N 898.685 0.775411 -1.37205 0
M  V30 9383 C 900.096 1.35147 -1.28811 0
M  V30 9384 C 900.447 1.96089 0.0659168 0
M  V30 9385 O 899.572 1.93558 0.967684 0
M  V30 9386 C 900.167 2.45715 -2.33258 0
M  V30 9387 C 898.726 2.99099 -2.2851 0
M  V30 9388 C 897.873 1.72286 -2.17285 0
M  V30 9389 H 900.824 0.575954 -1.4788 0
M  V30 9390 H 900.845 3.251 -1.97712 0
M  V30 9391 H 900.357 2.01331 -3.31795 0
M  V30 9392 H 898.458 3.47868 -1.33485 0
M  V30 9393 H 898.571 3.54962 -3.21774 0
M  V30 9394 H 896.935 1.95068 -1.6377 0
M  V30 9395 H 897.718 1.3001 -3.1773 0
M  V30 9396 N 900.163 1.21714 1.00117 0
M  V30 9397 C 901.126 0.981338 2.07129 0
M  V30 9398 C 902.126 -0.0491116 1.60725 0
M  V30 9399 O 903.316 0.188555 1.73177 0
M  V30 9400 C 900.448 0.480608 3.37495 0
M  V30 9401 H 901.641 1.93075 2.29482 0
M  V30 9402 H 899.194 1.03467 1.17151 0
M  V30 9403 H 899.929 -0.473552 3.20824 0
M  V30 9404 H 899.714 1.22393 3.72508 0
M  V30 9405 H 901.204 0.33561 4.16249 0
M  V30 9406 N 901.641 -1.19671 1.02551 0
M  V30 9407 C 902.887 -1.89548 0.721069 0
M  V30 9408 C 903.22 -1.79209 -0.748176 0
M  V30 9409 O 902.495 -1.1822 -1.54448 0
M  V30 9410 C 902.778 -3.4061 1.16861 0
M  V30 9411 C 902.631 -3.59838 2.69883 0
M  V30 9412 C 903.95 -4.33718 0.746782 0
M  V30 9413 H 901.069 -0.688315 0.263422 0
M  V30 9414 H 903.711 -1.40883 1.27483 0
M  V30 9415 H 901.861 -3.82188 0.697477 0
M  V30 9416 H 903.533 -3.27454 3.24917 0
M  V30 9417 H 901.776 -3.03005 3.10435 0
M  V30 9418 H 902.447 -4.65766 2.96253 0
M  V30 9419 H 904.923 -3.99837 1.15195 0
M  V30 9420 H 903.799 -5.38012 1.08786 0
M  V30 9421 H 904.06 -4.40704 -0.351057 0
M  V30 9422 N 903.119 -0.802921 -1.35613 0
M  V30 9423 C 904.051 -0.168461 -2.2858 0
M  V30 9424 C 905.064 0.630123 -1.50111 0
M  V30 9425 O 906.253 0.463086 -1.72388 0
M  V30 9426 C 903.353 0.783943 -3.29708 0
M  V30 9427 C 902.526 0.0325165 -4.37388 0
M  V30 9428 C 901.585 0.902859 -5.18396 0
M  V30 9429 O 900.611 0.355144 -5.68091 0
M  V30 9430 N 901.813 2.22542 -5.36149 0
M  V30 9431 H 904.578 -0.96709 -2.83668 0
M  V30 9432 H 902.139 -0.658043 -1.47924 0
M  V30 9433 H 904.131 1.37034 -3.80794 0
M  V30 9434 H 902.701 1.48339 -2.75162 0
M  V30 9435 H 901.921 -0.735057 -3.87286 0
M  V30 9436 H 903.209 -0.485499 -5.06478 0
M  V30 9437 H 902.607 2.69439 -4.97412 0
M  V30 9438 H 901.164 2.76113 -5.90428 0
M  V30 9439 N 904.597 1.47463 -0.556102 0
M  V30 9440 C 905.845 2.02075 -0.0315712 0
M  V30 9441 C 906.166 1.43292 1.32259 0
M  V30 9442 O 905.436 0.60771 1.86236 0
M  V30 9443 H 904.016 0.74695 -0.0086816 0
M  V30 9444 H 906.678 1.80879 -0.725859 0
M  V30 9445 H 905.774 3.12047 0.0573538 0
M  V30 9446 N 906.075 0.2925 1.54862 0
M  V30 9447 C 907.007 -0.620889 2.2063 0
M  V30 9448 C 908.02 -1.10412 1.19637 0
M  V30 9449 O 909.209 -1.02304 1.46274 0
M  V30 9450 C 906.309 -1.861 2.83232 0
M  V30 9451 C 905.482 -1.52168 4.10078 0
M  V30 9452 C 904.541 -2.61605 4.56562 0
M  V30 9453 O 903.567 -2.27056 5.21952 0
M  V30 9454 N 904.769 -3.9199 4.28163 0
M  V30 9455 H 907.534 -0.0579028 2.99644 0
M  V30 9456 H 905.095 0.114333 1.61496 0
M  V30 9457 H 907.087 -2.58642 3.11266 0
M  V30 9458 H 905.657 -2.33259 2.08108 0
M  V30 9459 H 904.877 -0.629283 3.89145 0
M  V30 9460 H 906.165 -1.27023 4.92689 0
M  V30 9461 H 905.563 -4.22872 3.7576 0
M  V30 9462 H 904.12 -4.60857 4.60928 0
M  V30 9463 N 907.553 -1.57587 0.0200696 0
M  V30 9464 C 908.5 -2.09667 -0.964791 0
M  V30 9465 C 909.47 -0.99664 -1.32877 0
M  V30 9466 O 910.655 -1.2703 -1.42366 0
M  V30 9467 C 907.795 -2.62101 -2.24493 0
M  V30 9468 C 906.908 -3.8608 -1.93821 0
M  V30 9469 C 906.043 -4.26939 -3.16064 0
M  V30 9470 C 905.082 -5.43701 -2.81169 0
M  V30 9471 N 904.219 -5.79759 -3.9601 0
M  V30 9472 H 909.059 -2.93538 -0.513751 0
M  V30 9473 H 906.596 -1.45096 -0.242 0
M  V30 9474 H 908.554 -2.90587 -2.99358 0
M  V30 9475 H 907.184 -1.81074 -2.6723 0
M  V30 9476 H 906.236 -3.64378 -1.09237 0
M  V30 9477 H 907.548 -4.71028 -1.64115 0
M  V30 9478 H 906.702 -4.56814 -3.99257 0
M  V30 9479 H 905.441 -3.40739 -3.48924 0
M  V30 9480 H 904.446 -5.13529 -1.96387 0
M  V30 9481 H 905.671 -6.31593 -2.49535 0
M  V30 9482 H 903.617 -4.96516 -4.28729 0
M  V30 9483 H 903.534 -6.59327 -3.69896 0
M  V30 9484 H 904.802 -6.14235 -4.79933 0
M  V30 9485 N 909.032 0.252966 -1.55557 0
M  V30 9486 C 910.278 0.983306 -1.77367 0
M  V30 9487 C 910.611 1.85203 -0.584258 0
M  V30 9488 O 909.886 1.89963 0.417644 0
M  V30 9489 C 910.169 1.84896 -3.09007 0
M  V30 9490 C 910.022 1.00883 -4.38341 0
M  V30 9491 C 911.341 2.83254 -3.36831 0
M  V30 9492 H 908.46 0.356056 -0.645286 0
M  V30 9493 H 911.102 0.254232 -1.88291 0
M  V30 9494 H 909.252 2.47058 -2.99825 0
M  V30 9495 H 910.924 0.40638 -4.59507 0
M  V30 9496 H 909.167 0.31297 -4.3267 0
M  V30 9497 H 909.838 1.64818 -5.2682 0
M  V30 9498 H 912.314 2.31228 -3.45937 0
M  V30 9499 H 911.19 3.40949 -4.30169 0
M  V30 9500 H 911.451 3.59407 -2.57447 0
M  V30 9501 N 910.51 1.48831 0.518367 0
M  V30 9502 C 911.758 1.57128 1.27103 0
M  V30 9503 C 912.079 0.252098 1.93364 0
M  V30 9504 O 911.349 -0.727281 1.819 0
M  V30 9505 H 909.929 0.578891 0.472116 0
M  V30 9506 H 912.591 1.85361 0.602262 0
M  V30 9507 H 911.687 2.35838 2.04418 0
M  V30 9508 N 911.988 -0.768124 1.37614 0
M  V30 9509 C 913.213 -1.56239 1.36397 0
M  V30 9510 C 913.638 -1.8804 -0.0475839 0
M  V30 9511 O 912.996 -1.495 -1.02564 0
M  V30 9512 C 913.044 -2.84716 2.21289 0
M  V30 9513 O 912.148 -3.79249 1.62001 0
M  V30 9514 H 911.489 -0.473119 0.465891 0
M  V30 9515 H 914.019 -0.950415 1.81186 0
M  V30 9516 H 914.029 -3.33784 2.34632 0
M  V30 9517 H 912.704 -2.60899 3.2389 0
M  V30 9518 H 911.281 -3.37904 1.57719 0
M  V30 9519 N 913.466 -1.22244 -0.994698 0
M  V30 9520 C 914.396 -1.01513 -2.10279 0
M  V30 9521 C 915.377 0.0633365 -1.69982 0
M  V30 9522 O 916.562 -0.0985268 -1.9395 0
M  V30 9523 C 913.692 -0.59016 -3.42249 0
M  V30 9524 C 912.646 -1.61436 -3.96387 0
M  V30 9525 C 911.972 -1.04528 -5.24383 0
M  V30 9526 C 913.272 -3.00388 -4.27276 0
M  V30 9527 H 914.966 -1.94194 -2.2788 0
M  V30 9528 H 912.512 -0.935094 -1.09508 0
M  V30 9529 H 914.465 -0.432254 -4.19177 0
M  V30 9530 H 913.189 0.372308 -3.24471 0
M  V30 9531 H 911.848 -1.76001 -3.21589 0
M  V30 9532 H 911.496 -0.0742225 -5.02945 0
M  V30 9533 H 911.196 -1.72949 -5.61571 0
M  V30 9534 H 912.72 -0.898922 -6.03947 0
M  V30 9535 H 914.134 -2.89207 -4.95007 0
M  V30 9536 H 912.531 -3.65916 -4.75631 0
M  V30 9537 H 913.601 -3.50456 -3.35125 0
M  V30 9538 N 914.944 1.19125 -1.03184 0
M  V30 9539 C 916.172 1.92838 -0.74975 0
M  V30 9540 C 916.587 1.75667 0.691851 0
M  V30 9541 O 915.944 1.0805 1.47076 0
M  V30 9542 C 915.995 3.44509 -1.09525 0
M  V30 9543 O 915.716 3.6113 -2.48025 0
M  V30 9544 C 917.217 4.35338 -0.836397 0
M  V30 9545 H 914.437 0.61246 -0.274105 0
M  V30 9546 H 916.981 1.5118 -1.37712 0
M  V30 9547 H 915.136 3.83988 -0.513006 0
M  V30 9548 H 915.55 4.54959 -2.60984 0
M  V30 9549 H 917.024 5.4035 -1.12808 0
M  V30 9550 H 917.501 4.38602 0.229102 0
M  V30 9551 H 918.107 4.01544 -1.40152 0
M  V30 9552 N 916.422 0.810101 1.35185 0
M  V30 9553 C 917.833 0.452616 1.81131 0
M  V30 9554 C 918.184 -1.02573 1.67252 0
M  V30 9555 O 917.309 -1.79735 1.20516 0
M  V30 9556 C 917.904 0.814775 3.28857 0
M  V30 9557 C 916.463 0.509839 3.72931 0
M  V30 9558 C 915.61 1.03852 2.57119 0
M  V30 9559 H 918.561 1.00143 1.23114 0
M  V30 9560 H 918.582 0.113635 3.8033 0
M  V30 9561 H 918.094 1.89078 3.38926 0
M  V30 9562 H 916.195 -0.557289 3.68409 0
M  V30 9563 H 916.308 1.04493 4.67566 0
M  V30 9564 H 914.672 0.460671 2.50499 0
M  V30 9565 H 915.455 2.12071 2.69964 0
M  V30 9566 N 917.9 -1.47166 0.563914 0
M  V30 9567 C 919.311 -1.86231 0.132307 0
M  V30 9568 C 919.662 -1.46976 -1.29971 0
M  V30 9569 O 918.787 -0.875911 -1.97881 0
M  V30 9570 C 919.382 -3.37996 0.233335 0
M  V30 9571 C 917.941 -3.76127 -0.143278 0
M  V30 9572 C 917.088 -2.71212 0.577857 0
M  V30 9573 H 920.039 -1.38588 0.773249 0
M  V30 9574 H 920.06 -3.76558 -0.546309 0
M  V30 9575 H 919.572 -3.66535 1.27568 0
M  V30 9576 H 917.673 -3.53205 -1.18648 0
M  V30 9577 H 917.786 -4.78595 0.219952 0
M  V30 9578 H 916.15 -2.54692 0.020186 0
M  V30 9579 H 916.933 -3.02593 1.62149 0
M  V30 9580 N 919.378 -0.300708 -1.54705 0
M  V30 9581 C 920.603 0.314073 -2.05008 0
M  V30 9582 C 921.028 1.46759 -1.17657 0
M  V30 9583 O 920.386 1.80398 -0.180598 0
M  V30 9584 C 920.434 0.748243 -3.52752 0
M  V30 9585 O 919.538 1.85305 -3.68424 0
M  V30 9586 H 918.879 0.0610139 -0.661191 0
M  V30 9587 H 921.409 -0.442467 -1.99758 0
M  V30 9588 H 921.419 1.03713 -3.94598 0
M  V30 9589 H 920.094 -0.095573 -4.1579 0
M  V30 9590 H 918.671 1.56473 -3.38483 0
M  V30 9591 N 920.856 1.57574 -0.0284266 0
M  V30 9592 C 922.081 1.96479 0.664137 0
M  V30 9593 C 922.506 0.904826 1.64908 0
M  V30 9594 O 921.864 -0.134339 1.80802 0
M  V30 9595 C 921.912 3.34479 1.34745 0
M  V30 9596 O 921.016 3.30794 2.46271 0
M  V30 9597 H 920.357 0.640654 0.174524 0
M  V30 9598 H 922.887 2.04402 -0.0900729 0
M  V30 9599 H 922.897 3.70694 1.7044 0
M  V30 9600 H 921.572 4.1117 0.625468 0
M  V30 9601 H 920.149 3.06294 2.12693 0
M  V30 9602 N 922.334 -0.244713 1.55689 0
M  V30 9603 C 923.745 -0.813603 1.6804 0
M  V30 9604 C 924.096 -1.85936 0.626281 0
M  V30 9605 O 923.221 -2.15206 -0.227038 0
M  V30 9606 C 923.816 -1.48252 3.04642 0
M  V30 9607 C 922.375 -1.99908 3.18926 0
M  V30 9608 C 921.522 -0.850958 2.6392 0
M  V30 9609 H 924.473 -0.0204805 1.58687 0
M  V30 9610 H 924.494 -2.35062 2.99209 0
M  V30 9611 H 924.006 -0.721164 3.81341 0
M  V30 9612 H 922.107 -2.78918 2.47054 0
M  V30 9613 H 922.22 -2.19497 4.25862 0
M  V30 9614 H 920.584 -1.25206 2.21801 0
M  V30 9615 H 921.367 -0.10265 3.43146 0
M  V30 9616 N 923.813 -1.49104 -0.510467 0
M  V30 9617 C 924.76 -1.65074 -1.61305 0
M  V30 9618 C 925.73 -0.492362 -1.58635 0
M  V30 9619 O 926.915 -0.718241 -1.76765 0
M  V30 9620 C 924.055 -1.71457 -2.99493 0
M  V30 9621 C 923.168 -2.98536 -3.12251 0
M  V30 9622 C 922.303 -2.95957 -4.41116 0
M  V30 9623 C 921.342 -4.17655 -4.47471 0
M  V30 9624 N 920.479 -4.13041 -5.67751 0
M  V30 9625 H 925.319 -2.59222 -1.46996 0
M  V30 9626 H 922.856 -1.28535 -0.715346 0
M  V30 9627 H 924.814 -1.7314 -3.79577 0
M  V30 9628 H 923.444 -0.807834 -3.12528 0
M  V30 9629 H 922.496 -3.06509 -2.25292 0
M  V30 9630 H 923.808 -3.88527 -3.12807 0
M  V30 9631 H 922.962 -2.96149 -5.2951 0
M  V30 9632 H 921.701 -2.03728 -4.4311 0
M  V30 9633 H 920.706 -4.17717 -3.57481 0
M  V30 9634 H 921.931 -5.11066 -4.472 0
M  V30 9635 H 919.877 -3.23643 -5.70606 0
M  V30 9636 H 919.794 -4.96757 -5.69884 0
M  V30 9637 H 921.062 -4.17322 -6.58379 0
M  V30 9638 N 925.291 0.760815 -1.38019 0
M  V30 9639 C 926.519 1.55001 -1.37048 0
M  V30 9640 C 926.934 1.88754 0.0415261 0
M  V30 9641 O 926.291 1.52254 1.00624 0
M  V30 9642 C 926.342 2.8536 -2.21928 0
M  V30 9643 O 926.063 2.53049 -3.57628 0
M  V30 9644 C 927.564 3.79536 -2.29057 0
M  V30 9645 H 924.784 0.479844 -0.469032 0
M  V30 9646 H 927.328 0.942148 -1.81504 0
M  V30 9647 H 925.483 3.42542 -1.80953 0
M  V30 9648 H 925.897 3.36604 -4.02241 0
M  V30 9649 H 927.371 4.67977 -2.92749 0
M  V30 9650 H 927.848 4.19453 -1.30213 0
M  V30 9651 H 928.454 3.28281 -2.70392 0
M  V30 9652 N 926.769 1.22769 0.988202 0
M  V30 9653 C 927.701 0.959757 2.08138 0
M  V30 9654 C 928.714 -0.0633787 1.62677 0
M  V30 9655 O 929.903 0.171203 1.77677 0
M  V30 9656 C 927.003 0.422724 3.36253 0
M  V30 9657 C 926.176 1.50419 4.10722 0
M  V30 9658 C 925.235 0.973407 5.17118 0
M  V30 9659 O 924.261 1.66066 5.44436 0
M  V30 9660 N 925.463 -0.202787 5.80146 0
M  V30 9661 H 928.228 1.9009 2.31702 0
M  V30 9662 H 925.789 1.13522 1.15431 0
M  V30 9663 H 927.781 0.0528514 4.04665 0
M  V30 9664 H 926.351 -0.423642 3.09716 0
M  V30 9665 H 925.571 2.04718 3.36874 0
M  V30 9666 H 926.859 2.23169 4.57245 0
M  V30 9667 H 926.257 -0.777856 5.60327 0
M  V30 9668 H 924.814 -0.513998 6.4977 0
M  V30 9669 N 928.247 -1.18576 1.03814 0
M  V30 9670 C 929.663 -1.4051 0.756909 0
M  V30 9671 C 929.863 -1.9057 -0.654631 0
M  V30 9672 O 928.919 -2.0884 -1.41922 0
M  V30 9673 C 930.232 -2.4081 1.80087 0
M  V30 9674 C 931.78 -2.54541 1.82148 0
M  V30 9675 C 932.255 -3.58102 2.85529 0
M  V30 9676 N 933.746 -3.65607 2.84404 0
M  V30 9677 C 934.481 -4.45458 3.61047 0
M  V30 9678 N 933.977 -5.28937 4.47434 0
M  V30 9679 N 935.77 -4.40196 3.49548 0
M  V30 9680 H 927.921 -0.844075 1.94908 0
M  V30 9681 H 930.184 -0.433287 0.843188 0
M  V30 9682 H 929.89 -2.1107 2.81322 0
M  V30 9683 H 929.764 -3.4012 1.63089 0
M  V30 9684 H 932.151 -2.83598 0.815855 0
M  V30 9685 H 932.232 -1.55352 2.03223 0
M  V30 9686 H 931.876 -3.29786 3.86269 0
M  V30 9687 H 931.806 -4.56963 2.6171 0
M  V30 9688 H 934.297 -3.05994 2.21756 0
M  V30 9689 H 934.61 -5.8701 5.02632 0
M  V30 9690 H 932.955 -5.28366 4.51503 0
M  V30 9691 H 936.146 -3.74026 2.81464 0
M  V30 9692 H 936.319 -5.02186 4.09528 0
M  V30 9693 N 929.725 -0.817259 -1.34754 0
M  V30 9694 C 930.688 -0.240611 -2.27934 0
M  V30 9695 C 931.688 0.578219 -1.50044 0
M  V30 9696 O 932.878 0.395148 -1.69659 0
M  V30 9697 C 930.01 0.663318 -3.34384 0
M  V30 9698 H 931.203 -1.06257 -2.80445 0
M  V30 9699 H 928.756 -0.588697 -1.4479 0
M  V30 9700 H 929.491 1.50855 -2.87077 0
M  V30 9701 H 929.276 0.0777388 -3.92023 0
M  V30 9702 H 930.766 1.06076 -4.03903 0
M  V30 9703 N 931.203 1.46865 -0.571711 0
M  V30 9704 C 932.451 2.0203 -0.0530022 0
M  V30 9705 C 932.772 1.44687 1.30731 0
M  V30 9706 O 932.042 0.627429 1.85581 0
M  V30 9707 H 930.622 0.746815 -0.0166035 0
M  V30 9708 H 933.284 1.80099 -0.745003 0
M  V30 9709 H 932.38 3.12091 0.0242538 0
M  V30 9710 N 932.681 0.308908 1.54543 0
M  V30 9711 C 933.631 -0.578902 2.20528 0
M  V30 9712 C 934.615 -1.09288 1.18088 0
M  V30 9713 O 935.807 -1.03234 1.43777 0
M  V30 9714 C 932.936 -1.74649 2.95555 0
M  V30 9715 C 932.022 -1.24809 4.05319 0
M  V30 9716 N 932.413 -0.46828 5.03628 0
M  V30 9717 C 930.711 -1.52813 4.19004 0
M  V30 9718 C 931.412 -0.201896 5.8135 0
M  V30 9719 N 930.388 -0.783927 5.37918 0
M  V30 9720 H 934.19 0.0243496 2.9389 0
M  V30 9721 H 931.704 0.114049 1.61999 0
M  V30 9722 H 933.701 -2.39414 3.41301 0
M  V30 9723 H 932.361 -2.35336 2.23712 0
M  V30 9724 H 933.372 -0.112453 5.17778 0
M  V30 9725 H 930.049 -2.14191 3.58369 0
M  V30 9726 H 931.439 0.424929 6.70555 0
M  V30 9727 N 934.159 -1.57557 0.0367827 0
M  V30 9728 C 935.575 -1.56366 -0.31967 0
M  V30 9729 C 935.775 -1.04313 -1.72398 0
M  V30 9730 O 934.831 -0.693278 -2.42796 0
M  V30 9731 C 936.144 -3.00267 -0.161274 0
M  V30 9732 C 937.692 -3.12128 -0.233464 0
M  V30 9733 C 938.167 -4.57882 -0.103767 0
M  V30 9734 N 939.658 -4.62922 -0.160506 0
M  V30 9735 C 940.393 -5.73338 -0.0840493 0
M  V30 9736 N 939.889 -6.92786 0.043933 0
M  V30 9737 N 941.682 -5.61929 -0.138592 0
M  V30 9738 H 933.833 -1.8972 0.954996 0
M  V30 9739 H 936.096 -0.87304 0.369467 0
M  V30 9740 H 935.802 -3.42331 0.80639 0
M  V30 9741 H 935.676 -3.65599 -0.928304 0
M  V30 9742 H 938.063 -2.69972 -1.19159 0
M  V30 9743 H 938.144 -2.49503 0.564075 0
M  V30 9744 H 937.788 -5.0072 0.850973 0
M  V30 9745 H 937.718 -5.18496 -0.920268 0
M  V30 9746 H 940.209 -3.7701 -0.259257 0
M  V30 9747 H 940.522 -7.72741 0.095372 0
M  V30 9748 H 938.867 -6.94955 0.0788211 0
M  V30 9749 H 942.058 -4.67499 -0.237031 0
M  V30 9750 H 942.231 -6.47956 -0.075546 0
M  V30 9751 N 935.637 0.236453 -1.55816 0
M  V30 9752 C 937.053 0.585465 -1.48474 0
M  V30 9753 C 937.253 1.8785 -0.72902 0
M  V30 9754 O 936.309 2.51131 -0.262614 0
M  V30 9755 C 937.622 0.678506 -2.92945 0
M  V30 9756 C 939.17 0.770135 -3.03378 0
M  V30 9757 C 939.645 0.894649 -4.49177 0
M  V30 9758 N 941.136 0.959253 -4.53158 0
M  V30 9759 C 941.871 1.07505 -5.63232 0
M  V30 9760 N 941.367 1.15572 -6.83092 0
M  V30 9761 N 943.16 1.10902 -5.51051 0
M  V30 9762 H 935.311 -0.612241 -2.03385 0
M  V30 9763 H 937.574 -0.212796 -0.923808 0
M  V30 9764 H 937.28 -0.201757 -3.51121 0
M  V30 9765 H 937.154 1.54703 -3.44016 0
M  V30 9766 H 939.541 1.64085 -2.45276 0
M  V30 9767 H 939.622 -0.123753 -2.555 0
M  V30 9768 H 939.266 0.0284537 -5.07892 0
M  V30 9769 H 939.196 1.80373 -4.94745 0
M  V30 9770 H 941.687 0.907827 -3.66834 0
M  V30 9771 H 942 1.24343 -7.62731 0
M  V30 9772 H 940.345 1.12511 -6.85833 0
M  V30 9773 H 943.536 1.04255 -4.56343 0
M  V30 9774 H 943.709 1.19581 -6.36871 0
M  V30 9775 N 937.115 1.49373 0.502552 0
M  V30 9776 C 938.364 1.58028 1.25339 0
M  V30 9777 C 938.677 0.271494 1.93707 0
M  V30 9778 O 939.883 0.236584 2.70467 0
M  V30 9779 C 938.339 2.78817 2.27572 0
M  V30 9780 C 937.947 4.16448 1.65151 0
M  V30 9781 C 939.691 2.96802 3.03494 0
M  V30 9782 C 937.598 5.28461 2.65486 0
M  V30 9783 H 936.528 0.588396 0.471494 0
M  V30 9784 H 939.179 1.75756 0.52744 0
M  V30 9785 H 937.561 2.5458 3.03323 0
M  V30 9786 H 938.735 4.50816 0.954029 0
M  V30 9787 H 937.05 4.03809 1.01625 0
M  V30 9788 H 939.647 3.77656 3.78524 0
M  V30 9789 H 939.99 2.07303 3.61014 0
M  V30 9790 H 940.523 3.21071 2.34858 0
M  V30 9791 H 937.262 6.20015 2.12749 0
M  V30 9792 H 936.782 4.9855 3.33479 0
M  V30 9793 H 938.461 5.5773 3.27943 0
M  V30 9794 N 938.594 -0.753485 1.38421 0
M  V30 9795 C 939.524 -1.8808 1.38377 0
M  V30 9796 C 940.505 -1.68258 0.249664 0
M  V30 9797 O 941.69 -1.88848 0.45276 0
M  V30 9798 C 938.82 -3.25608 1.20818 0
M  V30 9799 C 937.774 -3.60032 2.31433 0
M  V30 9800 C 937.1 -4.96297 1.9898 0
M  V30 9801 C 938.4 -3.64898 3.73694 0
M  V30 9802 H 940.094 -1.88375 2.32713 0
M  V30 9803 H 937.64 -0.90489 1.12017 0
M  V30 9804 H 939.593 -4.04127 1.19412 0
M  V30 9805 H 938.317 -3.25793 0.229433 0
M  V30 9806 H 936.976 -2.83831 2.32025 0
M  V30 9807 H 936.624 -4.93043 0.995889 0
M  V30 9808 H 936.324 -5.20298 2.73063 0
M  V30 9809 H 937.848 -5.77196 1.99193 0
M  V30 9810 H 939.262 -4.33531 3.75132 0
M  V30 9811 H 937.659 -4.00407 4.46983 0
M  V30 9812 H 938.729 -2.65124 4.06002 0
M  V30 9813 N 940.072 -1.23292 -0.981677 0
M  V30 9814 C 941.297 -1.09176 -1.76339 0
M  V30 9815 C 941.722 0.352726 -1.84763 0
M  V30 9816 O 941.08 1.25509 -1.30832 0
M  V30 9817 C 941.128 -1.72046 -3.16911 0
M  V30 9818 O 940.232 -0.98174 -4.00544 0
M  V30 9819 H 939.573 -0.382755 -0.542581 0
M  V30 9820 H 942.103 -1.63319 -1.23239 0
M  V30 9821 H 942.113 -1.77232 -3.67495 0
M  V30 9822 H 940.788 -2.77154 -3.10095 0
M  V30 9823 H 939.365 -1.00672 -3.59054 0
M  V30 9824 N 941.55 1.18024 -1.04442 0
M  V30 9825 C 942.827 1.8398 -0.664125 0
M  V30 9826 C 943.207 1.92961 0.856116 0
M  V30 9827 O 942.555 1.45839 1.75907 0
M  V30 9828 C 942.765 3.22069 -1.34433 0
M  V30 9829 C 944.113 3.98063 -1.47754 0
M  V30 9830 O 945.137 3.31523 -1.30274 0
M  V30 9831 O 943.996 5.17291 -1.76272 0
M  V30 9832 H 941.09 0.793543 -0.23285 0
M  V30 9833 H 943.636 1.25385 -1.14354 0
M  V30 9834 H 942.408 3.10458 -2.38184 0
M  V30 9835 H 942.031 3.88325 -0.853782 0
M  V30 9836 N 943.028 0.824394 1.34319 0
M  V30 9837 C 944.274 0.413779 1.98534 0
M  V30 9838 C 944.607 -1.02089 1.65201 0
M  V30 9839 O 943.882 -1.71129 0.924402 0
M  V30 9840 C 944.165 0.61801 3.54757 0
M  V30 9841 C 944.018 2.0989 3.97827 0
M  V30 9842 C 945.337 0.0549041 4.40066 0
M  V30 9843 H 942.456 0.151815 0.721194 0
M  V30 9844 H 945.098 1.03723 1.5919 0
M  V30 9845 H 943.248 0.0873107 3.88402 0
M  V30 9846 H 944.92 2.69335 3.74508 0
M  V30 9847 H 943.163 2.58881 3.48085 0
M  V30 9848 H 943.834 2.1926 5.06586 0
M  V30 9849 H 946.31 0.508348 4.12983 0
M  V30 9850 H 945.186 0.227595 5.48428 0
M  V30 9851 H 945.447 -1.04025 4.29687 0
M  V30 9852 N 944.506 -1.46559 0.579492 0
M  V30 9853 C 945.734 -2.06784 0.0693648 0
M  V30 9854 C 946.149 -1.42875 -1.23419 0
M  V30 9855 O 945.506 -0.532919 -1.74546 0
M  V30 9856 C 945.557 -3.61343 -0.106511 0
M  V30 9857 O 945.278 -4.22861 1.14545 0
M  V30 9858 C 946.779 -4.38489 -0.651359 0
M  V30 9859 H 943.999 -0.66866 0.0559848 0
M  V30 9860 H 946.543 -1.88235 0.799245 0
M  V30 9861 H 944.698 -3.7933 -0.786601 0
M  V30 9862 H 945.112 -5.15691 0.95723 0
M  V30 9863 H 946.586 -5.47237 -0.723615 0
M  V30 9864 H 947.063 -4.06309 -1.66763 0
M  V30 9865 H 947.669 -4.253 -0.0062433 0
M  V30 9866 N 945.984 -0.3171 -1.54377 0
M  V30 9867 C 946.934 0.567199 -2.20832 0
M  V30 9868 C 947.918 1.08661 -1.18666 0
M  V30 9869 O 949.11 1.0247 -1.44322 0
M  V30 9870 C 946.239 1.73079 -2.96477 0
M  V30 9871 C 945.325 1.22658 -4.05975 0
M  V30 9872 N 945.716 0.441565 -5.03869 0
M  V30 9873 C 944.014 1.50589 -4.19808 0
M  V30 9874 C 944.715 0.171063 -5.81448 0
M  V30 9875 N 943.691 0.755389 -5.38326 0
M  V30 9876 H 947.493 -0.0399349 -2.93873 0
M  V30 9877 H 945.007 -0.122639 -1.61936 0
M  V30 9878 H 947.004 2.37601 -3.42566 0
M  V30 9879 H 945.664 2.34146 -2.24957 0
M  V30 9880 H 946.675 0.0849921 -5.1783 0
M  V30 9881 H 943.352 2.12288 -3.595 0
M  V30 9882 H 944.742 -0.460484 -6.7032 0
M  V30 9883 N 947.462 1.57535 -0.0451378 0
M  V30 9884 C 948.687 1.97172 0.64326 0
M  V30 9885 C 949.112 0.922266 1.63939 0
M  V30 9886 O 948.47 -0.115155 1.80934 0
M  V30 9887 C 948.518 3.35889 1.3119 0
M  V30 9888 O 947.622 3.33387 2.42748 0
M  V30 9889 H 946.963 0.642469 0.167719 0
M  V30 9890 H 949.493 2.04295 -0.111747 0
M  V30 9891 H 949.503 3.72481 1.66499 0
M  V30 9892 H 948.178 4.1181 0.581823 0
M  V30 9893 H 946.755 3.08533 2.09432 0
M  V30 9894 N 948.94 -0.228186 1.55939 0
M  V30 9895 C 949.903 -1.26621 1.91049 0
M  V30 9896 C 950.903 -1.40141 0.788491 0
M  V30 9897 O 952.093 -1.3852 1.05631 0
M  V30 9898 C 949.225 -2.64108 2.15545 0
M  V30 9899 H 950.418 -0.966978 2.83883 0
M  V30 9900 H 947.971 -0.468313 1.49119 0
M  V30 9901 H 948.706 -2.99141 1.25241 0
M  V30 9902 H 948.491 -2.55673 2.97277 0
M  V30 9903 H 949.981 -3.39025 2.43827 0
M  V30 9904 N 950.418 -1.49637 -0.494624 0
M  V30 9905 C 951.664 -1.59681 -1.25019 0
M  V30 9906 C 951.997 -0.285511 -1.9209 0
M  V30 9907 O 951.272 0.711398 -1.81023 0
M  V30 9908 C 951.555 -2.76058 -2.31222 0
M  V30 9909 C 951.408 -4.17002 -1.68611 0
M  V30 9910 C 952.727 -2.88056 -3.32734 0
M  V30 9911 H 949.846 -0.581209 -0.453172 0
M  V30 9912 H 952.488 -1.81944 -0.547391 0
M  V30 9913 H 950.638 -2.57207 -2.91164 0
M  V30 9914 H 952.31 -4.47385 -1.12447 0
M  V30 9915 H 950.553 -4.22352 -0.989991 0
M  V30 9916 H 951.224 -4.94316 -2.45674 0
M  V30 9917 H 953.7 -3.05237 -2.82789 0
M  V30 9918 H 952.576 -3.71151 -4.04399 0
M  V30 9919 H 952.837 -1.97676 -3.95445 0
M  V30 9920 N 951.896 0.746133 -1.38819 0
M  V30 9921 C 953.143 1.50545 -1.35434 0
M  V30 9922 C 953.471 1.94427 0.0532669 0
M  V30 9923 O 952.726 1.66285 1.03188 0
M  V30 9924 C 953.025 2.76639 -2.26286 0
M  V30 9925 C 952.691 2.51682 -3.74122 0
M  V30 9926 C 951.353 2.44584 -4.14406 0
M  V30 9927 C 953.705 2.30071 -4.67672 0
M  V30 9928 C 951.033 2.13902 -5.46318 0
M  V30 9929 C 953.385 2.00907 -5.99849 0
M  V30 9930 C 952.049 1.92271 -6.39209 0
M  V30 9931 H 951.319 0.550883 -0.49559 0
M  V30 9932 H 953.966 0.857337 -1.71237 0
M  V30 9933 H 952.271 3.46138 -1.83564 0
M  V30 9934 H 953.968 3.34626 -2.20967 0
M  V30 9935 H 950.558 2.5808 -3.42188 0
M  V30 9936 H 954.742 2.34528 -4.3739 0
M  V30 9937 H 949.998 2.0573 -5.75748 0
M  V30 9938 H 954.172 1.83191 -6.71874 0
M  V30 9939 H 951.799 1.68261 -7.41345 0
M  V30 9940 N 953.375 1.23811 0.975125 0
M  V30 9941 C 954.623 1.07124 1.71373 0
M  V30 9942 C 954.944 -0.391864 1.91022 0
M  V30 9943 O 954.214 -1.28041 1.48265 0
M  V30 9944 H 952.794 0.393415 0.635007 0
M  V30 9945 H 955.456 1.55612 1.17349 0
M  V30 9946 H 954.552 1.56338 2.7012 0
M  V30 9947 N 954.853 -1.17469 1.05066 0
M  V30 9948 C 956.099 -1.87976 0.761113 0
M  V30 9949 C 956.432 -1.80756 -0.709995 0
M  V30 9950 O 955.707 -1.21469 -1.51906 0
M  V30 9951 C 955.99 -3.38055 1.2406 0
M  V30 9952 C 955.843 -3.54032 2.77455 0
M  V30 9953 C 957.162 -4.32036 0.838612 0
M  V30 9954 H 954.281 -0.682573 0.277963 0
M  V30 9955 H 956.923 -1.38147 1.30443 0
M  V30 9956 H 955.073 -3.80622 0.778388 0
M  V30 9957 H 956.745 -3.20489 3.3179 0
M  V30 9958 H 954.988 -2.96352 3.16793 0
M  V30 9959 H 955.659 -4.59377 3.06066 0
M  V30 9960 H 958.135 -3.97303 1.23651 0
M  V30 9961 H 957.011 -5.35583 1.20173 0
M  V30 9962 H 957.272 -4.41349 -0.257498 0
M  V30 9963 N 956.331 -0.831506 -1.3388 0
M  V30 9964 C 957.742 -0.481375 -1.80388 0
M  V30 9965 C 958.093 0.998993 -1.68863 0
M  V30 9966 O 957.218 1.77795 -1.2336 0
M  V30 9967 C 957.813 -0.86699 -3.27519 0
M  V30 9968 C 956.372 -0.569105 -3.72073 0
M  V30 9969 C 955.519 -1.07929 -2.55434 0
M  V30 9970 H 958.47 -1.02089 -1.21505 0
M  V30 9971 H 958.491 -0.174128 -3.80101 0
M  V30 9972 H 958.003 -1.94447 -3.35875 0
M  V30 9973 H 956.104 0.498607 -3.69249 0
M  V30 9974 H 956.217 -1.11918 -4.65845 0
M  V30 9975 H 954.581 -0.500465 -2.49735 0
M  V30 9976 H 955.364 -2.16339 -2.66556 0
M  V30 9977 N 957.809 1.4625 -0.587256 0
M  V30 9978 C 958.772 2.28812 0.133238 0
M  V30 9979 C 959.772 1.38645 0.814513 0
M  V30 9980 O 960.962 1.60975 0.665774 0
M  V30 9981 C 958.094 3.19147 1.19824 0
M  V30 9982 H 959.287 2.93991 -0.592386 0
M  V30 9983 H 956.84 1.52435 -0.345416 0
M  V30 9984 H 957.575 2.58725 1.95529 0
M  V30 9985 H 957.36 3.85541 0.71418 0
M  V30 9986 H 958.85 3.81278 1.70344 0
M  V30 9987 N 959.287 0.325282 1.54207 0
M  V30 9988 C 960.512 -0.281418 2.05482 0
M  V30 9989 C 960.937 -1.44869 1.19977 0
M  V30 9990 O 960.295 -1.80088 0.209275 0
M  V30 9991 C 960.343 -0.692029 3.53897 0
M  V30 9992 O 959.447 -1.7942 3.71325 0
M  V30 9993 H 958.788 -0.0504872 0.662078 0
M  V30 9994 H 961.318 0.474191 1.99029 0
M  V30 9995 H 961.328 -0.974219 3.96198 0
M  V30 9996 H 960.003 0.161709 4.15586 0
M  V30 9997 H 958.58 -1.51069 3.40929 0
M  V30 9998 N 960.765 -1.57509 0.0534917 0
M  V30 9999 C 961.712 -2.11667 -0.920101 0
M  V30 10000 C 962.682 -1.0246 -1.30733 0
M  V30 10001 O 963.867 -1.30021 -1.39639 0
M  V30 10002 C 961.007 -2.66803 -2.18883 0
M  V30 10003 C 960.12 -3.90104 -1.85588 0
M  V30 10004 C 959.255 -4.33547 -3.06937 0
M  V30 10005 C 958.294 -5.49542 -2.69573 0
M  V30 10006 N 957.431 -5.88029 -3.83623 0
M  V30 10007 H 962.271 -2.94562 -0.451371 0
M  V30 10008 H 959.808 -1.45576 -0.211168 0
M  V30 10009 H 961.766 -2.96871 -2.93127 0
M  V30 10010 H 960.396 -1.86702 -2.63329 0
M  V30 10011 H 959.448 -3.66613 -1.01484 0
M  V30 10012 H 960.76 -4.74404 -1.54087 0
M  V30 10013 H 959.914 -4.6518 -3.89477 0
M  V30 10014 H 958.653 -3.48064 -3.41618 0
M  V30 10015 H 957.658 -5.17579 -1.8545 0
M  V30 10016 H 958.883 -6.36743 -2.36082 0
M  V30 10017 H 956.829 -5.05498 -4.181 0
M  V30 10018 H 956.746 -6.67025 -3.55828 0
M  V30 10019 H 958.014 -6.24277 -4.66796 0
M  V30 10020 N 962.243 0.219913 -1.56058 0
M  V30 10021 C 963.468 0.965073 -1.83579 0
M  V30 10022 C 963.893 1.77092 -0.634024 0
M  V30 10023 O 963.251 1.76434 0.417205 0
M  V30 10024 C 963.299 1.85705 -3.09105 0
M  V30 10025 O 962.403 2.95261 -2.87914 0
M  V30 10026 H 961.744 0.273173 -0.605204 0
M  V30 10027 H 964.274 0.23273 -2.03272 0
M  V30 10028 H 964.284 2.26655 -3.39252 0
M  V30 10029 H 962.959 1.26476 -3.96203 0
M  V30 10030 H 961.536 2.58246 -2.69005 0
M  V30 10031 N 963.721 1.49897 0.486681 0
M  V30 10032 C 964.949 1.63837 1.26353 0
M  V30 10033 C 965.364 0.315428 1.86146 0
M  V30 10034 O 964.721 -0.700831 1.68507 0
M  V30 10035 C 964.772 2.71792 2.38351 0
M  V30 10036 O 964.493 3.98956 1.81013 0
M  V30 10037 C 965.994 2.96566 3.2949 0
M  V30 10038 H 963.214 0.551158 0.382709 0
M  V30 10039 H 965.758 1.96023 0.582694 0
M  V30 10040 H 963.913 2.42344 3.02238 0
M  V30 10041 H 964.327 4.58536 2.54647 0
M  V30 10042 H 965.801 3.75803 4.04322 0
M  V30 10043 H 966.278 2.07031 3.87343 0
M  V30 10044 H 966.884 3.27485 2.71355 0
M  V30 10045 N 965.199 -0.738761 1.39212 0
M  V30 10046 C 966.131 -1.86286 1.3353 0
M  V30 10047 C 967.144 -1.6095 0.244755 0
M  V30 10048 O 968.333 -1.71254 0.50343 0
M  V30 10049 C 965.433 -3.22234 1.04969 0
M  V30 10050 C 964.606 -3.74956 2.25226 0
M  V30 10051 C 963.665 -4.89457 1.9318 0
M  V30 10052 O 962.691 -5.03314 2.65826 0
M  V30 10053 N 963.893 -5.73548 0.895679 0
M  V30 10054 H 966.658 -1.91666 2.304 0
M  V30 10055 H 964.219 -0.919338 1.33266 0
M  V30 10056 H 966.211 -3.96397 0.815566 0
M  V30 10057 H 964.781 -3.12146 0.168451 0
M  V30 10058 H 964.001 -2.92188 2.64612 0
M  V30 10059 H 965.289 -4.06914 3.05448 0
M  V30 10060 H 964.687 -5.64938 0.293541 0
M  V30 10061 H 963.244 -6.47795 0.721451 0
M  V30 10062 N 966.677 -1.24326 -0.968545 0
M  V30 10063 C 967.607 -1.05951 -2.08079 0
M  V30 10064 C 968.588 0.0272666 -1.70078 0
M  V30 10065 O 969.773 -0.139644 -1.93697 0
M  V30 10066 C 966.903 -0.662623 -3.4092 0
M  V30 10067 C 965.857 -1.69807 -3.92873 0
M  V30 10068 C 965.183 -1.15628 -5.22048 0
M  V30 10069 C 966.483 -3.09383 -4.20808 0
M  V30 10070 H 968.177 -1.98984 -2.23709 0
M  V30 10071 H 965.723 -0.958112 -1.075 0
M  V30 10072 H 967.676 -0.521071 -4.18166 0
M  V30 10073 H 966.4 0.303399 -3.25188 0
M  V30 10074 H 965.059 -1.82783 -3.17783 0
M  V30 10075 H 964.707 -0.180888 -5.02675 0
M  V30 10076 H 964.407 -1.84822 -5.57776 0
M  V30 10077 H 965.931 -1.02683 -6.01904 0
M  V30 10078 H 967.345 -2.99642 -4.88761 0
M  V30 10079 H 965.742 -3.75923 -4.67763 0
M  V30 10080 H 966.812 -3.57486 -3.27616 0
M  V30 10081 N 968.156 1.1691 -1.05688 0
M  V30 10082 C 969.086 2.23275 -0.683402 0
M  V30 10083 C 970.067 1.6704 0.321206 0
M  V30 10084 O 971.252 1.93191 0.197691 0
M  V30 10085 C 968.382 3.47244 -0.0626006 0
M  V30 10086 C 967.336 4.16333 -0.992513 0
M  V30 10087 C 966.662 5.34182 -0.23533 0
M  V30 10088 C 967.962 4.68002 -2.31886 0
M  V30 10089 H 969.656 2.54771 -1.57264 0
M  V30 10090 H 967.202 1.2246 -0.757606 0
M  V30 10091 H 969.155 4.20874 0.210503 0
M  V30 10092 H 967.879 3.1503 0.861616 0
M  V30 10093 H 966.538 3.44622 -1.25026 0
M  V30 10094 H 966.186 4.9822 0.69181 0
M  V30 10095 H 965.886 5.81346 -0.855002 0
M  V30 10096 H 967.41 6.10592 0.0303717 0
M  V30 10097 H 968.824 5.33244 -2.10531 0
M  V30 10098 H 967.221 5.25764 -2.89296 0
M  V30 10099 H 968.291 3.84541 -2.95391 0
M  V30 10100 N 969.634 0.838594 1.33437 0
M  V30 10101 C 970.566 0.229006 2.28053 0
M  V30 10102 C 971.579 -0.590103 1.51729 0
M  V30 10103 O 972.768 -0.417218 1.73556 0
M  V30 10104 C 969.868 -0.696251 3.31671 0
M  V30 10105 C 969.041 0.0834606 4.3732 0
M  V30 10106 C 968.1 -0.765097 5.20608 0
M  V30 10107 O 967.126 -0.2044 5.68833 0
M  V30 10108 N 968.328 -2.08249 5.4186 0
M  V30 10109 H 971.093 1.04196 2.81004 0
M  V30 10110 H 968.654 0.697031 1.46127 0
M  V30 10111 H 970.646 -1.26889 3.84293 0
M  V30 10112 H 969.216 -1.40992 2.78998 0
M  V30 10113 H 968.436 0.837481 3.85201 0
M  V30 10114 H 969.724 0.619613 5.05013 0
M  V30 10115 H 969.122 -2.56156 5.04381 0
M  V30 10116 H 967.679 -2.60362 5.97541 0
M  V30 10117 N 971.112 -1.45937 0.595003 0
M  V30 10118 C 972.075 -2.2888 -0.121102 0
M  V30 10119 C 973.075 -1.39075 -0.807149 0
M  V30 10120 O 974.265 -1.61326 -0.657228 0
M  V30 10121 C 971.397 -3.19778 -1.1813 0
M  V30 10122 H 972.59 -2.93673 0.607968 0
M  V30 10123 H 970.143 -1.5225 0.353495 0
M  V30 10124 H 970.878 -2.59759 -1.94154 0
M  V30 10125 H 970.663 -3.85914 -0.693724 0
M  V30 10126 H 972.153 -3.82176 -1.68319 0
M  V30 10127 N 972.59 -0.333456 -1.54032 0
M  V30 10128 C 973.553 0.515392 -2.2333 0
M  V30 10129 C 974.553 1.03566 -1.23007 0
M  V30 10130 O 975.743 0.926514 -1.47517 0
M  V30 10131 C 972.875 1.7169 -2.94508 0
M  V30 10132 H 974.068 -0.0905407 -2.99763 0
M  V30 10133 H 971.621 -0.0846651 -1.56071 0
M  V30 10134 H 972.356 2.3618 -2.22237 0
M  V30 10135 H 972.141 1.35115 -3.68085 0
M  V30 10136 H 973.631 2.31922 -3.47278 0
M  V30 10137 N 974.068 1.57479 -0.061844 0
M  V30 10138 C 975.031 2.1104 0.894127 0
M  V30 10139 C 976.031 1.03227 1.23292 0
M  V30 10140 O 977.221 1.29256 1.16784 0
M  V30 10141 C 974.353 2.6035 2.20069 0
M  V30 10142 H 975.546 2.96807 0.429619 0
M  V30 10143 H 973.099 1.55181 0.18672 0
M  V30 10144 H 973.834 1.78008 2.71079 0
M  V30 10145 H 973.619 3.39146 1.9678 0
M  V30 10146 H 975.109 3.019 2.88525 0
M  V30 10147 N 975.546 -0.211634 1.56173 0
M  V30 10148 C 976.509 -1.24588 1.92381 0
M  V30 10149 C 977.509 -1.39297 0.803311 0
M  V30 10150 O 978.699 -1.37392 1.07094 0
M  V30 10151 C 975.831 -2.61807 2.18335 0
M  V30 10152 H 977.024 -0.936814 2.84893 0
M  V30 10153 H 974.577 -0.452471 1.49607 0
M  V30 10154 H 975.312 -2.97795 1.28407 0
M  V30 10155 H 975.097 -2.52506 2.99972 0
M  V30 10156 H 976.587 -3.3642 2.4741 0
M  V30 10157 N 977.024 -1.50153 -0.478725 0
M  V30 10158 C 977.934 -1.71232 -1.60364 0
M  V30 10159 C 978.95 -0.595269 -1.63501 0
M  V30 10160 O 980.126 -0.872683 -1.81511 0
M  V30 10161 C 977.191 -1.79487 -2.96623 0
M  V30 10162 C 976.252 -3.03185 -3.03937 0
M  V30 10163 C 975.485 -3.11036 -4.33696 0
M  V30 10164 O 975.708 -2.2588 -5.23769 0
M  V30 10165 O 974.642 -4.03698 -4.46443 0
M  V30 10166 H 978.468 -2.66575 -1.45505 0
M  V30 10167 H 976.053 -1.34158 -0.65741 0
M  V30 10168 H 977.935 -1.8714 -3.77567 0
M  V30 10169 H 976.61 -0.873264 -3.11698 0
M  V30 10170 H 975.517 -3.01036 -2.22099 0
M  V30 10171 H 976.85 -3.94898 -2.93796 0
M  V30 10172 N 978.502 0.731368 -1.39602 0
M  V30 10173 C 979.465 1.8271 -1.38383 0
M  V30 10174 C 980.465 1.58338 -0.280309 0
M  V30 10175 O 981.655 1.65671 -0.538402 0
M  V30 10176 C 978.787 3.20556 -1.16002 0
M  V30 10177 H 979.98 1.85193 -2.35889 0
M  V30 10178 H 977.533 0.935396 -1.2522 0
M  V30 10179 H 978.268 3.23732 -0.191927 0
M  V30 10180 H 978.053 3.39643 -1.9592 0
M  V30 10181 H 979.543 4.00612 -1.17899 0
M  V30 10182 N 979.98 1.24838 0.961938 0
M  V30 10183 C 981.205 1.11967 1.7458 0
M  V30 10184 C 981.63 -0.323287 1.85301 0
M  V30 10185 O 980.988 -1.23412 1.32812 0
M  V30 10186 C 981.036 1.77066 3.14134 0
M  V30 10187 O 980.14 1.04534 3.98932 0
M  V30 10188 H 979.481 0.391338 0.536424 0
M  V30 10189 H 982.011 1.65259 1.20626 0
M  V30 10190 H 982.021 1.83056 3.64629 0
M  V30 10191 H 980.696 2.82052 3.05646 0
M  V30 10192 H 979.273 1.06372 3.57407 0
M  V30 10193 N 981.458 -1.16348 1.06306 0
M  V30 10194 C 982.388 -2.2291 0.695234 0
M  V30 10195 C 983.369 -1.67208 -0.312343 0
M  V30 10196 O 984.554 -1.93293 -0.187442 0
M  V30 10197 C 981.684 -3.47205 0.0810149 0
M  V30 10198 C 980.638 -4.15801 1.01458 0
M  V30 10199 C 979.964 -5.3405 0.263656 0
M  V30 10200 C 981.264 -4.66766 2.34365 0
M  V30 10201 H 982.958 -2.53934 1.58613 0
M  V30 10202 H 980.504 -1.22056 0.76409 0
M  V30 10203 H 982.457 -4.2098 -0.18818 0
M  V30 10204 H 981.181 -3.15482 -0.844897 0
M  V30 10205 H 979.84 -3.43954 1.26852 0
M  V30 10206 H 979.488 -4.9858 -0.665378 0
M  V30 10207 H 979.188 -5.80885 0.88582 0
M  V30 10208 H 980.712 -6.106 0.00200994 0
M  V30 10209 H 982.126 -5.3212 2.13356 0
M  V30 10210 H 980.523 -5.24223 2.9208 0
M  V30 10211 H 981.593 -3.82969 2.97426 0
M  V30 10212 N 982.937 -0.845659 -1.3299 0
M  V30 10213 C 983.885 -0.272412 -2.30999 0
M  V30 10214 C 984.879 0.599311 -1.58444 0
M  V30 10215 O 986.085 0.488117 -1.73255 0
M  V30 10216 H 982.46 -0.0693751 -0.748793 0
M  V30 10217 H 984.431 -1.11343 -2.76849 0
M  V30 10218 C 983.18 0.532019 -3.43606 0
M  V30 10219 H 982.503 -0.129455 -3.9959 0
M  V30 10220 H 983.943 0.898853 -4.14363 0
M  V30 10221 C 982.402 1.71364 -2.90062 0
M  V30 10222 O 982.932 2.81252 -2.8681 0
M  V30 10223 N 981.138 1.53775 -2.4658 0
M  V30 10224 H 980.685 0.643836 -2.49424 0
M  V30 10225 H 980.643 2.32982 -2.11108 0
M  V30 10226 N 984.415 1.45619 -0.602734 0
M  V30 10227 C 985.362 2.30493 0.118944 0
M  V30 10228 C 986.332 1.41816 0.864723 0
M  V30 10229 O 987.517 1.7075 0.851424 0
M  V30 10230 C 984.657 3.2664 1.11356 0
M  V30 10231 C 983.77 4.3042 0.369161 0
M  V30 10232 C 982.905 5.13678 1.35307 0
M  V30 10233 C 981.944 6.09189 0.596207 0
M  V30 10234 N 981.081 6.85245 1.52916 0
M  V30 10235 H 985.921 2.91672 -0.610836 0
M  V30 10236 H 983.458 1.43731 -0.313032 0
M  V30 10237 H 985.416 3.80846 1.7033 0
M  V30 10238 H 984.046 2.67225 1.81081 0
M  V30 10239 H 983.098 3.78913 -0.335994 0
M  V30 10240 H 984.41 4.98307 -0.221603 0
M  V30 10241 H 983.564 5.7226 2.01502 0
M  V30 10242 H 982.303 4.45798 1.97777 0
M  V30 10243 H 981.308 5.49743 -0.0793984 0
M  V30 10244 H 982.533 6.79096 -0.0233734 0
M  V30 10245 H 980.479 6.20058 2.14159 0
M  V30 10246 H 980.396 7.49467 0.991713 0
M  V30 10247 H 981.664 7.48371 2.18083 0
M  V30 10248 N 985.893 0.34162 1.53853 0
M  V30 10249 C 987.118 -0.259608 2.05769 0
M  V30 10250 C 987.543 -1.43588 1.21507 0
M  V30 10251 O 986.901 -1.79856 0.228364 0
M  V30 10252 C 986.949 -0.654455 3.54611 0
M  V30 10253 O 986.053 -1.75472 3.73207 0
M  V30 10254 H 985.394 -0.0434621 0.662576 0
M  V30 10255 H 987.924 0.495274 1.98515 0
M  V30 10256 H 987.934 -0.932142 3.97209 0
M  V30 10257 H 986.609 0.205779 4.15391 0
M  V30 10258 H 985.186 -1.47444 3.42512 0
M  V30 10259 N 987.371 -1.57444 0.0701946 0
M  V30 10260 C 988.318 -2.12631 -0.897599 0
M  V30 10261 C 989.288 -1.03841 -1.29639 0
M  V30 10262 O 990.473 -1.31495 -1.38253 0
M  V30 10263 C 987.613 -2.6911 -2.16041 0
M  V30 10264 C 986.726 -3.9205 -1.8144 0
M  V30 10265 C 985.861 -4.36778 -3.02321 0
M  V30 10266 C 984.9 -5.52371 -2.63729 0
M  V30 10267 N 984.037 -5.92065 -3.77364 0
M  V30 10268 H 988.877 -2.95024 -0.420104 0
M  V30 10269 H 986.414 -1.45792 -0.195716 0
M  V30 10270 H 988.372 -2.99963 -2.89962 0
M  V30 10271 H 987.002 -1.89484 -2.61334 0
M  V30 10272 H 986.054 -3.67669 -0.975896 0
M  V30 10273 H 987.366 -4.76011 -1.49046 0
M  V30 10274 H 986.52 -4.69285 -3.84521 0
M  V30 10275 H 985.259 -3.51668 -3.37907 0
M  V30 10276 H 984.264 -5.19517 -1.7995 0
M  V30 10277 H 985.489 -6.39212 -2.29315 0
M  V30 10278 H 983.435 -5.09904 -4.12715 0
M  V30 10279 H 983.352 -6.70762 -3.48733 0
M  V30 10280 H 984.62 -6.29193 -4.60148 0
M  V30 10281 N 988.849 0.203349 -1.56283 0
M  V30 10282 C 990.074 0.945548 -1.84592 0
M  V30 10283 C 990.499 1.7641 -0.652772 0
M  V30 10284 O 989.857 1.76867 0.398468 0
M  V30 10285 C 989.905 1.82416 -3.11057 0
M  V30 10286 O 989.009 2.92191 -2.9103 0
M  V30 10287 H 988.35 0.266739 -0.608068 0
M  V30 10288 H 990.88 0.211158 -2.03507 0
M  V30 10289 H 990.89 2.23044 -3.41636 0
M  V30 10290 H 989.565 1.22267 -3.97522 0
M  V30 10291 H 988.142 2.55378 -2.71728 0
M  V30 10292 N 990.327 1.50405 0.470755 0
M  V30 10293 C 991.29 1.68741 1.5511 0
M  V30 10294 C 992.29 0.558116 1.50804 0
M  V30 10295 O 993.48 0.825149 1.53418 0
M  V30 10296 C 990.612 1.71295 2.94739 0
M  V30 10297 H 991.805 2.65127 1.40169 0
M  V30 10298 H 989.358 1.39891 0.697156 0
M  V30 10299 H 990.093 0.766029 3.15123 0
M  V30 10300 H 989.878 2.53336 2.99271 0
M  V30 10301 H 991.368 1.87434 3.73173 0
M  V30 10302 N 991.805 -0.723954 1.39988 0
M  V30 10303 C 993.033 -1.51313 1.4111 0
M  V30 10304 C 993.448 -1.88798 0.00853333 0
M  V30 10305 O 992.805 -1.54868 -0.965516 0
M  V30 10306 C 992.856 -2.79375 2.29416 0
M  V30 10307 O 992.577 -2.43478 3.64211 0
M  V30 10308 C 994.078 -3.7333 2.3904 0
M  V30 10309 H 991.298 -0.46724 0.481589 0
M  V30 10310 H 993.842 -0.893694 1.83938 0
M  V30 10311 H 991.997 -3.37624 1.89971 0
M  V30 10312 H 992.411 -3.25821 4.11024 0
M  V30 10313 H 993.885 -4.60051 3.05053 0
M  V30 10314 H 994.362 -4.15854 1.41289 0
M  V30 10315 H 994.968 -3.20996 2.79001 0
M  V30 10316 N 993.283 -1.25346 -0.955304 0
M  V30 10317 C 994.511 -1.12793 -1.73451 0
M  V30 10318 C 994.926 0.318344 -1.86097 0
M  V30 10319 O 994.283 1.21897 -1.35821 0
M  V30 10320 C 994.334 -1.77603 -3.14864 0
M  V30 10321 O 994.055 -3.16577 -3.02837 0
M  V30 10322 C 995.556 -1.70821 -4.09066 0
M  V30 10323 H 992.776 -0.393457 -0.543537 0
M  V30 10324 H 995.32 -1.65696 -1.19855 0
M  V30 10325 H 993.475 -1.28673 -3.65407 0
M  V30 10326 H 993.889 -3.48433 -3.92039 0
M  V30 10327 H 995.363 -2.2083 -5.05903 0
M  V30 10328 H 995.84 -0.671858 -4.34031 0
M  V30 10329 H 996.446 -2.19237 -3.64438 0
M  V30 10330 N 994.761 1.15782 -1.06922 0
M  V30 10331 C 995.989 1.90355 -0.81072 0
M  V30 10332 C 996.404 1.77779 0.635614 0
M  V30 10333 O 995.761 1.12675 1.43564 0
M  V30 10334 C 995.812 3.4085 -1.2043 0
M  V30 10335 O 995.533 3.53057 -2.59388 0
M  V30 10336 C 997.034 4.32457 -0.974473 0
M  V30 10337 H 994.254 0.60343 -0.293451 0
M  V30 10338 H 996.798 1.46723 -1.42452 0
M  V30 10339 H 994.953 3.82162 -0.634909 0
M  V30 10340 H 995.367 4.46426 -2.75326 0
M  V30 10341 H 996.841 5.36488 -1.29942 0
M  V30 10342 H 997.318 4.39109 0.0894481 0
M  V30 10343 H 997.924 3.96882 -1.52856 0
M  V30 10344 N 996.239 0.8527 1.3254 0
M  V30 10345 C 997.65 0.510012 1.79599 0
M  V30 10346 C 998.001 -0.972002 1.70431 0
M  V30 10347 O 997.126 -1.7581 1.26173 0
M  V30 10348 C 997.721 0.918986 3.26098 0
M  V30 10349 C 996.28 0.628227 3.7112 0
M  V30 10350 C 995.427 1.11979 2.53685 0
M  V30 10351 H 998.378 1.04009 1.19866 0
M  V30 10352 H 998.399 0.234577 3.79776 0
M  V30 10353 H 997.911 1.99765 3.32739 0
M  V30 10354 H 996.012 -0.4398 3.69995 0
M  V30 10355 H 996.125 1.19315 4.64005 0
M  V30 10356 H 994.489 0.540133 2.48907 0
M  V30 10357 H 995.272 2.20552 2.63081 0
M  V30 10358 N 997.718 -1.45297 0.610449 0
M  V30 10359 C 998.943 -2.07101 0.111414 0
M  V30 10360 C 999.368 -1.45161 -1.19625 0
M  V30 10361 O 998.726 -0.545368 -1.72903 0
M  V30 10362 C 998.774 -3.60598 -0.0117372 0
M  V30 10363 O 997.878 -3.98512 -1.06122 0
M  V30 10364 H 997.219 -0.659709 0.075364 0
M  V30 10365 H 999.749 -1.86504 0.841269 0
M  V30 10366 H 999.759 -4.07464 -0.209028 0
M  V30 10367 H 998.434 -4.05067 0.943076 0
M  V30 10368 H 997.011 -3.63312 -0.840158 0
M  V30 10369 N 999.196 -0.349774 -1.5367 0
M  V30 10370 C 1000.44 0.244343 -2.00617 0
M  V30 10371 C 1000.76 1.50567 -1.23914 0
M  V30 10372 O 1000.03 1.92784 -0.348016 0
M  V30 10373 H 998.615 0.0932792 -0.741153 0
M  V30 10374 H 1001.28 -0.472367 -1.89089 0
M  V30 10375 H 1000.37 0.482433 -3.08349 0
M  V30 10376 N 1000.67 1.57404 -0.0785433 0
M  V30 10377 C 1001.9 1.98492 0.601292 0
M  V30 10378 C 1002.32 0.956832 1.61945 0
M  V30 10379 O 1001.68 -0.0767502 1.81137 0
M  V30 10380 C 1001.73 3.38596 1.24036 0
M  V30 10381 O 1000.83 3.38461 2.35622 0
M  V30 10382 H 1000.17 0.645882 0.154054 0
M  V30 10383 H 1002.7 2.04012 -0.155056 0
M  V30 10384 H 1002.71 3.75929 1.5856 0
M  V30 10385 H 1001.39 4.12952 0.494341 0
M  V30 10386 H 999.967 3.12906 2.02841 0
M  V30 10387 N 1002.15 -0.195058 1.56388 0
M  V30 10388 C 1003.56 -0.75973 1.70543 0
M  V30 10389 C 1003.91 -1.83849 0.685118 0
M  V30 10390 O 1003.04 -2.15819 -0.158457 0
M  V30 10391 C 1003.63 -1.38485 3.09204 0
M  V30 10392 C 1002.19 -1.89661 3.25124 0
M  V30 10393 C 1001.34 -0.766563 2.66494 0
M  V30 10394 H 1004.29 0.0300148 1.58672 0
M  V30 10395 H 1004.31 -2.25424 3.06536 0
M  V30 10396 H 1003.82 -0.599479 3.83442 0
M  V30 10397 H 1001.92 -2.70917 2.55802 0
M  V30 10398 H 1002.04 -2.05837 4.32629 0
M  V30 10399 H 1000.4 -1.18086 2.25672 0
M  V30 10400 H 1001.18 0.00657102 3.43299 0
M  V30 10401 N 1003.63 -1.50653 -0.462772 0
M  V30 10402 C 1005.05 -1.38263 -0.797213 0
M  V30 10403 C 1005.25 -0.445172 -1.96521 0
M  V30 10404 O 1004.3 0.10913 -2.52264 0
M  V30 10405 C 1005.61 -2.798 -1.10146 0
M  V30 10406 C 1007.16 -2.88774 -1.20742 0
M  V30 10407 C 1007.64 -4.31163 -1.54476 0
M  V30 10408 N 1009.13 -4.34152 -1.61451 0
M  V30 10409 C 1009.86 -5.4133 -1.89074 0
M  V30 10410 N 1009.36 -6.58705 -2.1466 0
M  V30 10411 N 1011.15 -5.28783 -1.90645 0
M  V30 10412 H 1003.3 -2.10172 0.30684 0
M  V30 10413 H 1005.57 -0.945046 0.0747862 0
M  V30 10414 H 1005.27 -3.50276 -0.316207 0
M  V30 10415 H 1005.15 -3.17559 -2.03559 0
M  V30 10416 H 1007.53 -2.18512 -1.98334 0
M  V30 10417 H 1007.61 -2.54547 -0.252904 0
M  V30 10418 H 1007.26 -5.01965 -0.774207 0
M  V30 10419 H 1007.19 -4.62883 -2.51092 0
M  V30 10420 H 1009.68 -3.49519 -1.43684 0
M  V30 10421 H 1009.99 -7.36192 -2.35035 0
M  V30 10422 H 1008.34 -6.61866 -2.12035 0
M  V30 10423 H 1011.53 -4.36078 -1.70158 0
M  V30 10424 H 1011.7 -6.12396 -2.11836 0
M  V30 10425 N 1005.11 0.71652 -1.4037 0
M  V30 10426 C 1006.34 1.50563 -1.4191 0
M  V30 10427 C 1006.75 1.88791 -0.0185456 0
M  V30 10428 O 1006.11 1.55378 0.957289 0
M  V30 10429 C 1006.16 2.78155 -2.30894 0
M  V30 10430 O 1005.88 2.41543 -3.65497 0
M  V30 10431 C 1007.38 3.72057 -2.41016 0
M  V30 10432 H 1004.6 0.464679 -0.48406 0
M  V30 10433 H 1007.15 0.883927 -1.8441 0
M  V30 10434 H 1005.3 3.36611 -1.91759 0
M  V30 10435 H 1005.71 3.23636 -4.12747 0
M  V30 10436 H 1007.19 4.58426 -3.07489 0
M  V30 10437 H 1007.67 4.15098 -1.43492 0
M  V30 10438 H 1008.27 3.19512 -2.80699 0
M  V30 10439 N 1006.59 1.25851 0.948643 0
M  V30 10440 C 1007.81 1.13813 1.73382 0
M  V30 10441 C 1008.24 -0.303615 1.85633 0
M  V30 10442 O 1007.59 -1.21997 1.34114 0
M  V30 10443 C 1007.64 1.80388 3.12238 0
M  V30 10444 O 1006.75 1.08759 3.978 0
M  V30 10445 H 1006.09 0.397006 0.532243 0
M  V30 10446 H 1008.62 1.66529 1.18866 0
M  V30 10447 H 1008.63 1.86913 3.62667 0
M  V30 10448 H 1007.3 2.85278 3.02637 0
M  V30 10449 H 1005.88 1.10157 3.56258 0
M  V30 10450 N 1008.06 -1.15214 1.07534 0
M  V30 10451 C 1009 -2.19634 0.655261 0
M  V30 10452 C 1010.01 -1.60139 -0.293165 0
M  V30 10453 O 1011.2 -1.78311 -0.0821957 0
M  V30 10454 C 1008.3 -3.38851 -0.0578281 0
M  V30 10455 C 1007.47 -4.27888 0.90725 0
M  V30 10456 C 1006.53 -5.25692 0.231115 0
M  V30 10457 O 1005.56 -5.62469 0.872746 0
M  V30 10458 N 1006.76 -5.71424 -1.0225 0
M  V30 10459 H 1009.52 -2.56292 1.55353 0
M  V30 10460 H 1007.08 -1.30347 0.960271 0
M  V30 10461 H 1009.08 -4.01334 -0.520874 0
M  V30 10462 H 1007.65 -3.00593 -0.858071 0
M  V30 10463 H 1006.87 -3.62475 1.54937 0
M  V30 10464 H 1008.15 -4.84246 1.56151 0
M  V30 10465 H 1007.55 -5.43659 -1.56369 0
M  V30 10466 H 1006.11 -6.35938 -1.42919 0
M  V30 10467 N 1009.54 -0.859717 -1.32086 0
M  V30 10468 C 1010.47 -0.265258 -2.2766 0
M  V30 10469 C 1011.49 0.565889 -1.52648 0
M  V30 10470 O 1012.68 0.389554 -1.74197 0
M  V30 10471 C 1009.78 0.643397 -3.32737 0
M  V30 10472 C 1008.95 -0.153024 -4.37132 0
M  V30 10473 C 1008.01 0.682176 -5.21759 0
M  V30 10474 O 1007.03 0.113878 -5.69086 0
M  V30 10475 N 1008.24 1.99602 -5.45105 0
M  V30 10476 H 1011 -1.08653 -2.79311 0
M  V30 10477 H 1008.56 -0.720191 -1.45 0
M  V30 10478 H 1010.55 1.20759 -3.86263 0
M  V30 10479 H 1009.12 1.36535 -2.81206 0
M  V30 10480 H 1008.34 -0.898657 -3.8382 0
M  V30 10481 H 1009.63 -0.699877 -5.03963 0
M  V30 10482 H 1009.03 2.481 -5.08393 0
M  V30 10483 H 1007.59 2.50823 -6.01607 0
M  V30 10484 N 1011.02 1.44971 -0.618145 0
M  V30 10485 C 1011.97 2.32354 0.106846 0
M  V30 10486 C 1012.96 1.4659 0.848984 0
M  V30 10487 O 1014.17 1.63012 0.763354 0
M  V30 10488 H 1010.54 0.750108 0.0533109 0
M  V30 10489 H 1012.51 2.9127 -0.648426 0
M  V30 10490 C 1011.26 3.30381 1.08368 0
M  V30 10491 H 1010.59 3.96377 0.52205 0
M  V30 10492 H 1012.03 3.94231 1.56069 0
M  V30 10493 C 1010.49 2.58336 2.1625 0
M  V30 10494 O 1011.02 2.37258 3.24148 0
M  V30 10495 N 1009.22 2.18292 1.91825 0
M  V30 10496 H 1008.77 2.35635 1.04086 0
M  V30 10497 H 1008.73 1.70413 2.6421 0
M  V30 10498 N 1012.5 0.357919 1.53482 0
M  V30 10499 C 1013.74 -0.23451 2.0144 0
M  V30 10500 C 1014.08 -1.49044 1.24497 0
M  V30 10501 O 1013.35 -1.91566 0.336535 0
M  V30 10502 C 1013.64 -0.534193 3.56116 0
M  V30 10503 C 1013.49 0.734834 4.43757 0
M  V30 10504 C 1014.81 -1.33793 4.1927 0
M  V30 10505 H 1011.93 -0.0837595 0.732225 0
M  V30 10506 H 1014.57 0.481297 1.83803 0
M  V30 10507 H 1012.72 -1.144 3.71275 0
M  V30 10508 H 1014.39 1.37251 4.40409 0
M  V30 10509 H 1012.63 1.35678 4.12036 0
M  V30 10510 H 1013.3 0.48021 5.49907 0
M  V30 10511 H 1015.78 -0.822158 4.07897 0
M  V30 10512 H 1014.66 -1.51636 5.27539 0
M  V30 10513 H 1014.92 -2.34423 3.74831 0
M  V30 10514 N 1013.98 -1.5736 0.0868897 0
M  V30 10515 C 1015.21 -1.981 -0.586498 0
M  V30 10516 C 1015.61 -0.96455 -1.62767 0
M  V30 10517 O 1014.96 0.0551801 -1.83617 0
M  V30 10518 C 1015.02 -3.35193 -1.29947 0
M  V30 10519 C 1014.68 -4.55157 -0.410012 0
M  V30 10520 C 1015.68 -5.18797 0.338532 0
M  V30 10521 C 1013.37 -5.01212 -0.33047 0
M  V30 10522 C 1015.36 -6.26854 1.15468 0
M  V30 10523 C 1013.05 -6.09138 0.48934 0
M  V30 10524 C 1014.04 -6.71823 1.23057 0
M  V30 10525 O 1013.73 -7.77669 2.03683 0
M  V30 10526 H 1013.46 -0.656166 -0.16255 0
M  V30 10527 H 1016.02 -2.04773 0.160379 0
M  V30 10528 H 1014.25 -3.25179 -2.09274 0
M  V30 10529 H 1015.94 -3.60435 -1.86658 0
M  V30 10530 H 1016.7 -4.84151 0.286764 0
M  V30 10531 H 1012.58 -4.52188 -0.897058 0
M  V30 10532 H 1016.13 -6.75712 1.73374 0
M  V30 10533 H 1012.02 -6.43215 0.542618 0
M  V30 10534 H 1012.79 -7.94618 1.96277 0
M  V30 10535 N 1015.45 0.186762 -1.56489 0
M  V30 10536 C 1016.4 1.25084 -1.96104 0
M  V30 10537 C 1017.4 1.4667 -0.847609 0
M  V30 10538 O 1018.6 1.47432 -1.03266 0
M  V30 10539 H 1014.98 0.420121 -0.623701 0
M  V30 10540 H 1016.95 0.889761 -2.84826 0
M  V30 10541 C 1015.7 2.5863 -2.32392 0
M  V30 10542 H 1015.02 2.42838 -3.176 0
M  V30 10543 H 1016.46 3.3181 -2.63967 0
M  V30 10544 C 1014.92 3.16241 -1.16159 0
M  V30 10545 O 1015.45 3.99272 -0.441034 0
M  V30 10546 N 1013.66 2.75106 -0.936206 0
M  V30 10547 H 1013.2 2.0769 -1.5239 0
M  V30 10548 H 1013.16 3.13991 -0.160317 0
M  V30 10549 N 1016.93 1.50896 0.454776 0
M  V30 10550 C 1018.34 1.55372 1.0352 0
M  V30 10551 C 1018.69 0.366822 1.9274 0
M  V30 10552 O 1017.82 -0.518444 2.10098 0
M  V30 10553 C 1018.41 2.81574 1.88418 0
M  V30 10554 C 1016.97 2.88679 2.4154 0
M  V30 10555 C 1016.12 2.49847 1.20298 0
M  V30 10556 H 1019.07 1.56924 0.236729 0
M  V30 10557 H 1019.09 2.64352 2.73676 0
M  V30 10558 H 1018.6 3.67941 1.23455 0
M  V30 10559 H 1016.71 2.06702 3.10008 0
M  V30 10560 H 1016.82 3.91944 2.7553 0
M  V30 10561 H 1015.18 2.02651 1.54288 0
M  V30 10562 H 1015.97 3.3854 0.569723 0
M  V30 10563 N 1018.41 -0.709066 1.40748 0
M  V30 10564 C 1019.64 -1.50313 1.42901 0
M  V30 10565 C 1020.06 -1.88072 0.032213 0
M  V30 10566 O 1019.42 -1.53716 -0.96131 0
M  V30 10567 C 1019.47 -2.75074 2.33166 0
M  V30 10568 O 1018.57 -3.72036 1.7794 0
M  V30 10569 H 1017.91 -0.452934 0.485538 0
M  V30 10570 H 1020.44 -0.872712 1.85054 0
M  V30 10571 H 1020.45 -3.23532 2.48578 0
M  V30 10572 H 1019.13 -2.46927 3.34664 0
M  V30 10573 H 1017.7 -3.30911 1.71908 0
M  V30 10574 N 1019.89 -1.26353 -0.941956 0
M  V30 10575 C 1020.8 -1.09618 -2.07415 0
M  V30 10576 C 1021.82 -0.0298963 -1.73974 0
M  V30 10577 O 1022.99 -0.233466 -2.00042 0
M  V30 10578 C 1020.06 -0.73013 -3.38925 0
M  V30 10579 C 1019.12 -1.87574 -3.86153 0
M  V30 10580 C 1018.35 -1.52706 -5.11387 0
M  V30 10581 O 1018.57 -0.428438 -5.68789 0
M  V30 10582 O 1017.51 -2.36154 -5.53638 0
M  V30 10583 H 1021.33 -2.04598 -2.2444 0
M  V30 10584 H 1018.92 -1.05407 -1.05876 0
M  V30 10585 H 1020.8 -0.538684 -4.17943 0
M  V30 10586 H 1019.48 0.190282 -3.2314 0
M  V30 10587 H 1018.38 -2.12214 -3.08084 0
M  V30 10588 H 1019.72 -2.77585 -4.06457 0
M  V30 10589 N 1021.37 1.14642 -1.08144 0
M  V30 10590 C 1022.62 1.8525 -0.807885 0
M  V30 10591 C 1022.94 1.83194 0.668213 0
M  V30 10592 O 1022.21 1.27848 1.48431 0
M  V30 10593 H 1020.79 0.685909 -0.295868 0
M  V30 10594 H 1023.45 1.38935 -1.36686 0
M  V30 10595 H 1022.54 2.90155 -1.14964 0
M  V30 10596 N 1022.85 0.866709 1.31628 0
M  V30 10597 C 1024.07 0.48956 2.01539 0
M  V30 10598 C 1024.5 -0.909556 1.64647 0
M  V30 10599 O 1023.85 -1.59959 0.853391 0
M  V30 10600 C 1023.9 0.650176 3.5469 0
M  V30 10601 O 1023.01 -0.311908 4.11219 0
M  V30 10602 H 1022.35 0.195144 0.634677 0
M  V30 10603 H 1024.88 1.16923 1.679 0
M  V30 10604 H 1024.89 0.542236 4.04381 0
M  V30 10605 H 1023.56 1.67038 3.80882 0
M  V30 10606 H 1022.14 -0.159197 3.7256 0
M  V30 10607 N 1024.32 -1.44642 0.625825 0
M  V30 10608 C 1025.55 -2.06458 0.135116 0
M  V30 10609 C 1025.97 -1.46729 -1.18811 0
M  V30 10610 O 1025.32 -0.58818 -1.72762 0
M  V30 10611 C 1025.37 -3.61499 0.00850114 0
M  V30 10612 O 1025.1 -4.19002 1.2794 0
M  V30 10613 C 1026.6 -4.40339 -0.511527 0
M  V30 10614 H 1023.82 -0.666541 0.0772294 0
M  V30 10615 H 1026.36 -1.85597 0.858726 0
M  V30 10616 H 1024.52 -3.81641 -0.665522 0
M  V30 10617 H 1024.93 -5.12385 1.12081 0
M  V30 10618 H 1026.4 -5.49262 -0.549149 0
M  V30 10619 H 1026.88 -4.11409 -1.53752 0
M  V30 10620 H 1027.49 -4.25104 0.129066 0
M  V30 10621 N 1025.8 -0.366053 -1.5329 0
M  V30 10622 C 1027.05 0.216398 -2.02246 0
M  V30 10623 C 1027.4 1.46384 -1.24858 0
M  V30 10624 O 1026.7 1.88667 -0.333977 0
M  V30 10625 C 1026.89 0.560906 -3.52971 0
M  V30 10626 C 1026.72 -0.651598 -4.44954 0
M  V30 10627 C 1025.49 -1.16381 -4.91715 0
M  V30 10628 C 1027.69 -1.51695 -4.91419 0
M  V30 10629 N 1025.67 -2.33629 -5.67706 0
M  V30 10630 C 1027.04 -2.53608 -5.65759 0
M  V30 10631 C 1029.09 -1.53977 -4.73493 0
M  V30 10632 C 1027.8 -3.57661 -6.24076 0
M  V30 10633 C 1029.82 -2.56923 -5.32677 0
M  V30 10634 C 1029.19 -3.5756 -6.06902 0
M  V30 10635 H 1025.28 0.0418889 -0.780877 0
M  V30 10636 H 1027.87 -0.510704 -1.87883 0
M  V30 10637 H 1026.04 1.25708 -3.67494 0
M  V30 10638 H 1027.77 1.12849 -3.88648 0
M  V30 10639 H 1024.53 -0.728374 -4.67965 0
M  V30 10640 H 1024.95 -2.92891 -6.10364 0
M  V30 10641 H 1029.59 -0.775265 -4.15631 0
M  V30 10642 H 1027.31 -4.34993 -6.81034 0
M  V30 10643 H 1030.9 -2.59544 -5.207 0
M  V30 10644 H 1029.78 -4.35912 -6.51882 0
M  V30 10645 N 1027.28 1.57312 -0.0952337 0
M  V30 10646 C 1028.23 2.15263 0.881167 0
M  V30 10647 C 1029.22 1.09552 1.29208 0
M  V30 10648 O 1030.43 1.27897 1.26659 0
M  V30 10649 H 1026.8 0.688611 0.302191 0
M  V30 10650 H 1028.77 2.96126 0.367694 0
M  V30 10651 C 1027.52 2.74779 2.13053 0
M  V30 10652 H 1026.85 3.55807 1.82323 0
M  V30 10653 H 1028.29 3.18895 2.79431 0
M  V30 10654 C 1026.74 1.7068 2.90465 0
M  V30 10655 O 1027.27 1.14582 3.85011 0
M  V30 10656 N 1025.48 1.41169 2.54007 0
M  V30 10657 H 1025.03 1.86977 1.77193 0
M  V30 10658 H 1024.99 0.717559 3.06102 0
M  V30 10659 N 1028.76 -0.17846 1.56586 0
M  V30 10660 C 1030.17 -0.741599 1.71339 0
M  V30 10661 C 1030.52 -1.83112 0.704579 0
M  V30 10662 O 1029.64 -2.15975 -0.135557 0
M  V30 10663 C 1030.24 -1.35198 3.10656 0
M  V30 10664 C 1028.8 -1.86202 3.27118 0
M  V30 10665 C 1027.95 -0.738255 2.67292 0
M  V30 10666 H 1030.9 0.0468424 1.58631 0
M  V30 10667 H 1030.92 -2.2216 3.0891 0
M  V30 10668 H 1030.43 -0.558776 3.84056 0
M  V30 10669 H 1028.53 -2.68188 2.58661 0
M  V30 10670 H 1028.64 -2.01237 4.34788 0
M  V30 10671 H 1027.01 -1.15686 2.26912 0
M  V30 10672 H 1027.79 0.0429821 3.43273 0
M  V30 10673 N 1030.24 -1.51135 -0.446768 0
M  V30 10674 C 1031.48 -1.63336 -1.19698 0
M  V30 10675 C 1031.81 -0.345099 -1.91414 0
M  V30 10676 O 1031.07 0.670365 -1.8386 0
M  V30 10677 C 1031.36 -2.78034 -2.2457 0
M  V30 10678 C 1031.03 -4.17652 -1.69934 0
M  V30 10679 C 1029.69 -4.55636 -1.54756 0
M  V30 10680 C 1032.04 -5.04813 -1.29665 0
M  V30 10681 C 1029.37 -5.78496 -0.977689 0
M  V30 10682 C 1031.72 -6.28244 -0.741112 0
M  V30 10683 C 1030.39 -6.65009 -0.576156 0
M  V30 10684 H 1029.66 -0.597689 -0.438006 0
M  V30 10685 H 1032.31 -1.85141 -0.48939 0
M  V30 10686 H 1030.61 -2.50413 -3.01331 0
M  V30 10687 H 1032.31 -2.84675 -2.8242 0
M  V30 10688 H 1028.9 -3.87699 -1.82722 0
M  V30 10689 H 1033.08 -4.76081 -1.40216 0
M  V30 10690 H 1028.34 -6.05636 -0.837563 0
M  V30 10691 H 1032.51 -6.95129 -0.42053 0
M  V30 10692 H 1030.14 -7.60085 -0.132443 0
M  V30 10693 N 1031.71 0.701592 -1.41122 0
M  V30 10694 C 1032.99 1.45569 -1.30648 0
M  V30 10695 C 1033.37 2.10988 0.068744 0
M  V30 10696 O 1032.72 2.01228 1.08257 0
M  V30 10697 C 1032.93 2.48003 -2.45551 0
M  V30 10698 C 1034.28 3.13431 -2.86437 0
M  V30 10699 O 1035.3 2.58327 -2.45247 0
M  V30 10700 O 1034.16 4.13221 -3.57646 0
M  V30 10701 H 1031.25 0.648 -0.513834 0
M  V30 10702 H 1033.8 0.73258 -1.53073 0
M  V30 10703 H 1032.57 1.98276 -3.37346 0
M  V30 10704 H 1032.19 3.27832 -2.24971 0
M  V30 10705 N 1033.19 1.2685 0.935242 0
M  V30 10706 C 1034.47 1.03483 1.65984 0
M  V30 10707 C 1034.85 -0.432859 2.06614 0
M  V30 10708 O 1034.2 -1.4145 1.79455 0
M  V30 10709 C 1034.41 1.98924 2.86758 0
M  V30 10710 C 1035.75 2.2787 3.58274 0
M  V30 10711 O 1036.78 1.96838 2.96873 0
M  V30 10712 O 1035.64 2.80734 4.68882 0
M  V30 10713 H 1032.73 0.393932 0.72715 0
M  V30 10714 H 1035.28 1.38085 0.986445 0
M  V30 10715 H 1034.05 2.9794 2.53668 0
M  V30 10716 H 1033.67 1.64839 3.6182 0
M  V30 10717 N 1034.67 -1.14067 1.0875 0
M  V30 10718 C 1035.95 -1.81389 0.73195 0
M  V30 10719 C 1036.33 -1.96005 -0.78391 0
M  V30 10720 O 1035.68 -1.52267 -1.70373 0
M  V30 10721 C 1035.89 -3.16858 1.46294 0
M  V30 10722 C 1037.23 -3.92305 1.62426 0
M  V30 10723 O 1038.26 -3.26459 1.42488 0
M  V30 10724 O 1037.12 -5.10393 1.9535 0
M  V30 10725 H 1034.21 -0.784354 0.262141 0
M  V30 10726 H 1036.76 -1.21054 1.18929 0
M  V30 10727 H 1035.53 -3.01404 2.49542 0
M  V30 10728 H 1035.15 -3.84889 0.997318 0
M  V30 10729 N 1036.15 -0.873678 -1.31166 0
M  V30 10730 C 1037.1 -0.321349 -2.3037 0
M  V30 10731 C 1038.09 0.565568 -1.5968 0
M  V30 10732 O 1039.3 0.451257 -1.74252 0
M  V30 10733 H 1035.67 -0.0852425 -0.747153 0
M  V30 10734 H 1037.64 -1.17191 -2.74425 0
M  V30 10735 C 1036.39 0.459016 -3.44657 0
M  V30 10736 H 1035.71 -0.214185 -3.99226 0
M  V30 10737 H 1037.15 0.810758 -4.16176 0
M  V30 10738 C 1035.61 1.65173 -2.93632 0
M  V30 10739 O 1036.14 2.75105 -2.92711 0
M  V30 10740 N 1034.35 1.4851 -2.49786 0
M  V30 10741 H 1033.9 0.590785 -2.50734 0
M  V30 10742 H 1033.85 2.28452 -2.16002 0
M  V30 10743 N 1037.63 1.44308 -0.633487 0
M  V30 10744 C 1038.87 2.02023 -0.138917 0
M  V30 10745 C 1039.2 1.49841 1.24008 0
M  V30 10746 O 1038.46 0.673718 1.83738 0
M  V30 10747 C 1038.76 3.57316 -0.0773886 0
M  V30 10748 C 1038.42 4.28762 -1.39548 0
M  V30 10749 C 1037.08 4.47997 -1.75648 0
M  V30 10750 C 1039.44 4.69391 -2.26542 0
M  V30 10751 C 1036.76 5.05121 -2.98445 0
M  V30 10752 C 1039.12 5.27876 -3.48612 0
M  V30 10753 C 1037.78 5.45329 -3.84932 0
M  V30 10754 H 1037.05 0.739254 -0.0508333 0
M  V30 10755 H 1039.7 1.73043 -0.820271 0
M  V30 10756 H 1038 3.85724 0.687345 0
M  V30 10757 H 1039.7 3.99706 0.321837 0
M  V30 10758 H 1036.29 4.14122 -1.10456 0
M  V30 10759 H 1040.47 4.54241 -1.99946 0
M  V30 10760 H 1035.73 5.16821 -3.26658 0
M  V30 10761 H 1039.9 5.58307 -4.16253 0
M  V30 10762 H 1037.53 5.8936 -4.80166 0
M  V30 10763 N 1039.1 0.374177 1.53094 0
M  V30 10764 C 1040.33 -0.215903 2.06273 0
M  V30 10765 C 1040.75 -1.40979 1.24526 0
M  V30 10766 O 1040.11 -1.79331 0.266462 0
M  V30 10767 C 1040.16 -0.579089 3.5592 0
M  V30 10768 O 1039.26 -1.67516 3.76845 0
M  V30 10769 H 1038.61 -0.0293981 0.663349 0
M  V30 10770 H 1041.14 0.537271 1.9742 0
M  V30 10771 H 1041.15 -0.847678 3.99097 0
M  V30 10772 H 1039.82 0.293843 4.14861 0
M  V30 10773 H 1038.4 -1.40146 3.45563 0
M  V30 10774 N 1040.58 -1.57259 0.103575 0
M  V30 10775 C 1041.53 -2.14487 -0.852295 0
M  V30 10776 C 1042.5 -1.06567 -1.27407 0
M  V30 10777 O 1043.68 -1.34398 -1.35432 0
M  V30 10778 C 1040.82 -2.73632 -2.10284 0
M  V30 10779 C 1039.94 -3.95811 -1.73083 0
M  V30 10780 C 1039.07 -4.43093 -2.92988 0
M  V30 10781 C 1038.11 -5.5784 -2.51953 0
M  V30 10782 N 1037.25 -5.99936 -3.64721 0
M  V30 10783 H 1042.09 -2.95849 -0.35743 0
M  V30 10784 H 1039.63 -1.46175 -0.164748 0
M  V30 10785 H 1041.58 -3.06046 -2.83534 0
M  V30 10786 H 1040.21 -1.94985 -2.57256 0
M  V30 10787 H 1039.27 -3.69656 -0.897688 0
M  V30 10788 H 1040.58 -4.79066 -1.38916 0
M  V30 10789 H 1039.73 -4.77335 -3.74481 0
M  V30 10790 H 1038.47 -3.58756 -3.30372 0
M  V30 10791 H 1037.48 -5.23217 -1.6889 0
M  V30 10792 H 1038.7 -6.43932 -2.15705 0
M  V30 10793 H 1036.65 -5.18543 -4.01807 0
M  V30 10794 H 1036.56 -6.78008 -3.34427 0
M  V30 10795 H 1037.83 -6.38812 -4.46699 0
M  V30 10796 N 1042.06 0.170153 -1.56679 0
M  V30 10797 C 1042.99 1.21285 -1.9953 0
M  V30 10798 C 1043.97 1.46104 -0.871071 0
M  V30 10799 O 1045.16 1.57419 -1.13724 0
M  V30 10800 C 1042.29 2.5515 -2.35618 0
M  V30 10801 C 1041.24 2.44898 -3.51011 0
M  V30 10802 C 1040.57 3.83263 -3.72845 0
M  V30 10803 C 1041.87 1.95271 -4.84424 0
M  V30 10804 H 1043.56 0.856646 -2.86883 0
M  V30 10805 H 1041.11 0.410634 -1.38021 0
M  V30 10806 H 1043.06 3.28299 -2.64193 0
M  V30 10807 H 1041.78 2.92561 -1.45175 0
M  V30 10808 H 1040.44 1.74203 -3.22566 0
M  V30 10809 H 1040.09 4.18069 -2.79691 0
M  V30 10810 H 1039.79 3.77272 -4.50488 0
M  V30 10811 H 1041.31 4.57996 -4.03822 0
M  V30 10812 H 1042.73 2.58195 -5.11867 0
M  V30 10813 H 1041.13 2.00225 -5.65712 0
M  V30 10814 H 1042.2 0.90709 -4.7634 0
M  V30 10815 N 1043.54 1.5137 0.438746 0
M  V30 10816 C 1044.77 1.67774 1.21077 0
M  V30 10817 C 1045.18 0.374489 1.85049 0
M  V30 10818 O 1044.54 -0.646867 1.70651 0
M  V30 10819 C 1044.59 2.79238 2.29584 0
M  V30 10820 O 1044.31 4.04513 1.68228 0
M  V30 10821 C 1045.81 3.06898 3.19888 0
M  V30 10822 H 1043.03 0.563054 0.364981 0
M  V30 10823 H 1045.58 1.97777 0.520035 0
M  V30 10824 H 1043.73 2.51837 2.94375 0
M  V30 10825 H 1044.14 4.66405 2.3993 0
M  V30 10826 H 1045.62 3.88476 3.92162 0
M  V30 10827 H 1046.1 2.19249 3.80561 0
M  V30 10828 H 1046.7 3.35952 2.60799 0
M  V30 10829 N 1045.02 -0.694098 1.41492 0
M  V30 10830 C 1045.98 -1.78976 1.43179 0
M  V30 10831 C 1046.98 -1.57539 0.322191 0
M  V30 10832 O 1048.17 -1.64185 0.582138 0
M  V30 10833 C 1045.3 -3.17368 1.2446 0
M  V30 10834 H 1046.49 -1.78874 2.40716 0
M  V30 10835 H 1044.05 -0.901867 1.27656 0
M  V30 10836 H 1044.78 -3.23109 0.277691 0
M  V30 10837 H 1044.57 -3.3433 2.04856 0
M  V30 10838 H 1046.06 -3.97345 1.28479 0
M  V30 10839 N 1046.49 -1.27344 -0.928501 0
M  V30 10840 C 1047.4 -1.11812 -2.06241 0
M  V30 10841 C 1048.42 -0.048347 -1.73933 0
M  V30 10842 O 1049.6 -0.25467 -1.99783 0
M  V30 10843 C 1046.66 -0.766036 -3.38131 0
M  V30 10844 C 1045.72 -1.91659 -3.84142 0
M  V30 10845 C 1044.96 -1.58121 -5.09738 0
M  V30 10846 O 1045.18 -0.488742 -5.68302 0
M  V30 10847 O 1044.11 -2.42013 -5.51102 0
M  V30 10848 H 1047.94 -2.06967 -2.22258 0
M  V30 10849 H 1045.52 -1.06524 -1.04752 0
M  V30 10850 H 1047.41 -0.582982 -4.17348 0
M  V30 10851 H 1046.08 0.155998 -3.23324 0
M  V30 10852 H 1044.99 -2.1547 -3.05816 0
M  V30 10853 H 1046.32 -2.8188 -4.0349 0
M  V30 10854 N 1047.97 1.13488 -1.09353 0
M  V30 10855 C 1048.88 2.2248 -0.744307 0
M  V30 10856 C 1049.9 1.72145 0.253404 0
M  V30 10857 O 1051.07 2.01176 0.0949339 0
M  V30 10858 C 1048.14 3.46286 -0.16928 0
M  V30 10859 C 1047.2 4.11516 -1.22284 0
M  V30 10860 C 1046.43 5.29412 -0.675161 0
M  V30 10861 O 1046.66 5.68185 0.502182 0
M  V30 10862 O 1045.59 5.8467 -1.42983 0
M  V30 10863 H 1049.42 2.54723 -1.65378 0
M  V30 10864 H 1047 1.21607 -0.867879 0
M  V30 10865 H 1048.88 4.2114 0.14811 0
M  V30 10866 H 1047.56 3.15745 0.713214 0
M  V30 10867 H 1046.47 3.38492 -1.59292 0
M  V30 10868 H 1047.8 4.46186 -2.07796 0
M  V30 10869 N 1049.45 0.880621 1.30701 0
M  V30 10870 C 1050.38 0.360251 2.30704 0
M  V30 10871 C 1051.36 -0.554572 1.60806 0
M  V30 10872 O 1052.55 -0.469345 1.88443 0
M  V30 10873 C 1049.68 -0.429888 3.44629 0
M  V30 10874 C 1048.63 0.392786 4.26194 0
M  V30 10875 C 1047.96 -0.52369 5.32129 0
M  V30 10876 C 1049.26 1.63258 4.96129 0
M  V30 10877 H 1050.95 1.19591 2.74478 0
M  V30 10878 H 1048.5 0.576508 1.31956 0
M  V30 10879 H 1050.45 -0.804532 4.13649 0
M  V30 10880 H 1049.17 -1.29916 2.99649 0
M  V30 10881 H 1047.83 0.749514 3.58856 0
M  V30 10882 H 1047.48 -1.39054 4.83397 0
M  V30 10883 H 1047.18 0.0229272 5.87596 0
M  V30 10884 H 1048.71 -0.894946 6.04006 0
M  V30 10885 H 1050.12 1.32877 5.57689 0
M  V30 10886 H 1048.52 2.11906 5.61441 0
M  V30 10887 H 1049.59 2.37944 4.22505 0
M  V30 10888 N 1050.93 -1.4397 0.641131 0
M  V30 10889 C 1051.86 -2.33458 -0.04446 0
M  V30 10890 C 1052.84 -1.48781 -0.824507 0
M  V30 10891 O 1054.03 -1.77477 -0.788397 0
M  V30 10892 C 1051.16 -3.31989 -1.01984 0
M  V30 10893 C 1050.11 -4.2656 -0.350745 0
M  V30 10894 C 1049.44 -5.15036 -1.43673 0
M  V30 10895 C 1050.74 -5.16897 0.749299 0
M  V30 10896 H 1052.43 -2.91034 0.702832 0
M  V30 10897 H 1049.98 -1.39942 0.339435 0
M  V30 10898 H 1051.93 -3.93483 -1.50828 0
M  V30 10899 H 1050.65 -2.72643 -1.79815 0
M  V30 10900 H 1049.31 -3.66413 0.117139 0
M  V30 10901 H 1048.96 -4.52037 -2.20617 0
M  V30 10902 H 1048.66 -5.79125 -0.994358 0
M  V30 10903 H 1050.18 -5.79403 -1.92678 0
M  V30 10904 H 1051.6 -5.7227 0.343534 0
M  V30 10905 H 1049.99 -5.89643 1.11541 0
M  V30 10906 H 1051.06 -4.5731 1.61232 0
M  V30 10907 N 1052.41 -0.382291 -1.52893 0
M  V30 10908 C 1053.36 0.471187 -2.27778 0
M  V30 10909 C 1054.35 1.0691 -1.31402 0
M  V30 10910 O 1055.56 1.01038 -1.48967 0
M  V30 10911 H 1051.93 0.170696 -0.732371 0
M  V30 10912 H 1053.9 -0.181954 -2.97845 0
M  V30 10913 C 1052.65 1.59012 -3.09209 0
M  V30 10914 H 1051.97 1.13935 -3.83222 0
M  V30 10915 H 1053.41 2.16167 -3.64757 0
M  V30 10916 C 1051.87 2.54212 -2.21084 0
M  V30 10917 O 1052.4 3.57447 -1.83288 0
M  V30 10918 N 1050.61 2.23789 -1.85383 0
M  V30 10919 H 1050.16 1.39872 -2.16318 0
M  V30 10920 H 1050.11 2.87737 -1.26708 0
M  V30 10921 N 1053.89 1.57202 -0.111913 0
M  V30 10922 C 1054.83 2.14936 0.840908 0
M  V30 10923 C 1055.8 1.07242 1.2684 0
M  V30 10924 O 1056.99 1.35114 1.34718 0
M  V30 10925 C 1054.13 2.74743 2.0883 0
M  V30 10926 C 1053.24 3.96723 1.70982 0
M  V30 10927 C 1052.38 4.4464 2.90634 0
M  V30 10928 C 1051.41 5.59169 2.48992 0
M  V30 10929 N 1050.55 6.01862 3.61534 0
M  V30 10930 H 1055.39 2.96034 0.341735 0
M  V30 10931 H 1052.93 1.4626 0.156993 0
M  V30 10932 H 1054.89 3.07546 2.81907 0
M  V30 10933 H 1053.52 1.96346 2.56218 0
M  V30 10934 H 1052.57 3.70127 0.878072 0
M  V30 10935 H 1053.88 4.79795 1.36373 0
M  V30 10936 H 1053.03 4.79315 3.71944 0
M  V30 10937 H 1051.77 3.60503 3.28464 0
M  V30 10938 H 1050.78 5.24106 1.66113 0
M  V30 10939 H 1052 6.45067 2.12287 0
M  V30 10940 H 1049.95 5.20667 3.99051 0
M  V30 10941 H 1049.87 6.79772 3.30827 0
M  V30 10942 H 1051.13 6.41172 4.43305 0
M  V30 10943 N 1055.36 -0.161842 1.56767 0
M  V30 10944 C 1056.64 -0.904754 1.73417 0
M  V30 10945 C 1057.02 -1.99987 0.675908 0
M  V30 10946 O 1056.37 -2.26419 -0.307712 0
M  V30 10947 C 1056.58 -1.46082 3.16956 0
M  V30 10948 C 1057.93 -1.93004 3.78199 0
M  V30 10949 O 1058.95 -1.55856 3.20293 0
M  V30 10950 O 1057.81 -2.61465 4.79894 0
M  V30 10951 H 1054.9 -0.426518 0.708528 0
M  V30 10952 H 1057.45 -0.148928 1.69045 0
M  V30 10953 H 1056.22 -0.673087 3.85468 0
M  V30 10954 H 1055.84 -2.28056 3.25693 0
M  V30 10955 N 1056.84 -1.516 -0.430713 0
M  V30 10956 C 1058.09 -1.64596 -1.17959 0
M  V30 10957 C 1058.42 -0.365382 -1.91037 0
M  V30 10958 O 1057.67 0.650826 -1.84561 0
M  V30 10959 C 1057.97 -2.804 -2.21609 0
M  V30 10960 C 1057.64 -4.19431 -1.65495 0
M  V30 10961 C 1056.3 -4.57252 -1.49915 0
M  V30 10962 C 1058.65 -5.0616 -1.24304 0
M  V30 10963 C 1055.98 -5.79501 -0.916276 0
M  V30 10964 C 1058.33 -6.28995 -0.674437 0
M  V30 10965 C 1056.99 -6.65582 -0.505591 0
M  V30 10966 H 1056.26 -0.602301 -0.431642 0
M  V30 10967 H 1058.91 -1.8565 -0.469726 0
M  V30 10968 H 1057.22 -2.53595 -2.98658 0
M  V30 10969 H 1058.91 -2.87654 -2.79385 0
M  V30 10970 H 1055.5 -3.89615 -1.78599 0
M  V30 10971 H 1059.69 -4.77541 -1.35159 0
M  V30 10972 H 1054.94 -6.0649 -0.77328 0
M  V30 10973 H 1059.12 -6.95536 -0.346779 0
M  V30 10974 H 1056.74 -7.60182 -0.0518188 0
M  V30 10975 N 1058.32 0.686584 -1.41858 0
M  V30 10976 C 1059.28 1.78214 -1.44126 0
M  V30 10977 C 1060.28 1.57366 -0.330541 0
M  V30 10978 O 1061.47 1.63874 -0.590837 0
M  V30 10979 C 1058.6 3.16704 -1.26142 0
M  V30 10980 H 1059.8 1.77594 -2.41661 0
M  V30 10981 H 1057.35 0.895085 -1.28132 0
M  V30 10982 H 1058.09 3.22957 -0.294823 0
M  V30 10983 H 1057.87 3.33238 -2.06627 0
M  V30 10984 H 1059.36 3.96658 -1.30584 0
M  V30 10985 N 1059.8 1.27835 0.921735 0
M  V30 10986 C 1060.74 1.11075 2.02314 0
M  V30 10987 C 1061.71 0.0101195 1.66097 0
M  V30 10988 O 1062.9 0.173564 1.90009 0
M  V30 10989 C 1060.04 0.770251 3.36394 0
M  V30 10990 C 1059.15 1.94912 3.8553 0
M  V30 10991 C 1058.29 1.54996 5.08084 0
M  V30 10992 C 1057.33 2.69595 5.49531 0
M  V30 10993 N 1056.46 2.30227 6.6328 0
M  V30 10994 H 1061.3 2.05319 2.15982 0
M  V30 10995 H 1058.84 1.022 1.058 0
M  V30 10996 H 1060.8 0.553624 4.1351 0
M  V30 10997 H 1059.43 -0.135238 3.22517 0
M  V30 10998 H 1058.48 2.27811 3.04641 0
M  V30 10999 H 1059.79 2.80858 4.12214 0
M  V30 11000 H 1058.95 1.29493 5.9272 0
M  V30 11001 H 1057.69 0.661676 4.83191 0
M  V30 11002 H 1056.69 2.95806 4.63442 0
M  V30 11003 H 1057.92 3.59054 5.76417 0
M  V30 11004 H 1055.86 1.43858 6.40032 0
M  V30 11005 H 1055.78 3.09711 6.89649 0
M  V30 11006 H 1057.05 2.07987 7.5124 0
M  V30 11007 N 1061.28 -1.12907 1.09954 0
M  V30 11008 C 1062.21 -2.20585 0.765799 0
M  V30 11009 C 1063.19 -1.68117 -0.258989 0
M  V30 11010 O 1064.37 -1.93792 -0.125853 0
M  V30 11011 C 1061.5 -3.46772 0.191435 0
M  V30 11012 C 1060.46 -4.12363 1.14635 0
M  V30 11013 C 1059.78 -5.3294 0.433426 0
M  V30 11014 C 1061.08 -4.59073 2.49096 0
M  V30 11015 H 1062.78 -2.48759 1.66612 0
M  V30 11016 H 1060.32 -1.19563 0.802534 0
M  V30 11017 H 1062.27 -4.21365 -0.0541535 0
M  V30 11018 H 1061 -3.18011 -0.744101 0
M  V30 11019 H 1059.66 -3.39744 1.37731 0
M  V30 11020 H 1059.31 -5.00444 -0.506422 0
M  V30 11021 H 1059.01 -5.77772 1.07018 0
M  V30 11022 H 1060.53 -6.10284 0.196267 0
M  V30 11023 H 1061.94 -5.25063 2.30177 0
M  V30 11024 H 1060.34 -5.14665 3.0861 0
M  V30 11025 H 1061.41 -3.73313 3.0946 0
M  V30 11026 N 1062.75 -0.88754 -1.30232 0
M  V30 11027 C 1064 -0.506277 -1.95656 0
M  V30 11028 C 1064.32 0.948191 -1.70395 0
M  V30 11029 O 1063.59 1.66701 -1.02895 0
M  V30 11030 H 1062.17 -0.184235 -0.723924 0
M  V30 11031 H 1064.83 -1.13118 -1.58715 0
M  V30 11032 H 1063.93 -0.678673 -3.04632 0
M  V30 11033 N 1064.23 1.43628 -0.648757 0
M  V30 11034 C 1065.14 2.34554 0.0463037 0
M  V30 11035 C 1066.16 1.53629 0.816952 0
M  V30 11036 O 1067.33 1.86297 0.765212 0
M  V30 11037 C 1064.4 3.3185 1.00381 0
M  V30 11038 C 1063.46 4.2868 0.230589 0
M  V30 11039 C 1062.69 5.21328 1.14249 0
M  V30 11040 O 1062.92 5.18298 2.38166 0
M  V30 11041 O 1061.85 5.98726 0.617296 0
M  V30 11042 H 1065.68 2.95475 -0.702008 0
M  V30 11043 H 1063.26 1.43694 -0.408942 0
M  V30 11044 H 1065.14 3.91692 1.5542 0
M  V30 11045 H 1063.82 2.73439 1.73243 0
M  V30 11046 H 1062.73 3.72332 -0.363282 0
M  V30 11047 H 1064.06 4.90061 -0.458368 0
M  V30 11048 N 1065.71 0.390394 1.52688 0
M  V30 11049 C 1066.96 -0.191067 2.01195 0
M  V30 11050 C 1067.28 -1.47229 1.27862 0
M  V30 11051 O 1066.55 -1.91793 0.399007 0
M  V30 11052 H 1065.13 -0.073596 0.743366 0
M  V30 11053 H 1067.79 0.522334 1.8777 0
M  V30 11054 H 1066.89 -0.40051 3.0952 0
M  V30 11055 N 1067.19 -1.57141 0.120249 0
M  V30 11056 C 1068.14 -2.15379 -0.829497 0
M  V30 11057 C 1069.11 -1.07913 -1.2627 0
M  V30 11058 O 1070.29 -1.35827 -1.33999 0
M  V30 11059 C 1067.43 -2.75847 -2.0737 0
M  V30 11060 C 1066.54 -3.97624 -1.68875 0
M  V30 11061 C 1065.68 -4.46175 -2.88272 0
M  V30 11062 C 1064.72 -5.60481 -2.46023 0
M  V30 11063 N 1063.85 -6.0377 -3.58337 0
M  V30 11064 H 1068.69 -2.96211 -0.326031 0
M  V30 11065 H 1066.23 -1.46341 -0.149235 0
M  V30 11066 H 1068.19 -3.09037 -2.80272 0
M  V30 11067 H 1066.82 -1.97703 -2.55174 0
M  V30 11068 H 1065.87 -3.70588 -0.858431 0
M  V30 11069 H 1067.18 -4.80512 -1.33827 0
M  V30 11070 H 1066.34 -4.8128 -3.69397 0
M  V30 11071 H 1065.08 -3.6224 -3.26548 0
M  V30 11072 H 1064.08 -5.24979 -1.63331 0
M  V30 11073 H 1065.31 -6.46184 -2.08863 0
M  V30 11074 H 1063.25 -5.22776 -3.96284 0
M  V30 11075 H 1063.17 -6.81517 -3.27217 0
M  V30 11076 H 1064.44 -6.43514 -4.39898 0
M  V30 11077 N 1068.67 0.153526 -1.5685 0
M  V30 11078 C 1069.62 1.19478 -1.94188 0
M  V30 11079 C 1070.6 1.38889 -0.812329 0
M  V30 11080 O 1071.79 1.4056 -1.07572 0
M  V30 11081 C 1068.92 2.53 -2.32047 0
M  V30 11082 C 1068.01 2.37209 -3.51557 0
M  V30 11083 N 1068.4 1.91162 -4.68285 0
M  V30 11084 C 1066.7 2.67981 -3.56514 0
M  V30 11085 C 1067.4 1.88259 -5.50394 0
M  V30 11086 N 1066.37 2.31329 -4.91923 0
M  V30 11087 H 1070.18 0.830748 -2.81915 0
M  V30 11088 H 1067.69 0.361643 -1.58322 0
M  V30 11089 H 1069.69 3.28264 -2.56998 0
M  V30 11090 H 1068.35 2.90191 -1.45669 0
M  V30 11091 H 1069.36 1.61227 -4.92165 0
M  V30 11092 H 1066.03 3.0909 -2.80659 0
M  V30 11093 H 1067.42 1.54205 -6.53965 0
M  V30 11094 N 1070.14 1.51827 0.422667 0
M  V30 11095 C 1071.56 1.57533 1.00201 0
M  V30 11096 C 1071.91 0.407623 1.91919 0
M  V30 11097 O 1071.03 -0.473763 2.1115 0
M  V30 11098 C 1071.63 2.85508 1.82403 0
M  V30 11099 C 1070.19 2.93737 2.35362 0
M  V30 11100 C 1069.33 2.52343 1.14971 0
M  V30 11101 H 1072.28 1.57391 0.20339 0
M  V30 11102 H 1072.3 2.70097 2.68007 0
M  V30 11103 H 1071.82 3.70477 1.15623 0
M  V30 11104 H 1069.92 2.13231 3.05554 0
M  V30 11105 H 1070.03 3.977 2.67155 0
M  V30 11106 H 1068.39 2.05878 1.49955 0
M  V30 11107 H 1069.18 3.39672 0.497786 0
M  V30 11108 N 1071.62 -0.679052 1.4222 0
M  V30 11109 C 1072.53 -1.82221 1.47759 0
M  V30 11110 C 1073.55 -1.70092 0.3667 0
M  V30 11111 O 1074.72 -1.91718 0.616957 0
M  V30 11112 C 1071.79 -3.18332 1.37351 0
M  V30 11113 C 1070.85 -3.42449 2.58896 0
M  V30 11114 C 1070.08 -4.72067 2.48976 0
M  V30 11115 O 1070.31 -5.49683 1.5233 0
M  V30 11116 O 1069.24 -4.97333 3.39033 0
M  V30 11117 H 1073.07 -1.80504 2.44238 0
M  V30 11118 H 1070.65 -0.834251 1.23938 0
M  V30 11119 H 1072.53 -3.99563 1.33893 0
M  V30 11120 H 1071.21 -3.20696 0.439965 0
M  V30 11121 H 1070.12 -2.61083 2.6793 0
M  V30 11122 H 1071.45 -3.44912 3.51136 0
M  V30 11123 N 1073.1 -1.28322 -0.914942 0
M  V30 11124 C 1074.05 -1.12146 -2.01722 0
M  V30 11125 C 1075.02 -0.0189279 -1.66089 0
M  V30 11126 O 1076.2 -0.183638 -1.89914 0
M  V30 11127 C 1073.34 -0.78808 -3.35981 0
M  V30 11128 C 1072.46 -1.96954 -3.84491 0
M  V30 11129 C 1071.59 -1.57688 -5.07255 0
M  V30 11130 C 1070.63 -2.72506 -5.48094 0
M  V30 11131 N 1069.77 -2.33741 -6.62049 0
M  V30 11132 H 1074.61 -2.06461 -2.1489 0
M  V30 11133 H 1072.14 -1.0276 -1.05256 0
M  V30 11134 H 1074.1 -0.575546 -4.13211 0
M  V30 11135 H 1072.73 0.118132 -3.22584 0
M  V30 11136 H 1071.78 -2.29423 -3.03429 0
M  V30 11137 H 1073.1 -2.8304 -4.10719 0
M  V30 11138 H 1072.25 -1.32634 -5.92025 0
M  V30 11139 H 1070.99 -0.687291 -4.82833 0
M  V30 11140 H 1069.99 -2.9826 -4.61867 0
M  V30 11141 H 1071.22 -3.62106 -5.74505 0
M  V30 11142 H 1069.16 -1.4725 -6.3926 0
M  V30 11143 H 1069.08 -3.13364 -6.87997 0
M  V30 11144 H 1070.35 -2.11968 -7.50127 0
M  V30 11145 N 1074.58 1.12322 -1.10551 0
M  V30 11146 C 1075.51 2.20176 -0.777486 0
M  V30 11147 C 1076.49 1.68252 0.250069 0
M  V30 11148 O 1077.67 1.93856 0.115574 0
M  V30 11149 C 1074.8 3.46666 -0.209822 0
M  V30 11150 C 1073.76 4.11749 -1.1682 0
M  V30 11151 C 1073.08 5.32703 -0.461684 0
M  V30 11152 C 1074.38 4.57746 -2.51527 0
M  V30 11153 H 1076.08 2.47872 -1.67928 0
M  V30 11154 H 1073.62 1.19136 -0.808863 0
M  V30 11155 H 1075.58 4.21388 0.0318068 0
M  V30 11156 H 1074.3 3.18401 0.727226 0
M  V30 11157 H 1072.96 3.39009 -1.3953 0
M  V30 11158 H 1072.61 5.00706 0.479875 0
M  V30 11159 H 1072.31 5.77197 -1.1008 0
M  V30 11160 H 1073.83 6.10172 -0.228629 0
M  V30 11161 H 1075.25 5.23835 -2.32958 0
M  V30 11162 H 1073.64 5.13021 -3.11335 0
M  V30 11163 H 1074.71 3.71667 -3.11435 0
M  V30 11164 N 1076.06 0.894434 1.2976 0
M  V30 11165 C 1077.3 0.516646 1.95385 0
M  V30 11166 C 1077.63 -0.939141 1.70895 0
M  V30 11167 O 1076.9 -1.66153 1.03778 0
M  V30 11168 H 1075.48 0.188072 0.722937 0
M  V30 11169 H 1078.14 1.13958 1.58113 0
M  V30 11170 H 1077.23 0.694819 3.04267 0
M  V30 11171 N 1077.53 -1.43282 0.656365 0
M  V30 11172 C 1078.78 -2.01378 0.170702 0
M  V30 11173 C 1079.1 -1.52063 -1.22073 0
M  V30 11174 O 1078.37 -0.73456 -1.81607 0
M  V30 11175 H 1076.95 -0.744577 0.0601168 0
M  V30 11176 H 1079.62 -1.75449 0.848739 0
M  V30 11177 H 1078.71 -3.11701 0.157745 0
M  V30 11178 N 1079.01 -0.398486 -1.52479 0
M  V30 11179 C 1080.24 0.183059 -2.06591 0
M  V30 11180 C 1080.66 1.3898 -1.26753 0
M  V30 11181 O 1080.02 1.78885 -0.294959 0
M  V30 11182 C 1080.07 0.522392 -3.56796 0
M  V30 11183 O 1079.17 1.61499 -3.79462 0
M  V30 11184 H 1078.51 0.0188411 -0.663733 0
M  V30 11185 H 1081.04 -0.56861 -1.9654 0
M  V30 11186 H 1081.05 0.784078 -4.00395 0
M  V30 11187 H 1079.73 -0.359807 -4.14341 0
M  V30 11188 H 1078.31 1.3463 -3.47749 0
M  V30 11189 N 1080.49 1.57075 -0.12858 0
M  V30 11190 C 1081.45 2.14643 0.803813 0
M  V30 11191 C 1082.45 1.08363 1.18803 0
M  V30 11192 O 1083.64 1.34093 1.11197 0
M  V30 11193 C 1080.78 2.6945 2.08829 0
M  V30 11194 H 1081.97 2.98362 0.303347 0
M  V30 11195 H 1079.52 1.55833 0.120735 0
M  V30 11196 H 1080.26 1.89345 2.63285 0
M  V30 11197 H 1080.04 3.47187 1.82218 0
M  V30 11198 H 1081.53 3.13865 2.7546 0
M  V30 11199 N 1081.97 -0.145205 1.5693 0
M  V30 11200 C 1082.88 -1.19864 2.01667 0
M  V30 11201 C 1083.9 -1.46909 0.932402 0
M  V30 11202 O 1085.07 -1.58543 1.24201 0
M  V30 11203 C 1082.14 -2.51174 2.38982 0
M  V30 11204 C 1081.2 -2.3176 3.61366 0
M  V30 11205 C 1080.43 -3.56809 3.96892 0
M  V30 11206 O 1080.65 -4.63063 3.33059 0
M  V30 11207 O 1079.59 -3.49366 4.9013 0
M  V30 11208 H 1083.41 -0.848821 2.91597 0
M  V30 11209 H 1081 -0.354063 1.45144 0
M  V30 11210 H 1082.88 -3.28587 2.63835 0
M  V30 11211 H 1081.56 -2.85683 1.52207 0
M  V30 11212 H 1080.46 -1.52293 3.41698 0
M  V30 11213 H 1081.8 -2.02167 4.48764 0
M  V30 11214 N 1083.45 -1.52049 -0.414609 0
M  V30 11215 C 1084.67 -1.6997 -1.18848 0
M  V30 11216 C 1085.1 -0.406058 -1.83665 0
M  V30 11217 O 1084.46 0.635981 -1.69779 0
M  V30 11218 C 1084.5 -2.8327 -2.23138 0
M  V30 11219 O 1083.61 -2.48457 -3.29155 0
M  V30 11220 H 1082.95 -0.566003 -0.347183 0
M  V30 11221 H 1085.48 -1.98726 -0.486757 0
M  V30 11222 H 1085.49 -3.08022 -2.67557 0
M  V30 11223 H 1084.16 -3.7713 -1.75344 0
M  V30 11224 H 1082.74 -2.34357 -2.90054 0
M  V30 11225 N 1084.93 0.6715 -1.42579 0
M  V30 11226 C 1085.86 1.79693 -1.49107 0
M  V30 11227 C 1086.84 1.66516 -0.347338 0
M  V30 11228 O 1088.02 1.85887 -0.562094 0
M  V30 11229 C 1085.15 3.1801 -1.39596 0
M  V30 11230 C 1084.11 3.45926 -2.5203 0
M  V30 11231 C 1083.43 4.83852 -2.27577 0
M  V30 11232 C 1084.73 3.4249 -3.94333 0
M  V30 11233 H 1086.43 1.74486 -2.433 0
M  V30 11234 H 1083.97 0.838042 -1.17102 0
M  V30 11235 H 1085.92 3.96478 -1.42771 0
M  V30 11236 H 1084.65 3.23901 -0.418989 0
M  V30 11237 H 1083.31 2.6982 -2.48178 0
M  V30 11238 H 1082.96 4.86398 -1.28165 0
M  V30 11239 H 1082.66 5.03493 -3.02934 0
M  V30 11240 H 1084.18 5.646 -2.32506 0
M  V30 11241 H 1085.59 4.10922 -3.9977 0
M  V30 11242 H 1083.99 3.73666 -4.69568 0
M  V30 11243 H 1085.06 2.41002 -4.20768 0
M  V30 11244 N 1086.4 1.28806 0.908124 0
M  V30 11245 C 1087.65 1.15663 1.65242 0
M  V30 11246 C 1087.97 -0.292883 1.93395 0
M  V30 11247 O 1089.17 -0.545509 2.65963 0
M  V30 11248 C 1087.63 2.02233 2.97707 0
M  V30 11249 C 1087.24 3.51958 2.77181 0
M  V30 11250 C 1088.98 1.97792 3.75604 0
M  V30 11251 C 1086.89 4.3066 4.05322 0
M  V30 11252 H 1085.82 0.42928 0.619867 0
M  V30 11253 H 1088.47 1.5338 1.00731 0
M  V30 11254 H 1086.85 1.57377 3.63385 0
M  V30 11255 H 1088.02 4.0481 2.20149 0
M  V30 11256 H 1086.34 3.57983 2.12691 0
M  V30 11257 H 1088.94 2.53858 4.70596 0
M  V30 11258 H 1089.28 0.955956 4.05175 0
M  V30 11259 H 1089.81 2.40648 3.16755 0
M  V30 11260 H 1086.55 5.3346 3.8092 0
M  V30 11261 H 1086.07 3.8258 4.61944 0
M  V30 11262 H 1087.75 4.40878 4.73535 0
M  V30 11263 N 1087.88 -1.11734 1.11145 0
M  V30 11264 C 1089.29 -1.64928 0.874959 0
M  V30 11265 C 1089.64 -1.87012 -0.593375 0
M  V30 11266 O 1088.77 -1.60206 -1.45475 0
M  V30 11267 C 1089.36 -2.99608 1.58178 0
M  V30 11268 C 1087.92 -3.49723 1.39179 0
M  V30 11269 C 1087.07 -2.24595 1.62642 0
M  V30 11270 H 1090.02 -0.954154 1.26813 0
M  V30 11271 H 1090.04 -3.66434 1.02501 0
M  V30 11272 H 1089.55 -2.83504 2.65042 0
M  V30 11273 H 1087.65 -3.70998 0.345111 0
M  V30 11274 H 1087.77 -4.28711 2.13878 0
M  V30 11275 H 1086.13 -2.32067 1.04961 0
M  V30 11276 H 1086.91 -2.11036 2.70774 0
M  V30 11277 N 1089.36 -0.901303 -1.29284 0
M  V30 11278 C 1090.61 -0.527 -1.95108 0
M  V30 11279 C 1090.93 0.930065 -1.71391 0
M  V30 11280 O 1090.2 1.65601 -1.04658 0
M  V30 11281 H 1088.78 -0.191903 -0.721929 0
M  V30 11282 H 1091.44 -1.14795 -1.57506 0
M  V30 11283 H 1090.54 -0.710945 -3.03895 0
M  V30 11284 N 1090.84 1.42931 -0.663954 0
M  V30 11285 C 1092.08 2.01683 -0.181738 0
M  V30 11286 C 1092.41 1.52437 1.20802 0
M  V30 11287 O 1091.67 0.71254 1.82267 0
M  V30 11288 C 1091.97 3.57072 -0.153163 0
M  V30 11289 C 1091.63 4.25706 -1.48612 0
M  V30 11290 C 1090.29 4.4417 -1.85111 0
M  V30 11291 C 1092.65 4.6448 -2.36448 0
M  V30 11292 C 1089.97 4.98677 -3.09092 0
M  V30 11293 C 1092.33 5.20362 -3.5973 0
M  V30 11294 C 1090.99 5.37041 -3.96412 0
M  V30 11295 H 1090.26 0.73801 -0.0665026 0
M  V30 11296 H 1092.91 1.71264 -0.856791 0
M  V30 11297 H 1091.21 3.87095 0.605372 0
M  V30 11298 H 1092.91 4.00299 0.236981 0
M  V30 11299 H 1089.5 4.11686 -1.19215 0
M  V30 11300 H 1093.68 4.49898 -2.09537 0
M  V30 11301 H 1088.94 5.09776 -3.37547 0
M  V30 11302 H 1093.11 5.49352 -4.28001 0
M  V30 11303 H 1090.74 5.79042 -4.92559 0
M  V30 11304 N 1092.32 0.406567 1.52266 0
M  V30 11305 C 1093.25 -0.45552 2.24628 0
M  V30 11306 C 1094.26 -1.01234 1.27497 0
M  V30 11307 O 1095.45 -0.911718 1.5346 0
M  V30 11308 C 1092.55 -1.64578 2.96256 0
M  V30 11309 C 1091.72 -1.2133 4.20235 0
M  V30 11310 C 1090.78 -2.27018 4.7471 0
M  V30 11311 O 1089.81 -1.87714 5.37357 0
M  V30 11312 N 1091.01 -3.5915 4.56061 0
M  V30 11313 H 1093.77 0.164525 2.99248 0
M  V30 11314 H 1091.34 0.233812 1.60203 0
M  V30 11315 H 1093.33 -2.3484 3.29594 0
M  V30 11316 H 1091.9 -2.1718 2.24837 0
M  V30 11317 H 1091.12 -0.338892 3.92741 0
M  V30 11318 H 1092.41 -0.901268 5.00754 0
M  V30 11319 H 1091.8 -3.93834 4.06092 0
M  V30 11320 H 1090.36 -4.25397 4.93843 0
M  V30 11321 N 1093.79 -1.57004 0.136909 0
M  V30 11322 C 1095.02 -2.00587 -0.527209 0
M  V30 11323 C 1095.44 -1.01628 -1.58283 0
M  V30 11324 O 1094.8 0.00946934 -1.81298 0
M  V30 11325 C 1094.85 -3.42967 -1.11384 0
M  V30 11326 O 1093.95 -3.46973 -2.22898 0
M  V30 11327 H 1093.3 -0.651155 -0.129976 0
M  V30 11328 H 1095.83 -2.03296 0.230667 0
M  V30 11329 H 1095.84 -3.81555 -1.44499 0
M  V30 11330 H 1094.51 -4.14502 -0.340736 0
M  V30 11331 H 1093.09 -3.20219 -1.91087 0
M  V30 11332 N 1095.27 0.136881 -1.57004 0
M  V30 11333 C 1096.5 0.862436 -1.88068 0
M  V30 11334 C 1096.92 1.74274 -0.726227 0
M  V30 11335 O 1096.27 1.79956 0.30366 0
M  V30 11336 C 1096.32 1.71076 -3.18458 0
M  V30 11337 O 1096.04 0.865918 -4.29457 0
M  V30 11338 C 1097.55 2.54302 -3.63105 0
M  V30 11339 H 1094.77 0.248865 -0.623143 0
M  V30 11340 H 1097.31 0.126633 -2.04108 0
M  V30 11341 H 1095.46 2.39951 -3.04142 0
M  V30 11342 H 1095.88 1.4493 -5.04079 0
M  V30 11343 H 1097.35 3.09384 -4.57149 0
M  V30 11344 H 1097.83 3.3082 -2.88886 0
M  V30 11345 H 1098.44 1.907 -3.80149 0
M  V30 11346 N 1096.75 1.52266 0.40654 0
M  V30 11347 C 1097.68 1.72025 1.51459 0
M  V30 11348 C 1098.7 0.600667 1.51314 0
M  V30 11349 O 1099.88 0.875894 1.55532 0
M  V30 11350 C 1096.98 1.7479 2.90348 0
M  V30 11351 C 1096.16 3.03826 3.14656 0
M  V30 11352 C 1095.22 2.98369 4.33431 0
M  V30 11353 O 1094.24 3.7227 4.30586 0
M  V30 11354 N 1095.44 2.16338 5.38682 0
M  V30 11355 H 1098.21 2.67622 1.34903 0
M  V30 11356 H 1095.77 1.50536 0.595867 0
M  V30 11357 H 1097.76 1.68667 3.67877 0
M  V30 11358 H 1096.33 0.86656 3.00349 0
M  V30 11359 H 1095.55 3.23577 2.25148 0
M  V30 11360 H 1096.84 3.89182 3.27742 0
M  V30 11361 H 1096.24 1.55731 5.43842 0
M  V30 11362 H 1094.8 2.1607 6.14945 0
M  V30 11363 N 1098.23 -0.663929 1.42933 0
M  V30 11364 C 1099.48 -1.42111 1.43697 0
M  V30 11365 C 1099.8 -1.94913 0.0583858 0
M  V30 11366 O 1099.07 -1.73757 -0.904719 0
M  V30 11367 H 1097.65 -0.527391 0.529026 0
M  V30 11368 H 1100.31 -0.783766 1.78446 0
M  V30 11369 H 1099.41 -2.26877 2.1432 0
M  V30 11370 N 1099.71 -1.29285 -0.901281 0
M  V30 11371 C 1100.98 -1.07847 -1.63182 0
M  V30 11372 C 1101.36 0.377927 -2.07689 0
M  V30 11373 O 1100.71 1.36642 -1.83143 0
M  V30 11374 C 1100.92 -2.06457 -2.81383 0
M  V30 11375 C 1102.27 -2.37289 -3.52107 0
M  V30 11376 O 1103.29 -2.0464 -2.91549 0
M  V30 11377 O 1102.15 -2.93067 -4.61274 0
M  V30 11378 H 1099.25 -0.413073 -0.71645 0
M  V30 11379 H 1101.79 -1.40651 -0.949488 0
M  V30 11380 H 1100.56 -3.04561 -2.4568 0
M  V30 11381 H 1100.19 -1.74374 -3.57323 0
M  V30 11382 N 1101.18 1.11143 -1.11736 0
M  V30 11383 C 1102.15 2.15456 -0.78174 0
M  V30 11384 C 1103.15 1.59547 0.200383 0
M  V30 11385 O 1104.34 1.74183 -0.0244893 0
M  V30 11386 C 1101.47 3.40523 -0.160364 0
M  V30 11387 H 1102.66 2.46658 -1.70586 0
M  V30 11388 H 1100.22 1.26381 -0.919644 0
M  V30 11389 H 1100.95 3.14932 0.773835 0
M  V30 11390 H 1100.74 3.82386 -0.867378 0
M  V30 11391 H 1102.23 4.17559 0.0582175 0
M  V30 11392 N 1102.66 0.908147 1.28804 0
M  V30 11393 C 1103.91 0.538404 1.95211 0
M  V30 11394 C 1104.24 -0.916886 1.71533 0
M  V30 11395 O 1103.49 -1.66643 1.02609 0
M  V30 11396 C 1103.79 0.787327 3.4862 0
M  V30 11397 C 1103.46 2.22129 3.92389 0
M  V30 11398 C 1102.12 2.61336 4.04051 0
M  V30 11399 C 1104.47 3.15471 4.14883 0
M  V30 11400 C 1101.8 3.93048 4.3558 0
M  V30 11401 C 1104.15 4.46741 4.47889 0
M  V30 11402 C 1102.82 4.85809 4.57761 0
M  V30 11403 H 1102.09 0.197016 0.714329 0
M  V30 11404 H 1104.73 1.14841 1.53244 0
M  V30 11405 H 1103.04 0.0944731 3.91686 0
M  V30 11406 H 1104.73 0.480503 3.98111 0
M  V30 11407 H 1101.32 1.90704 3.83836 0
M  V30 11408 H 1105.51 2.86391 4.05332 0
M  V30 11409 H 1100.76 4.23027 4.41428 0
M  V30 11410 H 1104.94 5.19087 4.64243 0
M  V30 11411 H 1102.57 5.87904 4.81947 0
M  V30 11412 N 1104.14 -1.42577 0.671525 0
M  V30 11413 C 1105.1 -2.292 0.000392482 0
M  V30 11414 C 1106.1 -1.43158 -0.732294 0
M  V30 11415 O 1107.29 -1.64583 -0.570789 0
M  V30 11416 C 1104.43 -3.25591 -1.01013 0
M  V30 11417 H 1105.62 -2.90037 0.762783 0
M  V30 11418 H 1103.17 -1.50162 0.433703 0
M  V30 11419 H 1103.91 -2.69685 -1.80112 0
M  V30 11420 H 1103.69 -3.89049 -0.488183 0
M  V30 11421 H 1105.18 -3.90561 -1.47824 0
M  V30 11422 N 1105.62 -0.414636 -1.52048 0
M  V30 11423 C 1106.85 0.158686 -2.06291 0
M  V30 11424 C 1107.26 1.38397 -1.2842 0
M  V30 11425 O 1106.62 1.79351 -0.337539 0
M  V30 11426 C 1106.67 0.503634 -3.57975 0
M  V30 11427 O 1106.39 -0.672996 -4.329 0
M  V30 11428 C 1107.89 1.13009 -4.28653 0
M  V30 11429 H 1105.11 0.0179622 -0.67076 0
M  V30 11430 H 1107.66 -0.587177 -1.95889 0
M  V30 11431 H 1105.81 1.19939 -3.68366 0
M  V30 11432 H 1106.22 -0.383735 -5.23094 0
M  V30 11433 H 1107.7 1.32162 -5.35945 0
M  V30 11434 H 1108.18 2.10476 -3.85482 0
M  V30 11435 H 1108.78 0.474379 -4.22646 0
M  V30 11436 N 1107.1 1.56929 -0.145233 0
M  V30 11437 C 1108.32 2.00431 0.513314 0
M  V30 11438 C 1108.74 1.0253 1.58534 0
M  V30 11439 O 1108.1 0.0220459 1.82487 0
M  V30 11440 C 1108.15 3.43856 1.11557 0
M  V30 11441 O 1107.87 4.38015 0.0863707 0
M  V30 11442 C 1109.37 4.02627 1.8549 0
M  V30 11443 H 1106.59 0.657529 0.133778 0
M  V30 11444 H 1109.13 2.03095 -0.239296 0
M  V30 11445 H 1107.29 3.4205 1.81881 0
M  V30 11446 H 1107.7 5.21842 0.527363 0
M  V30 11447 H 1109.18 5.04985 2.22923 0
M  V30 11448 H 1109.65 3.43239 2.74014 0
M  V30 11449 H 1110.26 4.08058 1.19869 0
M  V30 11450 N 1108.58 -0.128553 1.57075 0
M  V30 11451 C 1109.8 -0.8564 1.88893 0
M  V30 11452 C 1110.23 -1.73095 0.736196 0
M  V30 11453 O 1109.58 -1.78567 -0.313629 0
M  V30 11454 C 1109.63 -1.67368 3.19406 0
M  V30 11455 O 1108.74 -2.77973 3.04639 0
M  V30 11456 H 1108.08 -0.237424 0.620102 0
M  V30 11457 H 1110.61 -0.113821 2.04283 0
M  V30 11458 H 1110.62 -2.0649 3.51889 0
M  V30 11459 H 1109.29 -1.03161 4.02903 0
M  V30 11460 H 1107.87 -2.42123 2.83603 0
M  V30 11461 N 1110.05 -1.5248 -0.398459 0
M  V30 11462 C 1111.3 -1.67061 -1.14441 0
M  V30 11463 C 1111.63 -0.405821 -1.90219 0
M  V30 11464 O 1110.88 0.611532 -1.859 0
M  V30 11465 C 1111.18 -2.85038 -2.15611 0
M  V30 11466 C 1110.85 -4.22847 -1.56561 0
M  V30 11467 C 1109.51 -4.60329 -1.40182 0
M  V30 11468 C 1111.86 -5.08683 -1.1354 0
M  V30 11469 C 1109.19 -5.81314 -0.793149 0
M  V30 11470 C 1111.54 -6.30284 -0.540866 0
M  V30 11471 C 1110.21 -6.66505 -0.364297 0
M  V30 11472 H 1109.48 -0.611321 -0.418769 0
M  V30 11473 H 1112.12 -1.86604 -0.430241 0
M  V30 11474 H 1110.43 -2.59873 -2.93212 0
M  V30 11475 H 1112.13 -2.93516 -2.73221 0
M  V30 11476 H 1108.72 -3.93316 -1.70295 0
M  V30 11477 H 1112.9 -4.80301 -1.24999 0
M  V30 11478 H 1108.16 -6.07994 -0.64446 0
M  V30 11479 H 1112.33 -6.96115 -0.199167 0
M  V30 11480 H 1109.96 -7.60121 0.109439 0
M  V30 11481 N 1111.53 0.65634 -1.43283 0
M  V30 11482 C 1112.76 1.44906 -1.48382 0
M  V30 11483 C 1113.18 1.87823 -0.101993 0
M  V30 11484 O 1112.54 1.57178 0.903597 0
M  V30 11485 C 1112.59 2.66231 -2.43215 0
M  V30 11486 O 1111.69 3.65176 -1.91625 0
M  V30 11487 H 1111.03 0.434601 -0.502014 0
M  V30 11488 H 1113.56 0.803429 -1.88165 0
M  V30 11489 H 1113.57 3.14083 -2.60414 0
M  V30 11490 H 1112.25 2.34336 -3.43598 0
M  V30 11491 H 1110.82 3.24302 -1.84072 0
M  V30 11492 N 1113.01 1.29761 0.894412 0
M  V30 11493 C 1113.97 1.15335 1.98067 0
M  V30 11494 C 1114.97 0.0872804 1.60563 0
M  V30 11495 O 1116.16 0.334645 1.70955 0
M  V30 11496 C 1113.29 0.764907 3.32208 0
M  V30 11497 H 1114.49 2.11829 2.12293 0
M  V30 11498 H 1112.04 1.13023 1.0796 0
M  V30 11499 H 1112.78 -0.199948 3.23683 0
M  V30 11500 H 1112.56 1.53523 3.60795 0
M  V30 11501 H 1114.05 0.687176 4.11907 0
M  V30 11502 N 1114.49 -1.10549 1.12324 0
M  V30 11503 C 1115.74 -1.82124 0.876083 0
M  V30 11504 C 1116.06 -1.85547 -0.599761 0
M  V30 11505 O 1115.33 -1.33269 -1.43584 0
M  V30 11506 H 1113.91 -0.674455 0.321122 0
M  V30 11507 H 1116.57 -1.33766 1.41748 0
M  V30 11508 H 1115.66 -2.85688 1.25653 0
M  V30 11509 N 1115.97 -0.914965 -1.28321 0
M  V30 11510 C 1117.19 -0.564654 -1.99046 0
M  V30 11511 C 1117.61 0.854345 -1.68364 0
M  V30 11512 O 1116.97 1.56605 -0.937068 0
M  V30 11513 C 1117.02 -0.765663 -3.53299 0
M  V30 11514 O 1116.74 -2.12883 -3.829 0
M  V30 11515 C 1118.24 -0.422347 -4.41283 0
M  V30 11516 H 1115.46 -0.215158 -0.635569 0
M  V30 11517 H 1118 -1.2285 -1.63487 0
M  V30 11518 H 1116.16 -0.148795 -3.87114 0
M  V30 11519 H 1116.57 -2.1694 -4.77533 0
M  V30 11520 H 1118.05 -0.613757 -5.48577 0
M  V30 11521 H 1118.52 0.641484 -4.3449 0
M  V30 11522 H 1119.13 -1.01681 -4.12966 0
M  V30 11523 N 1117.44 1.42219 -0.679077 0
M  V30 11524 C 1118.41 2.29197 -0.0125475 0
M  V30 11525 C 1119.41 1.43544 0.724691 0
M  V30 11526 O 1120.6 1.64884 0.562052 0
M  V30 11527 C 1117.73 3.26122 0.992846 0
M  V30 11528 H 1118.92 2.89629 -0.778154 0
M  V30 11529 H 1116.47 1.4993 -0.44166 0
M  V30 11530 H 1117.21 2.70637 1.78679 0
M  V30 11531 H 1116.99 3.89302 0.467544 0
M  V30 11532 H 1118.48 3.91339 1.45751 0
M  V30 11533 N 1118.92 0.422693 1.51826 0
M  V30 11534 C 1119.83 -0.40261 2.31119 0
M  V30 11535 C 1120.85 -1.04117 1.39412 0
M  V30 11536 O 1122.02 -1.03973 1.72486 0
M  V30 11537 C 1119.09 -1.49699 3.12716 0
M  V30 11538 C 1118.15 -0.880088 4.20182 0
M  V30 11539 C 1117.38 -1.92232 4.97878 0
M  V30 11540 O 1117.61 -3.14246 4.76031 0
M  V30 11541 O 1116.54 -1.521 5.82365 0
M  V30 11542 H 1120.37 0.244308 3.02716 0
M  V30 11543 H 1117.95 0.185569 1.48243 0
M  V30 11544 H 1119.83 -2.13202 3.63487 0
M  V30 11545 H 1118.51 -2.12826 2.43899 0
M  V30 11546 H 1117.41 -0.207404 3.73525 0
M  V30 11547 H 1118.75 -0.292535 4.9133 0
M  V30 11548 N 1120.4 -1.5685 0.153553 0
M  V30 11549 C 1121.35 -2.1709 -0.783626 0
M  V30 11550 C 1122.32 -1.10567 -1.23952 0
M  V30 11551 O 1123.5 -1.38638 -1.31088 0
M  V30 11552 C 1120.64 -2.80183 -2.01473 0
M  V30 11553 C 1119.75 -4.01117 -1.60403 0
M  V30 11554 C 1118.89 -4.5219 -2.78743 0
M  V30 11555 C 1117.93 -5.65574 -2.34079 0
M  V30 11556 N 1117.07 -6.11235 -3.4545 0
M  V30 11557 H 1121.91 -2.96836 -0.263127 0
M  V30 11558 H 1119.44 -1.46625 -0.11816 0
M  V30 11559 H 1121.4 -3.14912 -2.73654 0
M  V30 11560 H 1120.03 -2.03071 -2.50923 0
M  V30 11561 H 1119.08 -3.72325 -0.779631 0
M  V30 11562 H 1120.39 -4.83243 -1.23605 0
M  V30 11563 H 1119.55 -4.89008 -3.59105 0
M  V30 11564 H 1118.29 -3.69085 -3.18791 0
M  V30 11565 H 1117.29 -5.28326 -1.52158 0
M  V30 11566 H 1118.52 -6.50468 -1.95109 0
M  V30 11567 H 1116.46 -5.31064 -3.85106 0
M  V30 11568 H 1116.38 -6.88304 -3.12687 0
M  V30 11569 H 1117.65 -6.527 -4.26149 0
M  V30 11570 N 1121.88 0.120221 -1.57141 0
M  V30 11571 C 1123.29 0.473718 -1.52408 0
M  V30 11572 C 1123.49 1.81925 -0.866354 0
M  V30 11573 O 1122.55 2.48491 -0.448173 0
M  V30 11574 C 1123.86 0.459338 -2.97171 0
M  V30 11575 C 1125.41 0.542975 -3.08254 0
M  V30 11576 C 1125.89 0.558996 -4.54576 0
M  V30 11577 N 1127.38 0.620469 -4.59026 0
M  V30 11578 C 1128.11 0.654292 -5.69655 0
M  V30 11579 N 1127.61 0.645835 -6.89783 0
M  V30 11580 N 1129.4 0.697208 -5.57759 0
M  V30 11581 H 1121.55 -0.76142 -1.98283 0
M  V30 11582 H 1123.81 -0.280736 -0.905479 0
M  V30 11583 H 1123.52 -0.461654 -3.48657 0
M  V30 11584 H 1123.39 1.28759 -3.54543 0
M  V30 11585 H 1125.78 1.45439 -2.56772 0
M  V30 11586 H 1125.86 -0.312936 -2.53879 0
M  V30 11587 H 1125.51 -0.348367 -5.06704 0
M  V30 11588 H 1125.44 1.43177 -5.06762 0
M  V30 11589 H 1127.93 0.633218 -3.72557 0
M  V30 11590 H 1128.24 0.674233 -7.69853 0
M  V30 11591 H 1126.59 0.613279 -6.92289 0
M  V30 11592 H 1129.78 0.70117 -4.62819 0
M  V30 11593 H 1129.95 0.7201 -6.43986 0
M  V30 11594 N 1123.36 1.52689 0.390367 0
M  V30 11595 C 1124.3 1.7737 1.47677 0
M  V30 11596 C 1125.27 0.616864 1.54221 0
M  V30 11597 O 1126.46 0.856437 1.70499 0
M  V30 11598 C 1123.6 1.94715 2.84921 0
M  V30 11599 C 1122.71 3.22405 2.8754 0
M  V30 11600 C 1121.85 3.30074 4.16202 0
M  V30 11601 C 1120.89 4.51893 4.12867 0
M  V30 11602 N 1120.02 4.56851 5.33134 0
M  V30 11603 H 1124.86 2.70084 1.25932 0
M  V30 11604 H 1122.4 1.33813 0.610943 0
M  V30 11605 H 1124.36 2.02755 3.64618 0
M  V30 11606 H 1122.99 1.05363 3.0512 0
M  V30 11607 H 1122.04 3.23442 2.00223 0
M  V30 11608 H 1123.35 4.12156 2.80943 0
M  V30 11609 H 1122.51 3.3729 5.04302 0
M  V30 11610 H 1121.24 2.38295 4.25519 0
M  V30 11611 H 1120.25 4.44803 3.23156 0
M  V30 11612 H 1121.47 5.44987 4.05174 0
M  V30 11613 H 1119.42 3.67963 5.43083 0
M  V30 11614 H 1119.34 5.40472 5.28607 0
M  V30 11615 H 1120.61 4.6832 6.23134 0
M  V30 11616 N 1124.83 -0.648732 1.43629 0
M  V30 11617 C 1126.08 -1.40579 1.45196 0
M  V30 11618 C 1126.4 -1.9484 0.0790556 0
M  V30 11619 O 1125.67 -1.74707 -0.886239 0
M  V30 11620 H 1124.25 -0.52175 0.53459 0
M  V30 11621 H 1126.92 -0.764796 1.79268 0
M  V30 11622 H 1126.01 -2.24591 2.16715 0
M  V30 11623 N 1126.31 -1.30234 -0.887518 0
M  V30 11624 C 1127.56 -1.18675 -1.63587 0
M  V30 11625 C 1127.88 0.259342 -1.93268 0
M  V30 11626 O 1127.15 1.17523 -1.56733 0
M  V30 11627 H 1125.73 -0.436224 -0.606397 0
M  V30 11628 H 1128.39 -1.63326 -1.06351 0
M  V30 11629 H 1127.49 -1.74575 -2.58708 0
M  V30 11630 N 1127.79 1.09952 -1.12909 0
M  V30 11631 C 1128.72 2.16257 -0.759305 0
M  V30 11632 C 1129.74 1.61355 0.216427 0
M  V30 11633 O 1130.92 1.785 -0.00297224 0
M  V30 11634 C 1128.02 3.38741 -0.103908 0
M  V30 11635 C 1127.2 4.23072 -1.11037 0
M  V30 11636 C 1126.26 5.23991 -0.481667 0
M  V30 11637 O 1125.28 5.57665 -1.14011 0
M  V30 11638 N 1126.48 5.75652 0.748698 0
M  V30 11639 H 1129.25 2.48588 -1.67405 0
M  V30 11640 H 1126.81 1.25617 -1.02137 0
M  V30 11641 H 1128.8 4.03362 0.328799 0
M  V30 11642 H 1127.37 3.04344 0.713677 0
M  V30 11643 H 1126.59 3.5467 -1.72054 0
M  V30 11644 H 1127.88 4.76244 -1.79078 0
M  V30 11645 H 1127.28 5.505 1.30253 0
M  V30 11646 H 1125.84 6.42033 1.12415 0
M  V30 11647 N 1129.27 0.921757 1.27833 0
M  V30 11648 C 1130.5 0.575202 1.98744 0
M  V30 11649 C 1130.91 -0.845405 1.68815 0
M  V30 11650 O 1130.27 -1.56106 0.94536 0
M  V30 11651 C 1130.32 0.784389 3.52888 0
M  V30 11652 O 1130.04 2.1491 3.81766 0
M  V30 11653 C 1131.54 0.445744 4.41053 0
M  V30 11654 H 1128.76 0.218525 0.634419 0
M  V30 11655 H 1131.31 1.23715 1.62834 0
M  V30 11656 H 1129.46 0.169323 3.8703 0
M  V30 11657 H 1129.87 2.19469 4.76375 0
M  V30 11658 H 1131.35 0.64284 5.48244 0
M  V30 11659 H 1131.83 -0.618433 4.34824 0
M  V30 11660 H 1132.43 1.03869 4.12421 0
M  V30 11661 N 1130.75 -1.41857 0.686609 0
M  V30 11662 C 1131.99 -2.01666 0.214118 0
M  V30 11663 C 1132.33 -1.5422 -1.18025 0
M  V30 11664 O 1131.6 -0.749482 -1.7948 0
M  V30 11665 C 1131.88 -3.59147 0.261841 0
M  V30 11666 C 1131.74 -4.16742 1.69251 0
M  V30 11667 C 1133.06 -4.38427 -0.383378 0
M  V30 11668 H 1130.17 -0.732724 0.0792785 0
M  V30 11669 H 1132.82 -1.68724 0.873633 0
M  V30 11670 H 1130.97 -3.87342 -0.29971 0
M  V30 11671 H 1132.64 -3.99456 2.30722 0
M  V30 11672 H 1130.88 -3.72124 2.2295 0
M  V30 11673 H 1131.55 -5.25894 1.6775 0
M  V30 11674 H 1134.03 -4.15992 0.0947701 0
M  V30 11675 H 1132.9 -5.4797 -0.319401 0
M  V30 11676 H 1133.17 -4.172 -1.46276 0
M  V30 11677 N 1132.22 -0.430739 -1.51599 0
M  V30 11678 C 1133.5 0.197543 -1.946 0
M  V30 11679 C 1133.88 1.6069 -1.36901 0
M  V30 11680 O 1133.23 2.21697 -0.553422 0
M  V30 11681 C 1133.44 0.181976 -3.48525 0
M  V30 11682 C 1134.79 0.390783 -4.22798 0
M  V30 11683 O 1135.81 0.260384 -3.55247 0
M  V30 11684 O 1134.67 0.649701 -5.42624 0
M  V30 11685 H 1131.76 0.133524 -0.81615 0
M  V30 11686 H 1134.31 -0.488243 -1.62525 0
M  V30 11687 H 1133.08 -0.803584 -3.8296 0
M  V30 11688 H 1132.71 0.910952 -3.87024 0
M  V30 11689 N 1133.7 1.56767 -0.161869 0
M  V30 11690 C 1134.93 2.01401 0.49523 0
M  V30 11691 C 1135.35 1.04133 1.56646 0
M  V30 11692 O 1134.71 0.0193747 1.8129 0
M  V30 11693 C 1134.76 3.44695 1.05913 0
M  V30 11694 O 1133.86 3.50475 2.1735 0
M  V30 11695 H 1133.2 0.65314 0.1196 0
M  V30 11696 H 1135.73 2.02903 -0.26298 0
M  V30 11697 H 1135.74 3.83805 1.3841 0
M  V30 11698 H 1134.42 4.14991 0.274749 0
M  V30 11699 H 1133 3.23218 1.85969 0
M  V30 11700 N 1135.18 -0.111886 1.57202 0
M  V30 11701 C 1136.43 -0.816794 1.84859 0
M  V30 11702 C 1136.75 -1.80079 0.748113 0
M  V30 11703 O 1136.02 -1.94578 -0.227235 0
M  V30 11704 H 1134.6 -0.304633 0.682061 0
M  V30 11705 H 1137.26 -0.097513 1.94656 0
M  V30 11706 H 1136.36 -1.35768 2.81022 0
M  V30 11707 N 1136.66 -1.52894 -0.382264 0
M  V30 11708 C 1137.59 -1.81122 -1.47367 0
M  V30 11709 C 1138.57 -0.663653 -1.56619 0
M  V30 11710 O 1139.75 -0.911898 -1.71459 0
M  V30 11711 C 1136.88 -1.98615 -2.84902 0
M  V30 11712 C 1135.84 -3.14328 -2.90485 0
M  V30 11713 C 1135.16 -3.17086 -4.30535 0
M  V30 11714 C 1136.46 -4.53263 -2.59519 0
M  V30 11715 H 1138.16 -2.72518 -1.23993 0
M  V30 11716 H 1135.7 -1.3113 -0.595049 0
M  V30 11717 H 1137.66 -2.16946 -3.61265 0
M  V30 11718 H 1136.38 -1.03915 -3.09628 0
M  V30 11719 H 1135.04 -2.95791 -2.16572 0
M  V30 11720 H 1134.69 -2.20055 -4.52311 0
M  V30 11721 H 1134.39 -3.94821 -4.3519 0
M  V30 11722 H 1135.91 -3.3758 -5.08795 0
M  V30 11723 H 1137.33 -4.71867 -3.25598 0
M  V30 11724 H 1135.72 -5.33115 -2.75514 0
M  V30 11725 H 1136.79 -4.59516 -1.54831 0
M  V30 11726 N 1138.14 0.641106 -1.43971 0
M  V30 11727 C 1139.55 1.22254 -1.41106 0
M  V30 11728 C 1139.9 1.95825 -0.121284 0
M  V30 11729 O 1139.02 2.01901 0.77879 0
M  V30 11730 C 1139.62 2.22364 -2.55617 0
M  V30 11731 C 1138.18 2.75957 -2.55978 0
M  V30 11732 C 1137.33 1.50792 -2.32717 0
M  V30 11733 H 1140.28 0.432381 -1.52696 0
M  V30 11734 H 1140.3 3.04775 -2.27799 0
M  V30 11735 H 1139.81 1.68789 -3.49474 0
M  V30 11736 H 1137.91 3.33562 -1.66034 0
M  V30 11737 H 1138.02 3.22676 -3.54142 0
M  V30 11738 H 1136.39 1.7857 -1.81617 0
M  V30 11739 H 1137.17 0.991343 -3.28675 0
M  V30 11740 N 1139.62 1.30703 0.880598 0
M  V30 11741 C 1140.55 1.20033 2.00286 0
M  V30 11742 C 1141.53 0.0899614 1.69862 0
M  V30 11743 O 1142.71 0.272747 1.92275 0
M  V30 11744 C 1139.84 0.895902 3.35546 0
M  V30 11745 C 1138.8 1.96468 3.80242 0
M  V30 11746 C 1138.12 1.51316 5.12843 0
M  V30 11747 C 1139.42 3.37637 3.98496 0
M  V30 11748 H 1141.12 2.13922 2.0947 0
M  V30 11749 H 1138.66 1.02989 1.00644 0
M  V30 11750 H 1140.61 0.807899 4.13583 0
M  V30 11751 H 1139.34 -0.0786636 3.26505 0
M  V30 11752 H 1138 2.0424 3.04437 0
M  V30 11753 H 1137.65 0.52674 5.00234 0
M  V30 11754 H 1137.35 2.22807 5.43719 0
M  V30 11755 H 1138.87 1.43903 5.93401 0
M  V30 11756 H 1140.28 3.326 4.66959 0
M  V30 11757 H 1138.68 4.07253 4.40755 0
M  V30 11758 H 1139.75 3.79205 3.02211 0
M  V30 11759 N 1141.09 -1.09351 1.1349 0
M  V30 11760 C 1142.02 -2.18037 0.835588 0
M  V30 11761 C 1143 -1.68856 -0.205373 0
M  V30 11762 O 1144.19 -1.94094 -0.0641357 0
M  V30 11763 C 1141.32 -3.45987 0.301661 0
M  V30 11764 C 1140.27 -4.08507 1.27696 0
M  V30 11765 C 1139.6 -5.31292 0.602758 0
M  V30 11766 C 1140.9 -4.50916 2.63575 0
M  V30 11767 H 1142.59 -2.43332 1.74441 0
M  V30 11768 H 1140.14 -1.1695 0.840166 0
M  V30 11769 H 1142.09 -4.21324 0.079928 0
M  V30 11770 H 1140.82 -3.20217 -0.642552 0
M  V30 11771 H 1139.48 -3.3519 1.4847 0
M  V30 11772 H 1139.12 -5.01802 -0.346953 0
M  V30 11773 H 1138.82 -5.74075 1.25345 0
M  V30 11774 H 1140.35 -6.09351 0.390325 0
M  V30 11775 H 1141.76 -5.17474 2.46765 0
M  V30 11776 H 1140.16 -5.04586 3.24827 0
M  V30 11777 H 1141.23 -3.63279 3.2118 0
M  V30 11778 N 1142.57 -0.928524 -1.27343 0
M  V30 11779 C 1143.8 -0.58516 -1.98974 0
M  V30 11780 C 1144.22 0.829964 -1.68799 0
M  V30 11781 O 1143.58 1.55705 -0.928738 0
M  V30 11782 C 1143.63 -0.818662 -3.51184 0
M  V30 11783 O 1142.73 0.115355 -4.12239 0
M  V30 11784 H 1142.07 -0.225203 -0.624644 0
M  V30 11785 H 1144.6 -1.248 -1.6213 0
M  V30 11786 H 1144.61 -0.734554 -4.01333 0
M  V30 11787 H 1143.29 -1.8502 -3.72479 0
M  V30 11788 H 1141.86 -0.0187371 -3.72895 0
M  V30 11789 N 1144.05 1.41491 -0.694123 0
M  V30 11790 C 1145.3 2.0155 -0.224809 0
M  V30 11791 C 1145.63 1.54844 1.17205 0
M  V30 11792 O 1144.9 0.75899 1.7908 0
M  V30 11793 C 1145.19 3.59003 -0.280884 0
M  V30 11794 C 1145.04 4.15839 -1.71458 0
M  V30 11795 C 1146.36 4.38624 0.360122 0
M  V30 11796 H 1143.48 0.732293 -0.0831632 0
M  V30 11797 H 1146.12 1.68258 -0.882569 0
M  V30 11798 H 1144.27 3.87496 0.279164 0
M  V30 11799 H 1145.94 3.98227 -2.32837 0
M  V30 11800 H 1144.18 3.70936 -2.2492 0
M  V30 11801 H 1144.86 5.24997 -1.70536 0
M  V30 11802 H 1147.33 4.15936 -0.11683 0
M  V30 11803 H 1146.21 5.48132 0.290337 0
M  V30 11804 H 1146.47 4.1797 1.44062 0
M  V30 11805 N 1145.53 0.438773 1.51369 0
M  V30 11806 C 1146.75 -0.128221 2.07003 0
M  V30 11807 C 1147.18 -1.3557 1.30393 0
M  V30 11808 O 1146.54 -1.7804 0.342283 0
M  V30 11809 C 1146.58 -0.42761 3.58056 0
M  V30 11810 O 1145.69 -1.51382 3.83611 0
M  V30 11811 H 1145.03 -0.00123679 0.663999 0
M  V30 11812 H 1147.56 0.62052 1.94963 0
M  V30 11813 H 1147.57 -0.677645 4.02333 0
M  V30 11814 H 1146.24 0.469535 4.13241 0
M  V30 11815 H 1144.82 -1.25363 3.51196 0
M  V30 11816 N 1147.01 -1.56678 0.170181 0
M  V30 11817 C 1148.28 -1.88524 -0.521362 0
M  V30 11818 C 1148.66 -1.07989 -1.81388 0
M  V30 11819 O 1148.01 -0.17347 -2.27841 0
M  V30 11820 C 1148.22 -3.40527 -0.764367 0
M  V30 11821 C 1149.57 -4.10241 -1.09487 0
M  V30 11822 O 1150.59 -3.45837 -0.852945 0
M  V30 11823 O 1149.45 -5.24022 -1.55124 0
M  V30 11824 H 1146.55 -0.782161 -0.268614 0
M  V30 11825 H 1149.09 -1.68414 0.208531 0
M  V30 11826 H 1147.86 -3.91015 0.149416 0
M  V30 11827 H 1147.49 -3.66244 -1.54762 0
M  V30 11828 N 1148.48 0.103547 -1.57259 0
M  V30 11829 C 1149.89 0.659006 -1.74683 0
M  V30 11830 C 1150.25 1.79542 -0.791142 0
M  V30 11831 O 1149.37 2.16376 0.0323585 0
M  V30 11832 C 1149.97 1.20222 -3.16752 0
M  V30 11833 C 1148.52 1.70382 -3.35629 0
M  V30 11834 C 1147.67 0.609886 -2.7051 0
M  V30 11835 H 1150.62 -0.122474 -1.58227 0
M  V30 11836 H 1150.64 2.07169 -3.19157 0
M  V30 11837 H 1150.16 0.374901 -3.86285 0
M  V30 11838 H 1148.26 2.55542 -2.71162 0
M  V30 11839 H 1148.37 1.80263 -4.43894 0
M  V30 11840 H 1146.73 1.04728 -2.32173 0
M  V30 11841 H 1147.52 -0.206713 -3.42677 0
M  V30 11842 N 1149.96 1.53094 0.37415 0
M  V30 11843 C 1151.21 1.68861 1.11769 0
M  V30 11844 C 1151.54 0.436032 1.89549 0
M  V30 11845 O 1150.79 -0.581879 1.86849 0
M  V30 11846 C 1151.09 2.88432 2.11049 0
M  V30 11847 C 1150.76 4.25284 1.49814 0
M  V30 11848 C 1149.42 4.62501 1.32841 0
M  V30 11849 C 1151.77 5.10425 1.05433 0
M  V30 11850 C 1149.1 5.82502 0.700567 0
M  V30 11851 C 1151.45 6.31064 0.440525 0
M  V30 11852 C 1150.11 6.67 0.258216 0
M  V30 11853 H 1149.38 0.617906 0.40899 0
M  V30 11854 H 1152.03 1.87265 0.4005 0
M  V30 11855 H 1150.34 2.64505 2.8904 0
M  V30 11856 H 1152.03 2.97825 2.68517 0
M  V30 11857 H 1148.62 3.95976 1.64016 0
M  V30 11858 H 1152.81 4.82229 1.17342 0
M  V30 11859 H 1148.06 6.08942 0.547652 0
M  V30 11860 H 1152.24 6.96344 0.0883962 0
M  V30 11861 H 1149.86 7.59851 -0.230354 0
M  V30 11862 N 1151.44 -0.633461 1.44309 0
M  V30 11863 C 1152.69 -1.38902 1.4625 0
M  V30 11864 C 1153 -1.95354 0.0980699 0
M  V30 11865 O 1154.21 -2.715 -0.0049983 0
M  V30 11866 C 1152.66 -2.51477 2.57463 0
M  V30 11867 C 1152.27 -2.01549 4.00103 0
M  V30 11868 C 1154.02 -3.28698 2.68622 0
M  V30 11869 C 1151.92 -3.11452 5.02744 0
M  V30 11870 H 1150.85 -0.521976 0.544112 0
M  V30 11871 H 1153.5 -0.681725 1.70367 0
M  V30 11872 H 1151.89 -3.24771 2.26582 0
M  V30 11873 H 1153.06 -1.35135 4.4054 0
M  V30 11874 H 1151.37 -1.3715 3.93165 0
M  V30 11875 H 1153.97 -4.10624 3.42479 0
M  V30 11876 H 1154.31 -3.78027 1.7436 0
M  V30 11877 H 1154.85 -2.62494 2.98901 0
M  V30 11878 H 1151.59 -2.6707 5.98627 0
M  V30 11879 H 1151.11 -3.76514 4.66902 0
M  V30 11880 H 1152.79 -3.76265 5.2634 0
M  V30 11881 N 1152.92 -1.31168 -0.873655 0
M  V30 11882 C 1154.33 -1.18584 -1.44203 0
M  V30 11883 C 1154.68 0.209114 -1.95082 0
M  V30 11884 O 1153.81 1.10662 -1.85965 0
M  V30 11885 C 1154.4 -2.14668 -2.62112 0
M  V30 11886 C 1152.96 -2.06029 -3.15006 0
M  V30 11887 C 1152.11 -2.04106 -1.87712 0
M  V30 11888 H 1155.06 -1.43273 -0.682536 0
M  V30 11889 H 1155.08 -1.73413 -3.38686 0
M  V30 11890 H 1154.59 -3.16186 -2.25051 0
M  V30 11891 H 1152.69 -1.07693 -3.56697 0
M  V30 11892 H 1152.8 -2.9496 -3.77539 0
M  V30 11893 H 1151.17 -1.49069 -2.0652 0
M  V30 11894 H 1151.95 -3.07373 -1.52894 0
M  V30 11895 N 1154.4 1.08748 -1.14068 0
M  V30 11896 C 1155.33 2.17591 -0.84714 0
M  V30 11897 C 1156.31 1.68962 0.196415 0
M  V30 11898 O 1157.49 1.94125 0.0538415 0
M  V30 11899 C 1154.62 3.45823 -0.320005 0
M  V30 11900 C 1153.58 4.07824 -1.2986 0
M  V30 11901 C 1152.9 5.30965 -0.630925 0
M  V30 11902 C 1154.2 4.49512 -2.65963 0
M  V30 11903 H 1155.9 2.42404 -1.75729 0
M  V30 11904 H 1153.44 1.16502 -0.846356 0
M  V30 11905 H 1155.4 4.21276 -0.102271 0
M  V30 11906 H 1154.12 3.20553 0.625561 0
M  V30 11907 H 1152.78 3.34398 -1.50245 0
M  V30 11908 H 1152.43 5.01979 0.320337 0
M  V30 11909 H 1152.13 5.73402 -1.28388 0
M  V30 11910 H 1153.65 6.09136 -0.422635 0
M  V30 11911 H 1155.06 5.16159 -2.49506 0
M  V30 11912 H 1153.46 5.02857 -3.27498 0
M  V30 11913 H 1154.53 3.6157 -3.23102 0
M  V30 11914 N 1155.87 0.935264 1.26849 0
M  V30 11915 C 1156.81 0.397539 2.25726 0
M  V30 11916 C 1157.82 -0.475928 1.55688 0
M  V30 11917 O 1159.01 -0.287329 1.76172 0
M  V30 11918 C 1156.11 -0.448308 3.35922 0
M  V30 11919 C 1155.28 0.407624 4.35496 0
M  V30 11920 C 1154.34 -0.376815 5.24849 0
M  V30 11921 O 1153.37 0.218109 5.68782 0
M  V30 11922 N 1154.57 -1.67481 5.55815 0
M  V30 11923 H 1157.33 1.24753 2.72501 0
M  V30 11924 H 1154.89 0.803505 1.40554 0
M  V30 11925 H 1156.89 -0.980338 3.92647 0
M  V30 11926 H 1155.46 -1.19908 2.88688 0
M  V30 11927 H 1154.68 1.12091 3.77928 0
M  V30 11928 H 1155.96 0.992512 4.99026 0
M  V30 11929 H 1155.36 -2.18037 5.21993 0
M  V30 11930 H 1153.92 -2.15321 6.15207 0
M  V30 11931 N 1157.35 -1.41121 0.701616 0
M  V30 11932 C 1158.6 -2.01428 0.235495 0
M  V30 11933 C 1158.93 -1.55463 -1.16382 0
M  V30 11934 O 1158.21 -0.768477 -1.78675 0
M  V30 11935 C 1158.49 -3.58849 0.299919 0
M  V30 11936 C 1158.34 -4.14924 1.73661 0
M  V30 11937 C 1159.66 -4.38809 -0.336856 0
M  V30 11938 H 1156.78 -0.731842 0.0870456 0
M  V30 11939 H 1159.42 -1.67787 0.891479 0
M  V30 11940 H 1157.57 -3.87638 -0.258611 0
M  V30 11941 H 1159.24 -3.96987 2.34945 0
M  V30 11942 H 1157.49 -3.69738 2.26884 0
M  V30 11943 H 1158.16 -5.24085 1.73318 0
M  V30 11944 H 1160.63 -4.15868 0.138886 0
M  V30 11945 H 1159.51 -5.48278 -0.261264 0
M  V30 11946 H 1159.77 -4.18728 -1.41843 0
M  V30 11947 N 1158.83 -0.446794 -1.51134 0
M  V30 11948 C 1160.24 0.0141132 -1.86695 0
M  V30 11949 C 1160.59 1.41095 -1.36333 0
M  V30 11950 O 1159.72 2.04139 -0.718068 0
M  V30 11951 C 1160.31 0.0323866 -3.38785 0
M  V30 11952 C 1158.87 0.437737 -3.73846 0
M  V30 11953 C 1158.02 -0.363436 -2.74908 0
M  V30 11954 H 1160.97 -0.66221 -1.44224 0
M  V30 11955 H 1160.99 0.839865 -3.71115 0
M  V30 11956 H 1160.5 -0.984374 -3.75409 0
M  V30 11957 H 1158.6 1.45975 -3.42815 0
M  V30 11958 H 1158.72 0.155964 -4.78846 0
M  V30 11959 H 1157.08 0.179566 -2.54066 0
M  V30 11960 H 1157.86 -1.37925 -3.14375 0
M  V30 11961 N 1160.31 1.56586 -0.178487 0
M  V30 11962 C 1161.59 1.88798 0.511356 0
M  V30 11963 C 1161.97 1.08949 1.80813 0
M  V30 11964 O 1161.31 0.185551 2.27745 0
M  V30 11965 C 1161.52 3.40927 0.746298 0
M  V30 11966 C 1162.87 4.10816 1.0731 0
M  V30 11967 O 1163.9 3.46285 0.834592 0
M  V30 11968 O 1162.75 5.24837 1.52343 0
M  V30 11969 H 1159.85 0.783574 0.264463 0
M  V30 11970 H 1162.39 1.68301 -0.21746 0
M  V30 11971 H 1161.17 3.9093 -0.17015 0
M  V30 11972 H 1160.79 3.67059 1.52817 0
M  V30 11973 N 1161.79 -0.095206 1.57312 0
M  V30 11974 C 1162.75 -1.09974 2.01093 0
M  V30 11975 C 1163.75 -1.32954 0.904424 0
M  V30 11976 O 1164.94 -1.29069 1.16991 0
M  V30 11977 C 1162.07 -2.4489 2.37153 0
M  V30 11978 H 1163.26 -0.722906 2.91057 0
M  V30 11979 H 1160.82 -0.340249 1.52552 0
M  V30 11980 H 1161.55 -2.8745 1.50143 0
M  V30 11981 H 1161.34 -2.29559 3.17876 0
M  V30 11982 H 1162.83 -3.17141 2.71683 0
M  V30 11983 N 1163.26 -1.53291 -0.366026 0
M  V30 11984 C 1164.68 -1.61144 -0.942849 0
M  V30 11985 C 1165.03 -0.478571 -1.90274 0
M  V30 11986 O 1164.15 0.395069 -2.12763 0
M  V30 11987 C 1164.75 -2.92081 -1.71681 0
M  V30 11988 C 1163.31 -3.0227 -2.24298 0
M  V30 11989 C 1162.45 -2.56436 -1.05526 0
M  V30 11990 H 1165.4 -1.58038 -0.144835 0
M  V30 11991 H 1165.42 -2.79858 -2.57798 0
M  V30 11992 H 1164.94 -3.74513 -1.01793 0
M  V30 11993 H 1163.04 -2.24425 -2.97429 0
M  V30 11994 H 1163.15 -4.07341 -2.5221 0
M  V30 11995 H 1161.51 -2.11301 -1.42211 0
M  V30 11996 H 1162.3 -3.41285 -0.371376 0
M  V30 11997 N 1164.74 0.6258 -1.44643 0
M  V30 11998 C 1165.65 1.76611 -1.5442 0
M  V30 11999 C 1166.67 1.68614 -0.429576 0
M  V30 12000 O 1167.84 1.89296 -0.687686 0
M  V30 12001 C 1164.91 3.13015 -1.49071 0
M  V30 12002 C 1163.97 3.32604 -2.71428 0
M  V30 12003 C 1163.2 4.62501 -2.66325 0
M  V30 12004 O 1163.43 5.43651 -1.72626 0
M  V30 12005 O 1162.36 4.84408 -3.57258 0
M  V30 12006 H 1166.19 1.71315 -2.50769 0
M  V30 12007 H 1163.77 0.787677 -1.26949 0
M  V30 12008 H 1165.65 3.94318 -1.48631 0
M  V30 12009 H 1164.33 3.18842 -0.558686 0
M  V30 12010 H 1163.24 2.50959 -2.77435 0
M  V30 12011 H 1164.57 3.31642 -3.63695 0
M  V30 12012 N 1166.22 1.31629 0.866686 0
M  V30 12013 C 1167.17 1.19556 1.97421 0
M  V30 12014 C 1168.14 0.0805578 1.65905 0
M  V30 12015 O 1169.32 0.253997 1.89102 0
M  V30 12016 C 1166.46 0.912234 3.32825 0
M  V30 12017 C 1165.58 2.11088 3.76916 0
M  V30 12018 C 1164.71 1.76406 5.01053 0
M  V30 12019 C 1163.75 2.9266 5.37602 0
M  V30 12020 N 1162.89 2.58152 6.52918 0
M  V30 12021 H 1167.73 2.14294 2.0708 0
M  V30 12022 H 1165.26 1.06595 1.0137 0
M  V30 12023 H 1167.22 0.72851 4.1079 0
M  V30 12024 H 1165.85 0.00167404 3.228 0
M  V30 12025 H 1164.9 2.40527 2.94705 0
M  V30 12026 H 1166.22 2.98089 3.99931 0
M  V30 12027 H 1165.37 1.54515 5.86694 0
M  V30 12028 H 1164.11 0.866018 4.79949 0
M  V30 12029 H 1163.11 3.15196 4.50479 0
M  V30 12030 H 1164.34 3.83179 5.6067 0
M  V30 12031 H 1162.28 1.70874 6.33355 0
M  V30 12032 H 1162.2 3.38682 6.75892 0
M  V30 12033 H 1163.47 2.39662 7.41743 0
M  V30 12034 N 1167.7 -1.08142 1.14644 0
M  V30 12035 C 1168.63 -2.17139 0.858667 0
M  V30 12036 C 1169.61 -1.69064 -0.187452 0
M  V30 12037 O 1170.8 -1.94151 -0.0435458 0
M  V30 12038 C 1167.93 -3.45648 0.33834 0
M  V30 12039 C 1166.88 -4.07129 1.32021 0
M  V30 12040 C 1166.21 -5.30623 0.659075 0
M  V30 12041 C 1167.51 -4.48095 2.68343 0
M  V30 12042 H 1169.2 -2.41468 1.77012 0
M  V30 12043 H 1166.75 -1.16052 0.852523 0
M  V30 12044 H 1168.7 -4.21216 0.124611 0
M  V30 12045 H 1167.42 -3.2088 -0.608553 0
M  V30 12046 H 1166.08 -3.33596 1.52016 0
M  V30 12047 H 1165.73 -5.02142 -0.293711 0
M  V30 12048 H 1165.43 -5.72714 1.31427 0
M  V30 12049 H 1166.95 -6.08903 0.454933 0
M  V30 12050 H 1168.37 -5.14828 2.5224 0
M  V30 12051 H 1166.76 -5.01113 3.30161 0
M  V30 12052 H 1167.83 -3.59852 3.25015 0
M  V30 12053 N 1169.18 -0.941978 -1.26351 0
M  V30 12054 C 1170.43 -0.585711 -1.93009 0
M  V30 12055 C 1170.74 0.879507 -1.74711 0
M  V30 12056 O 1171.95 1.34518 -2.35833 0
M  V30 12057 C 1170.4 -0.996787 -3.45821 0
M  V30 12058 C 1170.01 -2.48367 -3.72851 0
M  V30 12059 C 1171.75 -0.712452 -4.18479 0
M  V30 12060 C 1169.66 -2.83341 -5.19107 0
M  V30 12061 H 1168.59 -0.215342 -0.722595 0
M  V30 12062 H 1171.24 -1.14472 -1.43417 0
M  V30 12063 H 1169.62 -0.366295 -3.94302 0
M  V30 12064 H 1170.8 -3.16328 -3.35072 0
M  V30 12065 H 1169.11 -2.74139 -3.13427 0
M  V30 12066 H 1171.71 -0.95007 -5.26192 0
M  V30 12067 H 1172.05 0.350811 -4.14819 0
M  V30 12068 H 1172.59 -1.3027 -3.75865 0
M  V30 12069 H 1169.32 -3.88633 -5.27868 0
M  V30 12070 H 1168.84 -2.20043 -5.5798 0
M  V30 12071 H 1170.52 -2.71849 -5.87118 0
M  V30 12072 N 1170.66 1.40747 -0.709091 0
M  V30 12073 C 1171.57 2.3454 -0.0532205 0
M  V30 12074 C 1172.58 1.56956 0.751057 0
M  V30 12075 O 1173.76 1.89375 0.685509 0
M  V30 12076 C 1170.82 3.35809 0.862157 0
M  V30 12077 C 1169.88 4.29273 0.0485632 0
M  V30 12078 C 1169.12 5.25705 0.920345 0
M  V30 12079 O 1169.34 5.27933 2.15969 0
M  V30 12080 O 1168.27 6.00806 0.3628 0
M  V30 12081 H 1172.1 2.92232 -0.826698 0
M  V30 12082 H 1169.68 1.4183 -0.469519 0
M  V30 12083 H 1171.57 3.97931 1.38668 0
M  V30 12084 H 1170.24 2.8054 1.61489 0
M  V30 12085 H 1169.15 3.70456 -0.520873 0
M  V30 12086 H 1170.48 4.87676 -0.665807 0
M  V30 12087 N 1172.13 0.454803 1.50895 0
M  V30 12088 C 1173.38 -0.105562 2.01824 0
M  V30 12089 C 1173.7 -1.41673 1.33992 0
M  V30 12090 O 1172.97 -1.89929 0.479994 0
M  V30 12091 H 1171.55 -0.0420011 0.745818 0
M  V30 12092 H 1174.21 0.601504 1.85386 0
M  V30 12093 H 1173.31 -0.268872 3.1094 0
M  V30 12094 N 1173.61 -1.56489 0.186789 0
M  V30 12095 C 1174.54 -2.21705 -0.732739 0
M  V30 12096 C 1175.52 -1.17751 -1.22755 0
M  V30 12097 O 1176.71 -1.46231 -1.27789 0
M  V30 12098 C 1173.84 -2.86992 -1.95584 0
M  V30 12099 C 1172.79 -3.97118 -1.59628 0
M  V30 12100 C 1172.12 -4.49529 -2.89531 0
M  V30 12101 C 1173.42 -5.15941 -0.812518 0
M  V30 12102 H 1175.11 -2.98802 -0.189094 0
M  V30 12103 H 1172.66 -1.43722 -0.0895099 0
M  V30 12104 H 1174.61 -3.31295 -2.60426 0
M  V30 12105 H 1173.33 -2.07287 -2.52388 0
M  V30 12106 H 1171.99 -3.53494 -0.971475 0
M  V30 12107 H 1171.64 -3.66596 -3.44407 0
M  V30 12108 H 1171.34 -5.23832 -2.66221 0
M  V30 12109 H 1172.87 -4.96528 -3.55376 0
M  V30 12110 H 1174.28 -5.56841 -1.36386 0
M  V30 12111 H 1172.68 -5.96259 -0.677862 0
M  V30 12112 H 1173.75 -4.84535 0.188095 0
M  V30 12113 N 1175.09 0.086862 -1.5736 0
M  V30 12114 C 1176.04 1.10478 -2.02641 0
M  V30 12115 C 1177.01 1.39331 -0.904219 0
M  V30 12116 O 1178.19 1.50654 -1.17081 0
M  V30 12117 C 1175.33 2.41754 -2.4627 0
M  V30 12118 C 1174.44 2.19561 -3.72044 0
M  V30 12119 C 1173.58 3.44294 -4.04519 0
M  V30 12120 C 1172.62 3.17399 -5.23378 0
M  V30 12121 N 1171.76 4.3442 -5.51564 0
M  V30 12122 H 1176.6 0.711663 -2.89378 0
M  V30 12123 H 1174.13 0.339856 -1.4312 0
M  V30 12124 H 1176.09 3.18378 -2.69613 0
M  V30 12125 H 1174.72 2.78896 -1.62532 0
M  V30 12126 H 1173.77 1.337 -3.5613 0
M  V30 12127 H 1175.08 1.95685 -4.58812 0
M  V30 12128 H 1174.24 4.29321 -4.28682 0
M  V30 12129 H 1172.98 3.71232 -3.16289 0
M  V30 12130 H 1171.98 2.30765 -4.99026 0
M  V30 12131 H 1173.21 2.91799 -6.13213 0
M  V30 12132 H 1171.15 4.61418 -4.66293 0
M  V30 12133 H 1171.07 4.13764 -6.3272 0
M  V30 12134 H 1172.34 5.20489 -5.80269 0
M  V30 12135 N 1176.57 1.53483 0.357892 0
M  V30 12136 C 1177.79 1.74264 1.12458 0
M  V30 12137 C 1178.22 0.473944 1.82031 0
M  V30 12138 O 1177.58 -0.57253 1.72023 0
M  V30 12139 C 1177.62 2.91356 2.12471 0
M  V30 12140 O 1176.73 2.60502 3.19707 0
M  V30 12141 H 1176.07 0.578499 0.325937 0
M  V30 12142 H 1178.6 2.00395 0.412666 0
M  V30 12143 H 1178.61 3.1774 2.5594 0
M  V30 12144 H 1177.28 3.83378 1.61226 0
M  V30 12145 H 1175.86 2.44961 2.81156 0
M  V30 12146 N 1178.05 -0.61812 1.44973 0
M  V30 12147 C 1179.46 -1.19994 1.43033 0
M  V30 12148 C 1179.81 -1.95607 0.152422 0
M  V30 12149 O 1178.93 -2.03114 -0.746571 0
M  V30 12150 C 1179.53 -2.18269 2.59122 0
M  V30 12151 C 1178.09 -2.7185 2.60336 0
M  V30 12152 C 1177.23 -1.4707 2.35086 0
M  V30 12153 H 1180.18 -0.408034 1.53365 0
M  V30 12154 H 1180.21 -3.01113 2.32619 0
M  V30 12155 H 1179.72 -1.63208 3.52115 0
M  V30 12156 H 1177.82 -3.30878 1.7132 0
M  V30 12157 H 1177.93 -3.17001 3.59231 0
M  V30 12158 H 1176.3 -1.75658 1.84435 0
M  V30 12159 H 1177.08 -0.938928 3.30211 0
M  V30 12160 N 1179.52 -1.32087 -0.859693 0
M  V30 12161 C 1180.8 -1.12984 -1.59668 0
M  V30 12162 C 1181.18 0.311661 -2.08787 0
M  V30 12163 O 1180.53 1.30746 -1.87397 0
M  V30 12164 C 1180.74 -2.15305 -2.74672 0
M  V30 12165 C 1182.09 -2.48371 -3.44379 0
M  V30 12166 O 1183.11 -2.13811 -2.84891 0
M  V30 12167 O 1181.97 -3.07594 -4.51717 0
M  V30 12168 H 1179.06 -0.435657 -0.702945 0
M  V30 12169 H 1181.61 -1.43601 -0.90426 0
M  V30 12170 H 1180.38 -3.12223 -2.35866 0
M  V30 12171 H 1180 -1.85653 -3.51594 0
M  V30 12172 N 1181 1.07532 -1.15215 0
M  V30 12173 C 1182.23 1.83817 -0.949687 0
M  V30 12174 C 1182.64 1.82004 0.501991 0
M  V30 12175 O 1182 1.23014 1.34811 0
M  V30 12176 C 1182.05 3.30978 -1.45382 0
M  V30 12177 O 1181.77 3.32844 -2.84863 0
M  V30 12178 C 1183.27 4.24037 -1.29257 0
M  V30 12179 H 1180.49 0.58 -0.337404 0
M  V30 12180 H 1183.04 1.35752 -1.52944 0
M  V30 12181 H 1181.19 3.76399 -0.916638 0
M  V30 12182 H 1181.61 4.24773 -3.07682 0
M  V30 12183 H 1183.08 5.25371 -1.69379 0
M  V30 12184 H 1183.56 4.38563 -0.236519 0
M  V30 12185 H 1184.16 3.8445 -1.81874 0
M  V30 12186 N 1182.48 0.948665 1.2585 0
M  V30 12187 C 1183.71 0.616741 1.98018 0
M  V30 12188 C 1184.13 -0.803005 1.70098 0
M  V30 12189 O 1183.49 -1.54208 0.953392 0
M  V30 12190 C 1183.54 0.874429 3.49837 0
M  V30 12191 O 1182.64 -0.0497568 4.1237 0
M  V30 12192 H 1181.98 0.235112 0.620982 0
M  V30 12193 H 1184.51 1.27364 1.60124 0
M  V30 12194 H 1184.52 0.798309 4.00114 0
M  V30 12195 H 1183.2 1.90922 3.69488 0
M  V30 12196 H 1181.77 0.0780591 3.72818 0
M  V30 12197 N 1183.96 -1.40369 0.716545 0
M  V30 12198 C 1184.89 -2.33365 0.0793533 0
M  V30 12199 C 1185.87 -1.52943 -0.744482 0
M  V30 12200 O 1187.05 -1.81406 -0.693212 0
M  V30 12201 C 1184.18 -3.36928 -0.842429 0
M  V30 12202 C 1183.14 -4.2782 -0.124142 0
M  V30 12203 C 1182.46 -5.21928 -1.1617 0
M  V30 12204 C 1183.76 -5.12199 1.02224 0
M  V30 12205 H 1185.46 -2.86899 0.856115 0
M  V30 12206 H 1183 -1.37946 0.413138 0
M  V30 12207 H 1184.96 -4.00925 -1.29759 0
M  V30 12208 H 1183.68 -2.81791 -1.6511 0
M  V30 12209 H 1182.34 -3.65277 0.311201 0
M  V30 12210 H 1181.99 -4.63096 -1.96345 0
M  V30 12211 H 1181.69 -5.83582 -0.685978 0
M  V30 12212 H 1183.21 -5.88802 -1.61694 0
M  V30 12213 H 1184.63 -5.69644 0.646399 0
M  V30 12214 H 1183.02 -5.82901 1.4264 0
M  V30 12215 H 1184.09 -4.4812 1.85246 0
M  V30 12216 N 1185.44 -0.462799 -1.50652 0
M  V30 12217 C 1186.37 0.325724 -2.31217 0
M  V30 12218 C 1187.35 0.997942 -1.3775 0
M  V30 12219 O 1188.53 0.996707 -1.66671 0
M  V30 12220 C 1185.66 1.41283 -3.17264 0
M  V30 12221 C 1184.62 0.862687 -4.19216 0
M  V30 12222 C 1183.94 2.04746 -4.93946 0
M  V30 12223 C 1185.24 -0.120365 -5.22161 0
M  V30 12224 H 1186.94 -0.346666 -2.97386 0
M  V30 12225 H 1184.48 -0.168163 -1.43015 0
M  V30 12226 H 1186.44 1.97188 -3.72418 0
M  V30 12227 H 1185.16 2.11387 -2.48964 0
M  V30 12228 H 1183.82 0.325671 -3.65151 0
M  V30 12229 H 1183.47 2.73529 -4.22127 0
M  V30 12230 H 1183.17 1.68562 -5.62904 0
M  V30 12231 H 1184.69 2.61157 -5.51932 0
M  V30 12232 H 1186.1 0.349226 -5.72235 0
M  V30 12233 H 1184.5 -0.396061 -5.98792 0
M  V30 12234 H 1185.57 -1.04895 -4.73418 0
M  V30 12235 N 1186.91 1.56388 -0.195085 0
M  V30 12236 C 1187.84 2.22091 0.720971 0
M  V30 12237 C 1188.83 1.184 1.22128 0
M  V30 12238 O 1190.01 1.46907 1.27012 0
M  V30 12239 C 1187.14 2.88025 1.94059 0
M  V30 12240 C 1186.09 3.97959 1.5752 0
M  V30 12241 C 1185.42 4.51058 2.87143 0
M  V30 12242 C 1186.72 5.16365 0.785145 0
M  V30 12243 H 1188.41 2.98898 0.173245 0
M  V30 12244 H 1185.96 1.43767 0.0818868 0
M  V30 12245 H 1187.91 3.32671 2.58666 0
M  V30 12246 H 1186.64 2.08623 2.51285 0
M  V30 12247 H 1185.3 3.54004 0.952715 0
M  V30 12248 H 1184.94 3.68418 3.42458 0
M  V30 12249 H 1184.64 5.25237 2.63439 0
M  V30 12250 H 1186.17 4.98406 3.52738 0
M  V30 12251 H 1187.58 5.57556 1.33431 0
M  V30 12252 H 1185.98 5.9661 0.646231 0
M  V30 12253 H 1187.05 4.84428 -0.213789 0
M  V30 12254 N 1188.39 -0.0785156 1.57404 0
M  V30 12255 C 1189.8 -0.631132 1.75709 0
M  V30 12256 C 1190.15 -1.78261 0.819605 0
M  V30 12257 O 1189.28 -2.164 0.00206912 0
M  V30 12258 C 1189.87 -1.15168 3.18625 0
M  V30 12259 C 1188.43 -1.65021 3.38297 0
M  V30 12260 C 1187.58 -0.566773 2.71446 0
M  V30 12261 H 1190.53 0.147631 1.58012 0
M  V30 12262 H 1190.55 -2.02065 3.22413 0
M  V30 12263 H 1190.06 -0.313399 3.86833 0
M  V30 12264 H 1188.17 -2.51196 2.75194 0
M  V30 12265 H 1188.28 -1.73179 4.46706 0
M  V30 12266 H 1186.64 -1.01021 2.33809 0
M  V30 12267 H 1187.43 0.261204 3.42305 0
M  V30 12268 N 1189.87 -1.5367 -0.349747 0
M  V30 12269 C 1191.15 -1.61238 -1.10732 0
M  V30 12270 C 1191.53 -0.429756 -2.06679 0
M  V30 12271 O 1190.88 0.578564 -2.21054 0
M  V30 12272 C 1191.09 -2.97022 -1.83245 0
M  V30 12273 C 1192.43 -3.52158 -2.37212 0
M  V30 12274 O 1193.46 -2.99156 -1.9335 0
M  V30 12275 O 1192.32 -4.44853 -3.1744 0
M  V30 12276 H 1189.41 -0.65191 -0.508864 0
M  V30 12277 H 1191.96 -1.66015 -0.351738 0
M  V30 12278 H 1190.73 -3.74535 -1.13311 0
M  V30 12279 H 1190.35 -2.95808 -2.65675 0
M  V30 12280 N 1191.35 0.610423 -1.45298 0
M  V30 12281 C 1192.28 1.73207 -1.56594 0
M  V30 12282 C 1193.26 1.64893 -0.417651 0
M  V30 12283 O 1194.44 1.83336 -0.64043 0
M  V30 12284 C 1191.57 3.11803 -1.52959 0
M  V30 12285 C 1190.53 3.34925 -2.66475 0
M  V30 12286 C 1189.85 4.73764 -2.47894 0
M  V30 12287 C 1191.15 3.25456 -4.08504 0
M  V30 12288 H 1192.85 1.6401 -2.50482 0
M  V30 12289 H 1190.39 0.787621 -1.20551 0
M  V30 12290 H 1192.35 3.90065 -1.59458 0
M  V30 12291 H 1191.07 3.21833 -0.55599 0
M  V30 12292 H 1189.73 2.59051 -2.59399 0
M  V30 12293 H 1189.38 4.80524 -1.4868 0
M  V30 12294 H 1189.08 4.90191 -3.24016 0
M  V30 12295 H 1190.6 5.54231 -2.56243 0
M  V30 12296 H 1192.02 3.93597 -4.16839 0
M  V30 12297 H 1190.41 3.53414 -4.84994 0
M  V30 12298 H 1191.48 2.22939 -4.30612 0
M  V30 12299 N 1192.83 1.32541 0.852676 0
M  V30 12300 C 1193.76 1.24254 1.97694 0
M  V30 12301 C 1194.74 0.125971 1.69633 0
M  V30 12302 O 1195.92 0.31347 1.91653 0
M  V30 12303 C 1193.05 0.966874 3.3357 0
M  V30 12304 C 1192.01 2.0449 3.75989 0
M  V30 12305 C 1191.33 1.6216 5.09518 0
M  V30 12306 C 1192.63 3.46013 3.91244 0
M  V30 12307 H 1194.33 2.18317 2.04886 0
M  V30 12308 H 1191.87 1.05101 0.984371 0
M  V30 12309 H 1193.83 0.895444 4.11776 0
M  V30 12310 H 1192.55 -0.0093893 3.26599 0
M  V30 12311 H 1191.21 2.10651 3.00036 0
M  V30 12312 H 1190.86 0.632729 4.99005 0
M  V30 12313 H 1190.56 2.3429 5.38871 0
M  V30 12314 H 1192.08 1.56457 5.90215 0
M  V30 12315 H 1193.49 3.4243 4.59799 0
M  V30 12316 H 1191.89 4.1651 4.32017 0
M  V30 12317 H 1192.96 3.8553 2.941 0
M  V30 12318 N 1194.3 -1.0692 1.15784 0
M  V30 12319 C 1195.72 -1.61069 0.944123 0
M  V30 12320 C 1196.07 -1.8936 -0.513522 0
M  V30 12321 O 1195.19 -1.66232 -1.38549 0
M  V30 12322 C 1195.79 -2.9263 1.70743 0
M  V30 12323 C 1194.35 -3.43505 1.53887 0
M  V30 12324 C 1193.49 -2.17495 1.72021 0
M  V30 12325 H 1196.44 -0.89951 1.30746 0
M  V30 12326 H 1196.46 -3.61757 1.17951 0
M  V30 12327 H 1195.98 -2.72007 2.76828 0
M  V30 12328 H 1194.08 -3.69201 0.502153 0
M  V30 12329 H 1194.19 -4.19254 2.31868 0
M  V30 12330 H 1192.55 -2.27407 1.1471 0
M  V30 12331 H 1193.34 -1.99362 2.79481 0
M  V30 12332 N 1195.78 -0.955326 -1.25345 0
M  V30 12333 C 1196.72 -0.420299 -2.24296 0
M  V30 12334 C 1197.69 0.498753 -1.54762 0
M  V30 12335 O 1198.88 0.432971 -1.8346 0
M  V30 12336 C 1196 0.394576 -3.36394 0
M  V30 12337 C 1195.05 -0.464973 -4.23958 0
M  V30 12338 S 1195.88 -1.89764 -5.00749 0
M  V30 12339 C 1197.04 -1.09121 -6.16314 0
M  V30 12340 H 1197.27 -1.25888 -2.69331 0
M  V30 12341 H 1194.81 -0.759449 -1.34431 0
M  V30 12342 H 1196.76 0.858788 -4.01416 0
M  V30 12343 H 1195.42 1.20799 -2.89942 0
M  V30 12344 H 1194.62 0.160055 -5.03746 0
M  V30 12345 H 1194.22 -0.864422 -3.63873 0
M  V30 12346 H 1196.51 -0.340218 -6.76645 0
M  V30 12347 H 1197.45 -1.86304 -6.83152 0
M  V30 12348 H 1197.86 -0.621033 -5.61073 0
M  V30 12349 N 1197.26 1.39987 -0.723979 0
M  V30 12350 C 1198.49 2.05037 -0.27702 0
M  V30 12351 C 1198.9 1.54565 1.08421 0
M  V30 12352 O 1198.26 0.705795 1.683 0
M  V30 12353 C 1198.31 3.60582 -0.25751 0
M  V30 12354 O 1198.03 4.09194 -1.565 0
M  V30 12355 C 1199.53 4.42817 0.206972 0
M  V30 12356 H 1196.75 0.659637 -0.122963 0
M  V30 12357 H 1199.3 1.7924 -0.98454 0
M  V30 12358 H 1197.45 3.85319 0.401037 0
M  V30 12359 H 1197.87 5.03447 -1.47112 0
M  V30 12360 H 1199.34 5.5174 0.16947 0
M  V30 12361 H 1199.82 4.21023 1.25045 0
M  V30 12362 H 1200.42 4.23205 -0.421604 0
M  V30 12363 N 1198.74 0.470782 1.50404 0
M  V30 12364 C 1200.02 -0.145879 1.95055 0
M  V30 12365 C 1200.4 -1.57004 1.41114 0
M  V30 12366 O 1199.74 -2.20152 0.612006 0
M  V30 12367 C 1199.95 -0.0895071 3.48885 0
M  V30 12368 C 1201.3 -0.278548 4.23685 0
M  V30 12369 O 1202.33 -0.166105 3.55812 0
M  V30 12370 O 1201.19 -0.505606 5.44156 0
M  V30 12371 H 1198.28 -0.111838 0.819403 0
M  V30 12372 H 1200.83 0.531162 1.61173 0
M  V30 12373 H 1199.6 0.904836 3.80695 0
M  V30 12374 H 1199.22 -0.808019 3.89303 0
M  V30 12375 N 1200.22 -1.56282 0.203376 0
M  V30 12376 C 1201.63 -1.84146 -0.307752 0
M  V30 12377 C 1201.98 -1.12429 -1.60792 0
M  V30 12378 O 1201.1 -0.387852 -2.12896 0
M  V30 12379 C 1201.7 -3.34053 -0.565152 0
M  V30 12380 C 1200.26 -3.62298 -1.02063 0
M  V30 12381 C 1199.41 -2.77202 -0.0737343 0
M  V30 12382 H 1202.36 -1.52848 0.426983 0
M  V30 12383 H 1202.38 -3.53273 -1.41345 0
M  V30 12384 H 1201.89 -3.86222 0.381301 0
M  V30 12385 H 1199.99 -3.1557 -1.98107 0
M  V30 12386 H 1200.1 -4.70424 -0.907614 0
M  V30 12387 H 1198.47 -2.48074 -0.577169 0
M  V30 12388 H 1199.25 -3.32164 0.86731 0
M  V30 12389 N 1201.7 0.070167 -1.57444 0
M  V30 12390 C 1202.94 0.769014 -1.8733 0
M  V30 12391 C 1203.27 1.77496 -0.79533 0
M  V30 12392 O 1202.53 1.94586 0.208495 0
M  V30 12393 C 1202.82 1.5111 -3.23883 0
M  V30 12394 C 1202.49 0.644988 -4.46263 0
M  V30 12395 C 1201.15 0.406307 -4.79482 0
M  V30 12396 C 1203.5 0.0444938 -5.21181 0
M  V30 12397 C 1200.83 -0.442322 -5.8503 0
M  V30 12398 C 1203.18 -0.791599 -6.27628 0
M  V30 12399 C 1201.85 -1.04014 -6.59346 0
M  V30 12400 H 1201.12 0.281402 -0.685488 0
M  V30 12401 H 1203.77 0.029752 -1.91477 0
M  V30 12402 H 1202.07 2.32261 -3.15535 0
M  V30 12403 H 1203.77 2.05665 -3.44242 0
M  V30 12404 H 1200.36 0.841148 -4.20265 0
M  V30 12405 H 1204.54 0.216005 -4.9583 0
M  V30 12406 H 1199.8 -0.643607 -6.08003 0
M  V30 12407 H 1203.97 -1.26363 -6.8484 0
M  V30 12408 H 1201.6 -1.69949 -7.4096 0
M  V30 12409 N 1203.17 1.53854 0.341593 0
M  V30 12410 C 1204.42 1.70856 1.07948 0
M  V30 12411 C 1204.74 0.475474 1.89114 0
M  V30 12412 O 1204.01 -0.510592 1.89129 0
M  V30 12413 H 1202.59 0.629914 0.401519 0
M  V30 12414 H 1205.25 1.91112 0.382393 0
M  V30 12415 H 1204.35 2.5803 1.75575 0
M  V30 12416 N 1204.65 -0.602709 1.4562 0
M  V30 12417 C 1205.88 -1.39299 1.53657 0
M  V30 12418 C 1206.3 -1.87315 0.171632 0
M  V30 12419 O 1205.66 -1.60423 -0.844639 0
M  V30 12420 C 1205.71 -2.57021 2.52928 0
M  V30 12421 O 1204.81 -3.57812 2.05047 0
M  V30 12422 H 1204.15 -0.41567 0.517798 0
M  V30 12423 H 1206.68 -0.73304 1.91018 0
M  V30 12424 H 1206.69 -3.04202 2.71892 0
M  V30 12425 H 1205.37 -2.21422 3.52058 0
M  V30 12426 H 1203.94 -3.17247 1.95981 0
M  V30 12427 N 1206.13 -1.32992 -0.845635 0
M  V30 12428 C 1207.36 -1.27087 -1.63268 0
M  V30 12429 C 1207.77 0.159481 -1.88125 0
M  V30 12430 O 1207.13 1.09948 -1.45663 0
M  V30 12431 C 1207.18 -2.03649 -2.98679 0
M  V30 12432 O 1206.9 -3.41104 -2.74918 0
M  V30 12433 C 1208.4 -2.04875 -3.93117 0
M  V30 12434 H 1205.62 -0.438107 -0.508236 0
M  V30 12435 H 1208.17 -1.75257 -1.05381 0
M  V30 12436 H 1206.32 -1.59178 -3.53187 0
M  V30 12437 H 1206.74 -3.80405 -3.61099 0
M  V30 12438 H 1208.21 -2.62911 -4.85368 0
M  V30 12439 H 1208.69 -1.03728 -4.26775 0
M  V30 12440 H 1209.29 -2.49334 -3.44547 0
M  V30 12441 N 1207.61 1.06304 -1.1635 0
M  V30 12442 C 1208.83 1.83338 -0.969639 0
M  V30 12443 C 1209.26 1.81945 0.477231 0
M  V30 12444 O 1208.62 1.22018 1.34094 0
M  V30 12445 C 1208.66 3.2785 -1.50155 0
M  V30 12446 O 1207.77 4.06281 -0.707805 0
M  V30 12447 H 1207.11 0.567293 -0.345072 0
M  V30 12448 H 1209.64 1.34033 -1.54584 0
M  V30 12449 H 1209.65 3.7867 -1.51898 0
M  V30 12450 H 1208.32 3.28179 -2.55483 0
M  V30 12451 H 1206.9 3.65055 -0.760872 0
M  V30 12452 N 1209.09 0.96196 1.24836 0
M  V30 12453 C 1210.36 0.537809 1.88061 0
M  V30 12454 C 1210.74 -0.985023 1.8671 0
M  V30 12455 O 1210.09 -1.85394 1.33572 0
M  V30 12456 C 1210.3 1.12279 3.30446 0
M  V30 12457 C 1211.65 1.20414 4.07168 0
M  V30 12458 O 1212.67 1.07488 3.39595 0
M  V30 12459 O 1211.53 1.4078 5.28056 0
M  V30 12460 H 1208.63 0.178491 0.807509 0
M  V30 12461 H 1211.17 1.05586 1.32852 0
M  V30 12462 H 1209.94 2.16578 3.25898 0
M  V30 12463 H 1209.57 0.58843 3.93222 0
M  V30 12464 N 1210.56 -1.39601 0.731392 0
M  V30 12465 C 1211.53 -2.28992 0.0976037 0
M  V30 12466 C 1212.53 -1.46135 -0.670917 0
M  V30 12467 O 1213.72 -1.66856 -0.50047 0
M  V30 12468 C 1210.85 -3.29582 -0.871124 0
M  V30 12469 H 1212.04 -2.86541 0.885112 0
M  V30 12470 H 1209.59 -1.48188 0.497002 0
M  V30 12471 H 1210.33 -2.77082 -1.68512 0
M  V30 12472 H 1210.11 -3.9077 -0.322735 0
M  V30 12473 H 1211.6 -3.96479 -1.31126 0
M  V30 12474 N 1212.04 -0.478751 -1.50152 0
M  V30 12475 C 1213.29 0.073694 -2.02666 0
M  V30 12476 C 1213.62 1.38679 -1.35947 0
M  V30 12477 O 1212.9 1.88286 -0.4877 0
M  V30 12478 C 1213.18 0.249516 -3.59235 0
M  V30 12479 C 1213.03 -1.08514 -4.36514 0
M  V30 12480 C 1214.35 1.00053 -4.28576 0
M  V30 12481 H 1211.47 0.0253082 -0.736565 0
M  V30 12482 H 1214.11 -0.625834 -1.79397 0
M  V30 12483 H 1212.26 0.845343 -3.79192 0
M  V30 12484 H 1213.93 -1.71814 -4.28109 0
M  V30 12485 H 1212.18 -1.67992 -3.99952 0
M  V30 12486 H 1212.85 -0.915676 -5.44352 0
M  V30 12487 H 1215.32 0.495422 -4.1314 0
M  V30 12488 H 1214.2 1.09236 -5.37921 0
M  V30 12489 H 1214.46 2.03896 -3.92274 0
M  V30 12490 N 1213.52 1.56172 -0.211661 0
M  V30 12491 C 1214.77 1.97214 0.423008 0
M  V30 12492 C 1215.08 1.10203 1.616 0
M  V30 12493 O 1216.29 1.411 2.31955 0
M  V30 12494 C 1214.74 3.50805 0.803977 0
M  V30 12495 C 1214.35 4.46505 -0.365654 0
M  V30 12496 C 1216.1 4.00582 1.4048 0
M  V30 12497 C 1214 5.91388 0.0371986 0
M  V30 12498 H 1212.93 0.736432 0.161814 0
M  V30 12499 H 1215.58 1.80925 -0.306307 0
M  V30 12500 H 1213.97 3.62659 1.59043 0
M  V30 12501 H 1215.14 4.46394 -1.14321 0
M  V30 12502 H 1213.46 4.07015 -0.879061 0
M  V30 12503 H 1216.05 5.06317 1.71894 0
M  V30 12504 H 1216.4 3.45853 2.31713 0
M  V30 12505 H 1216.93 3.9191 0.681984 0
M  V30 12506 H 1213.67 6.50078 -0.841367 0
M  V30 12507 H 1213.19 5.94716 0.77927 0
M  V30 12508 H 1214.87 6.4531 0.467309 0
M  V30 12509 N 1215 -0.0618163 1.57479 0
M  V30 12510 C 1215.91 -1.09006 2.07738 0
M  V30 12511 C 1216.92 -1.4176 1.00896 0
M  V30 12512 O 1218.1 -1.51737 1.32431 0
M  V30 12513 C 1215.17 -2.38153 2.5196 0
M  V30 12514 C 1214.23 -2.12279 3.73143 0
M  V30 12515 C 1213.46 -3.35269 4.15248 0
M  V30 12516 O 1213.68 -4.44758 3.57137 0
M  V30 12517 O 1212.62 -3.22894 5.0796 0
M  V30 12518 H 1216.44 -0.693059 2.95686 0
M  V30 12519 H 1214.03 -0.276628 1.46817 0
M  V30 12520 H 1215.91 -3.14139 2.80882 0
M  V30 12521 H 1214.58 -2.77213 1.67137 0
M  V30 12522 H 1213.49 -1.33966 3.49291 0
M  V30 12523 H 1214.82 -1.78094 4.5885 0
M  V30 12524 N 1216.48 -1.54033 -0.333429 0
M  V30 12525 C 1217.42 -1.82729 -1.40992 0
M  V30 12526 C 1218.39 -0.673677 -1.51825 0
M  V30 12527 O 1219.58 -0.919126 -1.67203 0
M  V30 12528 C 1216.72 -2.05155 -2.77498 0
M  V30 12529 C 1215.83 -3.32854 -2.75376 0
M  V30 12530 C 1214.97 -3.45294 -4.03665 0
M  V30 12531 C 1214.01 -4.66905 -3.95811 0
M  V30 12532 N 1213.14 -4.76323 -5.1581 0
M  V30 12533 H 1217.98 -2.74572 -1.15821 0
M  V30 12534 H 1215.52 -1.35988 -0.560859 0
M  V30 12535 H 1217.48 -2.16148 -3.56841 0
M  V30 12536 H 1216.11 -1.16615 -3.01 0
M  V30 12537 H 1215.16 -3.30651 -1.88081 0
M  V30 12538 H 1216.47 -4.22299 -2.65453 0
M  V30 12539 H 1215.63 -3.55775 -4.91436 0
M  V30 12540 H 1214.36 -2.53924 -4.16382 0
M  V30 12541 H 1213.37 -4.56491 -3.06425 0
M  V30 12542 H 1214.59 -5.59649 -3.84668 0
M  V30 12543 H 1212.54 -3.87866 -5.29052 0
M  V30 12544 H 1212.46 -5.59719 -5.08184 0
M  V30 12545 H 1213.73 -4.91125 -6.05324 0
M  V30 12546 N 1217.95 0.594978 -1.45938 0
M  V30 12547 C 1218.92 1.68688 -1.55168 0
M  V30 12548 C 1219.92 1.54945 -0.429951 0
M  V30 12549 O 1221.11 1.59785 -0.693859 0
M  V30 12550 C 1218.24 3.0804 -1.46027 0
M  V30 12551 H 1219.43 1.61866 -2.52467 0
M  V30 12552 H 1216.99 0.811785 -1.33565 0
M  V30 12553 H 1217.72 3.20428 -0.499614 0
M  V30 12554 H 1217.51 3.19423 -2.27401 0
M  V30 12555 H 1219 3.8755 -1.55546 0
M  V30 12556 N 1219.43 1.33438 0.838571 0
M  V30 12557 C 1220.71 1.1551 1.5785 0
M  V30 12558 C 1221.09 -0.278405 2.09256 0
M  V30 12559 O 1220.44 -1.27748 1.89453 0
M  V30 12560 C 1220.65 2.19647 2.71212 0
M  V30 12561 C 1222 2.53818 3.40384 0
M  V30 12562 O 1223.02 2.18317 2.81454 0
M  V30 12563 O 1221.88 3.14741 4.46766 0
M  V30 12564 H 1218.97 0.446785 0.695925 0
M  V30 12565 H 1221.52 1.45021 0.8813 0
M  V30 12566 H 1220.29 3.15936 2.30869 0
M  V30 12567 H 1219.91 1.91224 3.48596 0
M  V30 12568 N 1220.91 -1.05686 1.16912 0
M  V30 12569 C 1222.16 -1.78862 0.955839 0
M  V30 12570 C 1222.49 -1.87257 -0.514645 0
M  V30 12571 O 1221.76 -1.36869 -1.38193 0
M  V30 12572 C 1222.05 -3.23021 1.59152 0
M  V30 12573 C 1221.9 -3.22669 3.13376 0
M  V30 12574 C 1223.22 -4.2073 1.29128 0
M  V30 12575 H 1220.34 -0.64931 0.348663 0
M  V30 12576 H 1222.98 -1.23561 1.44335 0
M  V30 12577 H 1221.13 -3.70243 1.17697 0
M  V30 12578 H 1222.8 -2.83562 3.63855 0
M  V30 12579 H 1221.05 -2.61149 3.46386 0
M  V30 12580 H 1221.72 -4.24394 3.52979 0
M  V30 12581 H 1224.19 -3.8198 1.65017 0
M  V30 12582 H 1223.07 -5.19851 1.76198 0
M  V30 12583 H 1223.33 -4.41595 0.21119 0
M  V30 12584 N 1222.39 -0.968567 -1.24324 0
M  V30 12585 C 1223.35 -0.504307 -2.23583 0
M  V30 12586 C 1224.35 0.399626 -1.55755 0
M  V30 12587 O 1225.54 0.194966 -1.73106 0
M  V30 12588 C 1222.67 0.26956 -3.39833 0
M  V30 12589 H 1223.87 -1.3818 -2.6617 0
M  V30 12590 H 1221.42 -0.753241 -1.36952 0
M  V30 12591 H 1222.15 1.16411 -3.02686 0
M  V30 12592 H 1221.94 -0.379133 -3.90263 0
M  V30 12593 H 1223.43 0.583376 -4.13505 0
M  V30 12594 N 1223.87 1.39211 -0.738786 0
M  V30 12595 C 1225.11 2.00733 -0.288817 0
M  V30 12596 C 1225.45 1.58494 1.1222 0
M  V30 12597 O 1224.72 0.815579 1.76575 0
M  V30 12598 C 1225 3.57928 -0.394956 0
M  V30 12599 C 1224.86 4.10174 -1.84601 0
M  V30 12600 C 1226.18 4.39548 0.220395 0
M  V30 12601 H 1223.29 0.729276 -0.106418 0
M  V30 12602 H 1225.94 1.65365 -0.935652 0
M  V30 12603 H 1224.09 3.88188 0.155744 0
M  V30 12604 H 1225.76 3.90618 -2.45388 0
M  V30 12605 H 1224 3.63593 -2.36607 0
M  V30 12606 H 1224.67 5.19305 -1.87152 0
M  V30 12607 H 1227.15 4.15354 -0.249098 0
M  V30 12608 H 1226.02 5.48778 0.115806 0
M  V30 12609 H 1226.29 4.22341 1.30691 0
M  V30 12610 N 1225.34 0.486708 1.49896 0
M  V30 12611 C 1226.25 -0.304222 2.32619 0
M  V30 12612 C 1227.27 -0.981103 1.43702 0
M  V30 12613 O 1228.45 -0.965639 1.76741 0
M  V30 12614 C 1225.51 -1.36301 3.18783 0
M  V30 12615 C 1224.57 -0.701082 4.23537 0
M  V30 12616 C 1223.81 -1.70943 5.05583 0
M  V30 12617 O 1224.03 -2.93773 4.88931 0
M  V30 12618 O 1222.96 -1.27263 5.88292 0
M  V30 12619 H 1226.79 0.37248 3.01407 0
M  V30 12620 H 1224.37 0.248277 1.47323 0
M  V30 12621 H 1226.26 -1.97594 3.72202 0
M  V30 12622 H 1224.93 -2.0229 2.52706 0
M  V30 12623 H 1223.84 -0.0487926 3.74068 0
M  V30 12624 H 1225.17 -0.0838817 4.92129 0
M  V30 12625 N 1226.82 -1.56058 0.219941 0
M  V30 12626 C 1228.05 -2.031 -0.42014 0
M  V30 12627 C 1228.47 -1.09875 -1.52673 0
M  V30 12628 O 1227.83 -0.0866458 -1.81093 0
M  V30 12629 C 1227.88 -3.48389 -0.93047 0
M  V30 12630 O 1226.98 -3.583 -2.04192 0
M  V30 12631 H 1226.32 -0.657129 -0.0952772 0
M  V30 12632 H 1228.85 -2.01787 0.338105 0
M  V30 12633 H 1228.86 -3.88678 -1.2407 0
M  V30 12634 H 1227.54 -4.15725 -0.120539 0
M  V30 12635 H 1226.12 -3.29898 -1.73845 0
M  V30 12636 N 1228.3 0.053464 -1.57509 0
M  V30 12637 C 1229.23 1.06151 -2.07977 0
M  V30 12638 C 1230.21 1.3924 -0.977047 0
M  V30 12639 O 1231.4 1.48549 -1.25087 0
M  V30 12640 C 1228.53 2.36969 -2.53895 0
M  V30 12641 C 1227.48 2.18186 -3.6821 0
M  V30 12642 C 1226.81 3.54551 -4.00247 0
M  V30 12643 C 1228.11 1.588 -4.97574 0
M  V30 12644 H 1229.8 0.641483 -2.92447 0
M  V30 12645 H 1227.35 0.307122 -1.40687 0
M  V30 12646 H 1229.3 3.07797 -2.87817 0
M  V30 12647 H 1228.02 2.80986 -1.66476 0
M  V30 12648 H 1226.68 1.49796 -3.34599 0
M  V30 12649 H 1226.33 3.96171 -3.09932 0
M  V30 12650 H 1226.03 3.42816 -4.77232 0
M  V30 12651 H 1227.56 4.2678 -4.36682 0
M  V30 12652 H 1228.97 2.19515 -5.29609 0
M  V30 12653 H 1227.37 1.57711 -5.79006 0
M  V30 12654 H 1228.44 0.551254 -4.81756 0
M  V30 12655 N 1229.78 1.54207 0.325255 0
M  V30 12656 C 1231.03 1.71544 1.06091 0
M  V30 12657 C 1231.34 0.495137 1.89229 0
M  V30 12658 O 1232.55 0.54982 2.65874 0
M  V30 12659 C 1231 3.03412 1.93569 0
M  V30 12660 C 1230.61 4.32842 1.1555 0
M  V30 12661 C 1232.36 3.30113 2.66881 0
M  V30 12662 C 1230.26 5.55773 2.02164 0
M  V30 12663 H 1229.19 0.639281 0.399795 0
M  V30 12664 H 1231.84 1.80701 0.319261 0
M  V30 12665 H 1230.23 2.88158 2.71626 0
M  V30 12666 H 1231.4 4.58857 0.42276 0
M  V30 12667 H 1229.71 4.12893 0.539277 0
M  V30 12668 H 1232.31 4.19151 3.31988 0
M  V30 12669 H 1232.65 2.47918 3.34428 0
M  V30 12670 H 1233.19 3.46227 1.95887 0
M  V30 12671 H 1229.93 6.40565 1.39128 0
M  V30 12672 H 1229.45 5.3398 2.73177 0
M  V30 12673 H 1231.13 5.92113 2.60789 0
M  V30 12674 N 1231.26 -0.58723 1.46251 0
M  V30 12675 C 1232.67 -1.16933 1.45546 0
M  V30 12676 C 1233.02 -1.9524 0.193879 0
M  V30 12677 O 1232.14 -2.04652 -0.70332 0
M  V30 12678 C 1232.74 -2.12723 2.63693 0
M  V30 12679 C 1231.3 -2.66267 2.66043 0
M  V30 12680 C 1230.45 -1.42051 2.38153 0
M  V30 12681 H 1233.4 -0.375411 1.54196 0
M  V30 12682 H 1233.42 -2.96111 2.38953 0
M  V30 12683 H 1232.93 -1.55703 3.55497 0
M  V30 12684 H 1231.03 -3.2717 1.783 0
M  V30 12685 H 1231.14 -3.0931 3.65874 0
M  V30 12686 H 1229.51 -1.71707 1.88119 0
M  V30 12687 H 1230.29 -0.868675 3.32128 0
M  V30 12688 N 1232.74 -1.33881 -0.831482 0
M  V30 12689 C 1233.98 -1.25507 -1.58406 0
M  V30 12690 C 1234.3 0.177137 -1.94194 0
M  V30 12691 O 1233.57 1.10769 -1.61576 0
M  V30 12692 H 1232.15 -0.461551 -0.587349 0
M  V30 12693 H 1234.82 -1.6769 -0.99328 0
M  V30 12694 H 1233.91 -1.85391 -2.51071 0
M  V30 12695 N 1234.21 1.05064 -1.1747 0
M  V30 12696 C 1235.14 2.14786 -0.915936 0
M  V30 12697 C 1236.12 1.69502 0.142561 0
M  V30 12698 O 1237.31 1.94198 -0.00794522 0
M  V30 12699 C 1234.44 3.44629 -0.429864 0
M  V30 12700 C 1233.39 4.03486 -1.42769 0
M  V30 12701 C 1232.72 5.28689 -0.799528 0
M  V30 12702 C 1234.02 4.40823 -2.80129 0
M  V30 12703 H 1235.71 2.3669 -1.83352 0
M  V30 12704 H 1233.26 1.13751 -0.882992 0
M  V30 12705 H 1235.21 4.20737 -0.236245 0
M  V30 12706 H 1233.94 3.22381 0.523263 0
M  V30 12707 H 1232.6 3.29449 -1.60808 0
M  V30 12708 H 1232.24 5.02744 0.160474 0
M  V30 12709 H 1231.94 5.69028 -1.46565 0
M  V30 12710 H 1233.47 6.07483 -0.616212 0
M  V30 12711 H 1234.88 5.07959 -2.65801 0
M  V30 12712 H 1233.28 4.92183 -3.43331 0
M  V30 12713 H 1234.35 3.51108 -3.34441 0
M  V30 12714 N 1235.69 0.975146 1.23809 0
M  V30 12715 C 1236.6 0.51917 2.28783 0
M  V30 12716 C 1237.62 -0.423487 1.68768 0
M  V30 12717 O 1238.79 -0.294699 1.99232 0
M  V30 12718 C 1235.86 -0.176229 3.46252 0
M  V30 12719 C 1234.92 0.807177 4.21643 0
M  V30 12720 C 1234.15 0.144869 5.33503 0
M  V30 12721 O 1234.38 -1.06522 5.60365 0
M  V30 12722 O 1233.31 0.84079 5.95999 0
M  V30 12723 H 1237.14 1.39204 2.69919 0
M  V30 12724 H 1234.72 0.74253 1.29641 0
M  V30 12725 H 1236.6 -0.566547 4.17574 0
M  V30 12726 H 1235.28 -1.02394 3.07078 0
M  V30 12727 H 1234.18 1.2481 3.52666 0
M  V30 12728 H 1235.52 1.62354 4.64653 0
M  V30 12729 N 1237.17 -1.38817 0.746158 0
M  V30 12730 C 1238.58 -1.83045 0.367629 0
M  V30 12731 C 1238.93 -1.62285 -1.10263 0
M  V30 12732 O 1238.06 -1.12001 -1.85162 0
M  V30 12733 C 1238.65 -3.323 0.660482 0
M  V30 12734 C 1237.21 -3.74903 0.335318 0
M  V30 12735 C 1236.36 -2.61683 0.917446 0
M  V30 12736 H 1239.31 -1.27651 0.94291 0
M  V30 12737 H 1239.33 -3.80446 -0.0639061 0
M  V30 12738 H 1238.84 -3.47377 1.73062 0
M  V30 12739 H 1236.94 -3.65408 -0.728538 0
M  V30 12740 H 1237.06 -4.71932 0.825677 0
M  V30 12741 H 1235.42 -2.52376 0.343316 0
M  V30 12742 H 1236.2 -2.79563 1.99247 0
M  V30 12743 N 1238.65 -0.49465 -1.49636 0
M  V30 12744 C 1240.06 -0.0452894 -1.86645 0
M  V30 12745 C 1240.41 1.36686 -1.40753 0
M  V30 12746 O 1239.53 2.01751 -0.78265 0
M  V30 12747 C 1240.13 -0.0754115 -3.38716 0
M  V30 12748 C 1238.69 0.318579 -3.75049 0
M  V30 12749 C 1237.84 -0.450712 -2.73613 0
M  V30 12750 H 1240.79 -0.707758 -1.42044 0
M  V30 12751 H 1240.81 0.721372 -3.73599 0
M  V30 12752 H 1240.32 -1.10331 -3.72087 0
M  V30 12753 H 1238.42 1.34995 -3.47285 0
M  V30 12754 H 1238.53 0.00354416 -4.791 0
M  V30 12755 H 1236.9 0.0986455 -2.54509 0
M  V30 12756 H 1237.68 -1.47857 -3.09828 0
M  V30 12757 N 1240.13 1.55939 -0.228214 0
M  V30 12758 C 1241.37 1.9877 0.402272 0
M  V30 12759 C 1241.7 1.11587 1.5894 0
M  V30 12760 O 1240.98 0.175032 1.93711 0
M  V30 12761 C 1241.26 3.50396 0.830353 0
M  V30 12762 C 1241.12 4.4835 -0.360876 0
M  V30 12763 C 1242.43 4.06602 1.68413 0
M  V30 12764 H 1239.55 0.722646 0.144746 0
M  V30 12765 H 1242.2 1.87186 -0.325784 0
M  V30 12766 H 1240.35 3.60398 1.4507 0
M  V30 12767 H 1242.02 4.5035 -0.999113 0
M  V30 12768 H 1240.26 4.21946 -1.00719 0
M  V30 12769 H 1240.93 5.51997 -0.0183074 0
M  V30 12770 H 1243.41 3.99585 1.16064 0
M  V30 12771 H 1242.28 5.12998 1.95254 0
M  V30 12772 H 1242.54 3.53897 2.64971 0
M  V30 12773 N 1241.6 -0.0451101 1.57535 0
M  V30 12774 C 1243.02 -0.59372 1.77008 0
M  V30 12775 C 1243.37 -1.76482 0.857233 0
M  V30 12776 O 1242.49 -2.16347 0.0479703 0
M  V30 12777 C 1243.09 -1.08383 3.20996 0
M  V30 12778 C 1241.65 -1.57808 3.41721 0
M  V30 12779 C 1240.79 -0.509067 2.72587 0
M  V30 12780 H 1243.74 0.181114 1.57663 0
M  V30 12781 H 1243.76 -1.95181 3.26626 0
M  V30 12782 H 1243.28 -0.231276 3.8741 0
M  V30 12783 H 1241.38 -2.45302 2.8046 0
M  V30 12784 H 1241.49 -1.63664 4.50279 0
M  V30 12785 H 1239.85 -0.960389 2.359 0
M  V30 12786 H 1240.64 0.333753 3.41674 0
M  V30 12787 N 1243.08 -1.54377 -0.317073 0
M  V30 12788 C 1244.01 -1.80563 -1.41172 0
M  V30 12789 C 1245.03 -0.687865 -1.47554 0
M  V30 12790 O 1246.22 -0.965084 -1.50161 0
M  V30 12791 C 1243.32 -1.9142 -2.79663 0
M  V30 12792 C 1242.49 -3.21655 -2.96407 0
M  V30 12793 C 1241.55 -3.23131 -4.15298 0
M  V30 12794 O 1240.57 -3.96741 -4.08149 0
M  V30 12795 N 1241.78 -2.47376 -5.25153 0
M  V30 12796 H 1244.54 -2.75032 -1.1907 0
M  V30 12797 H 1242.1 -1.53754 -0.507086 0
M  V30 12798 H 1244.09 -1.89828 -3.57418 0
M  V30 12799 H 1242.66 -1.0402 -2.94786 0
M  V30 12800 H 1241.88 -3.36154 -2.05899 0
M  V30 12801 H 1243.17 -4.07629 -3.04494 0
M  V30 12802 H 1242.57 -1.87173 -5.33838 0
M  V30 12803 H 1241.13 -2.51555 -6.01301 0
M  V30 12804 N 1244.56 0.579466 -1.4656 0
M  V30 12805 C 1245.98 0.903163 -1.31587 0
M  V30 12806 C 1246.18 1.99406 -0.28972 0
M  V30 12807 O 1245.23 2.50632 0.30658 0
M  V30 12808 C 1246.55 1.31745 -2.70303 0
M  V30 12809 C 1248.09 1.43012 -2.78418 0
M  V30 12810 C 1248.57 1.87805 -4.17724 0
M  V30 12811 N 1250.06 1.94993 -4.20157 0
M  V30 12812 C 1250.79 2.30934 -5.2484 0
M  V30 12813 N 1250.29 2.65645 -6.39847 0
M  V30 12814 N 1252.08 2.31517 -5.12207 0
M  V30 12815 H 1244.23 -0.141111 -2.11931 0
M  V30 12816 H 1246.5 -0.000460304 -0.948 0
M  V30 12817 H 1246.2 0.589864 -3.46718 0
M  V30 12818 H 1246.08 2.2783 -3.00622 0
M  V30 12819 H 1248.46 2.14856 -2.02289 0
M  V30 12820 H 1248.55 0.451701 -2.5178 0
M  V30 12821 H 1248.19 1.16539 -4.94349 0
M  V30 12822 H 1248.12 2.86611 -4.41771 0
M  V30 12823 H 1250.61 1.70645 -3.37178 0
M  V30 12824 H 1250.92 2.92032 -7.15498 0
M  V30 12825 H 1249.27 2.63276 -6.43204 0
M  V30 12826 H 1252.46 2.03824 -4.21394 0
M  V30 12827 H 1252.63 2.59199 -5.93902 0
M  V30 12828 N 1246.04 1.3432 0.824371 0
M  V30 12829 C 1246.97 1.2842 1.95014 0
M  V30 12830 C 1247.95 0.161925 1.69328 0
M  V30 12831 O 1249.13 0.354052 1.90945 0
M  V30 12832 C 1246.26 1.03741 3.31444 0
M  V30 12833 C 1245.22 2.12419 3.71567 0
M  V30 12834 C 1244.54 1.72931 5.05963 0
M  V30 12835 C 1245.84 3.54235 3.83817 0
M  V30 12836 H 1247.54 2.22614 2.00209 0
M  V30 12837 H 1245.08 1.07165 0.961856 0
M  V30 12838 H 1247.04 0.982586 4.09784 0
M  V30 12839 H 1245.76 0.0598892 3.26545 0
M  V30 12840 H 1244.42 2.16968 2.955 0
M  V30 12841 H 1244.07 0.738433 4.9755 0
M  V30 12842 H 1243.77 2.45668 5.3378 0
M  V30 12843 H 1245.29 1.68941 5.86763 0
M  V30 12844 H 1246.71 3.52106 4.52432 0
M  V30 12845 H 1245.1 4.25581 4.23085 0
M  V30 12846 H 1246.17 3.91682 2.85856 0
M  V30 12847 N 1247.52 -1.0444 1.18026 0
M  V30 12848 C 1248.93 -1.5903 0.978076 0
M  V30 12849 C 1249.28 -1.90407 -0.473241 0
M  V30 12850 O 1248.4 -1.69133 -1.34992 0
M  V30 12851 C 1249 -2.88942 1.76912 0
M  V30 12852 C 1247.56 -3.40164 1.61139 0
M  V30 12853 C 1246.7 -2.13797 1.76596 0
M  V30 12854 H 1249.66 -0.871574 1.32625 0
M  V30 12855 H 1249.68 -3.59173 1.25598 0
M  V30 12856 H 1249.19 -2.66074 2.82535 0
M  V30 12857 H 1247.29 -3.68053 0.580353 0
M  V30 12858 H 1247.4 -4.14241 2.40709 0
M  V30 12859 H 1245.77 -2.24922 1.19507 0
M  V30 12860 H 1246.55 -1.93389 2.83647 0
M  V30 12861 N 1248.99 -0.981699 -1.2329 0
M  V30 12862 C 1250.22 -0.669025 -1.96313 0
M  V30 12863 C 1250.64 0.757624 -1.72168 0
M  V30 12864 O 1250 1.51626 -0.993942 0
M  V30 12865 C 1250.05 -0.966875 -3.47396 0
M  V30 12866 O 1249.15 -0.0595933 -4.12357 0
M  V30 12867 H 1248.5 -0.251493 -0.61453 0
M  V30 12868 H 1251.03 -1.31564 -1.56691 0
M  V30 12869 H 1251.04 -0.904112 -3.97857 0
M  V30 12870 H 1249.71 -2.00651 -3.64296 0
M  V30 12871 H 1248.29 -0.176878 -3.7248 0
M  V30 12872 N 1250.47 1.3842 -0.753509 0
M  V30 12873 C 1251.4 2.29039 -0.0859463 0
M  V30 12874 C 1252.42 1.47742 0.68383 0
M  V30 12875 O 1253.61 1.70607 0.524933 0
M  V30 12876 C 1250.71 3.26668 0.902296 0
M  V30 12877 C 1249.88 4.36986 0.190178 0
M  V30 12878 C 1248.94 5.14805 1.08916 0
M  V30 12879 O 1247.96 5.66441 0.559715 0
M  V30 12880 N 1249.17 5.27777 2.41726 0
M  V30 12881 H 1251.93 2.8697 -0.864196 0
M  V30 12882 H 1249.49 1.502 -0.604288 0
M  V30 12883 H 1251.48 3.75606 1.50672 0
M  V30 12884 H 1250.05 2.69636 1.58163 0
M  V30 12885 H 1249.27 3.89684 -0.594959 0
M  V30 12886 H 1250.56 5.07899 -0.302594 0
M  V30 12887 H 1249.96 4.87376 2.87196 0
M  V30 12888 H 1248.52 5.8009 2.97219 0
M  V30 12889 N 1251.95 0.502579 1.49372 0
M  V30 12890 C 1253.18 -0.0381429 2.06865 0
M  V30 12891 C 1253.59 -1.30674 1.36271 0
M  V30 12892 O 1252.95 -1.77078 0.441532 0
M  V30 12893 C 1253 -0.294068 3.60302 0
M  V30 12894 O 1252.72 0.924244 4.2824 0
M  V30 12895 C 1254.22 -0.878253 4.34513 0
M  V30 12896 H 1251.44 0.0211756 0.670666 0
M  V30 12897 H 1253.99 0.700387 1.92132 0
M  V30 12898 H 1252.14 -0.982583 3.74732 0
M  V30 12899 H 1252.56 0.688062 5.19967 0
M  V30 12900 H 1254.03 -1.0069 5.42739 0
M  V30 12901 H 1254.51 -1.87643 3.97098 0
M  V30 12902 H 1255.11 -0.227157 4.24693 0
M  V30 12903 N 1253.43 -1.55816 0.23648 0
M  V30 12904 C 1254.34 -2.24576 -0.678439 0
M  V30 12905 C 1255.35 -1.25836 -1.20172 0
M  V30 12906 O 1256.53 -1.58686 -1.24019 0
M  V30 12907 C 1253.6 -2.92376 -1.86325 0
M  V30 12908 C 1252.66 -4.06499 -1.38047 0
M  V30 12909 C 1251.89 -4.71057 -2.50881 0
M  V30 12910 O 1252.11 -4.34652 -3.69369 0
M  V30 12911 O 1251.05 -5.59768 -2.21232 0
M  V30 12912 H 1254.87 -3.03452 -0.122601 0
M  V30 12913 H 1252.46 -1.49399 0.00540803 0
M  V30 12914 H 1254.34 -3.35117 -2.55488 0
M  V30 12915 H 1253.01 -2.16448 -2.40691 0
M  V30 12916 H 1251.92 -3.68296 -0.656422 0
M  V30 12917 H 1253.25 -4.84214 -0.883024 0
M  V30 12918 N 1254.91 0.036755 -1.57557 0
M  V30 12919 C 1256.13 0.744813 -1.93565 0
M  V30 12920 C 1256.56 1.68508 -0.835863 0
M  V30 12921 O 1255.91 1.80091 0.208986 0
M  V30 12922 C 1255.96 1.48461 -3.28621 0
M  V30 12923 O 1255.07 2.59739 -3.20327 0
M  V30 12924 H 1254.41 0.200866 -0.632889 0
M  V30 12925 H 1256.94 -0.00547543 -2.04599 0
M  V30 12926 H 1256.95 1.85622 -3.63329 0
M  V30 12927 H 1255.62 0.794953 -4.08232 0
M  V30 12928 H 1254.2 2.25176 -2.97237 0
M  V30 12929 N 1256.39 1.54543 0.308881 0
M  V30 12930 C 1257.63 1.73706 1.04661 0
M  V30 12931 C 1257.96 0.517111 1.87189 0
M  V30 12932 O 1257.24 -0.485856 1.88334 0
M  V30 12933 C 1257.52 3.02141 1.95916 0
M  V30 12934 C 1257.38 4.34419 1.1662 0
M  V30 12935 C 1258.69 3.26401 2.95213 0
M  V30 12936 H 1255.81 0.63203 0.379087 0
M  V30 12937 H 1258.46 1.87253 0.321947 0
M  V30 12938 H 1256.61 2.90723 2.57706 0
M  V30 12939 H 1258.28 4.57743 0.571772 0
M  V30 12940 H 1256.52 4.3126 0.468747 0
M  V30 12941 H 1257.19 5.20535 1.83704 0
M  V30 12942 H 1259.67 3.37377 2.43549 0
M  V30 12943 H 1258.54 4.17597 3.56235 0
M  V30 12944 H 1258.8 2.44322 3.68455 0
M  V30 12945 N 1257.86 -0.571685 1.46866 0
M  V30 12946 C 1259.09 -1.35524 1.56336 0
M  V30 12947 C 1259.51 -1.87647 0.208359 0
M  V30 12948 O 1258.86 -1.64219 -0.796136 0
M  V30 12949 C 1258.91 -2.53518 2.57703 0
M  V30 12950 O 1258.64 -2.03552 3.87941 0
M  V30 12951 C 1260.14 -3.45925 2.77219 0
M  V30 12952 H 1257.36 -0.41363 0.528348 0
M  V30 12953 H 1259.9 -0.693943 1.92366 0
M  V30 12954 H 1258.06 -3.15615 2.24647 0
M  V30 12955 H 1258.47 -2.80476 4.43208 0
M  V30 12956 H 1259.94 -4.2517 3.52043 0
M  V30 12957 H 1260.42 -3.98559 1.8452 0
M  V30 12958 H 1261.03 -2.89655 3.11416 0
M  V30 12959 N 1259.34 -1.34755 -0.817236 0
M  V30 12960 C 1260.57 -1.30676 -1.61054 0
M  V30 12961 C 1260.99 0.115343 -1.87746 0
M  V30 12962 O 1260.35 1.07887 -1.45705 0
M  V30 12963 C 1260.4 -2.10881 -2.92509 0
M  V30 12964 O 1259.5 -1.48223 -3.84842 0
M  V30 12965 H 1258.84 -0.448531 -0.489608 0
M  V30 12966 H 1261.37 -1.77642 -1.01512 0
M  V30 12967 H 1261.38 -2.22446 -3.42026 0
M  V30 12968 H 1260.06 -3.14274 -2.72406 0
M  V30 12969 H 1258.63 -1.45434 -3.4337 0
M  V30 12970 N 1260.82 1.03812 -1.18578 0
M  V30 12971 C 1261.77 2.13994 -0.911563 0
M  V30 12972 C 1262.76 1.68907 0.129131 0
M  V30 12973 O 1263.97 1.7999 -0.0192557 0
M  V30 12974 H 1260.34 0.698996 -0.277324 0
M  V30 12975 H 1262.31 2.34318 -1.84763 0
M  V30 12976 C 1261.06 3.44689 -0.456591 0
M  V30 12977 H 1260.39 3.79793 -1.2489 0
M  V30 12978 H 1261.83 4.22911 -0.303738 0
M  V30 12979 C 1260.28 3.26568 0.827961 0
M  V30 12980 O 1260.81 3.54376 1.89158 0
M  V30 12981 N 1259.02 2.79893 0.781567 0
M  V30 12982 H 1258.57 2.57462 -0.0842145 0
M  V30 12983 H 1258.53 2.68148 1.64146 0
M  V30 12984 N 1262.3 0.988223 1.22768 0
M  V30 12985 C 1263.71 0.69816 1.4352 0
M  V30 12986 C 1263.91 -0.732872 1.877 0
M  V30 12987 O 1262.97 -1.50436 2.02793 0
M  V30 12988 C 1264.28 1.69975 2.4805 0
M  V30 12989 C 1265.83 1.71467 2.61855 0
M  V30 12990 C 1266.31 2.70477 3.69603 0
M  V30 12991 N 1267.8 2.69043 3.77055 0
M  V30 12992 C 1268.53 3.42319 4.60006 0
M  V30 12993 N 1268.03 4.2518 5.46986 0
M  V30 12994 N 1269.82 3.31047 4.54274 0
M  V30 12995 H 1261.97 1.91251 0.923948 0
M  V30 12996 H 1264.23 0.82455 0.467783 0
M  V30 12997 H 1263.94 2.72354 2.22523 0
M  V30 12998 H 1263.81 1.48885 3.46573 0
M  V30 12999 H 1266.2 0.697889 2.86729 0
M  V30 13000 H 1266.28 1.96625 1.63622 0
M  V30 13001 H 1265.93 3.72302 3.45476 0
M  V30 13002 H 1265.86 2.42591 4.67394 0
M  V30 13003 H 1268.35 2.08914 3.14902 0
M  V30 13004 H 1268.66 4.77929 6.07292 0
M  V30 13005 H 1267.01 4.29268 5.46584 0
M  V30 13006 H 1270.2 2.65758 3.85345 0
M  V30 13007 H 1270.37 3.88413 5.1869 0
M  V30 13008 N 1263.78 -1.38018 0.760839 0
M  V30 13009 C 1265 -2.04231 0.331285 0
M  V30 13010 C 1265.42 -1.57385 -1.04285 0
M  V30 13011 O 1264.78 -0.750168 -1.66369 0
M  V30 13012 C 1264.83 -3.59772 0.353021 0
M  V30 13013 O 1264.55 -4.049 1.67294 0
M  V30 13014 C 1266.05 -4.4321 -0.0894942 0
M  V30 13015 H 1263.27 -0.656145 0.140408 0
M  V30 13016 H 1265.81 -1.76567 1.03172 0
M  V30 13017 H 1263.97 -3.86246 -0.298735 0
M  V30 13018 H 1264.38 -4.99369 1.60408 0
M  V30 13019 H 1265.86 -5.51995 -0.0231262 0
M  V30 13020 H 1266.33 -4.2419 -1.13839 0
M  V30 13021 H 1266.94 -4.21939 0.533661 0
M  V30 13022 N 1265.25 -0.510493 -1.49103 0
M  V30 13023 C 1266.53 0.0941122 -1.95373 0
M  V30 13024 C 1266.91 1.53207 -1.45227 0
M  V30 13025 O 1266.26 2.18452 -0.670161 0
M  V30 13026 C 1266.47 -0.00302507 -3.49 0
M  V30 13027 C 1267.82 0.166117 -4.24275 0
M  V30 13028 O 1268.84 0.0717097 -3.56128 0
M  V30 13029 O 1267.7 0.361155 -5.45305 0
M  V30 13030 H 1264.79 0.0900741 -0.82208 0
M  V30 13031 H 1267.34 -0.573707 -1.59708 0
M  V30 13032 H 1266.11 -1.00545 -3.78162 0
M  V30 13033 H 1265.73 0.704518 -3.91308 0
M  V30 13034 N 1266.73 1.55688 -0.24474 0
M  V30 13035 C 1267.96 2.03743 0.387776 0
M  V30 13036 C 1268.38 1.1229 1.50906 0
M  V30 13037 O 1267.74 0.115445 1.80932 0
M  V30 13038 C 1267.79 3.49825 0.874927 0
M  V30 13039 O 1266.89 3.61504 1.98466 0
M  V30 13040 H 1266.23 0.658561 0.0848107 0
M  V30 13041 H 1268.76 2.01224 -0.370165 0
M  V30 13042 H 1268.77 3.90603 1.17871 0
M  V30 13043 H 1267.45 4.15864 0.0543852 0
M  V30 13044 H 1266.02 3.32622 1.68574 0
M  V30 13045 N 1268.21 -0.0283989 1.57574 0
M  V30 13046 C 1269.14 -1.02828 2.09639 0
M  V30 13047 C 1270.12 -1.37668 0.999076 0
M  V30 13048 O 1271.31 -1.4654 1.27435 0
M  V30 13049 C 1268.44 -2.329 2.57633 0
M  V30 13050 C 1267.39 -2.12301 3.71635 0
M  V30 13051 C 1266.72 -3.48138 4.05837 0
M  V30 13052 C 1268.02 -1.50864 5.00037 0
M  V30 13053 H 1269.71 -0.594876 2.93431 0
M  V30 13054 H 1267.26 -0.284701 1.41158 0
M  V30 13055 H 1269.21 -3.03179 2.92678 0
M  V30 13056 H 1267.93 -2.78302 1.70926 0
M  V30 13057 H 1266.59 -1.44454 3.3694 0
M  V30 13058 H 1266.24 -3.9119 3.16195 0
M  V30 13059 H 1265.94 -3.3518 4.82626 0
M  V30 13060 H 1267.46 -4.19779 4.43417 0
M  V30 13061 H 1268.88 -2.11062 5.33035 0
M  V30 13062 H 1267.27 -1.48479 5.81441 0
M  V30 13063 H 1268.34 -0.474541 4.82572 0
M  V30 13064 N 1269.69 -1.54705 -0.300681 0
M  V30 13065 C 1270.92 -1.77993 -1.0548 0
M  V30 13066 C 1271.33 -0.539574 -1.80926 0
M  V30 13067 O 1270.69 0.490597 -1.75782 0
M  V30 13068 C 1270.74 -2.98774 -2.0351 0
M  V30 13069 O 1270.46 -4.18016 -1.31126 0
M  V30 13070 C 1271.96 -3.34452 -2.90958 0
M  V30 13071 H 1269.18 -0.593628 -0.312805 0
M  V30 13072 H 1271.72 -2.01656 -0.339858 0
M  V30 13073 H 1269.88 -2.77318 -2.70506 0
M  V30 13074 H 1270.29 -4.86113 -1.96963 0
M  V30 13075 H 1271.77 -4.22206 -3.55593 0
M  V30 13076 H 1272.24 -2.52622 -3.59275 0
M  V30 13077 H 1272.85 -3.58069 -2.29493 0
M  V30 13078 N 1271.17 0.563888 -1.47167 0
M  V30 13079 C 1272.41 1.31875 -1.53145 0
M  V30 13080 C 1272.74 1.94047 -0.192518 0
M  V30 13081 O 1272.01 1.79577 0.782872 0
M  V30 13082 H 1270.59 0.489694 -0.5641 0
M  V30 13083 H 1273.25 0.658976 -1.83422 0
M  V30 13084 H 1272.34 2.11574 -2.2944 0
M  V30 13085 N 1272.64 1.35187 0.810078 0
M  V30 13086 C 1273.55 1.29926 1.95337 0
M  V30 13087 C 1274.57 0.204748 1.72791 0
M  V30 13088 O 1275.75 0.433507 1.96679 0
M  V30 13089 C 1272.81 1.06736 3.29861 0
M  V30 13090 C 1271.87 2.25466 3.65326 0
M  V30 13091 C 1271.11 2.03373 4.93432 0
M  V30 13092 O 1271.33 0.998419 5.61594 0
M  V30 13093 O 1270.26 2.90648 5.27075 0
M  V30 13094 H 1274.09 2.26137 2.02721 0
M  V30 13095 H 1271.67 1.15523 0.947354 0
M  V30 13096 H 1273.56 0.956367 4.10404 0
M  V30 13097 H 1272.23 0.135735 3.23415 0
M  V30 13098 H 1271.14 2.42129 2.85175 0
M  V30 13099 H 1272.47 3.17063 3.76473 0
M  V30 13100 N 1274.12 -1.03182 1.19127 0
M  V30 13101 C 1275.4 -1.73586 0.901507 0
M  V30 13102 C 1275.78 -2.02585 -0.593521 0
M  V30 13103 O 1275.13 -1.67813 -1.55084 0
M  V30 13104 C 1275.34 -3.01472 1.75829 0
M  V30 13105 C 1276.69 -3.75037 1.99078 0
M  V30 13106 O 1277.71 -3.11392 1.72956 0
M  V30 13107 O 1276.57 -4.8945 2.43108 0
M  V30 13108 H 1273.66 -0.755797 0.335708 0
M  V30 13109 H 1276.21 -1.09167 1.29925 0
M  V30 13110 H 1274.98 -2.76247 2.77134 0
M  V30 13111 H 1274.6 -3.73631 1.35963 0
M  V30 13112 N 1275.6 -0.99472 -1.22242 0
M  V30 13113 C 1276.83 -0.689809 -1.95592 0
M  V30 13114 C 1277.25 0.739321 -1.72961 0
M  V30 13115 O 1276.61 1.50563 -1.00997 0
M  V30 13116 C 1276.66 -1.00367 -3.46351 0
M  V30 13117 O 1275.76 -0.103326 -4.12271 0
M  V30 13118 H 1275.1 -0.257997 -0.611828 0
M  V30 13119 H 1277.63 -1.33219 -1.55286 0
M  V30 13120 H 1277.64 -0.946259 -3.96875 0
M  V30 13121 H 1276.32 -2.04504 -3.62148 0
M  V30 13122 H 1274.89 -0.216374 -3.72272 0
M  V30 13123 N 1277.08 1.37613 -0.768148 0
M  V30 13124 C 1278.01 2.3291 -0.165911 0
M  V30 13125 C 1278.99 1.556 0.687205 0
M  V30 13126 O 1280.17 1.83854 0.625407 0
M  V30 13127 C 1277.3 3.39822 0.7168 0
M  V30 13128 C 1276.26 4.27986 -0.0347264 0
M  V30 13129 C 1275.58 5.2588 0.967192 0
M  V30 13130 C 1276.88 5.08052 -1.21164 0
M  V30 13131 H 1278.58 2.83524 -0.962006 0
M  V30 13132 H 1276.12 1.36318 -0.464051 0
M  V30 13133 H 1278.08 4.05464 1.14789 0
M  V30 13134 H 1276.8 2.87725 1.54538 0
M  V30 13135 H 1275.46 3.6387 -0.446557 0
M  V30 13136 H 1275.11 4.70064 1.79022 0
M  V30 13137 H 1274.81 5.85726 0.468913 0
M  V30 13138 H 1276.33 5.94397 1.3973 0
M  V30 13139 H 1277.75 5.66853 -0.857373 0
M  V30 13140 H 1276.14 5.77206 -1.64176 0
M  V30 13141 H 1277.21 4.40936 -2.0175 0
M  V30 13142 N 1278.56 0.518393 1.4883 0
M  V30 13143 C 1279.49 -0.239685 2.32267 0
M  V30 13144 C 1280.47 -0.94613 1.41359 0
M  V30 13145 O 1281.65 -0.934162 1.70256 0
M  V30 13146 C 1278.78 -1.29411 3.22289 0
M  V30 13147 C 1277.74 -0.706504 4.22129 0
M  V30 13148 C 1277.06 -1.86273 5.01205 0
M  V30 13149 C 1278.36 0.314079 5.21355 0
M  V30 13150 H 1280.06 0.4568 2.95895 0
M  V30 13151 H 1277.6 0.221126 1.42292 0
M  V30 13152 H 1279.56 -1.8323 3.7948 0
M  V30 13153 H 1278.28 -2.02001 2.56638 0
M  V30 13154 H 1276.94 -0.189924 3.66108 0
M  V30 13155 H 1276.59 -2.57674 4.31988 0
M  V30 13156 H 1276.29 -1.47554 5.68772 0
M  V30 13157 H 1277.81 -2.40492 5.61245 0
M  V30 13158 H 1279.22 -0.136604 5.73137 0
M  V30 13159 H 1277.62 0.618026 5.96909 0
M  V30 13160 H 1278.69 1.22394 4.69199 0
M  V30 13161 N 1280.03 -1.55556 0.252993 0
M  V30 13162 C 1281.31 -1.91022 -0.420696 0
M  V30 13163 C 1281.69 -1.17452 -1.75409 0
M  V30 13164 O 1281.04 -0.294 -2.26601 0
M  V30 13165 C 1281.25 -3.441 -0.582787 0
M  V30 13166 C 1282.6 -4.15468 -0.875873 0
M  V30 13167 O 1283.62 -3.49872 -0.668425 0
M  V30 13168 O 1282.48 -5.31508 -1.27128 0
M  V30 13169 H 1279.57 -0.7953 -0.226776 0
M  V30 13170 H 1282.12 -1.67072 0.297511 0
M  V30 13171 H 1280.89 -3.89673 0.356474 0
M  V30 13172 H 1280.52 -3.73933 -1.3513 0
M  V30 13173 N 1281.51 0.0200419 -1.57587 0
M  V30 13174 C 1282.75 0.713765 -1.91533 0
M  V30 13175 C 1283.12 1.72035 -0.852516 0
M  V30 13176 O 1284.32 2.46299 -1.07658 0
M  V30 13177 C 1282.59 1.35786 -3.30601 0
M  V30 13178 S 1284.15 2.07948 -3.86397 0
M  V30 13179 H 1280.97 0.236249 -0.670602 0
M  V30 13180 H 1283.57 -0.0318313 -1.95474 0
M  V30 13181 H 1282.27 0.612147 -4.05809 0
M  V30 13182 H 1281.8 2.14181 -3.29985 0
M  V30 13183 H 1283.82 3.3521 -3.65853 0
M  V30 13184 N 1282.99 1.54862 0.292472 0
M  V30 13185 C 1284.22 1.78877 1.04966 0
M  V30 13186 C 1284.64 0.550724 1.79857 0
M  V30 13187 O 1284 -0.499054 1.74296 0
M  V30 13188 C 1284.05 3.00106 1.99922 0
M  V30 13189 O 1283.15 2.73827 3.0837 0
M  V30 13190 H 1282.49 0.591802 0.301108 0
M  V30 13191 H 1285.02 2.01965 0.3273 0
M  V30 13192 H 1285.03 3.28309 2.42233 0
M  V30 13193 H 1283.71 3.89872 1.44821 0
M  V30 13194 H 1282.28 2.56665 2.70513 0
M  V30 13195 N 1284.47 -0.556076 1.47464 0
M  V30 13196 C 1285.4 -1.67275 1.62915 0
M  V30 13197 C 1286.38 -1.63229 0.478562 0
M  V30 13198 O 1287.56 -1.80833 0.708032 0
M  V30 13199 C 1284.69 -3.05911 1.64426 0
M  V30 13200 C 1283.65 -3.24804 2.78722 0
M  V30 13201 C 1282.97 -4.64238 2.65307 0
M  V30 13202 C 1284.27 -3.10071 4.20302 0
M  V30 13203 H 1285.97 -1.54601 2.56396 0
M  V30 13204 H 1283.51 -0.742337 1.23391 0
M  V30 13205 H 1285.47 -3.83878 1.73826 0
M  V30 13206 H 1284.19 -3.19547 0.675053 0
M  V30 13207 H 1282.85 -2.49246 2.68835 0
M  V30 13208 H 1282.5 -4.74675 1.66412 0
M  V30 13209 H 1282.2 -4.77828 3.41986 0
M  V30 13210 H 1283.72 -5.44339 2.76637 0
M  V30 13211 H 1285.14 -3.77855 4.3116 0
M  V30 13212 H 1283.53 -3.3517 4.97776 0
M  V30 13213 H 1284.6 -2.06803 4.38589 0
M  V30 13214 N 1285.95 -1.35615 -0.802897 0
M  V30 13215 C 1286.88 -1.31506 -1.92947 0
M  V30 13216 C 1287.86 -0.188843 -1.69048 0
M  V30 13217 O 1289.04 -0.384384 -1.90358 0
M  V30 13218 C 1286.17 -1.09001 -3.29752 0
M  V30 13219 C 1285.13 -2.18303 -3.68141 0
M  V30 13220 C 1284.45 -1.80959 -5.03148 0
M  V30 13221 C 1285.75 -3.60296 -3.78132 0
M  V30 13222 H 1287.45 -2.25771 -1.96642 0
M  V30 13223 H 1284.99 -1.08682 -0.944685 0
M  V30 13224 H 1286.95 -1.04766 -4.08169 0
M  V30 13225 H 1285.67 -0.111832 -3.26408 0
M  V30 13226 H 1284.33 -2.21642 -2.92011 0
M  V30 13227 H 1283.98 -0.817495 -4.96312 0
M  V30 13228 H 1283.68 -2.54129 -5.29804 0
M  V30 13229 H 1285.2 -1.78255 -5.84001 0
M  V30 13230 H 1286.62 -3.59259 -4.46773 0
M  V30 13231 H 1285.01 -4.32258 -4.16261 0
M  V30 13232 H 1286.08 -3.9618 -2.79588 0
M  V30 13233 N 1287.43 1.02549 -1.19673 0
M  V30 13234 C 1288.65 1.8016 -1.02748 0
M  V30 13235 C 1289.08 1.83372 0.419105 0
M  V30 13236 O 1288.43 1.26222 1.30144 0
M  V30 13237 C 1288.48 3.22907 -1.60509 0
M  V30 13238 O 1287.59 4.03823 -0.836702 0
M  V30 13239 H 1286.93 0.556027 -0.362946 0
M  V30 13240 H 1289.46 1.29047 -1.5877 0
M  V30 13241 H 1289.47 3.73646 -1.63868 0
M  V30 13242 H 1288.14 3.19885 -2.65794 0
M  V30 13243 H 1286.72 3.6245 -0.876626 0
M  V30 13244 N 1288.9 1.00119 1.21713 0
M  V30 13245 C 1289.85 0.551452 2.25969 0
M  V30 13246 C 1290.85 -0.402075 1.64559 0
M  V30 13247 O 1292.05 -0.273685 1.77907 0
M  V30 13248 H 1288.43 0.159968 0.734789 0
M  V30 13249 H 1290.4 1.44201 2.61244 0
M  V30 13250 C 1289.15 -0.109992 3.47526 0
M  V30 13251 H 1288.47 0.614686 3.95046 0
M  V30 13252 H 1289.91 -0.388007 4.22221 0
M  V30 13253 C 1288.37 -1.34798 3.08757 0
M  V30 13254 O 1288.9 -2.44266 3.189 0
M  V30 13255 N 1287.1 -1.2263 2.63458 0
M  V30 13256 H 1286.65 -0.335571 2.55405 0
M  V30 13257 H 1286.61 -2.05565 2.37887 0
M  V30 13258 N 1290.38 -1.37203 0.775435 0
M  V30 13259 C 1291.79 -1.82224 0.406372 0
M  V30 13260 C 1292.14 -1.64587 -1.06796 0
M  V30 13261 O 1291.27 -1.15903 -1.82744 0
M  V30 13262 C 1291.86 -3.30824 0.730819 0
M  V30 13263 C 1290.42 -3.74108 0.414766 0
M  V30 13264 C 1289.57 -2.59679 0.972747 0
M  V30 13265 H 1292.52 -1.25623 0.969775 0
M  V30 13266 H 1292.54 -3.80496 0.0168066 0
M  V30 13267 H 1292.05 -3.43628 1.80392 0
M  V30 13268 H 1290.15 -3.66871 -0.650866 0
M  V30 13269 H 1290.27 -4.70074 0.925595 0
M  V30 13270 H 1288.63 -2.51591 0.396772 0
M  V30 13271 H 1289.41 -2.75274 2.05132 0
M  V30 13272 N 1291.86 -0.526279 -1.48553 0
M  V30 13273 C 1293.09 0.0052277 -2.06899 0
M  V30 13274 C 1293.5 1.2849 -1.38332 0
M  V30 13275 O 1292.86 1.76354 -0.469648 0
M  V30 13276 C 1292.91 0.236709 -3.60724 0
M  V30 13277 O 1292.63 -0.992256 -4.26715 0
M  V30 13278 C 1294.13 0.809014 -4.35855 0
M  V30 13279 H 1291.35 -0.0318426 -0.670244 0
M  V30 13280 H 1293.9 -0.730865 -1.90994 0
M  V30 13281 H 1292.05 0.922842 -3.76248 0
M  V30 13282 H 1292.47 -0.770697 -5.18807 0
M  V30 13283 H 1293.94 0.920428 -5.44272 0
M  V30 13284 H 1294.42 1.81302 -4.00033 0
M  V30 13285 H 1295.02 0.159564 -4.25001 0
M  V30 13286 N 1293.34 1.5542 -0.261239 0
M  V30 13287 C 1294.57 2.03687 0.363225 0
M  V30 13288 C 1294.98 1.14007 1.50492 0
M  V30 13289 O 1294.34 0.157349 1.8182 0
M  V30 13290 C 1294.39 3.51184 0.857435 0
M  V30 13291 O 1294.11 4.37449 -0.238776 0
M  V30 13292 C 1295.61 4.15277 1.55113 0
M  V30 13293 H 1292.83 0.665641 0.0846356 0
M  V30 13294 H 1295.37 2.00761 -0.389288 0
M  V30 13295 H 1293.53 3.54599 1.56008 0
M  V30 13296 H 1293.94 5.24316 0.138821 0
M  V30 13297 H 1295.42 5.20129 1.8485 0
M  V30 13298 H 1295.89 3.62619 2.47799 0
M  V30 13299 H 1296.5 4.15826 0.892695 0
M  V30 13300 N 1294.82 -0.0116844 1.57596 0
M  V30 13301 C 1296.09 -0.735344 1.81251 0
M  V30 13302 C 1296.47 -1.92634 0.863446 0
M  V30 13303 O 1295.82 -2.28321 -0.0905028 0
M  V30 13304 C 1296.03 -1.15206 3.29437 0
M  V30 13305 C 1297.38 -1.56078 3.94873 0
M  V30 13306 O 1298.4 -1.24618 3.3369 0
M  V30 13307 O 1297.26 -2.14534 5.0263 0
M  V30 13308 H 1294.36 -0.357044 0.745955 0
M  V30 13309 H 1296.9 0.0128733 1.69695 0
M  V30 13310 H 1295.67 -0.302619 3.90128 0
M  V30 13311 H 1295.3 -1.95975 3.45947 0
M  V30 13312 N 1296.29 -1.55015 -0.284256 0
M  V30 13313 C 1297.22 -1.90128 -1.3555 0
M  V30 13314 C 1298.2 -0.761914 -1.52082 0
M  V30 13315 O 1299.39 -1.01909 -1.65312 0
M  V30 13316 C 1296.52 -2.16332 -2.71695 0
M  V30 13317 C 1295.47 -3.32166 -2.69907 0
M  V30 13318 C 1294.8 -3.43824 -4.09498 0
M  V30 13319 C 1296.1 -4.6885 -2.30168 0
M  V30 13320 H 1297.79 -2.79852 -1.06411 0
M  V30 13321 H 1295.34 -1.34649 -0.510451 0
M  V30 13322 H 1297.29 -2.39482 -3.46737 0
M  V30 13323 H 1296.02 -1.23395 -3.02392 0
M  V30 13324 H 1294.68 -3.08965 -1.97322 0
M  V30 13325 H 1294.32 -2.48375 -4.374 0
M  V30 13326 H 1294.02 -4.21698 -4.092 0
M  V30 13327 H 1295.55 -3.69254 -4.86296 0
M  V30 13328 H 1296.96 -4.91619 -2.9493 0
M  V30 13329 H 1295.36 -5.49558 -2.41052 0
M  V30 13330 H 1296.43 -4.68433 -1.25294 0
M  V30 13331 N 1297.77 0.548248 -1.47757 0
M  V30 13332 C 1298.7 1.66409 -1.63799 0
M  V30 13333 C 1299.68 1.62973 -0.487211 0
M  V30 13334 O 1300.87 1.80455 -0.717612 0
M  V30 13335 C 1298 3.05035 -1.66046 0
M  V30 13336 C 1296.95 3.23322 -2.80441 0
M  V30 13337 C 1296.28 4.62824 -2.67765 0
M  V30 13338 C 1297.58 3.07837 -4.2194 0
M  V30 13339 H 1299.27 1.53239 -2.57212 0
M  V30 13340 H 1296.82 0.735783 -1.23783 0
M  V30 13341 H 1298.77 3.82951 -1.75859 0
M  V30 13342 H 1297.49 3.19185 -0.69199 0
M  V30 13343 H 1296.15 2.47816 -2.70153 0
M  V30 13344 H 1295.8 4.73786 -1.68927 0
M  V30 13345 H 1295.5 4.76007 -3.44515 0
M  V30 13346 H 1297.03 5.42864 -2.7952 0
M  V30 13347 H 1298.44 3.75563 -4.33157 0
M  V30 13348 H 1296.84 3.32525 -4.99547 0
M  V30 13349 H 1297.91 2.04474 -4.3968 0
M  V30 13350 N 1299.25 1.36039 0.795694 0
M  V30 13351 C 1300.16 1.31991 1.93948 0
M  V30 13352 C 1301.18 0.223064 1.72564 0
M  V30 13353 O 1302.35 0.454344 1.96208 0
M  V30 13354 C 1299.42 1.10228 3.28711 0
M  V30 13355 C 1298.48 2.29328 3.62914 0
M  V30 13356 C 1297.71 2.08595 4.91247 0
M  V30 13357 O 1297.93 1.05793 5.60503 0
M  V30 13358 O 1296.87 2.96222 5.23962 0
M  V30 13359 H 1300.69 2.28274 2.00311 0
M  V30 13360 H 1298.28 1.16521 0.935048 0
M  V30 13361 H 1300.16 0.999842 4.09367 0
M  V30 13362 H 1298.84 0.17003 3.23253 0
M  V30 13363 H 1297.74 2.4514 2.8259 0
M  V30 13364 H 1299.08 3.21038 3.73089 0
M  V30 13365 N 1300.73 -1.01913 1.20215 0
M  V30 13366 C 1301.64 -2.13864 0.964328 0
M  V30 13367 C 1302.65 -1.73821 -0.0789556 0
M  V30 13368 O 1303.83 -2.01111 0.107914 0
M  V30 13369 C 1300.9 -3.42827 0.516757 0
M  V30 13370 C 1299.96 -3.97127 1.63059 0
M  V30 13371 C 1299.19 -5.19935 1.20428 0
M  V30 13372 O 1299.41 -5.70355 0.0719119 0
M  V30 13373 O 1298.35 -5.67322 2.01071 0
M  V30 13374 H 1302.17 -2.36795 1.90162 0
M  V30 13375 H 1299.76 -1.1226 0.985803 0
M  V30 13376 H 1301.64 -4.20493 0.276272 0
M  V30 13377 H 1300.31 -3.21318 -0.391983 0
M  V30 13378 H 1299.22 -3.20752 1.92533 0
M  V30 13379 H 1300.55 -4.2302 2.51624 0
M  V30 13380 N 1302.21 -1.00763 -1.2118 0
M  V30 13381 C 1303.45 -0.691826 -1.90316 0
M  V30 13382 C 1303.78 0.777678 -1.78276 0
M  V30 13383 O 1303.04 1.57962 -1.15526 0
M  V30 13384 C 1303.34 -1.06187 -3.41261 0
M  V30 13385 C 1303 -2.52608 -3.73497 0
M  V30 13386 C 1301.66 -2.92617 -3.82006 0
M  V30 13387 C 1304.02 -3.47442 -3.88502 0
M  V30 13388 C 1301.34 -4.26419 -4.02969 0
M  V30 13389 C 1303.7 -4.8092 -4.10973 0
M  V30 13390 C 1302.36 -5.20649 -4.17709 0
M  V30 13391 H 1301.63 -0.253157 -0.696414 0
M  V30 13392 H 1304.28 -1.26655 -1.43634 0
M  V30 13393 H 1302.58 -0.405428 -3.89697 0
M  V30 13394 H 1304.28 -0.795343 -3.93033 0
M  V30 13395 H 1300.87 -2.20603 -3.67468 0
M  V30 13396 H 1305.05 -3.17695 -3.81292 0
M  V30 13397 H 1300.31 -4.56767 -4.06416 0
M  V30 13398 H 1304.48 -5.54337 -4.21525 0
M  V30 13399 H 1302.11 -6.24343 -4.33705 0
M  V30 13400 N 1303.68 1.3679 -0.7827 0
M  V30 13401 C 1304.65 2.28472 -0.182525 0
M  V30 13402 C 1305.65 1.48524 0.616217 0
M  V30 13403 O 1306.84 1.68599 0.438197 0
M  V30 13404 C 1303.97 3.32588 0.748202 0
M  V30 13405 H 1305.16 2.83059 -0.99085 0
M  V30 13406 H 1302.72 1.46241 -0.551658 0
M  V30 13407 H 1303.45 2.83145 1.58112 0
M  V30 13408 H 1303.24 3.91698 0.177481 0
M  V30 13409 H 1304.73 4.01073 1.16321 0
M  V30 13410 N 1305.16 0.53415 1.48272 0
M  V30 13411 C 1306.57 0.0947592 1.86459 0
M  V30 13412 C 1306.92 -1.32906 1.44328 0
M  V30 13413 O 1306.05 -1.99605 0.835866 0
M  V30 13414 C 1306.64 0.16519 3.38397 0
M  V30 13415 C 1305.2 -0.219029 3.75762 0
M  V30 13416 C 1304.35 0.523097 2.72321 0
M  V30 13417 H 1307.3 0.74517 1.40117 0
M  V30 13418 H 1307.32 -0.622065 3.75381 0
M  V30 13419 H 1306.83 1.20157 3.69031 0
M  V30 13420 H 1304.94 -1.2574 3.50742 0
M  V30 13421 H 1305.05 0.123482 4.78941 0
M  V30 13422 H 1303.41 -0.0311323 2.54681 0
M  V30 13423 H 1304.2 1.56019 3.05799 0
M  V30 13424 N 1306.64 -1.55279 0.269478 0
M  V30 13425 C 1307.87 -2.03876 -0.352418 0
M  V30 13426 C 1308.28 -1.14804 -1.49885 0
M  V30 13427 O 1307.64 -0.166989 -1.81734 0
M  V30 13428 C 1307.69 -3.51634 -0.838799 0
M  V30 13429 O 1307.41 -4.37316 0.261972 0
M  V30 13430 C 1308.91 -4.16094 -1.52909 0
M  V30 13431 H 1306.13 -0.66608 -0.0811043 0
M  V30 13432 H 1308.68 -2.00551 0.399929 0
M  V30 13433 H 1306.83 -3.55421 -1.54125 0
M  V30 13434 H 1307.25 -5.24383 -0.111013 0
M  V30 13435 H 1308.72 -5.21102 -1.82089 0
M  V30 13436 H 1309.2 -3.63928 -2.45872 0
M  V30 13437 H 1309.8 -4.16293 -0.87063 0
M  V30 13438 N 1308.12 0.00332656 -1.576 0
M  V30 13439 C 1309.08 0.980628 -2.07163 0
M  V30 13440 C 1310.08 1.27455 -0.980402 0
M  V30 13441 O 1311.27 1.22029 -1.24317 0
M  V30 13442 C 1308.4 2.30647 -2.51028 0
M  V30 13443 H 1309.6 0.551982 -2.94776 0
M  V30 13444 H 1307.15 0.250728 -1.54276 0
M  V30 13445 H 1307.88 2.78207 -1.66647 0
M  V30 13446 H 1307.67 2.10635 -3.30719 0
M  V30 13447 H 1309.16 3.00761 -2.89711 0
M  V30 13448 N 1309.6 1.55164 0.276031 0
M  V30 13449 C 1310.85 1.74833 1.0058 0
M  V30 13450 C 1311.16 0.555089 1.87558 0
M  V30 13451 O 1312.36 0.634127 2.63991 0
M  V30 13452 C 1310.82 3.09417 1.83818 0
M  V30 13453 C 1310.43 4.36299 1.01721 0
M  V30 13454 C 1312.17 3.38437 2.56244 0
M  V30 13455 C 1310.08 5.61923 1.8438 0
M  V30 13456 H 1309.01 0.651676 0.379254 0
M  V30 13457 H 1311.66 1.81626 0.26161 0
M  V30 13458 H 1310.04 2.96654 2.62321 0
M  V30 13459 H 1311.22 4.59969 0.276565 0
M  V30 13460 H 1309.53 4.144 0.407645 0
M  V30 13461 H 1312.13 4.29501 3.18485 0
M  V30 13462 H 1312.47 2.58432 3.26372 0
M  V30 13463 H 1313 3.52284 1.84773 0
M  V30 13464 H 1309.74 6.44667 1.18679 0
M  V30 13465 H 1309.26 5.424 2.56051 0
M  V30 13466 H 1310.94 6.0011 2.4182 0
M  V30 13467 N 1311.07 -0.540404 1.48045 0
M  V30 13468 C 1312.3 -1.32656 1.59427 0
M  V30 13469 C 1312.72 -1.86419 0.250924 0
M  V30 13470 O 1312.08 -1.63861 -0.775838 0
M  V30 13471 C 1312.13 -2.46062 2.63602 0
M  V30 13472 O 1311.23 -3.48794 2.20038 0
M  V30 13473 H 1310.58 -0.393334 0.534962 0
M  V30 13474 H 1313.11 -0.651363 1.93955 0
M  V30 13475 H 1313.12 -2.92396 2.84549 0
M  V30 13476 H 1311.79 -2.06291 3.61133 0
M  V30 13477 H 1310.37 -3.0865 2.0926 0
M  V30 13478 N 1312.55 -1.36459 -0.788468 0
M  V30 13479 C 1313.52 -1.3071 -1.88275 0
M  V30 13480 C 1314.52 -0.214596 -1.59362 0
M  V30 13481 O 1315.71 -0.469437 -1.67756 0
M  V30 13482 C 1312.84 -1.02648 -3.25079 0
M  V30 13483 H 1314.03 -2.28029 -1.94788 0
M  V30 13484 H 1311.58 -1.21245 -0.986375 0
M  V30 13485 H 1312.32 -0.0578992 -3.24248 0
M  V30 13486 H 1312.1 -1.81708 -3.47454 0
M  V30 13487 H 1313.59 -1.01233 -4.05144 0
M  V30 13488 N 1314.03 1.01274 -1.20754 0
M  V30 13489 C 1315.44 1.56381 -1.0199 0
M  V30 13490 C 1315.79 1.91595 0.422591 0
M  V30 13491 O 1314.92 1.72653 1.3046 0
M  V30 13492 C 1315.51 2.8415 -1.8451 0
M  V30 13493 C 1314.07 3.35772 -1.70101 0
M  V30 13494 C 1313.22 2.0904 -1.82202 0
M  V30 13495 H 1316.17 0.836105 -1.34889 0
M  V30 13496 H 1316.19 3.55717 -1.35076 0
M  V30 13497 H 1315.7 2.5849 -2.8949 0
M  V30 13498 H 1313.8 3.66384 -0.677732 0
M  V30 13499 H 1313.92 4.07714 -2.51607 0
M  V30 13500 H 1312.28 2.21675 -1.25429 0
M  V30 13501 H 1313.06 1.858 -2.88675 0
M  V30 13502 N 1315.51 1.01404 1.20644 0
M  V30 13503 C 1316.76 0.702949 1.90227 0
M  V30 13504 C 1317.09 -0.765243 1.78487 0
M  V30 13505 O 1316.36 -1.55569 1.16741 0
M  V30 13506 C 1316.65 1.13606 3.4171 0
M  V30 13507 C 1316.5 2.66437 3.62397 0
M  V30 13508 C 1317.82 0.705361 4.34411 0
M  V30 13509 H 1314.94 0.256842 0.690797 0
M  V30 13510 H 1317.58 1.26133 1.42093 0
M  V30 13511 H 1315.73 0.660977 3.82836 0
M  V30 13512 H 1317.4 3.21778 3.3054 0
M  V30 13513 H 1315.64 3.0753 3.05954 0
M  V30 13514 H 1316.32 2.91795 4.68572 0
M  V30 13515 H 1318.79 1.11375 4.00918 0
M  V30 13516 H 1317.67 1.03647 5.39026 0
M  V30 13517 H 1317.93 -0.393094 4.40349 0
M  V30 13518 N 1316.99 -1.36373 0.789944 0
M  V30 13519 C 1317.94 -2.27425 0.161798 0
M  V30 13520 C 1318.92 -1.46983 -0.654583 0
M  V30 13521 O 1320.11 -1.69355 -0.51457 0
M  V30 13522 C 1317.24 -3.36043 -0.702128 0
M  V30 13523 C 1316.33 -4.23921 0.123071 0
M  V30 13524 N 1316.72 -4.91895 1.17784 0
M  V30 13525 C 1315.02 -4.45892 -0.0980072 0
M  V30 13526 C 1315.72 -5.56905 1.68023 0
M  V30 13527 N 1314.69 -5.34521 0.989371 0
M  V30 13528 H 1318.5 -2.77463 0.969093 0
M  V30 13529 H 1316.01 -1.49705 0.629458 0
M  V30 13530 H 1318.01 -4.00203 -1.16805 0
M  V30 13531 H 1316.67 -2.8756 -1.50796 0
M  V30 13532 H 1317.68 -4.93838 1.56027 0
M  V30 13533 H 1314.36 -4.08243 -0.874307 0
M  V30 13534 H 1315.75 -6.21185 2.56085 0
M  V30 13535 N 1318.47 -0.542005 -1.47987 0
M  V30 13536 C 1319.41 0.214151 -2.29804 0
M  V30 13537 C 1320.38 0.922625 -1.38119 0
M  V30 13538 O 1321.57 0.921301 -1.67083 0
M  V30 13539 C 1318.71 1.24768 -3.21756 0
M  V30 13540 C 1317.82 0.546824 -4.28525 0
M  V30 13541 C 1316.96 1.56432 -5.07644 0
M  V30 13542 C 1315.99 0.847598 -6.06203 0
M  V30 13543 N 1315.13 1.81121 -6.78336 0
M  V30 13544 H 1319.97 -0.489707 -2.93949 0
M  V30 13545 H 1317.51 -0.253331 -1.44902 0
M  V30 13546 H 1319.47 1.85933 -3.73477 0
M  V30 13547 H 1318.1 1.91976 -2.59509 0
M  V30 13548 H 1317.15 -0.179026 -3.79978 0
M  V30 13549 H 1318.46 -0.0153623 -4.98798 0
M  V30 13550 H 1317.61 2.24992 -5.63439 0
M  V30 13551 H 1316.35 2.16041 -4.37238 0
M  V30 13552 H 1315.36 0.147989 -5.49601 0
M  V30 13553 H 1316.58 0.257454 -6.78612 0
M  V30 13554 H 1314.53 2.39615 -6.10672 0
M  V30 13555 H 1314.45 1.30077 -7.44725 0
M  V30 13556 H 1315.71 2.48842 -7.38714 0
M  V30 13557 N 1319.94 1.55134 -0.277709 0
M  V30 13558 C 1320.91 2.21327 0.595569 0
M  V30 13559 C 1321.91 1.19193 1.07933 0
M  V30 13560 O 1323.1 1.44081 0.979093 0
M  V30 13561 C 1320.23 2.88127 1.82196 0
M  V30 13562 H 1321.42 2.99895 0.0175855 0
M  V30 13563 H 1318.97 1.56274 -0.0283453 0
M  V30 13564 H 1319.71 2.13578 2.44039 0
M  V30 13565 H 1319.49 3.62974 1.48297 0
M  V30 13566 H 1320.98 3.38691 2.44291 0
M  V30 13567 N 1321.42 0.00503138 1.57599 0
M  V30 13568 C 1322.38 -0.969628 2.0768 0
M  V30 13569 C 1323.38 -1.26933 0.987148 0
M  V30 13570 O 1324.57 -1.21368 1.24962 0
M  V30 13571 C 1321.71 -2.29312 2.52247 0
M  V30 13572 H 1322.9 -0.536342 2.95065 0
M  V30 13573 H 1320.45 -0.242543 1.54407 0
M  V30 13574 H 1321.19 -2.7732 1.6812 0
M  V30 13575 H 1320.97 -2.08878 3.31832 0
M  V30 13576 H 1322.46 -2.99221 2.91302 0
M  V30 13577 N 1322.9 -1.55308 -0.267798 0
M  V30 13578 C 1323.81 -1.91649 -1.35307 0
M  V30 13579 C 1324.83 -0.814349 -1.53767 0
M  V30 13580 O 1326 -1.11388 -1.67793 0
M  V30 13581 C 1323.07 -2.18553 -2.69138 0
M  V30 13582 C 1322.13 -3.42083 -2.5938 0
M  V30 13583 C 1321.36 -3.67695 -3.86828 0
M  V30 13584 O 1321.58 -2.95728 -4.87751 0
M  V30 13585 O 1320.52 -4.61229 -3.86718 0
M  V30 13586 H 1324.34 -2.84044 -1.07483 0
M  V30 13587 H 1321.93 -1.41921 -0.466772 0
M  V30 13588 H 1323.81 -2.3726 -3.48261 0
M  V30 13589 H 1322.49 -1.2934 -2.96737 0
M  V30 13590 H 1321.39 -3.28706 -1.78614 0
M  V30 13591 H 1322.73 -4.31532 -2.36729 0
M  V30 13592 N 1324.38 0.532545 -1.4833 0
M  V30 13593 C 1325.65 1.29371 -1.46705 0
M  V30 13594 C 1326.03 2.10354 -0.177329 0
M  V30 13595 O 1325.38 2.12462 0.840968 0
M  V30 13596 C 1325.59 2.17733 -2.72751 0
M  V30 13597 C 1326.94 2.77956 -3.20976 0
M  V30 13598 O 1327.96 2.28022 -2.7365 0
M  V30 13599 O 1326.82 3.68779 -4.03317 0
M  V30 13600 H 1323.92 0.58378 -0.585773 0
M  V30 13601 H 1326.46 0.549411 -1.6056 0
M  V30 13602 H 1325.24 1.57659 -3.58133 0
M  V30 13603 H 1324.86 2.99415 -2.61603 0
M  V30 13604 N 1325.86 1.36875 0.78122 0
M  V30 13605 C 1327.08 1.349 1.57533 0
M  V30 13606 C 1327.51 -0.0655249 1.87986 0
M  V30 13607 O 1326.86 -1.03986 1.48515 0
M  V30 13608 C 1326.91 2.18562 2.86815 0
M  V30 13609 O 1326.02 1.58374 3.80777 0
M  V30 13610 H 1325.36 0.461355 0.477543 0
M  V30 13611 H 1327.89 1.80271 0.96766 0
M  V30 13612 H 1327.9 2.31436 3.36008 0
M  V30 13613 H 1326.57 3.21385 2.63978 0
M  V30 13614 H 1325.15 1.54487 3.39394 0
M  V30 13615 N 1327.33 -1.00632 1.21289 0
M  V30 13616 C 1328.28 -2.11502 0.96798 0
M  V30 13617 C 1329.28 -1.6919 -0.0843024 0
M  V30 13618 O 1330.48 -1.79875 0.06697 0
M  V30 13619 H 1326.86 -0.691398 0.295759 0
M  V30 13620 H 1328.83 -2.29337 1.90911 0
M  V30 13621 C 1327.58 -3.43357 0.547818 0
M  V30 13622 H 1326.9 -3.76348 1.34915 0
M  V30 13623 H 1328.34 -4.21957 0.415759 0
M  V30 13624 C 1326.8 -3.28648 -0.741086 0
M  V30 13625 O 1327.33 -3.59267 -1.79695 0
M  V30 13626 N 1325.53 -2.81866 -0.707084 0
M  V30 13627 H 1325.08 -2.57149 0.152447 0
M  V30 13628 H 1325.04 -2.72406 -1.56979 0
M  V30 13629 N 1328.81 -1.02043 -1.20104 0
M  V30 13630 C 1329.74 -0.614421 -2.25271 0
M  V30 13631 C 1330.72 0.37242 -1.65973 0
M  V30 13632 O 1331.91 0.257005 -1.92492 0
M  V30 13633 C 1329.04 0.0442085 -3.47272 0
M  V30 13634 C 1327.99 -0.864019 -4.19188 0
M  V30 13635 C 1327.32 -0.0709551 -5.34653 0
M  V30 13636 C 1328.62 -2.17385 -4.74912 0
M  V30 13637 H 1330.31 -1.49355 -2.59487 0
M  V30 13638 H 1327.86 -0.719591 -1.24731 0
M  V30 13639 H 1329.81 0.339825 -4.20028 0
M  V30 13640 H 1328.53 0.958082 -3.12231 0
M  V30 13641 H 1327.19 -1.1437 -3.48303 0
M  V30 13642 H 1326.84 0.844688 -4.95857 0
M  V30 13643 H 1326.54 -0.67583 -5.83701 0
M  V30 13644 H 1328.07 0.218118 -6.1021 0
M  V30 13645 H 1329.48 -1.94034 -5.39466 0
M  V30 13646 H 1327.88 -2.72991 -5.34412 0
M  V30 13647 H 1328.95 -2.83427 -3.93443 0
M  V30 13648 N 1330.29 1.35952 -0.797165 0
M  V30 13649 C 1331.54 1.98283 -0.369685 0
M  V30 13650 C 1331.85 1.63968 1.06649 0
M  V30 13651 O 1333.06 2.19591 1.59662 0
M  V30 13652 C 1331.51 3.54692 -0.610046 0
M  V30 13653 C 1331.12 3.97925 -2.05814 0
M  V30 13654 C 1332.87 4.23778 -0.247457 0
M  V30 13655 C 1330.77 5.47142 -2.24475 0
M  V30 13656 H 1329.7 0.741909 -0.134489 0
M  V30 13657 H 1332.35 1.55146 -0.979893 0
M  V30 13658 H 1330.74 3.95938 0.0699822 0
M  V30 13659 H 1331.91 3.67857 -2.77521 0
M  V30 13660 H 1330.23 3.417 -2.37971 0
M  V30 13661 H 1332.82 5.33452 -0.365059 0
M  V30 13662 H 1333.17 4.08436 0.805315 0
M  V30 13663 H 1333.7 3.87921 -0.881028 0
M  V30 13664 H 1330.44 5.67441 -3.28163 0
M  V30 13665 H 1329.96 5.78811 -1.57282 0
M  V30 13666 H 1331.64 6.13475 -2.05567 0
M  V30 13667 N 1331.77 0.549846 1.47697 0
M  V30 13668 C 1332.99 0.0256819 2.07384 0
M  V30 13669 C 1333.42 -1.25525 1.4009 0
M  V30 13670 O 1332.78 -1.7501 0.473406 0
M  V30 13671 C 1332.82 -0.160835 3.60241 0
M  V30 13672 O 1331.93 -1.22509 3.93783 0
M  V30 13673 H 1331.27 0.0480204 0.662261 0
M  V30 13674 H 1333.8 0.763429 1.89823 0
M  V30 13675 H 1333.81 -0.377337 4.06251 0
M  V30 13676 H 1332.48 0.774774 4.0862 0
M  V30 13677 H 1331.06 -0.98967 3.59527 0
M  V30 13678 N 1333.25 -1.54984 0.285932 0
M  V30 13679 C 1334.49 -1.99436 -0.32709 0
M  V30 13680 C 1334.82 -1.17582 -1.55562 0
M  V30 13681 O 1334.09 -0.268002 -1.94058 0
M  V30 13682 H 1332.67 -0.736662 -0.123846 0
M  V30 13683 H 1335.33 -1.90881 0.393774 0
M  V30 13684 H 1334.42 -3.0609 -0.609523 0
M  V30 13685 N 1334.72 -0.0133892 -1.57594 0
M  V30 13686 C 1335.97 0.668634 -1.91143 0
M  V30 13687 C 1336.3 1.7303 -0.888299 0
M  V30 13688 O 1335.55 1.95418 0.105056 0
M  V30 13689 C 1335.85 1.33729 -3.31438 0
M  V30 13690 C 1335.52 0.407527 -4.49055 0
M  V30 13691 C 1334.18 0.151573 -4.80961 0
M  V30 13692 C 1336.53 -0.231835 -5.20684 0
M  V30 13693 C 1333.86 -0.751812 -5.81863 0
M  V30 13694 C 1336.21 -1.12318 -6.22549 0
M  V30 13695 C 1334.88 -1.38818 -6.52906 0
M  V30 13696 H 1334.15 0.24467 -0.699441 0
M  V30 13697 H 1336.79 -0.0717876 -1.91365 0
M  V30 13698 H 1335.1 2.15209 -3.27403 0
M  V30 13699 H 1336.8 1.87128 -3.5466 0
M  V30 13700 H 1333.39 0.617192 -4.24133 0
M  V30 13701 H 1337.57 -0.0471268 -4.96278 0
M  V30 13702 H 1332.83 -0.964991 -6.03737 0
M  V30 13703 H 1337 -1.62488 -6.77179 0
M  V30 13704 H 1334.63 -2.08986 -7.3091 0
M  V30 13705 N 1336.2 1.55448 0.259558 0
M  V30 13706 C 1337.48 1.6742 1.01143 0
M  V30 13707 C 1337.86 0.549525 2.03822 0
M  V30 13708 O 1337.21 -0.448699 2.24051 0
M  V30 13709 C 1337.42 3.07201 1.65616 0
M  V30 13710 C 1338.77 3.6539 2.16277 0
M  V30 13711 O 1339.79 3.0992 1.7558 0
M  V30 13712 O 1338.65 4.62604 2.90963 0
M  V30 13713 H 1335.74 0.680469 0.469991 0
M  V30 13714 H 1338.29 1.67783 0.254348 0
M  V30 13715 H 1337.06 3.80504 0.912819 0
M  V30 13716 H 1336.68 3.10794 2.47977 0
M  V30 13717 N 1337.68 -0.524672 1.4861 0
M  V30 13718 C 1338.93 -1.28211 1.5713 0
M  V30 13719 C 1339.26 -1.92626 0.246751 0
M  V30 13720 O 1338.53 -1.79553 -0.747725 0
M  V30 13721 C 1338.82 -2.36737 2.71344 0
M  V30 13722 C 1338.67 -1.76978 4.1352 0
M  V30 13723 C 1339.99 -3.3847 2.81294 0
M  V30 13724 H 1337.11 -0.46479 0.571961 0
M  V30 13725 H 1339.75 -0.583937 1.80804 0
M  V30 13726 H 1337.9 -2.96287 2.51289 0
M  V30 13727 H 1339.57 -1.21438 4.45029 0
M  V30 13728 H 1337.82 -1.07488 4.20272 0
M  V30 13729 H 1338.49 -2.55583 4.89266 0
M  V30 13730 H 1340.96 -2.88882 2.99477 0
M  V30 13731 H 1339.84 -4.11795 3.62928 0
M  V30 13732 H 1340.1 -3.99347 1.89669 0
M  V30 13733 N 1339.16 -1.37287 -0.77395 0
M  V30 13734 C 1340.57 -1.28954 -1.3501 0
M  V30 13735 C 1340.92 0.0638301 -1.96096 0
M  V30 13736 O 1340.05 0.965624 -1.93661 0
M  V30 13737 C 1340.64 -2.3352 -2.45467 0
M  V30 13738 C 1339.2 -2.28828 -2.98856 0
M  V30 13739 C 1338.35 -2.17468 -1.72055 0
M  V30 13740 H 1341.3 -1.47941 -0.57438 0
M  V30 13741 H 1341.32 -1.98058 -3.24889 0
M  V30 13742 H 1340.83 -3.32009 -2.00977 0
M  V30 13743 H 1338.93 -1.33855 -3.47726 0
M  V30 13744 H 1339.04 -3.22152 -3.54619 0
M  V30 13745 H 1337.41 -1.63977 -1.94894 0
M  V30 13746 H 1338.19 -3.17868 -1.29672 0
M  V30 13747 N 1340.64 0.999871 -1.21821 0
M  V30 13748 C 1341.55 2.12303 -0.99823 0
M  V30 13749 C 1342.56 1.73924 0.0512923 0
M  V30 13750 O 1343.74 2.00914 -0.139895 0
M  V30 13751 C 1340.8 3.41962 -0.571232 0
M  V30 13752 C 1339.86 3.94483 -1.69356 0
M  V30 13753 C 1339.1 5.17954 -1.28685 0
M  V30 13754 O 1339.32 5.70168 -0.162641 0
M  V30 13755 O 1338.25 5.64051 -2.10071 0
M  V30 13756 H 1342.08 2.3374 -1.93905 0
M  V30 13757 H 1339.67 1.10677 -1.00354 0
M  V30 13758 H 1341.55 4.20001 -0.343134 0
M  V30 13759 H 1340.22 3.21901 0.340814 0
M  V30 13760 H 1339.13 3.17648 -1.97612 0
M  V30 13761 H 1340.46 4.18964 -2.58322 0
M  V30 13762 N 1342.11 1.02678 1.19562 0
M  V30 13763 C 1343.36 0.72059 1.88817 0
M  V30 13764 C 1343.68 -0.752942 1.79877 0
M  V30 13765 O 1342.95 -1.54233 1.20785 0
M  V30 13766 H 1341.53 0.26355 0.698964 0
M  V30 13767 H 1344.2 1.30056 1.4516 0
M  V30 13768 H 1343.29 1.01303 2.95202 0
M  V30 13769 N 1343.59 -1.35528 0.804364 0
M  V30 13770 C 1344.82 -2.03604 0.395013 0
M  V30 13771 C 1345.24 -1.60225 -0.985371 0
M  V30 13772 O 1344.6 -0.777844 -1.63766 0
M  V30 13773 C 1344.65 -3.57337 0.484011 0
M  V30 13774 O 1343.75 -4.09316 -0.503395 0
M  V30 13775 H 1343.09 -0.643089 0.165325 0
M  V30 13776 H 1345.62 -1.73171 1.08963 0
M  V30 13777 H 1345.63 -4.0647 0.353009 0
M  V30 13778 H 1344.31 -3.8826 1.49088 0
M  V30 13779 H 1342.89 -3.71412 -0.332817 0
M  V30 13780 N 1345.07 -0.557671 -1.47404 0
M  V30 13781 C 1346.35 0.031908 -1.95574 0
M  V30 13782 C 1346.73 1.48509 -1.50027 0
M  V30 13783 O 1346.08 2.16209 -0.73932 0
M  V30 13784 C 1346.29 -0.114055 -3.48814 0
M  V30 13785 C 1347.63 0.0310533 -4.24589 0
M  V30 13786 O 1348.66 -0.041626 -3.56176 0
M  V30 13787 O 1347.52 0.187487 -5.46178 0
M  V30 13788 H 1344.61 0.0638747 -0.82453 0
M  V30 13789 H 1347.16 -0.624227 -1.57802 0
M  V30 13790 H 1345.93 -1.12525 -3.74772 0
M  V30 13791 H 1345.55 0.57967 -3.93352 0
M  V30 13792 N 1346.55 1.54831 -0.294147 0
M  V30 13793 C 1347.5 2.23263 0.58499 0
M  V30 13794 C 1348.47 1.21278 1.13494 0
M  V30 13795 O 1349.65 1.49878 1.18073 0
M  V30 13796 C 1346.79 2.97185 1.75429 0
M  V30 13797 C 1345.9 4.1393 1.23638 0
M  V30 13798 C 1345.04 4.7545 2.36899 0
M  V30 13799 C 1344.08 5.84352 1.82207 0
M  V30 13800 N 1343.22 6.39855 2.89015 0
M  V30 13801 H 1348.06 2.98 -0.00519329 0
M  V30 13802 H 1345.59 1.47093 -0.0143313 0
M  V30 13803 H 1347.55 3.38271 2.4419 0
M  V30 13804 H 1346.18 2.24837 2.3162 0
M  V30 13805 H 1345.23 3.77832 0.441247 0
M  V30 13806 H 1346.54 4.92409 0.795946 0
M  V30 13807 H 1345.7 5.19353 3.1362 0
M  V30 13808 H 1344.44 3.96288 2.84266 0
M  V30 13809 H 1343.44 5.39879 1.03974 0
M  V30 13810 H 1344.67 6.65393 1.35753 0
M  V30 13811 H 1342.61 5.6358 3.35729 0
M  V30 13812 H 1342.53 7.13661 2.49447 0
M  V30 13813 H 1343.8 6.88417 3.65654 0
M  V30 13814 N 1348.03 0.0217466 1.57585 0
M  V30 13815 C 1349.27 -0.659463 1.91778 0
M  V30 13816 C 1349.61 -1.72201 0.897801 0
M  V30 13817 O 1348.88 -1.94333 -0.080509 0
M  V30 13818 C 1349.16 -1.28269 3.36481 0
M  V30 13819 C 1349.02 -0.230201 4.49211 0
M  V30 13820 C 1350.34 -2.20279 3.81005 0
M  V30 13821 H 1347.46 -0.238263 0.697424 0
M  V30 13822 H 1350.1 0.0774967 1.89842 0
M  V30 13823 H 1348.25 -1.9108 3.38262 0
M  V30 13824 H 1349.92 0.399901 4.59563 0
M  V30 13825 H 1348.16 0.445157 4.3151 0
M  V30 13826 H 1348.83 -0.705732 5.4747 0
M  V30 13827 H 1351.31 -1.67463 3.80914 0
M  V30 13828 H 1350.19 -2.60842 4.82962 0
M  V30 13829 H 1350.45 -3.09092 3.16093 0
M  V30 13830 N 1349.51 -1.55583 -0.251311 0
M  V30 13831 C 1350.47 -1.89148 -1.29443 0
M  V30 13832 C 1351.47 -0.7676 -1.41296 0
M  V30 13833 O 1352.66 -1.03563 -1.40073 0
M  V30 13834 C 1349.79 -2.11601 -2.67279 0
M  V30 13835 H 1350.98 -2.82416 -1.00901 0
M  V30 13836 H 1348.54 -1.48407 -0.490398 0
M  V30 13837 H 1349.27 -1.20787 -3.00967 0
M  V30 13838 H 1349.06 -2.93449 -2.60058 0
M  V30 13839 H 1350.55 -2.38768 -3.42607 0
M  V30 13840 N 1350.98 0.516783 -1.48886 0
M  V30 13841 C 1351.89 1.6467 -1.67095 0
M  V30 13842 C 1352.91 1.64963 -0.553466 0
M  V30 13843 O 1354.09 1.83673 -0.826206 0
M  V30 13844 C 1351.15 3.01095 -1.71879 0
M  V30 13845 C 1350.21 3.11554 -2.95352 0
M  V30 13846 C 1349.44 4.41471 -2.99898 0
M  V30 13847 O 1349.67 5.29348 -2.12477 0
M  V30 13848 O 1348.6 4.56573 -3.92205 0
M  V30 13849 H 1352.43 1.52242 -2.62785 0
M  V30 13850 H 1350.01 0.69134 -1.32442 0
M  V30 13851 H 1351.89 3.82207 -1.77471 0
M  V30 13852 H 1350.57 3.1382 -0.793656 0
M  V30 13853 H 1349.48 2.29689 -2.95286 0
M  V30 13854 H 1350.81 3.03751 -3.87294 0
M  V30 13855 N 1352.46 1.37696 0.766659 0
M  V30 13856 C 1353.74 1.23715 1.51506 0
M  V30 13857 C 1354.12 -0.167091 2.10438 0
M  V30 13858 O 1353.47 -1.17526 1.95959 0
M  V30 13859 C 1353.68 2.33715 2.59188 0
M  V30 13860 C 1355.02 2.71504 3.26451 0
M  V30 13861 O 1356.05 2.32929 2.69486 0
M  V30 13862 O 1354.91 3.37981 4.29454 0
M  V30 13863 H 1352 0.483046 0.671264 0
M  V30 13864 H 1354.55 1.49489 0.803188 0
M  V30 13865 H 1353.32 3.27729 2.13797 0
M  V30 13866 H 1352.94 2.09433 3.3797 0
M  V30 13867 N 1353.94 -0.993397 1.22349 0
M  V30 13868 C 1354.85 -2.11771 1.00947 0
M  V30 13869 C 1355.87 -1.73949 -0.0420679 0
M  V30 13870 O 1357.04 -2.00837 0.150548 0
M  V30 13871 C 1354.11 -3.41654 0.589359 0
M  V30 13872 C 1353.17 -3.93579 1.71446 0
M  V30 13873 C 1352.4 -5.17264 1.3143 0
M  V30 13874 O 1352.62 -5.70074 0.192876 0
M  V30 13875 O 1351.56 -5.62929 2.13059 0
M  V30 13876 H 1355.38 -2.32708 1.95142 0
M  V30 13877 H 1352.97 -1.10144 1.00939 0
M  V30 13878 H 1354.85 -4.19813 0.365403 0
M  V30 13879 H 1353.53 -3.22077 -0.323738 0
M  V30 13880 H 1352.43 -3.16596 1.99294 0
M  V30 13881 H 1353.77 -4.17588 2.6054 0
M  V30 13882 N 1355.42 -1.03311 -1.19015 0
M  V30 13883 C 1356.66 -0.732039 -1.88805 0
M  V30 13884 C 1356.99 0.739688 -1.79886 0
M  V30 13885 O 1356.25 1.55476 -1.18851 0
M  V30 13886 C 1356.55 -1.13402 -3.38932 0
M  V30 13887 C 1356.21 -2.60473 -3.68055 0
M  V30 13888 C 1354.87 -3.00654 -3.75713 0
M  V30 13889 C 1357.23 -3.55604 -3.81045 0
M  V30 13890 C 1354.55 -4.3487 -3.93833 0
M  V30 13891 C 1356.91 -4.89529 -4.00679 0
M  V30 13892 C 1355.57 -5.29392 -4.06571 0
M  V30 13893 H 1354.84 -0.267872 -0.690888 0
M  V30 13894 H 1357.49 -1.29673 -1.40915 0
M  V30 13895 H 1355.79 -0.487997 -3.88749 0
M  V30 13896 H 1357.49 -0.878532 -3.91258 0
M  V30 13897 H 1354.08 -2.28348 -3.62706 0
M  V30 13898 H 1358.26 -3.25711 -3.74467 0
M  V30 13899 H 1353.52 -4.65285 -3.96636 0
M  V30 13900 H 1357.69 -5.63153 -4.09672 0
M  V30 13901 H 1355.32 -6.33402 -4.20364 0
M  V30 13902 N 1356.9 1.35099 -0.81154 0
M  V30 13903 C 1358.17 1.93009 -0.317289 0
M  V30 13904 C 1358.55 1.74101 1.19382 0
M  V30 13905 O 1357.9 1.11295 1.99564 0
M  V30 13906 C 1358.11 3.41191 -0.734123 0
M  V30 13907 C 1359.46 4.1834 -0.726437 0
M  V30 13908 O 1360.48 3.49727 -0.67598 0
M  V30 13909 O 1359.34 5.4077 -0.789291 0
M  V30 13910 H 1356.44 0.822707 -0.084153 0
M  V30 13911 H 1358.98 1.44145 -0.895569 0
M  V30 13912 H 1357.75 3.48705 -1.7754 0
M  V30 13913 H 1357.38 3.97384 -0.130919 0
M  V30 13914 N 1358.37 0.56548 1.47106 0
M  V30 13915 C 1359.78 0.134289 1.86216 0
M  V30 13916 C 1360.14 -1.29815 1.47114 0
M  V30 13917 O 1359.26 -1.97787 0.878017 0
M  V30 13918 C 1359.86 0.236931 3.37971 0
M  V30 13919 C 1358.41 -0.139275 3.76142 0
M  V30 13920 C 1357.56 0.580743 2.71151 0
M  V30 13921 H 1360.51 0.774723 1.38505 0
M  V30 13922 H 1360.53 -0.542301 3.76616 0
M  V30 13923 H 1360.05 1.27958 3.66399 0
M  V30 13924 H 1358.15 -1.18272 3.53331 0
M  V30 13925 H 1358.26 0.225045 4.78571 0
M  V30 13926 H 1356.62 0.0228963 2.5469 0
M  V30 13927 H 1357.41 1.62471 3.0242 0
M  V30 13928 N 1359.85 -1.54672 0.302354 0
M  V30 13929 C 1361.1 -1.99345 -0.307307 0
M  V30 13930 C 1361.41 -1.19437 -1.549 0
M  V30 13931 O 1362.62 -1.54384 -2.23334 0
M  V30 13932 C 1361.08 -3.54896 -0.59808 0
M  V30 13933 C 1360.68 -4.43614 0.625357 0
M  V30 13934 C 1362.43 -4.08091 -1.16886 0
M  V30 13935 C 1360.34 -5.90599 0.307661 0
M  V30 13936 H 1359.27 -0.744614 -0.118603 0
M  V30 13937 H 1361.92 -1.78832 0.411271 0
M  V30 13938 H 1360.3 -3.71314 -1.37629 0
M  V30 13939 H 1361.47 -4.38969 1.40152 0
M  V30 13940 H 1359.79 -4.01198 1.11487 0
M  V30 13941 H 1362.38 -5.15477 -1.42082 0
M  V30 13942 H 1362.73 -3.58775 -2.11155 0
M  V30 13943 H 1363.26 -3.9522 -0.452329 0
M  V30 13944 H 1360 -6.44067 1.21895 0
M  V30 13945 H 1359.52 -5.98248 -0.431208 0
M  V30 13946 H 1361.2 -6.46937 -0.0902796 0
M  V30 13947 N 1361.33 -0.0301034 -1.57571 0
M  V30 13948 C 1362.74 0.508591 -1.79639 0
M  V30 13949 C 1363.09 1.72191 -0.940458 0
M  V30 13950 O 1362.22 2.15872 -0.151138 0
M  V30 13951 C 1362.81 0.929446 -3.25802 0
M  V30 13952 C 1361.37 1.41325 -3.48861 0
M  V30 13953 C 1360.52 0.378433 -2.74706 0
M  V30 13954 H 1363.47 -0.256131 -1.56619 0
M  V30 13955 H 1363.49 1.79374 -3.35567 0
M  V30 13956 H 1363 0.0461738 -3.88073 0
M  V30 13957 H 1361.1 2.31641 -2.91844 0
M  V30 13958 H 1361.22 1.41995 -4.57574 0
M  V30 13959 H 1359.58 0.846744 -2.40213 0
M  V30 13960 H 1360.36 -0.49639 -3.39692 0
M  V30 13961 N 1362.81 1.55714 0.243056 0
M  V30 13962 C 1364.05 1.77989 0.971993 0
M  V30 13963 C 1364.39 0.596038 1.84827 0
M  V30 13964 O 1363.66 -0.40554 1.90225 0
M  V30 13965 C 1363.95 3.10178 1.82925 0
M  V30 13966 C 1363.8 4.38974 0.9809 0
M  V30 13967 C 1365.12 3.38628 2.81103 0
M  V30 13968 H 1362.24 0.64754 0.35194 0
M  V30 13969 H 1364.88 1.88449 0.242237 0
M  V30 13970 H 1363.03 3.01392 2.45143 0
M  V30 13971 H 1364.7 4.59756 0.377113 0
M  V30 13972 H 1362.94 4.3286 0.285414 0
M  V30 13973 H 1363.61 5.27858 1.61461 0
M  V30 13974 H 1366.09 3.47403 2.29021 0
M  V30 13975 H 1364.97 4.32331 3.38203 0
M  V30 13976 H 1365.23 2.5973 3.57761 0
M  V30 13977 N 1364.29 -0.50888 1.49158 0
M  V30 13978 C 1365.22 -1.62008 1.68154 0
M  V30 13979 C 1366.2 -1.61624 0.53025 0
M  V30 13980 O 1367.38 -1.78489 0.765205 0
M  V30 13981 C 1364.51 -3.00525 1.74075 0
M  V30 13982 C 1363.47 -3.15773 2.88915 0
M  V30 13983 C 1362.79 -4.55562 2.79942 0
M  V30 13984 C 1364.09 -2.96542 4.29953 0
M  V30 13985 H 1365.79 -1.46365 2.61185 0
M  V30 13986 H 1363.33 -0.702705 1.2569 0
M  V30 13987 H 1365.29 -3.78154 1.8595 0
M  V30 13988 H 1364.01 -3.17238 0.776373 0
M  V30 13989 H 1362.67 -2.40567 2.76628 0
M  V30 13990 H 1362.32 -4.6914 1.81429 0
M  V30 13991 H 1362.02 -4.66706 3.57015 0
M  V30 13992 H 1363.54 -5.35262 2.93814 0
M  V30 13993 H 1364.95 -3.63947 4.42963 0
M  V30 13994 H 1363.35 -3.19164 5.08187 0
M  V30 13995 H 1364.42 -1.92745 4.44946 0
M  V30 13996 N 1365.76 -1.381 -0.759346 0
M  V30 13997 C 1367.01 -1.33311 -1.51364 0
M  V30 13998 C 1367.33 0.0761325 -1.95452 0
M  V30 13999 O 1368.53 0.246541 -2.70378 0
M  V30 14000 C 1366.99 -2.34067 -2.73387 0
M  V30 14001 C 1366.6 -3.80583 -2.36348 0
M  V30 14002 C 1368.34 -2.38311 -3.51295 0
M  V30 14003 C 1366.25 -4.73039 -3.54948 0
M  V30 14004 H 1365.18 -0.495512 -0.568317 0
M  V30 14005 H 1367.83 -1.63625 -0.830602 0
M  V30 14006 H 1366.21 -1.96788 -3.43643 0
M  V30 14007 H 1367.38 -4.26769 -1.73796 0
M  V30 14008 H 1365.7 -3.79403 -1.71587 0
M  V30 14009 H 1368.3 -3.04586 -4.39467 0
M  V30 14010 H 1368.64 -1.40034 -3.92041 0
M  V30 14011 H 1369.17 -2.74361 -2.88047 0
M  V30 14012 H 1365.91 -5.7249 -3.19273 0
M  V30 14013 H 1365.43 -4.3155 -4.16563 0
M  V30 14014 H 1367.11 -4.90775 -4.21603 0
M  V30 14015 N 1367.24 0.986894 -1.22875 0
M  V30 14016 C 1368.47 1.76266 -1.08342 0
M  V30 14017 C 1368.89 1.85226 0.365602 0
M  V30 14018 O 1368.24 1.32675 1.25314 0
M  V30 14019 C 1368.29 3.19282 -1.69533 0
M  V30 14020 O 1368.01 3.10796 -3.08768 0
M  V30 14021 C 1369.52 4.13281 -1.60355 0
M  V30 14022 H 1366.74 0.553374 -0.379497 0
M  V30 14023 H 1369.28 1.24033 -1.62592 0
M  V30 14024 H 1367.43 3.68563 -1.19332 0
M  V30 14025 H 1367.85 4.0078 -3.38343 0
M  V30 14026 H 1369.32 5.11359 -2.07884 0
M  V30 14027 H 1369.8 4.356 -0.561182 0
M  V30 14028 H 1370.41 3.699 -2.09891 0
M  V30 14029 N 1368.72 1.0394 1.18466 0
M  V30 14030 C 1369.67 0.629352 2.22054 0
M  V30 14031 C 1370.64 -0.362187 1.62103 0
M  V30 14032 O 1371.82 -0.256457 1.89069 0
M  V30 14033 C 1368.96 -0.00282888 3.451 0
M  V30 14034 C 1368.08 1.03602 4.19393 0
M  V30 14035 C 1367.21 0.372492 5.29892 0
M  V30 14036 C 1366.25 1.39652 5.95956 0
M  V30 14037 N 1365.39 0.758053 6.97996 0
M  V30 14038 H 1370.23 1.51722 2.56485 0
M  V30 14039 H 1367.76 0.759043 1.26004 0
M  V30 14040 H 1369.72 -0.386688 4.15404 0
M  V30 14041 H 1368.35 -0.854224 3.11292 0
M  V30 14042 H 1367.4 1.53784 3.47929 0
M  V30 14043 H 1368.72 1.81387 4.64651 0
M  V30 14044 H 1367.87 -0.065642 6.06664 0
M  V30 14045 H 1366.61 -0.437462 4.85734 0
M  V30 14046 H 1365.61 1.84481 5.17926 0
M  V30 14047 H 1366.84 2.20816 6.42197 0
M  V30 14048 H 1364.78 -0.0316173 6.55992 0
M  V30 14049 H 1364.7 1.47363 7.41499 0
M  V30 14050 H 1365.97 0.344273 7.78739 0
M  V30 14051 N 1370.2 -1.34667 0.818693 0
M  V30 14052 C 1371.15 -2.31501 0.225816 0
M  V30 14053 C 1372.14 -1.57205 -0.631112 0
M  V30 14054 O 1373.35 -1.72237 -0.522924 0
M  V30 14055 H 1369.72 -0.750039 0.0542747 0
M  V30 14056 H 1371.69 -2.79036 1.05743 0
M  V30 14057 C 1370.44 -3.42464 -0.60114 0
M  V30 14058 H 1369.76 -3.9977 0.0489207 0
M  V30 14059 H 1371.2 -4.12468 -0.982154 0
M  V30 14060 C 1369.66 -2.86551 -1.77173 0
M  V30 14061 O 1370.19 -2.81085 -2.86974 0
M  V30 14062 N 1368.4 -2.43432 -1.58712 0
M  V30 14063 H 1367.95 -2.48077 -0.693958 0
M  V30 14064 H 1367.9 -2.06371 -2.37188 0
M  V30 14065 N 1371.68 -0.573274 -1.46804 0
M  V30 14066 C 1373.09 -0.144162 -1.86143 0
M  V30 14067 C 1373.44 1.29033 -1.47801 0
M  V30 14068 O 1372.56 1.97319 -0.888494 0
M  V30 14069 C 1373.16 -0.254851 -3.3784 0
M  V30 14070 C 1371.72 0.119325 -3.76211 0
M  V30 14071 C 1370.86 -0.595115 -2.70839 0
M  V30 14072 H 1373.82 -0.782057 -1.38093 0
M  V30 14073 H 1373.84 0.522321 -3.76898 0
M  V30 14074 H 1373.35 -1.29899 -3.65715 0
M  V30 14075 H 1371.45 1.16396 -3.53953 0
M  V30 14076 H 1371.56 -0.250421 -4.78445 0
M  V30 14077 H 1369.93 -0.0364028 -2.54674 0
M  V30 14078 H 1370.71 -1.64072 -3.01555 0
M  V30 14079 N 1373.15 1.5451 -0.310553 0
M  V30 14080 C 1374.09 2.2134 0.595098 0
M  V30 14081 C 1375.1 1.20917 1.09009 0
M  V30 14082 O 1376.29 1.47458 1.0059 0
M  V30 14083 C 1373.39 2.85384 1.82782 0
M  V30 14084 C 1372.56 4.11826 1.47372 0
M  V30 14085 C 1371.62 4.59584 2.56259 0
M  V30 14086 O 1370.65 5.24567 2.20949 0
M  V30 14087 N 1371.85 4.32709 3.86967 0
M  V30 14088 H 1374.61 2.99691 0.0229291 0
M  V30 14089 H 1372.17 1.61351 -0.133173 0
M  V30 14090 H 1374.17 3.14263 2.54992 0
M  V30 14091 H 1372.74 2.10816 2.30815 0
M  V30 14092 H 1371.96 3.89853 0.583826 0
M  V30 14093 H 1373.24 4.94138 1.21265 0
M  V30 14094 H 1372.64 3.80669 4.18458 0
M  V30 14095 H 1371.2 4.66275 4.55446 0
M  V30 14096 N 1374.63 0.0384594 1.57553 0
M  V30 14097 C 1375.88 -0.636879 1.91803 0
M  V30 14098 C 1376.2 -1.72128 0.916347 0
M  V30 14099 O 1375.47 -1.95858 -0.0407405 0
M  V30 14100 H 1374.05 -0.238237 0.707992 0
M  V30 14101 H 1376.71 0.0884651 1.94699 0
M  V30 14102 H 1375.81 -1.08364 2.92683 0
M  V30 14103 N 1376.11 -1.55841 -0.234795 0
M  V30 14104 C 1377.36 -1.77886 -0.959217 0
M  V30 14105 C 1377.68 -0.604621 -1.8539 0
M  V30 14106 O 1376.95 0.379092 -1.92197 0
M  V30 14107 H 1375.53 -0.656077 -0.357172 0
M  V30 14108 H 1378.19 -1.93292 -0.249831 0
M  V30 14109 H 1377.29 -2.69512 -1.57383 0
M  V30 14110 N 1377.59 0.500963 -1.49426 0
M  V30 14111 C 1378.54 1.59939 -1.62492 0
M  V30 14112 C 1379.52 1.53555 -0.480584 0
M  V30 14113 O 1380.72 1.61085 -0.733538 0
M  V30 14114 C 1377.84 2.98549 -1.6948 0
M  V30 14115 C 1376.93 3.09929 -2.89491 0
M  V30 14116 N 1377.32 2.91198 -4.13567 0
M  V30 14117 C 1375.62 3.41029 -2.87428 0
M  V30 14118 C 1376.32 3.06761 -4.94239 0
M  V30 14119 N 1375.3 3.35639 -4.27606 0
M  V30 14120 H 1379.1 1.44111 -2.56143 0
M  V30 14121 H 1376.61 0.707088 -1.46199 0
M  V30 14122 H 1378.61 3.7749 -1.76938 0
M  V30 14123 H 1377.27 3.15446 -0.769658 0
M  V30 14124 H 1378.28 2.67373 -4.43545 0
M  V30 14125 H 1374.96 3.64103 -2.04293 0
M  V30 14126 H 1376.35 2.96772 -6.02807 0
M  V30 14127 N 1379.07 1.38501 0.752011 0
M  V30 14128 C 1380.29 1.38212 1.54636 0
M  V30 14129 C 1380.72 -0.0256356 1.88083 0
M  V30 14130 O 1380.08 -1.00812 1.50687 0
M  V30 14131 C 1380.12 2.24597 2.82114 0
M  V30 14132 O 1379.23 1.66415 3.77332 0
M  V30 14133 H 1378.57 0.47138 0.46765 0
M  V30 14134 H 1381.1 1.82283 0.929205 0
M  V30 14135 H 1381.11 2.38511 3.31023 0
M  V30 14136 H 1379.78 3.26913 2.57101 0
M  V30 14137 H 1378.36 1.61651 3.36041 0
M  V30 14138 N 1380.55 -0.980364 1.23396 0
M  V30 14139 C 1381.96 -1.24658 0.996622 0
M  V30 14140 C 1382.16 -1.9922 -0.302259 0
M  V30 14141 O 1381.22 -2.30906 -1.02169 0
M  V30 14142 C 1382.53 -2.0461 2.20353 0
M  V30 14143 C 1384.08 -2.17749 2.24843 0
M  V30 14144 C 1384.55 -3.01091 3.4512 0
M  V30 14145 N 1386.04 -3.08676 3.4536 0
M  V30 14146 C 1386.78 -3.73487 4.3508 0
M  V30 14147 N 1386.28 -4.40121 5.35038 0
M  V30 14148 N 1388.07 -3.70373 4.22824 0
M  V30 14149 H 1380.22 -0.480851 2.06885 0
M  V30 14150 H 1382.48 -0.275049 0.907222 0
M  V30 14151 H 1382.19 -1.57197 3.14614 0
M  V30 14152 H 1382.06 -3.05359 2.21441 0
M  V30 14153 H 1384.45 -2.64369 1.31122 0
M  V30 14154 H 1384.53 -1.16388 2.27788 0
M  V30 14155 H 1384.17 -2.55168 4.39149 0
M  V30 14156 H 1384.1 -4.02621 3.39417 0
M  V30 14157 H 1386.6 -2.61265 2.73037 0
M  V30 14158 H 1386.91 -4.87354 5.99755 0
M  V30 14159 H 1385.25 -4.38829 5.38938 0
M  V30 14160 H 1388.44 -3.17486 3.43977 0
M  V30 14161 H 1388.62 -4.20601 4.92949 0
M  V30 14162 N 1382.02 -1.04567 -1.17913 0
M  V30 14163 C 1382.97 -0.634939 -2.23766 0
M  V30 14164 C 1383.97 0.340723 -1.65938 0
M  V30 14165 O 1385.17 0.207467 -1.788 0
M  V30 14166 H 1381.55 -0.187129 -0.728345 0
M  V30 14167 H 1383.52 -1.53798 -2.55712 0
M  V30 14168 C 1382.27 -0.0190662 -3.47695 0
M  V30 14169 H 1381.59 -0.760881 -3.92493 0
M  V30 14170 H 1383.03 0.231035 -4.2337 0
M  V30 14171 C 1381.49 1.23246 -3.13548 0
M  V30 14172 O 1382.02 2.32262 -3.27746 0
M  V30 14173 N 1380.22 1.12768 -2.67828 0
M  V30 14174 H 1379.77 0.240547 -2.56474 0
M  V30 14175 H 1379.73 1.96594 -2.45353 0
M  V30 14176 N 1383.5 1.34231 -0.825823 0
M  V30 14177 C 1384.73 2.02949 -0.427354 0
M  V30 14178 C 1385.15 1.61772 0.959755 0
M  V30 14179 O 1384.51 0.803799 1.62508 0
M  V30 14180 C 1384.56 3.56522 -0.540799 0
M  V30 14181 O 1383.66 4.10065 0.438213 0
M  V30 14182 H 1383 0.640378 -0.175535 0
M  V30 14183 H 1385.53 1.71416 -1.11704 0
M  V30 14184 H 1385.54 4.05857 -0.41763 0
M  V30 14185 H 1384.22 3.85839 -1.55246 0
M  V30 14186 H 1382.79 3.71894 0.273687 0
M  V30 14187 N 1384.98 0.581051 1.46498 0
M  V30 14188 C 1386.2 0.0696654 2.07283 0
M  V30 14189 C 1386.63 -1.22525 1.42721 0
M  V30 14190 O 1385.99 -1.73967 0.510421 0
M  V30 14191 C 1386.04 -0.0843864 3.60501 0
M  V30 14192 O 1385.14 -1.14129 3.96293 0
M  V30 14193 H 1384.48 0.0620572 0.661094 0
M  V30 14194 H 1387.01 0.803522 1.88161 0
M  V30 14195 H 1387.02 -0.29108 4.0696 0
M  V30 14196 H 1385.7 0.861274 4.06884 0
M  V30 14197 H 1384.27 -0.913186 3.61546 0
M  V30 14198 N 1386.46 -1.54343 0.318742 0
M  V30 14199 C 1387.71 -2.00084 -0.284713 0
M  V30 14200 C 1388.03 -1.20855 -1.53033 0
M  V30 14201 O 1387.3 -0.309104 -1.93446 0
M  V30 14202 H 1385.88 -0.739123 -0.108193 0
M  V30 14203 H 1388.54 -1.90002 0.434174 0
M  V30 14204 H 1387.63 -3.07314 -0.544459 0
M  V30 14205 N 1387.94 -0.0468143 -1.5753 0
M  V30 14206 C 1389.16 0.641161 -1.97241 0
M  V30 14207 C 1389.59 1.6384 -0.92401 0
M  V30 14208 O 1388.94 1.80946 0.113229 0
M  V30 14209 C 1388.99 1.30832 -3.36029 0
M  V30 14210 O 1388.1 2.42394 -3.33645 0
M  V30 14211 H 1387.44 0.167035 -0.642647 0
M  V30 14212 H 1389.97 -0.113921 -2.04283 0
M  V30 14213 H 1389.98 1.66102 -3.72658 0
M  V30 14214 H 1388.65 0.57744 -4.11872 0
M  V30 14215 H 1387.23 2.09104 -3.08756 0
M  V30 14216 N 1389.41 1.55964 0.226527 0
M  V30 14217 C 1390.64 1.83168 0.972846 0
M  V30 14218 C 1391.06 0.626512 1.7736 0
M  V30 14219 O 1390.42 -0.42468 1.76256 0
M  V30 14220 C 1390.47 3.08315 1.87014 0
M  V30 14221 O 1389.57 2.8666 2.96479 0
M  V30 14222 H 1388.92 0.604041 0.275736 0
M  V30 14223 H 1391.45 2.03172 0.241345 0
M  V30 14224 H 1391.46 3.38288 2.28091 0
M  V30 14225 H 1390.13 3.95663 1.28154 0
M  V30 14226 H 1388.71 2.67907 2.59384 0
M  V30 14227 N 1390.89 -0.493031 1.4969 0
M  V30 14228 C 1391.8 -1.61991 1.69694 0
M  V30 14229 C 1392.82 -1.64061 0.579641 0
M  V30 14230 O 1393.99 -1.82335 0.855323 0
M  V30 14231 C 1391.06 -2.98323 1.76648 0
M  V30 14232 C 1390.12 -3.06816 3.00271 0
M  V30 14233 C 1389.35 -4.36644 3.06883 0
M  V30 14234 O 1389.58 -5.25901 2.20872 0
M  V30 14235 O 1388.51 -4.50275 3.99419 0
M  V30 14236 H 1392.34 -1.48042 2.65174 0
M  V30 14237 H 1389.92 -0.670182 1.33525 0
M  V30 14238 H 1391.8 -3.79335 1.83529 0
M  V30 14239 H 1390.48 -3.12517 0.843482 0
M  V30 14240 H 1389.39 -2.24962 2.98903 0
M  V30 14241 H 1390.72 -2.97551 3.92077 0
M  V30 14242 N 1392.37 -1.38898 -0.744656 0
M  V30 14243 C 1393.6 -1.3903 -1.53901 0
M  V30 14244 C 1394.02 0.0156607 -1.88093 0
M  V30 14245 O 1393.38 1.00012 -1.51219 0
M  V30 14246 C 1393.43 -2.2609 -2.80919 0
M  V30 14247 O 1392.53 -1.68414 -3.76444 0
M  V30 14248 H 1391.87 -0.473854 -0.465144 0
M  V30 14249 H 1394.4 -1.82773 -0.919525 0
M  V30 14250 H 1394.41 -2.40264 -3.29754 0
M  V30 14251 H 1393.09 -3.28271 -2.55364 0
M  V30 14252 H 1391.66 -1.63431 -3.35179 0
M  V30 14253 N 1393.85 0.973806 -1.23914 0
M  V30 14254 C 1395.07 1.7564 -1.10296 0
M  V30 14255 C 1395.5 1.84984 0.340954 0
M  V30 14256 O 1394.86 1.31629 1.24674 0
M  V30 14257 C 1394.9 3.15809 -1.7406 0
M  V30 14258 O 1394.01 3.99911 -1.00722 0
M  V30 14259 H 1393.35 0.540133 -0.386202 0
M  V30 14260 H 1395.88 1.22197 -1.64101 0
M  V30 14261 H 1395.89 3.66359 -1.79568 0
M  V30 14262 H 1394.56 3.08324 -2.79122 0
M  V30 14263 H 1393.14 3.58405 -1.02956 0
M  V30 14264 N 1395.33 1.05191 1.17357 0
M  V30 14265 C 1396.26 0.673931 2.23563 0
M  V30 14266 C 1397.24 -0.328284 1.66902 0
M  V30 14267 O 1398.42 -0.205878 1.93106 0
M  V30 14268 C 1395.55 0.0478801 3.47267 0
M  V30 14269 C 1394.51 0.974855 4.1675 0
M  V30 14270 C 1393.83 0.212684 5.34277 0
M  V30 14271 C 1395.13 2.299 4.68981 0
M  V30 14272 H 1396.83 1.56183 2.55436 0
M  V30 14273 H 1394.37 0.752408 1.2278 0
M  V30 14274 H 1396.33 -0.228343 4.20781 0
M  V30 14275 H 1395.05 -0.874963 3.14662 0
M  V30 14276 H 1393.71 1.23564 3.45148 0
M  V30 14277 H 1393.36 -0.712924 4.97922 0
M  V30 14278 H 1393.06 0.830351 5.81703 0
M  V30 14279 H 1394.58 -0.056255 6.10574 0
M  V30 14280 H 1395.99 2.08269 5.34132 0
M  V30 14281 H 1394.39 2.87064 5.26986 0
M  V30 14282 H 1395.46 2.93759 3.8579 0
M  V30 14283 N 1396.8 -1.33791 0.83293 0
M  V30 14284 C 1398.22 -1.80336 0.483294 0
M  V30 14285 C 1398.57 -1.68969 -0.997195 0
M  V30 14286 O 1397.69 -1.23549 -1.77664 0
M  V30 14287 C 1398.29 -3.27427 0.870475 0
M  V30 14288 C 1396.85 -3.72012 0.573064 0
M  V30 14289 C 1395.99 -2.55319 1.08201 0
M  V30 14290 H 1398.94 -1.21396 1.02218 0
M  V30 14291 H 1398.96 -3.80083 0.178173 0
M  V30 14292 H 1398.48 -3.35668 1.94804 0
M  V30 14293 H 1396.58 -3.69302 -0.494678 0
M  V30 14294 H 1396.69 -4.65725 1.12414 0
M  V30 14295 H 1395.05 -2.49681 0.503123 0
M  V30 14296 H 1395.84 -2.66326 2.16623 0
M  V30 14297 N 1398.28 -0.588812 -1.46187 0
M  V30 14298 C 1399.23 0.153638 -2.32092 0
M  V30 14299 C 1400.22 0.878346 -1.4485 0
M  V30 14300 O 1401.43 0.796042 -1.61441 0
M  V30 14301 H 1397.81 0.0684129 -0.748882 0
M  V30 14302 H 1399.78 -0.58961 -2.92517 0
M  V30 14303 C 1398.53 1.15003 -3.28131 0
M  V30 14304 H 1397.85 0.601804 -3.95245 0
M  V30 14305 H 1399.29 1.6398 -3.91007 0
M  V30 14306 C 1397.75 2.21411 -2.53926 0
M  V30 14307 O 1398.28 3.28862 -2.30679 0
M  V30 14308 N 1396.48 1.96184 -2.14383 0
M  V30 14309 H 1396.03 1.08812 -2.3349 0
M  V30 14310 H 1395.99 2.6759 -1.65055 0
M  V30 14311 N 1399.76 1.54172 -0.326923 0
M  V30 14312 C 1400.69 2.27402 0.530154 0
M  V30 14313 C 1401.67 1.28325 1.11655 0
M  V30 14314 O 1402.86 1.57142 1.14105 0
M  V30 14315 C 1399.99 3.03435 1.68951 0
M  V30 14316 C 1398.94 4.09877 1.23226 0
M  V30 14317 C 1398.27 4.7377 2.47882 0
M  V30 14318 C 1399.57 5.21161 0.344698 0
M  V30 14319 H 1401.26 2.99291 -0.0806959 0
M  V30 14320 H 1398.81 1.43944 -0.0402511 0
M  V30 14321 H 1400.76 3.53396 2.29541 0
M  V30 14322 H 1399.48 2.29169 2.327 0
M  V30 14323 H 1398.14 3.60805 0.649267 0
M  V30 14324 H 1397.79 3.96116 3.10002 0
M  V30 14325 H 1397.49 5.45674 2.17977 0
M  V30 14326 H 1399.01 5.26507 3.09229 0
M  V30 14327 H 1400.43 5.66859 0.856979 0
M  V30 14328 H 1398.83 5.99941 0.138276 0
M  V30 14329 H 1399.9 4.80874 -0.623575 0
M  V30 14330 N 1401.24 0.0551678 1.57503 0
M  V30 14331 C 1402.2 -0.903065 2.10659 0
M  V30 14332 C 1403.2 -1.23728 1.02703 0
M  V30 14333 O 1404.39 -1.17331 1.2876 0
M  V30 14334 C 1401.52 -2.21171 2.59415 0
M  V30 14335 H 1402.72 -0.442197 2.96622 0
M  V30 14336 H 1400.27 -0.193297 1.551 0
M  V30 14337 H 1401 -2.71831 1.76858 0
M  V30 14338 H 1400.79 -1.98216 3.38309 0
M  V30 14339 H 1402.28 -2.89802 3.00674 0
M  V30 14340 N 1402.72 -1.56081 -0.218252 0
M  V30 14341 C 1404.13 -1.49147 -0.568098 0
M  V30 14342 C 1404.33 -0.750893 -1.86986 0
M  V30 14343 O 1403.39 -0.291904 -2.50807 0
M  V30 14344 C 1404.7 -2.93717 -0.644272 0
M  V30 14345 C 1406.25 -3.04256 -0.734677 0
M  V30 14346 C 1406.72 -4.50191 -0.842167 0
M  V30 14347 N 1408.22 -4.54247 -0.906302 0
M  V30 14348 C 1408.95 -5.64448 -1.00924 0
M  V30 14349 N 1408.45 -6.84394 -1.07592 0
M  V30 14350 N 1410.24 -5.52308 -1.04463 0
M  V30 14351 H 1402.39 -2.02656 0.635935 0
M  V30 14352 H 1404.65 -0.921262 0.223563 0
M  V30 14353 H 1404.36 -3.50861 0.242721 0
M  V30 14354 H 1404.23 -3.45798 -1.50678 0
M  V30 14355 H 1406.62 -2.47174 -1.61211 0
M  V30 14356 H 1406.7 -2.55339 0.153563 0
M  V30 14357 H 1406.35 -5.07891 0.0308214 0
M  V30 14358 H 1406.28 -4.96817 -1.74587 0
M  V30 14359 H 1408.77 -3.67868 -0.864954 0
M  V30 14360 H 1409.08 -7.6413 -1.15433 0
M  V30 14361 H 1407.42 -6.87099 -1.045 0
M  V30 14362 H 1410.62 -4.57528 -0.989218 0
M  V30 14363 H 1410.79 -6.38223 -1.1214 0
M  V30 14364 N 1404.2 0.485086 -1.49949 0
M  V30 14365 C 1405.42 1.26648 -1.64241 0
M  V30 14366 C 1405.85 1.85359 -0.319939 0
M  V30 14367 O 1405.2 1.66628 0.714487 0
M  V30 14368 C 1405.25 2.36109 -2.72552 0
M  V30 14369 O 1404.36 3.40387 -2.32832 0
M  V30 14370 H 1403.7 0.373208 -0.549192 0
M  V30 14371 H 1406.23 0.578929 -1.96239 0
M  V30 14372 H 1406.24 2.81634 -2.95205 0
M  V30 14373 H 1404.91 1.92745 -3.6854 0
M  V30 14374 H 1403.49 3.0067 -2.20571 0
M  V30 14375 N 1405.67 1.39291 0.737279 0
M  V30 14376 C 1406.6 1.40562 1.86452 0
M  V30 14377 C 1407.58 0.269283 1.67955 0
M  V30 14378 O 1408.77 0.474769 1.88307 0
M  V30 14379 C 1405.9 1.2461 3.24175 0
M  V30 14380 C 1404.85 2.35619 3.57306 0
M  V30 14381 C 1404.18 2.04758 4.93941 0
M  V30 14382 C 1405.48 3.77927 3.60512 0
M  V30 14383 H 1407.17 2.34896 1.85646 0
M  V30 14384 H 1404.72 1.13065 0.891756 0
M  V30 14385 H 1406.67 1.2412 4.02706 0
M  V30 14386 H 1405.4 0.267438 3.25503 0
M  V30 14387 H 1404.06 2.35322 2.81104 0
M  V30 14388 H 1403.7 1.05336 4.91847 0
M  V30 14389 H 1403.4 2.79117 5.17076 0
M  V30 14390 H 1404.93 2.05915 5.74832 0
M  V30 14391 H 1406.34 3.80166 4.29123 0
M  V30 14392 H 1404.74 4.51626 3.95164 0
M  V30 14393 H 1405.81 4.09068 2.60368 0
M  V30 14394 N 1407.15 -0.967221 1.24429 0
M  V30 14395 C 1408.08 -2.07966 1.06172 0
M  V30 14396 C 1409.06 -1.70081 -0.0254566 0
M  V30 14397 O 1410.25 -1.93682 0.141705 0
M  V30 14398 C 1407.38 -3.4085 0.666251 0
M  V30 14399 C 1406.33 -3.92692 1.70225 0
M  V30 14400 C 1405.66 -5.21925 1.16183 0
M  V30 14401 C 1406.96 -4.20478 3.09831 0
M  V30 14402 H 1408.65 -2.23497 1.99222 0
M  V30 14403 H 1406.2 -1.07398 0.959255 0
M  V30 14404 H 1408.15 -4.1811 0.52552 0
M  V30 14405 H 1406.87 -3.2522 -0.299939 0
M  V30 14406 H 1405.53 -3.17588 1.83121 0
M  V30 14407 H 1405.18 -5.02655 0.186237 0
M  V30 14408 H 1404.88 -5.57579 1.85416 0
M  V30 14409 H 1406.41 -6.01795 1.03323 0
M  V30 14410 H 1407.82 -4.88442 3.00162 0
M  V30 14411 H 1406.22 -4.67362 3.7642 0
M  V30 14412 H 1407.29 -3.27235 3.57834 0
M  V30 14413 N 1408.63 -1.05812 -1.16797 0
M  V30 14414 C 1409.56 -0.685778 -2.23202 0
M  V30 14415 C 1410.54 0.319428 -1.67074 0
M  V30 14416 O 1411.73 0.195635 -1.93212 0
M  V30 14417 C 1408.86 -0.0662958 -3.47237 0
M  V30 14418 C 1407.81 -0.996943 -4.16227 0
M  V30 14419 C 1407.14 -0.241015 -5.34157 0
M  V30 14420 C 1408.44 -2.32384 -4.67755 0
M  V30 14421 H 1410.13 -1.57535 -2.54604 0
M  V30 14422 H 1407.68 -0.758909 -1.22379 0
M  V30 14423 H 1409.63 0.206024 -4.20896 0
M  V30 14424 H 1408.35 0.858263 -3.15121 0
M  V30 14425 H 1407.01 -1.25393 -3.44488 0
M  V30 14426 H 1406.66 0.686508 -4.98293 0
M  V30 14427 H 1406.36 -0.861188 -5.81255 0
M  V30 14428 H 1407.88 0.0238739 -6.10595 0
M  V30 14429 H 1409.3 -2.11099 -5.3302 0
M  V30 14430 H 1407.69 -2.89855 -5.25456 0
M  V30 14431 H 1408.76 -2.958 -3.84227 0
M  V30 14432 N 1410.11 1.33347 -0.840014 0
M  V30 14433 C 1411.35 1.98037 -0.43692 0
M  V30 14434 C 1411.69 1.66382 1.00154 0
M  V30 14435 O 1410.96 0.944311 1.70038 0
M  V30 14436 C 1411.24 3.54012 -0.65937 0
M  V30 14437 C 1411.1 3.9535 -2.14518 0
M  V30 14438 C 1412.42 4.39972 -0.106258 0
M  V30 14439 H 1409.54 0.719373 -0.160221 0
M  V30 14440 H 1412.18 1.57969 -1.05574 0
M  V30 14441 H 1410.33 3.88274 -0.132633 0
M  V30 14442 H 1412 3.7134 -2.73687 0
M  V30 14443 H 1410.24 3.4504 -2.62926 0
M  V30 14444 H 1410.91 5.03992 -2.25158 0
M  V30 14445 H 1413.39 4.12362 -0.556511 0
M  V30 14446 H 1412.27 5.48125 -0.291583 0
M  V30 14447 H 1412.53 4.30872 0.990032 0
M  V30 14448 N 1411.59 0.596556 1.45873 0
M  V30 14449 C 1412.86 0.0199562 1.9559 0
M  V30 14450 C 1413.24 -1.44479 1.53912 0
M  V30 14451 O 1412.59 -2.14173 0.796384 0
M  V30 14452 C 1412.8 0.206497 3.48389 0
M  V30 14453 C 1414.15 0.0815298 4.24522 0
M  V30 14454 O 1415.17 0.136045 3.5594 0
M  V30 14455 O 1414.03 -0.0426117 5.46483 0
M  V30 14456 H 1411.13 -0.0419913 0.825933 0
M  V30 14457 H 1413.67 0.665846 1.56092 0
M  V30 14458 H 1412.44 1.22422 3.71656 0
M  V30 14459 H 1412.07 -0.475175 3.9475 0
M  V30 14460 N 1413.06 -1.53996 0.335095 0
M  V30 14461 C 1414 -2.22258 -0.559809 0
M  V30 14462 C 1415.01 -1.22636 -1.07071 0
M  V30 14463 O 1416.2 -1.4904 -0.982312 0
M  V30 14464 C 1413.3 -2.88256 -1.78218 0
M  V30 14465 C 1412.47 -4.14118 -1.40801 0
M  V30 14466 C 1411.53 -4.63603 -2.48915 0
M  V30 14467 O 1410.56 -5.28015 -2.12576 0
M  V30 14468 N 1411.76 -4.3881 -3.80034 0
M  V30 14469 H 1414.52 -2.9969 0.0247521 0
M  V30 14470 H 1412.08 -1.61119 0.158826 0
M  V30 14471 H 1414.08 -3.1828 -2.4996 0
M  V30 14472 H 1412.65 -2.14461 -2.27431 0
M  V30 14473 H 1411.87 -3.90732 -0.521729 0
M  V30 14474 H 1413.15 -4.96005 -1.13388 0
M  V30 14475 H 1412.55 -3.87278 -4.12349 0
M  V30 14476 H 1411.11 -4.73461 -4.47971 0
M  V30 14477 N 1414.54 -0.0635198 -1.57472 0
M  V30 14478 C 1415.47 0.90431 -2.15278 0
M  V30 14479 C 1416.45 1.31609 -1.07764 0
M  V30 14480 O 1417.64 1.38861 -1.35762 0
M  V30 14481 C 1414.77 2.17483 -2.70774 0
M  V30 14482 C 1413.72 1.90272 -3.8338 0
M  V30 14483 C 1413.05 3.23885 -4.25444 0
M  V30 14484 C 1414.35 1.21454 -5.07983 0
M  V30 14485 H 1416.04 0.422786 -2.964 0
M  V30 14486 H 1413.59 0.201918 -1.42577 0
M  V30 14487 H 1415.54 2.856 -3.09856 0
M  V30 14488 H 1414.26 2.67863 -1.86861 0
M  V30 14489 H 1412.92 1.24564 -3.44789 0
M  V30 14490 H 1412.57 3.72089 -3.38465 0
M  V30 14491 H 1412.27 3.06472 -5.01347 0
M  V30 14492 H 1413.8 3.93212 -4.67137 0
M  V30 14493 H 1415.21 1.79625 -5.44433 0
M  V30 14494 H 1413.61 1.14327 -5.89109 0
M  V30 14495 H 1414.68 0.19238 -4.84518 0
M  V30 14496 N 1416.02 1.56195 0.209972 0
M  V30 14497 C 1417.27 1.78941 0.930744 0
M  V30 14498 C 1417.58 0.634139 1.85035 0
M  V30 14499 O 1418.79 0.745524 2.61064 0
M  V30 14500 C 1417.24 3.16935 1.70529 0
M  V30 14501 C 1416.85 4.40221 0.83125 0
M  V30 14502 C 1418.6 3.49 2.41659 0
M  V30 14503 C 1416.5 5.69238 1.60381 0
M  V30 14504 H 1415.43 0.667176 0.351273 0
M  V30 14505 H 1418.08 1.82572 0.184341 0
M  V30 14506 H 1416.47 3.07513 2.49503 0
M  V30 14507 H 1417.64 4.60728 0.081227 0
M  V30 14508 H 1415.95 4.15756 0.231517 0
M  V30 14509 H 1418.55 4.42623 2.99982 0
M  V30 14510 H 1418.89 2.72042 3.15117 0
M  V30 14511 H 1419.43 3.59804 1.69665 0
M  V30 14512 H 1416.17 6.49121 0.912292 0
M  V30 14513 H 1415.69 5.52772 2.32815 0
M  V30 14514 H 1417.37 6.09827 2.16149 0
M  V30 14515 N 1417.5 -0.477127 1.50204 0
M  V30 14516 C 1418.77 -1.23837 1.51406 0
M  V30 14517 C 1419.15 -2.09551 0.255278 0
M  V30 14518 O 1418.5 -2.15437 -0.761535 0
M  V30 14519 C 1418.71 -2.0746 2.80644 0
M  V30 14520 C 1420.06 -2.65852 3.31071 0
M  V30 14521 O 1421.08 -2.17708 2.81925 0
M  V30 14522 O 1419.94 -3.53556 4.16726 0
M  V30 14523 H 1417.04 -0.561638 0.607036 0
M  V30 14524 H 1419.58 -0.489442 1.62489 0
M  V30 14525 H 1418.36 -1.44258 3.63738 0
M  V30 14526 H 1417.98 -2.895 2.72536 0
M  V30 14527 N 1418.98 -1.3968 -0.729882 0
M  V30 14528 C 1419.91 -1.41549 -1.85704 0
M  V30 14529 C 1420.89 -0.278186 -1.6781 0
M  V30 14530 O 1422.07 -0.484749 -1.88053 0
M  V30 14531 C 1419.2 -1.26327 -3.2351 0
M  V30 14532 C 1418.16 -2.37511 -3.56051 0
M  V30 14533 C 1417.48 -2.07375 -4.92849 0
M  V30 14534 C 1418.78 -3.79833 -3.58502 0
M  V30 14535 H 1420.48 -2.35877 -1.84398 0
M  V30 14536 H 1418.02 -1.13536 -0.885747 0
M  V30 14537 H 1419.98 -1.26254 -4.02042 0
M  V30 14538 H 1418.7 -0.284697 -3.25357 0
M  V30 14539 H 1417.36 -2.36809 -2.79852 0
M  V30 14540 H 1417.01 -1.07943 -4.91281 0
M  V30 14541 H 1416.71 -2.81855 -5.15588 0
M  V30 14542 H 1418.23 -2.08961 -5.73731 0
M  V30 14543 H 1419.64 -3.82436 -4.27101 0
M  V30 14544 H 1418.04 -4.53715 -3.92763 0
M  V30 14545 H 1419.11 -4.10443 -2.58195 0
M  V30 14546 O 1420.49 0.871124 -1.35991 0
M  V30 14547 H 1421.18 1.50971 -1.21356 0
M  V30 END ATOM
M  V30 BEGIN BOND
M  V30 END BOND
M  V30 END CTAB
M  END
$$$$
