drugbank_target|O32393 Adenylate cyclase (DB02355; DB02596; DB07706)
 OpenBabel12092120243D

  0  0  0     0  0            999 V3000
M  V30 BEGIN CTAB
M  V30 COUNTS 18846 19001 0 0 0
M  V30 BEGIN ATOM
M  V30 1 H -0.908 1.98254 -0.117106 0
M  V30 2 N 0 1.576 0 0
M  V30 3 C 0.933 2.03868 1.02534 0
M  V30 4 C 1.911 0.928543 1.3348 0
M  V30 5 O 3.095 1.19667 1.45644 0
M  V30 6 C 0.222 2.43627 2.35294 0
M  V30 7 C -0.732 3.65373 2.2001 0
M  V30 8 S 0.101 5.13292 1.52614 0
M  V30 9 C 1.257 5.56322 2.86805 0
M  V30 10 H 1.49 2.90518 0.631377 0
M  V30 11 H -0.977 1.52953 0.210867 0
M  V30 12 H 0.981 2.67203 3.11629 0
M  V30 13 H -0.358 1.57376 2.7183 0
M  V30 14 H -1.165 3.90944 3.18086 0
M  V30 15 H -1.563 3.418 1.51819 0
M  V30 16 H 0.729 5.58782 3.83104 0
M  V30 17 H 1.672 6.56266 2.65933 0
M  V30 18 H 2.08 4.83886 2.90714 0
M  V30 19 N 1.4781 -0.272755 1.55222 0
M  V30 20 C 2.7031 -1.02683 1.80197 0
M  V30 21 C 3.1281 -1.79142 0.573551 0
M  V30 22 O 2.4861 -1.74917 -0.476849 0
M  V30 23 C 2.5341 -1.9609 3.02624 0
M  V30 24 O 1.6381 -3.04863 2.77727 0
M  V30 25 H 0.9791 -0.293557 0.595584 0
M  V30 26 H 3.5091 -0.30159 2.02365 0
M  V30 27 H 3.5191 -2.38039 3.31363 0
M  V30 28 H 2.1941 -1.39851 3.91682 0
M  V30 29 H 0.7711 -2.67228 2.60084 0
M  V30 30 N 2.9562 -1.48159 -0.537278 0
M  V30 31 C 4.1812 -1.59707 -1.32319 0
M  V30 32 C 4.6062 -0.254859 -1.86365 0
M  V30 33 O 3.9642 0.772378 -1.64024 0
M  V30 34 C 4.0122 -2.6412 -2.45505 0
M  V30 35 O 3.1162 -2.20774 -3.48328 0
M  V30 36 H 2.4572 -0.535791 -0.392204 0
M  V30 37 H 4.9872 -1.94092 -0.647268 0
M  V30 38 H 4.9972 -2.85166 -2.91795 0
M  V30 39 H 3.6722 -3.61567 -2.05528 0
M  V30 40 H 2.2492 -2.09911 -3.08207 0
M  V30 41 N 4.4343 0.785586 -1.36625 0
M  V30 42 C 5.8453 1.36101 -1.27803 0
M  V30 43 C 6.1963 1.96035 0.0804875 0
M  V30 44 O 5.3213 1.92834 0.982042 0
M  V30 45 C 5.9163 2.47442 -2.31426 0
M  V30 46 C 4.4753 3.00789 -2.26281 0
M  V30 47 C 3.6223 1.73896 -2.15999 0
M  V30 48 H 6.5733 0.586928 -1.47448 0
M  V30 49 H 6.5943 3.2656 -1.95291 0
M  V30 50 H 6.1063 2.03791 -3.30289 0
M  V30 51 H 4.2073 3.48851 -1.30896 0
M  V30 52 H 4.3203 3.57343 -3.19128 0
M  V30 53 H 2.6843 1.9628 -1.62316 0
M  V30 54 H 3.4673 1.32368 -3.16755 0
M  V30 55 N 5.9124 1.20967 1.01018 0
M  V30 56 C 6.8604 0.961223 2.1181 0
M  V30 57 C 7.8544 -0.0897034 1.69162 0
M  V30 58 O 9.0604 0.0612271 1.79896 0
M  V30 59 H 5.4354 0.29355 0.692338 0
M  V30 60 H 7.4064 1.90178 2.29946 0
M  V30 61 C 6.1554 0.536854 3.4353 0
M  V30 62 H 5.4784 1.33713 3.76777 0
M  V30 63 H 6.9184 0.402286 4.22087 0
M  V30 64 C 5.3774 -0.751574 3.2841 0
M  V30 65 O 5.9074 -1.80841 3.58691 0
M  V30 66 N 4.1134 -0.716079 2.81639 0
M  V30 67 H 3.6604 0.144236 2.57196 0
M  V30 68 H 3.6184 -1.57847 2.71904 0
M  V30 69 N 7.3905 -1.2043 1.01659 0
M  V30 70 C 8.8065 -1.41852 0.731442 0
M  V30 71 C 9.0065 -1.89358 -0.688898 0
M  V30 72 O 8.0625 -2.06247 -1.45666 0
M  V30 73 C 9.3755 -2.44019 1.75714 0
M  V30 74 C 10.9235 -2.57785 1.77527 0
M  V30 75 C 11.3985 -3.63194 2.79023 0
M  V30 76 N 12.8895 -3.70678 2.77763 0
M  V30 77 C 13.6245 -4.51897 3.52954 0
M  V30 78 N 13.1205 -5.36921 4.37821 0
M  V30 79 N 14.9135 -4.4643 3.41551 0
M  V30 80 H 7.0645 -0.879093 1.93354 0
M  V30 81 H 9.3275 -0.448425 0.835236 0
M  V30 82 H 9.0335 -2.1611 2.77469 0
M  V30 83 H 8.9075 -3.43007 1.56927 0
M  V30 84 H 11.2945 -2.85023 0.764569 0
M  V30 85 H 11.3755 -1.58992 2.00387 0
M  V30 86 H 11.0195 -3.36699 3.80258 0
M  V30 87 H 10.9495 -4.61609 2.53425 0
M  V30 88 H 13.4405 -3.09944 2.16201 0
M  V30 89 H 13.7535 -5.95981 4.91962 0
M  V30 90 H 12.0985 -5.36424 4.41899 0
M  V30 91 H 15.2895 -3.79042 2.74672 0
M  V30 92 H 15.4625 -5.09491 4.00404 0
M  V30 93 N 8.8686 -0.792821 -1.36206 0
M  V30 94 C 9.8156 -0.191653 -2.30003 0
M  V30 95 C 10.7856 0.666453 -1.52143 0
M  V30 96 O 11.9706 0.61442 -1.80636 0
M  V30 97 C 9.1106 0.664848 -3.38635 0
M  V30 98 C 8.2236 -0.212175 -4.31479 0
M  V30 99 C 7.3586 0.651022 -5.27196 0
M  V30 100 C 6.3976 -0.227247 -6.11678 0
M  V30 101 N 5.5346 0.595127 -6.99573 0
M  V30 102 H 10.3746 -0.996978 -2.80828 0
M  V30 103 H 7.9116 -0.503206 -1.38225 0
M  V30 104 H 9.8696 1.17645 -4.00269 0
M  V30 105 H 8.4996 1.43557 -2.89122 0
M  V30 106 H 7.5516 -0.841777 -3.70969 0
M  V30 107 H 8.8636 -0.888751 -4.90818 0
M  V30 108 H 8.0176 1.2283 -5.94136 0
M  V30 109 H 6.7566 1.36121 -4.68319 0
M  V30 110 H 5.7616 -0.816904 -5.43697 0
M  V30 111 H 6.9866 -0.93509 -6.72631 0
M  V30 112 H 4.9326 1.28955 -6.432 0
M  V30 113 H 4.8496 -0.0236952 -7.55996 0
M  V30 114 H 6.1176 1.15613 -7.70879 0
M  V30 115 N 10.3467 1.47872 -0.545128 0
M  V30 116 C 11.2767 2.32661 0.197793 0
M  V30 117 C 12.2577 1.43041 0.920504 0
M  V30 118 O 13.4427 1.71912 0.90333 0
M  V30 119 C 10.5727 3.24569 1.23582 0
M  V30 120 C 9.5267 4.23333 0.630323 0
M  V30 121 C 8.8527 5.0448 1.77211 0
M  V30 122 C 10.1527 5.20704 -0.407974 0
M  V30 123 H 11.8467 2.95024 -0.510045 0
M  V30 124 H 9.3927 1.4187 -0.246731 0
M  V30 125 H 11.3457 3.8272 1.76362 0
M  V30 126 H 10.0697 2.60236 1.97344 0
M  V30 127 H 8.7287 3.6639 0.123922 0
M  V30 128 H 8.3767 4.36561 2.49847 0
M  V30 129 H 8.0767 5.71339 1.37281 0
M  V30 130 H 9.6007 5.65487 2.3034 0
M  V30 131 H 11.0147 5.7329 0.033305 0
M  V30 132 H 9.4117 5.95699 -0.725486 0
M  V30 133 H 10.4817 4.66917 -1.30828 0
M  V30 134 N 11.8248 0.280983 1.55075 0
M  V30 135 C 12.7718 -0.603937 2.22758 0
M  V30 136 C 13.7418 -1.1452 1.20309 0
M  V30 137 O 14.9268 -1.19343 1.48869 0
M  V30 138 C 12.0668 -1.77947 2.95684 0
M  V30 139 C 11.1798 -1.2715 4.12864 0
M  V30 140 C 10.3148 -2.4093 4.7342 0
M  V30 141 C 9.3538 -1.87165 5.82783 0
M  V30 142 N 8.4908 -2.94441 6.37377 0
M  V30 143 H 13.3308 -0.020124 2.97993 0
M  V30 144 H 10.8678 0.00183425 1.471 0
M  V30 145 H 12.8258 -2.47055 3.36184 0
M  V30 146 H 11.4558 -2.33522 2.22861 0
M  V30 147 H 10.5078 -0.473331 3.77444 0
M  V30 148 H 11.8198 -0.837751 4.91715 0
M  V30 149 H 10.9738 -3.18021 5.1667 0
M  V30 150 H 9.7128 -2.87623 3.93859 0
M  V30 151 H 8.7178 -1.08556 5.38976 0
M  V30 152 H 9.9428 -1.41401 6.64216 0
M  V30 153 H 7.8888 -3.40505 5.60707 0
M  V30 154 H 7.8058 -2.55501 7.11516 0
M  V30 155 H 9.0738 -3.71489 6.85285 0
M  V30 156 N 13.3029 -1.57598 0.00835791 0
M  V30 157 C 14.7139 -1.7892 -0.53333 0
M  V30 158 C 15.0649 -0.916609 -1.73473 0
M  V30 159 O 14.1899 -0.121336 -2.1606 0
M  V30 160 C 14.7849 -3.24488 -0.974313 0
M  V30 161 C 13.3439 -3.46878 -1.46125 0
M  V30 162 C 12.4909 -2.74157 -0.416302 0
M  V30 163 H 15.4419 -1.56958 0.234495 0
M  V30 164 H 15.4629 -3.3306 -1.83988 0
M  V30 165 H 14.9749 -3.87972 -0.099718 0
M  V30 166 H 13.0759 -2.8862 -2.35646 0
M  V30 167 H 13.1889 -4.55572 -1.48295 0
M  V30 168 H 11.5529 -2.39022 -0.87981 0
M  V30 169 H 12.3359 -3.40345 0.44947 0
M  V30 170 N 14.781 0.264519 -1.55364 0
M  V30 171 C 16.009 1.013 -1.80405 0
M  V30 172 C 16.424 1.79618 -0.581622 0
M  V30 173 O 15.781 1.76879 0.449468 0
M  V30 174 C 15.832 1.96487 -3.03439 0
M  V30 175 O 15.553 1.21341 -4.20961 0
M  V30 176 C 17.054 2.83079 -3.41147 0
M  V30 177 H 14.274 0.298875 -0.600762 0
M  V30 178 H 16.818 0.292736 -2.02394 0
M  V30 179 H 14.973 2.63965 -2.83551 0
M  V30 180 H 15.387 1.85573 -4.90574 0
M  V30 181 H 16.861 3.4565 -4.30384 0
M  V30 182 H 17.338 3.53286 -2.60932 0
M  V30 183 H 17.944 2.2108 -3.63323 0
M  V30 184 N 16.2591 1.48442 0.529413 0
M  V30 185 C 17.5081 1.55742 1.28169 0
M  V30 186 C 17.8211 0.236511 1.94165 0
M  V30 187 O 19.0271 0.187761 2.7085 0
M  V30 188 C 17.4831 2.74667 2.32564 0
M  V30 189 C 17.0911 4.13402 1.72636 0
M  V30 190 C 18.8351 2.9128 3.08798 0
M  V30 191 C 16.7421 5.23587 2.74975 0
M  V30 192 H 15.6721 0.579796 0.48203 0
M  V30 193 H 18.3231 1.74776 0.559056 0
M  V30 194 H 16.7051 2.49067 3.07866 0
M  V30 195 H 17.8791 4.49022 1.03519 0
M  V30 196 H 16.1941 4.0191 1.08892 0
M  V30 197 H 18.7911 3.70767 3.85274 0
M  V30 198 H 19.1341 2.00757 3.64695 0
M  V30 199 H 19.6671 3.16782 2.40611 0
M  V30 200 H 16.4061 6.16076 2.23897 0
M  V30 201 H 15.9261 4.92454 3.42417 0
M  V30 202 H 17.6051 5.51724 3.37949 0
M  V30 203 N 17.7372 -0.778329 1.37039 0
M  V30 204 C 18.6672 -1.90546 1.34962 0
M  V30 205 C 19.6482 -1.68681 0.219274 0
M  V30 206 O 20.8332 -1.89634 0.418624 0
M  V30 207 C 17.9632 -3.27734 1.14925 0
M  V30 208 C 16.9172 -3.64147 2.24902 0
M  V30 209 C 16.2432 -4.99806 1.89996 0
M  V30 210 C 17.5432 -3.71579 3.67051 0
M  V30 211 H 19.2372 -1.92541 2.29277 0
M  V30 212 H 16.7832 -0.924948 1.10366 0
M  V30 213 H 18.7362 -4.06215 1.12104 0
M  V30 214 H 17.4602 -3.26154 0.170631 0
M  V30 215 H 16.1192 -2.8797 2.26868 0
M  V30 216 H 15.7672 -4.94759 0.906796 0
M  V30 217 H 15.4672 -5.25139 2.63634 0
M  V30 218 H 16.9912 -5.80694 1.88749 0
M  V30 219 H 18.4052 -4.40227 3.67251 0
M  V30 220 H 16.8022 -4.08405 4.39688 0
M  V30 221 H 17.8722 -2.72404 4.01154 0
M  V30 222 N 19.2153 -1.21501 -1.00376 0
M  V30 223 C 20.4613 -1.03452 -1.74429 0
M  V30 224 C 20.7943 0.430764 -1.89362 0
M  V30 225 O 20.0693 1.31962 -1.42886 0
M  V30 226 C 20.3523 -1.73375 -3.15615 0
M  V30 227 C 20.2053 -3.27431 -3.08397 0
M  V30 228 C 21.5243 -1.47732 -4.14564 0
M  V30 229 H 18.6433 -0.377226 -0.633143 0
M  V30 230 H 21.2853 -1.49693 -1.17013 0
M  V30 231 H 19.4353 -1.34064 -3.64636 0
M  V30 232 H 21.1073 -3.76119 -2.67081 0
M  V30 233 H 19.3503 -3.5767 -2.45468 0
M  V30 234 H 20.0213 -3.71524 -4.08258 0
M  V30 235 H 22.4973 -1.8186 -3.74254 0
M  V30 236 H 21.3733 -1.99169 -5.11491 0
M  V30 237 H 21.6343 -0.407589 -4.40217 0
M  V30 238 N 20.6934 1.19889 -1.02296 0
M  V30 239 C 21.9394 1.89701 -0.717033 0
M  V30 240 C 22.2724 1.7905 0.751989 0
M  V30 241 O 21.5474 1.17891 1.547 0
M  V30 242 C 21.8304 3.40858 -1.16136 0
M  V30 243 C 21.6834 3.60411 -2.69117 0
M  V30 244 C 23.0024 4.33876 -0.737549 0
M  V30 245 H 20.1214 0.688874 -0.261957 0
M  V30 246 H 22.7634 1.41154 -1.27183 0
M  V30 247 H 20.9134 3.82335 -0.689342 0
M  V30 248 H 22.5854 3.28145 -3.2422 0
M  V30 249 H 20.8284 3.03665 -3.0979 0
M  V30 250 H 21.4994 4.66396 -2.95261 0
M  V30 251 H 23.9754 4.00081 -1.14344 0
M  V30 252 H 22.8514 5.38242 -1.0764 0
M  V30 253 H 23.1124 4.40628 0.360436 0
M  V30 254 N 22.1715 0.800033 1.35784 0
M  V30 255 C 23.4485 0.30088 1.93272 0
M  V30 256 C 23.8285 -1.20857 1.73081 0
M  V30 257 O 23.1765 -2.00502 1.09596 0
M  V30 258 C 23.3865 0.70511 3.41803 0
M  V30 259 C 24.7345 0.690871 4.18942 0
M  V30 260 O 25.7585 0.646244 3.50289 0
M  V30 261 O 24.6175 0.74332 5.41421 0
M  V30 262 H 21.7115 0.0771605 0.823393 0
M  V30 263 H 24.2575 0.88329 1.449 0
M  V30 264 H 23.0295 1.74571 3.50201 0
M  V30 265 H 22.6525 0.0971541 3.97481 0
M  V30 266 N 23.6496 -1.47581 0.552962 0
M  V30 267 C 24.9266 -1.95563 -0.0381515 0
M  V30 268 C 25.3066 -1.49552 -1.48988 0
M  V30 269 O 24.6546 -0.732414 -2.16444 0
M  V30 270 C 24.8646 -3.48848 0.102919 0
M  V30 271 C 26.2126 -4.24577 -0.0446082 0
M  V30 272 O 27.2366 -3.56187 0.0302548 0
M  V30 273 O 26.0956 -5.46116 -0.204923 0
M  V30 274 H 23.1896 -0.824321 -0.0665067 0
M  V30 275 H 25.7356 -1.58001 0.619186 0
M  V30 276 H 24.5076 -3.75129 1.11328 0
M  V30 277 H 24.1306 -3.93165 -0.592224 0
M  V30 278 N 25.1277 -0.289203 -1.54924 0
M  V30 279 C 26.0377 0.601863 -2.26748 0
M  V30 280 C 27.0537 1.15834 -1.2984 0
M  V30 281 O 28.2297 1.18564 -1.62802 0
M  V30 282 C 25.2947 1.76299 -2.98529 0
M  V30 283 C 24.3557 1.24178 -4.10948 0
M  V30 284 C 23.5887 2.34757 -4.79296 0
M  V30 285 O 23.8117 3.54411 -4.46933 0
M  V30 286 O 22.7457 2.02115 -5.66951 0
M  V30 287 H 26.5717 0.0195879 -3.03694 0
M  V30 288 H 24.1567 -0.0560868 -1.49295 0
M  V30 289 H 26.0387 2.43973 -3.43592 0
M  V30 290 H 24.7137 2.33209 -2.24488 0
M  V30 291 H 23.6207 0.531104 -3.70311 0
M  V30 292 H 24.9537 0.718252 -4.86931 0
M  V30 293 N 26.6058 1.57591 -0.0167156 0
M  V30 294 C 28.0168 1.79201 0.523834 0
M  V30 295 C 28.3678 0.925796 1.72984 0
M  V30 296 O 27.4928 0.132792 2.15992 0
M  V30 297 C 28.0878 3.25 0.957091 0
M  V30 298 C 26.6468 3.47648 1.44283 0
M  V30 299 C 25.7938 2.74374 0.401757 0
M  V30 300 H 28.7448 1.56831 -0.242816 0
M  V30 301 H 28.7658 3.34031 1.82219 0
M  V30 302 H 28.2778 3.88019 0.0791415 0
M  V30 303 H 26.3788 2.89866 2.34113 0
M  V30 304 H 26.4918 4.56352 1.45877 0
M  V30 305 H 24.8558 2.39485 0.867121 0
M  V30 306 H 25.6388 3.40102 -0.467513 0
M  V30 307 N 28.0839 -0.256276 1.55502 0
M  V30 308 C 29.3609 -1.00789 1.67633 0
M  V30 309 C 29.7409 -2.03706 0.553826 0
M  V30 310 O 29.0889 -2.24145 -0.443969 0
M  V30 311 C 29.2989 -1.64968 3.07549 0
M  V30 312 C 30.6469 -2.15505 3.65845 0
M  V30 313 O 31.6709 -1.74925 3.1029 0
M  V30 314 O 30.5299 -2.89986 4.63217 0
M  V30 315 H 27.6239 -0.468553 0.681459 0
M  V30 316 H 30.1699 -0.250806 1.67836 0
M  V30 317 H 28.9419 -0.904785 3.80696 0
M  V30 318 H 28.5649 -2.47321 3.11317 0
M  V30 319 N 29.562 -1.4872 -0.521534 0
M  V30 320 C 30.51 -1.64328 -1.64618 0
M  V30 321 C 31.504 -0.50953 -1.61555 0
M  V30 322 O 32.71 -0.688525 -1.66311 0
M  V30 323 H 29.085 -0.517805 -0.545328 0
M  V30 324 H 31.056 -2.58767 -1.48601 0
M  V30 325 C 29.805 -1.70805 -3.02855 0
M  V30 326 H 29.128 -2.5741 -3.05909 0
M  V30 327 H 30.568 -1.85766 -3.81139 0
M  V30 328 C 29.027 -0.448479 -3.33902 0
M  V30 329 O 29.557 0.434928 -3.99339 0
M  V30 330 N 27.763 -0.317616 -2.88859 0
M  V30 331 H 27.31 -1.03748 -2.35784 0
M  V30 332 H 27.268 0.524113 -3.10001 0
M  V30 333 N 31.0401 0.771051 -1.3745 0
M  V30 334 C 31.9701 1.89827 -1.3597 0
M  V30 335 C 32.9511 1.68562 -0.228216 0
M  V30 336 O 34.1361 1.8941 -0.428675 0
M  V30 337 C 31.2661 3.2712 -1.16662 0
M  V30 338 C 30.2201 3.6295 -2.2683 0
M  V30 339 C 29.5461 4.98791 -1.92644 0
M  V30 340 C 30.8461 3.69627 -3.69017 0
M  V30 341 H 32.5401 1.91323 -2.30295 0
M  V30 342 H 30.0861 0.919082 -1.10855 0
M  V30 343 H 32.0391 4.05615 -1.14256 0
M  V30 344 H 30.7631 3.26059 -0.187926 0
M  V30 345 H 29.4221 2.86763 -2.28392 0
M  V30 346 H 29.0701 4.94271 -0.933021 0
M  V30 347 H 28.7701 5.23733 -2.66416 0
M  V30 348 H 30.2941 5.79685 -1.91826 0
M  V30 349 H 31.7081 4.38273 -3.69581 0
M  V30 350 H 30.1051 4.06067 -4.41848 0
M  V30 351 H 31.1751 2.70273 -4.02592 0
M  V30 352 N 32.5182 1.22032 0.997298 0
M  V30 353 C 33.7952 0.950823 1.70935 0
M  V30 354 C 34.1752 -0.535292 2.042 0
M  V30 355 O 33.5232 -1.50217 1.72183 0
M  V30 356 C 33.7332 1.84386 2.96315 0
M  V30 357 C 35.0812 2.09732 3.69185 0
M  V30 358 O 36.1052 1.81798 3.06314 0
M  V30 359 O 34.9642 2.57018 4.82291 0
M  V30 360 H 32.0582 0.357204 0.745878 0
M  V30 361 H 34.6042 1.32997 1.05404 0
M  V30 362 H 33.3762 2.84928 2.68201 0
M  V30 363 H 32.9992 1.46602 3.69586 0
M  V30 364 N 33.9963 -1.19345 1.0293 0
M  V30 365 C 34.9263 -2.2481 0.631105 0
M  V30 366 C 35.9073 -1.66245 -0.360104 0
M  V30 367 O 37.0923 -1.92677 -0.242726 0
M  V30 368 C 34.2223 -3.47295 -0.0184607 0
M  V30 369 C 33.1763 -4.18536 0.895073 0
M  V30 370 C 32.5023 -5.34586 0.110592 0
M  V30 371 C 33.8023 -4.73287 2.209 0
M  V30 372 H 35.4963 -2.58372 1.51275 0
M  V30 373 H 33.0423 -1.24194 0.728818 0
M  V30 374 H 34.9953 -4.20268 -0.308675 0
M  V30 375 H 33.7193 -3.12933 -0.934907 0
M  V30 376 H 32.3783 -3.47446 1.16949 0
M  V30 377 H 32.0263 -4.96469 -0.807902 0
M  V30 378 H 31.7263 -5.83183 0.719087 0
M  V30 379 H 33.2503 -6.10355 -0.172871 0
M  V30 380 H 34.6643 -5.38013 1.98028 0
M  V30 381 H 33.0613 -5.32373 2.76946 0
M  V30 382 H 34.1313 -3.91331 2.86336 0
M  V30 383 N 35.4744 -0.807222 -1.35358 0
M  V30 384 C 36.4044 -0.232509 -2.3234 0
M  V30 385 C 37.3854 0.642386 -1.57504 0
M  V30 386 O 38.5704 0.572526 -1.85569 0
M  V30 387 C 35.7004 0.619238 -3.41735 0
M  V30 388 C 34.6544 -0.157215 -4.27711 0
M  V30 389 C 33.9804 0.816273 -5.28433 0
M  V30 390 C 35.2804 -1.35656 -5.04376 0
M  V30 391 H 36.9744 -1.04276 -2.80654 0
M  V30 392 H 34.5204 -0.50288 -1.34934 0
M  V30 393 H 36.4734 1.03137 -4.08584 0
M  V30 394 H 35.1974 1.46239 -2.92031 0
M  V30 395 H 33.8564 -0.550525 -3.62443 0
M  V30 396 H 33.5044 1.65494 -4.74996 0
M  V30 397 H 33.2044 0.301067 -5.86828 0
M  V30 398 H 34.7284 1.22659 -5.98153 0
M  V30 399 H 36.1424 -1.01927 -5.64166 0
M  V30 400 H 34.5394 -1.8063 -5.7227 0
M  V30 401 H 35.6094 -2.14288 -4.34981 0
M  V30 402 N 36.9525 1.47285 -0.560781 0
M  V30 403 C 38.1825 2.06555 -0.0429638 0
M  V30 404 C 38.5905 1.41339 1.25777 0
M  V30 405 O 37.9335 0.505182 1.76617 0
M  V30 406 C 37.9955 3.58827 0.219887 0
M  V30 407 C 37.6595 4.46105 -0.991944 0
M  V30 408 C 38.6565 4.84 -1.89843 0
M  V30 409 C 36.3415 4.87567 -1.20762 0
M  V30 410 C 38.3355 5.6216 -3.00425 0
M  V30 411 C 36.0225 5.65491 -2.31653 0
M  V30 412 C 37.0205 6.02699 -3.21315 0
M  V30 413 O 36.7085 6.79052 -4.30283 0
M  V30 414 H 36.4405 0.674537 -0.0444468 0
M  V30 415 H 38.9945 1.90225 -0.774818 0
M  V30 416 H 37.2245 3.73383 1.00609 0
M  V30 417 H 38.9135 4.00103 0.683522 0
M  V30 418 H 39.6795 4.52564 -1.74387 0
M  V30 419 H 35.5585 4.5807 -0.518893 0
M  V30 420 H 39.1025 5.9112 -3.70436 0
M  V30 421 H 34.9995 5.9634 -2.47081 0
M  V30 422 H 35.7675 6.9745 -4.28376 0
M  V30 423 N 38.4306 0.297415 1.54768 0
M  V30 424 C 39.8466 -0.0560823 1.59501 0
M  V30 425 C 40.0466 -1.52725 1.31444 0
M  V30 426 O 39.1026 -2.27947 1.08611 0
M  V30 427 C 40.4156 0.338631 2.98787 0
M  V30 428 C 41.9636 0.287097 3.11681 0
M  V30 429 C 42.4386 0.656579 4.53269 0
M  V30 430 N 43.9296 0.608977 4.59179 0
M  V30 431 C 44.6646 0.867385 5.66802 0
M  V30 432 N 44.1606 1.19157 6.82476 0
M  V30 433 N 45.9536 0.794687 5.56454 0
M  V30 434 H 38.1046 1.25624 1.71267 0
M  V30 435 H 40.3676 0.509057 0.799728 0
M  V30 436 H 40.0736 1.36263 3.2423 0
M  V30 437 H 39.9476 -0.309508 3.75928 0
M  V30 438 H 42.3346 -0.727649 2.85988 0
M  V30 439 H 42.4156 0.969809 2.36703 0
M  V30 440 H 42.0596 1.66912 4.7969 0
M  V30 441 H 41.9896 -0.0481649 5.26578 0
M  V30 442 H 44.4806 0.369198 3.76092 0
M  V30 443 H 44.7936 1.37482 7.60473 0
M  V30 444 H 43.1386 1.22958 6.84037 0
M  V30 445 H 46.3296 0.541098 4.64962 0
M  V30 446 H 46.5026 0.999445 6.40246 0
M  V30 447 N 39.9087 -1.5758 0.0250728 0
M  V30 448 C 41.1367 -1.9593 -0.664747 0
M  V30 449 C 41.5517 -0.901352 -1.65895 0
M  V30 450 O 40.9087 0.117255 -1.82123 0
M  V30 451 C 40.9597 -3.34342 -1.37468 0
M  V30 452 O 40.6807 -4.36079 -0.420324 0
M  V30 453 C 42.1817 -3.873 -2.1567 0
M  V30 454 H 39.4017 -0.645405 -0.183557 0
M  V30 455 H 41.9457 -2.04329 0.0836372 0
M  V30 456 H 40.1007 -3.27175 -2.0745 0
M  V30 457 H 40.5147 -5.16297 -0.923991 0
M  V30 458 H 41.9887 -4.86504 -2.60803 0
M  V30 459 H 42.4657 -3.21331 -2.99405 0
M  V30 460 H 43.0717 -3.97723 -1.50654 0
M  V30 461 N 41.3868 0.248026 -1.55636 0
M  V30 462 C 42.6338 0.976224 -1.77415 0
M  V30 463 C 42.9618 1.85361 -0.589193 0
M  V30 464 O 42.2168 1.90973 0.427529 0
M  V30 465 C 42.5158 1.86819 -3.04686 0
M  V30 466 C 42.1818 1.14625 -4.36087 0
M  V30 467 C 40.8438 0.946723 -4.71795 0
M  V30 468 C 43.1958 0.634463 -5.17324 0
M  V30 469 C 40.5238 0.223091 -5.86276 0
M  V30 470 C 42.8758 -0.0756959 -6.32555 0
M  V30 471 C 41.5398 -0.286711 -6.66884 0
M  V30 472 H 40.8098 0.357226 -0.649208 0
M  V30 473 H 43.4568 0.246415 -1.89908 0
M  V30 474 H 41.7618 2.66502 -2.872 0
M  V30 475 H 43.4588 2.43329 -3.18735 0
M  V30 476 H 40.0488 1.3117 -4.08035 0
M  V30 477 H 44.2328 0.77616 -4.90193 0
M  V30 478 H 39.4888 0.0491185 -6.1138 0
M  V30 479 H 43.6628 -0.479899 -6.94745 0
M  V30 480 H 41.2898 -0.849389 -7.5544 0
M  V30 481 N 42.8649 1.48995 0.513639 0
M  V30 482 C 43.8149 1.61127 1.61314 0
M  V30 483 C 44.7989 0.467521 1.53958 0
M  V30 484 O 45.9909 0.719826 1.61702 0
M  V30 485 C 43.1199 1.66937 2.99978 0
M  V30 486 C 42.2059 2.86847 3.12377 0
M  V30 487 N 42.5969 4.11078 2.94701 0
M  V30 488 C 40.8949 2.84521 3.43459 0
M  V30 489 C 41.5959 4.91615 3.10949 0
M  V30 490 N 40.5719 4.24739 3.3926 0
M  V30 491 H 44.3739 2.54909 1.46282 0
M  V30 492 H 41.8879 1.45593 0.719483 0
M  V30 493 H 43.8849 1.73725 3.78979 0
M  V30 494 H 42.5449 0.742831 3.16089 0
M  V30 495 H 43.5559 4.41258 2.71131 0
M  V30 496 H 40.2329 2.01192 3.65825 0
M  V30 497 H 41.6229 6.00264 3.01882 0
M  V30 498 N 44.343 -0.763751 1.37857 0
M  V30 499 C 45.759 -1.06542 1.18832 0
M  V30 500 C 45.959 -2.01478 0.0299722 0
M  V30 501 O 45.015 -2.4458 -0.627447 0
M  V30 502 C 46.328 -1.65525 2.51042 0
M  V30 503 C 47.876 -1.77745 2.57635 0
M  V30 504 C 48.351 -2.4014 3.89996 0
M  V30 505 N 49.842 -2.47582 3.91481 0
M  V30 506 C 50.577 -2.96732 4.9065 0
M  V30 507 N 50.073 -3.45993 6.00217 0
M  V30 508 N 51.866 -2.95679 4.78048 0
M  V30 509 H 44.017 -0.133556 2.1198 0
M  V30 510 H 46.28 -0.121879 0.940133 0
M  V30 511 H 45.986 -1.03236 3.36207 0
M  V30 512 H 45.86 -2.64719 2.68707 0
M  V30 513 H 48.247 -2.39164 1.72872 0
M  V30 514 H 48.328 -0.772836 2.43846 0
M  V30 515 H 47.972 -1.79358 4.75177 0
M  V30 516 H 47.902 -3.41223 4.01092 0
M  V30 517 H 50.393 -2.1273 3.12337 0
M  V30 518 H 50.706 -3.81922 6.7183 0
M  V30 519 H 49.051 -3.44077 6.03851 0
M  V30 520 H 52.242 -2.56499 3.91568 0
M  V30 521 H 52.415 -3.33672 5.55488 0
M  V30 522 N 45.8211 -1.22559 -0.990812 0
M  V30 523 C 46.7311 -1.01394 -2.11557 0
M  V30 524 C 47.7471 0.0383962 -1.73958 0
M  V30 525 O 48.9231 -0.154787 -2.00804 0
M  V30 526 C 45.9881 -0.596569 -3.41529 0
M  V30 527 C 45.0491 -1.72276 -3.93217 0
M  V30 528 C 44.2821 -1.32521 -5.16985 0
M  V30 529 O 44.5051 -0.204909 -5.70032 0
M  V30 530 O 43.4391 -2.14247 -5.62478 0
M  V30 531 H 47.2651 -1.95633 -2.32296 0
M  V30 532 H 44.8501 -1.01172 -1.0993 0
M  V30 533 H 46.7321 -0.374263 -4.19735 0
M  V30 534 H 45.4071 0.316939 -3.22145 0
M  V30 535 H 44.3141 -1.99961 -3.16174 0
M  V30 536 H 45.6471 -2.61421 -4.17037 0
M  V30 537 N 47.2992 1.18797 -1.03562 0
M  V30 538 C 48.5462 1.8865 -0.736023 0
M  V30 539 C 48.8742 1.80041 0.735889 0
M  V30 540 O 48.1292 1.19179 1.55225 0
M  V30 541 C 48.4282 3.38692 -1.14117 0
M  V30 542 C 48.0942 3.67504 -2.6125 0
M  V30 543 C 46.7562 3.75078 -3.01447 0
M  V30 544 C 49.1082 3.80293 -3.56408 0
M  V30 545 C 46.4362 3.92915 -4.35701 0
M  V30 546 C 48.7882 3.99645 -4.90374 0
M  V30 547 C 47.4522 4.05453 -5.30249 0
M  V30 548 H 46.7222 0.690321 -0.26933 0
M  V30 549 H 49.3692 1.40641 -1.29971 0
M  V30 550 H 47.6742 3.88645 -0.496202 0
M  V30 551 H 49.3712 3.91072 -0.886789 0
M  V30 552 H 45.9612 3.62223 -2.29113 0
M  V30 553 H 50.1452 3.73779 -3.26501 0
M  V30 554 H 45.4012 3.95653 -4.66121 0
M  V30 555 H 49.5752 4.08482 -5.64017 0
M  V30 556 H 47.2022 4.19027 -6.34288 0
M  V30 557 N 48.7773 0.814389 1.34928 0
M  V30 558 C 49.7243 0.22822 2.29669 0
M  V30 559 C 50.6943 -0.642164 1.53184 0
M  V30 560 O 51.8793 -0.585605 1.81591 0
M  V30 561 C 49.0193 -0.61089 3.3965 0
M  V30 562 C 48.1323 0.280792 4.31086 0
M  V30 563 C 47.2673 -0.567067 5.28165 0
M  V30 564 C 46.3063 0.324531 6.11239 0
M  V30 565 N 45.4433 -0.483756 7.00431 0
M  V30 566 H 50.2833 1.04153 2.79206 0
M  V30 567 H 47.8203 0.525133 1.37407 0
M  V30 568 H 49.7783 -1.11263 4.0209 0
M  V30 569 H 48.4083 -1.38939 2.91369 0
M  V30 570 H 47.4603 0.900688 3.69583 0
M  V30 571 H 48.7723 0.966723 4.89342 0
M  V30 572 H 47.9263 -1.13363 5.96015 0
M  V30 573 H 46.6653 -1.28654 4.70425 0
M  V30 574 H 45.6703 0.903298 5.42329 0
M  V30 575 H 46.8953 1.04198 6.71059 0
M  V30 576 H 44.8413 -1.18706 6.45171 0
M  V30 577 H 44.7583 0.143965 7.55863 0
M  V30 578 H 46.0263 -1.03334 7.7262 0
M  V30 579 N 50.2554 -1.46986 0.568584 0
M  V30 580 C 51.5014 -2.02741 0.0488709 0
M  V30 581 C 51.8344 -1.44077 -1.30214 0
M  V30 582 O 51.1094 -0.600552 -1.84996 0
M  V30 583 C 51.3924 -3.60086 -0.032047 0
M  V30 584 C 51.2454 -4.29162 1.34686 0
M  V30 585 C 52.5644 -4.33838 -0.739798 0
M  V30 586 H 49.6834 -0.736749 0.0192338 0
M  V30 587 H 52.3254 -1.75289 0.733065 0
M  V30 588 H 50.4754 -3.83606 -0.61473 0
M  V30 589 H 52.1474 -4.16948 1.97362 0
M  V30 590 H 50.3904 -3.89073 1.91846 0
M  V30 591 H 51.0614 -5.37826 1.24285 0
M  V30 592 H 53.5374 -4.15378 -0.244939 0
M  V30 593 H 52.4134 -5.43537 -0.765406 0
M  V30 594 H 52.6744 -4.03875 -1.79827 0
M  V30 595 N 51.7335 -0.305618 -1.54608 0
M  V30 596 C 52.6635 0.561482 -2.26649 0
M  V30 597 C 53.6445 1.13415 -1.26772 0
M  V30 598 O 54.8295 1.16262 -1.55553 0
M  V30 599 C 51.9595 1.73122 -3.01075 0
M  V30 600 C 50.9135 1.2887 -4.08138 0
M  V30 601 C 50.2395 2.54396 -4.70305 0
M  V30 602 C 51.5395 0.416578 -5.20636 0
M  V30 603 H 53.2335 -0.0393902 -2.99374 0
M  V30 604 H 50.7795 -0.020385 -1.43986 0
M  V30 605 H 52.7325 2.34396 -3.50195 0
M  V30 606 H 51.4565 2.3584 -2.25936 0
M  V30 607 H 50.1155 0.698991 -3.59875 0
M  V30 608 H 49.7635 3.15439 -3.918 0
M  V30 609 H 49.4635 2.25486 -5.42614 0
M  V30 610 H 50.9875 3.16464 -5.2219 0
M  V30 611 H 52.4015 0.935116 -5.65622 0
M  V30 612 H 50.7985 0.221046 -5.99693 0
M  V30 613 H 51.8685 -0.557162 -4.81688 0
M  V30 614 N 53.2116 1.57565 -0.0334293 0
M  V30 615 C 54.1586 2.10478 0.946981 0
M  V30 616 C 55.1286 1.00787 1.32027 0
M  V30 617 O 56.3136 1.28232 1.41284 0
M  V30 618 C 53.4536 2.63994 2.22263 0
M  V30 619 C 52.5666 3.87709 1.90541 0
M  V30 620 C 51.7016 4.29604 3.12433 0
M  V30 621 C 50.7406 5.46065 2.76549 0
M  V30 622 N 49.8776 5.83096 3.9108 0
M  V30 623 H 54.7176 2.93963 0.488846 0
M  V30 624 H 52.2546 1.45296 0.22969 0
M  V30 625 H 54.2126 2.93114 2.96884 0
M  V30 626 H 52.8426 1.83333 2.65685 0
M  V30 627 H 51.8946 3.65291 1.06144 0
M  V30 628 H 53.2066 4.72403 1.60116 0
M  V30 629 H 52.3606 4.60182 3.9537 0
M  V30 630 H 51.0996 3.43685 3.46023 0
M  V30 631 H 50.1046 5.15176 1.92026 0
M  V30 632 H 51.3296 6.33685 2.44171 0
M  V30 633 H 49.2756 5.00132 4.24504 0
M  V30 634 H 49.1926 6.6244 3.64293 0
M  V30 635 H 50.4606 6.18282 4.74708 0
M  V30 636 N 54.6897 -0.239769 1.55765 0
M  V30 637 C 55.6527 -1.28038 1.90103 0
M  V30 638 C 56.6527 -1.40723 0.778055 0
M  V30 639 O 57.8427 -1.39301 1.04599 0
M  V30 640 C 54.9747 -2.65702 2.13577 0
M  V30 641 H 56.1677 -0.988048 2.83157 0
M  V30 642 H 53.7207 -0.479382 1.48767 0
M  V30 643 H 54.4557 -3.00063 1.23015 0
M  V30 644 H 54.2407 -2.57875 2.95369 0
M  V30 645 H 55.7307 -3.40828 2.41301 0
M  V30 646 N 56.1678 -1.49265 -0.50573 0
M  V30 647 C 57.0778 -1.68312 -1.63427 0
M  V30 648 C 58.0938 -0.565682 -1.64548 0
M  V30 649 O 59.2698 -0.839801 -1.83055 0
M  V30 650 C 56.3348 -1.74107 -2.99813 0
M  V30 651 C 55.3958 -2.97653 -3.09356 0
M  V30 652 C 54.6288 -3.03163 -4.39236 0
M  V30 653 O 54.8518 -2.16396 -5.27758 0
M  V30 654 O 53.7858 -3.9558 -4.53652 0
M  V30 655 H 57.6118 -2.63907 -1.50289 0
M  V30 656 H 55.1968 -1.32951 -0.681502 0
M  V30 657 H 57.0788 -1.803 -3.80881 0
M  V30 658 H 55.7538 -0.816901 -3.13223 0
M  V30 659 H 54.6608 -2.96981 -2.27493 0
M  V30 660 H 55.9938 -3.89535 -3.00871 0
M  V30 661 N 57.6459 0.756429 -1.3826 0
M  V30 662 C 58.8709 1.55077 -1.37717 0
M  V30 663 C 59.2959 1.88073 0.03164 0
M  V30 664 O 58.6539 1.50364 1.01293 0
M  V30 665 C 58.7019 2.8283 -2.23695 0
M  V30 666 O 57.8059 3.77862 -1.6521 0
M  V30 667 H 57.1469 0.469152 -0.469885 0
M  V30 668 H 59.6769 0.935019 -1.81985 0
M  V30 669 H 59.6869 3.31783 -2.37453 0
M  V30 670 H 58.3619 2.58144 -3.2609 0
M  V30 671 H 56.9389 3.36555 -1.60578 0
M  V30 672 N 59.124 1.23083 0.984299 0
M  V30 673 C 60.372 1.05848 1.72165 0
M  V30 674 C 60.693 -0.406049 1.90726 0
M  V30 675 O 59.963 -1.29139 1.47309 0
M  V30 676 H 58.543 0.388685 0.637913 0
M  V30 677 H 61.205 1.54736 1.18503 0
M  V30 678 H 60.301 1.54327 2.71274 0
M  V30 679 N 60.6021 -1.18246 1.0419 0
M  V30 680 C 62.0131 -1.69914 0.773698 0
M  V30 681 C 62.3641 -1.83085 -0.705297 0
M  V30 682 O 61.4891 -1.51123 -1.5489 0
M  V30 683 C 62.0841 -3.08619 1.39784 0
M  V30 684 C 60.6431 -3.57494 1.17792 0
M  V30 685 C 59.7901 -2.34013 1.48773 0
M  V30 686 H 62.7411 -1.02904 1.20816 0
M  V30 687 H 62.7621 -3.71958 0.801714 0
M  V30 688 H 62.2741 -2.99001 2.47426 0
M  V30 689 H 60.3751 -3.72406 0.120295 0
M  V30 690 H 60.4881 -4.40852 1.87581 0
M  V30 691 H 58.8521 -2.37986 0.907463 0
M  V30 692 H 59.6351 -2.27013 2.57527 0
M  V30 693 N 62.0802 -0.821533 -1.34494 0
M  V30 694 C 63.0432 -0.247847 -2.27856 0
M  V30 695 C 64.0432 0.573453 -1.50227 0
M  V30 696 O 65.2332 0.389759 -1.69784 0
M  V30 697 C 62.3652 0.652698 -3.34593 0
M  V30 698 H 63.5582 -1.07146 -2.80107 0
M  V30 699 H 61.1112 -0.593291 -1.44602 0
M  V30 700 H 61.8462 1.49943 -2.87555 0
M  V30 701 H 61.6312 0.065292 -3.92046 0
M  V30 702 H 63.1212 1.04793 -4.04238 0
M  V30 703 N 63.5583 1.46682 -0.576371 0
M  V30 704 C 64.5213 2.28707 0.150239 0
M  V30 705 C 65.5213 1.38035 0.824794 0
M  V30 706 O 66.7113 1.60476 0.677719 0
M  V30 707 C 63.8433 3.18248 1.22192 0
M  V30 708 H 65.0363 2.94423 -0.570521 0
M  V30 709 H 62.5893 1.52688 -0.334078 0
M  V30 710 H 63.3243 2.57265 1.97447 0
M  V30 711 H 63.1093 3.85 0.742812 0
M  V30 712 H 64.5993 3.80001 1.73172 0
M  V30 713 N 65.0364 0.313813 1.54444 0
M  V30 714 C 65.9664 -0.549454 2.26943 0
M  V30 715 C 66.9474 -1.12741 1.27372 0
M  V30 716 O 68.1324 -1.15436 1.56167 0
M  V30 717 C 65.2624 -1.71523 3.01989 0
M  V30 718 C 64.2164 -1.26703 4.08816 0
M  V30 719 C 63.5424 -2.51898 4.71647 0
M  V30 720 C 64.8424 -0.388962 5.2085 0
M  V30 721 H 66.5364 0.0552661 2.99349 0
M  V30 722 H 64.0824 0.0280207 1.43973 0
M  V30 723 H 66.0354 -2.32535 3.51433 0
M  V30 724 H 64.7594 -2.34639 2.27183 0
M  V30 725 H 63.4184 -0.679896 3.6024 0
M  V30 726 H 63.0664 -3.13356 3.93468 0
M  V30 727 H 62.7664 -2.22605 5.43802 0
M  V30 728 H 64.2904 -3.1369 5.23861 0
M  V30 729 H 65.7044 -0.905107 5.6611 0
M  V30 730 H 64.1014 -0.18924 5.99802 0
M  V30 731 H 65.1714 0.582699 4.81386 0
M  V30 732 N 66.5145 -1.57545 0.0417849 0
M  V30 733 C 67.4615 -2.10977 -0.935805 0
M  V30 734 C 68.4315 -1.01486 -1.31491 0
M  V30 735 O 69.6165 -1.2898 -1.40602 0
M  V30 736 C 66.7565 -2.65169 -2.2086 0
M  V30 737 C 65.8695 -3.88714 -1.88482 0
M  V30 738 C 65.0045 -4.31254 -3.1015 0
M  V30 739 C 64.0435 -5.47524 -2.7365 0
M  V30 740 N 63.1805 -5.85162 -3.87982 0
M  V30 741 H 68.0205 -2.94218 -0.473249 0
M  V30 742 H 65.5575 -1.45415 -0.221981 0
M  V30 743 H 67.5155 -2.94685 -2.95325 0
M  V30 744 H 66.1455 -1.8474 -2.64709 0
M  V30 745 H 65.1975 -3.65849 -1.04205 0
M  V30 746 H 66.5095 -4.73245 -1.57608 0
M  V30 747 H 65.6635 -4.62273 -3.92923 0
M  V30 748 H 64.4025 -3.45516 -3.44195 0
M  V30 749 H 63.4075 -5.16187 -1.89291 0
M  V30 750 H 64.6325 -6.34971 -2.40807 0
M  V30 751 H 62.5785 -5.02377 -4.21846 0
M  V30 752 H 62.4955 -6.64362 -3.60775 0
M  V30 753 H 63.7635 -6.20791 -4.71422 0
M  V30 754 N 67.9926 0.231505 -1.5589 0
M  V30 755 C 69.2416 0.955346 -1.7764 0
M  V30 756 C 69.5546 1.85893 -0.608546 0
M  V30 757 O 70.7606 2.62067 -0.70943 0
M  V30 758 C 69.2166 1.74886 -3.14552 0
M  V30 759 C 68.8246 0.891915 -4.39032 0
M  V30 760 C 70.5686 2.46452 -3.45633 0
M  V30 761 C 68.4756 1.68221 -5.66971 0
M  V30 762 H 67.4056 0.360446 -0.662265 0
M  V30 763 H 70.0566 0.209516 -1.823 0
M  V30 764 H 68.4386 2.53723 -3.04041 0
M  V30 765 H 69.6126 0.144793 -4.60572 0
M  V30 766 H 67.9276 0.288863 -4.15397 0
M  V30 767 H 70.5246 3.06061 -4.38441 0
M  V30 768 H 70.8676 3.18841 -2.67668 0
M  V30 769 H 71.4006 1.74613 -3.57428 0
M  V30 770 H 68.1396 1.00178 -6.478 0
M  V30 771 H 67.6596 2.4042 -5.49507 0
M  V30 772 H 69.3386 2.24544 -6.06786 0
M  V30 773 N 69.4707 1.49531 0.497807 0
M  V30 774 C 70.4007 1.6935 1.60757 0
M  V30 775 C 71.3817 0.542218 1.61227 0
M  V30 776 O 72.5667 0.778417 1.77917 0
M  V30 777 C 69.6967 1.76298 2.99226 0
M  V30 778 C 68.6507 2.91248 3.13622 0
M  V30 779 C 67.9767 2.83312 4.53474 0
M  V30 780 C 69.2767 4.3214 2.93346 0
M  V30 781 H 70.9707 2.62263 1.44425 0
M  V30 782 H 68.5167 1.26208 0.693367 0
M  V30 783 H 70.4697 1.88749 3.76765 0
M  V30 784 H 69.1937 0.799871 3.16654 0
M  V30 785 H 67.8527 2.78404 2.38509 0
M  V30 786 H 67.5007 1.84902 4.67782 0
M  V30 787 H 67.2007 3.60465 4.64046 0
M  V30 788 H 68.7247 2.97775 5.33069 0
M  V30 789 H 70.1387 4.45649 3.60652 0
M  V30 790 H 68.5357 5.1054 3.15387 0
M  V30 791 H 69.6057 4.46363 1.89441 0
M  V30 792 N 70.9488 -0.749086 1.3866 0
M  V30 793 C 71.8588 -1.89358 1.38494 0
M  V30 794 C 72.8748 -1.71708 0.281476 0
M  V30 795 O 74.0508 -1.94554 0.520643 0
M  V30 796 C 71.1158 -3.24782 1.21316 0
M  V30 797 C 70.1768 -3.54926 2.41508 0
M  V30 798 C 69.4098 -4.83888 2.2514 0
M  V30 799 O 69.6328 -5.56592 1.24746 0
M  V30 800 O 68.5668 -5.13612 3.13826 0
M  V30 801 H 72.3928 -1.92452 2.34938 0
M  V30 802 H 69.9778 -0.894981 1.19626 0
M  V30 803 H 71.8598 -4.05739 1.13814 0
M  V30 804 H 70.5348 -3.2249 0.279592 0
M  V30 805 H 69.4418 -2.74112 2.54585 0
M  V30 806 H 70.7748 -3.61983 3.3351 0
M  V30 807 N 72.4269 -1.23603 -0.977757 0
M  V30 808 C 73.3369 -1.03632 -2.1047 0
M  V30 809 C 74.3529 0.0199435 -1.73989 0
M  V30 810 O 75.5289 -0.176076 -2.00629 0
M  V30 811 C 72.5939 -0.63276 -3.40877 0
M  V30 812 C 71.6549 -1.76437 -3.91367 0
M  V30 813 C 70.8879 -1.37997 -5.15551 0
M  V30 814 O 71.1109 -0.265357 -5.69782 0
M  V30 815 O 70.0449 -2.20201 -5.60174 0
M  V30 816 H 73.8709 -1.98086 -2.30208 0
M  V30 817 H 71.4559 -1.02332 -1.08851 0
M  V30 818 H 73.3379 -0.418761 -4.19314 0
M  V30 819 H 72.0129 0.282754 -3.22463 0
M  V30 820 H 70.9199 -2.03304 -3.14036 0
M  V30 821 H 72.2529 -2.6583 -4.14241 0
M  V30 822 N 73.905 1.17692 -1.04816 0
M  V30 823 C 75.151 1.88137 -0.75711 0
M  V30 824 C 75.484 1.80604 0.713841 0
M  V30 825 O 74.759 1.21146 1.52164 0
M  V30 826 C 75.042 3.38318 -1.2334 0
M  V30 827 C 74.895 3.54622 -2.76701 0
M  V30 828 C 76.214 4.32214 -0.829415 0
M  V30 829 H 73.333 0.683163 -0.27651 0
M  V30 830 H 75.975 1.38424 -1.30149 0
M  V30 831 H 74.125 3.80787 -0.770286 0
M  V30 832 H 75.797 3.21194 -3.31107 0
M  V30 833 H 74.04 2.97026 -3.16161 0
M  V30 834 H 74.711 4.60028 -3.05088 0
M  V30 835 H 77.187 3.97565 -1.22805 0
M  V30 836 H 76.063 5.35838 -1.19033 0
M  V30 837 H 76.324 4.41294 0.266891 0
M  V30 838 N 75.3831 0.828654 1.34056 0
M  V30 839 C 76.6311 0.41863 1.97717 0
M  V30 840 C 76.9521 -1.02314 1.66002 0
M  V30 841 O 76.2221 -1.71119 0.953683 0
M  V30 842 H 74.8021 0.151809 0.731412 0
M  V30 843 H 77.4641 1.05936 1.63596 0
M  V30 844 H 76.5601 0.542318 3.07352 0
M  V30 845 N 76.8612 -1.46375 0.584142 0
M  V30 846 C 77.7712 -2.34115 -0.150728 0
M  V30 847 C 78.7872 -1.49838 -0.884567 0
M  V30 848 O 79.9632 -1.82704 -0.847429 0
M  V30 849 C 77.0282 -3.2705 -1.15062 0
M  V30 850 C 76.0892 -4.27228 -0.421293 0
M  V30 851 C 75.3222 -5.15722 -1.37355 0
M  V30 852 O 75.5452 -5.07176 -2.61014 0
M  V30 853 O 74.4792 -5.95383 -0.883355 0
M  V30 854 H 78.3052 -2.98309 0.569708 0
M  V30 855 H 75.8902 -1.45373 0.344535 0
M  V30 856 H 77.7722 -3.84381 -1.72712 0
M  V30 857 H 76.4472 -2.65451 -1.8525 0
M  V30 858 H 75.3542 -3.7358 0.197085 0
M  V30 859 H 76.6872 -4.91616 0.239641 0
M  V30 860 N 78.3393 -0.321999 -1.54275 0
M  V30 861 C 79.5853 0.281461 -2.00837 0
M  V30 862 C 79.9183 1.51909 -1.20985 0
M  V30 863 O 79.1933 1.923 -0.291733 0
M  V30 864 C 79.4763 0.617162 -3.54772 0
M  V30 865 C 79.3293 -0.631064 -4.45351 0
M  V30 866 C 80.6483 1.43542 -4.16033 0
M  V30 867 H 77.7673 0.100826 -0.730071 0
M  V30 868 H 80.4093 -0.438268 -1.84876 0
M  V30 869 H 78.5593 1.23034 -3.68504 0
M  V30 870 H 80.2313 -1.26934 -4.43492 0
M  V30 871 H 78.4743 -1.26025 -4.15091 0
M  V30 872 H 79.1453 -0.351735 -5.50878 0
M  V30 873 H 81.6213 0.917134 -4.05867 0
M  V30 874 H 80.4973 1.63907 -5.23856 0
M  V30 875 H 80.7583 2.43108 -3.69257 0
M  V30 876 N 79.8174 1.5752 -0.0501392 0
M  V30 877 C 80.7804 2.1037 0.909786 0
M  V30 878 C 81.7804 1.02308 1.24056 0
M  V30 879 O 82.9704 1.28385 1.17741 0
M  V30 880 C 80.1024 2.58708 2.21998 0
M  V30 881 H 81.2954 2.96479 0.451665 0
M  V30 882 H 78.8484 1.55038 0.198248 0
M  V30 883 H 79.5834 1.75989 2.72394 0
M  V30 884 H 79.3684 3.37675 1.99295 0
M  V30 885 H 80.8584 2.99747 2.9076 0
M  V30 886 N 81.2955 -0.223234 1.56011 0
M  V30 887 C 82.5415 -0.949279 1.79211 0
M  V30 888 C 82.8745 -1.84054 0.619494 0
M  V30 889 O 82.1495 -1.90726 -0.381317 0
M  V30 890 C 82.4325 -1.78965 3.12479 0
M  V30 891 C 82.2855 -0.924997 4.40186 0
M  V30 892 C 83.6045 -2.76774 3.42175 0
M  V30 893 H 80.7235 -0.343676 0.651963 0
M  V30 894 H 83.3655 -0.218253 1.88742 0
M  V30 895 H 81.5155 -2.41291 3.04485 0
M  V30 896 H 83.1875 -0.318615 4.60198 0
M  V30 897 H 81.4305 -0.230344 4.33188 0
M  V30 898 H 82.1015 -1.54735 5.29869 0
M  V30 899 H 84.5775 -2.24584 3.50287 0
M  V30 900 H 83.4535 -3.32678 4.36597 0
M  V30 901 H 83.7145 -3.54429 2.64258 0
M  V30 902 N 82.7736 -1.49793 -0.48987 0
M  V30 903 C 84.0226 -1.59085 -1.23995 0
M  V30 904 C 84.3356 -0.287907 -1.9347 0
M  V30 905 O 85.5416 -0.259506 -2.70257 0
M  V30 906 C 83.9976 -2.80736 -2.252 0
M  V30 907 C 83.6056 -4.17833 -1.61614 0
M  V30 908 C 85.3496 -2.99364 -3.00967 0
M  V30 909 C 83.2566 -5.30693 -2.60996 0
M  V30 910 H 82.1866 -0.592372 -0.466488 0
M  V30 911 H 84.8376 -1.76197 -0.51252 0
M  V30 912 H 83.2196 -2.57142 -3.01154 0
M  V30 913 H 84.3936 -4.51608 -0.915774 0
M  V30 914 H 82.7086 -4.04656 -0.981977 0
M  V30 915 H 85.3056 -3.80851 -3.75308 0
M  V30 916 H 85.6486 -2.10356 -3.59244 0
M  V30 917 H 86.1816 -3.2305 -2.32128 0
M  V30 918 H 82.9206 -6.21796 -2.07485 0
M  V30 919 H 82.4406 -5.01359 -3.2924 0
M  V30 920 H 84.1196 -5.6049 -3.23202 0
M  V30 921 N 84.2517 0.741722 -1.39055 0
M  V30 922 C 85.5007 1.49656 -1.35225 0
M  V30 923 C 85.8137 1.95533 0.0512708 0
M  V30 924 O 87.0197 2.7067 0.212138 0
M  V30 925 C 85.4757 2.70389 -2.37525 0
M  V30 926 C 85.0837 2.31489 -3.83558 0
M  V30 927 C 86.8277 3.48236 -2.42759 0
M  V30 928 C 84.7347 3.48903 -4.77515 0
M  V30 929 H 83.6647 0.56197 -0.502699 0
M  V30 930 H 86.3157 0.809727 -1.64668 0
M  V30 931 H 84.6977 3.41113 -2.01142 0
M  V30 932 H 85.8717 1.68354 -4.28945 0
M  V30 933 H 84.1867 1.66749 -3.81554 0
M  V30 934 H 86.7837 4.35558 -3.1015 0
M  V30 935 H 87.1267 3.90229 -1.45008 0
M  V30 936 H 87.6597 2.84535 -2.78002 0
M  V30 937 H 84.3987 3.11966 -5.76504 0
M  V30 938 H 83.9187 4.11041 -4.36813 0
M  V30 939 H 85.5977 4.15328 -4.96096 0
M  V30 940 N 85.7298 1.2412 0.971189 0
M  V30 941 C 86.9548 1.10667 1.75407 0
M  V30 942 C 87.3798 -0.337048 1.85056 0
M  V30 943 O 86.7378 -1.24396 1.31892 0
M  V30 944 C 86.7858 1.74726 3.15441 0
M  V30 945 O 85.8898 1.01566 3.99697 0
M  V30 946 H 85.2308 0.387341 0.539317 0
M  V30 947 H 87.7608 1.64358 1.2185 0
M  V30 948 H 87.7708 1.80341 3.6598 0
M  V30 949 H 86.4458 2.79773 3.07734 0
M  V30 950 H 85.0228 1.03713 3.58187 0
M  V30 951 N 87.2079 -1.17134 1.05439 0
M  V30 952 C 88.4849 -1.83411 0.679699 0
M  V30 953 C 88.8649 -1.9368 -0.839726 0
M  V30 954 O 88.2129 -1.47325 -1.74664 0
M  V30 955 C 88.4229 -3.20918 1.37159 0
M  V30 956 C 89.7709 -3.96796 1.51123 0
M  V30 957 O 90.7949 -3.30406 1.3308 0
M  V30 958 O 89.6539 -5.15778 1.80651 0
M  V30 959 H 86.7479 -0.79154 0.239569 0
M  V30 960 H 89.2939 -1.24411 1.15413 0
M  V30 961 H 88.0659 -3.08428 2.40807 0
M  V30 962 H 87.6889 -3.87587 0.886674 0
M  V30 963 N 88.686 -0.835752 -1.33615 0
M  V30 964 C 89.618 -0.224151 -2.28101 0
M  V30 965 C 90.631 0.593331 -1.51603 0
M  V30 966 O 91.82 0.420911 -1.73466 0
M  V30 967 C 88.92 0.703309 -3.31522 0
M  V30 968 C 88.093 -0.0741528 -4.37337 0
M  V30 969 C 87.152 0.776176 -5.20444 0
M  V30 970 O 86.178 0.216506 -5.68788 0
M  V30 971 N 87.38 2.09401 -5.41416 0
M  V30 972 H 90.145 -1.03598 -2.81225 0
M  V30 973 H 87.706 -0.69392 -1.46275 0
M  V30 974 H 89.698 1.27707 -3.84022 0
M  V30 975 H 88.268 1.41585 -2.78698 0
M  V30 976 H 87.488 -0.82928 -3.85378 0
M  V30 977 H 88.776 -0.608863 -5.05144 0
M  V30 978 H 88.174 2.57229 -5.03835 0
M  V30 979 H 86.731 2.61633 -5.96985 0
M  V30 980 N 90.1641 1.46063 -0.591896 0
M  V30 981 C 91.5801 1.57561 -0.254288 0
M  V30 982 C 91.7801 1.58565 1.24336 0
M  V30 983 O 90.8361 1.50753 2.02558 0
M  V30 984 C 92.1491 2.86549 -0.911611 0
M  V30 985 C 93.6971 3.00197 -0.886059 0
M  V30 986 C 94.1721 4.31933 -1.5231 0
M  V30 987 N 95.6631 4.38654 -1.48786 0
M  V30 988 C 96.3981 5.39222 -1.95006 0
M  V30 989 N 95.8941 6.46414 -2.49241 0
M  V30 990 N 97.6871 5.3048 -1.85868 0
M  V30 991 H 89.8381 1.43655 -1.56451 0
M  V30 992 H 92.1011 0.68583 -0.654478 0
M  V30 993 H 91.8071 2.91651 -1.96551 0
M  V30 994 H 91.6811 3.74794 -0.425368 0
M  V30 995 H 94.0681 2.9467 0.159246 0
M  V30 996 H 94.1491 2.13403 -1.41041 0
M  V30 997 H 93.7931 4.38217 -2.56765 0
M  V30 998 H 93.7231 5.17516 -0.973891 0
M  V30 999 H 96.2141 3.61793 -1.09151 0
M  V30 1000 H 96.5271 7.19376 -2.82344 0
M  V30 1001 H 94.8721 6.47208 -2.53272 0
M  V30 1002 H 98.0631 4.45643 -1.43248 0
M  V30 1003 H 98.2361 6.08711 -2.22204 0
M  V30 1004 N 91.6422 0.330177 1.54103 0
M  V30 1005 C 92.5752 -0.575477 2.20825 0
M  V30 1006 C 93.5532 -1.11064 1.18758 0
M  V30 1007 O 94.7372 -1.17341 1.47524 0
M  V30 1008 C 91.8642 -1.79032 2.87516 0
M  V30 1009 C 90.9102 -1.38581 4.03358 0
M  V30 1010 S 91.7432 -0.416911 5.33875 0
M  V30 1011 C 92.8992 -1.63889 6.04062 0
M  V30 1012 H 93.1322 -0.00872114 2.97299 0
M  V30 1013 H 90.6652 0.114254 1.53977 0
M  V30 1014 H 92.6232 -2.48734 3.2656 0
M  V30 1015 H 91.2842 -2.32827 2.10832 0
M  V30 1016 H 90.4772 -2.29123 4.48908 0
M  V30 1017 H 90.0792 -0.768419 3.66021 0
M  V30 1018 H 92.3712 -2.57536 6.26643 0
M  V30 1019 H 93.3142 -1.22542 6.97416 0
M  V30 1020 H 93.7222 -1.82887 5.34053 0
M  V30 1021 N 93.1203 -1.57491 0.0584922 0
M  V30 1022 C 94.5313 -1.80526 -0.476138 0
M  V30 1023 C 94.8823 -0.971334 -1.70469 0
M  V30 1024 O 94.0073 -0.190012 -2.15564 0
M  V30 1025 C 94.6023 -3.27424 -0.870587 0
M  V30 1026 C 93.1613 -3.51351 -1.35015 0
M  V30 1027 C 92.3083 -2.75343 -0.32887 0
M  V30 1028 H 95.2593 -1.56133 0.284312 0
M  V30 1029 H 95.2803 -3.38745 -1.73299 0
M  V30 1030 H 94.7923 -3.88093 0.0237627 0
M  V30 1031 H 92.8933 -2.95971 -2.26345 0
M  V30 1032 H 93.0063 -4.60059 -1.33726 0
M  V30 1033 H 91.3703 -2.417 -0.803321 0
M  V30 1034 H 92.1533 -3.38743 0.557521 0
M  V30 1035 N 94.5984 0.214957 -1.56127 0
M  V30 1036 C 95.8284 0.953707 -1.8327 0
M  V30 1037 C 96.2364 1.78181 -0.636262 0
M  V30 1038 O 95.5794 1.79191 0.404516 0
M  V30 1039 C 95.6414 1.91516 -3.0424 0
M  V30 1040 C 95.3054 1.27094 -4.38972 0
M  V30 1041 C 96.3024 0.657575 -5.15725 0
M  V30 1042 C 93.9874 1.28073 -4.85698 0
M  V30 1043 C 95.9814 0.0625968 -6.37369 0
M  V30 1044 C 93.6684 0.681914 -6.07283 0
M  V30 1045 C 94.6664 0.0739046 -6.8296 0
M  V30 1046 O 94.3544 -0.515582 -8.02245 0
M  V30 1047 H 94.0864 0.284764 -0.613095 0
M  V30 1048 H 96.6404 0.233283 -2.04071 0
M  V30 1049 H 94.8704 2.67475 -2.79274 0
M  V30 1050 H 96.5594 2.52001 -3.18198 0
M  V30 1051 H 97.3254 0.642288 -4.80728 0
M  V30 1052 H 93.2044 1.74337 -4.26764 0
M  V30 1053 H 96.7484 -0.412593 -6.96379 0
M  V30 1054 H 92.6454 0.694636 -6.41752 0
M  V30 1055 H 93.4134 -0.410544 -8.1747 0
M  V30 1056 N 96.0765 1.50051 0.48192 0
M  V30 1057 C 97.0095 1.62749 1.59963 0
M  V30 1058 C 97.9875 0.475903 1.5548 0
M  V30 1059 O 99.1715 0.693986 1.7526 0
M  V30 1060 C 96.2985 1.60008 2.98522 0
M  V30 1061 C 95.3445 2.80596 3.21198 0
M  V30 1062 S 96.1775 4.42038 3.02262 0
M  V30 1063 C 97.3335 4.41973 4.43182 0
M  V30 1064 H 97.5665 2.57296 1.4895 0
M  V30 1065 H 95.0995 1.39179 0.668477 0
M  V30 1066 H 97.0575 1.59112 3.78409 0
M  V30 1067 H 95.7185 0.667153 3.06933 0
M  V30 1068 H 94.9115 2.74952 4.22395 0
M  V30 1069 H 94.5135 2.79003 2.49065 0
M  V30 1070 H 96.8055 4.14868 5.35622 0
M  V30 1071 H 97.7485 5.43512 4.53873 0
M  V30 1072 H 98.1565 3.71812 4.24755 0
M  V30 1073 N 97.5546 -0.734337 1.39446 0
M  V30 1074 C 98.7796 -1.52866 1.40167 0
M  V30 1075 C 99.2046 -1.881 -0.00171513 0
M  V30 1076 O 98.5626 -1.51957 -0.988879 0
M  V30 1077 C 98.6106 -2.79235 2.28167 0
M  V30 1078 O 97.7146 -3.75185 1.71201 0
M  V30 1079 H 97.0556 -0.461618 0.477289 0
M  V30 1080 H 99.5856 -0.905949 1.8345 0
M  V30 1081 H 99.5956 -3.27963 2.42702 0
M  V30 1082 H 98.2706 -2.52923 3.30156 0
M  V30 1083 H 96.8476 -3.33958 1.65912 0
M  V30 1084 N 99.0327 -1.24633 -0.964593 0
M  V30 1085 C 100.281 -1.08573 -1.70459 0
M  V30 1086 C 100.602 0.375655 -1.91347 0
M  V30 1087 O 99.8717 1.26779 -1.49345 0
M  V30 1088 H 98.4517 -0.398784 -0.631649 0
M  V30 1089 H 101.114 -1.56601 -1.16026 0
M  V30 1090 H 100.21 -1.58623 -2.68785 0
M  V30 1091 N 100.511 1.16574 -1.06058 0
M  V30 1092 C 101.739 1.90952 -0.796552 0
M  V30 1093 C 102.154 1.77302 0.648808 0
M  V30 1094 O 101.511 1.11605 1.44397 0
M  V30 1095 C 101.562 3.41736 -1.17894 0
M  V30 1096 O 101.283 3.54975 -2.56758 0
M  V30 1097 C 102.784 4.33169 -0.942308 0
M  V30 1098 H 100.004 0.605594 -0.288959 0
M  V30 1099 H 102.548 1.47777 -1.41358 0
M  V30 1100 H 100.703 3.82623 -0.606491 0
M  V30 1101 H 101.117 4.4846 -2.72 0
M  V30 1102 H 102.591 5.37439 -1.25952 0
M  V30 1103 H 103.068 4.3903 0.122078 0
M  V30 1104 H 103.674 3.98007 -1.49902 0
M  V30 1105 N 101.989 0.842826 1.3317 0
M  V30 1106 C 102.899 0.281444 2.32906 0
M  V30 1107 C 103.915 -0.594587 1.63526 0
M  V30 1108 O 105.091 -0.49777 1.95152 0
M  V30 1109 C 102.156 -0.530929 3.42611 0
M  V30 1110 C 101.217 0.369843 4.27704 0
M  V30 1111 C 100.45 -0.403853 5.3217 0
M  V30 1112 O 100.673 -1.63513 5.46461 0
M  V30 1113 O 99.6069 0.224199 6.01482 0
M  V30 1114 H 103.433 1.10744 2.82789 0
M  V30 1115 H 101.018 0.60545 1.36582 0
M  V30 1116 H 102.9 -0.992437 4.09547 0
M  V30 1117 H 101.575 -1.33392 2.94938 0
M  V30 1118 H 100.482 0.879275 3.6362 0
M  V30 1119 H 101.815 1.13771 4.78871 0
M  V30 1120 N 103.467 -1.45747 0.599634 0
M  V30 1121 C 104.714 -2.02292 0.0917284 0
M  V30 1122 C 105.042 -1.46906 -1.27472 0
M  V30 1123 O 104.297 -0.630652 -1.8526 0
M  V30 1124 C 104.596 -3.57399 -0.00602758 0
M  V30 1125 C 104.262 -4.31902 1.29503 0
M  V30 1126 C 102.924 -4.51974 1.65144 0
M  V30 1127 C 105.276 -4.74551 2.15525 0
M  V30 1128 C 102.604 -5.11949 2.86574 0
M  V30 1129 C 104.956 -5.35868 3.36196 0
M  V30 1130 C 103.62 -5.54165 3.72099 0
M  V30 1131 H 102.89 -0.740239 0.0335658 0
M  V30 1132 H 105.537 -1.7491 0.779661 0
M  V30 1133 H 103.842 -3.84014 -0.777183 0
M  V30 1134 H 105.539 -3.98846 -0.415038 0
M  V30 1135 H 102.129 -4.16588 1.00761 0
M  V30 1136 H 106.313 -4.58784 1.8929 0
M  V30 1137 H 101.569 -5.24305 3.14507 0
M  V30 1138 H 105.743 -5.6787 4.03109 0
M  V30 1139 H 103.37 -6.00406 4.6628 0
M  V30 1140 N 104.945 -0.338344 -1.53925 0
M  V30 1141 C 105.875 0.51328 -2.27789 0
M  V30 1142 C 106.856 1.107 -1.29149 0
M  V30 1143 O 108.041 1.12937 -1.57984 0
M  V30 1144 C 105.171 1.66697 -3.04679 0
M  V30 1145 C 104.125 1.20183 -4.1078 0
M  V30 1146 C 103.451 2.44363 -4.75595 0
M  V30 1147 C 104.751 0.30605 -5.21403 0
M  V30 1148 H 106.445 -0.102883 -2.99223 0
M  V30 1149 H 103.991 -0.0509219 -1.4391 0
M  V30 1150 H 105.944 2.26915 -3.55088 0
M  V30 1151 H 104.668 2.30995 -2.30887 0
M  V30 1152 H 103.327 0.622499 -3.61276 0
M  V30 1153 H 102.975 3.07057 -3.98403 0
M  V30 1154 H 102.675 2.13925 -5.47275 0
M  V30 1155 H 104.199 3.05317 -5.28786 0
M  V30 1156 H 105.613 0.814929 -5.67478 0
M  V30 1157 H 104.01 0.0937929 -6.00027 0
M  V30 1158 H 105.08 -0.65921 -4.80398 0
M  V30 1159 N 106.423 1.57458 -0.0668435 0
M  V30 1160 C 107.648 1.9804 0.616027 0
M  V30 1161 C 108.073 0.944771 1.62652 0
M  V30 1162 O 107.431 -0.0902094 1.81075 0
M  V30 1163 C 107.479 3.37665 1.26549 0
M  V30 1164 O 106.583 3.36701 2.38131 0
M  V30 1165 H 105.924 0.644719 0.158849 0
M  V30 1166 H 108.454 2.04121 -0.139891 0
M  V30 1167 H 108.464 3.7474 1.6135 0
M  V30 1168 H 107.139 4.12573 0.525016 0
M  V30 1169 H 105.716 3.1139 2.0516 0
M  V30 1170 N 107.901 -0.206675 1.56239 0
M  V30 1171 C 108.831 -1.25909 1.96645 0
M  V30 1172 C 109.812 -1.48097 0.836734 0
M  V30 1173 O 110.997 -1.6003 1.10019 0
M  V30 1174 C 108.127 -2.6058 2.29599 0
M  V30 1175 C 107.081 -2.53024 3.452 0
M  V30 1176 C 106.407 -3.91861 3.63798 0
M  V30 1177 C 107.707 -2.06524 4.79734 0
M  V30 1178 H 109.401 -0.923369 2.84806 0
M  V30 1179 H 106.947 -0.442735 1.37025 0
M  V30 1180 H 108.9 -3.34375 2.56459 0
M  V30 1181 H 107.624 -2.95869 1.38307 0
M  V30 1182 H 106.283 -1.81684 3.18412 0
M  V30 1183 H 105.931 -4.24483 2.69857 0
M  V30 1184 H 105.631 -3.87683 4.4156 0
M  V30 1185 H 107.155 -4.67296 3.93022 0
M  V30 1186 H 108.569 -2.70072 5.05702 0
M  V30 1187 H 106.966 -2.13374 5.60885 0
M  V30 1188 H 108.036 -1.01802 4.74093 0
M  V30 1189 N 109.379 -1.50304 -0.473955 0
M  V30 1190 C 110.607 -1.64902 -1.24959 0
M  V30 1191 C 111.022 -0.331198 -1.85872 0
M  V30 1192 O 110.379 0.68652 -1.69095 0
M  V30 1193 C 110.43 -2.73803 -2.36038 0
M  V30 1194 O 110.151 -4.00477 -1.77624 0
M  V30 1195 C 111.652 -2.99349 -3.26964 0
M  V30 1196 H 108.872 -0.554383 -0.378022 0
M  V30 1197 H 111.416 -1.9651 -0.566054 0
M  V30 1198 H 109.571 -2.44898 -3.00173 0
M  V30 1199 H 109.985 -4.60678 -2.5075 0
M  V30 1200 H 111.459 -3.79217 -4.01121 0
M  V30 1201 H 111.936 -2.10307 -3.85574 0
M  V30 1202 H 112.542 -3.29774 -2.68569 0
M  V30 1203 N 110.857 0.726932 -1.39834 0
M  V30 1204 C 111.82 1.82269 -1.38962 0
M  V30 1205 C 112.82 1.58248 -0.285334 0
M  V30 1206 O 114.01 1.65499 -0.54366 0
M  V30 1207 C 111.142 3.20186 -1.17019 0
M  V30 1208 H 112.335 1.84443 -2.36476 0
M  V30 1209 H 109.888 0.931416 -1.25516 0
M  V30 1210 H 110.623 3.23669 -0.202204 0
M  V30 1211 H 110.408 3.3902 -1.96998 0
M  V30 1212 H 111.898 4.00235 -1.1917 0
M  V30 1213 N 112.336 1.25143 0.95797 0
M  V30 1214 C 113.564 1.12424 1.73691 0
M  V30 1215 C 113.979 -0.322304 1.86029 0
M  V30 1216 O 113.336 -1.22186 1.35561 0
M  V30 1217 C 113.387 1.76933 3.15241 0
M  V30 1218 O 113.108 3.15932 3.03511 0
M  V30 1219 C 114.609 1.6995 4.09429 0
M  V30 1220 H 111.829 0.3923 0.544373 0
M  V30 1221 H 114.373 1.6544 1.20207 0
M  V30 1222 H 112.528 1.27895 3.6568 0
M  V30 1223 H 112.942 3.47598 3.9278 0
M  V30 1224 H 114.416 2.19753 5.06372 0
M  V30 1225 H 114.893 0.662619 4.34173 0
M  V30 1226 H 115.499 2.18461 3.64904 0
M  V30 1227 N 113.814 -1.1601 1.06675 0
M  V30 1228 C 114.746 -2.20115 0.638921 0
M  V30 1229 C 115.759 -1.59916 -0.305057 0
M  V30 1230 O 116.948 -1.78245 -0.0954446 0
M  V30 1231 C 114.048 -3.38798 -0.0830083 0
M  V30 1232 C 113.221 -4.2855 0.875426 0
M  V30 1233 C 112.28 -5.25849 0.192042 0
M  V30 1234 O 111.306 -5.63102 0.830921 0
M  V30 1235 N 112.508 -5.70648 -1.06493 0
M  V30 1236 H 115.273 -2.57439 1.53444 0
M  V30 1237 H 112.834 -1.31057 0.950557 0
M  V30 1238 H 114.826 -4.00936 -0.550685 0
M  V30 1239 H 113.396 -2.99947 -0.880386 0
M  V30 1240 H 112.616 -3.63617 1.52238 0
M  V30 1241 H 113.904 -4.85393 1.52548 0
M  V30 1242 H 113.302 -5.42482 -1.60405 0
M  V30 1243 H 111.859 -6.34859 -1.47641 0
M  V30 1244 N 115.292 -0.849877 -1.32721 0
M  V30 1245 C 116.522 -0.46408 -2.0132 0
M  V30 1246 C 116.93 0.94246 -1.64056 0
M  V30 1247 O 116.273 1.6257 -0.855379 0
M  V30 1248 C 116.335 -0.517887 -3.5575 0
M  V30 1249 C 115.999 -1.88248 -4.16427 0
M  V30 1250 C 116.996 -2.84726 -4.35002 0
M  V30 1251 C 114.681 -2.17832 -4.52609 0
M  V30 1252 C 116.675 -4.08945 -4.8892 0
M  V30 1253 C 114.362 -3.42304 -5.06232 0
M  V30 1254 C 115.36 -4.37677 -5.24335 0
M  V30 1255 O 115.048 -5.59946 -5.76815 0
M  V30 1256 H 114.78 -0.181327 -0.651227 0
M  V30 1257 H 117.334 -1.14713 -1.70382 0
M  V30 1258 H 115.564 0.221997 -3.86062 0
M  V30 1259 H 117.253 -0.148366 -4.05629 0
M  V30 1260 H 118.019 -2.63174 -4.07388 0
M  V30 1261 H 113.898 -1.44385 -4.37806 0
M  V30 1262 H 117.442 -4.83396 -5.02966 0
M  V30 1263 H 113.339 -3.63709 -5.33278 0
M  V30 1264 H 114.107 -5.61838 -5.95214 0
M  V30 1265 N 116.77 1.45427 -0.607355 0
M  V30 1266 C 118.181 1.85756 -0.187535 0
M  V30 1267 C 118.532 1.5077 1.25551 0
M  V30 1268 O 117.657 0.93427 1.95193 0
M  V30 1269 C 118.252 3.37154 -0.333572 0
M  V30 1270 C 116.811 3.76387 0.0315542 0
M  V30 1271 C 115.958 2.69377 -0.658117 0
M  V30 1272 H 118.909 1.36231 -0.81405 0
M  V30 1273 H 118.93 3.78014 0.43428 0
M  V30 1274 H 118.442 3.62586 -1.38393 0
M  V30 1275 H 116.543 3.56571 1.0811 0
M  V30 1276 H 116.656 4.77731 -0.361935 0
M  V30 1277 H 115.02 2.5452 -0.0957873 0
M  V30 1278 H 115.803 2.97646 -1.7106 0
M  V30 1279 N 118.248 0.346503 1.53744 0
M  V30 1280 C 119.525 -0.304532 1.93215 0
M  V30 1281 C 119.905 -1.67993 1.27834 0
M  V30 1282 O 119.253 -2.24411 0.430352 0
M  V30 1283 C 119.463 -0.373852 3.46992 0
M  V30 1284 C 120.811 -0.62329 4.2 0
M  V30 1285 O 121.835 -0.455847 3.53271 0
M  V30 1286 O 120.694 -0.947879 5.38217 0
M  V30 1287 H 117.788 -0.178318 0.807547 0
M  V30 1288 H 120.334 0.397895 1.64969 0
M  V30 1289 H 119.106 0.591224 3.86808 0
M  V30 1290 H 118.729 -1.12294 3.81413 0
M  V30 1291 N 119.726 -1.57421 0.075193 0
M  V30 1292 C 120.951 -1.98364 -0.605515 0
M  V30 1293 C 121.376 -0.953383 -1.62149 0
M  V30 1294 O 120.734 0.0806053 -1.81121 0
M  V30 1295 C 120.782 -3.38332 -1.24756 0
M  V30 1296 O 119.886 -3.37959 -2.36342 0
M  V30 1297 H 119.227 -0.645553 -0.155428 0
M  V30 1298 H 121.757 -2.04044 0.150714 0
M  V30 1299 H 121.767 -3.75591 -1.5936 0
M  V30 1300 H 120.442 -4.12846 -0.503129 0
M  V30 1301 H 119.019 -3.12474 -2.03506 0
M  V30 1302 N 121.204 0.198386 -1.56346 0
M  V30 1303 C 122.453 0.917451 -1.79627 0
M  V30 1304 C 122.766 1.8456 -0.64784 0
M  V30 1305 O 123.972 2.60504 -0.764859 0
M  V30 1306 C 122.428 1.68175 -3.18191 0
M  V30 1307 C 122.036 0.798589 -4.40825 0
M  V30 1308 C 123.78 2.39065 -3.50782 0
M  V30 1309 C 121.687 1.56157 -5.70411 0
M  V30 1310 H 120.617 0.346317 -0.669762 0
M  V30 1311 H 123.268 0.170801 -1.82703 0
M  V30 1312 H 121.65 2.47216 -3.09354 0
M  V30 1313 H 122.824 0.0470665 -4.60776 0
M  V30 1314 H 121.139 0.200686 -4.15916 0
M  V30 1315 H 123.736 2.96692 -4.44835 0
M  V30 1316 H 124.079 3.13091 -2.74371 0
M  V30 1317 H 124.612 1.66993 -3.61052 0
M  V30 1318 H 121.351 0.864142 -6.49779 0
M  V30 1319 H 120.871 2.2871 -5.54483 0
M  V30 1320 H 122.55 2.11622 -6.11412 0
M  V30 1321 N 122.682 1.50554 0.465978 0
M  V30 1322 C 124.098 1.38093 0.800154 0
M  V30 1323 C 124.298 0.440988 1.96615 0
M  V30 1324 O 123.354 -0.114499 2.5224 0
M  V30 1325 C 124.667 2.79565 1.10742 0
M  V30 1326 C 126.215 2.88516 1.21357 0
M  V30 1327 C 126.69 4.30833 1.55393 0
M  V30 1328 N 128.181 4.33807 1.62375 0
M  V30 1329 C 128.916 5.40927 1.90225 0
M  V30 1330 N 128.412 6.58247 2.16062 0
M  V30 1331 N 130.205 5.28376 1.9177 0
M  V30 1332 H 122.356 2.10237 -0.302366 0
M  V30 1333 H 124.619 0.945203 -0.0727746 0
M  V30 1334 H 124.325 3.50208 0.323661 0
M  V30 1335 H 124.199 3.17125 2.04234 0
M  V30 1336 H 126.586 2.1809 1.98799 0
M  V30 1337 H 126.667 2.54492 0.258321 0
M  V30 1338 H 126.311 5.01799 0.784889 0
M  V30 1339 H 126.241 4.62347 2.52076 0
M  V30 1340 H 128.732 3.49212 1.44427 0
M  V30 1341 H 129.045 7.3569 2.36601 0
M  V30 1342 H 127.39 6.61413 2.13444 0
M  V30 1343 H 130.581 4.35715 1.71085 0
M  V30 1344 H 130.754 6.11944 2.13139 0
M  V30 1345 N 124.16 -0.719506 1.40217 0
M  V30 1346 C 125.409 -1.47486 1.37589 0
M  V30 1347 C 125.722 -1.9559 -0.0201568 0
M  V30 1348 O 126.928 -2.70973 -0.169049 0
M  V30 1349 C 125.384 -2.66575 2.41796 0
M  V30 1350 C 124.992 -2.25358 3.87192 0
M  V30 1351 C 126.736 -3.4433 2.48269 0
M  V30 1352 C 124.643 -3.41262 4.83005 0
M  V30 1353 H 123.573 -0.553901 0.511576 0
M  V30 1354 H 126.224 -0.783427 1.65936 0
M  V30 1355 H 124.606 -3.3787 2.06543 0
M  V30 1356 H 125.78 -1.61509 4.31569 0
M  V30 1357 H 124.095 -1.60657 3.84159 0
M  V30 1358 H 126.692 -4.30569 3.17041 0
M  V30 1359 H 127.035 -3.87872 1.51198 0
M  V30 1360 H 127.568 -2.80076 2.82493 0
M  V30 1361 H 124.307 -3.02755 5.81394 0
M  V30 1362 H 123.827 -4.0404 4.43297 0
M  V30 1363 H 125.506 -4.07383 5.02641 0
M  V30 1364 N 125.638 -1.25649 -0.95132 0
M  V30 1365 C 126.887 -1.09988 -1.69073 0
M  V30 1366 C 127.2 0.358355 -1.92289 0
M  V30 1367 O 128.406 0.635466 -2.63958 0
M  V30 1368 C 126.862 -1.92012 -3.044 0
M  V30 1369 C 126.47 -3.42347 -2.88968 0
M  V30 1370 C 128.214 -1.8493 -3.82101 0
M  V30 1371 C 126.121 -4.16655 -4.19705 0
M  V30 1372 H 125.051 -0.407993 -0.63408 0
M  V30 1373 H 127.702 -1.49873 -1.05879 0
M  V30 1374 H 126.084 -1.44952 -3.68517 0
M  V30 1375 H 127.258 -3.97104 -2.33762 0
M  V30 1376 H 125.573 -3.50557 -2.24719 0
M  V30 1377 H 128.17 -2.37739 -4.78941 0
M  V30 1378 H 128.513 -0.817883 -4.08187 0
M  V30 1379 H 129.046 -2.29758 -3.2474 0
M  V30 1380 H 125.785 -5.20224 -3.98807 0
M  V30 1381 H 125.305 -3.66681 -4.74663 0
M  V30 1382 H 126.984 -4.24551 -4.88227 0
M  V30 1383 N 127.117 1.15442 -1.07289 0
M  V30 1384 C 128.047 2.22312 -0.714107 0
M  V30 1385 C 129.028 1.67467 0.298155 0
M  V30 1386 O 130.213 1.93445 0.171048 0
M  V30 1387 C 127.343 3.47124 -0.110448 0
M  V30 1388 C 126.297 4.14926 -1.04979 0
M  V30 1389 C 125.623 5.33807 -0.308924 0
M  V30 1390 C 126.923 4.64762 -2.38314 0
M  V30 1391 H 128.617 2.5258 -1.6076 0
M  V30 1392 H 126.163 1.21404 -0.77441 0
M  V30 1393 H 128.116 4.21124 0.152482 0
M  V30 1394 H 126.84 3.16187 0.81812 0
M  V30 1395 H 125.499 3.42866 -1.29764 0
M  V30 1396 H 125.147 4.99126 0.623084 0
M  V30 1397 H 124.847 5.80113 -0.935036 0
M  V30 1398 H 126.371 6.10576 -0.0537771 0
M  V30 1399 H 127.785 5.30292 -2.1786 0
M  V30 1400 H 126.182 5.21728 -2.96514 0
M  V30 1401 H 127.252 3.80434 -3.00663 0
M  V30 1402 N 128.595 0.856903 1.32268 0
M  V30 1403 C 129.823 0.475439 2.01363 0
M  V30 1404 C 130.238 -0.928486 1.64392 0
M  V30 1405 O 129.595 -1.60624 0.866387 0
M  V30 1406 C 129.646 0.607545 3.56358 0
M  V30 1407 O 129.367 1.95617 3.92002 0
M  V30 1408 C 130.868 0.225382 4.42727 0
M  V30 1409 H 128.088 0.186636 0.644521 0
M  V30 1410 H 130.632 1.15446 1.68797 0
M  V30 1411 H 128.787 -0.0237719 3.87393 0
M  V30 1412 H 129.201 1.95455 4.86721 0
M  V30 1413 H 130.675 0.368813 5.50767 0
M  V30 1414 H 131.152 -0.834369 4.31202 0
M  V30 1415 H 131.758 0.831864 4.17085 0
M  V30 1416 N 130.073 -1.45103 0.615059 0
M  V30 1417 C 131.321 -2.01784 0.112955 0
M  V30 1418 C 131.642 -1.48504 -1.26378 0
M  V30 1419 O 130.912 -0.682245 -1.83636 0
M  V30 1420 H 129.492 -0.745993 0.0387668 0
M  V30 1421 H 132.154 -1.77808 0.798141 0
M  V30 1422 H 131.25 -3.12025 0.0684069 0
M  V30 1423 N 131.551 -0.354651 -1.53558 0
M  V30 1424 C 132.781 0.239167 -2.05211 0
M  V30 1425 C 133.189 1.43879 -1.22863 0
M  V30 1426 O 132.532 1.81857 -0.259565 0
M  V30 1427 C 132.594 0.707251 -3.52474 0
M  V30 1428 C 132.258 -0.374212 -4.55465 0
M  V30 1429 C 133.255 -1.22054 -5.0537 0
M  V30 1430 C 130.94 -0.531323 -4.99482 0
M  V30 1431 C 132.934 -2.20942 -5.97882 0
M  V30 1432 C 130.621 -1.52358 -5.91802 0
M  V30 1433 C 131.619 -2.36108 -6.40892 0
M  V30 1434 O 131.307 -3.33643 -7.31394 0
M  V30 1435 H 131.039 0.0479716 -0.674296 0
M  V30 1436 H 133.593 -0.508121 -1.99016 0
M  V30 1437 H 131.823 1.50596 -3.56171 0
M  V30 1438 H 133.512 1.22285 -3.87042 0
M  V30 1439 H 134.278 -1.1103 -4.7212 0
M  V30 1440 H 130.157 0.110738 -4.60867 0
M  V30 1441 H 133.701 -2.86348 -6.36121 0
M  V30 1442 H 129.598 -1.63434 -6.24467 0
M  V30 1443 H 130.366 -3.29244 -7.4936 0
M  V30 1444 N 133.029 1.57378 -0.0835403 0
M  V30 1445 C 134.257 1.98263 0.59157 0
M  V30 1446 C 134.672 0.962302 1.62435 0
M  V30 1447 O 134.029 -0.049581 1.82433 0
M  V30 1448 C 134.08 3.39214 1.24965 0
M  V30 1449 O 133.801 4.37339 0.258186 0
M  V30 1450 C 135.302 3.95038 2.01147 0
M  V30 1451 H 132.522 0.651773 0.159477 0
M  V30 1452 H 135.066 2.03878 -0.159415 0
M  V30 1453 H 133.221 3.34649 1.95164 0
M  V30 1454 H 133.635 5.19371 0.731734 0
M  V30 1455 H 135.109 4.95848 2.42567 0
M  V30 1456 H 135.586 3.32222 2.87272 0
M  V30 1457 H 136.192 4.0304 1.35789 0
M  V30 1458 N 134.507 -0.190092 1.56449 0
M  V30 1459 C 135.784 -0.935886 1.71757 0
M  V30 1460 C 136.164 -2.01173 0.639726 0
M  V30 1461 O 135.512 -2.25827 -0.348502 0
M  V30 1462 C 135.722 -1.51775 3.1427 0
M  V30 1463 C 137.07 -1.99794 3.74656 0
M  V30 1464 O 138.094 -1.61607 3.1743 0
M  V30 1465 O 136.953 -2.70079 4.751 0
M  V30 1466 H 134.047 -0.439229 0.700719 0
M  V30 1467 H 136.593 -0.179395 1.68749 0
M  V30 1468 H 135.365 -0.742505 3.84191 0
M  V30 1469 H 134.988 -2.33894 3.21527 0
M  V30 1470 N 135.985 -1.50799 -0.457987 0
M  V30 1471 C 137.231 -1.62683 -1.21088 0
M  V30 1472 C 137.564 -0.332268 -1.91336 0
M  V30 1473 O 136.839 0.667043 -1.82704 0
M  V30 1474 C 137.122 -2.81615 -2.24422 0
M  V30 1475 C 136.975 -4.20989 -1.58392 0
M  V30 1476 C 138.294 -2.96085 -3.2561 0
M  V30 1477 H 135.413 -0.592087 -0.438864 0
M  V30 1478 H 138.055 -1.83225 -0.50286 0
M  V30 1479 H 136.205 -2.64231 -2.84806 0
M  V30 1480 H 137.877 -4.49994 -1.01504 0
M  V30 1481 H 136.12 -4.24641 -0.886704 0
M  V30 1482 H 136.791 -5.0016 -2.33547 0
M  V30 1483 H 139.267 -3.12042 -2.75262 0
M  V30 1484 H 138.143 -3.80902 -3.95228 0
M  V30 1485 H 138.404 -2.0726 -3.90507 0
M  V30 1486 N 137.463 0.71206 -1.40597 0
M  V30 1487 C 138.373 1.8562 -1.43466 0
M  V30 1488 C 139.389 1.70902 -0.326902 0
M  V30 1489 O 140.565 1.93105 -0.572043 0
M  V30 1490 C 137.63 3.21451 -1.29884 0
M  V30 1491 C 136.691 3.48398 -2.50833 0
M  V30 1492 C 135.924 4.77749 -2.3789 0
M  V30 1493 O 136.147 5.53089 -1.39459 0
M  V30 1494 O 135.081 5.05111 -3.27333 0
M  V30 1495 H 138.907 1.86155 -2.39958 0
M  V30 1496 H 136.492 0.86295 -1.21957 0
M  V30 1497 H 138.374 4.02579 -1.24531 0
M  V30 1498 H 137.049 3.21636 -0.364997 0
M  V30 1499 H 135.956 2.67265 -2.61763 0
M  V30 1500 H 137.289 3.53014 -3.4299 0
M  V30 1501 N 138.941 1.26152 0.944643 0
M  V30 1502 C 140.218 1.02247 1.66748 0
M  V30 1503 C 140.598 -0.448202 2.06287 0
M  V30 1504 O 139.946 -1.42779 1.78399 0
M  V30 1505 C 140.156 1.96788 2.88228 0
M  V30 1506 C 141.504 2.25201 3.59958 0
M  V30 1507 O 142.528 1.94626 2.98327 0
M  V30 1508 O 141.387 2.77242 4.70956 0
M  V30 1509 H 138.481 0.388517 0.730057 0
M  V30 1510 H 141.027 1.37348 0.99668 0
M  V30 1511 H 139.799 2.96047 2.55875 0
M  V30 1512 H 139.422 1.62145 3.63035 0
M  V30 1513 N 140.419 -1.14872 1.07899 0
M  V30 1514 C 141.349 -2.2193 0.725887 0
M  V30 1515 C 142.33 -1.67622 -0.28927 0
M  V30 1516 O 143.515 -1.93533 -0.160787 0
M  V30 1517 C 140.645 -3.47061 0.128856 0
M  V30 1518 C 139.599 -4.14363 1.07178 0
M  V30 1519 C 138.925 -5.33636 0.337229 0
M  V30 1520 C 140.225 -4.63492 2.40775 0
M  V30 1521 H 141.919 -2.51724 1.62097 0
M  V30 1522 H 139.465 -1.20991 0.780838 0
M  V30 1523 H 141.418 -4.21199 -0.130147 0
M  V30 1524 H 140.142 -3.16617 -0.80134 0
M  V30 1525 H 138.801 -3.42173 1.3158 0
M  V30 1526 H 138.449 -4.99449 -0.596606 0
M  V30 1527 H 138.149 -5.79609 0.965788 0
M  V30 1528 H 139.673 -6.10539 0.0861567 0
M  V30 1529 H 141.087 -5.2913 2.20669 0
M  V30 1530 H 139.484 -5.20148 2.99276 0
M  V30 1531 H 140.554 -3.78834 3.02676 0
M  V30 1532 N 141.898 -0.863906 -1.31812 0
M  V30 1533 C 143.144 -0.472535 -1.97218 0
M  V30 1534 C 143.477 0.971394 -1.68159 0
M  V30 1535 O 142.752 1.68309 -0.974798 0
M  V30 1536 C 143.035 -0.723054 -3.52766 0
M  V30 1537 C 142.888 -2.21608 -3.91421 0
M  V30 1538 C 144.207 -0.185522 -4.39709 0
M  V30 1539 H 141.326 -0.173158 -0.71637 0
M  V30 1540 H 143.968 -1.08403 -1.56041 0
M  V30 1541 H 142.118 -0.202577 -3.87971 0
M  V30 1542 H 143.79 -2.80334 -3.66347 0
M  V30 1543 H 142.033 -2.691 -3.40246 0
M  V30 1544 H 142.704 -2.34203 -4.99853 0
M  V30 1545 H 145.18 -0.630726 -4.11292 0
M  V30 1546 H 144.056 -0.390306 -5.47511 0
M  V30 1547 H 144.317 0.912229 -4.32586 0
M  V30 1548 N 143.376 1.44774 -0.622745 0
M  V30 1549 C 144.286 2.34433 0.0886031 0
M  V30 1550 C 145.302 1.52131 0.844529 0
M  V30 1551 O 146.478 1.84886 0.798691 0
M  V30 1552 C 143.543 3.29986 1.0635 0
M  V30 1553 C 142.604 4.28195 0.307873 0
M  V30 1554 C 141.837 5.19183 1.23633 0
M  V30 1555 O 142.06 5.13918 2.47476 0
M  V30 1556 O 140.994 5.97515 0.725189 0
M  V30 1557 H 144.82 2.96693 -0.648599 0
M  V30 1558 H 142.405 1.44408 -0.382957 0
M  V30 1559 H 144.287 3.88825 1.6246 0
M  V30 1560 H 142.962 2.70269 1.78146 0
M  V30 1561 H 141.869 3.72927 -0.296064 0
M  V30 1562 H 143.202 4.90808 -0.3699 0
M  V30 1563 N 144.854 0.36279 1.53368 0
M  V30 1564 C 145.817 -0.472679 2.24273 0
M  V30 1565 C 146.817 -1.012 1.24961 0
M  V30 1566 O 148.007 -0.898194 1.49259 0
M  V30 1567 C 145.139 -1.66039 2.97731 0
M  V30 1568 H 146.332 0.14773 2.99536 0
M  V30 1569 H 143.885 0.114434 1.55881 0
M  V30 1570 H 144.62 -2.31896 2.26704 0
M  V30 1571 H 144.405 -1.28066 3.70596 0
M  V30 1572 H 145.895 -2.25252 3.51641 0
M  V30 1573 N 146.332 -1.57332 0.0918853 0
M  V30 1574 C 147.581 -1.93412 -0.572249 0
M  V30 1575 C 147.894 -0.975515 -1.69538 0
M  V30 1576 O 149.1 -1.22991 -2.42045 0
M  V30 1577 C 147.556 -3.43648 -1.0693 0
M  V30 1578 C 147.164 -4.47994 0.0239049 0
M  V30 1579 C 148.908 -3.88695 -1.70635 0
M  V30 1580 C 146.815 -5.89381 -0.488319 0
M  V30 1581 H 145.745 -0.721939 -0.217532 0
M  V30 1582 H 148.396 -1.82735 0.167369 0
M  V30 1583 H 146.778 -3.49466 -1.8625 0
M  V30 1584 H 147.952 -4.53815 0.799277 0
M  V30 1585 H 146.267 -4.12536 0.565946 0
M  V30 1586 H 148.864 -4.91725 -2.10025 0
M  V30 1587 H 149.207 -3.27166 -2.57426 0
M  V30 1588 H 149.74 -3.85564 -0.979023 0
M  V30 1589 H 146.479 -6.54602 0.342906 0
M  V30 1590 H 145.999 -5.87037 -1.23077 0
M  V30 1591 H 147.678 -6.39863 -0.958317 0
M  V30 1592 N 147.81 0.181792 -1.56548 0
M  V30 1593 C 148.758 1.24461 -1.965 0
M  V30 1594 C 149.752 1.464 -0.852261 0
M  V30 1595 O 150.958 1.47103 -1.03733 0
M  V30 1596 H 147.333 0.418138 -0.625031 0
M  V30 1597 H 149.304 0.880714 -2.85107 0
M  V30 1598 C 148.053 2.57891 -2.33212 0
M  V30 1599 H 147.376 2.41829 -3.18369 0
M  V30 1600 H 148.816 3.3097 -2.65019 0
M  V30 1601 C 147.275 3.15871 -1.17163 0
M  V30 1602 O 147.805 3.9913 -0.453708 0
M  V30 1603 N 146.011 2.74808 -0.944936 0
M  V30 1604 H 145.558 2.07205 -1.53049 0
M  V30 1605 H 145.516 3.13939 -0.170286 0
M  V30 1606 N 149.288 1.51039 0.449983 0
M  V30 1607 C 150.513 1.6715 1.22783 0
M  V30 1608 C 150.938 0.363081 1.84563 0
M  V30 1609 O 150.296 -0.675433 1.68249 0
M  V30 1610 C 150.344 2.77985 2.29689 0
M  V30 1611 O 149.448 2.40707 3.34864 0
M  V30 1612 H 148.789 0.557746 0.360299 0
M  V30 1613 H 151.319 1.97535 0.533005 0
M  V30 1614 H 151.329 3.01693 2.74673 0
M  V30 1615 H 150.004 3.72935 1.84098 0
M  V30 1616 H 148.581 2.27523 2.95445 0
M  V30 1617 N 150.766 -0.704594 1.40972 0
M  V30 1618 C 152.014 -1.46169 1.39568 0
M  V30 1619 C 152.335 -1.95 0.00253745 0
M  V30 1620 O 151.605 -1.71095 -0.954114 0
M  V30 1621 H 150.185 -0.542326 0.513704 0
M  V30 1622 H 152.847 -0.834553 1.76128 0
M  V30 1623 H 151.943 -2.32922 2.07735 0
M  V30 1624 N 152.244 -1.26651 -0.937939 0
M  V30 1625 C 153.191 -1.0849 -2.03712 0
M  V30 1626 C 154.161 0.011033 -1.66096 0
M  V30 1627 O 155.346 -0.149353 -1.90215 0
M  V30 1628 C 152.486 -0.72735 -3.37348 0
M  V30 1629 C 151.599 -1.89986 -3.87981 0
M  V30 1630 C 150.734 -1.48513 -5.10017 0
M  V30 1631 C 149.773 -2.62575 -5.5292 0
M  V30 1632 N 148.91 -2.21762 -6.66158 0
M  V30 1633 H 153.75 -2.02551 -2.18579 0
M  V30 1634 H 151.287 -1.00844 -1.07093 0
M  V30 1635 H 153.245 -0.50092 -4.14182 0
M  V30 1636 H 151.875 0.176298 -3.22318 0
M  V30 1637 H 150.927 -2.23913 -3.07518 0
M  V30 1638 H 152.239 -2.75586 -4.15757 0
M  V30 1639 H 151.393 -1.21934 -5.94321 0
M  V30 1640 H 150.132 -0.60009 -4.83994 0
M  V30 1641 H 149.137 -2.8988 -4.67172 0
M  V30 1642 H 150.362 -3.51685 -5.80943 0
M  V30 1643 H 148.308 -1.35696 -6.41812 0
M  V30 1644 H 148.225 -3.00903 -6.93537 0
M  V30 1645 H 149.493 -1.98403 -7.53828 0
M  V30 1646 N 153.722 1.14298 -1.08507 0
M  V30 1647 C 154.968 1.85633 -0.816581 0
M  V30 1648 C 155.301 1.82784 0.656021 0
M  V30 1649 O 154.576 1.25926 1.48233 0
M  V30 1650 C 154.859 3.34223 -1.34041 0
M  V30 1651 C 154.712 3.45639 -2.87843 0
M  V30 1652 C 156.031 4.29356 -0.9665 0
M  V30 1653 H 153.15 0.67402 -0.298104 0
M  V30 1654 H 155.792 1.34214 -1.34487 0
M  V30 1655 H 153.942 3.78144 -0.89104 0
M  V30 1656 H 155.614 3.10498 -3.41158 0
M  V30 1657 H 153.857 2.86817 -3.25451 0
M  V30 1658 H 154.528 4.50089 -3.19569 0
M  V30 1659 H 157.004 3.93457 -1.35391 0
M  V30 1660 H 155.88 5.3178 -1.3602 0
M  V30 1661 H 156.141 4.41919 0.126362 0
M  V30 1662 N 155.201 0.870884 1.31352 0
M  V30 1663 C 156.448 0.482273 1.96673 0
M  V30 1664 C 156.776 -0.965638 1.68836 0
M  V30 1665 O 156.031 -1.69514 0.977937 0
M  V30 1666 C 156.33 0.687157 3.50732 0
M  V30 1667 C 155.996 2.108 3.9859 0
M  V30 1668 C 154.658 2.49656 4.1137 0
M  V30 1669 C 157.01 3.03459 4.23748 0
M  V30 1670 C 154.338 3.80412 4.46659 0
M  V30 1671 C 156.69 4.3373 4.60501 0
M  V30 1672 C 155.354 4.725 4.71487 0
M  V30 1673 H 154.624 0.176476 0.719679 0
M  V30 1674 H 157.271 1.10405 1.56471 0
M  V30 1675 H 155.576 -0.0177476 3.91796 0
M  V30 1676 H 157.273 0.366284 3.99324 0
M  V30 1677 H 153.863 1.79633 3.8914 0
M  V30 1678 H 158.047 2.74665 4.13368 0
M  V30 1679 H 153.303 4.1021 4.53362 0
M  V30 1680 H 157.477 5.05578 4.78919 0
M  V30 1681 H 155.104 5.73859 4.98588 0
M  V30 1682 N 156.679 -1.44442 0.630414 0
M  V30 1683 C 157.626 -2.30678 -0.0749355 0
M  V30 1684 C 158.596 -1.4344 -0.837502 0
M  V30 1685 O 159.781 -1.72343 -0.818684 0
M  V30 1686 C 156.921 -3.28706 -1.05103 0
M  V30 1687 C 156.034 -4.31046 -0.286954 0
M  V30 1688 C 155.169 -5.16167 -1.2548 0
M  V30 1689 C 154.208 -6.10216 -0.479843 0
M  V30 1690 N 153.345 -6.88039 -1.39811 0
M  V30 1691 H 158.185 -2.90454 0.666386 0
M  V30 1692 H 155.722 -1.43107 0.340404 0
M  V30 1693 H 157.68 -3.84027 -1.63031 0
M  V30 1694 H 156.31 -2.70632 -1.75949 0
M  V30 1695 H 155.362 -3.78203 0.408243 0
M  V30 1696 H 156.674 -4.97794 0.316657 0
M  V30 1697 H 155.828 -5.76002 -1.90544 0
M  V30 1698 H 154.567 -4.49491 -1.89233 0
M  V30 1699 H 153.572 -5.49491 0.184295 0
M  V30 1700 H 154.797 -6.78928 0.152965 0
M  V30 1701 H 152.743 -6.24032 -2.02287 0
M  V30 1702 H 152.66 -7.51223 -0.848508 0
M  V30 1703 H 153.928 -7.52397 -2.03762 0
M  V30 1704 N 158.157 -0.370918 -1.53173 0
M  V30 1705 C 159.387 0.217389 -2.05453 0
M  V30 1706 C 159.795 1.42568 -1.24382 0
M  V30 1707 O 159.138 1.81571 -0.278839 0
M  V30 1708 C 159.2 0.669827 -3.53205 0
M  V30 1709 C 158.864 -0.4225 -4.55043 0
M  V30 1710 C 159.861 -1.27407 -5.04047 0
M  V30 1711 C 157.546 -0.58427 -4.9889 0
M  V30 1712 C 159.54 -2.27271 -5.95505 0
M  V30 1713 C 157.227 -1.58627 -5.90153 0
M  V30 1714 C 158.225 -2.42892 -6.38351 0
M  V30 1715 O 157.913 -3.41382 -7.27814 0
M  V30 1716 H 157.645 0.0408171 -0.674767 0
M  V30 1717 H 160.199 -0.5292 -1.98466 0
M  V30 1718 H 158.429 1.4681 -3.57748 0
M  V30 1719 H 160.118 1.18173 -3.88317 0
M  V30 1720 H 160.884 -1.16031 -4.70916 0
M  V30 1721 H 156.763 0.061851 -4.60959 0
M  V30 1722 H 160.307 -2.93079 -6.33049 0
M  V30 1723 H 156.204 -1.70048 -6.22699 0
M  V30 1724 H 156.972 -3.37173 -7.45826 0
M  V30 1725 N 159.635 1.57281 -0.100228 0
M  V30 1726 C 160.881 1.94826 0.563101 0
M  V30 1727 C 161.214 0.982475 1.67514 0
M  V30 1728 O 160.489 0.0164069 1.94493 0
M  V30 1729 C 160.772 3.42453 1.11346 0
M  V30 1730 C 160.625 4.498 0.00612081 0
M  V30 1731 C 161.944 3.91506 2.01024 0
M  V30 1732 H 159.063 0.708428 0.203221 0
M  V30 1733 H 161.705 1.8922 -0.171979 0
M  V30 1734 H 159.855 3.47361 1.7399 0
M  V30 1735 H 161.527 4.57 -0.628357 0
M  V30 1736 H 159.77 4.28756 -0.659581 0
M  V30 1737 H 160.441 5.50306 0.432109 0
M  V30 1738 H 162.917 3.88784 1.48278 0
M  V30 1739 H 161.793 4.95358 2.36457 0
M  V30 1740 H 162.054 3.31099 2.92961 0
M  V30 1741 N 161.113 -0.173488 1.56642 0
M  V30 1742 C 162.341 -0.906095 1.86004 0
M  V30 1743 C 162.756 -1.75921 0.685355 0
M  V30 1744 O 162.113 -1.79198 -0.345578 0
M  V30 1745 C 162.164 -1.78462 3.14378 0
M  V30 1746 O 161.885 -0.965914 4.27319 0
M  V30 1747 C 163.386 -2.62707 3.57071 0
M  V30 1748 H 160.606 -0.263341 0.617165 0
M  V30 1749 H 163.15 -0.174236 2.03756 0
M  V30 1750 H 161.305 -2.46984 2.98459 0
M  V30 1751 H 161.719 -1.56655 5.00559 0
M  V30 1752 H 163.193 -3.19969 4.49804 0
M  V30 1753 H 163.67 -3.37472 2.81086 0
M  V30 1754 H 164.276 -1.99521 3.75595 0
M  V30 1755 N 162.591 -1.51276 -0.441967 0
M  V30 1756 C 163.538 -1.72256 -1.53612 0
M  V30 1757 C 164.508 -0.564164 -1.56225 0
M  V30 1758 O 165.693 -0.798074 -1.73307 0
M  V30 1759 C 162.833 -1.84932 -2.91366 0
M  V30 1760 C 161.946 -3.12459 -2.98317 0
M  V30 1761 C 161.081 -3.15758 -4.27166 0
M  V30 1762 C 160.12 -4.37619 -4.27967 0
M  V30 1763 N 159.257 -4.38493 -5.48333 0
M  V30 1764 H 164.097 -2.65654 -1.35026 0
M  V30 1765 H 161.634 -1.31662 -0.656009 0
M  V30 1766 H 163.592 -1.90263 -3.7129 0
M  V30 1767 H 162.222 -0.949461 -3.08521 0
M  V30 1768 H 161.274 -3.1646 -2.11086 0
M  V30 1769 H 162.586 -4.02382 -2.94771 0
M  V30 1770 H 161.74 -3.19979 -5.15459 0
M  V30 1771 H 160.479 -2.23715 -4.33362 0
M  V30 1772 H 159.484 -4.33579 -3.38067 0
M  V30 1773 H 160.709 -5.30921 -4.23438 0
M  V30 1774 H 158.655 -3.49318 -5.55259 0
M  V30 1775 H 158.572 -5.22219 -5.46647 0
M  V30 1776 H 159.84 -4.469 -6.38671 0
M  V30 1777 N 164.069 0.697108 -1.41344 0
M  V30 1778 C 165.48 1.27697 -1.36199 0
M  V30 1779 C 165.831 1.9615 -0.0443463 0
M  V30 1780 O 164.956 1.98689 0.857419 0
M  V30 1781 C 165.551 2.32223 -2.46694 0
M  V30 1782 C 164.11 2.8579 -2.44952 0
M  V30 1783 C 163.257 1.59807 -2.26621 0
M  V30 1784 H 166.208 0.491968 -1.50882 0
M  V30 1785 H 166.229 3.1348 -2.15664 0
M  V30 1786 H 165.741 1.82373 -3.42581 0
M  V30 1787 H 163.842 3.3982 -1.52817 0
M  V30 1788 H 163.955 3.36325 -3.41207 0
M  V30 1789 H 162.319 1.8556 -1.7447 0
M  V30 1790 H 163.102 1.11956 -3.24532 0
M  V30 1791 N 165.547 1.27147 0.931209 0
M  V30 1792 C 166.793 1.14455 1.68141 0
M  V30 1793 C 167.148 -0.307172 1.89932 0
M  V30 1794 O 166.441 -1.22158 1.47607 0
M  V30 1795 C 166.635 1.8579 3.05314 0
M  V30 1796 C 166.464 3.3775 2.96909 0
M  V30 1797 C 165.234 4.07062 2.99381 0
M  V30 1798 C 167.432 4.33783 2.76291 0
M  V30 1799 N 165.414 5.45618 2.8138 0
M  V30 1800 C 166.785 5.59582 2.6696 0
M  V30 1801 C 168.84 4.23915 2.61152 0
M  V30 1802 C 167.543 6.76639 2.44033 0
M  V30 1803 C 169.569 5.40689 2.39602 0
M  V30 1804 C 168.931 6.65443 2.3101 0
M  V30 1805 H 165.03 0.473667 0.622225 0
M  V30 1806 H 167.614 1.60568 1.10118 0
M  V30 1807 H 165.785 1.42138 3.61457 0
M  V30 1808 H 167.517 1.65634 3.69253 0
M  V30 1809 H 164.272 3.585 3.09475 0
M  V30 1810 H 164.696 6.184 2.75519 0
M  V30 1811 H 169.338 3.28189 2.66555 0
M  V30 1812 H 167.056 7.72451 2.3737 0
M  V30 1813 H 170.642 5.34932 2.28778 0
M  V30 1814 H 169.522 7.54277 2.14558 0
M  V30 1815 N 167.025 -1.13721 1.09112 0
M  V30 1816 C 167.972 -2.19031 0.727591 0
M  V30 1817 C 168.942 -1.63555 -0.289656 0
M  V30 1818 O 170.127 -1.90023 -0.172026 0
M  V30 1819 C 167.267 -3.4477 0.15082 0
M  V30 1820 C 166.38 -4.14365 1.22172 0
M  V30 1821 C 165.515 -5.27709 0.608042 0
M  V30 1822 C 164.554 -5.89147 1.66047 0
M  V30 1823 N 163.691 -6.93929 1.06806 0
M  V30 1824 H 168.531 -2.49475 1.62991 0
M  V30 1825 H 166.068 -1.22499 0.81439 0
M  V30 1826 H 168.026 -4.16714 -0.201358 0
M  V30 1827 H 166.656 -3.14787 -0.714783 0
M  V30 1828 H 165.708 -3.40737 1.69122 0
M  V30 1829 H 167.02 -4.56114 2.01895 0
M  V30 1830 H 166.174 -6.06355 0.204523 0
M  V30 1831 H 164.913 -4.872 -0.220769 0
M  V30 1832 H 163.918 -5.09198 2.07357 0
M  V30 1833 H 165.143 -6.31729 2.49189 0
M  V30 1834 H 163.089 -6.55483 0.260476 0
M  V30 1835 H 163.006 -7.34202 1.8023 0
M  V30 1836 H 164.274 -7.76434 0.690644 0
M  V30 1837 N 168.503 -0.877838 -1.30888 0
M  V30 1838 C 169.728 -0.506629 -2.01117 0
M  V30 1839 C 170.153 0.895564 -1.65412 0
M  V30 1840 O 169.511 1.5923 -0.866922 0
M  V30 1841 C 169.559 -0.680223 -3.54126 0
M  V30 1842 O 168.663 0.277033 -4.11468 0
M  V30 1843 H 168.004 -0.200518 -0.633 0
M  V30 1844 H 170.534 -1.18342 -1.66902 0
M  V30 1845 H 170.544 -0.5765 -4.03907 0
M  V30 1846 H 169.219 -1.70261 -3.79452 0
M  V30 1847 H 167.796 0.127606 -3.72682 0
M  V30 1848 N 169.982 1.44106 -0.638065 0
M  V30 1849 C 171.259 1.95453 -0.0759321 0
M  V30 1850 C 171.639 1.57984 1.40015 0
M  V30 1851 O 170.987 0.857361 2.11806 0
M  V30 1852 C 171.197 3.47655 -0.306132 0
M  V30 1853 C 172.545 4.24114 -0.203008 0
M  V30 1854 O 173.569 3.55405 -0.237871 0
M  V30 1855 O 172.428 5.46381 -0.113827 0
M  V30 1856 H 169.522 0.826797 0.0183332 0
M  V30 1857 H 172.068 1.54122 -0.710251 0
M  V30 1858 H 170.84 3.68 -1.3301 0
M  V30 1859 H 170.463 3.95949 0.361991 0
M  V30 1860 N 171.46 0.379036 1.52974 0
M  V30 1861 C 172.37 -0.468639 2.29872 0
M  V30 1862 C 173.386 -1.08067 1.36373 0
M  V30 1863 O 174.562 -1.08871 1.69438 0
M  V30 1864 C 171.627 -1.58594 3.083 0
M  V30 1865 C 170.688 -1.00007 4.17489 0
M  V30 1866 C 169.921 -2.06413 4.92168 0
M  V30 1867 O 170.144 -3.27751 4.66835 0
M  V30 1868 O 169.078 -1.68717 5.7777 0
M  V30 1869 H 172.904 0.157508 3.03291 0
M  V30 1870 H 170.489 0.143035 1.48714 0
M  V30 1871 H 172.371 -2.23525 3.57232 0
M  V30 1872 H 171.046 -2.19724 2.37703 0
M  V30 1873 H 169.953 -0.314299 3.72777 0
M  V30 1874 H 171.286 -0.433135 4.90291 0
M  V30 1875 N 172.938 -1.57226 0.108567 0
M  V30 1876 C 173.868 -2.17778 -0.84232 0
M  V30 1877 C 174.849 -1.11487 -1.2847 0
M  V30 1878 O 176.034 -1.39681 -1.34918 0
M  V30 1879 C 173.164 -2.76888 -2.09644 0
M  V30 1880 C 172.118 -3.88669 -1.79221 0
M  V30 1881 C 171.444 -4.34541 -3.11574 0
M  V30 1882 C 172.744 -5.11251 -1.06864 0
M  V30 1883 H 174.438 -2.97489 -0.337774 0
M  V30 1884 H 171.984 -1.43097 -0.161025 0
M  V30 1885 H 173.937 -3.17904 -2.76614 0
M  V30 1886 H 172.661 -1.94451 -2.62405 0
M  V30 1887 H 171.32 -3.48213 -1.14644 0
M  V30 1888 H 170.968 -3.48977 -3.62249 0
M  V30 1889 H 170.668 -5.09914 -2.91996 0
M  V30 1890 H 172.192 -4.782 -3.7968 0
M  V30 1891 H 173.606 -5.49352 -1.63968 0
M  V30 1892 H 172.003 -5.9214 -0.974178 0
M  V30 1893 H 173.073 -4.8487 -0.0536168 0
M  V30 1894 N 174.416 0.165178 -1.56732 0
M  V30 1895 C 175.363 1.2044 -1.96883 0
M  V30 1896 C 176.333 1.43664 -0.833657 0
M  V30 1897 O 177.518 1.56302 -1.09427 0
M  V30 1898 C 174.658 2.53727 -2.33916 0
M  V30 1899 C 173.771 2.3783 -3.6064 0
M  V30 1900 C 172.906 3.64026 -3.86857 0
M  V30 1901 C 171.945 3.43088 -5.06909 0
M  V30 1902 N 171.082 4.61369 -5.29229 0
M  V30 1903 H 175.922 0.854996 -2.85471 0
M  V30 1904 H 173.459 0.41076 -1.41249 0
M  V30 1905 H 175.417 3.31419 -2.53411 0
M  V30 1906 H 174.047 2.8665 -1.48431 0
M  V30 1907 H 173.099 1.51282 -3.49024 0
M  V30 1908 H 174.411 2.18308 -4.4849 0
M  V30 1909 H 173.565 4.50152 -4.06753 0
M  V30 1910 H 172.304 3.86533 -2.97394 0
M  V30 1911 H 171.309 2.55349 -4.86906 0
M  V30 1912 H 172.534 3.21997 -5.97909 0
M  V30 1913 H 170.48 4.84084 -4.42718 0
M  V30 1914 H 170.397 4.44783 -6.11313 0
M  V30 1915 H 171.665 5.48761 -5.53608 0
M  V30 1916 N 175.894 1.51508 0.433938 0
M  V30 1917 C 176.857 1.72473 1.50949 0
M  V30 1918 C 177.857 0.594725 1.49398 0
M  V30 1919 O 179.047 0.862315 1.5136 0
M  V30 1920 C 176.179 1.78431 2.90474 0
M  V30 1921 H 177.372 2.68467 1.33662 0
M  V30 1922 H 174.925 1.41549 0.662836 0
M  V30 1923 H 175.66 0.842645 3.13161 0
M  V30 1924 H 175.445 2.60558 2.93005 0
M  V30 1925 H 176.935 1.96479 3.68491 0
M  V30 1926 N 177.372 -0.689602 1.41712 0
M  V30 1927 C 178.621 -1.44534 1.40686 0
M  V30 1928 C 178.934 -1.95588 0.0213352 0
M  V30 1929 O 180.14 -2.71271 -0.111534 0
M  V30 1930 C 178.596 -2.61387 2.47396 0
M  V30 1931 C 178.204 -2.17094 3.91885 0
M  V30 1932 C 179.948 -3.38986 2.55517 0
M  V30 1933 C 177.855 -3.3094 4.90135 0
M  V30 1934 H 176.785 -0.542925 0.52321 0
M  V30 1935 H 179.436 -0.748054 1.6756 0
M  V30 1936 H 177.818 -3.33412 2.13664 0
M  V30 1937 H 178.992 -1.52318 4.34897 0
M  V30 1938 H 177.307 -1.52473 3.8748 0
M  V30 1939 H 179.904 -4.23747 3.26102 0
M  V30 1940 H 180.247 -3.84578 1.59391 0
M  V30 1941 H 180.78 -2.74021 2.8837 0
M  V30 1942 H 177.519 -2.90355 5.87685 0
M  V30 1943 H 177.039 -3.94546 4.51767 0
M  V30 1944 H 178.718 -3.9663 5.11169 0
M  V30 1945 N 178.85 -1.27639 -0.924453 0
M  V30 1946 C 180.096 -1.14336 -1.67497 0
M  V30 1947 C 180.429 0.309465 -1.91718 0
M  V30 1948 O 179.704 1.22608 -1.50989 0
M  V30 1949 C 179.987 -1.93096 -3.0395 0
M  V30 1950 C 179.84 -3.46381 -2.8695 0
M  V30 1951 C 181.159 -1.73798 -4.0433 0
M  V30 1952 H 178.278 -0.416728 -0.607871 0
M  V30 1953 H 180.92 -1.56832 -1.07256 0
M  V30 1954 H 179.07 -1.56982 -3.55372 0
M  V30 1955 H 180.742 -3.92343 -2.42621 0
M  V30 1956 H 178.985 -3.72557 -2.22225 0
M  V30 1957 H 179.656 -3.96735 -3.83804 0
M  V30 1958 H 182.132 -2.05293 -3.61931 0
M  V30 1959 H 181.008 -2.31294 -4.97789 0
M  V30 1960 H 181.269 -0.686725 -4.36734 0
M  V30 1961 N 180.328 1.1314 -1.09713 0
M  V30 1962 C 181.26 2.18343 -0.697056 0
M  V30 1963 C 182.273 1.60669 0.262551 0
M  V30 1964 O 183.462 1.78435 0.0481527 0
M  V30 1965 C 180.562 3.38899 -0.00684728 0
M  V30 1966 C 179.735 4.26078 -0.988741 0
M  V30 1967 C 178.794 5.25155 -0.331394 0
M  V30 1968 O 177.82 5.60701 -0.979926 0
M  V30 1969 N 179.022 5.73271 0.913261 0
M  V30 1970 H 181.787 2.5328 -1.60216 0
M  V30 1971 H 179.348 1.28491 -0.984971 0
M  V30 1972 H 181.34 4.02255 0.444191 0
M  V30 1973 H 179.91 3.02175 0.800551 0
M  V30 1974 H 179.13 3.59453 -1.61826 0
M  V30 1975 H 180.418 4.81178 -1.65364 0
M  V30 1976 H 179.816 5.46544 1.45966 0
M  V30 1977 H 178.373 6.3855 1.30757 0
M  V30 1978 N 181.806 0.884767 1.30421 0
M  V30 1979 C 182.738 0.308655 2.27112 0
M  V30 1980 C 183.751 -0.536655 1.53701 0
M  V30 1981 O 184.94 -0.35624 1.74909 0
M  V30 1982 C 182.04 -0.579782 3.33904 0
M  V30 1983 C 181.213 0.236417 4.36761 0
M  V30 1984 C 180.272 -0.582482 5.22966 0
M  V30 1985 O 179.298 -0.00525502 5.692 0
M  V30 1986 N 180.5 -1.89163 5.48815 0
M  V30 1987 H 183.265 1.13964 2.77186 0
M  V30 1988 H 180.826 0.747731 1.43599 0
M  V30 1989 H 182.818 -1.13366 3.88497 0
M  V30 1990 H 181.388 -1.31144 2.83761 0
M  V30 1991 H 180.608 0.97174 3.82035 0
M  V30 1992 H 181.896 0.795924 5.02536 0
M  V30 1993 H 181.294 -2.38352 5.13035 0
M  V30 1994 H 179.851 -2.39296 6.06284 0
M  V30 1995 N 183.284 -1.43765 0.645699 0
M  V30 1996 C 184.532 -2.01499 0.155731 0
M  V30 1997 C 184.853 -1.51151 -1.232 0
M  V30 1998 O 184.123 -0.721044 -1.82148 0
M  V30 1999 H 182.703 -0.745003 0.0545817 0
M  V30 2000 H 185.365 -1.76075 0.835677 0
M  V30 2001 H 184.461 -3.1181 0.134577 0
M  V30 2002 N 184.763 -0.387143 -1.52771 0
M  V30 2003 C 185.693 0.440551 -2.29306 0
M  V30 2004 C 186.674 1.06535 -1.32606 0
M  V30 2005 O 187.859 1.07853 -1.61497 0
M  V30 2006 C 184.989 1.56919 -3.09829 0
M  V30 2007 C 183.943 1.07054 -4.14395 0
M  V30 2008 C 183.269 2.29109 -4.83129 0
M  V30 2009 C 184.569 0.140015 -5.22112 0
M  V30 2010 H 186.263 -0.198026 -2.98744 0
M  V30 2011 H 183.809 -0.09668 -1.43675 0
M  V30 2012 H 185.762 2.15503 -3.62128 0
M  V30 2013 H 184.486 2.23532 -2.3812 0
M  V30 2014 H 183.145 0.507247 -3.63074 0
M  V30 2015 H 182.793 2.94227 -4.0797 0
M  V30 2016 H 182.493 1.96406 -5.53804 0
M  V30 2017 H 184.017 2.88339 -5.38231 0
M  V30 2018 H 185.431 0.633978 -5.69784 0
M  V30 2019 H 183.828 -0.0971485 -6.00021 0
M  V30 2020 H 184.898 -0.811711 -4.78058 0
M  V30 2021 N 186.241 1.57166 -0.116904 0
M  V30 2022 C 187.151 2.18745 0.847812 0
M  V30 2023 C 188.167 1.163 1.29423 0
M  V30 2024 O 189.343 1.48761 1.35765 0
M  V30 2025 C 186.408 2.77307 2.0809 0
M  V30 2026 C 185.469 3.94781 1.68661 0
M  V30 2027 C 184.702 4.50541 2.86091 0
M  V30 2028 O 184.925 4.05202 4.01456 0
M  V30 2029 O 183.859 5.41256 2.63298 0
M  V30 2030 H 187.685 3.01632 0.353778 0
M  V30 2031 H 185.27 1.49005 0.108599 0
M  V30 2032 H 187.152 3.14647 2.80313 0
M  V30 2033 H 185.827 1.97452 2.56504 0
M  V30 2034 H 184.734 3.62214 0.935518 0
M  V30 2035 H 186.067 4.76065 1.24991 0
M  V30 2036 N 187.719 -0.156864 1.56817 0
M  V30 2037 C 188.947 -0.886316 1.86955 0
M  V30 2038 C 189.362 -1.75185 0.703975 0
M  V30 2039 O 188.719 -1.79555 -0.326552 0
M  V30 2040 C 188.77 -1.75117 3.16253 0
M  V30 2041 O 188.491 -0.920537 4.2832 0
M  V30 2042 C 189.992 -2.58905 3.59837 0
M  V30 2043 H 187.212 -0.25678 0.619923 0
M  V30 2044 H 189.756 -0.152615 2.0393 0
M  V30 2045 H 187.911 -2.43805 3.01062 0
M  V30 2046 H 188.325 -1.51337 5.02192 0
M  V30 2047 H 189.799 -3.1518 4.53172 0
M  V30 2048 H 190.276 -3.34472 2.84649 0
M  V30 2049 H 190.882 -1.95526 3.7769 0
M  V30 2050 N 189.197 -1.51736 -0.425897 0
M  V30 2051 C 190.147 -1.70258 -1.51645 0
M  V30 2052 C 191.131 -0.556488 -1.5097 0
M  V30 2053 O 192.323 -0.812879 -1.5723 0
M  V30 2054 C 189.452 -1.84143 -2.89735 0
M  V30 2055 C 188.538 -3.04572 -2.95122 0
M  V30 2056 N 188.929 -4.2756 -2.70233 0
M  V30 2057 C 187.227 -3.04061 -3.26286 0
M  V30 2058 C 187.928 -5.08908 -2.81757 0
M  V30 2059 N 186.904 -4.43797 -3.13919 0
M  V30 2060 H 190.706 -2.63004 -1.31172 0
M  V30 2061 H 188.22 -1.4954 -0.633375 0
M  V30 2062 H 190.217 -1.95525 -3.68206 0
M  V30 2063 H 188.877 -0.925857 -3.1122 0
M  V30 2064 H 189.888 -4.56315 -2.44943 0
M  V30 2065 H 186.565 -2.22179 -3.53473 0
M  V30 2066 H 187.955 -6.16843 -2.66372 0
M  V30 2067 N 190.675 0.682077 -1.42076 0
M  V30 2068 C 191.623 1.81707 -1.45208 0
M  V30 2069 C 192.617 1.66183 -0.328591 0
M  V30 2070 O 193.823 1.7288 -0.501264 0
M  V30 2071 H 190.198 0.599014 -0.454628 0
M  V30 2072 H 192.169 1.76183 -2.40836 0
M  V30 2073 C 190.918 3.19816 -1.36428 0
M  V30 2074 H 190.241 3.32385 -2.22171 0
M  V30 2075 H 191.681 3.99272 -1.42681 0
M  V30 2076 C 190.14 3.36809 -0.078191 0
M  V30 2077 O 190.67 3.92124 0.87188 0
M  V30 2078 N 188.876 2.906 0.00229266 0
M  V30 2079 H 188.423 2.45772 -0.771616 0
M  V30 2080 H 188.381 3.02347 0.862179 0
M  V30 2081 N 192.153 1.28127 0.917671 0
M  V30 2082 C 193.399 1.15223 1.66888 0
M  V30 2083 C 193.732 -0.299293 1.9188 0
M  V30 2084 O 193.007 -1.21805 1.51637 0
M  V30 2085 C 193.29 1.94706 3.02922 0
M  V30 2086 C 193.143 3.47898 2.85109 0
M  V30 2087 C 194.462 1.75939 4.03402 0
M  V30 2088 H 191.581 0.419946 0.605652 0
M  V30 2089 H 194.223 1.57398 1.06423 0
M  V30 2090 H 192.373 1.58864 3.54534 0
M  V30 2091 H 194.045 3.93624 2.40537 0
M  V30 2092 H 192.288 3.7373 2.20246 0
M  V30 2093 H 192.959 3.98765 3.81694 0
M  V30 2094 H 195.435 2.07209 3.60837 0
M  V30 2095 H 194.311 2.33931 4.96556 0
M  V30 2096 H 194.572 0.709877 4.36364 0
M  V30 2097 N 193.631 -1.12557 1.10312 0
M  V30 2098 C 194.561 -2.20341 0.772798 0
M  V30 2099 C 195.542 -1.68198 -0.25365 0
M  V30 2100 O 196.727 -1.93831 -0.119699 0
M  V30 2101 C 193.857 -3.46709 0.202443 0
M  V30 2102 C 192.811 -4.11996 1.15943 0
M  V30 2103 C 192.137 -5.328 0.450345 0
M  V30 2104 C 193.437 -4.5828 2.50552 0
M  V30 2105 H 195.131 -2.48229 1.674 0
M  V30 2106 H 192.677 -1.19308 0.806326 0
M  V30 2107 H 194.63 -4.2138 -0.0407752 0
M  V30 2108 H 193.354 -3.18245 -0.734001 0
M  V30 2109 H 192.013 -3.39305 1.38808 0
M  V30 2110 H 191.661 -5.00602 -0.490531 0
M  V30 2111 H 191.361 -5.7743 1.08851 0
M  V30 2112 H 192.885 -6.10219 0.215642 0
M  V30 2113 H 194.299 -5.2433 2.31843 0
M  V30 2114 H 192.696 -5.13683 3.10242 0
M  V30 2115 H 193.766 -3.72329 3.10643 0
M  V30 2116 N 195.109 -0.891671 -1.2995 0
M  V30 2117 C 196.056 -0.361736 -2.27948 0
M  V30 2118 C 197.026 0.551761 -1.56668 0
M  V30 2119 O 198.211 0.478736 -1.84696 0
M  V30 2120 C 195.351 0.411825 -3.42634 0
M  V30 2121 C 194.464 -0.531651 -4.28716 0
M  V30 2122 C 193.599 0.258167 -5.30572 0
M  V30 2123 C 192.638 -0.680349 -6.08307 0
M  V30 2124 N 191.775 0.0745613 -7.0206 0
M  V30 2125 H 196.615 -1.20254 -2.72659 0
M  V30 2126 H 194.152 -0.604352 -1.34112 0
M  V30 2127 H 196.11 0.876304 -4.07893 0
M  V30 2128 H 194.74 1.21715 -2.98974 0
M  V30 2129 H 193.792 -1.11463 -3.63703 0
M  V30 2130 H 195.104 -1.25038 -4.82874 0
M  V30 2131 H 194.258 0.784204 -6.0161 0
M  V30 2132 H 192.997 1.01008 -4.77126 0
M  V30 2133 H 192.002 -1.21796 -5.3614 0
M  V30 2134 H 193.227 -1.43145 -6.63842 0
M  V30 2135 H 191.173 0.808883 -6.50994 0
M  V30 2136 H 191.09 -0.584409 -7.53738 0
M  V30 2137 H 192.358 0.581123 -7.77331 0
M  V30 2138 N 196.587 1.43421 -0.653314 0
M  V30 2139 C 197.812 2.06678 -0.172846 0
M  V30 2140 C 198.237 1.48648 1.15262 0
M  V30 2141 O 197.595 0.596457 1.71208 0
M  V30 2142 C 197.643 3.60474 -0.0953184 0
M  V30 2143 O 196.747 4.01487 0.942442 0
M  V30 2144 H 196.088 0.657181 -0.0949155 0
M  V30 2145 H 198.618 1.83925 -0.896265 0
M  V30 2146 H 198.628 4.07905 0.0879728 0
M  V30 2147 H 197.303 4.02088 -1.06291 0
M  V30 2148 H 195.88 3.65646 0.731932 0
M  V30 2149 N 198.065 0.39524 1.52563 0
M  V30 2150 C 199.481 0.0454682 1.59535 0
M  V30 2151 C 199.681 -1.44056 1.4089 0
M  V30 2152 O 198.737 -2.20579 1.22888 0
M  V30 2153 C 200.05 0.527963 2.96029 0
M  V30 2154 C 201.598 0.484733 3.09224 0
M  V30 2155 C 202.073 0.943512 4.48176 0
M  V30 2156 N 203.564 0.899765 4.54377 0
M  V30 2157 C 204.299 1.22609 5.60138 0
M  V30 2158 N 203.795 1.62319 6.73516 0
M  V30 2159 N 205.588 1.14696 5.50274 0
M  V30 2160 H 197.739 1.36261 1.62931 0
M  V30 2161 H 200.002 0.558887 0.765735 0
M  V30 2162 H 199.708 1.56607 3.14908 0
M  V30 2163 H 199.582 -0.0698056 3.77135 0
M  V30 2164 H 201.969 -0.544298 2.90037 0
M  V30 2165 H 202.05 1.11838 2.30056 0
M  V30 2166 H 201.694 1.9708 4.68104 0
M  V30 2167 H 201.624 0.286817 5.25818 0
M  V30 2168 H 204.115 0.607632 3.72983 0
M  V30 2169 H 204.428 1.85567 7.5019 0
M  V30 2170 H 202.773 1.66211 6.74833 0
M  V30 2171 H 205.964 0.835701 4.6058 0
M  V30 2172 H 206.137 1.40459 6.32594 0
M  V30 2173 N 199.544 -1.57102 0.125237 0
M  V30 2174 C 200.772 -1.99761 -0.538797 0
M  V30 2175 C 201.187 -1.00503 -1.59827 0
M  V30 2176 O 200.544 0.00119474 -1.825 0
M  V30 2177 C 200.595 -3.42408 -1.15927 0
M  V30 2178 O 200.316 -4.37869 -0.142143 0
M  V30 2179 C 201.817 -4.00232 -1.90602 0
M  V30 2180 H 199.037 -0.655772 -0.14214 0
M  V30 2181 H 201.581 -2.03383 0.213413 0
M  V30 2182 H 199.736 -3.39706 -1.86223 0
M  V30 2183 H 200.15 -5.21128 -0.593775 0
M  V30 2184 H 201.624 -5.02105 -2.29335 0
M  V30 2185 H 202.101 -3.39721 -2.78363 0
M  V30 2186 H 202.707 -4.06499 -1.25055 0
M  V30 2187 N 201.022 0.148545 -1.56898 0
M  V30 2188 C 201.932 1.20293 -2.01412 0
M  V30 2189 C 202.948 1.47107 -0.929273 0
M  V30 2190 O 204.124 1.58807 -1.23863 0
M  V30 2191 C 201.189 2.51682 -2.38447 0
M  V30 2192 C 200.25 2.32529 -3.60872 0
M  V30 2193 C 199.483 3.57653 -3.96132 0
M  V30 2194 O 199.706 4.63771 -3.32073 0
M  V30 2195 O 198.64 3.50408 -4.89385 0
M  V30 2196 H 202.466 0.855025 -2.91416 0
M  V30 2197 H 200.051 0.357151 -1.45068 0
M  V30 2198 H 201.933 3.29147 -2.63135 0
M  V30 2199 H 200.608 2.86006 -1.51599 0
M  V30 2200 H 199.515 1.53019 -3.41373 0
M  V30 2201 H 200.848 2.03121 -4.48333 0
M  V30 2202 N 202.5 1.5196 0.417844 0
M  V30 2203 C 203.41 1.77554 1.53336 0
M  V30 2204 C 204.426 0.660655 1.6097 0
M  V30 2205 O 205.602 0.945099 1.77848 0
M  V30 2206 C 202.667 1.91291 2.89152 0
M  V30 2207 C 201.728 3.15183 2.91475 0
M  V30 2208 C 200.961 3.28256 4.20813 0
M  V30 2209 O 201.184 2.46798 5.14244 0
M  V30 2210 O 200.118 4.21356 4.29817 0
M  V30 2211 H 203.944 2.7222 1.34647 0
M  V30 2212 H 201.529 1.36698 0.602828 0
M  V30 2213 H 203.411 2.02199 3.69721 0
M  V30 2214 H 202.086 0.998129 3.07927 0
M  V30 2215 H 200.993 3.09739 2.09791 0
M  V30 2216 H 202.326 4.06414 2.77648 0
M  V30 2217 N 203.978 -0.674533 1.42435 0
M  V30 2218 C 204.908 -1.80009 1.48724 0
M  V30 2219 C 205.889 -1.6659 0.343793 0
M  V30 2220 O 207.074 -1.86007 0.558137 0
M  V30 2221 C 204.204 -3.18306 1.38919 0
M  V30 2222 C 203.158 -3.46461 2.51294 0
M  V30 2223 C 202.484 -4.84335 2.26547 0
M  V30 2224 C 203.784 -3.43328 3.93603 0
M  V30 2225 H 205.478 -1.75004 2.42928 0
M  V30 2226 H 203.024 -0.840533 1.16923 0
M  V30 2227 H 204.977 -3.9678 1.41927 0
M  V30 2228 H 203.701 -3.2399 0.412094 0
M  V30 2229 H 202.36 -2.70348 2.47604 0
M  V30 2230 H 202.008 -4.86669 1.2713 0
M  V30 2231 H 201.708 -5.04136 3.01861 0
M  V30 2232 H 203.232 -5.65094 2.31304 0
M  V30 2233 H 204.646 -4.11772 3.98894 0
M  V30 2234 H 203.043 -3.74664 4.68771 0
M  V30 2235 H 204.113 -2.41897 4.20255 0
M  V30 2236 N 205.456 -1.28612 -0.910864 0
M  V30 2237 C 206.872 -1.06381 -1.18976 0
M  V30 2238 C 207.072 0.191998 -2.00583 0
M  V30 2239 O 206.128 0.892869 -2.36187 0
M  V30 2240 C 207.441 -2.31295 -1.92154 0
M  V30 2241 C 208.989 -2.36503 -2.05025 0
M  V30 2242 C 209.464 -3.61191 -2.81612 0
M  V30 2243 N 210.955 -3.61847 -2.89172 0
M  V30 2244 C 211.69 -4.55004 -3.4894 0
M  V30 2245 N 211.186 -5.58482 -4.09963 0
M  V30 2246 N 212.979 -4.42594 -3.46506 0
M  V30 2247 H 205.13 -2.09221 -0.366094 0
M  V30 2248 H 207.393 -0.921003 -0.224629 0
M  V30 2249 H 207.099 -3.228 -1.39618 0
M  V30 2250 H 206.973 -2.37934 -2.9269 0
M  V30 2251 H 209.36 -1.45494 -2.5674 0
M  V30 2252 H 209.441 -2.33857 -1.03657 0
M  V30 2253 H 209.085 -4.52545 -2.30576 0
M  V30 2254 H 209.015 -3.61092 -3.83302 0
M  V30 2255 H 211.506 -2.87022 -2.45819 0
M  V30 2256 H 211.819 -6.25704 -4.53557 0
M  V30 2257 H 210.164 -5.62305 -4.08459 0
M  V30 2258 H 213.355 -3.60953 -2.98045 0
M  V30 2259 H 213.528 -5.15381 -3.92793 0
M  V30 2260 N 206.934 1.1197 -1.10907 0
M  V30 2261 C 207.864 2.19928 -0.784473 0
M  V30 2262 C 208.845 1.6833 0.244726 0
M  V30 2263 O 210.03 1.93892 0.109418 0
M  V30 2264 C 207.16 3.46597 -0.220827 0
M  V30 2265 C 206.114 4.11376 -1.18127 0
M  V30 2266 C 205.44 5.32554 -0.478594 0
M  V30 2267 C 206.74 4.56945 -2.52979 0
M  V30 2268 H 208.434 2.47337 -1.68715 0
M  V30 2269 H 205.98 1.18879 -0.812642 0
M  V30 2270 H 207.933 4.21396 0.0184278 0
M  V30 2271 H 206.657 3.1863 0.717113 0
M  V30 2272 H 205.316 3.38564 -1.40606 0
M  V30 2273 H 204.964 5.00856 0.463976 0
M  V30 2274 H 204.664 5.76844 -1.11912 0
M  V30 2275 H 206.188 6.10096 -0.248 0
M  V30 2276 H 207.602 5.23093 -2.3462 0
M  V30 2277 H 205.999 5.1203 -3.12962 0
M  V30 2278 H 207.069 3.70676 -3.12614 0
M  V30 2279 N 208.412 0.89855 1.29475 0
M  V30 2280 C 209.375 0.380272 2.26023 0
M  V30 2281 C 210.375 -0.484891 1.53315 0
M  V30 2282 O 211.565 -0.290108 1.71767 0
M  V30 2283 C 208.697 -0.45651 3.3783 0
M  V30 2284 H 209.89 1.23295 2.73383 0
M  V30 2285 H 207.443 0.676589 1.40897 0
M  V30 2286 H 208.178 -1.32922 2.95808 0
M  V30 2287 H 207.963 0.163393 3.91759 0
M  V30 2288 H 209.453 -0.810466 4.0966 0
M  V30 2289 N 209.89 -1.43072 0.660911 0
M  V30 2290 C 210.822 -2.29108 -0.0647641 0
M  V30 2291 C 211.835 -1.42928 -0.779448 0
M  V30 2292 O 213.024 -1.66788 -0.635921 0
M  V30 2293 C 210.124 -3.20032 -1.11503 0
M  V30 2294 C 209.297 -4.34792 -0.476955 0
M  V30 2295 C 208.356 -5.06534 -1.42513 0
M  V30 2296 O 207.382 -5.61538 -0.930771 0
M  V30 2297 N 208.584 -5.1075 -2.75889 0
M  V30 2298 H 211.349 -2.92029 0.673731 0
M  V30 2299 H 208.91 -1.53846 0.50427 0
M  V30 2300 H 210.902 -3.64892 -1.75032 0
M  V30 2301 H 209.472 -2.58658 -1.75541 0
M  V30 2302 H 208.692 -3.92752 0.337572 0
M  V30 2303 H 209.98 -5.0879 -0.0318525 0
M  V30 2304 H 209.378 -4.67447 -3.18606 0
M  V30 2305 H 207.935 -5.59302 -3.347 0
M  V30 2306 N 211.368 -0.403325 -1.52352 0
M  V30 2307 C 212.315 0.425011 -2.26853 0
M  V30 2308 C 213.285 1.04598 -1.29029 0
M  V30 2309 O 214.47 1.07135 -1.57882 0
M  V30 2310 C 211.61 1.53888 -3.08889 0
M  V30 2311 C 210.723 0.939396 -4.21663 0
M  V30 2312 C 209.858 2.02547 -4.91068 0
M  V30 2313 C 208.897 1.40263 -5.95813 0
M  V30 2314 N 208.034 2.4286 -6.58759 0
M  V30 2315 H 212.874 -0.21674 -2.97211 0
M  V30 2316 H 210.411 -0.118722 -1.4662 0
M  V30 2317 H 212.369 2.19558 -3.54753 0
M  V30 2318 H 210.999 2.15074 -2.40714 0
M  V30 2319 H 210.051 0.171898 -3.80011 0
M  V30 2320 H 211.363 0.44436 -4.96817 0
M  V30 2321 H 210.517 2.75958 -5.40308 0
M  V30 2322 H 209.256 2.55415 -4.15469 0
M  V30 2323 H 208.261 0.653833 -5.45898 0
M  V30 2324 H 209.486 0.881719 -6.73352 0
M  V30 2325 H 207.432 2.94871 -5.85992 0
M  V30 2326 H 207.349 1.98152 -7.2957 0
M  V30 2327 H 208.617 3.15858 -7.12639 0
M  V30 2328 N 212.846 1.57033 -0.133567 0
M  V30 2329 C 213.778 2.13176 0.841944 0
M  V30 2330 C 214.791 1.07794 1.22001 0
M  V30 2331 O 215.98 1.35117 1.16643 0
M  V30 2332 C 213.08 2.62847 2.13926 0
M  V30 2333 C 212.253 3.92486 1.93064 0
M  V30 2334 C 211.312 4.27605 3.0666 0
M  V30 2335 O 210.338 4.96168 2.78937 0
M  V30 2336 N 211.54 3.861 4.33483 0
M  V30 2337 H 214.305 2.97503 0.362192 0
M  V30 2338 H 211.866 1.61821 0.05042 0
M  V30 2339 H 213.858 2.83363 2.88942 0
M  V30 2340 H 212.428 1.83319 2.53205 0
M  V30 2341 H 211.648 3.80732 1.02159 0
M  V30 2342 H 212.936 4.77225 1.76447 0
M  V30 2343 H 212.334 3.30828 4.58878 0
M  V30 2344 H 210.891 4.11694 5.05323 0
M  V30 2345 N 214.325 -0.140222 1.56975 0
M  V30 2346 C 215.235 -1.19223 2.02047 0
M  V30 2347 C 216.251 -1.46612 0.937062 0
M  V30 2348 O 217.427 -1.58148 1.24704 0
M  V30 2349 C 214.492 -2.50414 2.39778 0
M  V30 2350 C 213.553 -2.30612 3.621 0
M  V30 2351 C 212.786 -3.55547 3.98023 0
M  V30 2352 O 213.009 -4.62004 3.34528 0
M  V30 2353 O 211.943 -3.47808 4.91237 0
M  V30 2354 H 215.769 -0.839559 2.91865 0
M  V30 2355 H 213.354 -0.349453 1.45256 0
M  V30 2356 H 215.236 -3.27747 2.64877 0
M  V30 2357 H 213.911 -2.85198 1.53114 0
M  V30 2358 H 212.818 -1.51207 3.4218 0
M  V30 2359 H 214.151 -2.00741 4.49404 0
M  V30 2360 N 215.803 -1.52179 -0.40978 0
M  V30 2361 C 217.028 -1.70347 -1.18308 0
M  V30 2362 C 217.453 -0.411887 -1.83535 0
M  V30 2363 O 216.811 0.630587 -1.6998 0
M  V30 2364 C 216.859 -2.83977 -2.22238 0
M  V30 2365 O 215.963 -2.495 -3.28365 0
M  V30 2366 H 215.304 -0.567103 -0.345384 0
M  V30 2367 H 217.834 -1.98879 -0.480445 0
M  V30 2368 H 217.844 -3.0887 -2.66577 0
M  V30 2369 H 216.519 -3.77685 -1.74146 0
M  V30 2370 H 215.096 -2.35277 -2.89308 0
M  V30 2371 N 217.281 0.66697 -1.42791 0
M  V30 2372 C 218.211 1.79218 -1.49677 0
M  V30 2373 C 219.192 1.66405 -0.352623 0
M  V30 2374 O 220.377 1.85708 -0.567993 0
M  V30 2375 C 217.507 3.17565 -1.40605 0
M  V30 2376 C 216.461 3.45124 -2.53127 0
M  V30 2377 C 215.787 4.83127 -2.29112 0
M  V30 2378 C 217.087 3.41236 -3.95418 0
M  V30 2379 H 218.781 1.73713 -2.43853 0
M  V30 2380 H 216.327 0.83432 -1.17367 0
M  V30 2381 H 218.28 3.96022 -1.44029 0
M  V30 2382 H 217.004 3.23767 -0.429271 0
M  V30 2383 H 215.663 2.69031 -2.49034 0
M  V30 2384 H 215.311 4.85988 -1.29709 0
M  V30 2385 H 215.011 5.02528 -3.04531 0
M  V30 2386 H 216.535 5.63859 -2.34297 0
M  V30 2387 H 217.949 4.09651 -4.01073 0
M  V30 2388 H 216.346 3.72173 -4.70752 0
M  V30 2389 H 217.416 2.39665 -4.21532 0
M  V30 2390 N 218.759 1.29093 0.90403 0
M  V30 2391 C 219.689 1.16401 2.02418 0
M  V30 2392 C 220.67 0.0593085 1.69997 0
M  V30 2393 O 221.855 0.238021 1.92736 0
M  V30 2394 C 218.985 0.835233 3.37107 0
M  V30 2395 C 217.939 1.89578 3.83724 0
M  V30 2396 C 217.265 1.42041 5.15489 0
M  V30 2397 C 218.565 3.30394 4.04521 0
M  V30 2398 H 220.259 2.10109 2.13295 0
M  V30 2399 H 217.805 1.01157 1.02486 0
M  V30 2400 H 219.758 0.733169 4.14973 0
M  V30 2401 H 218.482 -0.137543 3.2631 0
M  V30 2402 H 217.141 1.98715 3.08071 0
M  V30 2403 H 216.789 0.436426 5.01103 0
M  V30 2404 H 216.489 2.12964 5.4765 0
M  V30 2405 H 218.013 1.33176 5.959 0
M  V30 2406 H 219.427 3.24123 4.72882 0
M  V30 2407 H 217.824 3.99237 4.48029 0
M  V30 2408 H 218.894 3.73692 3.09002 0
M  V30 2409 N 220.237 -1.11381 1.11499 0
M  V30 2410 C 221.467 -1.86663 0.885464 0
M  V30 2411 C 221.875 -1.80464 -0.568281 0
M  V30 2412 O 221.218 -1.18445 -1.40415 0
M  V30 2413 C 221.28 -3.36337 1.26956 0
M  V30 2414 C 220.944 -3.66304 2.73259 0
M  V30 2415 C 221.941 -3.63733 3.71476 0
M  V30 2416 C 219.626 -3.9529 3.09921 0
M  V30 2417 C 221.62 -3.89725 5.04374 0
M  V30 2418 C 219.307 -4.20941 4.43004 0
M  V30 2419 C 220.305 -4.18147 5.40039 0
M  V30 2420 O 219.993 -4.43153 6.70724 0
M  V30 2421 H 219.725 -0.597114 0.316908 0
M  V30 2422 H 222.279 -1.41782 1.48617 0
M  V30 2423 H 220.509 -3.81826 0.611999 0
M  V30 2424 H 222.198 -3.92986 1.01573 0
M  V30 2425 H 222.964 -3.41389 3.44498 0
M  V30 2426 H 218.843 -3.966 2.35009 0
M  V30 2427 H 222.387 -3.8746 5.80104 0
M  V30 2428 H 218.284 -4.42761 4.69716 0
M  V30 2429 H 219.052 -4.60717 6.76522 0
M  V30 2430 N 221.715 -0.905404 -1.28997 0
M  V30 2431 C 222.625 -0.392246 -2.31298 0
M  V30 2432 C 223.641 0.515889 -1.66176 0
M  V30 2433 O 224.817 0.404093 -1.97304 0
M  V30 2434 C 221.882 0.36686 -3.44754 0
M  V30 2435 C 220.943 -0.573485 -4.25452 0
M  V30 2436 C 220.176 0.149488 -5.33491 0
M  V30 2437 O 220.399 1.37255 -5.5364 0
M  V30 2438 O 219.333 -0.510919 -5.99728 0
M  V30 2439 H 223.159 -1.2411 -2.77183 0
M  V30 2440 H 220.744 -0.669926 -1.33538 0
M  V30 2441 H 222.626 0.795907 -4.13816 0
M  V30 2442 H 221.301 1.19169 -3.00966 0
M  V30 2443 H 220.208 -1.05176 -3.59011 0
M  V30 2444 H 221.541 -1.36489 -4.72897 0
M  V30 2445 N 223.193 1.4272 -0.668489 0
M  V30 2446 C 224.439 2.01923 -0.188419 0
M  V30 2447 C 224.772 1.52704 1.19979 0
M  V30 2448 O 224.047 0.726566 1.8042 0
M  V30 2449 C 224.33 3.59451 -0.216085 0
M  V30 2450 C 224.183 4.18864 -1.6393 0
M  V30 2451 C 225.502 4.37903 0.439179 0
M  V30 2452 H 222.621 0.733674 -0.0699412 0
M  V30 2453 H 225.263 1.69822 -0.852076 0
M  V30 2454 H 223.413 3.86929 0.349012 0
M  V30 2455 H 225.085 4.02362 -2.25616 0
M  V30 2456 H 223.328 3.74933 -2.18193 0
M  V30 2457 H 223.999 5.27987 -1.61039 0
M  V30 2458 H 226.475 4.16079 -0.0417878 0
M  V30 2459 H 225.351 5.47519 0.389157 0
M  V30 2460 H 225.612 4.15303 1.51577 0
M  V30 2461 N 224.671 0.411399 1.52136 0
M  V30 2462 C 225.899 -0.163076 2.06256 0
M  V30 2463 C 226.314 -1.3867 1.28125 0
M  V30 2464 O 225.671 -1.79423 0.333721 0
M  V30 2465 C 225.722 -0.511252 3.57867 0
M  V30 2466 O 225.443 0.66378 4.33042 0
M  V30 2467 C 226.944 -1.13921 4.28412 0
M  V30 2468 H 224.164 -0.0193897 0.67072 0
M  V30 2469 H 226.708 0.583007 1.96013 0
M  V30 2470 H 224.863 -1.20723 3.6811 0
M  V30 2471 H 225.277 0.372601 5.23175 0
M  V30 2472 H 226.751 -1.33302 5.35663 0
M  V30 2473 H 227.228 -2.11296 3.85033 0
M  V30 2474 H 227.834 -0.483373 4.22544 0
M  V30 2475 N 226.149 -1.5696 0.141893 0
M  V30 2476 C 227.374 -2.00754 -0.520838 0
M  V30 2477 C 227.799 -1.0213 -1.57959 0
M  V30 2478 O 227.157 0.00371324 -1.813 0
M  V30 2479 C 227.205 -3.43318 -1.10294 0
M  V30 2480 O 226.309 -3.47679 -2.21795 0
M  V30 2481 H 225.65 -0.651564 -0.127908 0
M  V30 2482 H 228.18 -2.03221 0.23712 0
M  V30 2483 H 228.19 -3.82012 -1.43287 0
M  V30 2484 H 226.865 -4.14608 -0.327574 0
M  V30 2485 H 225.442 -3.20824 -1.9007 0
M  V30 2486 N 227.627 0.131896 -1.57047 0
M  V30 2487 C 228.855 0.856461 -1.88341 0
M  V30 2488 C 229.27 1.74042 -0.731757 0
M  V30 2489 O 228.627 1.80051 0.297945 0
M  V30 2490 C 228.678 1.70064 -3.18999 0
M  V30 2491 O 228.399 0.852278 -4.2973 0
M  V30 2492 C 229.9 2.53148 -3.63911 0
M  V30 2493 H 227.12 0.246885 -0.62393 0
M  V30 2494 H 229.664 0.120152 -2.04147 0
M  V30 2495 H 227.819 2.38984 -3.04902 0
M  V30 2496 H 228.233 1.43329 -5.04537 0
M  V30 2497 H 229.707 3.07931 -4.58129 0
M  V30 2498 H 230.184 3.29901 -2.89935 0
M  V30 2499 H 230.79 1.89492 -3.80753 0
M  V30 2500 N 229.106 1.52395 0.401703 0
M  V30 2501 C 230.355 1.66044 1.14509 0
M  V30 2502 C 230.668 0.400216 1.91462 0
M  V30 2503 O 231.874 0.416632 2.68284 0
M  V30 2504 C 230.33 2.93388 2.0845 0
M  V30 2505 C 229.938 4.26545 1.36978 0
M  V30 2506 C 231.682 3.16402 2.83001 0
M  V30 2507 C 229.589 5.45007 2.29611 0
M  V30 2508 H 228.519 0.618562 0.431158 0
M  V30 2509 H 231.17 1.78886 0.40892 0
M  V30 2510 H 229.552 2.74263 2.8565 0
M  V30 2511 H 230.726 4.56179 0.650916 0
M  V30 2512 H 229.041 4.09692 0.74438 0
M  V30 2513 H 231.638 4.02085 3.52465 0
M  V30 2514 H 231.981 2.30943 3.46368 0
M  V30 2515 H 232.514 3.36034 2.12898 0
M  V30 2516 H 229.253 6.32835 1.70879 0
M  V30 2517 H 228.773 5.19702 2.9945 0
M  V30 2518 H 230.452 5.7838 2.89974 0
M  V30 2519 N 230.584 -0.659388 1.43143 0
M  V30 2520 C 232 -0.974337 1.26407 0
M  V30 2521 C 232.2 -2.007 0.179341 0
M  V30 2522 O 231.256 -2.4856 -0.444295 0
M  V30 2523 C 232.569 -1.46447 2.62628 0
M  V30 2524 C 234.117 -1.58144 2.7011 0
M  V30 2525 C 234.592 -2.1055 4.06734 0
M  V30 2526 N 236.083 -2.17861 4.08767 0
M  V30 2527 C 236.818 -2.59519 5.1131 0
M  V30 2528 N 236.314 -3.00518 6.24228 0
M  V30 2529 N 238.107 -2.59404 4.98664 0
M  V30 2530 H 230.258 0.0240528 2.12386 0
M  V30 2531 H 232.521 -0.0518065 0.946583 0
M  V30 2532 H 232.227 -0.780123 3.42939 0
M  V30 2533 H 232.101 -2.44058 2.87603 0
M  V30 2534 H 234.488 -2.25682 1.90136 0
M  V30 2535 H 234.569 -0.589828 2.48907 0
M  V30 2536 H 234.213 -1.43616 4.87172 0
M  V30 2537 H 234.143 -3.10531 4.25298 0
M  V30 2538 H 236.634 -1.88975 3.27257 0
M  V30 2539 H 236.947 -3.31036 6.98309 0
M  V30 2540 H 235.292 -2.98337 6.2771 0
M  V30 2541 H 238.483 -2.26747 4.09516 0
M  V30 2542 H 238.656 -2.91548 5.78709 0
M  V30 2543 N 232.062 -1.29571 -0.897171 0
M  V30 2544 C 233.025 -1.14913 -1.98312 0
M  V30 2545 C 234.025 -0.0838629 -1.60581 0
M  V30 2546 O 235.215 -0.331006 -1.71026 0
M  V30 2547 C 232.347 -0.757835 -3.3237 0
M  V30 2548 H 233.54 -2.11377 -2.12743 0
M  V30 2549 H 231.093 -1.12793 -1.08201 0
M  V30 2550 H 231.828 0.206837 -3.2364 0
M  V30 2551 H 231.613 -1.52755 -3.61121 0
M  V30 2552 H 233.103 -0.678408 -4.12053 0
M  V30 2553 N 233.54 1.10788 -1.12088 0
M  V30 2554 C 234.78 1.84297 -0.883974 0
M  V30 2555 C 235.144 1.83036 0.579797 0
M  V30 2556 O 236.345 2.52061 0.933734 0
M  V30 2557 C 234.616 3.27173 -1.43849 0
M  V30 2558 S 236.175 4.17853 -1.33957 0
M  V30 2559 H 232.993 0.635433 -0.318977 0
M  V30 2560 H 235.595 1.33341 -1.4297 0
M  V30 2561 H 234.299 3.25658 -2.49749 0
M  V30 2562 H 233.83 3.83198 -0.890096 0
M  V30 2563 H 235.845 4.95239 -0.308603 0
M  V30 2564 N 235.018 0.912232 1.28515 0
M  V30 2565 C 236.429 0.591352 1.77087 0
M  V30 2566 C 236.78 -0.8933 1.74684 0
M  V30 2567 O 235.905 -1.69876 1.34056 0
M  V30 2568 C 236.5 1.06668 3.2157 0
M  V30 2569 C 235.059 0.79675 3.67871 0
M  V30 2570 C 234.206 1.23427 2.48316 0
M  V30 2571 H 237.157 1.09365 1.15 0
M  V30 2572 H 237.178 0.407455 3.78312 0
M  V30 2573 H 236.69 2.14726 3.23287 0
M  V30 2574 H 234.791 -0.270679 3.71616 0
M  V30 2575 H 234.904 1.40343 4.58084 0
M  V30 2576 H 233.268 0.653036 2.46186 0
M  V30 2577 H 234.051 2.32316 2.52753 0
M  V30 2578 N 236.496 -1.42363 0.676048 0
M  V30 2579 C 237.444 -2.32596 -0.0131507 0
M  V30 2580 C 238.438 -1.49891 -0.789238 0
M  V30 2581 O 239.644 -1.65955 -0.697061 0
M  V30 2582 H 236.019 -0.751647 -0.0230481 0
M  V30 2583 H 237.99 -2.88421 0.765243 0
M  V30 2584 C 236.739 -3.34479 -0.949702 0
M  V30 2585 H 236.062 -3.98158 -0.361938 0
M  V30 2586 H 237.502 -4.00199 -1.4006 0
M  V30 2587 C 235.961 -2.66838 -2.05667 0
M  V30 2588 O 236.491 -2.50124 -3.14326 0
M  V30 2589 N 234.697 -2.25843 -1.82875 0
M  V30 2590 H 234.244 -2.39637 -0.945085 0
M  V30 2591 H 234.202 -1.80918 -2.5713 0
M  V30 2592 N 237.974 -0.419461 -1.51915 0
M  V30 2593 C 239.199 0.154572 -2.06823 0
M  V30 2594 C 239.624 1.3722 -1.28656 0
M  V30 2595 O 238.982 1.78461 -0.319583 0
M  V30 2596 C 239.03 0.473172 -3.57482 0
M  V30 2597 O 238.134 1.56255 -3.81652 0
M  V30 2598 H 237.475 0.0096924 -0.663929 0
M  V30 2599 H 240.005 -0.595642 -1.95738 0
M  V30 2600 H 240.015 0.728825 -4.01438 0
M  V30 2601 H 238.69 -0.416873 -4.13805 0
M  V30 2602 H 237.267 1.29825 -3.49571 0
M  V30 2603 N 239.452 1.56882 -0.150215 0
M  V30 2604 C 240.384 2.14057 0.819286 0
M  V30 2605 C 241.397 1.09082 1.20851 0
M  V30 2606 O 242.586 1.36347 1.15203 0
M  V30 2607 C 239.686 2.65102 2.11127 0
M  V30 2608 C 238.859 3.94511 1.88891 0
M  V30 2609 C 237.918 4.30834 3.02107 0
M  V30 2610 O 236.944 4.99099 2.73659 0
M  V30 2611 N 238.146 3.90676 4.29363 0
M  V30 2612 H 240.911 2.97871 0.330618 0
M  V30 2613 H 238.472 1.61866 0.0332538 0
M  V30 2614 H 240.464 2.86411 2.85921 0
M  V30 2615 H 239.034 1.85994 2.51247 0
M  V30 2616 H 238.254 3.81795 0.981152 0
M  V30 2617 H 239.542 4.7907 1.71376 0
M  V30 2618 H 238.94 3.35677 4.55343 0
M  V30 2619 H 237.497 4.1703 5.00928 0
M  V30 2620 N 240.93 -0.123565 1.57115 0
M  V30 2621 C 241.84 -1.17074 2.033 0
M  V30 2622 C 242.856 -1.4561 0.952559 0
M  V30 2623 O 244.032 -1.56817 1.26374 0
M  V30 2624 C 241.097 -2.47857 2.42421 0
M  V30 2625 C 240.158 -2.26758 3.64526 0
M  V30 2626 C 239.391 -3.51305 4.01771 0
M  V30 2627 O 239.614 -4.5843 3.39409 0
M  V30 2628 O 238.548 -3.42578 4.94898 0
M  V30 2629 H 242.374 -0.808555 2.92739 0
M  V30 2630 H 239.959 -0.334027 1.45618 0
M  V30 2631 H 241.841 -3.2492 2.68338 0
M  V30 2632 H 240.516 -2.83558 1.5613 0
M  V30 2633 H 239.423 -1.47569 3.43765 0
M  V30 2634 H 240.756 -1.95963 4.51508 0
M  V30 2635 N 242.408 -1.52605 -0.393616 0
M  V30 2636 C 243.341 -1.71798 -1.50202 0
M  V30 2637 C 244.319 -0.565743 -1.52441 0
M  V30 2638 O 245.503 -0.794987 -1.70916 0
M  V30 2639 C 242.63 -1.7714 -2.88685 0
M  V30 2640 C 241.676 -2.98845 -3.04292 0
M  V30 2641 S 242.509 -4.58909 -2.75976 0
M  V30 2642 C 243.665 -4.6706 -4.1666 0
M  V30 2643 H 243.898 -2.65542 -1.33696 0
M  V30 2644 H 241.431 -1.42839 -0.586195 0
M  V30 2645 H 243.389 -1.80903 -3.68489 0
M  V30 2646 H 242.05 -0.844969 -3.02521 0
M  V30 2647 H 241.243 -2.99111 -4.05646 0
M  V30 2648 H 240.845 -2.9305 -2.32374 0
M  V30 2649 H 243.137 -4.45391 -5.10523 0
M  V30 2650 H 244.08 -5.6905 -4.21412 0
M  V30 2651 H 244.488 -3.95944 -4.02354 0
M  V30 2652 N 243.887 0.651787 -1.4349 0
M  V30 2653 C 244.817 1.77621 -1.51569 0
M  V30 2654 C 245.798 1.66022 -0.370253 0
M  V30 2655 O 246.983 1.85095 -0.587658 0
M  V30 2656 C 244.113 3.16056 -1.43966 0
M  V30 2657 C 243.067 3.4242 -2.56774 0
M  V30 2658 C 242.393 4.8067 -2.34223 0
M  V30 2659 C 243.693 3.37023 -3.99015 0
M  V30 2660 H 245.387 1.71117 -2.45681 0
M  V30 2661 H 242.933 0.821825 -1.18246 0
M  V30 2662 H 244.886 3.94472 -1.48221 0
M  V30 2663 H 243.61 3.23293 -0.463586 0
M  V30 2664 H 242.269 2.66375 -2.51873 0
M  V30 2665 H 241.917 4.84585 -1.34856 0
M  V30 2666 H 241.617 4.9927 -3.09844 0
M  V30 2667 H 243.141 5.61342 -2.40265 0
M  V30 2668 H 244.555 4.05374 -4.05395 0
M  V30 2669 H 242.952 3.67159 -4.74673 0
M  V30 2670 H 244.022 2.3518 -4.2405 0
M  V30 2671 N 245.365 1.30045 0.890287 0
M  V30 2672 C 246.297 1.11786 2.00091 0
M  V30 2673 C 247.31 0.0626307 1.62679 0
M  V30 2674 O 248.499 0.308112 1.75821 0
M  V30 2675 C 245.599 0.681527 3.31977 0
M  V30 2676 C 244.772 1.81735 3.97858 0
M  V30 2677 C 243.831 1.37045 5.08041 0
M  V30 2678 O 242.857 2.07677 5.29961 0
M  V30 2679 N 244.059 0.246525 5.79976 0
M  V30 2680 H 246.824 2.07441 2.16306 0
M  V30 2681 H 244.385 1.2211 1.06305 0
M  V30 2682 H 246.377 0.365675 4.03045 0
M  V30 2683 H 244.947 -0.182828 3.12065 0
M  V30 2684 H 244.167 2.30159 3.20032 0
M  V30 2685 H 245.455 2.57865 4.38615 0
M  V30 2686 H 244.853 -0.34215 5.64664 0
M  V30 2687 H 243.41 -0.00990438 6.51799 0
M  V30 2688 N 246.843 -1.10192 1.12674 0
M  V30 2689 C 248.259 -1.34235 0.863317 0
M  V30 2690 C 248.459 -1.95062 -0.505277 0
M  V30 2691 O 247.515 -2.19192 -1.25345 0
M  V30 2692 C 248.828 -2.2616 1.98172 0
M  V30 2693 C 250.376 -2.3969 2.0129 0
M  V30 2694 C 250.851 -3.34946 3.1237 0
M  V30 2695 N 252.342 -3.42515 3.11829 0
M  V30 2696 C 253.077 -4.16199 3.94419 0
M  V30 2697 N 252.573 -4.92747 4.87004 0
M  V30 2698 N 254.366 -4.11843 3.82547 0
M  V30 2699 H 246.517 -0.690798 2.00853 0
M  V30 2700 H 248.78 -0.366774 0.874174 0
M  V30 2701 H 248.486 -1.8868 2.96804 0
M  V30 2702 H 248.36 -3.26488 1.88906 0
M  V30 2703 H 250.747 -2.76438 1.03276 0
M  V30 2704 H 250.828 -1.39169 2.14629 0
M  V30 2705 H 250.472 -2.98923 4.10619 0
M  V30 2706 H 250.402 -4.35353 2.96269 0
M  V30 2707 H 252.893 -2.87926 2.44759 0
M  V30 2708 H 253.206 -5.46376 5.46528 0
M  V30 2709 H 251.551 -4.91862 4.91016 0
M  V30 2710 H 254.742 -3.51136 3.0955 0
M  V30 2711 H 254.915 -4.69007 4.47142 0
M  V30 2712 N 248.321 -0.919034 -1.28029 0
M  V30 2713 C 249.57 -0.550802 -1.94034 0
M  V30 2714 C 249.883 0.910877 -1.73096 0
M  V30 2715 O 251.089 1.3875 -2.33368 0
M  V30 2716 C 249.545 -0.934249 -3.47563 0
M  V30 2717 C 249.153 -2.41602 -3.7727 0
M  V30 2718 C 250.897 -0.636854 -4.19696 0
M  V30 2719 C 248.804 -2.73932 -5.24133 0
M  V30 2720 H 247.734 -0.202273 -0.726362 0
M  V30 2721 H 250.385 -1.11867 -1.45458 0
M  V30 2722 H 248.767 -0.295115 -3.94899 0
M  V30 2723 H 249.941 -3.10233 -3.40723 0
M  V30 2724 H 248.256 -2.68441 -3.18321 0
M  V30 2725 H 250.853 -0.855005 -5.2782 0
M  V30 2726 H 251.196 0.425575 -4.14119 0
M  V30 2727 H 251.729 -1.23469 -3.78154 0
M  V30 2728 H 248.468 -3.79049 -5.34792 0
M  V30 2729 H 247.988 -2.09942 -5.61858 0
M  V30 2730 H 249.667 -2.61215 -5.91925 0
M  V30 2731 N 249.799 1.42003 -0.683588 0
M  V30 2732 C 251.045 2.01712 -0.209825 0
M  V30 2733 C 251.378 1.53968 1.18353 0
M  V30 2734 O 250.653 0.745661 1.79639 0
M  V30 2735 C 250.936 3.59202 -0.254197 0
M  V30 2736 C 250.789 4.17102 -1.68363 0
M  V30 2737 C 252.108 4.38344 0.392709 0
M  V30 2738 H 249.227 0.732891 -0.0777189 0
M  V30 2739 H 251.869 1.68909 -0.87004 0
M  V30 2740 H 250.019 3.87278 0.307954 0
M  V30 2741 H 251.691 3.99946 -2.29871 0
M  V30 2742 H 249.934 3.72597 -2.22157 0
M  V30 2743 H 250.605 5.26249 -1.6663 0
M  V30 2744 H 253.081 4.16011 -0.0859162 0
M  V30 2745 H 251.957 5.47901 0.331063 0
M  V30 2746 H 252.218 4.16887 1.47164 0
M  V30 2747 N 251.277 0.427512 1.51691 0
M  V30 2748 C 252.187 -0.39527 2.31246 0
M  V30 2749 C 253.203 -1.03674 1.39742 0
M  V30 2750 O 254.379 -1.03425 1.72816 0
M  V30 2751 C 251.444 -1.48706 3.13189 0
M  V30 2752 C 250.505 -0.866743 4.20459 0
M  V30 2753 C 249.738 -1.90651 4.98486 0
M  V30 2754 O 249.961 -3.12733 4.77026 0
M  V30 2755 O 248.895 -1.5025 5.82845 0
M  V30 2756 H 252.721 0.253918 3.02637 0
M  V30 2757 H 250.306 0.190274 1.48183 0
M  V30 2758 H 252.188 -2.12047 3.64162 0
M  V30 2759 H 250.863 -2.12051 2.44573 0
M  V30 2760 H 249.77 -0.195544 3.73589 0
M  V30 2761 H 251.103 -0.276934 4.9142 0
M  V30 2762 N 252.755 -1.56801 0.158532 0
M  V30 2763 C 253.983 -2.00859 -0.496303 0
M  V30 2764 C 254.398 -1.03871 -1.57659 0
M  V30 2765 O 253.755 -0.0375165 -1.82461 0
M  V30 2766 C 253.806 -3.4479 -1.08638 0
M  V30 2767 O 253.527 -4.38072 -0.0492322 0
M  V30 2768 C 255.028 -4.04185 -1.8207 0
M  V30 2769 H 252.248 -0.65864 -0.128199 0
M  V30 2770 H 254.792 -2.02885 0.256506 0
M  V30 2771 H 252.947 -3.43579 -1.78975 0
M  V30 2772 H 253.361 -5.2227 -0.483102 0
M  V30 2773 H 254.835 -5.06857 -2.18633 0
M  V30 2774 H 255.312 -3.45549 -2.71095 0
M  V30 2775 H 255.918 -4.0906 -1.16405 0
M  V30 2776 N 254.233 0.115231 -1.57178 0
M  V30 2777 C 255.479 0.82357 -1.85325 0
M  V30 2778 C 255.812 1.79349 -0.744814 0
M  V30 2779 O 255.087 1.92899 0.249024 0
M  V30 2780 C 255.37 1.57014 -3.24066 0
M  V30 2781 C 255.223 0.619565 -4.45513 0
M  V30 2782 C 256.542 2.52545 -3.60429 0
M  V30 2783 H 253.661 0.297948 -0.674089 0
M  V30 2784 H 256.303 0.0877138 -1.89797 0
M  V30 2785 H 254.453 2.19742 -3.20383 0
M  V30 2786 H 256.125 0.000837639 -4.613 0
M  V30 2787 H 254.368 -0.0686174 -4.33746 0
M  V30 2788 H 255.039 1.17866 -5.3927 0
M  V30 2789 H 257.515 1.9992 -3.64926 0
M  V30 2790 H 256.391 3.01811 -4.58477 0
M  V30 2791 H 256.652 3.35383 -2.88047 0
M  V30 2792 N 255.711 1.52812 0.385517 0
M  V30 2793 C 256.959 1.67694 1.12797 0
M  V30 2794 C 257.28 0.421115 1.90399 0
M  V30 2795 O 256.55 -0.564551 1.87589 0
M  V30 2796 H 255.13 0.618155 0.419396 0
M  V30 2797 H 257.792 1.89938 0.436972 0
M  V30 2798 H 256.888 2.52896 1.82894 0
M  V30 2799 N 257.189 -0.644168 1.43834 0
M  V30 2800 C 258.136 -1.75671 1.49694 0
M  V30 2801 C 259.106 -1.6246 0.345809 0
M  V30 2802 O 260.291 -1.82573 0.554234 0
M  V30 2803 C 257.431 -3.13867 1.43463 0
M  V30 2804 C 256.544 -3.38147 2.6885 0
M  V30 2805 C 255.679 -4.66241 2.54544 0
M  V30 2806 C 254.718 -4.83657 3.75157 0
M  V30 2807 N 253.855 -6.03016 3.59605 0
M  V30 2808 H 258.695 -1.69998 2.44754 0
M  V30 2809 H 256.232 -0.829458 1.21484 0
M  V30 2810 H 258.19 -3.9377 1.37843 0
M  V30 2811 H 256.82 -3.18588 0.519783 0
M  V30 2812 H 255.872 -2.52276 2.84712 0
M  V30 2813 H 257.184 -3.46899 3.58417 0
M  V30 2814 H 256.338 -5.54285 2.46683 0
M  V30 2815 H 255.077 -4.59826 1.62516 0
M  V30 2816 H 254.082 -3.94046 3.83416 0
M  V30 2817 H 255.307 -4.91896 4.68204 0
M  V30 2818 H 253.253 -5.97715 2.7032 0
M  V30 2819 H 253.17 -6.12766 4.42779 0
M  V30 2820 H 254.438 -6.93657 3.55613 0
M  V30 2821 N 258.668 -1.30515 -0.883378 0
M  V30 2822 C 259.601 -1.11359 -1.99184 0
M  V30 2823 C 260.579 -0.0207858 -1.62587 0
M  V30 2824 O 261.763 -0.174646 -1.87689 0
M  V30 2825 C 258.89 -0.69871 -3.31415 0
M  V30 2826 C 257.936 -1.79261 -3.86998 0
M  V30 2827 S 258.769 -3.39536 -4.14096 0
M  V30 2828 C 259.925 -2.99954 -5.49344 0
M  V30 2829 H 260.158 -2.052 -2.15128 0
M  V30 2830 H 257.691 -1.14847 -1.03196 0
M  V30 2831 H 259.649 -0.466075 -4.07846 0
M  V30 2832 H 258.31 0.220368 -3.13326 0
M  V30 2833 H 257.503 -1.45464 -4.82552 0
M  V30 2834 H 257.105 -1.97961 -3.17313 0
M  V30 2835 H 259.397 -2.48013 -6.30473 0
M  V30 2836 H 260.34 -3.9442 -5.8808 0
M  V30 2837 H 260.748 -2.37775 -5.1198 0
M  V30 2838 N 260.146 1.09593 -1.13257 0
M  V30 2839 C 261.393 1.81734 -0.893257 0
M  V30 2840 C 261.721 1.8563 0.580656 0
M  V30 2841 O 260.976 1.31906 1.44566 0
M  V30 2842 C 261.275 3.27802 -1.42411 0
M  V30 2843 C 260.941 3.44041 -2.91456 0
M  V30 2844 C 259.603 3.48181 -3.3215 0
M  V30 2845 C 261.955 3.48719 -3.87356 0
M  V30 2846 C 259.283 3.54575 -4.67433 0
M  V30 2847 C 261.635 3.56648 -5.2248 0
M  V30 2848 C 260.299 3.59055 -5.62704 0
M  V30 2849 H 259.569 0.665011 -0.326866 0
M  V30 2850 H 262.216 1.2912 -1.41422 0
M  V30 2851 H 260.521 3.83042 -0.823795 0
M  V30 2852 H 262.218 3.82149 -1.21503 0
M  V30 2853 H 258.808 3.41502 -2.58987 0
M  V30 2854 H 262.992 3.44763 -3.57004 0
M  V30 2855 H 258.248 3.54725 -4.97976 0
M  V30 2856 H 262.422 3.59212 -5.96607 0
M  V30 2857 H 260.049 3.63763 -6.67518 0
M  V30 2858 N 261.624 0.925811 1.2754 0
M  V30 2859 C 262.534 0.428993 2.30644 0
M  V30 2860 C 263.55 -0.489387 1.66976 0
M  V30 2861 O 264.726 -0.372653 1.97922 0
M  V30 2862 C 261.791 -0.311967 3.45294 0
M  V30 2863 C 260.852 0.641098 4.24486 0
M  V30 2864 C 260.085 -0.0645955 5.33661 0
M  V30 2865 O 260.308 -1.28429 5.55754 0
M  V30 2866 O 259.242 0.606265 5.98839 0
M  V30 2867 H 263.068 1.28504 2.75173 0
M  V30 2868 H 260.653 0.691086 1.32455 0
M  V30 2869 H 262.535 -0.729972 4.15029 0
M  V30 2870 H 261.21 -1.14365 3.02824 0
M  V30 2871 H 260.117 1.10874 3.57292 0
M  V30 2872 H 261.45 1.43995 4.70666 0
M  V30 2873 N 263.102 -1.41638 0.69111 0
M  V30 2874 C 264.348 -2.01598 0.220519 0
M  V30 2875 C 264.681 -1.54594 -1.17535 0
M  V30 2876 O 263.956 -0.755177 -1.79241 0
M  V30 2877 C 264.239 -3.59062 0.273243 0
M  V30 2878 C 264.092 -4.16203 1.70573 0
M  V30 2879 C 265.411 -4.38546 -0.369457 0
M  V30 2880 H 262.53 -0.732468 0.0816045 0
M  V30 2881 H 265.172 -1.68445 0.878986 0
M  V30 2882 H 263.322 -3.87435 -0.287411 0
M  V30 2883 H 264.994 -3.98722 2.31989 0
M  V30 2884 H 263.237 -3.71414 2.2413 0
M  V30 2885 H 263.908 -5.25358 1.69419 0
M  V30 2886 H 266.384 -4.1596 0.107977 0
M  V30 2887 H 265.26 -5.48069 -0.302002 0
M  V30 2888 H 265.521 -4.17662 -1.44951 0
M  V30 2889 N 264.58 -0.43555 -1.51462 0
M  V30 2890 C 265.805 0.132627 -2.06976 0
M  V30 2891 C 266.23 1.35848 -1.30104 0
M  V30 2892 O 265.588 1.78112 -0.338493 0
M  V30 2893 C 265.636 0.43523 -3.57964 0
M  V30 2894 O 264.74 1.52198 -3.83288 0
M  V30 2895 H 264.081 0.00265 -0.663995 0
M  V30 2896 H 266.611 -0.616369 -1.95095 0
M  V30 2897 H 266.621 0.686206 -4.02188 0
M  V30 2898 H 265.296 -0.460739 -4.1334 0
M  V30 2899 H 263.873 1.2611 -3.50928 0
M  V30 2900 N 266.058 1.56714 -0.166846 0
M  V30 2901 C 267.288 2.00828 0.48494 0
M  V30 2902 C 267.696 1.04612 1.57648 0
M  V30 2903 O 267.039 0.0383201 1.8366 0
M  V30 2904 C 267.101 3.4137 1.12723 0
M  V30 2905 C 266.765 4.56654 0.177886 0
M  V30 2906 C 267.762 5.16402 -0.60207 0
M  V30 2907 C 265.447 5.02244 0.0750139 0
M  V30 2908 C 267.441 6.20167 -1.47215 0
M  V30 2909 C 265.128 6.05859 -0.798649 0
M  V30 2910 C 266.126 6.64691 -1.57082 0
M  V30 2911 O 265.814 7.66297 -2.42989 0
M  V30 2912 H 265.546 0.663587 0.128953 0
M  V30 2913 H 268.1 2.03692 -0.264365 0
M  V30 2914 H 266.33 3.35406 1.92457 0
M  V30 2915 H 268.019 3.69466 1.68076 0
M  V30 2916 H 268.785 4.82065 -0.53274 0
M  V30 2917 H 264.664 4.56167 0.665812 0
M  V30 2918 H 268.208 6.66016 -2.07531 0
M  V30 2919 H 264.105 6.39621 -0.869199 0
M  V30 2920 H 264.873 7.83601 -2.36455 0
M  V30 2921 N 267.536 -0.106894 1.57237 0
M  V30 2922 C 268.776 -0.818277 1.87306 0
M  V30 2923 C 269.14 -1.76474 0.756371 0
M  V30 2924 O 270.341 -2.5186 0.939155 0
M  V30 2925 C 268.612 -1.53806 3.22612 0
M  V30 2926 S 270.171 -2.28935 3.74345 0
M  V30 2927 H 266.989 -0.272862 0.656557 0
M  V30 2928 H 269.591 -0.075988 1.95352 0
M  V30 2929 H 268.295 -0.834951 4.01817 0
M  V30 2930 H 267.826 -2.32049 3.17674 0
M  V30 2931 H 269.841 -3.54871 3.46815 0
M  V30 2932 N 269.014 -1.53014 -0.377408 0
M  V30 2933 C 269.944 -1.81589 -1.46791 0
M  V30 2934 C 270.925 -0.668622 -1.56408 0
M  V30 2935 O 272.11 -0.917337 -1.71168 0
M  V30 2936 C 269.24 -1.99519 -2.8427 0
M  V30 2937 C 268.194 -3.15249 -2.89486 0
M  V30 2938 C 267.52 -3.18451 -4.29527 0
M  V30 2939 C 268.82 -4.54084 -2.58079 0
M  V30 2940 H 270.514 -2.7291 -1.23127 0
M  V30 2941 H 268.06 -1.31319 -0.590883 0
M  V30 2942 H 270.013 -2.18092 -3.60575 0
M  V30 2943 H 268.737 -1.04897 -3.09296 0
M  V30 2944 H 267.396 -2.96477 -2.15631 0
M  V30 2945 H 267.044 -2.2149 -4.5161 0
M  V30 2946 H 266.744 -3.962 -4.33934 0
M  V30 2947 H 268.268 -3.39193 -5.07721 0
M  V30 2948 H 269.682 -4.72899 -3.24098 0
M  V30 2949 H 268.079 -5.33987 -2.7382 0
M  V30 2950 H 269.149 -4.60006 -1.53372 0
M  V30 2951 N 270.492 0.636531 -1.44174 0
M  V30 2952 C 271.422 1.76003 -1.53444 0
M  V30 2953 C 272.403 1.65619 -0.387841 0
M  V30 2954 O 273.588 1.84461 -0.607257 0
M  V30 2955 C 270.718 3.14511 -1.4731 0
M  V30 2956 C 269.672 3.39677 -2.60391 0
M  V30 2957 C 268.998 4.78159 -2.39308 0
M  V30 2958 C 270.298 3.32772 -4.02567 0
M  V30 2959 H 271.992 1.68501 -2.47483 0
M  V30 2960 H 269.538 0.809237 -1.19111 0
M  V30 2961 H 271.491 3.92878 -1.52397 0
M  V30 2962 H 270.215 3.22783 -0.49785 0
M  V30 2963 H 268.874 2.63688 -2.54684 0
M  V30 2964 H 268.522 4.83128 -1.39988 0
M  V30 2965 H 268.222 4.95956 -3.15122 0
M  V30 2966 H 269.746 5.58762 -2.46205 0
M  V30 2967 H 271.16 4.01051 -4.09672 0
M  V30 2968 H 269.557 3.62104 -4.7854 0
M  V30 2969 H 270.627 2.30669 -4.2652 0
M  V30 2970 N 271.97 1.30982 0.876444 0
M  V30 2971 C 273.386 1.09498 1.16113 0
M  V30 2972 C 273.586 -0.13875 2.01022 0
M  V30 2973 O 272.642 -0.829935 2.38471 0
M  V30 2974 C 273.955 2.36308 1.85954 0
M  V30 2975 C 275.503 2.41856 1.98683 0
M  V30 2976 C 275.978 3.6853 2.71937 0
M  V30 2977 N 277.469 3.69387 2.79477 0
M  V30 2978 C 278.204 4.64096 3.36753 0
M  V30 2979 N 277.7 5.69155 3.95012 0
M  V30 2980 N 279.493 4.51626 3.3465 0
M  V30 2981 H 271.644 2.10118 0.310494 0
M  V30 2982 H 273.907 0.926634 0.200131 0
M  V30 2983 H 273.613 3.26388 1.31011 0
M  V30 2984 H 273.487 2.4561 2.86278 0
M  V30 2985 H 275.874 1.52249 2.52793 0
M  V30 2986 H 275.955 2.36523 0.9742 0
M  V30 2987 H 275.599 4.58499 2.18496 0
M  V30 2988 H 275.529 3.71127 3.73593 0
M  V30 2989 H 278.02 2.93438 2.38123 0
M  V30 2990 H 278.333 6.3751 4.36808 0
M  V30 2991 H 276.678 5.72937 3.93406 0
M  V30 2992 H 279.869 3.68728 2.8837 0
M  V30 2993 H 280.042 5.25614 3.7899 0
M  V30 2994 N 273.449 -1.08991 1.13837 0
M  V30 2995 C 274.674 -1.85551 0.926585 0
M  V30 2996 C 275.099 -1.80782 -0.519566 0
M  V30 2997 O 274.457 -1.18855 -1.36906 0
M  V30 2998 C 274.505 -3.31266 1.42462 0
M  V30 2999 O 273.609 -4.07822 0.612789 0
M  V30 3000 H 272.95 -0.575192 0.331738 0
M  V30 3001 H 275.48 -1.37604 1.51414 0
M  V30 3002 H 275.49 -3.82112 1.43019 0
M  V30 3003 H 274.165 -3.34052 2.47754 0
M  V30 3004 H 272.742 -3.66731 0.675463 0
M  V30 3005 N 274.927 -0.932562 -1.27047 0
M  V30 3006 C 276.174 -0.575559 -1.94148 0
M  V30 3007 C 276.502 0.883984 -1.73251 0
M  V30 3008 O 275.757 1.64655 -1.0577 0
M  V30 3009 C 276.056 -0.853713 -3.47054 0
M  V30 3010 C 275.722 -2.29577 -3.88079 0
M  V30 3011 C 274.384 -2.68999 -3.9899 0
M  V30 3012 C 276.736 -3.23331 -4.08787 0
M  V30 3013 C 274.064 -4.01289 -4.28 0
M  V30 3014 C 276.416 -4.55207 -4.39282 0
M  V30 3015 C 275.08 -4.94457 -4.48407 0
M  V30 3016 H 274.35 -0.210612 -0.710439 0
M  V30 3017 H 276.997 -1.17744 -1.51025 0
M  V30 3018 H 275.302 -0.169204 -3.91434 0
M  V30 3019 H 276.999 -0.55639 -3.97121 0
M  V30 3020 H 273.589 -1.97994 -3.80127 0
M  V30 3021 H 277.773 -2.94074 -3.99793 0
M  V30 3022 H 273.029 -4.31374 -4.33275 0
M  V30 3023 H 277.203 -5.27852 -4.54252 0
M  V30 3024 H 274.83 -5.96994 -4.7064 0
M  V30 3025 N 276.405 1.4127 -0.698611 0
M  V30 3026 C 277.653 2.00782 -0.230409 0
M  V30 3027 C 277.974 1.5562 1.17505 0
M  V30 3028 O 277.244 0.78815 1.79346 0
M  V30 3029 H 275.824 0.742464 -0.0821944 0
M  V30 3030 H 278.486 1.72852 -0.90045 0
M  V30 3031 H 277.582 3.11095 -0.25021 0
M  V30 3032 N 277.883 0.443576 1.51229 0
M  V30 3033 C 279.129 -0.120975 2.02439 0
M  V30 3034 C 279.462 -1.41815 1.32674 0
M  V30 3035 O 278.737 -1.89373 0.443622 0
M  V30 3036 C 279.02 -0.333291 3.58554 0
M  V30 3037 C 278.873 0.982968 4.38928 0
M  V30 3038 C 280.192 -1.10028 4.26124 0
M  V30 3039 H 277.311 -0.0424923 0.735774 0
M  V30 3040 H 279.953 0.583794 1.80809 0
M  V30 3041 H 278.103 -0.933614 3.77115 0
M  V30 3042 H 279.775 1.61775 4.32003 0
M  V30 3043 H 278.018 1.58611 4.03763 0
M  V30 3044 H 278.689 0.788379 5.46341 0
M  V30 3045 H 281.165 -0.591711 4.11871 0
M  V30 3046 H 280.041 -1.21761 5.35225 0
M  V30 3047 H 280.302 -2.12996 3.87408 0
M  V30 3048 N 279.361 -1.56624 0.175154 0
M  V30 3049 C 280.609 -1.96609 -0.467885 0
M  V30 3050 C 280.93 -1.06238 -1.63519 0
M  V30 3051 O 280.2 -0.129523 -1.95471 0
M  V30 3052 H 278.78 -0.726008 -0.175845 0
M  V30 3053 H 281.442 -1.93195 0.257234 0
M  V30 3054 H 280.538 -3.00989 -0.825342 0
M  V30 3055 N 280.839 0.0985539 -1.57292 0
M  V30 3056 C 282.064 0.820196 -1.90493 0
M  V30 3057 C 282.489 1.71658 -0.769094 0
M  V30 3058 O 281.847 1.79133 0.279495 0
M  V30 3059 C 281.895 1.61242 -3.22542 0
M  V30 3060 O 280.999 2.72108 -3.09888 0
M  V30 3061 H 280.34 0.225547 -0.62452 0
M  V30 3062 H 282.87 0.0748159 -2.04463 0
M  V30 3063 H 282.88 1.99737 -3.55766 0
M  V30 3064 H 281.555 0.954535 -4.04798 0
M  V30 3065 H 280.132 2.36667 -2.88172 0
M  V30 3066 N 282.317 1.53212 0.369288 0
M  V30 3067 C 283.594 1.59815 1.12776 0
M  V30 3068 C 283.974 0.403402 2.0721 0
M  V30 3069 O 283.322 -0.606667 2.20299 0
M  V30 3070 C 283.532 2.94664 1.87013 0
M  V30 3071 C 284.88 3.49109 2.41677 0
M  V30 3072 O 285.904 2.96669 1.97144 0
M  V30 3073 O 284.763 4.40775 3.23079 0
M  V30 3074 H 281.857 0.645376 0.517125 0
M  V30 3075 H 284.403 1.65553 0.37285 0
M  V30 3076 H 283.175 3.73061 1.18071 0
M  V30 3077 H 282.798 2.92401 2.69421 0
M  V30 3078 N 283.795 -0.628877 1.44509 0
M  V30 3079 C 284.725 -1.75187 1.54376 0
M  V30 3080 C 285.706 -1.65411 0.396618 0
M  V30 3081 O 286.891 -1.84137 0.617031 0
M  V30 3082 C 284.021 -3.13725 1.48976 0
M  V30 3083 C 282.975 -3.38291 2.62189 0
M  V30 3084 C 282.301 -4.76883 2.41841 0
M  V30 3085 C 283.601 -3.30632 4.04326 0
M  V30 3086 H 285.295 -1.67187 2.48373 0
M  V30 3087 H 282.841 -0.802909 1.19538 0
M  V30 3088 H 284.794 -3.92064 1.54478 0
M  V30 3089 H 283.518 -3.22515 0.514961 0
M  V30 3090 H 282.177 -2.62334 2.56079 0
M  V30 3091 H 281.825 -4.82378 1.42548 0
M  V30 3092 H 281.525 -4.94278 3.17747 0
M  V30 3093 H 283.049 -5.57449 2.49165 0
M  V30 3094 H 284.463 -3.98873 4.11793 0
M  V30 3095 H 282.86 -3.59561 4.80454 0
M  V30 3096 H 283.93 -2.28404 4.27738 0
M  V30 3097 N 285.273 -1.31445 -0.869486 0
M  V30 3098 C 286.522 -1.20517 -1.61736 0
M  V30 3099 C 286.835 0.235341 -1.94179 0
M  V30 3100 O 288.041 0.466312 -2.67465 0
M  V30 3101 C 286.497 -2.10982 -2.91573 0
M  V30 3102 C 286.105 -3.60032 -2.66611 0
M  V30 3103 C 287.849 -2.08856 -3.69567 0
M  V30 3104 C 285.756 -4.42503 -3.92358 0
M  V30 3105 H 284.686 -0.447493 -0.606849 0
M  V30 3106 H 287.337 -1.56303 -0.96133 0
M  V30 3107 H 285.719 -1.68095 -3.58553 0
M  V30 3108 H 286.893 -4.11167 -2.08035 0
M  V30 3109 H 285.208 -3.64139 -2.0197 0
M  V30 3110 H 287.805 -2.67716 -4.62852 0
M  V30 3111 H 288.148 -1.07582 -4.02159 0
M  V30 3112 H 288.681 -2.49945 -3.09471 0
M  V30 3113 H 285.42 -5.44533 -3.64916 0
M  V30 3114 H 284.94 -3.96125 -4.50383 0
M  V30 3115 H 286.619 -4.54741 -4.60238 0
M  V30 3116 N 286.751 1.08385 -1.14413 0
M  V30 3117 C 287.999 1.80419 -0.910679 0
M  V30 3118 C 288.32 1.86658 0.564243 0
M  V30 3119 O 287.59 1.35985 1.41014 0
M  V30 3120 H 286.17 0.668204 -0.333934 0
M  V30 3121 H 288.832 1.31037 -1.44275 0
M  V30 3122 H 287.928 2.83238 -1.31082 0
M  V30 3123 N 288.23 0.939286 1.26551 0
M  V30 3124 C 289.16 0.465044 2.28822 0
M  V30 3125 C 290.141 -0.480692 1.63167 0
M  V30 3126 O 291.326 -0.382955 1.90387 0
M  V30 3127 C 288.456 -0.27234 3.46231 0
M  V30 3128 C 287.41 0.58666 4.2396 0
M  V30 3129 C 286.736 -0.280573 5.33963 0
M  V30 3130 C 288.036 1.85704 4.88171 0
M  V30 3131 H 289.73 1.31979 2.68741 0
M  V30 3132 H 287.276 0.636061 1.29191 0
M  V30 3133 H 289.229 -0.615133 4.16886 0
M  V30 3134 H 287.953 -1.16121 3.0526 0
M  V30 3135 H 286.612 0.91232 3.55067 0
M  V30 3136 H 286.26 -1.16874 4.89234 0
M  V30 3137 H 285.96 0.29076 5.8688 0
M  V30 3138 H 287.484 -0.618678 6.07458 0
M  V30 3139 H 288.898 1.58161 5.51052 0
M  V30 3140 H 287.295 2.37279 5.51197 0
M  V30 3141 H 288.365 2.56957 4.11219 0
M  V30 3142 N 289.708 -1.40897 0.706093 0
M  V30 3143 C 290.956 -2.00657 0.241054 0
M  V30 3144 C 291.277 -1.56241 -1.16678 0
M  V30 3145 O 290.547 -0.79765 -1.78926 0
M  V30 3146 H 289.127 -0.742018 0.0861308 0
M  V30 3147 H 291.789 -1.72372 0.909604 0
M  V30 3148 H 290.885 -3.10958 0.266705 0
M  V30 3149 N 291.186 -0.45159 -1.50991 0
M  V30 3150 C 292.149 0.341117 -2.26647 0
M  V30 3151 C 293.149 0.937422 -1.30649 0
M  V30 3152 O 294.339 0.809644 -1.54241 0
M  V30 3153 C 291.471 1.48398 -3.06905 0
M  V30 3154 H 292.664 -0.322117 -2.98165 0
M  V30 3155 H 290.217 -0.205122 -1.54948 0
M  V30 3156 H 290.952 2.18284 -2.39838 0
M  V30 3157 H 290.737 1.06241 -3.77432 0
M  V30 3158 H 292.227 2.04367 -3.64176 0
M  V30 3159 N 292.664 1.56529 -0.183458 0
M  V30 3160 C 293.912 1.96855 0.457452 0
M  V30 3161 C 294.233 1.07104 1.62953 0
M  V30 3162 O 293.503 0.139887 1.954 0
M  V30 3163 H 292.083 0.72693 0.171992 0
M  V30 3164 H 294.745 1.93056 -0.267476 0
M  V30 3165 H 293.841 3.01423 0.809368 0
M  V30 3166 N 294.142 -0.090211 1.57342 0
M  V30 3167 C 295.388 -0.793982 1.86611 0
M  V30 3168 C 295.721 -1.78142 0.773252 0
M  V30 3169 O 294.996 -1.93271 -0.218304 0
M  V30 3170 C 295.279 -1.51839 3.26523 0
M  V30 3171 C 295.132 -0.548609 4.46442 0
M  V30 3172 C 296.451 -2.46779 3.64401 0
M  V30 3173 H 293.57 -0.287186 0.678744 0
M  V30 3174 H 296.212 -0.0575076 1.89913 0
M  V30 3175 H 294.362 -2.14617 3.23839 0
M  V30 3176 H 296.034 0.0725513 4.61243 0
M  V30 3177 H 294.277 0.137614 4.33582 0
M  V30 3178 H 294.948 -1.09271 5.41076 0
M  V30 3179 H 297.424 -1.94089 3.68061 0
M  V30 3180 H 296.3 -2.94479 4.63221 0
M  V30 3181 H 296.561 -3.30758 2.93346 0
M  V30 3182 N 295.62 -1.53406 -0.361157 0
M  V30 3183 C 296.845 -1.74024 -1.12829 0
M  V30 3184 C 297.27 -0.470069 -1.82132 0
M  V30 3185 O 296.628 0.57619 -1.719 0
M  V30 3186 C 296.676 -2.90903 -2.13091 0
M  V30 3187 O 295.78 -2.59821 -3.20261 0
M  V30 3188 H 295.121 -0.577804 -0.327168 0
M  V30 3189 H 297.651 -2.00307 -0.41693 0
M  V30 3190 H 297.661 -3.17194 -2.56616 0
M  V30 3191 H 296.336 -3.83034 -1.62042 0
M  V30 3192 H 294.913 -2.44362 -2.81677 0
M  V30 3193 N 297.098 0.621204 -1.44841 0
M  V30 3194 C 298.509 1.20298 -1.42777 0
M  V30 3195 C 298.86 1.95639 -0.148259 0
M  V30 3196 O 297.985 2.02955 0.750892 0
M  V30 3197 C 298.58 2.1882 -2.58657 0
M  V30 3198 C 297.139 2.72403 -2.59756 0
M  V30 3199 C 296.286 1.4757 -2.34773 0
M  V30 3200 H 299.237 0.411297 -1.53278 0
M  V30 3201 H 299.258 3.01607 -2.31977 0
M  V30 3202 H 298.77 1.63957 -3.51766 0
M  V30 3203 H 296.871 3.31242 -1.70615 0
M  V30 3204 H 296.984 3.17765 -3.58556 0
M  V30 3205 H 295.348 1.76051 -1.8406 0
M  V30 3206 H 296.131 0.945954 -3.3001 0
M  V30 3207 N 298.576 1.31904 0.862503 0
M  V30 3208 C 299.804 1.24998 1.64873 0
M  V30 3209 C 300.219 -0.183425 1.87907 0
M  V30 3210 O 299.576 -1.11794 1.44251 0
M  V30 3211 C 299.627 1.99829 3.01248 0
M  V30 3212 O 299.348 3.37575 2.79239 0
M  V30 3213 C 300.849 1.99852 3.95694 0
M  V30 3214 H 298.069 0.431599 0.513773 0
M  V30 3215 H 300.613 1.73901 1.07604 0
M  V30 3216 H 298.768 1.54668 3.55185 0
M  V30 3217 H 299.182 3.75776 3.65914 0
M  V30 3218 H 300.656 2.56709 4.88676 0
M  V30 3219 H 301.133 0.982852 4.28062 0
M  V30 3220 H 301.739 2.44926 3.47694 0
M  V30 3221 N 300.054 -1.07777 1.14986 0
M  V30 3222 C 301.001 -2.14867 0.842672 0
M  V30 3223 C 301.971 -1.6486 -0.202552 0
M  V30 3224 O 303.156 -1.90668 -0.0710568 0
M  V30 3225 C 300.296 -3.43486 0.333363 0
M  V30 3226 C 299.409 -4.07306 1.43965 0
M  V30 3227 C 298.544 -5.23744 0.886914 0
M  V30 3228 C 297.583 -5.79517 1.97043 0
M  V30 3229 N 296.72 -6.87291 1.4344 0
M  V30 3230 H 301.56 -2.40485 1.75986 0
M  V30 3231 H 299.097 -1.1801 0.878179 0
M  V30 3232 H 301.055 -4.17195 0.0198163 0
M  V30 3233 H 299.685 -3.18133 -0.546916 0
M  V30 3234 H 298.737 -3.31293 1.86946 0
M  V30 3235 H 300.049 -4.44771 2.25788 0
M  V30 3236 H 299.203 -6.04419 0.525651 0
M  V30 3237 H 297.942 -4.87685 0.0377957 0
M  V30 3238 H 296.947 -4.97491 2.34057 0
M  V30 3239 H 298.172 -6.17632 2.82325 0
M  V30 3240 H 296.118 -6.5318 0.607567 0
M  V30 3241 H 296.035 -7.23617 2.18895 0
M  V30 3242 H 297.303 -7.71682 1.10124 0
M  V30 3243 N 301.532 -0.945985 -1.26051 0
M  V30 3244 C 302.464 -0.416662 -2.25381 0
M  V30 3245 C 303.477 0.462712 -1.56086 0
M  V30 3246 O 304.666 0.272383 -1.7641 0
M  V30 3247 C 301.766 0.419812 -3.3629 0
M  V30 3248 C 300.939 -0.444531 -4.35135 0
M  V30 3249 C 299.998 0.332305 -5.2515 0
M  V30 3250 O 299.024 -0.266324 -5.68577 0
M  V30 3251 N 300.226 1.62763 -5.57215 0
M  V30 3252 H 302.991 -1.27059 -2.71433 0
M  V30 3253 H 300.552 -0.815392 -1.39868 0
M  V30 3254 H 302.544 0.947013 -3.93464 0
M  V30 3255 H 301.114 1.17456 -2.89694 0
M  V30 3256 H 300.334 -1.15291 -3.76964 0
M  V30 3257 H 301.622 -1.03478 -4.98166 0
M  V30 3258 H 301.02 2.13603 -5.23823 0
M  V30 3259 H 299.577 2.10097 -6.17011 0
M  V30 3260 N 303.011 1.40521 -0.713556 0
M  V30 3261 C 304.288 1.94775 -0.17943 0
M  V30 3262 C 304.668 1.65184 1.31444 0
M  V30 3263 O 304.016 0.968429 2.06963 0
M  V30 3264 C 304.226 3.45543 -0.489986 0
M  V30 3265 C 305.574 4.22442 -0.427536 0
M  V30 3266 O 306.598 3.53644 -0.425929 0
M  V30 3267 O 305.457 5.4501 -0.403292 0
M  V30 3268 H 302.551 0.826606 -0.0255192 0
M  V30 3269 H 305.097 1.5014 -0.790949 0
M  V30 3270 H 303.869 3.60432 -1.5233 0
M  V30 3271 H 303.492 3.97311 0.151598 0
M  V30 3272 N 304.489 0.459591 1.5075 0
M  V30 3273 C 305.738 -0.100971 2.01447 0
M  V30 3274 C 306.051 -1.41816 1.34713 0
M  V30 3275 O 307.257 -2.06299 1.76502 0
M  V30 3276 C 305.713 -0.23047 3.59161 0
M  V30 3277 C 305.321 1.0776 4.34847 0
M  V30 3278 C 307.065 -0.743608 4.17936 0
M  V30 3279 C 304.972 0.91253 5.84317 0
M  V30 3280 H 303.902 -0.0415102 0.752856 0
M  V30 3281 H 306.553 0.592742 1.73663 0
M  V30 3282 H 304.935 -0.987703 3.83485 0
M  V30 3283 H 306.109 1.8449 4.22256 0
M  V30 3284 H 304.424 1.52097 3.87628 0
M  V30 3285 H 307.021 -0.883959 5.27343 0
M  V30 3286 H 307.364 -1.73196 3.78562 0
M  V30 3287 H 307.897 -0.04408 3.97776 0
M  V30 3288 H 304.636 1.87391 6.28144 0
M  V30 3289 H 304.156 0.185422 5.99513 0
M  V30 3290 H 305.835 0.574547 6.44444 0
M  V30 3291 N 305.967 -1.56429 0.191757 0
M  V30 3292 C 307.195 -2.01867 -0.453586 0
M  V30 3293 C 307.61 -1.07191 -1.5542 0
M  V30 3294 O 306.967 -0.0762108 -1.82341 0
M  V30 3295 C 307.018 -3.47017 -1.013 0
M  V30 3296 O 306.739 -4.38078 0.0437005 0
M  V30 3297 C 308.24 -4.07956 -1.73456 0
M  V30 3298 H 305.46 -0.661211 -0.114199 0
M  V30 3299 H 308.004 -2.02295 0.299483 0
M  V30 3300 H 306.159 -3.47298 -1.71647 0
M  V30 3301 H 306.573 -5.23178 -0.372212 0
M  V30 3302 H 308.047 -5.1138 -2.07833 0
M  V30 3303 H 308.524 -3.51222 -2.63704 0
M  V30 3304 H 309.13 -4.11437 -1.07702 0
M  V30 3305 N 307.445 0.0818655 -1.57387 0
M  V30 3306 C 308.408 1.08265 -2.02018 0
M  V30 3307 C 309.408 1.32183 -0.915664 0
M  V30 3308 O 310.598 1.28073 -1.18081 0
M  V30 3309 C 307.73 2.42871 -2.39221 0
M  V30 3310 H 308.923 0.698204 -2.91659 0
M  V30 3311 H 306.476 0.327303 -1.52835 0
M  V30 3312 H 307.211 2.86167 -1.52575 0
M  V30 3313 H 306.996 2.26855 -3.19811 0
M  V30 3314 H 308.486 3.14826 -2.74362 0
M  V30 3315 N 308.923 1.53595 0.353017 0
M  V30 3316 C 310.151 1.74311 1.1146 0
M  V30 3317 C 310.566 0.477854 1.82653 0
M  V30 3318 O 309.923 -0.549977 1.74016 0
M  V30 3319 C 309.974 2.91694 2.13534 0
M  V30 3320 O 309.695 4.13325 1.45238 0
M  V30 3321 C 311.196 3.24384 3.02142 0
M  V30 3322 H 308.416 0.582669 0.332773 0
M  V30 3323 H 310.96 2.00386 0.408107 0
M  V30 3324 H 309.115 2.67977 2.79763 0
M  V30 3325 H 309.529 4.79148 2.13349 0
M  V30 3326 H 311.003 4.09893 3.69718 0
M  V30 3327 H 311.48 2.40282 3.67643 0
M  V30 3328 H 312.086 3.50073 2.41514 0
M  V30 3329 N 310.401 -0.613514 1.45168 0
M  V30 3330 C 311.333 -1.73825 1.4939 0
M  V30 3331 C 312.346 -1.58175 0.385304 0
M  V30 3332 O 313.535 -1.66165 0.652036 0
M  V30 3333 C 310.635 -3.11758 1.32891 0
M  V30 3334 C 309.808 -3.53704 2.57317 0
M  V30 3335 C 308.867 -4.70579 2.35462 0
M  V30 3336 O 307.893 -4.77996 3.09044 0
M  V30 3337 N 309.095 -5.63454 1.39644 0
M  V30 3338 H 311.86 -1.70669 2.46358 0
M  V30 3339 H 309.421 -0.79862 1.40832 0
M  V30 3340 H 311.413 -3.87692 1.1609 0
M  V30 3341 H 309.983 -3.09456 0.442218 0
M  V30 3342 H 309.203 -2.67794 2.89275 0
M  V30 3343 H 310.491 -3.78486 3.40038 0
M  V30 3344 H 309.889 -5.6017 0.789062 0
M  V30 3345 H 308.446 -6.38944 1.28816 0
M  V30 3346 N 311.879 -1.3236 -0.855495 0
M  V30 3347 C 313.127 -1.22629 -1.60644 0
M  V30 3348 C 313.448 0.212136 -1.93843 0
M  V30 3349 O 312.718 1.13666 -1.59552 0
M  V30 3350 H 311.298 -0.450882 -0.595579 0
M  V30 3351 H 313.96 -1.65871 -1.02337 0
M  V30 3352 H 313.056 -1.80832 -2.54374 0
M  V30 3353 N 313.357 1.07166 -1.15556 0
M  V30 3354 C 314.304 2.14417 -0.854055 0
M  V30 3355 C 315.274 1.64965 0.193806 0
M  V30 3356 O 316.459 1.90703 0.0609443 0
M  V30 3357 C 313.599 3.43304 -0.351574 0
M  V30 3358 C 312.712 4.06537 -1.46123 0
M  V30 3359 C 311.847 5.23266 -0.914677 0
M  V30 3360 C 310.886 5.78464 -2.00114 0
M  V30 3361 N 310.023 6.86521 -1.47083 0
M  V30 3362 H 314.863 2.39548 -1.77259 0
M  V30 3363 H 312.4 1.17543 -0.884425 0
M  V30 3364 H 314.358 4.17179 -0.0419409 0
M  V30 3365 H 312.988 3.18419 0.530037 0
M  V30 3366 H 312.04 3.30297 -1.88701 0
M  V30 3367 H 313.352 4.43567 -2.28144 0
M  V30 3368 H 312.506 6.04131 -0.557698 0
M  V30 3369 H 311.245 4.87658 -0.0636583 0
M  V30 3370 H 310.25 4.96243 -2.36692 0
M  V30 3371 H 311.475 6.16126 -2.85597 0
M  V30 3372 H 309.421 6.52849 -0.642198 0
M  V30 3373 H 309.338 7.22446 -2.22729 0
M  V30 3374 H 310.606 7.71087 -1.14215 0
M  V30 3375 N 314.835 0.952656 1.25548 0
M  V30 3376 C 315.745 0.47782 2.29682 0
M  V30 3377 C 316.761 -0.453859 1.67977 0
M  V30 3378 O 317.937 -0.330587 1.98668 0
M  V30 3379 C 315.002 -0.238655 3.45878 0
M  V30 3380 C 314.063 0.730994 4.23031 0
M  V30 3381 C 313.296 0.0486165 5.33678 0
M  V30 3382 O 313.519 -1.16612 5.58353 0
M  V30 3383 O 312.453 0.733152 5.97418 0
M  V30 3384 H 316.279 1.34312 2.72386 0
M  V30 3385 H 313.864 0.719026 1.30959 0
M  V30 3386 H 315.746 -0.641774 4.16484 0
M  V30 3387 H 314.421 -1.07916 3.05181 0
M  V30 3388 H 313.328 1.18428 3.5486 0
M  V30 3389 H 314.661 1.53946 4.67506 0
M  V30 3390 N 316.313 -1.40141 0.720998 0
M  V30 3391 C 317.559 -2.01572 0.272075 0
M  V30 3392 C 317.914 -1.5616 -1.12391 0
M  V30 3393 O 317.207 -0.774198 -1.75262 0
M  V30 3394 C 317.401 -3.56165 0.296892 0
M  V30 3395 C 317.23 -4.16584 1.69375 0
M  V30 3396 C 316 -4.49783 2.30269 0
M  V30 3397 C 318.198 -4.41076 2.64493 0
M  V30 3398 N 316.18 -4.95626 3.62254 0
M  V30 3399 C 317.551 -4.88971 3.81192 0
M  V30 3400 C 319.606 -4.23122 2.62435 0
M  V30 3401 C 318.309 -5.20796 4.96149 0
M  V30 3402 C 320.335 -4.56052 3.76524 0
M  V30 3403 C 319.697 -5.04141 4.91956 0
M  V30 3404 H 315.796 -0.768343 0.145511 0
M  V30 3405 H 318.38 -1.70287 0.943959 0
M  V30 3406 H 316.551 -3.86868 -0.344578 0
M  V30 3407 H 318.283 -4.04346 -0.169254 0
M  V30 3408 H 315.038 -4.37101 1.82318 0
M  V30 3409 H 315.462 -5.22923 4.29977 0
M  V30 3410 H 320.104 -3.85158 1.74393 0
M  V30 3411 H 317.822 -5.57672 5.84831 0
M  V30 3412 H 321.408 -4.43796 3.76213 0
M  V30 3413 H 320.288 -5.29142 5.78774 0
M  V30 3414 N 317.792 -0.46758 -1.50504 0
M  V30 3415 C 319.039 0.0886219 -2.02306 0
M  V30 3416 C 319.367 1.40037 -1.34981 0
M  V30 3417 O 318.622 1.90136 -0.463318 0
M  V30 3418 C 318.921 0.323995 -3.55928 0
M  V30 3419 C 318.587 -0.905618 -4.41712 0
M  V30 3420 C 317.249 -1.24275 -4.64875 0
M  V30 3421 C 319.601 -1.72448 -4.91845 0
M  V30 3422 C 316.929 -2.39888 -5.35417 0
M  V30 3423 C 319.281 -2.87185 -5.63656 0
M  V30 3424 C 317.945 -3.21317 -5.85074 0
M  V30 3425 H 317.215 0.0324291 -0.74029 0
M  V30 3426 H 319.862 -0.620945 -1.81153 0
M  V30 3427 H 318.167 1.11577 -3.75577 0
M  V30 3428 H 319.864 0.76826 -3.93572 0
M  V30 3429 H 316.454 -0.632956 -4.239 0
M  V30 3430 H 320.638 -1.4772 -4.73806 0
M  V30 3431 H 315.894 -2.66611 -5.50208 0
M  V30 3432 H 320.068 -3.50985 -6.01484 0
M  V30 3433 H 317.695 -4.1101 -6.39511 0
M  V30 3434 N 319.27 1.56325 -0.20005 0
M  V30 3435 C 320.233 2.18084 0.705132 0
M  V30 3436 C 321.233 1.13666 1.1374 0
M  V30 3437 O 322.423 1.39023 1.04968 0
M  V30 3438 C 319.555 2.78689 1.96329 0
M  V30 3439 H 320.748 2.99435 0.167023 0
M  V30 3440 H 318.301 1.56221 0.0495725 0
M  V30 3441 H 319.036 2.0115 2.5438 0
M  V30 3442 H 318.821 3.55133 1.66202 0
M  V30 3443 H 320.311 3.26096 2.60866 0
M  V30 3444 N 320.748 -0.0735177 1.57428 0
M  V30 3445 C 321.978 -0.78483 1.91112 0
M  V30 3446 C 322.386 -1.71729 0.7941 0
M  V30 3447 O 321.729 -1.82105 -0.241542 0
M  V30 3448 C 321.791 -1.63346 3.20247 0
M  V30 3449 C 321.455 -0.870557 4.48632 0
M  V30 3450 C 322.452 -0.19058 5.19551 0
M  V30 3451 C 320.137 -0.838242 4.95256 0
M  V30 3452 C 322.131 0.511503 6.35344 0
M  V30 3453 C 319.818 -0.132386 6.10957 0
M  V30 3454 C 320.816 0.541288 6.80852 0
M  V30 3455 O 320.504 1.23578 7.94345 0
M  V30 3456 H 320.236 -0.228408 0.636244 0
M  V30 3457 H 322.79 -0.0486039 2.05342 0
M  V30 3458 H 321.02 -2.41245 3.02222 0
M  V30 3459 H 322.709 -2.22329 3.39595 0
M  V30 3460 H 323.475 -0.206864 4.84559 0
M  V30 3461 H 319.354 -1.35206 4.40727 0
M  V30 3462 H 322.898 1.03789 6.89836 0
M  V30 3463 H 318.795 -0.114023 6.45399 0
M  V30 3464 H 319.563 1.14487 8.10454 0
M  V30 3465 N 322.226 -1.5378 -0.344866 0
M  V30 3466 C 323.156 -1.84662 -1.42906 0
M  V30 3467 C 324.137 -0.701648 -1.54955 0
M  V30 3468 O 325.322 -0.953438 -1.69184 0
M  V30 3469 C 322.452 -2.05503 -2.79974 0
M  V30 3470 C 321.406 -3.21318 -2.82734 0
M  V30 3471 C 320.732 -3.2749 -4.22675 0
M  V30 3472 C 322.032 -4.59456 -2.48389 0
M  V30 3473 H 323.726 -2.75461 -1.17311 0
M  V30 3474 H 321.272 -1.32542 -0.562896 0
M  V30 3475 H 323.225 -2.25691 -3.55867 0
M  V30 3476 H 321.949 -1.11434 -3.07002 0
M  V30 3477 H 320.608 -3.00984 -2.09294 0
M  V30 3478 H 320.256 -2.31019 -4.4681 0
M  V30 3479 H 319.956 -4.05316 -4.25433 0
M  V30 3480 H 321.48 -3.49887 -5.00412 0
M  V30 3481 H 322.894 -4.79667 -3.13995 0
M  V30 3482 H 321.291 -5.39675 -2.62432 0
M  V30 3483 H 322.361 -4.63155 -1.4358 0
M  V30 3484 N 323.704 0.605807 -1.45491 0
M  V30 3485 C 324.667 1.69836 -1.5391 0
M  V30 3486 C 325.667 1.55261 -0.418424 0
M  V30 3487 O 326.857 1.60296 -0.681965 0
M  V30 3488 C 323.989 3.09117 -1.43734 0
M  V30 3489 H 325.182 1.63738 -2.51257 0
M  V30 3490 H 322.735 0.821689 -1.32959 0
M  V30 3491 H 323.47 3.20791 -0.475788 0
M  V30 3492 H 323.255 3.21104 -2.25021 0
M  V30 3493 H 324.745 3.88696 -1.52661 0
M  V30 3494 N 325.182 1.32811 0.848464 0
M  V30 3495 C 326.092 1.24278 1.98978 0
M  V30 3496 C 327.108 0.155176 1.73307 0
M  V30 3497 O 328.284 0.376999 1.9784 0
M  V30 3498 C 325.349 0.972444 3.32783 0
M  V30 3499 C 324.41 2.14911 3.71634 0
M  V30 3500 C 323.643 1.89157 4.99054 0
M  V30 3501 O 323.866 0.837165 5.64223 0
M  V30 3502 O 322.8 2.75433 5.35183 0
M  V30 3503 H 326.626 2.20238 2.09115 0
M  V30 3504 H 324.211 1.12762 0.980052 0
M  V30 3505 H 326.093 0.838432 4.12975 0
M  V30 3506 H 324.768 0.043051 3.23671 0
M  V30 3507 H 323.675 2.33862 2.91992 0
M  V30 3508 H 325.008 3.06151 3.85399 0
M  V30 3509 N 326.66 -1.06551 1.16123 0
M  V30 3510 C 327.908 -1.78947 0.939267 0
M  V30 3511 C 328.229 -1.87532 -0.534476 0
M  V30 3512 O 327.499 -1.38211 -1.38833 0
M  V30 3513 H 326.079 -0.662807 0.344523 0
M  V30 3514 H 328.741 -1.28725 1.46342 0
M  V30 3515 H 327.837 -2.81117 1.35572 0
M  V30 3516 N 328.138 -0.959301 -1.25041 0
M  V30 3517 C 329.07 -0.440543 -2.24926 0
M  V30 3518 C 330.083 0.446131 -1.56568 0
M  V30 3519 O 331.272 0.253657 -1.76689 0
M  V30 3520 C 328.372 0.38412 -3.36716 0
M  V30 3521 C 327.545 -0.490658 -4.34639 0
M  V30 3522 C 326.604 0.276587 -5.25473 0
M  V30 3523 O 325.63 -0.326614 -5.68262 0
M  V30 3524 N 326.832 1.56844 -5.5891 0
M  V30 3525 H 329.597 -1.29931 -2.70071 0
M  V30 3526 H 327.158 -0.830181 -1.38995 0
M  V30 3527 H 329.15 0.905228 -3.94446 0
M  V30 3528 H 327.72 1.14377 -2.90924 0
M  V30 3529 H 326.94 -1.19282 -3.7572 0
M  V30 3530 H 328.228 -1.08756 -4.97041 0
M  V30 3531 H 327.626 2.08036 -5.26059 0
M  V30 3532 H 326.183 2.03541 -6.19205 0
M  V30 3533 N 329.616 1.39756 -0.72842 0
M  V30 3534 C 330.564 2.32485 -0.0731849 0
M  V30 3535 C 331.558 1.52717 0.733063 0
M  V30 3536 O 332.764 1.68428 0.634988 0
M  V30 3537 H 329.139 0.751984 -0.00486469 0
M  V30 3538 H 331.11 2.85382 -0.871761 0
M  V30 3539 C 329.859 3.37773 0.824908 0
M  V30 3540 H 329.182 3.99227 0.213915 0
M  V30 3541 H 330.622 4.05121 1.25111 0
M  V30 3542 C 329.081 2.74287 1.95622 0
M  V30 3543 O 329.611 2.61618 3.04826 0
M  V30 3544 N 327.817 2.32475 1.74367 0
M  V30 3545 H 327.364 2.4298 0.855494 0
M  V30 3546 H 327.322 1.90337 2.50238 0
M  V30 3547 N 331.094 0.475555 1.50254 0
M  V30 3548 C 332.044 -0.335025 2.25525 0
M  V30 3549 C 333.028 -0.957625 1.29299 0
M  V30 3550 O 334.22 -0.869436 1.54175 0
M  V30 3551 C 331.349 -1.41385 3.12834 0
M  V30 3552 C 330.435 -0.798762 4.1651 0
M  V30 3553 N 330.826 0.0835815 5.05731 0
M  V30 3554 C 329.124 -1.06221 4.33166 0
M  V30 3555 C 329.825 0.433113 5.80085 0
M  V30 3556 N 328.801 -0.1928 5.43258 0
M  V30 3557 H 332.603 0.344612 2.91873 0
M  V30 3558 H 330.117 0.289986 1.5979 0
M  V30 3559 H 332.114 -2.00777 3.65368 0
M  V30 3560 H 330.774 -2.09543 2.48036 0
M  V30 3561 H 331.785 0.452715 5.15918 0
M  V30 3562 H 328.462 -1.73844 3.79585 0
M  V30 3563 H 329.852 1.15346 6.61925 0
M  V30 3564 N 332.573 -1.56217 0.208337 0
M  V30 3565 C 333.505 -2.1695 -0.739276 0
M  V30 3566 C 334.518 -1.13492 -1.1672 0
M  V30 3567 O 335.707 -1.40529 -1.10063 0
M  V30 3568 C 332.807 -2.72755 -2.01142 0
M  V30 3569 C 331.98 -4.0125 -1.74118 0
M  V30 3570 C 331.039 -4.41749 -2.85909 0
M  V30 3571 O 330.065 -5.08912 -2.54946 0
M  V30 3572 N 331.267 -4.06342 -4.14568 0
M  V30 3573 H 334.032 -2.98893 -0.219837 0
M  V30 3574 H 331.593 -1.61878 0.0268445 0
M  V30 3575 H 333.585 -2.96826 -2.75094 0
M  V30 3576 H 332.155 -1.95191 -2.4417 0
M  V30 3577 H 331.375 -3.85173 -0.838775 0
M  V30 3578 H 332.663 -4.851 -1.53477 0
M  V30 3579 H 332.061 -3.52345 -4.42571 0
M  V30 3580 H 330.618 -4.35335 -4.85105 0
M  V30 3581 N 334.051 0.0651679 -1.57465 0
M  V30 3582 C 334.999 1.09542 -2.05191 0
M  V30 3583 C 335.993 1.39675 -0.958509 0
M  V30 3584 O 337.199 1.39003 -1.14359 0
M  V30 3585 H 333.574 0.370623 -0.654326 0
M  V30 3586 H 335.545 0.666802 -2.90854 0
M  V30 3587 C 334.294 2.39881 -2.51699 0
M  V30 3588 H 333.617 2.17547 -3.3543 0
M  V30 3589 H 335.057 3.104 -2.88839 0
M  V30 3590 C 333.516 3.0631 -1.40271 0
M  V30 3591 O 334.046 3.94664 -0.748523 0
M  V30 3592 N 332.252 2.67041 -1.14618 0
M  V30 3593 H 331.799 1.95281 -1.67997 0
M  V30 3594 H 331.757 3.1181 -0.402688 0
M  V30 3595 N 335.529 1.53961 0.336706 0
M  V30 3596 C 336.754 1.75797 1.10046 0
M  V30 3597 C 337.179 0.498985 1.81361 0
M  V30 3598 O 336.537 -0.548769 1.72795 0
M  V30 3599 C 336.585 2.94257 2.08436 0
M  V30 3600 O 335.689 2.64883 3.16087 0
M  V30 3601 H 335.03 0.582936 0.317934 0
M  V30 3602 H 337.56 2.00945 0.38501 0
M  V30 3603 H 337.57 3.21237 2.51537 0
M  V30 3604 H 336.245 3.85564 1.55927 0
M  V30 3605 H 334.822 2.48812 2.77753 0
M  V30 3606 N 337.007 -0.598083 1.45811 0
M  V30 3607 C 338.235 -1.38322 1.53866 0
M  V30 3608 C 338.65 -1.87992 0.174479 0
M  V30 3609 O 338.007 -1.62756 -0.825627 0
M  V30 3610 C 338.058 -2.58125 2.53089 0
M  V30 3611 O 337.779 -2.10516 3.84206 0
M  V30 3612 C 339.28 -3.50869 2.70935 0
M  V30 3613 H 336.5 -0.423093 0.520801 0
M  V30 3614 H 339.044 -0.728527 1.91083 0
M  V30 3615 H 337.199 -3.19615 2.18917 0
M  V30 3616 H 337.613 -2.88425 4.38077 0
M  V30 3617 H 339.087 -4.31451 3.44317 0
M  V30 3618 H 339.564 -4.01822 1.77301 0
M  V30 3619 H 340.17 -2.95225 3.06141 0
M  V30 3620 N 338.485 -1.33259 -0.841409 0
M  V30 3621 C 339.713 -1.27605 -1.62864 0
M  V30 3622 C 340.128 0.153507 -1.88175 0
M  V30 3623 O 339.485 1.09485 -1.46011 0
M  V30 3624 C 339.536 -2.04596 -2.98031 0
M  V30 3625 O 339.257 -3.41975 -2.73834 0
M  V30 3626 C 340.758 -2.06122 -3.92465 0
M  V30 3627 H 337.978 -0.439718 -0.506842 0
M  V30 3628 H 340.522 -1.75591 -1.04824 0
M  V30 3629 H 338.677 -1.60299 -3.5268 0
M  V30 3630 H 339.091 -3.81549 -3.59889 0
M  V30 3631 H 340.565 -2.64451 -4.84531 0
M  V30 3632 H 341.042 -1.05083 -4.26444 0
M  V30 3633 H 341.648 -2.50427 -3.43753 0
M  V30 3634 N 339.963 1.05934 -1.16686 0
M  V30 3635 C 341.24 1.75643 -0.860747 0
M  V30 3636 C 341.62 2.01144 0.640641 0
M  V30 3637 O 340.968 1.64147 1.58959 0
M  V30 3638 C 341.178 3.05493 -1.68745 0
M  V30 3639 C 342.526 3.79581 -1.90271 0
M  V30 3640 O 343.55 3.15344 -1.65641 0
M  V30 3641 O 342.409 4.9499 -2.31618 0
M  V30 3642 H 339.503 0.763426 -0.317977 0
M  V30 3643 H 342.049 1.1217 -1.27342 0
M  V30 3644 H 340.821 2.8264 -2.70611 0
M  V30 3645 H 340.444 3.76702 -1.27206 0
M  V30 3646 N 341.441 0.965919 1.2453 0
M  V30 3647 C 342.389 0.486506 2.27455 0
M  V30 3648 C 343.383 -0.449041 1.6334 0
M  V30 3649 O 344.589 -0.324527 1.7705 0
M  V30 3650 H 340.964 0.138857 0.739069 0
M  V30 3651 H 342.935 1.3666 2.65267 0
M  V30 3652 C 341.684 -0.209481 3.47068 0
M  V30 3653 H 341.007 0.50129 3.96645 0
M  V30 3654 H 342.447 -0.508775 4.20936 0
M  V30 3655 C 340.906 -1.43586 3.0477 0
M  V30 3656 O 341.436 -2.53299 3.11773 0
M  V30 3657 N 339.642 -1.30126 2.59838 0
M  V30 3658 H 339.189 -0.408583 2.54339 0
M  V30 3659 H 339.147 -2.12294 2.31902 0
M  V30 3660 N 342.919 -1.39368 0.735821 0
M  V30 3661 C 344.168 -1.99733 0.281004 0
M  V30 3662 C 344.481 -1.59055 -1.13846 0
M  V30 3663 O 345.687 -2.12262 -1.69284 0
M  V30 3664 C 344.143 -3.57057 0.451462 0
M  V30 3665 C 343.751 -4.06697 1.87886 0
M  V30 3666 C 345.495 -4.2446 0.0584616 0
M  V30 3667 C 343.402 -5.56598 1.99883 0
M  V30 3668 H 342.332 -0.747163 0.101311 0
M  V30 3669 H 344.983 -1.59357 0.909819 0
M  V30 3670 H 343.365 -3.95234 -0.246263 0
M  V30 3671 H 344.539 -3.79853 2.60861 0
M  V30 3672 H 342.854 -3.5196 2.22515 0
M  V30 3673 H 345.451 -5.34549 0.127099 0
M  V30 3674 H 345.794 -4.04444 -0.986433 0
M  V30 3675 H 346.327 -3.9146 0.707374 0
M  V30 3676 H 343.066 -5.81494 3.02564 0
M  V30 3677 H 342.586 -5.85242 1.31346 0
M  V30 3678 H 344.265 -6.22022 1.78039 0
M  V30 3679 N 344.397 -0.483516 -1.5 0
M  V30 3680 C 345.622 0.0667119 -2.07293 0
M  V30 3681 C 346.047 1.3164 -1.3436 0
M  V30 3682 O 345.405 1.76945 -0.394987 0
M  V30 3683 C 345.453 0.321126 -3.59167 0
M  V30 3684 O 344.557 1.39927 -3.87936 0
M  V30 3685 H 343.898 -0.0184758 -0.663743 0
M  V30 3686 H 346.428 -0.678125 -1.93035 0
M  V30 3687 H 346.438 0.557906 -4.04168 0
M  V30 3688 H 345.113 -0.592007 -4.11665 0
M  V30 3689 H 343.69 1.14882 -3.54763 0
M  V30 3690 N 345.875 1.56104 -0.216619 0
M  V30 3691 C 347.121 1.98466 0.417033 0
M  V30 3692 C 347.454 1.10403 1.59765 0
M  V30 3693 O 346.729 0.160632 1.93836 0
M  V30 3694 C 347.012 3.49769 0.85637 0
M  V30 3695 C 346.865 4.48606 -0.327546 0
M  V30 3696 C 348.184 4.05339 1.7143 0
M  V30 3697 H 345.303 0.721551 0.150112 0
M  V30 3698 H 347.945 1.87423 -0.311864 0
M  V30 3699 H 346.095 3.5931 1.47745 0
M  V30 3700 H 347.767 4.5108 -0.965618 0
M  V30 3701 H 346.01 4.22682 -0.975805 0
M  V30 3702 H 346.681 5.51995 0.0227149 0
M  V30 3703 H 349.157 3.98712 1.19031 0
M  V30 3704 H 348.033 5.11533 1.99061 0
M  V30 3705 H 348.294 3.51918 2.67593 0
M  V30 3706 N 347.353 -0.0568162 1.57498 0
M  V30 3707 C 348.602 -0.752001 1.87157 0
M  V30 3708 C 348.915 -1.77978 0.811375 0
M  V30 3709 O 350.121 -2.52559 0.996293 0
M  V30 3710 C 348.577 -1.38844 3.3204 0
M  V30 3711 C 348.185 -0.398456 4.46225 0
M  V30 3712 C 349.929 -2.06512 3.70882 0
M  V30 3713 C 347.836 -1.04166 5.82154 0
M  V30 3714 H 346.766 -0.28461 0.698222 0
M  V30 3715 H 349.417 -0.00561272 1.83499 0
M  V30 3716 H 347.799 -2.1836 3.30356 0
M  V30 3717 H 348.973 0.367977 4.59328 0
M  V30 3718 H 347.288 0.174592 4.16034 0
M  V30 3719 H 349.885 -2.55437 4.6974 0
M  V30 3720 H 350.228 -2.87117 3.01445 0
M  V30 3721 H 350.761 -1.33808 3.7462 0
M  V30 3722 H 347.5 -0.275614 6.5492 0
M  V30 3723 H 347.02 -1.7786 5.72823 0
M  V30 3724 H 348.699 -1.55715 6.27982 0
M  V30 3725 N 348.832 -1.54138 -0.328536 0
M  V30 3726 C 349.78 -1.83894 -1.42428 0
M  V30 3727 C 350.774 -0.710478 -1.53781 0
M  V30 3728 O 351.98 -0.894062 -1.56226 0
M  V30 3729 H 348.355 -0.582837 -0.475189 0
M  V30 3730 H 350.326 -2.75537 -1.14552 0
M  V30 3731 C 349.075 -2.07866 -2.78724 0
M  V30 3732 H 348.398 -2.94158 -2.7076 0
M  V30 3733 H 349.838 -2.32644 -3.54476 0
M  V30 3734 C 348.297 -0.868689 -3.25508 0
M  V30 3735 O 348.827 -0.0754908 -4.01629 0
M  V30 3736 N 347.033 -0.681711 -2.82491 0
M  V30 3737 H 346.58 -1.32838 -2.20708 0
M  V30 3738 H 346.538 0.126374 -3.14146 0
M  V30 3739 N 350.31 0.590341 -1.46126 0
M  V30 3740 C 351.258 1.72105 -1.5647 0
M  V30 3741 C 352.252 1.63756 -0.433612 0
M  V30 3742 O 353.458 1.69342 -0.610194 0
M  V30 3743 H 349.833 0.568889 -0.491802 0
M  V30 3744 H 351.804 1.6051 -2.51553 0
M  V30 3745 C 350.553 3.10493 -1.56491 0
M  V30 3746 H 349.876 3.17583 -2.4286 0
M  V30 3747 H 351.316 3.8939 -1.67785 0
M  V30 3748 C 349.775 3.3563 -0.292231 0
M  V30 3749 O 350.305 3.96875 0.620739 0
M  V30 3750 N 348.511 2.90026 -0.182523 0
M  V30 3751 H 348.058 2.40367 -0.926356 0
M  V30 3752 H 348.016 3.07218 0.668152 0
M  V30 3753 N 351.788 1.33704 0.83433 0
M  V30 3754 C 352.736 1.24323 1.96587 0
M  V30 3755 C 353.73 0.143659 1.6879 0
M  V30 3756 O 354.936 0.30791 1.77347 0
M  V30 3757 H 351.311 0.385925 0.645419 0
M  V30 3758 H 353.282 2.19978 2.01624 0
M  V30 3759 C 352.031 1.00394 3.32891 0
M  V30 3760 H 351.354 1.84231 3.54822 0
M  V30 3761 H 352.794 0.97862 4.12552 0
M  V30 3762 C 351.253 -0.293047 3.35623 0
M  V30 3763 O 351.783 -1.29823 3.80143 0
M  V30 3764 N 349.989 -0.322174 2.88809 0
M  V30 3765 H 349.536 0.496379 2.52772 0
M  V30 3766 H 349.494 -1.18977 2.91019 0
M  V30 3767 N 353.266 -1.05314 1.17247 0
M  V30 3768 C 354.543 -1.75184 0.87005 0
M  V30 3769 C 354.923 -2.01481 -0.629965 0
M  V30 3770 O 354.271 -1.64988 -1.58086 0
M  V30 3771 C 354.481 -3.04594 1.70363 0
M  V30 3772 C 355.829 -3.78567 1.92281 0
M  V30 3773 O 356.853 -3.14461 1.67311 0
M  V30 3774 O 355.712 -4.93755 2.3424 0
M  V30 3775 H 352.806 -0.761729 0.322021 0
M  V30 3776 H 355.352 -1.11493 1.27935 0
M  V30 3777 H 354.124 -2.81201 2.72106 0
M  V30 3778 H 353.747 -3.76022 1.29202 0
M  V30 3779 N 354.744 -0.972509 -1.24016 0
M  V30 3780 C 355.674 -0.525548 -2.27509 0
M  V30 3781 C 356.655 0.437262 -1.64384 0
M  V30 3782 O 357.84 0.332343 -1.91335 0
M  V30 3783 C 354.97 0.180448 -3.46831 0
M  V30 3784 C 353.924 -0.698859 -4.22256 0
M  V30 3785 C 353.25 0.138903 -5.3452 0
M  V30 3786 C 354.55 -1.98582 -4.83076 0
M  V30 3787 H 356.244 -1.39058 -2.65148 0
M  V30 3788 H 353.79 -0.67009 -1.27459 0
M  V30 3789 H 355.743 0.504387 -4.18371 0
M  V30 3790 H 354.467 1.07987 -3.08231 0
M  V30 3791 H 353.126 -1.00614 -3.52523 0
M  V30 3792 H 352.774 1.03862 -4.9216 0
M  V30 3793 H 352.474 -0.446259 -5.85903 0
M  V30 3794 H 353.998 0.457404 -6.08884 0
M  V30 3795 H 355.412 -1.72715 -5.46665 0
M  V30 3796 H 353.809 -2.5181 -5.44713 0
M  V30 3797 H 354.879 -2.67769 -4.04262 0
M  V30 3798 N 356.222 1.38976 -0.743202 0
M  V30 3799 C 357.132 2.3434 -0.110399 0
M  V30 3800 C 358.148 1.58741 0.712559 0
M  V30 3801 O 359.324 1.9099 0.639125 0
M  V30 3802 C 356.389 3.37812 0.780012 0
M  V30 3803 C 355.45 4.29263 -0.0561319 0
M  V30 3804 C 354.683 5.27793 0.791875 0
M  V30 3805 O 354.906 5.33043 2.03031 0
M  V30 3806 O 353.84 6.01512 0.216183 0
M  V30 3807 H 357.666 2.90129 -0.897714 0
M  V30 3808 H 355.251 1.40643 -0.503966 0
M  V30 3809 H 357.133 4.01194 1.28923 0
M  V30 3810 H 355.808 2.84395 1.546 0
M  V30 3811 H 354.715 3.69076 -0.611056 0
M  V30 3812 H 356.048 4.85907 -0.784531 0
M  V30 3813 N 357.7 0.491464 1.49741 0
M  V30 3814 C 358.63 -0.28154 2.31796 0
M  V30 3815 C 359.611 -0.971473 1.3963 0
M  V30 3816 O 360.796 -0.964719 1.68543 0
M  V30 3817 C 357.926 -1.35203 3.19902 0
M  V30 3818 C 356.88 -0.782529 4.20786 0
M  V30 3819 C 356.206 -1.95283 4.97764 0
M  V30 3820 C 357.506 0.21999 5.21837 0
M  V30 3821 H 359.2 0.403355 2.96671 0
M  V30 3822 H 356.746 0.195425 1.42668 0
M  V30 3823 H 358.699 -1.90045 3.76113 0
M  V30 3824 H 357.423 -2.06598 2.52953 0
M  V30 3825 H 356.082 -0.255928 3.65706 0
M  V30 3826 H 355.73 -2.65423 4.2727 0
M  V30 3827 H 355.43 -1.57789 5.66018 0
M  V30 3828 H 356.954 -2.50577 5.56816 0
M  V30 3829 H 358.368 -0.23996 5.72798 0
M  V30 3830 H 356.765 0.51026 5.97927 0
M  V30 3831 H 357.835 1.13911 4.7133 0
M  V30 3832 N 359.178 -1.55987 0.224894 0
M  V30 3833 C 360.594 -1.59066 -0.130426 0
M  V30 3834 C 360.794 -1.24176 -1.5869 0
M  V30 3835 O 359.85 -0.978592 -2.32766 0
M  V30 3836 C 361.163 -3.00042 0.198883 0
M  V30 3837 C 362.711 -3.1268 0.141391 0
M  V30 3838 C 363.186 -4.55839 0.444422 0
M  V30 3839 N 364.677 -4.6152 0.394115 0
M  V30 3840 C 365.412 -5.70231 0.602038 0
M  V30 3841 N 364.908 -6.87291 0.871914 0
M  V30 3842 N 366.701 -5.59555 0.534245 0
M  V30 3843 H 358.852 -1.76941 1.17497 0
M  V30 3844 H 361.115 -0.822604 0.471197 0
M  V30 3845 H 360.821 -3.30234 1.2099 0
M  V30 3846 H 360.695 -3.74075 -0.484535 0
M  V30 3847 H 363.082 -2.82283 -0.860265 0
M  V30 3848 H 363.163 -2.40969 0.858335 0
M  V30 3849 H 362.807 -4.86954 1.44353 0
M  V30 3850 H 362.737 -5.2578 -0.293752 0
M  V30 3851 H 365.228 -3.77405 0.193356 0
M  V30 3852 H 365.541 -7.66058 1.01858 0
M  V30 3853 H 363.886 -6.89028 0.909145 0
M  V30 3854 H 367.077 -4.6698 0.323612 0
M  V30 3855 H 367.25 -6.44211 0.699693 0
M  V30 3856 N 360.656 0.0484629 -1.57525 0
M  V30 3857 C 361.881 0.759177 -1.93006 0
M  V30 3858 C 362.306 1.69125 -0.823317 0
M  V30 3859 O 361.664 1.79931 0.222364 0
M  V30 3860 C 361.712 1.50899 -3.27509 0
M  V30 3861 O 360.816 2.62112 -3.18388 0
M  V30 3862 H 360.157 0.205564 -0.631379 0
M  V30 3863 H 362.687 0.00972959 -2.04598 0
M  V30 3864 H 362.697 1.88317 -3.6194 0
M  V30 3865 H 361.372 0.825269 -4.0763 0
M  V30 3866 H 359.949 2.27379 -2.95556 0
M  V30 3867 N 362.134 1.5431 0.320358 0
M  V30 3868 C 363.064 1.86912 1.3995 0
M  V30 3869 C 364.045 0.726211 1.53819 0
M  V30 3870 O 365.23 0.980233 1.67646 0
M  V30 3871 C 362.36 2.09932 2.7667 0
M  V30 3872 C 361.314 3.25776 2.77586 0
M  V30 3873 C 360.64 3.34173 4.17412 0
M  V30 3874 C 361.94 4.6335 2.41048 0
M  V30 3875 H 363.634 2.77292 1.12914 0
M  V30 3876 H 361.18 1.33421 0.541738 0
M  V30 3877 H 363.133 2.31324 3.52232 0
M  V30 3878 H 361.857 1.16304 3.0519 0
M  V30 3879 H 360.516 3.04276 2.04479 0
M  V30 3880 H 360.164 2.38098 4.43078 0
M  V30 3881 H 359.864 4.12033 4.18931 0
M  V30 3882 H 361.388 3.57803 4.94782 0
M  V30 3883 H 362.802 4.84602 3.06324 0
M  V30 3884 H 361.199 5.43782 2.53813 0
M  V30 3885 H 362.269 4.65381 1.36193 0
M  V30 3886 N 363.613 -0.582584 1.46437 0
M  V30 3887 C 364.859 -1.34278 1.51978 0
M  V30 3888 C 365.192 -1.93446 0.170973 0
M  V30 3889 O 364.467 -1.76481 -0.817608 0
M  V30 3890 C 364.75 -2.47203 2.61845 0
M  V30 3891 C 364.603 -1.93069 4.06257 0
M  V30 3892 C 365.922 -3.49247 2.67795 0
M  V30 3893 H 363.041 -0.486876 0.553282 0
M  V30 3894 H 365.683 -0.654437 1.78374 0
M  V30 3895 H 363.833 -3.0592 2.39469 0
M  V30 3896 H 365.505 -1.38808 4.3992 0
M  V30 3897 H 363.748 -1.23898 4.1573 0
M  V30 3898 H 364.419 -2.74586 4.7886 0
M  V30 3899 H 366.895 -3.00411 2.8791 0
M  V30 3900 H 365.771 -4.25719 3.46489 0
M  V30 3901 H 366.032 -4.06482 1.73852 0
M  V30 3902 N 365.091 -1.34144 -0.827227 0
M  V30 3903 C 366.337 -1.27455 -1.58515 0
M  V30 3904 C 366.692 0.155271 -1.91772 0
M  V30 3905 O 365.985 1.10042 -1.56848 0
M  V30 3906 C 366.179 -2.09464 -2.89585 0
M  V30 3907 C 366.008 -3.60276 -2.69131 0
M  V30 3908 C 364.778 -4.29565 -2.66087 0
M  V30 3909 C 366.976 -4.54367 -2.40947 0
M  V30 3910 N 364.958 -5.66252 -2.37132 0
M  V30 3911 C 366.329 -5.79027 -2.21648 0
M  V30 3912 C 368.384 -4.43327 -2.26639 0
M  V30 3913 C 367.087 -6.93891 -1.89492 0
M  V30 3914 C 369.113 -5.58019 -1.95878 0
M  V30 3915 C 368.475 -6.81695 -1.774 0
M  V30 3916 H 364.574 -0.521614 -0.582617 0
M  V30 3917 H 367.158 -1.68811 -0.970105 0
M  V30 3918 H 365.329 -1.70411 -3.49019 0
M  V30 3919 H 367.061 -1.94453 -3.54923 0
M  V30 3920 H 363.816 -3.81959 -2.80008 0
M  V30 3921 H 364.24 -6.38338 -2.25507 0
M  V30 3922 H 368.882 -3.48333 -2.39633 0
M  V30 3923 H 366.6 -7.88871 -1.75236 0
M  V30 3924 H 370.186 -5.5142 -1.85546 0
M  V30 3925 H 369.066 -7.68942 -1.53941 0
M  V30 3926 N 366.569 1.04691 -1.17803 0
M  V30 3927 C 367.479 2.16057 -0.914151 0
M  V30 3928 C 368.495 1.73589 0.119503 0
M  V30 3929 O 369.671 2.01308 -0.0609468 0
M  V30 3930 C 366.736 3.4394 -0.436603 0
M  V30 3931 C 365.797 4.00825 -1.53746 0
M  V30 3932 C 365.03 5.22604 -1.0826 0
M  V30 3933 O 365.253 5.70367 0.0612244 0
M  V30 3934 O 364.187 5.7186 -1.87775 0
M  V30 3935 H 368.013 2.41169 -1.84584 0
M  V30 3936 H 365.598 1.1453 -0.959334 0
M  V30 3937 H 367.48 4.21024 -0.178057 0
M  V30 3938 H 366.155 3.20316 0.466869 0
M  V30 3939 H 365.062 3.25158 -1.84995 0
M  V30 3940 H 366.395 4.28778 -2.41683 0
M  V30 3941 N 368.047 0.979072 1.23499 0
M  V30 3942 C 369.275 0.665202 1.95915 0
M  V30 3943 C 369.69 -0.767571 1.72493 0
M  V30 3944 O 369.047 -1.51635 1.01554 0
M  V30 3945 C 369.098 0.944438 3.48945 0
M  V30 3946 O 368.819 2.3209 3.71572 0
M  V30 3947 C 370.32 0.646336 4.38563 0
M  V30 3948 H 367.54 0.247218 0.623798 0
M  V30 3949 H 370.084 1.31009 1.57025 0
M  V30 3950 H 368.239 0.345575 3.85856 0
M  V30 3951 H 368.653 2.40957 4.65876 0
M  V30 3952 H 370.127 0.892091 5.44744 0
M  V30 3953 H 370.604 -0.419575 4.37191 0
M  V30 3954 H 371.21 1.22562 4.07258 0
M  V30 3955 N 369.525 -1.3858 0.750561 0
M  V30 3956 C 370.753 -2.04471 0.316098 0
M  V30 3957 C 371.168 -1.56606 -1.05452 0
M  V30 3958 O 370.525 -0.737784 -1.66922 0
M  V30 3959 C 370.576 -3.60025 0.326275 0
M  V30 3960 O 370.297 -4.06133 1.6428 0
M  V30 3961 C 371.798 -4.43131 -0.122429 0
M  V30 3962 H 369.018 -0.65717 0.135528 0
M  V30 3963 H 371.562 -1.77329 1.01857 0
M  V30 3964 H 369.717 -3.86014 -0.327431 0
M  V30 3965 H 370.131 -5.00547 1.56693 0
M  V30 3966 H 371.605 -5.51963 -0.0641473 0
M  V30 3967 H 372.082 -4.23333 -1.16988 0
M  V30 3968 H 372.688 -4.22323 0.50229 0
M  V30 3969 N 371.003 -0.499398 -1.49478 0
M  V30 3970 C 371.913 0.284489 -2.32869 0
M  V30 3971 C 372.929 0.968885 -1.44529 0
M  V30 3972 O 374.105 0.95062 -1.77553 0
M  V30 3973 C 371.17 1.33594 -3.19928 0
M  V30 3974 C 370.231 0.665149 -4.24116 0
M  V30 3975 C 369.464 1.6665 -5.07014 0
M  V30 3976 O 369.687 2.89618 -4.91404 0
M  V30 3977 O 368.621 1.22271 -5.8935 0
M  V30 3978 H 372.447 -0.39802 -3.01081 0
M  V30 3979 H 370.032 -0.260758 -1.47107 0
M  V30 3980 H 371.914 1.94431 -3.73864 0
M  V30 3981 H 370.589 2.0014 -2.54412 0
M  V30 3982 H 369.496 0.0170769 -3.74096 0
M  V30 3983 H 370.829 0.0421555 -4.92182 0
M  V30 3984 N 372.481 1.55866 -0.233164 0
M  V30 3985 C 373.727 1.98897 0.395959 0
M  V30 3986 C 374.06 1.12091 1.58585 0
M  V30 3987 O 373.335 0.181182 1.93654 0
M  V30 3988 C 373.618 3.50658 0.819224 0
M  V30 3989 C 373.471 4.48233 -0.375109 0
M  V30 3990 C 374.79 4.07135 1.67121 0
M  V30 3991 H 371.909 0.723102 0.142451 0
M  V30 3992 H 374.551 1.87082 -0.331725 0
M  V30 3993 H 372.701 3.60857 1.43925 0
M  V30 3994 H 374.373 4.50031 -1.01341 0
M  V30 3995 H 372.616 4.21624 -1.02058 0
M  V30 3996 H 373.287 5.51988 -0.0358328 0
M  V30 3997 H 375.763 3.99952 1.14795 0
M  V30 3998 H 374.639 5.13615 1.93625 0
M  V30 3999 H 374.9 3.54736 2.63846 0
M  V30 4000 N 373.959 -0.0401083 1.57549 0
M  V30 4001 C 374.892 -1.07689 2.01192 0
M  V30 4002 C 375.87 -1.358 0.894273 0
M  V30 4003 O 377.054 -1.48642 1.15921 0
M  V30 4004 C 374.181 -2.41418 2.3756 0
M  V30 4005 C 373.227 -2.29237 3.59656 0
M  V30 4006 S 374.06 -1.65628 5.09242 0
M  V30 4007 C 375.216 -3.0087 5.48843 0
M  V30 4008 H 375.449 -0.705108 2.88817 0
M  V30 4009 H 372.982 -0.249724 1.52367 0
M  V30 4010 H 374.94 -3.18329 2.59186 0
M  V30 4011 H 373.601 -2.75747 1.50407 0
M  V30 4012 H 372.794 -3.27932 3.82722 0
M  V30 4013 H 372.396 -1.60469 3.37825 0
M  V30 4014 H 374.688 -3.97201 5.48851 0
M  V30 4015 H 375.631 -2.82549 6.49286 0
M  V30 4016 H 376.039 -3.02934 4.76331 0
M  V30 4017 N 375.437 -1.54477 -0.31217 0
M  V30 4018 C 376.686 -1.72438 -1.04633 0
M  V30 4019 C 376.999 -0.511163 -1.88803 0
M  V30 4020 O 378.205 -0.572341 -2.65399 0
M  V30 4021 C 376.661 -3.05043 -1.9099 0
M  V30 4022 C 376.269 -4.33806 -1.11877 0
M  V30 4023 C 378.013 -3.32364 -2.64073 0
M  V30 4024 C 375.92 -5.57467 -1.97445 0
M  V30 4025 H 374.85 -0.642647 -0.394361 0
M  V30 4026 H 377.501 -1.80966 -0.303929 0
M  V30 4027 H 375.883 -2.90451 -2.69173 0
M  V30 4028 H 377.057 -4.59199 -0.383843 0
M  V30 4029 H 375.372 -4.13336 -0.504252 0
M  V30 4030 H 377.969 -4.21951 -3.28423 0
M  V30 4031 H 378.312 -2.50745 -3.32314 0
M  V30 4032 H 378.845 -3.47875 -1.92944 0
M  V30 4033 H 375.584 -6.41722 -1.33692 0
M  V30 4034 H 375.104 -5.36277 -2.6864 0
M  V30 4035 H 376.783 -5.94303 -2.5576 0
M  V30 4036 N 376.915 0.57481 -1.46744 0
M  V30 4037 C 377.845 1.69337 -1.60771 0
M  V30 4038 C 378.826 1.63825 -0.457736 0
M  V30 4039 O 380.011 1.8172 -0.684947 0
M  V30 4040 C 377.141 3.0798 -1.60517 0
M  V30 4041 C 376.095 3.28327 -2.74564 0
M  V30 4042 C 375.421 4.67578 -2.59373 0
M  V30 4043 C 376.721 3.15398 -4.16319 0
M  V30 4044 H 378.415 1.57853 -2.54407 0
M  V30 4045 H 375.961 0.75799 -1.22436 0
M  V30 4046 H 377.914 3.86061 -1.68923 0
M  V30 4047 H 376.638 3.20381 -0.634305 0
M  V30 4048 H 375.297 2.52649 -2.65639 0
M  V30 4049 H 374.945 4.76755 -1.60353 0
M  V30 4050 H 374.645 4.82144 -3.35873 0
M  V30 4051 H 376.169 5.47817 -2.69682 0
M  V30 4052 H 377.583 3.83315 -4.26313 0
M  V30 4053 H 375.98 3.41482 -4.93468 0
M  V30 4054 H 377.05 2.12372 -4.3592 0
M  V30 4055 N 378.394 1.34581 0.820102 0
M  V30 4056 C 379.619 1.30333 1.61332 0
M  V30 4057 C 380.044 -0.119339 1.87721 0
M  V30 4058 O 379.402 -1.08197 1.45475 0
M  V30 4059 C 379.45 2.10258 2.92957 0
M  V30 4060 O 378.554 1.47404 3.85157 0
M  V30 4061 H 377.895 0.447488 0.490561 0
M  V30 4062 H 380.425 1.77425 1.01889 0
M  V30 4063 H 380.435 2.21718 3.42498 0
M  V30 4064 H 379.11 3.13693 2.73074 0
M  V30 4065 H 377.687 1.44703 3.43679 0
M  V30 4066 N 379.872 -1.04064 1.18357 0
M  V30 4067 C 380.782 -2.15569 0.925596 0
M  V30 4068 C 381.798 -1.7365 -0.110295 0
M  V30 4069 O 382.974 -2.01273 0.0716218 0
M  V30 4070 C 380.039 -3.43704 0.454836 0
M  V30 4071 C 379.1 -4.00004 1.55869 0
M  V30 4072 C 378.333 -5.22023 1.1103 0
M  V30 4073 O 378.556 -5.70392 -0.0309756 0
M  V30 4074 O 377.49 -5.70856 1.90805 0
M  V30 4075 H 381.316 -2.40187 1.8586 0
M  V30 4076 H 378.901 -1.1402 0.965394 0
M  V30 4077 H 380.783 -4.20923 0.200382 0
M  V30 4078 H 379.458 -3.20559 -0.449876 0
M  V30 4079 H 378.365 -3.24172 1.86716 0
M  V30 4080 H 379.698 -4.2749 2.43953 0
M  V30 4081 N 381.35 -0.985608 -1.22978 0
M  V30 4082 C 382.598 -0.656087 -1.91154 0
M  V30 4083 C 382.919 0.813561 -1.77218 0
M  V30 4084 O 382.189 1.58244 -1.1548 0
M  V30 4085 H 380.769 -0.239674 -0.707506 0
M  V30 4086 H 383.431 -1.25054 -1.49491 0
M  V30 4087 H 382.527 -0.912253 -2.9847 0
M  V30 4088 N 382.828 1.3818 -0.7579 0
M  V30 4089 C 383.758 2.33027 -0.148597 0
M  V30 4090 C 384.739 1.55085 0.69875 0
M  V30 4091 O 385.924 1.83384 0.639053 0
M  V30 4092 C 383.054 3.3928 0.742034 0
M  V30 4093 C 382.008 4.28 -0.00291946 0
M  V30 4094 C 381.334 5.25146 1.00625 0
M  V30 4095 C 382.634 5.08938 -1.17385 0
M  V30 4096 H 384.328 2.84231 -0.940909 0
M  V30 4097 H 381.874 1.36659 -0.453908 0
M  V30 4098 H 383.827 4.046 1.17799 0
M  V30 4099 H 382.551 2.86569 1.56671 0
M  V30 4100 H 381.21 3.64192 -0.419504 0
M  V30 4101 H 380.858 4.68721 1.8251 0
M  V30 4102 H 380.558 5.85361 0.512428 0
M  V30 4103 H 382.082 5.93342 1.44143 0
M  V30 4104 H 383.496 5.67474 -0.815224 0
M  V30 4105 H 381.893 5.7841 -1.59882 0
M  V30 4106 H 382.963 4.42424 -1.98468 0
M  V30 4107 N 384.306 0.507319 1.49211 0
M  V30 4108 C 385.554 -0.0348839 2.0207 0
M  V30 4109 C 385.875 -1.36898 1.38866 0
M  V30 4110 O 385.145 -1.88133 0.546151 0
M  V30 4111 H 383.725 -0.0158812 0.746831 0
M  V30 4112 H 386.387 0.665998 1.83168 0
M  V30 4113 H 385.483 -0.159917 3.1169 0
M  V30 4114 N 385.784 -1.5574 0.241426 0
M  V30 4115 C 386.732 -2.22538 -0.676718 0
M  V30 4116 C 387.726 -1.21117 -1.18436 0
M  V30 4117 O 388.932 -1.39144 -1.14188 0
M  V30 4118 H 385.307 -0.713776 -0.236701 0
M  V30 4119 H 387.278 -2.98264 -0.0901187 0
M  V30 4120 C 386.027 -2.93439 -1.86518 0
M  V30 4121 H 385.35 -3.7125 -1.4837 0
M  V30 4122 H 386.79 -3.43549 -2.48495 0
M  V30 4123 C 385.249 -1.97008 -2.73294 0
M  V30 4124 O 385.779 -1.49965 -3.72657 0
M  V30 4125 N 383.985 -1.64227 -2.39745 0
M  V30 4126 H 383.532 -2.02677 -1.58996 0
M  V30 4127 H 383.49 -0.999708 -2.98083 0
M  V30 4128 N 387.262 0.0317525 -1.57568 0
M  V30 4129 C 388.539 0.758366 -1.803 0
M  V30 4130 C 388.919 1.93718 -0.838845 0
M  V30 4131 O 388.267 2.28187 0.119571 0
M  V30 4132 C 388.477 1.19392 -3.27943 0
M  V30 4133 C 389.825 1.61094 -3.92854 0
M  V30 4134 O 390.849 1.28857 -3.32076 0
M  V30 4135 O 389.708 2.20918 -4.99858 0
M  V30 4136 H 386.802 0.366514 -0.741348 0
M  V30 4137 H 389.348 0.00873765 -1.69698 0
M  V30 4138 H 388.12 0.352275 -3.89711 0
M  V30 4139 H 387.743 2.00365 -3.43424 0
M  V30 4140 N 388.74 1.54641 0.303973 0
M  V30 4141 C 389.989 1.7299 1.03717 0
M  V30 4142 C 390.302 0.521168 1.88529 0
M  V30 4143 O 391.508 0.586408 2.65092 0
M  V30 4144 C 389.964 3.06051 1.89369 0
M  V30 4145 C 389.572 4.34393 1.09574 0
M  V30 4146 C 391.316 3.3376 2.62306 0
M  V30 4147 C 389.223 5.58506 1.94486 0
M  V30 4148 H 388.153 0.64473 0.390947 0
M  V30 4149 H 390.804 1.81124 0.294328 0
M  V30 4150 H 389.186 2.91874 2.67629 0
M  V30 4151 H 390.36 4.59396 0.359485 0
M  V30 4152 H 388.675 4.13597 0.482324 0
M  V30 4153 H 391.272 4.23687 3.26181 0
M  V30 4154 H 391.615 2.52503 3.3098 0
M  V30 4155 H 392.148 3.48894 1.91097 0
M  V30 4156 H 388.887 6.42422 1.30287 0
M  V30 4157 H 388.407 5.37694 2.65792 0
M  V30 4158 H 390.086 5.95651 2.52605 0
M  V30 4159 N 390.218 -0.567019 1.47046 0
M  V30 4160 C 391.443 -1.3551 1.57009 0
M  V30 4161 C 391.868 -1.86841 0.217259 0
M  V30 4162 O 391.226 -1.62435 -0.805268 0
M  V30 4163 C 391.274 -2.50777 2.5912 0
M  V30 4164 O 390.378 -3.52706 2.13711 0
M  V30 4165 H 389.719 -0.402919 0.52778 0
M  V30 4166 H 392.249 -0.686241 1.92748 0
M  V30 4167 H 392.259 -2.97481 2.79229 0
M  V30 4168 H 390.934 -2.12771 3.57353 0
M  V30 4169 H 389.511 -3.12374 2.03659 0
M  V30 4170 N 391.696 -1.35014 -0.812953 0
M  V30 4171 C 392.973 -1.18502 -1.55617 0
M  V30 4172 C 393.353 0.238421 -2.09749 0
M  V30 4173 O 392.701 1.2411 -1.91857 0
M  V30 4174 C 392.911 -2.24783 -2.66971 0
M  V30 4175 C 394.259 -2.60268 -3.35478 0
M  V30 4176 O 395.283 -2.23648 -2.77236 0
M  V30 4177 O 394.142 -3.2321 -4.40678 0
M  V30 4178 H 391.236 -0.459984 -0.687272 0
M  V30 4179 H 393.782 -1.46677 -0.853464 0
M  V30 4180 H 392.554 -3.20284 -2.24798 0
M  V30 4181 H 392.177 -1.97841 -3.44884 0
M  V30 4182 N 393.175 1.03435 -1.18907 0
M  V30 4183 C 394.125 2.09924 -0.889706 0
M  V30 4184 C 395.109 1.60261 0.143216 0
M  V30 4185 O 396.301 1.76892 -0.0617122 0
M  V30 4186 C 393.43 3.40669 -0.424168 0
M  V30 4187 C 392.516 3.97082 -1.48952 0
M  V30 4188 N 392.907 4.27227 -2.70759 0
M  V30 4189 C 391.205 4.25029 -1.35152 0
M  V30 4190 C 391.906 4.7246 -3.39347 0
M  V30 4191 N 390.882 4.7366 -2.66735 0
M  V30 4192 H 394.684 2.31116 -1.81555 0
M  V30 4193 H 392.198 1.21246 -1.08042 0
M  V30 4194 H 394.195 4.16461 -0.191176 0
M  V30 4195 H 392.855 3.20901 0.495263 0
M  V30 4196 H 393.866 4.16678 -3.0757 0
M  V30 4197 H 390.543 4.14554 -0.495126 0
M  V30 4198 H 391.933 5.04751 -4.43481 0
M  V30 4199 N 394.653 0.992116 1.22453 0
M  V30 4200 C 395.93 0.583508 1.86694 0
M  V30 4201 C 396.31 -0.9392 1.89056 0
M  V30 4202 O 395.658 -1.82081 1.38053 0
M  V30 4203 C 395.868 1.20304 3.2761 0
M  V30 4204 C 397.216 1.30308 4.0411 0
M  V30 4205 O 398.24 1.15737 3.36873 0
M  V30 4206 O 397.099 1.53615 5.24466 0
M  V30 4207 H 394.193 0.198129 0.802916 0
M  V30 4208 H 396.739 1.08794 1.30238 0
M  V30 4209 H 395.511 2.24461 3.2052 0
M  V30 4210 H 395.134 0.684144 3.9167 0
M  V30 4211 N 396.131 -1.37776 0.765217 0
M  V30 4212 C 397.379 -1.99454 0.325943 0
M  V30 4213 C 397.7 -1.61049 -1.09947 0
M  V30 4214 O 396.97 -0.872821 -1.75381 0
M  V30 4215 H 395.55 -0.737697 0.117525 0
M  V30 4216 H 398.212 -1.68359 0.981895 0
M  V30 4217 H 397.308 -3.09547 0.398353 0
M  V30 4218 N 397.609 -0.515225 -1.4894 0
M  V30 4219 C 399.02 -0.0710067 -1.86565 0
M  V30 4220 C 399.371 1.34733 -1.42623 0
M  V30 4221 O 398.496 2.00653 -0.810379 0
M  V30 4222 C 399.091 -0.122083 -3.3858 0
M  V30 4223 C 397.65 0.266863 -3.75453 0
M  V30 4224 C 396.797 -0.488376 -2.72966 0
M  V30 4225 H 399.748 -0.727266 -1.41055 0
M  V30 4226 H 399.769 0.669818 -3.74558 0
M  V30 4227 H 399.281 -1.15448 -3.70531 0
M  V30 4228 H 397.382 1.30196 -3.49113 0
M  V30 4229 H 397.495 -0.0624811 -4.79059 0
M  V30 4230 H 395.859 0.0635622 -2.54621 0
M  V30 4231 H 396.642 -1.52113 -3.07761 0
M  V30 4232 N 399.087 1.5561 -0.249682 0
M  V30 4233 C 399.997 2.25143 0.659375 0
M  V30 4234 C 401.013 1.2685 1.19101 0
M  V30 4235 O 402.189 1.59732 1.22669 0
M  V30 4236 C 399.254 2.93945 1.8384 0
M  V30 4237 C 398.315 4.07655 1.34596 0
M  V30 4238 C 397.548 4.73167 2.46878 0
M  V30 4239 O 397.771 4.37768 3.65671 0
M  V30 4240 O 396.705 5.61623 2.16478 0
M  V30 4241 H 400.531 3.03545 0.0968698 0
M  V30 4242 H 398.116 1.49389 -0.018074 0
M  V30 4243 H 399.998 3.37271 2.52638 0
M  V30 4244 H 398.673 2.18481 2.38847 0
M  V30 4245 H 397.58 3.68839 0.625174 0
M  V30 4246 H 398.913 4.84946 0.841941 0
M  V30 4247 N 400.565 -0.0233959 1.57583 0
M  V30 4248 C 401.811 -0.708611 1.90657 0
M  V30 4249 C 402.166 -1.7266 0.848895 0
M  V30 4250 O 401.459 -1.91075 -0.141749 0
M  V30 4251 C 401.653 -1.41428 3.28227 0
M  V30 4252 C 401.482 -0.466155 4.47277 0
M  V30 4253 C 400.252 -0.085117 5.05228 0
M  V30 4254 C 402.45 0.257836 5.13653 0
M  V30 4255 N 400.432 0.863672 6.07794 0
M  V30 4256 C 401.803 1.06209 6.10835 0
M  V30 4257 C 403.858 0.324174 4.96844 0
M  V30 4258 C 402.561 1.9266 6.93018 0
M  V30 4259 C 404.587 1.17583 5.79593 0
M  V30 4260 C 403.949 1.96799 6.7635 0
M  V30 4261 H 400.048 -0.233222 0.746412 0
M  V30 4262 H 402.632 0.0314512 1.94675 0
M  V30 4263 H 400.803 -2.12477 3.25128 0
M  V30 4264 H 402.535 -2.05233 3.488 0
M  V30 4265 H 399.29 -0.448516 4.71471 0
M  V30 4266 H 399.714 1.33274 6.63752 0
M  V30 4267 H 404.356 -0.273975 4.21911 0
M  V30 4268 H 402.074 2.53552 7.67292 0
M  V30 4269 H 405.66 1.23076 5.68633 0
M  V30 4270 H 404.54 2.61635 7.39268 0
M  V30 4271 N 402.043 -1.548 -0.295768 0
M  V30 4272 C 402.975 -1.82492 -1.3867 0
M  V30 4273 C 403.988 -0.708134 -1.46592 0
M  V30 4274 O 405.177 -0.985686 -1.48817 0
M  V30 4275 C 402.277 -1.95256 -2.76999 0
M  V30 4276 C 401.45 -3.25709 -2.91946 0
M  V30 4277 C 400.509 -3.28824 -4.10806 0
M  V30 4278 O 399.535 -4.02328 -4.02643 0
M  V30 4279 N 400.737 -2.5459 -5.21694 0
M  V30 4280 H 403.502 -2.76646 -1.15269 0
M  V30 4281 H 401.063 -1.54438 -0.485849 0
M  V30 4282 H 403.055 -1.94736 -3.54768 0
M  V30 4283 H 401.625 -1.08072 -2.93324 0
M  V30 4284 H 400.845 -3.38959 -2.01247 0
M  V30 4285 H 402.133 -4.11786 -2.98847 0
M  V30 4286 H 401.531 -1.94512 -5.31208 0
M  V30 4287 H 400.088 -2.59818 -5.97778 0
M  V30 4288 N 403.521 0.559213 -1.47345 0
M  V30 4289 C 404.453 1.68161 -1.55738 0
M  V30 4290 C 405.466 1.56636 -0.443744 0
M  V30 4291 O 406.655 1.6363 -0.713258 0
M  V30 4292 C 403.755 3.06611 -1.4437 0
M  V30 4293 C 402.928 3.4391 -2.70268 0
M  V30 4294 C 401.987 4.61515 -2.52765 0
M  V30 4295 O 401.013 4.66197 -3.26572 0
M  V30 4296 N 402.215 5.57883 -1.6046 0
M  V30 4297 H 404.98 1.61408 -2.52522 0
M  V30 4298 H 402.541 0.7458 -1.43699 0
M  V30 4299 H 404.533 3.83117 -1.30398 0
M  V30 4300 H 403.103 3.07602 -0.556766 0
M  V30 4301 H 402.323 2.56873 -2.99015 0
M  V30 4302 H 403.611 3.65605 -3.53851 0
M  V30 4303 H 403.009 5.56855 -0.996422 0
M  V30 4304 H 401.566 6.33723 -1.52441 0
M  V30 4305 N 404.999 1.35443 0.805782 0
M  V30 4306 C 406.415 1.15499 1.10146 0
M  V30 4307 C 406.615 -0.0319975 2.01475 0
M  V30 4308 O 405.671 -0.70236 2.42535 0
M  V30 4309 C 406.984 2.45833 1.73166 0
M  V30 4310 C 408.532 2.52047 1.85583 0
M  V30 4311 C 409.007 3.82427 2.52019 0
M  V30 4312 N 410.498 3.83682 2.59504 0
M  V30 4313 C 411.233 4.81294 3.11679 0
M  V30 4314 N 410.729 5.89294 3.64287 0
M  V30 4315 N 412.522 4.6873 3.1024 0
M  V30 4316 H 404.673 2.11469 0.198678 0
M  V30 4317 H 406.936 0.93594 0.150731 0
M  V30 4318 H 406.642 3.32874 1.13526 0
M  V30 4319 H 406.516 2.6044 2.72857 0
M  V30 4320 H 408.903 1.65435 2.44367 0
M  V30 4321 H 408.984 2.41354 0.847455 0
M  V30 4322 H 408.628 4.69437 1.93885 0
M  V30 4323 H 408.558 3.90409 3.53395 0
M  V30 4324 H 411.049 3.05648 2.22234 0
M  V30 4325 H 411.362 6.59768 4.02401 0
M  V30 4326 H 409.707 5.92985 3.62483 0
M  V30 4327 H 412.898 3.83496 2.68419 0
M  V30 4328 H 413.071 5.44965 3.50596 0
M  V30 4329 N 406.477 -1.02803 1.19454 0
M  V30 4330 C 407.893 -1.28473 0.946937 0
M  V30 4331 C 408.093 -1.97881 -0.380202 0
M  V30 4332 O 407.149 -2.26719 -1.11151 0
M  V30 4333 C 408.462 -2.13099 2.12154 0
M  V30 4334 C 410.01 -2.26404 2.16126 0
M  V30 4335 C 410.485 -3.14402 3.33039 0
M  V30 4336 N 411.976 -3.21991 3.32981 0
M  V30 4337 C 412.711 -3.90272 4.20089 0
M  V30 4338 N 412.207 -4.60777 5.17355 0
M  V30 4339 N 414 -3.8668 4.07964 0
M  V30 4340 H 406.151 -0.561665 2.04839 0
M  V30 4341 H 408.414 -0.310438 0.89573 0
M  V30 4342 H 408.12 -1.69422 3.08203 0
M  V30 4343 H 407.994 -3.13813 2.09287 0
M  V30 4344 H 410.381 -2.69311 1.20647 0
M  V30 4345 H 410.462 -1.25237 2.23045 0
M  V30 4346 H 410.106 -2.72204 4.28798 0
M  V30 4347 H 410.036 -4.1563 3.23356 0
M  V30 4348 H 412.527 -2.71778 2.62574 0
M  V30 4349 H 412.84 -5.10513 5.80169 0
M  V30 4350 H 411.185 -4.5964 5.21302 0
M  V30 4351 H 414.376 -3.30739 3.31254 0
M  V30 4352 H 414.549 -4.39621 4.76064 0
M  V30 4353 N 407.956 -0.998596 -1.21925 0
M  V30 4354 C 409.233 -0.593401 -1.86382 0
M  V30 4355 C 409.613 0.92916 -1.89552 0
M  V30 4356 O 408.961 1.81347 -1.39017 0
M  V30 4357 C 409.171 -1.22039 -3.26967 0
M  V30 4358 C 410.519 -1.32449 -4.03413 0
M  V30 4359 O 411.543 -1.17522 -3.36254 0
M  V30 4360 O 410.402 -1.56395 -5.23644 0
M  V30 4361 H 407.496 -0.202385 -0.801854 0
M  V30 4362 H 410.042 -1.09484 -1.29659 0
M  V30 4363 H 408.814 -2.26158 -3.19325 0
M  V30 4364 H 408.437 -0.704906 -3.91301 0
M  V30 4365 N 409.434 1.37368 -0.772513 0
M  V30 4366 C 410.68 1.99969 -0.337681 0
M  V30 4367 C 411.013 1.61184 1.08321 0
M  V30 4368 O 410.288 0.858395 1.74533 0
M  V30 4369 C 410.571 3.56858 -0.482121 0
M  V30 4370 C 410.424 4.0555 -1.94549 0
M  V30 4371 C 411.743 4.39955 0.113143 0
M  V30 4372 H 408.862 0.726464 -0.124171 0
M  V30 4373 H 411.504 1.63034 -0.975699 0
M  V30 4374 H 409.654 3.88452 0.0610361 0
M  V30 4375 H 411.326 3.84518 -2.54841 0
M  V30 4376 H 409.569 3.57715 -2.45403 0
M  V30 4377 H 410.24 5.14587 -1.9976 0
M  V30 4378 H 412.716 4.14623 -0.35031 0
M  V30 4379 H 411.592 5.48897 -0.0180514 0
M  V30 4380 H 411.853 4.25403 1.20354 0
M  V30 4381 N 410.912 0.523116 1.48665 0
M  V30 4382 C 412.142 -0.00961724 2.06598 0
M  V30 4383 C 412.55 -1.29333 1.38093 0
M  V30 4384 O 411.893 -1.77846 0.46007 0
M  V30 4385 C 411.955 -0.311135 3.58151 0
M  V30 4386 C 411.619 0.878092 4.48485 0
M  V30 4387 C 412.616 1.77464 4.88674 0
M  V30 4388 C 410.301 1.08315 4.90483 0
M  V30 4389 C 412.295 2.86021 5.69623 0
M  V30 4390 C 409.982 2.17187 5.71203 0
M  V30 4391 C 410.98 3.05873 6.10681 0
M  V30 4392 O 410.668 4.12862 6.89783 0
M  V30 4393 H 410.4 0.0272658 0.67545 0
M  V30 4394 H 412.954 0.726156 1.92136 0
M  V30 4395 H 411.184 -1.10079 3.70701 0
M  V30 4396 H 412.873 -0.785125 3.98234 0
M  V30 4397 H 413.639 1.62813 4.56855 0
M  V30 4398 H 409.518 0.402149 4.59243 0
M  V30 4399 H 413.062 3.55272 6.00356 0
M  V30 4400 H 408.959 2.31824 6.02435 0
M  V30 4401 H 409.727 4.10487 7.08126 0
M  V30 4402 N 412.39 -1.55475 0.257931 0
M  V30 4403 C 413.322 -2.19192 -0.669881 0
M  V30 4404 C 414.335 -1.17148 -1.1305 0
M  V30 4405 O 415.524 -1.43959 -1.05537 0
M  V30 4406 C 412.624 -2.79016 -1.92363 0
M  V30 4407 C 411.797 -4.06586 -1.61265 0
M  V30 4408 C 410.856 -4.50622 -2.7171 0
M  V30 4409 O 409.882 -5.16765 -2.38627 0
M  V30 4410 N 411.084 -4.19325 -4.01431 0
M  V30 4411 H 413.849 -2.99441 -0.124635 0
M  V30 4412 H 411.41 -1.6171 0.0783311 0
M  V30 4413 H 413.402 -3.05427 -2.65511 0
M  V30 4414 H 411.972 -2.0286 -2.37837 0
M  V30 4415 H 411.192 -3.87646 -0.715811 0
M  V30 4416 H 412.48 -4.89737 -1.37967 0
M  V30 4417 H 411.878 -3.66247 -4.31138 0
M  V30 4418 H 410.435 -4.50547 -4.7101 0
M  V30 4419 N 413.868 0.0150385 -1.57593 0
M  V30 4420 C 415.284 0.370907 -1.5523 0
M  V30 4421 C 415.484 1.75735 -0.985882 0
M  V30 4422 O 414.54 2.44944 -0.613077 0
M  V30 4423 C 415.853 0.259908 -2.99575 0
M  V30 4424 C 417.401 0.335959 -3.11192 0
M  V30 4425 C 417.876 0.254253 -4.57294 0
M  V30 4426 N 419.367 0.312618 -4.62144 0
M  V30 4427 C 420.102 0.272505 -5.72752 0
M  V30 4428 N 419.598 0.183864 -6.92556 0
M  V30 4429 N 421.391 0.323267 -5.6117 0
M  V30 4430 H 413.542 -0.892104 -1.92757 0
M  V30 4431 H 415.805 -0.340563 -0.884715 0
M  V30 4432 H 415.511 -0.693403 -3.44797 0
M  V30 4433 H 415.385 1.048 -3.62349 0
M  V30 4434 H 417.772 1.27971 -2.65909 0
M  V30 4435 H 417.853 -0.481739 -2.51223 0
M  V30 4436 H 417.497 -0.685887 -5.03247 0
M  V30 4437 H 417.427 1.09024 -5.15191 0
M  V30 4438 H 419.918 0.38307 -3.75953 0
M  V30 4439 H 420.231 0.15874 -7.72637 0
M  V30 4440 H 418.576 0.149708 -6.94839 0
M  V30 4441 H 421.767 0.390607 -4.66467 0
M  V30 4442 H 421.94 0.288539 -6.47357 0
M  V30 4443 N 415.346 1.54954 0.287554 0
M  V30 4444 C 416.309 1.86076 1.33823 0
M  V30 4445 C 417.309 0.734414 1.43049 0
M  V30 4446 O 418.499 1.00266 1.42452 0
M  V30 4447 C 415.631 2.05305 2.72144 0
M  V30 4448 H 416.824 2.79984 1.07465 0
M  V30 4449 H 414.377 1.47223 0.524902 0
M  V30 4450 H 415.112 1.1373 3.03704 0
M  V30 4451 H 414.897 2.873 2.66836 0
M  V30 4452 H 416.387 2.30706 3.48087 0
M  V30 4453 N 416.824 -0.551391 1.4764 0
M  V30 4454 C 418.101 -1.31229 1.45046 0
M  V30 4455 C 418.481 -2.10563 0.150527 0
M  V30 4456 O 417.829 -2.11374 -0.867956 0
M  V30 4457 C 418.039 -2.21189 2.69956 0
M  V30 4458 C 419.387 -2.82021 3.1741 0
M  V30 4459 O 420.411 -2.31488 2.70724 0
M  V30 4460 O 419.27 -3.73885 3.98588 0
M  V30 4461 H 416.364 -0.591193 0.578291 0
M  V30 4462 H 418.91 -0.569813 1.59847 0
M  V30 4463 H 417.682 -1.62207 3.56096 0
M  V30 4464 H 417.305 -3.02722 2.57769 0
M  V30 4465 N 418.302 -1.35869 -0.798587 0
M  V30 4466 C 419.551 -1.28921 -1.5512 0
M  V30 4467 C 419.864 0.13208 -1.95154 0
M  V30 4468 O 421.07 0.323879 -2.69561 0
M  V30 4469 C 419.526 -2.26141 -2.79979 0
M  V30 4470 C 419.134 -3.73658 -2.47151 0
M  V30 4471 C 420.878 -2.28152 -3.57976 0
M  V30 4472 C 418.785 -4.62679 -3.6835 0
M  V30 4473 H 417.715 -0.479031 -0.582276 0
M  V30 4474 H 420.366 -1.61179 -0.877125 0
M  V30 4475 H 418.748 -1.86865 -3.49138 0
M  V30 4476 H 419.922 -4.21616 -1.85947 0
M  V30 4477 H 418.237 -3.74333 -1.82383 0
M  V30 4478 H 420.834 -2.91875 -4.4801 0
M  V30 4479 H 421.177 -1.28748 -3.95891 0
M  V30 4480 H 421.71 -2.65998 -2.95787 0
M  V30 4481 H 418.449 -5.63111 -3.35538 0
M  V30 4482 H 417.969 -4.19442 -4.28752 0
M  V30 4483 H 419.648 -4.78498 -4.35487 0
M  V30 4484 N 419.78 1.02168 -1.19998 0
M  V30 4485 C 421.196 1.27969 -0.953737 0
M  V30 4486 C 421.396 1.98079 0.369703 0
M  V30 4487 O 420.452 2.27306 1.09947 0
M  V30 4488 C 421.765 2.11971 -2.13281 0
M  V30 4489 C 423.313 2.25255 -2.17323 0
M  V30 4490 C 423.788 3.12632 -3.34702 0
M  V30 4491 N 425.279 3.2022 -3.34684 0
M  V30 4492 C 426.014 3.88039 -4.22153 0
M  V30 4493 N 425.51 4.58027 -5.19791 0
M  V30 4494 N 427.303 3.84511 -4.10009 0
M  V30 4495 H 419.454 0.550794 -2.05134 0
M  V30 4496 H 421.717 0.305683 -0.897364 0
M  V30 4497 H 421.423 1.67785 -3.09097 0
M  V30 4498 H 421.297 3.12699 -2.10949 0
M  V30 4499 H 423.684 2.68667 -1.22073 0
M  V30 4500 H 423.765 1.24053 -2.23706 0
M  V30 4501 H 423.409 2.69926 -4.30235 0
M  V30 4502 H 423.339 4.13909 -3.25556 0
M  V30 4503 H 425.83 2.70382 -2.64012 0
M  V30 4504 H 426.143 5.07429 -5.82868 0
M  V30 4505 H 424.488 4.56869 -5.23733 0
M  V30 4506 H 427.679 3.28978 -3.33003 0
M  V30 4507 H 427.852 4.3709 -4.78389 0
M  V30 4508 N 421.258 1.00505 1.21394 0
M  V30 4509 C 422.483 0.706367 1.95001 0
M  V30 4510 C 422.908 -0.72463 1.73582 0
M  V30 4511 O 422.266 -1.49702 1.0227 0
M  V30 4512 C 422.314 1.03299 3.45487 0
M  V30 4513 O 421.418 0.138275 4.12168 0
M  V30 4514 H 420.759 0.263175 0.609619 0
M  V30 4515 H 423.289 1.34531 1.54151 0
M  V30 4516 H 423.299 0.979872 3.96059 0
M  V30 4517 H 421.974 2.07567 3.60401 0
M  V30 4518 H 420.551 0.247928 3.72075 0
M  V30 4519 N 422.737 -1.36956 0.779787 0
M  V30 4520 C 423.962 -2.04283 0.358224 0
M  V30 4521 C 424.387 -1.58422 -1.01411 0
M  V30 4522 O 423.745 -0.748179 -1.65142 0
M  V30 4523 C 423.793 -3.58152 0.419479 0
M  V30 4524 O 422.897 -4.08342 -0.577142 0
M  V30 4525 H 422.238 -0.645967 0.153698 0
M  V30 4526 H 424.768 -1.75108 1.05822 0
M  V30 4527 H 424.778 -4.07041 0.279636 0
M  V30 4528 H 423.453 -3.90886 1.42061 0
M  V30 4529 H 422.03 -3.70751 -0.399755 0
M  V30 4530 N 424.215 -0.530993 -1.48385 0
M  V30 4531 C 425.145 0.219985 -2.32461 0
M  V30 4532 C 426.126 0.934111 -1.42156 0
M  V30 4533 O 427.311 0.919694 -1.71042 0
M  V30 4534 C 424.441 1.26674 -3.23375 0
M  V30 4535 C 423.395 0.67069 -4.22712 0
M  V30 4536 C 422.721 1.82017 -5.02766 0
M  V30 4537 C 424.021 -0.358268 -5.2107 0
M  V30 4538 H 425.715 -0.48187 -2.95497 0
M  V30 4539 H 423.261 -0.233182 -1.42099 0
M  V30 4540 H 425.214 1.80006 -3.81019 0
M  V30 4541 H 423.938 1.99818 -2.58341 0
M  V30 4542 H 422.597 0.158878 -3.66256 0
M  V30 4543 H 422.245 2.54002 -4.34157 0
M  V30 4544 H 421.945 1.42727 -5.70003 0
M  V30 4545 H 423.469 2.35725 -5.63264 0
M  V30 4546 H 424.883 0.0880081 -5.73232 0
M  V30 4547 H 423.28 -0.66861 -5.96364 0
M  V30 4548 H 424.35 -1.26367 -4.68145 0
M  V30 4549 N 425.693 1.55336 -0.266172 0
M  V30 4550 C 426.942 1.98574 0.353749 0
M  V30 4551 C 427.255 1.15789 1.57646 0
M  V30 4552 O 428.461 1.49129 2.26876 0
M  V30 4553 C 426.917 3.53403 0.680747 0
M  V30 4554 C 426.525 4.44953 -0.52165 0
M  V30 4555 C 428.269 4.05251 1.26379 0
M  V30 4556 C 426.176 5.91156 -0.169736 0
M  V30 4557 H 425.106 0.741643 0.135949 0
M  V30 4558 H 427.757 1.79743 -0.369421 0
M  V30 4559 H 426.139 3.68001 1.46257 0
M  V30 4560 H 427.313 4.42121 -1.29869 0
M  V30 4561 H 425.628 4.03691 -1.02093 0
M  V30 4562 H 428.225 5.12021 1.54074 0
M  V30 4563 H 428.568 3.53749 2.19471 0
M  V30 4564 H 429.101 3.94057 0.544447 0
M  V30 4565 H 425.84 6.46736 -1.0683 0
M  V30 4566 H 425.36 5.97079 0.570717 0
M  V30 4567 H 427.039 6.4655 0.241245 0
M  V30 4568 N 427.171 -0.0066808 1.57599 0
M  V30 4569 C 428.417 -0.693947 1.90558 0
M  V30 4570 C 428.75 -1.73792 0.866594 0
M  V30 4571 O 428.025 -1.94156 -0.115548 0
M  V30 4572 C 428.308 -1.34317 3.34112 0
M  V30 4573 C 428.161 -0.311189 4.48722 0
M  V30 4574 C 429.48 -2.27116 3.7697 0
M  V30 4575 H 426.599 -0.250803 0.693013 0
M  V30 4576 H 429.241 0.043242 1.89951 0
M  V30 4577 H 427.391 -1.9715 3.3476 0
M  V30 4578 H 429.063 0.316944 4.6021 0
M  V30 4579 H 427.306 0.367253 4.32243 0
M  V30 4580 H 427.977 -0.804366 5.46108 0
M  V30 4581 H 430.453 -1.74306 3.77831 0
M  V30 4582 H 429.329 -2.69511 4.78179 0
M  V30 4583 H 429.59 -3.14743 3.10466 0
M  V30 4584 N 428.649 -1.55105 -0.279332 0
M  V30 4585 C 430.06 -1.66186 -0.850832 0
M  V30 4586 C 430.411 -0.584707 -1.87285 0
M  V30 4587 O 429.536 0.274919 -2.14647 0
M  V30 4588 C 430.131 -3.01264 -1.55001 0
M  V30 4589 C 428.69 -3.14394 -2.06963 0
M  V30 4590 C 427.837 -2.61959 -0.909536 0
M  V30 4591 H 430.788 -1.58602 -0.0558235 0
M  V30 4592 H 430.809 -2.93899 -2.41669 0
M  V30 4593 H 430.321 -3.7964 -0.805931 0
M  V30 4594 H 428.422 -2.4078 -2.84352 0
M  V30 4595 H 428.535 -4.20867 -2.28928 0
M  V30 4596 H 426.899 -2.18957 -1.30116 0
M  V30 4597 H 427.682 -3.42833 -0.179062 0
M  V30 4598 N 430.127 0.543554 -1.4793 0
M  V30 4599 C 431.057 1.65888 -1.64327 0
M  V30 4600 C 432.038 1.62818 -0.492383 0
M  V30 4601 O 433.223 1.80226 -0.723338 0
M  V30 4602 C 430.353 3.04506 -1.67013 0
M  V30 4603 C 429.307 3.2243 -2.81466 0
M  V30 4604 C 428.633 4.61972 -2.69233 0
M  V30 4605 C 429.933 3.06496 -4.22915 0
M  V30 4606 H 431.627 1.52421 -2.57698 0
M  V30 4607 H 429.173 0.731849 -1.24016 0
M  V30 4608 H 431.126 3.82391 -1.77074 0
M  V30 4609 H 429.85 3.18964 -0.70212 0
M  V30 4610 H 428.509 2.46957 -2.70938 0
M  V30 4611 H 428.157 4.73247 -1.7043 0
M  V30 4612 H 427.857 4.74911 -3.46025 0
M  V30 4613 H 429.381 5.41974 -2.81242 0
M  V30 4614 H 430.795 3.74186 -4.34348 0
M  V30 4615 H 429.192 3.30938 -5.006 0
M  V30 4616 H 430.262 2.03077 -4.40327 0
M  V30 4617 N 431.605 1.3629 0.791371 0
M  V30 4618 C 432.835 1.33368 1.57786 0
M  V30 4619 C 433.243 -0.0875188 1.88997 0
M  V30 4620 O 432.586 -1.05427 1.50435 0
M  V30 4621 C 432.648 2.08802 2.92646 0
M  V30 4622 C 432.312 3.57903 2.84174 0
M  V30 4623 C 433.309 4.52191 2.56553 0
M  V30 4624 C 430.994 4.00762 3.02812 0
M  V30 4625 C 432.988 5.87315 2.47669 0
M  V30 4626 C 430.675 5.35977 2.93551 0
M  V30 4627 C 431.673 6.29066 2.66017 0
M  V30 4628 O 431.361 7.61798 2.56746 0
M  V30 4629 H 431.093 0.459166 0.496128 0
M  V30 4630 H 433.647 1.79952 0.990269 0
M  V30 4631 H 431.877 1.56878 3.53449 0
M  V30 4632 H 433.566 1.98762 3.53904 0
M  V30 4633 H 434.332 4.20393 2.41858 0
M  V30 4634 H 430.211 3.2868 3.2325 0
M  V30 4635 H 433.755 6.59943 2.26099 0
M  V30 4636 H 429.652 5.67384 3.07808 0
M  V30 4637 H 430.42 7.71898 2.72242 0
M  V30 4638 N 433.083 -1.0153 1.20538 0
M  V30 4639 C 434.313 -1.78487 1.04048 0
M  V30 4640 C 434.721 -1.84631 -0.413292 0
M  V30 4641 O 434.064 -1.29919 -1.29872 0
M  V30 4642 C 434.126 -3.24367 1.55003 0
M  V30 4643 C 433.79 -3.41827 3.0332 0
M  V30 4644 C 434.787 -3.30941 4.00966 0
M  V30 4645 C 432.472 -3.67602 3.42307 0
M  V30 4646 C 434.466 -3.45577 5.35589 0
M  V30 4647 C 432.153 -3.81881 4.77085 0
M  V30 4648 C 433.151 -3.70874 5.73534 0
M  V30 4649 O 432.839 -3.84714 7.05868 0
M  V30 4650 H 432.571 -0.568108 0.366373 0
M  V30 4651 H 435.125 -1.28677 1.60098 0
M  V30 4652 H 433.355 -3.75266 0.933397 0
M  V30 4653 H 435.044 -3.82963 1.34514 0
M  V30 4654 H 435.81 -3.10964 3.72191 0
M  V30 4655 H 431.689 -3.75256 2.67776 0
M  V30 4656 H 435.233 -3.36902 6.10854 0
M  V30 4657 H 431.13 -4.01359 5.0555 0
M  V30 4658 H 431.898 -4.01724 7.13134 0
M  V30 4659 N 434.561 -1.01147 -1.20859 0
M  V30 4660 C 435.977 -0.725422 -1.42161 0
M  V30 4661 C 436.177 0.696919 -1.89064 0
M  V30 4662 O 435.233 1.46539 -2.05627 0
M  V30 4663 C 436.546 -1.74678 -2.44761 0
M  V30 4664 C 438.094 -1.76433 -2.58535 0
M  V30 4665 C 438.569 -2.77481 -3.64374 0
M  V30 4666 N 440.06 -2.76189 -3.71852 0
M  V30 4667 C 440.795 -3.51035 -4.53389 0
M  V30 4668 N 440.291 -4.35541 -5.38773 0
M  V30 4669 N 442.084 -3.39655 -4.47873 0
M  V30 4670 H 434.235 -1.92979 -0.887282 0
M  V30 4671 H 436.498 -0.833327 -0.451962 0
M  V30 4672 H 436.204 -2.76551 -2.17285 0
M  V30 4673 H 436.078 -1.55472 -3.43669 0
M  V30 4674 H 438.465 -0.75248 -2.85345 0
M  V30 4675 H 438.546 -1.99712 -1.5984 0
M  V30 4676 H 438.19 -3.78827 -3.38308 0
M  V30 4677 H 438.12 -2.51466 -4.6268 0
M  V30 4678 H 440.611 -2.14885 -3.10858 0
M  V30 4679 H 440.924 -4.89432 -5.98061 0
M  V30 4680 H 439.269 -4.39621 -5.38292 0
M  V30 4681 H 442.46 -2.73063 -3.80203 0
M  V30 4682 H 442.633 -3.9824 -5.11184 0
M  V30 4683 N 436.039 1.36541 -0.78704 0
M  V30 4684 C 436.971 2.28761 -0.141773 0
M  V30 4685 C 437.984 1.49365 0.647599 0
M  V30 4686 O 439.173 1.71836 0.483173 0
M  V30 4687 C 436.273 3.28771 0.822368 0
M  V30 4688 C 435.446 4.3732 0.0835594 0
M  V30 4689 C 434.505 5.17307 0.963296 0
M  V30 4690 O 433.531 5.67638 0.421419 0
M  V30 4691 N 434.733 5.33515 2.28784 0
M  V30 4692 H 437.498 2.84777 -0.933919 0
M  V30 4693 H 435.059 1.48682 -0.640735 0
M  V30 4694 H 437.051 3.79169 1.41468 0
M  V30 4695 H 435.621 2.73412 1.5154 0
M  V30 4696 H 434.841 3.88118 -0.689809 0
M  V30 4697 H 436.129 5.0701 -0.426358 0
M  V30 4698 H 435.527 4.94234 2.75226 0
M  V30 4699 H 434.084 5.87165 2.82985 0
M  V30 4700 N 437.518 0.538854 1.48102 0
M  V30 4701 C 438.428 -0.222648 2.33541 0
M  V30 4702 C 439.444 -0.930225 1.47047 0
M  V30 4703 O 440.62 -0.903211 1.80011 0
M  V30 4704 C 437.685 -1.25064 3.23357 0
M  V30 4705 C 436.746 -0.552469 4.2573 0
M  V30 4706 C 435.979 -1.53149 5.11254 0
M  V30 4707 O 436.202 -2.76487 4.9891 0
M  V30 4708 O 435.136 -1.06602 5.92385 0
M  V30 4709 H 438.962 0.477707 2.99919 0
M  V30 4710 H 436.547 0.299669 1.46364 0
M  V30 4711 H 438.429 -1.8445 3.78888 0
M  V30 4712 H 437.104 -1.93325 2.59629 0
M  V30 4713 H 436.011 0.082114 3.7401 0
M  V30 4714 H 437.344 0.0883526 4.92121 0
M  V30 4715 N 438.996 -1.55193 0.274407 0
M  V30 4716 C 439.926 -2.25471 -0.607032 0
M  V30 4717 C 440.907 -1.24461 -1.15946 0
M  V30 4718 O 442.092 -1.53179 -1.19373 0
M  V30 4719 C 439.222 -2.97526 -1.79153 0
M  V30 4720 C 438.176 -4.05459 -1.37067 0
M  V30 4721 C 437.502 -4.65084 -2.6382 0
M  V30 4722 C 438.802 -5.19691 -0.521389 0
M  V30 4723 H 440.496 -2.99393 -0.0209343 0
M  V30 4724 H 438.042 -1.43997 -0.00862866 0
M  V30 4725 H 439.995 -3.45402 -2.41404 0
M  V30 4726 H 438.719 -2.21138 -2.40344 0
M  V30 4727 H 437.378 -3.58393 -0.771355 0
M  V30 4728 H 437.026 -3.85365 -3.23268 0
M  V30 4729 H 436.726 -5.37961 -2.36372 0
M  V30 4730 H 438.25 -5.15708 -3.26921 0
M  V30 4731 H 439.664 -5.63623 -1.04889 0
M  V30 4732 H 438.061 -5.99126 -0.341825 0
M  V30 4733 H 439.131 -4.82713 0.46 0
M  V30 4734 N 440.474 -0.00167713 -1.576 0
M  V30 4735 C 441.404 0.988091 -2.11563 0
M  V30 4736 C 442.385 1.35736 -1.02517 0
M  V30 4737 O 443.57 1.44082 -1.30208 0
M  V30 4738 C 440.7 2.27941 -2.62031 0
M  V30 4739 C 439.654 2.0517 -3.75619 0
M  V30 4740 C 438.98 3.4033 -4.12407 0
M  V30 4741 C 440.28 1.41294 -5.02825 0
M  V30 4742 H 441.974 0.538771 -2.94513 0
M  V30 4743 H 439.52 0.257712 -1.41675 0
M  V30 4744 H 441.473 2.97539 -2.9841 0
M  V30 4745 H 440.197 2.74989 -1.76205 0
M  V30 4746 H 438.856 1.37998 -3.39635 0
M  V30 4747 H 438.504 3.85085 -3.23603 0
M  V30 4748 H 438.204 3.25909 -4.88935 0
M  V30 4749 H 439.728 4.1124 -4.51347 0
M  V30 4750 H 441.142 2.00851 -5.36965 0
M  V30 4751 H 439.539 1.37356 -5.84169 0
M  V30 4752 H 440.609 0.382362 -4.8339 0
M  V30 4753 N 441.952 1.55251 0.271103 0
M  V30 4754 C 442.915 1.87484 1.31842 0
M  V30 4755 C 443.915 0.749545 1.42262 0
M  V30 4756 O 445.105 1.01771 1.4138 0
M  V30 4757 C 442.237 2.0818 2.69951 0
M  V30 4758 H 443.43 2.81108 1.0449 0
M  V30 4759 H 440.983 1.47771 0.509258 0
M  V30 4760 H 441.718 1.16944 3.02481 0
M  V30 4761 H 441.503 2.90114 2.63774 0
M  V30 4762 H 442.993 2.34385 3.4562 0
M  V30 4763 N 443.43 -0.535701 1.48216 0
M  V30 4764 C 444.676 -1.29375 1.56173 0
M  V30 4765 C 445.009 -1.92804 0.232429 0
M  V30 4766 O 444.284 -1.78992 -0.761048 0
M  V30 4767 C 444.567 -2.38747 2.69577 0
M  V30 4768 C 444.42 -1.80046 4.12193 0
M  V30 4769 C 445.739 -3.40551 2.78771 0
M  V30 4770 H 442.858 -0.469027 0.568491 0
M  V30 4771 H 445.5 -0.597358 1.80365 0
M  V30 4772 H 443.65 -2.98147 2.4908 0
M  V30 4773 H 445.322 -1.24742 4.44114 0
M  V30 4774 H 443.565 -1.10609 4.19462 0
M  V30 4775 H 444.236 -2.59212 4.87353 0
M  V30 4776 H 446.712 -2.91099 2.97322 0
M  V30 4777 H 445.588 -4.1448 3.59857 0
M  V30 4778 H 445.849 -4.00746 1.86696 0
M  V30 4779 N 444.908 -1.36708 -0.784132 0
M  V30 4780 C 445.838 -1.34153 -1.91116 0
M  V30 4781 C 446.819 -0.212121 -1.68772 0
M  V30 4782 O 448.004 -0.410581 -1.8981 0
M  V30 4783 C 445.134 -1.13535 -3.28218 0
M  V30 4784 C 444.088 -2.23356 -3.65097 0
M  V30 4785 C 443.414 -1.87875 -5.00607 0
M  V30 4786 C 444.714 -3.65473 -3.73131 0
M  V30 4787 H 446.408 -2.28459 -1.93512 0
M  V30 4788 H 443.954 -1.09973 -0.929618 0
M  V30 4789 H 445.907 -1.10381 -4.06687 0
M  V30 4790 H 444.631 -0.156804 -3.26223 0
M  V30 4791 H 443.29 -2.25645 -2.88929 0
M  V30 4792 H 442.938 -0.885814 -4.95139 0
M  V30 4793 H 442.638 -2.61406 -5.26252 0
M  V30 4794 H 444.162 -1.86286 -5.81489 0
M  V30 4795 H 445.576 -3.65382 -4.41779 0
M  V30 4796 H 443.973 -4.37953 -4.10265 0
M  V30 4797 H 445.043 -3.99995 -2.74102 0
M  V30 4798 N 446.386 1.0089 -1.21074 0
M  V30 4799 C 447.349 2.0775 -0.968129 0
M  V30 4800 C 448.349 1.6069 0.0593445 0
M  V30 4801 O 449.539 1.73293 -0.177525 0
M  V30 4802 C 446.671 3.37794 -0.459108 0
M  V30 4803 H 447.864 2.30707 -1.9161 0
M  V30 4804 H 445.417 1.17807 -1.02719 0
M  V30 4805 H 446.152 3.20516 0.49397 0
M  V30 4806 H 445.937 3.7328 -1.20019 0
M  V30 4807 H 447.427 4.16454 -0.309099 0
M  V30 4808 N 447.864 1.01787 1.20321 0
M  V30 4809 C 448.794 0.609625 2.25401 0
M  V30 4810 C 449.775 -0.375951 1.65893 0
M  V30 4811 O 450.96 -0.261101 1.92437 0
M  V30 4812 C 448.09 -0.0515995 3.47262 0
M  V30 4813 C 447.044 0.855095 4.19371 0
M  V30 4814 C 446.37 0.0595757 5.34667 0
M  V30 4815 C 447.67 2.16374 4.75373 0
M  V30 4816 H 449.364 1.48803 2.59804 0
M  V30 4817 H 446.91 0.716934 1.24884 0
M  V30 4818 H 448.863 -0.348764 4.19954 0
M  V30 4819 H 447.587 -0.964726 3.12027 0
M  V30 4820 H 446.246 1.13628 3.48546 0
M  V30 4821 H 445.894 -0.85524 4.95676 0
M  V30 4822 H 445.594 0.663406 5.83843 0
M  V30 4823 H 447.118 -0.231105 6.10162 0
M  V30 4824 H 448.532 1.92885 5.39878 0
M  V30 4825 H 446.929 2.71853 5.34991 0
M  V30 4826 H 447.999 2.82589 3.94045 0
M  V30 4827 N 449.342 -1.36122 0.79427 0
M  V30 4828 C 450.292 -2.27373 0.169017 0
M  V30 4829 C 451.276 -1.4719 -0.649913 0
M  V30 4830 O 452.468 -1.69518 -0.50919 0
M  V30 4831 C 449.597 -3.36264 -0.691455 0
M  V30 4832 C 448.683 -4.2388 0.13653 0
M  V30 4833 N 449.074 -4.91519 1.19345 0
M  V30 4834 C 447.372 -4.45921 -0.0838499 0
M  V30 4835 C 448.073 -5.56369 1.6979 0
M  V30 4836 N 447.049 -5.34204 1.00634 0
M  V30 4837 H 450.851 -2.77154 0.977897 0
M  V30 4838 H 448.365 -1.49504 0.634208 0
M  V30 4839 H 450.362 -4.00572 -1.15534 0
M  V30 4840 H 449.022 -2.88037 -1.49883 0
M  V30 4841 H 450.033 -4.9334 1.57594 0
M  V30 4842 H 446.71 -4.08518 -0.861341 0
M  V30 4843 H 448.1 -6.20368 2.58055 0
M  V30 4844 N 450.82 -0.546701 -1.47814 0
M  V30 4845 C 451.77 0.227042 -2.26867 0
M  V30 4846 C 452.754 0.894844 -1.33721 0
M  V30 4847 O 453.946 0.794887 -1.58147 0
M  V30 4848 C 451.075 1.26299 -3.19223 0
M  V30 4849 C 450.161 0.59913 -4.19847 0
M  V30 4850 N 450.552 -0.324777 -5.04756 0
M  V30 4851 C 448.85 0.854331 -4.37741 0
M  V30 4852 C 449.551 -0.709386 -5.77358 0
M  V30 4853 N 448.527 -0.0666153 -5.43559 0
M  V30 4854 H 452.329 -0.483476 -2.89896 0
M  V30 4855 H 449.843 -0.365893 -1.58224 0
M  V30 4856 H 451.84 1.83116 -3.74532 0
M  V30 4857 H 450.5 1.97471 -2.57751 0
M  V30 4858 H 451.511 -0.698351 -5.1317 0
M  V30 4859 H 448.188 1.55536 -3.87447 0
M  V30 4860 H 449.578 -1.46796 -6.55668 0
M  V30 4861 N 452.299 1.55045 -0.282633 0
M  V30 4862 C 453.527 2.04168 0.33512 0
M  V30 4863 C 453.942 1.16071 1.48906 0
M  V30 4864 O 453.299 0.182391 1.81586 0
M  V30 4865 C 453.35 3.52332 0.808957 0
M  V30 4866 O 453.071 4.37078 -0.299038 0
M  V30 4867 C 454.572 4.17375 1.49375 0
M  V30 4868 H 451.792 0.666744 0.0754543 0
M  V30 4869 H 454.336 2.00205 -0.416918 0
M  V30 4870 H 452.491 3.56715 1.51106 0
M  V30 4871 H 452.905 5.24458 0.0665514 0
M  V30 4872 H 454.379 5.22627 1.77664 0
M  V30 4873 H 454.856 3.65999 2.42778 0
M  V30 4874 H 455.462 4.17016 0.835305 0
M  V30 4875 N 453.777 0.010035 1.57597 0
M  V30 4876 C 455.025 -0.671371 1.90623 0
M  V30 4877 C 455.346 -1.73753 0.885151 0
M  V30 4878 O 454.616 -1.95752 -0.0760611 0
M  V30 4879 H 453.196 -0.250968 0.703579 0
M  V30 4880 H 455.858 0.0533325 1.94827 0
M  V30 4881 H 454.954 -1.13626 2.90681 0
M  V30 4882 N 455.255 -1.55392 -0.262866 0
M  V30 4883 C 456.48 -1.80847 -1.01533 0
M  V30 4884 C 456.905 -0.584946 -1.78774 0
M  V30 4885 O 456.263 0.465701 -1.75217 0
M  V30 4886 C 456.311 -3.03866 -1.94159 0
M  V30 4887 O 455.415 -2.79662 -3.03089 0
M  V30 4888 H 454.756 -0.597441 -0.289759 0
M  V30 4889 H 457.286 -2.02553 -0.288698 0
M  V30 4890 H 457.296 -3.32872 -2.35924 0
M  V30 4891 H 455.971 -3.92564 -1.37354 0
M  V30 4892 H 454.548 -2.61781 -2.65566 0
M  V30 4893 N 456.733 0.527833 -1.48498 0
M  V30 4894 C 458.144 1.10975 -1.50138 0
M  V30 4895 C 458.495 1.943 -0.272378 0
M  V30 4896 O 457.62 2.07319 0.620301 0
M  V30 4897 C 458.215 2.01927 -2.72049 0
M  V30 4898 C 456.774 2.55332 -2.76554 0
M  V30 4899 C 455.921 1.32341 -2.43683 0
M  V30 4900 H 458.872 0.312986 -1.55583 0
M  V30 4901 H 458.893 2.86244 -2.50689 0
M  V30 4902 H 458.405 1.41254 -3.61481 0
M  V30 4903 H 456.506 3.19721 -1.91336 0
M  V30 4904 H 456.619 2.94319 -3.78038 0
M  V30 4905 H 454.983 1.63989 -1.94884 0
M  V30 4906 H 455.766 0.734165 -3.35358 0
M  V30 4907 N 458.211 1.37122 0.776871 0
M  V30 4908 C 459.627 1.1781 1.07671 0
M  V30 4909 C 459.827 0.0107454 2.01497 0
M  V30 4910 O 458.883 -0.650756 2.4397 0
M  V30 4911 C 460.196 2.49451 1.67913 0
M  V30 4912 C 461.744 2.55927 1.80195 0
M  V30 4913 C 462.219 3.87686 2.43851 0
M  V30 4914 N 463.71 3.891 2.51307 0
M  V30 4915 C 464.445 4.87797 3.014 0
M  V30 4916 N 463.941 5.96888 3.51705 0
M  V30 4917 N 465.734 4.75205 3.00227 0
M  V30 4918 H 457.885 2.11843 0.153778 0
M  V30 4919 H 460.148 0.938927 0.130844 0
M  V30 4920 H 459.854 3.35207 1.06439 0
M  V30 4921 H 459.728 2.66169 2.67271 0
M  V30 4922 H 462.115 1.70582 2.40803 0
M  V30 4923 H 462.196 2.43097 0.796069 0
M  V30 4924 H 461.84 4.73444 1.83884 0
M  V30 4925 H 461.77 3.97817 3.45035 0
M  V30 4926 H 464.261 3.10293 2.157 0
M  V30 4927 H 464.574 6.68155 3.88316 0
M  V30 4928 H 462.919 6.0054 3.49824 0
M  V30 4929 H 466.11 3.89103 2.60224 0
M  V30 4930 H 466.283 5.52279 3.38957 0
M  V30 4931 N 459.689 -1.00246 1.21608 0
M  V30 4932 C 460.637 -2.11193 0.97469 0
M  V30 4933 C 461.631 -1.69216 -0.0789303 0
M  V30 4934 O 462.837 -1.79853 0.0726806 0
M  V30 4935 H 459.212 -0.690455 0.297953 0
M  V30 4936 H 461.183 -2.2873 1.91638 0
M  V30 4937 C 459.932 -3.43182 0.558717 0
M  V30 4938 H 459.255 -3.75918 1.3611 0
M  V30 4939 H 460.695 -4.21823 0.429154 0
M  V30 4940 C 459.154 -3.28882 -0.730648 0
M  V30 4941 O 459.684 -3.59835 -1.78554 0
M  V30 4942 N 457.89 -2.8209 -0.698131 0
M  V30 4943 H 457.437 -2.57099 0.16061 0
M  V30 4944 H 457.395 -2.72903 -1.56113 0
M  V30 4945 N 461.167 -1.02423 -1.1978 0
M  V30 4946 C 462.413 -0.72878 -1.89896 0
M  V30 4947 C 462.768 0.734248 -1.77839 0
M  V30 4948 O 462.061 1.52733 -1.15685 0
M  V30 4949 C 462.255 -1.1088 -3.39765 0
M  V30 4950 C 462.084 -2.60722 -3.66407 0
M  V30 4951 C 460.854 -3.27623 -3.84696 0
M  V30 4952 C 463.052 -3.58924 -3.68345 0
M  V30 4953 N 461.034 -4.66617 -3.98926 0
M  V30 4954 C 462.405 -4.83514 -3.8809 0
M  V30 4955 C 464.46 -3.52788 -3.51347 0
M  V30 4956 C 463.163 -6.0271 -3.92598 0
M  V30 4957 C 465.189 -4.71394 -3.5713 0
M  V30 4958 C 464.551 -5.94796 -3.77356 0
M  V30 4959 H 460.65 -0.318473 -0.714212 0
M  V30 4960 H 463.234 -1.3106 -1.43984 0
M  V30 4961 H 461.405 -0.555233 -3.84411 0
M  V30 4962 H 463.137 -0.766082 -3.97383 0
M  V30 4963 H 459.892 -2.7804 -3.83393 0
M  V30 4964 H 460.316 -5.38805 -4.099 0
M  V30 4965 H 464.958 -2.58372 -3.3467 0
M  V30 4966 H 462.676 -6.97499 -4.08069 0
M  V30 4967 H 466.262 -4.6827 -3.45275 0
M  V30 4968 H 465.142 -6.85037 -3.81699 0
M  V30 4969 N 462.645 1.35699 -0.801477 0
M  V30 4970 C 463.595 2.2728 -0.181073 0
M  V30 4971 C 464.579 1.47533 0.642098 0
M  V30 4972 O 465.771 1.69785 0.500193 0
M  V30 4973 C 462.9 3.36626 0.673612 0
M  V30 4974 C 461.986 4.23802 -0.159008 0
M  V30 4975 N 462.377 4.90879 -1.2195 0
M  V30 4976 C 460.675 4.45959 0.0602005 0
M  V30 4977 C 461.376 5.5546 -1.72738 0
M  V30 4978 N 460.352 5.33663 -1.03465 0
M  V30 4979 H 464.154 2.76632 -0.992582 0
M  V30 4980 H 461.668 1.49166 -0.642127 0
M  V30 4981 H 463.665 4.01179 1.13408 0
M  V30 4982 H 462.325 2.88828 1.48353 0
M  V30 4983 H 463.336 4.92497 -1.60209 0
M  V30 4984 H 460.013 4.08969 0.839664 0
M  V30 4985 H 461.403 6.18991 -2.61342 0
M  V30 4986 N 464.123 0.554532 1.47522 0
M  V30 4987 C 465.033 -0.197865 2.33764 0
M  V30 4988 C 466.049 -0.914576 1.48025 0
M  V30 4989 O 467.225 -0.884067 1.80959 0
M  V30 4990 C 464.29 -1.21628 3.24665 0
M  V30 4991 C 463.351 -0.507283 4.26292 0
M  V30 4992 C 462.584 -1.47718 5.1285 0
M  V30 4993 O 462.807 -2.7118 5.01814 0
M  V30 4994 O 461.741 -1.00313 5.93482 0
M  V30 4995 H 465.567 0.50949 2.99396 0
M  V30 4996 H 463.152 0.315176 1.46038 0
M  V30 4997 H 465.034 -1.80421 3.80823 0
M  V30 4998 H 463.709 -1.9056 2.61665 0
M  V30 4999 H 462.616 0.121778 3.73902 0
M  V30 5000 H 463.949 0.140544 4.91999 0
M  V30 5001 N 465.601 -1.54893 0.290851 0
M  V30 5002 C 466.551 -2.19838 -0.604599 0
M  V30 5003 C 467.535 -1.16805 -1.10659 0
M  V30 5004 O 468.727 -1.42562 -1.04905 0
M  V30 5005 C 465.856 -2.93497 -1.78086 0
M  V30 5006 C 464.942 -4.03835 -1.29531 0
M  V30 5007 N 465.333 -5.03047 -0.527024 0
M  V30 5008 C 463.631 -4.17192 -1.57693 0
M  V30 5009 C 464.332 -5.81074 -0.269728 0
M  V30 5010 N 463.308 -5.36966 -0.846651 0
M  V30 5011 H 467.11 -2.93898 -0.00995032 0
M  V30 5012 H 464.624 -1.62121 0.0951353 0
M  V30 5013 H 466.621 -3.38484 -2.43381 0
M  V30 5014 H 465.281 -2.2095 -2.37931 0
M  V30 5015 H 466.292 -5.17611 -0.172872 0
M  V30 5016 H 462.969 -3.55845 -2.18359 0
M  V30 5017 H 464.359 -6.71005 0.346643 0
M  V30 5018 N 467.08 -0.0183926 -1.57589 0
M  V30 5019 C 467.99 0.982943 -2.13015 0
M  V30 5020 C 469.006 1.36443 -1.07979 0
M  V30 5021 O 470.182 1.44802 -1.3998 0
M  V30 5022 C 467.247 2.25024 -2.63752 0
M  V30 5023 C 466.308 1.93018 -3.83461 0
M  V30 5024 C 465.541 3.13706 -4.31769 0
M  V30 5025 O 465.764 4.2601 -3.79305 0
M  V30 5026 O 464.698 2.96629 -5.23732 0
M  V30 5027 H 468.524 0.541709 -2.9883 0
M  V30 5028 H 466.109 0.201565 -1.48034 0
M  V30 5029 H 467.991 2.99441 -2.96502 0
M  V30 5030 H 466.666 2.68349 -1.81026 0
M  V30 5031 H 465.573 1.16019 -3.55655 0
M  V30 5032 H 466.906 1.54516 -4.67317 0
M  V30 5033 N 468.558 1.5553 0.254621 0
M  V30 5034 C 469.804 1.77262 0.985193 0
M  V30 5035 C 470.137 0.582286 1.85265 0
M  V30 5036 O 469.412 -0.419666 1.89919 0
M  V30 5037 C 469.695 3.0881 1.85225 0
M  V30 5038 C 469.548 4.38233 1.0135 0
M  V30 5039 C 470.867 3.3653 2.83612 0
M  V30 5040 H 467.986 0.644906 0.356742 0
M  V30 5041 H 470.628 1.88264 0.256236 0
M  V30 5042 H 468.778 2.99562 2.47376 0
M  V30 5043 H 470.45 4.59463 0.411269 0
M  V30 5044 H 468.693 4.32636 0.317574 0
M  V30 5045 H 469.364 5.26644 1.65379 0
M  V30 5046 H 471.84 3.45691 2.31596 0
M  V30 5047 H 470.716 4.29805 3.41407 0
M  V30 5048 H 470.977 2.57064 3.59681 0
M  V30 5049 N 470.036 -0.519951 1.48776 0
M  V30 5050 C 470.968 -1.63973 1.60142 0
M  V30 5051 C 471.981 -1.55404 0.485117 0
M  V30 5052 O 473.17 -1.61682 0.756391 0
M  V30 5053 C 470.27 -3.02676 1.52449 0
M  V30 5054 C 469.443 -3.36624 2.79291 0
M  V30 5055 C 468.502 -4.54652 2.64912 0
M  V30 5056 O 467.528 -4.57374 3.38818 0
M  V30 5057 N 468.73 -5.53432 1.75195 0
M  V30 5058 H 471.495 -1.54656 2.56713 0
M  V30 5059 H 469.056 -0.707439 1.45626 0
M  V30 5060 H 471.048 -3.79525 1.4051 0
M  V30 5061 H 469.618 -3.06018 0.638125 0
M  V30 5062 H 468.838 -2.48855 3.0572 0
M  V30 5063 H 470.126 -3.56094 3.6342 0
M  V30 5064 H 469.524 -5.54018 1.14371 0
M  V30 5065 H 468.081 -6.29459 1.69189 0
M  V30 5066 N 471.514 -1.37532 -0.769588 0
M  V30 5067 C 472.444 -1.36172 -1.89682 0
M  V30 5068 C 473.425 -0.23001 -1.68538 0
M  V30 5069 O 474.61 -0.43069 -1.89364 0
M  V30 5070 C 471.74 -1.1701 -3.26995 0
M  V30 5071 C 470.694 -2.27216 -3.62708 0
M  V30 5072 C 470.02 -1.93174 -4.98586 0
M  V30 5073 C 471.32 -3.6941 -3.69234 0
M  V30 5074 H 473.014 -2.30499 -1.91078 0
M  V30 5075 H 470.56 -1.10953 -0.917902 0
M  V30 5076 H 472.513 -1.14688 -4.05493 0
M  V30 5077 H 471.237 -0.191395 -3.26039 0
M  V30 5078 H 469.896 -2.28697 -2.86519 0
M  V30 5079 H 469.544 -0.938281 -4.94171 0
M  V30 5080 H 469.244 -2.66973 -5.23449 0
M  V30 5081 H 470.768 -1.92443 -5.79481 0
M  V30 5082 H 472.182 -3.70047 -4.37879 0
M  V30 5083 H 470.579 -4.4228 -4.05597 0
M  V30 5084 H 471.649 -4.0288 -2.69844 0
M  V30 5085 N 472.992 0.995999 -1.22138 0
M  V30 5086 C 473.955 2.06711 -0.990109 0
M  V30 5087 C 474.955 1.60744 0.0422978 0
M  V30 5088 O 476.145 1.73095 -0.195895 0
M  V30 5089 C 473.277 3.37288 -0.49491 0
M  V30 5090 H 474.47 2.28661 -1.94047 0
M  V30 5091 H 472.023 1.16711 -1.03963 0
M  V30 5092 H 472.758 3.21022 0.459948 0
M  V30 5093 H 472.543 3.71986 -1.23971 0
M  V30 5094 H 474.033 4.16103 -0.353253 0
M  V30 5095 N 474.47 1.03057 1.19235 0
M  V30 5096 C 475.433 0.617418 2.20727 0
M  V30 5097 C 476.433 -0.319856 1.57587 0
M  V30 5098 O 477.623 -0.106633 1.73873 0
M  V30 5099 C 474.755 -0.096296 3.40764 0
M  V30 5100 H 475.948 1.51544 2.58794 0
M  V30 5101 H 473.501 0.821949 1.32942 0
M  V30 5102 H 474.236 -1.00859 3.08217 0
M  V30 5103 H 474.021 0.577217 3.87828 0
M  V30 5104 H 475.511 -0.372219 4.15938 0
M  V30 5105 N 475.948 -1.35272 0.808662 0
M  V30 5106 C 477.196 -1.98316 0.389233 0
M  V30 5107 C 477.517 -1.64465 -1.04767 0
M  V30 5108 O 476.787 -0.928175 -1.72516 0
M  V30 5109 H 475.367 -0.733585 0.140935 0
M  V30 5110 H 478.029 -1.6515 1.03496 0
M  V30 5111 H 477.125 -3.08123 0.496631 0
M  V30 5112 N 477.426 -0.562348 -1.47226 0
M  V30 5113 C 478.672 -0.0402761 -2.0276 0
M  V30 5114 C 479.005 1.30823 -1.43523 0
M  V30 5115 O 478.28 1.85249 -0.592705 0
M  V30 5116 C 478.563 0.047311 -3.60069 0
M  V30 5117 C 478.416 -1.32865 -4.29729 0
M  V30 5118 C 479.735 0.758182 -4.3352 0
M  V30 5119 H 476.854 -0.0161105 -0.736824 0
M  V30 5120 H 479.496 -0.725628 -1.75598 0
M  V30 5121 H 477.646 0.630986 -3.83342 0
M  V30 5122 H 479.318 -1.95593 -4.17781 0
M  V30 5123 H 477.561 -1.90195 -3.89882 0
M  V30 5124 H 478.232 -1.22004 -5.38349 0
M  V30 5125 H 480.708 0.262546 -4.15271 0
M  V30 5126 H 479.584 0.78844 -5.43208 0
M  V30 5127 H 479.845 1.81537 -4.03109 0
M  V30 5128 N 478.904 1.54736 -0.299062 0
M  V30 5129 C 479.867 2.22127 0.565012 0
M  V30 5130 C 480.867 1.20669 1.06281 0
M  V30 5131 O 482.057 1.45417 0.959145 0
M  V30 5132 C 479.189 2.90611 1.78208 0
M  V30 5133 H 480.382 2.99891 -0.0237448 0
M  V30 5134 H 477.935 1.5622 -0.0498788 0
M  V30 5135 H 478.67 2.16921 2.41072 0
M  V30 5136 H 478.455 3.64984 1.43281 0
M  V30 5137 H 479.945 3.42026 2.396 0
M  V30 5138 N 480.382 0.0267497 1.57577 0
M  V30 5139 C 481.659 -0.690926 1.82991 0
M  V30 5140 C 482.039 -1.90471 0.910164 0
M  V30 5141 O 481.387 -2.28474 -0.0347985 0
M  V30 5142 C 481.597 -1.07139 3.32148 0
M  V30 5143 C 482.945 -1.46402 3.98562 0
M  V30 5144 O 483.969 -1.16443 3.36629 0
M  V30 5145 O 482.828 -2.02214 5.07712 0
M  V30 5146 H 479.922 -0.338747 0.75444 0
M  V30 5147 H 482.468 0.0542506 1.69613 0
M  V30 5148 H 481.24 -0.207394 3.9075 0
M  V30 5149 H 480.863 -1.87481 3.50623 0
M  V30 5150 N 481.861 -1.55662 -0.24637 0
M  V30 5151 C 482.793 -1.86811 -1.32794 0
M  V30 5152 C 483.806 -0.754413 -1.44265 0
M  V30 5153 O 484.995 -1.03253 -1.45606 0
M  V30 5154 C 482.095 -2.0397 -2.70646 0
M  V30 5155 C 481.268 -3.34832 -2.81436 0
M  V30 5156 C 480.327 -3.41727 -4.00136 0
M  V30 5157 O 479.353 -4.14934 -3.89639 0
M  V30 5158 N 480.555 -2.71058 -5.1333 0
M  V30 5159 H 483.32 -2.80174 -1.06409 0
M  V30 5160 H 480.881 -1.55906 -0.43647 0
M  V30 5161 H 482.873 -2.05924 -3.48393 0
M  V30 5162 H 481.443 -1.1735 -2.89738 0
M  V30 5163 H 480.663 -3.4519 -1.90361 0
M  V30 5164 H 481.951 -4.21085 -2.85595 0
M  V30 5165 H 481.349 -2.11314 -5.2475 0
M  V30 5166 H 479.906 -2.78704 -5.89209 0
M  V30 5167 N 483.339 0.512053 -1.4905 0
M  V30 5168 C 484.302 1.59704 -1.64399 0
M  V30 5169 C 485.302 1.52285 -0.516317 0
M  V30 5170 O 486.492 1.55635 -0.782527 0
M  V30 5171 C 483.624 2.9935 -1.63102 0
M  V30 5172 H 484.817 1.47428 -2.61161 0
M  V30 5173 H 482.37 0.735469 -1.37915 0
M  V30 5174 H 483.105 3.17116 -0.678836 0
M  V30 5175 H 482.89 3.06144 -2.44986 0
M  V30 5176 H 484.38 3.782 -1.77072 0
M  V30 5177 N 484.817 1.37938 0.762283 0
M  V30 5178 C 485.78 1.34279 1.85747 0
M  V30 5179 C 486.78 0.244969 1.58923 0
M  V30 5180 O 487.97 0.501365 1.66829 0
M  V30 5181 C 485.102 1.08833 3.23061 0
M  V30 5182 H 486.295 2.31705 1.90401 0
M  V30 5183 H 483.848 1.23105 0.963057 0
M  V30 5184 H 484.583 0.119767 3.24079 0
M  V30 5185 H 484.368 1.88306 3.43923 0
M  V30 5186 H 485.858 1.08946 4.03138 0
M  V30 5187 N 486.295 -0.989507 1.22664 0
M  V30 5188 C 487.225 -2.09847 1.02404 0
M  V30 5189 C 488.206 -1.70007 -0.0561303 0
M  V30 5190 O 489.391 -1.93906 0.106748 0
M  V30 5191 C 486.521 -3.41996 0.604663 0
M  V30 5192 C 485.475 -3.95699 1.63115 0
M  V30 5193 C 484.801 -5.23936 1.0675 0
M  V30 5194 C 486.101 -4.25999 3.02196 0
M  V30 5195 H 487.795 -2.27054 1.95158 0
M  V30 5196 H 485.341 -1.09111 0.939727 0
M  V30 5197 H 487.294 -4.1899 0.45002 0
M  V30 5198 H 486.018 -3.24626 -0.35855 0
M  V30 5199 H 484.677 -3.2084 1.77362 0
M  V30 5200 H 484.325 -5.02909 0.0955422 0
M  V30 5201 H 484.025 -5.60833 1.75328 0
M  V30 5202 H 485.549 -6.0356 0.924516 0
M  V30 5203 H 486.963 -4.93777 2.91303 0
M  V30 5204 H 485.36 -4.74076 3.67929 0
M  V30 5205 H 486.43 -3.33636 3.51873 0
M  V30 5206 N 487.773 -1.03688 -1.18687 0
M  V30 5207 C 488.736 -0.629115 -2.20397 0
M  V30 5208 C 489.736 0.311495 -1.57754 0
M  V30 5209 O 490.926 0.0974107 -1.73927 0
M  V30 5210 C 488.058 0.0782231 -3.4081 0
M  V30 5211 H 489.251 -1.52915 -2.57987 0
M  V30 5212 H 486.804 -0.828988 -1.32505 0
M  V30 5213 H 487.539 0.992233 -3.08748 0
M  V30 5214 H 487.324 -0.597776 -3.87517 0
M  V30 5215 H 488.814 0.350156 -4.16129 0
M  V30 5216 N 489.251 1.34841 -0.815825 0
M  V30 5217 C 490.181 2.32187 -0.247298 0
M  V30 5218 C 491.162 1.5791 0.632344 0
M  V30 5219 O 492.347 1.8593 0.560698 0
M  V30 5220 C 489.477 3.42122 0.597466 0
M  V30 5221 C 488.431 4.27602 -0.184446 0
M  V30 5222 C 487.757 5.28942 0.782609 0
M  V30 5223 C 489.057 5.03502 -1.38865 0
M  V30 5224 H 490.751 2.79985 -1.06061 0
M  V30 5225 H 488.297 1.34611 -0.511461 0
M  V30 5226 H 490.25 4.09232 1.00533 0
M  V30 5227 H 488.974 2.92956 1.44376 0
M  V30 5228 H 487.633 3.62085 -0.573592 0
M  V30 5229 H 487.281 4.7604 1.62466 0
M  V30 5230 H 486.981 5.87008 0.263695 0
M  V30 5231 H 488.505 5.98922 1.18848 0
M  V30 5232 H 489.919 5.63506 -1.05518 0
M  V30 5233 H 488.316 5.71108 -1.8427 0
M  V30 5234 H 489.386 4.33608 -2.17054 0
M  V30 5235 N 490.729 0.570148 1.46925 0
M  V30 5236 C 491.954 0.0542592 2.07329 0
M  V30 5237 C 492.379 -1.23582 1.41806 0
M  V30 5238 O 491.737 -1.74341 0.497479 0
M  V30 5239 C 491.785 -0.111175 3.60429 0
M  V30 5240 O 490.889 -1.17071 3.95434 0
M  V30 5241 H 490.23 0.0571425 0.661537 0
M  V30 5242 H 492.76 0.789516 1.88753 0
M  V30 5243 H 492.77 -0.321315 4.06733 0
M  V30 5244 H 491.445 0.831012 4.07513 0
M  V30 5245 H 490.022 -0.940029 3.60857 0
M  V30 5246 N 492.207 -1.54576 0.307264 0
M  V30 5247 C 493.139 -2.21212 -0.599807 0
M  V30 5248 C 494.152 -1.20685 -1.09266 0
M  V30 5249 O 495.341 -1.47244 -1.00903 0
M  V30 5250 C 492.441 -2.84994 -1.83389 0
M  V30 5251 C 491.614 -4.11511 -1.48248 0
M  V30 5252 C 490.673 -4.59038 -2.57237 0
M  V30 5253 O 489.699 -5.24095 -2.22065 0
M  V30 5254 N 490.901 -4.31884 -3.87887 0
M  V30 5255 H 493.666 -2.99686 -0.0293075 0
M  V30 5256 H 491.227 -1.61379 0.129738 0
M  V30 5257 H 493.219 -3.1372 -2.5566 0
M  V30 5258 H 491.789 -2.10324 -2.31263 0
M  V30 5259 H 491.009 -3.89728 -0.592122 0
M  V30 5260 H 492.297 -4.93879 -1.22316 0
M  V30 5261 H 491.695 -3.79778 -4.19268 0
M  V30 5262 H 490.252 -4.65304 -4.56438 0
M  V30 5263 N 493.685 -0.035106 -1.57561 0
M  V30 5264 C 494.931 0.64318 -1.92331 0
M  V30 5265 C 495.264 1.71434 -0.912368 0
M  V30 5266 O 494.539 1.94395 0.0640303 0
M  V30 5267 C 494.822 1.25411 -3.37556 0
M  V30 5268 C 494.675 0.192109 -4.4939 0
M  V30 5269 C 495.994 2.17041 -3.82859 0
M  V30 5270 H 493.113 0.232341 -0.699419 0
M  V30 5271 H 495.755 -0.0935889 -1.89769 0
M  V30 5272 H 493.905 1.88205 -3.39869 0
M  V30 5273 H 495.577 -0.438849 -4.59208 0
M  V30 5274 H 493.82 -0.481725 -4.31117 0
M  V30 5275 H 494.491 0.659292 -5.48049 0
M  V30 5276 H 496.967 1.64228 -3.8232 0
M  V30 5277 H 495.843 2.56738 -4.85157 0
M  V30 5278 H 496.104 3.06401 -3.18702 0
M  V30 5279 N 495.163 1.55791 0.238111 0
M  V30 5280 C 496.579 1.48411 0.587045 0
M  V30 5281 C 496.779 0.72702 1.87927 0
M  V30 5282 O 495.835 0.259942 2.51158 0
M  V30 5283 C 497.148 2.92873 0.681623 0
M  V30 5284 C 498.696 3.03295 0.773363 0
M  V30 5285 C 499.171 4.49082 0.899428 0
M  V30 5286 N 500.662 4.53056 0.964075 0
M  V30 5287 C 501.397 5.63117 1.08104 0
M  V30 5288 N 500.893 6.82969 1.16299 0
M  V30 5289 N 502.686 5.50933 1.11488 0
M  V30 5290 H 494.837 2.0345 -0.610076 0
M  V30 5291 H 497.1 0.924034 -0.211813 0
M  V30 5292 H 496.806 3.51142 -0.19802 0
M  V30 5293 H 496.68 3.43851 1.55069 0
M  V30 5294 H 499.067 2.45101 1.64346 0
M  V30 5295 H 499.148 2.55513 -0.121034 0
M  V30 5296 H 498.792 5.07889 0.0338586 0
M  V30 5297 H 498.722 4.94553 1.809 0
M  V30 5298 H 501.213 3.66737 0.91173 0
M  V30 5299 H 501.526 7.62598 1.25155 0
M  V30 5300 H 499.871 6.85712 1.13241 0
M  V30 5301 H 503.062 4.56231 1.0474 0
M  V30 5302 H 503.235 6.36743 1.20259 0
M  V30 5303 N 496.642 -0.504142 1.49319 0
M  V30 5304 C 497.605 -1.5883 1.65244 0
M  V30 5305 C 498.605 -1.52009 0.524386 0
M  V30 5306 O 499.795 -1.55218 0.79077 0
M  V30 5307 C 496.927 -2.98481 1.64687 0
M  V30 5308 H 498.12 -1.4604 2.61939 0
M  V30 5309 H 495.673 -0.728144 1.38303 0
M  V30 5310 H 496.408 -3.16751 0.695644 0
M  V30 5311 H 496.193 -3.0484 2.46607 0
M  V30 5312 H 497.683 -3.77256 1.79075 0
M  V30 5313 N 498.12 -1.38341 -0.754957 0
M  V30 5314 C 499.35 -1.37504 -1.54195 0
M  V30 5315 C 499.758 0.0373787 -1.89163 0
M  V30 5316 O 499.101 1.01402 -1.53178 0
M  V30 5317 C 499.163 -2.16488 -2.87008 0
M  V30 5318 C 498.827 -3.65311 -2.74585 0
M  V30 5319 C 499.824 -4.58834 -2.44474 0
M  V30 5320 C 497.509 -4.08649 -2.9208 0
M  V30 5321 C 499.503 -5.93675 -2.32011 0
M  V30 5322 C 497.19 -5.43571 -2.79237 0
M  V30 5323 C 498.188 -6.35898 -2.49245 0
M  V30 5324 O 497.876 -7.68338 -2.36458 0
M  V30 5325 H 497.608 -0.472159 -0.483779 0
M  V30 5326 H 500.162 -1.82515 -0.94221 0
M  V30 5327 H 498.392 -1.66194 -3.49166 0
M  V30 5328 H 500.081 -2.08076 -3.4851 0
M  V30 5329 H 500.847 -4.26657 -2.30627 0
M  V30 5330 H 496.726 -3.37134 -3.14422 0
M  V30 5331 H 500.27 -6.65706 -2.08522 0
M  V30 5332 H 496.167 -5.75345 -2.92657 0
M  V30 5333 H 496.935 -7.78845 -2.5168 0
M  V30 5334 N 499.598 0.982988 -1.23187 0
M  V30 5335 C 500.508 2.10907 -1.02739 0
M  V30 5336 C 501.524 1.73979 0.0273188 0
M  V30 5337 O 502.7 2.00702 -0.16757 0
M  V30 5338 C 499.765 3.41142 -0.618304 0
M  V30 5339 C 498.826 3.92112 -1.74777 0
M  V30 5340 C 498.059 5.16131 -1.3581 0
M  V30 5341 O 498.282 5.6989 -0.241201 0
M  V30 5342 O 497.216 5.61103 -2.17824 0
M  V30 5343 H 501.042 2.31046 -1.97108 0
M  V30 5344 H 498.627 1.09284 -1.01869 0
M  V30 5345 H 500.509 4.19488 -0.400982 0
M  V30 5346 H 499.184 3.2234 0.296421 0
M  V30 5347 H 498.091 3.14895 -2.0197 0
M  V30 5348 H 499.424 4.15364 -2.64071 0
M  V30 5349 N 501.076 1.04316 1.18135 0
M  V30 5350 C 502.008 0.594444 2.21357 0
M  V30 5351 C 503.021 -0.337215 1.59269 0
M  V30 5352 O 504.21 -0.131337 1.78016 0
M  V30 5353 C 501.31 -0.151251 3.38562 0
M  V30 5354 C 500.483 0.788907 4.30227 0
M  V30 5355 C 499.542 0.0860572 5.2613 0
M  V30 5356 O 498.568 0.717302 5.64662 0
M  V30 5357 N 499.77 -1.17969 5.68387 0
M  V30 5358 H 502.535 1.48227 2.60478 0
M  V30 5359 H 500.096 0.92396 1.32946 0
M  V30 5360 H 502.088 -0.631352 3.99745 0
M  V30 5361 H 500.658 -0.940639 2.98112 0
M  V30 5362 H 499.878 1.44882 3.6661 0
M  V30 5363 H 501.166 1.42738 4.88368 0
M  V30 5364 H 500.564 -1.71302 5.3914 0
M  V30 5365 H 499.121 -1.60402 6.31755 0
M  V30 5366 N 502.554 -1.34406 0.822964 0
M  V30 5367 C 503.8 -1.98578 0.411666 0
M  V30 5368 C 504.133 -1.65093 -1.02264 0
M  V30 5369 O 503.408 -0.92258 -1.71227 0
M  V30 5370 C 503.691 -3.54823 0.614235 0
M  V30 5371 C 503.544 -3.9805 2.09466 0
M  V30 5372 C 504.863 -4.40071 0.050221 0
M  V30 5373 H 501.982 -0.721355 0.151047 0
M  V30 5374 H 504.624 -1.59301 1.03554 0
M  V30 5375 H 502.774 -3.88411 0.0831774 0
M  V30 5376 H 504.446 -3.74795 2.68936 0
M  V30 5377 H 502.689 -3.4836 2.5851 0
M  V30 5378 H 503.36 -5.06819 2.18721 0
M  V30 5379 H 505.836 -4.13037 0.503953 0
M  V30 5380 H 504.712 -5.48452 0.221759 0
M  V30 5381 H 504.973 -4.29576 -1.04482 0
M  V30 5382 N 504.032 -0.577932 -1.46621 0
M  V30 5383 C 505.448 -0.239242 -1.57797 0
M  V30 5384 C 505.648 1.25843 -1.57371 0
M  V30 5385 O 504.704 2.03988 -1.48813 0
M  V30 5386 C 506.017 -0.884227 -2.87405 0
M  V30 5387 C 507.565 -0.857373 -3.01028 0
M  V30 5388 C 508.04 -1.48181 -4.33366 0
M  V30 5389 N 509.531 -1.44593 -4.40053 0
M  V30 5390 C 510.266 -1.89852 -5.41058 0
M  V30 5391 N 509.762 -2.43062 -6.48762 0
M  V30 5392 N 511.555 -1.80797 -5.3223 0
M  V30 5393 H 503.706 -1.55073 -1.45142 0
M  V30 5394 H 505.969 -0.647903 -0.692044 0
M  V30 5395 H 505.675 -1.93759 -2.93514 0
M  V30 5396 H 505.549 -0.389585 -3.75183 0
M  V30 5397 H 507.936 0.187357 -2.94505 0
M  V30 5398 H 508.017 -1.38999 -2.14739 0
M  V30 5399 H 507.661 -2.52572 -4.40647 0
M  V30 5400 H 507.591 -0.924464 -5.18422 0
M  V30 5401 H 510.082 -1.05694 -3.62819 0
M  V30 5402 H 510.395 -2.75466 -7.22038 0
M  V30 5403 H 508.74 -2.47085 -6.49595 0
M  V30 5404 H 511.931 -1.38989 -4.46989 0
M  V30 5405 H 512.104 -2.16385 -6.10804 0
M  V30 5406 N 505.51 1.54411 -0.315457 0
M  V30 5407 C 506.42 2.27737 0.56329 0
M  V30 5408 C 507.436 1.31787 1.13614 0
M  V30 5409 O 508.612 1.64791 1.15784 0
M  V30 5410 C 505.677 3.01478 1.71207 0
M  V30 5411 C 504.738 4.12997 1.17185 0
M  V30 5412 C 503.971 4.83212 2.26588 0
M  V30 5413 O 504.194 4.52884 3.46775 0
M  V30 5414 O 503.128 5.70299 1.92463 0
M  V30 5415 H 506.954 3.03683 -0.0319614 0
M  V30 5416 H 504.539 1.49178 -0.0814188 0
M  V30 5417 H 506.421 3.47683 2.38106 0
M  V30 5418 H 505.096 2.28414 2.29366 0
M  V30 5419 H 504.003 3.71159 0.468174 0
M  V30 5420 H 505.336 4.8808 0.635501 0
M  V30 5421 N 506.988 0.0434614 1.5754 0
M  V30 5422 C 507.918 -0.931651 2.14109 0
M  V30 5423 C 508.899 -1.32971 1.06079 0
M  V30 5424 O 510.084 -1.40579 1.33982 0
M  V30 5425 C 507.214 -2.20914 2.67982 0
M  V30 5426 C 506.168 -1.95139 3.80926 0
M  V30 5427 C 505.494 -3.29276 4.21285 0
M  V30 5428 C 506.794 -1.27913 5.06395 0
M  V30 5429 H 508.488 -0.460497 2.95837 0
M  V30 5430 H 506.034 -0.220058 1.42309 0
M  V30 5431 H 507.987 -2.89522 3.06194 0
M  V30 5432 H 506.711 -2.70221 1.83434 0
M  V30 5433 H 505.37 -1.28945 3.43175 0
M  V30 5434 H 505.018 -3.76369 3.33699 0
M  V30 5435 H 504.718 -3.12831 4.97404 0
M  V30 5436 H 506.242 -3.99129 4.62091 0
M  V30 5437 H 507.656 -1.86544 5.42102 0
M  V30 5438 H 506.053 -1.2182 5.87605 0
M  V30 5439 H 507.123 -0.254066 4.84234 0
M  V30 5440 N 508.466 -1.55915 -0.229846 0
M  V30 5441 C 509.429 -1.90914 -1.26824 0
M  V30 5442 C 510.429 -0.786999 -1.40225 0
M  V30 5443 O 511.619 -1.05484 -1.38632 0
M  V30 5444 C 508.751 -2.15264 -2.64337 0
M  V30 5445 H 509.944 -2.8378 -0.969998 0
M  V30 5446 H 507.497 -1.49069 -0.4699 0
M  V30 5447 H 508.232 -1.24923 -2.99274 0
M  V30 5448 H 508.017 -2.97005 -2.55989 0
M  V30 5449 H 509.507 -2.43467 -3.39284 0
M  V30 5450 N 509.944 0.496216 -1.49584 0
M  V30 5451 C 511.36 0.827814 -1.36453 0
M  V30 5452 C 511.56 1.97464 -0.401285 0
M  V30 5453 O 510.616 2.51958 0.165296 0
M  V30 5454 C 511.929 1.16352 -2.77277 0
M  V30 5455 C 513.477 1.27145 -2.86013 0
M  V30 5456 C 513.952 1.64042 -4.27615 0
M  V30 5457 N 515.443 1.71082 -4.30448 0
M  V30 5458 C 516.178 2.01085 -5.36984 0
M  V30 5459 N 515.674 2.2928 -6.5376 0
M  V30 5460 N 517.467 2.02376 -5.24405 0
M  V30 5461 H 509.618 -0.259947 -2.10803 0
M  V30 5462 H 511.881 -0.0537163 -0.946477 0
M  V30 5463 H 511.587 0.394153 -3.49484 0
M  V30 5464 H 511.461 2.10582 -3.12946 0
M  V30 5465 H 513.848 2.03152 -2.1404 0
M  V30 5466 H 513.929 0.309542 -2.5392 0
M  V30 5467 H 513.573 0.88583 -5.00115 0
M  V30 5468 H 513.503 2.6134 -4.57175 0
M  V30 5469 H 515.994 1.51434 -3.46232 0
M  V30 5470 H 516.307 2.51376 -7.30774 0
M  V30 5471 H 514.652 2.26726 -6.56978 0
M  V30 5472 H 517.843 1.79829 -4.32179 0
M  V30 5473 H 518.016 2.25425 -6.07526 0
M  V30 5474 N 511.423 1.38739 0.74761 0
M  V30 5475 C 512.839 1.20067 1.05148 0
M  V30 5476 C 513.039 0.0534835 2.01429 0
M  V30 5477 O 512.095 -0.59886 2.45296 0
M  V30 5478 C 513.408 2.52957 1.62584 0
M  V30 5479 C 514.956 2.59692 1.74726 0
M  V30 5480 C 515.431 3.92772 2.35573 0
M  V30 5481 N 516.922 3.94343 2.42997 0
M  V30 5482 C 517.657 4.9408 2.90985 0
M  V30 5483 N 517.153 6.04214 3.38965 0
M  V30 5484 N 518.946 4.81466 2.9008 0
M  V30 5485 H 511.097 2.12121 0.108808 0
M  V30 5486 H 513.36 0.941491 0.110899 0
M  V30 5487 H 513.066 3.37389 0.993051 0
M  V30 5488 H 512.94 2.71779 2.61565 0
M  V30 5489 H 515.327 1.75651 2.3713 0
M  V30 5490 H 515.408 2.44731 0.744326 0
M  V30 5491 H 515.052 4.77238 1.738 0
M  V30 5492 H 514.982 4.05046 3.36519 0
M  V30 5493 H 517.473 3.14799 2.0907 0
M  V30 5494 H 517.786 6.76241 3.74056 0
M  V30 5495 H 516.131 6.07825 3.37007 0
M  V30 5496 H 519.322 3.94535 2.51912 0
M  V30 5497 H 519.495 5.59344 3.27166 0
M  V30 5498 N 512.901 -0.976442 1.23707 0
M  V30 5499 C 513.811 -2.10359 1.03856 0
M  V30 5500 C 514.827 -1.73991 -0.0180919 0
M  V30 5501 O 516.003 -2.0061 0.178211 0
M  V30 5502 C 513.068 -3.40809 0.636387 0
M  V30 5503 C 512.129 -3.91179 1.76854 0
M  V30 5504 C 511.362 -5.15404 1.38546 0
M  V30 5505 O 511.585 -5.69754 0.27142 0
M  V30 5506 O 510.519 -5.5994 2.20797 0
M  V30 5507 H 514.345 -2.29997 1.98331 0
M  V30 5508 H 511.93 -1.08742 1.02448 0
M  V30 5509 H 513.812 -4.19269 0.423223 0
M  V30 5510 H 512.487 -3.22493 -0.279322 0
M  V30 5511 H 511.394 -3.13819 2.03638 0
M  V30 5512 H 512.727 -4.13958 2.6627 0
M  V30 5513 N 514.379 -1.04941 -1.1758 0
M  V30 5514 C 515.342 -0.652456 -2.19717 0
M  V30 5515 C 516.342 0.294745 -1.58076 0
M  V30 5516 O 517.532 0.0789579 -1.74021 0
M  V30 5517 C 514.664 0.0420712 -3.40874 0
M  V30 5518 H 515.857 -1.55642 -2.5635 0
M  V30 5519 H 513.41 -0.842995 -1.31618 0
M  V30 5520 H 514.145 0.95943 -3.09783 0
M  V30 5521 H 513.93 -0.638844 -3.86861 0
M  V30 5522 H 515.42 0.306 -4.16477 0
M  V30 5523 N 515.857 1.33968 -0.830081 0
M  V30 5524 C 516.787 2.31911 -0.271911 0
M  V30 5525 C 517.768 1.58571 0.61556 0
M  V30 5526 O 518.953 1.86514 0.540946 0
M  V30 5527 C 516.083 3.42737 0.561146 0
M  V30 5528 C 515.037 4.27383 -0.229789 0
M  V30 5529 C 514.363 5.29742 0.726463 0
M  V30 5530 C 515.663 5.02 -1.44197 0
M  V30 5531 H 517.357 2.78844 -1.09025 0
M  V30 5532 H 514.903 1.34061 -0.52571 0
M  V30 5533 H 516.856 4.10276 0.961867 0
M  V30 5534 H 515.58 2.94471 1.41261 0
M  V30 5535 H 514.239 3.61456 -0.611964 0
M  V30 5536 H 513.887 4.77736 1.57408 0
M  V30 5537 H 513.587 5.87255 0.20142 0
M  V30 5538 H 515.111 6.00149 1.12489 0
M  V30 5539 H 516.525 5.62355 -1.11488 0
M  V30 5540 H 514.922 5.69122 -1.90317 0
M  V30 5541 H 515.992 4.31281 -2.2164 0
M  V30 5542 N 517.335 0.585699 1.46312 0
M  V30 5543 C 518.581 0.0725284 2.0267 0
M  V30 5544 C 518.914 -1.28523 1.45586 0
M  V30 5545 O 518.189 -1.84283 0.622101 0
M  V30 5546 C 518.472 0.0099788 3.60099 0
M  V30 5547 C 518.325 1.39685 4.27561 0
M  V30 5548 C 519.644 -0.689117 4.34671 0
M  V30 5549 H 516.763 0.0278307 0.736474 0
M  V30 5550 H 519.405 0.753472 1.74421 0
M  V30 5551 H 517.555 -0.56992 3.84297 0
M  V30 5552 H 519.227 2.02215 4.14617 0
M  V30 5553 H 517.47 1.96374 3.86807 0
M  V30 5554 H 518.141 1.30553 5.36339 0
M  V30 5555 H 520.617 -0.196446 4.15636 0
M  V30 5556 H 519.493 -0.701921 5.44393 0
M  V30 5557 H 519.754 -1.75101 4.05946 0
M  V30 5558 N 518.813 -1.54241 0.323641 0
M  V30 5559 C 519.761 -2.25813 -0.557804 0
M  V30 5560 C 520.755 -1.27225 -1.11849 0
M  V30 5561 O 521.961 -1.45001 -1.06652 0
M  V30 5562 H 518.336 -0.72532 -0.198532 0
M  V30 5563 H 520.307 -2.98322 0.0681112 0
M  V30 5564 C 519.056 -3.02913 -1.70701 0
M  V30 5565 H 518.379 -3.78593 -1.28482 0
M  V30 5566 H 519.819 -3.56238 -2.29935 0
M  V30 5567 C 518.278 -2.11217 -2.62467 0
M  V30 5568 O 518.808 -1.69508 -3.64184 0
M  V30 5569 N 517.014 -1.76704 -2.30703 0
M  V30 5570 H 516.561 -2.1082 -1.48029 0
M  V30 5571 H 516.519 -1.15631 -2.92364 0
M  V30 5572 N 520.291 -0.0518155 -1.57515 0
M  V30 5573 C 521.519 0.631395 -1.9703 0
M  V30 5574 C 521.934 1.64341 -0.92938 0
M  V30 5575 O 521.291 1.82296 0.0863266 0
M  V30 5576 C 521.342 1.31774 -3.36627 0
M  V30 5577 O 521.063 0.346247 -4.3673 0
M  V30 5578 C 522.564 2.09065 -3.90905 0
M  V30 5579 H 519.784 0.172576 -0.648428 0
M  V30 5580 H 522.328 -0.118306 -2.04158 0
M  V30 5581 H 520.483 2.01867 -3.30649 0
M  V30 5582 H 520.897 0.836226 -5.17791 0
M  V30 5583 H 522.371 2.52508 -4.9086 0
M  V30 5584 H 522.848 2.93908 -3.26366 0
M  V30 5585 H 523.454 1.43882 -4.00223 0
M  V30 5586 N 521.769 1.56035 0.221574 0
M  V30 5587 C 523.018 1.78245 0.944016 0
M  V30 5588 C 523.331 0.620371 1.85501 0
M  V30 5589 O 524.537 0.726103 2.6161 0
M  V30 5590 C 522.993 3.15659 1.7288 0
M  V30 5591 C 522.601 4.39591 0.863942 0
M  V30 5592 C 524.345 3.47195 2.44246 0
M  V30 5593 C 522.252 5.6803 1.64607 0
M  V30 5594 H 521.182 0.664547 0.356222 0
M  V30 5595 H 523.833 1.8243 0.197904 0
M  V30 5596 H 522.215 3.0565 2.51781 0
M  V30 5597 H 523.389 4.60655 0.115464 0
M  V30 5598 H 521.704 4.15572 0.262407 0
M  V30 5599 H 524.301 4.40381 3.03263 0
M  V30 5600 H 524.644 2.69693 3.1713 0
M  V30 5601 H 525.177 3.58533 1.72334 0
M  V30 5602 H 521.916 6.48425 0.960507 0
M  V30 5603 H 521.436 5.51027 2.36917 0
M  V30 5604 H 523.115 6.08203 2.20675 0
M  V30 5605 N 523.247 -0.488276 1.49845 0
M  V30 5606 C 524.475 -1.26527 1.63702 0
M  V30 5607 C 524.89 -1.8618 0.313447 0
M  V30 5608 O 524.247 -1.68432 -0.702624 0
M  V30 5609 C 524.298 -2.3864 2.71538 0
M  V30 5610 O 524.019 -1.81437 3.98763 0
M  V30 5611 C 525.52 -3.29805 2.96215 0
M  V30 5612 H 522.74 -0.383295 0.55075 0
M  V30 5613 H 525.284 -0.584779 1.95961 0
M  V30 5614 H 523.439 -3.02496 2.42023 0
M  V30 5615 H 523.853 -2.55135 4.58265 0
M  V30 5616 H 525.327 -4.04722 3.75372 0
M  V30 5617 H 525.804 -3.87563 2.06619 0
M  V30 5618 H 526.41 -2.71703 3.27196 0
M  V30 5619 N 524.725 -1.39134 -0.740242 0
M  V30 5620 C 525.673 -1.3757 -1.87556 0
M  V30 5621 C 526.667 -0.259593 -1.67399 0
M  V30 5622 O 527.873 -0.429349 -1.74804 0
M  V30 5623 H 524.248 -0.42947 -0.6173 0
M  V30 5624 H 526.219 -2.33345 -1.85991 0
M  V30 5625 C 524.968 -1.23087 -3.25184 0
M  V30 5626 H 524.291 -2.08237 -3.41288 0
M  V30 5627 H 525.731 -1.26049 -4.0483 0
M  V30 5628 C 524.19 0.0611471 -3.36845 0
M  V30 5629 O 524.72 1.03328 -3.88183 0
M  V30 5630 N 522.926 0.122454 -2.90342 0
M  V30 5631 H 522.473 -0.669329 -2.48752 0
M  V30 5632 H 522.431 0.986463 -2.98523 0
M  V30 5633 N 526.204 0.969867 -1.24223 0
M  V30 5634 C 527.167 2.04564 -1.03373 0
M  V30 5635 C 528.167 1.60798 0.00819206 0
M  V30 5636 O 529.357 1.72641 -0.232567 0
M  V30 5637 C 526.489 3.36163 -0.566343 0
M  V30 5638 H 527.682 2.24494 -1.98853 0
M  V30 5639 H 525.235 1.1448 -1.06415 0
M  V30 5640 H 525.97 3.21925 0.391751 0
M  V30 5641 H 525.755 3.69273 -1.31834 0
M  V30 5642 H 527.245 4.1526 -0.441435 0
M  V30 5643 N 527.682 1.05563 1.17022 0
M  V30 5644 C 528.931 0.763036 1.8671 0
M  V30 5645 C 529.244 -0.712857 1.82147 0
M  V30 5646 O 530.45 -1.11955 2.47343 0
M  V30 5647 C 528.906 1.31474 3.35026 0
M  V30 5648 C 528.514 2.82034 3.48081 0
M  V30 5649 C 530.258 1.09935 4.10018 0
M  V30 5650 C 528.165 3.30486 4.90442 0
M  V30 5651 H 527.095 0.281747 0.699382 0
M  V30 5652 H 529.746 1.2734 1.32124 0
M  V30 5653 H 528.128 0.732171 3.89173 0
M  V30 5654 H 529.302 3.46178 3.04133 0
M  V30 5655 H 527.617 3.02156 2.86515 0
M  V30 5656 H 530.214 1.43632 5.15048 0
M  V30 5657 H 530.557 0.0373072 4.16283 0
M  V30 5658 H 531.09 1.64732 3.62089 0
M  V30 5659 H 527.829 4.36137 4.89352 0
M  V30 5660 H 527.349 2.71086 5.35044 0
M  V30 5661 H 529.028 3.25382 5.59227 0
M  V30 5662 N 529.16 -1.33526 0.837174 0
M  V30 5663 C 530.576 -1.50727 0.524743 0
M  V30 5664 C 530.776 -1.77792 -0.948279 0
M  V30 5665 O 529.832 -1.83719 -1.73216 0
M  V30 5666 C 531.145 -2.66299 1.39661 0
M  V30 5667 C 532.693 -2.80183 1.39521 0
M  V30 5668 C 533.168 -3.98815 2.25189 0
M  V30 5669 N 534.659 -4.06047 2.2289 0
M  V30 5670 C 535.394 -4.97032 2.85915 0
M  V30 5671 N 534.89 -5.93143 3.57985 0
M  V30 5672 N 536.683 -4.90015 2.75394 0
M  V30 5673 H 528.834 -1.1422 1.79074 0
M  V30 5674 H 531.097 -0.561399 0.763894 0
M  V30 5675 H 530.803 -2.52974 2.4433 0
M  V30 5676 H 530.677 -3.61663 1.07145 0
M  V30 5677 H 533.064 -2.92942 0.356253 0
M  V30 5678 H 533.145 -1.85586 1.76044 0
M  V30 5679 H 532.789 -3.86817 3.29143 0
M  V30 5680 H 532.719 -4.92654 1.86009 0
M  V30 5681 H 535.21 -3.37262 1.70478 0
M  V30 5682 H 535.523 -6.59227 4.03286 0
M  V30 5683 H 533.868 -5.93223 3.62093 0
M  V30 5684 H 537.059 -4.13894 2.18654 0
M  V30 5685 H 537.232 -5.60724 3.24796 0
M  V30 5686 N 530.638 -0.59345 -1.46 0
M  V30 5687 C 531.863 -0.0872365 -2.07216 0
M  V30 5688 C 532.288 1.2131 -1.43755 0
M  V30 5689 O 531.646 1.73528 -0.525152 0
M  V30 5690 C 531.694 0.0538197 -3.6056 0
M  V30 5691 O 530.798 1.10765 -3.97247 0
M  V30 5692 H 530.139 -0.0676598 -0.660544 0
M  V30 5693 H 532.669 -0.819445 -1.87473 0
M  V30 5694 H 532.679 0.256567 -4.07193 0
M  V30 5695 H 531.354 -0.895739 -4.0614 0
M  V30 5696 H 529.931 0.882501 -3.62307 0
M  V30 5697 N 532.116 1.54067 -0.331816 0
M  V30 5698 C 533.341 2.05599 0.272705 0
M  V30 5699 C 533.766 1.2059 1.44359 0
M  V30 5700 O 533.124 0.216907 1.79998 0
M  V30 5701 C 533.172 3.54188 0.677021 0
M  V30 5702 O 532.276 3.72082 1.77844 0
M  V30 5703 H 531.617 0.662286 0.0476801 0
M  V30 5704 H 534.147 1.98826 -0.482624 0
M  V30 5705 H 534.157 3.96608 0.957415 0
M  V30 5706 H 532.832 4.15513 -0.179325 0
M  V30 5707 H 531.409 3.41566 1.49622 0
M  V30 5708 N 533.594 0.0601682 1.57485 0
M  V30 5709 C 534.524 -0.90889 2.15085 0
M  V30 5710 C 535.505 -1.31838 1.07484 0
M  V30 5711 O 536.69 -1.3915 1.35466 0
M  V30 5712 C 533.82 -2.18059 2.7031 0
M  V30 5713 C 532.774 -1.91088 3.82974 0
M  V30 5714 C 532.1 -3.24789 4.24754 0
M  V30 5715 C 533.4 -1.22535 5.07723 0
M  V30 5716 H 535.094 -0.429093 2.96309 0
M  V30 5717 H 532.64 -0.204952 1.42534 0
M  V30 5718 H 534.593 -2.86258 3.09248 0
M  V30 5719 H 533.317 -2.6826 1.8629 0
M  V30 5720 H 531.976 -1.25297 3.44523 0
M  V30 5721 H 531.624 -3.72809 3.37672 0
M  V30 5722 H 531.324 -3.07538 5.00694 0
M  V30 5723 H 532.848 -3.94205 4.66299 0
M  V30 5724 H 534.262 -1.80783 5.4405 0
M  V30 5725 H 532.659 -1.1558 5.88864 0
M  V30 5726 H 533.729 -0.202692 4.84476 0
M  V30 5727 N 535.072 -1.5615 -0.213296 0
M  V30 5728 C 536.349 -1.70349 -0.961281 0
M  V30 5729 C 536.729 -0.609791 -2.02101 0
M  V30 5730 O 536.077 0.381987 -2.25285 0
M  V30 5731 C 536.287 -3.11982 -1.56424 0
M  V30 5732 C 537.635 -3.71649 -2.05334 0
M  V30 5733 O 538.659 -3.14995 -1.66302 0
M  V30 5734 O 537.518 -4.71038 -2.77102 0
M  V30 5735 H 534.612 -0.694121 -0.449582 0
M  V30 5736 H 537.158 -1.68464 -0.204426 0
M  V30 5737 H 535.93 -3.83046 -0.799457 0
M  V30 5738 H 535.553 -3.18019 -2.38641 0
M  V30 5739 N 536.55 0.480323 -1.50102 0
M  V30 5740 C 537.961 1.06142 -1.53593 0
M  V30 5741 C 538.312 1.93335 -0.334055 0
M  V30 5742 O 537.437 2.09188 0.55403 0
M  V30 5743 C 538.032 1.9317 -2.78336 0
M  V30 5744 C 536.591 2.46405 -2.84538 0
M  V30 5745 C 535.738 1.24521 -2.4777 0
M  V30 5746 H 538.689 0.26333 -1.565 0
M  V30 5747 H 538.71 2.78123 -2.59669 0
M  V30 5748 H 538.222 1.29683 -3.65792 0
M  V30 5749 H 536.323 3.13472 -2.01411 0
M  V30 5750 H 536.436 2.82143 -3.87211 0
M  V30 5751 H 534.8 1.57706 -2.00003 0
M  V30 5752 H 535.583 0.627102 -3.37524 0
M  V30 5753 N 538.028 1.39524 0.732853 0
M  V30 5754 C 538.96 1.34318 1.85718 0
M  V30 5755 C 539.973 0.251576 1.60844 0
M  V30 5756 O 541.162 0.510685 1.71039 0
M  V30 5757 C 538.262 1.06334 3.21786 0
M  V30 5758 C 537.435 2.26813 3.73998 0
M  V30 5759 C 536.494 1.95253 4.88634 0
M  V30 5760 O 535.52 2.67957 5.02183 0
M  V30 5761 N 536.722 0.919984 5.73164 0
M  V30 5762 H 539.487 2.3121 1.90688 0
M  V30 5763 H 537.048 1.33654 0.91368 0
M  V30 5764 H 539.04 0.832363 3.96048 0
M  V30 5765 H 537.61 0.181682 3.12072 0
M  V30 5766 H 536.83 2.65849 2.91064 0
M  V30 5767 H 538.118 3.0717 4.05616 0
M  V30 5768 H 537.516 0.317487 5.64808 0
M  V30 5769 H 536.073 0.748905 6.47483 0
M  V30 5770 N 539.506 -0.963266 1.24736 0
M  V30 5771 C 540.453 -2.05857 1.04363 0
M  V30 5772 C 541.423 -1.6604 -0.0444951 0
M  V30 5773 O 542.608 -1.90477 0.110999 0
M  V30 5774 C 539.748 -3.38745 0.659235 0
M  V30 5775 C 538.861 -3.9173 1.82131 0
M  V30 5776 C 537.996 -5.12906 1.38208 0
M  V30 5777 C 537.035 -5.58098 2.51382 0
M  V30 5778 N 536.172 -6.7049 2.08295 0
M  V30 5779 H 541.012 -2.22616 1.98107 0
M  V30 5780 H 538.549 -1.09103 0.986661 0
M  V30 5781 H 540.507 -4.15107 0.417371 0
M  V30 5782 H 539.137 -3.21898 -0.241201 0
M  V30 5783 H 538.189 -3.11966 2.17672 0
M  V30 5784 H 539.501 -4.21225 2.67153 0
M  V30 5785 H 538.655 -5.96657 1.09935 0
M  V30 5786 H 537.394 -4.85105 0.502456 0
M  V30 5787 H 536.399 -4.72917 2.80409 0
M  V30 5788 H 537.624 -5.87911 3.39909 0
M  V30 5789 H 535.57 -6.44416 1.22737 0
M  V30 5790 H 535.487 -6.99458 2.86869 0
M  V30 5791 H 536.755 -7.57672 1.83175 0
M  V30 5792 N 540.985 -1.06182 -1.16461 0
M  V30 5793 C 542.234 -0.772927 -1.86303 0
M  V30 5794 C 542.547 0.703187 -1.82523 0
M  V30 5795 O 543.753 1.10641 -2.47933 0
M  V30 5796 C 542.209 -1.33249 -3.34324 0
M  V30 5797 C 541.817 -2.83876 -3.46581 0
M  V30 5798 C 543.561 -1.12108 -4.09429 0
M  V30 5799 C 541.468 -3.33082 -4.88682 0
M  V30 5800 H 540.398 -0.285452 -0.697878 0
M  V30 5801 H 543.049 -1.28039 -1.31447 0
M  V30 5802 H 541.431 -0.7528 -3.88779 0
M  V30 5803 H 542.605 -3.47786 -3.02293 0
M  V30 5804 H 540.92 -3.03671 -2.84909 0
M  V30 5805 H 543.517 -1.46361 -5.14279 0
M  V30 5806 H 543.86 -0.0593832 -4.16258 0
M  V30 5807 H 544.393 -1.6665 -3.6121 0
M  V30 5808 H 541.132 -4.38726 -4.87032 0
M  V30 5809 H 540.652 -2.73919 -5.33599 0
M  V30 5810 H 542.331 -3.28344 -5.57494 0
M  V30 5811 N 542.463 1.3308 -0.844243 0
M  V30 5812 C 543.71 1.97605 -0.44255 0
M  V30 5813 C 544.038 1.66856 0.999458 0
M  V30 5814 O 543.293 0.943586 1.7145 0
M  V30 5815 C 543.592 3.52045 -0.616354 0
M  V30 5816 C 543.258 4.02757 -2.02726 0
M  V30 5817 C 541.92 4.16316 -2.41317 0
M  V30 5818 C 544.272 4.29776 -2.9486 0
M  V30 5819 C 541.6 4.54232 -3.71335 0
M  V30 5820 C 543.952 4.69146 -4.24364 0
M  V30 5821 C 542.616 4.80911 -4.62904 0
M  V30 5822 H 541.886 0.723088 -0.161941 0
M  V30 5823 H 544.533 1.58663 -1.0723 0
M  V30 5824 H 542.838 3.91681 0.0966812 0
M  V30 5825 H 544.535 3.99981 -0.285756 0
M  V30 5826 H 541.125 3.9268 -1.71756 0
M  V30 5827 H 545.309 4.18818 -2.6628 0
M  V30 5828 H 540.565 4.61535 -4.00993 0
M  V30 5829 H 544.739 4.89008 -4.95827 0
M  V30 5830 H 542.366 5.10048 -5.63698 0
M  V30 5831 N 543.941 0.601185 1.45683 0
M  V30 5832 C 544.904 -0.111398 2.28929 0
M  V30 5833 C 545.904 -0.801246 1.39416 0
M  V30 5834 O 547.094 -0.650383 1.61603 0
M  V30 5835 C 544.226 -1.16773 3.20276 0
M  V30 5836 H 545.419 0.620412 2.93413 0
M  V30 5837 H 542.972 0.359946 1.52099 0
M  V30 5838 H 543.707 -1.93051 2.60579 0
M  V30 5839 H 543.492 -0.677358 3.86205 0
M  V30 5840 H 544.982 -1.66698 3.82886 0
M  V30 5841 N 545.419 -1.53889 0.339982 0
M  V30 5842 C 546.382 -2.23547 -0.50592 0
M  V30 5843 C 547.382 -1.23445 -1.03044 0
M  V30 5844 O 548.572 -1.47909 -0.920253 0
M  V30 5845 C 545.704 -2.95234 -1.7044 0
M  V30 5846 H 546.897 -2.99722 0.103247 0
M  V30 5847 H 544.45 -1.56033 0.0912804 0
M  V30 5848 H 545.185 -2.23236 -2.35236 0
M  V30 5849 H 544.97 -3.68654 -1.33553 0
M  V30 5850 H 546.46 -3.48258 -2.30447 0
M  V30 5851 N 546.897 -0.0685191 -1.57451 0
M  V30 5852 C 548.146 0.600898 -1.92541 0
M  V30 5853 C 548.459 1.70967 -0.950239 0
M  V30 5854 O 549.665 2.43844 -1.19384 0
M  V30 5855 C 548.121 1.12019 -3.42023 0
M  V30 5856 C 547.729 0.0426028 -4.4798 0
M  V30 5857 C 549.473 1.76386 -3.86119 0
M  V30 5858 C 547.38 0.575759 -5.88591 0
M  V30 5859 H 546.31 0.228225 -0.71863 0
M  V30 5860 H 548.961 -0.140223 -1.82963 0
M  V30 5861 H 547.343 1.91418 -3.46663 0
M  V30 5862 H 548.517 -0.73182 -4.54952 0
M  V30 5863 H 546.832 -0.504642 -4.13331 0
M  V30 5864 H 549.429 2.17302 -4.88553 0
M  V30 5865 H 549.772 2.62255 -3.23308 0
M  V30 5866 H 550.305 1.03615 -3.84069 0
M  V30 5867 H 547.044 -0.245691 -6.55039 0
M  V30 5868 H 546.564 1.31778 -5.85145 0
M  V30 5869 H 548.243 1.0532 -6.3837 0
M  V30 5870 N 548.375 1.56261 0.205012 0
M  V30 5871 C 549.603 1.84141 0.943386 0
M  V30 5872 C 550.018 0.649772 1.77266 0
M  V30 5873 O 549.375 -0.381612 1.78466 0
M  V30 5874 C 549.426 3.10719 1.84759 0
M  V30 5875 O 549.147 4.25286 1.05181 0
M  V30 5876 C 550.648 3.51706 2.69848 0
M  V30 5877 H 547.868 0.611734 0.275721 0
M  V30 5878 H 550.412 2.03364 0.215253 0
M  V30 5879 H 548.567 2.93422 2.52947 0
M  V30 5880 H 548.981 4.97301 1.66709 0
M  V30 5881 H 550.455 4.43266 3.28967 0
M  V30 5882 H 550.932 2.7423 3.43067 0
M  V30 5883 H 551.538 3.71499 2.07047 0
M  V30 5884 N 549.853 -0.472356 1.50355 0
M  V30 5885 C 550.763 -1.59637 1.7191 0
M  V30 5886 C 551.779 -1.63247 0.602195 0
M  V30 5887 O 552.955 -1.81139 0.880369 0
M  V30 5888 C 550.02 -2.9586 1.80742 0
M  V30 5889 C 549.081 -3.02649 3.04471 0
M  V30 5890 C 548.314 -4.32374 3.12872 0
M  V30 5891 O 548.537 -5.22807 2.28099 0
M  V30 5892 O 547.471 -4.44728 4.05587 0
M  V30 5893 H 551.297 -1.44373 2.67189 0
M  V30 5894 H 548.882 -0.651717 1.34436 0
M  V30 5895 H 550.764 -3.7677 1.88739 0
M  V30 5896 H 549.439 -3.11325 0.88647 0
M  V30 5897 H 548.346 -2.20821 3.01975 0
M  V30 5898 H 549.679 -2.92119 3.9614 0
M  V30 5899 N 551.331 -1.39911 -0.725443 0
M  V30 5900 C 552.263 -1.35301 -1.85003 0
M  V30 5901 C 553.276 -0.260102 -1.60709 0
M  V30 5902 O 554.465 -0.519749 -1.70766 0
M  V30 5903 C 551.565 -1.08039 -3.21218 0
M  V30 5904 C 550.738 -2.28793 -3.7279 0
M  V30 5905 C 549.797 -1.97841 -4.87591 0
M  V30 5906 O 548.823 -2.70616 -5.00755 0
M  V30 5907 N 550.025 -0.950367 -5.72668 0
M  V30 5908 H 552.79 -2.32218 -1.89459 0
M  V30 5909 H 550.351 -1.34137 -0.90658 0
M  V30 5910 H 552.343 -0.853354 -3.95601 0
M  V30 5911 H 550.913 -0.198229 -3.11971 0
M  V30 5912 H 550.133 -2.67388 -2.8965 0
M  V30 5913 H 551.421 -3.09317 -4.03981 0
M  V30 5914 H 550.819 -0.347436 -5.64632 0
M  V30 5915 H 549.376 -0.783232 -6.47077 0
M  V30 5916 N 552.809 0.956637 -1.25245 0
M  V30 5917 C 553.739 2.07058 -1.07931 0
M  V30 5918 C 554.72 1.70096 0.0110361 0
M  V30 5919 O 555.905 1.93555 -0.158121 0
M  V30 5920 C 553.035 3.40272 -0.695124 0
M  V30 5921 C 551.989 3.91235 -1.73549 0
M  V30 5922 C 551.315 5.20921 -1.20604 0
M  V30 5923 C 552.615 4.17837 -3.13385 0
M  V30 5924 H 554.309 2.218 -2.01109 0
M  V30 5925 H 551.855 1.06581 -0.968326 0
M  V30 5926 H 553.808 4.1765 -0.560949 0
M  V30 5927 H 552.532 3.25462 0.272355 0
M  V30 5928 H 551.191 3.16025 -1.85807 0
M  V30 5929 H 550.839 5.02479 -0.228846 0
M  V30 5930 H 550.539 5.55987 -1.90136 0
M  V30 5931 H 552.063 6.00897 -1.08421 0
M  V30 5932 H 553.477 4.8588 -3.04292 0
M  V30 5933 H 551.874 4.64154 -3.80369 0
M  V30 5934 H 552.944 3.2419 -3.60595 0
M  V30 5935 N 554.287 1.06798 1.15896 0
M  V30 5936 C 555.535 0.786211 1.8618 0
M  V30 5937 C 555.856 -0.689547 1.82401 0
M  V30 5938 O 555.126 -1.49913 1.26107 0
M  V30 5939 H 553.706 0.287843 0.689315 0
M  V30 5940 H 556.368 1.35055 1.40521 0
M  V30 5941 H 555.464 1.1157 2.91477 0
M  V30 5942 N 555.766 -1.3263 0.851289 0
M  V30 5943 C 556.676 -2.32722 0.296268 0
M  V30 5944 C 557.692 -1.63901 -0.584162 0
M  V30 5945 O 558.868 -1.95465 -0.485334 0
M  V30 5946 C 555.933 -3.42942 -0.509103 0
M  V30 5947 C 554.994 -4.2746 0.397069 0
M  V30 5948 C 554.227 -5.32416 -0.36996 0
M  V30 5949 O 554.45 -5.47491 -1.6003 0
M  V30 5950 O 553.384 -6.01327 0.262493 0
M  V30 5951 H 557.21 -2.82078 1.12543 0
M  V30 5952 H 554.795 -1.36194 0.614135 0
M  V30 5953 H 556.677 -4.1017 -0.96634 0
M  V30 5954 H 555.352 -2.95781 -1.31512 0
M  V30 5955 H 554.259 -3.63053 0.902411 0
M  V30 5956 H 555.592 -4.78136 1.16818 0
M  V30 5957 N 557.244 -0.608902 -1.45362 0
M  V30 5958 C 558.207 0.0992563 -2.28985 0
M  V30 5959 C 559.207 0.793841 -1.39838 0
M  V30 5960 O 560.397 0.641804 -1.61946 0
M  V30 5961 C 557.529 1.15073 -3.20891 0
M  V30 5962 H 558.722 -0.635964 -2.93079 0
M  V30 5963 H 556.275 -0.368007 -1.51906 0
M  V30 5964 H 557.01 1.91667 -2.616 0
M  V30 5965 H 556.795 0.656867 -3.86559 0
M  V30 5966 H 558.285 1.64665 -3.83765 0
M  V30 5967 N 558.722 1.53707 -0.348139 0
M  V30 5968 C 559.652 2.28111 0.498766 0
M  V30 5969 C 560.633 1.29851 1.09876 0
M  V30 5970 O 561.818 1.587 1.11928 0
M  V30 5971 C 558.948 3.05735 1.64753 0
M  V30 5972 C 557.902 4.11537 1.17565 0
M  V30 5973 C 557.228 4.77142 2.4133 0
M  V30 5974 C 558.528 5.21587 0.272844 0
M  V30 5975 H 560.222 2.99152 -0.121934 0
M  V30 5976 H 557.768 1.43875 -0.0600842 0
M  V30 5977 H 559.721 3.56526 2.24649 0
M  V30 5978 H 558.445 2.32354 2.2952 0
M  V30 5979 H 557.104 3.61665 0.599483 0
M  V30 5980 H 556.752 4.0035 3.04514 0
M  V30 5981 H 556.452 5.48626 2.10436 0
M  V30 5982 H 557.976 5.30719 3.01943 0
M  V30 5983 H 559.39 5.67986 0.778779 0
M  V30 5984 H 557.787 6.00074 0.0555849 0
M  V30 5985 H 558.857 4.79969 -0.689785 0
M  V30 5986 N 560.2 0.0768682 1.57412 0
M  V30 5987 C 561.11 -0.903207 2.16516 0
M  V30 5988 C 562.126 -1.32341 1.12968 0
M  V30 5989 O 563.302 -1.39507 1.45258 0
M  V30 5990 C 560.367 -2.1508 2.71922 0
M  V30 5991 C 559.428 -1.78653 3.90361 0
M  V30 5992 C 558.661 -2.97465 4.43114 0
M  V30 5993 O 558.884 -4.11638 3.94854 0
M  V30 5994 O 557.818 -2.76987 5.3438 0
M  V30 5995 H 561.644 -0.430427 3.00634 0
M  V30 5996 H 559.229 -0.146485 1.4868 0
M  V30 5997 H 561.111 -2.8823 3.07411 0
M  V30 5998 H 559.786 -2.61446 1.9086 0
M  V30 5999 H 558.693 -1.0274 3.59716 0
M  V30 6000 H 560.026 -1.37066 4.7273 0
M  V30 6001 N 561.678 -1.56367 -0.196722 0
M  V30 6002 C 562.924 -1.80796 -0.918725 0
M  V30 6003 C 563.257 -0.650645 -1.82976 0
M  V30 6004 O 562.532 0.348889 -1.91345 0
M  V30 6005 C 562.815 -3.15472 -1.73636 0
M  V30 6006 C 562.668 -4.41693 -0.85015 0
M  V30 6007 C 563.987 -3.46824 -2.70927 0
M  V30 6008 H 561.106 -0.657702 -0.332561 0
M  V30 6009 H 563.748 -1.89086 -0.186186 0
M  V30 6010 H 561.898 -3.08536 -2.36088 0
M  V30 6011 H 563.57 -4.60673 -0.240459 0
M  V30 6012 H 561.813 -4.33517 -0.156785 0
M  V30 6013 H 562.484 -5.32419 -1.45719 0
M  V30 6014 H 564.96 -3.54049 -2.18607 0
M  V30 6015 H 563.836 -4.4218 -3.25219 0
M  V30 6016 H 564.097 -2.70236 -3.49893 0
M  V30 6017 N 563.156 0.464375 -1.50603 0
M  V30 6018 C 564.433 1.22549 -1.5245 0
M  V30 6019 C 564.813 2.09327 -0.273035 0
M  V30 6020 O 564.161 2.16074 0.743242 0
M  V30 6021 C 564.371 2.05074 -2.82393 0
M  V30 6022 C 565.719 2.63036 -3.33313 0
M  V30 6023 O 566.743 2.1531 -2.8376 0
M  V30 6024 O 565.602 3.5001 -4.19709 0
M  V30 6025 H 562.696 0.556471 -0.611775 0
M  V30 6026 H 565.242 0.475648 -1.62898 0
M  V30 6027 H 564.014 1.41169 -3.64948 0
M  V30 6028 H 563.637 2.87179 -2.7498 0
M  V30 6029 N 564.634 1.40294 0.718013 0
M  V30 6030 C 565.882 1.38167 1.47494 0
M  V30 6031 C 566.203 -0.01607 1.94993 0
M  V30 6032 O 565.473 -0.970396 1.70177 0
M  V30 6033 H 564.053 0.508505 0.547203 0
M  V30 6034 H 566.715 1.75324 0.851322 0
M  V30 6035 H 565.811 2.05503 2.34894 0
M  V30 6036 N 566.112 -0.949982 1.2575 0
M  V30 6037 C 567.352 -1.70994 1.11984 0
M  V30 6038 C 567.716 -1.89095 -0.332746 0
M  V30 6039 O 568.917 -2.62192 -0.592331 0
M  V30 6040 C 567.188 -3.05286 1.85837 0
M  V30 6041 S 568.747 -3.96477 1.88019 0
M  V30 6042 H 565.565 -0.587689 0.400178 0
M  V30 6043 H 568.167 -1.13271 1.59342 0
M  V30 6044 H 566.871 -2.89785 2.90608 0
M  V30 6045 H 566.402 -3.68069 1.38885 0
M  V30 6046 H 568.417 -4.86814 0.96057 0
M  V30 6047 N 567.59 -1.07411 -1.15328 0
M  V30 6048 C 568.553 -0.698914 -2.18284 0
M  V30 6049 C 569.553 0.261149 -1.58665 0
M  V30 6050 O 570.743 0.0420277 -1.74149 0
M  V30 6051 C 567.875 -0.0302427 -3.40887 0
M  V30 6052 H 569.068 -1.61045 -2.52991 0
M  V30 6053 H 566.621 -0.870724 -1.298 0
M  V30 6054 H 567.356 0.893505 -3.11748 0
M  V30 6055 H 567.141 -0.720759 -3.85419 0
M  V30 6056 H 568.631 0.21759 -4.17033 0
M  V30 6057 N 569.068 1.32177 -0.85831 0
M  V30 6058 C 569.998 2.31282 -0.321041 0
M  V30 6059 C 570.979 1.59841 0.581786 0
M  V30 6060 O 572.164 1.87619 0.501262 0
M  V30 6061 C 569.294 3.4385 0.48832 0
M  V30 6062 C 568.248 4.26799 -0.320391 0
M  V30 6063 C 567.574 5.31164 0.613934 0
M  V30 6064 C 568.874 4.98829 -1.54813 0
M  V30 6065 H 570.568 2.76469 -1.14915 0
M  V30 6066 H 568.114 1.32916 -0.554028 0
M  V30 6067 H 570.067 4.12224 0.874626 0
M  V30 6068 H 568.791 2.97401 1.34983 0
M  V30 6069 H 567.45 3.60077 -0.688497 0
M  V30 6070 H 567.098 4.80967 1.47239 0
M  V30 6071 H 566.798 5.8755 0.0768097 0
M  V30 6072 H 568.322 6.024 0.997336 0
M  V30 6073 H 569.736 5.59864 -1.23392 0
M  V30 6074 H 568.133 5.64957 -2.02346 0
M  V30 6075 H 569.203 4.26483 -2.30739 0
M  V30 6076 N 570.547 0.616602 1.45037 0
M  V30 6077 C 571.772 0.120192 2.07051 0
M  V30 6078 C 572.197 -1.19008 1.45666 0
M  V30 6079 O 571.555 -1.7267 0.552692 0
M  V30 6080 C 571.603 0.00354901 3.606 0
M  V30 6081 O 570.707 -1.04431 3.98958 0
M  V30 6082 H 570.048 0.0781599 0.659384 0
M  V30 6083 H 572.578 0.849167 1.86146 0
M  V30 6084 H 572.588 -0.191754 4.07549 0
M  V30 6085 H 571.263 0.960239 4.04663 0
M  V30 6086 H 569.84 -0.824749 3.63665 0
M  V30 6087 N 572.025 -1.5352 0.356285 0
M  V30 6088 C 572.955 -2.28372 -0.486661 0
M  V30 6089 C 573.936 -1.30432 -1.09185 0
M  V30 6090 O 575.121 -1.59291 -1.11085 0
M  V30 6091 C 572.251 -3.06604 -1.63129 0
M  V30 6092 C 571.205 -4.12154 -1.15381 0
M  V30 6093 C 570.531 -4.78415 -2.38796 0
M  V30 6094 C 571.831 -5.21724 -0.245179 0
M  V30 6095 H 573.525 -2.99083 0.137797 0
M  V30 6096 H 571.071 -1.43841 0.0677134 0
M  V30 6097 H 573.024 -3.57712 -2.22755 0
M  V30 6098 H 571.748 -2.33568 -2.28284 0
M  V30 6099 H 570.407 -3.61978 -0.580294 0
M  V30 6100 H 570.055 -4.01959 -3.02387 0
M  V30 6101 H 569.755 -5.49734 -2.07524 0
M  V30 6102 H 571.279 -5.32313 -2.99125 0
M  V30 6103 H 572.693 -5.68391 -0.748646 0
M  V30 6104 H 571.09 -6.00095 -0.0237608 0
M  V30 6105 H 572.16 -4.79596 0.715229 0
M  V30 6106 N 573.503 -0.0852151 -1.57369 0
M  V30 6107 C 574.749 0.575588 -1.95086 0
M  V30 6108 C 575.104 1.66402 -0.96582 0
M  V30 6109 O 574.397 1.91598 0.00978463 0
M  V30 6110 C 574.591 1.18482 -3.3719 0
M  V30 6111 C 574.42 0.156928 -4.49426 0
M  V30 6112 C 573.19 -0.263126 -5.04614 0
M  V30 6113 C 575.388 -0.611068 -5.10657 0
M  V30 6114 N 573.37 -1.28032 -6.00401 0
M  V30 6115 C 574.741 -1.48036 -6.02068 0
M  V30 6116 C 576.796 -0.665669 -4.9343 0
M  V30 6117 C 575.499 -2.39943 -6.781 0
M  V30 6118 C 577.525 -1.5723 -5.70116 0
M  V30 6119 C 576.887 -2.42924 -6.61186 0
M  V30 6120 H 572.986 0.181249 -0.760705 0
M  V30 6121 H 575.57 -0.165484 -1.93995 0
M  V30 6122 H 573.741 1.89575 -3.38992 0
M  V30 6123 H 575.473 1.80718 -3.62109 0
M  V30 6124 H 572.228 0.122664 -4.73441 0
M  V30 6125 H 572.652 -1.78682 -6.52994 0
M  V30 6126 H 577.294 -0.0173214 -4.22796 0
M  V30 6127 H 575.012 -3.05807 -7.48002 0
M  V30 6128 H 578.598 -1.61956 -5.58804 0
M  V30 6129 H 577.478 -3.1194 -7.19488 0
M  V30 6130 N 574.981 1.5647 0.188427 0
M  V30 6131 C 576.206 1.85486 0.927891 0
M  V30 6132 C 576.631 0.669575 1.75779 0
M  V30 6133 O 575.989 -0.381573 1.77239 0
M  V30 6134 C 576.037 3.12784 1.7944 0
M  V30 6135 O 575.141 2.93805 2.894 0
M  V30 6136 H 574.482 0.610585 0.260925 0
M  V30 6137 H 577.012 2.037 0.191729 0
M  V30 6138 H 577.022 3.43749 2.19774 0
M  V30 6139 H 575.697 3.98671 1.18468 0
M  V30 6140 H 574.274 2.74153 2.52774 0
M  V30 6141 N 576.459 -0.456382 1.50847 0
M  V30 6142 C 577.87 -1.03685 1.55262 0
M  V30 6143 C 578.221 -1.92779 0.364771 0
M  V30 6144 O 577.346 -2.10043 -0.52068 0
M  V30 6145 C 577.941 -1.88718 2.81374 0
M  V30 6146 C 576.5 -2.41847 2.88422 0
M  V30 6147 C 575.647 -1.20564 2.49719 0
M  V30 6148 H 578.598 -0.238399 1.56899 0
M  V30 6149 H 578.619 -2.73957 2.6406 0
M  V30 6150 H 578.131 -1.23847 3.67809 0
M  V30 6151 H 576.232 -3.10228 2.06372 0
M  V30 6152 H 576.345 -2.75947 3.9165 0
M  V30 6153 H 574.709 -1.54504 2.02486 0
M  V30 6154 H 575.492 -0.573326 3.38479 0
M  V30 6155 N 577.937 -1.40673 -0.710563 0
M  V30 6156 C 579.185 -1.38947 -1.46759 0
M  V30 6157 C 579.506 0.00572879 -1.94999 0
M  V30 6158 O 578.776 0.961358 -1.70689 0
M  V30 6159 H 577.356 -0.5114 -0.544499 0
M  V30 6160 H 580.018 -1.75773 -0.842012 0
M  V30 6161 H 579.114 -2.06745 -2.33801 0
M  V30 6162 N 579.415 0.9433 -1.26252 0
M  V30 6163 C 580.692 1.66639 -1.02424 0
M  V30 6164 C 581.072 2.06335 0.446006 0
M  V30 6165 O 580.42 1.78551 1.42589 0
M  V30 6166 C 580.63 2.88019 -1.97094 0
M  V30 6167 C 581.978 3.59718 -2.25584 0
M  V30 6168 O 583.002 2.9812 -1.94943 0
M  V30 6169 O 581.861 4.7066 -2.77743 0
M  V30 6170 H 578.955 0.729643 -0.389294 0
M  V30 6171 H 581.501 0.995218 -1.37454 0
M  V30 6172 H 580.273 2.5556 -2.96319 0
M  V30 6173 H 579.896 3.62863 -1.62532 0
M  V30 6174 N 580.893 1.08022 1.14757 0
M  V30 6175 C 581.803 0.718292 2.23333 0
M  V30 6176 C 582.819 -0.273477 1.71837 0
M  V30 6177 O 583.995 -0.118406 2.01052 0
M  V30 6178 C 581.06 0.128855 3.4646 0
M  V30 6179 C 580.121 1.17473 4.12915 0
M  V30 6180 C 579.354 0.61333 5.30164 0
M  V30 6181 O 579.577 -0.568458 5.6756 0
M  V30 6182 O 578.511 1.3615 5.86299 0
M  V30 6183 H 582.337 1.62394 2.56636 0
M  V30 6184 H 579.922 0.853628 1.22611 0
M  V30 6185 H 581.804 -0.197249 4.20938 0
M  V30 6186 H 580.479 -0.750014 3.14891 0
M  V30 6187 H 579.386 1.5533 3.40328 0
M  V30 6188 H 580.719 2.02574 4.48581 0
M  V30 6189 N 582.371 -1.3172 0.865308 0
M  V30 6190 C 583.601 -2.00765 0.487543 0
M  V30 6191 C 584.009 -1.65145 -0.92325 0
M  V30 6192 O 583.352 -0.874294 -1.61561 0
M  V30 6193 C 583.414 -3.55122 0.559369 0
M  V30 6194 C 583.078 -4.14202 1.93095 0
M  V30 6195 C 584.075 -4.3165 2.89784 0
M  V30 6196 C 581.76 -4.50036 2.23099 0
M  V30 6197 C 583.754 -4.84114 4.14623 0
M  V30 6198 C 581.441 -5.02203 3.48189 0
M  V30 6199 C 582.439 -5.19192 4.43767 0
M  V30 6200 O 582.127 -5.70241 5.6664 0
M  V30 6201 H 581.859 -0.649066 0.188915 0
M  V30 6202 H 584.413 -1.69032 1.16694 0
M  V30 6203 H 582.643 -3.86295 -0.176926 0
M  V30 6204 H 584.332 -4.05428 0.195694 0
M  V30 6205 H 585.098 -4.04288 2.6791 0
M  V30 6206 H 580.977 -4.36091 1.49485 0
M  V30 6207 H 584.521 -4.9729 4.89233 0
M  V30 6208 H 580.418 -5.28997 3.69908 0
M  V30 6209 H 581.186 -5.88617 5.68746 0
M  V30 6210 N 583.85 -0.624285 -1.44708 0
M  V30 6211 C 584.783 0.133905 -2.27807 0
M  V30 6212 C 585.76 0.857794 -1.38133 0
M  V30 6213 O 586.945 0.863277 -1.6757 0
M  V30 6214 C 584.072 1.19541 -3.16903 0
M  V30 6215 C 583.118 0.572813 -4.22636 0
M  V30 6216 S 583.951 -0.631953 -5.31758 0
M  V30 6217 C 585.106 0.429733 -6.24423 0
M  V30 6218 H 585.34 -0.571072 -2.91764 0
M  V30 6219 H 582.873 -0.412261 -1.48794 0
M  V30 6220 H 584.831 1.80293 -3.68788 0
M  V30 6221 H 583.492 1.87255 -2.5218 0
M  V30 6222 H 582.685 1.37205 -4.84965 0
M  V30 6223 H 582.287 0.0400641 -3.73979 0
M  V30 6224 H 584.579 1.30421 -6.64828 0
M  V30 6225 H 585.522 -0.157804 -7.07924 0
M  V30 6226 H 585.93 0.75256 -5.59461 0
M  V30 6227 N 585.328 1.53329 -0.364422 0
M  V30 6228 C 586.26 2.23286 0.517293 0
M  V30 6229 C 587.273 1.24657 1.04711 0
M  V30 6230 O 588.462 1.50887 0.95369 0
M  V30 6231 C 585.562 2.91604 1.72685 0
M  V30 6232 C 584.735 4.1673 1.32873 0
M  V30 6233 C 583.794 4.68269 2.40022 0
M  V30 6234 O 582.82 5.31976 2.02461 0
M  V30 6235 N 584.022 4.45983 3.7159 0
M  V30 6236 H 586.787 2.99588 -0.0819391 0
M  V30 6237 H 584.348 1.60787 -0.189544 0
M  V30 6238 H 586.34 3.22992 2.4384 0
M  V30 6239 H 584.91 2.18763 2.23297 0
M  V30 6240 H 584.13 3.91657 0.447069 0
M  V30 6241 H 585.418 4.98078 1.03902 0
M  V30 6242 H 584.816 3.95077 4.04883 0
M  V30 6243 H 583.373 4.81924 4.38854 0
M  V30 6244 N 586.806 0.0935595 1.57322 0
M  V30 6245 C 588.046 -0.573901 1.96178 0
M  V30 6246 C 588.41 -1.65445 0.97426 0
M  V30 6247 O 589.611 -2.37901 1.25126 0
M  V30 6248 C 587.882 -1.11612 3.39526 0
M  V30 6249 S 589.441 -1.79566 4.00377 0
M  V30 6250 H 586.259 -0.187315 0.685882 0
M  V30 6251 H 588.861 0.172597 1.94737 0
M  V30 6252 H 587.565 -0.31815 4.09165 0
M  V30 6253 H 587.096 -1.89848 3.4456 0
M  V30 6254 H 589.111 -3.07978 3.89056 0
M  V30 6255 N 588.284 -1.56567 -0.180126 0
M  V30 6256 C 589.53 -1.81761 -0.899497 0
M  V30 6257 C 589.863 -0.670015 -1.82276 0
M  V30 6258 O 589.138 0.328575 -1.91705 0
M  V30 6259 C 589.421 -3.17296 -1.7028 0
M  V30 6260 C 589.274 -4.4257 -0.803255 0
M  V30 6261 C 590.593 -3.49678 -2.67233 0
M  V30 6262 H 587.712 -0.661192 -0.325567 0
M  V30 6263 H 590.354 -1.89272 -0.16612 0
M  V30 6264 H 588.504 -3.11023 -2.32802 0
M  V30 6265 H 590.176 -4.60902 -0.191585 0
M  V30 6266 H 588.419 -4.33658 -0.110796 0
M  V30 6267 H 589.09 -5.33935 -1.40064 0
M  V30 6268 H 591.566 -3.56347 -2.14839 0
M  V30 6269 H 590.442 -4.45605 -3.20511 0
M  V30 6270 H 590.703 -2.73932 -3.47007 0
M  V30 6271 N 589.762 0.448376 -1.51087 0
M  V30 6272 C 591.01 1.19635 -1.62886 0
M  V30 6273 C 591.331 1.91977 -0.342024 0
M  V30 6274 O 590.601 1.85094 0.641636 0
M  V30 6275 H 589.181 0.444598 -0.600285 0
M  V30 6276 H 591.843 0.515138 -1.87969 0
M  V30 6277 H 590.939 1.93194 -2.45117 0
M  V30 6278 N 591.24 1.41047 0.703093 0
M  V30 6279 C 592.17 1.45067 1.82969 0
M  V30 6280 C 593.151 0.31016 1.67248 0
M  V30 6281 O 594.336 0.520548 1.87093 0
M  V30 6282 C 591.466 1.32478 3.2104 0
M  V30 6283 C 590.42 2.44262 3.51454 0
M  V30 6284 C 589.746 2.16742 4.88801 0
M  V30 6285 C 591.046 3.86606 3.51189 0
M  V30 6286 H 592.74 2.39353 1.79863 0
M  V30 6287 H 590.286 1.15206 0.863919 0
M  V30 6288 H 592.239 1.33904 3.99559 0
M  V30 6289 H 590.963 0.346735 3.24754 0
M  V30 6290 H 589.622 2.42107 2.75282 0
M  V30 6291 H 589.27 1.17299 4.89132 0
M  V30 6292 H 588.97 2.91643 5.10116 0
M  V30 6293 H 590.494 2.19872 5.69639 0
M  V30 6294 H 591.908 3.90517 4.19725 0
M  V30 6295 H 590.305 4.61128 3.84033 0
M  V30 6296 H 591.375 4.15296 2.50315 0
M  V30 6297 N 592.718 -0.936591 1.26751 0
M  V30 6298 C 593.948 -1.71509 1.15188 0
M  V30 6299 C 594.356 -1.86885 -0.295037 0
M  V30 6300 O 593.699 -1.37915 -1.21347 0
M  V30 6301 C 593.761 -3.13853 1.75318 0
M  V30 6302 C 593.425 -3.21845 3.24445 0
M  V30 6303 C 594.422 -3.04771 4.21201 0
M  V30 6304 C 592.107 -3.45088 3.64992 0
M  V30 6305 C 594.101 -3.10816 5.56482 0
M  V30 6306 C 591.788 -3.50767 5.00405 0
M  V30 6307 C 592.786 -3.33648 5.9596 0
M  V30 6308 O 592.474 -3.39045 7.28906 0
M  V30 6309 H 592.206 -0.543658 0.401761 0
M  V30 6310 H 594.76 -1.18234 1.67958 0
M  V30 6311 H 592.99 -3.6857 1.17016 0
M  V30 6312 H 594.679 -3.73634 1.58596 0
M  V30 6313 H 595.445 -2.86665 3.91214 0
M  V30 6314 H 591.324 -3.57467 2.91098 0
M  V30 6315 H 594.868 -2.97372 6.31043 0
M  V30 6316 H 590.765 -3.68396 5.30052 0
M  V30 6317 H 591.533 -3.55558 7.37238 0
M  V30 6318 N 594.196 -1.08629 -1.14182 0
M  V30 6319 C 595.144 -0.71284 -2.21408 0
M  V30 6320 C 596.138 0.282457 -1.67029 0
M  V30 6321 O 597.344 0.144783 -1.79417 0
M  V30 6322 H 593.719 -0.212497 -0.721352 0
M  V30 6323 H 595.69 -1.6265 -2.50175 0
M  V30 6324 C 594.439 -0.140704 -3.47415 0
M  V30 6325 H 593.762 -0.897739 -3.8959 0
M  V30 6326 H 595.202 0.0827677 -4.23919 0
M  V30 6327 C 593.661 1.122 -3.17668 0
M  V30 6328 O 594.191 2.20652 -3.35672 0
M  V30 6329 N 592.397 1.03328 -2.71609 0
M  V30 6330 H 591.944 0.150666 -2.57159 0
M  V30 6331 H 591.902 1.8789 -2.52081 0
M  V30 6332 N 595.674 1.31259 -0.872281 0
M  V30 6333 C 596.637 2.26744 -0.334656 0
M  V30 6334 C 597.637 1.52307 0.515681 0
M  V30 6335 O 598.827 1.71148 0.324656 0
M  V30 6336 C 595.959 3.36841 0.524482 0
M  V30 6337 H 597.152 2.75812 -1.17762 0
M  V30 6338 H 594.705 1.42232 -0.648064 0
M  V30 6339 H 595.44 2.93069 1.38855 0
M  V30 6340 H 595.225 3.92009 -0.0844299 0
M  V30 6341 H 596.715 4.07944 0.892838 0
M  V30 6342 N 597.152 0.631951 1.44375 0
M  V30 6343 C 598.115 -0.0628142 2.29114 0
M  V30 6344 C 599.115 -0.771494 1.41084 0
M  V30 6345 O 600.305 -0.615959 1.62947 0
M  V30 6346 C 597.437 -1.09953 3.22681 0
M  V30 6347 H 598.63 0.682509 2.92031 0
M  V30 6348 H 596.183 0.392128 1.51301 0
M  V30 6349 H 596.918 -1.87481 2.64616 0
M  V30 6350 H 596.703 -0.595286 3.87555 0
M  V30 6351 H 598.193 -1.58538 3.86336 0
M  V30 6352 N 598.631 -1.53133 0.372548 0
M  V30 6353 C 599.88 -2.00539 -0.216115 0
M  V30 6354 C 600.193 -1.26374 -1.49295 0
M  V30 6355 O 601.399 -1.64404 -2.16064 0
M  V30 6356 C 599.855 -3.57253 -0.435678 0
M  V30 6357 C 599.463 -4.40302 0.82693 0
M  V30 6358 C 601.207 -4.12995 -0.981618 0
M  V30 6359 C 599.114 -5.88583 0.576567 0
M  V30 6360 H 598.044 -0.749246 -0.084536 0
M  V30 6361 H 600.695 -1.76771 0.492364 0
M  V30 6362 H 599.077 -3.77202 -1.20559 0
M  V30 6363 H 600.251 -4.32124 1.60017 0
M  V30 6364 H 598.566 -3.95699 1.29659 0
M  V30 6365 H 601.163 -5.21418 -1.18436 0
M  V30 6366 H 601.506 -3.68027 -1.94581 0
M  V30 6367 H 602.039 -3.96871 -0.271696 0
M  V30 6368 H 598.778 -6.37841 1.51128 0
M  V30 6369 H 598.298 -5.99592 -0.158047 0
M  V30 6370 H 599.977 -6.46676 0.204722 0
M  V30 6371 N 600.109 -0.101901 -1.5727 0
M  V30 6372 C 601.056 0.854577 -2.14396 0
M  V30 6373 C 602.026 1.27521 -1.06432 0
M  V30 6374 O 603.211 1.35575 -1.34253 0
M  V30 6375 C 600.351 2.10576 -2.73408 0
M  V30 6376 C 599.464 1.73504 -3.95626 0
M  V30 6377 C 598.599 2.9346 -4.42781 0
M  V30 6378 C 597.638 2.52547 -5.57572 0
M  V30 6379 N 596.775 3.65359 -5.99547 0
M  V30 6380 H 601.615 0.360578 -2.9581 0
M  V30 6381 H 599.152 0.166303 -1.46157 0
M  V30 6382 H 601.11 2.83859 -3.05745 0
M  V30 6383 H 599.74 2.57463 -1.94711 0
M  V30 6384 H 598.792 0.901622 -3.6956 0
M  V30 6385 H 600.104 1.39426 -4.78917 0
M  V30 6386 H 599.258 3.74988 -4.76937 0
M  V30 6387 H 597.997 3.30753 -3.58404 0
M  V30 6388 H 597.002 1.69446 -5.23037 0
M  V30 6389 H 598.227 2.1639 -6.43702 0
M  V30 6390 H 596.173 4.02358 -5.18116 0
M  V30 6391 H 596.09 3.35148 -6.77652 0
M  V30 6392 H 597.358 4.47378 -6.38336 0
M  V30 6393 N 601.587 1.56661 0.17182 0
M  V30 6394 C 602.497 1.99604 1.2327 0
M  V30 6395 C 603.513 0.907333 1.4847 0
M  V30 6396 O 604.689 1.21492 1.60629 0
M  V30 6397 C 601.754 2.34685 2.55194 0
M  V30 6398 C 600.815 3.57381 2.3786 0
M  V30 6399 C 600.048 3.90779 3.63494 0
M  V30 6400 O 600.271 3.25152 4.6865 0
M  V30 6401 O 599.205 4.84129 3.57634 0
M  V30 6402 H 603.031 2.90114 0.898192 0
M  V30 6403 H 600.616 1.44522 0.378647 0
M  V30 6404 H 602.498 2.5822 3.33017 0
M  V30 6405 H 601.173 1.47336 2.88225 0
M  V30 6406 H 600.08 3.39064 1.5807 0
M  V30 6407 H 601.413 4.45268 2.09754 0
M  V30 6408 N 603.065 -0.440357 1.51323 0
M  V30 6409 C 604.293 -1.21255 1.67645 0
M  V30 6410 C 604.708 -1.85088 0.37252 0
M  V30 6411 O 604.065 -1.70582 -0.648683 0
M  V30 6412 C 604.116 -2.29881 2.78993 0
M  V30 6413 O 603.837 -1.68659 4.04334 0
M  V30 6414 C 605.338 -3.20214 3.06558 0
M  V30 6415 H 602.558 -0.36558 0.562666 0
M  V30 6416 H 605.102 -0.52214 1.97722 0
M  V30 6417 H 603.257 -2.94643 2.51524 0
M  V30 6418 H 603.671 -2.40426 4.6615 0
M  V30 6419 H 605.145 -3.92575 3.88058 0
M  V30 6420 H 605.622 -3.80794 2.18844 0
M  V30 6421 H 606.228 -2.61156 3.35675 0
M  V30 6422 N 604.543 -1.41418 -0.695603 0
M  V30 6423 C 605.789 -1.40982 -1.4578 0
M  V30 6424 C 606.122 -0.0187763 -1.94191 0
M  V30 6425 O 605.397 0.95346 -1.69527 0
M  V30 6426 C 605.68 -2.41657 -2.66972 0
M  V30 6427 C 605.533 -3.89869 -2.24327 0
M  V30 6428 C 606.852 -2.39589 -3.69168 0
M  V30 6429 H 603.971 -0.513405 -0.528757 0
M  V30 6430 H 606.613 -1.72693 -0.792275 0
M  V30 6431 H 604.763 -2.14746 -3.23754 0
M  V30 6432 H 606.435 -4.27683 -1.72872 0
M  V30 6433 H 604.678 -4.04737 -1.56111 0
M  V30 6434 H 605.349 -4.55857 -3.11285 0
M  V30 6435 H 607.825 -2.63471 -3.2206 0
M  V30 6436 H 606.701 -3.12044 -4.51575 0
M  V30 6437 H 606.962 -1.41447 -4.18862 0
M  V30 6438 N 606.021 0.929856 -1.27246 0
M  V30 6439 C 607.267 1.6798 -1.13625 0
M  V30 6440 C 607.6 1.91586 0.317589 0
M  V30 6441 O 606.875 1.50467 1.23247 0
M  V30 6442 C 607.158 3.04766 -1.91806 0
M  V30 6443 C 607.011 2.88415 -3.45162 0
M  V30 6444 C 608.33 4.05063 -1.72082 0
M  V30 6445 H 605.449 0.609632 -0.414147 0
M  V30 6446 H 608.091 1.0792 -1.56376 0
M  V30 6447 H 606.241 3.56034 -1.55474 0
M  V30 6448 H 607.913 2.44282 -3.91311 0
M  V30 6449 H 606.156 2.23802 -3.71611 0
M  V30 6450 H 606.827 3.85482 -3.95105 0
M  V30 6451 H 609.303 3.62798 -2.03757 0
M  V30 6452 H 608.179 4.98765 -2.29182 0
M  V30 6453 H 608.44 4.37021 -0.668206 0
M  V30 6454 N 607.499 1.09233 1.13605 0
M  V30 6455 C 608.409 0.741939 2.22559 0
M  V30 6456 C 609.425 -0.255236 1.72118 0
M  V30 6457 O 610.601 -0.0970747 2.01166 0
M  V30 6458 C 607.666 0.165595 3.46304 0
M  V30 6459 C 606.727 1.21846 4.11645 0
M  V30 6460 C 605.96 0.669526 5.29484 0
M  V30 6461 O 606.183 -0.508228 5.68131 0
M  V30 6462 O 605.117 1.42361 5.84822 0
M  V30 6463 H 608.943 1.65107 2.54899 0
M  V30 6464 H 606.528 0.866584 1.21699 0
M  V30 6465 H 608.41 -0.152592 4.21124 0
M  V30 6466 H 607.085 -0.716573 3.15669 0
M  V30 6467 H 605.992 1.58931 3.38662 0
M  V30 6468 H 607.325 2.07321 4.46407 0
M  V30 6469 N 608.977 -1.30795 0.87923 0
M  V30 6470 C 610.205 -2.00527 0.509548 0
M  V30 6471 C 610.62 -1.65944 -0.90045 0
M  V30 6472 O 609.977 -0.893525 -1.5913 0
M  V30 6473 C 610.028 -3.55276 0.667943 0
M  V30 6474 O 609.749 -3.88625 2.02242 0
M  V30 6475 C 611.25 -4.4228 0.300494 0
M  V30 6476 H 608.47 -0.641261 0.197549 0
M  V30 6477 H 611.014 -1.66813 1.18295 0
M  V30 6478 H 609.169 -3.87377 0.0419843 0
M  V30 6479 H 609.583 -4.83334 2.03688 0
M  V30 6480 H 611.057 -5.50061 0.462242 0
M  V30 6481 H 611.534 -4.32556 -0.76106 0
M  V30 6482 H 612.14 -4.15613 0.902536 0
M  V30 6483 N 610.455 -0.639598 -1.44038 0
M  V30 6484 C 611.871 -0.305953 -1.5664 0
M  V30 6485 C 612.071 1.19055 -1.62567 0
M  V30 6486 O 611.127 1.97492 -1.57331 0
M  V30 6487 C 612.44 -1.00533 -2.83397 0
M  V30 6488 C 613.988 -0.984278 -2.97121 0
M  V30 6489 C 614.463 -1.66428 -4.26691 0
M  V30 6490 N 615.954 -1.63127 -4.33525 0
M  V30 6491 C 616.689 -2.12629 -5.32519 0
M  V30 6492 N 616.185 -2.70359 -6.3787 0
M  V30 6493 N 617.978 -2.03208 -5.24083 0
M  V30 6494 H 610.129 -1.6109 -1.38434 0
M  V30 6495 H 612.392 -0.676672 -0.663942 0
M  V30 6496 H 612.098 -2.06034 -2.85032 0
M  V30 6497 H 611.972 -0.548362 -3.73193 0
M  V30 6498 H 614.359 0.0622792 -2.95034 0
M  V30 6499 H 614.44 -1.47981 -2.08651 0
M  V30 6500 H 614.084 -2.71034 -4.29538 0
M  V30 6501 H 614.014 -1.14351 -5.14034 0
M  V30 6502 H 616.505 -1.20987 -3.58009 0
M  V30 6503 H 616.818 -3.05842 -7.09704 0
M  V30 6504 H 615.163 -2.74414 -6.38531 0
M  V30 6505 H 618.354 -1.57823 -4.40692 0
M  V30 6506 H 618.527 -2.42097 -6.01077 0
M  V30 6507 N 611.933 1.52934 -0.380664 0
M  V30 6508 C 613.344 1.86457 0.0952684 0
M  V30 6509 C 613.695 1.3007 1.46889 0
M  V30 6510 O 612.82 0.628636 2.07068 0
M  V30 6511 C 613.415 3.38323 0.179648 0
M  V30 6512 C 611.974 3.71589 0.599858 0
M  V30 6513 C 611.121 2.76228 -0.243572 0
M  V30 6514 H 614.072 1.46966 -0.59888 0
M  V30 6515 H 614.093 3.67113 1.00042 0
M  V30 6516 H 613.605 3.79333 -0.820228 0
M  V30 6517 H 611.706 3.36144 1.60742 0
M  V30 6518 H 611.819 4.77715 0.364003 0
M  V30 6519 H 610.183 2.53045 0.289855 0
M  V30 6520 H 610.966 3.20074 -1.24127 0
M  V30 6521 N 613.412 0.11024 1.57214 0
M  V30 6522 C 614.375 -0.828808 2.1369 0
M  V30 6523 C 615.375 -1.20059 1.06969 0
M  V30 6524 O 616.565 -1.12754 1.32786 0
M  V30 6525 C 613.697 -2.11959 2.66994 0
M  V30 6526 H 614.89 -0.338146 2.97988 0
M  V30 6527 H 612.443 -0.138913 1.55681 0
M  V30 6528 H 613.178 -2.65476 1.8626 0
M  V30 6529 H 612.963 -1.86258 3.45037 0
M  V30 6530 H 614.453 -2.79105 3.10629 0
M  V30 6531 N 614.89 -1.56749 -0.16351 0
M  V30 6532 C 615.853 -1.96121 -1.18613 0
M  V30 6533 C 616.853 -0.845765 -1.36761 0
M  V30 6534 O 618.043 -1.11268 -1.34033 0
M  V30 6535 C 615.175 -2.26282 -2.54969 0
M  V30 6536 H 616.368 -2.87639 -0.848764 0
M  V30 6537 H 613.921 -1.50928 -0.406251 0
M  V30 6538 H 614.656 -1.37504 -2.93706 0
M  V30 6539 H 614.441 -3.07595 -2.43162 0
M  V30 6540 H 615.931 -2.57638 -3.28653 0
M  V30 6541 N 616.368 0.432326 -1.51554 0
M  V30 6542 C 617.298 1.53242 -1.76179 0
M  V30 6543 C 618.279 1.58717 -0.611801 0
M  V30 6544 O 619.464 1.74364 -0.855033 0
M  V30 6545 C 616.594 2.91278 -1.89141 0
M  V30 6546 C 615.548 3.00663 -3.04608 0
M  V30 6547 C 614.874 4.40728 -3.02759 0
M  V30 6548 C 616.174 2.74281 -4.44485 0
M  V30 6549 H 617.868 1.32886 -2.68294 0
M  V30 6550 H 615.414 0.637841 -1.29103 0
M  V30 6551 H 617.367 3.68203 -2.04951 0
M  V30 6552 H 616.091 3.12877 -0.936785 0
M  V30 6553 H 614.75 2.26179 -2.88511 0
M  V30 6554 H 614.398 4.59301 -2.05065 0
M  V30 6555 H 614.098 4.47936 -3.80299 0
M  V30 6556 H 615.622 5.19619 -3.20669 0
M  V30 6557 H 617.036 3.40936 -4.60907 0
M  V30 6558 H 615.433 2.92893 -5.23769 0
M  V30 6559 H 616.503 1.69856 -4.54177 0
M  V30 6560 N 617.846 1.41785 0.688094 0
M  V30 6561 C 619.071 1.45117 1.48175 0
M  V30 6562 C 619.496 0.060129 1.88004 0
M  V30 6563 O 618.854 -0.938385 1.55126 0
M  V30 6564 C 618.902 2.37224 2.71583 0
M  V30 6565 O 618.006 1.83443 3.69354 0
M  V30 6566 H 617.347 0.492208 0.445676 0
M  V30 6567 H 619.877 1.86329 0.845145 0
M  V30 6568 H 619.887 2.53353 3.19806 0
M  V30 6569 H 618.562 3.38293 2.41931 0
M  V30 6570 H 617.139 1.76802 3.28322 0
M  V30 6571 N 619.324 -0.923095 1.27737 0
M  V30 6572 C 620.234 -2.05765 1.12685 0
M  V30 6573 C 621.25 -1.73911 0.0557197 0
M  V30 6574 O 622.426 -1.99674 0.263137 0
M  V30 6575 C 619.491 -3.37804 0.780363 0
M  V30 6576 C 618.552 -3.83326 1.93286 0
M  V30 6577 C 617.785 -5.09064 1.60281 0
M  V30 6578 O 618.008 -5.6809 0.512828 0
M  V30 6579 O 616.942 -5.50071 2.44347 0
M  V30 6580 H 620.768 -2.21378 2.07907 0
M  V30 6581 H 618.353 -1.04299 1.06968 0
M  V30 6582 H 620.235 -4.17097 0.600668 0
M  V30 6583 H 618.91 -3.23387 -0.142291 0
M  V30 6584 H 617.817 -3.049 2.16764 0
M  V30 6585 H 619.15 -4.02292 2.83588 0
M  V30 6586 N 620.802 -1.09834 -1.13024 0
M  V30 6587 C 622.213 -0.855651 -1.65938 0
M  V30 6588 C 622.564 0.615159 -1.86307 0
M  V30 6589 O 621.689 1.47335 -1.58497 0
M  V30 6590 C 622.284 -1.5467 -3.01434 0
M  V30 6591 C 620.843 -1.35088 -3.51323 0
M  V30 6592 C 619.99 -1.6001 -2.26478 0
M  V30 6593 H 622.941 -1.25691 -0.968889 0
M  V30 6594 H 622.962 -0.982179 -3.67605 0
M  V30 6595 H 622.474 -2.61715 -2.86578 0
M  V30 6596 H 620.575 -0.30179 -3.71376 0
M  V30 6597 H 620.688 -2.0886 -4.31178 0
M  V30 6598 H 619.052 -1.02246 -2.33276 0
M  V30 6599 H 619.835 -2.68293 -2.14182 0
M  V30 6600 N 622.28 1.30327 -0.886154 0
M  V30 6601 C 623.557 1.90922 -0.425217 0
M  V30 6602 C 623.937 1.80533 1.09413 0
M  V30 6603 O 623.285 1.2233 1.92996 0
M  V30 6604 C 623.495 3.36529 -0.924638 0
M  V30 6605 C 624.843 4.13598 -0.960305 0
M  V30 6606 O 625.867 3.45377 -0.871382 0
M  V30 6607 O 624.726 5.35482 -1.09184 0
M  V30 6608 H 621.82 0.81668 -0.130238 0
M  V30 6609 H 624.366 1.38886 -0.975132 0
M  V30 6610 H 623.138 3.38181 -1.96849 0
M  V30 6611 H 622.761 3.96021 -0.353955 0
M  V30 6612 N 623.758 0.647228 1.43697 0
M  V30 6613 C 624.986 0.16575 2.06235 0
M  V30 6614 C 625.401 -1.1662 1.48476 0
M  V30 6615 O 624.758 -1.7187 0.613762 0
M  V30 6616 C 624.809 0.0621651 3.61447 0
M  V30 6617 O 624.53 1.34146 4.17057 0
M  V30 6618 C 626.031 -0.446102 4.4105 0
M  V30 6619 H 623.251 0.0871158 0.665321 0
M  V30 6620 H 625.795 0.886183 1.84301 0
M  V30 6621 H 623.95 -0.608794 3.82587 0
M  V30 6622 H 624.364 1.19675 5.10664 0
M  V30 6623 H 625.838 -0.46755 5.50016 0
M  V30 6624 H 626.315 -1.47627 4.13646 0
M  V30 6625 H 626.921 0.192159 4.24866 0
M  V30 6626 N 625.236 -1.5273 0.388769 0
M  V30 6627 C 626.461 -2.0647 -0.19621 0
M  V30 6628 C 626.886 -1.25865 -1.39784 0
M  V30 6629 O 626.244 -0.283562 -1.79069 0
M  V30 6630 C 626.292 -3.56456 -0.5451 0
M  V30 6631 O 625.396 -3.78426 -1.63912 0
M  V30 6632 H 624.737 -0.663599 -0.023067 0
M  V30 6633 H 627.267 -1.96898 0.556084 0
M  V30 6634 H 627.277 -3.99888 -0.809557 0
M  V30 6635 H 625.952 -4.14561 0.333417 0
M  V30 6636 H 624.529 -3.46884 -1.36842 0
M  V30 6637 N 626.714 -0.118576 -1.57153 0
M  V30 6638 C 627.942 0.54726 -1.99531 0
M  V30 6639 C 628.357 1.60251 -0.998246 0
M  V30 6640 O 627.714 1.82498 0.00893106 0
M  V30 6641 C 627.765 1.17378 -3.41913 0
M  V30 6642 O 627.486 0.160703 -4.37805 0
M  V30 6643 C 628.987 1.92297 -3.9942 0
M  V30 6644 H 626.207 0.144919 -0.655164 0
M  V30 6645 H 628.751 -0.20479 -2.03472 0
M  V30 6646 H 626.906 1.87661 -3.38913 0
M  V30 6647 H 627.32 0.61586 -5.20872 0
M  V30 6648 H 628.794 2.31462 -5.01128 0
M  V30 6649 H 629.271 2.79801 -3.38538 0
M  V30 6650 H 629.877 1.26777 -4.05965 0
M  V30 6651 N 628.193 1.56834 0.155195 0
M  V30 6652 C 629.421 1.87049 0.884326 0
M  V30 6653 C 629.836 0.705839 1.7511 0
M  V30 6654 O 629.193 -0.324641 1.79589 0
M  V30 6655 C 629.244 3.1644 1.74781 0
M  V30 6656 O 628.965 4.28417 0.915978 0
M  V30 6657 C 630.466 3.60113 2.58522 0
M  V30 6658 H 627.686 0.620196 0.25612 0
M  V30 6659 H 630.23 2.03946 0.150445 0
M  V30 6660 H 628.385 3.01321 2.43484 0
M  V30 6661 H 628.799 5.02353 1.50803 0
M  V30 6662 H 630.273 4.53508 3.14698 0
M  V30 6663 H 630.75 2.85005 3.34169 0
M  V30 6664 H 631.356 3.77898 1.95124 0
M  V30 6665 N 629.671 -0.424282 1.51781 0
M  V30 6666 C 630.899 -1.1947 1.68921 0
M  V30 6667 C 631.314 -1.84683 0.39213 0
M  V30 6668 O 630.671 -1.71261 -0.630554 0
M  V30 6669 C 630.722 -2.26909 2.81416 0
M  V30 6670 O 630.443 -1.64361 4.061 0
M  V30 6671 C 631.944 -3.16945 3.09937 0
M  V30 6672 H 629.164 -0.359591 0.566511 0
M  V30 6673 H 631.708 -0.501139 1.98265 0
M  V30 6674 H 629.863 -2.91959 2.54635 0
M  V30 6675 H 630.277 -2.35468 4.68674 0
M  V30 6676 H 631.751 -3.88437 3.922 0
M  V30 6677 H 632.228 -3.78451 2.22871 0
M  V30 6678 H 632.834 -2.57581 3.38426 0
M  V30 6679 N 631.149 -1.42148 -0.680565 0
M  V30 6680 C 632.097 -1.45401 -1.81552 0
M  V30 6681 C 633.091 -0.33036 -1.66147 0
M  V30 6682 O 634.297 -0.503103 -1.72826 0
M  V30 6683 H 630.672 -0.455265 -0.59853 0
M  V30 6684 H 632.643 -2.41024 -1.75926 0
M  V30 6685 C 631.392 -1.36769 -3.19671 0
M  V30 6686 H 630.715 -2.22525 -3.32149 0
M  V30 6687 H 632.155 -1.43106 -3.9912 0
M  V30 6688 C 630.614 -0.0817752 -3.36801 0
M  V30 6689 O 631.144 0.867707 -3.92216 0
M  V30 6690 N 629.35 -0.000799811 -2.906 0
M  V30 6691 H 628.897 -0.774231 -2.4569 0
M  V30 6692 H 628.855 0.858961 -3.02439 0
M  V30 6693 N 632.627 0.916307 -1.28225 0
M  V30 6694 C 633.557 2.0352 -1.14464 0
M  V30 6695 C 634.538 1.70045 -0.0430844 0
M  V30 6696 O 635.723 1.92954 -0.219619 0
M  V30 6697 C 632.853 3.37889 -0.803027 0
M  V30 6698 C 631.807 3.85516 -1.85908 0
M  V30 6699 C 631.133 5.1682 -1.37116 0
M  V30 6700 C 632.433 4.07655 -3.26519 0
M  V30 6701 H 634.127 2.1529 -2.08064 0
M  V30 6702 H 631.673 1.03446 -1.00174 0
M  V30 6703 H 633.626 4.15654 -0.693537 0
M  V30 6704 H 632.35 3.26164 0.168674 0
M  V30 6705 H 631.009 3.09953 -1.95767 0
M  V30 6706 H 630.657 5.01497 -0.38859 0
M  V30 6707 H 630.357 5.49657 -2.07728 0
M  V30 6708 H 631.881 5.97143 -1.27484 0
M  V30 6709 H 633.295 4.75953 -3.19596 0
M  V30 6710 H 631.692 4.51818 -3.94943 0
M  V30 6711 H 632.762 3.12553 -3.70727 0
M  V30 6712 N 634.105 1.10431 1.1244 0
M  V30 6713 C 635.516 0.864439 1.65482 0
M  V30 6714 C 635.867 -0.60527 1.8663 0
M  V30 6715 O 634.992 -1.46492 1.59276 0
M  V30 6716 C 635.587 1.56267 3.0061 0
M  V30 6717 C 634.146 1.3695 3.50602 0
M  V30 6718 C 633.293 1.61209 2.25626 0
M  V30 6719 H 636.244 1.26203 0.962209 0
M  V30 6720 H 636.265 1.00166 3.67079 0
M  V30 6721 H 635.777 2.63231 2.85186 0
M  V30 6722 H 633.878 0.321481 3.71211 0
M  V30 6723 H 633.991 2.11143 4.30064 0
M  V30 6724 H 632.355 1.03482 2.32731 0
M  V30 6725 H 633.138 2.69425 2.12756 0
M  V30 6726 N 635.583 -1.29855 0.893053 0
M  V30 6727 C 636.513 -2.3035 0.382249 0
M  V30 6728 C 637.494 -1.61328 -0.539203 0
M  V30 6729 O 638.679 -1.88882 -0.451342 0
M  V30 6730 C 635.809 -3.45024 -0.396983 0
M  V30 6731 C 634.763 -4.258 0.433437 0
M  V30 6732 C 634.089 -5.32605 -0.472889 0
M  V30 6733 C 635.389 -4.94549 1.67984 0
M  V30 6734 H 637.083 -2.73325 1.22205 0
M  V30 6735 H 634.629 -1.314 0.589073 0
M  V30 6736 H 636.582 -4.14398 -0.765024 0
M  V30 6737 H 635.306 -3.00875 -1.2705 0
M  V30 6738 H 633.965 -3.58125 0.783723 0
M  V30 6739 H 633.613 -4.84702 -1.34435 0
M  V30 6740 H 633.313 -5.87547 0.0789958 0
M  V30 6741 H 634.837 -6.04832 -0.837269 0
M  V30 6742 H 636.251 -5.56395 1.38192 0
M  V30 6743 H 634.648 -5.59393 2.17254 0
M  V30 6744 H 635.718 -4.20215 2.41965 0
M  V30 6745 N 637.061 -0.65484 -1.43351 0
M  V30 6746 C 637.991 0.0221809 -2.33489 0
M  V30 6747 C 638.972 0.810272 -1.49561 0
M  V30 6748 O 640.157 0.771426 -1.78221 0
M  V30 6749 C 637.287 0.988117 -3.32947 0
M  V30 6750 C 636.241 0.310026 -4.26876 0
M  V30 6751 C 635.567 1.38752 -5.16384 0
M  V30 6752 C 636.867 -0.798589 -5.16159 0
M  V30 6753 H 638.561 -0.730571 -2.9035 0
M  V30 6754 H 636.107 -0.352773 -1.39612 0
M  V30 6755 H 638.06 1.47067 -3.94904 0
M  V30 6756 H 636.784 1.77205 -2.74346 0
M  V30 6757 H 635.443 -0.152097 -3.66284 0
M  V30 6758 H 635.091 2.16293 -4.54121 0
M  V30 6759 H 634.791 0.939051 -5.80048 0
M  V30 6760 H 636.315 1.87141 -5.81215 0
M  V30 6761 H 637.729 -0.398126 -5.71916 0
M  V30 6762 H 636.126 -1.17163 -5.88552 0
M  V30 6763 H 637.196 -1.65588 -4.55751 0
M  V30 6764 N 638.539 1.52521 -0.396863 0
M  V30 6765 C 639.787 2.01274 0.182536 0
M  V30 6766 C 640.108 1.28485 1.46685 0
M  V30 6767 O 639.378 0.407134 1.91623 0
M  V30 6768 H 637.958 0.743671 0.0704442 0
M  V30 6769 H 640.62 1.87547 -0.530289 0
M  V30 6770 H 639.716 3.09687 0.387385 0
M  V30 6771 N 640.017 0.126909 1.57088 0
M  V30 6772 C 641.263 -0.529952 1.95753 0
M  V30 6773 C 641.596 -1.65823 1.01077 0
M  V30 6774 O 640.871 -1.94437 0.0494162 0
M  V30 6775 C 641.154 -1.05517 3.44294 0
M  V30 6776 C 641.007 0.0702253 4.49745 0
M  V30 6777 C 642.326 -1.9435 3.94862 0
M  V30 6778 H 639.445 -0.191168 0.711775 0
M  V30 6779 H 642.087 0.204071 1.88901 0
M  V30 6780 H 640.237 -1.68069 3.50264 0
M  V30 6781 H 641.909 0.705834 4.55868 0
M  V30 6782 H 640.152 0.732259 4.27575 0
M  V30 6783 H 640.823 -0.338642 5.5096 0
M  V30 6784 H 643.299 -1.41658 3.91244 0
M  V30 6785 H 642.175 -2.28015 4.993 0
M  V30 6786 H 642.436 -2.87299 3.36024 0
M  V30 6787 N 641.495 -1.56914 -0.146875 0
M  V30 6788 C 642.405 -2.0154 -1.20079 0
M  V30 6789 C 643.421 -0.930838 -1.47008 0
M  V30 6790 O 644.597 -1.24032 -1.58676 0
M  V30 6791 C 641.662 -2.38715 -2.51428 0
M  V30 6792 C 640.723 -3.6112 -2.32145 0
M  V30 6793 C 639.956 -3.96512 -3.57231 0
M  V30 6794 O 640.179 -3.32566 -4.63418 0
M  V30 6795 O 639.113 -4.89758 -3.49887 0
M  V30 6796 H 642.939 -2.91506 -0.851924 0
M  V30 6797 H 640.524 -1.45106 -0.355607 0
M  V30 6798 H 642.406 -2.63485 -3.28867 0
M  V30 6799 H 641.081 -1.51903 -2.85845 0
M  V30 6800 H 639.988 -3.41536 -1.52656 0
M  V30 6801 H 641.321 -4.48549 -2.02644 0
M  V30 6802 N 642.974 0.416227 -1.52004 0
M  V30 6803 C 644.202 1.18573 -1.69553 0
M  V30 6804 C 644.617 1.84472 -0.401919 0
M  V30 6805 O 643.974 1.71593 0.621463 0
M  V30 6806 C 644.025 2.25413 -2.82615 0
M  V30 6807 O 643.746 1.62205 -4.06966 0
M  V30 6808 C 645.247 3.15297 -3.11613 0
M  V30 6809 H 642.467 0.356582 -0.56841 0
M  V30 6810 H 645.011 0.490618 -1.98528 0
M  V30 6811 H 643.166 2.90604 -2.56179 0
M  V30 6812 H 643.58 2.3298 -4.69916 0
M  V30 6813 H 645.054 3.86351 -3.94255 0
M  V30 6814 H 645.531 3.77264 -2.24874 0
M  V30 6815 H 646.137 2.55783 -3.39787 0
M  V30 6816 N 644.452 1.42507 0.673017 0
M  V30 6817 C 645.4 1.46362 1.80779 0
M  V30 6818 C 646.394 0.339166 1.6597 0
M  V30 6819 O 647.6 0.512262 1.72557 0
M  V30 6820 H 643.975 0.458433 0.596107 0
M  V30 6821 H 645.946 2.41953 1.74646 0
M  V30 6822 C 644.695 1.38462 3.18941 0
M  V30 6823 H 644.018 2.24283 3.30964 0
M  V30 6824 H 645.458 1.45221 3.98355 0
M  V30 6825 C 643.917 0.0996354 3.36753 0
M  V30 6826 O 644.447 -0.846894 3.92671 0
M  V30 6827 N 642.653 0.016211 2.90595 0
M  V30 6828 H 642.2 0.78725 2.45276 0
M  V30 6829 H 642.158 -0.84291 3.0289 0
M  V30 6830 N 645.93 -0.909495 1.28709 0
M  V30 6831 C 646.862 -2.01729 1.08804 0
M  V30 6832 C 647.875 -1.62755 0.0384739 0
M  V30 6833 O 649.064 -1.76259 0.281977 0
M  V30 6834 C 646.164 -3.32952 0.63217 0
M  V30 6835 C 645.337 -4.00512 1.75809 0
M  V30 6836 C 644.396 -5.10019 1.29488 0
M  V30 6837 O 643.422 -5.32986 1.99787 0
M  V30 6838 N 644.624 -5.80278 0.1604 0
M  V30 6839 H 647.389 -2.19362 2.04207 0
M  V30 6840 H 644.95 -1.08106 1.20518 0
M  V30 6841 H 646.942 -4.03543 0.305802 0
M  V30 6842 H 645.512 -3.11759 -0.229134 0
M  V30 6843 H 644.732 -3.23413 2.25383 0
M  V30 6844 H 646.02 -4.42395 2.51325 0
M  V30 6845 H 645.418 -5.64094 -0.425937 0
M  V30 6846 H 643.975 -6.51713 -0.106663 0
M  V30 6847 N 647.408 -1.11026 -1.11852 0
M  V30 6848 C 648.633 -0.879064 -1.87849 0
M  V30 6849 C 649.058 0.565406 -1.79401 0
M  V30 6850 O 648.416 1.39886 -1.15333 0
M  V30 6851 C 648.464 -1.33985 -3.34784 0
M  V30 6852 O 647.568 -0.508803 -4.09249 0
M  V30 6853 H 646.909 -0.316992 -0.583448 0
M  V30 6854 H 649.439 -1.47863 -1.41413 0
M  V30 6855 H 649.449 -1.33248 -3.85628 0
M  V30 6856 H 648.124 -2.39172 -3.40249 0
M  V30 6857 H 646.701 -0.581913 -3.68332 0
M  V30 6858 N 648.886 1.2938 -0.899927 0
M  V30 6859 C 650.135 1.9483 -0.521937 0
M  V30 6860 C 650.448 1.71725 0.936473 0
M  V30 6861 O 651.654 2.31282 1.42199 0
M  V30 6862 C 650.11 3.48911 -0.88255 0
M  V30 6863 C 649.718 3.80815 -2.35974 0
M  V30 6864 C 651.462 4.20595 -0.57448 0
M  V30 6865 C 649.369 5.28142 -2.66121 0
M  V30 6866 H 648.299 0.729285 -0.191468 0
M  V30 6867 H 650.95 1.47103 -1.09695 0
M  V30 6868 H 649.332 3.95293 -0.236459 0
M  V30 6869 H 650.506 3.45291 -3.05141 0
M  V30 6870 H 648.821 3.22271 -2.63686 0
M  V30 6871 H 651.418 5.29031 -0.776556 0
M  V30 6872 H 651.761 4.13442 0.487005 0
M  V30 6873 H 652.294 3.79945 -1.17842 0
M  V30 6874 H 649.033 5.4036 -3.71068 0
M  V30 6875 H 648.553 5.64913 -2.01578 0
M  V30 6876 H 650.232 5.95738 -2.52399 0
M  V30 6877 N 650.364 0.662433 1.43002 0
M  V30 6878 C 651.274 -0.0239199 2.34588 0
M  V30 6879 C 652.29 -0.802255 1.54402 0
M  V30 6880 O 653.466 -0.747401 1.87018 0
M  V30 6881 C 650.531 -0.972098 3.32793 0
M  V30 6882 C 649.592 -0.189673 4.28881 0
M  V30 6883 C 648.825 -1.09269 5.22395 0
M  V30 6884 O 649.048 -2.33209 5.20547 0
M  V30 6885 O 647.982 -0.560136 5.99288 0
M  V30 6886 H 651.808 0.730171 2.94792 0
M  V30 6887 H 649.393 0.422635 1.43297 0
M  V30 6888 H 651.275 -1.51676 3.93157 0
M  V30 6889 H 649.95 -1.70626 2.75079 0
M  V30 6890 H 648.857 0.398794 3.71968 0
M  V30 6891 H 650.19 0.50511 4.89601 0
M  V30 6892 N 651.842 -1.52309 0.404946 0
M  V30 6893 C 653.067 -2.06666 -0.1743 0
M  V30 6894 C 653.492 -1.27341 -1.38441 0
M  V30 6895 O 652.85 -0.302539 -1.78758 0
M  V30 6896 C 652.898 -3.57014 -0.507262 0
M  V30 6897 O 652.002 -3.80144 -1.59889 0
M  V30 6898 H 651.343 -0.663807 -0.0160273 0
M  V30 6899 H 653.873 -1.96297 0.576937 0
M  V30 6900 H 653.883 -4.00724 -0.767098 0
M  V30 6901 H 652.558 -4.14184 0.377368 0
M  V30 6902 H 651.135 -3.48316 -1.33155 0
M  V30 6903 N 653.32 -0.135238 -1.57019 0
M  V30 6904 C 654.597 0.563227 -1.87316 0
M  V30 6905 C 654.977 1.83749 -1.03921 0
M  V30 6906 O 654.325 2.2817 -0.122675 0
M  V30 6907 C 654.535 0.840031 -3.3874 0
M  V30 6908 C 655.883 1.18598 -4.077 0
M  V30 6909 O 656.907 0.92977 -3.43851 0
M  V30 6910 O 655.766 1.66758 -5.20436 0
M  V30 6911 H 652.86 0.285971 -0.775983 0
M  V30 6912 H 655.406 -0.170965 -1.68837 0
M  V30 6913 H 654.178 -0.0622785 -3.9125 0
M  V30 6914 H 653.801 1.62882 -3.62706 0
M  V30 6915 N 654.798 1.5699 0.138552 0
M  V30 6916 C 655.73 1.95515 1.1961 0
M  V30 6917 C 656.743 0.852002 1.38726 0
M  V30 6918 O 657.932 1.13038 1.38147 0
M  V30 6919 C 655.032 2.2213 2.55952 0
M  V30 6920 C 654.205 3.53424 2.57702 0
M  V30 6921 C 653.264 3.6848 3.75645 0
M  V30 6922 O 652.29 4.4079 3.60129 0
M  V30 6923 N 653.492 3.05777 4.93438 0
M  V30 6924 H 656.257 2.86838 0.868557 0
M  V30 6925 H 653.818 1.58542 0.328033 0
M  V30 6926 H 655.81 2.29435 3.33379 0
M  V30 6927 H 654.38 1.3703 2.80965 0
M  V30 6928 H 653.6 3.57484 1.6613 0
M  V30 6929 H 654.888 4.39759 2.55909 0
M  V30 6930 H 654.286 2.46961 5.08947 0
M  V30 6931 H 652.843 3.18631 5.6861 0
M  V30 6932 N 656.276 -0.40816 1.52223 0
M  V30 6933 C 657.501 -1.18127 1.70472 0
M  V30 6934 C 657.926 -1.83491 0.41384 0
M  V30 6935 O 657.284 -1.70047 -0.628778 0
M  V30 6936 C 657.332 -2.21935 2.84213 0
M  V30 6937 O 656.436 -3.28099 2.4985 0
M  V30 6938 H 655.777 -0.344781 0.56747 0
M  V30 6939 H 658.307 -0.478328 1.9893 0
M  V30 6940 H 658.317 -2.66248 3.09153 0
M  V30 6941 H 656.992 -1.73744 3.7787 0
M  V30 6942 H 655.569 -2.89058 2.35584 0
M  V30 6943 N 657.755 -1.42862 -0.66545 0
M  V30 6944 C 659.032 -1.3431 -1.42197 0
M  V30 6945 C 659.412 0.0150265 -2.11095 0
M  V30 6946 O 658.76 1.03101 -2.03918 0
M  V30 6947 C 658.97 -2.51783 -2.41674 0
M  V30 6948 C 660.318 -2.94321 -3.0604 0
M  V30 6949 O 661.342 -2.51741 -2.52001 0
M  V30 6950 O 660.201 -3.68047 -4.03985 0
M  V30 6951 H 657.295 -0.530159 -0.634713 0
M  V30 6952 H 659.841 -1.54888 -0.693386 0
M  V30 6953 H 658.613 -3.42282 -1.89627 0
M  V30 6954 H 658.236 -2.33241 -3.22001 0
M  V30 6955 N 659.233 0.902656 -1.29189 0
M  V30 6956 C 660.51 1.63296 -1.07674 0
M  V30 6957 C 660.89 2.07649 0.380137 0
M  V30 6958 O 660.238 1.82997 1.36837 0
M  V30 6959 C 660.448 2.81603 -2.06158 0
M  V30 6960 C 661.796 3.52359 -2.36914 0
M  V30 6961 O 662.82 2.91767 -2.04329 0
M  V30 6962 O 661.679 4.61586 -2.92576 0
M  V30 6963 H 658.773 0.716889 -0.41231 0
M  V30 6964 H 661.319 0.950984 -1.4055 0
M  V30 6965 H 660.091 2.46004 -3.04299 0
M  V30 6966 H 659.714 3.57508 -1.73993 0
M  V30 6967 N 660.711 1.11618 1.11262 0
M  V30 6968 C 661.641 0.79846 2.19424 0
M  V30 6969 C 662.622 -0.234003 1.68483 0
M  V30 6970 O 663.807 -0.0970704 1.93957 0
M  V30 6971 C 660.937 0.242892 3.4645 0
M  V30 6972 C 659.891 1.20744 4.10615 0
M  V30 6973 C 659.217 0.512494 5.32238 0
M  V30 6974 C 660.517 2.55884 4.55325 0
M  V30 6975 H 662.211 1.70286 2.46258 0
M  V30 6976 H 659.757 0.820195 1.18359 0
M  V30 6977 H 661.71 0.00840447 4.21399 0
M  V30 6978 H 660.434 -0.696811 3.1908 0
M  V30 6979 H 659.093 1.42759 3.37662 0
M  V30 6980 H 658.741 -0.432075 5.01141 0
M  V30 6981 H 658.441 1.15583 5.7612 0
M  V30 6982 H 659.965 0.286842 6.09926 0
M  V30 6983 H 661.379 2.37946 5.21588 0
M  V30 6984 H 659.776 3.16216 5.10027 0
M  V30 6985 H 660.846 3.14968 3.68678 0
M  V30 6986 N 662.189 -1.289 0.906776 0
M  V30 6987 C 663.6 -1.77336 0.58384 0
M  V30 6988 C 663.951 -1.74304 -0.900697 0
M  V30 6989 O 663.076 -1.33335 -1.70443 0
M  V30 6990 C 663.671 -3.22019 1.05304 0
M  V30 6991 C 662.23 -3.68205 0.781148 0
M  V30 6992 C 661.377 -2.48837 1.22373 0
M  V30 6993 H 664.328 -1.15462 1.08877 0
M  V30 6994 H 664.349 -3.78481 0.391414 0
M  V30 6995 H 663.861 -3.24194 2.13353 0
M  V30 6996 H 661.962 -3.71497 -0.28643 0
M  V30 6997 H 662.075 -4.58675 1.384 0
M  V30 6998 H 660.439 -2.46461 0.642594 0
M  V30 6999 H 661.222 -2.53736 2.31242 0
M  V30 7000 N 663.667 -0.670007 -1.42649 0
M  V30 7001 C 664.599 0.0501746 -2.29145 0
M  V30 7002 C 665.612 0.770331 -1.43422 0
M  V30 7003 O 666.801 0.625288 -1.6719 0
M  V30 7004 C 663.901 1.09463 -3.20735 0
M  V30 7005 C 663.074 0.44926 -4.35087 0
M  V30 7006 C 662.133 1.39285 -5.07431 0
M  V30 7007 O 661.159 0.894997 -5.6212 0
M  V30 7008 N 662.361 2.72631 -5.12496 0
M  V30 7009 H 665.126 -0.692312 -2.91594 0
M  V30 7010 H 662.687 -0.514056 -1.53522 0
M  V30 7011 H 664.679 1.72705 -3.65999 0
M  V30 7012 H 663.249 1.73891 -2.59771 0
M  V30 7013 H 662.469 -0.362573 -3.92529 0
M  V30 7014 H 663.757 -0.000544776 -5.088 0
M  V30 7015 H 663.155 3.15623 -4.69467 0
M  V30 7016 H 661.712 3.31132 -5.61422 0
M  V30 7017 N 665.145 1.52092 -0.413018 0
M  V30 7018 C 666.37 2.06756 0.163338 0
M  V30 7019 C 666.795 1.28073 1.37764 0
M  V30 7020 O 666.153 0.312015 1.78595 0
M  V30 7021 C 666.201 3.57278 0.488322 0
M  V30 7022 O 665.305 3.80986 1.57871 0
M  V30 7023 H 664.646 0.663882 0.0125068 0
M  V30 7024 H 667.176 1.95988 -0.587339 0
M  V30 7025 H 667.186 4.01125 0.745836 0
M  V30 7026 H 665.861 4.13978 -0.399327 0
M  V30 7027 H 664.438 3.49017 1.31306 0
M  V30 7028 N 666.623 0.143563 1.56945 0
M  V30 7029 C 667.586 -0.783295 2.154 0
M  V30 7030 C 668.586 -1.17763 1.09492 0
M  V30 7031 O 669.776 -1.09912 1.35148 0
M  V30 7032 C 666.908 -2.06248 2.7143 0
M  V30 7033 H 668.101 -0.274863 2.98638 0
M  V30 7034 H 665.654 -0.105859 1.55941 0
M  V30 7035 H 666.389 -2.61466 1.91849 0
M  V30 7036 H 666.174 -1.78897 3.4891 0
M  V30 7037 H 667.664 -2.72453 3.16479 0
M  V30 7038 N 668.101 -1.57061 -0.130224 0
M  V30 7039 C 669.064 -1.98593 -1.14426 0
M  V30 7040 C 670.064 -0.874584 -1.34936 0
M  V30 7041 O 671.254 -1.14086 -1.31643 0
M  V30 7042 C 668.386 -2.31639 -2.50112 0
M  V30 7043 H 669.579 -2.89374 -0.787561 0
M  V30 7044 H 667.132 -1.51756 -0.374146 0
M  V30 7045 H 667.867 -1.43703 -2.90723 0
M  V30 7046 H 667.652 -3.12684 -2.36583 0
M  V30 7047 H 669.142 -2.64551 -3.23114 0
M  V30 7048 N 669.579 0.400081 -1.52437 0
M  V30 7049 C 670.99 0.97851 -1.59003 0
M  V30 7050 C 671.341 1.91293 -0.436068 0
M  V30 7051 O 670.466 2.1183 0.442365 0
M  V30 7052 C 671.061 1.78145 -2.88184 0
M  V30 7053 C 669.62 2.30976 -2.97199 0
M  V30 7054 C 668.767 1.11212 -2.54022 0
M  V30 7055 H 671.718 0.180002 -1.57676 0
M  V30 7056 H 671.739 2.63968 -2.74046 0
M  V30 7057 H 671.251 1.1011 -3.72152 0
M  V30 7058 H 669.352 3.02355 -2.17744 0
M  V30 7059 H 669.465 2.61221 -4.01622 0
M  V30 7060 H 667.829 1.46882 -2.08081 0
M  V30 7061 H 668.612 0.447307 -3.40373 0
M  V30 7062 N 671.057 1.43213 0.657864 0
M  V30 7063 C 672.306 1.43871 1.41365 0
M  V30 7064 C 672.619 0.064898 1.95492 0
M  V30 7065 O 673.825 -0.0510796 2.71452 0
M  V30 7066 C 672.281 2.53158 2.55811 0
M  V30 7067 C 671.889 3.96624 2.08311 0
M  V30 7068 C 673.633 2.63004 3.3321 0
M  V30 7069 C 671.54 4.97385 3.1994 0
M  V30 7070 H 670.47 0.535174 0.531136 0
M  V30 7071 H 673.121 1.69185 0.710543 0
M  V30 7072 H 671.503 2.21037 3.2857 0
M  V30 7073 H 672.677 4.38182 1.42593 0
M  V30 7074 H 670.992 3.90781 1.43804 0
M  V30 7075 H 673.589 3.3546 4.16378 0
M  V30 7076 H 673.932 1.67918 3.80932 0
M  V30 7077 H 674.465 2.94403 2.67529 0
M  V30 7078 H 671.204 5.94007 2.77192 0
M  V30 7079 H 670.724 4.60444 3.84385 0
M  V30 7080 H 672.403 5.19877 3.85145 0
M  V30 7081 N 672.536 -0.895792 1.29666 0
M  V30 7082 C 673.761 -1.68528 1.20885 0
M  V30 7083 C 674.186 -1.8673 -0.226595 0
M  V30 7084 O 673.544 -1.39044 -1.16347 0
M  V30 7085 C 673.592 -3.04512 1.93144 0
M  V30 7086 O 672.696 -3.92963 1.25115 0
M  V30 7087 H 672.037 -0.515371 0.418675 0
M  V30 7088 H 674.567 -1.11878 1.71302 0
M  V30 7089 H 674.577 -3.54628 2.0175 0
M  V30 7090 H 673.252 -2.90582 2.97548 0
M  V30 7091 H 671.829 -3.51399 1.24794 0
M  V30 7092 N 674.014 -1.12206 -1.10668 0
M  V30 7093 C 675.262 -0.874144 -1.82217 0
M  V30 7094 C 675.583 0.601736 -1.85484 0
M  V30 7095 O 674.853 1.43725 -1.33116 0
M  V30 7096 H 673.433 -0.320404 -0.674797 0
M  V30 7097 H 676.095 -1.41606 -1.33917 0
M  V30 7098 H 675.191 -1.25349 -2.85822 0
M  V30 7099 N 675.492 1.28418 -0.913599 0
M  V30 7100 C 676.44 2.29272 -0.392037 0
M  V30 7101 C 677.434 1.61344 0.516198 0
M  V30 7102 O 678.64 1.75557 0.39746 0
M  V30 7103 H 675.015 0.744178 -0.108178 0
M  V30 7104 H 676.986 2.70691 -1.25574 0
M  V30 7105 C 675.735 3.45905 0.352815 0
M  V30 7106 H 675.058 3.98378 -0.336848 0
M  V30 7107 H 676.498 4.18473 0.682398 0
M  V30 7108 C 674.957 2.98572 1.56065 0
M  V30 7109 O 675.487 3.01033 2.65974 0
M  V30 7110 N 673.693 2.54235 1.40759 0
M  V30 7111 H 673.24 2.52432 0.513403 0
M  V30 7112 H 673.198 2.22925 2.21702 0
M  V30 7113 N 676.97 0.677563 1.42291 0
M  V30 7114 C 678.381 0.277912 1.8462 0
M  V30 7115 C 678.732 -1.18048 1.56714 0
M  V30 7116 O 677.857 -1.90404 1.02836 0
M  V30 7117 C 678.452 0.497619 3.35126 0
M  V30 7118 C 677.011 0.152063 3.76093 0
M  V30 7119 C 676.158 0.78872 2.65847 0
M  V30 7120 H 679.109 0.879527 1.32098 0
M  V30 7121 H 679.13 -0.24939 3.79682 0
M  V30 7122 H 678.642 1.55913 3.55405 0
M  V30 7123 H 676.743 -0.905896 3.6142 0
M  V30 7124 H 676.856 0.594514 4.75397 0
M  V30 7125 H 675.22 0.219813 2.5375 0
M  V30 7126 H 676.003 1.85374 2.88949 0
M  V30 7127 N 678.448 -1.51871 0.421078 0
M  V30 7128 C 679.694 -2.02237 -0.151014 0
M  V30 7129 C 680.027 -1.30554 -1.43768 0
M  V30 7130 O 679.302 -0.41546 -1.90011 0
M  V30 7131 C 679.585 -3.5802 -0.386482 0
M  V30 7132 C 679.438 -4.40339 0.9177 0
M  V30 7133 C 680.757 -4.24444 -1.16342 0
M  V30 7134 H 677.876 -0.735062 -0.0534102 0
M  V30 7135 H 680.518 -1.81656 0.556888 0
M  V30 7136 H 678.668 -3.75688 -0.989494 0
M  V30 7137 H 680.34 -4.34357 1.55344 0
M  V30 7138 H 678.583 -4.06073 1.526 0
M  V30 7139 H 679.254 -5.47451 0.707187 0
M  V30 7140 H 681.73 -4.10948 -0.652788 0
M  V30 7141 H 680.606 -5.33358 -1.29693 0
M  V30 7142 H 680.867 -3.84204 -2.18724 0
M  V30 7143 N 679.926 -0.151884 -1.56866 0
M  V30 7144 C 680.856 0.781943 -2.20018 0
M  V30 7145 C 681.837 1.25347 -1.14987 0
M  V30 7146 O 683.022 1.31015 -1.43348 0
M  V30 7147 C 680.152 2.01928 -2.82564 0
M  V30 7148 C 679.106 1.68434 -3.93464 0
M  V30 7149 C 678.432 2.99472 -4.42968 0
M  V30 7150 C 679.732 0.927244 -5.14003 0
M  V30 7151 H 681.426 0.255607 -2.98307 0
M  V30 7152 H 678.972 0.121502 -1.43486 0
M  V30 7153 H 680.925 2.67741 -3.25411 0
M  V30 7154 H 679.649 2.56943 -2.01614 0
M  V30 7155 H 678.308 1.04998 -3.51242 0
M  V30 7156 H 677.956 3.52488 -3.58834 0
M  V30 7157 H 677.656 2.77823 -5.17772 0
M  V30 7158 H 679.18 3.66348 -4.88489 0
M  V30 7159 H 680.594 1.48756 -5.53665 0
M  V30 7160 H 678.991 0.810513 -5.94601 0
M  V30 7161 H 680.061 -0.0801163 -4.84834 0
M  V30 7162 N 681.404 1.57128 0.121893 0
M  V30 7163 C 682.336 1.96773 1.17529 0
M  V30 7164 C 683.349 0.866668 1.37814 0
M  V30 7165 O 684.538 1.14497 1.3694 0
M  V30 7166 C 681.638 2.24832 2.53582 0
M  V30 7167 C 680.811 3.56138 2.53939 0
M  V30 7168 C 679.87 3.72443 3.71716 0
M  V30 7169 O 678.896 4.44584 3.55434 0
M  V30 7170 N 680.098 3.10993 4.90167 0
M  V30 7171 H 682.863 2.87743 0.838086 0
M  V30 7172 H 680.424 1.58881 0.311199 0
M  V30 7173 H 682.416 2.32958 3.30927 0
M  V30 7174 H 680.986 1.40002 2.79496 0
M  V30 7175 H 680.206 3.59226 1.62329 0
M  V30 7176 H 681.494 4.42448 2.51231 0
M  V30 7177 H 680.892 2.52345 5.06299 0
M  V30 7178 H 679.449 3.24644 5.65198 0
M  V30 7179 N 682.882 -0.391992 1.52647 0
M  V30 7180 C 683.792 -1.503 1.80131 0
M  V30 7181 C 684.808 -1.59825 0.687882 0
M  V30 7182 O 685.984 -1.76218 0.975149 0
M  V30 7183 C 683.049 -2.85863 1.96171 0
M  V30 7184 C 682.11 -2.86084 3.20085 0
M  V30 7185 C 681.343 -4.15181 3.35351 0
M  V30 7186 O 681.566 -5.09981 2.55491 0
M  V30 7187 O 680.5 -4.22603 4.28591 0
M  V30 7188 H 684.326 -1.30007 2.74466 0
M  V30 7189 H 681.911 -0.579539 1.37701 0
M  V30 7190 H 683.793 -3.66236 2.08445 0
M  V30 7191 H 682.468 -3.06189 1.05025 0
M  V30 7192 H 681.375 -2.04504 3.13256 0
M  V30 7193 H 682.708 -2.7071 4.11068 0
M  V30 7194 N 684.36 -1.4356 -0.65026 0
M  V30 7195 C 685.29 -1.51758 -1.77459 0
M  V30 7196 C 686.271 -0.372019 -1.65982 0
M  V30 7197 O 687.456 -0.589627 -1.85033 0
M  V30 7198 C 684.586 -1.44302 -3.15902 0
M  V30 7199 C 683.54 -2.57138 -3.42146 0
M  V30 7200 C 682.866 -2.34735 -4.8042 0
M  V30 7201 C 684.166 -3.99373 -3.36598 0
M  V30 7202 H 685.86 -2.45863 -1.70855 0
M  V30 7203 H 683.406 -1.18333 -0.820566 0
M  V30 7204 H 685.359 -1.48641 -3.94314 0
M  V30 7205 H 684.083 -0.467026 -3.23244 0
M  V30 7206 H 682.742 -2.52157 -2.66106 0
M  V30 7207 H 682.39 -1.35372 -4.84441 0
M  V30 7208 H 682.09 -3.10375 -4.9894 0
M  V30 7209 H 683.614 -2.40862 -5.61086 0
M  V30 7210 H 685.028 -4.05826 -4.04942 0
M  V30 7211 H 683.425 -4.75063 -3.66654 0
M  V30 7212 H 684.495 -4.243 -2.34729 0
M  V30 7213 N 685.838 0.888903 -1.30139 0
M  V30 7214 C 687.087 1.63507 -1.18103 0
M  V30 7215 C 687.4 1.93808 0.264141 0
M  V30 7216 O 688.606 2.66744 0.505966 0
M  V30 7217 C 687.062 2.94673 -2.0663 0
M  V30 7218 C 686.67 2.71926 -3.56034 0
M  V30 7219 C 688.414 3.72626 -2.03346 0
M  V30 7220 C 686.321 3.98884 -4.3663 0
M  V30 7221 H 685.251 0.613426 -0.438435 0
M  V30 7222 H 687.902 0.984427 -1.54859 0
M  V30 7223 H 686.284 3.61009 -1.62754 0
M  V30 7224 H 687.458 2.14116 -4.08033 0
M  V30 7225 H 685.773 2.07353 -3.61101 0
M  V30 7226 H 688.37 4.66775 -2.60816 0
M  V30 7227 H 688.713 4.03712 -1.016 0
M  V30 7228 H 689.246 3.13147 -2.45324 0
M  V30 7229 H 685.985 3.72959 -5.39056 0
M  V30 7230 H 685.505 4.56214 -3.89396 0
M  V30 7231 H 687.184 4.66938 -4.47859 0
M  V30 7232 N 687.317 1.12792 1.10072 0
M  V30 7233 C 688.733 0.864745 1.34143 0
M  V30 7234 C 688.933 -0.503201 1.95116 0
M  V30 7235 O 687.989 -1.25111 2.19325 0
M  V30 7236 C 689.302 1.98413 2.25949 0
M  V30 7237 C 690.85 2.01545 2.39476 0
M  V30 7238 C 691.325 3.12727 3.34613 0
M  V30 7239 N 692.816 3.12194 3.42183 0
M  V30 7240 C 693.551 3.94862 4.15779 0
M  V30 7241 N 693.047 4.87528 4.92228 0
M  V30 7242 N 694.84 3.82985 4.11435 0
M  V30 7243 H 686.991 2.00926 0.68866 0
M  V30 7244 H 689.254 0.874564 0.365844 0
M  V30 7245 H 688.96 2.97005 1.88364 0
M  V30 7246 H 688.834 1.89254 3.26287 0
M  V30 7247 H 691.221 1.0357 2.76328 0
M  V30 7248 H 691.302 2.14777 1.3894 0
M  V30 7249 H 690.946 4.10936 2.98486 0
M  V30 7250 H 690.876 2.96732 4.35037 0
M  V30 7251 H 693.367 2.45065 2.87666 0
M  V30 7252 H 693.68 5.47109 5.45794 0
M  V30 7253 H 692.025 4.91539 4.9134 0
M  V30 7254 H 695.216 3.09923 3.50807 0
M  V30 7255 H 695.389 4.47641 4.68531 0
M  V30 7256 N 688.795 -1.27931 0.920396 0
M  V30 7257 C 690.023 -1.98805 0.573087 0
M  V30 7258 C 690.438 -1.68724 -0.847201 0
M  V30 7259 O 689.795 -0.943699 -1.56207 0
M  V30 7260 C 689.846 -3.52971 0.780633 0
M  V30 7261 O 689.567 -3.81994 2.14504 0
M  V30 7262 C 691.068 -4.411 0.44105 0
M  V30 7263 H 688.288 -0.634651 0.21785 0
M  V30 7264 H 690.832 -1.62965 1.23542 0
M  V30 7265 H 688.987 -3.87048 0.165204 0
M  V30 7266 H 689.401 -4.76609 2.18962 0
M  V30 7267 H 690.875 -5.48312 0.637006 0
M  V30 7268 H 691.352 -4.34758 -0.62306 0
M  V30 7269 H 691.958 -4.12532 1.0343 0
M  V30 7270 N 690.273 -0.685099 -1.4193 0
M  V30 7271 C 691.689 -0.355632 -1.55587 0
M  V30 7272 C 691.889 1.13823 -1.66273 0
M  V30 7273 O 690.945 1.92387 -1.63534 0
M  V30 7274 C 692.258 -1.09498 -2.80055 0
M  V30 7275 C 693.806 -1.07831 -2.93839 0
M  V30 7276 C 694.281 -1.79919 -4.21181 0
M  V30 7277 N 695.772 -1.76837 -4.28115 0
M  V30 7278 C 696.507 -2.29463 -5.25485 0
M  V30 7279 N 696.003 -2.90516 -6.28945 0
M  V30 7280 N 697.796 -2.19779 -5.17353 0
M  V30 7281 H 689.947 -1.65412 -1.33239 0
M  V30 7282 H 692.21 -0.697453 -0.642078 0
M  V30 7283 H 691.916 -2.14997 -2.78333 0
M  V30 7284 H 691.79 -0.666813 -3.71259 0
M  V30 7285 H 694.177 -0.0316152 -2.95083 0
M  V30 7286 H 694.258 -1.54545 -2.03837 0
M  V30 7287 H 693.902 -2.84562 -4.20698 0
M  V30 7288 H 693.832 -1.30647 -5.10136 0
M  V30 7289 H 696.323 -1.32315 -3.53979 0
M  V30 7290 H 696.636 -3.28266 -6.99615 0
M  V30 7291 H 694.981 -2.94589 -6.29478 0
M  V30 7292 H 698.172 -1.71763 -4.35448 0
M  V30 7293 H 698.345 -2.61097 -5.9307 0
M  V30 7294 N 691.751 1.51645 -0.429126 0
M  V30 7295 C 692.714 2.26116 0.374726 0
M  V30 7296 C 693.714 1.29242 0.956714 0
M  V30 7297 O 694.904 1.53022 0.832452 0
M  V30 7298 C 692.036 3.04669 1.52937 0
M  V30 7299 H 693.229 2.9861 -0.277818 0
M  V30 7300 H 690.782 1.55236 -0.182097 0
M  V30 7301 H 691.517 2.36571 2.21821 0
M  V30 7302 H 691.302 3.75814 1.11833 0
M  V30 7303 H 692.792 3.61102 2.09751 0
M  V30 7304 N 693.229 0.160201 1.56784 0
M  V30 7305 C 694.64 -0.358417 1.83227 0
M  V30 7306 C 694.991 -1.63831 1.07952 0
M  V30 7307 O 694.116 -2.13885 0.328995 0
M  V30 7308 C 694.711 -0.657058 3.32368 0
M  V30 7309 C 693.27 -1.12015 3.59346 0
M  V30 7310 C 692.417 -0.15015 2.76893 0
M  V30 7311 H 695.368 0.384669 1.53967 0
M  V30 7312 H 695.389 -1.51033 3.49241 0
M  V30 7313 H 694.901 0.274647 3.87127 0
M  V30 7314 H 693.002 -2.06734 3.09987 0
M  V30 7315 H 693.115 -1.037 4.67743 0
M  V30 7316 H 691.479 -0.645361 2.46388 0
M  V30 7317 H 692.262 0.775379 3.34429 0
M  V30 7318 N 694.707 -1.5719 -0.113559 0
M  V30 7319 C 695.953 -1.85412 -0.821597 0
M  V30 7320 C 696.286 -0.746722 -1.7927 0
M  V30 7321 O 695.561 0.246971 -1.92926 0
M  V30 7322 C 695.844 -3.24233 -1.56669 0
M  V30 7323 C 695.697 -4.45578 -0.614823 0
M  V30 7324 C 697.016 -3.60697 -2.52161 0
M  V30 7325 H 694.135 -0.674406 -0.29723 0
M  V30 7326 H 696.777 -1.89807 -0.085694 0
M  V30 7327 H 694.927 -3.20617 -2.19401 0
M  V30 7328 H 696.599 -4.613 0.00407137 0
M  V30 7329 H 694.842 -4.33738 0.0732332 0
M  V30 7330 H 695.513 -5.39395 -1.17292 0
M  V30 7331 H 697.989 -3.65139 -1.99532 0
M  V30 7332 H 696.865 -4.58798 -3.01323 0
M  V30 7333 H 697.126 -2.88403 -3.35076 0
M  V30 7334 N 696.185 0.383891 -1.52853 0
M  V30 7335 C 697.148 1.45197 -1.77343 0
M  V30 7336 C 698.148 1.47362 -0.643522 0
M  V30 7337 O 699.338 1.48443 -0.911613 0
M  V30 7338 C 696.47 2.8445 -1.87885 0
M  V30 7339 H 697.663 1.24764 -2.72716 0
M  V30 7340 H 695.216 0.615939 -1.43652 0
M  V30 7341 H 695.951 3.10222 -0.94515 0
M  V30 7342 H 695.736 2.8428 -2.70051 0
M  V30 7343 H 697.226 3.61832 -2.08488 0
M  V30 7344 N 697.663 1.43903 0.642637 0
M  V30 7345 C 698.912 1.45362 1.39831 0
M  V30 7346 C 699.225 0.0856289 1.95412 0
M  V30 7347 O 700.431 -0.0222856 2.71491 0
M  V30 7348 C 698.887 2.55857 2.53111 0
M  V30 7349 C 698.495 3.98811 2.04092 0
M  V30 7350 C 700.239 2.66524 3.30402 0
M  V30 7351 C 698.146 5.00751 3.14647 0
M  V30 7352 H 697.076 0.540777 0.52543 0
M  V30 7353 H 699.727 1.69929 0.692559 0
M  V30 7354 H 698.109 2.2451 3.26207 0
M  V30 7355 H 699.283 4.3967 1.37938 0
M  V30 7356 H 697.598 3.92284 1.39651 0
M  V30 7357 H 700.195 3.39858 4.12796 0
M  V30 7358 H 700.538 1.71949 3.79129 0
M  V30 7359 H 701.071 2.97224 2.64392 0
M  V30 7360 H 697.81 5.96914 2.70876 0
M  V30 7361 H 697.33 4.64495 3.79479 0
M  V30 7362 H 699.009 5.23933 3.79609 0
M  V30 7363 N 699.141 -0.881989 1.30609 0
M  V30 7364 C 700.104 -1.96957 1.1722 0
M  V30 7365 C 701.104 -1.60472 0.102598 0
M  V30 7366 O 702.294 -1.70628 0.350943 0
M  V30 7367 C 699.426 -3.31463 0.796572 0
M  V30 7368 H 700.619 -2.10262 2.13846 0
M  V30 7369 H 698.172 -1.06877 1.14048 0
M  V30 7370 H 698.907 -3.23859 -0.169053 0
M  V30 7371 H 698.692 -3.59314 1.56959 0
M  V30 7372 H 700.182 -4.11233 0.72645 0
M  V30 7373 N 700.619 -1.13374 -1.09472 0
M  V30 7374 C 701.896 -0.806329 -1.78207 0
M  V30 7375 C 702.276 0.702191 -1.99079 0
M  V30 7376 O 701.624 1.63931 -1.59182 0
M  V30 7377 C 701.834 -1.59271 -3.10538 0
M  V30 7378 C 703.182 -1.78509 -3.85253 0
M  V30 7379 O 704.206 -1.55866 -3.20288 0
M  V30 7380 O 703.065 -2.16287 -5.01879 0
M  V30 7381 H 700.159 -0.29435 -0.772843 0
M  V30 7382 H 702.705 -1.23833 -1.16033 0
M  V30 7383 H 701.477 -2.61792 -2.90828 0
M  V30 7384 H 701.1 -1.15562 -3.80436 0
M  V30 7385 N 702.098 1.27442 -0.927168 0
M  V30 7386 C 703.347 1.93679 -0.563146 0
M  V30 7387 C 703.66 1.73673 0.899837 0
M  V30 7388 O 704.866 2.34247 1.37262 0
M  V30 7389 C 703.322 3.46961 -0.95636 0
M  V30 7390 C 702.93 3.75724 -2.43999 0
M  V30 7391 C 704.674 4.19282 -0.663565 0
M  V30 7392 C 702.581 5.22378 -2.77263 0
M  V30 7393 H 701.511 0.725059 -0.206894 0
M  V30 7394 H 704.162 1.44743 -1.12791 0
M  V30 7395 H 702.544 3.94703 -0.320254 0
M  V30 7396 H 703.718 3.38741 -3.12396 0
M  V30 7397 H 702.033 3.16605 -2.70463 0
M  V30 7398 H 704.63 5.27265 -0.888596 0
M  V30 7399 H 704.973 4.14382 0.399198 0
M  V30 7400 H 705.506 3.7736 -1.25875 0
M  V30 7401 H 702.245 5.32367 -3.82446 0
M  V30 7402 H 701.765 5.6051 -2.13516 0
M  V30 7403 H 703.444 5.9025 -2.64979 0
M  V30 7404 N 703.576 0.692616 1.41565 0
M  V30 7405 C 704.486 0.0258451 2.34586 0
M  V30 7406 C 705.502 -0.769324 1.56069 0
M  V30 7407 O 706.678 -0.707563 1.88562 0
M  V30 7408 C 703.743 -0.901289 3.3478 0
M  V30 7409 C 702.804 -0.0986579 4.29187 0
M  V30 7410 C 702.037 -0.981634 5.24595 0
M  V30 7411 O 702.26 -2.22115 5.25377 0
M  V30 7412 O 701.194 -0.432892 6.00341 0
M  V30 7413 H 705.02 0.792537 2.93177 0
M  V30 7414 H 702.605 0.452935 1.42369 0
M  V30 7415 H 704.487 -1.43302 3.96286 0
M  V30 7416 H 703.162 -1.64752 2.78637 0
M  V30 7417 H 702.069 0.477604 3.71039 0
M  V30 7418 H 703.402 0.608848 4.8842 0
M  V30 7419 N 705.054 -1.51416 0.437162 0
M  V30 7420 C 705.986 -2.255 -0.410171 0
M  V30 7421 C 706.999 -1.29511 -0.986444 0
M  V30 7422 O 708.188 -1.55266 -0.880614 0
M  V30 7423 C 705.288 -2.99511 -1.58575 0
M  V30 7424 C 704.461 -4.22595 -1.12839 0
M  V30 7425 C 703.52 -4.79187 -2.17407 0
M  V30 7426 O 702.546 -5.4103 -1.76849 0
M  V30 7427 N 703.748 -4.63204 -3.49889 0
M  V30 7428 H 706.513 -2.98856 0.224783 0
M  V30 7429 H 704.074 -1.59699 0.266041 0
M  V30 7430 H 706.066 -3.34258 -2.28152 0
M  V30 7431 H 704.636 -2.29167 -2.12606 0
M  V30 7432 H 703.856 -3.93344 -0.259695 0
M  V30 7433 H 705.144 -5.02468 -0.800196 0
M  V30 7434 H 704.542 -4.13945 -3.85573 0
M  V30 7435 H 703.099 -5.02313 -4.15361 0
M  V30 7436 N 706.532 -0.168513 -1.56696 0
M  V30 7437 C 707.948 0.187686 -1.58493 0
M  V30 7438 C 708.148 1.63063 -1.18375 0
M  V30 7439 O 707.204 2.36142 -0.894042 0
M  V30 7440 C 708.517 -0.0905858 -3.00564 0
M  V30 7441 C 710.065 -0.028575 -3.12987 0
M  V30 7442 C 710.54 -0.279799 -4.57145 0
M  V30 7443 N 712.031 -0.227476 -4.62641 0
M  V30 7444 C 712.766 -0.396073 -5.7203 0
M  V30 7445 N 712.262 -0.623572 -6.89988 0
M  V30 7446 N 714.055 -0.332173 -5.61118 0
M  V30 7447 H 706.206 -1.11042 -1.81062 0
M  V30 7448 H 708.469 -0.441235 -0.839056 0
M  V30 7449 H 708.175 -1.09006 -3.34381 0
M  V30 7450 H 708.049 0.619078 -3.72085 0
M  V30 7451 H 710.436 0.961471 -2.78998 0
M  V30 7452 H 710.517 -0.770905 -2.43907 0
M  V30 7453 H 710.161 -1.26704 -4.91842 0
M  V30 7454 H 710.091 0.48311 -5.24379 0
M  V30 7455 H 712.582 -0.0571723 -3.77857 0
M  V30 7456 H 712.895 -0.741745 -7.69232 0
M  V30 7457 H 711.24 -0.660153 -6.91858 0
M  V30 7458 H 714.431 -0.155051 -4.67843 0
M  V30 7459 H 714.604 -0.466994 -6.46315 0
M  V30 7460 N 708.01 1.57248 0.105221 0
M  V30 7461 C 709.421 1.74612 0.660865 0
M  V30 7462 C 709.772 0.789231 1.79626 0
M  V30 7463 O 708.897 -0.0346611 2.16372 0
M  V30 7464 C 709.492 3.16624 1.20559 0
M  V30 7465 C 708.051 3.35447 1.7074 0
M  V30 7466 C 707.198 2.70445 0.612764 0
M  V30 7467 H 710.149 1.5824 -0.12079 0
M  V30 7468 H 710.17 3.18937 2.07508 0
M  V30 7469 H 709.682 3.86245 0.379012 0
M  V30 7470 H 707.783 2.7089 2.5583 0
M  V30 7471 H 707.896 4.43702 1.80736 0
M  V30 7472 H 706.26 2.32061 1.04975 0
M  V30 7473 H 707.043 3.42699 -0.203066 0
M  V30 7474 N 709.488 -0.375779 1.53054 0
M  V30 7475 C 710.765 -1.13453 1.59336 0
M  V30 7476 C 711.145 -2.07379 0.394614 0
M  V30 7477 O 710.493 -2.2004 -0.616 0
M  V30 7478 C 710.703 -1.8826 2.93869 0
M  V30 7479 C 712.051 -2.43155 3.48081 0
M  V30 7480 O 713.075 -1.984 2.95831 0
M  V30 7481 O 711.934 -3.24944 4.39401 0
M  V30 7482 H 709.028 -0.519856 0.643179 0
M  V30 7483 H 711.574 -0.379865 1.65394 0
M  V30 7484 H 710.346 -1.19652 3.72558 0
M  V30 7485 H 709.969 -2.70658 2.91256 0
M  V30 7486 N 710.966 -1.44241 -0.634997 0
M  V30 7487 C 712.191 -1.50516 -1.42687 0
M  V30 7488 C 712.616 -0.129864 -1.87651 0
M  V30 7489 O 711.974 0.880164 -1.58502 0
M  V30 7490 C 712.022 -2.4714 -2.62591 0
M  V30 7491 O 711.126 -1.97025 -3.62291 0
M  V30 7492 H 710.467 -0.50841 -0.427101 0
M  V30 7493 H 712.997 -1.89337 -0.775408 0
M  V30 7494 H 713.007 -2.65048 -3.10183 0
M  V30 7495 H 711.682 -3.47039 -2.29209 0
M  V30 7496 H 710.259 -1.88866 -3.21534 0
M  V30 7497 N 712.444 0.87505 -1.31075 0
M  V30 7498 C 713.377 1.98471 -1.12625 0
M  V30 7499 C 714.355 1.6257 -0.0311379 0
M  V30 7500 O 715.539 1.87574 -0.186594 0
M  V30 7501 C 712.666 3.30963 -0.719799 0
M  V30 7502 C 711.712 3.85849 -1.81722 0
M  V30 7503 S 712.545 4.11926 -3.42165 0
M  V30 7504 C 713.701 5.47423 -3.03445 0
M  V30 7505 H 713.934 2.13817 -2.06566 0
M  V30 7506 H 711.467 1.02463 -1.15502 0
M  V30 7507 H 713.425 4.07541 -0.492035 0
M  V30 7508 H 712.086 3.1346 0.200413 0
M  V30 7509 H 711.279 4.81616 -1.48533 0
M  V30 7510 H 710.881 3.16046 -1.99977 0
M  V30 7511 H 713.173 6.28881 -2.52023 0
M  V30 7512 H 714.116 5.85557 -3.98157 0
M  V30 7513 H 714.524 5.10455 -2.41031 0
M  V30 7514 N 713.922 1.13953 1.08869 0
M  V30 7515 C 715.168 0.906151 1.8143 0
M  V30 7516 C 715.501 -0.566089 1.85766 0
M  V30 7517 O 714.776 -1.41915 1.33006 0
M  V30 7518 C 715.059 1.50183 3.27287 0
M  V30 7519 C 714.912 3.04359 3.31189 0
M  V30 7520 C 716.231 1.17477 4.24131 0
M  V30 7521 H 713.35 0.330624 0.658678 0
M  V30 7522 H 715.992 1.40873 1.27495 0
M  V30 7523 H 714.142 1.07442 3.73348 0
M  V30 7524 H 715.814 3.55896 2.93488 0
M  V30 7525 H 714.057 3.39053 2.70602 0
M  V30 7526 H 714.728 3.41141 4.33966 0
M  V30 7527 H 717.204 1.5442 3.86385 0
M  V30 7528 H 716.08 1.61795 5.24513 0
M  V30 7529 H 716.341 0.0893312 4.4201 0
M  V30 7530 N 715.4 -1.26948 0.933913 0
M  V30 7531 C 716.333 -2.24977 0.382169 0
M  V30 7532 C 717.311 -1.53893 -0.524949 0
M  V30 7533 O 718.495 -1.82699 -0.464048 0
M  V30 7534 C 715.622 -3.35676 -0.451615 0
M  V30 7535 C 714.668 -4.24686 0.392947 0
M  V30 7536 S 715.501 -5.03898 1.81237 0
M  V30 7537 C 716.657 -6.18078 0.986443 0
M  V30 7538 H 716.89 -2.71429 1.21299 0
M  V30 7539 H 714.423 -1.35701 0.736523 0
M  V30 7540 H 716.381 -3.99901 -0.926797 0
M  V30 7541 H 715.042 -2.8785 -1.25703 0
M  V30 7542 H 714.235 -5.03402 -0.245533 0
M  V30 7543 H 713.837 -3.65288 0.802537 0
M  V30 7544 H 716.129 -6.77125 0.225321 0
M  V30 7545 H 717.072 -6.86216 1.74682 0
M  V30 7546 H 717.48 -5.62047 0.525711 0
M  V30 7547 N 716.879 -0.700114 -1.41195 0
M  V30 7548 C 717.809 -0.0521132 -2.33442 0
M  V30 7549 C 718.79 0.76228 -1.52063 0
M  V30 7550 O 719.975 0.714336 -1.80585 0
M  V30 7551 C 717.105 0.881693 -3.35922 0
M  V30 7552 C 716.059 0.174062 -4.27646 0
M  V30 7553 C 715.385 1.22254 -5.20536 0
M  V30 7554 C 716.685 -0.962396 -5.13357 0
M  V30 7555 H 718.379 -0.822574 -2.87879 0
M  V30 7556 H 715.925 -0.397011 -1.38419 0
M  V30 7557 H 717.878 1.34429 -3.99383 0
M  V30 7558 H 716.602 1.68387 -2.79845 0
M  V30 7559 H 715.261 -0.268551 -3.65615 0
M  V30 7560 H 714.909 2.01736 -4.60773 0
M  V30 7561 H 714.609 0.754038 -5.82742 0
M  V30 7562 H 716.133 1.68555 -5.86874 0
M  V30 7563 H 717.547 -0.579875 -5.7036 0
M  V30 7564 H 715.944 -1.35828 -5.84526 0
M  V30 7565 H 717.014 -1.80003 -4.50252 0
M  V30 7566 N 718.357 1.51182 -0.445186 0
M  V30 7567 C 719.768 1.86693 0.0160999 0
M  V30 7568 C 720.119 1.36183 1.4124 0
M  V30 7569 O 719.244 0.715895 2.04215 0
M  V30 7570 C 719.839 3.38781 0.0359918 0
M  V30 7571 C 718.398 3.73799 0.441715 0
M  V30 7572 C 717.545 2.74947 -0.360511 0
M  V30 7573 H 720.496 1.44294 -0.660674 0
M  V30 7574 H 720.517 3.71026 0.843813 0
M  V30 7575 H 720.029 3.75513 -0.980378 0
M  V30 7576 H 718.13 3.42659 1.4634 0
M  V30 7577 H 718.243 4.78829 0.16106 0
M  V30 7578 H 716.607 2.54047 0.182269 0
M  V30 7579 H 717.39 3.14521 -1.3759 0
M  V30 7580 N 719.835 0.176821 1.56605 0
M  V30 7581 C 720.765 -0.746841 2.21234 0
M  V30 7582 C 721.746 -1.23502 1.16967 0
M  V30 7583 O 722.931 -1.28718 1.45414 0
M  V30 7584 C 720.061 -1.97407 2.8574 0
M  V30 7585 C 719.015 -1.62153 3.96094 0
M  V30 7586 C 718.341 -2.92387 4.47676 0
M  V30 7587 C 719.641 -0.845353 5.15413 0
M  V30 7588 H 721.335 -0.208116 2.98676 0
M  V30 7589 H 718.881 -0.0986594 1.43662 0
M  V30 7590 H 720.834 -2.62531 3.2963 0
M  V30 7591 H 719.558 -2.53703 2.05676 0
M  V30 7592 H 718.217 -0.993964 3.52868 0
M  V30 7593 H 717.865 -3.46734 3.64396 0
M  V30 7594 H 717.565 -2.69551 5.22127 0
M  V30 7595 H 719.089 -3.5853 4.94255 0
M  V30 7596 H 720.503 -1.39929 5.55961 0
M  V30 7597 H 718.9 -0.715814 5.95815 0
M  V30 7598 H 719.97 0.157239 4.84645 0
M  V30 7599 N 721.313 -1.57302 -0.09688 0
M  V30 7600 C 722.729 -1.53094 -0.451041 0
M  V30 7601 C 722.929 -0.893265 -1.80618 0
M  V30 7602 O 721.985 -0.485013 -2.47798 0
M  V30 7603 C 723.298 -2.9782 -0.415172 0
M  V30 7604 C 724.846 -3.09026 -0.497155 0
M  V30 7605 C 725.321 -4.55356 -0.491452 0
M  V30 7606 N 726.812 -4.59896 -0.552258 0
M  V30 7607 C 727.547 -5.70563 -0.569654 0
M  V30 7608 N 727.043 -6.90666 -0.543365 0
M  V30 7609 N 728.836 -5.58733 -0.614331 0
M  V30 7610 H 720.987 -1.97131 0.790771 0
M  V30 7611 H 723.25 -0.901211 0.294147 0
M  V30 7612 H 722.956 -3.47933 0.513362 0
M  V30 7613 H 722.83 -3.56416 -1.23481 0
M  V30 7614 H 725.217 -2.58902 -1.41611 0
M  V30 7615 H 725.298 -2.53386 0.35059 0
M  V30 7616 H 724.942 -5.06131 0.423549 0
M  V30 7617 H 724.872 -5.08832 -1.35639 0
M  V30 7618 H 727.363 -3.73456 -0.577842 0
M  V30 7619 H 727.676 -7.70769 -0.559873 0
M  V30 7620 H 726.021 -6.93123 -0.510441 0
M  V30 7621 H 729.212 -4.63809 -0.632387 0
M  V30 7622 H 729.385 -6.44984 -0.62442 0
M  V30 7623 N 722.791 0.367657 -1.53252 0
M  V30 7624 C 724.016 1.13566 -1.73544 0
M  V30 7625 C 724.441 1.82329 -0.462344 0
M  V30 7626 O 723.799 1.71655 0.583472 0
M  V30 7627 C 723.847 2.14322 -2.89997 0
M  V30 7628 O 722.951 3.21359 -2.58461 0
M  V30 7629 H 722.292 0.329614 -0.576412 0
M  V30 7630 H 724.822 0.425417 -2.00128 0
M  V30 7631 H 724.832 2.57958 -3.16104 0
M  V30 7632 H 723.507 1.63664 -3.82344 0
M  V30 7633 H 722.084 2.8271 -2.43165 0
M  V30 7634 N 724.269 1.44576 0.627338 0
M  V30 7635 C 725.68 1.42266 1.20902 0
M  V30 7636 C 726.031 0.139964 1.957 0
M  V30 7637 O 725.156 -0.759489 2.02634 0
M  V30 7638 C 725.751 2.57727 2.19914 0
M  V30 7639 C 724.31 2.58599 2.73502 0
M  V30 7640 C 723.457 2.34145 1.48564 0
M  V30 7641 H 726.408 1.53102 0.417791 0
M  V30 7642 H 726.429 2.30697 3.02588 0
M  V30 7643 H 725.941 3.51068 1.65447 0
M  V30 7644 H 724.042 1.6921 3.31962 0
M  V30 7645 H 724.155 3.57205 3.19282 0
M  V30 7646 H 722.519 1.83313 1.76829 0
M  V30 7647 H 723.302 3.29606 0.959935 0
M  V30 7648 N 725.747 -0.868086 1.31537 0
M  V30 7649 C 726.972 -1.65926 1.24432 0
M  V30 7650 C 727.397 -1.87169 -0.186936 0
M  V30 7651 O 726.755 -1.4148 -1.13371 0
M  V30 7652 C 726.803 -3.00347 1.9956 0
M  V30 7653 O 725.907 -3.90221 1.33422 0
M  V30 7654 H 725.248 -0.506375 0.429512 0
M  V30 7655 H 727.778 -1.0822 1.73637 0
M  V30 7656 H 727.788 -3.50269 2.09226 0
M  V30 7657 H 726.463 -2.84205 3.03645 0
M  V30 7658 H 725.04 -3.48672 1.32219 0
M  V30 7659 N 727.225 -1.14528 -1.08264 0
M  V30 7660 C 728.172 -0.833556 -2.15222 0
M  V30 7661 C 729.142 0.209539 -1.64773 0
M  V30 7662 O 730.327 0.0791388 -1.90636 0
M  V30 7663 C 727.467 -0.318799 -3.43624 0
M  V30 7664 C 726.58 -1.42237 -4.07913 0
M  V30 7665 C 725.715 -0.864704 -5.24115 0
M  V30 7666 C 724.754 -1.94585 -5.80347 0
M  V30 7667 N 723.891 -1.40525 -6.87893 0
M  V30 7668 H 728.731 -1.74965 -2.41228 0
M  V30 7669 H 726.268 -0.873169 -1.18381 0
M  V30 7670 H 728.226 -0.00213088 -4.172 0
M  V30 7671 H 726.856 0.560397 -3.17898 0
M  V30 7672 H 725.908 -1.8554 -3.32083 0
M  V30 7673 H 727.22 -2.23901 -4.45724 0
M  V30 7674 H 726.374 -0.500025 -6.04636 0
M  V30 7675 H 725.113 -0.0171219 -4.87697 0
M  V30 7676 H 724.118 -2.31946 -4.98479 0
M  V30 7677 H 725.343 -2.79704 -6.18823 0
M  V30 7678 H 723.289 -0.579873 -6.53432 0
M  V30 7679 H 723.206 -2.15825 -7.24538 0
M  V30 7680 H 724.474 -1.06852 -7.72142 0
M  V30 7681 N 728.703 1.26451 -0.940633 0
M  V30 7682 C 729.666 2.24651 -0.454378 0
M  V30 7683 C 730.666 1.54826 0.434222 0
M  V30 7684 O 731.856 1.72628 0.233477 0
M  V30 7685 C 728.988 3.39148 0.345192 0
M  V30 7686 H 730.181 2.69182 -1.32217 0
M  V30 7687 H 727.734 1.38596 -0.722547 0
M  V30 7688 H 728.469 3.00018 1.23125 0
M  V30 7689 H 728.254 3.9101 -0.292107 0
M  V30 7690 H 729.744 4.12103 0.675341 0
M  V30 7691 N 730.181 0.707592 1.40822 0
M  V30 7692 C 731.111 0.0644925 2.33411 0
M  V30 7693 C 732.092 -0.754205 1.52466 0
M  V30 7694 O 733.277 -0.704749 1.80961 0
M  V30 7695 C 730.407 -0.863865 3.36385 0
M  V30 7696 C 729.361 -0.15138 4.27732 0
M  V30 7697 C 728.687 -1.19491 5.21177 0
M  V30 7698 C 729.987 0.989607 5.12839 0
M  V30 7699 H 731.681 0.837829 2.87438 0
M  V30 7700 H 729.227 0.404346 1.38207 0
M  V30 7701 H 731.18 -1.32309 4.0009 0
M  V30 7702 H 729.904 -1.66901 2.80734 0
M  V30 7703 H 728.563 0.287937 3.65467 0
M  V30 7704 H 728.211 -1.9929 4.61836 0
M  V30 7705 H 727.911 -0.723123 5.83134 0
M  V30 7706 H 729.435 -1.6544 5.8776 0
M  V30 7707 H 730.849 0.610114 5.70044 0
M  V30 7708 H 729.246 1.38926 5.83798 0
M  V30 7709 H 730.316 1.82389 4.49291 0
M  V30 7710 N 731.66 -1.50943 0.453197 0
M  V30 7711 C 732.59 -2.31005 -0.34044 0
M  V30 7712 C 733.571 -1.37112 -1.00669 0
M  V30 7713 O 734.756 -1.66033 -1.0073 0
M  V30 7714 C 731.886 -3.16358 -1.433 0
M  V30 7715 C 730.84 -4.18658 -0.889363 0
M  V30 7716 C 730.166 -4.92633 -2.07887 0
M  V30 7717 C 731.466 -5.22227 0.0871142 0
M  V30 7718 H 733.16 -2.97601 0.327723 0
M  V30 7719 H 730.706 -1.43119 0.159054 0
M  V30 7720 H 732.659 -3.71155 -1.99555 0
M  V30 7721 H 731.383 -2.47613 -2.12968 0
M  V30 7722 H 730.042 -3.64936 -0.348915 0
M  V30 7723 H 729.69 -4.20376 -2.76211 0
M  V30 7724 H 729.39 -5.61819 -1.72143 0
M  V30 7725 H 730.914 -5.50258 -2.64666 0
M  V30 7726 H 732.328 -5.72001 -0.385656 0
M  V30 7727 H 730.725 -5.99032 0.357926 0
M  V30 7728 H 731.795 -4.74077 1.01879 0
M  V30 7729 N 733.138 -0.185124 -1.56509 0
M  V30 7730 C 734.384 0.456934 -1.97585 0
M  V30 7731 C 734.717 1.61957 -1.07161 0
M  V30 7732 O 733.992 1.9412 -0.121546 0
M  V30 7733 C 734.275 0.926666 -3.47973 0
M  V30 7734 C 734.128 -0.237097 -4.49175 0
M  V30 7735 C 735.447 1.79561 -4.01803 0
M  V30 7736 H 732.566 0.164619 -0.71838 0
M  V30 7737 H 735.208 -0.274039 -1.88013 0
M  V30 7738 H 733.358 1.54954 -3.56261 0
M  V30 7739 H 735.03 -0.87454 -4.52934 0
M  V30 7740 H 733.273 -0.890446 -4.24563 0
M  V30 7741 H 733.944 0.133924 -5.51838 0
M  V30 7742 H 736.42 1.27039 -3.96232 0
M  V30 7743 H 735.296 2.09327 -5.07418 0
M  V30 7744 H 735.557 2.74629 -3.46455 0
M  V30 7745 N 734.616 1.57351 0.0885366 0
M  V30 7746 C 735.862 1.86696 0.791996 0
M  V30 7747 C 736.195 0.775148 1.78059 0
M  V30 7748 O 735.47 -0.216247 1.93294 0
M  V30 7749 C 735.753 3.26684 1.51491 0
M  V30 7750 C 735.606 4.465 0.543858 0
M  V30 7751 C 736.925 3.64664 2.46391 0
M  V30 7752 H 734.044 0.679049 0.286463 0
M  V30 7753 H 736.686 1.89919 0.0554866 0
M  V30 7754 H 734.836 3.24067 2.14273 0
M  V30 7755 H 736.508 4.61235 -0.0774597 0
M  V30 7756 H 734.751 4.33567 -0.142228 0
M  V30 7757 H 735.422 5.41192 1.08696 0
M  V30 7758 H 737.898 3.68267 1.93698 0
M  V30 7759 H 736.774 4.63534 2.93986 0
M  V30 7760 H 737.035 2.93698 3.30445 0
M  V30 7761 N 736.094 -0.359525 1.53444 0
M  V30 7762 C 737.505 -0.936009 1.61542 0
M  V30 7763 C 737.856 -1.90069 0.486633 0
M  V30 7764 O 736.981 -2.12929 -0.386047 0
M  V30 7765 C 737.576 -1.70441 2.92806 0
M  V30 7766 C 736.135 -2.23015 3.03218 0
M  V30 7767 C 735.282 -1.04438 2.56881 0
M  V30 7768 H 738.233 -0.138134 1.58098 0
M  V30 7769 H 738.254 -2.56609 2.80948 0
M  V30 7770 H 737.766 -1.00205 3.74941 0
M  V30 7771 H 735.867 -2.96475 2.25684 0
M  V30 7772 H 735.98 -2.50481 4.08407 0
M  V30 7773 H 734.344 -1.41314 2.11902 0
M  V30 7774 H 735.127 -0.356905 3.4144 0
M  V30 7775 N 737.572 -1.44907 -0.619662 0
M  V30 7776 C 738.502 -1.55488 -1.742 0
M  V30 7777 C 739.483 -0.407143 -1.65156 0
M  V30 7778 O 740.668 -0.628743 -1.8374 0
M  V30 7779 C 737.798 -1.5097 -3.1277 0
M  V30 7780 C 736.752 -2.64337 -3.36615 0
M  V30 7781 C 736.078 -2.44872 -4.75333 0
M  V30 7782 C 737.378 -4.06423 -3.28051 0
M  V30 7783 H 739.072 -2.49432 -1.65602 0
M  V30 7784 H 736.618 -1.20047 -0.795281 0
M  V30 7785 H 738.571 -1.56971 -3.91073 0
M  V30 7786 H 737.295 -0.535486 -3.2218 0
M  V30 7787 H 735.954 -2.57744 -2.60698 0
M  V30 7788 H 735.602 -1.45617 -4.81461 0
M  V30 7789 H 735.302 -3.20888 -4.92244 0
M  V30 7790 H 736.826 -2.52709 -5.55851 0
M  V30 7791 H 738.24 -4.14324 -3.96243 0
M  V30 7792 H 736.637 -4.82733 -3.56495 0
M  V30 7793 H 737.707 -4.29183 -2.25676 0
M  V30 7794 N 739.05 0.861098 -1.31996 0
M  V30 7795 C 739.98 1.98482 -1.22993 0
M  V30 7796 C 740.961 1.6971 -0.115168 0
M  V30 7797 O 742.146 1.91849 -0.30126 0
M  V30 7798 C 739.276 3.34179 -0.945615 0
M  V30 7799 C 738.23 3.77284 -2.02091 0
M  V30 7800 C 737.556 5.1054 -1.58912 0
M  V30 7801 C 738.856 3.93439 -3.43515 0
M  V30 7802 H 740.55 2.06271 -2.17008 0
M  V30 7803 H 738.096 0.991043 -1.04472 0
M  V30 7804 H 740.049 4.12338 -0.869206 0
M  V30 7805 H 738.773 3.26586 0.0301849 0
M  V30 7806 H 737.432 3.01371 -2.08737 0
M  V30 7807 H 737.08 4.99397 -0.600942 0
M  V30 7808 H 736.78 5.40352 -2.30854 0
M  V30 7809 H 738.304 5.91199 -1.52696 0
M  V30 7810 H 739.718 4.6197 -3.39495 0
M  V30 7811 H 738.115 4.34661 -4.13751 0
M  V30 7812 H 739.185 2.96548 -3.8365 0
M  V30 7813 N 740.528 1.15101 1.07655 0
M  V30 7814 C 741.458 0.867864 2.16773 0
M  V30 7815 C 742.439 -0.180283 1.69142 0
M  V30 7816 O 743.624 -0.0353152 1.94168 0
M  V30 7817 C 740.754 0.35299 3.45501 0
M  V30 7818 C 739.708 1.33746 4.06566 0
M  V30 7819 C 739.034 0.681562 5.30338 0
M  V30 7820 C 740.334 2.7024 4.46954 0
M  V30 7821 H 742.028 1.78034 2.40716 0
M  V30 7822 H 739.574 0.857435 1.15689 0
M  V30 7823 H 741.527 0.142465 4.21159 0
M  V30 7824 H 740.251 -0.594945 3.21135 0
M  V30 7825 H 738.91 1.53429 3.32949 0
M  V30 7826 H 738.558 -0.272422 5.02262 0
M  V30 7827 H 738.258 1.33853 5.72151 0
M  V30 7828 H 739.782 0.48074 6.08705 0
M  V30 7829 H 741.196 2.5442 5.13754 0
M  V30 7830 H 739.593 3.32282 4.99709 0
M  V30 7831 H 740.663 3.26537 3.58471 0
M  V30 7832 N 742.006 -1.2595 0.947325 0
M  V30 7833 C 743.283 -1.88676 0.515824 0
M  V30 7834 C 743.663 -1.85547 -1.00675 0
M  V30 7835 O 743.011 -1.31399 -1.8694 0
M  V30 7836 C 743.221 -3.31734 1.08415 0
M  V30 7837 C 744.569 -4.08545 1.15654 0
M  V30 7838 O 745.593 -3.40826 1.03517 0
M  V30 7839 O 744.452 -5.29663 1.34608 0
M  V30 7840 H 741.546 -0.809537 0.169055 0
M  V30 7841 H 744.092 -1.34075 1.04029 0
M  V30 7842 H 742.864 -3.28404 2.1276 0
M  V30 7843 H 742.487 -3.93882 0.542499 0
M  V30 7844 N 743.484 -0.715051 -1.40445 0
M  V30 7845 C 744.732 -0.253826 -2.005 0
M  V30 7846 C 745.053 1.15681 -1.5698 0
M  V30 7847 O 744.323 1.78414 -0.809027 0
M  V30 7848 H 742.903 -0.0908537 -0.741454 0
M  V30 7849 H 745.565 -0.920561 -1.7179 0
M  V30 7850 H 744.661 -0.286499 -3.10782 0
M  V30 7851 N 744.962 1.50701 -0.461195 0
M  V30 7852 C 746.239 1.94958 0.158296 0
M  V30 7853 C 746.619 1.40111 1.57899 0
M  V30 7854 O 745.967 0.597976 2.20537 0
M  V30 7855 C 746.177 3.48821 0.11172 0
M  V30 7856 C 747.525 4.23499 0.30552 0
M  V30 7857 O 748.549 3.557 0.188758 0
M  V30 7858 O 747.408 5.43823 0.540244 0
M  V30 7859 H 744.502 0.818674 0.117054 0
M  V30 7860 H 747.048 1.61508 -0.520888 0
M  V30 7861 H 745.82 3.81263 -0.880577 0
M  V30 7862 H 745.443 3.88781 0.832791 0
M  V30 7863 N 746.441 0.193421 1.56409 0
M  V30 7864 C 747.69 -0.445995 1.96707 0
M  V30 7865 C 748.003 -1.62876 1.08309 0
M  V30 7866 O 749.209 -2.33586 1.38383 0
M  V30 7867 C 747.665 -0.844863 3.49843 0
M  V30 7868 C 747.273 0.31352 4.46902 0
M  V30 7869 C 749.017 -1.45146 3.98915 0
M  V30 7870 C 746.924 -0.106214 5.91305 0
M  V30 7871 H 745.854 -0.170398 0.734493 0
M  V30 7872 H 748.505 0.285172 1.81271 0
M  V30 7873 H 746.887 -1.63265 3.60778 0
M  V30 7874 H 748.061 1.09103 4.47698 0
M  V30 7875 H 746.376 0.8315 4.08014 0
M  V30 7876 H 748.973 -1.77792 5.04276 0
M  V30 7877 H 749.316 -2.35734 3.43126 0
M  V30 7878 H 749.849 -0.727675 3.91088 0
M  V30 7879 H 746.588 0.765442 6.51016 0
M  V30 7880 H 746.108 -0.848623 5.93766 0
M  V30 7881 H 747.787 -0.542588 6.44721 0
M  V30 7882 N 747.919 -1.57396 -0.0801906 0
M  V30 7883 C 749.168 -1.8602 -0.779702 0
M  V30 7884 C 749.481 -0.784864 -1.79163 0
M  V30 7885 O 750.687 -0.958691 -2.54011 0
M  V30 7886 C 749.143 -3.29942 -1.43758 0
M  V30 7887 C 748.751 -4.45584 -0.464654 0
M  V30 7888 C 750.495 -3.67775 -2.11995 0
M  V30 7889 C 748.402 -5.80544 -1.12797 0
M  V30 7890 H 747.332 -0.69392 -0.294943 0
M  V30 7891 H 749.983 -1.83471 -0.0328527 0
M  V30 7892 H 748.365 -3.27078 -2.2324 0
M  V30 7893 H 749.539 -4.59824 0.299749 0
M  V30 7894 H 747.854 -4.16247 0.112813 0
M  V30 7895 H 750.451 -4.65896 -2.62383 0
M  V30 7896 H 750.794 -2.9715 -2.91561 0
M  V30 7897 H 751.327 -3.72593 -1.39354 0
M  V30 7898 H 748.066 -6.54439 -0.372807 0
M  V30 7899 H 747.586 -5.70119 -1.86344 0
M  V30 7900 H 749.265 -6.25602 -1.6502 0
M  V30 7901 N 749.397 0.351382 -1.53633 0
M  V30 7902 C 750.645 1.09034 -1.70165 0
M  V30 7903 C 750.966 1.89413 -0.463422 0
M  V30 7904 O 750.236 1.888 0.522624 0
M  V30 7905 H 748.816 0.405522 -0.627344 0
M  V30 7906 H 751.478 0.394554 -1.90865 0
M  V30 7907 H 750.574 1.77215 -2.56907 0
M  V30 7908 N 750.875 1.45233 0.611969 0
M  V30 7909 C 752.1 1.52767 1.40274 0
M  V30 7910 C 752.525 0.159701 1.87421 0
M  V30 7911 O 751.883 -0.854837 1.59882 0
M  V30 7912 C 751.931 2.51286 2.58626 0
M  V30 7913 O 751.035 2.02764 3.59111 0
M  V30 7914 H 750.376 0.515141 0.418958 0
M  V30 7915 H 752.906 1.90547 0.745188 0
M  V30 7916 H 752.916 2.69949 3.05927 0
M  V30 7917 H 751.591 3.50641 2.23659 0
M  V30 7918 H 750.168 1.93957 3.18489 0
M  V30 7919 N 752.353 -0.854086 1.3245 0
M  V30 7920 C 753.602 -1.60318 1.22397 0
M  V30 7921 C 753.915 -1.9444 -0.212664 0
M  V30 7922 O 755.121 -2.67991 -0.435066 0
M  V30 7923 C 753.577 -2.8909 2.1437 0
M  V30 7924 C 753.185 -2.62391 3.63119 0
M  V30 7925 C 754.929 -3.67104 2.13155 0
M  V30 7926 C 752.836 -3.87167 4.47052 0
M  V30 7927 H 751.766 -0.601586 0.454544 0
M  V30 7928 H 754.417 -0.943023 1.57415 0
M  V30 7929 H 752.799 -3.56567 1.72268 0
M  V30 7930 H 753.973 -2.03222 4.13567 0
M  V30 7931 H 752.288 -1.97706 3.66471 0
M  V30 7932 H 754.885 -4.59696 2.731 0
M  V30 7933 H 755.228 -4.00876 1.12268 0
M  V30 7934 H 755.761 -3.06533 2.5354 0
M  V30 7935 H 752.5 -3.58536 5.48755 0
M  V30 7936 H 752.02 -4.45729 4.01355 0
M  V30 7937 H 753.699 -4.549 4.60081 0
M  V30 7938 N 753.831 -1.1567 -1.07043 0
M  V30 7939 C 755.056 -0.957946 -1.83952 0
M  V30 7940 C 755.481 0.488807 -1.81638 0
M  V30 7941 O 754.839 1.34869 -1.21162 0
M  V30 7942 C 754.887 -1.48064 -3.288 0
M  V30 7943 O 753.991 -0.681921 -4.06723 0
M  V30 7944 H 753.332 -0.341453 -0.569479 0
M  V30 7945 H 755.862 -1.53728 -1.35015 0
M  V30 7946 H 755.872 -1.49484 -3.7963 0
M  V30 7947 H 754.547 -2.53388 -3.29799 0
M  V30 7948 H 753.124 -0.737612 -3.65532 0
M  V30 7949 N 755.309 1.25446 -0.953992 0
M  V30 7950 C 756.239 2.28264 -0.491717 0
M  V30 7951 C 757.22 1.63717 0.461617 0
M  V30 7952 O 758.405 1.90821 0.36071 0
M  V30 7953 C 755.535 3.46525 0.231915 0
M  V30 7954 C 754.489 4.23247 -0.636098 0
M  V30 7955 C 753.815 5.34254 0.218238 0
M  V30 7956 C 755.115 4.85971 -1.91389 0
M  V30 7957 H 756.809 2.67183 -1.35106 0
M  V30 7958 H 754.355 1.2844 -0.651095 0
M  V30 7959 H 756.308 4.17576 0.566439 0
M  V30 7960 H 755.032 3.06594 1.12551 0
M  V30 7961 H 753.691 3.53978 -0.953696 0
M  V30 7962 H 753.339 4.90564 1.11156 0
M  V30 7963 H 753.039 5.86501 -0.359232 0
M  V30 7964 H 754.563 6.08138 0.547743 0
M  V30 7965 H 755.977 5.49168 -1.64581 0
M  V30 7966 H 754.374 5.48391 -2.43696 0
M  V30 7967 H 755.444 4.08192 -2.61738 0
M  V30 7968 N 756.787 0.722489 1.40064 0
M  V30 7969 C 758.203 0.396758 1.5459 0
M  V30 7970 C 758.403 -1.09375 1.69232 0
M  V30 7971 O 757.459 -1.87984 1.68578 0
M  V30 7972 C 758.772 1.16885 2.77053 0
M  V30 7973 C 760.32 1.15583 2.90877 0
M  V30 7974 C 760.795 1.91023 4.16262 0
M  V30 7975 N 762.286 1.88126 4.23276 0
M  V30 7976 C 763.021 2.43315 5.19216 0
M  V30 7977 N 762.517 3.07089 6.21022 0
M  V30 7978 N 764.31 2.33418 5.11344 0
M  V30 7979 H 756.461 1.68887 1.28806 0
M  V30 7980 H 758.724 0.714231 0.62336 0
M  V30 7981 H 758.43 2.22301 2.72534 0
M  V30 7982 H 758.304 0.765011 3.69361 0
M  V30 7983 H 760.691 0.10984 2.94896 0
M  V30 7984 H 760.772 1.59895 1.99668 0
M  V30 7985 H 760.416 2.95616 4.13006 0
M  V30 7986 H 760.346 1.44126 5.06493 0
M  V30 7987 H 762.837 1.41654 3.50346 0
M  V30 7988 H 763.15 3.467 6.90666 0
M  V30 7989 H 761.495 3.11175 6.21446 0
M  V30 7990 H 764.686 1.83248 4.30741 0
M  V30 7991 H 764.859 2.7673 5.85939 0
M  V30 7992 N 758.265 -1.50454 0.469181 0
M  V30 7993 C 759.197 -2.26319 -0.362247 0
M  V30 7994 C 760.21 -1.31574 -0.958751 0
M  V30 7995 O 761.399 -1.57099 -0.847482 0
M  V30 7996 C 758.499 -3.02808 -1.52187 0
M  V30 7997 C 757.672 -4.24893 -1.03849 0
M  V30 7998 C 756.731 -4.83691 -2.07194 0
M  V30 7999 O 755.757 -5.44659 -1.65333 0
M  V30 8000 N 756.959 -4.70522 -3.39985 0
M  V30 8001 H 759.724 -2.98312 0.288124 0
M  V30 8002 H 757.285 -1.59099 0.299856 0
M  V30 8003 H 759.277 -3.39023 -2.21011 0
M  V30 8004 H 757.847 -2.33625 -2.07697 0
M  V30 8005 H 757.067 -3.93806 -0.176203 0
M  V30 8006 H 758.355 -5.04053 -0.693435 0
M  V30 8007 H 757.753 -4.2203 -3.76706 0
M  V30 8008 H 756.31 -5.11011 -4.04612 0
M  V30 8009 N 759.743 -0.201713 -1.56304 0
M  V30 8010 C 760.691 0.733133 -2.20744 0
M  V30 8011 C 761.685 1.2148 -1.18064 0
M  V30 8012 O 762.891 1.17692 -1.36193 0
M  V30 8013 H 759.266 0.254789 -0.707521 0
M  V30 8014 H 761.237 0.165996 -2.97938 0
M  V30 8015 C 759.986 1.93925 -2.88597 0
M  V30 8016 H 759.309 1.5777 -3.67353 0
M  V30 8017 H 760.749 2.57158 -3.37114 0
M  V30 8018 C 759.208 2.78219 -1.89989 0
M  V30 8019 O 759.738 3.76353 -1.40432 0
M  V30 8020 N 757.944 2.43847 -1.58072 0
M  V30 8021 H 757.491 1.64103 -1.98565 0
M  V30 8022 H 757.449 3.0053 -0.923524 0
M  V30 8023 N 761.222 1.57436 0.0718424 0
M  V30 8024 C 762.172 2.00132 1.09229 0
M  V30 8025 C 763.156 0.883379 1.34481 0
M  V30 8026 O 764.348 1.14728 1.34783 0
M  V30 8027 C 761.477 2.44876 2.40605 0
M  V30 8028 C 760.563 3.63405 2.18627 0
M  V30 8029 N 760.954 4.77583 1.66579 0
M  V30 8030 C 759.252 3.69953 2.491 0
M  V30 8031 C 759.953 5.5943 1.59415 0
M  V30 8032 N 758.929 5.03275 2.05464 0
M  V30 8033 H 762.731 2.85849 0.683185 0
M  V30 8034 H 760.245 1.59987 0.278914 0
M  V30 8035 H 762.242 2.73703 3.14471 0
M  V30 8036 H 760.902 1.60546 2.82232 0
M  V30 8037 H 761.913 4.99875 1.35443 0
M  V30 8038 H 758.59 2.96336 2.94094 0
M  V30 8039 H 759.98 6.61093 1.20026 0
M  V30 8040 N 762.7 -0.34323 1.53817 0
M  V30 8041 C 763.632 -1.44216 1.78141 0
M  V30 8042 C 764.645 -1.48701 0.662721 0
M  V30 8043 O 765.834 -1.51778 0.939458 0
M  V30 8044 C 762.934 -2.82872 1.86646 0
M  V30 8045 C 762.107 -3.01824 3.16577 0
M  V30 8046 C 761.166 -4.20723 3.16036 0
M  V30 8047 O 760.192 -4.14824 3.89756 0
M  V30 8048 N 761.394 -5.29276 2.38427 0
M  V30 8049 H 764.159 -1.23721 2.72971 0
M  V30 8050 H 761.72 -0.53311 1.52871 0
M  V30 8051 H 763.712 -3.60588 1.83735 0
M  V30 8052 H 762.282 -2.96509 0.990014 0
M  V30 8053 H 761.502 -2.11575 3.3261 0
M  V30 8054 H 762.79 -3.11369 4.02402 0
M  V30 8055 H 762.188 -5.36938 1.78085 0
M  V30 8056 H 760.745 -6.05484 2.41313 0
M  V30 8057 N 764.178 -1.45556 -0.604258 0
M  V30 8058 C 765.424 -1.49968 -1.36519 0
M  V30 8059 C 765.757 -0.142236 -1.93678 0
M  V30 8060 O 765.032 0.843717 -1.75247 0
M  V30 8061 C 765.315 -2.58146 -2.51063 0
M  V30 8062 C 765.168 -4.03346 -1.99078 0
M  V30 8063 C 766.487 -2.62581 -3.53184 0
M  V30 8064 H 763.606 -0.545993 -0.495036 0
M  V30 8065 H 766.248 -1.77382 -0.680845 0
M  V30 8066 H 764.398 -2.34901 -3.09441 0
M  V30 8067 H 766.07 -4.37811 -1.45323 0
M  V30 8068 H 764.313 -4.13845 -1.30055 0
M  V30 8069 H 764.984 -4.74731 -2.81664 0
M  V30 8070 H 767.46 -2.83419 -3.04652 0
M  V30 8071 H 766.336 -3.40131 -4.30816 0
M  V30 8072 H 766.597 -1.67798 -4.09019 0
M  V30 8073 N 765.656 0.84705 -1.32902 0
M  V30 8074 C 767.072 1.13645 -1.12058 0
M  V30 8075 C 767.272 2.01281 0.093937 0
M  V30 8076 O 766.328 2.4026 0.776608 0
M  V30 8077 C 767.641 1.80644 -2.40392 0
M  V30 8078 C 769.189 1.93246 -2.46221 0
M  V30 8079 C 769.664 2.6366 -3.74496 0
M  V30 8080 N 771.155 2.71179 -3.75521 0
M  V30 8081 C 771.89 3.26332 -4.71482 0
M  V30 8082 N 771.386 3.82236 -5.77813 0
M  V30 8083 N 773.179 3.24507 -4.58968 0
M  V30 8084 H 765.33 0.263612 -2.10758 0
M  V30 8085 H 767.593 0.17944 -0.930863 0
M  V30 8086 H 767.299 1.23708 -3.29225 0
M  V30 8087 H 767.173 2.80736 -2.51926 0
M  V30 8088 H 769.56 2.49338 -1.57843 0
M  V30 8089 H 769.641 0.921272 -2.38634 0
M  V30 8090 H 769.285 2.08229 -4.63253 0
M  V30 8091 H 769.215 3.65234 -3.79357 0
M  V30 8092 H 771.706 2.31527 -2.9867 0
M  V30 8093 H 772.019 4.22499 -6.47082 0
M  V30 8094 H 770.364 3.80546 -5.81558 0
M  V30 8095 H 773.555 2.80085 -3.7506 0
M  V30 8096 H 773.728 3.67188 -5.33926 0
M  V30 8097 N 767.134 1.16236 1.06428 0
M  V30 8098 C 768.084 0.835994 2.12121 0
M  V30 8099 C 769.068 -0.183955 1.59845 0
M  V30 8100 O 770.26 0.0166741 1.76992 0
M  V30 8101 C 767.389 0.337333 3.41639 0
M  V30 8102 C 766.475 1.38798 4.00744 0
M  V30 8103 N 766.866 2.59799 4.3398 0
M  V30 8104 C 765.164 1.24292 4.28331 0
M  V30 8105 C 765.865 3.27213 4.80943 0
M  V30 8106 N 764.841 2.54594 4.80294 0
M  V30 8107 H 768.643 1.75615 2.35662 0
M  V30 8108 H 766.157 1.04921 1.23957 0
M  V30 8109 H 768.154 0.0851274 4.16813 0
M  V30 8110 H 766.814 -0.57677 3.19536 0
M  V30 8111 H 767.825 2.96867 4.24371 0
M  V30 8112 H 764.502 0.389464 4.15679 0
M  V30 8113 H 765.892 4.30492 5.15874 0
M  V30 8114 N 768.612 -1.24939 0.960631 0
M  V30 8115 C 769.858 -1.93425 0.629155 0
M  V30 8116 C 770.213 -1.73784 -0.825635 0
M  V30 8117 O 769.506 -1.07595 -1.58536 0
M  V30 8118 C 769.7 -3.45066 0.930809 0
M  V30 8119 C 769.529 -3.79455 2.41337 0
M  V30 8120 C 768.299 -4.01195 3.07197 0
M  V30 8121 C 770.497 -3.86492 3.39306 0
M  V30 8122 N 768.479 -4.22626 4.45265 0
M  V30 8123 C 769.85 -4.12682 4.62702 0
M  V30 8124 C 771.905 -3.69198 3.34061 0
M  V30 8125 C 770.608 -4.23376 5.81502 0
M  V30 8126 C 772.634 -3.81135 4.52206 0
M  V30 8127 C 771.996 -4.07743 5.74391 0
M  V30 8128 H 768.095 -0.729791 0.280943 0
M  V30 8129 H 770.679 -1.50597 1.23404 0
M  V30 8130 H 768.85 -3.86776 0.354801 0
M  V30 8131 H 770.582 -4.00826 0.558627 0
M  V30 8132 H 767.337 -3.97319 2.5775 0
M  V30 8133 H 767.761 -4.37335 5.16785 0
M  V30 8134 H 772.403 -3.47639 2.40638 0
M  V30 8135 H 770.121 -4.4375 6.75361 0
M  V30 8136 H 773.707 -3.69133 4.49702 0
M  V30 8137 H 772.587 -4.16768 6.64284 0
M  V30 8138 N 770.09 -0.729906 -1.39679 0
M  V30 8139 C 771.022 -0.0470588 -2.29152 0
M  V30 8140 C 772.035 0.708808 -1.4656 0
M  V30 8141 O 773.224 0.553815 -1.69691 0
M  V30 8142 C 770.324 0.957612 -3.25089 0
M  V30 8143 C 769.497 0.264321 -4.36601 0
M  V30 8144 C 768.556 1.17638 -5.12882 0
M  V30 8145 O 767.582 0.655777 -5.6541 0
M  V30 8146 N 768.784 2.50649 -5.23598 0
M  V30 8147 H 771.549 -0.815364 -2.88395 0
M  V30 8148 H 769.11 -0.578707 -1.51204 0
M  V30 8149 H 771.102 1.57026 -3.72995 0
M  V30 8150 H 769.672 1.62716 -2.66912 0
M  V30 8151 H 768.892 -0.528732 -3.90638 0
M  V30 8152 H 770.18 -0.216344 -5.0834 0
M  V30 8153 H 769.578 2.95427 -4.82431 0
M  V30 8154 H 768.135 3.07022 -5.74961 0
M  V30 8155 N 771.568 1.50203 -0.477153 0
M  V30 8156 C 772.979 1.86685 -0.0235041 0
M  V30 8157 C 773.33 1.39148 1.38319 0
M  V30 8158 O 772.455 0.759051 2.02651 0
M  V30 8159 C 773.05 3.38781 -0.0358767 0
M  V30 8160 C 771.609 3.74652 0.362327 0
M  V30 8161 C 770.756 2.7412 -0.41875 0
M  V30 8162 H 773.707 1.4286 -0.691133 0
M  V30 8163 H 773.728 3.72732 0.764924 0
M  V30 8164 H 773.24 3.73349 -1.05981 0
M  V30 8165 H 771.341 3.45686 1.39039 0
M  V30 8166 H 771.454 4.79063 0.059457 0
M  V30 8167 H 769.818 2.54376 0.128341 0
M  V30 8168 H 770.601 3.11532 -1.44231 0
M  V30 8169 N 773.046 0.209999 1.56195 0
M  V30 8170 C 774.271 -0.433064 2.02828 0
M  V30 8171 C 774.696 -1.5337 1.08901 0
M  V30 8172 O 774.054 -1.81144 0.0751132 0
M  V30 8173 C 774.102 -0.952635 3.47789 0
M  V30 8174 O 773.206 -2.0647 3.56993 0
M  V30 8175 H 772.547 -0.0994594 0.656509 0
M  V30 8176 H 775.077 0.32525 2.01998 0
M  V30 8177 H 775.087 -1.26542 3.8788 0
M  V30 8178 H 773.762 -0.147007 4.1564 0
M  V30 8179 H 772.339 -1.75942 3.28784 0
M  V30 8180 N 774.524 -1.57472 -0.0634922 0
M  V30 8181 C 775.434 -2.07621 -1.09227 0
M  V30 8182 C 776.45 -1.00746 -1.41867 0
M  V30 8183 O 777.626 -1.32269 -1.51878 0
M  V30 8184 C 774.691 -2.51707 -2.38421 0
M  V30 8185 C 773.752 -3.72917 -2.12676 0
M  V30 8186 C 772.985 -4.14891 -3.3571 0
M  V30 8187 O 773.208 -3.56663 -4.45137 0
M  V30 8188 O 772.142 -5.07616 -3.23434 0
M  V30 8189 H 775.968 -2.95612 -0.696205 0
M  V30 8190 H 773.553 -1.46787 -0.27819 0
M  V30 8191 H 775.435 -2.80547 -3.14438 0
M  V30 8192 H 774.11 -1.66842 -2.77391 0
M  V30 8193 H 773.017 -3.49148 -1.34337 0
M  V30 8194 H 774.35 -4.5866 -1.78583 0
M  V30 8195 N 776.003 0.335068 -1.53997 0
M  V30 8196 C 777.252 1.07182 -1.70865 0
M  V30 8197 C 777.565 1.89541 -0.483078 0
M  V30 8198 O 778.771 2.66219 -0.532879 0
M  V30 8199 C 777.227 1.95497 -3.02174 0
M  V30 8200 C 776.835 1.18304 -4.32097 0
M  V30 8201 C 778.579 2.68978 -3.28407 0
M  V30 8202 C 776.486 2.05699 -5.54474 0
M  V30 8203 H 775.416 0.403857 -0.636722 0
M  V30 8204 H 778.067 0.33076 -1.80494 0
M  V30 8205 H 776.449 2.73456 -2.86423 0
M  V30 8206 H 777.623 0.451969 -4.58578 0
M  V30 8207 H 775.938 0.565556 -4.12541 0
M  V30 8208 H 778.535 3.34651 -4.17029 0
M  V30 8209 H 778.878 3.36 -2.45784 0
M  V30 8210 H 779.411 1.98087 -3.44973 0
M  V30 8211 H 776.15 1.43204 -6.39666 0
M  V30 8212 H 775.67 2.76572 -5.32229 0
M  V30 8213 H 777.349 2.64554 -5.90441 0
M  V30 8214 N 777.481 1.45874 0.596531 0
M  V30 8215 C 778.758 1.40942 1.35627 0
M  V30 8216 C 779.138 0.0857066 2.10926 0
M  V30 8217 O 778.486 -0.932544 2.08605 0
M  V30 8218 C 778.696 2.63027 2.29386 0
M  V30 8219 C 780.044 3.08588 2.91649 0
M  V30 8220 O 781.068 2.63478 2.39704 0
M  V30 8221 O 779.927 3.86902 3.85965 0
M  V30 8222 H 777.021 0.559838 0.608696 0
M  V30 8223 H 779.567 1.5802 0.618698 0
M  V30 8224 H 778.339 3.5094 1.7308 0
M  V30 8225 H 777.962 2.48338 3.10506 0
M  V30 8226 N 778.959 -0.83999 1.33349 0
M  V30 8227 C 779.892 -1.95415 1.17848 0
M  V30 8228 C 780.87 -1.6243 0.0742296 0
M  V30 8229 O 782.054 -1.87014 0.23626 0
M  V30 8230 C 779.181 -3.28938 0.807295 0
M  V30 8231 C 778.227 -3.80895 1.91888 0
M  V30 8232 S 779.06 -4.02709 3.52967 0
M  V30 8233 C 780.216 -5.39185 3.17853 0
M  V30 8234 H 780.449 -2.08265 2.12162 0
M  V30 8235 H 777.982 -0.993643 1.18178 0
M  V30 8236 H 779.94 -4.06093 0.599914 0
M  V30 8237 H 778.601 -3.13881 -0.117234 0
M  V30 8238 H 777.794 -4.77508 1.6125 0
M  V30 8239 H 777.396 -3.10633 2.08286 0
M  V30 8240 H 779.688 -6.21978 2.68608 0
M  V30 8241 H 780.631 -5.74795 4.13542 0
M  V30 8242 H 781.039 -5.03885 2.5448 0
M  V30 8243 N 780.437 -1.16799 -1.0581 0
M  V30 8244 C 781.683 -0.953935 -1.78963 0
M  V30 8245 C 782.016 0.516638 -1.87202 0
M  V30 8246 O 781.291 1.38338 -1.36721 0
M  V30 8247 C 781.574 -1.58808 -3.23191 0
M  V30 8248 C 781.427 -3.13032 -3.23003 0
M  V30 8249 C 782.746 -1.2868 -4.20867 0
M  V30 8250 H 779.865 -0.347972 -0.64968 0
M  V30 8251 H 782.507 -1.44204 -1.23715 0
M  V30 8252 H 780.657 -1.17303 -3.70368 0
M  V30 8253 H 782.329 -3.63553 -2.83949 0
M  V30 8254 H 780.572 -3.46108 -2.61518 0
M  V30 8255 H 781.243 -3.52527 -4.24769 0
M  V30 8256 H 783.719 -1.6461 -3.82155 0
M  V30 8257 H 782.595 -1.75645 -5.20038 0
M  V30 8258 H 782.856 -0.206491 -4.41618 0
M  V30 8259 N 781.915 1.24427 -0.967243 0
M  V30 8260 C 782.845 2.2773 -0.515899 0
M  V30 8261 C 783.826 1.64197 0.444227 0
M  V30 8262 O 785.011 1.91193 0.340451 0
M  V30 8263 C 782.141 3.46751 0.195149 0
M  V30 8264 C 781.095 4.22548 -0.680953 0
M  V30 8265 C 780.421 5.34456 0.161561 0
M  V30 8266 C 781.721 4.83914 -1.96532 0
M  V30 8267 H 783.415 2.65735 -1.37933 0
M  V30 8268 H 780.961 1.27742 -0.664681 0
M  V30 8269 H 782.914 4.18153 0.522117 0
M  V30 8270 H 781.638 3.07771 1.09292 0
M  V30 8271 H 780.297 3.52946 -0.991186 0
M  V30 8272 H 779.945 4.91716 1.05947 0
M  V30 8273 H 779.645 5.86087 -0.421418 0
M  V30 8274 H 781.169 6.08685 0.483211 0
M  V30 8275 H 782.583 5.47392 -1.70396 0
M  V30 8276 H 780.98 5.45775 -2.49499 0
M  V30 8277 H 782.05 4.05393 -2.66053 0
M  V30 8278 N 783.393 0.737304 1.3929 0
M  V30 8279 C 784.323 0.113988 2.33222 0
M  V30 8280 C 785.304 -0.721695 1.54031 0
M  V30 8281 O 786.489 -0.666206 1.82415 0
M  V30 8282 C 783.619 -0.792319 3.38141 0
M  V30 8283 C 782.573 -0.0606178 4.27957 0
M  V30 8284 C 781.899 -1.08409 5.23595 0
M  V30 8285 C 783.199 1.09817 5.10625 0
M  V30 8286 H 784.893 0.898611 2.85596 0
M  V30 8287 H 782.439 0.433571 1.37318 0
M  V30 8288 H 784.392 -1.23793 4.02807 0
M  V30 8289 H 783.116 -1.60908 2.84211 0
M  V30 8290 H 781.775 0.365393 3.64775 0
M  V30 8291 H 781.423 -1.89449 4.6596 0
M  V30 8292 H 781.123 -0.599269 5.84536 0
M  V30 8293 H 782.647 -1.52936 5.91137 0
M  V30 8294 H 784.061 0.730892 5.68622 0
M  V30 8295 H 782.458 1.51278 5.80719 0
M  V30 8296 H 783.528 1.91878 4.45321 0
M  V30 8297 N 784.871 -1.49948 0.485112 0
M  V30 8298 C 786.117 -2.02695 -0.0651022 0
M  V30 8299 C 786.45 -1.36534 -1.38102 0
M  V30 8300 O 785.725 -0.495677 -1.88078 0
M  V30 8301 C 786.008 -3.59337 -0.234285 0
M  V30 8302 C 785.861 -4.3605 1.10364 0
M  V30 8303 C 787.18 -4.28996 -0.982351 0
M  V30 8304 H 784.299 -0.736666 -0.0221856 0
M  V30 8305 H 786.941 -1.7913 0.633433 0
M  V30 8306 H 785.091 -3.79546 -0.829262 0
M  V30 8307 H 786.763 -4.27377 1.73627 0
M  V30 8308 H 785.006 -3.99236 1.69686 0
M  V30 8309 H 785.677 -5.43959 0.938743 0
M  V30 8310 H 788.153 -4.13346 -0.477904 0
M  V30 8311 H 787.029 -5.38379 -1.06955 0
M  V30 8312 H 787.29 -3.93135 -2.02231 0
M  V30 8313 N 786.349 -0.21828 -1.56081 0
M  V30 8314 C 787.312 0.679633 -2.18892 0
M  V30 8315 C 788.312 1.12405 -1.14986 0
M  V30 8316 O 789.502 1.03339 -1.40238 0
M  V30 8317 C 786.634 1.93063 -2.80962 0
M  V30 8318 H 787.827 0.132066 -2.99609 0
M  V30 8319 H 785.38 0.0313374 -1.56269 0
M  V30 8320 H 786.115 2.52015 -2.04106 0
M  V30 8321 H 785.9 1.62046 -3.57048 0
M  V30 8322 H 787.39 2.57043 -3.29118 0
M  V30 8323 N 787.827 1.57504 0.0551401 0
M  V30 8324 C 788.79 2.03826 1.04821 0
M  V30 8325 C 789.79 0.937968 1.30609 0
M  V30 8326 O 790.98 1.20237 1.2605 0
M  V30 8327 C 788.112 2.43309 2.38775 0
M  V30 8328 H 789.305 2.92802 0.6486 0
M  V30 8329 H 786.858 1.53368 0.301315 0
M  V30 8330 H 787.593 1.5741 2.83536 0
M  V30 8331 H 787.378 3.23615 2.21395 0
M  V30 8332 H 788.868 2.79666 3.10124 0
M  V30 8333 N 789.305 -0.326896 1.54172 0
M  V30 8334 C 790.237 -1.42319 1.79661 0
M  V30 8335 C 791.25 -1.47989 0.678456 0
M  V30 8336 O 792.439 -1.50773 0.955503 0
M  V30 8337 C 789.539 -2.80876 1.89636 0
M  V30 8338 C 788.712 -2.98449 3.19761 0
M  V30 8339 C 787.771 -4.17347 3.2048 0
M  V30 8340 O 786.797 -4.10667 3.94134 0
M  V30 8341 N 787.999 -5.26717 2.44027 0
M  V30 8342 H 790.764 -1.20819 2.74268 0
M  V30 8343 H 788.325 -0.516866 1.53428 0
M  V30 8344 H 790.317 -3.58619 1.87549 0
M  V30 8345 H 788.887 -2.95442 1.02141 0
M  V30 8346 H 788.107 -2.08035 3.34836 0
M  V30 8347 H 789.395 -3.07083 4.05681 0
M  V30 8348 H 788.793 -5.35019 1.8377 0
M  V30 8349 H 787.35 -6.02891 2.47721 0
M  V30 8350 N 790.784 -1.46188 -0.588786 0
M  V30 8351 C 791.747 -1.55882 -1.68029 0
M  V30 8352 C 792.747 -0.436515 -1.54762 0
M  V30 8353 O 793.937 -0.700626 -1.59489 0
M  V30 8354 C 791.069 -1.47332 -3.07418 0
M  V30 8355 H 792.262 -2.5315 -1.60795 0
M  V30 8356 H 789.815 -1.33908 -0.806116 0
M  V30 8357 H 790.55 -0.513193 -3.20214 0
M  V30 8358 H 790.335 -2.28753 -3.18456 0
M  V30 8359 H 791.825 -1.57187 -3.86887 0
M  V30 8360 N 792.262 0.832906 -1.33792 0
M  V30 8361 C 793.225 1.92471 -1.24449 0
M  V30 8362 C 794.225 1.59981 -0.162085 0
M  V30 8363 O 795.415 1.69208 -0.414029 0
M  V30 8364 C 792.547 3.28278 -0.919044 0
M  V30 8365 H 793.74 2.0218 -2.21502 0
M  V30 8366 H 791.293 1.0257 -1.17936 0
M  V30 8367 H 792.028 3.24263 0.048738 0
M  V30 8368 H 791.813 3.53241 -1.70187 0
M  V30 8369 H 793.303 4.08253 -0.878576 0
M  V30 8370 N 793.74 1.17359 1.05189 0
M  V30 8371 C 794.67 0.91365 2.14883 0
M  V30 8372 C 795.651 -0.144365 1.69486 0
M  V30 8373 O 796.836 0.00587861 1.94199 0
M  V30 8374 C 793.966 0.426196 3.44675 0
M  V30 8375 C 792.92 1.4234 4.03638 0
M  V30 8376 C 792.246 0.793902 5.28773 0
M  V30 8377 C 793.546 2.7966 4.41121 0
M  V30 8378 H 795.24 1.831 2.36885 0
M  V30 8379 H 792.786 0.881781 1.13845 0
M  V30 8380 H 794.739 0.231767 4.20762 0
M  V30 8381 H 793.463 -0.526693 3.22325 0
M  V30 8382 H 792.122 1.60457 3.2962 0
M  V30 8383 H 791.77 -0.165824 5.02727 0
M  V30 8384 H 791.47 1.45959 5.69183 0
M  V30 8385 H 792.994 0.609747 6.07548 0
M  V30 8386 H 794.408 2.6526 5.08242 0
M  V30 8387 H 792.805 3.42807 4.92548 0
M  V30 8388 H 793.875 3.34068 3.51464 0
M  V30 8389 N 795.218 -1.23913 0.973828 0
M  V30 8390 C 796.181 -2.23367 0.51378 0
M  V30 8391 C 797.181 -1.55923 -0.39302 0
M  V30 8392 O 798.371 -1.73187 -0.187626 0
M  V30 8393 C 795.503 -3.39944 -0.255152 0
M  V30 8394 H 796.696 -2.65581 1.39307 0
M  V30 8395 H 794.249 -1.36632 0.759039 0
M  V30 8396 H 794.984 -3.03177 -1.15127 0
M  V30 8397 H 794.769 -3.90098 0.395673 0
M  V30 8398 H 796.259 -4.13749 -0.565842 0
M  V30 8399 N 796.696 -0.74468 -1.38897 0
M  V30 8400 C 797.942 -0.297324 -2.00609 0
M  V30 8401 C 798.275 1.11547 -1.58968 0
M  V30 8402 O 797.55 1.76227 -0.823057 0
M  V30 8403 C 797.833 -0.410125 -3.57757 0
M  V30 8404 C 797.686 -1.86338 -4.09387 0
M  V30 8405 C 799.005 0.20176 -4.39637 0
M  V30 8406 H 796.124 -0.109509 -0.728819 0
M  V30 8407 H 798.766 -0.942653 -1.64967 0
M  V30 8408 H 796.916 0.139287 -3.8825 0
M  V30 8409 H 798.588 -2.47042 -3.89574 0
M  V30 8410 H 796.831 -2.38146 -3.62586 0
M  V30 8411 H 797.502 -1.89352 -5.18507 0
M  V30 8412 H 799.978 -0.266703 -4.15244 0
M  V30 8413 H 798.854 0.0925415 -5.48822 0
M  V30 8414 H 799.115 1.289 -4.22891 0
M  V30 8415 N 798.174 1.49689 -0.493057 0
M  V30 8416 C 799.106 2.26867 0.326195 0
M  V30 8417 C 800.119 1.33083 0.937697 0
M  V30 8418 O 801.308 1.58427 0.822382 0
M  V30 8419 C 798.408 3.0519 1.4735 0
M  V30 8420 C 797.581 4.26491 0.970767 0
M  V30 8421 C 796.64 4.86926 1.99473 0
M  V30 8422 O 795.666 5.47221 1.56647 0
M  V30 8423 N 796.868 4.75871 3.32456 0
M  V30 8424 H 799.633 2.97816 -0.335547 0
M  V30 8425 H 797.194 1.58602 -0.325129 0
M  V30 8426 H 799.186 3.42496 2.15589 0
M  V30 8427 H 797.756 2.369 2.03954 0
M  V30 8428 H 796.976 3.94036 0.113529 0
M  V30 8429 H 798.264 5.05092 0.613156 0
M  V30 8430 H 797.662 4.2797 3.69944 0
M  V30 8431 H 796.219 5.17383 3.96431 0
M  V30 8432 N 799.652 0.226554 1.55963 0
M  V30 8433 C 800.584 -0.713907 2.17798 0
M  V30 8434 C 801.597 -1.15387 1.14846 0
M  V30 8435 O 802.786 -1.08416 1.41804 0
M  V30 8436 C 799.886 -1.97945 2.75084 0
M  V30 8437 C 799.059 -1.69424 4.03255 0
M  V30 8438 C 798.118 -2.80734 4.45056 0
M  V30 8439 O 797.144 -2.4899 5.11852 0
M  V30 8440 N 798.346 -4.09797 4.11152 0
M  V30 8441 H 801.111 -0.18494 2.99129 0
M  V30 8442 H 798.672 0.0457346 1.61835 0
M  V30 8443 H 800.664 -2.71611 3.00016 0
M  V30 8444 H 799.234 -2.41876 1.98027 0
M  V30 8445 H 798.454 -0.793767 3.86126 0
M  V30 8446 H 799.742 -1.47806 4.86858 0
M  V30 8447 H 799.14 -4.38429 3.57486 0
M  V30 8448 H 797.697 -4.79992 4.40966 0
M  V30 8449 N 801.13 -1.57531 -0.0467866 0
M  V30 8450 C 802.093 -2.04379 -1.03738 0
M  V30 8451 C 803.093 -0.944881 -1.3011 0
M  V30 8452 O 804.283 -1.20904 -1.25411 0
M  V30 8453 C 801.415 -2.44572 -2.37482 0
M  V30 8454 H 802.608 -2.93142 -0.633063 0
M  V30 8455 H 800.161 -1.53526 -0.293177 0
M  V30 8456 H 800.896 -1.58911 -2.82697 0
M  V30 8457 H 800.681 -3.24785 -2.19675 0
M  V30 8458 H 802.171 -2.81307 -3.08636 0
M  V30 8459 N 802.608 0.318715 -1.54344 0
M  V30 8460 C 804.024 0.663345 -1.45162 0
M  V30 8461 C 804.224 1.9145 -0.62842 0
M  V30 8462 O 803.28 2.5217 -0.129126 0
M  V30 8463 C 804.593 0.832836 -2.88937 0
M  V30 8464 C 806.141 0.929866 -2.98869 0
M  V30 8465 C 806.616 1.13149 -4.43803 0
M  V30 8466 N 808.107 1.19811 -4.47437 0
M  V30 8467 C 808.842 1.37209 -5.56742 0
M  V30 8468 N 808.338 1.51619 -6.76006 0
M  V30 8469 N 810.131 1.39956 -5.44398 0
M  V30 8470 H 802.282 -0.50357 -2.06344 0
M  V30 8471 H 804.545 -0.163528 -0.933789 0
M  V30 8472 H 804.251 -0.0153519 -3.51697 0
M  V30 8473 H 804.125 1.72721 -3.35332 0
M  V30 8474 H 806.512 1.76855 -2.36233 0
M  V30 8475 H 806.593 0.0118561 -2.55797 0
M  V30 8476 H 806.237 0.297636 -5.07027 0
M  V30 8477 H 806.167 2.06345 -4.84489 0
M  V30 8478 H 808.658 1.101 -3.61506 0
M  V30 8479 H 808.971 1.64599 -7.55067 0
M  V30 8480 H 807.316 1.48708 -6.78904 0
M  V30 8481 H 810.507 1.28298 -4.50175 0
M  V30 8482 H 810.68 1.53172 -6.29637 0
M  V30 8483 N 804.086 1.46499 0.581025 0
M  V30 8484 C 805.016 1.60052 1.70017 0
M  V30 8485 C 805.997 0.450788 1.64018 0
M  V30 8486 O 807.182 0.677237 1.82009 0
M  V30 8487 C 804.312 1.5921 3.08658 0
M  V30 8488 C 803.266 2.73169 3.29488 0
M  V30 8489 C 802.592 2.57389 4.68674 0
M  V30 8490 C 803.892 4.14978 3.1716 0
M  V30 8491 H 805.586 2.53735 1.5893 0
M  V30 8492 H 803.132 1.22113 0.763173 0
M  V30 8493 H 805.085 1.67285 3.86773 0
M  V30 8494 H 803.809 0.620718 3.20647 0
M  V30 8495 H 802.468 2.64566 2.53773 0
M  V30 8496 H 802.116 1.58331 4.77431 0
M  V30 8497 H 801.816 3.33826 4.83564 0
M  V30 8498 H 803.34 2.67358 5.48956 0
M  V30 8499 H 804.754 4.24684 3.85119 0
M  V30 8500 H 803.151 4.92016 3.4357 0
M  V30 8501 H 804.221 4.35016 2.14218 0
M  V30 8502 N 805.565 -0.825799 1.34232 0
M  V30 8503 C 806.795 -1.61129 1.29309 0
M  V30 8504 C 807.203 -1.88714 -0.135589 0
M  V30 8505 O 806.546 -1.47703 -1.09222 0
M  V30 8506 C 806.608 -2.97866 2.01287 0
M  V30 8507 C 806.272 -2.9319 3.50555 0
M  V30 8508 C 807.269 -2.67978 4.45515 0
M  V30 8509 C 804.954 -3.12913 3.92926 0
M  V30 8510 C 806.948 -2.62536 5.80822 0
M  V30 8511 C 804.635 -3.07096 5.28333 0
M  V30 8512 C 805.633 -2.8194 6.22092 0
M  V30 8513 O 805.321 -2.7605 7.55018 0
M  V30 8514 H 805.053 -0.507652 0.446391 0
M  V30 8515 H 807.607 -1.03575 1.77374 0
M  V30 8516 H 805.837 -3.57327 1.47832 0
M  V30 8517 H 807.526 -3.58848 1.89691 0
M  V30 8518 H 808.292 -2.52478 4.14101 0
M  V30 8519 H 804.171 -3.3151 3.20347 0
M  V30 8520 H 807.715 -2.42821 6.53975 0
M  V30 8521 H 803.612 -3.22148 5.59367 0
M  V30 8522 H 804.38 -2.91798 7.6472 0
M  V30 8523 N 807.043 -1.17915 -1.04565 0
M  V30 8524 C 807.975 -0.859359 -2.1248 0
M  V30 8525 C 808.988 0.140922 -1.62189 0
M  V30 8526 O 810.177 -0.0862361 -1.78292 0
M  V30 8527 C 807.277 -0.261811 -3.37887 0
M  V30 8528 C 806.45 -1.30651 -4.17431 0
M  V30 8529 C 805.509 -0.725575 -5.21174 0
M  V30 8530 O 804.535 -1.39901 -5.51739 0
M  V30 8531 N 805.737 0.479351 -5.78517 0
M  V30 8532 H 808.502 -1.78818 -2.40508 0
M  V30 8533 H 806.063 -1.07885 -1.20716 0
M  V30 8534 H 808.055 0.14028 -4.04457 0
M  V30 8535 H 806.625 0.570929 -3.07342 0
M  V30 8536 H 805.845 -1.88412 -3.46258 0
M  V30 8537 H 807.133 -2.01099 -4.67372 0
M  V30 8538 H 806.531 1.04431 -5.55977 0
M  V30 8539 H 805.088 0.823427 -6.46578 0
M  V30 8540 N 808.521 1.23394 -0.980386 0
M  V30 8541 C 809.468 2.24859 -0.520298 0
M  V30 8542 C 810.438 1.60144 0.440821 0
M  V30 8543 O 811.623 1.87593 0.348369 0
M  V30 8544 C 808.763 3.44675 0.171145 0
M  V30 8545 C 807.876 4.23947 -0.830233 0
M  V30 8546 C 807.011 5.31079 -0.113597 0
M  V30 8547 C 806.05 6.02058 -1.10419 0
M  V30 8548 N 805.187 7.00862 -0.416709 0
M  V30 8549 H 810.027 2.63579 -1.39032 0
M  V30 8550 H 807.564 1.29556 -0.696682 0
M  V30 8551 H 809.522 4.13024 0.588838 0
M  V30 8552 H 808.152 3.06755 1.00504 0
M  V30 8553 H 807.204 3.55016 -1.36631 0
M  V30 8554 H 808.516 4.72945 -1.58508 0
M  V30 8555 H 807.67 6.05622 0.36146 0
M  V30 8556 H 806.409 4.83022 0.673854 0
M  V30 8557 H 805.414 5.26307 -1.59 0
M  V30 8558 H 806.639 6.52203 -1.8923 0
M  V30 8559 H 804.585 6.55057 0.351535 0
M  V30 8560 H 804.502 7.47804 -1.11021 0
M  V30 8561 H 805.77 7.79492 0.0359606 0
M  V30 8562 N 809.999 0.752036 1.385 0
M  V30 8563 C 811.227 0.318274 2.04437 0
M  V30 8564 C 811.642 -1.05285 1.56718 0
M  V30 8565 O 810.999 -1.66844 0.73956 0
M  V30 8566 C 811.05 0.330106 3.5999 0
M  V30 8567 O 810.771 1.64712 4.05957 0
M  V30 8568 C 812.272 -0.117713 4.43144 0
M  V30 8569 H 809.492 0.136228 0.657026 0
M  V30 8570 H 812.036 1.02045 1.7722 0
M  V30 8571 H 810.191 -0.323323 3.86048 0
M  V30 8572 H 810.605 1.57225 5.0038 0
M  V30 8573 H 812.079 -0.0582735 5.51969 0
M  V30 8574 H 812.556 -1.16538 4.23457 0
M  V30 8575 H 813.162 0.506784 4.2227 0
M  V30 8576 N 811.477 -1.49425 0.500989 0
M  V30 8577 C 812.893 -1.58826 0.156951 0
M  V30 8578 C 813.093 -1.50622 -1.33848 0
M  V30 8579 O 812.149 -1.38016 -2.11442 0
M  V30 8580 C 813.462 -2.91611 0.73374 0
M  V30 8581 C 815.01 -3.05076 0.699846 0
M  V30 8582 C 815.485 -4.40479 1.2547 0
M  V30 8583 N 816.976 -4.4697 1.2154 0
M  V30 8584 C 817.711 -5.50189 1.6149 0
M  V30 8585 N 817.207 -6.60512 2.09034 0
M  V30 8586 N 819 -5.40903 1.52907 0
M  V30 8587 H 811.151 -1.53001 1.47324 0
M  V30 8588 H 813.414 -0.724765 0.61108 0
M  V30 8589 H 813.12 -3.03182 1.78251 0
M  V30 8590 H 812.994 -3.767 0.19417 0
M  V30 8591 H 815.381 -2.93134 -0.340085 0
M  V30 8592 H 815.462 -2.2167 1.27656 0
M  V30 8593 H 815.106 -4.53172 2.29341 0
M  V30 8594 H 815.036 -5.22524 0.653921 0
M  V30 8595 H 817.527 -3.67819 0.867043 0
M  V30 8596 H 817.84 -7.35372 2.37588 0
M  V30 8597 H 816.185 -6.61553 2.13008 0
M  V30 8598 H 819.376 -4.53606 1.15583 0
M  V30 8599 H 819.549 -6.21219 1.84365 0
M  V30 8600 N 812.955 -0.234822 -1.55841 0
M  V30 8601 C 813.887 0.702346 -2.18174 0
M  V30 8602 C 814.9 1.14776 -1.15457 0
M  V30 8603 O 816.089 1.07662 -1.42377 0
M  V30 8604 C 813.189 1.96483 -2.76129 0
M  V30 8605 C 812.362 1.67283 -4.04148 0
M  V30 8606 C 811.421 2.7837 -4.46539 0
M  V30 8607 O 810.447 2.46272 -5.13166 0
M  V30 8608 N 811.649 4.07611 -4.1332 0
M  V30 8609 H 814.414 0.169074 -2.99223 0
M  V30 8610 H 811.975 -0.0543164 -1.61809 0
M  V30 8611 H 813.967 2.70016 -3.01452 0
M  V30 8612 H 812.537 2.40822 -1.99307 0
M  V30 8613 H 811.757 0.773278 -3.86541 0
M  V30 8614 H 813.045 1.45222 -4.87635 0
M  V30 8615 H 812.443 4.36527 -3.59806 0
M  V30 8616 H 811 4.77646 -4.43506 0
M  V30 8617 N 814.433 1.57553 0.0384317 0
M  V30 8618 C 815.365 2.02726 1.06934 0
M  V30 8619 C 816.378 0.938502 1.33026 0
M  V30 8620 O 817.567 1.21595 1.30678 0
M  V30 8621 C 814.667 2.37958 2.41308 0
M  V30 8622 C 813.84 3.69098 2.34703 0
M  V30 8623 C 812.899 3.91623 3.51451 0
M  V30 8624 O 811.925 4.628 3.31368 0
M  V30 8625 N 813.127 3.36538 4.72993 0
M  V30 8626 H 815.892 2.91781 0.684381 0
M  V30 8627 H 813.453 1.60307 0.226542 0
M  V30 8628 H 815.445 2.50172 3.18113 0
M  V30 8629 H 814.015 1.54621 2.71682 0
M  V30 8630 H 813.235 3.67325 1.43059 0
M  V30 8631 H 814.523 4.55144 2.27424 0
M  V30 8632 H 813.921 2.78828 4.92211 0
M  V30 8633 H 812.478 3.54148 5.47195 0
M  V30 8634 N 815.911 -0.310526 1.54511 0
M  V30 8635 C 816.874 -1.3657 1.84068 0
M  V30 8636 C 817.874 -1.44123 0.713097 0
M  V30 8637 O 819.064 -1.43924 0.981399 0
M  V30 8638 C 816.196 -2.75162 2.01243 0
M  V30 8639 H 817.389 -1.1161 2.78358 0
M  V30 8640 H 814.942 -0.546699 1.46427 0
M  V30 8641 H 815.677 -3.05359 1.09208 0
M  V30 8642 H 815.462 -2.71071 2.83307 0
M  V30 8643 H 816.952 -3.51473 2.25514 0
M  V30 8644 N 817.389 -1.46805 -0.573248 0
M  V30 8645 C 818.299 -1.60687 -1.70929 0
M  V30 8646 C 819.315 -0.490084 -1.66956 0
M  V30 8647 O 820.491 -0.755482 -1.86693 0
M  V30 8648 C 817.556 -1.60259 -3.07438 0
M  V30 8649 C 816.617 -2.83242 -3.22603 0
M  V30 8650 C 815.85 -2.82825 -4.52599 0
M  V30 8651 O 816.073 -1.92113 -5.37074 0
M  V30 8652 O 815.007 -3.74489 -4.71213 0
M  V30 8653 H 818.833 -2.56782 -1.62163 0
M  V30 8654 H 816.418 -1.29706 -0.741399 0
M  V30 8655 H 818.3 -1.6275 -3.88704 0
M  V30 8656 H 816.975 -0.673268 -3.16621 0
M  V30 8657 H 815.882 -2.86302 -2.40794 0
M  V30 8658 H 817.215 -3.75415 -3.18315 0
M  V30 8659 N 818.867 0.818669 -1.34668 0
M  V30 8660 C 820.283 1.11243 -1.14443 0
M  V30 8661 C 820.483 2.01435 0.0512212 0
M  V30 8662 O 819.539 2.41854 0.725471 0
M  V30 8663 C 820.852 1.75504 -2.4417 0
M  V30 8664 C 822.4 1.8798 -2.50265 0
M  V30 8665 C 822.875 2.55657 -3.80004 0
M  V30 8666 N 824.366 2.63153 -3.81189 0
M  V30 8667 C 825.101 3.16258 -4.78298 0
M  V30 8668 N 824.597 3.69893 -5.85791 0
M  V30 8669 N 826.39 3.14698 -4.65748 0
M  V30 8670 H 818.541 0.218848 -2.1127 0
M  V30 8671 H 820.804 0.159655 -0.934459 0
M  V30 8672 H 820.51 1.16697 -3.31775 0
M  V30 8673 H 820.384 2.75329 -2.57825 0
M  V30 8674 H 822.771 2.45934 -1.63096 0
M  V30 8675 H 822.852 0.870447 -2.40535 0
M  V30 8676 H 822.496 1.98356 -4.67565 0
M  V30 8677 H 822.426 3.57105 -3.87019 0
M  V30 8678 H 824.917 2.2514 -3.03513 0
M  V30 8679 H 825.23 4.08678 -6.55898 0
M  V30 8680 H 823.575 3.68125 -5.89499 0
M  V30 8681 H 826.766 2.72066 -3.80917 0
M  V30 8682 H 826.939 3.5578 -5.41594 0
M  V30 8683 N 820.346 1.18468 1.03938 0
M  V30 8684 C 821.276 0.936389 2.13902 0
M  V30 8685 C 822.257 -0.126381 1.6963 0
M  V30 8686 O 823.442 0.0264757 1.94182 0
M  V30 8687 C 820.572 0.462729 3.44204 0
M  V30 8688 C 819.526 1.46613 4.02105 0
M  V30 8689 C 818.852 0.84994 5.27902 0
M  V30 8690 C 820.152 2.84323 4.3813 0
M  V30 8691 H 821.846 1.85602 2.3493 0
M  V30 8692 H 819.392 0.893806 1.12903 0
M  V30 8693 H 821.345 0.276382 4.20493 0
M  V30 8694 H 820.069 -0.492477 3.22866 0
M  V30 8695 H 818.728 1.63944 3.27899 0
M  V30 8696 H 818.376 -0.112493 5.02874 0
M  V30 8697 H 818.076 1.51988 5.67603 0
M  V30 8698 H 819.6 0.674152 6.06867 0
M  V30 8699 H 821.014 2.70636 5.054 0
M  V30 8700 H 819.411 3.48012 4.88884 0
M  V30 8701 H 820.481 3.37776 3.47901 0
M  V30 8702 N 821.824 -1.22873 0.986916 0
M  V30 8703 C 822.754 -2.2688 0.552064 0
M  V30 8704 C 823.735 -1.64883 -0.418048 0
M  V30 8705 O 824.92 -1.9171 -0.30999 0
M  V30 8706 C 822.05 -3.47018 -0.139959 0
M  V30 8707 C 821.004 -4.21411 0.748091 0
M  V30 8708 C 820.33 -5.34645 -0.0765132 0
M  V30 8709 C 821.63 -4.80726 2.04206 0
M  V30 8710 H 823.324 -2.63507 1.42143 0
M  V30 8711 H 820.87 -1.26668 0.68492 0
M  V30 8712 H 822.823 -4.18931 -0.455527 0
M  V30 8713 H 821.547 -3.0947 -1.04382 0
M  V30 8714 H 820.206 -3.51325 1.04721 0
M  V30 8715 H 819.854 -4.93339 -0.981109 0
M  V30 8716 H 819.554 -5.85342 0.514606 0
M  V30 8717 H 821.078 -6.09377 -0.386313 0
M  V30 8718 H 822.492 -5.44612 1.79083 0
M  V30 8719 H 820.889 -5.41737 2.5815 0
M  V30 8720 H 821.959 -4.01109 2.72469 0
M  V30 8721 N 823.302 -0.75937 -1.38099 0
M  V30 8722 C 824.212 -0.13774 -2.34195 0
M  V30 8723 C 825.228 0.693985 -1.59561 0
M  V30 8724 O 826.404 0.616792 -1.91723 0
M  V30 8725 C 823.469 0.740535 -3.38699 0
M  V30 8726 C 822.53 -0.106225 -4.29169 0
M  V30 8727 C 821.763 0.730225 -5.28681 0
M  V30 8728 O 821.986 1.96796 -5.35376 0
M  V30 8729 O 820.92 0.145969 -6.01723 0
M  V30 8730 H 824.746 -0.931512 -2.89061 0
M  V30 8731 H 822.331 -0.520345 -1.40046 0
M  V30 8732 H 824.213 1.24232 -4.02672 0
M  V30 8733 H 822.888 1.51271 -2.8618 0
M  V30 8734 H 821.795 -0.654088 -3.68337 0
M  V30 8735 H 823.128 -0.841186 -4.84959 0
M  V30 8736 N 824.78 1.49157 -0.508906 0
M  V30 8737 C 825.743 2.27784 0.25434 0
M  V30 8738 C 826.743 1.34132 0.88686 0
M  V30 8739 O 827.933 1.5722 0.750168 0
M  V30 8740 C 825.065 3.12347 1.36573 0
M  V30 8741 H 826.258 2.96718 -0.435714 0
M  V30 8742 H 823.811 1.54052 -0.264128 0
M  V30 8743 H 824.546 2.47997 2.08969 0
M  V30 8744 H 824.331 3.81213 0.917543 0
M  V30 8745 H 825.821 3.71712 1.90315 0
M  V30 8746 N 826.258 0.243083 1.55714 0
M  V30 8747 C 827.535 -0.432851 1.90751 0
M  V30 8748 C 827.915 -1.76153 1.16333 0
M  V30 8749 O 827.263 -2.26783 0.279565 0
M  V30 8750 C 827.473 -0.604685 3.43722 0
M  V30 8751 C 828.821 -0.90231 4.14902 0
M  V30 8752 O 829.845 -0.690689 3.49439 0
M  V30 8753 O 828.704 -1.3051 5.30688 0
M  V30 8754 H 825.798 -0.231835 0.79384 0
M  V30 8755 H 828.344 0.286867 1.67258 0
M  V30 8756 H 827.116 0.331655 3.89892 0
M  V30 8757 H 826.739 -1.37509 3.73065 0
M  V30 8758 N 827.736 -1.57571 -0.0300757 0
M  V30 8759 C 829.152 -1.54869 -0.385703 0
M  V30 8760 C 829.352 -0.969068 -1.76667 0
M  V30 8761 O 828.408 -0.589676 -2.45518 0
M  V30 8762 C 829.721 -2.99313 -0.288482 0
M  V30 8763 C 831.269 -3.10857 -0.365638 0
M  V30 8764 C 831.744 -4.5703 -0.297878 0
M  V30 8765 N 833.235 -4.61825 -0.356703 0
M  V30 8766 C 833.97 -5.72466 -0.327146 0
M  V30 8767 N 833.466 -6.92349 -0.249941 0
M  V30 8768 N 835.259 -5.60836 -0.376801 0
M  V30 8769 H 827.41 -1.936 0.87367 0
M  V30 8770 H 829.673 -0.887924 0.332106 0
M  V30 8771 H 829.379 -3.45443 0.66047 0
M  V30 8772 H 829.253 -3.61332 -1.08253 0
M  V30 8773 H 831.64 -2.64676 -1.30502 0
M  V30 8774 H 831.721 -2.51671 0.457744 0
M  V30 8775 H 831.365 -5.03879 0.637835 0
M  V30 8776 H 831.295 -5.14127 -1.13935 0
M  V30 8777 H 833.786 -3.75571 -0.418926 0
M  V30 8778 H 834.099 -7.7245 -0.23246 0
M  V30 8779 H 832.444 -6.94664 -0.216004 0
M  V30 8780 H 835.635 -4.66073 -0.435101 0
M  V30 8781 H 835.808 -6.47052 -0.350298 0
M  V30 8782 N 829.214 0.302327 -1.54673 0
M  V30 8783 C 830.144 1.37759 -1.88533 0
M  V30 8784 C 831.125 1.52961 -0.744113 0
M  V30 8785 O 832.31 1.6649 -0.999731 0
M  V30 8786 C 829.44 2.74201 -2.13146 0
M  V30 8787 C 828.394 2.73765 -3.28993 0
M  V30 8788 C 827.72 4.13483 -3.39022 0
M  V30 8789 C 829.02 2.35624 -4.66132 0
M  V30 8790 H 830.714 1.0967 -2.78591 0
M  V30 8791 H 828.26 0.52613 -1.34044 0
M  V30 8792 H 830.213 3.49508 -2.35419 0
M  V30 8793 H 828.937 3.03812 -1.19858 0
M  V30 8794 H 827.596 2.00914 -3.06642 0
M  V30 8795 H 827.244 4.40269 -2.43253 0
M  V30 8796 H 826.944 4.14093 -4.16894 0
M  V30 8797 H 828.468 4.90572 -3.63553 0
M  V30 8798 H 829.882 3.00647 -4.88143 0
M  V30 8799 H 828.279 2.47449 -5.46707 0
M  V30 8800 H 829.349 1.30753 -4.66939 0
M  V30 8801 N 830.692 1.47107 0.565454 0
M  V30 8802 C 831.639 1.58974 1.6732 0
M  V30 8803 C 832.609 0.433146 1.60353 0
M  V30 8804 O 833.794 0.652141 1.79309 0
M  V30 8805 C 830.934 1.60224 3.05651 0
M  V30 8806 C 830.047 2.86741 3.23116 0
M  V30 8807 C 829.182 2.79381 4.51796 0
M  V30 8808 C 828.221 4.0076 4.62664 0
M  V30 8809 N 827.358 3.91685 5.8269 0
M  V30 8810 H 832.198 2.53588 1.56515 0
M  V30 8811 H 829.735 1.25791 0.762558 0
M  V30 8812 H 831.693 1.58933 3.85741 0
M  V30 8813 H 830.323 0.691285 3.15311 0
M  V30 8814 H 829.375 2.97936 2.36513 0
M  V30 8815 H 830.687 3.7665 3.27011 0
M  V30 8816 H 829.841 2.76293 5.40136 0
M  V30 8817 H 828.58 1.87142 4.50366 0
M  V30 8818 H 827.585 4.04162 3.72738 0
M  V30 8819 H 828.81 4.94117 4.6586 0
M  V30 8820 H 826.756 3.02243 5.82224 0
M  V30 8821 H 826.673 4.75264 5.87929 0
M  V30 8822 H 827.941 3.92599 6.73414 0
M  V30 8823 N 832.17 -0.811516 1.35101 0
M  V30 8824 C 833.398 -1.59981 1.31201 0
M  V30 8825 C 833.813 -1.8847 -0.111552 0
M  V30 8826 O 833.17 -1.48414 -1.06205 0
M  V30 8827 C 833.221 -2.934 2.11184 0
M  V30 8828 O 832.942 -2.66148 3.4799 0
M  V30 8829 C 834.443 -3.87776 2.14813 0
M  V30 8830 H 831.663 -0.496921 0.450899 0
M  V30 8831 H 834.207 -1.00886 1.77883 0
M  V30 8832 H 832.362 -3.49022 1.68115 0
M  V30 8833 H 832.776 -3.51301 3.89471 0
M  V30 8834 H 834.25 -4.7852 2.75178 0
M  V30 8835 H 834.727 -4.23997 1.14556 0
M  V30 8836 H 835.333 -3.3809 2.58022 0
M  V30 8837 N 833.648 -1.19017 -1.03309 0
M  V30 8838 C 834.558 -0.939303 -2.14975 0
M  V30 8839 C 835.574 0.0992359 -1.73717 0
M  V30 8840 O 836.75 -0.0844362 -2.01223 0
M  V30 8841 C 833.815 -0.476712 -3.43407 0
M  V30 8842 C 832.876 -1.58413 -3.99003 0
M  V30 8843 C 832.109 -1.14352 -5.21305 0
M  V30 8844 O 832.332 -0.00534408 -5.704 0
M  V30 8845 O 831.266 -1.94436 -5.6963 0
M  V30 8846 H 835.092 -1.87386 -2.38998 0
M  V30 8847 H 832.677 -0.972635 -1.13403 0
M  V30 8848 H 834.559 -0.22718 -4.20787 0
M  V30 8849 H 833.234 0.429455 -3.20839 0
M  V30 8850 H 832.141 -1.88777 -3.22977 0
M  V30 8851 H 833.474 -2.4667 -4.25928 0
M  V30 8852 N 835.127 1.22348 -0.993418 0
M  V30 8853 C 836.374 1.9111 -0.669568 0
M  V30 8854 C 836.702 1.77357 0.79843 0
M  V30 8855 O 835.957 1.13675 1.593 0
M  V30 8856 C 836.256 3.42477 -1.02197 0
M  V30 8857 C 835.922 3.7642 -2.48232 0
M  V30 8858 C 834.584 3.85395 -2.88139 0
M  V30 8859 C 836.936 3.9253 -3.42884 0
M  V30 8860 C 834.264 4.07918 -4.21687 0
M  V30 8861 C 836.616 4.16557 -4.76091 0
M  V30 8862 C 835.28 4.23757 -5.15739 0
M  V30 8863 H 834.55 0.699321 -0.245012 0
M  V30 8864 H 837.197 1.45102 -1.2497 0
M  V30 8865 H 835.502 3.90143 -0.359921 0
M  V30 8866 H 837.199 3.93935 -0.74942 0
M  V30 8867 H 833.789 3.70017 -2.16299 0
M  V30 8868 H 837.973 3.84974 -3.13224 0
M  V30 8869 H 833.229 4.11719 -4.51993 0
M  V30 8870 H 837.403 4.27966 -5.4938 0
M  V30 8871 H 835.03 4.40962 -6.19239 0
M  V30 8872 N 836.605 0.766683 1.37694 0
M  V30 8873 C 837.852 0.328714 1.99814 0
M  V30 8874 C 838.18 -1.09333 1.60862 0
M  V30 8875 O 837.435 -1.7657 0.8439 0
M  V30 8876 C 837.734 0.413831 3.54996 0
M  V30 8877 C 837.4 1.7934 4.137 0
M  V30 8878 C 836.062 2.17092 4.29447 0
M  V30 8879 C 838.414 2.69776 4.45949 0
M  V30 8880 C 835.742 3.44726 4.74743 0
M  V30 8881 C 838.094 3.96814 4.92667 0
M  V30 8882 C 836.758 4.34618 5.0662 0
M  V30 8883 H 836.028 0.120285 0.731172 0
M  V30 8884 H 838.675 0.97972 1.64541 0
M  V30 8885 H 836.98 -0.320723 3.90485 0
M  V30 8886 H 838.677 0.0563369 4.0096 0
M  V30 8887 H 835.267 1.48997 4.01868 0
M  V30 8888 H 839.451 2.41871 4.33373 0
M  V30 8889 H 834.707 3.73917 4.83731 0
M  V30 8890 H 838.881 4.67022 5.16588 0
M  V30 8891 H 836.508 5.33578 5.41478 0
M  V30 8892 N 838.083 -1.48885 0.516809 0
M  V30 8893 C 839.015 -2.27357 -0.290061 0
M  V30 8894 C 840.028 -1.34558 -0.916406 0
M  V30 8895 O 841.217 -1.59715 -0.797073 0
M  V30 8896 C 838.317 -3.07496 -1.42476 0
M  V30 8897 C 837.49 -4.27982 -0.902793 0
M  V30 8898 C 836.549 -4.90038 -1.91701 0
M  V30 8899 O 835.575 -5.49643 -1.47922 0
M  V30 8900 N 836.777 -4.811 -3.24843 0
M  V30 8901 H 839.542 -2.97244 0.382884 0
M  V30 8902 H 837.103 -1.58064 0.35032 0
M  V30 8903 H 839.095 -3.45882 -2.10113 0
M  V30 8904 H 837.665 -2.40115 -2.00159 0
M  V30 8905 H 836.885 -3.94167 -0.0508272 0
M  V30 8906 H 838.173 -5.06003 -0.532723 0
M  V30 8907 H 837.571 -4.33801 -3.63088 0
M  V30 8908 H 836.128 -5.23625 -3.8815 0
M  V30 8909 N 839.561 -0.251338 -1.55583 0
M  V30 8910 C 840.509 0.662534 -2.22965 0
M  V30 8911 C 841.503 1.17662 -1.21869 0
M  V30 8912 O 842.709 1.133 -1.39868 0
M  V30 8913 H 839.084 0.232151 -0.715269 0
M  V30 8914 H 841.055 0.0711252 -2.98315 0
M  V30 8915 C 839.804 1.84646 -2.94621 0
M  V30 8916 H 839.127 1.46003 -3.72187 0
M  V30 8917 H 840.567 2.46303 -3.45124 0
M  V30 8918 C 839.026 2.72034 -1.98744 0
M  V30 8919 O 839.556 3.71695 -1.52335 0
M  V30 8920 N 837.762 2.38695 -1.6575 0
M  V30 8921 H 837.309 1.57702 -2.03685 0
M  V30 8922 H 837.267 2.9744 -1.01867 0
M  V30 8923 N 841.039 1.57585 0.0217189 0
M  V30 8924 C 842.285 1.89887 0.712099 0
M  V30 8925 C 842.618 0.849971 1.74611 0
M  V30 8926 O 841.893 -0.13407 1.94037 0
M  V30 8927 C 842.176 3.32815 1.37499 0
M  V30 8928 C 842.029 4.48405 0.353993 0
M  V30 8929 C 843.348 3.74786 2.30703 0
M  V30 8930 H 840.467 0.690588 0.257405 0
M  V30 8931 H 843.109 1.89983 -0.0251145 0
M  V30 8932 H 841.259 3.32863 2.00335 0
M  V30 8933 H 842.931 4.60491 -0.273015 0
M  V30 8934 H 841.174 4.32573 -0.32599 0
M  V30 8935 H 841.845 5.45316 0.85644 0
M  V30 8936 H 844.321 3.76151 1.77904 0
M  V30 8937 H 843.197 4.75585 2.74061 0
M  V30 8938 H 843.458 3.07449 3.17691 0
M  V30 8939 N 842.517 -0.29412 1.54831 0
M  V30 8940 C 843.742 -1.05156 1.78765 0
M  V30 8941 C 844.167 -1.79916 0.548809 0
M  V30 8942 O 843.525 -1.74243 -0.500909 0
M  V30 8943 C 843.573 -2.00242 2.99893 0
M  V30 8944 O 842.677 -3.08662 2.73499 0
M  V30 8945 H 842.018 -0.301737 0.591482 0
M  V30 8946 H 844.548 -0.329449 2.0193 0
M  V30 8947 H 844.558 -2.42583 3.28051 0
M  V30 8948 H 843.233 -1.45235 3.89717 0
M  V30 8949 H 841.81 -2.70786 2.56377 0
M  V30 8950 N 843.995 -1.47404 -0.557645 0
M  V30 8951 C 844.945 -1.56267 -1.66026 0
M  V30 8952 C 845.929 -0.42161 -1.55278 0
M  V30 8953 O 847.121 -0.671505 -1.63768 0
M  V30 8954 C 844.25 -1.57958 -3.04802 0
M  V30 8955 C 843.336 -2.77447 -3.20755 0
M  V30 8956 N 843.727 -4.02148 -3.06775 0
M  V30 8957 C 842.025 -2.74199 -3.51754 0
M  V30 8958 C 842.726 -4.82168 -3.25406 0
M  V30 8959 N 841.702 -4.14481 -3.5172 0
M  V30 8960 H 845.504 -2.50454 -1.53785 0
M  V30 8961 H 843.018 -1.43392 -0.762388 0
M  V30 8962 H 845.015 -1.62397 -3.8397 0
M  V30 8963 H 843.675 -0.648667 -3.18155 0
M  V30 8964 H 844.686 -4.33014 -2.84111 0
M  V30 8965 H 841.363 -1.90243 -3.71637 0
M  V30 8966 H 842.753 -5.91037 -3.19569 0
M  V30 8967 N 845.473 0.80434 -1.35529 0
M  V30 8968 C 846.383 1.94784 -1.30753 0
M  V30 8969 C 847.399 1.72703 -0.212071 0
M  V30 8970 O 848.575 1.96494 -0.441841 0
M  V30 8971 C 845.64 3.29406 -1.08133 0
M  V30 8972 C 844.701 3.64367 -2.27013 0
M  V30 8973 C 843.934 4.92566 -2.05463 0
M  V30 8974 O 844.157 5.61166 -1.02222 0
M  V30 8975 O 843.091 5.25838 -2.92879 0
M  V30 8976 H 846.917 2.01761 -2.26994 0
M  V30 8977 H 844.502 0.942448 -1.15924 0
M  V30 8978 H 846.384 4.09995 -0.973756 0
M  V30 8979 H 845.059 3.23355 -0.149444 0
M  V30 8980 H 843.966 2.84146 -2.43335 0
M  V30 8981 H 845.299 3.75125 -3.18656 0
M  V30 8982 N 846.951 1.19563 1.02676 0
M  V30 8983 C 848.198 0.999568 1.7611 0
M  V30 8984 C 848.526 -0.469432 1.8875 0
M  V30 8985 O 847.781 -1.36481 1.40255 0
M  V30 8986 C 848.08 1.61619 3.18769 0
M  V30 8987 C 847.746 3.11366 3.26132 0
M  V30 8988 C 846.408 3.52234 3.27848 0
M  V30 8989 C 848.76 4.07374 3.25109 0
M  V30 8990 C 846.088 4.87658 3.26201 0
M  V30 8991 C 848.44 5.42731 3.25002 0
M  V30 8992 C 847.104 5.83027 3.25017 0
M  V30 8993 H 846.374 0.365768 0.644434 0
M  V30 8994 H 849.021 1.48838 1.20497 0
M  V30 8995 H 847.326 1.04974 3.77476 0
M  V30 8996 H 849.023 1.43975 3.74262 0
M  V30 8997 H 845.613 2.78804 3.25525 0
M  V30 8998 H 849.797 3.76842 3.22961 0
M  V30 8999 H 845.053 5.18156 3.24537 0
M  V30 9000 H 849.227 6.16879 3.23161 0
M  V30 9001 H 846.854 6.87936 3.23494 0
M  V30 9002 N 848.429 -1.21819 0.999893 0
M  V30 9003 C 849.845 -1.42847 0.711824 0
M  V30 9004 C 850.045 -1.88391 -0.714928 0
M  V30 9005 O 849.101 -2.0422 -1.48494 0
M  V30 9006 C 850.414 -2.46417 1.72334 0
M  V30 9007 C 851.962 -2.60207 1.73958 0
M  V30 9008 C 852.437 -3.67005 2.73992 0
M  V30 9009 N 853.928 -3.7447 2.72628 0
M  V30 9010 C 854.663 -4.56718 3.46693 0
M  V30 9011 N 854.159 -5.42904 4.3038 0
M  V30 9012 N 855.952 -4.51094 3.35366 0
M  V30 9013 H 848.103 -0.905656 1.92124 0
M  V30 9014 H 850.366 -0.459893 0.828977 0
M  V30 9015 H 850.072 -2.19914 2.74465 0
M  V30 9016 H 849.946 -3.45137 1.52186 0
M  V30 9017 H 852.333 -2.8605 0.725217 0
M  V30 9018 H 852.414 -1.61739 1.98177 0
M  V30 9019 H 852.058 -3.41908 3.75582 0
M  V30 9020 H 851.988 -4.65058 2.4704 0
M  V30 9021 H 854.479 -3.12895 2.11909 0
M  V30 9022 H 854.792 -6.02704 4.83702 0
M  V30 9023 H 853.137 -5.42463 4.34464 0
M  V30 9024 H 856.328 -3.82791 2.69423 0
M  V30 9025 H 856.501 -5.1496 3.93344 0
M  V30 9026 N 849.908 -0.773975 -1.37286 0
M  V30 9027 C 851.136 -0.350758 -2.03905 0
M  V30 9028 C 851.551 1.02779 -1.58373 0
M  V30 9029 O 850.908 1.65646 -0.766009 0
M  V30 9030 C 850.959 -0.387335 -3.59419 0
M  V30 9031 O 850.68 -1.7115 -4.03286 0
M  V30 9032 C 852.181 0.047198 -4.43275 0
M  V30 9033 H 849.401 -0.146663 -0.654775 0
M  V30 9034 H 851.945 -1.04852 -1.75574 0
M  V30 9035 H 850.1 0.261865 -3.86514 0
M  V30 9036 H 850.514 -1.65166 -4.97816 0
M  V30 9037 H 851.988 -0.0295474 -5.51992 0
M  V30 9038 H 852.465 1.09786 -4.25257 0
M  V30 9039 H 853.071 -0.573899 -4.2141 0
M  V30 9040 N 851.386 1.48609 -0.524698 0
M  V30 9041 C 852.797 1.86516 -0.0828846 0
M  V30 9042 C 853.148 1.43478 1.33822 0
M  V30 9043 O 852.273 0.823139 2.00133 0
M  V30 9044 C 852.868 3.38495 -0.143639 0
M  V30 9045 C 851.427 3.75615 0.242951 0
M  V30 9046 C 850.574 2.72649 -0.505747 0
M  V30 9047 H 853.525 1.40589 -0.736233 0
M  V30 9048 H 853.546 3.74977 0.645955 0
M  V30 9049 H 853.058 3.69789 -1.17805 0
M  V30 9050 H 851.159 3.49935 1.27971 0
M  V30 9051 H 851.272 4.7901 -0.0929834 0
M  V30 9052 H 849.636 2.54656 0.0473482 0
M  V30 9053 H 850.419 3.06786 -1.54069 0
M  V30 9054 N 852.864 0.259585 1.55447 0
M  V30 9055 C 853.794 -0.62852 2.24882 0
M  V30 9056 C 854.775 -1.17128 1.23349 0
M  V30 9057 O 855.96 -1.20829 1.52033 0
M  V30 9058 C 853.09 -1.81983 2.95803 0
M  V30 9059 C 852.044 -1.40929 4.04132 0
M  V30 9060 C 851.37 -2.68246 4.62545 0
M  V30 9061 C 852.67 -0.570956 5.1917 0
M  V30 9062 H 854.364 -0.0495021 2.99359 0
M  V30 9063 H 851.91 -0.0223688 1.43983 0
M  V30 9064 H 853.863 -2.44689 3.43082 0
M  V30 9065 H 852.587 -2.42444 2.18835 0
M  V30 9066 H 851.246 -0.805519 3.57641 0
M  V30 9067 H 850.894 -3.26931 3.82263 0
M  V30 9068 H 850.594 -2.41495 5.35681 0
M  V30 9069 H 852.118 -3.31827 5.12565 0
M  V30 9070 H 853.532 -1.10262 5.62597 0
M  V30 9071 H 851.929 -0.398979 5.98772 0
M  V30 9072 H 852.999 0.413918 4.8313 0
M  V30 9073 N 854.342 -1.57594 -0.0133615 0
M  V30 9074 C 855.57 -1.94251 -0.712328 0
M  V30 9075 C 855.985 -0.86063 -1.68043 0
M  V30 9076 O 855.342 0.161632 -1.81783 0
M  V30 9077 C 855.393 -3.30891 -1.45581 0
M  V30 9078 O 855.114 -4.34924 -0.526539 0
M  V30 9079 C 856.615 -3.81926 -2.2505 0
M  V30 9080 H 853.835 -0.640737 -0.199241 0
M  V30 9081 H 856.379 -2.04472 0.0337855 0
M  V30 9082 H 854.534 -3.22019 -2.15366 0
M  V30 9083 H 854.948 -5.1389 -1.04962 0
M  V30 9084 H 856.422 -4.79999 -2.72589 0
M  V30 9085 H 856.899 -3.13934 -3.07152 0
M  V30 9086 H 857.505 -3.93931 -1.60308 0
M  V30 9087 N 855.82 0.285905 -1.54985 0
M  V30 9088 C 856.75 1.35752 -1.89983 0
M  V30 9089 C 857.731 1.52163 -0.760295 0
M  V30 9090 O 858.916 1.65421 -1.01733 0
M  V30 9091 C 856.046 2.71925 -2.16042 0
M  V30 9092 C 855 2.70261 -3.31878 0
M  V30 9093 C 854.326 4.09864 -3.43388 0
M  V30 9094 C 855.626 2.30667 -4.68604 0
M  V30 9095 H 857.32 1.06709 -2.79738 0
M  V30 9096 H 854.866 0.511884 -1.34595 0
M  V30 9097 H 856.819 3.46992 -2.39113 0
M  V30 9098 H 855.543 3.02523 -1.23074 0
M  V30 9099 H 854.202 1.97651 -3.08755 0
M  V30 9100 H 853.85 4.37664 -2.47909 0
M  V30 9101 H 853.55 4.09648 -4.21262 0
M  V30 9102 H 855.074 4.86689 -3.68736 0
M  V30 9103 H 856.488 2.95453 -4.91305 0
M  V30 9104 H 854.885 2.41637 -5.49301 0
M  V30 9105 H 855.955 1.25793 -4.68299 0
M  V30 9106 N 857.298 1.47698 0.54982 0
M  V30 9107 C 858.231 1.55288 1.67215 0
M  V30 9108 C 859.209 0.404533 1.57487 0
M  V30 9109 O 860.393 0.613372 1.78241 0
M  V30 9110 C 857.52 1.46233 3.05505 0
M  V30 9111 C 856.566 2.65662 3.33655 0
M  V30 9112 S 857.399 4.278 3.22098 0
M  V30 9113 C 858.555 4.21311 4.62869 0
M  V30 9114 H 858.788 2.50238 1.60524 0
M  V30 9115 H 856.321 1.35987 0.731227 0
M  V30 9116 H 858.279 1.41696 3.85269 0
M  V30 9117 H 856.94 0.526543 3.09655 0
M  V30 9118 H 856.133 2.55411 4.3449 0
M  V30 9119 H 855.735 2.67359 2.61524 0
M  V30 9120 H 858.027 3.90021 5.53977 0
M  V30 9121 H 858.97 5.22257 4.78177 0
M  V30 9122 H 859.378 3.52063 4.41262 0
M  V30 9123 N 858.776 -0.797141 1.35954 0
M  V30 9124 C 860.025 -1.54983 1.29086 0
M  V30 9125 C 860.338 -1.95167 -0.130003 0
M  V30 9126 O 861.544 -2.69596 -0.32101 0
M  V30 9127 C 860 -2.79738 2.26439 0
M  V30 9128 C 859.608 -2.46753 3.73921 0
M  V30 9129 C 861.352 -3.57733 2.28533 0
M  V30 9130 C 859.259 -3.67858 4.63071 0
M  V30 9131 H 858.189 -0.581766 0.479651 0
M  V30 9132 H 860.84 -0.87541 1.61273 0
M  V30 9133 H 859.222 -3.48939 1.87236 0
M  V30 9134 H 860.396 -1.85499 4.21814 0
M  V30 9135 H 858.711 -1.81985 3.74527 0
M  V30 9136 H 861.308 -4.47699 2.92351 0
M  V30 9137 H 861.651 -3.95754 1.29169 0
M  V30 9138 H 862.184 -2.95504 2.66313 0
M  V30 9139 H 858.923 -3.34939 5.63468 0
M  V30 9140 H 858.443 -4.28305 4.19898 0
M  V30 9141 H 860.122 -4.34977 4.78961 0
M  V30 9142 N 860.254 -1.20106 -1.0204 0
M  V30 9143 C 861.502 -1.0069 -1.75231 0
M  V30 9144 C 861.823 0.462491 -1.89436 0
M  V30 9145 O 861.093 1.33455 -1.4341 0
M  V30 9146 H 859.673 -0.369576 -0.649171 0
M  V30 9147 H 862.335 -1.51149 -1.23044 0
M  V30 9148 H 861.431 -1.46205 -2.75736 0
M  V30 9149 N 861.732 1.21287 -1.00634 0
M  V30 9150 C 863.143 1.72136 -0.722914 0
M  V30 9151 C 863.494 1.8091 0.759338 0
M  V30 9152 O 862.619 1.46458 1.59308 0
M  V30 9153 C 863.214 3.12633 -1.30561 0
M  V30 9154 C 861.773 3.60833 -1.07127 0
M  V30 9155 C 860.92 2.38326 -1.4176 0
M  V30 9156 H 863.871 1.06445 -1.17708 0
M  V30 9157 H 863.892 3.74174 -0.690937 0
M  V30 9158 H 863.404 3.06215 -2.38441 0
M  V30 9159 H 861.505 3.72599 -0.00968671 0
M  V30 9160 H 861.618 4.46226 -1.74411 0
M  V30 9161 H 859.982 2.40575 -0.836412 0
M  V30 9162 H 860.765 2.34558 -2.50674 0
M  V30 9163 N 863.21 0.781244 1.36873 0
M  V30 9164 C 864.14 0.188128 2.32741 0
M  V30 9165 C 865.121 -0.672326 1.56249 0
M  V30 9166 O 866.306 -0.607835 1.84442 0
M  V30 9167 C 863.436 -0.684341 3.40491 0
M  V30 9168 C 862.39 0.0755641 4.27933 0
M  V30 9169 C 861.716 -0.916968 5.26779 0
M  V30 9170 C 863.016 1.26006 5.06873 0
M  V30 9171 H 864.71 0.989016 2.82593 0
M  V30 9172 H 862.256 0.477038 1.35869 0
M  V30 9173 H 864.209 -1.10915 4.06541 0
M  V30 9174 H 862.933 -1.51785 2.89187 0
M  V30 9175 H 861.592 0.481258 3.63427 0
M  V30 9176 H 861.24 -1.74528 4.71751 0
M  V30 9177 H 860.94 -0.413 5.86147 0
M  V30 9178 H 862.464 -1.34052 5.95703 0
M  V30 9179 H 863.878 0.911425 5.66009 0
M  V30 9180 H 862.275 1.69676 5.75613 0
M  V30 9181 H 863.345 2.05948 4.38991 0
M  V30 9182 N 864.689 -1.48329 0.532571 0
M  V30 9183 C 865.599 -2.33445 -0.232546 0
M  V30 9184 C 866.615 -1.46651 -0.93645 0
M  V30 9185 O 867.791 -1.79627 -0.910834 0
M  V30 9186 C 864.856 -3.22824 -1.26434 0
M  V30 9187 C 863.917 -4.25492 -0.570511 0
M  V30 9188 C 863.15 -5.10601 -1.55315 0
M  V30 9189 O 863.373 -4.97733 -2.78599 0
M  V30 9190 O 862.307 -5.91927 -1.09112 0
M  V30 9191 H 866.133 -3.00119 0.464988 0
M  V30 9192 H 863.718 -1.46489 0.293462 0
M  V30 9193 H 865.6 -3.78103 -1.86055 0
M  V30 9194 H 864.275 -2.58807 -1.94424 0
M  V30 9195 H 863.182 -3.74041 0.0662587 0
M  V30 9196 H 864.515 -4.92154 0.0674904 0
M  V30 9197 N 866.167 -0.267825 -1.55308 0
M  V30 9198 C 867.395 0.354587 -2.03839 0
M  V30 9199 C 867.81 1.50007 -1.14644 0
M  V30 9200 O 867.167 1.81752 -0.165055 0
M  V30 9201 C 867.218 0.84254 -3.51544 0
M  V30 9202 O 866.939 -0.257318 -4.37344 0
M  V30 9203 C 868.44 1.53351 -4.15931 0
M  V30 9204 H 865.66 0.0818131 -0.665994 0
M  V30 9205 H 868.204 -0.397795 -2.00594 0
M  V30 9206 H 866.359 1.54503 -3.55257 0
M  V30 9207 H 866.773 0.116593 -5.2437 0
M  V30 9208 H 868.247 1.82643 -5.20908 0
M  V30 9209 H 868.724 2.4626 -3.63666 0
M  V30 9210 H 869.33 0.87506 -4.162 0
M  V30 9211 N 867.645 1.57599 0.00500368 0
M  V30 9212 C 868.891 1.90631 0.691919 0
M  V30 9213 C 869.224 0.868443 1.737 0
M  V30 9214 O 868.499 -0.113482 1.94169 0
M  V30 9215 C 868.782 3.34255 1.33961 0
M  V30 9216 C 868.635 4.48755 0.306413 0
M  V30 9217 C 869.954 3.77211 2.26715 0
M  V30 9218 H 867.073 0.693279 0.250066 0
M  V30 9219 H 869.715 1.89946 -0.0452634 0
M  V30 9220 H 867.865 3.3497 1.96793 0
M  V30 9221 H 869.537 4.60176 -0.321841 0
M  V30 9222 H 867.78 4.32203 -0.371852 0
M  V30 9223 H 868.451 5.46193 0.798554 0
M  V30 9224 H 870.927 3.78017 1.73904 0
M  V30 9225 H 869.803 4.78466 2.69002 0
M  V30 9226 H 870.064 3.10801 3.14413 0
M  V30 9227 N 869.123 -0.277682 1.55134 0
M  V30 9228 C 870.369 -1.0114 1.7578 0
M  V30 9229 C 870.702 -1.86109 0.554719 0
M  V30 9230 O 869.977 -1.89275 -0.447813 0
M  V30 9231 C 870.26 -1.89789 3.06027 0
M  V30 9232 C 870.113 -1.07844 4.3668 0
M  V30 9233 C 871.432 -2.88577 3.32282 0
M  V30 9234 H 868.551 -0.366277 0.639539 0
M  V30 9235 H 871.193 -0.284155 1.87863 0
M  V30 9236 H 869.343 -2.51796 2.95856 0
M  V30 9237 H 871.015 -0.479432 4.58802 0
M  V30 9238 H 869.258 -0.381764 4.32117 0
M  V30 9239 H 869.929 -1.73179 5.24131 0
M  V30 9240 H 872.405 -2.36702 3.42215 0
M  V30 9241 H 871.281 -3.47749 4.2469 0
M  V30 9242 H 871.542 -3.63458 2.51696 0
M  V30 9243 N 870.601 -1.47988 -0.541979 0
M  V30 9244 C 871.549 -1.62044 -1.66867 0
M  V30 9245 C 872.543 -0.487217 -1.62242 0
M  V30 9246 O 873.749 -0.66554 -1.67244 0
M  V30 9247 H 870.124 -0.51024 -0.552412 0
M  V30 9248 H 872.095 -2.56695 -1.52153 0
M  V30 9249 C 870.844 -1.66615 -3.0518 0
M  V30 9250 H 870.167 -2.5317 -3.09427 0
M  V30 9251 H 871.607 -1.80496 -3.83663 0
M  V30 9252 C 870.066 -0.402421 -3.34488 0
M  V30 9253 O 870.596 0.48992 -3.98701 0
M  V30 9254 N 868.802 -0.277778 -2.89269 0
M  V30 9255 H 868.349 -1.00488 -2.37192 0
M  V30 9256 H 868.307 0.566784 -3.09249 0
M  V30 9257 N 872.079 0.78992 -1.36375 0
M  V30 9258 C 873.011 1.91113 -1.26524 0
M  V30 9259 C 874.024 1.61747 -0.184851 0
M  V30 9260 O 875.213 1.73004 -0.439524 0
M  V30 9261 C 872.313 3.25908 -0.92937 0
M  V30 9262 C 871.486 3.83057 -2.11154 0
M  V30 9263 C 870.545 4.96289 -1.74881 0
M  V30 9264 O 869.571 5.12834 -2.46962 0
M  V30 9265 N 870.773 5.76478 -0.682193 0
M  V30 9266 H 873.538 2.00085 -2.23128 0
M  V30 9267 H 871.099 0.968165 -1.29762 0
M  V30 9268 H 873.091 3.99151 -0.667884 0
M  V30 9269 H 871.661 3.12556 -0.0524843 0
M  V30 9270 H 870.881 3.01808 -2.53586 0
M  V30 9271 H 872.169 4.1797 -2.90135 0
M  V30 9272 H 871.567 5.65638 -0.0836661 0
M  V30 9273 H 870.124 6.50026 -0.480529 0
M  V30 9274 N 873.557 1.20646 1.01402 0
M  V30 9275 C 874.489 0.915392 2.10127 0
M  V30 9276 C 875.502 -0.0978705 1.62506 0
M  V30 9277 O 876.691 0.133477 1.78 0
M  V30 9278 C 873.791 0.351304 3.37074 0
M  V30 9279 C 872.964 1.41673 4.13821 0
M  V30 9280 C 872.023 0.8635 5.19067 0
M  V30 9281 O 871.049 1.54481 5.47836 0
M  V30 9282 N 872.251 -0.325799 5.79585 0
M  V30 9283 H 875.016 1.85132 2.35682 0
M  V30 9284 H 872.577 1.11048 1.17813 0
M  V30 9285 H 874.569 -0.032996 4.04687 0
M  V30 9286 H 873.139 -0.489242 3.08748 0
M  V30 9287 H 872.359 1.97526 3.41141 0
M  V30 9288 H 873.647 2.1342 4.61876 0
M  V30 9289 H 873.045 -0.896534 5.58551 0
M  V30 9290 H 871.602 -0.651708 6.48534 0
M  V30 9291 N 875.035 -1.20752 1.01276 0
M  V30 9292 C 875.967 -2.22798 0.537917 0
M  V30 9293 C 876.98 -1.5836 -0.377638 0
M  V30 9294 O 878.169 -1.77624 -0.176599 0
M  V30 9295 C 875.269 -3.38068 -0.237364 0
M  V30 9296 C 874.442 -4.32095 0.679161 0
M  V30 9297 C 873.501 -5.26178 -0.0478676 0
M  V30 9298 O 872.527 -5.66305 0.573366 0
M  V30 9299 N 873.729 -5.65201 -1.32396 0
M  V30 9300 H 876.494 -2.64166 1.4155 0
M  V30 9301 H 874.055 -1.35254 0.889826 0
M  V30 9302 H 876.047 -3.98009 -0.73288 0
M  V30 9303 H 874.617 -2.95622 -1.0162 0
M  V30 9304 H 873.837 -3.70179 1.35505 0
M  V30 9305 H 875.125 -4.91842 1.30263 0
M  V30 9306 H 874.523 -5.34606 -1.84968 0
M  V30 9307 H 873.08 -6.27468 -1.76428 0
M  V30 9308 N 876.513 -0.788492 -1.36457 0
M  V30 9309 C 877.79 -0.284484 -1.9352 0
M  V30 9310 C 878.17 1.2232 -1.7205 0
M  V30 9311 O 877.518 2.01424 -1.07892 0
M  V30 9312 C 877.728 -0.676106 -3.42388 0
M  V30 9313 C 879.076 -0.655327 -4.19512 0
M  V30 9314 O 880.1 -0.616523 -3.50824 0
M  V30 9315 O 878.959 -0.697391 -5.42032 0
M  V30 9316 H 876.053 -0.0701769 -0.824017 0
M  V30 9317 H 878.599 -0.870974 -1.45644 0
M  V30 9318 H 877.371 -1.71596 -3.51668 0
M  V30 9319 H 876.994 -0.0634517 -3.97549 0
M  V30 9320 N 877.991 1.48044 -0.54043 0
M  V30 9321 C 878.921 2.32597 0.205178 0
M  V30 9322 C 879.902 1.42748 0.925041 0
M  V30 9323 O 881.087 1.71624 0.908784 0
M  V30 9324 C 878.217 3.24175 1.24612 0
M  V30 9325 C 877.171 4.23131 0.64376 0
M  V30 9326 C 876.497 5.03915 1.78812 0
M  V30 9327 C 877.797 5.20831 -0.39144 0
M  V30 9328 H 879.491 2.95184 -0.500676 0
M  V30 9329 H 877.037 1.41948 -0.242225 0
M  V30 9330 H 878.99 3.82158 1.77576 0
M  V30 9331 H 877.714 2.59608 1.98169 0
M  V30 9332 H 876.373 3.66349 0.135554 0
M  V30 9333 H 876.021 4.35765 2.51232 0
M  V30 9334 H 875.721 5.709 1.39094 0
M  V30 9335 H 877.245 5.64753 2.32134 0
M  V30 9336 H 878.659 5.73277 0.0515064 0
M  V30 9337 H 877.056 5.95926 -0.706569 0
M  V30 9338 H 878.126 4.6733 -1.29345 0
M  V30 9339 N 879.47 0.276058 1.55163 0
M  V30 9340 C 880.695 -0.346648 2.04483 0
M  V30 9341 C 881.12 -1.48613 1.15308 0
M  V30 9342 O 880.478 -1.80663 0.151875 0
M  V30 9343 C 880.526 -0.804268 3.51517 0
M  V30 9344 O 879.63 -1.91143 3.65429 0
M  V30 9345 H 878.971 -0.0715251 0.660136 0
M  V30 9346 H 881.501 0.410631 2.00437 0
M  V30 9347 H 881.511 -1.09977 3.92898 0
M  V30 9348 H 880.186 0.0294123 4.1589 0
M  V30 9349 H 878.763 -1.61839 3.3595 0
M  V30 9350 N 880.948 -1.576 0.00335426 0
M  V30 9351 C 881.878 -2.11668 -0.985839 0
M  V30 9352 C 882.859 -1.02661 -1.35627 0
M  V30 9353 O 884.044 -1.30361 -1.43943 0
M  V30 9354 C 881.174 -2.62273 -2.27662 0
M  V30 9355 C 880.128 -3.75837 -2.0477 0
M  V30 9356 C 879.454 -4.12769 -3.39891 0
M  V30 9357 C 880.754 -5.02975 -1.40759 0
M  V30 9358 H 882.448 -2.9457 -0.535637 0
M  V30 9359 H 879.994 -1.41702 -0.256204 0
M  V30 9360 H 881.947 -2.98727 -2.97221 0
M  V30 9361 H 880.671 -1.76498 -2.74802 0
M  V30 9362 H 879.33 -3.39782 -1.37636 0
M  V30 9363 H 878.978 -3.24013 -3.8474 0
M  V30 9364 H 878.678 -4.89281 -3.25389 0
M  V30 9365 H 880.202 -4.51784 -4.1076 0
M  V30 9366 H 881.616 -5.37179 -2.00279 0
M  V30 9367 H 880.013 -5.84315 -1.36734 0
M  V30 9368 H 881.083 -4.83431 -0.377218 0
M  V30 9369 N 882.426 0.269451 -1.5528 0
M  V30 9370 C 883.703 1.02207 -1.66773 0
M  V30 9371 C 884.083 2.04168 -0.536536 0
M  V30 9372 O 883.431 2.23761 0.462956 0
M  V30 9373 C 883.641 1.67569 -3.0614 0
M  V30 9374 C 884.989 2.18599 -3.64005 0
M  V30 9375 O 886.013 1.7755 -3.08795 0
M  V30 9376 O 884.872 2.93903 -4.60742 0
M  V30 9377 H 881.966 0.474314 -0.677462 0
M  V30 9378 H 884.512 0.265026 -1.67618 0
M  V30 9379 H 883.284 0.937029 -3.79915 0
M  V30 9380 H 882.907 2.49951 -3.09209 0
M  V30 9381 N 883.904 1.48273 0.534124 0
M  V30 9382 C 884.836 1.5857 1.65494 0
M  V30 9383 C 885.849 0.470266 1.5586 0
M  V30 9384 O 887.038 0.740928 1.62396 0
M  V30 9385 C 884.138 1.49554 3.04117 0
M  V30 9386 C 883.311 2.76066 3.39273 0
M  V30 9387 C 882.37 2.60562 4.57159 0
M  V30 9388 O 881.396 3.34438 4.60587 0
M  V30 9389 N 882.598 1.69906 5.55079 0
M  V30 9390 H 885.363 2.55226 1.57099 0
M  V30 9391 H 882.924 1.44944 0.721303 0
M  V30 9392 H 884.916 1.36882 3.80848 0
M  V30 9393 H 883.486 0.608895 3.06613 0
M  V30 9394 H 882.706 3.03332 2.51761 0
M  V30 9395 H 883.994 3.60006 3.59546 0
M  V30 9396 H 883.392 1.09079 5.55084 0
M  V30 9397 H 881.949 1.63175 6.31044 0
M  V30 9398 N 885.382 -0.782676 1.36792 0
M  V30 9399 C 886.345 -1.8772 1.31507 0
M  V30 9400 C 887.345 -1.59269 0.221349 0
M  V30 9401 O 888.535 -1.67555 0.476544 0
M  V30 9402 C 885.667 -3.24641 1.04025 0
M  V30 9403 H 886.86 -1.9382 2.28853 0
M  V30 9404 H 884.413 -0.981226 1.21662 0
M  V30 9405 H 885.148 -3.24221 0.0716439 0
M  V30 9406 H 884.933 -3.46681 1.8318 0
M  V30 9407 H 886.423 -4.04711 1.02949 0
M  V30 9408 N 886.86 -1.21182 -1.00761 0
M  V30 9409 C 887.807 -0.968741 -2.09485 0
M  V30 9410 C 888.777 0.104325 -1.65772 0
M  V30 9411 O 889.962 -0.0422587 -1.90753 0
M  V30 9412 C 887.102 -0.536686 -3.40901 0
M  V30 9413 C 886.215 -1.6789 -3.98041 0
M  V30 9414 C 885.35 -1.19627 -5.17555 0
M  V30 9415 C 884.389 -2.31099 -5.66798 0
M  V30 9416 N 883.526 -1.83988 -6.77564 0
M  V30 9417 H 888.366 -1.89952 -2.29613 0
M  V30 9418 H 885.903 -0.946688 -1.12589 0
M  V30 9419 H 887.861 -0.26745 -4.16342 0
M  V30 9420 H 886.491 0.357092 -3.20819 0
M  V30 9421 H 885.543 -2.06284 -3.19611 0
M  V30 9422 H 886.855 -2.51794 -4.30582 0
M  V30 9423 H 886.009 -0.883539 -6.00232 0
M  V30 9424 H 884.748 -0.327244 -4.86601 0
M  V30 9425 H 883.753 -2.63178 -4.82719 0
M  V30 9426 H 884.978 -3.18493 -5.99782 0
M  V30 9427 H 882.924 -0.994257 -6.48422 0
M  V30 9428 H 882.841 -2.61466 -7.09346 0
M  V30 9429 H 884.109 -1.55741 -7.63783 0
M  V30 9430 N 888.338 1.20213 -1.01915 0
M  V30 9431 C 889.587 1.88968 -0.705261 0
M  V30 9432 C 889.9 1.79869 0.768531 0
M  V30 9433 O 891.106 2.43783 1.19508 0
M  V30 9434 C 889.562 3.38911 -1.21109 0
M  V30 9435 C 889.17 3.5659 -2.71197 0
M  V30 9436 C 890.914 4.13204 -0.97275 0
M  V30 9437 C 888.821 5.00372 -3.15248 0
M  V30 9438 H 887.751 0.707715 -0.260107 0
M  V30 9439 H 890.402 1.35977 -1.23217 0
M  V30 9440 H 888.784 3.9124 -0.612152 0
M  V30 9441 H 889.958 3.14635 -3.36662 0
M  V30 9442 H 888.273 2.95671 -2.93202 0
M  V30 9443 H 890.87 5.19221 -1.27726 0
M  V30 9444 H 891.213 4.16201 0.09072 0
M  V30 9445 H 891.746 3.66983 -1.5352 0
M  V30 9446 H 888.485 5.02532 -4.20882 0
M  V30 9447 H 888.005 5.43127 -2.54505 0
M  V30 9448 H 889.684 5.68969 -3.08032 0
M  V30 9449 N 889.816 0.795718 1.36037 0
M  V30 9450 C 890.779 0.204318 2.28287 0
M  V30 9451 C 891.779 -0.602017 1.49105 0
M  V30 9452 O 892.969 -0.422089 1.69009 0
M  V30 9453 C 890.101 -0.716431 3.33287 0
M  V30 9454 H 891.294 1.01781 2.821 0
M  V30 9455 H 888.847 0.565588 1.45708 0
M  V30 9456 H 889.582 -1.55403 2.84641 0
M  V30 9457 H 889.367 -0.140096 3.9185 0
M  V30 9458 H 890.857 -1.12488 4.02164 0
M  V30 9459 N 891.294 -1.47756 0.548274 0
M  V30 9460 C 892.224 -2.32702 -0.19284 0
M  V30 9461 C 893.205 -1.43237 -0.917457 0
M  V30 9462 O 894.39 -1.72103 -0.89967 0
M  V30 9463 C 891.52 -3.24831 -1.22891 0
M  V30 9464 C 890.474 -4.23466 -0.621312 0
M  V30 9465 C 889.8 -5.04856 -1.76137 0
M  V30 9466 C 891.1 -5.20616 0.419055 0
M  V30 9467 H 892.794 -2.94914 0.516323 0
M  V30 9468 H 890.34 -1.41818 0.24975 0
M  V30 9469 H 892.293 -3.83094 -1.75547 0
M  V30 9470 H 891.017 -2.60656 -1.9679 0
M  V30 9471 H 889.676 -3.66416 -0.116123 0
M  V30 9472 H 889.324 -4.37091 -2.48918 0
M  V30 9473 H 889.024 -5.71629 -1.36065 0
M  V30 9474 H 890.548 -5.65976 -2.29136 0
M  V30 9475 H 891.962 -5.73296 -0.0211034 0
M  V30 9476 H 890.359 -5.95543 0.738163 0
M  V30 9477 H 891.429 -4.66638 1.31822 0
M  V30 9478 N 892.772 -0.284283 -1.55015 0
M  V30 9479 C 894.188 0.069603 -1.59448 0
M  V30 9480 C 894.388 1.53833 -1.30144 0
M  V30 9481 O 893.444 2.2886 -1.06674 0
M  V30 9482 C 894.757 -0.313287 -2.99064 0
M  V30 9483 C 896.305 -0.260662 -3.11913 0
M  V30 9484 C 896.78 -0.618127 -4.5381 0
M  V30 9485 N 898.271 -0.570026 -4.59679 0
M  V30 9486 C 899.006 -0.8193 -5.67517 0
M  V30 9487 N 898.502 -1.13367 -6.83462 0
M  V30 9488 N 900.295 -0.747482 -5.57108 0
M  V30 9489 H 892.446 -1.24167 -1.72326 0
M  V30 9490 H 894.709 -0.502259 -0.804015 0
M  V30 9491 H 894.415 -1.33509 -3.25374 0
M  V30 9492 H 894.289 0.341369 -3.75652 0
M  V30 9493 H 896.676 0.751869 -2.85361 0
M  V30 9494 H 896.757 -0.949706 -2.37517 0
M  V30 9495 H 896.401 -1.62839 -4.81088 0
M  V30 9496 H 896.331 0.092807 -5.26518 0
M  V30 9497 H 898.822 -0.3373 -3.76392 0
M  V30 9498 H 899.135 -1.3103 -7.61611 0
M  V30 9499 H 897.48 -1.17154 -6.85055 0
M  V30 9500 H 900.671 -0.501658 -4.65404 0
M  V30 9501 H 900.844 -0.945128 -6.4107 0
M  V30 9502 N 894.251 1.57596 -0.0117121 0
M  V30 9503 C 895.199 2.1029 0.994035 0
M  V30 9504 C 896.193 1.02549 1.34833 0
M  V30 9505 O 897.399 1.21003 1.3326 0
M  V30 9506 H 893.774 0.671624 0.338268 0
M  V30 9507 H 895.745 2.93761 0.524147 0
M  V30 9508 C 894.494 2.63099 2.27319 0
M  V30 9509 H 893.817 3.45642 2.00927 0
M  V30 9510 H 895.257 3.03635 2.95942 0
M  V30 9511 C 893.716 1.55044 2.99104 0
M  V30 9512 O 894.246 0.940127 3.90544 0
M  V30 9513 N 892.452 1.27506 2.61133 0
M  V30 9514 H 891.999 1.77322 1.86855 0
M  V30 9515 H 891.957 0.554292 3.09475 0
M  V30 9516 N 895.729 -0.261212 1.5542 0
M  V30 9517 C 896.954 -1.01341 1.80955 0
M  V30 9518 C 897.379 -1.78711 0.586849 0
M  V30 9519 O 896.737 -1.75266 -0.463837 0
M  V30 9520 C 896.785 -1.93835 3.04073 0
M  V30 9521 O 895.889 -3.02791 2.79985 0
M  V30 9522 H 895.23 -0.289123 0.597749 0
M  V30 9523 H 897.76 -0.286543 2.02584 0
M  V30 9524 H 897.77 -2.3557 3.33123 0
M  V30 9525 H 896.445 -1.36936 3.9271 0
M  V30 9526 H 895.022 -2.65287 2.62063 0
M  V30 9527 N 897.207 -1.48554 -0.526253 0
M  V30 9528 C 898.623 -1.34757 -0.855138 0
M  V30 9529 C 898.823 -0.36142 -1.98232 0
M  V30 9530 O 897.879 0.216026 -2.51574 0
M  V30 9531 C 899.192 -2.74877 -1.21915 0
M  V30 9532 C 900.74 -2.83393 -1.32882 0
M  V30 9533 C 901.215 -4.24223 -1.72624 0
M  V30 9534 N 902.706 -4.26913 -1.7972 0
M  V30 9535 C 903.441 -5.32824 -2.11863 0
M  V30 9536 N 902.937 -6.49008 -2.42405 0
M  V30 9537 N 904.73 -5.20221 -2.12901 0
M  V30 9538 H 896.881 -2.11284 0.217422 0
M  V30 9539 H 899.144 -0.947367 0.0346362 0
M  V30 9540 H 898.85 -3.48619 -0.464486 0
M  V30 9541 H 898.724 -3.0864 -2.16844 0
M  V30 9542 H 901.111 -2.09904 -2.07424 0
M  V30 9543 H 901.192 -2.53245 -0.360638 0
M  V30 9544 H 900.836 -4.98229 -0.986411 0
M  V30 9545 H 900.766 -4.51817 -2.70498 0
M  V30 9546 H 903.257 -3.4311 -1.58379 0
M  V30 9547 H 903.57 -7.25561 -2.66048 0
M  V30 9548 H 901.915 -6.52277 -2.39917 0
M  V30 9549 H 905.106 -4.28469 -1.885 0
M  V30 9550 H 905.279 -6.02861 -2.37619 0
M  V30 9551 N 898.685 0.775411 -1.37205 0
M  V30 9552 C 900.101 1.07546 -1.17924 0
M  V30 9553 C 900.301 2.01496 -0.0128897 0
M  V30 9554 O 899.357 2.44039 0.64816 0
M  V30 9555 C 900.67 1.67647 -2.49629 0
M  V30 9556 C 902.218 1.79923 -2.56119 0
M  V30 9557 C 902.693 2.43438 -3.87946 0
M  V30 9558 N 904.184 2.50893 -3.89368 0
M  V30 9559 C 904.919 3.00881 -4.88117 0
M  V30 9560 N 904.415 3.5107 -5.97262 0
M  V30 9561 N 906.208 2.99722 -4.75524 0
M  V30 9562 H 898.359 0.151524 -2.11859 0
M  V30 9563 H 900.622 0.129845 -0.939066 0
M  V30 9564 H 900.328 1.06082 -3.3532 0
M  V30 9565 H 900.202 2.66988 -2.66453 0
M  V30 9566 H 902.589 2.40621 -1.70838 0
M  V30 9567 H 902.67 0.793482 -2.43182 0
M  V30 9568 H 902.314 1.8338 -4.73639 0
M  V30 9569 H 902.244 3.44611 -3.98184 0
M  V30 9570 H 904.735 2.1537 -3.10522 0
M  V30 9571 H 905.048 3.87604 -6.68568 0
M  V30 9572 H 903.393 3.49184 -6.00912 0
M  V30 9573 H 906.584 2.5981 -3.8938 0
M  V30 9574 H 906.757 3.38369 -5.52639 0
M  V30 9575 N 900.163 1.21714 1.00117 0
M  V30 9576 C 901.093 1.00397 2.10815 0
M  V30 9577 C 902.074 -0.0723502 1.69946 0
M  V30 9578 O 903.259 0.0882398 1.93999 0
M  V30 9579 C 900.389 0.572001 3.42557 0
M  V30 9580 C 899.343 1.59331 3.97237 0
M  V30 9581 C 898.669 1.01746 5.2493 0
M  V30 9582 C 899.969 2.98117 4.28863 0
M  V30 9583 H 901.663 1.92983 2.28906 0
M  V30 9584 H 899.209 0.929273 1.10002 0
M  V30 9585 H 901.162 0.410018 4.19401 0
M  V30 9586 H 899.886 -0.38951 3.24269 0
M  V30 9587 H 898.545 1.74293 3.22518 0
M  V30 9588 H 898.193 0.0475491 5.02978 0
M  V30 9589 H 897.893 1.69969 5.62481 0
M  V30 9590 H 899.417 0.866881 6.04415 0
M  V30 9591 H 900.831 2.86578 4.96534 0
M  V30 9592 H 899.228 3.63389 4.77565 0
M  V30 9593 H 900.298 3.48674 3.36979 0
M  V30 9594 N 901.641 -1.19671 1.02551 0
M  V30 9595 C 902.571 -2.25009 0.623965 0
M  V30 9596 C 903.552 -1.66129 -0.36538 0
M  V30 9597 O 904.737 -1.92599 -0.248842 0
M  V30 9598 C 901.867 -3.47287 -0.0294869 0
M  V30 9599 C 900.821 -4.18818 0.881781 0
M  V30 9600 C 900.147 -5.34618 0.0936189 0
M  V30 9601 C 901.447 -4.73986 2.19396 0
M  V30 9602 H 903.141 -2.58851 1.50454 0
M  V30 9603 H 900.687 -1.24425 0.724872 0
M  V30 9604 H 902.64 -4.20168 -0.322016 0
M  V30 9605 H 901.364 -3.12635 -0.944838 0
M  V30 9606 H 900.023 -3.47815 1.15845 0
M  V30 9607 H 899.671 -4.9621 -0.823661 0
M  V30 9608 H 899.371 -5.83409 0.700568 0
M  V30 9609 H 900.895 -6.10297 -0.192249 0
M  V30 9610 H 902.309 -5.38639 1.96319 0
M  V30 9611 H 900.706 -5.3325 2.75254 0
M  V30 9612 H 901.776 -3.92238 2.85092 0
M  V30 9613 N 903.119 -0.802921 -1.35613 0
M  V30 9614 C 904.535 -0.486214 -1.52014 0
M  V30 9615 C 904.735 0.993219 -1.75321 0
M  V30 9616 O 903.791 1.77835 -1.79251 0
M  V30 9617 C 905.104 -1.32839 -2.69767 0
M  V30 9618 C 906.652 -1.32346 -2.83643 0
M  V30 9619 C 907.127 -2.14967 -4.04417 0
M  V30 9620 N 908.618 -2.12484 -4.11588 0
M  V30 9621 C 909.353 -2.73173 -5.04147 0
M  V30 9622 N 908.849 -3.42774 -6.02061 0
M  V30 9623 N 910.642 -2.62834 -4.96865 0
M  V30 9624 H 902.793 -1.76109 -1.18741 0
M  V30 9625 H 905.056 -0.74936 -0.580658 0
M  V30 9626 H 904.762 -2.37813 -2.5911 0
M  V30 9627 H 904.636 -0.979058 -3.64272 0
M  V30 9628 H 907.023 -0.281586 -2.93753 0
M  V30 9629 H 907.104 -1.71264 -1.90006 0
M  V30 9630 H 906.748 -3.19193 -3.95068 0
M  V30 9631 H 906.678 -1.73411 -4.97228 0
M  V30 9632 H 909.169 -1.61839 -3.41492 0
M  V30 9633 H 909.482 -3.86378 -6.69277 0
M  V30 9634 H 907.827 -3.46878 -6.02246 0
M  V30 9635 H 911.018 -2.08049 -4.19325 0
M  V30 9636 H 911.191 -3.10421 -5.68808 0
M  V30 9637 N 904.597 1.47463 -0.556102 0
M  V30 9638 C 905.527 2.32801 0.180497 0
M  V30 9639 C 906.508 1.43721 0.909848 0
M  V30 9640 O 907.693 1.72578 0.89053 0
M  V30 9641 C 904.823 3.25478 1.21167 0
M  V30 9642 C 903.777 4.2379 0.598846 0
M  V30 9643 C 903.103 5.05783 1.73457 0
M  V30 9644 C 904.403 5.20387 -0.446659 0
M  V30 9645 H 906.097 2.94636 -0.531956 0
M  V30 9646 H 903.643 1.41683 -0.257267 0
M  V30 9647 H 905.596 3.8402 1.73513 0
M  V30 9648 H 904.32 2.61695 1.95405 0
M  V30 9649 H 902.979 3.66472 0.0966897 0
M  V30 9650 H 902.627 4.38405 2.46596 0
M  V30 9651 H 902.327 5.72343 1.33031 0
M  V30 9652 H 903.851 5.67183 2.26131 0
M  V30 9653 H 905.265 5.73299 -0.00930019 0
M  V30 9654 H 903.662 5.95143 -0.769735 0
M  V30 9655 H 904.732 4.65932 -1.34295 0
M  V30 9656 N 906.075 0.2925 1.54862 0
M  V30 9657 C 907.321 -0.319736 2.00264 0
M  V30 9658 C 907.654 -1.5419 1.18064 0
M  V30 9659 O 906.929 -1.92821 0.254983 0
M  V30 9660 C 907.212 -0.684753 3.5353 0
M  V30 9661 C 907.065 0.545961 4.46474 0
M  V30 9662 C 908.384 -1.51456 4.13218 0
M  V30 9663 H 905.503 -0.11474 0.728014 0
M  V30 9664 H 908.145 0.402907 1.85679 0
M  V30 9665 H 906.295 -1.30044 3.66089 0
M  V30 9666 H 907.967 1.18448 4.45834 0
M  V30 9667 H 906.21 1.1808 4.1742 0
M  V30 9668 H 906.881 0.246544 5.51449 0
M  V30 9669 H 909.357 -0.994421 4.04043 0
M  V30 9670 H 908.233 -1.73875 5.20633 0
M  V30 9671 H 908.494 -2.5011 3.64551 0
M  V30 9672 N 907.553 -1.57587 0.0200696 0
M  V30 9673 C 908.501 -2.10814 -0.982868 0
M  V30 9674 C 909.495 -1.03263 -1.34287 0
M  V30 9675 O 910.701 -1.21708 -1.32617 0
M  V30 9676 H 907.076 -0.673409 -0.334701 0
M  V30 9677 H 909.047 -2.94034 -0.50856 0
M  V30 9678 C 907.796 -2.64301 -2.25921 0
M  V30 9679 H 907.119 -3.46703 -1.99091 0
M  V30 9680 H 908.559 -3.052 -2.94328 0
M  V30 9681 C 907.018 -1.56628 -2.98277 0
M  V30 9682 O 907.548 -0.960825 -3.9004 0
M  V30 9683 N 905.754 -1.28889 -2.60453 0
M  V30 9684 H 905.301 -1.7831 -1.85912 0
M  V30 9685 H 905.259 -0.570697 -3.09177 0
M  V30 9686 N 909.032 0.252966 -1.55557 0
M  V30 9687 C 909.964 1.33585 -1.86246 0
M  V30 9688 C 910.977 1.44584 -0.748291 0
M  V30 9689 O 912.166 1.46042 -1.02635 0
M  V30 9690 C 909.266 2.71509 -2.02821 0
M  V30 9691 C 908.439 2.82853 -3.33636 0
M  V30 9692 C 907.498 4.01581 -3.40028 0
M  V30 9693 O 906.524 3.91394 -4.13278 0
M  V30 9694 N 907.726 5.14474 -2.6888 0
M  V30 9695 H 910.491 1.07596 -2.7972 0
M  V30 9696 H 908.052 0.443075 -1.55719 0
M  V30 9697 H 910.044 3.49262 -2.04445 0
M  V30 9698 H 908.614 2.90232 -1.1612 0
M  V30 9699 H 907.834 1.91823 -3.4438 0
M  V30 9700 H 909.122 2.87378 -4.19871 0
M  V30 9701 H 908.52 5.25641 -2.09087 0
M  V30 9702 H 907.077 5.90385 -2.76204 0
M  V30 9703 N 910.51 1.48831 0.518367 0
M  V30 9704 C 911.44 1.67119 1.63075 0
M  V30 9705 C 912.421 0.519948 1.61958 0
M  V30 9706 O 913.606 0.753824 1.78972 0
M  V30 9707 C 910.736 1.72158 3.01627 0
M  V30 9708 C 909.69 2.86898 3.17606 0
M  V30 9709 C 909.016 2.77035 4.57335 0
M  V30 9710 C 910.316 4.28057 2.99274 0
M  V30 9711 H 912.01 2.60248 1.48025 0
M  V30 9712 H 909.556 1.2524 0.710694 0
M  V30 9713 H 911.509 1.83539 3.7933 0
M  V30 9714 H 910.233 0.756157 3.17726 0
M  V30 9715 H 908.892 2.75091 2.42323 0
M  V30 9716 H 908.54 1.78438 4.70286 0
M  V30 9717 H 908.24 3.54036 4.6897 0
M  V30 9718 H 909.764 2.904 5.37122 0
M  V30 9719 H 911.178 4.40636 3.6676 0
M  V30 9720 H 909.575 5.06145 3.22393 0
M  V30 9721 H 910.645 4.4371 1.95574 0
M  V30 9722 N 911.988 -0.768124 1.37614 0
M  V30 9723 C 912.918 -1.89537 1.36374 0
M  V30 9724 C 913.899 -1.68513 0.231803 0
M  V30 9725 O 915.084 -1.89318 0.432705 0
M  V30 9726 C 912.214 -3.26871 1.17358 0
M  V30 9727 C 911.168 -3.62466 2.27602 0
M  V30 9728 C 910.494 -4.9838 1.93705 0
M  V30 9729 C 911.794 -3.68841 3.69802 0
M  V30 9730 H 913.488 -1.90832 2.30702 0
M  V30 9731 H 911.034 -0.91672 1.11051 0
M  V30 9732 H 912.987 -4.05371 1.15119 0
M  V30 9733 H 911.711 -3.26018 0.194865 0
M  V30 9734 H 910.37 -2.86276 2.29002 0
M  V30 9735 H 910.018 -4.94071 0.943539 0
M  V30 9736 H 909.718 -5.23165 2.6753 0
M  V30 9737 H 911.242 -5.79276 1.93059 0
M  V30 9738 H 912.656 -4.37485 3.70513 0
M  V30 9739 H 911.053 -4.05126 4.42711 0
M  V30 9740 H 912.123 -2.69415 4.03167 0
M  V30 9741 N 913.466 -1.22244 -0.994698 0
M  V30 9742 C 914.743 -0.954459 -1.70732 0
M  V30 9743 C 915.123 0.530945 -2.04314 0
M  V30 9744 O 914.471 1.49851 -1.72502 0
M  V30 9745 C 914.681 -1.85016 -2.95922 0
M  V30 9746 C 916.029 -2.10517 -3.68738 0
M  V30 9747 O 917.053 -1.82449 -3.05926 0
M  V30 9748 O 915.912 -2.58044 -4.81742 0
M  V30 9749 H 913.006 -0.35879 -0.745116 0
M  V30 9750 H 915.552 -1.33221 -1.0512 0
M  V30 9751 H 914.324 -2.85498 -2.67594 0
M  V30 9752 H 913.947 -1.47388 -3.69273 0
M  V30 9753 N 914.944 1.19125 -1.03184 0
M  V30 9754 C 915.874 2.24675 -0.635889 0
M  V30 9755 C 916.855 1.66321 0.356565 0
M  V30 9756 O 918.04 1.92728 0.238625 0
M  V30 9757 C 915.17 3.47298 0.011069 0
M  V30 9758 C 914.124 4.18345 -0.903979 0
M  V30 9759 C 913.45 5.34561 -0.12197 0
M  V30 9760 C 914.75 4.72816 -2.21907 0
M  V30 9761 H 916.444 2.5805 -1.51825 0
M  V30 9762 H 913.99 1.24039 -0.73146 0
M  V30 9763 H 915.943 4.20333 0.299729 0
M  V30 9764 H 914.667 3.13131 0.928245 0
M  V30 9765 H 913.326 3.47196 -1.17688 0
M  V30 9766 H 912.974 4.9664 0.797334 0
M  V30 9767 H 912.674 5.83029 -0.731498 0
M  V30 9768 H 914.198 6.10391 0.159881 0
M  V30 9769 H 915.612 5.3759 -1.99173 0
M  V30 9770 H 914.009 5.31782 -2.78078 0
M  V30 9771 H 915.079 3.9072 -2.87168 0
M  V30 9772 N 916.422 0.810101 1.35185 0
M  V30 9773 C 917.354 0.180581 2.28488 0
M  V30 9774 C 918.367 -0.622154 1.50443 0
M  V30 9775 O 919.556 -0.453938 1.72632 0
M  V30 9776 C 916.656 -0.766447 3.30119 0
M  V30 9777 C 915.829 -0.00932028 4.37399 0
M  V30 9778 C 914.888 -0.875354 5.18868 0
M  V30 9779 O 913.914 -0.325012 5.68271 0
M  V30 9780 N 915.116 -2.19695 5.37321 0
M  V30 9781 H 917.881 0.98212 2.83151 0
M  V30 9782 H 915.442 0.665879 1.47573 0
M  V30 9783 H 917.434 -1.35012 3.81515 0
M  V30 9784 H 916.004 -1.46878 2.75945 0
M  V30 9785 H 915.224 0.755585 3.86891 0
M  V30 9786 H 916.512 0.512352 5.06214 0
M  V30 9787 H 915.91 -2.66797 4.98834 0
M  V30 9788 H 914.467 -2.72978 5.91884 0
M  V30 9789 N 917.9 -1.47166 0.563914 0
M  V30 9790 C 919.316 -1.58018 0.224173 0
M  V30 9791 C 919.516 -1.56163 -1.27339 0
M  V30 9792 O 918.572 -1.4686 -2.05398 0
M  V30 9793 C 919.885 -2.88236 0.856762 0
M  V30 9794 C 921.433 -3.01833 0.82861 0
M  V30 9795 C 921.908 -4.34761 1.44039 0
M  V30 9796 N 923.399 -4.41413 1.40388 0
M  V30 9797 C 924.134 -5.42845 1.84681 0
M  V30 9798 N 923.63 -6.51052 2.3686 0
M  V30 9799 N 925.423 -5.33931 1.75711 0
M  V30 9800 H 917.574 -1.46615 1.53681 0
M  V30 9801 H 919.837 -0.698195 0.64127 0
M  V30 9802 H 919.543 -2.95349 1.90949 0
M  V30 9803 H 919.417 -3.75537 0.353766 0
M  V30 9804 H 921.804 -2.94312 -0.215451 0
M  V30 9805 H 921.885 -2.16056 1.36943 0
M  V30 9806 H 921.529 -4.43037 2.48355 0
M  V30 9807 H 921.459 -5.1928 0.874953 0
M  V30 9808 H 923.95 -3.63811 1.02227 0
M  V30 9809 H 924.263 -7.24633 2.68564 0
M  V30 9810 H 922.608 -6.51924 2.40875 0
M  V30 9811 H 925.799 -4.48295 1.34718 0
M  V30 9812 H 925.972 -6.12841 2.10547 0
M  V30 9813 N 919.378 -0.300708 -1.54705 0
M  V30 9814 C 920.625 0.308654 -2.00134 0
M  V30 9815 C 920.953 1.53918 -1.1891 0
M  V30 9816 O 920.208 1.94054 -0.253263 0
M  V30 9817 C 920.507 0.710108 -3.50275 0
M  V30 9818 C 920.173 -0.418651 -4.48952 0
M  V30 9819 C 918.835 -0.728524 -4.75653 0
M  V30 9820 C 921.187 -1.17797 -5.07714 0
M  V30 9821 C 918.515 -1.80085 -5.58378 0
M  V30 9822 C 920.867 -2.24022 -5.91606 0
M  V30 9823 C 919.531 -2.55616 -6.16617 0
M  V30 9824 H 918.801 0.112945 -0.732342 0
M  V30 9825 H 921.448 -0.419744 -1.86843 0
M  V30 9826 H 919.753 1.51859 -3.61173 0
M  V30 9827 H 921.45 1.19277 -3.8285 0
M  V30 9828 H 918.04 -0.167034 -4.28274 0
M  V30 9829 H 922.224 -0.951835 -4.87087 0
M  V30 9830 H 917.48 -2.05036 -5.75995 0
M  V30 9831 H 921.654 -2.83317 -6.36164 0
M  V30 9832 H 919.281 -3.38839 -6.80509 0
M  V30 9833 N 920.856 1.57574 -0.0284266 0
M  V30 9834 C 922.133 1.83064 0.688979 0
M  V30 9835 C 922.513 0.91219 1.90374 0
M  V30 9836 O 921.861 -0.0323672 2.28477 0
M  V30 9837 C 922.071 3.32262 1.06785 0
M  V30 9838 C 923.419 3.98717 1.45978 0
M  V30 9839 O 924.443 3.36753 1.16085 0
M  V30 9840 O 923.302 5.07927 2.01673 0
M  V30 9841 H 920.396 0.7548 0.337944 0
M  V30 9842 H 922.942 1.69607 -0.0560555 0
M  V30 9843 H 921.714 3.90772 0.203235 0
M  V30 9844 H 921.337 3.50823 1.87107 0
M  V30 9845 N 922.334 -0.244713 1.55689 0
M  V30 9846 C 923.297 -1.2864 1.89695 0
M  V30 9847 C 924.297 -1.40969 0.773583 0
M  V30 9848 O 925.487 -1.39632 1.04156 0
M  V30 9849 C 922.619 -2.66379 2.12732 0
M  V30 9850 H 923.812 -0.997033 2.82841 0
M  V30 9851 H 921.365 -0.484103 1.48614 0
M  V30 9852 H 922.1 -3.00452 1.22062 0
M  V30 9853 H 921.885 -2.58812 2.94549 0
M  V30 9854 H 923.375 -3.41592 2.40218 0
M  V30 9855 N 923.813 -1.49104 -0.510467 0
M  V30 9856 C 925.061 -1.578 -1.26268 0
M  V30 9857 C 925.382 -0.262349 -1.93227 0
M  V30 9858 O 924.652 0.717624 -1.82283 0
M  V30 9859 H 923.232 -0.581387 -0.46904 0
M  V30 9860 H 925.894 -1.85678 -0.592423 0
M  V30 9861 H 924.99 -2.36919 -2.03165 0
M  V30 9862 N 925.291 0.760815 -1.38019 0
M  V30 9863 C 926.707 1.06289 -1.19058 0
M  V30 9864 C 926.907 2.01471 -0.0342603 0
M  V30 9865 O 925.963 2.44713 0.62224 0
M  V30 9866 C 927.276 1.6499 -2.51394 0
M  V30 9867 C 928.824 1.77196 -2.58013 0
M  V30 9868 C 929.299 2.3931 -3.90506 0
M  V30 9869 N 930.79 2.46749 -3.92007 0
M  V30 9870 C 931.525 2.95687 -4.91281 0
M  V30 9871 N 931.021 3.44715 -6.00952 0
M  V30 9872 N 932.814 2.94661 -4.78677 0
M  V30 9873 H 924.965 0.129045 -2.12008 0
M  V30 9874 H 927.228 0.119878 -0.94039 0
M  V30 9875 H 926.934 1.0252 -3.36426 0
M  V30 9876 H 926.808 2.64146 -2.6927 0
M  V30 9877 H 929.195 2.38796 -1.7338 0
M  V30 9878 H 929.276 0.767645 -2.4401 0
M  V30 9879 H 928.92 1.78346 -4.75558 0
M  V30 9880 H 928.85 3.40369 -4.01817 0
M  V30 9881 H 931.341 2.12064 -3.12789 0
M  V30 9882 H 931.654 3.80492 -6.72641 0
M  V30 9883 H 929.999 3.42791 -6.04582 0
M  V30 9884 H 933.19 2.55665 -3.92113 0
M  V30 9885 H 933.363 3.32489 -5.56197 0
M  V30 9886 N 926.769 1.22769 0.988202 0
M  V30 9887 C 927.702 0.945196 2.07705 0
M  V30 9888 C 928.68 -0.11363 1.62202 0
M  V30 9889 O 929.864 0.0189624 1.8849 0
M  V30 9890 C 926.991 0.422474 3.36055 0
M  V30 9891 C 926.037 1.4667 4.00487 0
M  V30 9892 S 926.87 3.04158 4.40736 0
M  V30 9893 C 928.026 2.53536 5.7225 0
M  V30 9894 H 928.259 1.86723 2.31348 0
M  V30 9895 H 925.792 1.05928 1.12333 0
M  V30 9896 H 927.75 0.12748 4.10302 0
M  V30 9897 H 926.411 -0.478515 3.10434 0
M  V30 9898 H 925.604 1.05093 4.92921 0
M  V30 9899 H 925.206 1.71064 3.32585 0
M  V30 9900 H 927.498 1.95069 6.4881 0
M  V30 9901 H 928.441 3.44479 6.1866 0
M  V30 9902 H 928.849 1.94658 5.29876 0
M  V30 9903 N 928.247 -1.18576 1.03814 0
M  V30 9904 C 929.179 -2.21607 0.585055 0
M  V30 9905 C 930.192 -1.59125 -0.343963 0
M  V30 9906 O 931.381 -1.77959 -0.138882 0
M  V30 9907 C 928.481 -3.38495 -0.165602 0
M  V30 9908 C 927.654 -4.30557 0.770662 0
M  V30 9909 C 926.713 -5.26161 0.0637534 0
M  V30 9910 O 925.739 -5.64961 0.693359 0
M  V30 9911 N 926.941 -5.67882 -1.20377 0
M  V30 9912 H 929.706 -2.61104 1.47121 0
M  V30 9913 H 927.267 -1.33336 0.918316 0
M  V30 9914 H 929.259 -3.99474 -0.648292 0
M  V30 9915 H 927.829 -2.97711 -0.953268 0
M  V30 9916 H 927.049 -3.67221 1.43326 0
M  V30 9917 H 928.337 -4.88969 1.40667 0
M  V30 9918 H 927.735 -5.38409 -1.73586 0
M  V30 9919 H 926.292 -6.31069 -1.63079 0
M  V30 9920 N 929.725 -0.817259 -1.34754 0
M  V30 9921 C 931.136 -0.462215 -1.80888 0
M  V30 9922 C 931.487 1.01685 -1.67794 0
M  V30 9923 O 930.612 1.79094 -1.21468 0
M  V30 9924 C 931.207 -0.832204 -3.2842 0
M  V30 9925 C 929.766 -0.52961 -3.72655 0
M  V30 9926 C 928.913 -1.05214 -2.56564 0
M  V30 9927 H 931.864 -1.00795 -1.22581 0
M  V30 9928 H 931.885 -0.133804 -3.80265 0
M  V30 9929 H 931.397 -1.90873 -3.37919 0
M  V30 9930 H 929.498 0.537743 -3.68699 0
M  V30 9931 H 929.611 -1.06971 -4.67005 0
M  V30 9932 H 927.975 -0.473949 -2.50251 0
M  V30 9933 H 928.758 -2.135 -2.68836 0
M  V30 9934 N 931.203 1.46865 -0.571711 0
M  V30 9935 C 932.428 2.07323 -0.0564655 0
M  V30 9936 C 932.853 1.41938 1.23431 0
M  V30 9937 O 932.211 0.499334 1.74288 0
M  V30 9938 C 932.259 3.6044 0.107339 0
M  V30 9939 O 931.363 3.95558 1.1665 0
M  V30 9940 H 930.704 0.661475 -0.0578465 0
M  V30 9941 H 933.234 1.88669 -0.791524 0
M  V30 9942 H 933.244 4.06767 0.316987 0
M  V30 9943 H 931.919 4.07425 -0.835348 0
M  V30 9944 H 930.496 3.60957 0.936189 0
M  V30 9945 N 932.681 0.308908 1.54543 0
M  V30 9946 C 933.928 -0.298036 2.00295 0
M  V30 9947 C 934.256 -1.53285 1.19724 0
M  V30 9948 O 933.511 -1.93917 0.263551 0
M  V30 9949 C 933.81 -0.691522 3.50646 0
M  V30 9950 C 933.476 0.442454 4.48724 0
M  V30 9951 C 932.138 0.753739 4.7526 0
M  V30 9952 C 934.49 1.20488 5.07082 0
M  V30 9953 C 931.818 1.83044 5.57415 0
M  V30 9954 C 934.17 2.27156 5.90409 0
M  V30 9955 C 932.834 2.58882 6.15253 0
M  V30 9956 H 932.104 -0.109059 0.73293 0
M  V30 9957 H 934.751 0.429647 1.86618 0
M  V30 9958 H 933.056 -1.49941 3.61974 0
M  V30 9959 H 934.753 -1.17244 3.83477 0
M  V30 9960 H 931.343 0.189744 4.2818 0
M  V30 9961 H 935.527 0.977653 4.86575 0
M  V30 9962 H 930.783 2.08088 5.749 0
M  V30 9963 H 934.957 2.86687 6.34652 0
M  V30 9964 H 932.584 3.42443 6.78702 0
M  V30 9965 N 934.159 -1.57557 0.0367827 0
M  V30 9966 C 935.575 -1.56366 -0.31967 0
M  V30 9967 C 935.775 -1.04313 -1.72398 0
M  V30 9968 O 934.831 -0.693278 -2.42796 0
M  V30 9969 C 936.144 -3.00267 -0.161274 0
M  V30 9970 C 937.692 -3.12128 -0.233464 0
M  V30 9971 C 938.167 -4.57882 -0.103767 0
M  V30 9972 N 939.658 -4.62922 -0.160506 0
M  V30 9973 C 940.393 -5.73338 -0.0840493 0
M  V30 9974 N 939.889 -6.92786 0.043933 0
M  V30 9975 N 941.682 -5.61929 -0.138592 0
M  V30 9976 H 933.833 -1.8972 0.954996 0
M  V30 9977 H 936.096 -0.87304 0.369467 0
M  V30 9978 H 935.802 -3.42331 0.80639 0
M  V30 9979 H 935.676 -3.65599 -0.928304 0
M  V30 9980 H 938.063 -2.69972 -1.19159 0
M  V30 9981 H 938.144 -2.49503 0.564075 0
M  V30 9982 H 937.788 -5.0072 0.850973 0
M  V30 9983 H 937.718 -5.18496 -0.920268 0
M  V30 9984 H 940.209 -3.7701 -0.259257 0
M  V30 9985 H 940.522 -7.72741 0.095372 0
M  V30 9986 H 938.867 -6.94955 0.0788211 0
M  V30 9987 H 942.058 -4.67499 -0.237031 0
M  V30 9988 H 942.231 -6.47956 -0.075546 0
M  V30 9989 N 935.637 0.236453 -1.55816 0
M  V30 9990 C 937.048 0.80468 -1.68469 0
M  V30 9991 C 937.399 1.85601 -0.636133 0
M  V30 9992 O 936.524 2.15323 0.215622 0
M  V30 9993 C 937.119 1.46634 -3.05424 0
M  V30 9994 C 935.678 1.98214 -3.19981 0
M  V30 9995 C 934.825 0.83695 -2.64368 0
M  V30 9996 H 937.776 0.0120647 -1.58695 0
M  V30 9997 H 937.797 2.33472 -3.00451 0
M  V30 9998 H 937.309 0.700931 -3.81718 0
M  V30 9999 H 935.41 2.77604 -2.4853 0
M  V30 10000 H 935.523 2.17235 -4.2702 0
M  V30 10001 H 933.887 1.24028 -2.22462 0
M  V30 10002 H 934.67 0.084451 -3.43196 0
M  V30 10003 N 937.115 1.49373 0.502552 0
M  V30 10004 C 938.355 1.60398 1.26696 0
M  V30 10005 C 938.719 0.283599 1.89894 0
M  V30 10006 O 939.92 0.269022 2.6745 0
M  V30 10007 C 938.191 2.72998 2.30666 0
M  V30 10008 S 939.75 3.03964 3.16466 0
M  V30 10009 H 936.568 0.565781 0.430596 0
M  V30 10010 H 939.17 1.87024 0.569418 0
M  V30 10011 H 937.874 3.67458 1.82765 0
M  V30 10012 H 937.405 2.4836 3.05091 0
M  V30 10013 H 939.42 2.45367 4.31288 0
M  V30 10014 N 938.594 -0.753485 1.38421 0
M  V30 10015 C 939.871 -1.50318 1.25155 0
M  V30 10016 C 940.251 -2.10588 -0.147003 0
M  V30 10017 O 939.599 -1.97071 -1.15651 0
M  V30 10018 C 939.809 -2.56946 2.36177 0
M  V30 10019 C 941.157 -3.23846 2.74607 0
M  V30 10020 O 942.181 -2.67251 2.3549 0
M  V30 10021 O 941.04 -4.2621 3.42064 0
M  V30 10022 H 938.134 -0.666624 0.48943 0
M  V30 10023 H 940.68 -0.788887 1.50249 0
M  V30 10024 H 939.452 -2.1066 3.29754 0
M  V30 10025 H 939.075 -3.35956 2.12648 0
M  V30 10026 N 940.072 -1.23292 -0.981677 0
M  V30 10027 C 941.002 -1.03738 -2.09191 0
M  V30 10028 C 941.983 0.0453041 -1.7004 0
M  V30 10029 O 943.168 -0.119092 -1.93834 0
M  V30 10030 C 940.298 -0.626426 -3.41604 0
M  V30 10031 C 939.252 -1.65631 -3.94652 0
M  V30 10032 C 938.578 -1.10084 -5.23245 0
M  V30 10033 C 939.878 -3.04903 -4.24066 0
M  V30 10034 H 941.572 -1.966 -2.25807 0
M  V30 10035 H 939.118 -0.946656 -1.0851 0
M  V30 10036 H 941.071 -0.476689 -4.18695 0
M  V30 10037 H 939.795 0.337873 -3.24848 0
M  V30 10038 H 938.454 -1.79402 -3.19704 0
M  V30 10039 H 938.102 -0.127562 -5.02838 0
M  V30 10040 H 937.802 -1.78896 -5.59705 0
M  V30 10041 H 939.326 -0.962928 -6.02959 0
M  V30 10042 H 940.74 -2.94441 -4.91912 0
M  V30 10043 H 939.137 -3.70941 -4.71724 0
M  V30 10044 H 940.207 -3.53991 -3.31389 0
M  V30 10045 N 941.55 1.18024 -1.04442 0
M  V30 10046 C 942.796 1.88377 -0.751133 0
M  V30 10047 C 943.129 1.80377 0.719571 0
M  V30 10048 O 942.404 1.20662 1.52548 0
M  V30 10049 C 942.687 3.38708 -1.22265 0
M  V30 10050 C 942.54 3.55499 -2.75574 0
M  V30 10051 C 943.859 4.32475 -0.815688 0
M  V30 10052 H 940.978 0.684037 -0.27434 0
M  V30 10053 H 943.62 1.38837 -1.29709 0
M  V30 10054 H 941.77 3.8103 -0.758192 0
M  V30 10055 H 943.442 3.22244 -3.30086 0
M  V30 10056 H 941.685 2.98028 -3.15217 0
M  V30 10057 H 942.356 4.60994 -3.03625 0
M  V30 10058 H 944.832 3.97953 -1.21542 0
M  V30 10059 H 943.708 5.36213 -1.17331 0
M  V30 10060 H 943.969 4.41207 0.280901 0
M  V30 10061 N 943.028 0.824394 1.34319 0
M  V30 10062 C 943.938 0.24932 2.33271 0
M  V30 10063 C 944.954 -0.617066 1.62691 0
M  V30 10064 O 946.13 -0.524616 1.94447 0
M  V30 10065 C 943.195 -0.578094 3.41846 0
M  V30 10066 C 942.256 0.310866 4.28173 0
M  V30 10067 C 941.489 -0.477153 5.31563 0
M  V30 10068 O 941.712 -1.71028 5.44156 0
M  V30 10069 O 940.646 0.141287 6.01734 0
M  V30 10070 H 944.472 1.06837 2.84288 0
M  V30 10071 H 942.057 0.58657 1.37403 0
M  V30 10072 H 943.939 -1.04878 4.0814 0
M  V30 10073 H 942.614 -1.37444 2.93071 0
M  V30 10074 H 941.521 0.829081 3.64797 0
M  V30 10075 H 942.854 1.07161 4.80393 0
M  V30 10076 N 944.506 -1.46559 0.579492 0
M  V30 10077 C 945.753 -2.02399 0.0638418 0
M  V30 10078 C 946.081 -1.45135 -1.29484 0
M  V30 10079 O 945.336 -0.605061 -1.86112 0
M  V30 10080 C 945.635 -3.57357 -0.0552803 0
M  V30 10081 C 945.301 -4.33646 1.23539 0
M  V30 10082 C 943.963 -4.54207 1.589 0
M  V30 10083 C 946.315 -4.77476 2.08965 0
M  V30 10084 C 943.643 -5.1585 2.79492 0
M  V30 10085 C 945.995 -5.4045 3.2878 0
M  V30 10086 C 944.659 -5.5924 3.64427 0
M  V30 10087 H 943.929 -0.740632 0.0233614 0
M  V30 10088 H 946.576 -1.75968 0.755482 0
M  V30 10089 H 944.881 -3.82907 -0.83003 0
M  V30 10090 H 946.578 -3.98237 -0.469964 0
M  V30 10091 H 943.168 -4.17937 0.9501 0
M  V30 10092 H 947.352 -4.61349 1.8295 0
M  V30 10093 H 942.608 -5.28589 3.07252 0
M  V30 10094 H 946.782 -5.73371 3.95245 0
M  V30 10095 H 944.409 -6.06775 4.57961 0
M  V30 10096 N 945.984 -0.3171 -1.54377 0
M  V30 10097 C 947.224 0.288083 -2.0236 0
M  V30 10098 C 947.588 1.4985 -1.20038 0
M  V30 10099 O 948.789 2.17611 -1.57794 0
M  V30 10100 C 947.06 0.620192 -3.51978 0
M  V30 10101 S 948.619 1.20595 -4.21903 0
M  V30 10102 H 945.437 0.0875231 -0.705592 0
M  V30 10103 H 948.039 -0.448719 -1.90281 0
M  V30 10104 H 946.743 -0.268982 -4.09518 0
M  V30 10105 H 946.274 1.38736 -3.68125 0
M  V30 10106 H 948.289 2.49308 -4.29022 0
M  V30 10107 N 947.462 1.57535 -0.0451378 0
M  V30 10108 C 948.394 2.08109 0.960372 0
M  V30 10109 C 949.407 1.0077 1.27864 0
M  V30 10110 O 950.596 1.28351 1.24049 0
M  V30 10111 C 947.696 2.50414 2.28355 0
M  V30 10112 C 946.869 3.8102 2.14808 0
M  V30 10113 C 945.928 4.09702 3.30198 0
M  V30 10114 O 944.954 4.79715 3.0637 0
M  V30 10115 N 946.156 3.61138 4.54489 0
M  V30 10116 H 948.921 2.94999 0.528752 0
M  V30 10117 H 946.482 1.61283 0.141248 0
M  V30 10118 H 948.474 2.66683 3.04405 0
M  V30 10119 H 947.044 1.68805 2.63104 0
M  V30 10120 H 946.264 3.74392 1.23387 0
M  V30 10121 H 947.552 4.66559 2.02978 0
M  V30 10122 H 946.95 3.04527 4.76739 0
M  V30 10123 H 945.507 3.82656 5.27653 0
M  V30 10124 N 948.94 -0.228186 1.55939 0
M  V30 10125 C 949.872 -1.30605 1.88348 0
M  V30 10126 C 950.885 -1.43375 0.771198 0
M  V30 10127 O 952.074 -1.44391 1.04945 0
M  V30 10128 C 949.174 -2.68248 2.07115 0
M  V30 10129 C 948.347 -2.77509 3.38094 0
M  V30 10130 C 947.406 -3.96121 3.46373 0
M  V30 10131 O 946.432 -3.8477 4.19453 0
M  V30 10132 N 947.634 -5.10132 2.77031 0
M  V30 10133 H 950.399 -1.03132 2.81396 0
M  V30 10134 H 947.96 -0.418245 1.56404 0
M  V30 10135 H 949.952 -3.45966 2.09976 0
M  V30 10136 H 948.522 -2.88348 1.20723 0
M  V30 10137 H 947.742 -1.8632 3.47388 0
M  V30 10138 H 949.03 -2.80662 4.2439 0
M  V30 10139 H 948.428 -5.22249 2.17424 0
M  V30 10140 H 946.985 -5.85916 2.85561 0
M  V30 10141 N 950.418 -1.49637 -0.494624 0
M  V30 10142 C 951.646 -1.63164 -1.2722 0
M  V30 10143 C 952.061 -0.305552 -1.86311 0
M  V30 10144 O 951.418 0.709758 -1.68133 0
M  V30 10145 C 951.469 -2.70524 -2.39789 0
M  V30 10146 O 951.19 -3.97991 -1.83126 0
M  V30 10147 C 952.691 -2.94814 -3.31058 0
M  V30 10148 H 949.911 -0.54912 -0.385627 0
M  V30 10149 H 952.455 -1.95711 -0.593081 0
M  V30 10150 H 950.61 -2.40738 -3.03519 0
M  V30 10151 H 951.024 -4.57179 -2.57075 0
M  V30 10152 H 952.498 -3.73653 -4.06309 0
M  V30 10153 H 952.975 -2.04974 -3.88436 0
M  V30 10154 H 953.581 -3.26042 -2.73088 0
M  V30 10155 N 951.896 0.746133 -1.38819 0
M  V30 10156 C 953.142 1.50768 -1.35635 0
M  V30 10157 C 953.475 1.94132 0.0512435 0
M  V30 10158 O 952.75 1.65979 1.01396 0
M  V30 10159 C 953.033 2.7551 -2.31875 0
M  V30 10160 C 952.886 2.38236 -3.81528 0
M  V30 10161 C 954.205 3.77566 -2.26124 0
M  V30 10162 H 951.324 0.546922 -0.494009 0
M  V30 10163 H 953.966 0.854017 -1.69725 0
M  V30 10164 H 952.116 3.31285 -2.02935 0
M  V30 10165 H 953.788 1.88178 -4.21173 0
M  V30 10166 H 952.031 1.70601 -3.98846 0
M  V30 10167 H 952.702 3.27517 -4.44339 0
M  V30 10168 H 955.178 3.31349 -2.51689 0
M  V30 10169 H 954.054 4.62531 -2.95561 0
M  V30 10170 H 954.315 4.23689 -1.26254 0
M  V30 10171 N 953.375 1.23811 0.975125 0
M  V30 10172 C 954.285 1.0408 2.10249 0
M  V30 10173 C 955.301 -0.0162404 1.73992 0
M  V30 10174 O 956.477 0.180346 2.00591 0
M  V30 10175 C 953.542 0.640013 3.40741 0
M  V30 10176 C 952.603 1.7727 3.90991 0
M  V30 10177 C 951.836 1.39094 5.15256 0
M  V30 10178 O 952.059 0.277483 5.69725 0
M  V30 10179 O 950.993 2.21392 5.59704 0
M  V30 10180 H 954.819 1.98575 2.29786 0
M  V30 10181 H 952.404 1.02563 1.08633 0
M  V30 10182 H 954.286 0.427684 4.19224 0
M  V30 10183 H 952.961 -0.27589 3.22522 0
M  V30 10184 H 951.868 2.03971 3.13602 0
M  V30 10185 H 953.201 2.66711 4.13674 0
M  V30 10186 N 954.853 -1.17469 1.05066 0
M  V30 10187 C 956.078 -1.92162 0.780298 0
M  V30 10188 C 956.503 -1.76222 -0.657832 0
M  V30 10189 O 955.861 -1.0791 -1.45688 0
M  V30 10190 C 955.909 -3.41292 1.16414 0
M  V30 10191 O 955.013 -4.1134 0.295531 0
M  V30 10192 H 954.354 -0.599127 0.286257 0
M  V30 10193 H 956.884 -1.48903 1.40318 0
M  V30 10194 H 956.894 -3.92029 1.13036 0
M  V30 10195 H 955.569 -3.52214 2.21175 0
M  V30 10196 H 954.146 -3.70857 0.389797 0
M  V30 10197 N 956.331 -0.831506 -1.3388 0
M  V30 10198 C 957.578 -0.423674 -1.98018 0
M  V30 10199 C 957.906 1.01533 -1.65895 0
M  V30 10200 O 957.161 1.72342 -0.927183 0
M  V30 10201 C 957.46 -0.582733 -3.52617 0
M  V30 10202 C 957.126 -1.98874 -4.04673 0
M  V30 10203 C 955.788 -2.37334 -4.186 0
M  V30 10204 C 958.14 -2.90745 -4.3257 0
M  V30 10205 C 955.468 -3.66984 -4.57755 0
M  V30 10206 C 957.82 -4.19868 -4.73174 0
M  V30 10207 C 956.484 -4.58294 -4.85307 0
M  V30 10208 H 955.754 -0.155033 -0.7246 0
M  V30 10209 H 958.401 -1.05711 -1.59679 0
M  V30 10210 H 956.706 0.134052 -3.91571 0
M  V30 10211 H 958.403 -0.247576 -4.00235 0
M  V30 10212 H 954.993 -1.68001 -3.94301 0
M  V30 10213 H 959.177 -2.62272 -4.2134 0
M  V30 10214 H 954.433 -3.9657 -4.65341 0
M  V30 10215 H 958.607 -4.91138 -4.93717 0
M  V30 10216 H 956.234 -5.58805 -5.15404 0
M  V30 10217 N 957.809 1.4625 -0.587256 0
M  V30 10218 C 958.756 2.30354 0.143384 0
M  V30 10219 C 959.726 1.40891 0.879716 0
M  V30 10220 O 960.911 1.69837 0.869486 0
M  V30 10221 C 958.051 3.25441 1.14815 0
M  V30 10222 C 957.164 4.30004 0.414792 0
M  V30 10223 C 956.299 5.12214 1.40748 0
M  V30 10224 C 955.338 6.08523 0.660786 0
M  V30 10225 N 954.475 6.83585 1.60176 0
M  V30 10226 H 959.315 2.92304 -0.579866 0
M  V30 10227 H 956.852 1.44055 -0.29777 0
M  V30 10228 H 958.81 3.79018 1.7436 0
M  V30 10229 H 957.44 2.6529 1.83906 0
M  V30 10230 H 956.492 3.79248 -0.295787 0
M  V30 10231 H 957.804 4.98515 -0.168738 0
M  V30 10232 H 956.958 5.70091 2.0756 0
M  V30 10233 H 955.697 4.43675 2.02494 0
M  V30 10234 H 954.702 5.49796 -0.0210864 0
M  V30 10235 H 955.927 6.79083 0.0486551 0
M  V30 10236 H 953.873 6.17752 2.20724 0
M  V30 10237 H 953.79 7.48373 1.07115 0
M  V30 10238 H 955.058 7.46016 2.26009 0
M  V30 10239 N 959.287 0.325282 1.54207 0
M  V30 10240 C 960.512 -0.281418 2.05482 0
M  V30 10241 C 960.937 -1.44869 1.19977 0
M  V30 10242 O 960.295 -1.80088 0.209275 0
M  V30 10243 C 960.343 -0.692029 3.53897 0
M  V30 10244 O 959.447 -1.7942 3.71325 0
M  V30 10245 H 958.788 -0.0504872 0.662078 0
M  V30 10246 H 961.318 0.474191 1.99029 0
M  V30 10247 H 961.328 -0.974219 3.96198 0
M  V30 10248 H 960.003 0.161709 4.15586 0
M  V30 10249 H 958.58 -1.51069 3.40929 0
M  V30 10250 N 960.765 -1.57509 0.0534917 0
M  V30 10251 C 961.995 -1.96812 -0.628386 0
M  V30 10252 C 962.403 -0.929808 -1.64776 0
M  V30 10253 O 961.746 0.0941155 -1.83459 0
M  V30 10254 C 961.808 -3.32361 -1.37027 0
M  V30 10255 C 961.472 -4.54185 -0.506465 0
M  V30 10256 C 962.469 -5.19398 0.228412 0
M  V30 10257 C 960.154 -5.00398 -0.43671 0
M  V30 10258 C 962.148 -6.29162 1.02146 0
M  V30 10259 C 959.835 -6.10039 0.360022 0
M  V30 10260 C 960.833 -6.74282 1.08779 0
M  V30 10261 O 960.521 -7.81814 1.87142 0
M  V30 10262 H 960.253 -0.65257 -0.176432 0
M  V30 10263 H 962.807 -2.05067 0.116908 0
M  V30 10264 H 961.037 -3.20667 -2.16125 0
M  V30 10265 H 962.726 -3.56395 -1.94261 0
M  V30 10266 H 963.492 -4.84651 0.184003 0
M  V30 10267 H 959.371 -4.50183 -0.992772 0
M  V30 10268 H 962.915 -6.79238 1.59002 0
M  V30 10269 H 958.812 -6.44222 0.406061 0
M  V30 10270 H 959.58 -7.98602 1.79378 0
M  V30 10271 N 962.243 0.219913 -1.56058 0
M  V30 10272 C 963.483 0.951113 -1.80923 0
M  V30 10273 C 963.847 1.81465 -0.627247 0
M  V30 10274 O 965.048 2.57972 -0.755237 0
M  V30 10275 C 963.319 1.76652 -3.10691 0
M  V30 10276 S 964.878 2.55314 -3.56876 0
M  V30 10277 H 961.696 0.319461 -0.635189 0
M  V30 10278 H 964.298 0.216551 -1.94297 0
M  V30 10279 H 963.002 1.12231 -3.94756 0
M  V30 10280 H 962.533 2.54335 -3.00128 0
M  V30 10281 H 964.548 3.78938 -3.20344 0
M  V30 10282 N 963.721 1.49897 0.486681 0
M  V30 10283 C 964.998 1.50614 1.24799 0
M  V30 10284 C 965.378 0.24193 2.09709 0
M  V30 10285 O 964.726 -0.775237 2.14947 0
M  V30 10286 C 964.936 2.79318 2.09243 0
M  V30 10287 C 966.284 3.29371 2.67955 0
M  V30 10288 O 967.308 2.80533 2.19499 0
M  V30 10289 O 966.167 4.14466 3.56202 0
M  V30 10290 H 963.261 0.603447 0.565491 0
M  V30 10291 H 965.807 1.62174 0.499778 0
M  V30 10292 H 964.579 3.62812 1.46572 0
M  V30 10293 H 964.202 2.70687 2.91229 0
M  V30 10294 N 965.199 -0.738761 1.39212 0
M  V30 10295 C 966.615 -1.04381 1.20734 0
M  V30 10296 C 966.815 -2.01391 0.0663082 0
M  V30 10297 O 965.871 -2.45672 -0.583229 0
M  V30 10298 C 967.184 -1.6097 2.53987 0
M  V30 10299 C 968.732 -1.73069 2.60799 0
M  V30 10300 C 969.207 -2.33067 3.94264 0
M  V30 10301 N 970.698 -2.40481 3.95883 0
M  V30 10302 C 971.433 -2.87834 4.95923 0
M  V30 10303 N 970.929 -3.35111 6.0636 0
M  V30 10304 N 972.722 -2.87009 4.83304 0
M  V30 10305 H 964.873 -0.0952996 2.12186 0
M  V30 10306 H 967.136 -0.104902 0.942178 0
M  V30 10307 H 966.842 -0.971548 3.38015 0
M  V30 10308 H 966.716 -2.59829 2.73439 0
M  V30 10309 H 969.103 -2.36007 1.77157 0
M  V30 10310 H 969.184 -0.728728 2.452 0
M  V30 10311 H 968.828 -1.70758 4.78335 0
M  V30 10312 H 968.758 -3.33933 4.07181 0
M  V30 10313 H 971.249 -2.07061 3.16123 0
M  V30 10314 H 971.562 -3.69742 6.78609 0
M  V30 10315 H 969.907 -3.33129 6.09959 0
M  V30 10316 H 973.098 -2.49395 3.96131 0
M  V30 10317 H 973.271 -3.23598 5.61416 0
M  V30 10318 N 966.677 -1.24326 -0.968545 0
M  V30 10319 C 967.624 -1.0349 -2.06297 0
M  V30 10320 C 968.594 0.0515333 -1.6602 0
M  V30 10321 O 969.779 -0.102924 -1.90522 0
M  V30 10322 C 966.919 -0.64487 -3.39021 0
M  V30 10323 C 966.032 -1.80469 -3.92498 0
M  V30 10324 C 965.167 -1.36032 -5.13487 0
M  V30 10325 C 964.206 -2.49014 -5.59159 0
M  V30 10326 N 963.343 -2.05451 -6.71367 0
M  V30 10327 H 968.183 -1.97161 -2.23454 0
M  V30 10328 H 965.72 -0.982028 -1.0952 0
M  V30 10329 H 967.678 -0.399771 -4.1528 0
M  V30 10330 H 966.308 0.254845 -3.21792 0
M  V30 10331 H 965.36 -2.16348 -3.12886 0
M  V30 10332 H 966.672 -2.65365 -4.22354 0
M  V30 10333 H 965.826 -1.07405 -5.97117 0
M  V30 10334 H 964.565 -0.481887 -4.85313 0
M  V30 10335 H 963.57 -2.78402 -4.74102 0
M  V30 10336 H 964.795 -3.37413 -5.89346 0
M  V30 10337 H 962.741 -1.20004 -6.4493 0
M  V30 10338 H 962.658 -2.83901 -7.00668 0
M  V30 10339 H 963.926 -1.79962 -7.58442 0
M  V30 10340 N 968.156 1.1691 -1.05688 0
M  V30 10341 C 969.088 2.20648 -0.620237 0
M  V30 10342 C 970.101 1.59652 0.318604 0
M  V30 10343 O 971.29 1.78157 0.110553 0
M  V30 10344 C 968.39 3.38716 0.111729 0
M  V30 10345 C 967.563 4.29277 -0.839062 0
M  V30 10346 C 966.622 5.25993 -0.147453 0
M  V30 10347 O 965.648 5.63787 -0.783151 0
M  V30 10348 N 966.85 5.69725 1.11327 0
M  V30 10349 H 969.615 2.58731 -1.51256 0
M  V30 10350 H 967.176 1.31858 -0.939412 0
M  V30 10351 H 969.168 4.00455 0.584657 0
M  V30 10352 H 967.738 2.99189 0.905784 0
M  V30 10353 H 966.958 3.64894 -1.4915 0
M  V30 10354 H 968.246 4.86669 -1.48428 0
M  V30 10355 H 967.644 5.41103 1.64999 0
M  V30 10356 H 966.201 6.33584 1.53018 0
M  V30 10357 N 969.634 0.838594 1.33437 0
M  V30 10358 C 970.883 0.430484 1.97053 0
M  V30 10359 C 971.196 -1.01556 1.6717 0
M  V30 10360 O 972.402 -1.52834 2.24397 0
M  V30 10361 C 970.858 0.718828 3.52648 0
M  V30 10362 C 970.466 2.17953 3.91408 0
M  V30 10363 C 972.21 0.377654 4.22817 0
M  V30 10364 C 970.117 2.41194 5.39981 0
M  V30 10365 H 969.047 0.157239 0.737422 0
M  V30 10366 H 971.698 1.02714 1.5206 0
M  V30 10367 H 970.08 0.0518042 3.95966 0
M  V30 10368 H 971.254 2.88701 3.59149 0
M  V30 10369 H 969.569 2.48366 3.34221 0
M  V30 10370 H 972.166 0.528926 5.32077 0
M  V30 10371 H 972.509 -0.679338 4.1072 0
M  V30 10372 H 973.042 0.999899 3.85028 0
M  V30 10373 H 969.781 3.45457 5.57081 0
M  V30 10374 H 969.301 1.75007 5.73701 0
M  V30 10375 H 970.98 2.24334 6.06863 0
M  V30 10376 N 971.112 -1.45937 0.595003 0
M  V30 10377 C 972.06 -2.32155 -0.143798 0
M  V30 10378 C 973.054 -1.45221 -0.872198 0
M  V30 10379 O 974.26 -1.61777 -0.789191 0
M  V30 10380 H 970.635 -0.749165 -0.0652377 0
M  V30 10381 H 972.606 -2.92264 0.602005 0
M  V30 10382 C 971.355 -3.28615 -1.13611 0
M  V30 10383 H 970.678 -3.95496 -0.585044 0
M  V30 10384 H 972.118 -3.91699 -1.62321 0
M  V30 10385 C 970.577 -2.54863 -2.20333 0
M  V30 10386 O 971.107 -2.32071 -3.27881 0
M  V30 10387 N 969.313 -2.15213 -1.95274 0
M  V30 10388 H 968.86 -2.33949 -1.07822 0
M  V30 10389 H 968.818 -1.66188 -2.66888 0
M  V30 10390 N 972.59 -0.333456 -1.54032 0
M  V30 10391 C 973.52 0.52051 -2.27625 0
M  V30 10392 C 974.501 1.1111 -1.28797 0
M  V30 10393 O 975.686 1.13438 -1.57625 0
M  V30 10394 C 972.816 1.67663 -3.04149 0
M  V30 10395 C 971.77 1.21487 -4.10396 0
M  V30 10396 C 971.096 2.45872 -4.74817 0
M  V30 10397 C 972.396 0.322603 -5.21303 0
M  V30 10398 H 974.09 -0.0933823 -2.99254 0
M  V30 10399 H 971.636 -0.0463526 -1.43925 0
M  V30 10400 H 973.589 2.28041 -3.54366 0
M  V30 10401 H 972.313 2.31727 -2.30153 0
M  V30 10402 H 970.972 0.633966 -3.61077 0
M  V30 10403 H 970.62 3.0832 -3.97426 0
M  V30 10404 H 970.32 2.15662 -5.46593 0
M  V30 10405 H 971.844 3.06994 -5.27814 0
M  V30 10406 H 973.258 0.832942 -5.67217 0
M  V30 10407 H 971.655 0.112843 -5.99994 0
M  V30 10408 H 972.725 -0.643954 -4.80605 0
M  V30 10409 N 974.068 1.57479 -0.061844 0
M  V30 10410 C 975.314 1.93395 0.610443 0
M  V30 10411 C 975.647 0.941334 1.6986 0
M  V30 10412 O 974.922 -0.0310262 1.94475 0
M  V30 10413 C 975.205 3.39636 1.19664 0
M  V30 10414 C 975.058 4.49651 0.115805 0
M  V30 10415 C 976.377 3.86488 2.10512 0
M  V30 10416 H 973.496 0.703262 0.220436 0
M  V30 10417 H 976.138 1.89583 -0.125785 0
M  V30 10418 H 974.288 3.43015 1.82409 0
M  V30 10419 H 975.96 4.58397 -0.516728 0
M  V30 10420 H 974.203 4.30237 -0.55483 0
M  V30 10421 H 974.874 5.49089 0.566176 0
M  V30 10422 H 977.35 3.85052 1.57715 0
M  V30 10423 H 976.226 4.89444 2.48466 0
M  V30 10424 H 976.487 3.23856 3.00948 0
M  V30 10425 N 975.546 -0.211634 1.56173 0
M  V30 10426 C 976.774 -0.951184 1.83739 0
M  V30 10427 C 977.189 -1.7754 0.642252 0
M  V30 10428 O 976.546 -1.78302 -0.389174 0
M  V30 10429 C 976.597 -1.86075 3.09933 0
M  V30 10430 O 976.318 -1.06983 4.24837 0
M  V30 10431 C 977.819 -2.71337 3.50559 0
M  V30 10432 H 975.039 -0.278312 0.61056 0
M  V30 10433 H 977.583 -0.223871 2.03271 0
M  V30 10434 H 975.738 -2.54189 2.92347 0
M  V30 10435 H 976.152 -1.68815 4.9659 0
M  V30 10436 H 977.626 -3.30843 4.41868 0
M  V30 10437 H 978.103 -3.44226 2.72773 0
M  V30 10438 H 978.709 -2.0862 3.70618 0
M  V30 10439 N 977.024 -1.50153 -0.478725 0
M  V30 10440 C 977.972 -1.68975 -1.59844 0
M  V30 10441 C 978.966 -0.555591 -1.6003 0
M  V30 10442 O 980.172 -0.735875 -1.64271 0
M  V30 10443 H 976.547 -0.533211 -0.530274 0
M  V30 10444 H 978.518 -2.62917 -1.41128 0
M  V30 10445 C 977.267 -1.79409 -2.97838 0
M  V30 10446 H 976.59 -2.66066 -2.98411 0
M  V30 10447 H 978.03 -1.96606 -3.75662 0
M  V30 10448 C 976.489 -0.543927 -3.3248 0
M  V30 10449 O 977.019 0.320376 -4.0042 0
M  V30 10450 N 975.225 -0.400217 -2.87831 0
M  V30 10451 H 974.772 -1.10458 -2.32716 0
M  V30 10452 H 974.73 0.435111 -3.11375 0
M  V30 10453 N 978.502 0.731368 -1.39602 0
M  V30 10454 C 979.432 1.85855 -1.41351 0
M  V30 10455 C 980.413 1.67839 -0.2764 0
M  V30 10456 O 981.598 1.88104 -0.482747 0
M  V30 10457 C 978.728 3.23644 -1.25983 0
M  V30 10458 C 977.682 3.56304 -2.37132 0
M  V30 10459 C 977.008 4.93069 -2.0685 0
M  V30 10460 C 978.308 3.58906 -3.79452 0
M  V30 10461 H 980.002 1.84648 -2.3568 0
M  V30 10462 H 977.548 0.886955 -1.13442 0
M  V30 10463 H 979.501 4.02176 -1.25826 0
M  V30 10464 H 978.225 3.25387 -0.281234 0
M  V30 10465 H 976.884 2.80104 -2.36511 0
M  V30 10466 H 976.532 4.91396 -1.0742 0
M  V30 10467 H 976.232 5.15888 -2.81306 0
M  V30 10468 H 977.756 5.73953 -2.0835 0
M  V30 10469 H 979.17 4.27508 -3.81982 0
M  V30 10470 H 977.567 3.93246 -4.53297 0
M  V30 10471 H 978.637 2.58631 -4.10168 0
M  V30 10472 N 979.98 1.24838 0.961938 0
M  V30 10473 C 980.912 1.00369 2.06055 0
M  V30 10474 C 981.925 -0.0288583 1.62774 0
M  V30 10475 O 983.114 0.208853 1.77274 0
M  V30 10476 C 980.214 0.493953 3.35281 0
M  V30 10477 C 979.387 1.59097 4.07439 0
M  V30 10478 C 978.446 1.08288 5.14937 0
M  V30 10479 O 977.472 1.77577 5.40791 0
M  V30 10480 N 978.674 -0.0796836 5.80445 0
M  V30 10481 H 981.439 1.94962 2.27618 0
M  V30 10482 H 979 1.15945 1.12997 0
M  V30 10483 H 980.992 0.138675 4.04462 0
M  V30 10484 H 979.562 -0.357851 3.10545 0
M  V30 10485 H 978.782 2.11817 3.32456 0
M  V30 10486 H 980.07 2.32817 4.52409 0
M  V30 10487 H 979.468 -0.658827 5.6185 0
M  V30 10488 H 978.025 -0.376057 6.50714 0
M  V30 10489 N 981.458 -1.16348 1.06306 0
M  V30 10490 C 982.683 -1.91323 0.800636 0
M  V30 10491 C 983.108 -1.7691 -0.639105 0
M  V30 10492 O 982.466 -1.0945 -1.44535 0
M  V30 10493 C 982.514 -3.40038 1.20027 0
M  V30 10494 O 981.618 -4.11003 0.339142 0
M  V30 10495 H 980.959 -0.596057 0.292595 0
M  V30 10496 H 983.489 -1.47406 1.41889 0
M  V30 10497 H 983.499 -3.90808 1.17188 0
M  V30 10498 H 982.174 -3.49848 2.24898 0
M  V30 10499 H 980.751 -3.70423 0.42911 0
M  V30 10500 N 982.937 -0.845659 -1.3299 0
M  V30 10501 C 984.177 -0.450819 -1.99366 0
M  V30 10502 C 984.541 0.973297 -1.65502 0
M  V30 10503 O 985.742 1.47222 -2.24898 0
M  V30 10504 C 984.013 -0.672825 -3.5101 0
M  V30 10505 S 985.572 -0.374216 -4.37201 0
M  V30 10506 H 982.39 -0.169273 -0.690556 0
M  V30 10507 H 984.992 -1.09642 -1.61861 0
M  V30 10508 H 983.696 -1.70855 -3.73145 0
M  V30 10509 H 983.227 -0.0133185 -3.93398 0
M  V30 10510 H 985.242 0.803342 -4.89654 0
M  V30 10511 N 984.415 1.45619 -0.602734 0
M  V30 10512 C 985.826 1.85814 -0.181636 0
M  V30 10513 C 986.177 1.5037 1.26029 0
M  V30 10514 O 985.302 0.928068 1.95489 0
M  V30 10515 C 985.897 3.37258 -0.322866 0
M  V30 10516 C 984.456 3.76375 0.043504 0
M  V30 10517 C 983.603 2.69585 -0.649561 0
M  V30 10518 H 986.554 1.36489 -0.809721 0
M  V30 10519 H 986.575 3.77874 0.446279 0
M  V30 10520 H 986.087 3.63024 -1.37241 0
M  V30 10521 H 984.188 3.56226 1.09241 0
M  V30 10522 H 984.301 4.77843 -0.346765 0
M  V30 10523 H 982.665 2.54549 -0.087706 0
M  V30 10524 H 983.448 2.98188 -1.70115 0
M  V30 10525 N 985.893 0.34162 1.53853 0
M  V30 10526 C 986.825 -0.550383 2.22494 0
M  V30 10527 C 987.838 -1.0655 1.23089 0
M  V30 10528 O 989.027 -0.975985 1.49455 0
M  V30 10529 C 986.127 -1.76995 2.89009 0
M  V30 10530 C 985.3 -1.39045 4.14711 0
M  V30 10531 C 984.359 -2.46947 4.64654 0
M  V30 10532 O 983.385 -2.10336 5.28912 0
M  V30 10533 N 984.587 -3.7817 4.40418 0
M  V30 10534 H 987.352 0.037456 2.99677 0
M  V30 10535 H 984.913 0.165654 1.6105 0
M  V30 10536 H 986.905 -2.48608 3.19337 0
M  V30 10537 H 985.475 -2.2652 2.15424 0
M  V30 10538 H 984.695 -0.505161 3.9095 0
M  V30 10539 H 985.983 -1.11284 4.96481 0
M  V30 10540 H 985.381 -4.10704 3.89023 0
M  V30 10541 H 983.938 -4.45959 4.75356 0
M  V30 10542 N 987.371 -1.57444 0.0701946 0
M  V30 10543 C 988.301 -2.15659 -0.895176 0
M  V30 10544 C 989.282 -1.08321 -1.31151 0
M  V30 10545 O 990.467 -1.36349 -1.38284 0
M  V30 10546 C 987.597 -2.71693 -2.16334 0
M  V30 10547 C 986.551 -3.84183 -1.88645 0
M  V30 10548 C 985.877 -4.26814 -3.22078 0
M  V30 10549 C 987.177 -5.08493 -1.19299 0
M  V30 10550 H 988.871 -2.96576 -0.410217 0
M  V30 10551 H 986.417 -1.42662 -0.195872 0
M  V30 10552 H 988.37 -3.11064 -2.84284 0
M  V30 10553 H 987.094 -1.87994 -2.67069 0
M  V30 10554 H 985.753 -3.45314 -1.23101 0
M  V30 10555 H 985.401 -3.40039 -3.70651 0
M  V30 10556 H 985.101 -5.02642 -3.04344 0
M  V30 10557 H 986.625 -4.68799 -3.91228 0
M  V30 10558 H 988.039 -5.4519 -1.77316 0
M  V30 10559 H 986.436 -5.89588 -1.11828 0
M  V30 10560 H 987.506 -4.84595 -0.171839 0
M  V30 10561 N 988.849 0.203349 -1.56283 0
M  V30 10562 C 990.079 0.940061 -1.83974 0
M  V30 10563 C 990.487 1.77703 -0.649486 0
M  V30 10564 O 989.83 1.79487 0.391189 0
M  V30 10565 C 989.892 1.89249 -3.05655 0
M  V30 10566 C 989.556 1.23828 -4.39904 0
M  V30 10567 C 990.553 0.619231 -5.16199 0
M  V30 10568 C 988.238 1.2446 -4.86636 0
M  V30 10569 C 990.232 0.0152287 -6.37398 0
M  V30 10570 C 987.919 0.636764 -6.07773 0
M  V30 10571 C 988.917 0.0231481 -6.82996 0
M  V30 10572 O 988.605 -0.575187 -8.0184 0
M  V30 10573 H 988.337 0.280199 -0.615194 0
M  V30 10574 H 990.891 0.218111 -2.04239 0
M  V30 10575 H 989.121 2.65392 -2.81254 0
M  V30 10576 H 990.81 2.4963 -3.20062 0
M  V30 10577 H 991.576 0.606545 -4.81192 0
M  V30 10578 H 987.455 1.71161 -4.28048 0
M  V30 10579 H 990.999 -0.464333 -6.96053 0
M  V30 10580 H 986.896 0.646924 -6.4225 0
M  V30 10581 H 987.664 -0.471284 -8.17142 0
M  V30 10582 N 990.327 1.50405 0.470755 0
M  V30 10583 C 991.257 1.72222 1.57676 0
M  V30 10584 C 992.238 0.57121 1.60222 0
M  V30 10585 O 993.423 0.810381 1.76484 0
M  V30 10586 C 990.553 1.81666 2.95998 0
M  V30 10587 C 989.507 2.96857 3.08318 0
M  V30 10588 C 988.833 2.91445 4.4829 0
M  V30 10589 C 990.133 4.37361 2.85504 0
M  V30 10590 H 991.827 2.64825 1.39671 0
M  V30 10591 H 989.373 1.27438 0.67049 0
M  V30 10592 H 991.326 1.95514 3.73299 0
M  V30 10593 H 990.05 0.856856 3.1516 0
M  V30 10594 H 988.709 2.82661 2.33449 0
M  V30 10595 H 988.357 1.93309 4.64371 0
M  V30 10596 H 988.057 3.68776 4.57469 0
M  V30 10597 H 989.581 3.07341 5.27611 0
M  V30 10598 H 990.995 4.52081 3.52555 0
M  V30 10599 H 989.392 5.16145 3.06127 0
M  V30 10600 H 990.462 4.49708 1.81359 0
M  V30 10601 N 991.805 -0.723954 1.39988 0
M  V30 10602 C 993.082 -1.4763 1.28316 0
M  V30 10603 C 993.462 -2.10852 -0.102302 0
M  V30 10604 O 992.81 -1.9948 -1.11445 0
M  V30 10605 C 993.02 -2.51878 2.41574 0
M  V30 10606 C 994.368 -3.17948 2.81415 0
M  V30 10607 O 995.392 -2.62195 2.41106 0
M  V30 10608 O 994.251 -4.18858 3.51027 0
M  V30 10609 H 991.345 -0.656092 0.50346 0
M  V30 10610 H 993.891 -0.75684 1.51888 0
M  V30 10611 H 992.663 -2.03618 3.34149 0
M  V30 10612 H 992.286 -3.3137 2.19727 0
M  V30 10613 N 993.283 -1.25346 -0.955304 0
M  V30 10614 C 994.213 -1.08152 -2.06943 0
M  V30 10615 C 995.194 0.00922598 -1.70097 0
M  V30 10616 O 996.379 -0.160181 -1.93538 0
M  V30 10617 C 993.509 -0.698745 -3.40198 0
M  V30 10618 C 992.463 -1.73965 -3.9105 0
M  V30 10619 C 991.789 -1.21158 -5.20792 0
M  V30 10620 C 993.089 -3.13829 -4.17503 0
M  V30 10621 H 994.783 -2.01345 -2.21586 0
M  V30 10622 H 992.329 -0.969459 -1.06478 0
M  V30 10623 H 994.282 -0.565394 -4.1759 0
M  V30 10624 H 993.006 0.268892 -3.25491 0
M  V30 10625 H 991.665 -1.86143 -3.15827 0
M  V30 10626 H 991.313 -0.234193 -5.02455 0
M  V30 10627 H 991.013 -1.90728 -5.55785 0
M  V30 10628 H 992.537 -1.09061 -6.00781 0
M  V30 10629 H 993.951 -3.04809 -4.85556 0
M  V30 10630 H 992.348 -3.80863 -4.63749 0
M  V30 10631 H 993.418 -3.6094 -3.23806 0
M  V30 10632 N 994.761 1.15782 -1.06922 0
M  V30 10633 C 995.671 2.24008 -0.696948 0
M  V30 10634 C 996.687 1.71569 0.289862 0
M  V30 10635 O 997.863 2.00929 0.137585 0
M  V30 10636 C 994.928 3.46568 -0.0957895 0
M  V30 10637 C 993.989 4.14017 -1.13528 0
M  V30 10638 C 993.222 5.30725 -0.562713 0
M  V30 10639 O 993.445 5.66992 0.62259 0
M  V30 10640 O 992.379 5.87572 -1.30549 0
M  V30 10641 H 996.205 2.58174 -1.59938 0
M  V30 10642 H 993.79 1.2342 -0.841889 0
M  V30 10643 H 995.672 4.20731 0.237407 0
M  V30 10644 H 994.347 3.14161 0.780027 0
M  V30 10645 H 993.254 3.41795 -1.52076 0
M  V30 10646 H 994.587 4.50493 -1.98285 0
M  V30 10647 N 996.239 0.8527 1.3254 0
M  V30 10648 C 997.655 0.542298 1.50104 0
M  V30 10649 C 997.855 -0.927465 1.78886 0
M  V30 10650 O 996.911 -1.7106 1.85728 0
M  V30 10651 C 998.224 1.4276 2.64651 0
M  V30 10652 C 999.772 1.42782 2.78536 0
M  V30 10653 C 1000.25 2.29828 3.9616 0
M  V30 10654 N 1001.74 2.27613 4.03418 0
M  V30 10655 C 1002.47 2.91696 4.93661 0
M  V30 10656 N 1001.97 3.64883 5.88925 0
M  V30 10657 N 1003.76 2.81094 4.86768 0
M  V30 10658 H 995.913 1.80395 1.12123 0
M  V30 10659 H 998.176 0.770394 0.552446 0
M  V30 10660 H 997.882 2.47266 2.50105 0
M  V30 10661 H 997.756 1.11358 3.60388 0
M  V30 10662 H 1000.14 0.390417 2.92506 0
M  V30 10663 H 1000.22 1.78198 1.83519 0
M  V30 10664 H 999.868 3.33635 3.82949 0
M  V30 10665 H 999.798 1.91746 4.9045 0
M  V30 10666 H 1002.29 1.74402 3.3525 0
M  V30 10667 H 1002.6 4.10952 6.54476 0
M  V30 10668 H 1000.95 3.68991 5.88957 0
M  V30 10669 H 1004.14 2.23469 4.11314 0
M  V30 10670 H 1004.31 3.31318 5.56895 0
M  V30 10671 N 997.718 -1.45297 0.610449 0
M  V30 10672 C 998.965 -2.02218 0.106759 0
M  V30 10673 C 999.293 -1.47849 -1.26376 0
M  V30 10674 O 998.548 -0.644402 -1.84786 0
M  V30 10675 C 998.847 -3.57394 0.0205329 0
M  V30 10676 C 998.513 -4.30928 1.32709 0
M  V30 10677 C 997.175 -4.50735 1.68498 0
M  V30 10678 C 999.527 -4.72936 2.19046 0
M  V30 10679 C 996.855 -5.09806 2.90371 0
M  V30 10680 C 999.207 -5.33355 3.40169 0
M  V30 10681 C 997.871 -5.51384 3.76207 0
M  V30 10682 H 997.141 -0.739969 0.039066 0
M  V30 10683 H 999.788 -1.74326 0.792638 0
M  V30 10684 H 998.093 -3.84581 -0.748623 0
M  V30 10685 H 999.79 -3.99144 -0.385386 0
M  V30 10686 H 996.38 -4.15827 1.03854 0
M  V30 10687 H 1000.56 -4.57365 1.92695 0
M  V30 10688 H 995.82 -5.21953 3.18395 0
M  V30 10689 H 999.994 -5.64859 4.07318 0
M  V30 10690 H 997.621 -5.96924 4.70729 0
M  V30 10691 N 999.196 -0.349774 -1.5367 0
M  V30 10692 C 1000.47 0.300419 -1.93279 0
M  V30 10693 C 1000.85 1.67721 -1.28191 0
M  V30 10694 O 1000.2 2.24319 -0.435127 0
M  V30 10695 C 1000.41 0.366466 -3.47071 0
M  V30 10696 C 1001.76 0.614349 -4.20132 0
M  V30 10697 O 1002.78 0.448327 -3.53367 0
M  V30 10698 O 1001.64 0.936421 -5.38417 0
M  V30 10699 H 998.736 0.176599 -0.807924 0
M  V30 10700 H 1001.28 -0.401405 -1.64884 0
M  V30 10701 H 1000.05 -0.599455 -3.86681 0
M  V30 10702 H 999.677 1.11482 -3.81651 0
M  V30 10703 N 1000.67 1.57404 -0.0785433 0
M  V30 10704 C 1001.62 2.13104 0.88631 0
M  V30 10705 C 1002.59 1.04527 1.29086 0
M  V30 10706 O 1003.78 1.32226 1.37553 0
M  V30 10707 C 1000.92 2.70252 2.14611 0
M  V30 10708 C 1000.03 3.93007 1.79358 0
M  V30 10709 C 999.164 4.38376 3 0
M  V30 10710 C 998.203 5.53761 2.60796 0
M  V30 10711 N 997.34 5.94058 3.74219 0
M  V30 10712 H 1002.18 2.95243 0.404452 0
M  V30 10713 H 999.717 1.45894 0.187982 0
M  V30 10714 H 1001.67 3.01497 2.88367 0
M  V30 10715 H 1000.3 1.90868 2.60326 0
M  V30 10716 H 999.357 3.68181 0.956384 0
M  V30 10717 H 1000.67 4.76795 1.4652 0
M  V30 10718 H 999.823 4.71317 3.82027 0
M  V30 10719 H 998.562 3.53455 3.36037 0
M  V30 10720 H 997.567 5.20464 1.77192 0
M  V30 10721 H 998.792 6.40419 2.25922 0
M  V30 10722 H 996.738 5.12085 4.10005 0
M  V30 10723 H 996.655 6.72602 3.45171 0
M  V30 10724 H 997.923 6.31624 4.56805 0
M  V30 10725 N 1002.15 -0.195058 1.56388 0
M  V30 10726 C 1003.4 -0.9168 1.80894 0
M  V30 10727 C 1003.73 -1.82907 0.652592 0
M  V30 10728 O 1003.01 -1.91382 -0.346853 0
M  V30 10729 C 1003.29 -1.733 3.15657 0
M  V30 10730 C 1003.14 -0.845449 4.41783 0
M  V30 10731 C 1004.46 -2.70557 3.47112 0
M  V30 10732 H 1001.58 -0.331861 0.658056 0
M  V30 10733 H 1004.22 -0.184174 1.89105 0
M  V30 10734 H 1002.37 -2.3576 3.08787 0
M  V30 10735 H 1004.04 -0.235557 4.60698 0
M  V30 10736 H 1002.29 -0.152172 4.33533 0
M  V30 10737 H 1002.96 -1.45152 5.32574 0
M  V30 10738 H 1005.43 -2.1823 3.54281 0
M  V30 10739 H 1004.31 -3.24749 4.42526 0
M  V30 10740 H 1004.57 -3.49605 2.70608 0
M  V30 10741 N 1003.63 -1.50653 -0.462772 0
M  V30 10742 C 1004.56 -1.73056 -1.5676 0
M  V30 10743 C 1005.54 -0.579699 -1.59917 0
M  V30 10744 O 1006.73 -0.819729 -1.76051 0
M  V30 10745 C 1003.86 -1.83234 -2.9503 0
M  V30 10746 C 1002.81 -2.98488 -3.06739 0
M  V30 10747 C 1002.14 -2.93818 -4.46738 0
M  V30 10748 C 1003.44 -4.38869 -2.83181 0
M  V30 10749 H 1005.13 -2.65562 -1.38265 0
M  V30 10750 H 1002.68 -1.27792 -0.663722 0
M  V30 10751 H 1004.63 -1.97491 -3.72257 0
M  V30 10752 H 1003.35 -0.873558 -3.14701 0
M  V30 10753 H 1002.01 -2.83895 -2.31946 0
M  V30 10754 H 1001.66 -1.95769 -4.63339 0
M  V30 10755 H 1001.36 -3.71197 -4.55507 0
M  V30 10756 H 1002.88 -3.10135 -5.25974 0
M  V30 10757 H 1004.3 -4.53945 -3.50153 0
M  V30 10758 H 1002.69 -5.17762 -3.03386 0
M  V30 10759 H 1003.76 -4.50663 -1.78972 0
M  V30 10760 N 1005.11 0.71652 -1.4037 0
M  V30 10761 C 1006.34 1.50344 -1.41704 0
M  V30 10762 C 1006.75 1.89194 -0.0148011 0
M  V30 10763 O 1006.09 1.55916 0.971391 0
M  V30 10764 C 1006.15 2.80928 -2.2432 0
M  V30 10765 C 1005.82 2.64406 -3.72744 0
M  V30 10766 C 1006.81 2.31727 -4.65401 0
M  V30 10767 C 1004.5 2.807 -4.16549 0
M  V30 10768 C 1006.49 2.15551 -5.99847 0
M  V30 10769 C 1004.18 2.64141 -5.51065 0
M  V30 10770 C 1005.18 2.31614 -6.42529 0
M  V30 10771 O 1004.86 2.15179 -7.74566 0
M  V30 10772 H 1004.6 0.470574 -0.48532 0
M  V30 10773 H 1007.15 0.89152 -1.85043 0
M  V30 10774 H 1005.38 3.4445 -1.75759 0
M  V30 10775 H 1007.07 3.4264 -2.17607 0
M  V30 10776 H 1007.84 2.18773 -4.32855 0
M  V30 10777 H 1003.71 3.05005 -3.45677 0
M  V30 10778 H 1007.26 1.90084 -6.71203 0
M  V30 10779 H 1003.16 2.76679 -5.83197 0
M  V30 10780 H 1003.92 2.30106 -7.85489 0
M  V30 10781 N 1006.59 1.25851 0.948643 0
M  V30 10782 C 1007.53 1.06559 2.06756 0
M  V30 10783 C 1008.53 -0.00528632 1.69399 0
M  V30 10784 O 1009.73 0.150806 1.79367 0
M  V30 10785 H 1006.11 0.327689 0.676848 0
M  V30 10786 H 1008.08 2.01401 2.20182 0
M  V30 10787 C 1006.83 0.707392 3.40428 0
M  V30 10788 H 1006.15 1.52324 3.69645 0
M  V30 10789 H 1007.59 0.612142 4.19558 0
M  V30 10790 C 1006.05 -0.58697 3.31747 0
M  V30 10791 O 1006.58 -1.62741 3.67258 0
M  V30 10792 N 1004.79 -0.574828 2.84858 0
M  V30 10793 H 1004.33 0.272236 2.56157 0
M  V30 10794 H 1004.29 -1.441 2.79432 0
M  V30 10795 N 1008.06 -1.15214 1.07534 0
M  V30 10796 C 1008.99 -2.2216 0.718837 0
M  V30 10797 C 1009.98 -1.6753 -0.29459 0
M  V30 10798 O 1011.16 -1.93481 -0.166931 0
M  V30 10799 C 1008.29 -3.471 0.117836 0
M  V30 10800 C 1007.24 -4.14701 1.05862 0
M  V30 10801 C 1006.57 -5.3374 0.320284 0
M  V30 10802 C 1007.87 -4.64254 2.39302 0
M  V30 10803 H 1009.56 -2.52237 1.61297 0
M  V30 10804 H 1007.11 -1.21239 0.776992 0
M  V30 10805 H 1009.06 -4.21156 -0.143519 0
M  V30 10806 H 1007.79 -3.16361 -0.811389 0
M  V30 10807 H 1006.45 -3.42589 1.30493 0
M  V30 10808 H 1006.09 -4.99257 -0.61246 0
M  V30 10809 H 1005.79 -5.79912 0.947381 0
M  V30 10810 H 1007.32 -6.10563 0.0667721 0
M  V30 10811 H 1008.73 -5.29827 2.18988 0
M  V30 10812 H 1007.13 -5.21095 2.97623 0
M  V30 10813 H 1008.2 -3.79793 3.01472 0
M  V30 10814 N 1009.54 -0.859717 -1.32086 0
M  V30 10815 C 1010.47 -0.323502 -2.31248 0
M  V30 10816 C 1011.45 0.580085 -1.59903 0
M  V30 10817 O 1012.64 0.499265 -1.87673 0
M  V30 10818 C 1009.77 0.484661 -3.43902 0
M  V30 10819 C 1008.72 -0.324933 -4.26765 0
M  V30 10820 C 1008.05 0.608281 -5.31229 0
M  V30 10821 C 1009.35 -1.55344 -4.98664 0
M  V30 10822 H 1011.04 -1.15209 -2.76346 0
M  V30 10823 H 1008.59 -0.555442 -1.32856 0
M  V30 10824 H 1010.54 0.870238 -4.12316 0
M  V30 10825 H 1009.27 1.34666 -2.97544 0
M  V30 10826 H 1007.92 -0.692328 -3.60003 0
M  V30 10827 H 1007.57 1.46727 -4.81124 0
M  V30 10828 H 1007.27 0.0705571 -5.87558 0
M  V30 10829 H 1008.8 0.990925 -6.02506 0
M  V30 10830 H 1010.21 -1.23987 -5.59732 0
M  V30 10831 H 1008.61 -2.02947 -5.64741 0
M  V30 10832 H 1009.68 -2.31192 -4.26237 0
M  V30 10833 N 1011.02 1.44971 -0.618145 0
M  V30 10834 C 1012.25 2.07039 -0.122395 0
M  V30 10835 C 1012.67 1.45793 1.18853 0
M  V30 10836 O 1012.03 0.55453 1.72611 0
M  V30 10837 C 1012.08 3.60599 -0.0073864 0
M  V30 10838 O 1011.18 3.99069 1.04007 0
M  V30 10839 H 1010.52 0.6593 -0.0788615 0
M  V30 10840 H 1013.05 1.86055 -0.851147 0
M  V30 10841 H 1013.06 4.07569 0.187417 0
M  V30 10842 H 1011.74 4.04561 -0.964544 0
M  V30 10843 H 1010.31 3.63753 0.820879 0
M  V30 10844 N 1012.5 0.357919 1.53482 0
M  V30 10845 C 1013.45 -0.507364 2.26999 0
M  V30 10846 C 1014.44 -1.08987 1.29685 0
M  V30 10847 O 1015.65 -1.03396 1.47341 0
M  V30 10848 H 1012.02 -0.182326 0.729562 0
M  V30 10849 H 1013.99 0.134547 2.98097 0
M  V30 10850 C 1012.74 -1.63911 3.06641 0
M  V30 10851 H 1012.06 -1.20017 3.81361 0
M  V30 10852 H 1013.5 -2.21943 3.61272 0
M  V30 10853 C 1011.96 -2.57697 2.17011 0
M  V30 10854 O 1012.49 -3.60318 1.77578 0
M  V30 10855 N 1010.7 -2.2671 1.818 0
M  V30 10856 H 1010.25 -1.43296 2.14065 0
M  V30 10857 H 1010.2 -2.89716 1.22115 0
M  V30 10858 N 1013.98 -1.5736 0.0868897 0
M  V30 10859 C 1014.94 -2.12436 -0.860439 0
M  V30 10860 C 1015.94 -1.05175 -1.21634 0
M  V30 10861 O 1017.13 -1.31098 -1.14713 0
M  V30 10862 C 1014.26 -2.63818 -2.159 0
M  V30 10863 H 1015.45 -2.97453 -0.382346 0
M  V30 10864 H 1013.01 -1.55458 -0.162009 0
M  V30 10865 H 1013.74 -1.82298 -2.68212 0
M  V30 10866 H 1013.53 -3.42234 -1.91359 0
M  V30 10867 H 1015.02 -3.06452 -2.83685 0
M  V30 10868 N 1015.45 0.186762 -1.56489 0
M  V30 10869 C 1016.39 1.25971 -1.9028 0
M  V30 10870 C 1017.37 1.43543 -0.763822 0
M  V30 10871 O 1018.55 1.58799 -1.01564 0
M  V30 10872 C 1015.68 2.62507 -2.14028 0
M  V30 10873 C 1014.72 2.61758 -3.36727 0
M  V30 10874 S 1015.56 2.12366 -4.9159 0
M  V30 10875 C 1016.71 3.5071 -5.18414 0
M  V30 10876 H 1016.94 0.971203 -2.80989 0
M  V30 10877 H 1014.48 0.390636 -1.49377 0
M  V30 10878 H 1016.44 3.41098 -2.28391 0
M  V30 10879 H 1015.1 2.88564 -1.24054 0
M  V30 10880 H 1014.29 3.62173 -3.50495 0
M  V30 10881 H 1013.89 1.91254 -3.214 0
M  V30 10882 H 1016.18 4.46622 -5.09445 0
M  V30 10883 H 1017.13 3.41829 -6.20128 0
M  V30 10884 H 1017.53 3.46008 -4.46026 0
M  V30 10885 N 1016.93 1.50896 0.454776 0
M  V30 10886 C 1017.88 1.70947 1.55067 0
M  V30 10887 C 1018.85 0.550899 1.56698 0
M  V30 10888 O 1020.03 0.783352 1.73978 0
M  V30 10889 C 1017.17 1.82455 2.92924 0
M  V30 10890 C 1016.29 3.09919 3.00956 0
M  V30 10891 C 1015.42 3.12125 4.29827 0
M  V30 10892 C 1014.46 4.33975 4.31662 0
M  V30 10893 N 1013.6 4.33828 5.5203 0
M  V30 10894 H 1018.44 2.645 1.37273 0
M  V30 10895 H 1015.98 1.31101 0.667148 0
M  V30 10896 H 1017.93 1.87108 3.72889 0
M  V30 10897 H 1016.56 0.92327 3.09315 0
M  V30 10898 H 1015.62 3.14659 2.13761 0
M  V30 10899 H 1016.93 3.99869 2.98172 0
M  V30 10900 H 1016.08 3.15598 5.18154 0
M  V30 10901 H 1014.82 2.20033 4.35243 0
M  V30 10902 H 1013.83 4.30697 3.41731 0
M  V30 10903 H 1015.05 5.27312 4.27924 0
M  V30 10904 H 1013 3.44598 5.58201 0
M  V30 10905 H 1012.91 5.17566 5.51055 0
M  V30 10906 H 1014.18 4.4147 6.42437 0
M  V30 10907 N 1018.41 -0.709066 1.40748 0
M  V30 10908 C 1019.66 -1.46901 1.39378 0
M  V30 10909 C 1019.99 -1.945 -0.0016993 0
M  V30 10910 O 1019.24 -1.68963 -0.987426 0
M  V30 10911 C 1019.54 -2.70543 2.33541 0
M  V30 10912 C 1019.21 -2.41674 3.80663 0
M  V30 10913 C 1017.87 -2.33511 4.20745 0
M  V30 10914 C 1020.22 -2.1759 4.73607 0
M  V30 10915 C 1017.55 -1.99342 5.51797 0
M  V30 10916 C 1019.9 -1.84933 6.04965 0
M  V30 10917 C 1018.56 -1.75256 6.44082 0
M  V30 10918 H 1017.83 -0.537549 0.510021 0
M  V30 10919 H 1020.48 -0.811635 1.7345 0
M  V30 10920 H 1018.79 -3.41149 1.92677 0
M  V30 10921 H 1020.48 -3.2865 2.29761 0
M  V30 10922 H 1017.07 -2.48917 3.4891 0
M  V30 10923 H 1021.26 -2.22849 4.43454 0
M  V30 10924 H 1016.51 -1.90392 5.81 0
M  V30 10925 H 1020.69 -1.65313 6.76494 0
M  V30 10926 H 1018.31 -1.48547 7.45545 0
M  V30 10927 N 1019.89 -1.26353 -0.941956 0
M  V30 10928 C 1021.12 -1.14626 -1.72245 0
M  V30 10929 C 1021.53 0.298588 -1.86424 0
M  V30 10930 O 1020.89 1.2045 -1.37106 0
M  V30 10931 C 1020.94 -1.80933 -3.12963 0
M  V30 10932 O 1020.66 -3.19771 -2.99463 0
M  V30 10933 C 1022.16 -1.7515 -4.07231 0
M  V30 10934 H 1019.38 -0.3992 -0.539333 0
M  V30 10935 H 1021.93 -1.66958 -1.1809 0
M  V30 10936 H 1020.08 -1.32541 -3.64021 0
M  V30 10937 H 1020.5 -3.52571 -3.88322 0
M  V30 10938 H 1021.97 -2.26183 -5.03533 0
M  V30 10939 H 1022.45 -0.717855 -4.33294 0
M  V30 10940 H 1023.05 -2.2309 -3.62093 0
M  V30 10941 N 1021.37 1.14642 -1.08144 0
M  V30 10942 C 1022.78 1.6719 -0.830923 0
M  V30 10943 C 1023.13 1.85373 0.642749 0
M  V30 10944 O 1022.25 1.56293 1.49671 0
M  V30 10945 C 1022.85 3.03697 -1.50179 0
M  V30 10946 C 1021.41 3.5329 -1.29858 0
M  V30 10947 C 1020.56 2.28828 -1.5663 0
M  V30 10948 H 1023.51 0.987441 -1.24239 0
M  V30 10949 H 1023.53 3.69023 -0.9275 0
M  V30 10950 H 1023.04 2.90431 -2.57432 0
M  V30 10951 H 1021.14 3.71783 -0.246626 0
M  V30 10952 H 1021.25 4.34231 -2.02436 0
M  V30 10953 H 1019.62 2.34769 -0.987716 0
M  V30 10954 H 1020.4 2.18141 -2.65084 0
M  V30 10955 N 1022.85 0.866709 1.31628 0
M  V30 10956 C 1024.07 0.49039 2.01004 0
M  V30 10957 C 1024.49 -0.916244 1.65077 0
M  V30 10958 O 1023.85 -1.59975 0.8783 0
M  V30 10959 C 1023.9 0.634011 3.55897 0
M  V30 10960 O 1023.62 1.98525 3.90537 0
M  V30 10961 C 1025.12 0.258277 4.42547 0
M  V30 10962 H 1022.34 0.191421 0.643117 0
M  V30 10963 H 1024.88 1.16698 1.67934 0
M  V30 10964 H 1023.04 0.00501801 3.874 0
M  V30 10965 H 1023.45 1.99067 4.85255 0
M  V30 10966 H 1024.93 0.409733 5.50477 0
M  V30 10967 H 1025.4 -0.802301 4.3181 0
M  V30 10968 H 1026.01 0.862837 4.16456 0
M  V30 10969 N 1024.32 -1.44642 0.625825 0
M  V30 10970 C 1025.6 -1.9551 0.0593587 0
M  V30 10971 C 1025.98 -1.56792 -1.41349 0
M  V30 10972 O 1025.33 -0.839373 -2.12525 0
M  V30 10973 C 1025.54 -3.47902 0.276647 0
M  V30 10974 C 1026.89 -4.24271 0.167044 0
M  V30 10975 O 1027.91 -3.55594 0.207731 0
M  V30 10976 O 1026.77 -5.46458 0.0675 0
M  V30 10977 H 1023.86 -0.826612 -0.0253422 0
M  V30 10978 H 1026.41 -1.54718 0.697159 0
M  V30 10979 H 1025.18 -3.69115 1.29885 0
M  V30 10980 H 1024.8 -3.95628 -0.395547 0
M  V30 10981 N 1025.8 -0.366053 -1.5329 0
M  V30 10982 C 1027.05 0.223051 -2.00865 0
M  V30 10983 C 1027.37 1.49244 -1.25504 0
M  V30 10984 O 1026.64 1.92404 -0.368444 0
M  V30 10985 H 1025.22 0.085413 -0.742101 0
M  V30 10986 H 1027.88 -0.492396 -1.88578 0
M  V30 10987 H 1026.98 0.449701 -3.08843 0
M  V30 10988 N 1027.28 1.57312 -0.0952337 0
M  V30 10989 C 1028.51 1.98697 0.57682 0
M  V30 10990 C 1028.92 0.974347 1.61716 0
M  V30 10991 O 1028.28 -0.036022 1.82464 0
M  V30 10992 C 1028.33 3.40133 1.2244 0
M  V30 10993 O 1028.05 4.37518 0.225678 0
M  V30 10994 C 1029.55 3.96522 1.98205 0
M  V30 10995 H 1026.77 0.65294 0.154629 0
M  V30 10996 H 1029.32 2.03754 -0.174562 0
M  V30 10997 H 1027.47 3.3609 1.92671 0
M  V30 10998 H 1027.89 5.199 0.693116 0
M  V30 10999 H 1029.36 4.97637 2.38875 0
M  V30 11000 H 1029.84 3.34347 2.84796 0
M  V30 11001 H 1030.44 4.04038 1.3279 0
M  V30 11002 N 1028.76 -0.17846 1.56586 0
M  V30 11003 C 1030.01 -0.894502 1.8078 0
M  V30 11004 C 1030.32 -1.8372 0.67129 0
M  V30 11005 O 1031.53 -2.59509 0.797971 0
M  V30 11006 C 1029.98 -1.64109 3.20306 0
M  V30 11007 C 1029.59 -0.742387 4.41806 0
M  V30 11008 C 1031.33 -2.34578 3.53798 0
M  V30 11009 C 1029.24 -1.4888 5.72354 0
M  V30 11010 H 1028.17 -0.33776 0.674117 0
M  V30 11011 H 1030.82 -0.14752 1.82906 0
M  V30 11012 H 1029.2 -2.43257 3.12477 0
M  V30 11013 H 1030.38 0.011615 4.60799 0
M  V30 11014 H 1028.69 -0.147705 4.16138 0
M  V30 11015 H 1031.29 -2.91004 4.48577 0
M  V30 11016 H 1031.63 -3.09572 2.78336 0
M  V30 11017 H 1032.17 -1.62381 3.63149 0
M  V30 11018 H 1028.9 -0.781325 6.50827 0
M  V30 11019 H 1028.42 -2.21631 5.57351 0
M  V30 11020 H 1030.1 -2.03819 6.14058 0
M  V30 11021 N 1030.24 -1.51135 -0.446768 0
M  V30 11022 C 1031.46 -1.67129 -1.21965 0
M  V30 11023 C 1031.88 -0.36467 -1.85245 0
M  V30 11024 O 1031.24 0.655908 -1.70306 0
M  V30 11025 C 1031.29 -2.78016 -2.31061 0
M  V30 11026 O 1031.01 -4.03615 -1.70371 0
M  V30 11027 C 1032.51 -3.05197 -3.21511 0
M  V30 11028 H 1029.73 -0.561111 -0.367961 0
M  V30 11029 H 1032.27 -1.97499 -0.530517 0
M  V30 11030 H 1030.43 -2.50272 -2.95707 0
M  V30 11031 H 1030.84 -4.65126 -2.424 0
M  V30 11032 H 1032.32 -3.8639 -3.94216 0
M  V30 11033 H 1032.79 -2.17228 -3.81718 0
M  V30 11034 H 1033.4 -3.34565 -2.62577 0
M  V30 11035 N 1031.71 0.701592 -1.41122 0
M  V30 11036 C 1032.96 1.46376 -1.40363 0
M  V30 11037 C 1033.29 1.94197 -0.0105442 0
M  V30 11038 O 1032.57 1.69121 0.960637 0
M  V30 11039 C 1032.85 2.67994 -2.40523 0
M  V30 11040 C 1032.7 2.25977 -3.88914 0
M  V30 11041 C 1034.02 3.70181 -2.38022 0
M  V30 11042 H 1031.14 0.530929 -0.511159 0
M  V30 11043 H 1033.78 0.799588 -1.72356 0
M  V30 11044 H 1031.93 3.24661 -2.13372 0
M  V30 11045 H 1033.61 1.74684 -4.26946 0
M  V30 11046 H 1031.85 1.57826 -4.04071 0
M  V30 11047 H 1032.52 3.13215 -4.54533 0
M  V30 11048 H 1035 3.23174 -2.62103 0
M  V30 11049 H 1033.87 4.52894 -3.10127 0
M  V30 11050 H 1034.13 4.19458 -1.3967 0
M  V30 11051 N 1033.19 1.2685 0.935242 0
M  V30 11052 C 1034.42 1.15645 1.72165 0
M  V30 11053 C 1034.84 -0.283909 1.85945 0
M  V30 11054 O 1034.2 -1.20567 1.354 0
M  V30 11055 C 1034.25 1.83689 3.10307 0
M  V30 11056 O 1033.35 1.12972 3.96625 0
M  V30 11057 H 1032.69 0.402629 0.528002 0
M  V30 11058 H 1035.22 1.67781 1.17093 0
M  V30 11059 H 1035.23 1.90749 3.60664 0
M  V30 11060 H 1033.91 2.88472 2.99595 0
M  V30 11061 H 1032.48 1.13929 3.5507 0
M  V30 11062 N 1034.67 -1.14067 1.0875 0
M  V30 11063 C 1035.6 -2.21385 0.74236 0
M  V30 11064 C 1036.58 -1.67833 -0.276805 0
M  V30 11065 O 1037.77 -1.93647 -0.1464 0
M  V30 11066 C 1034.9 -3.46956 0.154644 0
M  V30 11067 C 1033.85 -4.13555 1.10255 0
M  V30 11068 C 1033.18 -5.3337 0.376877 0
M  V30 11069 C 1034.48 -4.6169 2.44213 0
M  V30 11070 H 1036.17 -2.50512 1.63964 0
M  V30 11071 H 1033.72 -1.20408 0.789807 0
M  V30 11072 H 1035.67 -4.21284 -0.0988419 0
M  V30 11073 H 1034.39 -3.17203 -0.777789 0
M  V30 11074 H 1033.05 -3.41186 1.34119 0
M  V30 11075 H 1032.7 -4.99879 -0.559472 0
M  V30 11076 H 1032.4 -5.78875 1.00884 0
M  V30 11077 H 1033.92 -6.10458 0.131527 0
M  V30 11078 H 1035.34 -5.27475 2.24595 0
M  V30 11079 H 1033.74 -5.17909 3.03134 0
M  V30 11080 H 1034.81 -3.76574 3.05483 0
M  V30 11081 N 1036.15 -0.873678 -1.31166 0
M  V30 11082 C 1037.08 -0.289389 -2.27366 0
M  V30 11083 C 1038.09 0.549667 -1.5324 0
M  V30 11084 O 1039.28 0.371056 -1.74601 0
M  V30 11085 C 1036.38 0.60807 -3.334 0
M  V30 11086 C 1035.56 -0.199379 -4.36945 0
M  V30 11087 C 1034.61 0.626798 -5.22454 0
M  V30 11088 O 1033.64 0.0535121 -5.69175 0
M  V30 11089 N 1034.84 1.93809 -5.47191 0
M  V30 11090 H 1037.61 -1.1161 -2.78143 0
M  V30 11091 H 1035.17 -0.735529 -1.44228 0
M  V30 11092 H 1037.16 1.16656 -3.87522 0
M  V30 11093 H 1035.73 1.33545 -2.82638 0
M  V30 11094 H 1034.95 -0.939316 -3.82845 0
M  V30 11095 H 1036.24 -0.75329 -5.03193 0
M  V30 11096 H 1035.64 2.42693 -5.10995 0
M  V30 11097 H 1034.19 2.44428 -6.04234 0
M  V30 11098 N 1037.63 1.44308 -0.633487 0
M  V30 11099 C 1039.04 1.85387 -0.221009 0
M  V30 11100 C 1039.39 1.5301 1.22811 0
M  V30 11101 O 1038.51 0.969325 1.93476 0
M  V30 11102 C 1039.11 3.36497 -0.394331 0
M  V30 11103 C 1037.67 3.76382 -0.0363405 0
M  V30 11104 C 1036.81 2.68146 -0.706598 0
M  V30 11105 H 1039.77 1.34741 -0.83849 0
M  V30 11106 H 1039.79 3.78735 0.366026 0
M  V30 11107 H 1039.3 3.60031 -1.44911 0
M  V30 11108 H 1037.4 3.58463 1.01661 0
M  V30 11109 H 1037.51 4.77 -0.448045 0
M  V30 11110 H 1035.88 2.54306 -0.14168 0
M  V30 11111 H 1036.66 2.94512 -1.76401 0
M  V30 11112 N 1039.1 0.374177 1.53094 0
M  V30 11113 C 1040.01 -0.475935 2.29722 0
M  V30 11114 C 1041.03 -1.085 1.36029 0
M  V30 11115 O 1042.21 -1.09408 1.69091 0
M  V30 11116 C 1039.27 -1.59572 3.07795 0
M  V30 11117 C 1038.33 -1.01332 4.17169 0
M  V30 11118 C 1037.57 -2.07975 4.9151 0
M  V30 11119 O 1037.79 -3.29232 4.65793 0
M  V30 11120 O 1036.72 -1.7055 5.77232 0
M  V30 11121 H 1040.55 0.147877 3.0334 0
M  V30 11122 H 1038.13 0.138312 1.48758 0
M  V30 11123 H 1040.02 -2.24658 3.5652 0
M  V30 11124 H 1038.69 -2.20478 2.37005 0
M  V30 11125 H 1037.6 -0.326133 3.72676 0
M  V30 11126 H 1038.93 -0.4487 4.90151 0
M  V30 11127 N 1040.58 -1.57259 0.103575 0
M  V30 11128 C 1041.83 -1.94272 -0.557024 0
M  V30 11129 C 1042.15 -0.986739 -1.68192 0
M  V30 11130 O 1041.42 -0.0402818 -1.95859 0
M  V30 11131 H 1040 -0.717237 -0.208757 0
M  V30 11132 H 1042.66 -1.94167 0.168898 0
M  V30 11133 H 1041.76 -2.96914 -0.961691 0
M  V30 11134 N 1042.06 0.170153 -1.56679 0
M  V30 11135 C 1043.01 1.22997 -1.9742 0
M  V30 11136 C 1044 1.45762 -0.863117 0
M  V30 11137 O 1045.21 1.46328 -1.04824 0
M  V30 11138 H 1041.58 0.413482 -0.628122 0
M  V30 11139 H 1043.55 0.859502 -2.85754 0
M  V30 11140 C 1042.3 2.5615 -2.35122 0
M  V30 11141 H 1041.63 2.39456 -3.20158 0
M  V30 11142 H 1043.07 3.28991 -2.67471 0
M  V30 11143 C 1041.53 3.14992 -1.19507 0
M  V30 11144 O 1042.06 3.98781 -0.483357 0
M  V30 11145 N 1040.26 2.74098 -0.965332 0
M  V30 11146 H 1039.81 2.06062 -1.54585 0
M  V30 11147 H 1039.77 3.13803 -0.193611 0
M  V30 11148 N 1043.54 1.5137 0.438746 0
M  V30 11149 C 1044.77 1.6753 1.20901 0
M  V30 11150 C 1045.18 0.371573 1.85515 0
M  V30 11151 O 1044.52 -0.659701 1.71446 0
M  V30 11152 C 1044.58 2.73305 2.33548 0
M  V30 11153 C 1044.25 4.15944 1.89313 0
M  V30 11154 C 1045.24 5.00769 1.39736 0
M  V30 11155 C 1042.93 4.62036 1.97047 0
M  V30 11156 C 1044.92 6.29747 0.984773 0
M  V30 11157 C 1042.61 5.91011 1.554 0
M  V30 11158 C 1043.61 6.74693 1.06197 0
M  V30 11159 O 1043.29 8.01256 0.651407 0
M  V30 11160 H 1043.03 0.565404 0.370532 0
M  V30 11161 H 1045.58 1.98543 0.526296 0
M  V30 11162 H 1043.81 2.37604 3.05092 0
M  V30 11163 H 1045.5 2.78359 2.95417 0
M  V30 11164 H 1046.27 4.66363 1.33156 0
M  V30 11165 H 1042.14 3.97025 2.34291 0
M  V30 11166 H 1045.69 6.95015 0.600029 0
M  V30 11167 H 1041.59 6.24932 1.6165 0
M  V30 11168 H 1042.35 8.148 0.777382 0
M  V30 11169 N 1045.02 -0.694098 1.41492 0
M  V30 11170 C 1046.26 -1.46637 1.42398 0
M  V30 11171 C 1046.62 -1.91973 0.0321256 0
M  V30 11172 O 1047.82 -2.68669 -0.0840324 0
M  V30 11173 C 1046.09 -2.64474 2.40392 0
M  V30 11174 S 1047.65 -3.53595 2.59838 0
M  V30 11175 H 1044.47 -0.501074 0.504427 0
M  V30 11176 H 1047.07 -0.809761 1.77941 0
M  V30 11177 H 1045.78 -2.29374 3.40317 0
M  V30 11178 H 1045.31 -3.35026 2.06206 0
M  V30 11179 H 1047.32 -4.59741 1.86689 0
M  V30 11180 N 1046.49 -1.27344 -0.928501 0
M  V30 11181 C 1047.91 -1.04732 -1.2043 0
M  V30 11182 C 1048.11 0.219623 -2.003 0
M  V30 11183 O 1047.17 0.925333 -2.34934 0
M  V30 11184 C 1048.48 -2.28625 -1.95323 0
M  V30 11185 C 1050.03 -2.33655 -2.08265 0
M  V30 11186 C 1050.5 -3.57275 -2.86563 0
M  V30 11187 N 1051.99 -3.57828 -2.94132 0
M  V30 11188 C 1052.73 -4.50152 -3.55177 0
M  V30 11189 N 1052.22 -5.52779 -4.17621 0
M  V30 11190 N 1054.02 -4.37777 -3.52573 0
M  V30 11191 H 1046.17 -2.08697 -0.394892 0
M  V30 11192 H 1048.43 -0.91782 -0.2373 0
M  V30 11193 H 1048.14 -3.20845 -1.44054 0
M  V30 11194 H 1048.01 -2.33878 -2.95941 0
M  V30 11195 H 1050.4 -1.41942 -2.58721 0
M  V30 11196 H 1050.48 -2.32406 -1.0687 0
M  V30 11197 H 1050.12 -4.49325 -2.3679 0
M  V30 11198 H 1050.05 -3.55775 -3.88242 0
M  V30 11199 H 1052.54 -2.83607 -2.49751 0
M  V30 11200 H 1052.86 -6.19394 -4.62137 0
M  V30 11201 H 1051.2 -5.56622 -4.16169 0
M  V30 11202 H 1054.39 -3.56811 -3.02991 0
M  V30 11203 H 1054.57 -5.09919 -3.99858 0
M  V30 11204 N 1047.97 1.13488 -1.09353 0
M  V30 11205 C 1048.9 2.20988 -0.75409 0
M  V30 11206 C 1049.88 1.67977 0.267901 0
M  V30 11207 O 1051.07 1.93722 0.136128 0
M  V30 11208 C 1048.2 3.46869 -0.173042 0
M  V30 11209 C 1047.15 4.12965 -1.12446 0
M  V30 11210 C 1046.48 5.33163 -0.405157 0
M  V30 11211 C 1047.78 4.60388 -2.46658 0
M  V30 11212 H 1049.47 2.49639 -1.6529 0
M  V30 11213 H 1047.02 1.19987 -0.796182 0
M  V30 11214 H 1048.97 4.21331 0.0764988 0
M  V30 11215 H 1047.7 3.17611 0.760956 0
M  V30 11216 H 1046.35 3.40469 -1.35927 0
M  V30 11217 H 1046 5.00169 0.532955 0
M  V30 11218 H 1045.7 5.78332 -1.03952 0
M  V30 11219 H 1047.23 6.1038 -0.163899 0
M  V30 11220 H 1048.64 5.26276 -2.27389 0
M  V30 11221 H 1047.04 5.16294 -3.05876 0
M  V30 11222 H 1048.11 3.74949 -3.07476 0
M  V30 11223 N 1049.45 0.880621 1.30701 0
M  V30 11224 C 1050.38 0.288813 2.26365 0
M  V30 11225 C 1051.36 -0.588135 1.51591 0
M  V30 11226 O 1052.55 -0.539197 1.80624 0
M  V30 11227 C 1049.67 -0.590032 3.33521 0
M  V30 11228 C 1048.72 0.217003 4.25948 0
M  V30 11229 S 1049.55 1.60246 5.10961 0
M  V30 11230 C 1050.71 0.730023 6.21628 0
M  V30 11231 H 1050.94 1.09971 2.76213 0
M  V30 11232 H 1048.47 0.67978 1.3863 0
M  V30 11233 H 1050.43 -1.09136 3.95727 0
M  V30 11234 H 1049.09 -1.37498 2.82406 0
M  V30 11235 H 1048.29 -0.453481 5.01956 0
M  V30 11236 H 1047.89 0.650803 3.68294 0
M  V30 11237 H 1050.18 -0.0548644 6.77478 0
M  V30 11238 H 1051.12 1.46157 6.92852 0
M  V30 11239 H 1051.53 0.292854 5.6374 0
M  V30 11240 N 1050.93 -1.4397 0.641131 0
M  V30 11241 C 1052.18 -2.02246 0.14985 0
M  V30 11242 C 1052.51 -1.50387 -1.22871 0
M  V30 11243 O 1051.78 -0.692003 -1.81773 0
M  V30 11244 C 1052.07 -3.59798 0.147449 0
M  V30 11245 C 1051.92 -4.21916 1.55907 0
M  V30 11246 C 1053.24 -4.36985 -0.522667 0
M  V30 11247 H 1050.36 -0.734875 0.0559274 0
M  V30 11248 H 1053 -1.71418 0.819513 0
M  V30 11249 H 1051.15 -3.86193 -0.422789 0
M  V30 11250 H 1052.82 -4.06594 2.17896 0
M  V30 11251 H 1051.06 -3.79028 2.10998 0
M  V30 11252 H 1051.74 -5.30964 1.50934 0
M  V30 11253 H 1054.21 -4.16083 -0.0376226 0
M  V30 11254 H 1053.09 -5.46676 -0.493572 0
M  V30 11255 H 1053.35 -4.12335 -1.59475 0
M  V30 11256 N 1052.41 -0.382291 -1.52893 0
M  V30 11257 C 1053.35 0.456234 -2.26246 0
M  V30 11258 C 1054.32 1.06366 -1.27575 0
M  V30 11259 O 1055.51 1.09301 -1.5639 0
M  V30 11260 C 1052.65 1.5813 -3.06739 0
M  V30 11261 C 1051.76 0.997416 -4.20328 0
M  V30 11262 C 1050.9 2.09296 -4.8823 0
M  V30 11263 C 1049.94 1.4846 -5.93823 0
M  V30 11264 N 1049.07 2.51916 -6.55349 0
M  V30 11265 H 1053.91 -0.175761 -2.97481 0
M  V30 11266 H 1051.45 -0.0985046 -1.4677 0
M  V30 11267 H 1053.41 2.24426 -3.51694 0
M  V30 11268 H 1052.04 2.18371 -2.37727 0
M  V30 11269 H 1051.09 0.224251 -3.79738 0
M  V30 11270 H 1052.4 0.512784 -4.96157 0
M  V30 11271 H 1051.56 2.83377 -5.36453 0
M  V30 11272 H 1050.3 2.61116 -4.1191 0
M  V30 11273 H 1049.3 0.729001 -5.44946 0
M  V30 11274 H 1050.53 0.97443 -6.72073 0
M  V30 11275 H 1048.47 3.02919 -5.81873 0
M  V30 11276 H 1048.39 2.08188 -7.26769 0
M  V30 11277 H 1049.66 3.25649 -7.08218 0
M  V30 11278 N 1053.89 1.57202 -0.111913 0
M  V30 11279 C 1055.16 1.86459 0.590972 0
M  V30 11280 C 1055.54 1.01182 1.85271 0
M  V30 11281 O 1054.89 0.0887891 2.28327 0
M  V30 11282 C 1055.1 3.37455 0.890225 0
M  V30 11283 C 1056.45 4.05895 1.24638 0
M  V30 11284 O 1057.47 3.42433 0.980713 0
M  V30 11285 O 1056.33 5.17903 1.74466 0
M  V30 11286 H 1053.43 0.771652 0.297459 0
M  V30 11287 H 1055.97 1.69072 -0.145882 0
M  V30 11288 H 1054.74 3.913 -0.00419012 0
M  V30 11289 H 1054.37 3.60248 1.68248 0
M  V30 11290 N 1055.36 -0.161842 1.56767 0
M  V30 11291 C 1056.59 -0.892247 1.86672 0
M  V30 11292 C 1057.01 -1.75407 0.69841 0
M  V30 11293 O 1056.36 -1.7945 -0.332251 0
M  V30 11294 C 1056.41 -1.7612 3.15696 0
M  V30 11295 O 1056.14 -0.934131 4.28025 0
M  V30 11296 C 1057.64 -2.60046 3.59014 0
M  V30 11297 H 1054.86 -0.258747 0.619105 0
M  V30 11298 H 1057.4 -0.159089 2.0388 0
M  V30 11299 H 1055.56 -2.44759 3.00286 0
M  V30 11300 H 1055.97 -1.52931 5.01709 0
M  V30 11301 H 1057.44 -3.16618 4.5217 0
M  V30 11302 H 1057.92 -3.35374 2.83586 0
M  V30 11303 H 1058.53 -1.96724 3.77067 0
M  V30 11304 N 1056.84 -1.516 -0.430713 0
M  V30 11305 C 1058.09 -1.64271 -1.17726 0
M  V30 11306 C 1058.41 -0.364406 -1.91565 0
M  V30 11307 O 1057.68 0.619991 -1.8583 0
M  V30 11308 H 1056.26 -0.605432 -0.437562 0
M  V30 11309 H 1058.92 -1.88557 -0.493166 0
M  V30 11310 H 1058.02 -2.47355 -1.90321 0
M  V30 11311 N 1058.32 0.686584 -1.41858 0
M  V30 11312 C 1059.57 1.44235 -1.40994 0
M  V30 11313 C 1059.88 1.95583 -0.0254979 0
M  V30 11314 O 1061.09 2.71294 0.10576 0
M  V30 11315 C 1059.54 2.6086 -2.47952 0
M  V30 11316 C 1059.15 2.16259 -3.92347 0
M  V30 11317 C 1060.9 3.38441 -2.56237 0
M  V30 11318 C 1058.8 3.29896 -4.90838 0
M  V30 11319 H 1057.73 0.54181 -0.524364 0
M  V30 11320 H 1060.38 0.744486 -1.67719 0
M  V30 11321 H 1058.77 3.32957 -2.14373 0
M  V30 11322 H 1059.94 1.51392 -4.35221 0
M  V30 11323 H 1058.25 1.51648 -3.87804 0
M  V30 11324 H 1060.85 4.23052 -3.27003 0
M  V30 11325 H 1061.19 3.84238 -1.6021 0
M  V30 11326 H 1061.73 2.73406 -2.88953 0
M  V30 11327 H 1058.47 2.89104 -5.88302 0
M  V30 11328 H 1057.99 3.93584 -4.52606 0
M  V30 11329 H 1059.67 3.95541 -5.12012 0
M  V30 11330 N 1059.8 1.27835 0.921735 0
M  V30 11331 C 1061.05 1.14296 1.66676 0
M  V30 11332 C 1061.37 -0.310493 1.92512 0
M  V30 11333 O 1060.64 -1.21637 1.53562 0
M  V30 11334 H 1059.22 0.419994 0.617749 0
M  V30 11335 H 1061.88 1.60449 1.10644 0
M  V30 11336 H 1060.97 1.67654 2.63246 0
M  V30 11337 N 1061.28 -1.12907 1.09954 0
M  V30 11338 C 1062.52 -1.83661 0.833761 0
M  V30 11339 C 1062.84 -1.84736 -0.642798 0
M  V30 11340 O 1064.04 -2.51437 -1.0243 0
M  V30 11341 C 1062.5 -3.29763 1.44168 0
M  V30 11342 C 1062.11 -3.3706 2.95118 0
M  V30 11343 C 1063.85 -4.05522 1.25509 0
M  V30 11344 C 1061.76 -4.77467 3.48969 0
M  V30 11345 H 1060.69 -0.688115 0.308242 0
M  V30 11346 H 1063.34 -1.27166 1.32291 0
M  V30 11347 H 1061.72 -3.86094 0.880215 0
M  V30 11348 H 1062.9 -2.90695 3.57537 0
M  V30 11349 H 1061.21 -2.7477 3.12874 0
M  V30 11350 H 1063.81 -5.09188 1.63191 0
M  V30 11351 H 1064.15 -4.15837 0.196208 0
M  V30 11352 H 1064.68 -3.55536 1.78435 0
M  V30 11353 H 1061.42 -4.72344 4.54501 0
M  V30 11354 H 1060.94 -5.24305 2.91315 0
M  V30 11355 H 1062.62 -5.46397 3.46495 0
M  V30 11356 N 1062.75 -0.88754 -1.30232 0
M  V30 11357 C 1063.7 -0.354497 -2.28061 0
M  V30 11358 C 1064.67 0.556732 -1.56492 0
M  V30 11359 O 1065.86 0.484597 -1.84543 0
M  V30 11360 C 1063 0.422701 -3.42501 0
M  V30 11361 C 1062.11 -0.518036 -4.28883 0
M  V30 11362 C 1061.24 0.275011 -5.30488 0
M  V30 11363 C 1060.28 -0.661032 -6.0852 0
M  V30 11364 N 1059.42 0.0968509 -7.02033 0
M  V30 11365 H 1064.26 -1.19388 -2.73039 0
M  V30 11366 H 1061.8 -0.600091 -1.34303 0
M  V30 11367 H 1063.75 0.889249 -4.07613 0
M  V30 11368 H 1062.38 1.22664 -2.98586 0
M  V30 11369 H 1061.44 -1.10308 -3.64055 0
M  V30 11370 H 1062.75 -1.23504 -4.83268 0
M  V30 11371 H 1061.9 0.803301 -6.01358 0
M  V30 11372 H 1060.64 1.02522 -4.76802 0
M  V30 11373 H 1059.65 -1.20093 -5.36524 0
M  V30 11374 H 1060.87 -1.41037 -6.64293 0
M  V30 11375 H 1058.82 0.829548 -6.50734 0
M  V30 11376 H 1058.73 -0.560476 -7.5392 0
M  V30 11377 H 1060 0.6058 -7.77142 0
M  V30 11378 N 1064.23 1.43628 -0.648757 0
M  V30 11379 C 1065.16 2.29045 0.0841858 0
M  V30 11380 C 1066.18 1.42262 0.791537 0
M  V30 11381 O 1067.37 1.66243 0.650039 0
M  V30 11382 C 1064.47 3.19075 1.14212 0
M  V30 11383 C 1063.64 4.34372 0.513799 0
M  V30 11384 C 1062.7 5.05307 1.46803 0
M  V30 11385 O 1061.72 5.60729 0.978346 0
M  V30 11386 N 1062.93 5.08393 2.80209 0
M  V30 11387 H 1065.69 2.9259 -0.648948 0
M  V30 11388 H 1063.25 1.54268 -0.491209 0
M  V30 11389 H 1065.24 3.63395 1.78119 0
M  V30 11390 H 1063.81 2.57161 1.77728 0
M  V30 11391 H 1063.03 3.93024 -0.304262 0
M  V30 11392 H 1064.32 5.08745 0.0749871 0
M  V30 11393 H 1063.72 4.64729 3.22557 0
M  V30 11394 H 1062.28 5.56445 3.3943 0
M  V30 11395 N 1065.71 0.390394 1.52688 0
M  V30 11396 C 1066.62 -0.451543 2.30213 0
M  V30 11397 C 1067.64 -1.07051 1.37172 0
M  V30 11398 O 1068.81 -1.07609 1.70242 0
M  V30 11399 C 1065.88 -1.56299 3.0947 0
M  V30 11400 C 1064.94 -0.969017 4.18221 0
M  V30 11401 C 1064.17 -2.0275 4.93688 0
M  V30 11402 O 1064.39 -3.24273 4.69258 0
M  V30 11403 O 1063.33 -1.64418 5.79008 0
M  V30 11404 H 1067.15 0.180042 3.03166 0
M  V30 11405 H 1064.74 0.154082 1.48603 0
M  V30 11406 H 1066.62 -2.20864 3.58883 0
M  V30 11407 H 1065.3 -2.17952 2.3933 0
M  V30 11408 H 1064.2 -0.286587 3.73001 0
M  V30 11409 H 1065.54 -0.396687 4.90599 0
M  V30 11410 N 1067.19 -1.57141 0.120249 0
M  V30 11411 C 1068.12 -2.12454 -0.859987 0
M  V30 11412 C 1069.13 -1.06755 -1.22911 0
M  V30 11413 O 1070.32 -1.34124 -1.17784 0
M  V30 11414 C 1067.42 -2.61024 -2.16147 0
M  V30 11415 C 1066.6 -3.90835 -1.96385 0
M  V30 11416 C 1065.65 -4.2499 -3.10274 0
M  V30 11417 O 1064.68 -4.93786 -2.83133 0
M  V30 11418 N 1065.88 -3.82411 -4.36741 0
M  V30 11419 H 1068.65 -2.97186 -0.387402 0
M  V30 11420 H 1066.21 -1.61773 -0.0641376 0
M  V30 11421 H 1068.2 -2.80903 -2.91334 0
M  V30 11422 H 1066.77 -1.81166 -2.5475 0
M  V30 11423 H 1065.99 -3.79853 -1.05383 0
M  V30 11424 H 1067.28 -4.75712 -1.80487 0
M  V30 11425 H 1066.68 -3.26926 -4.61666 0
M  V30 11426 H 1065.23 -4.07395 -5.08795 0
M  V30 11427 N 1068.67 0.153526 -1.5685 0
M  V30 11428 C 1069.6 1.19162 -2.00805 0
M  V30 11429 C 1070.58 1.45172 -0.886518 0
M  V30 11430 O 1071.76 1.56203 -1.15387 0
M  V30 11431 C 1068.89 2.52637 -2.38311 0
M  V30 11432 C 1067.85 2.41161 -3.53589 0
M  V30 11433 C 1067.17 3.79287 -3.76889 0
M  V30 11434 C 1068.47 1.90122 -4.86468 0
M  V30 11435 H 1070.17 0.82617 -2.87776 0
M  V30 11436 H 1067.71 0.395972 -1.38449 0
M  V30 11437 H 1069.67 3.25478 -2.6766 0
M  V30 11438 H 1068.39 2.91005 -1.4827 0
M  V30 11439 H 1067.05 1.70772 -3.24395 0
M  V30 11440 H 1066.7 4.15079 -2.84109 0
M  V30 11441 H 1066.4 3.72472 -4.54465 0
M  V30 11442 H 1067.92 4.53687 -4.08657 0
M  V30 11443 H 1069.33 2.52752 -5.14577 0
M  V30 11444 H 1067.73 1.94214 -5.67804 0
M  V30 11445 H 1068.8 0.856517 -4.77275 0
M  V30 11446 N 1070.14 1.51827 0.422667 0
M  V30 11447 C 1071.56 1.57533 1.00201 0
M  V30 11448 C 1071.91 0.407623 1.91919 0
M  V30 11449 O 1071.03 -0.473763 2.1115 0
M  V30 11450 C 1071.63 2.85508 1.82403 0
M  V30 11451 C 1070.19 2.93737 2.35362 0
M  V30 11452 C 1069.33 2.52343 1.14971 0
M  V30 11453 H 1072.28 1.57391 0.20339 0
M  V30 11454 H 1072.3 2.70097 2.68007 0
M  V30 11455 H 1071.82 3.70477 1.15623 0
M  V30 11456 H 1069.92 2.13231 3.05554 0
M  V30 11457 H 1070.03 3.977 2.67155 0
M  V30 11458 H 1068.39 2.05878 1.49955 0
M  V30 11459 H 1069.18 3.39672 0.497786 0
M  V30 11460 N 1071.62 -0.679052 1.4222 0
M  V30 11461 C 1072.57 -1.78522 1.41824 0
M  V30 11462 C 1073.56 -1.58262 0.290179 0
M  V30 11463 O 1074.75 -1.68813 0.532092 0
M  V30 11464 C 1071.88 -3.16952 1.31895 0
M  V30 11465 C 1070.96 -3.42849 2.4963 0
M  V30 11466 N 1071.35 -3.39354 3.75063 0
M  V30 11467 C 1069.65 -3.73468 2.43799 0
M  V30 11468 C 1070.35 -3.64617 4.53243 0
M  V30 11469 N 1069.33 -3.85174 3.83591 0
M  V30 11470 H 1073.13 -1.74206 2.36705 0
M  V30 11471 H 1070.65 -0.879719 1.36509 0
M  V30 11472 H 1072.64 -3.96214 1.29693 0
M  V30 11473 H 1071.3 -3.22467 0.380127 0
M  V30 11474 H 1072.31 -3.19354 4.07718 0
M  V30 11475 H 1068.99 -3.86254 1.58474 0
M  V30 11476 H 1070.38 -3.67912 5.62219 0
M  V30 11477 N 1073.1 -1.28322 -0.914942 0
M  V30 11478 C 1074.03 -1.14681 -2.03398 0
M  V30 11479 C 1075.01 -0.0448939 -1.70041 0
M  V30 11480 O 1076.2 -0.221672 -1.92931 0
M  V30 11481 C 1073.33 -0.806623 -3.37803 0
M  V30 11482 C 1072.28 -1.86318 -3.85318 0
M  V30 11483 C 1071.61 -1.37665 -5.16674 0
M  V30 11484 C 1072.91 -3.26953 -4.07307 0
M  V30 11485 H 1074.6 -2.08293 -2.15068 0
M  V30 11486 H 1072.15 -1.00284 -1.03339 0
M  V30 11487 H 1074.1 -0.69796 -4.1558 0
M  V30 11488 H 1072.82 0.165203 -3.26182 0
M  V30 11489 H 1071.48 -1.96096 -3.09745 0
M  V30 11490 H 1071.13 -0.393927 -5.01455 0
M  V30 11491 H 1070.83 -2.08313 -5.49435 0
M  V30 11492 H 1072.35 -1.28119 -5.97007 0
M  V30 11493 H 1073.77 -3.20102 -4.75613 0
M  V30 11494 H 1072.17 -3.95424 -4.51398 0
M  V30 11495 H 1073.24 -3.71059 -3.12159 0
M  V30 11496 N 1074.58 1.12322 -1.10551 0
M  V30 11497 C 1075.83 1.83858 -0.848674 0
M  V30 11498 C 1076.15 1.84159 0.62575 0
M  V30 11499 O 1075.41 1.28341 1.4774 0
M  V30 11500 C 1075.71 3.31177 -1.34375 0
M  V30 11501 C 1075.37 3.51046 -2.8298 0
M  V30 11502 C 1074.04 3.56177 -3.23561 0
M  V30 11503 C 1076.39 3.58061 -3.78737 0
M  V30 11504 C 1073.72 3.65868 -4.58647 0
M  V30 11505 C 1076.07 3.69283 -5.13627 0
M  V30 11506 C 1074.73 3.7267 -5.53781 0
M  V30 11507 H 1074 0.672784 -0.310552 0
M  V30 11508 H 1076.65 1.3253 -1.38232 0
M  V30 11509 H 1074.95 3.84937 -0.730144 0
M  V30 11510 H 1076.65 3.84998 -1.12148 0
M  V30 11511 H 1073.24 3.47716 -2.50582 0
M  V30 11512 H 1077.42 3.53366 -3.48491 0
M  V30 11513 H 1072.68 3.66763 -4.89178 0
M  V30 11514 H 1076.85 3.73654 -5.8767 0
M  V30 11515 H 1074.48 3.79932 -6.58449 0
M  V30 11516 N 1076.06 0.894434 1.2976 0
M  V30 11517 C 1076.97 0.372622 2.31622 0
M  V30 11518 C 1077.98 -0.52996 1.65733 0
M  V30 11519 O 1079.16 -0.420807 1.96955 0
M  V30 11520 C 1076.22 -0.396076 3.4443 0
M  V30 11521 C 1075.28 0.537394 4.25923 0
M  V30 11522 C 1074.52 -0.194713 5.33345 0
M  V30 11523 O 1074.74 -1.41943 5.52457 0
M  V30 11524 O 1073.67 0.460055 6.00139 0
M  V30 11525 H 1077.5 1.21756 2.78225 0
M  V30 11526 H 1075.09 0.65858 1.34101 0
M  V30 11527 H 1076.97 -0.830962 4.13126 0
M  V30 11528 H 1075.64 -1.21716 2.99945 0
M  V30 11529 H 1074.55 1.02129 3.5989 0
M  V30 11530 H 1075.88 1.32475 4.74037 0
M  V30 11531 N 1077.53 -1.43282 0.656365 0
M  V30 11532 C 1078.95 -1.56272 0.324213 0
M  V30 11533 C 1079.15 -1.63946 -1.1715 0
M  V30 11534 O 1078.21 -1.59625 -1.95643 0
M  V30 11535 C 1079.52 -2.82204 1.03833 0
M  V30 11536 C 1081.07 -2.95952 1.01889 0
M  V30 11537 C 1081.54 -4.2472 1.71397 0
M  V30 11538 N 1083.03 -4.31591 1.68176 0
M  V30 11539 C 1083.77 -5.30001 2.1883 0
M  V30 11540 N 1083.26 -6.34671 2.77785 0
M  V30 11541 N 1085.06 -5.21676 2.09311 0
M  V30 11542 H 1077.21 -1.36544 1.62694 0
M  V30 11543 H 1079.47 -0.655999 0.684375 0
M  V30 11544 H 1079.18 -2.82608 2.09346 0
M  V30 11545 H 1079.05 -3.72527 0.591878 0
M  V30 11546 H 1081.44 -2.95087 -0.0278431 0
M  V30 11547 H 1081.52 -2.0691 1.50406 0
M  V30 11548 H 1081.16 -4.26346 2.76028 0
M  V30 11549 H 1081.09 -5.12665 1.20342 0
M  V30 11550 H 1083.58 -3.56573 1.25157 0
M  V30 11551 H 1083.9 -7.06087 3.14104 0
M  V30 11552 H 1082.24 -6.35285 2.81847 0
M  V30 11553 H 1085.43 -4.3882 1.62955 0
M  V30 11554 H 1085.61 -5.9821 2.49095 0
M  V30 11555 N 1079.01 -0.398486 -1.52479 0
M  V30 11556 C 1080.26 0.180752 -2.01692 0
M  V30 11557 C 1080.59 1.46044 -1.28457 0
M  V30 11558 O 1079.84 1.92051 -0.376162 0
M  V30 11559 C 1080.14 0.485909 -3.54081 0
M  V30 11560 C 1079.81 -0.703321 -4.45381 0
M  V30 11561 C 1078.47 -1.02955 -4.70057 0
M  V30 11562 C 1080.82 -1.49848 -4.99194 0
M  V30 11563 C 1078.15 -2.15231 -5.45795 0
M  V30 11564 C 1080.5 -2.61192 -5.76161 0
M  V30 11565 C 1079.17 -2.94313 -5.99113 0
M  V30 11566 H 1078.44 0.0661417 -0.738042 0
M  V30 11567 H 1081.08 -0.53772 -1.83796 0
M  V30 11568 H 1079.39 1.28582 -3.701 0
M  V30 11569 H 1081.09 0.946872 -3.89661 0
M  V30 11570 H 1077.68 -0.439062 -4.26345 0
M  V30 11571 H 1081.86 -1.25968 -4.80048 0
M  V30 11572 H 1077.12 -2.41252 -5.61789 0
M  V30 11573 H 1081.29 -3.23201 -6.16858 0
M  V30 11574 H 1078.92 -3.81431 -6.57583 0
M  V30 11575 N 1080.49 1.57075 -0.12858 0
M  V30 11576 C 1081.91 1.57964 0.227961 0
M  V30 11577 C 1082.11 1.14186 1.66023 0
M  V30 11578 O 1081.16 0.833655 2.38341 0
M  V30 11579 C 1082.48 3.00697 -0.0140648 0
M  V30 11580 C 1084.02 3.12958 0.0510876 0
M  V30 11581 C 1084.5 4.57709 -0.163368 0
M  V30 11582 N 1085.99 4.6307 -0.109663 0
M  V30 11583 C 1086.73 5.72853 -0.250366 0
M  V30 11584 N 1086.22 6.91351 -0.447772 0
M  V30 11585 N 1088.01 5.61781 -0.189265 0
M  V30 11586 H 1080.17 1.83829 -1.06398 0
M  V30 11587 H 1082.43 0.850014 -0.419739 0
M  V30 11588 H 1082.13 3.37047 -1.00461 0
M  V30 11589 H 1082.01 3.70389 0.713571 0
M  V30 11590 H 1084.4 2.7646 1.03216 0
M  V30 11591 H 1084.48 2.4579 -0.708583 0
M  V30 11592 H 1084.12 4.94907 -1.14146 0
M  V30 11593 H 1084.05 5.2298 0.616405 0
M  V30 11594 H 1086.54 3.7788 0.0390086 0
M  V30 11595 H 1086.85 7.70871 -0.54574 0
M  V30 11596 H 1085.2 6.93314 -0.483866 0
M  V30 11597 H 1088.39 4.68086 -0.0359374 0
M  V30 11598 H 1088.56 6.47294 -0.302359 0
M  V30 11599 N 1081.97 -0.145205 1.5693 0
M  V30 11600 C 1082.9 -1.20438 1.95006 0
M  V30 11601 C 1083.91 -1.39085 0.846114 0
M  V30 11602 O 1085.1 -1.38625 1.12452 0
M  V30 11603 C 1082.2 -2.56892 2.21043 0
M  V30 11604 C 1081.38 -2.59197 3.52329 0
M  V30 11605 C 1080.44 -3.77204 3.66884 0
M  V30 11606 O 1079.46 -3.61995 4.39259 0
M  V30 11607 N 1080.66 -4.9473 3.03682 0
M  V30 11608 H 1083.43 -0.880709 2.86467 0
M  V30 11609 H 1080.99 -0.334751 1.58401 0
M  V30 11610 H 1082.98 -3.34349 2.2802 0
M  V30 11611 H 1081.55 -2.81544 1.35838 0
M  V30 11612 H 1080.77 -1.67644 3.56776 0
M  V30 11613 H 1082.06 -2.57771 4.3867 0
M  V30 11614 H 1081.46 -5.09989 2.44801 0
M  V30 11615 H 1080.01 -5.69956 3.16218 0
M  V30 11616 N 1083.45 -1.52049 -0.414609 0
M  V30 11617 C 1084.41 -1.74382 -1.4874 0
M  V30 11618 C 1085.41 -0.613701 -1.48628 0
M  V30 11619 O 1086.6 -0.88152 -1.50249 0
M  V30 11620 C 1083.73 -1.82116 -2.88178 0
M  V30 11621 H 1084.93 -2.70147 -1.30233 0
M  V30 11622 H 1082.48 -1.42382 -0.644756 0
M  V30 11623 H 1083.21 -0.882457 -3.12063 0
M  V30 11624 H 1083 -2.64268 -2.89663 0
M  V30 11625 H 1084.49 -2.01155 -3.65959 0
M  V30 11626 N 1084.93 0.6715 -1.42579 0
M  V30 11627 C 1085.84 1.81435 -1.48723 0
M  V30 11628 C 1086.85 1.69895 -0.375716 0
M  V30 11629 O 1088.03 1.91388 -0.627115 0
M  V30 11630 C 1085.09 3.17599 -1.39038 0
M  V30 11631 C 1084.15 3.41071 -2.60709 0
M  V30 11632 C 1083.39 4.7074 -2.51476 0
M  V30 11633 O 1083.61 5.48868 -1.55243 0
M  V30 11634 O 1082.54 4.95528 -3.41666 0
M  V30 11635 H 1086.37 1.79206 -2.45191 0
M  V30 11636 H 1083.95 0.827666 -1.24379 0
M  V30 11637 H 1085.84 3.98847 -1.3601 0
M  V30 11638 H 1084.51 3.20458 -0.456966 0
M  V30 11639 H 1083.42 2.59659 -2.69311 0
M  V30 11640 H 1084.75 3.43045 -3.5296 0
M  V30 11641 N 1086.4 1.28806 0.908124 0
M  V30 11642 C 1087.65 1.16058 1.65454 0
M  V30 11643 C 1087.97 -0.290057 1.92831 0
M  V30 11644 O 1087.24 -1.20001 1.54843 0
M  V30 11645 H 1085.82 0.426522 0.61326 0
M  V30 11646 H 1088.48 1.61614 1.08936 0
M  V30 11647 H 1087.58 1.70437 2.61453 0
M  V30 11648 N 1087.88 -1.11734 1.11145 0
M  V30 11649 C 1089.11 -1.87755 0.881062 0
M  V30 11650 C 1089.53 -1.79461 -0.563496 0
M  V30 11651 O 1088.89 -1.15481 -1.39763 0
M  V30 11652 C 1088.94 -3.34641 1.34342 0
M  V30 11653 O 1088.04 -4.09195 0.513157 0
M  V30 11654 H 1087.38 -0.583111 0.317613 0
M  V30 11655 H 1089.91 -1.41256 1.48013 0
M  V30 11656 H 1089.92 -3.85486 1.33658 0
M  V30 11657 H 1088.6 -3.39994 2.39534 0
M  V30 11658 H 1087.17 -3.68269 0.585833 0
M  V30 11659 N 1089.36 -0.901303 -1.29284 0
M  V30 11660 C 1090.32 -0.385081 -2.25942 0
M  V30 11661 C 1091.32 0.481626 -1.53418 0
M  V30 11662 O 1092.51 0.286451 -1.71829 0
M  V30 11663 C 1089.64 0.449319 -3.37926 0
M  V30 11664 H 1090.84 -1.23877 -2.7312 0
M  V30 11665 H 1088.39 -0.679586 -1.40753 0
M  V30 11666 H 1089.13 1.32292 -2.9609 0
M  V30 11667 H 1088.91 -0.171731 -3.91724 0
M  V30 11668 H 1090.4 0.801746 -4.09831 0
M  V30 11669 N 1090.84 1.42931 -0.663954 0
M  V30 11670 C 1091.79 2.32577 0.03287 0
M  V30 11671 C 1092.78 1.49217 0.801918 0
M  V30 11672 O 1093.99 1.65358 0.711106 0
M  V30 11673 H 1090.36 0.751424 0.0294198 0
M  V30 11674 H 1092.33 2.89059 -0.740763 0
M  V30 11675 C 1091.08 3.33661 0.978025 0
M  V30 11676 H 1090.4 3.97837 0.395681 0
M  V30 11677 H 1091.84 3.98997 1.43448 0
M  V30 11678 C 1090.3 2.65085 2.07922 0
M  V30 11679 O 1090.83 2.4745 3.16435 0
M  V30 11680 N 1089.04 2.24285 1.84783 0
M  V30 11681 H 1088.59 2.38827 0.965368 0
M  V30 11682 H 1088.54 1.78732 2.58655 0
M  V30 11683 N 1092.32 0.406567 1.52266 0
M  V30 11684 C 1093.73 0.0573228 1.59497 0
M  V30 11685 C 1093.93 -1.43005 1.41957 0
M  V30 11686 O 1092.99 -2.19659 1.24523 0
M  V30 11687 C 1094.3 0.549947 2.95628 0
M  V30 11688 C 1095.85 0.5077 3.08855 0
M  V30 11689 C 1096.32 0.976792 4.47463 0
M  V30 11690 N 1097.81 0.933508 4.53696 0
M  V30 11691 C 1098.55 1.26769 5.59211 0
M  V30 11692 N 1098.05 1.6732 6.72292 0
M  V30 11693 N 1099.84 1.18782 5.49406 0
M  V30 11694 H 1091.99 1.37468 1.61914 0
M  V30 11695 H 1094.25 0.564562 0.76156 0
M  V30 11696 H 1093.96 1.58943 3.13736 0
M  V30 11697 H 1093.83 -0.0417767 3.77177 0
M  V30 11698 H 1096.22 -0.522728 2.90433 0
M  V30 11699 H 1096.3 1.13545 2.29219 0
M  V30 11700 H 1095.94 2.00554 4.66627 0
M  V30 11701 H 1095.87 0.325885 5.25591 0
M  V30 11702 H 1098.37 0.635333 3.72521 0
M  V30 11703 H 1098.68 1.91137 7.4879 0
M  V30 11704 H 1097.02 1.71221 6.73579 0
M  V30 11705 H 1100.21 0.869906 4.59946 0
M  V30 11706 H 1100.39 1.45157 6.31533 0
M  V30 11707 N 1093.79 -1.57004 0.136909 0
M  V30 11708 C 1095.02 -2.00587 -0.527209 0
M  V30 11709 C 1095.44 -1.01628 -1.58283 0
M  V30 11710 O 1094.8 0.00946934 -1.81298 0
M  V30 11711 C 1094.85 -3.42967 -1.11384 0
M  V30 11712 O 1093.95 -3.46973 -2.22898 0
M  V30 11713 H 1093.3 -0.651155 -0.129976 0
M  V30 11714 H 1095.83 -2.03296 0.230667 0
M  V30 11715 H 1095.84 -3.81555 -1.44499 0
M  V30 11716 H 1094.51 -4.14502 -0.340736 0
M  V30 11717 H 1093.09 -3.20219 -1.91087 0
M  V30 11718 N 1095.27 0.136881 -1.57004 0
M  V30 11719 C 1096.52 0.847775 -1.83899 0
M  V30 11720 C 1096.85 1.80709 -0.719332 0
M  V30 11721 O 1096.1 1.93527 0.290838 0
M  V30 11722 C 1096.4 1.64711 -3.17183 0
M  V30 11723 C 1096.07 0.833683 -4.43126 0
M  V30 11724 C 1094.73 0.609306 -4.77327 0
M  V30 11725 C 1097.08 0.265504 -5.20523 0
M  V30 11726 C 1094.41 -0.193793 -5.8638 0
M  V30 11727 C 1096.76 -0.524688 -6.3042 0
M  V30 11728 C 1095.43 -0.759548 -6.63164 0
M  V30 11729 H 1094.7 0.310223 -0.672936 0
M  V30 11730 H 1097.34 0.110937 -1.91178 0
M  V30 11731 H 1095.65 2.45435 -3.054 0
M  V30 11732 H 1097.34 2.20081 -3.3521 0
M  V30 11733 H 1093.93 1.01864 -4.16319 0
M  V30 11734 H 1098.12 0.426109 -4.94467 0
M  V30 11735 H 1093.37 -0.385153 -6.10186 0
M  V30 11736 H 1097.55 -0.972033 -6.89583 0
M  V30 11737 H 1095.18 -1.38369 -7.47501 0
M  V30 11738 N 1096.75 1.52266 0.40654 0
M  V30 11739 C 1097.66 1.78688 1.52012 0
M  V30 11740 C 1098.68 0.6726 1.60475 0
M  V30 11741 O 1099.85 0.95829 1.77141 0
M  V30 11742 C 1096.92 1.93434 2.87722 0
M  V30 11743 C 1095.98 3.17341 2.89125 0
M  V30 11744 C 1095.21 3.31374 4.18362 0
M  V30 11745 O 1095.43 2.50613 5.12396 0
M  V30 11746 O 1094.37 4.24539 4.26674 0
M  V30 11747 H 1098.19 2.73213 1.3262 0
M  V30 11748 H 1095.78 1.37142 0.592653 0
M  V30 11749 H 1097.66 2.04941 3.68208 0
M  V30 11750 H 1096.34 1.02099 3.07177 0
M  V30 11751 H 1095.24 3.1129 2.07483 0
M  V30 11752 H 1096.58 4.08466 2.7462 0
M  V30 11753 N 1098.23 -0.663929 1.42933 0
M  V30 11754 C 1099.48 -1.42111 1.43697 0
M  V30 11755 C 1099.8 -1.94913 0.0583858 0
M  V30 11756 O 1099.07 -1.73757 -0.904719 0
M  V30 11757 H 1097.65 -0.527391 0.529026 0
M  V30 11758 H 1100.31 -0.783766 1.78446 0
M  V30 11759 H 1099.41 -2.26877 2.1432 0
M  V30 11760 N 1099.71 -1.29285 -0.901281 0
M  V30 11761 C 1100.93 -1.20169 -1.69039 0
M  V30 11762 C 1101.36 0.234509 -1.86632 0
M  V30 11763 O 1100.71 1.16935 -1.38549 0
M  V30 11764 C 1100.76 -1.91852 -3.05328 0
M  V30 11765 O 1099.87 -1.23448 -3.9349 0
M  V30 11766 H 1099.21 -0.416486 -0.517141 0
M  V30 11767 H 1101.74 -1.70826 -1.12603 0
M  V30 11768 H 1101.75 -2.00244 -3.5548 0
M  V30 11769 H 1100.42 -2.96313 -2.91841 0
M  V30 11770 H 1099 -1.23303 -3.51924 0
M  V30 11771 N 1101.18 1.11143 -1.11736 0
M  V30 11772 C 1102.43 1.82586 -0.866412 0
M  V30 11773 C 1102.75 1.85227 0.609593 0
M  V30 11774 O 1102.02 1.32505 1.44288 0
M  V30 11775 H 1100.6 0.676149 -0.31754 0
M  V30 11776 H 1103.27 1.34516 -1.41037 0
M  V30 11777 H 1102.36 2.8635 -1.24136 0
M  V30 11778 N 1102.66 0.908147 1.28804 0
M  V30 11779 C 1103.59 0.409106 2.29888 0
M  V30 11780 C 1104.57 -0.520338 1.61946 0
M  V30 11781 O 1105.76 -0.429268 1.89396 0
M  V30 11782 C 1102.89 -0.35669 3.45463 0
M  V30 11783 C 1101.84 0.4831 4.25265 0
M  V30 11784 C 1101.17 -0.4107 5.3312 0
M  V30 11785 C 1102.47 1.73744 4.92555 0
M  V30 11786 H 1104.16 1.25386 2.7188 0
M  V30 11787 H 1101.71 0.604368 1.30703 0
M  V30 11788 H 1103.66 -0.71661 4.15262 0
M  V30 11789 H 1102.39 -1.2353 3.02337 0
M  V30 11790 H 1101.04 0.825464 3.57186 0
M  V30 11791 H 1100.69 -1.28769 4.86238 0
M  V30 11792 H 1100.39 0.14756 5.87415 0
M  V30 11793 H 1101.92 -0.766626 6.05768 0
M  V30 11794 H 1103.33 1.44676 5.54745 0
M  V30 11795 H 1101.73 2.23767 5.5682 0
M  V30 11796 H 1102.8 2.46853 4.17363 0
M  V30 11797 N 1104.14 -1.42577 0.671525 0
M  V30 11798 C 1105.39 -2.01185 0.192051 0
M  V30 11799 C 1105.71 -1.53349 -1.20454 0
M  V30 11800 O 1104.98 -0.753781 -1.80817 0
M  V30 11801 H 1103.56 -0.743898 0.0680106 0
M  V30 11802 H 1106.22 -1.74539 0.8673 0
M  V30 11803 H 1105.32 -3.11516 0.190796 0
M  V30 11804 N 1105.62 -0.414636 -1.52048 0
M  V30 11805 C 1106.55 0.399119 -2.30064 0
M  V30 11806 C 1107.53 1.04126 -1.34506 0
M  V30 11807 O 1108.71 1.04923 -1.63416 0
M  V30 11808 C 1105.84 1.51305 -3.12608 0
M  V30 11809 C 1104.8 0.995621 -4.16259 0
M  V30 11810 C 1104.12 2.20357 -4.87183 0
M  V30 11811 C 1105.42 0.0458178 -5.2228 0
M  V30 11812 H 1107.12 -0.251879 -2.98339 0
M  V30 11813 H 1104.66 -0.122579 -1.43477 0
M  V30 11814 H 1106.62 2.08936 -3.65956 0
M  V30 11815 H 1105.34 2.19201 -2.42113 0
M  V30 11816 H 1104 0.441676 -3.6393 0
M  V30 11817 H 1103.65 2.8682 -4.13211 0
M  V30 11818 H 1103.35 1.86385 -5.57256 0
M  V30 11819 H 1104.87 2.78584 -5.43345 0
M  V30 11820 H 1106.29 0.531102 -5.70835 0
M  V30 11821 H 1104.68 -0.20536 -5.99749 0
M  V30 11822 H 1105.75 -0.897807 -4.76516 0
M  V30 11823 N 1107.1 1.56929 -0.145233 0
M  V30 11824 C 1108.06 2.15483 0.781002 0
M  V30 11825 C 1109.06 1.09617 1.17647 0
M  V30 11826 O 1110.25 1.35265 1.09768 0
M  V30 11827 C 1107.38 2.7165 2.05959 0
M  V30 11828 H 1108.57 2.98667 0.271685 0
M  V30 11829 H 1106.13 1.55952 0.1042 0
M  V30 11830 H 1106.86 1.92127 2.61262 0
M  V30 11831 H 1106.65 3.491 1.78526 0
M  V30 11832 H 1108.14 3.16769 2.72116 0
M  V30 11833 N 1108.58 -0.128553 1.57075 0
M  V30 11834 C 1109.51 -1.15953 2.02675 0
M  V30 11835 C 1110.49 -1.43743 0.909501 0
M  V30 11836 O 1111.67 -1.54348 1.17857 0
M  V30 11837 C 1108.8 -2.48813 2.423 0
M  V30 11838 C 1107.76 -2.35506 3.57381 0
M  V30 11839 C 1107.08 -3.73243 3.82875 0
M  V30 11840 C 1108.38 -1.82359 4.89431 0
M  V30 11841 H 1110.08 -0.780283 2.89054 0
M  V30 11842 H 1107.62 -0.373896 1.39061 0
M  V30 11843 H 1109.57 -3.21179 2.72804 0
M  V30 11844 H 1108.3 -2.88609 1.52881 0
M  V30 11845 H 1106.96 -1.6559 3.27071 0
M  V30 11846 H 1106.61 -4.10507 2.90677 0
M  V30 11847 H 1106.31 -3.65195 4.60333 0
M  V30 11848 H 1107.83 -4.47128 4.15823 0
M  V30 11849 H 1109.24 -2.44533 5.18533 0
M  V30 11850 H 1107.64 -1.85156 5.70822 0
M  V30 11851 H 1108.71 -0.780478 4.78578 0
M  V30 11852 N 1110.05 -1.5248 -0.398459 0
M  V30 11853 C 1111.3 -1.67309 -1.1461 0
M  V30 11854 C 1111.63 -0.407095 -1.89885 0
M  V30 11855 O 1110.91 0.594834 -1.85181 0
M  V30 11856 C 1111.19 -2.90204 -2.13198 0
M  V30 11857 C 1111.04 -4.26881 -1.4175 0
M  V30 11858 C 1112.36 -3.08634 -3.13741 0
M  V30 11859 H 1109.48 -0.608853 -0.415292 0
M  V30 11860 H 1112.12 -1.85057 -0.430573 0
M  V30 11861 H 1110.27 -2.75204 -2.74218 0
M  V30 11862 H 1111.95 -4.53631 -0.837676 0
M  V30 11863 H 1110.19 -4.27793 -0.719387 0
M  V30 11864 H 1110.86 -5.08939 -2.1374 0
M  V30 11865 H 1113.34 -3.22603 -2.62805 0
M  V30 11866 H 1112.21 -3.96117 -3.79977 0
M  V30 11867 H 1112.47 -2.22425 -3.82073 0
M  V30 11868 N 1111.53 0.65634 -1.43283 0
M  V30 11869 C 1112.48 1.76934 -1.48199 0
M  V30 11870 C 1113.45 1.62748 -0.332023 0
M  V30 11871 O 1114.63 1.83036 -0.538735 0
M  V30 11872 C 1111.77 3.15072 -1.40797 0
M  V30 11873 C 1110.89 3.40414 -2.65974 0
M  V30 11874 C 1110.02 4.68383 -2.50582 0
M  V30 11875 C 1109.06 4.8682 -3.71043 0
M  V30 11876 N 1108.2 6.06043 -3.5448 0
M  V30 11877 H 1113.04 1.72067 -2.43304 0
M  V30 11878 H 1110.57 0.839728 -1.20777 0
M  V30 11879 H 1112.53 3.94925 -1.345 0
M  V30 11880 H 1111.16 3.19017 -0.492754 0
M  V30 11881 H 1110.21 2.54681 -2.82563 0
M  V30 11882 H 1111.53 3.49925 -3.55463 0
M  V30 11883 H 1110.68 5.56357 -2.41975 0
M  V30 11884 H 1109.42 4.61187 -1.58612 0
M  V30 11885 H 1108.42 3.97282 -3.80062 0
M  V30 11886 H 1109.65 4.95847 -4.64017 0
M  V30 11887 H 1107.6 5.99985 -2.65242 0
M  V30 11888 H 1107.51 6.16498 -4.37568 0
M  V30 11889 H 1108.78 6.96647 -3.49719 0
M  V30 11890 N 1113.01 1.29761 0.894412 0
M  V30 11891 C 1113.92 1.1724 2.03204 0
M  V30 11892 C 1114.94 0.0944452 1.73743 0
M  V30 11893 O 1116.11 0.307549 1.99038 0
M  V30 11894 C 1113.18 0.855416 3.35981 0
M  V30 11895 C 1112.24 2.01777 3.78926 0
M  V30 11896 C 1111.47 1.71581 5.05367 0
M  V30 11897 O 1111.69 0.639245 5.66807 0
M  V30 11898 O 1110.63 2.56539 5.44492 0
M  V30 11899 H 1114.45 2.12787 2.16692 0
M  V30 11900 H 1112.04 1.09264 1.0189 0
M  V30 11901 H 1113.92 0.693429 4.15656 0
M  V30 11902 H 1112.6 -0.0702195 3.23624 0
M  V30 11903 H 1111.5 2.23502 2.99996 0
M  V30 11904 H 1112.84 2.92479 3.95875 0
M  V30 11905 N 1114.49 -1.10549 1.12324 0
M  V30 11906 C 1115.42 -2.18911 0.812416 0
M  V30 11907 C 1116.4 -1.68628 -0.22327 0
M  V30 11908 O 1117.58 -1.94015 -0.0847184 0
M  V30 11909 C 1114.71 -3.46288 0.264947 0
M  V30 11910 C 1113.67 -4.09838 1.23356 0
M  V30 11911 C 1112.99 -5.31901 0.546374 0
M  V30 11912 C 1114.29 -4.53686 2.58778 0
M  V30 11913 H 1115.99 -2.45169 1.71851 0
M  V30 11914 H 1113.53 -1.17834 0.827715 0
M  V30 11915 H 1115.49 -4.21385 0.0352364 0
M  V30 11916 H 1114.21 -3.19517 -0.676479 0
M  V30 11917 H 1112.87 -3.36746 1.44906 0
M  V30 11918 H 1112.52 -5.01406 -0.400157 0
M  V30 11919 H 1112.22 -5.75372 1.19249 0
M  V30 11920 H 1113.74 -6.09731 0.325673 0
M  V30 11921 H 1115.16 -5.20063 2.41263 0
M  V30 11922 H 1113.55 -5.08003 3.19457 0
M  V30 11923 H 1114.62 -3.66665 3.17309 0
M  V30 11924 N 1115.97 -0.914965 -1.28321 0
M  V30 11925 C 1117.21 -0.549562 -1.95212 0
M  V30 11926 C 1117.54 0.904658 -1.71842 0
M  V30 11927 O 1116.82 1.64354 -1.04009 0
M  V30 11928 C 1117.1 -0.860927 -3.49657 0
M  V30 11929 C 1116.96 -2.36797 -3.82423 0
M  V30 11930 C 1118.27 -0.357926 -4.38642 0
M  V30 11931 H 1115.39 -0.201136 -0.709023 0
M  V30 11932 H 1118.04 -1.14443 -1.51667 0
M  V30 11933 H 1116.19 -0.354665 -3.86878 0
M  V30 11934 H 1117.86 -2.94494 -3.55065 0
M  V30 11935 H 1116.1 -2.82245 -3.29424 0
M  V30 11936 H 1116.77 -2.53637 -4.90278 0
M  V30 11937 H 1119.25 -0.791636 -4.085 0
M  V30 11938 H 1118.12 -0.604855 -5.45557 0
M  V30 11939 H 1118.38 0.741775 -4.35833 0
M  V30 11940 N 1117.44 1.42219 -0.679077 0
M  V30 11941 C 1118.35 2.346 -0.00345919 0
M  V30 11942 C 1119.37 1.55327 0.784181 0
M  V30 11943 O 1120.55 1.87878 0.725524 0
M  V30 11944 C 1117.61 3.33905 0.933194 0
M  V30 11945 C 1116.67 4.29073 0.139607 0
M  V30 11946 C 1115.9 5.23634 1.03165 0
M  V30 11947 O 1116.13 5.23234 2.27119 0
M  V30 11948 O 1115.06 5.99901 0.490159 0
M  V30 11949 H 1118.89 2.9392 -0.764525 0
M  V30 11950 H 1116.47 1.42794 -0.439329 0
M  V30 11951 H 1118.35 3.949 1.47077 0
M  V30 11952 H 1117.03 2.77052 1.67404 0
M  V30 11953 H 1115.94 3.71478 -0.442177 0
M  V30 11954 H 1117.27 4.88979 -0.562214 0
M  V30 11955 N 1118.92 0.422693 1.51826 0
M  V30 11956 C 1119.85 -0.386913 2.30272 0
M  V30 11957 C 1120.83 -1.03411 1.35056 0
M  V30 11958 O 1122.02 -1.04055 1.6397 0
M  V30 11959 C 1119.15 -1.49645 3.13407 0
M  V30 11960 C 1118.1 -0.973532 4.16781 0
M  V30 11961 C 1117.43 -2.1777 4.88344 0
M  V30 11962 C 1118.73 -0.0181194 5.22297 0
M  V30 11963 H 1120.42 0.267697 2.98201 0
M  V30 11964 H 1117.97 0.130186 1.4341 0
M  V30 11965 H 1119.92 -2.06993 3.67059 0
M  V30 11966 H 1118.64 -2.17914 2.43272 0
M  V30 11967 H 1117.3 -0.42237 3.64159 0
M  V30 11968 H 1116.95 -2.84625 4.14726 0
M  V30 11969 H 1116.65 -1.83427 5.58237 0
M  V30 11970 H 1118.18 -2.75699 5.44814 0
M  V30 11971 H 1119.59 -0.500822 5.71108 0
M  V30 11972 H 1117.99 0.237163 5.99631 0
M  V30 11973 H 1119.06 0.923065 4.76033 0
M  V30 11974 N 1120.4 -1.5685 0.153553 0
M  V30 11975 C 1121.35 -2.13671 -0.795526 0
M  V30 11976 C 1122.33 -1.06624 -1.20499 0
M  V30 11977 O 1123.53 -1.32788 -1.17032 0
M  V30 11978 C 1120.65 -2.76704 -2.03199 0
M  V30 11979 C 1119.74 -3.90884 -1.64532 0
M  V30 11980 N 1120.13 -4.96466 -0.96723 0
M  V30 11981 C 1118.43 -4.01713 -1.93759 0
M  V30 11982 C 1119.13 -5.76453 -0.779527 0
M  V30 11983 N 1118.11 -5.27444 -1.31544 0
M  V30 11984 H 1121.91 -2.92673 -0.268288 0
M  V30 11985 H 1119.42 -1.6233 -0.0477596 0
M  V30 11986 H 1121.42 -3.15777 -2.72196 0
M  V30 11987 H 1120.08 -1.99177 -2.56434 0
M  V30 11988 H 1121.09 -5.14087 -0.627253 0
M  V30 11989 H 1117.77 -3.3527 -2.48797 0
M  V30 11990 H 1119.16 -6.71455 -0.244604 0
M  V30 11991 N 1121.88 0.120221 -1.57141 0
M  V30 11992 C 1122.83 1.15332 -1.96679 0
M  V30 11993 C 1123.81 1.37134 -0.841607 0
M  V30 11994 O 1125 1.38247 -1.10529 0
M  V30 11995 C 1122.13 2.48021 -2.37361 0
M  V30 11996 C 1121.22 2.29699 -3.5651 0
M  V30 11997 N 1121.61 1.81186 -4.72234 0
M  V30 11998 C 1119.91 2.60359 -3.62118 0
M  V30 11999 C 1120.61 1.76542 -5.54263 0
M  V30 12000 N 1119.58 2.20843 -4.96719 0
M  V30 12001 H 1123.39 0.770763 -2.83613 0
M  V30 12002 H 1120.9 0.327979 -1.59054 0
M  V30 12003 H 1122.9 3.22739 -2.63903 0
M  V30 12004 H 1121.56 2.87036 -1.51791 0
M  V30 12005 H 1122.57 1.50751 -4.95474 0
M  V30 12006 H 1119.25 3.03067 -2.87152 0
M  V30 12007 H 1120.64 1.40298 -6.57089 0
M  V30 12008 N 1123.36 1.52689 0.390367 0
M  V30 12009 C 1124.6 1.67335 1.13329 0
M  V30 12010 C 1124.93 0.415068 1.90531 0
M  V30 12011 O 1124.2 -0.570504 1.87409 0
M  V30 12012 H 1122.78 0.616821 0.421356 0
M  V30 12013 H 1125.44 1.89799 0.443 0
M  V30 12014 H 1124.53 2.52314 1.83696 0
M  V30 12015 N 1124.83 -0.648732 1.43629 0
M  V30 12016 C 1126.25 -0.964917 1.27128 0
M  V30 12017 C 1126.45 -2.00561 0.194251 0
M  V30 12018 O 1125.51 -2.48884 -0.42581 0
M  V30 12019 C 1126.82 -1.44491 2.6371 0
M  V30 12020 C 1128.37 -1.56133 2.71278 0
M  V30 12021 C 1128.84 -2.07521 4.08288 0
M  V30 12022 N 1130.33 -2.14817 4.10375 0
M  V30 12023 C 1131.07 -2.55712 5.13224 0
M  V30 12024 N 1130.56 -2.9587 6.26444 0
M  V30 12025 N 1132.36 -2.55691 5.00578 0
M  V30 12026 H 1124.51 0.0398357 2.12363 0
M  V30 12027 H 1126.77 -0.0447705 0.946942 0
M  V30 12028 H 1126.48 -0.754616 3.43509 0
M  V30 12029 H 1126.35 -2.41914 2.89409 0
M  V30 12030 H 1128.74 -2.24263 1.91808 0
M  V30 12031 H 1128.82 -0.571314 2.49338 0
M  V30 12032 H 1128.46 -1.39992 4.88226 0
M  V30 12033 H 1128.39 -3.07362 4.27594 0
M  V30 12034 H 1130.88 -1.86538 3.28652 0
M  V30 12035 H 1131.2 -3.25837 7.0075 0
M  V30 12036 H 1129.54 -2.93664 6.2991 0
M  V30 12037 H 1132.73 -2.23697 4.1119 0
M  V30 12038 H 1132.91 -2.87239 5.80859 0
M  V30 12039 N 1126.31 -1.30234 -0.887518 0
M  V30 12040 C 1127.56 -1.18277 -1.63381 0
M  V30 12041 C 1127.87 0.262079 -1.93836 0
M  V30 12042 O 1129.08 0.503127 -2.66797 0
M  V30 12043 C 1127.54 -2.06944 -2.94452 0
M  V30 12044 C 1127.14 -3.56323 -2.71547 0
M  V30 12045 C 1128.89 -2.03743 -3.7241 0
M  V30 12046 C 1126.8 -4.37054 -3.98419 0
M  V30 12047 H 1125.73 -0.439087 -0.612959 0
M  V30 12048 H 1128.38 -1.54964 -0.982779 0
M  V30 12049 H 1126.76 -1.63138 -3.60835 0
M  V30 12050 H 1127.93 -4.08261 -2.13681 0
M  V30 12051 H 1126.25 -3.61321 -2.06969 0
M  V30 12052 H 1128.84 -2.61312 -4.66497 0
M  V30 12053 H 1129.19 -1.02029 -4.03603 0
M  V30 12054 H 1129.72 -2.45657 -3.12886 0
M  V30 12055 H 1126.46 -5.39453 -3.72385 0
M  V30 12056 H 1125.98 -3.89881 -4.55799 0
M  V30 12057 H 1127.66 -4.48356 -4.66462 0
M  V30 12058 N 1127.79 1.09952 -1.12909 0
M  V30 12059 C 1129.02 1.8579 -0.910483 0
M  V30 12060 C 1129.43 1.80898 0.540484 0
M  V30 12061 O 1128.79 1.20126 1.3739 0
M  V30 12062 C 1128.84 3.33987 -1.38329 0
M  V30 12063 O 1128.56 3.38811 -2.77739 0
M  V30 12064 C 1130.06 4.26683 -1.20234 0
M  V30 12065 H 1127.28 0.587026 -0.325025 0
M  V30 12066 H 1129.83 1.38965 -1.5003 0
M  V30 12067 H 1127.98 3.78259 -0.836592 0
M  V30 12068 H 1128.4 4.31204 -2.98603 0
M  V30 12069 H 1129.87 5.28846 -1.58197 0
M  V30 12070 H 1130.35 4.38966 -0.14344 0
M  V30 12071 H 1130.95 3.88221 -1.73679 0
M  V30 12072 N 1129.27 0.921757 1.27833 0
M  V30 12073 C 1130.51 0.559906 1.94918 0
M  V30 12074 C 1130.85 -0.895532 1.72319 0
M  V30 12075 O 1130.12 -1.638 1.04879 0
M  V30 12076 C 1130.41 0.879458 3.49196 0
M  V30 12077 C 1130.26 2.38821 3.81162 0
M  V30 12078 C 1131.58 0.381183 4.38446 0
M  V30 12079 H 1128.7 0.204893 0.707946 0
M  V30 12080 H 1131.34 1.15246 1.51058 0
M  V30 12081 H 1129.49 0.375177 3.86684 0
M  V30 12082 H 1131.16 2.96373 3.53498 0
M  V30 12083 H 1129.4 2.83988 3.27923 0
M  V30 12084 H 1130.07 2.56234 4.88926 0
M  V30 12085 H 1132.55 0.813289 4.08075 0
M  V30 12086 H 1131.43 0.633778 5.45229 0
M  V30 12087 H 1131.69 -0.718651 4.3622 0
M  V30 12088 N 1130.75 -1.41857 0.686609 0
M  V30 12089 C 1131.66 -2.34595 0.0159005 0
M  V30 12090 C 1132.67 -1.55741 -0.775933 0
M  V30 12091 O 1133.85 -1.8826 -0.71555 0
M  V30 12092 C 1130.91 -3.34395 -0.915473 0
M  V30 12093 C 1129.97 -4.29141 -0.116851 0
M  V30 12094 C 1129.21 -5.24174 -1.00386 0
M  V30 12095 O 1129.43 -5.24431 -2.2434 0
M  V30 12096 O 1128.36 -6.00152 -0.458337 0
M  V30 12097 H 1132.19 -2.9351 0.780101 0
M  V30 12098 H 1129.78 -1.42559 0.446896 0
M  V30 12099 H 1131.66 -3.95675 -1.44981 0
M  V30 12100 H 1130.33 -2.77936 -1.65932 0
M  V30 12101 H 1129.24 -3.71238 0.461871 0
M  V30 12102 H 1130.57 -4.88673 0.588138 0
M  V30 12103 N 1132.22 -0.430739 -1.51599 0
M  V30 12104 C 1133.45 0.139197 -2.06932 0
M  V30 12105 C 1133.87 1.3626 -1.29672 0
M  V30 12106 O 1133.23 1.78219 -0.332836 0
M  V30 12107 C 1133.28 0.446593 -3.57824 0
M  V30 12108 O 1132.38 1.53414 -3.82803 0
M  V30 12109 H 1131.73 0.00475812 -0.663983 0
M  V30 12110 H 1134.26 -0.610171 -1.9529 0
M  V30 12111 H 1134.27 0.698972 -4.01968 0
M  V30 12112 H 1132.94 -0.447613 -4.13484 0
M  V30 12113 H 1131.52 1.27224 -3.50526 0
M  V30 12114 N 1133.7 1.56767 -0.161869 0
M  V30 12115 C 1134.61 2.21083 0.784814 0
M  V30 12116 C 1135.63 1.19959 1.26039 0
M  V30 12117 O 1136.8 1.52588 1.31449 0
M  V30 12118 C 1133.87 2.83153 2.00063 0
M  V30 12119 C 1132.93 3.9945 1.57285 0
M  V30 12120 C 1132.16 4.5855 2.7307 0
M  V30 12121 O 1132.39 4.16534 3.89686 0
M  V30 12122 O 1131.32 5.48575 2.47688 0
M  V30 12123 H 1135.15 3.02522 0.267243 0
M  V30 12124 H 1132.73 1.49255 0.0658783 0
M  V30 12125 H 1134.61 3.22546 2.71186 0
M  V30 12126 H 1133.29 2.04718 2.50744 0
M  V30 12127 H 1132.2 3.64745 0.831393 0
M  V30 12128 H 1133.53 4.7945 1.11304 0
M  V30 12129 N 1135.18 -0.111886 1.57202 0
M  V30 12130 C 1136.41 -0.8312 1.89142 0
M  V30 12131 C 1136.82 -1.73614 0.751987 0
M  V30 12132 O 1136.16 -1.81462 -0.285877 0
M  V30 12133 C 1136.22 -1.71107 3.16169 0
M  V30 12134 C 1135.89 -0.9797 4.46375 0
M  V30 12135 C 1136.88 -0.317219 5.18931 0
M  V30 12136 C 1134.57 -0.958764 4.93065 0
M  V30 12137 C 1136.56 0.356419 6.36403 0
M  V30 12138 C 1134.25 -0.281332 6.10452 0
M  V30 12139 C 1135.25 0.375098 6.81969 0
M  V30 12140 O 1134.94 1.0417 7.97122 0
M  V30 12141 H 1134.67 -0.243855 0.630484 0
M  V30 12142 H 1137.22 -0.0986634 2.05163 0
M  V30 12143 H 1135.45 -2.48543 2.96249 0
M  V30 12144 H 1137.14 -2.30544 3.34072 0
M  V30 12145 H 1137.91 -0.324965 4.8391 0
M  V30 12146 H 1133.79 -1.45913 4.37299 0
M  V30 12147 H 1137.33 0.869362 6.92162 0
M  V30 12148 H 1133.23 -0.271374 6.44929 0
M  V30 12149 H 1134 0.946899 8.13004 0
M  V30 12150 N 1136.66 -1.52894 -0.382264 0
M  V30 12151 C 1137.91 -1.67933 -1.1244 0
M  V30 12152 C 1138.23 -0.425166 -1.90309 0
M  V30 12153 O 1137.5 0.560557 -1.87709 0
M  V30 12154 H 1136.08 -0.619047 -0.418079 0
M  V30 12155 H 1138.74 -1.90031 -0.432928 0
M  V30 12156 H 1137.84 -2.53285 -1.82355 0
M  V30 12157 N 1138.14 0.641106 -1.43971 0
M  V30 12158 C 1139.07 1.76645 -1.46046 0
M  V30 12159 C 1140.08 1.58881 -0.355049 0
M  V30 12160 O 1141.27 1.67379 -0.620207 0
M  V30 12161 C 1138.37 3.14237 -1.26918 0
M  V30 12162 C 1137.54 3.5855 -2.50521 0
M  V30 12163 C 1136.6 4.74986 -2.26438 0
M  V30 12164 O 1135.63 4.83807 -2.99866 0
M  V30 12165 N 1136.83 5.66016 -1.28866 0
M  V30 12166 H 1139.6 1.75339 -2.43056 0
M  V30 12167 H 1137.16 0.82535 -1.39282 0
M  V30 12168 H 1139.15 3.89837 -1.0867 0
M  V30 12169 H 1137.72 3.10244 -0.383082 0
M  V30 12170 H 1136.94 2.73265 -2.84112 0
M  V30 12171 H 1138.23 3.84906 -3.32754 0
M  V30 12172 H 1137.63 5.61574 -0.682018 0
M  V30 12173 H 1136.18 6.41286 -1.16599 0
M  V30 12174 N 1139.62 1.30703 0.880598 0
M  V30 12175 C 1140.86 1.19541 1.62955 0
M  V30 12176 C 1141.18 -0.249089 1.93403 0
M  V30 12177 O 1140.45 -1.1669 1.57354 0
M  V30 12178 H 1139.03 0.439434 0.604075 0
M  V30 12179 H 1141.7 1.63888 1.05483 0
M  V30 12180 H 1140.79 1.75945 2.57779 0
M  V30 12181 N 1141.09 -1.09351 1.1349 0
M  V30 12182 C 1142.32 -1.85304 0.920324 0
M  V30 12183 C 1142.74 -1.81182 -0.530883 0
M  V30 12184 O 1142.09 -1.20853 -1.36751 0
M  V30 12185 C 1142.14 -3.33249 1.40098 0
M  V30 12186 O 1141.87 -3.37333 2.79531 0
M  V30 12187 C 1143.37 -4.2604 1.22495 0
M  V30 12188 H 1140.59 -0.585294 0.328134 0
M  V30 12189 H 1143.13 -1.38168 1.50765 0
M  V30 12190 H 1141.29 -3.7781 0.85664 0
M  V30 12191 H 1141.7 -4.29614 3.00885 0
M  V30 12192 H 1143.17 -5.27999 1.61 0
M  V30 12193 H 1143.65 -4.38883 0.166717 0
M  V30 12194 H 1144.26 -3.87295 1.75735 0
M  V30 12195 N 1142.57 -0.928524 -1.27343 0
M  V30 12196 C 1143.8 -0.585734 -1.98436 0
M  V30 12197 C 1144.21 0.83644 -1.69261 0
M  V30 12198 O 1143.57 1.55603 -0.953626 0
M  V30 12199 C 1143.62 -0.803092 -3.52467 0
M  V30 12200 O 1143.34 -2.16932 -3.80621 0
M  V30 12201 C 1144.84 -0.469127 -4.40811 0
M  V30 12202 H 1142.06 -0.221887 -0.633251 0
M  V30 12203 H 1144.61 -1.24577 -1.62175 0
M  V30 12204 H 1142.76 -0.189846 -3.86935 0
M  V30 12205 H 1143.18 -2.21992 -4.75205 0
M  V30 12206 H 1144.65 -0.671906 -5.47895 0
M  V30 12207 H 1145.13 0.595365 -4.35146 0
M  V30 12208 H 1145.73 -1.06055 -4.11865 0
M  V30 12209 N 1144.05 1.41491 -0.694123 0
M  V30 12210 C 1145.3 2.01252 -0.224477 0
M  V30 12211 C 1145.62 1.54965 1.17541 0
M  V30 12212 O 1144.88 0.751041 1.80715 0
M  V30 12213 C 1145.18 3.56666 -0.228869 0
M  V30 12214 C 1144.84 4.22458 -1.57608 0
M  V30 12215 C 1143.51 4.40144 -1.94491 0
M  V30 12216 C 1145.86 4.5936 -2.46247 0
M  V30 12217 C 1143.19 4.92009 -3.196 0
M  V30 12218 C 1145.54 5.12615 -3.70687 0
M  V30 12219 C 1144.2 5.28512 -4.07715 0
M  V30 12220 H 1143.47 0.736433 -0.0821419 0
M  V30 12221 H 1146.12 1.69408 -0.892926 0
M  V30 12222 H 1144.42 3.88292 0.523128 0
M  V30 12223 H 1146.12 4.00712 0.152019 0
M  V30 12224 H 1142.71 4.09065 -1.27921 0
M  V30 12225 H 1146.9 4.45352 -2.19032 0
M  V30 12226 H 1142.15 5.02502 -3.48285 0
M  V30 12227 H 1146.33 5.4015 -4.39558 0
M  V30 12228 H 1143.95 5.68464 -5.0473 0
M  V30 12229 N 1145.53 0.438773 1.51369 0
M  V30 12230 C 1146.76 -0.125847 2.06517 0
M  V30 12231 C 1147.17 -1.36336 1.30606 0
M  V30 12232 O 1146.53 -1.78792 0.36603 0
M  V30 12233 C 1146.58 -0.446619 3.5873 0
M  V30 12234 O 1146.3 0.741781 4.31775 0
M  V30 12235 C 1147.8 -1.06175 4.30397 0
M  V30 12236 H 1145.02 -0.00728868 0.67096 0
M  V30 12237 H 1147.56 0.618267 1.9493 0
M  V30 12238 H 1145.72 -1.14064 3.70227 0
M  V30 12239 H 1146.13 0.466907 5.22418 0
M  V30 12240 H 1147.61 -1.23619 5.3798 0
M  V30 12241 H 1148.08 -2.04317 3.88782 0
M  V30 12242 H 1148.69 -0.40708 4.23347 0
M  V30 12243 N 1147.01 -1.56678 0.170181 0
M  V30 12244 C 1148.25 -1.9714 -0.475767 0
M  V30 12245 C 1148.58 -1.05611 -1.62972 0
M  V30 12246 O 1147.86 -0.103017 -1.94227 0
M  V30 12247 C 1148.14 -3.47072 -0.959828 0
M  V30 12248 C 1148 -4.4938 0.194225 0
M  V30 12249 C 1149.31 -4.00071 -1.83387 0
M  V30 12250 H 1146.43 -0.716776 -0.171466 0
M  V30 12251 H 1149.08 -1.88266 0.256086 0
M  V30 12252 H 1147.23 -3.54766 -1.58346 0
M  V30 12253 H 1148.9 -4.53748 0.83128 0
M  V30 12254 H 1147.14 -4.25393 0.849893 0
M  V30 12255 H 1147.81 -5.51685 -0.186575 0
M  V30 12256 H 1150.29 -3.95002 -1.30815 0
M  V30 12257 H 1149.16 -5.05398 -2.14159 0
M  V30 12258 H 1149.42 -3.43819 -2.77923 0
M  V30 12259 N 1148.48 0.103547 -1.57259 0
M  V30 12260 C 1149.73 0.804704 -1.86805 0
M  V30 12261 C 1150.08 1.76756 -0.759942 0
M  V30 12262 O 1149.38 1.90106 0.238789 0
M  V30 12263 C 1149.57 1.57946 -3.20605 0
M  V30 12264 C 1149.4 0.693136 -4.44326 0
M  V30 12265 C 1148.17 0.342079 -5.04141 0
M  V30 12266 C 1150.37 0.00385713 -5.143 0
M  V30 12267 N 1148.35 -0.553293 -6.11402 0
M  V30 12268 C 1149.72 -0.74991 -6.15448 0
M  V30 12269 C 1151.78 -0.0709485 -4.97849 0
M  V30 12270 C 1150.48 -1.57148 -7.01924 0
M  V30 12271 C 1152.51 -0.879391 -5.84825 0
M  V30 12272 C 1151.87 -1.6213 -6.85488 0
M  V30 12273 H 1147.97 0.270899 -0.733579 0
M  V30 12274 H 1150.55 0.0676446 -1.94582 0
M  V30 12275 H 1148.72 2.28745 -3.13895 0
M  V30 12276 H 1150.45 2.22715 -3.37905 0
M  V30 12277 H 1147.21 0.687831 -4.68579 0
M  V30 12278 H 1147.63 -0.993284 -6.69674 0
M  V30 12279 H 1152.27 0.488299 -4.19971 0
M  V30 12280 H 1149.99 -2.14182 -7.79199 0
M  V30 12281 H 1153.58 -0.939834 -5.74159 0
M  V30 12282 H 1152.46 -2.2368 -7.51623 0
M  V30 12283 N 1149.96 1.53094 0.37415 0
M  V30 12284 C 1150.89 1.81901 1.46404 0
M  V30 12285 C 1151.87 0.671949 1.56265 0
M  V30 12286 O 1153.06 0.920978 1.70973 0
M  V30 12287 C 1150.19 2.00123 2.83845 0
M  V30 12288 C 1149.14 3.15864 2.88814 0
M  V30 12289 C 1148.47 3.19364 4.28848 0
M  V30 12290 C 1149.77 4.54633 2.57112 0
M  V30 12291 H 1151.46 2.73172 1.22546 0
M  V30 12292 H 1149.01 1.31444 0.588087 0
M  V30 12293 H 1150.96 2.18859 3.6011 0
M  V30 12294 H 1149.68 1.05555 3.09072 0
M  V30 12295 H 1148.34 2.96935 2.15 0
M  V30 12296 H 1147.99 2.2245 4.51137 0
M  V30 12297 H 1147.69 3.97123 4.3309 0
M  V30 12298 H 1149.22 3.40273 5.06997 0
M  V30 12299 H 1150.63 4.73587 3.23091 0
M  V30 12300 H 1149.03 5.34569 2.72683 0
M  V30 12301 H 1150.1 4.60331 1.52392 0
M  V30 12302 N 1151.44 -0.633461 1.44309 0
M  V30 12303 C 1152.37 -1.75868 1.4698 0
M  V30 12304 C 1153.38 -1.58691 0.363469 0
M  V30 12305 O 1154.57 -1.67048 0.629075 0
M  V30 12306 C 1151.67 -3.1356 1.28582 0
M  V30 12307 C 1150.85 -3.57217 2.52418 0
M  V30 12308 C 1149.91 -4.73779 2.28954 0
M  V30 12309 O 1148.93 -4.8221 3.02428 0
M  V30 12310 N 1150.13 -5.65324 1.31866 0
M  V30 12311 H 1152.9 -1.74048 2.43983 0
M  V30 12312 H 1150.46 -0.817952 1.39718 0
M  V30 12313 H 1152.45 -3.89255 1.10736 0
M  V30 12314 H 1151.02 -3.10036 0.399529 0
M  V30 12315 H 1150.24 -2.71755 2.85557 0
M  V30 12316 H 1151.53 -3.83136 3.3479 0
M  V30 12317 H 1150.93 -5.61204 0.71179 0
M  V30 12318 H 1149.48 -6.40659 1.19998 0
M  V30 12319 N 1152.92 -1.31168 -0.873655 0
M  V30 12320 C 1153.85 -1.12836 -1.98351 0
M  V30 12321 C 1154.83 -0.0328679 -1.62567 0
M  V30 12322 O 1156.01 -0.18859 -1.87554 0
M  V30 12323 C 1153.14 -0.72332 -3.30886 0
M  V30 12324 C 1152.19 -1.82132 -3.85656 0
M  V30 12325 S 1153.02 -3.42604 -4.11562 0
M  V30 12326 C 1154.18 -3.04028 -5.471 0
M  V30 12327 H 1154.41 -2.06793 -2.13597 0
M  V30 12328 H 1151.94 -1.15611 -1.0234 0
M  V30 12329 H 1153.9 -0.496371 -4.07488 0
M  V30 12330 H 1152.56 0.197077 -3.13481 0
M  V30 12331 H 1151.75 -1.49046 -4.81458 0
M  V30 12332 H 1151.36 -2.00314 -3.15833 0
M  V30 12333 H 1153.65 -2.52692 -6.28612 0
M  V30 12334 H 1154.59 -3.9878 -5.85133 0
M  V30 12335 H 1155 -2.41574 -5.10198 0
M  V30 12336 N 1154.4 1.08748 -1.14068 0
M  V30 12337 C 1155.64 1.80707 -0.904947 0
M  V30 12338 C 1155.97 1.86478 0.570167 0
M  V30 12339 O 1155.24 1.35536 1.41445 0
M  V30 12340 H 1153.82 0.669261 -0.331811 0
M  V30 12341 H 1156.48 1.31494 -1.43859 0
M  V30 12342 H 1155.57 2.83653 -1.30182 0
M  V30 12343 N 1155.87 0.935264 1.26849 0
M  V30 12344 C 1156.82 0.430895 2.28574 0
M  V30 12345 C 1157.82 -0.488739 1.62196 0
M  V30 12346 O 1159.02 -0.367605 1.76206 0
M  V30 12347 H 1155.4 0.120793 0.742235 0
M  V30 12348 H 1157.37 1.3015 2.68521 0
M  V30 12349 C 1156.12 -0.294053 3.46454 0
M  V30 12350 H 1155.44 0.404416 3.97749 0
M  V30 12351 H 1156.88 -0.611272 4.19571 0
M  V30 12352 C 1155.34 -1.50975 3.01178 0
M  V30 12353 O 1155.87 -2.60826 3.05504 0
M  V30 12354 N 1154.08 -1.36423 2.56587 0
M  V30 12355 H 1153.62 -0.470483 2.53267 0
M  V30 12356 H 1153.58 -2.17886 2.26656 0
M  V30 12357 N 1157.35 -1.41121 0.701616 0
M  V30 12358 C 1158.28 -2.33436 0.0545974 0
M  V30 12359 C 1159.26 -1.52144 -0.760662 0
M  V30 12360 O 1160.45 -1.80661 -0.712414 0
M  V30 12361 C 1157.58 -3.36015 -0.878117 0
M  V30 12362 C 1156.53 -4.27664 -0.169511 0
M  V30 12363 C 1155.86 -5.20666 -1.21699 0
M  V30 12364 C 1157.16 -5.13254 0.967859 0
M  V30 12365 H 1158.85 -2.87791 0.825637 0
M  V30 12366 H 1156.4 -1.38377 0.398484 0
M  V30 12367 H 1158.35 -3.99526 -1.34004 0
M  V30 12368 H 1157.08 -2.80024 -1.68089 0
M  V30 12369 H 1155.73 -3.65586 0.272441 0
M  V30 12370 H 1155.38 -4.60987 -2.01246 0
M  V30 12371 H 1155.08 -5.82822 -0.747836 0
M  V30 12372 H 1156.61 -5.87053 -1.6793 0
M  V30 12373 H 1158.02 -5.70298 0.585944 0
M  V30 12374 H 1156.42 -5.84381 1.3645 0
M  V30 12375 H 1157.49 -4.5006 1.80483 0
M  V30 12376 N 1158.83 -0.446794 -1.51134 0
M  V30 12377 C 1159.78 0.378002 -2.24845 0
M  V30 12378 C 1160.76 0.982126 -1.27448 0
M  V30 12379 O 1161.96 0.8987 -1.52487 0
M  V30 12380 C 1159.09 1.4733 -3.10079 0
M  V30 12381 C 1158.17 0.878102 -4.1491 0
M  V30 12382 N 1158.56 0.0129452 -5.05798 0
M  V30 12383 C 1156.86 1.14468 -4.3106 0
M  V30 12384 C 1157.56 -0.322333 -5.80806 0
M  V30 12385 N 1156.54 0.296438 -5.42791 0
M  V30 12386 H 1160.34 -0.28885 -2.92477 0
M  V30 12387 H 1157.85 -0.259439 -1.60314 0
M  V30 12388 H 1159.85 2.07713 -3.6147 0
M  V30 12389 H 1158.51 2.14239 -2.43992 0
M  V30 12390 H 1159.52 -0.354177 -5.16688 0
M  V30 12391 H 1156.2 1.81056 -3.76198 0
M  V30 12392 H 1157.59 -1.02693 -6.64006 0
M  V30 12393 N 1160.31 1.56586 -0.178487 0
M  V30 12394 C 1161.24 2.21313 0.744486 0
M  V30 12395 C 1162.22 1.17098 1.23377 0
M  V30 12396 O 1163.4 1.45551 1.28563 0
M  V30 12397 C 1160.53 2.8595 1.97103 0
M  V30 12398 C 1159.49 3.96266 1.61732 0
M  V30 12399 C 1158.81 4.47987 2.91911 0
M  V30 12400 C 1160.11 5.15503 0.839868 0
M  V30 12401 H 1161.81 2.98698 0.204938 0
M  V30 12402 H 1159.35 1.43672 0.0971306 0
M  V30 12403 H 1161.31 3.29909 2.6218 0
M  V30 12404 H 1160.03 2.05946 2.53484 0
M  V30 12405 H 1158.69 3.52974 0.990208 0
M  V30 12406 H 1158.34 3.64765 3.46346 0
M  V30 12407 H 1158.04 5.22413 2.68995 0
M  V30 12408 H 1159.56 4.94637 3.58004 0
M  V30 12409 H 1160.98 5.5611 1.39337 0
M  V30 12410 H 1159.37 5.95891 0.709473 0
M  V30 12411 H 1160.44 4.84628 -0.162396 0
M  V30 12412 N 1161.79 -0.095206 1.57312 0
M  V30 12413 C 1163.2 -0.649733 1.7503 0
M  V30 12414 C 1163.55 -1.7912 0.800652 0
M  V30 12415 O 1162.67 -2.1639 -0.0208831 0
M  V30 12416 C 1163.27 -1.18541 3.17386 0
M  V30 12417 C 1161.83 -1.686 3.36528 0
M  V30 12418 C 1160.97 -0.595531 2.7083 0
M  V30 12419 H 1163.93 0.130863 1.5816 0
M  V30 12420 H 1163.95 -2.05473 3.20252 0
M  V30 12421 H 1163.46 -0.35441 3.86478 0
M  V30 12422 H 1161.56 -2.541 2.72514 0
M  V30 12423 H 1161.67 -1.77907 4.44844 0
M  V30 12424 H 1160.04 -1.03495 2.32725 0
M  V30 12425 H 1160.82 0.224883 3.42563 0
M  V30 12426 N 1163.26 -1.53291 -0.366026 0
M  V30 12427 C 1164.68 -1.61144 -0.942849 0
M  V30 12428 C 1165.03 -0.478571 -1.90274 0
M  V30 12429 O 1164.15 0.395069 -2.12763 0
M  V30 12430 C 1164.75 -2.92081 -1.71681 0
M  V30 12431 C 1163.31 -3.0227 -2.24298 0
M  V30 12432 C 1162.45 -2.56436 -1.05526 0
M  V30 12433 H 1165.4 -1.58038 -0.144835 0
M  V30 12434 H 1165.42 -2.79858 -2.57798 0
M  V30 12435 H 1164.94 -3.74513 -1.01793 0
M  V30 12436 H 1163.04 -2.24425 -2.97429 0
M  V30 12437 H 1163.15 -4.07341 -2.5221 0
M  V30 12438 H 1161.51 -2.11301 -1.42211 0
M  V30 12439 H 1162.3 -3.41285 -0.371376 0
M  V30 12440 N 1164.74 0.6258 -1.44643 0
M  V30 12441 C 1165.97 1.41726 -1.51422 0
M  V30 12442 C 1166.39 1.87565 -0.14181 0
M  V30 12443 O 1165.75 1.59059 0.870054 0
M  V30 12444 C 1165.8 2.61012 -2.48807 0
M  V30 12445 O 1164.9 3.61029 -1.99328 0
M  V30 12446 H 1164.24 0.423855 -0.511119 0
M  V30 12447 H 1166.77 0.763336 -1.89827 0
M  V30 12448 H 1166.78 3.08489 -2.67018 0
M  V30 12449 H 1165.46 2.26995 -3.48491 0
M  V30 12450 H 1164.04 3.20325 -1.90909 0
M  V30 12451 N 1166.22 1.31629 0.866686 0
M  V30 12452 C 1167.63 1.19347 1.43573 0
M  V30 12453 C 1167.98 -0.198765 1.95191 0
M  V30 12454 O 1167.11 -1.09674 1.86549 0
M  V30 12455 C 1167.7 2.16055 2.6097 0
M  V30 12456 C 1166.26 2.07697 3.13909 0
M  V30 12457 C 1165.41 2.05099 1.86627 0
M  V30 12458 H 1168.36 1.43633 0.674929 0
M  V30 12459 H 1168.38 1.75207 3.37761 0
M  V30 12460 H 1167.89 3.17375 2.23371 0
M  V30 12461 H 1165.99 1.09583 3.56121 0
M  V30 12462 H 1166.11 2.96958 3.75969 0
M  V30 12463 H 1164.47 1.50162 2.05727 0
M  V30 12464 H 1165.25 3.0818 1.51261 0
M  V30 12465 N 1167.7 -1.08142 1.14644 0
M  V30 12466 C 1168.63 -2.17139 0.858667 0
M  V30 12467 C 1169.61 -1.69064 -0.187452 0
M  V30 12468 O 1170.8 -1.94151 -0.0435458 0
M  V30 12469 C 1167.93 -3.45648 0.33834 0
M  V30 12470 C 1166.88 -4.07129 1.32021 0
M  V30 12471 C 1166.21 -5.30623 0.659075 0
M  V30 12472 C 1167.51 -4.48095 2.68343 0
M  V30 12473 H 1169.2 -2.41468 1.77012 0
M  V30 12474 H 1166.75 -1.16052 0.852523 0
M  V30 12475 H 1168.7 -4.21216 0.124611 0
M  V30 12476 H 1167.42 -3.2088 -0.608553 0
M  V30 12477 H 1166.08 -3.33596 1.52016 0
M  V30 12478 H 1165.73 -5.02142 -0.293711 0
M  V30 12479 H 1165.43 -5.72714 1.31427 0
M  V30 12480 H 1166.95 -6.08903 0.454933 0
M  V30 12481 H 1168.37 -5.14828 2.5224 0
M  V30 12482 H 1166.76 -5.01113 3.30161 0
M  V30 12483 H 1167.83 -3.59852 3.25015 0
M  V30 12484 N 1169.18 -0.941978 -1.26351 0
M  V30 12485 C 1170.11 -0.469913 -2.28723 0
M  V30 12486 C 1171.09 0.477218 -1.63269 0
M  V30 12487 O 1172.27 0.378902 -1.90468 0
M  V30 12488 C 1169.4 0.264971 -3.46288 0
M  V30 12489 C 1168.36 -0.595682 -4.23834 0
M  V30 12490 C 1167.68 0.269208 -5.34022 0
M  V30 12491 C 1168.98 -1.86743 -4.87775 0
M  V30 12492 H 1170.68 -1.32551 -2.6846 0
M  V30 12493 H 1168.22 -0.638809 -1.29055 0
M  V30 12494 H 1170.18 0.606259 -4.17016 0
M  V30 12495 H 1168.9 1.15471 -3.05506 0
M  V30 12496 H 1167.56 -0.919875 -3.54872 0
M  V30 12497 H 1167.21 1.15832 -4.89481 0
M  V30 12498 H 1166.91 -0.30325 -5.86817 0
M  V30 12499 H 1168.43 0.605748 -6.07588 0
M  V30 12500 H 1169.85 -1.59333 -5.50714 0
M  V30 12501 H 1168.24 -2.38452 -5.50691 0
M  V30 12502 H 1169.31 -2.57831 -4.10671 0
M  V30 12503 N 1170.66 1.40747 -0.709091 0
M  V30 12504 C 1171.93 1.94831 -0.173246 0
M  V30 12505 C 1172.31 1.64766 1.31967 0
M  V30 12506 O 1171.66 0.961853 2.07269 0
M  V30 12507 C 1171.87 3.45697 -0.479013 0
M  V30 12508 C 1173.22 4.22576 -0.414122 0
M  V30 12509 O 1174.24 3.53778 -0.414699 0
M  V30 12510 O 1173.1 5.45135 -0.385986 0
M  V30 12511 H 1170.2 0.826683 -0.0228947 0
M  V30 12512 H 1172.74 1.50391 -0.786178 0
M  V30 12513 H 1171.51 3.60914 -1.51185 0
M  V30 12514 H 1171.14 3.97261 0.164211 0
M  V30 12515 N 1172.13 0.454803 1.50895 0
M  V30 12516 C 1173.38 -0.105927 2.02523 0
M  V30 12517 C 1173.71 -1.40825 1.33724 0
M  V30 12518 O 1172.99 -1.89038 0.457683 0
M  V30 12519 C 1173.27 -0.306635 3.58792 0
M  V30 12520 C 1173.12 1.01556 4.38185 0
M  V30 12521 C 1174.44 -1.06858 4.2693 0
M  V30 12522 H 1171.56 -0.0370232 0.736069 0
M  V30 12523 H 1174.2 0.597215 1.8037 0
M  V30 12524 H 1172.35 -0.905563 3.77799 0
M  V30 12525 H 1174.03 1.64981 4.30789 0
M  V30 12526 H 1172.27 1.61608 4.02574 0
M  V30 12527 H 1172.94 0.828959 5.4574 0
M  V30 12528 H 1175.42 -0.561086 4.123 0
M  V30 12529 H 1174.29 -1.1778 5.36115 0
M  V30 12530 H 1174.55 -2.10111 3.8898 0
M  V30 12531 N 1173.61 -1.56489 0.186789 0
M  V30 12532 C 1175.02 -1.83809 -0.327265 0
M  V30 12533 C 1175.37 -1.10718 -1.61976 0
M  V30 12534 O 1174.5 -0.36525 -2.13295 0
M  V30 12535 C 1175.09 -3.33435 -0.600551 0
M  V30 12536 C 1173.65 -3.61195 -1.059 0
M  V30 12537 C 1172.8 -2.77108 -0.103131 0
M  V30 12538 H 1175.75 -1.53292 0.410747 0
M  V30 12539 H 1175.77 -3.51754 -1.45084 0
M  V30 12540 H 1175.28 -3.86605 0.340315 0
M  V30 12541 H 1173.38 -3.13451 -2.01443 0
M  V30 12542 H 1173.5 -4.69435 -0.957458 0
M  V30 12543 H 1171.86 -2.47448 -0.603449 0
M  V30 12544 H 1172.64 -3.33065 0.832031 0
M  V30 12545 N 1175.09 0.086862 -1.5736 0
M  V30 12546 C 1176.05 1.08906 -2.01673 0
M  V30 12547 C 1177.05 1.32473 -0.911463 0
M  V30 12548 O 1178.24 1.28447 -1.17673 0
M  V30 12549 C 1175.37 2.43629 -2.38449 0
M  V30 12550 H 1176.57 0.707461 -2.91436 0
M  V30 12551 H 1174.12 0.332154 -1.5273 0
M  V30 12552 H 1174.86 2.8665 -1.51665 0
M  V30 12553 H 1174.64 2.2787 -3.19089 0
M  V30 12554 H 1176.13 3.15695 -2.73361 0
M  V30 12555 N 1176.57 1.53483 0.357892 0
M  V30 12556 C 1177.48 1.83434 1.4625 0
M  V30 12557 C 1178.49 0.723313 1.58254 0
M  V30 12558 O 1179.67 1.01416 1.74002 0
M  V30 12559 C 1176.73 2.0249 2.81423 0
M  V30 12560 C 1175.8 3.26378 2.78883 0
M  V30 12561 C 1175.03 3.44516 4.07608 0
M  V30 12562 O 1175.25 2.66787 5.04163 0
M  V30 12563 O 1174.19 4.37898 4.12952 0
M  V30 12564 H 1178.01 2.77294 1.23861 0
M  V30 12565 H 1175.6 1.38958 0.548722 0
M  V30 12566 H 1177.48 2.16552 3.61501 0
M  V30 12567 H 1176.15 1.11819 3.03773 0
M  V30 12568 H 1175.06 3.17733 1.97475 0
M  V30 12569 H 1176.39 4.16996 2.61486 0
M  V30 12570 N 1178.05 -0.61812 1.44973 0
M  V30 12571 C 1179.29 -1.3774 1.48439 0
M  V30 12572 C 1179.62 -1.94117 0.121999 0
M  V30 12573 O 1178.88 -1.749 -0.877974 0
M  V30 12574 C 1179.17 -2.55143 2.50274 0
M  V30 12575 C 1178.84 -2.16976 3.95262 0
M  V30 12576 C 1177.5 -2.06281 4.34743 0
M  V30 12577 C 1179.85 -1.8703 4.86486 0
M  V30 12578 C 1177.18 -1.63846 5.63357 0
M  V30 12579 C 1179.53 -1.46085 6.15501 0
M  V30 12580 C 1178.2 -1.3394 6.53924 0
M  V30 12581 H 1177.47 -0.504026 0.543175 0
M  V30 12582 H 1180.12 -0.699685 1.7826 0
M  V30 12583 H 1178.42 -3.28205 2.13983 0
M  V30 12584 H 1180.12 -3.13373 2.50197 0
M  V30 12585 H 1176.71 -2.26223 3.64034 0
M  V30 12586 H 1180.89 -1.94196 4.56729 0
M  V30 12587 H 1176.15 -1.53058 5.91932 0
M  V30 12588 H 1180.32 -1.21956 6.85638 0
M  V30 12589 H 1177.95 -1.00832 7.53483 0
M  V30 12590 N 1179.52 -1.32087 -0.859693 0
M  V30 12591 C 1180.8 -1.12984 -1.59668 0
M  V30 12592 C 1181.18 0.311661 -2.08787 0
M  V30 12593 O 1180.53 1.30746 -1.87397 0
M  V30 12594 C 1180.74 -2.15305 -2.74672 0
M  V30 12595 C 1182.09 -2.48371 -3.44379 0
M  V30 12596 O 1183.11 -2.13811 -2.84891 0
M  V30 12597 O 1181.97 -3.07594 -4.51717 0
M  V30 12598 H 1179.06 -0.435657 -0.702945 0
M  V30 12599 H 1181.61 -1.43601 -0.90426 0
M  V30 12600 H 1180.38 -3.12223 -2.35866 0
M  V30 12601 H 1180 -1.85653 -3.51594 0
M  V30 12602 N 1181 1.07532 -1.15215 0
M  V30 12603 C 1181.96 2.1286 -0.84989 0
M  V30 12604 C 1182.96 1.60103 0.149524 0
M  V30 12605 O 1184.15 1.74017 -0.0798918 0
M  V30 12606 C 1181.29 3.3984 -0.268617 0
M  V30 12607 H 1182.48 2.41106 -1.78347 0
M  V30 12608 H 1180.03 1.23392 -0.959386 0
M  V30 12609 H 1180.77 3.17235 0.67325 0
M  V30 12610 H 1180.55 3.79433 -0.988592 0
M  V30 12611 H 1182.04 4.17533 -0.0746554 0
M  V30 12612 N 1182.48 0.948665 1.2585 0
M  V30 12613 C 1183.9 0.652147 1.45668 0
M  V30 12614 C 1184.1 -0.792217 1.85273 0
M  V30 12615 O 1183.15 -1.56812 1.97905 0
M  V30 12616 C 1184.47 1.61998 2.53332 0
M  V30 12617 C 1186.01 1.6305 2.67178 0
M  V30 12618 C 1186.49 2.58582 3.78021 0
M  V30 12619 N 1187.98 2.56911 3.85423 0
M  V30 12620 C 1188.71 3.27511 4.70664 0
M  V30 12621 N 1188.21 4.07563 5.60236 0
M  V30 12622 N 1190 3.16427 4.64576 0
M  V30 12623 H 1182.15 1.88215 0.984325 0
M  V30 12624 H 1184.42 0.809251 0.493778 0
M  V30 12625 H 1184.12 2.65137 2.31075 0
M  V30 12626 H 1184 1.37784 3.51134 0
M  V30 12627 H 1186.38 0.606315 2.88804 0
M  V30 12628 H 1186.47 1.9132 1.69795 0
M  V30 12629 H 1186.11 3.61122 3.57146 0
M  V30 12630 H 1186.04 2.27598 4.74875 0
M  V30 12631 H 1188.53 1.9879 3.21389 0
M  V30 12632 H 1188.84 4.58367 6.22189 0
M  V30 12633 H 1187.19 4.11662 5.59964 0
M  V30 12634 H 1190.38 2.53364 3.93604 0
M  V30 12635 H 1190.55 3.71714 5.30785 0
M  V30 12636 N 1183.96 -1.40369 0.716545 0
M  V30 12637 C 1185.37 -1.54757 0.390202 0
M  V30 12638 C 1185.57 -1.68767 -1.10091 0
M  V30 12639 O 1184.63 -1.67779 -1.88697 0
M  V30 12640 C 1185.94 -2.77546 1.15709 0
M  V30 12641 C 1187.49 -2.91364 1.14349 0
M  V30 12642 C 1187.97 -4.17068 1.89256 0
M  V30 12643 N 1189.46 -4.2407 1.8633 0
M  V30 12644 C 1190.19 -5.20243 2.41112 0
M  V30 12645 N 1189.69 -6.22318 3.04454 0
M  V30 12646 N 1191.48 -5.12328 2.31249 0
M  V30 12647 H 1183.63 -1.29521 1.68339 0
M  V30 12648 H 1185.9 -0.626382 0.711582 0
M  V30 12649 H 1185.6 -2.73474 2.21144 0
M  V30 12650 H 1185.48 -3.69682 0.749347 0
M  V30 12651 H 1187.86 -2.94939 0.0973383 0
M  V30 12652 H 1187.94 -2.00344 1.59047 0
M  V30 12653 H 1187.59 -4.14255 2.93863 0
M  V30 12654 H 1187.52 -5.07099 1.41978 0
M  V30 12655 H 1190.01 -3.50944 1.40168 0
M  V30 12656 H 1190.32 -6.92129 3.43769 0
M  V30 12657 H 1188.67 -6.22759 3.08538 0
M  V30 12658 H 1191.86 -4.31514 1.8142 0
M  V30 12659 H 1192.03 -5.87107 2.74243 0
M  V30 12660 N 1185.44 -0.462799 -1.50652 0
M  V30 12661 C 1186.4 0.324264 -2.26895 0
M  V30 12662 C 1187.4 0.927687 -1.31342 0
M  V30 12663 O 1188.59 0.798159 -1.54839 0
M  V30 12664 C 1185.72 1.46113 -3.08 0
M  V30 12665 H 1186.91 -0.344266 -2.97917 0
M  V30 12666 H 1184.47 -0.216631 -1.54791 0
M  V30 12667 H 1185.2 2.16496 -2.41454 0
M  V30 12668 H 1184.99 1.03433 -3.78212 0
M  V30 12669 H 1186.48 2.01655 -3.65684 0
M  V30 12670 N 1186.91 1.56388 -0.195085 0
M  V30 12671 C 1187.88 2.17859 0.712053 0
M  V30 12672 C 1188.88 1.13304 1.141 0
M  V30 12673 O 1190.07 1.38689 1.05409 0
M  V30 12674 C 1187.2 2.78065 1.97213 0
M  V30 12675 H 1188.39 2.9938 0.176529 0
M  V30 12676 H 1185.95 1.56205 0.0545322 0
M  V30 12677 H 1186.68 2.00342 2.55017 0
M  V30 12678 H 1186.47 3.54603 1.67329 0
M  V30 12679 H 1187.96 3.25266 2.619 0
M  V30 12680 N 1188.39 -0.0785156 1.57404 0
M  V30 12681 C 1189.64 -0.780092 1.87196 0
M  V30 12682 C 1189.97 -1.77562 0.78647 0
M  V30 12683 O 1189.25 -1.93428 -0.203935 0
M  V30 12684 C 1189.53 -1.49408 3.27642 0
M  V30 12685 C 1189.38 -0.515416 4.46837 0
M  V30 12686 C 1190.7 -2.44064 3.66225 0
M  V30 12687 H 1187.82 -0.282134 0.680859 0
M  V30 12688 H 1190.46 -0.0433926 1.8995 0
M  V30 12689 H 1188.61 -2.12205 3.25425 0
M  V30 12690 H 1190.28 0.106827 4.61176 0
M  V30 12691 H 1188.53 0.169832 4.33467 0
M  V30 12692 H 1189.2 -1.05247 5.41874 0
M  V30 12693 H 1191.67 -1.91349 3.69493 0
M  V30 12694 H 1190.55 -2.91029 4.65396 0
M  V30 12695 H 1190.81 -3.28569 2.95796 0
M  V30 12696 N 1189.87 -1.5367 -0.349747 0
M  V30 12697 C 1190.78 -1.84207 -1.45275 0
M  V30 12698 C 1191.8 -0.731695 -1.57868 0
M  V30 12699 O 1192.97 -1.02337 -1.73462 0
M  V30 12700 C 1190.04 -2.0398 -2.80345 0
M  V30 12701 C 1189.1 -3.27853 -2.77148 0
M  V30 12702 C 1188.33 -3.46673 -4.05775 0
M  V30 12703 O 1188.55 -2.69457 -5.02741 0
M  V30 12704 O 1187.49 -4.40082 -4.10623 0
M  V30 12705 H 1191.31 -2.77947 -1.22389 0
M  V30 12706 H 1188.9 -1.39247 -0.541345 0
M  V30 12707 H 1190.78 -2.18466 -3.60348 0
M  V30 12708 H 1189.46 -1.13429 -3.03176 0
M  V30 12709 H 1188.36 -3.18776 -1.95787 0
M  V30 12710 H 1189.7 -4.18377 -2.59271 0
M  V30 12711 N 1191.35 0.610423 -1.45298 0
M  V30 12712 C 1192.28 1.73207 -1.56594 0
M  V30 12713 C 1193.26 1.64893 -0.417651 0
M  V30 12714 O 1194.44 1.83336 -0.64043 0
M  V30 12715 C 1191.57 3.11803 -1.52959 0
M  V30 12716 C 1190.53 3.34925 -2.66475 0
M  V30 12717 C 1189.85 4.73764 -2.47894 0
M  V30 12718 C 1191.15 3.25456 -4.08504 0
M  V30 12719 H 1192.85 1.6401 -2.50482 0
M  V30 12720 H 1190.39 0.787621 -1.20551 0
M  V30 12721 H 1192.35 3.90065 -1.59458 0
M  V30 12722 H 1191.07 3.21833 -0.55599 0
M  V30 12723 H 1189.73 2.59051 -2.59399 0
M  V30 12724 H 1189.38 4.80524 -1.4868 0
M  V30 12725 H 1189.08 4.90191 -3.24016 0
M  V30 12726 H 1190.6 5.54231 -2.56243 0
M  V30 12727 H 1192.02 3.93597 -4.16839 0
M  V30 12728 H 1190.41 3.53414 -4.84994 0
M  V30 12729 H 1191.48 2.22939 -4.30612 0
M  V30 12730 N 1192.83 1.32541 0.852676 0
M  V30 12731 C 1193.79 1.21578 1.94297 0
M  V30 12732 C 1194.79 0.138318 1.60204 0
M  V30 12733 O 1195.98 0.388864 1.69804 0
M  V30 12734 C 1193.11 0.870209 3.29606 0
M  V30 12735 H 1194.3 2.18476 2.05446 0
M  V30 12736 H 1191.86 1.16401 1.0431 0
M  V30 12737 H 1192.59 -0.0968698 3.24155 0
M  V30 12738 H 1192.38 1.64924 3.55728 0
M  V30 12739 H 1193.87 0.817874 4.09513 0
M  V30 12740 N 1194.3 -1.0692 1.15784 0
M  V30 12741 C 1195.58 -1.76367 0.845825 0
M  V30 12742 C 1195.96 -2.00594 -0.657672 0
M  V30 12743 O 1195.31 -1.62794 -1.60345 0
M  V30 12744 C 1195.52 -3.06913 1.66149 0
M  V30 12745 C 1196.87 -3.81181 1.87046 0
M  V30 12746 O 1197.89 -3.16737 1.62961 0
M  V30 12747 O 1196.75 -4.96936 2.27413 0
M  V30 12748 H 1193.84 -0.766095 0.311493 0
M  V30 12749 H 1196.39 -1.13246 1.26386 0
M  V30 12750 H 1195.16 -2.84924 2.68205 0
M  V30 12751 H 1194.79 -3.77767 1.24007 0
M  V30 12752 N 1195.78 -0.955326 -1.25345 0
M  V30 12753 C 1197.03 -0.611388 -1.93365 0
M  V30 12754 C 1197.36 0.84953 -1.74633 0
M  V30 12755 O 1196.64 1.60962 -1.09185 0
M  V30 12756 C 1196.92 -0.971732 -3.46741 0
M  V30 12757 C 1196.77 -2.48843 -3.74696 0
M  V30 12758 C 1198.09 -0.497295 -4.37281 0
M  V30 12759 H 1195.21 -0.223591 -0.702265 0
M  V30 12760 H 1197.85 -1.1921 -1.47949 0
M  V30 12761 H 1196 -0.477568 -3.85554 0
M  V30 12762 H 1197.67 -3.05641 -3.45516 0
M  V30 12763 H 1195.92 -2.92582 -3.20278 0
M  V30 12764 H 1196.59 -2.69107 -4.8196 0
M  V30 12765 H 1199.06 -0.921196 -4.05775 0
M  V30 12766 H 1197.94 -0.778113 -5.43357 0
M  V30 12767 H 1198.2 0.602743 -4.37972 0
M  V30 12768 N 1197.26 1.39987 -0.723979 0
M  V30 12769 C 1198.17 2.3447 -0.0780936 0
M  V30 12770 C 1199.19 1.57744 0.734368 0
M  V30 12771 O 1200.36 1.90091 0.665385 0
M  V30 12772 C 1197.43 3.36705 0.826492 0
M  V30 12773 C 1196.49 4.293 0.00303036 0
M  V30 12774 C 1195.72 5.26651 0.864535 0
M  V30 12775 O 1195.95 5.30194 2.10357 0
M  V30 12776 O 1194.88 6.01157 0.299057 0
M  V30 12777 H 1198.71 2.91338 -0.857646 0
M  V30 12778 H 1196.29 1.41324 -0.484536 0
M  V30 12779 H 1198.17 3.9938 1.34439 0
M  V30 12780 H 1196.85 2.82237 1.58505 0
M  V30 12781 H 1195.75 3.69883 -0.560136 0
M  V30 12782 H 1197.09 4.86942 -0.717494 0
M  V30 12783 N 1198.74 0.470782 1.50404 0
M  V30 12784 C 1199.99 -0.0844409 2.02624 0
M  V30 12785 C 1200.32 -1.39398 1.3521 0
M  V30 12786 O 1199.59 -1.88542 0.477707 0
M  V30 12787 C 1199.88 -0.268563 3.59097 0
M  V30 12788 C 1199.73 1.06198 4.37084 0
M  V30 12789 C 1201.05 -1.02324 4.28039 0
M  V30 12790 H 1198.17 -0.0292141 0.736421 0
M  V30 12791 H 1200.81 0.616312 1.79726 0
M  V30 12792 H 1198.96 -0.865441 3.78738 0
M  V30 12793 H 1200.63 1.69541 4.29015 0
M  V30 12794 H 1198.87 1.65868 4.00837 0
M  V30 12795 H 1199.55 0.886795 5.4483 0
M  V30 12796 H 1202.02 -0.517325 4.12872 0
M  V30 12797 H 1200.9 -1.12087 5.37334 0
M  V30 12798 H 1201.16 -2.05974 3.91187 0
M  V30 12799 N 1200.22 -1.56282 0.203376 0
M  V30 12800 C 1201.49 -1.89587 -0.481256 0
M  V30 12801 C 1201.87 -1.11812 -1.79057 0
M  V30 12802 O 1201.22 -0.221759 -2.27421 0
M  V30 12803 C 1201.43 -3.42071 -0.691965 0
M  V30 12804 C 1202.78 -4.12471 -1.00761 0
M  V30 12805 O 1203.8 -3.47568 -0.779396 0
M  V30 12806 O 1202.66 -5.27194 -1.43974 0
M  V30 12807 H 1199.76 -0.787682 -0.251963 0
M  V30 12808 H 1202.3 -1.67934 0.244207 0
M  V30 12809 H 1201.08 -3.9061 0.232322 0
M  V30 12810 H 1200.7 -3.69444 -1.46958 0
M  V30 12811 N 1201.7 0.070167 -1.57444 0
M  V30 12812 C 1202.63 1.08351 -2.06839 0
M  V30 12813 C 1203.61 1.40269 -0.962224 0
M  V30 12814 O 1204.79 1.49867 -1.23505 0
M  V30 12815 C 1201.92 2.39649 -2.51368 0
M  V30 12816 C 1200.88 2.22079 -3.65875 0
M  V30 12817 C 1200.2 3.58776 -3.96464 0
M  V30 12818 C 1201.5 1.64069 -4.95862 0
M  V30 12819 H 1203.2 0.672465 -2.9175 0
M  V30 12820 H 1200.74 0.322027 -1.40353 0
M  V30 12821 H 1202.69 3.10833 -2.84537 0
M  V30 12822 H 1201.42 2.82736 -1.63487 0
M  V30 12823 H 1200.08 1.53337 -3.32992 0
M  V30 12824 H 1199.73 3.99436 -3.05712 0
M  V30 12825 H 1199.43 3.47859 -4.7357 0
M  V30 12826 H 1200.95 4.31387 -4.32131 0
M  V30 12827 H 1202.36 2.2512 -5.27251 0
M  V30 12828 H 1200.76 1.63843 -5.773 0
M  V30 12829 H 1201.83 0.60232 -4.81145 0
M  V30 12830 N 1203.17 1.53854 0.341593 0
M  V30 12831 C 1204.58 1.62623 0.917093 0
M  V30 12832 C 1204.94 0.508781 1.89488 0
M  V30 12833 O 1204.06 -0.361171 2.13365 0
M  V30 12834 C 1204.66 2.94775 1.67012 0
M  V30 12835 C 1203.21 3.058 2.19461 0
M  V30 12836 C 1202.36 2.58082 1.01433 0
M  V30 12837 H 1205.31 1.58248 0.119674 0
M  V30 12838 H 1205.33 2.83924 2.53313 0
M  V30 12839 H 1204.85 3.76085 0.958221 0
M  V30 12840 H 1202.95 2.29128 2.93821 0
M  V30 12841 H 1203.06 4.11302 2.45698 0
M  V30 12842 H 1201.42 2.13537 1.38831 0
M  V30 12843 H 1202.21 3.41833 0.317033 0
M  V30 12844 N 1204.65 -0.602709 1.4562 0
M  V30 12845 C 1205.93 -1.36224 1.40366 0
M  V30 12846 C 1206.31 -2.1096 0.0767645 0
M  V30 12847 O 1205.66 -2.08207 -0.941378 0
M  V30 12848 C 1205.87 -2.30499 2.62052 0
M  V30 12849 C 1207.21 -2.92954 3.07348 0
M  V30 12850 O 1208.24 -2.40818 2.62459 0
M  V30 12851 O 1207.1 -3.87601 3.85263 0
M  V30 12852 H 1204.19 -0.611064 0.557253 0
M  V30 12853 H 1206.74 -0.625391 1.57756 0
M  V30 12854 H 1205.51 -1.74566 3.50203 0
M  V30 12855 H 1205.13 -3.11556 2.4702 0
M  V30 12856 N 1206.13 -1.32992 -0.845635 0
M  V30 12857 C 1207.38 -1.24249 -1.60281 0
M  V30 12858 C 1207.71 0.193049 -1.93238 0
M  V30 12859 O 1206.98 1.1326 -1.58122 0
M  V30 12860 C 1207.27 -2.1111 -2.91727 0
M  V30 12861 C 1207.12 -3.63088 -2.65494 0
M  V30 12862 C 1208.44 -1.97913 -3.93089 0
M  V30 12863 H 1205.56 -0.452698 -0.581578 0
M  V30 12864 H 1208.2 -1.63026 -0.975828 0
M  V30 12865 H 1206.35 -1.78169 -3.45236 0
M  V30 12866 H 1208.02 -4.06287 -2.18469 0
M  V30 12867 H 1206.26 -3.85304 -1.99306 0
M  V30 12868 H 1206.94 -4.19202 -3.59129 0
M  V30 12869 H 1209.41 -2.26788 -3.48864 0
M  V30 12870 H 1208.29 -2.60952 -4.82903 0
M  V30 12871 H 1208.55 -0.949378 -4.31786 0
M  V30 12872 N 1207.61 1.06304 -1.1635 0
M  V30 12873 C 1208.54 2.13732 -0.827721 0
M  V30 12874 C 1209.55 1.61962 0.164983 0
M  V30 12875 O 1210.74 1.784 -0.0597591 0
M  V30 12876 C 1207.84 3.38239 -0.211623 0
M  V30 12877 C 1207.01 4.19325 -1.2444 0
M  V30 12878 C 1206.07 5.22193 -0.648127 0
M  V30 12879 O 1205.1 5.53755 -1.31695 0
M  V30 12880 N 1206.3 5.77742 0.565179 0
M  V30 12881 H 1209.07 2.43136 -1.75228 0
M  V30 12882 H 1206.63 1.22304 -1.06081 0
M  V30 12883 H 1208.62 4.04204 0.200306 0
M  V30 12884 H 1207.19 3.06461 0.616491 0
M  V30 12885 H 1206.41 3.49017 -1.83251 0
M  V30 12886 H 1207.7 4.70306 -1.94138 0
M  V30 12887 H 1207.1 5.54366 1.12673 0
M  V30 12888 H 1205.65 6.45284 0.919321 0
M  V30 12889 N 1209.09 0.96196 1.24836 0
M  V30 12890 C 1210.33 0.616342 1.92052 0
M  V30 12891 C 1210.65 -0.851601 1.76088 0
M  V30 12892 O 1211.85 -1.3075 2.37943 0
M  V30 12893 C 1210.31 1.05168 3.44191 0
M  V30 12894 C 1209.92 2.54268 3.68852 0
M  V30 12895 C 1211.66 0.778938 4.17292 0
M  V30 12896 C 1209.57 2.91564 5.14533 0
M  V30 12897 H 1208.5 0.22681 0.719078 0
M  V30 12898 H 1211.15 1.1674 1.41577 0
M  V30 12899 H 1209.53 0.428979 3.9367 0
M  V30 12900 H 1210.71 3.21619 3.29997 0
M  V30 12901 H 1209.02 2.79091 3.09026 0
M  V30 12902 H 1211.62 1.03366 5.24614 0
M  V30 12903 H 1211.96 -0.284772 4.15325 0
M  V30 12904 H 1212.49 1.36233 3.73745 0
M  V30 12905 H 1209.23 3.96982 5.21618 0
M  V30 12906 H 1208.75 2.28892 5.54408 0
M  V30 12907 H 1210.43 2.81155 5.82718 0
M  V30 12908 N 1210.56 -1.39601 0.731392 0
M  V30 12909 C 1211.84 -1.94531 0.20422 0
M  V30 12910 C 1212.22 -1.66845 -1.29329 0
M  V30 12911 O 1211.57 -0.994706 -2.05713 0
M  V30 12912 C 1211.78 -3.44891 0.53395 0
M  V30 12913 C 1213.13 -4.21863 0.481298 0
M  V30 12914 O 1214.15 -3.53073 0.470929 0
M  V30 12915 O 1213.01 -5.44452 0.472663 0
M  V30 12916 H 1210.1 -0.826214 0.0360436 0
M  V30 12917 H 1212.65 -1.49121 0.810005 0
M  V30 12918 H 1211.42 -3.58463 1.56907 0
M  V30 12919 H 1211.04 -3.97472 -0.10099 0
M  V30 12920 N 1212.04 -0.478751 -1.50152 0
M  V30 12921 C 1213.32 0.135533 -1.9513 0
M  V30 12922 C 1213.7 1.56253 -1.41944 0
M  V30 12923 O 1213.05 2.19824 -0.623673 0
M  V30 12924 C 1213.26 0.0710037 -3.48928 0
M  V30 12925 C 1214.61 0.256075 -4.23827 0
M  V30 12926 O 1215.63 0.147234 -3.55896 0
M  V30 12927 O 1214.49 0.476741 -5.44417 0
M  V30 12928 H 1211.58 0.107491 -0.819985 0
M  V30 12929 H 1214.13 -0.539701 -1.60889 0
M  V30 12930 H 1212.9 -0.925012 -3.80209 0
M  V30 12931 H 1212.52 0.787362 -3.89726 0
M  V30 12932 N 1213.52 1.56172 -0.211661 0
M  V30 12933 C 1214.77 1.97214 0.423008 0
M  V30 12934 C 1215.08 1.10203 1.616 0
M  V30 12935 O 1216.29 1.411 2.31955 0
M  V30 12936 C 1214.74 3.50805 0.803977 0
M  V30 12937 C 1214.35 4.46505 -0.365654 0
M  V30 12938 C 1216.1 4.00582 1.4048 0
M  V30 12939 C 1214 5.91388 0.0371986 0
M  V30 12940 H 1212.93 0.736432 0.161814 0
M  V30 12941 H 1215.58 1.80925 -0.306307 0
M  V30 12942 H 1213.97 3.62659 1.59043 0
M  V30 12943 H 1215.14 4.46394 -1.14321 0
M  V30 12944 H 1213.46 4.07015 -0.879061 0
M  V30 12945 H 1216.05 5.06317 1.71894 0
M  V30 12946 H 1216.4 3.45853 2.31713 0
M  V30 12947 H 1216.93 3.9191 0.681984 0
M  V30 12948 H 1213.67 6.50078 -0.841367 0
M  V30 12949 H 1213.19 5.94716 0.77927 0
M  V30 12950 H 1214.87 6.4531 0.467309 0
M  V30 12951 N 1215 -0.0618163 1.57479 0
M  V30 12952 C 1215.95 -1.09105 2.05424 0
M  V30 12953 C 1216.94 -1.3947 0.961479 0
M  V30 12954 O 1218.15 -1.3876 1.14655 0
M  V30 12955 H 1214.52 -0.36923 0.655113 0
M  V30 12956 H 1216.49 -0.66061 2.90996 0
M  V30 12957 C 1215.24 -2.39345 2.52209 0
M  V30 12958 H 1214.56 -2.16832 3.35893 0
M  V30 12959 H 1216 -3.09784 2.89499 0
M  V30 12960 C 1214.46 -3.06011 1.40922 0
M  V30 12961 O 1214.99 -3.94504 0.756921 0
M  V30 12962 N 1213.2 -2.66797 1.15186 0
M  V30 12963 H 1212.75 -1.94923 1.68412 0
M  V30 12964 H 1212.7 -3.11724 0.409324 0
M  V30 12965 N 1216.48 -1.54033 -0.333429 0
M  V30 12966 C 1217.41 -1.85719 -1.4153 0
M  V30 12967 C 1218.39 -0.713144 -1.54429 0
M  V30 12968 O 1219.57 -0.965984 -1.68471 0
M  V30 12969 C 1216.7 -2.07578 -2.78439 0
M  V30 12970 C 1215.66 -3.23411 -2.80338 0
M  V30 12971 C 1214.98 -3.30622 -4.2023 0
M  V30 12972 C 1216.28 -4.6129 -2.44968 0
M  V30 12973 H 1217.98 -2.76325 -1.15261 0
M  V30 12974 H 1215.52 -1.32957 -0.55303 0
M  V30 12975 H 1217.48 -2.28329 -3.5418 0
M  V30 12976 H 1216.2 -1.13713 -3.06165 0
M  V30 12977 H 1214.86 -3.02531 -2.07052 0
M  V30 12978 H 1214.51 -2.34333 -4.45081 0
M  V30 12979 H 1214.21 -4.08466 -4.22409 0
M  V30 12980 H 1215.73 -3.53596 -4.97798 0
M  V30 12981 H 1217.14 -4.81987 -3.10421 0
M  V30 12982 H 1215.54 -5.41611 -2.58414 0
M  V30 12983 H 1216.61 -4.6421 -1.40134 0
M  V30 12984 N 1217.95 0.594978 -1.45938 0
M  V30 12985 C 1219.37 1.17703 -1.44924 0
M  V30 12986 C 1219.72 1.9534 -0.183522 0
M  V30 12987 O 1218.84 2.04276 0.714163 0
M  V30 12988 C 1219.44 2.14119 -2.62561 0
M  V30 12989 C 1218 2.67674 -2.64627 0
M  V30 12990 C 1217.14 1.43312 -2.37397 0
M  V30 12991 H 1220.09 0.383583 -1.53995 0
M  V30 12992 H 1220.11 2.97374 -2.3738 0
M  V30 12993 H 1219.63 1.57586 -3.54667 0
M  V30 12994 H 1217.73 3.28111 -1.76562 0
M  V30 12995 H 1217.84 3.11246 -3.64229 0
M  V30 12996 H 1216.2 1.72702 -1.87206 0
M  V30 12997 H 1216.99 0.886276 -3.31663 0
M  V30 12998 N 1219.43 1.33438 0.838571 0
M  V30 12999 C 1220.34 1.25753 1.98049 0
M  V30 13000 C 1221.36 0.168051 1.73187 0
M  V30 13001 O 1222.53 0.391691 1.97554 0
M  V30 13002 C 1219.6 0.997148 3.32051 0
M  V30 13003 C 1218.66 2.17667 3.70027 0
M  V30 13004 C 1217.89 1.92861 4.97635 0
M  V30 13005 O 1218.12 0.879072 5.63585 0
M  V30 13006 O 1217.05 2.79402 5.33121 0
M  V30 13007 H 1220.88 2.21786 2.07472 0
M  V30 13008 H 1218.46 1.13488 0.971645 0
M  V30 13009 H 1220.34 0.869099 4.1234 0
M  V30 13010 H 1219.02 0.0671036 3.2363 0
M  V30 13011 H 1217.93 2.36025 2.90246 0
M  V30 13012 H 1219.26 3.09006 3.83114 0
M  V30 13013 N 1220.91 -1.05686 1.16912 0
M  V30 13014 C 1222.16 -1.78862 0.955839 0
M  V30 13015 C 1222.49 -1.87257 -0.514645 0
M  V30 13016 O 1221.76 -1.36869 -1.38193 0
M  V30 13017 C 1222.05 -3.23021 1.59152 0
M  V30 13018 C 1221.9 -3.22669 3.13376 0
M  V30 13019 C 1223.22 -4.2073 1.29128 0
M  V30 13020 H 1220.34 -0.64931 0.348663 0
M  V30 13021 H 1222.98 -1.23561 1.44335 0
M  V30 13022 H 1221.13 -3.70243 1.17697 0
M  V30 13023 H 1222.8 -2.83562 3.63855 0
M  V30 13024 H 1221.05 -2.61149 3.46386 0
M  V30 13025 H 1221.72 -4.24394 3.52979 0
M  V30 13026 H 1224.19 -3.8198 1.65017 0
M  V30 13027 H 1223.07 -5.19851 1.76198 0
M  V30 13028 H 1223.33 -4.41595 0.21119 0
M  V30 13029 N 1222.39 -0.968567 -1.24324 0
M  V30 13030 C 1223.32 -0.518323 -2.27674 0
M  V30 13031 C 1224.3 0.442479 -1.64244 0
M  V30 13032 O 1225.48 0.338416 -1.91229 0
M  V30 13033 C 1222.61 0.191459 -3.46772 0
M  V30 13034 C 1221.57 -0.685449 -4.22476 0
M  V30 13035 C 1220.89 0.155873 -5.34473 0
M  V30 13036 C 1222.19 -1.97047 -4.83704 0
M  V30 13037 H 1223.89 -1.38215 -2.65588 0
M  V30 13038 H 1221.43 -0.66604 -1.27671 0
M  V30 13039 H 1223.39 0.517667 -4.18208 0
M  V30 13040 H 1222.11 1.08965 -3.07887 0
M  V30 13041 H 1220.77 -0.994942 -3.52841 0
M  V30 13042 H 1220.42 1.05424 -4.91828 0
M  V30 13043 H 1220.12 -0.427655 -5.86042 0
M  V30 13044 H 1221.64 0.476733 -6.08736 0
M  V30 13045 H 1223.06 -1.70979 -5.4721 0
M  V30 13046 H 1221.45 -2.50079 -5.45509 0
M  V30 13047 H 1222.52 -2.66484 -4.0511 0
M  V30 13048 N 1223.87 1.39211 -0.738786 0
M  V30 13049 C 1225.11 2.00733 -0.288817 0
M  V30 13050 C 1225.45 1.58494 1.1222 0
M  V30 13051 O 1224.72 0.815579 1.76575 0
M  V30 13052 C 1225 3.57928 -0.394956 0
M  V30 13053 C 1224.86 4.10174 -1.84601 0
M  V30 13054 C 1226.18 4.39548 0.220395 0
M  V30 13055 H 1223.29 0.729276 -0.106418 0
M  V30 13056 H 1225.94 1.65365 -0.935652 0
M  V30 13057 H 1224.09 3.88188 0.155744 0
M  V30 13058 H 1225.76 3.90618 -2.45388 0
M  V30 13059 H 1224 3.63593 -2.36607 0
M  V30 13060 H 1224.67 5.19305 -1.87152 0
M  V30 13061 H 1227.15 4.15354 -0.249098 0
M  V30 13062 H 1226.02 5.48778 0.115806 0
M  V30 13063 H 1226.29 4.22341 1.30691 0
M  V30 13064 N 1225.34 0.486708 1.49896 0
M  V30 13065 C 1226.31 -0.288126 2.27382 0
M  V30 13066 C 1227.31 -0.906675 1.32801 0
M  V30 13067 O 1228.5 -0.773425 1.56089 0
M  V30 13068 C 1225.63 -1.41194 3.10285 0
M  V30 13069 H 1226.82 0.391618 2.97332 0
M  V30 13070 H 1224.38 0.24123 1.54427 0
M  V30 13071 H 1225.11 -2.12627 2.44868 0
M  V30 13072 H 1224.9 -0.974033 3.79809 0
M  V30 13073 H 1226.39 -1.95812 3.68846 0
M  V30 13074 N 1226.82 -1.56058 0.219941 0
M  V30 13075 C 1228.1 -1.90087 -0.46112 0
M  V30 13076 C 1228.48 -1.13705 -1.77861 0
M  V30 13077 O 1227.83 -0.245868 -2.27173 0
M  V30 13078 C 1228.04 -3.42786 -0.655644 0
M  V30 13079 C 1229.39 -4.13517 -0.963803 0
M  V30 13080 O 1230.41 -3.48376 -0.742488 0
M  V30 13081 O 1229.27 -5.28692 -1.38374 0
M  V30 13082 H 1226.36 -0.790311 -0.243595 0
M  V30 13083 H 1228.91 -1.67665 0.262005 0
M  V30 13084 H 1227.68 -3.90341 0.273738 0
M  V30 13085 H 1227.3 -3.70982 -1.43032 0
M  V30 13086 N 1228.3 0.053464 -1.57509 0
M  V30 13087 C 1229.55 0.747622 -1.87763 0
M  V30 13088 C 1229.87 1.77178 -0.814433 0
M  V30 13089 O 1229.14 1.95287 0.154862 0
M  V30 13090 H 1227.72 0.279109 -0.692898 0
M  V30 13091 H 1230.38 0.0252006 -1.94884 0
M  V30 13092 H 1229.48 1.25244 -2.85868 0
M  V30 13093 N 1229.78 1.54207 0.325255 0
M  V30 13094 C 1231 1.7661 1.08736 0
M  V30 13095 C 1231.43 0.512449 1.80985 0
M  V30 13096 O 1230.79 -0.535913 1.73198 0
M  V30 13097 C 1230.84 2.95797 2.06243 0
M  V30 13098 O 1229.94 2.67225 3.14109 0
M  V30 13099 H 1229.28 0.585282 0.313593 0
M  V30 13100 H 1231.81 2.01225 0.370066 0
M  V30 13101 H 1231.82 3.23097 2.49143 0
M  V30 13102 H 1230.5 3.86712 1.53058 0
M  V30 13103 H 1229.07 2.50869 2.75897 0
M  V30 13104 N 1231.26 -0.58723 1.46251 0
M  V30 13105 C 1232.22 -1.67863 1.5606 0
M  V30 13106 C 1233.22 -1.54715 0.438162 0
M  V30 13107 O 1234.41 -1.59415 0.702323 0
M  V30 13108 C 1231.54 -3.07262 1.47659 0
M  V30 13109 H 1232.74 -1.60525 2.53321 0
M  V30 13110 H 1230.29 -0.804691 1.33994 0
M  V30 13111 H 1231.02 -3.20159 0.5166 0
M  V30 13112 H 1230.81 -3.18213 2.29092 0
M  V30 13113 H 1232.3 -3.8672 1.57599 0
M  V30 13114 N 1232.74 -1.33881 -0.831482 0
M  V30 13115 C 1233.96 -1.28961 -1.62431 0
M  V30 13116 C 1234.39 0.135249 -1.87613 0
M  V30 13117 O 1233.74 1.09426 -1.44553 0
M  V30 13118 C 1233.79 -2.07767 -2.94729 0
M  V30 13119 O 1232.9 -1.44133 -3.86393 0
M  V30 13120 H 1232.24 -0.443313 -0.494337 0
M  V30 13121 H 1234.77 -1.76555 -1.0339 0
M  V30 13122 H 1234.78 -2.18806 -3.44366 0
M  V30 13123 H 1233.45 -3.11367 -2.75724 0
M  V30 13124 H 1232.03 -1.41784 -3.44894 0
M  V30 13125 N 1234.21 1.05064 -1.1747 0
M  V30 13126 C 1235.14 2.14786 -0.915936 0
M  V30 13127 C 1236.12 1.69502 0.142561 0
M  V30 13128 O 1237.31 1.94198 -0.00794522 0
M  V30 13129 C 1234.44 3.44629 -0.429864 0
M  V30 13130 C 1233.39 4.03486 -1.42769 0
M  V30 13131 C 1232.72 5.28689 -0.799528 0
M  V30 13132 C 1234.02 4.40823 -2.80129 0
M  V30 13133 H 1235.71 2.3669 -1.83352 0
M  V30 13134 H 1233.26 1.13751 -0.882992 0
M  V30 13135 H 1235.21 4.20737 -0.236245 0
M  V30 13136 H 1233.94 3.22381 0.523263 0
M  V30 13137 H 1232.6 3.29449 -1.60808 0
M  V30 13138 H 1232.24 5.02744 0.160474 0
M  V30 13139 H 1231.94 5.69028 -1.46565 0
M  V30 13140 H 1233.47 6.07483 -0.616212 0
M  V30 13141 H 1234.88 5.07959 -2.65801 0
M  V30 13142 H 1233.28 4.92183 -3.43331 0
M  V30 13143 H 1234.35 3.51108 -3.34441 0
M  V30 13144 N 1235.69 0.975146 1.23809 0
M  V30 13145 C 1236.92 0.658978 1.96125 0
M  V30 13146 C 1237.33 -0.773044 1.72248 0
M  V30 13147 O 1236.69 -1.51956 1.01072 0
M  V30 13148 C 1236.74 0.933355 3.49243 0
M  V30 13149 O 1236.46 2.30909 3.72307 0
M  V30 13150 C 1237.96 0.632408 4.38766 0
M  V30 13151 H 1235.18 0.245237 0.62458 0
M  V30 13152 H 1237.73 1.3051 1.5744 0
M  V30 13153 H 1235.88 0.333323 3.85963 0
M  V30 13154 H 1236.3 2.39476 4.66638 0
M  V30 13155 H 1237.77 0.874791 5.45024 0
M  V30 13156 H 1238.25 -0.433453 4.37056 0
M  V30 13157 H 1238.85 1.21268 4.07645 0
M  V30 13158 N 1237.17 -1.38817 0.746158 0
M  V30 13159 C 1238.45 -1.94303 0.224841 0
M  V30 13160 C 1238.83 -1.68207 -1.27552 0
M  V30 13161 O 1238.17 -1.01647 -2.04646 0
M  V30 13162 C 1238.38 -3.44306 0.5705 0
M  V30 13163 C 1239.73 -4.21329 0.526015 0
M  V30 13164 O 1240.76 -3.52554 0.508351 0
M  V30 13165 O 1239.62 -5.4392 0.530383 0
M  V30 13166 H 1236.71 -0.825785 0.0448047 0
M  V30 13167 H 1239.26 -1.48253 0.825775 0
M  V30 13168 H 1238.03 -3.56779 1.60701 0
M  V30 13169 H 1237.65 -3.97556 -0.0588271 0
M  V30 13170 N 1238.65 -0.49465 -1.49636 0
M  V30 13171 C 1239.6 0.306278 -2.25933 0
M  V30 13172 C 1240.58 0.941082 -1.30508 0
M  V30 13173 O 1241.77 0.849732 -1.55269 0
M  V30 13174 C 1238.9 1.3739 -3.14609 0
M  V30 13175 C 1237.99 0.745657 -4.17493 0
M  V30 13176 N 1238.38 -0.147977 -5.05583 0
M  V30 13177 C 1236.68 1.00696 -4.34484 0
M  V30 13178 C 1237.38 -0.506949 -5.79487 0
M  V30 13179 N 1236.35 0.123603 -5.43459 0
M  V30 13180 H 1240.16 -0.381753 -2.9141 0
M  V30 13181 H 1237.67 -0.310311 -1.59408 0
M  V30 13182 H 1239.67 1.96108 -3.67896 0
M  V30 13183 H 1238.33 2.06368 -2.50684 0
M  V30 13184 H 1239.34 -0.518378 -5.15299 0
M  V30 13185 H 1236.02 1.68996 -3.81768 0
M  V30 13186 H 1237.41 -1.23766 -6.60403 0
M  V30 13187 N 1240.13 1.55939 -0.228214 0
M  V30 13188 C 1241.37 1.98084 0.400884 0
M  V30 13189 C 1241.69 1.11727 1.59819 0
M  V30 13190 O 1240.96 0.195794 1.94919 0
M  V30 13191 H 1239.54 0.731558 0.151102 0
M  V30 13192 H 1242.21 1.92211 -0.322659 0
M  V30 13193 H 1241.3 3.03617 0.722706 0
M  V30 13194 N 1241.6 -0.0451101 1.57535 0
M  V30 13195 C 1242.54 -1.07792 2.02271 0
M  V30 13196 C 1243.55 -1.33423 0.932854 0
M  V30 13197 O 1244.74 -1.31193 1.2104 0
M  V30 13198 C 1241.84 -2.42314 2.36933 0
M  V30 13199 C 1241.01 -2.36266 3.68099 0
M  V30 13200 C 1240.07 -3.53108 3.9013 0
M  V30 13201 O 1239.1 -3.33327 4.61391 0
M  V30 13202 N 1240.3 -4.74415 3.3453 0
M  V30 13203 H 1243.06 -0.696744 2.91489 0
M  V30 13204 H 1240.62 -0.233336 1.6021 0
M  V30 13205 H 1242.62 -3.19171 2.48821 0
M  V30 13206 H 1241.19 -2.72335 1.53468 0
M  V30 13207 H 1240.41 -1.44615 3.66715 0
M  V30 13208 H 1241.69 -2.29351 4.54175 0
M  V30 13209 H 1241.09 -4.93388 2.76739 0
M  V30 13210 H 1239.65 -5.48692 3.51825 0
M  V30 13211 N 1243.08 -1.54377 -0.317073 0
M  V30 13212 C 1244.01 -1.8721 -1.39552 0
M  V30 13213 C 1244.99 -0.729483 -1.53664 0
M  V30 13214 O 1246.18 -0.983799 -1.67437 0
M  V30 13215 C 1243.31 -2.1052 -2.76222 0
M  V30 13216 C 1242.26 -3.26366 -2.76892 0
M  V30 13217 C 1241.59 -3.35061 -4.16699 0
M  V30 13218 C 1242.89 -4.63862 -2.40061 0
M  V30 13219 H 1244.58 -2.77532 -1.12323 0
M  V30 13220 H 1242.13 -1.33536 -0.538897 0
M  V30 13221 H 1244.08 -2.32073 -3.51739 0
M  V30 13222 H 1242.81 -1.16953 -3.04942 0
M  V30 13223 H 1241.46 -3.0471 -2.03831 0
M  V30 13224 H 1241.11 -2.39041 -4.4257 0
M  V30 13225 H 1240.81 -4.12923 -4.18053 0
M  V30 13226 H 1242.34 -3.58856 -4.94019 0
M  V30 13227 H 1243.75 -4.85252 -3.05292 0
M  V30 13228 H 1242.15 -5.44321 -2.52655 0
M  V30 13229 H 1243.22 -4.6567 -1.35202 0
M  V30 13230 N 1244.56 0.579466 -1.4656 0
M  V30 13231 C 1245.81 1.33492 -1.51738 0
M  V30 13232 C 1246.13 1.94241 -0.171926 0
M  V30 13233 O 1245.4 1.78737 0.801875 0
M  V30 13234 H 1243.98 0.49565 -0.558874 0
M  V30 13235 H 1246.64 0.678394 -1.82712 0
M  V30 13236 H 1245.74 2.13995 -2.27183 0
M  V30 13237 N 1246.04 1.3432 0.824371 0
M  V30 13238 C 1247.26 1.2982 1.61745 0
M  V30 13239 C 1247.69 -0.125298 1.87682 0
M  V30 13240 O 1247.05 -1.08658 1.45131 0
M  V30 13241 C 1247.09 2.09327 2.93623 0
M  V30 13242 O 1246.2 1.4618 3.85623 0
M  V30 13243 H 1245.54 0.445929 0.491979 0
M  V30 13244 H 1248.07 1.77101 1.02452 0
M  V30 13245 H 1248.08 2.20629 3.43201 0
M  V30 13246 H 1246.75 3.12825 2.74069 0
M  V30 13247 H 1245.33 1.43611 3.44137 0
M  V30 13248 N 1247.52 -1.0444 1.18026 0
M  V30 13249 C 1248.46 -2.14474 0.900202 0
M  V30 13250 C 1249.46 -1.68836 -0.138086 0
M  V30 13251 O 1250.66 -1.79997 0.00971011 0
M  V30 13252 H 1247.04 -0.700457 0.273613 0
M  V30 13253 H 1249.01 -2.35295 1.83518 0
M  V30 13254 C 1247.76 -3.44926 0.438305 0
M  V30 13255 H 1247.08 -3.8045 1.22874 0
M  V30 13256 H 1248.52 -4.23066 0.281306 0
M  V30 13257 C 1246.98 -3.26124 -0.845268 0
M  V30 13258 O 1247.51 -3.53368 -1.91034 0
M  V30 13259 N 1245.72 -2.79474 -0.7964 0
M  V30 13260 H 1245.26 -2.57503 0.0705595 0
M  V30 13261 H 1245.22 -2.67274 -1.65566 0
M  V30 13262 N 1248.99 -0.981699 -1.2329 0
M  V30 13263 C 1250.22 -0.66937 -1.95773 0
M  V30 13264 C 1250.64 0.763898 -1.72656 0
M  V30 13265 O 1249.99 1.51418 -1.01876 0
M  V30 13266 C 1250.05 -0.951863 -3.48743 0
M  V30 13267 O 1249.77 -2.3288 -3.71078 0
M  V30 13268 C 1251.27 -0.655668 -4.38424 0
M  V30 13269 H 1248.49 -0.248545 -0.623271 0
M  V30 13270 H 1251.03 -1.31343 -1.56746 0
M  V30 13271 H 1249.19 -0.353787 -3.85781 0
M  V30 13272 H 1249.6 -2.41948 -4.65362 0
M  V30 13273 H 1251.07 -0.903683 -5.44553 0
M  V30 13274 H 1251.55 0.410269 -4.3728 0
M  V30 13275 H 1252.16 -1.23428 -4.06996 0
M  V30 13276 N 1250.47 1.3842 -0.753509 0
M  V30 13277 C 1251.72 2.00415 -0.310091 0
M  V30 13278 C 1252.05 1.59675 1.10532 0
M  V30 13279 O 1251.33 0.834261 1.757 0
M  V30 13280 C 1251.61 3.57488 -0.432897 0
M  V30 13281 C 1251.46 4.08193 -1.88941 0
M  V30 13282 C 1252.78 4.39757 0.173763 0
M  V30 13283 H 1249.9 0.728107 -0.114147 0
M  V30 13284 H 1252.54 1.64363 -0.953138 0
M  V30 13285 H 1250.69 3.88331 0.114563 0
M  V30 13286 H 1252.36 3.87993 -2.49517 0
M  V30 13287 H 1250.61 3.61063 -2.4045 0
M  V30 13288 H 1251.28 5.17291 -1.9265 0
M  V30 13289 H 1253.75 4.15066 -0.293137 0
M  V30 13290 H 1252.63 5.4887 0.057594 0
M  V30 13291 H 1252.89 4.23704 1.26205 0
M  V30 13292 N 1251.95 0.502579 1.49372 0
M  V30 13293 C 1252.88 -0.264307 2.31999 0
M  V30 13294 C 1253.86 -0.96107 1.40348 0
M  V30 13295 O 1255.05 -0.952167 1.69255 0
M  V30 13296 C 1252.18 -1.32822 3.20898 0
M  V30 13297 C 1251.13 -0.751236 4.21355 0
M  V30 13298 C 1250.46 -1.91578 4.99201 0
M  V30 13299 C 1251.76 0.258764 5.21659 0
M  V30 13300 H 1253.45 0.425391 2.96363 0
M  V30 13301 H 1251 0.206022 1.42519 0
M  V30 13302 H 1252.95 -1.87245 3.77515 0
M  V30 13303 H 1251.67 -2.04712 2.54481 0
M  V30 13304 H 1250.33 -0.228743 3.65886 0
M  V30 13305 H 1249.98 -2.62241 4.2923 0
M  V30 13306 H 1249.68 -1.53578 5.67175 0
M  V30 13307 H 1251.2 -2.46432 5.58663 0
M  V30 13308 H 1252.62 -0.197385 5.7296 0
M  V30 13309 H 1251.02 0.554681 5.97531 0
M  V30 13310 H 1252.09 1.1741 4.70471 0
M  V30 13311 N 1253.43 -1.55816 0.23648 0
M  V30 13312 C 1254.67 -1.98981 -0.391725 0
M  V30 13313 C 1255.01 -1.12428 -1.58346 0
M  V30 13314 O 1254.28 -0.185303 -1.93615 0
M  V30 13315 C 1254.57 -3.50831 -0.811759 0
M  V30 13316 C 1254.42 -4.48152 0.384648 0
M  V30 13317 C 1255.74 -4.07489 -1.66254 0
M  V30 13318 H 1252.86 -0.723404 -0.140911 0
M  V30 13319 H 1255.5 -1.87011 0.335706 0
M  V30 13320 H 1253.65 -3.61162 -1.43157 0
M  V30 13321 H 1255.32 -4.49814 1.02298 0
M  V30 13322 H 1253.56 -4.21406 1.02955 0
M  V30 13323 H 1254.23 -5.51979 0.0475809 0
M  V30 13324 H 1256.71 -4.00195 -1.13944 0
M  V30 13325 H 1255.59 -5.14026 -1.92531 0
M  V30 13326 H 1255.85 -3.55297 -2.6309 0
M  V30 13327 N 1254.91 0.036755 -1.57557 0
M  V30 13328 C 1256.15 0.730186 -1.89199 0
M  V30 13329 C 1256.49 1.75414 -0.833271 0
M  V30 13330 O 1255.76 1.93901 0.152579 0
M  V30 13331 C 1256.04 1.40669 -3.31488 0
M  V30 13332 C 1255.9 0.396764 -4.48047 0
M  V30 13333 C 1257.22 2.34268 -3.72567 0
M  V30 13334 H 1254.33 0.263983 -0.6881 0
M  V30 13335 H 1256.98 -0.0069847 -1.89999 0
M  V30 13336 H 1255.13 2.03502 -3.30937 0
M  V30 13337 H 1256.8 -0.229062 -4.60731 0
M  V30 13338 H 1255.04 -0.284698 -4.32865 0
M  V30 13339 H 1255.71 0.908436 -5.44474 0
M  V30 13340 H 1258.19 1.81485 -3.74436 0
M  V30 13341 H 1257.06 2.78587 -4.72949 0
M  V30 13342 H 1257.33 3.20611 -3.04403 0
M  V30 13343 N 1256.39 1.54543 0.308881 0
M  V30 13344 C 1257.66 1.64118 1.06418 0
M  V30 13345 C 1258.04 0.484402 2.05467 0
M  V30 13346 O 1257.39 -0.519752 2.2251 0
M  V30 13347 C 1257.6 3.01776 1.75306 0
M  V30 13348 C 1258.95 3.58324 2.27792 0
M  V30 13349 O 1259.97 3.04177 1.85351 0
M  V30 13350 O 1258.83 4.53113 3.05533 0
M  V30 13351 H 1255.93 0.665172 0.491401 0
M  V30 13352 H 1258.47 1.66889 0.307598 0
M  V30 13353 H 1257.24 3.77407 1.03341 0
M  V30 13354 H 1256.87 3.02748 2.57739 0
M  V30 13355 N 1257.86 -0.571685 1.46866 0
M  V30 13356 C 1259.14 -1.33216 1.43223 0
M  V30 13357 C 1259.52 -2.1075 0.121495 0
M  V30 13358 O 1258.87 -2.10157 -0.897003 0
M  V30 13359 C 1259.08 -2.24888 2.66882 0
M  V30 13360 C 1260.43 -2.86369 3.13493 0
M  V30 13361 O 1261.45 -2.35197 2.67509 0
M  V30 13362 O 1260.31 -3.79342 3.93398 0
M  V30 13363 H 1257.4 -0.599106 0.570089 0
M  V30 13364 H 1259.95 -0.591788 1.59047 0
M  V30 13365 H 1258.72 -1.67099 3.53827 0
M  V30 13366 H 1258.34 -3.06246 2.53573 0
M  V30 13367 N 1259.34 -1.34755 -0.817236 0
M  V30 13368 C 1260.29 -1.26816 -1.94988 0
M  V30 13369 C 1261.28 -0.165142 -1.68593 0
M  V30 13370 O 1262.49 -0.330469 -1.7694 0
M  V30 13371 H 1258.86 -0.394113 -0.640452 0
M  V30 13372 H 1260.84 -2.22528 -1.98806 0
M  V30 13373 C 1259.58 -1.04625 -3.31586 0
M  V30 13374 H 1258.91 -1.88735 -3.52447 0
M  V30 13375 H 1260.35 -1.03108 -4.11272 0
M  V30 13376 C 1258.81 0.250283 -3.35969 0
M  V30 13377 O 1259.34 1.24972 -3.81765 0
M  V30 13378 N 1257.54 0.285369 -2.89195 0
M  V30 13379 H 1257.09 -0.528528 -2.5212 0
M  V30 13380 H 1257.05 1.15261 -2.9251 0
M  V30 13381 N 1260.82 1.03812 -1.18578 0
M  V30 13382 C 1262.23 1.58509 -0.986496 0
M  V30 13383 C 1262.58 1.90655 0.463136 0
M  V30 13384 O 1261.71 1.69847 1.34093 0
M  V30 13385 C 1262.3 2.88 -1.78441 0
M  V30 13386 C 1260.86 3.39304 -1.6294 0
M  V30 13387 C 1260.01 2.12857 -1.77727 0
M  V30 13388 H 1262.96 0.864528 -1.33085 0
M  V30 13389 H 1262.98 3.58502 -1.27501 0
M  V30 13390 H 1262.49 2.64572 -2.83942 0
M  V30 13391 H 1260.59 3.6774 -0.599864 0
M  V30 13392 H 1260.71 4.12959 -2.42902 0
M  V30 13393 H 1259.07 2.24285 -1.20699 0
M  V30 13394 H 1259.85 1.91882 -2.84669 0
M  V30 13395 N 1262.3 0.988223 1.22768 0
M  V30 13396 C 1263.57 0.577578 1.86878 0
M  V30 13397 C 1263.95 -0.945197 1.88757 0
M  V30 13398 O 1263.3 -1.82519 1.37474 0
M  V30 13399 C 1263.51 1.19263 3.2799 0
M  V30 13400 C 1264.86 1.29024 4.04522 0
M  V30 13401 O 1265.88 1.14667 3.37239 0
M  V30 13402 O 1264.74 1.51949 5.24951 0
M  V30 13403 H 1261.84 0.195579 0.803541 0
M  V30 13404 H 1264.38 1.0838 1.30582 0
M  V30 13405 H 1263.16 2.23442 3.21231 0
M  V30 13406 H 1262.78 0.671706 3.91885 0
M  V30 13407 N 1263.78 -1.38018 0.760839 0
M  V30 13408 C 1264.71 -2.32995 0.153557 0
M  V30 13409 C 1265.69 -1.55234 -0.695448 0
M  V30 13410 O 1266.87 -1.8352 -0.635148 0
M  V30 13411 C 1264 -3.39437 -0.734811 0
M  V30 13412 C 1262.96 -4.27998 0.0120287 0
M  V30 13413 C 1262.28 -5.25359 -0.995067 0
M  V30 13414 C 1263.58 -5.08687 1.18468 0
M  V30 13415 H 1265.28 -2.8403 0.946956 0
M  V30 13416 H 1262.82 -1.36562 0.456816 0
M  V30 13417 H 1264.77 -4.0485 -1.16938 0
M  V30 13418 H 1263.5 -2.86901 -1.56061 0
M  V30 13419 H 1262.16 -3.64102 0.427254 0
M  V30 13420 H 1261.81 -4.69108 -1.81512 0
M  V30 13421 H 1261.51 -5.85469 -0.499969 0
M  V30 13422 H 1263.03 -5.93648 -1.4288 0
M  V30 13423 H 1264.44 -5.67299 0.8273 0
M  V30 13424 H 1262.84 -5.78068 1.61112 0
M  V30 13425 H 1263.91 -4.42 1.99409 0
M  V30 13426 N 1265.25 -0.510493 -1.49103 0
M  V30 13427 C 1266.67 -0.167061 -1.58723 0
M  V30 13428 C 1266.87 1.32886 -1.51471 0
M  V30 13429 O 1265.93 2.10559 -1.39359 0
M  V30 13430 C 1267.24 -0.752293 -2.91137 0
M  V30 13431 C 1268.79 -0.719258 -3.04624 0
M  V30 13432 C 1269.26 -1.28272 -4.39671 0
M  V30 13433 N 1270.75 -1.24383 -4.46187 0
M  V30 13434 C 1271.49 -1.6499 -5.4915 0
M  V30 13435 N 1270.98 -2.13235 -6.59168 0
M  V30 13436 N 1272.78 -1.56348 -5.39918 0
M  V30 13437 H 1264.93 -1.48296 -1.5206 0
M  V30 13438 H 1267.19 -0.615683 -0.72086 0
M  V30 13439 H 1266.9 -1.80178 -3.02041 0
M  V30 13440 H 1266.77 -0.218152 -3.76569 0
M  V30 13441 H 1269.16 0.321413 -2.93344 0
M  V30 13442 H 1269.24 -1.29065 -2.20852 0
M  V30 13443 H 1268.88 -2.32222 -4.51703 0
M  V30 13444 H 1268.81 -0.687179 -5.22097 0
M  V30 13445 H 1271.3 -0.890446 -3.67259 0
M  V30 13446 H 1271.62 -2.42266 -7.33844 0
M  V30 13447 H 1269.96 -2.17216 -6.60183 0
M  V30 13448 H 1273.15 -1.18469 -4.52861 0
M  V30 13449 H 1273.33 -1.88317 -6.20033 0
M  V30 13450 N 1266.73 1.55688 -0.24474 0
M  V30 13451 C 1268.15 1.59219 0.110159 0
M  V30 13452 C 1268.35 1.26187 1.57096 0
M  V30 13453 O 1267.4 1.00815 2.31501 0
M  V30 13454 C 1268.72 2.99764 -0.237075 0
M  V30 13455 C 1270.26 3.12475 -0.181198 0
M  V30 13456 C 1270.74 4.55236 -0.502435 0
M  V30 13457 N 1272.23 4.60981 -0.452855 0
M  V30 13458 C 1272.97 5.69418 -0.674605 0
M  V30 13459 N 1272.46 6.86125 -0.959366 0
M  V30 13460 N 1274.25 5.5883 -0.605459 0
M  V30 13461 H 1266.41 1.7543 -1.19741 0
M  V30 13462 H 1268.67 0.816537 -0.481634 0
M  V30 13463 H 1268.37 3.28666 -1.25185 0
M  V30 13464 H 1268.25 3.74662 0.436859 0
M  V30 13465 H 1270.64 2.83355 0.824248 0
M  V30 13466 H 1270.72 2.39857 -0.888952 0
M  V30 13467 H 1270.36 4.85077 -1.50543 0
M  V30 13468 H 1270.29 5.26111 0.226773 0
M  V30 13469 H 1272.78 3.77128 -0.241401 0
M  V30 13470 H 1273.09 7.64699 -1.11605 0
M  V30 13471 H 1271.44 6.87814 -0.996816 0
M  V30 13472 H 1274.63 4.6653 -0.383053 0
M  V30 13473 H 1274.8 6.43268 -0.781673 0
M  V30 13474 N 1268.21 -0.0283989 1.57574 0
M  V30 13475 C 1269.44 -0.729772 1.93282 0
M  V30 13476 C 1269.85 -1.69384 0.842959 0
M  V30 13477 O 1269.19 -1.82722 -0.189286 0
M  V30 13478 C 1269.25 -1.54107 3.24794 0
M  V30 13479 C 1268.92 -0.741709 4.50941 0
M  V30 13480 C 1269.91 -0.0416985 5.19883 0
M  V30 13481 C 1267.6 -0.696053 4.97454 0
M  V30 13482 C 1269.59 0.693261 6.33619 0
M  V30 13483 C 1267.28 0.042651 6.11085 0
M  V30 13484 C 1268.28 0.736067 6.79022 0
M  V30 13485 O 1267.97 1.46278 7.9048 0
M  V30 13486 H 1267.7 -0.210092 0.642524 0
M  V30 13487 H 1270.25 0.0102277 2.05397 0
M  V30 13488 H 1268.48 -2.3249 3.09007 0
M  V30 13489 H 1270.17 -2.12512 3.45823 0
M  V30 13490 H 1270.94 -0.0679975 4.84952 0
M  V30 13491 H 1266.82 -1.22528 4.44419 0
M  V30 13492 H 1270.36 1.23504 6.8658 0
M  V30 13493 H 1266.26 0.0708708 6.45461 0
M  V30 13494 H 1267.02 1.37652 8.06842 0
M  V30 13495 N 1269.69 -1.54705 -0.300681 0
M  V30 13496 C 1270.93 -1.74259 -1.03738 0
M  V30 13497 C 1271.27 -0.52703 -1.86912 0
M  V30 13498 O 1270.54 0.475862 -1.88589 0
M  V30 13499 C 1270.82 -3.03175 -1.94311 0
M  V30 13500 C 1270.68 -4.35031 -1.14315 0
M  V30 13501 C 1272 -3.27962 -2.93478 0
M  V30 13502 H 1269.12 -0.634031 -0.37573 0
M  V30 13503 H 1271.76 -1.87421 -0.312012 0
M  V30 13504 H 1269.91 -2.92086 -2.5616 0
M  V30 13505 H 1271.58 -4.5804 -0.547489 0
M  V30 13506 H 1269.82 -4.31503 -0.44587 0
M  V30 13507 H 1270.49 -5.21502 -1.80941 0
M  V30 13508 H 1272.97 -3.38663 -2.41757 0
M  V30 13509 H 1271.85 -4.19481 -3.54016 0
M  V30 13510 H 1272.11 -2.46273 -3.67154 0
M  V30 13511 N 1271.17 0.563888 -1.47167 0
M  V30 13512 C 1272.39 1.35176 -1.57297 0
M  V30 13513 C 1272.82 1.86794 -0.221235 0
M  V30 13514 O 1272.17 1.62606 0.801809 0
M  V30 13515 C 1272.22 2.50225 -2.59654 0
M  V30 13516 O 1271.33 3.5225 -2.14461 0
M  V30 13517 H 1270.67 0.401795 -0.528637 0
M  V30 13518 H 1273.2 0.682137 -1.92894 0
M  V30 13519 H 1273.21 2.96886 -2.79862 0
M  V30 13520 H 1271.88 2.1201 -3.57805 0
M  V30 13521 H 1270.46 3.1194 -2.04323 0
M  V30 13522 N 1272.64 1.35187 0.810078 0
M  V30 13523 C 1273.58 1.22171 1.92742 0
M  V30 13524 C 1274.56 0.110393 1.62225 0
M  V30 13525 O 1275.74 0.27786 1.86441 0
M  V30 13526 C 1272.87 0.880367 3.27058 0
M  V30 13527 C 1271.91 2.00325 3.76527 0
M  V30 13528 S 1272.75 3.6185 3.94747 0
M  V30 13529 C 1273.9 3.29784 5.31971 0
M  V30 13530 H 1274.13 2.16749 2.03488 0
M  V30 13531 H 1271.67 1.20362 0.967072 0
M  V30 13532 H 1273.63 0.690224 4.04656 0
M  V30 13533 H 1272.29 -0.0472868 3.14064 0
M  V30 13534 H 1271.48 1.71847 4.73798 0
M  V30 13535 H 1271.08 2.15154 3.05916 0
M  V30 13536 H 1273.37 2.82396 6.1584 0
M  V30 13537 H 1274.32 4.26243 5.6544 0
M  V30 13538 H 1274.72 2.65641 4.98092 0
M  V30 13539 N 1274.12 -1.03182 1.19127 0
M  V30 13540 C 1275.06 -2.10977 0.869702 0
M  V30 13541 C 1276.03 -1.61687 -0.172032 0
M  V30 13542 O 1277.22 -1.88436 -0.0490025 0
M  V30 13543 C 1274.34 -3.37359 0.301049 0
M  V30 13544 C 1273.39 -4.05515 1.32137 0
M  V30 13545 S 1274.22 -4.51415 2.88071 0
M  V30 13546 C 1275.38 -5.81018 2.32741 0
M  V30 13547 H 1275.61 -2.37929 1.78261 0
M  V30 13548 H 1273.15 -1.16079 1.01809 0
M  V30 13549 H 1275.1 -4.10495 -0.0205205 0
M  V30 13550 H 1273.76 -3.08507 -0.590118 0
M  V30 13551 H 1272.96 -4.9639 0.872547 0
M  V30 13552 H 1272.56 -3.38536 1.58963 0
M  V30 13553 H 1274.85 -6.5542 1.71552 0
M  V30 13554 H 1275.79 -6.30677 3.21951 0
M  V30 13555 H 1276.2 -5.36549 1.75429 0
M  V30 13556 N 1275.6 -0.99472 -1.22242 0
M  V30 13557 C 1276.53 -0.566499 -2.26524 0
M  V30 13558 C 1277.51 0.407541 -1.65146 0
M  V30 13559 O 1278.7 0.297777 -1.91903 0
M  V30 13560 C 1275.83 0.11786 -3.471 0
M  V30 13561 C 1274.78 -0.774908 -4.20927 0
M  V30 13562 C 1274.11 0.0424687 -5.34683 0
M  V30 13563 C 1275.41 -2.07263 -4.79416 0
M  V30 13564 H 1277.1 -1.43818 -2.62596 0
M  V30 13565 H 1274.65 -0.692971 -1.2623 0
M  V30 13566 H 1276.6 0.428842 -4.19212 0
M  V30 13567 H 1275.32 1.0241 -3.10129 0
M  V30 13568 H 1273.98 -1.06956 -3.50651 0
M  V30 13569 H 1273.63 0.949677 -4.93954 0
M  V30 13570 H 1273.33 -0.551867 -5.85003 0
M  V30 13571 H 1274.85 0.347504 -6.0961 0
M  V30 13572 H 1276.27 -1.82548 -5.4346 0
M  V30 13573 H 1274.67 -2.61594 -5.40082 0
M  V30 13574 H 1275.74 -2.75017 -3.99366 0
M  V30 13575 N 1277.08 1.37613 -0.768148 0
M  V30 13576 C 1278.01 2.28935 -0.110234 0
M  V30 13577 C 1279.02 1.48459 0.668122 0
M  V30 13578 O 1280.21 1.71154 0.506808 0
M  V30 13579 C 1277.31 3.27606 0.867598 0
M  V30 13580 C 1276.49 4.37163 0.143819 0
M  V30 13581 C 1275.54 5.15931 1.03449 0
M  V30 13582 O 1274.57 5.67003 0.499605 0
M  V30 13583 N 1275.77 5.30311 2.36114 0
M  V30 13584 H 1278.54 2.86037 -0.894585 0
M  V30 13585 H 1276.1 1.4955 -0.620185 0
M  V30 13586 H 1278.09 3.77183 1.4668 0
M  V30 13587 H 1276.66 2.71298 1.55294 0
M  V30 13588 H 1275.88 3.89031 -0.636257 0
M  V30 13589 H 1277.17 5.0755 -0.356446 0
M  V30 13590 H 1276.57 4.90394 2.82011 0
M  V30 13591 H 1275.12 5.83209 2.9105 0
M  V30 13592 N 1278.56 0.518393 1.4883 0
M  V30 13593 C 1279.5 -0.264197 2.31095 0
M  V30 13594 C 1280.5 -0.946455 1.40494 0
M  V30 13595 O 1281.7 -0.872161 1.57459 0
M  V30 13596 H 1278.08 -0.104065 0.744765 0
M  V30 13597 H 1280.05 0.449375 2.94997 0
M  V30 13598 C 1278.8 -1.30527 3.2227 0
M  V30 13599 H 1278.12 -0.789695 3.91923 0
M  V30 13600 H 1279.56 -1.82449 3.82738 0
M  V30 13601 C 1278.02 -2.33274 2.43073 0
M  V30 13602 O 1278.55 -3.39493 2.14726 0
M  V30 13603 N 1276.76 -2.06189 2.04779 0
M  V30 13604 H 1276.3 -1.19829 2.28033 0
M  V30 13605 H 1276.26 -2.7516 1.521 0
M  V30 13606 N 1280.03 -1.55556 0.252993 0
M  V30 13607 C 1281 -2.20351 -0.630705 0
M  V30 13608 C 1282 -1.17461 -1.09816 0
M  V30 13609 O 1283.19 -1.42505 -1.00189 0
M  V30 13610 C 1280.32 -2.85192 -1.86757 0
M  V30 13611 H 1281.51 -2.99829 -0.0652939 0
M  V30 13612 H 1279.07 -1.563 0.00347982 0
M  V30 13613 H 1279.8 -2.09669 -2.47406 0
M  V30 13614 H 1279.59 -3.60569 -1.54053 0
M  V30 13615 H 1281.08 -3.34762 -2.49648 0
M  V30 13616 N 1281.51 0.0200419 -1.57587 0
M  V30 13617 C 1282.76 0.707627 -1.89307 0
M  V30 13618 C 1283.08 1.7541 -0.851831 0
M  V30 13619 O 1282.35 1.95571 0.113404 0
M  V30 13620 H 1280.93 0.264349 -0.698662 0
M  V30 13621 H 1283.59 -0.0161428 -1.94893 0
M  V30 13622 H 1282.69 1.19152 -2.8846 0
M  V30 13623 N 1282.99 1.54862 0.292472 0
M  V30 13624 C 1284.24 1.74548 1.02661 0
M  V30 13625 C 1284.57 0.535895 1.86972 0
M  V30 13626 O 1283.82 -0.482016 1.89671 0
M  V30 13627 C 1284.12 2.99214 1.95463 0
M  V30 13628 C 1283.79 4.32628 1.2706 0
M  V30 13629 C 1282.45 4.68892 1.08138 0
M  V30 13630 C 1284.8 5.15296 0.782278 0
M  V30 13631 C 1282.13 5.85397 0.39081 0
M  V30 13632 C 1284.48 6.32512 0.105392 0
M  V30 13633 C 1283.14 6.67431 -0.0957097 0
M  V30 13634 H 1282.41 0.638717 0.375662 0
M  V30 13635 H 1285.06 1.89125 0.300672 0
M  V30 13636 H 1283.37 2.79454 2.74613 0
M  V30 13637 H 1285.06 3.1164 2.52352 0
M  V30 13638 H 1281.65 4.04113 1.42796 0
M  V30 13639 H 1285.84 4.87771 0.916151 0
M  V30 13640 H 1281.09 6.10989 0.224095 0
M  V30 13641 H 1285.27 6.95833 -0.280845 0
M  V30 13642 H 1282.89 7.57562 -0.63281 0
M  V30 13643 N 1284.47 -0.556076 1.47464 0
M  V30 13644 C 1285.42 -1.68406 1.60444 0
M  V30 13645 C 1286.41 -1.627 0.471713 0
M  V30 13646 O 1287.62 -1.67871 0.649551 0
M  V30 13647 H 1283.99 -0.557255 0.504946 0
M  V30 13648 H 1285.96 -1.54595 2.55231 0
M  V30 13649 C 1284.71 -3.06756 1.63695 0
M  V30 13650 H 1284.03 -3.11829 2.50206 0
M  V30 13651 H 1285.47 -3.85368 1.76827 0
M  V30 13652 C 1283.93 -3.34857 0.370485 0
M  V30 13653 O 1284.46 -3.98216 -0.527942 0
M  V30 13654 N 1282.67 -2.89521 0.250163 0
M  V30 13655 H 1282.22 -2.3814 0.982204 0
M  V30 13656 H 1282.17 -3.08694 -0.596268 0
M  V30 13657 N 1285.95 -1.35615 -0.802897 0
M  V30 13658 C 1286.91 -1.28705 -1.89651 0
M  V30 13659 C 1287.91 -0.197681 -1.5958 0
M  V30 13660 O 1289.1 -0.451618 -1.68244 0
M  V30 13661 C 1286.23 -0.991941 -3.26149 0
M  V30 13662 H 1287.43 -2.25951 -1.97196 0
M  V30 13663 H 1284.98 -1.20192 -0.999179 0
M  V30 13664 H 1285.71 -0.0235051 -3.24291 0
M  V30 13665 H 1285.5 -1.78013 -3.49362 0
M  V30 13666 H 1286.99 -0.969298 -4.06195 0
M  V30 13667 N 1287.43 1.02549 -1.19673 0
M  V30 13668 C 1288.67 1.76265 -1.00293 0
M  V30 13669 C 1289 1.88555 0.464816 0
M  V30 13670 O 1288.28 1.40484 1.34515 0
M  V30 13671 C 1288.56 3.18688 -1.6766 0
M  V30 13672 C 1288.42 3.14247 -3.21821 0
M  V30 13673 C 1289.73 4.17159 -1.40238 0
M  V30 13674 H 1286.85 0.639837 -0.365756 0
M  V30 13675 H 1289.5 1.19691 -1.4756 0
M  V30 13676 H 1287.65 3.66992 -1.27472 0
M  V30 13677 H 1289.32 2.73815 -3.71245 0
M  V30 13678 H 1287.56 2.51874 -3.53188 0
M  V30 13679 H 1288.23 4.14886 -3.64107 0
M  V30 13680 H 1290.71 3.77471 -1.75086 0
M  V30 13681 H 1289.58 5.14997 -1.89919 0
M  V30 13682 H 1289.84 4.4088 -0.328197 0
M  V30 13683 N 1288.9 1.00119 1.21713 0
M  V30 13684 C 1289.83 0.578504 2.2622 0
M  V30 13685 C 1290.81 -0.398777 1.6536 0
M  V30 13686 O 1292 -0.287596 1.92059 0
M  V30 13687 C 1289.13 -0.0994508 3.47158 0
M  V30 13688 C 1288.08 0.79722 4.2051 0
M  V30 13689 C 1287.41 -0.0141125 5.34698 0
M  V30 13690 C 1288.71 2.09802 4.7831 0
M  V30 13691 H 1290.4 1.45208 2.6183 0
M  V30 13692 H 1287.95 0.699656 1.2586 0
M  V30 13693 H 1289.9 -0.406605 4.19434 0
M  V30 13694 H 1288.63 -1.00763 3.10667 0
M  V30 13695 H 1287.29 1.08814 3.50079 0
M  V30 13696 H 1286.93 -0.923468 4.9445 0
M  V30 13697 H 1286.63 0.582883 5.84702 0
M  V30 13698 H 1288.16 -0.31517 6.09786 0
M  V30 13699 H 1289.57 1.85427 5.42485 0
M  V30 13700 H 1287.97 2.64455 5.38687 0
M  V30 13701 H 1289.04 2.77132 3.97902 0
M  V30 13702 N 1290.38 -1.37203 0.775435 0
M  V30 13703 C 1291.34 -2.28566 0.170406 0
M  V30 13704 C 1292.34 -1.48195 -0.624085 0
M  V30 13705 O 1293.53 -1.68364 -0.447132 0
M  V30 13706 C 1290.67 -3.32186 -0.765829 0
M  V30 13707 H 1291.86 -2.8358 0.975824 0
M  V30 13708 H 1289.41 -1.46531 0.543895 0
M  V30 13709 H 1290.15 -2.82303 -1.59611 0
M  V30 13710 H 1289.93 -3.91598 -0.198251 0
M  V30 13711 H 1291.42 -4.0045 -1.18446 0
M  V30 13712 N 1291.86 -0.526279 -1.48553 0
M  V30 13713 C 1292.81 0.238513 -2.29564 0
M  V30 13714 C 1293.78 0.937222 -1.37133 0
M  V30 13715 O 1294.96 0.93897 -1.66096 0
M  V30 13716 C 1292.1 1.28173 -3.20415 0
M  V30 13717 C 1291.21 0.592244 -4.27921 0
M  V30 13718 C 1290.35 1.61808 -5.05956 0
M  V30 13719 C 1289.39 0.911846 -6.0527 0
M  V30 13720 N 1288.53 1.88305 -6.76377 0
M  V30 13721 H 1293.37 -0.458502 -2.94452 0
M  V30 13722 H 1290.9 -0.237948 -1.45163 0
M  V30 13723 H 1292.86 1.89883 -3.71484 0
M  V30 13724 H 1291.49 1.94718 -2.57458 0
M  V30 13725 H 1290.54 -0.138714 -3.80147 0
M  V30 13726 H 1291.85 0.0375427 -4.98786 0
M  V30 13727 H 1291.01 2.30956 -5.61021 0
M  V30 13728 H 1289.75 2.20667 -4.34922 0
M  V30 13729 H 1288.75 0.206273 -5.49413 0
M  V30 13730 H 1289.98 0.329415 -6.78301 0
M  V30 13731 H 1287.92 2.46079 -6.08096 0
M  V30 13732 H 1287.84 1.37969 -7.43304 0
M  V30 13733 H 1289.11 2.56663 -7.36033 0
M  V30 13734 N 1293.34 1.5542 -0.261239 0
M  V30 13735 C 1294.29 2.23382 0.648324 0
M  V30 13736 C 1295.28 1.22615 1.16884 0
M  V30 13737 O 1296.49 1.40587 1.12407 0
M  V30 13738 H 1292.86 0.716733 0.227592 0
M  V30 13739 H 1294.83 2.98354 0.0521289 0
M  V30 13740 C 1293.58 2.9579 1.82766 0
M  V30 13741 H 1292.9 3.73109 1.4363 0
M  V30 13742 H 1294.34 3.46686 2.441 0
M  V30 13743 C 1292.8 2.00472 2.70763 0
M  V30 13744 O 1293.33 1.54698 3.70717 0
M  V30 13745 N 1291.54 1.67267 2.37635 0
M  V30 13746 H 1291.09 2.04685 1.56402 0
M  V30 13747 H 1291.04 1.03759 2.96785 0
M  V30 13748 N 1294.82 -0.0116844 1.57596 0
M  V30 13749 C 1296.06 -0.697577 1.89679 0
M  V30 13750 C 1296.38 -1.74956 0.861122 0
M  V30 13751 O 1295.65 -1.95629 -0.103031 0
M  V30 13752 H 1294.23 -0.26064 0.700054 0
M  V30 13753 H 1296.9 0.0264782 1.94882 0
M  V30 13754 H 1295.99 -1.17621 2.89088 0
M  V30 13755 N 1296.29 -1.55015 -0.284256 0
M  V30 13756 C 1297.26 -1.8636 -1.33426 0
M  V30 13757 C 1298.26 -0.737457 -1.42892 0
M  V30 13758 O 1299.45 -1.00569 -1.42238 0
M  V30 13759 C 1296.58 -2.05884 -2.71707 0
M  V30 13760 H 1297.77 -2.80212 -1.06869 0
M  V30 13761 H 1295.32 -1.47334 -0.521767 0
M  V30 13762 H 1296.06 -1.14376 -3.03461 0
M  V30 13763 H 1295.84 -2.87867 -2.66224 0
M  V30 13764 H 1297.33 -2.31447 -3.47595 0
M  V30 13765 N 1297.77 0.548248 -1.47757 0
M  V30 13766 C 1299.05 1.3092 -1.45325 0
M  V30 13767 C 1299.43 2.1053 -0.155008 0
M  V30 13768 O 1298.78 2.11558 0.863455 0
M  V30 13769 C 1298.99 2.20614 -2.70426 0
M  V30 13770 C 1300.33 2.81345 -3.18009 0
M  V30 13771 O 1301.36 2.30911 -2.71216 0
M  V30 13772 O 1300.22 3.73036 -3.99383 0
M  V30 13773 H 1297.31 0.58996 -0.579548 0
M  V30 13774 H 1299.86 0.56641 -1.59968 0
M  V30 13775 H 1298.63 1.61449 -3.56441 0
M  V30 13776 H 1298.25 3.02173 -2.58413 0
M  V30 13777 N 1299.25 1.36039 0.795694 0
M  V30 13778 C 1300.5 1.29663 1.55023 0
M  V30 13779 C 1300.82 -0.125588 1.94595 0
M  V30 13780 O 1300.09 -1.06447 1.64456 0
M  V30 13781 H 1298.67 0.476962 0.574906 0
M  V30 13782 H 1301.33 1.70265 0.948471 0
M  V30 13783 H 1300.43 1.91982 2.46068 0
M  V30 13784 N 1300.73 -1.01913 1.20215 0
M  V30 13785 C 1301.98 -1.7547 1.01076 0
M  V30 13786 C 1302.3 -1.89045 -0.457404 0
M  V30 13787 O 1301.56 -1.41121 -1.35585 0
M  V30 13788 C 1301.86 -3.17734 1.63646 0
M  V30 13789 C 1301.52 -3.24143 3.13436 0
M  V30 13790 C 1300.19 -3.25599 3.54315 0
M  V30 13791 C 1302.54 -3.22508 4.09436 0
M  V30 13792 C 1299.87 -3.23089 4.89725 0
M  V30 13793 C 1302.22 -3.21539 5.44789 0
M  V30 13794 C 1300.88 -3.21298 5.85085 0
M  V30 13795 H 1300.15 -0.642092 0.369864 0
M  V30 13796 H 1302.8 -1.19547 1.49602 0
M  V30 13797 H 1301.1 -3.76799 1.07375 0
M  V30 13798 H 1302.8 -3.73338 1.46356 0
M  V30 13799 H 1299.39 -3.23743 2.80871 0
M  V30 13800 H 1303.57 -3.20555 3.7889 0
M  V30 13801 H 1298.83 -3.21231 5.20212 0
M  V30 13802 H 1303 -3.19226 6.18924 0
M  V30 13803 H 1300.63 -3.19107 6.89982 0
M  V30 13804 N 1302.21 -1.00763 -1.2118 0
M  V30 13805 C 1303.15 -0.563428 -2.25673 0
M  V30 13806 C 1304.15 0.393342 -1.6477 0
M  V30 13807 O 1305.35 0.264246 -1.7805 0
M  V30 13808 H 1301.73 -0.163862 -0.73393 0
M  V30 13809 H 1303.7 -1.45585 -2.60476 0
M  V30 13810 C 1302.45 0.0915599 -3.47579 0
M  V30 13811 H 1301.77 -0.635628 -3.94715 0
M  V30 13812 H 1303.21 0.36561 -4.22421 0
M  V30 13813 C 1301.67 1.33159 -3.09468 0
M  V30 13814 O 1302.2 2.42571 -3.20191 0
M  V30 13815 N 1300.41 1.21231 -2.64105 0
M  V30 13816 H 1299.95 0.322021 -2.55579 0
M  V30 13817 H 1299.91 2.04301 -2.38974 0
M  V30 13818 N 1303.68 1.3679 -0.7827 0
M  V30 13819 C 1304.63 2.30139 -0.174595 0
M  V30 13820 C 1305.6 1.51645 0.677714 0
M  V30 13821 O 1306.79 1.80176 0.627796 0
M  V30 13822 C 1303.93 3.38133 0.689936 0
M  V30 13823 C 1303.04 4.31624 -0.180179 0
M  V30 13824 C 1302.17 5.26698 0.69009 0
M  V30 13825 C 1301.21 6.1183 -0.181891 0
M  V30 13826 N 1300.35 6.99113 0.646977 0
M  V30 13827 H 1305.19 2.81559 -0.97613 0
M  V30 13828 H 1302.73 1.38595 -0.492944 0
M  V30 13829 H 1304.69 3.99386 1.2061 0
M  V30 13830 H 1303.32 2.88049 1.45696 0
M  V30 13831 H 1302.37 3.71583 -0.81425 0
M  V30 13832 H 1303.68 4.91464 -0.852337 0
M  V30 13833 H 1302.83 5.93209 1.27232 0
M  V30 13834 H 1301.57 4.67297 1.3959 0
M  V30 13835 H 1300.58 5.44288 -0.776572 0
M  V30 13836 H 1301.8 6.73306 -0.885195 0
M  V30 13837 H 1299.75 6.42227 1.3372 0
M  V30 13838 H 1299.67 7.55993 0.0323547 0
M  V30 13839 H 1300.93 7.7 1.21325 0
M  V30 13840 N 1305.16 0.53415 1.48272 0
M  V30 13841 C 1306.13 -0.215641 2.28183 0
M  V30 13842 C 1307.13 -0.863966 1.35618 0
M  V30 13843 O 1308.32 -0.723375 1.58471 0
M  V30 13844 C 1305.45 -1.31251 3.1462 0
M  V30 13845 H 1306.64 0.486014 2.95936 0
M  V30 13846 H 1304.19 0.290237 1.53582 0
M  V30 13847 H 1304.93 -2.04729 2.51508 0
M  V30 13848 H 1304.71 -0.852706 3.82716 0
M  V30 13849 H 1306.2 -1.83978 3.74889 0
M  V30 13850 N 1306.64 -1.55279 0.269478 0
M  V30 13851 C 1307.57 -2.19684 -0.653573 0
M  V30 13852 C 1308.59 -1.17985 -1.12176 0
M  V30 13853 O 1309.77 -1.44739 -1.04464 0
M  V30 13854 C 1306.87 -2.80438 -1.90284 0
M  V30 13855 C 1306.05 -4.07774 -1.58239 0
M  V30 13856 C 1305.11 -4.52629 -2.68354 0
M  V30 13857 O 1304.13 -5.18524 -2.3478 0
M  V30 13858 N 1305.33 -4.22297 -3.98303 0
M  V30 13859 H 1308.1 -2.99525 -0.102379 0
M  V30 13860 H 1305.66 -1.61648 0.0903465 0
M  V30 13861 H 1307.65 -3.07392 -2.63234 0
M  V30 13862 H 1306.22 -2.04622 -2.36323 0
M  V30 13863 H 1305.44 -3.88168 -0.686983 0
M  V30 13864 H 1306.73 -4.90749 -1.34323 0
M  V30 13865 H 1306.13 -3.69441 -4.28404 0
M  V30 13866 H 1304.69 -4.54035 -4.67649 0
M  V30 13867 N 1308.12 0.00332656 -1.576 0
M  V30 13868 C 1309.35 0.699945 -1.94701 0
M  V30 13869 C 1309.76 1.67492 -0.871312 0
M  V30 13870 O 1309.12 1.81882 0.150054 0
M  V30 13871 C 1309.17 1.43471 -3.31811 0
M  V30 13872 O 1308.89 0.498835 -4.35251 0
M  V30 13873 C 1310.39 2.22614 -3.83351 0
M  V30 13874 H 1307.61 0.195158 -0.641993 0
M  V30 13875 H 1310.16 -0.0468044 -2.04446 0
M  V30 13876 H 1308.31 2.13311 -3.23384 0
M  V30 13877 H 1308.72 1.01688 -5.14548 0
M  V30 13878 H 1310.2 2.69527 -4.81725 0
M  V30 13879 H 1310.68 3.05146 -3.15883 0
M  V30 13880 H 1311.28 1.57796 -3.94944 0
M  V30 13881 N 1309.6 1.55164 0.276031 0
M  V30 13882 C 1310.83 1.79388 1.02486 0
M  V30 13883 C 1311.23 0.565884 1.80539 0
M  V30 13884 O 1310.58 -0.47449 1.77466 0
M  V30 13885 C 1310.64 2.96494 2.03302 0
M  V30 13886 C 1310.3 4.33649 1.44214 0
M  V30 13887 C 1311.3 5.12749 0.859355 0
M  V30 13888 C 1308.99 4.80301 1.47026 0
M  V30 13889 C 1310.98 6.36633 0.312548 0
M  V30 13890 C 1308.67 6.04141 0.919587 0
M  V30 13891 C 1309.66 6.82145 0.341729 0
M  V30 13892 O 1309.35 8.0365 -0.200517 0
M  V30 13893 H 1309.08 0.601454 0.308592 0
M  V30 13894 H 1311.64 2.02999 0.313148 0
M  V30 13895 H 1309.87 2.68568 2.78223 0
M  V30 13896 H 1311.56 3.08069 2.64288 0
M  V30 13897 H 1312.32 4.77839 0.830353 0
M  V30 13898 H 1308.2 4.19597 1.90942 0
M  V30 13899 H 1311.75 6.97461 -0.139131 0
M  V30 13900 H 1307.64 6.38533 0.945819 0
M  V30 13901 H 1308.41 8.18451 -0.0895877 0
M  V30 13902 N 1311.07 -0.540404 1.48045 0
M  V30 13903 C 1312.02 -1.64191 1.58194 0
M  V30 13904 C 1313.01 -1.54775 0.439703 0
M  V30 13905 O 1314.2 -1.62973 0.690572 0
M  V30 13906 C 1311.33 -3.02937 1.61505 0
M  V30 13907 C 1310.42 -3.17495 2.81172 0
M  V30 13908 N 1310.81 -3.02061 4.05701 0
M  V30 13909 C 1309.1 -3.4853 2.78286 0
M  V30 13910 C 1309.81 -3.19757 4.85932 0
M  V30 13911 N 1308.78 -3.46859 4.18557 0
M  V30 13912 H 1312.58 -1.50852 2.52232 0
M  V30 13913 H 1310.1 -0.745602 1.44272 0
M  V30 13914 H 1312.09 -3.82048 1.66868 0
M  V30 13915 H 1310.75 -3.17376 0.685753 0
M  V30 13916 H 1311.77 -2.79038 4.363 0
M  V30 13917 H 1308.44 -3.69391 1.94567 0
M  V30 13918 H 1309.83 -3.1265 5.94727 0
M  V30 13919 N 1312.55 -1.36459 -0.788468 0
M  V30 13920 C 1313.96 -1.27515 -1.3637 0
M  V30 13921 C 1314.31 0.0846251 -1.96017 0
M  V30 13922 O 1313.44 0.98611 -1.92626 0
M  V30 13923 C 1314.03 -2.30903 -2.4793 0
M  V30 13924 C 1312.59 -2.25645 -3.01266 0
M  V30 13925 C 1311.74 -2.15631 -1.74352 0
M  V30 13926 H 1314.69 -1.47324 -0.590039 0
M  V30 13927 H 1314.71 -1.94601 -3.26972 0
M  V30 13928 H 1314.22 -3.29858 -2.04487 0
M  V30 13929 H 1312.33 -1.3016 -3.49126 0
M  V30 13930 H 1312.44 -3.18373 -3.58016 0
M  V30 13931 H 1310.8 -1.61901 -1.96622 0
M  V30 13932 H 1311.59 -3.16475 -1.33036 0
M  V30 13933 N 1314.03 1.01274 -1.20754 0
M  V30 13934 C 1315.31 1.7213 -0.929008 0
M  V30 13935 C 1315.69 2.03503 0.561217 0
M  V30 13936 O 1315.04 1.70259 1.52395 0
M  V30 13937 C 1315.25 2.98636 -1.80603 0
M  V30 13938 C 1316.59 3.71823 -2.0502 0
M  V30 13939 O 1317.62 3.08601 -1.77888 0
M  V30 13940 O 1316.48 4.8552 -2.50864 0
M  V30 13941 H 1313.57 0.750361 -0.347689 0
M  V30 13942 H 1316.12 1.07086 -1.31646 0
M  V30 13943 H 1314.89 2.71803 -2.81494 0
M  V30 13944 H 1314.51 3.7142 -1.4189 0
M  V30 13945 N 1315.51 1.01404 1.20644 0
M  V30 13946 C 1316.76 0.702949 1.90227 0
M  V30 13947 C 1317.09 -0.765243 1.78487 0
M  V30 13948 O 1316.36 -1.55569 1.16741 0
M  V30 13949 C 1316.65 1.13606 3.4171 0
M  V30 13950 C 1316.5 2.66437 3.62397 0
M  V30 13951 C 1317.82 0.705361 4.34411 0
M  V30 13952 H 1314.94 0.256842 0.690797 0
M  V30 13953 H 1317.58 1.26133 1.42093 0
M  V30 13954 H 1315.73 0.660977 3.82836 0
M  V30 13955 H 1317.4 3.21778 3.3054 0
M  V30 13956 H 1315.64 3.0753 3.05954 0
M  V30 13957 H 1316.32 2.91795 4.68572 0
M  V30 13958 H 1318.79 1.11375 4.00918 0
M  V30 13959 H 1317.67 1.03647 5.39026 0
M  V30 13960 H 1317.93 -0.393094 4.40349 0
M  V30 13961 N 1316.99 -1.36373 0.789944 0
M  V30 13962 C 1318.24 -1.98476 0.359165 0
M  V30 13963 C 1318.55 -1.634 -1.07517 0
M  V30 13964 O 1319.76 -2.18742 -1.60824 0
M  V30 13965 C 1318.21 -3.55011 0.591228 0
M  V30 13966 C 1317.82 -3.99011 2.03701 0
M  V30 13967 C 1319.56 -4.23903 0.224979 0
M  V30 13968 C 1317.47 -5.48325 2.2157 0
M  V30 13969 H 1316.4 -0.742612 0.130552 0
M  V30 13970 H 1319.05 -1.55664 0.971652 0
M  V30 13971 H 1317.43 -3.95895 -0.0909788 0
M  V30 13972 H 1318.61 -3.69324 2.75566 0
M  V30 13973 H 1316.92 -3.42957 2.36155 0
M  V30 13974 H 1319.52 -5.33638 0.336764 0
M  V30 13975 H 1319.86 -4.08004 -0.826964 0
M  V30 13976 H 1320.4 -3.88383 0.860443 0
M  V30 13977 H 1317.13 -5.69173 3.25149 0
M  V30 13978 H 1316.65 -5.79637 1.54211 0
M  V30 13979 H 1318.33 -6.14556 2.0231 0
M  V30 13980 N 1318.47 -0.542005 -1.47987 0
M  V30 13981 C 1319.71 -0.0123299 -2.02796 0
M  V30 13982 C 1320.04 1.32789 -1.41707 0
M  V30 13983 O 1319.32 1.86048 -0.567119 0
M  V30 13984 C 1319.6 0.0969277 -3.5997 0
M  V30 13985 C 1319.46 -1.26931 -4.31519 0
M  V30 13986 C 1320.77 0.817854 -4.32434 0
M  V30 13987 H 1317.89 -0.00595479 -0.736976 0
M  V30 13988 H 1320.54 -0.70136 -1.76581 0
M  V30 13989 H 1318.69 0.683755 -3.82436 0
M  V30 13990 H 1320.36 -1.89817 -4.20437 0
M  V30 13991 H 1318.6 -1.84804 -3.92467 0
M  V30 13992 H 1319.27 -1.14573 -5.39979 0
M  V30 13993 H 1321.75 0.319749 -4.1487 0
M  V30 13994 H 1320.62 0.863225 -5.4207 0
M  V30 13995 H 1320.88 1.87075 -4.00569 0
M  V30 13996 N 1319.94 1.55134 -0.277709 0
M  V30 13997 C 1321.17 2.04061 0.341601 0
M  V30 13998 C 1321.59 1.15597 1.49274 0
M  V30 13999 O 1320.94 0.176625 1.81643 0
M  V30 14000 C 1320.99 3.52074 0.820139 0
M  V30 14001 O 1320.72 4.37171 -0.28516 0
M  V30 14002 C 1322.22 4.16899 1.507 0
M  V30 14003 H 1319.44 0.666501 0.0775708 0
M  V30 14004 H 1321.98 2.00336 -0.410559 0
M  V30 14005 H 1320.14 3.56233 1.52238 0
M  V30 14006 H 1320.55 5.24434 0.0832022 0
M  V30 14007 H 1322.02 5.22061 1.79323 0
M  V30 14008 H 1322.5 3.65227 2.43939 0
M  V30 14009 H 1323.11 4.16749 0.848541 0
M  V30 14010 N 1321.42 0.00503138 1.57599 0
M  V30 14011 C 1322.7 -0.716079 1.82021 0
M  V30 14012 C 1323.08 -1.91707 0.883829 0
M  V30 14013 O 1322.43 -2.28404 -0.0662812 0
M  V30 14014 C 1322.64 -1.11706 3.3064 0
M  V30 14015 C 1323.98 -1.51881 3.96506 0
M  V30 14016 O 1325.01 -1.21071 3.34993 0
M  V30 14017 O 1323.87 -2.09191 5.04877 0
M  V30 14018 H 1320.96 -0.349112 0.7497 0
M  V30 14019 H 1323.51 0.030871 1.69672 0
M  V30 14020 H 1322.28 -0.261223 3.90427 0
M  V30 14021 H 1321.9 -1.92295 3.48006 0
M  V30 14022 N 1322.9 -1.55308 -0.267798 0
M  V30 14023 C 1323.83 -1.91555 -1.33525 0
M  V30 14024 C 1324.81 -0.778001 -1.51265 0
M  V30 14025 O 1326 -1.03657 -1.64222 0
M  V30 14026 C 1323.13 -2.19201 -2.69385 0
M  V30 14027 C 1322.08 -3.3501 -2.66369 0
M  V30 14028 C 1321.41 -3.48148 -4.05829 0
M  V30 14029 C 1322.71 -4.71265 -2.25182 0
M  V30 14030 H 1324.4 -2.80965 -1.03437 0
M  V30 14031 H 1321.95 -1.35183 -0.496141 0
M  V30 14032 H 1323.9 -2.43146 -3.44177 0
M  V30 14033 H 1322.62 -1.26596 -3.01067 0
M  V30 14034 H 1321.28 -3.11041 -1.94034 0
M  V30 14035 H 1320.93 -2.53 -4.34741 0
M  V30 14036 H 1320.63 -4.26014 -4.04704 0
M  V30 14037 H 1322.15 -3.74391 -4.82352 0
M  V30 14038 H 1323.57 -4.94719 -2.89699 0
M  V30 14039 H 1321.96 -5.52084 -2.3521 0
M  V30 14040 H 1323.03 -4.69735 -1.20319 0
M  V30 14041 N 1324.38 0.532545 -1.4833 0
M  V30 14042 C 1325.31 1.65392 -1.57229 0
M  V30 14043 C 1326.29 1.57005 -0.422884 0
M  V30 14044 O 1327.47 1.77513 -0.634132 0
M  V30 14045 C 1324.6 3.03778 -1.49789 0
M  V30 14046 C 1323.65 3.30532 -2.69538 0
M  V30 14047 S 1324.48 3.17084 -4.3153 0
M  V30 14048 C 1325.63 4.57921 -4.26684 0
M  V30 14049 H 1325.87 1.57593 -2.52095 0
M  V30 14050 H 1323.4 0.715307 -1.36831 0
M  V30 14051 H 1325.36 3.83589 -1.46183 0
M  V30 14052 H 1324.02 3.0902 -0.562646 0
M  V30 14053 H 1323.21 4.31479 -2.60464 0
M  V30 14054 H 1322.81 2.58386 -2.70393 0
M  V30 14055 H 1325.11 5.49387 -3.96459 0
M  V30 14056 H 1326.05 4.72049 -5.27802 0
M  V30 14057 H 1326.46 4.37123 -3.57188 0
M  V30 14058 N 1325.86 1.36875 0.78122 0
M  V30 14059 C 1326.79 1.26232 1.90107 0
M  V30 14060 C 1327.77 0.144779 1.61954 0
M  V30 14061 O 1328.95 0.317344 1.8581 0
M  V30 14062 C 1326.08 0.949543 3.25117 0
M  V30 14063 C 1325.12 2.08266 3.72193 0
M  V30 14064 S 1325.96 3.70141 3.86983 0
M  V30 14065 C 1327.11 3.40994 5.24856 0
M  V30 14066 H 1327.35 2.21016 1.98844 0
M  V30 14067 H 1324.88 1.22387 0.941324 0
M  V30 14068 H 1326.84 0.775902 4.031 0
M  V30 14069 H 1325.5 0.0193416 3.14094 0
M  V30 14070 H 1324.69 1.81858 4.70046 0
M  V30 14071 H 1324.29 2.21595 3.01284 0
M  V30 14072 H 1326.58 2.95395 6.09711 0
M  V30 14073 H 1327.53 4.38141 5.56272 0
M  V30 14074 H 1327.94 2.76146 4.92345 0
M  V30 14075 N 1327.33 -1.00632 1.21289 0
M  V30 14076 C 1328.74 -1.55838 1.02817 0
M  V30 14077 C 1329.1 -1.91816 -0.412425 0
M  V30 14078 O 1328.22 -1.73342 -1.29543 0
M  V30 14079 C 1328.82 -2.83168 1.86014 0
M  V30 14080 C 1327.37 -3.34865 1.71879 0
M  V30 14081 C 1326.52 -2.0807 1.83309 0
M  V30 14082 H 1329.47 -0.828939 1.3533 0
M  V30 14083 H 1329.49 -3.54996 1.36961 0
M  V30 14084 H 1329.01 -2.56951 2.90857 0
M  V30 14085 H 1327.11 -3.6602 0.697153 0
M  V30 14086 H 1327.22 -4.06374 2.53766 0
M  V30 14087 H 1325.58 -2.21006 1.26603 0
M  V30 14088 H 1326.37 -1.84267 2.89656 0
M  V30 14089 N 1328.81 -1.02043 -1.20104 0
M  V30 14090 C 1329.74 -0.552093 -2.22451 0
M  V30 14091 C 1330.76 0.367547 -1.58597 0
M  V30 14092 O 1331.95 0.165285 -1.77733 0
M  V30 14093 C 1329.05 0.215833 -3.38212 0
M  V30 14094 C 1328.22 -0.70666 -4.31654 0
M  V30 14095 C 1327.28 0.0143628 -5.26198 0
M  V30 14096 O 1326.3 -0.609413 -5.65928 0
M  V30 14097 N 1327.51 1.28794 -5.66032 0
M  V30 14098 H 1330.27 -1.43229 -2.6326 0
M  V30 14099 H 1327.83 -0.89842 -1.34685 0
M  V30 14100 H 1329.82 0.707523 -3.98467 0
M  V30 14101 H 1328.39 0.997358 -2.96263 0
M  V30 14102 H 1327.61 -1.37859 -3.69308 0
M  V30 14103 H 1328.9 -1.33392 -4.91003 0
M  V30 14104 H 1328.3 1.8156 -5.35773 0
M  V30 14105 H 1326.86 1.72429 -6.28579 0
M  V30 14106 N 1330.29 1.35952 -0.797165 0
M  V30 14107 C 1331.54 1.99327 -0.373695 0
M  V30 14108 C 1331.87 1.63111 1.05396 0
M  V30 14109 O 1331.14 0.889736 1.72956 0
M  V30 14110 C 1331.43 3.5593 -0.54641 0
M  V30 14111 C 1331.28 4.01975 -2.01832 0
M  V30 14112 C 1332.6 4.40087 0.0337694 0
M  V30 14113 H 1329.72 0.724107 -0.137254 0
M  V30 14114 H 1332.36 1.61248 -1.00495 0
M  V30 14115 H 1330.51 3.88499 -0.00903959 0
M  V30 14116 H 1332.18 3.79859 -2.61735 0
M  V30 14117 H 1330.43 3.5323 -2.51815 0
M  V30 14118 H 1331.1 5.109 -2.09009 0
M  V30 14119 H 1333.57 4.13923 -0.425039 0
M  V30 14120 H 1332.45 5.48775 -0.117054 0
M  V30 14121 H 1332.71 4.27504 1.12661 0
M  V30 14122 N 1331.77 0.549846 1.47697 0
M  V30 14123 C 1332.99 0.0256819 2.07384 0
M  V30 14124 C 1333.42 -1.25525 1.4009 0
M  V30 14125 O 1332.78 -1.7501 0.473406 0
M  V30 14126 C 1332.82 -0.160835 3.60241 0
M  V30 14127 O 1331.93 -1.22509 3.93783 0
M  V30 14128 H 1331.27 0.0480204 0.662261 0
M  V30 14129 H 1333.8 0.763429 1.89823 0
M  V30 14130 H 1333.81 -0.377337 4.06251 0
M  V30 14131 H 1332.48 0.774774 4.0862 0
M  V30 14132 H 1331.06 -0.98967 3.59527 0
M  V30 14133 N 1333.25 -1.54984 0.285932 0
M  V30 14134 C 1334.49 -1.99436 -0.32709 0
M  V30 14135 C 1334.82 -1.17582 -1.55562 0
M  V30 14136 O 1334.09 -0.268002 -1.94058 0
M  V30 14137 H 1332.67 -0.736662 -0.123846 0
M  V30 14138 H 1335.33 -1.90881 0.393774 0
M  V30 14139 H 1334.42 -3.0609 -0.609523 0
M  V30 14140 N 1334.72 -0.0133892 -1.57594 0
M  V30 14141 C 1335.65 0.972341 -2.12292 0
M  V30 14142 C 1336.64 1.34971 -1.03522 0
M  V30 14143 O 1337.82 1.4311 -1.31275 0
M  V30 14144 C 1334.95 2.25988 -2.63717 0
M  V30 14145 C 1333.9 2.02373 -3.77133 0
M  V30 14146 C 1333.23 3.37256 -4.14925 0
M  V30 14147 C 1334.53 1.37553 -5.03861 0
M  V30 14148 H 1336.22 0.516869 -2.94905 0
M  V30 14149 H 1333.77 0.247176 -1.41863 0
M  V30 14150 H 1335.72 2.95313 -3.00613 0
M  V30 14151 H 1334.45 2.73672 -1.78244 0
M  V30 14152 H 1333.11 1.3547 -3.40651 0
M  V30 14153 H 1332.75 3.82669 -3.26456 0
M  V30 14154 H 1332.45 3.22267 -4.91343 0
M  V30 14155 H 1333.98 4.07875 -4.5439 0
M  V30 14156 H 1335.39 1.96855 -5.38443 0
M  V30 14157 H 1333.79 1.33011 -5.85174 0
M  V30 14158 H 1334.86 0.346429 -4.83661 0
M  V30 14159 N 1336.2 1.55448 0.259558 0
M  V30 14160 C 1337.11 1.92364 1.34289 0
M  V30 14161 C 1338.13 0.822492 1.53333 0
M  V30 14162 O 1339.3 1.12277 1.672 0
M  V30 14163 C 1336.37 2.19978 2.67975 0
M  V30 14164 C 1335.43 3.43454 2.57562 0
M  V30 14165 C 1334.66 3.69741 3.84873 0
M  V30 14166 O 1334.89 2.9831 4.86176 0
M  V30 14167 O 1333.82 4.63274 3.84267 0
M  V30 14168 H 1337.65 2.8461 1.05975 0
M  V30 14169 H 1335.23 1.42167 0.459239 0
M  V30 14170 H 1337.11 2.39104 3.46998 0
M  V30 14171 H 1335.79 1.30912 2.96047 0
M  V30 14172 H 1334.7 3.29649 1.76869 0
M  V30 14173 H 1336.03 4.32782 2.34437 0
M  V30 14174 N 1337.68 -0.524672 1.4861 0
M  V30 14175 C 1338.61 -1.63782 1.66426 0
M  V30 14176 C 1339.59 -1.62177 0.513077 0
M  V30 14177 O 1340.78 -1.7929 0.74623 0
M  V30 14178 C 1337.91 -3.02354 1.70877 0
M  V30 14179 C 1336.86 -3.18819 2.85549 0
M  V30 14180 C 1336.19 -4.58506 2.75094 0
M  V30 14181 C 1337.49 -3.01086 4.26784 0
M  V30 14182 H 1339.18 -1.49127 2.59618 0
M  V30 14183 H 1336.73 -0.715997 1.24938 0
M  V30 14184 H 1338.68 -3.80105 1.81929 0
M  V30 14185 H 1337.4 -3.18044 0.742682 0
M  V30 14186 H 1336.06 -2.43487 2.74061 0
M  V30 14187 H 1335.71 -4.71038 1.76443 0
M  V30 14188 H 1335.41 -4.70466 3.52044 0
M  V30 14189 H 1336.93 -5.38348 2.88121 0
M  V30 14190 H 1338.35 -3.68624 4.39077 0
M  V30 14191 H 1336.75 -3.24536 5.04774 0
M  V30 14192 H 1337.82 -1.97454 4.42877 0
M  V30 14193 N 1339.16 -1.37287 -0.77395 0
M  V30 14194 C 1340.41 -1.31698 -1.52769 0
M  V30 14195 C 1340.72 0.0968585 -1.9536 0
M  V30 14196 O 1341.93 0.275205 -2.70102 0
M  V30 14197 C 1340.38 -2.31154 -2.75854 0
M  V30 14198 C 1339.99 -3.78055 -2.40371 0
M  V30 14199 C 1341.73 -2.34572 -3.53803 0
M  V30 14200 C 1339.64 -4.69248 -3.59945 0
M  V30 14201 H 1338.57 -0.489456 -0.573541 0
M  V30 14202 H 1341.22 -1.62735 -0.84791 0
M  V30 14203 H 1339.6 -1.93132 -3.45711 0
M  V30 14204 H 1340.78 -4.24902 -1.78312 0
M  V30 14205 H 1339.09 -3.77562 -1.75602 0
M  V30 14206 H 1341.69 -2.99908 -4.42673 0
M  V30 14207 H 1342.03 -1.35868 -3.93504 0
M  V30 14208 H 1342.57 -2.7129 -2.90941 0
M  V30 14209 H 1339.31 -5.69072 -3.25327 0
M  V30 14210 H 1338.83 -4.27108 -4.21117 0
M  V30 14211 H 1340.5 -4.86275 -4.26785 0
M  V30 14212 N 1340.64 0.999871 -1.21821 0
M  V30 14213 C 1342.05 1.26228 -0.976664 0
M  V30 14214 C 1342.25 1.98714 0.333915 0
M  V30 14215 O 1341.31 2.29252 1.05829 0
M  V30 14216 C 1342.62 2.08089 -2.1707 0
M  V30 14217 C 1344.17 2.21298 -2.21351 0
M  V30 14218 C 1344.64 3.06544 -3.40287 0
M  V30 14219 N 1346.14 3.14131 -3.40405 0
M  V30 14220 C 1346.87 3.80362 -4.29083 0
M  V30 14221 N 1346.37 4.48577 -5.27968 0
M  V30 14222 N 1348.16 3.77053 -4.16878 0
M  V30 14223 H 1340.31 0.513704 -2.06094 0
M  V30 14224 H 1342.57 0.289447 -0.902732 0
M  V30 14225 H 1342.28 1.62183 -3.12073 0
M  V30 14226 H 1342.15 3.08843 -2.16554 0
M  V30 14227 H 1344.54 2.66422 -1.269 0
M  V30 14228 H 1344.62 1.19997 -2.25908 0
M  V30 14229 H 1344.27 2.62122 -4.35034 0
M  V30 14230 H 1344.2 4.0797 -3.32969 0
M  V30 14231 H 1346.69 2.65576 -2.68846 0
M  V30 14232 H 1347 4.96833 -5.91926 0
M  V30 14233 H 1345.34 4.47348 -5.31888 0
M  V30 14234 H 1348.54 3.22918 -3.38883 0
M  V30 14235 H 1348.71 4.2839 -4.86195 0
M  V30 14236 N 1342.11 1.02678 1.19562 0
M  V30 14237 C 1343.05 0.550355 2.21464 0
M  V30 14238 C 1344.03 -0.407674 1.57406 0
M  V30 14239 O 1345.21 -0.325272 1.85672 0
M  V30 14240 C 1342.34 -0.197777 3.38122 0
M  V30 14241 C 1341.38 0.711362 4.20526 0
M  V30 14242 S 1342.22 2.18636 4.88834 0
M  V30 14243 C 1343.37 1.44868 6.08904 0
M  V30 14244 H 1343.6 1.41377 2.61534 0
M  V30 14245 H 1341.14 0.836535 1.29775 0
M  V30 14246 H 1343.1 -0.62329 4.0574 0
M  V30 14247 H 1341.76 -1.03689 2.96492 0
M  V30 14248 H 1340.95 0.133916 5.03822 0
M  V30 14249 H 1340.55 1.0751 3.58214 0
M  V30 14250 H 1342.84 0.734143 6.73511 0
M  V30 14251 H 1343.79 2.25816 6.71128 0
M  V30 14252 H 1344.19 0.947098 5.56498 0
M  V30 14253 N 1343.59 -1.35528 0.804364 0
M  V30 14254 C 1344.84 -1.98084 0.380196 0
M  V30 14255 C 1345.15 -1.64531 -1.05778 0
M  V30 14256 O 1346.36 -2.20435 -1.58495 0
M  V30 14257 C 1344.82 -3.54364 0.628848 0
M  V30 14258 C 1344.42 -3.96828 2.07921 0
M  V30 14259 C 1346.17 -4.23641 0.269927 0
M  V30 14260 C 1344.08 -5.45944 2.27374 0
M  V30 14261 H 1343.01 -0.741185 0.138422 0
M  V30 14262 H 1345.66 -1.54624 0.988107 0
M  V30 14263 H 1344.04 -3.9597 -0.0489837 0
M  V30 14264 H 1345.21 -3.6638 2.79467 0
M  V30 14265 H 1343.53 -3.40433 2.39779 0
M  V30 14266 H 1346.12 -5.33251 0.393344 0
M  V30 14267 H 1346.47 -4.08858 -0.783644 0
M  V30 14268 H 1347 -3.87448 0.901588 0
M  V30 14269 H 1343.74 -5.65693 3.31168 0
M  V30 14270 H 1343.26 -5.77969 1.6035 0
M  V30 14271 H 1344.94 -6.12376 2.08817 0
M  V30 14272 N 1345.07 -0.557671 -1.47404 0
M  V30 14273 C 1346.49 -0.217473 -1.58111 0
M  V30 14274 C 1346.69 1.28 -1.55622 0
M  V30 14275 O 1345.74 2.06019 -1.45988 0
M  V30 14276 C 1347.06 -0.844535 -2.88597 0
M  V30 14277 C 1348.6 -0.815807 -3.02181 0
M  V30 14278 C 1349.08 -1.42195 -4.35367 0
M  V30 14279 N 1350.57 -1.38515 -4.42004 0
M  V30 14280 C 1351.31 -1.82378 -5.43623 0
M  V30 14281 N 1350.8 -2.34098 -6.52051 0
M  V30 14282 N 1352.59 -1.73446 -5.34671 0
M  V30 14283 H 1344.75 -1.53058 -1.47265 0
M  V30 14284 H 1347.01 -0.638305 -0.700907 0
M  V30 14285 H 1346.71 -1.89696 -2.96156 0
M  V30 14286 H 1346.59 -0.337844 -3.75684 0
M  V30 14287 H 1348.98 0.227925 -2.94218 0
M  V30 14288 H 1349.06 -1.36026 -2.16635 0
M  V30 14289 H 1348.7 -2.46475 -4.44086 0
M  V30 14290 H 1348.63 -0.852932 -5.19647 0
M  V30 14291 H 1351.12 -1.00684 -3.64241 0
M  V30 14292 H 1351.43 -2.6549 -7.25765 0
M  V30 14293 H 1349.78 -2.38109 -6.52939 0
M  V30 14294 H 1352.97 -1.32816 -4.48862 0
M  V30 14295 H 1353.14 -2.07947 -6.13728 0
M  V30 14296 N 1346.55 1.54831 -0.294147 0
M  V30 14297 C 1347.77 2.04873 0.32276 0
M  V30 14298 C 1348.2 1.17034 1.47257 0
M  V30 14299 O 1347.56 0.172949 1.80473 0
M  V30 14300 C 1347.61 3.52431 0.76319 0
M  V30 14301 O 1346.71 3.67635 1.86865 0
M  V30 14302 H 1346.05 0.660926 0.0638162 0
M  V30 14303 H 1348.58 1.99944 -0.433995 0
M  V30 14304 H 1348.59 3.94155 1.05385 0
M  V30 14305 H 1347.27 4.15827 -0.0779464 0
M  V30 14306 H 1345.84 3.37816 1.57907 0
M  V30 14307 N 1348.03 0.0217466 1.57585 0
M  V30 14308 C 1349.25 -0.67246 1.96196 0
M  V30 14309 C 1349.68 -1.6529 0.897827 0
M  V30 14310 O 1349.04 -1.80743 -0.142002 0
M  V30 14311 C 1349.08 -1.36162 3.33905 0
M  V30 14312 O 1348.19 -2.47671 3.29747 0
M  V30 14313 H 1347.53 -0.177238 0.639908 0
M  V30 14314 H 1350.06 0.0814073 2.04438 0
M  V30 14315 H 1350.07 -1.7201 3.69968 0
M  V30 14316 H 1348.74 -0.642893 4.10901 0
M  V30 14317 H 1347.32 -2.13989 3.0539 0
M  V30 14318 N 1349.51 -1.55583 -0.251311 0
M  V30 14319 C 1350.92 -1.67693 -0.820719 0
M  V30 14320 C 1351.27 -0.618393 -1.862 0
M  V30 14321 O 1350.39 0.236158 -2.15108 0
M  V30 14322 C 1350.99 -3.04011 -1.49542 0
M  V30 14323 C 1349.55 -3.18075 -2.01259 0
M  V30 14324 C 1348.69 -2.63557 -0.862138 0
M  V30 14325 H 1351.64 -1.58677 -0.0272072 0
M  V30 14326 H 1351.67 -2.9821 -2.36328 0
M  V30 14327 H 1351.18 -3.81032 -0.737323 0
M  V30 14328 H 1349.28 -2.45869 -2.79963 0
M  V30 14329 H 1349.39 -4.24927 -2.213 0
M  V30 14330 H 1347.76 -2.21268 -1.26145 0
M  V30 14331 H 1348.54 -3.431 -0.117196 0
M  V30 14332 N 1350.98 0.516783 -1.48886 0
M  V30 14333 C 1351.89 1.6467 -1.67095 0
M  V30 14334 C 1352.91 1.64963 -0.553466 0
M  V30 14335 O 1354.09 1.83673 -0.826206 0
M  V30 14336 C 1351.15 3.01095 -1.71879 0
M  V30 14337 C 1350.21 3.11554 -2.95352 0
M  V30 14338 C 1349.44 4.41471 -2.99898 0
M  V30 14339 O 1349.67 5.29348 -2.12477 0
M  V30 14340 O 1348.6 4.56573 -3.92205 0
M  V30 14341 H 1352.43 1.52242 -2.62785 0
M  V30 14342 H 1350.01 0.69134 -1.32442 0
M  V30 14343 H 1351.89 3.82207 -1.77471 0
M  V30 14344 H 1350.57 3.1382 -0.793656 0
M  V30 14345 H 1349.48 2.29689 -2.95286 0
M  V30 14346 H 1350.81 3.03751 -3.87294 0
M  V30 14347 N 1352.46 1.37696 0.766659 0
M  V30 14348 C 1353.39 1.36576 1.89392 0
M  V30 14349 C 1354.37 0.233597 1.68488 0
M  V30 14350 O 1355.56 0.434719 1.89272 0
M  V30 14351 C 1352.69 1.17705 3.26746 0
M  V30 14352 C 1351.64 2.27987 3.62224 0
M  V30 14353 C 1350.97 1.94235 4.98174 0
M  V30 14354 C 1352.27 3.70195 3.68447 0
M  V30 14355 H 1353.96 2.30905 1.90587 0
M  V30 14356 H 1351.51 1.11148 0.915538 0
M  V30 14357 H 1353.46 1.15551 4.05248 0
M  V30 14358 H 1352.18 0.198334 3.25997 0
M  V30 14359 H 1350.84 2.29306 2.86032 0
M  V30 14360 H 1350.49 0.948796 4.93971 0
M  V30 14361 H 1350.19 2.68086 5.2288 0
M  V30 14362 H 1351.72 1.93676 5.7907 0
M  V30 14363 H 1353.13 3.70978 4.37091 0
M  V30 14364 H 1351.53 4.43142 4.04654 0
M  V30 14365 H 1352.6 4.03453 2.68986 0
M  V30 14366 N 1353.94 -0.993397 1.22349 0
M  V30 14367 C 1355.36 -1.25708 0.983345 0
M  V30 14368 C 1355.56 -1.98888 -0.323372 0
M  V30 14369 O 1354.61 -2.2981 -1.04612 0
M  V30 14370 C 1355.92 -2.06935 2.1817 0
M  V30 14371 C 1357.47 -2.20121 2.22521 0
M  V30 14372 C 1357.95 -3.04735 3.41907 0
M  V30 14373 N 1359.44 -3.12322 3.42066 0
M  V30 14374 C 1360.17 -3.78081 4.31095 0
M  V30 14375 N 1359.67 -4.45771 5.3034 0
M  V30 14376 N 1361.46 -3.74837 4.18872 0
M  V30 14377 H 1353.61 -0.502767 2.06364 0
M  V30 14378 H 1355.88 -0.284656 0.904254 0
M  V30 14379 H 1355.58 -1.60525 3.12929 0
M  V30 14380 H 1355.46 -3.0769 2.18189 0
M  V30 14381 H 1357.84 -2.65745 1.28311 0
M  V30 14382 H 1357.92 -1.18798 2.26541 0
M  V30 14383 H 1357.57 -2.59811 4.36418 0
M  V30 14384 H 1357.5 -4.06198 3.35128 0
M  V30 14385 H 1359.99 -2.64146 2.7025 0
M  V30 14386 H 1360.3 -4.93687 5.94553 0
M  V30 14387 H 1358.65 -4.44521 5.34253 0
M  V30 14388 H 1361.84 -3.21116 3.40591 0
M  V30 14389 H 1362.01 -4.25806 4.8846 0
M  V30 14390 N 1355.42 -1.03311 -1.19015 0
M  V30 14391 C 1356.67 -0.730593 -1.88432 0
M  V30 14392 C 1356.99 0.743392 -1.80274 0
M  V30 14393 O 1356.26 1.5359 -1.21601 0
M  V30 14394 H 1354.84 -0.267253 -0.697556 0
M  V30 14395 H 1357.5 -1.30824 -1.44468 0
M  V30 14396 H 1356.59 -1.02867 -2.9466 0
M  V30 14397 N 1356.9 1.35099 -0.81154 0
M  V30 14398 C 1358.12 2.0286 -0.406855 0
M  V30 14399 C 1358.54 1.61147 0.98372 0
M  V30 14400 O 1357.9 0.811398 1.6347 0
M  V30 14401 C 1357.95 3.58214 -0.486305 0
M  V30 14402 O 1357.67 3.98412 -1.82206 0
M  V30 14403 C 1359.17 4.43236 -0.0750619 0
M  V30 14404 H 1356.39 0.650482 -0.164664 0
M  V30 14405 H 1358.93 1.72616 -1.09654 0
M  V30 14406 H 1357.09 3.87089 0.155177 0
M  V30 14407 H 1357.5 4.93072 -1.78831 0
M  V30 14408 H 1358.98 5.51701 -0.181759 0
M  V30 14409 H 1359.45 4.28123 0.980169 0
M  V30 14410 H 1360.06 4.19667 -0.689894 0
M  V30 14411 N 1358.37 0.56548 1.47106 0
M  V30 14412 C 1359.78 0.134289 1.86216 0
M  V30 14413 C 1360.14 -1.29815 1.47114 0
M  V30 14414 O 1359.26 -1.97787 0.878017 0
M  V30 14415 C 1359.86 0.236931 3.37971 0
M  V30 14416 C 1358.41 -0.139275 3.76142 0
M  V30 14417 C 1357.56 0.580743 2.71151 0
M  V30 14418 H 1360.51 0.774723 1.38505 0
M  V30 14419 H 1360.53 -0.542301 3.76616 0
M  V30 14420 H 1360.05 1.27958 3.66399 0
M  V30 14421 H 1358.15 -1.18272 3.53331 0
M  V30 14422 H 1358.26 0.225045 4.78571 0
M  V30 14423 H 1356.62 0.0228963 2.5469 0
M  V30 14424 H 1357.41 1.62471 3.0242 0
M  V30 14425 N 1359.85 -1.54672 0.302354 0
M  V30 14426 C 1361.1 -1.99345 -0.307307 0
M  V30 14427 C 1361.41 -1.19437 -1.549 0
M  V30 14428 O 1362.62 -1.54384 -2.23334 0
M  V30 14429 C 1361.08 -3.54896 -0.59808 0
M  V30 14430 C 1360.68 -4.43614 0.625357 0
M  V30 14431 C 1362.43 -4.08091 -1.16886 0
M  V30 14432 C 1360.34 -5.90599 0.307661 0
M  V30 14433 H 1359.27 -0.744614 -0.118603 0
M  V30 14434 H 1361.92 -1.78832 0.411271 0
M  V30 14435 H 1360.3 -3.71314 -1.37629 0
M  V30 14436 H 1361.47 -4.38969 1.40152 0
M  V30 14437 H 1359.79 -4.01198 1.11487 0
M  V30 14438 H 1362.38 -5.15477 -1.42082 0
M  V30 14439 H 1362.73 -3.58775 -2.11155 0
M  V30 14440 H 1363.26 -3.9522 -0.452329 0
M  V30 14441 H 1360 -6.44067 1.21895 0
M  V30 14442 H 1359.52 -5.98248 -0.431208 0
M  V30 14443 H 1361.2 -6.46937 -0.0902796 0
M  V30 14444 N 1361.33 -0.0301034 -1.57571 0
M  V30 14445 C 1362.58 0.647672 -1.91019 0
M  V30 14446 C 1362.89 1.73234 -0.908265 0
M  V30 14447 O 1364.1 2.46682 -1.13402 0
M  V30 14448 C 1362.55 1.20327 -3.3919 0
M  V30 14449 C 1362.16 0.151833 -4.47743 0
M  V30 14450 C 1363.91 1.8575 -3.81703 0
M  V30 14451 C 1361.81 0.719119 -5.87012 0
M  V30 14452 H 1360.74 0.245682 -0.712851 0
M  V30 14453 H 1363.39 -0.0955645 -1.83251 0
M  V30 14454 H 1361.78 1.99814 -3.41892 0
M  V30 14455 H 1362.95 -0.620659 -4.56601 0
M  V30 14456 H 1361.27 -0.403699 -4.14438 0
M  V30 14457 H 1363.86 2.29151 -4.83109 0
M  V30 14458 H 1364.21 2.70061 -3.16817 0
M  V30 14459 H 1364.74 1.1295 -3.81428 0
M  V30 14460 H 1361.48 -0.0858832 -6.55444 0
M  V30 14461 H 1361 1.46008 -5.81758 0
M  V30 14462 H 1362.68 1.20856 -6.35612 0
M  V30 14463 N 1362.81 1.55714 0.243056 0
M  V30 14464 C 1363.74 1.93655 1.30461 0
M  V30 14465 C 1364.72 0.801968 1.50008 0
M  V30 14466 O 1365.9 1.06256 1.62552 0
M  V30 14467 C 1363.03 2.23459 2.65863 0
M  V30 14468 C 1361.99 3.39205 2.61006 0
M  V30 14469 C 1361.31 3.5456 4.00239 0
M  V30 14470 C 1362.61 4.74787 2.17656 0
M  V30 14471 H 1364.31 2.82575 0.98954 0
M  V30 14472 H 1361.85 1.35955 0.474572 0
M  V30 14473 H 1363.81 2.48591 3.40266 0
M  V30 14474 H 1362.53 1.31369 2.99014 0
M  V30 14475 H 1361.19 3.14088 1.89061 0
M  V30 14476 H 1360.84 2.59884 4.30661 0
M  V30 14477 H 1360.54 4.32399 3.97876 0
M  V30 14478 H 1362.06 3.82017 4.76335 0
M  V30 14479 H 1363.48 4.99266 2.81792 0
M  V30 14480 H 1361.87 5.55756 2.26397 0
M  V30 14481 H 1362.94 4.7159 1.12831 0
M  V30 14482 N 1364.29 -0.50888 1.49158 0
M  V30 14483 C 1365.22 -1.62008 1.68154 0
M  V30 14484 C 1366.2 -1.61624 0.53025 0
M  V30 14485 O 1367.38 -1.78489 0.765205 0
M  V30 14486 C 1364.51 -3.00525 1.74075 0
M  V30 14487 C 1363.47 -3.15773 2.88915 0
M  V30 14488 C 1362.79 -4.55562 2.79942 0
M  V30 14489 C 1364.09 -2.96542 4.29953 0
M  V30 14490 H 1365.79 -1.46365 2.61185 0
M  V30 14491 H 1363.33 -0.702705 1.2569 0
M  V30 14492 H 1365.29 -3.78154 1.8595 0
M  V30 14493 H 1364.01 -3.17238 0.776373 0
M  V30 14494 H 1362.67 -2.40567 2.76628 0
M  V30 14495 H 1362.32 -4.6914 1.81429 0
M  V30 14496 H 1362.02 -4.66706 3.57015 0
M  V30 14497 H 1363.54 -5.35262 2.93814 0
M  V30 14498 H 1364.95 -3.63947 4.42963 0
M  V30 14499 H 1363.35 -3.19164 5.08187 0
M  V30 14500 H 1364.42 -1.92745 4.44946 0
M  V30 14501 N 1365.76 -1.381 -0.759346 0
M  V30 14502 C 1366.99 -1.37213 -1.54855 0
M  V30 14503 C 1367.41 0.0395175 -1.88759 0
M  V30 14504 O 1366.76 1.00462 -1.5236 0
M  V30 14505 C 1366.82 -2.22232 -2.85123 0
M  V30 14506 O 1366.54 -3.57897 -2.52668 0
M  V30 14507 C 1368.04 -2.29461 -3.79292 0
M  V30 14508 H 1365.26 -0.469542 -0.479345 0
M  V30 14509 H 1367.8 -1.81604 -0.940216 0
M  V30 14510 H 1365.96 -1.81317 -3.42349 0
M  V30 14511 H 1366.37 -4.02599 -3.36176 0
M  V30 14512 H 1367.84 -2.93246 -4.67665 0
M  V30 14513 H 1368.32 -1.3066 -4.19315 0
M  V30 14514 H 1368.93 -2.70741 -3.27993 0
M  V30 14515 N 1367.24 0.986894 -1.22875 0
M  V30 14516 C 1368.21 2.0597 -1.00544 0
M  V30 14517 C 1369.21 1.60771 0.0303509 0
M  V30 14518 O 1370.4 1.72945 -0.208753 0
M  V30 14519 C 1367.53 3.36911 -0.519962 0
M  V30 14520 H 1368.72 2.27213 -1.9574 0
M  V30 14521 H 1366.27 1.15935 -1.04827 0
M  V30 14522 H 1367.01 3.21355 0.436078 0
M  V30 14523 H 1366.79 3.71054 -1.26732 0
M  V30 14524 H 1368.28 4.15829 -0.384166 0
M  V30 14525 N 1368.72 1.0394 1.18466 0
M  V30 14526 C 1369.67 0.629352 2.22054 0
M  V30 14527 C 1370.64 -0.362187 1.62103 0
M  V30 14528 O 1371.82 -0.256457 1.89069 0
M  V30 14529 C 1368.96 -0.00282888 3.451 0
M  V30 14530 C 1368.08 1.03602 4.19393 0
M  V30 14531 C 1367.21 0.372492 5.29892 0
M  V30 14532 C 1366.25 1.39652 5.95956 0
M  V30 14533 N 1365.39 0.758053 6.97996 0
M  V30 14534 H 1370.23 1.51722 2.56485 0
M  V30 14535 H 1367.76 0.759043 1.26004 0
M  V30 14536 H 1369.72 -0.386688 4.15404 0
M  V30 14537 H 1368.35 -0.854224 3.11292 0
M  V30 14538 H 1367.4 1.53784 3.47929 0
M  V30 14539 H 1368.72 1.81387 4.64651 0
M  V30 14540 H 1367.87 -0.065642 6.06664 0
M  V30 14541 H 1366.61 -0.437462 4.85734 0
M  V30 14542 H 1365.61 1.84481 5.17926 0
M  V30 14543 H 1366.84 2.20816 6.42197 0
M  V30 14544 H 1364.78 -0.0316173 6.55992 0
M  V30 14545 H 1364.7 1.47363 7.41499 0
M  V30 14546 H 1365.97 0.344273 7.78739 0
M  V30 14547 N 1370.2 -1.34667 0.818693 0
M  V30 14548 C 1371.16 -2.27908 0.243037 0
M  V30 14549 C 1372.16 -1.50106 -0.576622 0
M  V30 14550 O 1373.35 -1.69701 -0.393342 0
M  V30 14551 C 1370.48 -3.34455 -0.659759 0
M  V30 14552 H 1371.68 -2.80332 1.06555 0
M  V30 14553 H 1369.23 -1.44727 0.590237 0
M  V30 14554 H 1369.96 -2.87238 -1.50549 0
M  V30 14555 H 1369.75 -3.92031 -0.073567 0
M  V30 14556 H 1371.24 -4.04016 -1.05646 0
M  V30 14557 N 1371.68 -0.573274 -1.46804 0
M  V30 14558 C 1372.95 0.011163 -1.95597 0
M  V30 14559 C 1373.33 1.4691 -1.51594 0
M  V30 14560 O 1372.68 2.15413 -0.76221 0
M  V30 14561 C 1372.89 -0.151045 -3.48673 0
M  V30 14562 C 1374.24 -0.0139817 -4.24598 0
M  V30 14563 O 1375.26 -0.0794008 -3.56111 0
M  V30 14564 O 1374.12 0.129547 -5.46346 0
M  V30 14565 H 1371.22 0.0551258 -0.825161 0
M  V30 14566 H 1373.76 -0.640928 -1.57131 0
M  V30 14567 H 1372.53 -1.16494 -3.73557 0
M  V30 14568 H 1372.16 0.537917 -3.93944 0
M  V30 14569 N 1373.15 1.5451 -0.310553 0
M  V30 14570 C 1374.06 2.27557 0.570518 0
M  V30 14571 C 1375.08 1.31426 1.14032 0
M  V30 14572 O 1376.26 1.64423 1.16306 0
M  V30 14573 C 1373.32 3.00933 1.72163 0
M  V30 14574 C 1372.38 4.12623 1.18495 0
M  V30 14575 C 1371.62 4.8249 2.28121 0
M  V30 14576 O 1371.84 4.5178 3.48211 0
M  V30 14577 O 1370.77 5.69686 1.94273 0
M  V30 14578 H 1374.6 3.03692 -0.0223195 0
M  V30 14579 H 1372.18 1.49203 -0.0766821 0
M  V30 14580 H 1374.07 3.46925 2.39208 0
M  V30 14581 H 1372.74 2.27685 2.3009 0
M  V30 14582 H 1371.65 3.71008 0.479956 0
M  V30 14583 H 1372.98 4.87876 0.650994 0
M  V30 14584 N 1374.63 0.0384594 1.57553 0
M  V30 14585 C 1375.91 -0.677308 1.83499 0
M  V30 14586 C 1376.29 -1.89789 0.924294 0
M  V30 14587 O 1375.64 -2.28493 -0.0178185 0
M  V30 14588 C 1375.85 -1.04667 3.32935 0
M  V30 14589 C 1377.2 -1.43436 3.99639 0
M  V30 14590 O 1378.22 -1.13938 3.37486 0
M  V30 14591 O 1377.08 -1.98435 5.09201 0
M  V30 14592 H 1374.17 -0.333131 0.756936 0
M  V30 14593 H 1376.72 0.066854 1.69568 0
M  V30 14594 H 1375.49 -0.178349 3.90893 0
M  V30 14595 H 1375.11 -1.8487 3.52007 0
M  V30 14596 N 1376.11 -1.55841 -0.234795 0
M  V30 14597 C 1377.34 -1.82307 -0.978355 0
M  V30 14598 C 1377.75 -0.615825 -1.78474 0
M  V30 14599 O 1377.11 0.4156 -1.77705 0
M  V30 14600 C 1377.16 -3.07136 -1.90655 0
M  V30 14601 O 1376.88 -4.23202 -1.13278 0
M  V30 14602 C 1378.38 -3.46492 -2.76511 0
M  V30 14603 H 1375.6 -0.606361 -0.287345 0
M  V30 14604 H 1378.15 -2.02916 -0.254023 0
M  V30 14605 H 1376.3 -2.88542 -2.58501 0
M  V30 14606 H 1376.72 -4.94029 -1.76168 0
M  V30 14607 H 1378.19 -4.36908 -3.37366 0
M  V30 14608 H 1378.67 -2.67633 -3.48238 0
M  V30 14609 H 1379.27 -3.6748 -2.14099 0
M  V30 14610 N 1377.59 0.500963 -1.49426 0
M  V30 14611 C 1379.01 0.832142 -1.36189 0
M  V30 14612 C 1379.21 1.9759 -0.395014 0
M  V30 14613 O 1378.26 2.51905 0.173294 0
M  V30 14614 C 1379.57 1.17232 -2.76907 0
M  V30 14615 C 1381.12 1.28052 -2.85607 0
M  V30 14616 C 1381.6 1.65399 -4.27092 0
M  V30 14617 N 1383.09 1.72448 -4.29902 0
M  V30 14618 C 1383.82 2.02789 -5.36343 0
M  V30 14619 N 1383.32 2.31354 -6.53029 0
M  V30 14620 N 1385.11 2.0404 -5.23759 0
M  V30 14621 H 1377.26 -0.253253 -2.10885 0
M  V30 14622 H 1379.53 -0.0507111 -0.946643 0
M  V30 14623 H 1379.23 0.405247 -3.49357 0
M  V30 14624 H 1379.11 2.11574 -3.12276 0
M  V30 14625 H 1381.49 2.03831 -2.13394 0
M  V30 14626 H 1381.57 0.317603 -2.53821 0
M  V30 14627 H 1381.22 0.901704 -4.99832 0
M  V30 14628 H 1381.15 2.6279 -4.56343 0
M  V30 14629 H 1383.64 1.52532 -3.45749 0
M  V30 14630 H 1383.95 2.53695 -7.29972 0
M  V30 14631 H 1382.3 2.28811 -6.56255 0
M  V30 14632 H 1385.49 1.812 -4.31606 0
M  V30 14633 H 1385.66 2.27353 -6.06807 0
M  V30 14634 N 1379.07 1.38501 0.752011 0
M  V30 14635 C 1380.32 1.34112 1.50655 0
M  V30 14636 C 1380.63 -0.0657661 1.95489 0
M  V30 14637 O 1381.84 -0.232199 2.70505 0
M  V30 14638 C 1380.29 2.35514 2.72142 0
M  V30 14639 C 1379.9 3.81831 2.34326 0
M  V30 14640 C 1381.64 2.40171 3.50026 0
M  V30 14641 C 1379.55 4.74915 3.52434 0
M  V30 14642 H 1378.48 0.498519 0.565681 0
M  V30 14643 H 1381.13 1.64064 0.821913 0
M  V30 14644 H 1379.51 1.98607 3.42595 0
M  V30 14645 H 1380.69 4.27685 1.7153 0
M  V30 14646 H 1379 3.80308 1.69573 0
M  V30 14647 H 1381.6 3.06913 4.37845 0
M  V30 14648 H 1381.94 1.42111 3.91293 0
M  V30 14649 H 1382.48 2.75884 2.86588 0
M  V30 14650 H 1379.21 5.74176 3.16232 0
M  V30 14651 H 1378.73 4.33753 4.14268 0
M  V30 14652 H 1380.41 4.93003 4.18995 0
M  V30 14653 N 1380.55 -0.980364 1.23396 0
M  V30 14654 C 1381.46 -2.10688 1.03188 0
M  V30 14655 C 1382.47 -1.73984 -0.0236159 0
M  V30 14656 O 1383.65 -2.00666 0.171841 0
M  V30 14657 C 1380.71 -3.4101 0.625563 0
M  V30 14658 C 1379.77 -3.91739 1.75611 0
M  V30 14659 C 1379.01 -5.15841 1.36908 0
M  V30 14660 O 1379.23 -5.69837 0.253329 0
M  V30 14661 O 1378.16 -5.60638 2.19018 0
M  V30 14662 H 1381.99 -2.30626 1.97599 0
M  V30 14663 H 1379.57 -1.09067 1.02102 0
M  V30 14664 H 1381.46 -4.19402 0.409909 0
M  V30 14665 H 1380.13 -3.22402 -0.28956 0
M  V30 14666 H 1379.04 -3.14464 2.0264 0
M  V30 14667 H 1380.37 -4.14801 2.64955 0
M  V30 14668 N 1382.02 -1.04567 -1.17913 0
M  V30 14669 C 1383.27 -0.750538 -1.87647 0
M  V30 14670 C 1383.59 0.72423 -1.81052 0
M  V30 14671 O 1382.86 1.52292 -1.23223 0
M  V30 14672 H 1381.44 -0.274636 -0.694683 0
M  V30 14673 H 1384.1 -1.32349 -1.43072 0
M  V30 14674 H 1383.2 -1.05987 -2.93553 0
M  V30 14675 N 1383.5 1.34231 -0.825823 0
M  V30 14676 C 1384.75 1.9849 -0.415891 0
M  V30 14677 C 1385.08 1.6531 1.01913 0
M  V30 14678 O 1384.36 0.926223 1.7103 0
M  V30 14679 C 1384.64 3.54691 -0.621785 0
M  V30 14680 C 1384.49 3.97603 -2.10313 0
M  V30 14681 C 1385.81 4.4006 -0.0595871 0
M  V30 14682 H 1382.93 0.721032 -0.152582 0
M  V30 14683 H 1385.57 1.5908 -1.03892 0
M  V30 14684 H 1383.72 3.88392 -0.0914439 0
M  V30 14685 H 1385.39 3.74221 -2.69733 0
M  V30 14686 H 1383.64 3.47809 -2.59251 0
M  V30 14687 H 1384.31 5.06352 -2.19799 0
M  V30 14688 H 1386.78 4.12929 -0.512743 0
M  V30 14689 H 1385.66 5.48403 -0.233431 0
M  V30 14690 H 1385.92 4.29798 1.03568 0
M  V30 14691 N 1384.98 0.581051 1.46498 0
M  V30 14692 C 1385.89 -0.155669 2.34083 0
M  V30 14693 C 1386.91 -0.887728 1.49651 0
M  V30 14694 O 1388.08 -0.851284 1.82524 0
M  V30 14695 C 1385.15 -1.15752 3.26806 0
M  V30 14696 C 1384.21 -0.43031 4.27138 0
M  V30 14697 C 1383.44 -1.38443 5.15431 0
M  V30 14698 O 1383.66 -2.62084 5.06624 0
M  V30 14699 O 1382.6 -0.89592 5.95195 0
M  V30 14700 H 1386.42 0.56341 2.98428 0
M  V30 14701 H 1384.01 0.341466 1.45445 0
M  V30 14702 H 1385.89 -1.73523 3.84015 0
M  V30 14703 H 1384.57 -1.85809 2.65059 0
M  V30 14704 H 1383.47 0.1892 3.73621 0
M  V30 14705 H 1384.81 0.229263 4.91666 0
M  V30 14706 N 1386.46 -1.54343 0.318742 0
M  V30 14707 C 1387.87 -1.59564 -0.034068 0
M  V30 14708 C 1388.07 -1.33539 -1.50896 0
M  V30 14709 O 1387.13 -1.11746 -2.26427 0
M  V30 14710 C 1388.44 -2.98291 0.379827 0
M  V30 14711 C 1389.99 -3.11255 0.330078 0
M  V30 14712 C 1390.47 -4.5232 0.719061 0
M  V30 14713 N 1391.96 -4.58295 0.67228 0
M  V30 14714 C 1392.69 -5.65551 0.945513 0
M  V30 14715 N 1392.19 -6.80767 1.28563 0
M  V30 14716 N 1393.98 -5.55305 0.871394 0
M  V30 14717 H 1386.13 -1.69518 1.27975 0
M  V30 14718 H 1388.39 -0.792627 0.520044 0
M  V30 14719 H 1388.1 -3.22319 1.40724 0
M  V30 14720 H 1387.97 -3.76319 -0.257606 0
M  V30 14721 H 1390.36 -2.86965 -0.688117 0
M  V30 14722 H 1390.44 -2.35342 1.00238 0
M  V30 14723 H 1390.09 -4.77342 1.73515 0
M  V30 14724 H 1390.02 -5.26594 0.0245001 0
M  V30 14725 H 1392.51 -3.75547 0.421059 0
M  V30 14726 H 1392.82 -7.58503 1.47963 0
M  V30 14727 H 1391.17 -6.82275 1.32385 0
M  V30 14728 H 1394.36 -4.64171 0.605205 0
M  V30 14729 H 1394.53 -6.38806 1.08769 0
M  V30 14730 N 1387.94 -0.0468143 -1.5753 0
M  V30 14731 C 1389.18 0.626699 -1.92138 0
M  V30 14732 C 1389.5 1.7164 -0.925463 0
M  V30 14733 O 1388.77 1.95876 0.0303531 0
M  V30 14734 H 1387.35 0.234479 -0.709245 0
M  V30 14735 H 1390.02 -0.0987892 -1.94649 0
M  V30 14736 H 1389.11 1.06811 -2.93254 0
M  V30 14737 N 1389.41 1.55964 0.226527 0
M  V30 14738 C 1390.38 1.91184 1.26418 0
M  V30 14739 C 1391.38 0.789982 1.40057 0
M  V30 14740 O 1392.57 1.05778 1.38407 0
M  V30 14741 C 1389.7 2.15826 2.63878 0
M  V30 14742 H 1390.89 2.83986 0.963956 0
M  V30 14743 H 1388.45 1.49169 0.466726 0
M  V30 14744 H 1389.18 1.2556 2.99007 0
M  V30 14745 H 1388.97 2.97549 2.55356 0
M  V30 14746 H 1390.46 2.44188 3.38765 0
M  V30 14747 N 1390.89 -0.493031 1.4969 0
M  V30 14748 C 1392.17 -1.25436 1.50084 0
M  V30 14749 C 1392.55 -2.0981 0.233038 0
M  V30 14750 O 1391.9 -2.14617 -0.784342 0
M  V30 14751 C 1392.11 -2.10425 2.78428 0
M  V30 14752 C 1393.46 -2.69349 3.28232 0
M  V30 14753 O 1394.48 -2.20686 2.796 0
M  V30 14754 O 1393.34 -3.57956 4.12953 0
M  V30 14755 H 1390.43 -0.568044 0.601045 0
M  V30 14756 H 1392.98 -0.506648 1.6196 0
M  V30 14757 H 1391.75 -1.48108 3.62187 0
M  V30 14758 H 1391.37 -2.92374 2.6945 0
M  V30 14759 N 1392.37 -1.38898 -0.744656 0
M  V30 14760 C 1393.33 -1.36633 -1.84022 0
M  V30 14761 C 1394.33 -0.265187 -1.58598 0
M  V30 14762 O 1395.52 -0.522569 -1.66177 0
M  V30 14763 C 1392.66 -1.12938 -3.21649 0
M  V30 14764 H 1393.85 -2.34111 -1.87435 0
M  V30 14765 H 1391.4 -1.24322 -0.947302 0
M  V30 14766 H 1392.14 -0.161027 -3.239 0
M  V30 14767 H 1391.92 -1.9267 -3.41498 0
M  V30 14768 H 1393.41 -1.14071 -4.01718 0
M  V30 14769 N 1393.85 0.973806 -1.23914 0
M  V30 14770 C 1395.08 1.74853 -1.10046 0
M  V30 14771 C 1395.49 1.85927 0.350388 0
M  V30 14772 O 1394.83 1.34252 1.25388 0
M  V30 14773 C 1394.89 3.18919 -1.65924 0
M  V30 14774 C 1394.56 3.31335 -3.14748 0
M  V30 14775 C 1395.55 3.17141 -4.11968 0
M  V30 14776 C 1393.24 3.55772 -3.54587 0
M  V30 14777 C 1395.23 3.27199 -5.47009 0
M  V30 14778 C 1392.92 3.65468 -4.89771 0
M  V30 14779 C 1393.92 3.51193 -5.85792 0
M  V30 14780 O 1393.6 3.60534 -7.18519 0
M  V30 14781 H 1393.34 0.555345 -0.385445 0
M  V30 14782 H 1395.89 1.23168 -1.64374 0
M  V30 14783 H 1394.12 3.71882 -1.06023 0
M  V30 14784 H 1395.81 3.78177 -1.47434 0
M  V30 14785 H 1396.58 2.98153 -3.82531 0
M  V30 14786 H 1392.45 3.65951 -2.80358 0
M  V30 14787 H 1396 3.15974 -6.21937 0
M  V30 14788 H 1391.9 3.83969 -5.18882 0
M  V30 14789 H 1392.66 3.77288 -7.26358 0
M  V30 14790 N 1395.33 1.05191 1.17357 0
M  V30 14791 C 1396.57 0.763113 1.87895 0
M  V30 14792 C 1396.91 -0.708071 1.80831 0
M  V30 14793 O 1396.18 -1.51777 1.21631 0
M  V30 14794 C 1396.46 1.2442 3.37923 0
M  V30 14795 C 1396.32 2.77832 3.53737 0
M  V30 14796 C 1397.64 0.843209 4.31947 0
M  V30 14797 H 1394.75 0.27869 0.682276 0
M  V30 14798 H 1397.4 1.3059 1.38008 0
M  V30 14799 H 1395.55 0.782438 3.80539 0
M  V30 14800 H 1397.22 3.32131 3.20135 0
M  V30 14801 H 1395.46 3.17108 2.96015 0
M  V30 14802 H 1396.13 3.06555 4.59052 0
M  V30 14803 H 1398.61 1.24073 3.97171 0
M  V30 14804 H 1397.48 1.20743 5.35455 0
M  V30 14805 H 1397.75 -0.252802 4.41377 0
M  V30 14806 N 1396.8 -1.33791 0.83293 0
M  V30 14807 C 1398.03 -2.0272 0.438111 0
M  V30 14808 C 1398.45 -1.62279 -0.951163 0
M  V30 14809 O 1397.81 -0.812406 -1.62079 0
M  V30 14810 C 1397.86 -3.5623 0.559698 0
M  V30 14811 O 1396.96 -4.10292 -0.41646 0
M  V30 14812 H 1396.31 -0.639438 0.178928 0
M  V30 14813 H 1398.84 -1.70821 1.12612 0
M  V30 14814 H 1398.85 -4.0563 0.439148 0
M  V30 14815 H 1397.52 -3.8501 1.5729 0
M  V30 14816 H 1396.1 -3.72034 -0.25396 0
M  V30 14817 N 1398.28 -0.588812 -1.46187 0
M  V30 14818 C 1399.23 0.140932 -2.30369 0
M  V30 14819 C 1400.2 0.878216 -1.40984 0
M  V30 14820 O 1401.38 0.867678 -1.69929 0
M  V30 14821 C 1398.52 1.14468 -3.25563 0
M  V30 14822 C 1397.64 0.410215 -4.30048 0
M  V30 14823 C 1396.77 1.40203 -5.12364 0
M  V30 14824 C 1395.81 0.65431 -6.08593 0
M  V30 14825 N 1394.95 1.59448 -6.83755 0
M  V30 14826 H 1399.79 -0.582976 -2.92242 0
M  V30 14827 H 1397.33 -0.299302 -1.44023 0
M  V30 14828 H 1399.28 1.73957 -3.79203 0
M  V30 14829 H 1397.91 1.83623 -2.65485 0
M  V30 14830 H 1396.97 -0.299822 -3.79217 0
M  V30 14831 H 1398.28 -0.174043 -4.98496 0
M  V30 14832 H 1397.43 2.06953 -5.70312 0
M  V30 14833 H 1396.17 2.02022 -4.4389 0
M  V30 14834 H 1395.18 -0.0269371 -5.49793 0
M  V30 14835 H 1396.4 0.0414285 -6.79087 0
M  V30 14836 H 1394.35 2.20066 -6.17986 0
M  V30 14837 H 1394.26 1.06318 -7.48487 0
M  V30 14838 H 1395.53 2.25215 -7.46256 0
M  V30 14839 N 1399.76 1.54172 -0.326923 0
M  V30 14840 C 1401.17 1.86009 0.160446 0
M  V30 14841 C 1401.52 1.24851 1.51349 0
M  V30 14842 O 1400.65 0.555804 2.09141 0
M  V30 14843 C 1401.24 3.37488 0.297909 0
M  V30 14844 C 1399.8 3.69263 0.7295 0
M  V30 14845 C 1398.95 2.76911 -0.146778 0
M  V30 14846 H 1401.9 1.48972 -0.547093 0
M  V30 14847 H 1401.92 3.63388 1.12825 0
M  V30 14848 H 1401.43 3.81971 -0.687007 0
M  V30 14849 H 1399.53 3.30314 1.72404 0
M  V30 14850 H 1399.65 4.76149 0.53092 0
M  V30 14851 H 1398.01 2.51876 0.378212 0
M  V30 14852 H 1398.79 3.24221 -1.12852 0
M  V30 14853 N 1401.24 0.0551678 1.57503 0
M  V30 14854 C 1402.49 -0.61772 1.92848 0
M  V30 14855 C 1402.81 -1.70614 0.933862 0
M  V30 14856 O 1402.07 -1.95628 -0.0532073 0
M  V30 14857 C 1402.37 -1.24895 3.34867 0
M  V30 14858 C 1402.03 -0.288325 4.49977 0
M  V30 14859 C 1400.7 -0.0240016 4.81194 0
M  V30 14860 C 1403.05 0.369804 5.19886 0
M  V30 14861 C 1400.38 0.905818 5.79665 0
M  V30 14862 C 1402.73 1.28784 6.19352 0
M  V30 14863 C 1401.39 1.5608 6.48996 0
M  V30 14864 H 1400.66 -0.22604 0.705682 0
M  V30 14865 H 1403.31 0.1225 1.91108 0
M  V30 14866 H 1401.61 -2.06452 3.32993 0
M  V30 14867 H 1403.31 -1.77659 3.59497 0
M  V30 14868 H 1399.9 -0.504524 4.2562 0
M  V30 14869 H 1404.08 0.178689 4.95978 0
M  V30 14870 H 1399.34 1.12472 6.00966 0
M  V30 14871 H 1403.51 1.80385 6.72632 0
M  V30 14872 H 1401.14 2.28292 7.25112 0
M  V30 14873 N 1402.72 -1.56081 -0.218252 0
M  V30 14874 C 1403.66 -1.93544 -1.2901 0
M  V30 14875 C 1404.66 -0.817886 -1.48348 0
M  V30 14876 O 1405.86 -1.00274 -1.49483 0
M  V30 14877 H 1402.24 -0.61511 -0.432601 0
M  V30 14878 H 1404.21 -2.82975 -0.946966 0
M  V30 14879 C 1402.96 -2.27134 -2.63259 0
M  V30 14880 H 1402.28 -3.12643 -2.49188 0
M  V30 14881 H 1403.72 -2.57228 -3.3706 0
M  V30 14882 C 1402.18 -1.09764 -3.18518 0
M  V30 14883 O 1402.71 -0.360501 -4.00079 0
M  V30 14884 N 1400.92 -0.880589 -2.76937 0
M  V30 14885 H 1400.46 -1.48175 -2.10718 0
M  V30 14886 H 1400.42 -0.0970234 -3.1425 0
M  V30 14887 N 1404.2 0.485086 -1.49949 0
M  V30 14888 C 1405.47 1.24639 -1.50747 0
M  V30 14889 C 1405.85 2.09683 -0.244162 0
M  V30 14890 O 1405.2 2.1503 0.772949 0
M  V30 14891 C 1405.41 2.08946 -2.7954 0
M  V30 14892 C 1406.76 2.67604 -3.29656 0
M  V30 14893 O 1407.78 2.192 -2.80766 0
M  V30 14894 O 1406.64 3.55761 -4.14845 0
M  V30 14895 H 1403.74 0.564849 -0.604049 0
M  V30 14896 H 1406.28 0.498052 -1.62227 0
M  V30 14897 H 1405.05 1.46185 -3.62968 0
M  V30 14898 H 1404.68 2.90941 -2.70997 0
M  V30 14899 N 1405.67 1.39291 0.737279 0
M  V30 14900 C 1407.09 1.20845 1.04253 0
M  V30 14901 C 1407.29 0.0684513 2.01384 0
M  V30 14902 O 1406.35 -0.580615 2.45734 0
M  V30 14903 C 1407.66 2.54158 1.60699 0
M  V30 14904 C 1409.21 2.60983 1.72791 0
M  V30 14905 C 1409.68 3.94511 2.32647 0
M  V30 14906 N 1411.17 3.96138 2.4006 0
M  V30 14907 C 1411.91 4.96229 2.87306 0
M  V30 14908 N 1411.4 6.06716 3.34465 0
M  V30 14909 N 1413.2 4.83609 2.86494 0
M  V30 14910 H 1405.35 2.12196 0.0930416 0
M  V30 14911 H 1407.61 0.942289 0.103899 0
M  V30 14912 H 1407.32 3.38118 0.96795 0
M  V30 14913 H 1407.19 2.73715 2.59538 0
M  V30 14914 H 1409.58 1.77408 2.35818 0
M  V30 14915 H 1409.66 2.45278 0.726118 0
M  V30 14916 H 1409.3 4.78516 1.70249 0
M  V30 14917 H 1409.23 4.07536 3.33499 0
M  V30 14918 H 1411.72 3.16344 2.06725 0
M  V30 14919 H 1412.04 6.79002 3.6902 0
M  V30 14920 H 1410.38 6.10313 3.3248 0
M  V30 14921 H 1413.57 3.96396 2.48973 0
M  V30 14922 H 1413.75 5.6176 3.23001 0
M  V30 14923 N 1407.15 -0.967221 1.24429 0
M  V30 14924 C 1408.06 -2.09582 1.05417 0
M  V30 14925 C 1409.08 -1.73999 -0.00516127 0
M  V30 14926 O 1410.25 -2.00472 0.193115 0
M  V30 14927 C 1407.32 -3.40327 0.661697 0
M  V30 14928 C 1406.38 -3.89854 1.79756 0
M  V30 14929 C 1405.61 -5.1436 1.42372 0
M  V30 14930 O 1405.84 -5.69536 0.313754 0
M  V30 14931 O 1404.77 -5.58283 2.24952 0
M  V30 14932 H 1408.6 -2.28517 2.00034 0
M  V30 14933 H 1406.18 -1.07978 1.03253 0
M  V30 14934 H 1408.06 -4.18943 0.454369 0
M  V30 14935 H 1406.74 -3.22691 -0.255348 0
M  V30 14936 H 1405.64 -3.12297 2.05964 0
M  V30 14937 H 1406.98 -4.11967 2.69339 0
M  V30 14938 N 1408.63 -1.05812 -1.16797 0
M  V30 14939 C 1409.56 -0.685778 -2.23202 0
M  V30 14940 C 1410.54 0.319428 -1.67074 0
M  V30 14941 O 1411.73 0.195635 -1.93212 0
M  V30 14942 C 1408.86 -0.0662958 -3.47237 0
M  V30 14943 C 1407.81 -0.996943 -4.16227 0
M  V30 14944 C 1407.14 -0.241015 -5.34157 0
M  V30 14945 C 1408.44 -2.32384 -4.67755 0
M  V30 14946 H 1410.13 -1.57535 -2.54604 0
M  V30 14947 H 1407.68 -0.758909 -1.22379 0
M  V30 14948 H 1409.63 0.206024 -4.20896 0
M  V30 14949 H 1408.35 0.858263 -3.15121 0
M  V30 14950 H 1407.01 -1.25393 -3.44488 0
M  V30 14951 H 1406.66 0.686508 -4.98293 0
M  V30 14952 H 1406.36 -0.861188 -5.81255 0
M  V30 14953 H 1407.88 0.0238739 -6.10595 0
M  V30 14954 H 1409.3 -2.11099 -5.3302 0
M  V30 14955 H 1407.69 -2.89855 -5.25456 0
M  V30 14956 H 1408.76 -2.958 -3.84227 0
M  V30 14957 N 1410.11 1.33347 -0.840014 0
M  V30 14958 C 1411.36 1.97007 -0.432581 0
M  V30 14959 C 1411.67 1.67278 1.01378 0
M  V30 14960 O 1412.88 2.2456 1.52595 0
M  V30 14961 C 1411.33 3.52572 -0.72258 0
M  V30 14962 C 1410.94 3.91176 -2.1837 0
M  V30 14963 C 1412.68 4.22776 -0.382153 0
M  V30 14964 C 1410.59 5.39724 -2.41768 0
M  V30 14965 H 1409.52 0.737255 -0.158024 0
M  V30 14966 H 1412.17 1.5195 -1.02876 0
M  V30 14967 H 1410.55 3.9596 -0.0560179 0
M  V30 14968 H 1411.73 3.58842 -2.89083 0
M  V30 14969 H 1410.04 3.33956 -2.48721 0
M  V30 14970 H 1412.64 5.32021 -0.534588 0
M  V30 14971 H 1412.98 4.10792 0.674967 0
M  V30 14972 H 1413.52 3.84922 -1.004 0
M  V30 14973 H 1410.25 5.56713 -3.4605 0
M  V30 14974 H 1409.77 5.73514 -1.75617 0
M  V30 14975 H 1411.45 6.06624 -2.2498 0
M  V30 14976 N 1411.59 0.596556 1.45873 0
M  V30 14977 C 1412.55 -0.118666 2.28893 0
M  V30 14978 C 1413.55 -0.805668 1.3916 0
M  V30 14979 O 1414.74 -0.655511 1.61396 0
M  V30 14980 C 1411.87 -1.17789 3.19904 0
M  V30 14981 H 1413.06 0.611093 2.93608 0
M  V30 14982 H 1410.62 0.355115 1.52212 0
M  V30 14983 H 1411.35 -1.93878 2.59965 0
M  V30 14984 H 1411.14 -0.689616 3.85988 0
M  V30 14985 H 1412.63 -1.67912 3.82355 0
M  V30 14986 N 1413.06 -1.53996 0.335095 0
M  V30 14987 C 1413.97 -2.28436 -0.534244 0
M  V30 14988 C 1414.99 -1.33224 -1.11926 0
M  V30 14989 O 1416.17 -1.66252 -1.13676 0
M  V30 14990 C 1413.23 -3.03634 -1.67354 0
M  V30 14991 C 1412.29 -4.14455 -1.11916 0
M  V30 14992 C 1411.52 -4.86058 -2.20416 0
M  V30 14993 O 1411.75 -4.57263 -3.40979 0
M  V30 14994 O 1410.68 -5.72704 -1.85185 0
M  V30 14995 H 1414.51 -3.03618 0.0706314 0
M  V30 14996 H 1412.09 -1.49062 0.100409 0
M  V30 14997 H 1413.97 -3.50687 -2.33659 0
M  V30 14998 H 1412.65 -2.31317 -2.26438 0
M  V30 14999 H 1411.56 -3.71725 -0.420871 0
M  V30 15000 H 1412.89 -4.8885 -0.573295 0
M  V30 15001 N 1414.54 -0.0635198 -1.57472 0
M  V30 15002 C 1415.79 0.608384 -1.93459 0
M  V30 15003 C 1416.12 1.6976 -0.943141 0
M  V30 15004 O 1415.4 1.94478 0.0289567 0
M  V30 15005 C 1415.68 1.19302 -3.39763 0
M  V30 15006 C 1415.53 0.11102 -4.49663 0
M  V30 15007 C 1416.85 2.101 -3.86712 0
M  V30 15008 H 1413.97 0.219688 -0.703496 0
M  V30 15009 H 1416.61 -0.127803 -1.8957 0
M  V30 15010 H 1414.76 1.82044 -3.43209 0
M  V30 15011 H 1416.43 -0.521606 -4.58342 0
M  V30 15012 H 1414.68 -0.559408 -4.30178 0
M  V30 15013 H 1415.35 0.560332 -5.49149 0
M  V30 15014 H 1417.82 1.57305 -3.8522 0
M  V30 15015 H 1416.7 2.47945 -4.89708 0
M  V30 15016 H 1416.96 3.00603 -3.24177 0
M  V30 15017 N 1416.02 1.56195 0.209972 0
M  V30 15018 C 1417.44 1.49446 0.56018 0
M  V30 15019 C 1417.64 0.760799 1.86585 0
M  V30 15020 O 1416.69 0.305201 2.50649 0
M  V30 15021 C 1418 2.94054 0.628687 0
M  V30 15022 C 1419.55 3.04641 0.718531 0
M  V30 15023 C 1420.03 4.50631 0.81828 0
M  V30 15024 N 1421.52 4.54721 0.8822 0
M  V30 15025 C 1422.25 5.64976 0.979292 0
M  V30 15026 N 1421.75 6.84955 1.03961 0
M  V30 15027 N 1423.54 5.52854 1.01533 0
M  V30 15028 H 1415.69 2.02316 -0.646674 0
M  V30 15029 H 1417.96 0.920063 -0.228446 0
M  V30 15030 H 1417.66 3.50728 -0.261324 0
M  V30 15031 H 1417.54 3.46592 1.48842 0
M  V30 15032 H 1419.92 2.48026 1.59898 0
M  V30 15033 H 1420 2.55254 -0.167102 0
M  V30 15034 H 1419.65 5.07867 -0.0577557 0
M  V30 15035 H 1419.58 4.97736 1.7195 0
M  V30 15036 H 1422.07 3.68322 0.845433 0
M  V30 15037 H 1422.38 7.64732 1.11379 0
M  V30 15038 H 1420.73 6.87643 1.00854 0
M  V30 15039 H 1423.92 4.58046 0.96494 0
M  V30 15040 H 1424.09 6.38809 1.08754 0
M  V30 15041 N 1417.5 -0.477127 1.50204 0
M  V30 15042 C 1418.45 -1.59664 1.69145 0
M  V30 15043 C 1419.44 -1.59971 0.557294 0
M  V30 15044 O 1420.65 -1.64192 0.737623 0
M  V30 15045 H 1417.02 -0.529706 0.533775 0
M  V30 15046 H 1418.99 -1.40848 2.63067 0
M  V30 15047 C 1417.74 -2.97647 1.79726 0
M  V30 15048 H 1417.06 -2.98127 2.66383 0
M  V30 15049 H 1418.5 -3.75453 1.97006 0
M  V30 15050 C 1416.96 -3.32422 0.547464 0
M  V30 15051 O 1417.49 -4.00454 -0.316115 0
M  V30 15052 N 1415.7 -2.87788 0.40328 0
M  V30 15053 H 1415.25 -2.32598 1.10706 0
M  V30 15054 H 1415.2 -3.11421 -0.431797 0
M  V30 15055 N 1418.98 -1.3968 -0.729882 0
M  V30 15056 C 1419.91 -1.41549 -1.85704 0
M  V30 15057 C 1420.89 -0.278186 -1.6781 0
M  V30 15058 O 1422.07 -0.484749 -1.88053 0
M  V30 15059 C 1419.2 -1.26327 -3.2351 0
M  V30 15060 C 1418.16 -2.37511 -3.56051 0
M  V30 15061 C 1417.48 -2.07375 -4.92849 0
M  V30 15062 C 1418.78 -3.79833 -3.58502 0
M  V30 15063 H 1420.48 -2.35877 -1.84398 0
M  V30 15064 H 1418.02 -1.13536 -0.885747 0
M  V30 15065 H 1419.98 -1.26254 -4.02042 0
M  V30 15066 H 1418.7 -0.284697 -3.25357 0
M  V30 15067 H 1417.36 -2.36809 -2.79852 0
M  V30 15068 H 1417.01 -1.07943 -4.91281 0
M  V30 15069 H 1416.71 -2.81855 -5.15588 0
M  V30 15070 H 1418.23 -2.08961 -5.73731 0
M  V30 15071 H 1419.64 -3.82436 -4.27101 0
M  V30 15072 H 1418.04 -4.53715 -3.92763 0
M  V30 15073 H 1419.11 -4.10443 -2.58195 0
M  V30 15074 N 1420.45 0.960609 -1.2494 0
M  V30 15075 C 1421.39 2.05948 -1.00588 0
M  V30 15076 C 1422.4 1.62777 0.0271261 0
M  V30 15077 O 1423.59 1.77252 -0.210739 0
M  V30 15078 C 1420.69 3.35228 -0.497521 0
M  V30 15079 C 1419.86 4.0727 -1.59531 0
M  V30 15080 C 1418.92 5.14822 -1.08836 0
M  V30 15081 O 1417.95 5.40602 -1.78153 0
M  V30 15082 N 1419.15 5.80453 0.0735067 0
M  V30 15083 H 1421.91 2.27411 -1.95204 0
M  V30 15084 H 1419.47 1.12874 -1.16065 0
M  V30 15085 H 1421.47 4.04447 -0.142979 0
M  V30 15086 H 1420.04 3.10583 0.354546 0
M  V30 15087 H 1419.26 3.32231 -2.12171 0
M  V30 15088 H 1420.54 4.52161 -2.33299 0
M  V30 15089 H 1419.94 5.6192 0.652848 0
M  V30 15090 H 1418.5 6.50754 0.369132 0
M  V30 15091 N 1421.93 1.0643 1.16234 0
M  V30 15092 C 1422.9 0.680383 2.18869 0
M  V30 15093 C 1423.9 -0.274591 1.58438 0
M  V30 15094 O 1425.09 -0.0567907 1.74107 0
M  V30 15095 C 1422.22 0.00134091 3.409 0
M  V30 15096 H 1423.41 1.58894 2.54347 0
M  V30 15097 H 1420.96 0.859688 1.30534 0
M  V30 15098 H 1421.7 -0.919903 3.1098 0
M  V30 15099 H 1421.48 0.688057 3.86016 0
M  V30 15100 H 1422.97 -0.252938 4.16833 0
M  V30 15101 N 1423.41 -1.329 0.847073 0
M  V30 15102 C 1424.34 -2.31546 0.301422 0
M  V30 15103 C 1425.32 -1.59342 -0.595317 0
M  V30 15104 O 1426.51 -1.87188 -0.517151 0
M  V30 15105 C 1423.64 -3.43423 -0.517454 0
M  V30 15106 C 1422.59 -4.27055 0.284195 0
M  V30 15107 C 1421.92 -5.30624 -0.658944 0
M  V30 15108 C 1423.22 -5.00123 1.50578 0
M  V30 15109 H 1424.91 -2.77433 1.12567 0
M  V30 15110 H 1422.46 -1.3338 0.542739 0
M  V30 15111 H 1424.41 -4.11467 -0.909543 0
M  V30 15112 H 1423.13 -2.96246 -1.37499 0
M  V30 15113 H 1421.79 -3.60648 0.657944 0
M  V30 15114 H 1421.44 -4.79702 -1.51311 0
M  V30 15115 H 1421.14 -5.87464 -0.12662 0
M  V30 15116 H 1422.66 -6.01533 -1.04837 0
M  V30 15117 H 1424.08 -5.6089 1.18641 0
M  V30 15118 H 1422.48 -5.66652 1.97549 0
M  V30 15119 H 1423.55 -4.28424 2.27115 0
M  V30 15120 N 1424.89 -0.604284 -1.45555 0
M  V30 15121 C 1425.84 0.116491 -2.30506 0
M  V30 15122 C 1426.81 0.863214 -1.41908 0
M  V30 15123 O 1427.99 0.849606 -1.7084 0
M  V30 15124 C 1425.13 1.11009 -3.26758 0
M  V30 15125 C 1424.24 0.36458 -4.30459 0
M  V30 15126 C 1423.38 1.34761 -5.13822 0
M  V30 15127 C 1422.42 0.589724 -6.09253 0
M  V30 15128 N 1421.55 1.52187 -6.85408 0
M  V30 15129 H 1426.39 -0.61394 -2.91607 0
M  V30 15130 H 1423.93 -0.314561 -1.43697 0
M  V30 15131 H 1425.89 1.69925 -3.81027 0
M  V30 15132 H 1424.52 1.80797 -2.67418 0
M  V30 15133 H 1423.57 -0.340026 -3.78877 0
M  V30 15134 H 1424.88 -0.226906 -4.98284 0
M  V30 15135 H 1424.04 2.00893 -5.72474 0
M  V30 15136 H 1422.78 1.97302 -4.46008 0
M  V30 15137 H 1421.78 -0.0852486 -5.49734 0
M  V30 15138 H 1423.01 -0.0306001 -6.79093 0
M  V30 15139 H 1420.95 2.13499 -6.20286 0
M  V30 15140 H 1420.87 0.983737 -7.49572 0
M  V30 15141 H 1422.14 2.17287 -7.48603 0
M  V30 15142 N 1426.37 1.53816 -0.343257 0
M  V30 15143 C 1427.33 2.23654 0.501161 0
M  V30 15144 C 1428.33 1.23664 1.02781 0
M  V30 15145 O 1429.52 1.48104 0.917103 0
M  V30 15146 C 1426.65 2.95596 1.69812 0
M  V30 15147 H 1427.84 2.997 -0.109626 0
M  V30 15148 H 1425.4 1.56013 -0.0946011 0
M  V30 15149 H 1426.13 2.23736 2.34761 0
M  V30 15150 H 1425.92 3.68938 1.32768 0
M  V30 15151 H 1427.41 3.48748 2.29706 0
M  V30 15152 N 1427.84 0.0718701 1.57436 0
M  V30 15153 C 1428.75 -0.910077 2.16229 0
M  V30 15154 C 1429.77 -1.32699 1.12548 0
M  V30 15155 O 1430.95 -1.39967 1.44814 0
M  V30 15156 C 1428.01 -2.15942 2.71238 0
M  V30 15157 C 1427.07 -1.79891 3.89792 0
M  V30 15158 C 1426.31 -2.9887 4.42168 0
M  V30 15159 O 1426.53 -4.1289 3.93545 0
M  V30 15160 O 1425.46 -2.78682 5.33498 0
M  V30 15161 H 1429.29 -0.439969 3.00496 0
M  V30 15162 H 1426.87 -0.151204 1.48633 0
M  V30 15163 H 1428.76 -2.89204 3.06494 0
M  V30 15164 H 1427.43 -2.62051 1.90029 0
M  V30 15165 H 1426.34 -1.03881 3.59388 0
M  V30 15166 H 1427.67 -1.38566 4.72293 0
M  V30 15167 N 1429.32 -1.56304 -0.201686 0
M  V30 15168 C 1430.23 -1.97215 -1.27057 0
M  V30 15169 C 1431.25 -0.878834 -1.50175 0
M  V30 15170 O 1432.42 -1.18405 -1.62918 0
M  V30 15171 C 1429.49 -2.29772 -2.59626 0
M  V30 15172 C 1428.55 -3.52776 -2.44637 0
M  V30 15173 C 1427.78 -3.83771 -3.70885 0
M  V30 15174 O 1428.01 -3.16149 -4.7477 0
M  V30 15175 O 1426.94 -4.77216 -3.66808 0
M  V30 15176 H 1430.77 -2.88347 -0.953393 0
M  V30 15177 H 1428.35 -1.43773 -0.406158 0
M  V30 15178 H 1430.23 -2.51817 -3.37885 0
M  V30 15179 H 1428.91 -1.41809 -2.90984 0
M  V30 15180 H 1427.82 -3.35986 -1.64512 0
M  V30 15181 H 1429.15 -4.41184 -2.18214 0
M  V30 15182 N 1430.8 0.469154 -1.50455 0
M  V30 15183 C 1432.22 0.803067 -1.37924 0
M  V30 15184 C 1432.42 1.96708 -0.436837 0
M  V30 15185 O 1431.47 2.52216 0.119823 0
M  V30 15186 C 1432.79 1.11332 -2.79331 0
M  V30 15187 C 1434.33 1.21965 -2.88259 0
M  V30 15188 C 1434.81 1.56302 -4.30504 0
M  V30 15189 N 1436.3 1.6329 -4.33464 0
M  V30 15190 C 1437.03 1.91367 -5.40524 0
M  V30 15191 N 1436.53 2.17451 -6.57789 0
M  V30 15192 N 1438.32 1.92885 -5.2797 0
M  V30 15193 H 1430.47 -0.297928 -2.103 0
M  V30 15194 H 1432.74 -0.0707794 -0.945354 0
M  V30 15195 H 1432.44 0.331052 -3.50138 0
M  V30 15196 H 1432.32 2.04903 -3.16693 0
M  V30 15197 H 1434.7 1.99259 -2.17669 0
M  V30 15198 H 1434.79 0.263692 -2.54437 0
M  V30 15199 H 1434.43 0.795479 -5.01632 0
M  V30 15200 H 1434.36 2.53052 -4.61814 0
M  V30 15201 H 1436.85 1.45164 -3.48907 0
M  V30 15202 H 1437.16 2.38154 -7.35189 0
M  V30 15203 H 1435.51 2.14839 -6.60961 0
M  V30 15204 H 1438.7 1.72005 -4.35353 0
M  V30 15205 H 1438.87 2.1443 -6.11493 0
M  V30 15206 N 1432.28 1.40065 0.722464 0
M  V30 15207 C 1433.69 1.21944 1.02965 0
M  V30 15208 C 1433.89 0.0898069 2.013 0
M  V30 15209 O 1432.95 -0.554519 2.46336 0
M  V30 15210 C 1434.26 2.55848 1.57995 0
M  V30 15211 C 1435.81 2.62801 1.70013 0
M  V30 15212 C 1436.29 3.96957 2.2845 0
M  V30 15213 N 1437.78 3.98662 2.35844 0
M  V30 15214 C 1438.51 4.99248 2.82026 0
M  V30 15215 N 1438.01 6.1023 3.28012 0
M  V30 15216 N 1439.8 4.8662 2.81349 0
M  V30 15217 H 1431.95 2.12283 0.0705301 0
M  V30 15218 H 1434.22 0.943338 0.0938991 0
M  V30 15219 H 1433.92 3.39125 0.932034 0
M  V30 15220 H 1433.8 2.76452 2.5662 0
M  V30 15221 H 1436.18 1.799 2.33923 0
M  V30 15222 H 1436.26 2.46034 0.700062 0
M  V30 15223 H 1435.91 4.80295 1.65164 0
M  V30 15224 H 1435.84 4.1105 3.29158 0
M  V30 15225 H 1438.33 3.18518 2.03358 0
M  V30 15226 H 1438.64 6.82878 3.61797 0
M  V30 15227 H 1436.99 6.13805 3.25988 0
M  V30 15228 H 1440.18 3.99015 2.44755 0
M  V30 15229 H 1440.35 5.65155 3.17024 0
M  V30 15230 N 1433.76 -0.95397 1.25448 0
M  V30 15231 C 1435 -1.70118 1.10399 0
M  V30 15232 C 1435.34 -1.90945 -0.354093 0
M  V30 15233 O 1434.61 -1.48088 -1.26096 0
M  V30 15234 C 1434.89 -3.08371 1.85955 0
M  V30 15235 C 1434.75 -2.9495 3.39595 0
M  V30 15236 C 1436.07 -4.08273 1.64321 0
M  V30 15237 H 1433.19 -0.617424 0.402438 0
M  V30 15238 H 1435.83 -1.10884 1.54288 0
M  V30 15239 H 1433.98 -3.58936 1.48651 0
M  V30 15240 H 1435.65 -2.51705 3.86578 0
M  V30 15241 H 1433.89 -2.30853 3.67273 0
M  V30 15242 H 1434.56 -3.92952 3.87676 0
M  V30 15243 H 1437.04 -3.6662 1.96796 0
M  V30 15244 H 1435.92 -5.03048 2.19622 0
M  V30 15245 H 1436.18 -4.38217 0.584685 0
M  V30 15246 N 1435.24 -1.07045 -1.15668 0
M  V30 15247 C 1436.2 -0.69198 -2.18505 0
M  V30 15248 C 1437.2 0.266185 -1.58582 0
M  V30 15249 O 1438.39 0.0475566 -1.74135 0
M  V30 15250 C 1435.52 -0.0194196 -3.40894 0
M  V30 15251 H 1436.71 -1.60241 -2.53501 0
M  V30 15252 H 1434.27 -0.866598 -1.30076 0
M  V30 15253 H 1435 0.903398 -3.11463 0
M  V30 15254 H 1434.79 -0.708519 -3.85645 0
M  V30 15255 H 1436.28 0.230829 -4.16962 0
M  V30 15256 N 1436.71 1.32449 -0.85411 0
M  V30 15257 C 1437.66 2.26394 -0.270121 0
M  V30 15258 C 1438.65 1.49939 0.58371 0
M  V30 15259 O 1439.84 1.71617 0.433182 0
M  V30 15260 C 1436.97 3.3901 0.540998 0
M  V30 15261 C 1436.05 4.22851 -0.32519 0
M  V30 15262 N 1436.45 4.85715 -1.41118 0
M  V30 15263 C 1434.74 4.45852 -0.114845 0
M  V30 15264 C 1435.44 5.48254 -1.94402 0
M  V30 15265 N 1434.42 5.29192 -1.24327 0
M  V30 15266 H 1438.22 2.72523 -1.10037 0
M  V30 15267 H 1435.74 1.46531 -0.700167 0
M  V30 15268 H 1437.73 4.0532 0.975778 0
M  V30 15269 H 1436.39 2.94427 1.36905 0
M  V30 15270 H 1437.4 4.85831 -1.79411 0
M  V30 15271 H 1434.08 4.11949 0.678533 0
M  V30 15272 H 1435.47 6.08259 -2.8543 0
M  V30 15273 N 1438.19 0.611994 1.45232 0
M  V30 15274 C 1439.12 -0.0914869 2.33321 0
M  V30 15275 C 1440.1 -0.854315 1.4709 0
M  V30 15276 O 1441.29 -0.823994 1.75852 0
M  V30 15277 C 1438.42 -1.08652 3.29867 0
M  V30 15278 C 1437.37 -0.436615 4.25767 0
M  V30 15279 C 1436.7 -1.54021 5.12037 0
M  V30 15280 C 1438 0.645005 5.18302 0
M  V30 15281 H 1439.69 0.644053 2.92391 0
M  V30 15282 H 1437.24 0.311171 1.40598 0
M  V30 15283 H 1439.19 -1.58726 3.90364 0
M  V30 15284 H 1437.91 -1.85271 2.68965 0
M  V30 15285 H 1436.57 0.0432918 3.66574 0
M  V30 15286 H 1436.22 -2.29679 4.475 0
M  V30 15287 H 1435.92 -1.11084 5.77005 0
M  V30 15288 H 1437.45 -2.04313 5.75403 0
M  V30 15289 H 1438.86 0.228166 5.72846 0
M  V30 15290 H 1437.26 0.996387 5.9177 0
M  V30 15291 H 1438.33 1.51985 4.60466 0
M  V30 15292 N 1439.67 -1.53632 0.351409 0
M  V30 15293 C 1440.62 -2.26782 -0.516983 0
M  V30 15294 C 1441.61 -1.29222 -1.09536 0
M  V30 15295 O 1442.82 -1.46901 -1.04019 0
M  V30 15296 H 1439.19 -0.728783 -0.185417 0
M  V30 15297 H 1441.16 -2.98151 0.121909 0
M  V30 15298 C 1439.91 -3.05943 -1.6521 0
M  V30 15299 H 1439.24 -3.80848 -1.21633 0
M  V30 15300 H 1440.68 -3.60328 -2.23472 0
M  V30 15301 C 1439.13 -2.15917 -2.58614 0
M  V30 15302 O 1439.66 -1.76049 -3.61067 0
M  V30 15303 N 1437.87 -1.80837 -2.27478 0
M  V30 15304 H 1437.42 -2.13456 -1.44202 0
M  V30 15305 H 1437.38 -1.20886 -2.90231 0
M  V30 15306 N 1441.15 -0.0802183 -1.57396 0
M  V30 15307 C 1442.09 0.884041 -2.13198 0
M  V30 15308 C 1443.06 1.28975 -1.04664 0
M  V30 15309 O 1444.25 1.37413 -1.32372 0
M  V30 15310 C 1441.39 2.14323 -2.7048 0
M  V30 15311 C 1440.5 1.7894 -3.93198 0
M  V30 15312 C 1439.64 2.99534 -4.38695 0
M  V30 15313 C 1438.68 2.60207 -5.54039 0
M  V30 15314 N 1437.81 3.73587 -5.94455 0
M  V30 15315 H 1442.65 0.40131 -2.95285 0
M  V30 15316 H 1440.19 0.186429 -1.45914 0
M  V30 15317 H 1442.15 2.88046 -3.01804 0
M  V30 15318 H 1440.78 2.60122 -1.91144 0
M  V30 15319 H 1439.83 0.952465 -3.68283 0
M  V30 15320 H 1441.14 1.46012 -4.76951 0
M  V30 15321 H 1440.3 3.81526 -4.71724 0
M  V30 15322 H 1439.04 3.35661 -3.53812 0
M  V30 15323 H 1438.04 1.76638 -5.20652 0
M  V30 15324 H 1439.27 2.2524 -6.40659 0
M  V30 15325 H 1437.21 4.0946 -5.12521 0
M  V30 15326 H 1437.13 3.44455 -6.72969 0
M  V30 15327 H 1438.4 4.56133 -6.3211 0
M  V30 15328 N 1442.63 1.56409 0.193394 0
M  V30 15329 C 1443.86 1.84569 0.928328 0
M  V30 15330 C 1444.26 0.660788 1.77286 0
M  V30 15331 O 1443.61 -0.379752 1.79732 0
M  V30 15332 C 1443.67 3.06854 1.87299 0
M  V30 15333 C 1443.33 4.40684 1.21025 0
M  V30 15334 C 1444.33 5.16583 0.58635 0
M  V30 15335 C 1442.01 4.87419 1.21359 0
M  V30 15336 C 1444.01 6.37395 -0.0253573 0
M  V30 15337 C 1441.7 6.08167 0.598052 0
M  V30 15338 C 1442.69 6.82997 -0.0203414 0
M  V30 15339 O 1442.38 8.01457 -0.626232 0
M  V30 15340 H 1442.11 0.616966 0.276277 0
M  V30 15341 H 1444.67 2.04373 0.205102 0
M  V30 15342 H 1442.9 2.82938 2.63596 0
M  V30 15343 H 1444.59 3.21645 2.47587 0
M  V30 15344 H 1445.35 4.81569 0.575894 0
M  V30 15345 H 1441.23 4.29129 1.68432 0
M  V30 15346 H 1444.78 6.95743 -0.508644 0
M  V30 15347 H 1440.67 6.42649 0.606017 0
M  V30 15348 H 1441.44 8.16825 -0.523305 0
M  V30 15349 N 1444.1 -0.461169 1.50702 0
M  V30 15350 C 1445.03 -1.56576 1.73223 0
M  V30 15351 C 1446.01 -1.59855 0.581401 0
M  V30 15352 O 1447.2 -1.75964 0.821602 0
M  V30 15353 C 1444.33 -2.94835 1.83548 0
M  V30 15354 C 1443.28 -3.06421 2.98815 0
M  V30 15355 C 1442.61 -4.46425 2.94293 0
M  V30 15356 C 1443.91 -2.82714 4.3917 0
M  V30 15357 H 1445.6 -1.37982 2.65709 0
M  V30 15358 H 1443.15 -0.662362 1.27862 0
M  V30 15359 H 1445.1 -3.72047 1.97887 0
M  V30 15360 H 1443.83 -3.14608 0.876906 0
M  V30 15361 H 1442.49 -2.31644 2.84142 0
M  V30 15362 H 1442.13 -4.63131 1.96262 0
M  V30 15363 H 1441.83 -4.55111 3.71682 0
M  V30 15364 H 1443.36 -5.25644 3.10695 0
M  V30 15365 H 1444.77 -3.4967 4.54317 0
M  V30 15366 H 1443.17 -3.02835 5.18084 0
M  V30 15367 H 1444.24 -1.78492 4.50853 0
M  V30 15368 N 1445.58 -1.40446 -0.715026 0
M  V30 15369 C 1446.81 -1.4207 -1.50412 0
M  V30 15370 C 1447.22 -0.0205547 -1.88789 0
M  V30 15371 O 1446.58 0.955635 -1.55479 0
M  V30 15372 C 1446.63 -2.3119 -2.77909 0
M  V30 15373 O 1446.35 -3.65754 -2.41154 0
M  V30 15374 C 1447.85 -2.41412 -3.718 0
M  V30 15375 H 1445.07 -0.484554 -0.464164 0
M  V30 15376 H 1447.62 -1.84504 -0.881964 0
M  V30 15377 H 1445.77 -1.92117 -3.36407 0
M  V30 15378 H 1446.19 -4.13091 -3.23197 0
M  V30 15379 H 1447.66 -3.07976 -4.58099 0
M  V30 15380 H 1448.14 -1.43934 -4.14945 0
M  V30 15381 H 1448.74 -2.81039 -3.19213 0
M  V30 15382 N 1447.06 0.947303 -1.25952 0
M  V30 15383 C 1447.97 2.07878 -1.08738 0
M  V30 15384 C 1448.99 1.73985 -0.0225212 0
M  V30 15385 O 1450.16 2.00139 -0.224984 0
M  V30 15386 C 1447.23 3.39231 -0.715756 0
M  V30 15387 C 1446.29 3.86945 -1.85935 0
M  V30 15388 C 1445.52 5.1203 -1.50537 0
M  V30 15389 O 1445.74 5.68965 -0.404323 0
M  V30 15390 O 1444.68 5.54634 -2.33805 0
M  V30 15391 H 1448.5 2.25305 -2.03645 0
M  V30 15392 H 1446.09 1.06321 -1.04958 0
M  V30 15393 H 1447.97 4.18167 -0.520962 0
M  V30 15394 H 1446.65 3.23057 0.203978 0
M  V30 15395 H 1445.55 3.08981 -2.10906 0
M  V30 15396 H 1446.89 4.0763 -2.75859 0
M  V30 15397 N 1448.54 1.07657 1.15099 0
M  V30 15398 C 1449.76 0.82291 1.90376 0
M  V30 15399 C 1450.19 -0.618415 1.77644 0
M  V30 15400 O 1449.55 -1.43248 1.11129 0
M  V30 15401 C 1449.59 1.23988 3.38614 0
M  V30 15402 O 1448.7 0.387085 4.10579 0
M  V30 15403 H 1448.04 0.299532 0.592602 0
M  V30 15404 H 1450.57 1.436 1.4574 0
M  V30 15405 H 1450.58 1.21741 3.89414 0
M  V30 15406 H 1449.25 2.28966 3.472 0
M  V30 15407 H 1447.83 0.472311 3.69897 0
M  V30 15408 N 1450.02 -1.31994 0.861122 0
M  V30 15409 C 1451.26 -1.97317 0.468371 0
M  V30 15410 C 1451.6 -1.67954 -0.974941 0
M  V30 15411 O 1450.87 -0.971243 -1.68514 0
M  V30 15412 C 1451.15 -3.52918 0.715607 0
M  V30 15413 C 1451.01 -3.91888 2.20781 0
M  V30 15414 C 1452.33 -4.39747 0.17624 0
M  V30 15415 H 1449.44 -0.716733 0.171646 0
M  V30 15416 H 1452.09 -1.56269 1.08074 0
M  V30 15417 H 1450.24 -3.88013 0.194387 0
M  V30 15418 H 1451.91 -3.66938 2.7956 0
M  V30 15419 H 1450.15 -3.40813 2.68382 0
M  V30 15420 H 1450.82 -5.00346 2.33147 0
M  V30 15421 H 1453.3 -4.11424 0.622043 0
M  V30 15422 H 1452.17 -5.47592 0.378748 0
M  V30 15423 H 1452.44 -4.32393 -0.921358 0
M  V30 15424 N 1451.49 -0.619688 -1.44906 0
M  V30 15425 C 1452.42 0.0791121 -2.33366 0
M  V30 15426 C 1453.41 0.846503 -1.47541 0
M  V30 15427 O 1454.59 0.814657 -1.76287 0
M  V30 15428 C 1451.72 1.06901 -3.30438 0
M  V30 15429 C 1450.67 0.41403 -4.25993 0
M  V30 15430 C 1450 1.51303 -5.12846 0
M  V30 15431 C 1451.3 -0.672483 -5.17953 0
M  V30 15432 H 1452.99 -0.659551 -2.92045 0
M  V30 15433 H 1450.54 -0.318623 -1.40431 0
M  V30 15434 H 1452.49 1.56653 -3.912 0
M  V30 15435 H 1451.22 1.83842 -2.69944 0
M  V30 15436 H 1449.88 -0.0627315 -3.66546 0
M  V30 15437 H 1449.52 2.27303 -4.48712 0
M  V30 15438 H 1449.22 1.08022 -5.77586 0
M  V30 15439 H 1450.75 2.01258 -5.76479 0
M  V30 15440 H 1452.16 -0.258542 -5.72717 0
M  V30 15441 H 1450.56 -1.02776 -5.91234 0
M  V30 15442 H 1451.63 -1.54425 -4.59653 0
M  V30 15443 N 1452.97 1.53444 -0.359552 0
M  V30 15444 C 1454.39 1.59598 -0.00824946 0
M  V30 15445 C 1454.59 1.37492 1.47303 0
M  V30 15446 O 1453.64 1.1771 2.23385 0
M  V30 15447 C 1454.96 2.9718 -0.45878 0
M  V30 15448 C 1456.51 3.1027 -0.412485 0
M  V30 15449 C 1456.98 4.50255 -0.838733 0
M  V30 15450 N 1458.47 4.56352 -0.793552 0
M  V30 15451 C 1459.21 5.62845 -1.09513 0
M  V30 15452 N 1458.7 6.77119 -1.46567 0
M  V30 15453 N 1460.5 5.52799 -1.01832 0
M  V30 15454 H 1452.65 1.66065 -1.32424 0
M  V30 15455 H 1454.91 0.778561 -0.540876 0
M  V30 15456 H 1454.62 3.18475 -1.4922 0
M  V30 15457 H 1454.49 3.7687 0.157741 0
M  V30 15458 H 1456.88 2.88689 0.611791 0
M  V30 15459 H 1456.96 2.32602 -1.06442 0
M  V30 15460 H 1456.6 4.72573 -1.8611 0
M  V30 15461 H 1456.53 5.26344 -0.164109 0
M  V30 15462 H 1459.02 3.74299 -0.52048 0
M  V30 15463 H 1459.34 7.54313 -1.68021 0
M  V30 15464 H 1457.68 6.78525 -1.50427 0
M  V30 15465 H 1460.87 4.62403 -0.728059 0
M  V30 15466 H 1461.04 6.35698 -1.25668 0
M  V30 15467 N 1454.45 0.0885642 1.57351 0
M  V30 15468 C 1455.87 -0.268088 1.57332 0
M  V30 15469 C 1456.07 -1.68875 1.09924 0
M  V30 15470 O 1455.12 -2.40385 0.772729 0
M  V30 15471 C 1456.44 -0.0624654 3.00635 0
M  V30 15472 C 1457.98 -0.130717 3.12727 0
M  V30 15473 C 1458.46 0.0468305 4.57976 0
M  V30 15474 N 1459.95 -0.00822093 4.63199 0
M  V30 15475 C 1460.68 0.104497 5.73305 0
M  V30 15476 N 1460.18 0.271682 6.92267 0
M  V30 15477 N 1461.97 0.0462333 5.62081 0
M  V30 15478 H 1454.12 1.01686 1.86477 0
M  V30 15479 H 1456.39 0.397971 0.86042 0
M  V30 15480 H 1456.09 0.918505 3.39494 0
M  V30 15481 H 1455.97 -0.807602 3.68453 0
M  V30 15482 H 1458.35 -1.10219 2.73744 0
M  V30 15483 H 1458.44 0.645801 2.47514 0
M  V30 15484 H 1458.08 1.01514 4.97652 0
M  V30 15485 H 1458.01 -0.7493 5.21242 0
M  V30 15486 H 1460.5 -0.135164 3.77658 0
M  V30 15487 H 1460.81 0.349381 7.7201 0
M  V30 15488 H 1459.16 0.307265 6.9432 0
M  V30 15489 H 1462.35 -0.0831995 4.68026 0
M  V30 15490 H 1462.52 0.137529 6.47854 0
M  V30 15491 N 1455.93 -1.56509 -0.185096 0
M  V30 15492 C 1457.18 -1.81206 -0.903924 0
M  V30 15493 C 1457.5 -0.663423 -1.82836 0
M  V30 15494 O 1456.76 0.350211 -1.92541 0
M  V30 15495 C 1457.06 -3.11968 -1.74387 0
M  V30 15496 C 1456.72 -4.40353 -0.969552 0
M  V30 15497 C 1455.39 -4.75227 -0.755799 0
M  V30 15498 C 1457.74 -5.19461 -0.425443 0
M  V30 15499 C 1455.07 -5.86698 0.0133856 0
M  V30 15500 C 1457.42 -6.31736 0.330582 0
M  V30 15501 C 1456.08 -6.65187 0.555262 0
M  V30 15502 H 1455.35 -0.663078 -0.330769 0
M  V30 15503 H 1458 -1.90747 -0.169673 0
M  V30 15504 H 1456.3 -2.97708 -2.5471 0
M  V30 15505 H 1458 -3.28284 -2.30284 0
M  V30 15506 H 1454.59 -4.1299 -1.14618 0
M  V30 15507 H 1458.77 -4.92923 -0.577959 0
M  V30 15508 H 1454.03 -6.11081 0.197335 0
M  V30 15509 H 1458.2 -6.92246 0.759523 0
M  V30 15510 H 1455.83 -7.51403 1.15318 0
M  V30 15511 N 1457.41 0.45317 -1.50944 0
M  V30 15512 C 1458.34 1.55655 -1.74051 0
M  V30 15513 C 1459.32 1.59545 -0.58987 0
M  V30 15514 O 1460.5 1.75526 -0.830922 0
M  V30 15515 C 1457.63 2.93857 -1.85109 0
M  V30 15516 C 1456.59 3.04832 -3.00435 0
M  V30 15517 C 1455.91 4.44858 -2.96657 0
M  V30 15518 C 1457.21 2.80381 -4.40663 0
M  V30 15519 H 1458.91 1.36571 -2.66437 0
M  V30 15520 H 1456.45 0.655572 -1.28212 0
M  V30 15521 H 1458.41 3.70992 -1.99857 0
M  V30 15522 H 1457.13 3.14138 -0.893579 0
M  V30 15523 H 1455.79 2.30134 -2.85366 0
M  V30 15524 H 1455.44 4.62083 -1.98716 0
M  V30 15525 H 1455.14 4.53134 -3.7409 0
M  V30 15526 H 1456.66 5.23989 -3.13478 0
M  V30 15527 H 1458.07 3.47255 -4.56165 0
M  V30 15528 H 1456.47 3.00083 -5.19683 0
M  V30 15529 H 1457.54 1.76099 -4.51793 0
M  V30 15530 N 1458.88 1.40823 0.707568 0
M  V30 15531 C 1460.3 1.35249 1.28704 0
M  V30 15532 C 1460.65 0.0298026 1.96177 0
M  V30 15533 O 1459.77 -0.872126 1.98048 0
M  V30 15534 C 1460.37 2.44965 2.34046 0
M  V30 15535 C 1458.93 2.42826 2.87598 0
M  V30 15536 C 1458.07 2.25429 1.61483 0
M  V30 15537 H 1461.02 1.50513 0.503141 0
M  V30 15538 H 1461.04 2.13334 3.1507 0
M  V30 15539 H 1460.56 3.41219 1.84908 0
M  V30 15540 H 1458.66 1.50294 3.40944 0
M  V30 15541 H 1458.77 3.38704 3.38845 0
M  V30 15542 H 1457.13 1.73089 1.86848 0
M  V30 15543 H 1457.92 3.23693 1.14359 0
M  V30 15544 N 1460.36 -0.94061 1.26453 0
M  V30 15545 C 1461.27 -2.07298 1.09839 0
M  V30 15546 C 1462.29 -1.73971 0.0317477 0
M  V30 15547 O 1463.46 -2.00017 0.235594 0
M  V30 15548 C 1460.53 -3.38847 0.733736 0
M  V30 15549 C 1459.59 -3.85954 1.87985 0
M  V30 15550 C 1458.82 -5.11224 1.5325 0
M  V30 15551 O 1459.05 -5.68743 0.434491 0
M  V30 15552 O 1457.98 -5.53386 2.36743 0
M  V30 15553 H 1461.81 -2.24222 2.04837 0
M  V30 15554 H 1459.39 -1.05763 1.0552 0
M  V30 15555 H 1461.27 -4.17885 0.543131 0
M  V30 15556 H 1459.95 -3.2316 -0.186843 0
M  V30 15557 H 1458.86 -3.07858 2.12542 0
M  V30 15558 H 1460.19 -4.06162 2.78017 0
M  V30 15559 N 1461.84 -1.08266 -1.14527 0
M  V30 15560 C 1463.07 -0.832994 -1.89937 0
M  V30 15561 C 1463.49 0.608985 -1.77969 0
M  V30 15562 O 1462.85 1.42657 -1.11887 0
M  V30 15563 C 1462.9 -1.25782 -3.37952 0
M  V30 15564 O 1462 -0.408853 -4.10368 0
M  V30 15565 H 1461.34 -0.30267 -0.591005 0
M  V30 15566 H 1463.87 -1.44371 -1.44977 0
M  V30 15567 H 1463.88 -1.23804 -3.88763 0
M  V30 15568 H 1462.56 -2.30804 -3.4598 0
M  V30 15569 H 1461.13 -0.49192 -3.69641 0
M  V30 15570 N 1463.32 1.31536 -0.86811 0
M  V30 15571 C 1464.25 2.2663 -0.2672 0
M  V30 15572 C 1465.23 1.51023 0.602574 0
M  V30 15573 O 1466.41 1.80101 0.556408 0
M  V30 15574 C 1463.54 3.32943 0.62183 0
M  V30 15575 C 1462.59 4.26135 -0.176348 0
M  V30 15576 S 1463.42 5.12467 -1.55363 0
M  V30 15577 C 1464.58 6.22296 -0.670673 0
M  V30 15578 H 1464.81 2.7725 -1.07331 0
M  V30 15579 H 1462.34 1.39273 -0.666521 0
M  V30 15580 H 1464.3 3.94667 1.12908 0
M  V30 15581 H 1462.96 2.81081 1.40187 0
M  V30 15582 H 1462.15 5.015 0.501358 0
M  V30 15583 H 1461.76 3.68898 -0.61563 0
M  V30 15584 H 1464.05 6.77395 0.119508 0
M  V30 15585 H 1464.99 6.94215 -1.39539 0
M  V30 15586 H 1465.4 5.63994 -0.239048 0
M  V30 15587 N 1464.8 0.627364 1.44575 0
M  V30 15588 C 1466.04 0.130545 2.02379 0
M  V30 15589 C 1466.38 -1.24301 1.49208 0
M  V30 15590 O 1465.65 -1.82425 0.674626 0
M  V30 15591 C 1465.93 0.11311 3.59922 0
M  V30 15592 C 1465.79 1.51874 4.23385 0
M  V30 15593 C 1467.11 -0.564341 4.36467 0
M  V30 15594 H 1464.23 0.0489125 0.735375 0
M  V30 15595 H 1466.87 0.803118 1.72192 0
M  V30 15596 H 1465.02 -0.459621 3.85772 0
M  V30 15597 H 1466.69 2.14007 4.08655 0
M  V30 15598 H 1464.93 2.07371 3.81024 0
M  V30 15599 H 1465.6 1.4586 5.3238 0
M  V30 15600 H 1468.08 -0.0773244 4.16028 0
M  V30 15601 H 1466.96 -0.545715 5.46181 0
M  V30 15602 H 1467.22 -1.63403 4.10794 0
M  V30 15603 N 1466.28 -1.53251 0.367684 0
M  V30 15604 C 1467.22 -2.258 -0.477802 0
M  V30 15605 C 1468.19 -1.26554 -1.07579 0
M  V30 15606 O 1469.38 -1.5534 -1.10788 0
M  V30 15607 C 1466.52 -3.05216 -1.6105 0
M  V30 15608 C 1465.63 -4.19357 -1.03748 0
M  V30 15609 C 1464.77 -4.86211 -2.13945 0
M  V30 15610 C 1463.8 -5.9238 -1.5412 0
M  V30 15611 N 1462.94 -6.52916 -2.58158 0
M  V30 15612 H 1467.78 -2.97635 0.147367 0
M  V30 15613 H 1465.32 -1.46857 0.084495 0
M  V30 15614 H 1467.28 -3.49536 -2.27772 0
M  V30 15615 H 1465.91 -2.35632 -2.20629 0
M  V30 15616 H 1464.96 -3.79507 -0.260476 0
M  V30 15617 H 1466.27 -4.95645 -0.560105 0
M  V30 15618 H 1465.42 -5.33725 -2.88483 0
M  V30 15619 H 1464.16 -4.09399 -2.65035 0
M  V30 15620 H 1463.17 -5.44225 -0.780968 0
M  V30 15621 H 1464.39 -6.71112 -1.03852 0
M  V30 15622 H 1462.34 -5.78956 -3.08457 0
M  V30 15623 H 1462.26 -7.2475 -2.15113 0
M  V30 15624 H 1463.52 -7.05079 -3.32392 0
M  V30 15625 N 1467.75 -0.0969077 -1.57302 0
M  V30 15626 C 1468.7 0.861379 -2.14124 0
M  V30 15627 C 1469.67 1.27858 -1.06026 0
M  V30 15628 O 1470.86 1.36001 -1.33822 0
M  V30 15629 C 1468 2.11443 -2.72738 0
M  V30 15630 C 1467.11 1.7476 -3.95074 0
M  V30 15631 C 1466.24 2.94864 -4.41847 0
M  V30 15632 C 1465.28 2.54316 -5.56767 0
M  V30 15633 N 1464.42 3.67261 -5.98384 0
M  V30 15634 H 1469.26 0.369968 -2.95694 0
M  V30 15635 H 1466.8 0.170943 -1.46103 0
M  V30 15636 H 1468.75 2.84829 -3.04842 0
M  V30 15637 H 1467.38 2.5808 -1.93893 0
M  V30 15638 H 1466.44 0.91335 -3.69272 0
M  V30 15639 H 1467.75 1.40946 -4.78472 0
M  V30 15640 H 1466.9 3.76501 -4.75744 0
M  V30 15641 H 1465.64 3.31889 -3.57352 0
M  V30 15642 H 1464.65 1.71106 -5.22497 0
M  V30 15643 H 1465.87 2.18432 -6.43012 0
M  V30 15644 H 1463.82 4.04001 -5.16836 0
M  V30 15645 H 1463.73 3.37298 -6.76584 0
M  V30 15646 H 1465 4.49403 -6.36912 0
M  V30 15647 N 1469.23 1.56605 0.176793 0
M  V30 15648 C 1470.19 1.95109 1.20271 0
M  V30 15649 C 1471.19 0.83414 1.37473 0
M  V30 15650 O 1472.38 1.10128 1.34972 0
M  V30 15651 C 1469.52 2.24112 2.56878 0
M  V30 15652 H 1470.71 2.86909 0.87312 0
M  V30 15653 H 1468.26 1.50578 0.419033 0
M  V30 15654 H 1469 1.35009 2.94861 0
M  V30 15655 H 1468.78 3.05523 2.45761 0
M  V30 15656 H 1470.27 2.54842 3.30825 0
M  V30 15657 N 1470.71 -0.445159 1.51182 0
M  V30 15658 C 1471.67 -1.52224 1.71349 0
M  V30 15659 C 1472.67 -1.49834 0.583632 0
M  V30 15660 O 1473.86 -1.51995 0.85107 0
M  V30 15661 C 1470.99 -2.91789 1.76273 0
M  V30 15662 H 1472.19 -1.35649 2.67468 0
M  V30 15663 H 1469.74 -0.673312 1.41054 0
M  V30 15664 H 1470.48 -3.13777 0.819405 0
M  V30 15665 H 1470.26 -2.94928 2.58379 0
M  V30 15666 H 1471.75 -3.69938 1.93741 0
M  V30 15667 N 1472.19 -1.41197 -0.700089 0
M  V30 15668 C 1473.15 -1.42419 -1.79582 0
M  V30 15669 C 1474.15 -0.31551 -1.57674 0
M  V30 15670 O 1475.34 -0.575173 -1.64431 0
M  V30 15671 C 1472.47 -1.23114 -3.17893 0
M  V30 15672 H 1473.67 -2.39956 -1.79892 0
M  V30 15673 H 1471.22 -1.27273 -0.907271 0
M  V30 15674 H 1471.95 -0.263992 -3.23224 0
M  V30 15675 H 1471.74 -2.03437 -3.35195 0
M  V30 15676 H 1473.23 -1.26793 -3.97886 0
M  V30 15677 N 1473.67 0.933891 -1.2695 0
M  V30 15678 C 1474.91 1.67759 -1.12701 0
M  V30 15679 C 1475.23 1.92207 0.328848 0
M  V30 15680 O 1474.5 1.52394 1.23097 0
M  V30 15681 H 1473.08 0.621729 -0.41408 0
M  V30 15682 H 1475.75 1.1217 -1.59386 0
M  V30 15683 H 1474.84 2.64834 -1.65135 0
M  V30 15684 N 1475.14 1.08871 1.13951 0
M  V30 15685 C 1476.42 0.73388 1.81311 0
M  V30 15686 C 1476.8 -0.781824 1.96089 0
M  V30 15687 O 1476.15 -1.70211 1.52448 0
M  V30 15688 C 1476.36 1.46631 3.16702 0
M  V30 15689 C 1477.71 1.62843 3.92132 0
M  V30 15690 O 1478.73 1.42836 3.26307 0
M  V30 15691 O 1477.59 1.95893 5.10185 0
M  V30 15692 H 1474.68 0.262976 0.784074 0
M  V30 15693 H 1477.23 1.19057 1.20927 0
M  V30 15694 H 1476 2.49863 3.01138 0
M  V30 15695 H 1475.62 1.00141 3.84782 0
M  V30 15696 N 1476.62 -1.31073 0.875073 0
M  V30 15697 C 1477.55 -2.30855 0.350468 0
M  V30 15698 C 1478.53 -1.60569 -0.561384 0
M  V30 15699 O 1479.72 -1.88242 -0.477329 0
M  V30 15700 C 1476.85 -3.44444 -0.444493 0
M  V30 15701 C 1475.8 -4.26357 0.374716 0
M  V30 15702 C 1475.13 -5.31903 -0.546243 0
M  V30 15703 C 1476.43 -4.96817 1.61153 0
M  V30 15704 H 1478.12 -2.74983 1.18427 0
M  V30 15705 H 1475.67 -1.32199 0.570909 0
M  V30 15706 H 1477.62 -4.13304 -0.82206 0
M  V30 15707 H 1476.34 -2.99096 -1.31185 0
M  V30 15708 H 1475 -3.59171 0.734295 0
M  V30 15709 H 1474.65 -4.82803 -1.41102 0
M  V30 15710 H 1474.35 -5.876 -0.00198173 0
M  V30 15711 H 1475.88 -6.03621 -0.920542 0
M  V30 15712 H 1477.29 -5.58247 1.30511 0
M  V30 15713 H 1475.69 -5.62334 2.09524 0
M  V30 15714 H 1476.76 -4.2351 2.36151 0
M  V30 15715 N 1478.1 -0.635022 -1.4424 0
M  V30 15716 C 1479.33 -0.14826 -2.06368 0
M  V30 15717 C 1479.74 1.17875 -1.47482 0
M  V30 15718 O 1479.1 1.72384 -0.599168 0
M  V30 15719 C 1479.15 -0.031519 -3.61486 0
M  V30 15720 O 1478.87 -1.30605 -4.18179 0
M  V30 15721 C 1480.37 0.483479 -4.40656 0
M  V30 15722 H 1477.59 -0.081472 -0.666036 0
M  V30 15723 H 1480.14 -0.870526 -1.85046 0
M  V30 15724 H 1478.29 0.641208 -3.82057 0
M  V30 15725 H 1478.71 -1.15341 -5.11661 0
M  V30 15726 H 1480.18 0.514164 -5.496 0
M  V30 15727 H 1480.66 1.51129 -4.12379 0
M  V30 15728 H 1481.26 -0.156131 -4.25013 0
M  V30 15729 N 1479.58 1.53054 -0.375806 0
M  V30 15730 C 1480.51 2.28973 0.45754 0
M  V30 15731 C 1481.49 1.31812 1.07516 0
M  V30 15732 O 1482.67 1.60693 1.09048 0
M  V30 15733 C 1479.8 3.08657 1.59212 0
M  V30 15734 C 1478.76 4.1359 1.10123 0
M  V30 15735 C 1478.08 4.81417 2.32684 0
M  V30 15736 C 1479.38 5.21994 0.17872 0
M  V30 15737 H 1481.08 2.98883 -0.175872 0
M  V30 15738 H 1478.62 1.43743 -0.0860253 0
M  V30 15739 H 1480.58 3.6052 2.18182 0
M  V30 15740 H 1479.3 2.36456 2.25291 0
M  V30 15741 H 1477.96 3.62688 0.534151 0
M  V30 15742 H 1477.61 4.05778 2.97243 0
M  V30 15743 H 1477.31 5.52332 2.00506 0
M  V30 15744 H 1478.83 5.36079 2.92322 0
M  V30 15745 H 1480.25 5.69298 0.676204 0
M  V30 15746 H 1478.64 6.00077 -0.0526605 0
M  V30 15747 H 1479.71 4.78646 -0.776246 0
M  V30 15748 N 1481.06 0.105248 1.57248 0
M  V30 15749 C 1482.33 -0.598871 1.86207 0
M  V30 15750 C 1482.71 -1.85698 1.00396 0
M  V30 15751 O 1482.06 -2.28363 0.0791093 0
M  V30 15752 C 1482.27 -0.904522 3.37075 0
M  V30 15753 C 1483.62 -1.26357 4.05363 0
M  V30 15754 O 1484.64 -0.99522 3.42014 0
M  V30 15755 O 1483.5 -1.76659 5.17159 0
M  V30 15756 H 1480.6 -0.300727 0.770384 0
M  V30 15757 H 1483.14 0.138713 1.69132 0
M  V30 15758 H 1481.91 -0.0123974 3.91298 0
M  V30 15759 H 1481.54 -1.69774 3.59531 0
M  V30 15760 N 1482.53 -1.56697 -0.168486 0
M  V30 15761 C 1483.46 -1.99659 -1.21073 0
M  V30 15762 C 1484.45 -0.872625 -1.46011 0
M  V30 15763 O 1485.63 -1.13891 -1.57297 0
M  V30 15764 C 1482.76 -2.35889 -2.54899 0
M  V30 15765 C 1481.71 -3.51272 -2.44524 0
M  V30 15766 C 1481.04 -3.73253 -3.82866 0
M  V30 15767 C 1482.34 -4.84631 -1.94756 0
M  V30 15768 H 1484.03 -2.86974 -0.853593 0
M  V30 15769 H 1481.58 -1.38065 -0.409165 0
M  V30 15770 H 1483.53 -2.64542 -3.28017 0
M  V30 15771 H 1482.26 -1.45486 -2.92406 0
M  V30 15772 H 1480.92 -3.22751 -1.7386 0
M  V30 15773 H 1480.56 -2.80136 -4.17772 0
M  V30 15774 H 1480.26 -4.5089 -3.76792 0
M  V30 15775 H 1481.79 -4.04309 -4.57566 0
M  V30 15776 H 1483.2 -5.12142 -2.5765 0
M  V30 15777 H 1481.6 -5.65925 -1.99623 0
M  V30 15778 H 1482.67 -4.76436 -0.902021 0
M  V30 15779 N 1484.01 0.437135 -1.51416 0
M  V30 15780 C 1485.43 0.773631 -1.39596 0
M  V30 15781 C 1485.63 1.95737 -0.478463 0
M  V30 15782 O 1484.68 2.52413 0.0662971 0
M  V30 15783 C 1486 1.05381 -2.8163 0
M  V30 15784 C 1487.55 1.15824 -2.90782 0
M  V30 15785 C 1488.02 1.47135 -4.33722 0
M  V30 15786 N 1489.51 1.54059 -4.3683 0
M  V30 15787 C 1490.25 1.79858 -5.44462 0
M  V30 15788 N 1489.74 2.03449 -6.62254 0
M  V30 15789 N 1491.54 1.81642 -5.31942 0
M  V30 15790 H 1483.69 -0.342468 -2.09621 0
M  V30 15791 H 1485.95 -0.0908158 -0.94364 0
M  V30 15792 H 1485.66 0.256708 -3.50762 0
M  V30 15793 H 1485.53 1.98139 -3.20968 0
M  V30 15794 H 1487.92 1.94597 -2.21847 0
M  V30 15795 H 1488 0.209663 -2.54939 0
M  V30 15796 H 1487.64 0.688897 -5.03206 0
M  V30 15797 H 1487.57 2.43199 -4.67078 0
M  V30 15798 H 1490.06 1.3773 -3.51907 0
M  V30 15799 H 1490.38 2.22506 -7.40075 0
M  V30 15800 H 1488.72 2.00771 -6.65369 0
M  V30 15801 H 1491.91 1.62731 -4.38903 0
M  V30 15802 H 1492.08 2.01411 -6.15904 0
M  V30 15803 N 1485.49 1.41566 0.692592 0
M  V30 15804 C 1486.9 1.36606 1.27262 0
M  V30 15805 C 1487.25 0.0506082 1.96135 0
M  V30 15806 O 1486.38 -0.851071 1.98962 0
M  V30 15807 C 1486.97 2.47434 2.31434 0
M  V30 15808 C 1485.53 2.45863 2.85006 0
M  V30 15809 C 1484.68 2.2713 1.59083 0
M  V30 15810 H 1487.63 1.51038 0.487149 0
M  V30 15811 H 1487.65 2.16663 3.12789 0
M  V30 15812 H 1487.16 3.43161 1.81278 0
M  V30 15813 H 1485.26 1.53901 3.3933 0
M  V30 15814 H 1485.38 3.42279 3.35234 0
M  V30 15815 H 1483.74 1.75061 1.85002 0
M  V30 15816 H 1484.52 3.24887 1.10919 0
M  V30 15817 N 1486.97 -0.927146 1.27443 0
M  V30 15818 C 1487.88 -2.06122 1.12031 0
M  V30 15819 C 1488.89 -1.73928 0.0501979 0
M  V30 15820 O 1490.07 -1.99756 0.256796 0
M  V30 15821 C 1487.14 -3.3805 0.769634 0
M  V30 15822 C 1486.2 -3.83938 1.92068 0
M  V30 15823 C 1485.43 -5.0957 1.58664 0
M  V30 15824 O 1485.65 -5.6825 0.494789 0
M  V30 15825 O 1484.59 -5.50844 2.42599 0
M  V30 15826 H 1488.41 -2.22037 2.07203 0
M  V30 15827 H 1486 -1.04638 1.06636 0
M  V30 15828 H 1487.88 -4.17286 0.587423 0
M  V30 15829 H 1486.55 -3.2334 -0.152557 0
M  V30 15830 H 1485.46 -3.05587 2.15795 0
M  V30 15831 H 1486.79 -4.0319 2.8231 0
M  V30 15832 N 1488.45 -1.09474 -1.13372 0
M  V30 15833 C 1489.86 -0.850378 -1.66209 0
M  V30 15834 C 1490.21 0.621071 -1.86111 0
M  V30 15835 O 1489.33 1.47837 -1.58029 0
M  V30 15836 C 1489.93 -1.53713 -3.01924 0
M  V30 15837 C 1488.49 -1.33972 -3.5175 0
M  V30 15838 C 1487.63 -1.5929 -2.26985 0
M  V30 15839 H 1490.59 -1.25383 -0.972874 0
M  V30 15840 H 1490.61 -0.970503 -3.67915 0
M  V30 15841 H 1490.12 -2.60804 -2.87407 0
M  V30 15842 H 1488.22 -0.289998 -3.7147 0
M  V30 15843 H 1488.33 -2.0749 -4.31839 0
M  V30 15844 H 1486.7 -1.01505 -2.336 0
M  V30 15845 H 1487.48 -2.67611 -2.15033 0
M  V30 15846 N 1489.92 1.30607 -0.882012 0
M  V30 15847 C 1491.34 1.48859 -0.575599 0
M  V30 15848 C 1491.54 1.80908 0.887388 0
M  V30 15849 O 1490.6 1.89492 1.6688 0
M  V30 15850 C 1491.91 2.61405 -1.48619 0
M  V30 15851 C 1493.46 2.75286 -1.48951 0
M  V30 15852 C 1493.93 3.90942 -2.38596 0
M  V30 15853 N 1495.42 3.98248 -2.36543 0
M  V30 15854 C 1496.16 4.87041 -3.0262 0
M  V30 15855 N 1495.65 5.80651 -3.77911 0
M  V30 15856 N 1497.45 4.80385 -2.91867 0
M  V30 15857 H 1489.6 1.08076 -1.82848 0
M  V30 15858 H 1491.86 0.535148 -0.782509 0
M  V30 15859 H 1491.57 2.44535 -2.52775 0
M  V30 15860 H 1491.44 3.57818 -1.19358 0
M  V30 15861 H 1493.83 2.91564 -0.455477 0
M  V30 15862 H 1493.91 1.79504 -1.82242 0
M  V30 15863 H 1493.55 3.75422 -3.42083 0
M  V30 15864 H 1493.48 4.86057 -2.02623 0
M  V30 15865 H 1495.97 3.31282 -1.81827 0
M  V30 15866 H 1496.29 6.45159 -4.25428 0
M  V30 15867 H 1494.63 5.80592 -3.82019 0
M  V30 15868 H 1497.82 4.06234 -2.32576 0
M  V30 15869 H 1498 5.49377 -3.43641 0
M  V30 15870 N 1491.4 0.642663 1.43901 0
M  V30 15871 C 1492.33 -0.0419756 2.33462 0
M  V30 15872 C 1493.31 -0.822923 1.48869 0
M  V30 15873 O 1494.5 -0.786508 1.7756 0
M  V30 15874 C 1491.63 -1.01631 3.32097 0
M  V30 15875 C 1490.58 -0.346206 4.26597 0
M  V30 15876 C 1489.91 -1.43125 5.15189 0
M  V30 15877 C 1491.21 0.754799 5.16817 0
M  V30 15878 H 1492.9 0.705929 2.90959 0
M  V30 15879 H 1490.45 0.340924 1.39906 0
M  V30 15880 H 1492.4 -1.5041 3.93643 0
M  V30 15881 H 1491.13 -1.79525 2.72834 0
M  V30 15882 H 1489.78 0.121038 3.664 0
M  V30 15883 H 1489.43 -2.20135 4.52271 0
M  V30 15884 H 1489.13 -0.988194 5.79231 0
M  V30 15885 H 1490.66 -1.92061 5.79607 0
M  V30 15886 H 1492.07 0.349624 5.72233 0
M  V30 15887 H 1490.47 1.12169 5.89524 0
M  V30 15888 H 1491.54 1.61718 4.57138 0
M  V30 15889 N 1492.88 -1.52852 0.383918 0
M  V30 15890 C 1494.13 -2.00694 -0.201206 0
M  V30 15891 C 1494.44 -1.2748 -1.48352 0
M  V30 15892 O 1495.65 -1.66005 -2.14836 0
M  V30 15893 C 1494.11 -3.57567 -0.409117 0
M  V30 15894 C 1493.71 -4.39675 0.859628 0
M  V30 15895 C 1495.46 -4.13713 -0.950899 0
M  V30 15896 C 1493.36 -5.88138 0.620292 0
M  V30 15897 H 1492.29 -0.749854 -0.0789656 0
M  V30 15898 H 1494.95 -1.764 0.505488 0
M  V30 15899 H 1493.33 -3.78088 -1.17753 0
M  V30 15900 H 1494.5 -4.30923 1.63224 0
M  V30 15901 H 1492.82 -3.94724 1.32597 0
M  V30 15902 H 1495.41 -5.22284 -1.14558 0
M  V30 15903 H 1495.76 -3.69463 -1.9184 0
M  V30 15904 H 1496.29 -3.97062 -0.242195 0
M  V30 15905 H 1493.03 -6.367 1.55864 0
M  V30 15906 H 1492.55 -5.99693 -0.113483 0
M  V30 15907 H 1494.23 -6.46506 0.252775 0
M  V30 15908 N 1494.36 -0.113586 -1.5719 0
M  V30 15909 C 1495.59 0.553592 -1.99356 0
M  V30 15910 C 1496 1.60567 -0.993154 0
M  V30 15911 O 1495.36 1.82494 0.0147252 0
M  V30 15912 C 1495.41 1.18462 -3.41539 0
M  V30 15913 O 1495.13 0.174602 -4.37752 0
M  V30 15914 C 1496.63 1.93564 -3.98808 0
M  V30 15915 H 1493.85 0.146998 -0.6547 0
M  V30 15916 H 1496.4 -0.198329 -2.03536 0
M  V30 15917 H 1494.55 1.88736 -3.38316 0
M  V30 15918 H 1494.97 0.632395 -5.20674 0
M  V30 15919 H 1496.44 2.33051 -5.00391 0
M  V30 15920 H 1496.92 2.80874 -3.37648 0
M  V30 15921 H 1497.52 1.28066 -4.0556 0
M  V30 15922 N 1495.84 1.56784 0.160173 0
M  V30 15923 C 1497.09 1.81812 0.873344 0
M  V30 15924 C 1497.4 0.692686 1.82924 0
M  V30 15925 O 1498.61 0.828202 2.5856 0
M  V30 15926 C 1497.06 3.222 1.6036 0
M  V30 15927 C 1496.67 4.42642 0.690776 0
M  V30 15928 C 1498.41 3.56512 2.30433 0
M  V30 15929 C 1496.32 5.74052 1.4219 0
M  V30 15930 H 1495.25 0.678013 0.32987 0
M  V30 15931 H 1497.9 1.83066 0.126164 0
M  V30 15932 H 1496.28 3.15295 2.39593 0
M  V30 15933 H 1497.46 4.60754 -0.0653914 0
M  V30 15934 H 1495.77 4.16282 0.09913 0
M  V30 15935 H 1498.37 4.51942 2.85749 0
M  V30 15936 H 1498.71 2.8193 3.06303 0
M  V30 15937 H 1499.25 3.65019 1.58132 0
M  V30 15938 H 1495.98 6.51694 0.705318 0
M  V30 15939 H 1495.5 5.59899 2.15111 0
M  V30 15940 H 1497.18 6.16395 1.96639 0
M  V30 15941 N 1497.32 -0.429099 1.51646 0
M  V30 15942 C 1498.25 -1.52867 1.76505 0
M  V30 15943 C 1499.23 -1.58586 0.615178 0
M  V30 15944 O 1500.41 -1.74182 0.858742 0
M  V30 15945 C 1497.54 -2.90875 1.8976 0
M  V30 15946 C 1496.5 -3.00014 3.05247 0
M  V30 15947 C 1495.82 -4.40082 3.03696 0
M  V30 15948 C 1497.12 -2.73334 4.45068 0
M  V30 15949 H 1498.82 -1.32315 2.68576 0
M  V30 15950 H 1496.36 -0.635091 1.29238 0
M  V30 15951 H 1498.31 -3.67765 2.05734 0
M  V30 15952 H 1497.04 -3.12677 0.943442 0
M  V30 15953 H 1495.7 -2.25565 2.88991 0
M  V30 15954 H 1495.35 -4.58864 2.06042 0
M  V30 15955 H 1495.05 -4.47125 3.81252 0
M  V30 15956 H 1496.57 -5.18935 3.21774 0
M  V30 15957 H 1497.98 -3.39954 4.61632 0
M  V30 15958 H 1496.38 -2.91777 5.24391 0
M  V30 15959 H 1497.45 -1.68889 4.54538 0
M  V30 15960 N 1498.79 -1.41931 -0.685074 0
M  V30 15961 C 1500.04 -1.41852 -1.44514 0
M  V30 15962 C 1500.37 -0.0313137 -1.94475 0
M  V30 15963 O 1499.62 0.958606 -1.70614 0
M  V30 15964 C 1499.92 -2.38099 -2.6654 0
M  V30 15965 C 1499.59 -3.8471 -2.35178 0
M  V30 15966 C 1498.25 -4.24647 -2.26336 0
M  V30 15967 C 1500.6 -4.77232 -2.0952 0
M  V30 15968 C 1497.93 -5.55101 -1.89947 0
M  V30 15969 C 1500.28 -6.08017 -1.74638 0
M  V30 15970 C 1498.95 -6.46964 -1.64299 0
M  V30 15971 H 1498.22 -0.519072 -0.528815 0
M  V30 15972 H 1500.86 -1.74802 -0.782078 0
M  V30 15973 H 1499.17 -1.9844 -3.3783 0
M  V30 15974 H 1500.87 -2.35306 -3.24703 0
M  V30 15975 H 1497.46 -3.53085 -2.42959 0
M  V30 15976 H 1501.64 -4.47173 -2.1529 0
M  V30 15977 H 1496.9 -5.84148 -1.80503 0
M  V30 15978 H 1501.07 -6.79203 -1.53807 0
M  V30 15979 H 1498.7 -7.47959 -1.35871 0
M  V30 15980 N 1500.27 0.920374 -1.27933 0
M  V30 15981 C 1501.5 1.70804 -1.17647 0
M  V30 15982 C 1501.92 1.86264 0.262189 0
M  V30 15983 O 1501.28 1.36798 1.18979 0
M  V30 15984 C 1501.33 3.08142 -1.87298 0
M  V30 15985 O 1500.43 3.95279 -1.17593 0
M  V30 15986 H 1499.77 0.523267 -0.408763 0
M  V30 15987 H 1502.3 1.15127 -1.69136 0
M  V30 15988 H 1502.31 3.58414 -1.94945 0
M  V30 15989 H 1500.99 2.96208 -2.91948 0
M  V30 15990 H 1499.56 3.53716 -1.18065 0
M  V30 15991 N 1501.75 1.10074 1.1279 0
M  V30 15992 C 1503.03 0.753069 1.80522 0
M  V30 15993 C 1503.41 -0.760982 1.96907 0
M  V30 15994 O 1502.75 -1.68584 1.54245 0
M  V30 15995 C 1502.96 1.49982 3.15129 0
M  V30 15996 C 1504.31 1.66993 3.90382 0
M  V30 15997 O 1505.34 1.46289 3.24774 0
M  V30 15998 O 1504.2 2.01293 5.08078 0
M  V30 15999 H 1501.29 0.271277 0.781241 0
M  V30 16000 H 1503.84 1.20333 1.19658 0
M  V30 16001 H 1502.61 2.53043 2.98471 0
M  V30 16002 H 1502.23 1.04217 3.83699 0
M  V30 16003 N 1503.23 -1.30138 0.888926 0
M  V30 16004 C 1504.48 -1.95265 0.5054 0
M  V30 16005 C 1504.79 -1.70925 -0.950998 0
M  V30 16006 O 1506 -2.30069 -1.44155 0
M  V30 16007 C 1504.45 -3.49647 0.852937 0
M  V30 16008 C 1504.06 -3.82802 2.32737 0
M  V30 16009 C 1505.8 -4.21067 0.538801 0
M  V30 16010 C 1503.71 -5.30379 2.61633 0
M  V30 16011 H 1502.64 -0.730882 0.185278 0
M  V30 16012 H 1505.29 -1.48027 1.08444 0
M  V30 16013 H 1503.67 -3.9548 0.202937 0
M  V30 16014 H 1504.85 -3.47866 3.02202 0
M  V30 16015 H 1503.16 -3.24495 2.60944 0
M  V30 16016 H 1505.76 -5.2967 0.731676 0
M  V30 16017 H 1506.1 -4.13014 -0.522039 0
M  V30 16018 H 1506.64 -3.8093 1.14617 0
M  V30 16019 H 1503.37 -5.43486 3.66473 0
M  V30 16020 H 1502.89 -5.66601 1.96782 0
M  V30 16021 H 1504.57 -5.97856 2.47339 0
M  V30 16022 N 1504.71 -0.650285 -1.43559 0
M  V30 16023 C 1505.95 -0.162725 -2.02146 0
M  V30 16024 C 1506.28 1.21911 -1.51166 0
M  V30 16025 O 1505.56 1.81329 -0.703563 0
M  V30 16026 C 1505.84 -0.170356 -3.59697 0
M  V30 16027 C 1505.7 -1.5859 -4.20915 0
M  V30 16028 C 1507.01 0.494831 -4.37309 0
M  V30 16029 H 1504.13 -0.0606055 -0.734504 0
M  V30 16030 H 1506.78 -0.830411 -1.70892 0
M  V30 16031 H 1504.93 0.39819 -3.86454 0
M  V30 16032 H 1506.6 -2.20481 -4.05199 0
M  V30 16033 H 1504.84 -2.13407 -3.77677 0
M  V30 16034 H 1505.51 -1.54312 -5.29992 0
M  V30 16035 H 1507.99 0.0111281 -4.16099 0
M  V30 16036 H 1506.86 0.458753 -5.4698 0
M  V30 16037 H 1507.12 1.56846 -4.13342 0
M  V30 16038 N 1506.18 1.52647 -0.392018 0
M  V30 16039 C 1507.43 2.01215 0.188926 0
M  V30 16040 C 1507.75 1.28019 1.47092 0
M  V30 16041 O 1507.02 0.401048 1.91751 0
M  V30 16042 H 1505.6 0.743444 0.0728049 0
M  V30 16043 H 1508.26 1.87715 -0.524332 0
M  V30 16044 H 1507.36 3.09562 0.397216 0
M  V30 16045 N 1507.66 0.121921 1.57128 0
M  V30 16046 C 1508.91 -0.535371 1.95295 0
M  V30 16047 C 1509.24 -1.665 1.00539 0
M  V30 16048 O 1508.49 -1.95677 0.0298129 0
M  V30 16049 C 1508.79 -1.10579 3.39863 0
M  V30 16050 C 1508.46 -0.0972144 4.50795 0
M  V30 16051 C 1507.12 0.180111 4.80863 0
M  V30 16052 C 1509.47 0.589973 5.1785 0
M  V30 16053 C 1506.8 1.15086 5.75302 0
M  V30 16054 C 1509.15 1.54937 6.13333 0
M  V30 16055 C 1507.82 1.83465 6.41792 0
M  V30 16056 H 1507.09 -0.195906 0.714634 0
M  V30 16057 H 1509.73 0.203445 1.90416 0
M  V30 16058 H 1508.04 -1.92143 3.4145 0
M  V30 16059 H 1509.73 -1.62252 3.66709 0
M  V30 16060 H 1506.32 -0.32355 4.27377 0
M  V30 16061 H 1510.51 0.38889 4.94774 0
M  V30 16062 H 1505.76 1.3786 5.95655 0
M  V30 16063 H 1509.94 2.08751 6.64376 0
M  V30 16064 H 1507.57 2.58841 7.14777 0
M  V30 16065 N 1509.14 -1.56867 -0.151857 0
M  V30 16066 C 1510.37 -1.87237 -0.880343 0
M  V30 16067 C 1510.78 -0.709565 -1.74959 0
M  V30 16068 O 1510.14 0.320818 -1.79658 0
M  V30 16069 C 1510.19 -3.16811 -1.74107 0
M  V30 16070 O 1509.91 -4.28611 -0.906858 0
M  V30 16071 C 1511.41 -3.60662 -2.57755 0
M  V30 16072 H 1508.63 -0.62074 -0.254799 0
M  V30 16073 H 1511.18 -2.03977 -0.146104 0
M  V30 16074 H 1509.33 -3.01838 -2.42842 0
M  V30 16075 H 1509.75 -5.02673 -1.49733 0
M  V30 16076 H 1511.22 -4.54176 -3.13732 0
M  V30 16077 H 1511.7 -2.85716 -3.33561 0
M  V30 16078 H 1512.3 -3.78312 -1.94319 0
M  V30 16079 N 1510.62 0.421051 -1.51871 0
M  V30 16080 C 1512.03 0.758781 -1.40409 0
M  V30 16081 C 1512.23 1.95219 -0.499197 0
M  V30 16082 O 1511.29 2.52469 0.0395216 0
M  V30 16083 C 1512.6 1.02388 -2.82731 0
M  V30 16084 C 1514.15 1.12733 -2.91994 0
M  V30 16085 C 1514.63 1.42527 -4.35259 0
M  V30 16086 N 1516.12 1.49417 -4.38439 0
M  V30 16087 C 1516.85 1.74074 -5.46339 0
M  V30 16088 N 1516.35 1.96414 -6.64375 0
M  V30 16089 N 1518.14 1.7599 -5.33839 0
M  V30 16090 H 1510.29 -0.364682 -2.09246 0
M  V30 16091 H 1512.56 -0.100819 -0.942624 0
M  V30 16092 H 1512.26 0.219491 -3.51014 0
M  V30 16093 H 1512.14 1.94724 -3.23052 0
M  V30 16094 H 1514.52 1.92233 -2.23899 0
M  V30 16095 H 1514.6 0.182611 -2.55147 0
M  V30 16096 H 1514.25 0.635486 -5.03909 0
M  V30 16097 H 1514.18 2.38231 -4.69631 0
M  V30 16098 H 1516.67 1.3399 -3.53348 0
M  V30 16099 H 1516.98 2.14644 -7.42393 0
M  V30 16100 H 1515.33 1.93702 -6.67461 0
M  V30 16101 H 1518.52 1.58067 -4.40605 0
M  V30 16102 H 1518.69 1.94868 -6.18005 0
M  V30 16103 N 1512.1 1.42293 0.677538 0
M  V30 16104 C 1513.03 1.39986 1.8022 0
M  V30 16105 C 1514.01 0.264513 1.60434 0
M  V30 16106 O 1515.19 0.454299 1.82944 0
M  V30 16107 C 1512.32 1.18809 3.17178 0
M  V30 16108 C 1511.36 2.35301 3.55719 0
M  V30 16109 S 1512.2 3.97827 3.5846 0
M  V30 16110 C 1513.35 3.78987 4.98116 0
M  V30 16111 H 1513.59 2.35157 1.81902 0
M  V30 16112 H 1511.12 1.29032 0.847947 0
M  V30 16113 H 1513.08 1.07277 3.96235 0
M  V30 16114 H 1511.74 0.252276 3.13085 0
M  V30 16115 H 1510.93 2.16224 4.55262 0
M  V30 16116 H 1510.53 2.43333 2.84016 0
M  V30 16117 H 1512.83 3.39808 5.8612 0
M  V30 16118 H 1513.77 4.78197 5.22239 0
M  V30 16119 H 1514.18 3.11906 4.70505 0
M  V30 16120 N 1513.57 -0.913576 1.28419 0
M  V30 16121 C 1514.8 -1.70178 1.18551 0
M  V30 16122 C 1515.22 -1.864 -0.252307 0
M  V30 16123 O 1514.58 -1.37427 -1.18252 0
M  V30 16124 C 1514.63 -3.07145 1.8893 0
M  V30 16125 O 1513.73 -3.9465 1.19688 0
M  V30 16126 H 1513.08 -0.521092 0.411533 0
M  V30 16127 H 1515.61 -1.14228 1.69744 0
M  V30 16128 H 1515.62 -3.57375 1.96843 0
M  V30 16129 H 1514.29 -2.94655 2.93515 0
M  V30 16130 H 1512.87 -3.53085 1.19939 0
M  V30 16131 N 1515.05 -1.1067 -1.12204 0
M  V30 16132 C 1516 -0.752659 -2.20086 0
M  V30 16133 C 1516.99 0.252284 -1.67511 0
M  V30 16134 O 1518.2 0.112398 -1.79649 0
M  V30 16135 H 1514.58 -0.225473 -0.717402 0
M  V30 16136 H 1516.55 -1.67136 -2.472 0
M  V30 16137 C 1515.3 -0.203345 -3.47105 0
M  V30 16138 H 1514.62 -0.967864 -3.87908 0
M  V30 16139 H 1516.06 0.00629123 -4.24 0
M  V30 16140 C 1514.52 1.06452 -3.1964 0
M  V30 16141 O 1515.05 2.14562 -3.39597 0
M  V30 16142 N 1513.25 0.984122 -2.73429 0
M  V30 16143 H 1512.8 0.104258 -2.57389 0
M  V30 16144 H 1512.76 1.83312 -2.55429 0
M  V30 16145 N 1516.53 1.29665 -0.895815 0
M  V30 16146 C 1517.49 2.26103 -0.3755 0
M  V30 16147 C 1518.49 1.53212 0.488126 0
M  V30 16148 O 1519.68 1.71706 0.293733 0
M  V30 16149 C 1516.82 3.37732 0.46364 0
M  V30 16150 H 1518.01 2.73643 -1.22718 0
M  V30 16151 H 1515.56 1.4104 -0.673613 0
M  V30 16152 H 1516.3 2.95526 1.33546 0
M  V30 16153 H 1516.08 3.91793 -0.155123 0
M  V30 16154 H 1517.57 4.09488 0.819112 0
M  V30 16155 N 1518.01 0.657889 1.43212 0
M  V30 16156 C 1518.94 -0.0172114 2.33494 0
M  V30 16157 C 1519.92 -0.807087 1.49733 0
M  V30 16158 O 1521.1 -0.767631 1.78385 0
M  V30 16159 C 1518.23 -0.981029 3.33156 0
M  V30 16160 C 1517.19 -0.30094 4.26941 0
M  V30 16161 C 1516.51 -1.37653 5.16678 0
M  V30 16162 C 1517.81 0.809572 5.15988 0
M  V30 16163 H 1519.51 0.736749 2.90194 0
M  V30 16164 H 1517.05 0.355744 1.39537 0
M  V30 16165 H 1519.01 -1.46226 3.95216 0
M  V30 16166 H 1517.73 -1.76621 2.74723 0
M  V30 16167 H 1516.39 0.159893 3.66251 0
M  V30 16168 H 1516.04 -2.15326 4.54581 0
M  V30 16169 H 1515.74 -0.926704 5.80246 0
M  V30 16170 H 1517.26 -1.85903 5.81612 0
M  V30 16171 H 1518.68 0.410297 5.7183 0
M  V30 16172 H 1517.07 1.18415 5.88301 0
M  V30 16173 H 1518.14 1.66558 4.55397 0
M  V30 16174 N 1519.49 -1.52437 0.400108 0
M  V30 16175 C 1520.42 -2.24433 -0.465038 0
M  V30 16176 C 1521.43 -1.27067 -1.01773 0
M  V30 16177 O 1522.62 -1.53072 -0.918215 0
M  V30 16178 C 1519.72 -2.95555 -1.65832 0
M  V30 16179 C 1518.89 -4.19717 -1.2311 0
M  V30 16180 C 1517.95 -4.73743 -2.29028 0
M  V30 16181 O 1516.98 -5.36556 -1.8999 0
M  V30 16182 N 1518.18 -4.54534 -3.6108 0
M  V30 16183 H 1520.95 -2.99315 0.151839 0
M  V30 16184 H 1518.51 -1.603 0.227019 0
M  V30 16185 H 1520.5 -3.28595 -2.36235 0
M  V30 16186 H 1519.07 -2.23915 -2.18131 0
M  V30 16187 H 1518.29 -3.92593 -0.355537 0
M  V30 16188 H 1519.58 -5.00367 -0.922487 0
M  V30 16189 H 1518.97 -4.04419 -3.95552 0
M  V30 16190 H 1517.53 -4.92035 -4.27486 0
M  V30 16191 N 1520.96 -0.130252 -1.57061 0
M  V30 16192 C 1522.19 0.535707 -2.00362 0
M  V30 16193 C 1522.61 1.58712 -1.00956 0
M  V30 16194 O 1521.97 1.81292 0.0171546 0
M  V30 16195 C 1522.02 1.12836 -3.42491 0
M  V30 16196 O 1521.12 2.24367 -3.46025 0
M  V30 16197 H 1520.47 0.132735 -0.650598 0
M  V30 16198 H 1523 -0.222047 -2.03392 0
M  V30 16199 H 1523.01 1.46115 -3.80939 0
M  V30 16200 H 1521.68 0.358304 -4.14354 0
M  V30 16201 H 1520.26 1.92443 -3.19406 0
M  V30 16202 N 1522.44 1.56945 0.143535 0
M  V30 16203 C 1523.38 1.95134 1.2023 0
M  V30 16204 C 1524.39 0.847593 1.38995 0
M  V30 16205 O 1525.58 1.12599 1.38505 0
M  V30 16206 C 1522.68 2.21316 2.56656 0
M  V30 16207 C 1521.85 3.52604 2.58822 0
M  V30 16208 C 1520.91 3.67285 3.76813 0
M  V30 16209 O 1519.94 4.39644 3.61527 0
M  V30 16210 N 1521.14 3.04208 4.94406 0
M  V30 16211 H 1523.9 2.86561 0.87766 0
M  V30 16212 H 1521.46 1.58437 0.333065 0
M  V30 16213 H 1523.46 2.28375 3.34106 0
M  V30 16214 H 1522.03 1.36137 2.81399 0
M  V30 16215 H 1521.25 3.56954 1.67264 0
M  V30 16216 H 1522.53 4.38944 2.57304 0
M  V30 16217 H 1521.93 2.45344 5.09728 0
M  V30 16218 H 1520.49 3.16824 5.69619 0
M  V30 16219 N 1523.92 -0.412991 1.52093 0
M  V30 16220 C 1525.17 -1.15801 1.65634 0
M  V30 16221 C 1525.49 -1.91127 0.386737 0
M  V30 16222 O 1524.76 -1.86541 -0.598262 0
M  V30 16223 H 1523.34 -0.430467 0.610498 0
M  V30 16224 H 1526 -0.471127 1.8912 0
M  V30 16225 H 1525.1 -1.87421 2.49559 0
M  V30 16226 N 1525.4 -1.4265 -0.669982 0
M  V30 16227 C 1526.65 -1.43589 -1.43213 0
M  V30 16228 C 1526.98 -0.0537998 -1.94125 0
M  V30 16229 O 1526.25 0.922727 -1.71219 0
M  V30 16230 C 1526.54 -2.46433 -2.62569 0
M  V30 16231 C 1526.39 -3.93851 -2.17258 0
M  V30 16232 C 1527.71 -2.46208 -3.64787 0
M  V30 16233 H 1524.83 -0.522859 -0.519411 0
M  V30 16234 H 1527.47 -1.74094 -0.760997 0
M  V30 16235 H 1525.62 -2.20551 -3.19828 0
M  V30 16236 H 1527.29 -4.30732 -1.6513 0
M  V30 16237 H 1525.53 -4.07487 -1.48786 0
M  V30 16238 H 1526.21 -4.61398 -3.03012 0
M  V30 16239 H 1528.68 -2.69237 -3.17255 0
M  V30 16240 H 1527.56 -3.20138 -4.45873 0
M  V30 16241 H 1527.82 -1.48979 -4.16242 0
M  V30 16242 N 1526.88 0.906753 -1.28902 0
M  V30 16243 C 1527.84 1.99158 -1.1344 0
M  V30 16244 C 1528.84 1.60639 -0.0719551 0
M  V30 16245 O 1530.03 1.71267 -0.318317 0
M  V30 16246 C 1527.16 3.32923 -0.733172 0
M  V30 16247 H 1528.36 2.14305 -2.09794 0
M  V30 16248 H 1525.91 1.09034 -1.11988 0
M  V30 16249 H 1526.64 3.23477 0.230826 0
M  V30 16250 H 1526.43 3.62244 -1.50073 0
M  V30 16251 H 1527.92 4.12544 -0.64784 0
M  V30 16252 N 1528.36 1.11264 1.11616 0
M  V30 16253 C 1529.27 0.781961 2.21184 0
M  V30 16254 C 1530.28 -0.224149 1.7255 0
M  V30 16255 O 1531.46 -0.0607743 2.01308 0
M  V30 16256 C 1528.52 0.228031 3.45949 0
M  V30 16257 C 1527.58 1.29251 4.09381 0
M  V30 16258 C 1526.82 0.764921 5.2819 0
M  V30 16259 O 1527.04 -0.405671 5.68956 0
M  V30 16260 O 1525.97 1.52886 5.82159 0
M  V30 16261 H 1529.8 1.69678 2.51879 0
M  V30 16262 H 1527.38 0.888394 1.20116 0
M  V30 16263 H 1529.27 -0.0766085 4.2133 0
M  V30 16264 H 1527.94 -0.659519 3.1691 0
M  V30 16265 H 1526.85 1.65014 3.3574 0
M  V30 16266 H 1528.18 2.15339 4.42595 0
M  V30 16267 N 1529.83 -1.29188 0.902679 0
M  V30 16268 C 1530.76 -2.3006 0.399357 0
M  V30 16269 C 1531.74 -1.61724 -0.527199 0
M  V30 16270 O 1532.93 -1.89213 -0.437293 0
M  V30 16271 C 1530.06 -3.45309 -0.371331 0
M  V30 16272 C 1529.01 -4.25466 0.465068 0
M  V30 16273 C 1528.34 -5.32941 -0.433295 0
M  V30 16274 C 1529.64 -4.93287 1.71655 0
M  V30 16275 H 1531.33 -2.72409 1.24233 0
M  V30 16276 H 1528.88 -1.30958 0.598822 0
M  V30 16277 H 1530.83 -4.14955 -0.734207 0
M  V30 16278 H 1529.56 -3.01811 -1.24811 0
M  V30 16279 H 1528.22 -3.57532 0.810315 0
M  V30 16280 H 1527.86 -4.85688 -1.3083 0
M  V30 16281 H 1527.56 -5.87472 0.122657 0
M  V30 16282 H 1529.09 -6.05438 -0.792298 0
M  V30 16283 H 1530.5 -5.55353 1.42323 0
M  V30 16284 H 1528.9 -5.57763 2.21405 0
M  V30 16285 H 1529.97 -4.18406 2.45081 0
M  V30 16286 N 1531.31 -0.665475 -1.42861 0
M  V30 16287 C 1532.24 0.00482845 -2.335 0
M  V30 16288 C 1533.22 0.799135 -1.50159 0
M  V30 16289 O 1534.41 0.75816 -1.78789 0
M  V30 16290 C 1531.54 0.963347 -3.33672 0
M  V30 16291 C 1530.49 0.278294 -4.27094 0
M  V30 16292 C 1529.82 1.34911 -5.174 0
M  V30 16293 C 1531.12 -0.836925 -5.15551 0
M  V30 16294 H 1532.81 -0.752129 -2.89799 0
M  V30 16295 H 1530.36 -0.363139 -1.39346 0
M  V30 16296 H 1532.31 1.44128 -3.95986 0
M  V30 16297 H 1531.03 1.75161 -2.75656 0
M  V30 16298 H 1529.69 -0.179314 -3.66161 0
M  V30 16299 H 1529.34 2.12912 -4.55716 0
M  V30 16300 H 1529.04 0.895919 -5.8073 0
M  V30 16301 H 1530.57 1.82816 -5.8259 0
M  V30 16302 H 1531.98 -0.440617 -5.71604 0
M  V30 16303 H 1530.38 -1.21533 -5.87665 0
M  V30 16304 H 1531.45 -1.6897 -4.54507 0
M  V30 16305 N 1532.79 1.52222 -0.408187 0
M  V30 16306 C 1533.74 2.28544 0.432458 0
M  V30 16307 C 1534.73 1.33198 1.04665 0
M  V30 16308 O 1535.94 1.50661 0.984954 0
M  V30 16309 H 1532.31 0.735162 0.158241 0
M  V30 16310 H 1534.28 2.97493 -0.232482 0
M  V30 16311 C 1533.03 3.11864 1.53741 0
M  V30 16312 H 1532.36 3.851 1.07414 0
M  V30 16313 H 1533.8 3.68374 2.09945 0
M  V30 16314 C 1532.25 2.25367 2.50423 0
M  V30 16315 O 1532.78 1.89329 3.54285 0
M  V30 16316 N 1530.99 1.89155 2.2061 0
M  V30 16317 H 1530.54 2.18661 1.36181 0
M  V30 16318 H 1530.5 1.31574 2.85544 0
M  V30 16319 N 1534.27 0.138579 1.5699 0
M  V30 16320 C 1535.18 -0.817548 2.19894 0
M  V30 16321 C 1536.19 -1.27806 1.18075 0
M  V30 16322 O 1537.37 -1.33699 1.5062 0
M  V30 16323 C 1534.43 -2.04244 2.80152 0
M  V30 16324 C 1533.5 -1.63197 3.97071 0
M  V30 16325 C 1532.73 -2.79847 4.54446 0
M  V30 16326 O 1532.95 -3.95827 4.10703 0
M  V30 16327 O 1531.89 -2.55804 5.44838 0
M  V30 16328 H 1535.71 -0.312123 3.02092 0
M  V30 16329 H 1533.3 -0.0880281 1.4914 0
M  V30 16330 H 1535.18 -2.75945 3.18485 0
M  V30 16331 H 1533.85 -2.53755 2.00973 0
M  V30 16332 H 1532.76 -0.885448 3.6347 0
M  V30 16333 H 1534.09 -1.1841 4.77745 0
M  V30 16334 N 1535.75 -1.57019 -0.13521 0
M  V30 16335 C 1536.98 -1.87887 -0.859187 0
M  V30 16336 C 1537.38 -0.726131 -1.74711 0
M  V30 16337 O 1536.73 0.312784 -1.81018 0
M  V30 16338 C 1536.79 -3.13594 -1.75782 0
M  V30 16339 C 1536.45 -4.44872 -1.04586 0
M  V30 16340 C 1537.45 -5.18403 -0.39422 0
M  V30 16341 C 1535.13 -4.91587 -1.03185 0
M  V30 16342 C 1537.13 -6.36862 0.261905 0
M  V30 16343 C 1534.82 -6.09967 -0.371923 0
M  V30 16344 C 1535.81 -6.82451 0.273817 0
M  V30 16345 O 1535.5 -7.98581 0.923256 0
M  V30 16346 H 1535.23 -0.626795 -0.253188 0
M  V30 16347 H 1537.79 -2.04994 -0.129109 0
M  V30 16348 H 1536.02 -2.92527 -2.52913 0
M  V30 16349 H 1537.71 -3.30613 -2.35478 0
M  V30 16350 H 1538.47 -4.83374 -0.396766 0
M  V30 16351 H 1534.35 -4.35085 -1.52389 0
M  V30 16352 H 1537.9 -6.93376 0.766515 0
M  V30 16353 H 1533.79 -6.44455 -0.367084 0
M  V30 16354 H 1534.56 -8.1432 0.826104 0
M  V30 16355 N 1537.22 0.404919 -1.52309 0
M  V30 16356 C 1538.15 1.50039 -1.78915 0
M  V30 16357 C 1539.14 1.57587 -0.640329 0
M  V30 16358 O 1540.32 1.72793 -0.886344 0
M  V30 16359 C 1537.45 2.87819 -1.94364 0
M  V30 16360 C 1536.4 2.9512 -3.09981 0
M  V30 16361 C 1535.73 4.35195 -3.10659 0
M  V30 16362 C 1537.03 2.66219 -4.4936 0
M  V30 16363 H 1538.72 1.28025 -2.70647 0
M  V30 16364 H 1536.27 0.61445 -1.30233 0
M  V30 16365 H 1538.22 3.64446 -2.11559 0
M  V30 16366 H 1536.95 3.11136 -0.993067 0
M  V30 16367 H 1535.61 2.20939 -2.92543 0
M  V30 16368 H 1535.25 4.55528 -2.13316 0
M  V30 16369 H 1534.95 4.41003 -3.88317 0
M  V30 16370 H 1536.48 5.1375 -3.29989 0
M  V30 16371 H 1537.89 3.32567 -4.66982 0
M  V30 16372 H 1536.29 2.83398 -5.28967 0
M  V30 16373 H 1537.36 1.61636 -4.57167 0
M  V30 16374 N 1538.7 1.43003 0.662408 0
M  V30 16375 C 1539.95 1.43848 1.41958 0
M  V30 16376 C 1540.27 0.06046 1.94906 0
M  V30 16377 O 1539.54 -0.90287 1.73854 0
M  V30 16378 H 1538.12 0.529587 0.526827 0
M  V30 16379 H 1540.78 1.7853 0.781867 0
M  V30 16380 H 1539.88 2.14562 2.26649 0
M  V30 16381 N 1540.18 -0.899904 1.29381 0
M  V30 16382 C 1541.09 -2.03699 1.16378 0
M  V30 16383 C 1542.11 -1.73782 0.0870792 0
M  V30 16384 O 1543.28 -1.99167 0.299109 0
M  V30 16385 C 1540.35 -3.36341 0.841166 0
M  V30 16386 C 1539.41 -3.79778 2.00168 0
M  V30 16387 C 1538.64 -5.0609 1.69437 0
M  V30 16388 O 1538.86 -5.67073 0.615212 0
M  V30 16389 O 1537.8 -5.45574 2.54229 0
M  V30 16390 H 1541.62 -2.17592 2.11866 0
M  V30 16391 H 1539.21 -1.02353 1.08831 0
M  V30 16392 H 1541.09 -4.15946 0.675803 0
M  V30 16393 H 1539.77 -3.23591 -0.0839376 0
M  V30 16394 H 1538.67 -3.00941 2.22229 0
M  V30 16395 H 1540.01 -3.97111 2.90798 0
M  V30 16396 N 1541.66 -1.11854 -1.11024 0
M  V30 16397 C 1542.59 -0.724602 -2.1639 0
M  V30 16398 C 1543.57 0.281302 -1.60148 0
M  V30 16399 O 1544.75 0.176699 -1.8767 0
M  V30 16400 C 1541.88 -0.0715375 -3.38624 0
M  V30 16401 C 1540.93 -1.04328 -4.13543 0
M  V30 16402 S 1541.76 -2.5679 -4.69914 0
M  V30 16403 C 1542.92 -1.92797 -5.95466 0
M  V30 16404 H 1543.15 -1.61713 -2.49472 0
M  V30 16405 H 1540.68 -0.937015 -1.22717 0
M  V30 16406 H 1542.64 0.298896 -4.0941 0
M  V30 16407 H 1541.3 0.798007 -3.03794 0
M  V30 16408 H 1540.49 -0.533855 -5.01165 0
M  V30 16409 H 1540.1 -1.35636 -3.48538 0
M  V30 16410 H 1542.39 -1.26703 -6.65547 0
M  V30 16411 H 1543.33 -2.78434 -6.51061 0
M  V30 16412 H 1543.74 -1.38633 -5.47212 0
M  V30 16413 N 1543.14 1.28707 -0.909517 0
M  V30 16414 C 1544.36 1.99283 -0.556211 0
M  V30 16415 C 1544.78 1.68 0.861475 0
M  V30 16416 O 1544.14 0.930421 1.57001 0
M  V30 16417 C 1544.19 3.5362 -0.75068 0
M  V30 16418 O 1543.91 3.83799 -2.11258 0
M  V30 16419 C 1545.41 4.41459 -0.403637 0
M  V30 16420 H 1542.63 0.636476 -0.212462 0
M  V30 16421 H 1545.17 1.64007 -1.22156 0
M  V30 16422 H 1543.33 3.87174 -0.132384 0
M  V30 16423 H 1543.74 4.78448 -2.14913 0
M  V30 16424 H 1545.22 5.48833 -0.590496 0
M  V30 16425 H 1545.69 4.34214 0.659897 0
M  V30 16426 H 1546.3 4.13394 -0.999292 0
M  V30 16427 N 1544.61 0.673042 1.42506 0
M  V30 16428 C 1546.03 0.342429 1.55883 0
M  V30 16429 C 1546.23 -1.15229 1.65302 0
M  V30 16430 O 1545.29 -1.93767 1.61897 0
M  V30 16431 C 1546.6 1.0712 2.80973 0
M  V30 16432 C 1548.15 1.05336 2.94743 0
M  V30 16433 C 1548.62 1.76342 4.22691 0
M  V30 16434 N 1550.11 1.73201 4.29599 0
M  V30 16435 C 1550.85 2.25 5.27411 0
M  V30 16436 N 1550.34 2.85173 6.31386 0
M  V30 16437 N 1552.14 2.15385 5.19197 0
M  V30 16438 H 1544.29 1.64277 1.34636 0
M  V30 16439 H 1546.55 0.691984 0.647968 0
M  V30 16440 H 1546.26 2.1263 2.80145 0
M  V30 16441 H 1546.13 0.635313 3.71811 0
M  V30 16442 H 1548.52 0.00659669 2.95099 0
M  V30 16443 H 1548.6 1.52811 2.0514 0
M  V30 16444 H 1548.24 2.80985 4.23096 0
M  V30 16445 H 1548.17 1.26317 5.11225 0
M  V30 16446 H 1550.66 1.2931 3.55088 0
M  V30 16447 H 1550.98 3.22323 7.02373 0
M  V30 16448 H 1549.32 2.89242 6.31953 0
M  V30 16449 H 1552.51 1.68065 4.36889 0
M  V30 16450 H 1552.69 2.5606 5.95262 0
M  V30 16451 N 1546.09 -1.52004 0.416254 0
M  V30 16452 C 1547.06 -2.2579 -0.393882 0
M  V30 16453 C 1548.06 -1.28427 -0.967637 0
M  V30 16454 O 1549.25 -1.52311 -0.845396 0
M  V30 16455 C 1546.38 -3.03361 -1.55515 0
M  V30 16456 H 1547.57 -2.98835 0.252492 0
M  V30 16457 H 1545.12 -1.55384 0.168929 0
M  V30 16458 H 1545.86 -2.34682 -2.23818 0
M  V30 16459 H 1545.64 -3.74852 -1.15015 0
M  V30 16460 H 1547.13 -3.5931 -2.12805 0
M  V30 16461 N 1547.57 -0.146903 -1.56914 0
M  V30 16462 C 1548.82 0.504981 -1.96412 0
M  V30 16463 C 1549.15 1.64522 -1.0318 0
M  V30 16464 O 1548.42 1.94359 -0.0741728 0
M  V30 16465 C 1548.71 1.01125 -3.45609 0
M  V30 16466 C 1548.56 -0.127493 -4.49619 0
M  V30 16467 C 1549.88 1.89306 -3.97305 0
M  V30 16468 H 1547 0.182088 -0.714152 0
M  V30 16469 H 1549.64 -0.22811 -1.88626 0
M  V30 16470 H 1547.79 1.63595 -3.52376 0
M  V30 16471 H 1549.46 -0.763829 -4.54932 0
M  V30 16472 H 1547.71 -0.786649 -4.26608 0
M  V30 16473 H 1548.38 0.268453 -5.51347 0
M  V30 16474 H 1550.85 1.36664 -3.93017 0
M  V30 16475 H 1549.73 2.21638 -5.02163 0
M  V30 16476 H 1549.99 2.82996 -3.39655 0
M  V30 16477 N 1549.05 1.57088 0.126881 0
M  V30 16478 C 1550.3 1.84436 0.836048 0
M  V30 16479 C 1550.62 0.730824 1.80248 0
M  V30 16480 O 1549.88 -0.278509 1.93708 0
M  V30 16481 C 1550.18 3.18225 1.62688 0
M  V30 16482 C 1549.84 4.43648 0.80545 0
M  V30 16483 C 1548.51 4.77705 0.578901 0
M  V30 16484 C 1550.86 5.20682 0.232355 0
M  V30 16485 C 1548.19 5.86245 -0.231126 0
M  V30 16486 C 1550.54 6.30073 -0.564819 0
M  V30 16487 C 1549.2 6.62667 -0.801759 0
M  V30 16488 H 1548.47 0.674898 0.305932 0
M  V30 16489 H 1551.12 1.91245 0.0987618 0
M  V30 16490 H 1549.42 3.06956 2.43485 0
M  V30 16491 H 1551.12 3.36604 2.17942 0
M  V30 16492 H 1547.71 4.16959 0.99211 0
M  V30 16493 H 1551.89 4.94729 0.394616 0
M  V30 16494 H 1547.15 6.09928 -0.423998 0
M  V30 16495 H 1551.32 6.8895 -1.01592 0
M  V30 16496 H 1548.95 7.46605 -1.43126 0
M  V30 16497 N 1550.53 -0.396836 1.52522 0
M  V30 16498 C 1551.44 -1.50871 1.79653 0
M  V30 16499 C 1552.45 -1.60043 0.682804 0
M  V30 16500 O 1553.63 -1.76527 0.96955 0
M  V30 16501 C 1550.69 -2.86485 1.95263 0
M  V30 16502 C 1549.75 -2.87099 3.19175 0
M  V30 16503 C 1548.99 -4.16244 3.34031 0
M  V30 16504 O 1549.21 -5.1079 2.5387 0
M  V30 16505 O 1548.14 -4.23962 4.27247 0
M  V30 16506 H 1551.97 -1.30878 2.74052 0
M  V30 16507 H 1549.56 -0.583908 1.37517 0
M  V30 16508 H 1551.44 -3.66895 2.07282 0
M  V30 16509 H 1550.11 -3.0652 1.04052 0
M  V30 16510 H 1549.02 -2.05497 3.12605 0
M  V30 16511 H 1550.35 -2.72014 4.10206 0
M  V30 16512 N 1552.01 -1.43353 -0.654814 0
M  V30 16513 C 1552.95 -1.48652 -1.789 0
M  V30 16514 C 1553.95 -0.360274 -1.65525 0
M  V30 16515 O 1555.15 -0.534194 -1.71891 0
M  V30 16516 H 1551.53 -0.465987 -0.590221 0
M  V30 16517 H 1553.5 -2.44158 -1.7155 0
M  V30 16518 C 1552.25 -1.42512 -3.17152 0
M  V30 16519 H 1551.57 -2.28479 -3.28081 0
M  V30 16520 H 1553.01 -1.50282 -3.96474 0
M  V30 16521 C 1551.47 -0.142511 -3.36598 0
M  V30 16522 O 1552 0.796821 -3.93718 0
M  V30 16523 N 1550.21 -0.0532157 -2.90551 0
M  V30 16524 H 1549.75 -0.818421 -2.44253 0
M  V30 16525 H 1549.71 0.80427 -3.03939 0
M  V30 16526 N 1553.48 0.89303 -1.29857 0
M  V30 16527 C 1554.42 2.00327 -1.11364 0
M  V30 16528 C 1555.43 1.62692 -0.0591968 0
M  V30 16529 O 1556.62 1.75885 -0.3044 0
M  V30 16530 C 1553.72 3.3212 -0.674518 0
M  V30 16531 C 1552.89 3.98241 -1.80895 0
M  V30 16532 C 1551.95 5.08329 -1.35972 0
M  V30 16533 O 1550.98 5.30398 -2.06558 0
M  V30 16534 N 1552.18 5.80027 -0.234282 0
M  V30 16535 H 1554.94 2.16743 -2.06984 0
M  V30 16536 H 1552.5 1.06563 -1.21885 0
M  V30 16537 H 1554.5 4.03121 -0.357167 0
M  V30 16538 H 1553.07 3.12026 0.189414 0
M  V30 16539 H 1552.29 3.20517 -2.29483 0
M  V30 16540 H 1553.57 4.39158 -2.56939 0
M  V30 16541 H 1552.97 5.64591 0.354068 0
M  V30 16542 H 1551.53 6.51796 0.0236623 0
M  V30 16543 N 1554.96 1.12442 1.10429 0
M  V30 16544 C 1556.21 0.878021 1.82031 0
M  V30 16545 C 1556.53 -0.597787 1.85611 0
M  V30 16546 O 1555.8 -1.43442 1.33422 0
M  V30 16547 H 1554.38 0.321839 0.674113 0
M  V30 16548 H 1557.04 1.41891 1.33615 0
M  V30 16549 H 1556.14 1.25957 2.85554 0
M  V30 16550 N 1556.44 -1.28223 0.91633 0
M  V30 16551 C 1557.67 -1.98986 0.566772 0
M  V30 16552 C 1558.08 -1.68455 -0.852553 0
M  V30 16553 O 1557.44 -0.938734 -1.56506 0
M  V30 16554 C 1557.49 -3.53217 0.769423 0
M  V30 16555 O 1557.21 -3.82674 2.1329 0
M  V30 16556 C 1558.71 -4.41238 0.427043 0
M  V30 16557 H 1555.93 -0.63534 0.215834 0
M  V30 16558 H 1558.48 -1.63357 1.23024 0
M  V30 16559 H 1556.63 -3.87098 0.152915 0
M  V30 16560 H 1557.05 -4.77302 2.17448 0
M  V30 16561 H 1558.52 -5.48512 0.619594 0
M  V30 16562 H 1559 -4.34558 -0.63686 0
M  V30 16563 H 1559.6 -4.12858 1.0212 0
M  V30 16564 N 1557.92 -0.68059 -1.42147 0
M  V30 16565 C 1559.16 -0.205567 -2.01755 0
M  V30 16566 C 1559.5 1.18677 -1.53718 0
M  V30 16567 O 1558.77 1.79796 -0.741867 0
M  V30 16568 C 1559.05 -0.246615 -3.59255 0
M  V30 16569 C 1558.91 -1.67483 -4.17456 0
M  V30 16570 C 1560.23 0.40196 -4.38261 0
M  V30 16571 H 1557.35 -0.0761717 -0.733053 0
M  V30 16572 H 1559.99 -0.866473 -1.69092 0
M  V30 16573 H 1558.14 0.316127 -3.87212 0
M  V30 16574 H 1559.81 -2.29026 -4.00431 0
M  V30 16575 H 1558.05 -2.2137 -3.73065 0
M  V30 16576 H 1558.72 -1.65519 -5.266 0
M  V30 16577 H 1561.2 -0.077135 -4.16028 0
M  V30 16578 H 1560.08 0.342627 -5.4783 0
M  V30 16579 H 1560.34 1.48044 -4.16576 0
M  V30 16580 N 1559.4 1.51781 -0.424309 0
M  V30 16581 C 1560.67 1.94514 0.205791 0
M  V30 16582 C 1561.05 1.36219 1.61269 0
M  V30 16583 O 1560.4 0.544019 2.21929 0
M  V30 16584 C 1560.61 3.48445 0.196749 0
M  V30 16585 C 1561.96 4.22628 0.408702 0
M  V30 16586 O 1562.98 3.55133 0.275441 0
M  V30 16587 O 1561.84 5.42344 0.672698 0
M  V30 16588 H 1558.94 0.815576 0.136983 0
M  V30 16589 H 1561.48 1.6273 -0.481349 0
M  V30 16590 H 1560.25 3.83297 -0.787342 0
M  V30 16591 H 1559.88 3.86634 0.92735 0
M  V30 16592 N 1560.87 0.155222 1.56834 0
M  V30 16593 C 1561.82 -0.781315 2.17173 0
M  V30 16594 C 1562.79 -1.23835 1.10699 0
M  V30 16595 O 1563.98 -1.3094 1.38778 0
M  V30 16596 C 1561.12 -2.01174 2.80398 0
M  V30 16597 C 1560.23 -1.59976 4.01287 0
M  V30 16598 C 1559.36 -2.78262 4.52486 0
M  V30 16599 C 1558.4 -2.33477 5.65822 0
M  V30 16600 N 1557.54 -3.44799 6.11603 0
M  V30 16601 H 1562.38 -0.259968 2.96864 0
M  V30 16602 H 1559.92 -0.116599 1.46637 0
M  V30 16603 H 1561.87 -2.73318 3.15203 0
M  V30 16604 H 1560.5 -2.50706 2.03338 0
M  V30 16605 H 1559.56 -0.775668 3.72408 0
M  V30 16606 H 1560.87 -1.2309 4.83374 0
M  V30 16607 H 1560.02 -3.58585 4.89389 0
M  V30 16608 H 1558.76 -3.18398 3.69424 0
M  V30 16609 H 1557.77 -1.51596 5.28487 0
M  V30 16610 H 1558.99 -1.94417 6.50676 0
M  V30 16611 H 1556.94 -3.84541 5.31474 0
M  V30 16612 H 1556.85 -3.11955 6.88637 0
M  V30 16613 H 1558.12 -4.25454 6.53153 0
M  V30 16614 N 1562.35 -1.57153 -0.118549 0
M  V30 16615 C 1563.6 -1.84876 -0.826255 0
M  V30 16616 C 1563.93 -0.740373 -1.79858 0
M  V30 16617 O 1563.18 0.268233 -1.93853 0
M  V30 16618 C 1563.48 -3.19084 -1.60998 0
M  V30 16619 C 1563.15 -4.44069 -0.781911 0
M  V30 16620 C 1561.81 -4.78005 -0.553559 0
M  V30 16621 C 1564.16 -5.20798 -0.204739 0
M  V30 16622 C 1561.49 -5.86114 0.262212 0
M  V30 16623 C 1563.84 -6.29765 0.598225 0
M  V30 16624 C 1562.5 -6.62233 0.83689 0
M  V30 16625 H 1561.77 -0.676511 -0.302348 0
M  V30 16626 H 1564.42 -1.91295 -0.0886182 0
M  V30 16627 H 1562.73 -3.08243 -2.41854 0
M  V30 16628 H 1564.42 -3.37755 -2.16153 0
M  V30 16629 H 1561.01 -4.1748 -0.969984 0
M  V30 16630 H 1565.2 -4.94931 -0.368374 0
M  V30 16631 H 1560.45 -6.09695 0.456338 0
M  V30 16632 H 1564.63 -6.88401 1.05244 0
M  V30 16633 H 1562.25 -7.45835 1.47083 0
M  V30 16634 N 1563.83 0.388742 -1.5273 0
M  V30 16635 C 1565.08 1.13543 -1.68035 0
M  V30 16636 C 1565.41 1.89622 -0.419177 0
M  V30 16637 O 1564.68 1.85556 0.583031 0
M  V30 16638 C 1564.97 2.11346 -2.91556 0
M  V30 16639 C 1564.82 1.39029 -4.27775 0
M  V30 16640 C 1566.14 3.11769 -3.10625 0
M  V30 16641 H 1563.26 0.411406 -0.611485 0
M  V30 16642 H 1565.9 0.418781 -1.85327 0
M  V30 16643 H 1564.05 2.7246 -2.76944 0
M  V30 16644 H 1565.72 0.808775 -4.54155 0
M  V30 16645 H 1563.96 0.692133 -4.28243 0
M  V30 16646 H 1564.64 2.10495 -5.1029 0
M  V30 16647 H 1567.11 2.60745 -3.2427 0
M  V30 16648 H 1565.99 3.77447 -3.98529 0
M  V30 16649 H 1566.25 3.80649 -2.24853 0
M  V30 16650 N 1565.31 1.43698 0.647203 0
M  V30 16651 C 1566.56 1.45346 1.40425 0
M  V30 16652 C 1566.88 0.081129 1.94831 0
M  V30 16653 O 1566.15 -0.884379 1.74801 0
M  V30 16654 H 1564.73 0.535145 0.521181 0
M  V30 16655 H 1567.39 1.79349 0.762887 0
M  V30 16656 H 1566.48 2.16954 2.2436 0
M  V30 16657 N 1566.79 -0.886131 1.30328 0
M  V30 16658 C 1568.06 -1.61912 1.09744 0
M  V30 16659 C 1568.44 -2.08116 -0.353663 0
M  V30 16660 O 1567.79 -1.84725 -1.34495 0
M  V30 16661 C 1568 -2.78954 2.09727 0
M  V30 16662 C 1569.35 -3.49313 2.41382 0
M  V30 16663 O 1570.37 -2.89141 2.08028 0
M  V30 16664 O 1569.23 -4.57823 2.98431 0
M  V30 16665 H 1566.33 -0.71158 0.421406 0
M  V30 16666 H 1568.87 -0.933009 1.4175 0
M  V30 16667 H 1567.64 -2.42109 3.07407 0
M  V30 16668 H 1567.27 -3.55263 1.78532 0
M  V30 16669 N 1568.26 -1.13026 -1.09832 0
M  V30 16670 C 1569.23 -0.806832 -2.14529 0
M  V30 16671 C 1570.23 0.18175 -1.5977 0
M  V30 16672 O 1571.42 -0.0448155 -1.74142 0
M  V30 16673 C 1568.55 -0.200093 -3.40312 0
M  V30 16674 H 1569.74 -1.73453 -2.44651 0
M  V30 16675 H 1567.3 -0.934331 -1.25299 0
M  V30 16676 H 1568.03 0.737028 -3.15814 0
M  V30 16677 H 1567.82 -0.911945 -3.81348 0
M  V30 16678 H 1569.31 0.00948247 -4.17599 0
M  V30 16679 N 1569.74 1.27735 -0.923117 0
M  V30 16680 C 1570.99 1.93857 -0.556994 0
M  V30 16681 C 1571.3 1.73386 0.905346 0
M  V30 16682 O 1572.51 2.3381 1.38005 0
M  V30 16683 C 1570.97 3.47263 -0.94534 0
M  V30 16684 C 1570.57 3.76497 -2.42805 0
M  V30 16685 C 1572.32 4.1949 -0.65025 0
M  V30 16686 C 1570.23 5.23256 -2.75603 0
M  V30 16687 H 1569.16 0.725712 -0.204591 0
M  V30 16688 H 1571.81 1.451 -1.12331 0
M  V30 16689 H 1570.19 3.94803 -0.307721 0
M  V30 16690 H 1571.36 3.39731 -3.11319 0
M  V30 16691 H 1569.68 3.17463 -2.69456 0
M  V30 16692 H 1572.27 5.27544 -0.871851 0
M  V30 16693 H 1572.62 4.14253 0.412352 0
M  V30 16694 H 1573.15 3.77758 -1.24676 0
M  V30 16695 H 1569.89 5.33579 -3.80754 0
M  V30 16696 H 1569.41 5.61185 -2.11735 0
M  V30 16697 H 1571.09 5.91088 -2.63103 0
M  V30 16698 N 1571.22 0.688118 1.41784 0
M  V30 16699 C 1572.15 -0.0323076 2.28177 0
M  V30 16700 C 1573.13 -0.795419 1.41816 0
M  V30 16701 O 1574.32 -0.787785 1.71249 0
M  V30 16702 C 1571.44 -1.05308 3.21913 0
M  V30 16703 C 1570.49 -0.384003 4.24768 0
M  V30 16704 S 1571.32 0.86817 5.28416 0
M  V30 16705 C 1572.48 -0.151191 6.25717 0
M  V30 16706 H 1572.71 0.700456 2.88931 0
M  V30 16707 H 1570.24 0.478125 1.46811 0
M  V30 16708 H 1572.2 -1.63689 3.76452 0
M  V30 16709 H 1570.86 -1.75837 2.6027 0
M  V30 16710 H 1570.06 -1.15469 4.90594 0
M  V30 16711 H 1569.66 0.126545 3.73786 0
M  V30 16712 H 1571.95 -1.0068 6.69977 0
M  V30 16713 H 1572.89 0.472955 7.06519 0
M  V30 16714 H 1573.3 -0.502631 5.62258 0
M  V30 16715 N 1572.7 -1.51554 0.432352 0
M  V30 16716 C 1573.66 -2.26195 -0.369912 0
M  V30 16717 C 1574.66 -1.29446 -0.953961 0
M  V30 16718 O 1575.85 -1.53199 -0.829193 0
M  V30 16719 C 1572.98 -3.04993 -1.52289 0
M  V30 16720 H 1574.18 -2.98551 0.284173 0
M  V30 16721 H 1571.73 -1.55197 0.1854 0
M  V30 16722 H 1572.46 -2.37043 -2.21317 0
M  V30 16723 H 1572.25 -3.76051 -1.11032 0
M  V30 16724 H 1573.74 -3.61547 -2.08982 0
M  V30 16725 N 1574.18 -0.163538 -1.56749 0
M  V30 16726 C 1575.11 0.765571 -2.20593 0
M  V30 16727 C 1576.09 1.24489 -1.15916 0
M  V30 16728 O 1577.27 1.29946 -1.44318 0
M  V30 16729 C 1574.4 1.99823 -2.84057 0
M  V30 16730 C 1573.36 1.65506 -3.94705 0
M  V30 16731 C 1572.68 2.96172 -4.45181 0
M  V30 16732 C 1573.98 0.88902 -5.14678 0
M  V30 16733 H 1575.68 0.233431 -2.98489 0
M  V30 16734 H 1573.22 0.110836 -1.43573 0
M  V30 16735 H 1575.18 2.65316 -3.27392 0
M  V30 16736 H 1573.9 2.55437 -2.03517 0
M  V30 16737 H 1572.56 1.02384 -3.52013 0
M  V30 16738 H 1572.21 3.49811 -3.61443 0
M  V30 16739 H 1571.91 2.73968 -5.19823 0
M  V30 16740 H 1573.43 3.62708 -4.91198 0
M  V30 16741 H 1574.84 1.44637 -5.54755 0
M  V30 16742 H 1573.24 0.766302 -5.95187 0
M  V30 16743 H 1574.31 -0.116145 -4.84761 0
M  V30 16744 N 1575.65 1.57214 0.110213 0
M  V30 16745 C 1576.88 1.8923 0.829187 0
M  V30 16746 C 1577.29 0.753834 1.73534 0
M  V30 16747 O 1576.64 -0.283946 1.81492 0
M  V30 16748 C 1576.7 3.16351 1.7077 0
M  V30 16749 C 1576.36 4.46479 0.974949 0
M  V30 16750 C 1577.36 5.18965 0.311696 0
M  V30 16751 C 1575.04 4.93167 0.953516 0
M  V30 16752 C 1577.04 6.36364 -0.363191 0
M  V30 16753 C 1574.72 6.10482 0.274836 0
M  V30 16754 C 1575.72 6.81929 -0.382355 0
M  V30 16755 O 1575.41 7.97011 -1.05019 0
M  V30 16756 H 1575.14 0.630744 0.243184 0
M  V30 16757 H 1577.7 2.05173 0.09648 0
M  V30 16758 H 1575.93 2.96513 2.48227 0
M  V30 16759 H 1577.62 3.34317 2.30189 0
M  V30 16760 H 1578.38 4.83944 0.319815 0
M  V30 16761 H 1574.26 4.37454 1.45448 0
M  V30 16762 H 1577.8 6.92069 -0.876728 0
M  V30 16763 H 1573.7 6.44958 0.26451 0
M  V30 16764 H 1574.47 8.12903 -0.95555 0
M  V30 16765 N 1577.13 -0.380637 1.52934 0
M  V30 16766 C 1578.38 -1.12261 1.68053 0
M  V30 16767 C 1578.7 -1.90263 0.427191 0
M  V30 16768 O 1577.97 -1.87768 -0.558559 0
M  V30 16769 H 1576.55 -0.41742 0.619491 0
M  V30 16770 H 1579.21 -0.430906 1.90077 0
M  V30 16771 H 1578.31 -1.82085 2.53479 0
M  V30 16772 N 1578.61 -1.44039 -0.639573 0
M  V30 16773 C 1579.57 -1.49907 -1.7338 0
M  V30 16774 C 1580.57 -0.382101 -1.56194 0
M  V30 16775 O 1581.76 -0.644396 -1.61843 0
M  V30 16776 C 1578.9 -1.36486 -3.12385 0
M  V30 16777 H 1580.09 -2.4737 -1.69553 0
M  V30 16778 H 1577.64 -1.31006 -0.852474 0
M  V30 16779 H 1578.38 -0.400845 -3.21813 0
M  V30 16780 H 1578.16 -2.17471 -3.26265 0
M  V30 16781 H 1579.65 -1.43555 -3.9215 0
M  V30 16782 N 1580.09 0.879207 -1.30796 0
M  V30 16783 C 1581.5 1.44705 -1.17972 0
M  V30 16784 C 1581.85 1.94992 0.217381 0
M  V30 16785 O 1580.98 1.85494 1.11449 0
M  V30 16786 C 1581.57 2.6302 -2.13555 0
M  V30 16787 C 1580.13 3.15877 -2.04692 0
M  V30 16788 C 1579.28 1.88576 -2.03309 0
M  V30 16789 H 1582.23 0.688604 -1.42982 0
M  V30 16790 H 1582.25 3.39418 -1.71976 0
M  V30 16791 H 1581.76 2.2639 -3.15229 0
M  V30 16792 H 1579.86 3.57151 -1.0618 0
M  V30 16793 H 1579.97 3.78786 -2.93357 0
M  V30 16794 H 1578.34 2.0715 -1.48192 0
M  V30 16795 H 1579.12 1.54195 -3.06723 0
M  V30 16796 N 1581.57 1.13606 1.09231 0
M  V30 16797 C 1582.48 0.828702 2.19476 0
M  V30 16798 C 1583.49 -0.187499 1.72987 0
M  V30 16799 O 1584.67 -0.0180602 2.01392 0
M  V30 16800 C 1581.73 0.301361 3.45388 0
M  V30 16801 C 1580.8 1.37906 4.06547 0
M  V30 16802 C 1580.03 0.876786 5.26449 0
M  V30 16803 O 1580.25 -0.284896 5.69688 0
M  V30 16804 O 1579.19 1.652 5.78785 0
M  V30 16805 H 1583.01 1.74982 2.48223 0
M  V30 16806 H 1580.6 0.913673 1.18205 0
M  V30 16807 H 1582.48 0.0127792 4.21398 0
M  V30 16808 H 1581.15 -0.592149 3.18238 0
M  V30 16809 H 1580.06 1.72098 3.32164 0
M  V30 16810 H 1581.39 2.24678 4.37927 0
M  V30 16811 N 1583.05 -1.27244 0.929878 0
M  V30 16812 C 1583.96 -2.30506 0.436355 0
M  V30 16813 C 1584.97 -1.67131 -0.484054 0
M  V30 16814 O 1586.15 -1.9804 -0.366332 0
M  V30 16815 C 1583.21 -3.45391 -0.300942 0
M  V30 16816 C 1582.27 -4.24279 0.654647 0
M  V30 16817 C 1581.51 -5.33679 -0.047558 0
M  V30 16818 O 1581.73 -5.56161 -1.26654 0
M  V30 16819 O 1580.66 -5.98642 0.62538 0
M  V30 16820 H 1584.49 -2.74762 1.29382 0
M  V30 16821 H 1582.07 -1.32234 0.695311 0
M  V30 16822 H 1583.96 -4.1526 -0.716718 0
M  V30 16823 H 1582.63 -3.03187 -1.13398 0
M  V30 16824 H 1581.54 -3.56936 1.12015 0
M  V30 16825 H 1582.87 -4.70204 1.45497 0
M  V30 16826 N 1584.52 -0.695628 -1.41417 0
M  V30 16827 C 1585.46 0.0202064 -2.28191 0
M  V30 16828 C 1586.43 0.787887 -1.42236 0
M  V30 16829 O 1587.62 0.778692 -1.71664 0
M  V30 16830 C 1584.75 1.03599 -3.22467 0
M  V30 16831 C 1583.79 0.361472 -4.24965 0
M  V30 16832 S 1584.62 -0.896181 -5.27948 0
M  V30 16833 C 1585.78 0.118005 -6.25789 0
M  V30 16834 H 1586.01 -0.715769 -2.88555 0
M  V30 16835 H 1583.55 -0.485904 -1.46555 0
M  V30 16836 H 1585.5 1.6169 -3.77315 0
M  V30 16837 H 1584.17 1.74454 -2.61198 0
M  V30 16838 H 1583.36 1.12866 -4.912 0
M  V30 16839 H 1582.96 -0.146366 -3.73713 0
M  V30 16840 H 1585.25 0.971258 -6.70502 0
M  V30 16841 H 1586.2 -0.510417 -7.06258 0
M  V30 16842 H 1586.6 0.472806 -5.62516 0
M  V30 16843 N 1586 1.51322 -0.440383 0
M  V30 16844 C 1587.23 2.07017 0.126018 0
M  V30 16845 C 1587.65 1.30537 1.35431 0
M  V30 16846 O 1587.01 0.344178 1.78003 0
M  V30 16847 C 1587.06 3.58101 0.4238 0
M  V30 16848 O 1586.16 3.83772 1.50973 0
M  V30 16849 H 1585.5 0.664 0.000530178 0
M  V30 16850 H 1588.03 1.94897 -0.622594 0
M  V30 16851 H 1588.04 4.02405 0.673363 0
M  V30 16852 H 1586.72 4.13191 -0.473932 0
M  V30 16853 H 1585.29 3.51329 1.24989 0
M  V30 16854 N 1587.48 0.171848 1.5666 0
M  V30 16855 C 1588.89 -0.34479 1.83489 0
M  V30 16856 C 1589.24 -1.63025 1.09167 0
M  V30 16857 O 1588.37 -2.13634 0.34488 0
M  V30 16858 C 1588.96 -0.63234 3.32847 0
M  V30 16859 C 1587.52 -1.09342 3.60169 0
M  V30 16860 C 1586.67 -0.129569 2.76997 0
M  V30 16861 H 1589.62 0.396101 1.53677 0
M  V30 16862 H 1589.64 -1.48434 3.50354 0
M  V30 16863 H 1589.15 0.303409 3.86912 0
M  V30 16864 H 1587.25 -2.04425 3.11514 0
M  V30 16865 H 1587.37 -1.00221 4.685 0
M  V30 16866 H 1585.73 -0.627033 2.46861 0
M  V30 16867 H 1586.51 0.800211 3.33844 0
M  V30 16868 N 1588.96 -1.5727 -0.101874 0
M  V30 16869 C 1590.18 -1.90319 -0.824215 0
M  V30 16870 C 1590.61 -0.765469 -1.7182 0
M  V30 16871 O 1589.97 0.283275 -1.79073 0
M  V30 16872 C 1590.01 -3.22201 -1.61922 0
M  V30 16873 O 1589.12 -3.09313 -2.72762 0
M  V30 16874 H 1588.46 -0.624042 -0.226864 0
M  V30 16875 H 1590.99 -2.04447 -0.0791314 0
M  V30 16876 H 1591 -3.55343 -2.00487 0
M  V30 16877 H 1589.67 -4.04596 -0.963078 0
M  V30 16878 H 1588.25 -2.87672 -2.37274 0
M  V30 16879 N 1590.44 0.372521 -1.53134 0
M  V30 16880 C 1591.35 1.47994 -1.8203 0
M  V30 16881 C 1592.36 1.58937 -0.708179 0
M  V30 16882 O 1593.54 1.74962 -0.997511 0
M  V30 16883 C 1590.6 2.83342 -1.99796 0
M  V30 16884 C 1589.66 2.81984 -3.23702 0
M  V30 16885 C 1588.9 4.10877 -3.40611 0
M  V30 16886 O 1589.12 5.06686 -2.61964 0
M  V30 16887 O 1588.05 4.17111 -4.33938 0
M  V30 16888 H 1591.88 1.26501 -2.761 0
M  V30 16889 H 1589.46 0.561957 -1.38428 0
M  V30 16890 H 1591.35 3.63551 -2.13092 0
M  V30 16891 H 1590.02 3.04826 -1.08916 0
M  V30 16892 H 1588.93 2.00498 -3.15834 0
M  V30 16893 H 1590.26 2.65453 -4.14482 0
M  V30 16894 N 1591.91 1.44376 0.631925 0
M  V30 16895 C 1592.85 1.47167 1.75711 0
M  V30 16896 C 1593.86 0.365158 1.58652 0
M  V30 16897 O 1595.05 0.630852 1.66981 0
M  V30 16898 C 1592.15 1.28916 3.13423 0
M  V30 16899 C 1591.32 2.52798 3.56948 0
M  V30 16900 C 1590.38 2.29458 4.73535 0
M  V30 16901 O 1589.41 3.02941 4.81887 0
M  V30 16902 N 1590.61 1.32467 5.65184 0
M  V30 16903 H 1593.37 2.44168 1.73788 0
M  V30 16904 H 1590.93 1.39805 0.816465 0
M  V30 16905 H 1592.93 1.1115 3.89137 0
M  V30 16906 H 1591.5 0.402828 3.09994 0
M  V30 16907 H 1590.72 2.85846 2.71451 0
M  V30 16908 H 1592 3.35198 3.82779 0
M  V30 16909 H 1591.4 0.717762 5.61128 0
M  V30 16910 H 1589.96 1.2068 6.40531 0
M  V30 16911 N 1593.39 -0.872258 1.31261 0
M  V30 16912 C 1594.64 -1.62752 1.20994 0
M  V30 16913 C 1594.97 -1.9281 -0.231942 0
M  V30 16914 O 1594.25 -1.55808 -1.16423 0
M  V30 16915 C 1594.53 -2.95921 2.0519 0
M  V30 16916 C 1594.38 -2.72756 3.57665 0
M  V30 16917 C 1595.7 -3.96996 1.89953 0
M  V30 16918 H 1592.82 -0.590581 0.440889 0
M  V30 16919 H 1595.46 -1.00848 1.61027 0
M  V30 16920 H 1593.61 -3.48756 1.71177 0
M  V30 16921 H 1595.28 -2.26611 4.01803 0
M  V30 16922 H 1593.53 -2.07029 3.81211 0
M  V30 16923 H 1594.2 -3.67502 4.11882 0
M  V30 16924 H 1596.67 -3.53363 2.19713 0
M  V30 16925 H 1595.55 -4.88063 2.51169 0
M  V30 16926 H 1595.81 -4.33611 0.862191 0
M  V30 16927 N 1594.87 -1.14184 -1.08627 0
M  V30 16928 C 1596.29 -0.881757 -1.33031 0
M  V30 16929 C 1596.49 0.478313 -1.95741 0
M  V30 16930 O 1595.54 1.22308 -2.209 0
M  V30 16931 C 1596.85 -2.01274 -2.23404 0
M  V30 16932 C 1598.4 -2.04578 -2.3689 0
M  V30 16933 C 1598.88 -3.16962 -3.30604 0
M  V30 16934 N 1600.37 -3.16526 -3.3818 0
M  V30 16935 C 1601.1 -4.00124 -4.10716 0
M  V30 16936 N 1600.6 -4.93757 -4.8598 0
M  V30 16937 N 1602.39 -3.88193 -4.06525 0
M  V30 16938 H 1594.54 -2.01787 -0.663017 0
M  V30 16939 H 1596.81 -0.879152 -0.354677 0
M  V30 16940 H 1596.51 -2.9938 -1.84566 0
M  V30 16941 H 1596.39 -1.93393 -3.2385 0
M  V30 16942 H 1598.77 -1.0708 -2.74987 0
M  V30 16943 H 1598.85 -2.16529 -1.36194 0
M  V30 16944 H 1598.5 -4.14704 -2.93228 0
M  V30 16945 H 1598.43 -3.02248 -4.31223 0
M  V30 16946 H 1600.92 -2.48708 -2.84522 0
M  V30 16947 H 1601.23 -5.54015 -5.38783 0
M  V30 16948 H 1599.58 -4.97756 -4.8504 0
M  V30 16949 H 1602.77 -3.14365 -3.46831 0
M  V30 16950 H 1602.94 -4.53571 -4.62793 0
M  V30 16951 N 1596.35 1.26749 -0.936613 0
M  V30 16952 C 1597.76 1.46284 -0.638218 0
M  V30 16953 C 1597.96 1.84509 0.80986 0
M  V30 16954 O 1597.02 1.96399 1.58693 0
M  V30 16955 C 1598.33 2.54867 -1.59573 0
M  V30 16956 C 1599.88 2.68721 -1.60493 0
M  V30 16957 C 1600.36 3.80471 -2.54963 0
M  V30 16958 N 1601.85 3.87857 -2.53221 0
M  V30 16959 C 1602.58 4.73767 -3.23005 0
M  V30 16960 N 1602.08 5.641 -4.02198 0
M  V30 16961 N 1603.87 4.67574 -3.11979 0
M  V30 16962 H 1596.02 1.00224 -1.87267 0
M  V30 16963 H 1598.29 0.501478 -0.804502 0
M  V30 16964 H 1597.99 2.33594 -2.62919 0
M  V30 16965 H 1597.87 3.52433 -1.34427 0
M  V30 16966 H 1600.25 2.8937 -0.578729 0
M  V30 16967 H 1600.33 1.71613 -1.89691 0
M  V30 16968 H 1599.98 3.60575 -3.57698 0
M  V30 16969 H 1599.91 4.77026 -2.23056 0
M  V30 16970 H 1602.4 3.23272 -1.95714 0
M  V30 16971 H 1602.71 6.26535 -4.52409 0
M  V30 16972 H 1601.06 5.63866 -4.063 0
M  V30 16973 H 1604.25 3.96004 -2.49596 0
M  V30 16974 H 1604.42 5.34308 -3.66633 0
M  V30 16975 N 1597.83 0.703118 1.41046 0
M  V30 16976 C 1598.79 0.0514476 2.29142 0
M  V30 16977 C 1599.79 -0.700223 1.44753 0
M  V30 16978 O 1600.98 -0.533985 1.65814 0
M  V30 16979 C 1598.11 -0.93735 3.2776 0
M  V30 16980 H 1599.3 0.827201 2.88266 0
M  V30 16981 H 1596.86 0.467045 1.49159 0
M  V30 16982 H 1597.59 -1.7406 2.7363 0
M  V30 16983 H 1597.38 -0.4014 3.9004 0
M  V30 16984 H 1598.87 -1.39088 3.93757 0
M  V30 16985 N 1599.3 -1.51086 0.448402 0
M  V30 16986 C 1600.55 -2.01367 -0.115904 0
M  V30 16987 C 1600.87 -1.33658 -1.42811 0
M  V30 16988 O 1602.07 -1.74968 -2.07602 0
M  V30 16989 C 1600.53 -3.58981 -0.257092 0
M  V30 16990 C 1600.14 -4.35634 1.04534 0
M  V30 16991 C 1601.88 -4.17373 -0.774573 0
M  V30 16992 C 1599.79 -5.84978 0.869184 0
M  V30 16993 H 1598.72 -0.752528 -0.0470907 0
M  V30 16994 H 1601.37 -1.74098 0.57985 0
M  V30 16995 H 1599.75 -3.82742 -1.01611 0
M  V30 16996 H 1600.92 -4.23612 1.81354 0
M  V30 16997 H 1599.24 -3.88745 1.49219 0
M  V30 16998 H 1601.84 -5.26673 -0.923032 0
M  V30 16999 H 1602.18 -3.77267 -1.75997 0
M  V30 17000 H 1602.71 -3.97732 -0.0735697 0
M  V30 17001 H 1599.45 -6.29516 1.82729 0
M  V30 17002 H 1598.97 -5.99634 0.140969 0
M  V30 17003 H 1600.65 -6.44852 0.526752 0
M  V30 17004 N 1600.78 -0.180154 -1.56567 0
M  V30 17005 C 1601.75 0.732809 -2.17169 0
M  V30 17006 C 1602.75 1.15176 -1.1221 0
M  V30 17007 O 1603.94 1.06728 -1.37677 0
M  V30 17008 C 1601.07 1.99857 -2.7617 0
M  V30 17009 H 1602.26 0.205088 -2.99198 0
M  V30 17010 H 1599.81 0.0694351 -1.56146 0
M  V30 17011 H 1600.55 2.56917 -1.97899 0
M  V30 17012 H 1600.33 1.70705 -3.5299 0
M  V30 17013 H 1601.82 2.64992 -3.22752 0
M  V30 17014 N 1602.26 1.57322 0.0935319 0
M  V30 17015 C 1603.49 1.90375 0.810245 0
M  V30 17016 C 1603.9 0.774011 1.72205 0
M  V30 17017 O 1603.26 -0.253918 1.80725 0
M  V30 17018 C 1603.31 3.23054 1.62228 0
M  V30 17019 O 1603.03 4.31682 0.747157 0
M  V30 17020 C 1604.53 3.6998 2.44192 0
M  V30 17021 H 1601.75 0.629769 0.231586 0
M  V30 17022 H 1604.3 2.04379 0.0702984 0
M  V30 17023 H 1602.45 3.10643 2.31472 0
M  V30 17024 H 1602.87 5.07884 1.30974 0
M  V30 17025 H 1604.34 4.65507 2.96659 0
M  V30 17026 H 1604.82 2.97899 3.22727 0
M  V30 17027 H 1605.42 3.85264 1.80144 0
M  V30 17028 N 1603.74 -0.364395 1.53329 0
M  V30 17029 C 1604.7 -1.42927 1.79178 0
M  V30 17030 C 1605.7 -1.4653 0.662235 0
M  V30 17031 O 1606.89 -1.4727 0.930442 0
M  V30 17032 C 1604.02 -2.82035 1.91492 0
M  V30 17033 H 1605.22 -1.21281 2.74283 0
M  V30 17034 H 1602.77 -0.597596 1.44425 0
M  V30 17035 H 1603.5 -3.08993 0.984579 0
M  V30 17036 H 1603.29 -2.80818 2.73649 0
M  V30 17037 H 1604.78 -3.59148 2.13078 0
M  V30 17038 N 1605.22 -1.44709 -0.62426 0
M  V30 17039 C 1606.63 -1.28747 -0.9432 0
M  V30 17040 C 1606.83 -0.228265 -2.00203 0
M  V30 17041 O 1605.89 0.383506 -2.49571 0
M  V30 17042 C 1607.2 -2.66124 -1.39995 0
M  V30 17043 C 1608.75 -2.73889 -1.51506 0
M  V30 17044 C 1609.22 -4.11751 -2.00562 0
M  V30 17045 N 1610.72 -4.13962 -2.07821 0
M  V30 17046 C 1611.45 -5.1749 -2.46964 0
M  V30 17047 N 1610.95 -6.31376 -2.85195 0
M  V30 17048 N 1612.74 -5.04846 -2.47158 0
M  V30 17049 H 1604.89 -2.12264 0.0758746 0
M  V30 17050 H 1607.15 -0.947566 -0.0286915 0
M  V30 17051 H 1606.86 -3.4474 -0.696203 0
M  V30 17052 H 1606.73 -2.93474 -2.36967 0
M  V30 17053 H 1609.12 -1.95587 -2.20975 0
M  V30 17054 H 1609.2 -2.50272 -0.528911 0
M  V30 17055 H 1608.85 -4.90532 -1.31685 0
M  V30 17056 H 1608.78 -4.32749 -3.0006 0
M  V30 17057 H 1611.27 -3.31771 -1.80933 0
M  V30 17058 H 1611.58 -7.06179 -3.13896 0
M  V30 17059 H 1609.92 -6.34804 -2.8293 0
M  V30 17060 H 1613.12 -4.14927 -2.16686 0
M  V30 17061 H 1613.29 -5.85651 -2.77339 0
M  V30 17062 N 1606.69 0.865285 -1.31722 0
M  V30 17063 C 1607.63 1.97919 -1.15588 0
M  V30 17064 C 1608.64 1.6253 -0.0936929 0
M  V30 17065 O 1609.83 1.752 -0.341639 0
M  V30 17066 C 1606.93 3.30614 -0.744814 0
M  V30 17067 C 1606.1 3.94314 -1.89301 0
M  V30 17068 C 1605.16 5.0533 -1.46724 0
M  V30 17069 O 1604.19 5.25898 -2.17762 0
M  V30 17070 N 1605.39 5.794 -0.357262 0
M  V30 17071 H 1608.15 2.12304 -2.11535 0
M  V30 17072 H 1605.71 1.03953 -1.24118 0
M  V30 17073 H 1607.71 4.02273 -0.442594 0
M  V30 17074 H 1606.28 3.12357 0.123186 0
M  V30 17075 H 1605.5 3.15577 -2.3623 0
M  V30 17076 H 1606.78 4.33609 -2.66196 0
M  V30 17077 H 1606.18 5.65215 0.23423 0
M  V30 17078 H 1604.74 6.51699 -0.114599 0
M  V30 17079 N 1608.17 1.14759 1.0802 0
M  V30 17080 C 1609.11 0.781719 2.14393 0
M  V30 17081 C 1610.08 -0.238743 1.60838 0
M  V30 17082 O 1611.27 -0.126879 1.88073 0
M  V30 17083 C 1608.39 0.161293 3.38316 0
M  V30 17084 C 1607.44 1.15256 4.10632 0
M  V30 17085 S 1608.27 2.69159 4.6294 0
M  V30 17086 C 1609.43 2.08517 5.90145 0
M  V30 17087 H 1609.66 1.6827 2.45097 0
M  V30 17088 H 1607.2 0.969222 1.20189 0
M  V30 17089 H 1609.15 -0.190243 4.10059 0
M  V30 17090 H 1607.81 -0.717181 3.05803 0
M  V30 17091 H 1607.01 0.666543 4.99573 0
M  V30 17092 H 1606.61 1.44829 3.4482 0
M  V30 17093 H 1608.9 1.44304 6.61954 0
M  V30 17094 H 1609.84 2.95598 6.4345 0
M  V30 17095 H 1610.25 1.53092 5.43344 0
M  V30 17096 N 1609.65 -1.26251 0.943322 0
M  V30 17097 C 1610.58 -2.28673 0.472347 0
M  V30 17098 C 1611.56 -1.63319 -0.475481 0
M  V30 17099 O 1612.75 -1.90508 -0.376875 0
M  V30 17100 C 1609.88 -3.46316 -0.261286 0
M  V30 17101 C 1608.83 -4.23771 0.600192 0
M  V30 17102 C 1608.16 -5.3405 -0.263525 0
M  V30 17103 C 1609.46 -4.87576 1.87262 0
M  V30 17104 H 1611.15 -2.68319 1.32836 0
M  V30 17105 H 1608.7 -1.28987 0.640182 0
M  V30 17106 H 1610.65 -4.1708 -0.601821 0
M  V30 17107 H 1609.37 -3.05629 -1.15146 0
M  V30 17108 H 1608.03 -3.54774 0.923651 0
M  V30 17109 H 1607.68 -4.89604 -1.15312 0
M  V30 17110 H 1607.38 -5.86784 0.309495 0
M  V30 17111 H 1608.9 -6.07652 -0.599281 0
M  V30 17112 H 1610.32 -5.50544 1.59919 0
M  V30 17113 H 1608.72 -5.50437 2.39038 0
M  V30 17114 H 1609.79 -4.10397 2.58268 0
M  V30 17115 N 1611.13 -0.710588 -1.40671 0
M  V30 17116 C 1612.38 -0.248316 -2.01274 0
M  V30 17117 C 1612.71 1.1539 -1.56201 0
M  V30 17118 O 1611.98 1.78182 -0.779838 0
M  V30 17119 C 1612.27 -0.322762 -3.58651 0
M  V30 17120 C 1612.12 -1.763 -4.1381 0
M  V30 17121 C 1613.44 0.308908 -4.39015 0
M  V30 17122 H 1610.56 -0.0917037 -0.731272 0
M  V30 17123 H 1613.2 -0.902145 -1.67216 0
M  V30 17124 H 1611.35 0.233923 -3.87795 0
M  V30 17125 H 1613.02 -2.37468 -3.95483 0
M  V30 17126 H 1611.26 -2.29233 -3.68286 0
M  V30 17127 H 1611.94 -1.76652 -5.22971 0
M  V30 17128 H 1614.41 -0.165363 -4.15771 0
M  V30 17129 H 1613.29 0.226347 -5.48433 0
M  V30 17130 H 1613.55 1.39174 -4.19622 0
M  V30 17131 N 1612.61 1.50847 -0.456408 0
M  V30 17132 C 1613.57 2.26755 0.33388 0
M  V30 17133 C 1614.57 1.30947 0.933247 0
M  V30 17134 O 1615.76 1.54499 0.804716 0
M  V30 17135 C 1612.89 3.07378 1.47417 0
M  V30 17136 H 1614.09 2.98061 -0.331634 0
M  V30 17137 H 1611.64 1.54882 -0.210067 0
M  V30 17138 H 1612.37 2.40534 2.17518 0
M  V30 17139 H 1612.16 3.7777 1.05036 0
M  V30 17140 H 1613.65 3.64826 2.03204 0
M  V30 17141 N 1614.09 0.188454 1.56469 0
M  V30 17142 C 1615.02 -0.730379 2.21783 0
M  V30 17143 C 1616 -1.22629 1.17882 0
M  V30 17144 O 1617.18 -1.27634 1.46367 0
M  V30 17145 C 1614.31 -1.95278 2.872 0
M  V30 17146 C 1613.27 -1.59205 3.97288 0
M  V30 17147 C 1612.59 -2.89052 4.49836 0
M  V30 17148 C 1613.89 -0.807027 5.16027 0
M  V30 17149 H 1615.59 -0.185914 2.98822 0
M  V30 17150 H 1613.13 -0.0879804 1.43731 0
M  V30 17151 H 1615.08 -2.60074 3.31571 0
M  V30 17152 H 1613.81 -2.52167 2.07556 0
M  V30 17153 H 1612.47 -0.967713 3.53597 0
M  V30 17154 H 1612.12 -3.44017 3.66963 0
M  V30 17155 H 1611.82 -2.65663 5.24115 0
M  V30 17156 H 1613.34 -3.54847 4.96906 0
M  V30 17157 H 1614.75 -1.35794 5.56986 0
M  V30 17158 H 1613.15 -0.671516 5.96331 0
M  V30 17159 H 1614.22 0.193251 4.84515 0
M  V30 17160 N 1615.56 -1.5737 -0.0851874 0
M  V30 17161 C 1616.47 -2.06097 -1.12078 0
M  V30 17162 C 1617.49 -0.987809 -1.43242 0
M  V30 17163 O 1618.67 -1.30163 -1.53686 0
M  V30 17164 C 1615.73 -2.48397 -2.41867 0
M  V30 17165 C 1614.79 -3.69951 -2.17795 0
M  V30 17166 C 1614.02 -4.10225 -3.41396 0
M  V30 17167 O 1614.25 -3.50495 -4.5001 0
M  V30 17168 O 1613.18 -5.03111 -3.30399 0
M  V30 17169 H 1617.01 -2.94625 -0.736877 0
M  V30 17170 H 1614.59 -1.4639 -0.298392 0
M  V30 17171 H 1616.47 -2.76187 -3.18274 0
M  V30 17172 H 1615.15 -1.63003 -2.79664 0
M  V30 17173 H 1614.06 -3.47263 -1.39136 0
M  V30 17174 H 1615.39 -4.56156 -1.84886 0
M  V30 17175 N 1617.04 0.356258 -1.53521 0
M  V30 17176 C 1617.99 1.43689 -1.80616 0
M  V30 17177 C 1618.96 1.52808 -0.651064 0
M  V30 17178 O 1620.14 1.68549 -0.894203 0
M  V30 17179 C 1617.28 2.80513 -2.01013 0
M  V30 17180 C 1616.4 2.80287 -3.2873 0
M  V30 17181 C 1615.53 4.08747 -3.39263 0
M  V30 17182 C 1614.57 4.02699 -4.60977 0
M  V30 17183 N 1613.71 5.22825 -4.68614 0
M  V30 17184 H 1618.55 1.19884 -2.72822 0
M  V30 17185 H 1616.08 0.580984 -1.35141 0
M  V30 17186 H 1618.04 3.60011 -2.10827 0
M  V30 17187 H 1616.67 3.02698 -1.12134 0
M  V30 17188 H 1615.72 1.92968 -3.27822 0
M  V30 17189 H 1617.04 2.71693 -4.18311 0
M  V30 17190 H 1616.19 4.96663 -3.4844 0
M  V30 17191 H 1614.93 4.20106 -2.47715 0
M  V30 17192 H 1613.93 3.13168 -4.51892 0
M  V30 17193 H 1615.16 3.92934 -5.53877 0
M  V30 17194 H 1613.11 5.34752 -3.79969 0
M  V30 17195 H 1613.02 5.16437 -5.52113 0
M  V30 17196 H 1614.29 6.12548 -4.82085 0
M  V30 17197 N 1618.52 1.45038 0.616577 0
M  V30 17198 C 1619.45 1.55858 1.73869 0
M  V30 17199 C 1620.43 0.410657 1.65069 0
M  V30 17200 O 1621.62 0.632652 1.83606 0
M  V30 17201 C 1618.75 1.51635 3.12448 0
M  V30 17202 C 1617.7 2.65053 3.36052 0
M  V30 17203 C 1617.03 2.45883 4.74811 0
M  V30 17204 C 1618.33 4.07121 3.27185 0
M  V30 17205 H 1620.02 2.49784 1.6507 0
M  V30 17206 H 1617.57 1.20216 0.792724 0
M  V30 17207 H 1619.52 1.57803 3.90738 0
M  V30 17208 H 1618.24 0.542342 3.22066 0
M  V30 17209 H 1616.9 2.58299 2.60149 0
M  V30 17210 H 1616.55 1.46641 4.8115 0
M  V30 17211 H 1616.25 3.21935 4.9156 0
M  V30 17212 H 1617.77 2.53892 5.55312 0
M  V30 17213 H 1619.19 4.15167 3.9536 0
M  V30 17214 H 1617.58 4.83491 3.55466 0
M  V30 17215 H 1618.65 4.29663 2.24762 0
M  V30 17216 N 1620 -0.858287 1.32179 0
M  V30 17217 C 1620.95 -1.98796 1.2076 0
M  V30 17218 C 1621.94 -1.69021 0.11322 0
M  V30 17219 O 1623.15 -1.77873 0.275903 0
M  V30 17220 H 1619.52 -0.652269 0.374232 0
M  V30 17221 H 1621.49 -2.05555 2.1631 0
M  V30 17222 C 1620.24 -3.34646 0.943787 0
M  V30 17223 H 1619.56 -3.58084 1.77808 0
M  V30 17224 H 1621 -4.14248 0.904121 0
M  V30 17225 C 1619.46 -3.35041 -0.353477 0
M  V30 17226 O 1619.99 -3.77742 -1.36652 0
M  V30 17227 N 1618.2 -2.88181 -0.374164 0
M  V30 17228 H 1617.75 -2.53626 0.45075 0
M  V30 17229 H 1617.7 -2.88828 -1.24201 0
M  V30 17230 N 1621.48 -1.1533 -1.07409 0
M  V30 17231 C 1622.41 -0.807289 -2.14512 0
M  V30 17232 C 1623.42 0.18043 -1.61797 0
M  V30 17233 O 1624.61 -0.042733 -1.78449 0
M  V30 17234 C 1621.71 -0.179338 -3.38425 0
M  V30 17235 C 1620.88 -1.20433 -4.20493 0
M  V30 17236 C 1619.94 -0.598268 -5.22788 0
M  V30 17237 O 1618.97 -1.26405 -5.54987 0
M  V30 17238 N 1620.17 0.620283 -5.77177 0
M  V30 17239 H 1622.93 -1.729 -2.44797 0
M  V30 17240 H 1620.5 -1.0491 -1.23311 0
M  V30 17241 H 1622.49 0.238867 -4.03994 0
M  V30 17242 H 1621.06 0.645706 -3.05858 0
M  V30 17243 H 1620.28 -1.79912 -3.5075 0
M  V30 17244 H 1621.57 -1.89642 -4.72137 0
M  V30 17245 H 1620.96 1.17958 -5.53265 0
M  V30 17246 H 1619.52 0.980853 -6.44378 0
M  V30 17247 N 1622.95 1.25748 -0.950004 0
M  V30 17248 C 1624.2 1.92954 -0.601104 0
M  V30 17249 C 1624.52 1.74817 0.863953 0
M  V30 17250 O 1623.79 1.10904 1.61484 0
M  V30 17251 H 1622.37 0.714077 -0.219325 0
M  V30 17252 H 1625.03 1.53009 -1.20724 0
M  V30 17253 H 1624.13 3.00959 -0.826447 0
M  V30 17254 N 1624.43 0.718038 1.40292 0
M  V30 17255 C 1625.68 0.26782 2.01629 0
M  V30 17256 C 1626.03 -1.1272 1.55923 0
M  V30 17257 O 1625.33 -1.75425 0.770497 0
M  V30 17258 C 1625.52 0.289374 3.56227 0
M  V30 17259 C 1625.35 1.68495 4.16941 0
M  V30 17260 C 1624.12 2.29319 4.50268 0
M  V30 17261 C 1626.32 2.63562 4.41633 0
M  V30 17262 N 1624.3 3.61207 4.9639 0
M  V30 17263 C 1625.67 3.80159 4.89774 0
M  V30 17264 C 1627.72 2.61542 4.23675 0
M  V30 17265 C 1626.43 4.95048 5.21843 0
M  V30 17266 C 1628.45 3.7556 4.56846 0
M  V30 17267 C 1627.82 4.90891 5.05179 0
M  V30 17268 H 1623.91 0.143888 0.768648 0
M  V30 17269 H 1626.5 0.940362 1.70485 0
M  V30 17270 H 1624.67 -0.352744 3.86795 0
M  V30 17271 H 1626.4 -0.177788 4.04309 0
M  V30 17272 H 1623.16 1.81395 4.37485 0
M  V30 17273 H 1623.58 4.28873 5.2383 0
M  V30 17274 H 1628.22 1.7358 3.85526 0
M  V30 17275 H 1625.94 5.83653 5.58905 0
M  V30 17276 H 1629.53 3.75275 4.4459 0
M  V30 17277 H 1628.41 5.77655 5.30362 0
M  V30 17278 N 1625.91 -1.50602 0.464402 0
M  V30 17279 C 1626.84 -2.26203 -0.36943 0
M  V30 17280 C 1627.86 -1.31269 -0.962924 0
M  V30 17281 O 1629.04 -1.56829 -0.852465 0
M  V30 17282 C 1626.14 -3.02323 -1.53147 0
M  V30 17283 C 1625.32 -4.24561 -1.05198 0
M  V30 17284 C 1624.38 -4.83031 -2.08729 0
M  V30 17285 O 1623.4 -5.44131 -1.67062 0
M  V30 17286 N 1624.6 -4.6944 -3.41477 0
M  V30 17287 H 1627.37 -2.98402 0.278652 0
M  V30 17288 H 1624.93 -1.59193 0.294803 0
M  V30 17289 H 1626.92 -3.38319 -2.22086 0
M  V30 17290 H 1625.49 -2.32965 -2.08438 0
M  V30 17291 H 1624.71 -3.93748 -0.188705 0
M  V30 17292 H 1626 -5.0383 -0.709434 0
M  V30 17293 H 1625.4 -4.20832 -3.78044 0
M  V30 17294 H 1623.96 -5.09724 -4.06233 0
M  V30 17295 N 1627.39 -0.19675 -1.56367 0
M  V30 17296 C 1628.3 0.735372 -2.22777 0
M  V30 17297 C 1629.31 1.23336 -1.22737 0
M  V30 17298 O 1630.49 1.28017 -1.55479 0
M  V30 17299 C 1627.56 1.93706 -2.8754 0
M  V30 17300 C 1626.62 1.48348 -4.02854 0
M  V30 17301 C 1625.85 2.62788 -4.64519 0
M  V30 17302 O 1626.07 3.80311 -4.25111 0
M  V30 17303 O 1625.01 2.35406 -5.53956 0
M  V30 17304 H 1628.83 0.199788 -3.03042 0
M  V30 17305 H 1626.42 0.0326149 -1.49364 0
M  V30 17306 H 1628.3 2.63934 -3.28507 0
M  V30 17307 H 1626.97 2.46121 -2.10252 0
M  V30 17308 H 1625.88 0.749939 -3.66506 0
M  V30 17309 H 1627.21 1.00597 -4.8181 0
M  V30 17310 N 1628.87 1.57413 0.0768405 0
M  V30 17311 C 1630.28 1.53656 0.431508 0
M  V30 17312 C 1630.48 0.916194 1.79466 0
M  V30 17313 O 1629.54 0.516529 2.4716 0
M  V30 17314 C 1630.85 2.98325 0.377212 0
M  V30 17315 C 1632.4 3.09635 0.457761 0
M  V30 17316 C 1632.87 4.55945 0.433425 0
M  V30 17317 N 1634.37 4.60562 0.493647 0
M  V30 17318 C 1635.1 5.71242 0.496949 0
M  V30 17319 N 1634.6 6.91302 0.455368 0
M  V30 17320 N 1636.39 5.5947 0.543129 0
M  V30 17321 H 1628.54 1.96108 -0.815811 0
M  V30 17322 H 1630.8 0.897392 -0.3056 0
M  V30 17323 H 1630.51 3.47251 -0.557628 0
M  V30 17324 H 1630.38 3.57959 1.18932 0
M  V30 17325 H 1632.77 2.60685 1.38302 0
M  V30 17326 H 1632.85 2.52919 -0.382829 0
M  V30 17327 H 1632.5 5.0555 -0.487968 0
M  V30 17328 H 1632.43 5.10518 1.29148 0
M  V30 17329 H 1634.92 3.74162 0.530237 0
M  V30 17330 H 1635.23 7.7142 0.461674 0
M  V30 17331 H 1633.57 6.93717 0.422133 0
M  V30 17332 H 1636.77 4.64576 0.573272 0
M  V30 17333 H 1636.94 6.45727 0.542234 0
M  V30 17334 N 1630.34 -0.348112 1.53707 0
M  V30 17335 C 1631.59 -1.08671 1.70396 0
M  V30 17336 C 1631.91 -1.89314 0.467453 0
M  V30 17337 O 1631.18 -1.88911 -0.518605 0
M  V30 17338 H 1629.76 -0.404186 0.628206 0
M  V30 17339 H 1632.43 -0.390491 1.90948 0
M  V30 17340 H 1631.52 -1.76668 2.57284 0
M  V30 17341 N 1631.82 -1.45363 -0.608876 0
M  V30 17342 C 1632.75 -1.56778 -1.7304 0
M  V30 17343 C 1633.73 -0.419405 -1.64848 0
M  V30 17344 O 1634.92 -0.64238 -1.83268 0
M  V30 17345 C 1632.05 -1.5329 -3.1164 0
M  V30 17346 C 1631 -2.66832 -3.34641 0
M  V30 17347 C 1630.33 -2.48398 -4.735 0
M  V30 17348 C 1631.63 -4.0885 -3.25021 0
M  V30 17349 H 1633.32 -2.50656 -1.63743 0
M  V30 17350 H 1630.87 -1.20635 -0.786338 0
M  V30 17351 H 1632.82 -1.59873 -3.89895 0
M  V30 17352 H 1631.55 -0.559414 -3.21773 0
M  V30 17353 H 1630.2 -2.59675 -2.58775 0
M  V30 17354 H 1629.85 -1.49191 -4.80366 0
M  V30 17355 H 1629.55 -3.24537 -4.89846 0
M  V30 17356 H 1631.08 -2.56833 -5.53958 0
M  V30 17357 H 1632.49 -4.17257 -3.93153 0
M  V30 17358 H 1630.89 -4.85369 -3.52897 0
M  V30 17359 H 1631.96 -4.30849 -2.2248 0
M  V30 17360 N 1633.3 0.851265 -1.32632 0
M  V30 17361 C 1634.55 1.60807 -1.23568 0
M  V30 17362 C 1634.88 1.93155 0.201238 0
M  V30 17363 O 1634.15 1.5764 1.13929 0
M  V30 17364 C 1634.44 2.92619 -2.09872 0
M  V30 17365 C 1634.29 2.67031 -3.61959 0
M  V30 17366 C 1635.61 3.93924 -1.96244 0
M  V30 17367 H 1632.73 0.583492 -0.450229 0
M  V30 17368 H 1635.37 0.98273 -1.62611 0
M  V30 17369 H 1633.52 3.45988 -1.76704 0
M  V30 17370 H 1635.19 2.2019 -4.05357 0
M  V30 17371 H 1633.44 2.00938 -3.84456 0
M  V30 17372 H 1634.11 3.60902 -4.17676 0
M  V30 17373 H 1636.58 3.49823 -2.25307 0
M  V30 17374 H 1635.46 4.84005 -2.58902 0
M  V30 17375 H 1635.72 4.32185 -0.931065 0
M  V30 17376 N 1634.78 1.15898 1.06796 0
M  V30 17377 C 1636.03 0.935488 1.79145 0
M  V30 17378 C 1636.35 -0.538433 1.87419 0
M  V30 17379 O 1635.62 -1.39124 1.37917 0
M  V30 17380 H 1634.2 0.343123 0.663533 0
M  V30 17381 H 1636.86 1.4607 1.29034 0
M  V30 17382 H 1635.96 1.34978 2.81402 0
M  V30 17383 N 1636.26 -1.25243 0.956659 0
M  V30 17384 C 1637.67 -1.4525 0.661409 0
M  V30 17385 C 1637.87 -1.85774 -0.780404 0
M  V30 17386 O 1636.93 -1.98899 -1.55549 0
M  V30 17387 C 1638.24 -2.52296 1.63607 0
M  V30 17388 C 1639.79 -2.66134 1.64748 0
M  V30 17389 C 1640.26 -3.76366 2.60983 0
M  V30 17390 N 1641.76 -3.8378 2.5936 0
M  V30 17391 C 1642.49 -4.68569 3.30501 0
M  V30 17392 N 1641.99 -5.5763 4.11122 0
M  V30 17393 N 1643.78 -4.62551 3.19378 0
M  V30 17394 H 1635.93 -0.972321 1.88838 0
M  V30 17395 H 1638.19 -0.488615 0.812379 0
M  V30 17396 H 1637.9 -2.29382 2.66603 0
M  V30 17397 H 1637.77 -3.5025 1.40017 0
M  V30 17398 H 1640.16 -2.88412 0.624692 0
M  V30 17399 H 1640.24 -1.68573 1.92397 0
M  V30 17400 H 1639.89 -3.54839 3.63389 0
M  V30 17401 H 1639.82 -4.73417 2.30617 0
M  V30 17402 H 1642.31 -3.20117 2.00832 0
M  V30 17403 H 1642.62 -6.19258 4.62319 0
M  V30 17404 H 1640.96 -5.57331 4.15219 0
M  V30 17405 H 1644.16 -3.91983 2.55865 0
M  V30 17406 H 1644.33 -5.28407 3.75086 0
M  V30 17407 N 1637.73 -0.725468 -1.3991 0
M  V30 17408 C 1638.68 -0.0682776 -2.325 0
M  V30 17409 C 1639.68 0.736285 -1.52562 0
M  V30 17410 O 1640.88 0.638542 -1.68293 0
M  V30 17411 H 1637.26 -0.00327742 -0.751993 0
M  V30 17412 H 1639.23 -0.865735 -2.85565 0
M  V30 17413 C 1637.98 0.832036 -3.37598 0
M  V30 17414 H 1637.3 0.222341 -3.99181 0
M  V30 17415 H 1638.74 1.25965 -4.04856 0
M  V30 17416 C 1637.2 1.96201 -2.73874 0
M  V30 17417 O 1637.73 3.05378 -2.60974 0
M  V30 17418 N 1635.94 1.74857 -2.32106 0
M  V30 17419 H 1635.48 0.860621 -2.42798 0
M  V30 17420 H 1635.44 2.50639 -1.89808 0
M  V30 17421 N 1639.21 1.50354 -0.472382 0
M  V30 17422 C 1640.12 2.32318 0.326405 0
M  V30 17423 C 1641.14 1.4276 0.994771 0
M  V30 17424 O 1642.31 1.75811 0.98246 0
M  V30 17425 C 1639.38 3.17468 1.39337 0
M  V30 17426 C 1638.44 4.22848 0.741465 0
M  V30 17427 C 1637.67 5.03929 1.75759 0
M  V30 17428 O 1637.9 4.86105 2.98425 0
M  V30 17429 O 1636.83 5.87051 1.32871 0
M  V30 17430 H 1640.66 3.01749 -0.343702 0
M  V30 17431 H 1638.24 1.47553 -0.234207 0
M  V30 17432 H 1640.12 3.703 2.01136 0
M  V30 17433 H 1638.8 2.50764 2.04692 0
M  V30 17434 H 1637.71 3.74005 0.0844848 0
M  V30 17435 H 1639.04 4.92026 0.130838 0
M  V30 17436 N 1640.69 0.205039 1.56261 0
M  V30 17437 C 1641.94 -0.431735 1.98151 0
M  V30 17438 C 1642.27 -1.60579 1.09215 0
M  V30 17439 O 1641.55 -1.93949 0.146257 0
M  V30 17440 C 1641.83 -0.882278 3.49124 0
M  V30 17441 C 1641.68 0.294278 4.48836 0
M  V30 17442 C 1643 -1.7443 4.04057 0
M  V30 17443 H 1640.12 -0.155457 0.720418 0
M  V30 17444 H 1642.76 0.29796 1.87649 0
M  V30 17445 H 1640.91 -1.50404 3.58205 0
M  V30 17446 H 1642.58 0.932148 4.51784 0
M  V30 17447 H 1640.83 0.94444 4.23394 0
M  V30 17448 H 1641.5 -0.063639 5.51963 0
M  V30 17449 H 1643.97 -1.21983 3.97818 0
M  V30 17450 H 1642.85 -2.02848 5.10043 0
M  V30 17451 H 1643.11 -2.70195 3.49924 0
M  V30 17452 N 1642.17 -1.57451 -0.0684915 0
M  V30 17453 C 1643.58 -1.76107 -0.619932 0
M  V30 17454 C 1643.93 -0.830939 -1.77735 0
M  V30 17455 O 1643.06 -0.0158481 -2.16394 0
M  V30 17456 C 1643.65 -3.19352 -1.13136 0
M  V30 17457 C 1642.21 -3.39341 -1.62864 0
M  V30 17458 C 1641.36 -2.71801 -0.549477 0
M  V30 17459 H 1644.31 -1.57915 0.157689 0
M  V30 17460 H 1644.33 -3.23693 -2.00008 0
M  V30 17461 H 1643.84 -3.87024 -0.288762 0
M  V30 17462 H 1641.94 -2.76787 -2.49438 0
M  V30 17463 H 1642.06 -4.47799 -1.70331 0
M  V30 17464 H 1640.42 -2.34448 -0.995302 0
M  V30 17465 H 1641.2 -3.42132 0.282995 0
M  V30 17466 N 1643.65 0.339955 -1.5389 0
M  V30 17467 C 1645.06 0.915362 -1.62721 0
M  V30 17468 C 1645.41 1.89434 -0.510798 0
M  V30 17469 O 1644.53 2.13403 0.3589 0
M  V30 17470 C 1645.13 1.66699 -2.94953 0
M  V30 17471 C 1643.69 2.19135 -3.06034 0
M  V30 17472 C 1642.84 1.01159 -2.5819 0
M  V30 17473 H 1645.79 0.11799 -1.58261 0
M  V30 17474 H 1645.81 2.53011 -2.84193 0
M  V30 17475 H 1645.32 0.954219 -3.76186 0
M  V30 17476 H 1643.42 2.93577 -2.29441 0
M  V30 17477 H 1643.53 2.4526 -4.11563 0
M  V30 17478 H 1641.9 1.38604 -2.13685 0
M  V30 17479 H 1642.68 0.313396 -3.41867 0
M  V30 17480 N 1645.13 1.45684 0.601159 0
M  V30 17481 C 1646.37 1.50258 1.362 0
M  V30 17482 C 1646.7 0.146358 1.93648 0
M  V30 17483 O 1645.98 -0.839985 1.75427 0
M  V30 17484 C 1646.26 2.5868 2.50513 0
M  V30 17485 C 1646.12 4.03769 1.98219 0
M  V30 17486 C 1647.43 2.63332 3.52624 0
M  V30 17487 H 1644.55 0.547045 0.493873 0
M  V30 17488 H 1647.2 1.77527 0.677068 0
M  V30 17489 H 1645.35 2.35559 3.08941 0
M  V30 17490 H 1647.02 4.3812 1.44391 0
M  V30 17491 H 1645.26 4.14121 1.29174 0
M  V30 17492 H 1645.93 4.75329 2.80653 0
M  V30 17493 H 1648.41 2.84067 3.04048 0
M  V30 17494 H 1647.28 3.41047 4.30091 0
M  V30 17495 H 1647.54 1.68668 4.0866 0
M  V30 17496 N 1646.6 -0.84422 1.33082 0
M  V30 17497 C 1648.02 -1.13406 1.12299 0
M  V30 17498 C 1648.22 -2.013 -0.0896529 0
M  V30 17499 O 1647.28 -2.40425 -0.771493 0
M  V30 17500 C 1648.59 -1.80132 2.40776 0
M  V30 17501 C 1650.14 -1.92721 2.46632 0
M  V30 17502 C 1650.61 -2.62863 3.75056 0
M  V30 17503 N 1652.1 -2.70379 3.76097 0
M  V30 17504 C 1652.84 -3.25328 4.72175 0
M  V30 17505 N 1652.33 -3.81005 5.78625 0
M  V30 17506 N 1654.13 -3.23529 4.59658 0
M  V30 17507 H 1646.28 -0.259126 2.10813 0
M  V30 17508 H 1648.54 -0.177459 0.931242 0
M  V30 17509 H 1648.25 -1.23007 3.29488 0
M  V30 17510 H 1648.12 -2.802 2.52523 0
M  V30 17511 H 1650.51 -2.49002 1.58373 0
M  V30 17512 H 1650.59 -0.916191 2.3883 0
M  V30 17513 H 1650.23 -2.07242 4.63695 0
M  V30 17514 H 1650.16 -3.64425 3.80134 0
M  V30 17515 H 1652.65 -2.30891 2.99162 0
M  V30 17516 H 1652.97 -4.21121 6.47979 0
M  V30 17517 H 1651.31 -3.79308 5.82366 0
M  V30 17518 H 1654.5 -2.79286 3.75656 0
M  V30 17519 H 1654.68 -3.66051 5.34706 0
M  V30 17520 N 1648.08 -1.16463 -1.0618 0
M  V30 17521 C 1649.33 -0.946846 -1.79 0
M  V30 17522 C 1649.66 0.525259 -1.87273 0
M  V30 17523 O 1648.91 1.40584 -1.36142 0
M  V30 17524 C 1649.21 -1.52085 -3.23427 0
M  V30 17525 C 1648.88 -3.01547 -3.35232 0
M  V30 17526 C 1647.54 -3.42346 -3.38161 0
M  V30 17527 C 1649.89 -3.97543 -3.37059 0
M  V30 17528 C 1647.22 -4.77759 -3.40534 0
M  V30 17529 C 1649.57 -5.32843 -3.4097 0
M  V30 17530 C 1648.23 -5.73121 -3.42182 0
M  V30 17531 H 1647.5 -0.346475 -0.655008 0
M  V30 17532 H 1650.15 -1.45195 -1.24862 0
M  V30 17533 H 1648.46 -0.937212 -3.80426 0
M  V30 17534 H 1650.15 -1.32801 -3.78371 0
M  V30 17535 H 1646.74 -2.69017 -3.33658 0
M  V30 17536 H 1650.93 -3.67088 -3.34006 0
M  V30 17537 H 1646.18 -5.08293 -3.39777 0
M  V30 17538 H 1650.36 -6.07014 -3.41332 0
M  V30 17539 H 1647.98 -6.78029 -3.43774 0
M  V30 17540 N 1649.56 1.24734 -0.963288 0
M  V30 17541 C 1650.98 1.44897 -0.669103 0
M  V30 17542 C 1651.18 1.86185 0.770541 0
M  V30 17543 O 1650.23 1.99721 1.54492 0
M  V30 17544 C 1651.54 2.51425 -1.64943 0
M  V30 17545 C 1653.09 2.65256 -1.66157 0
M  V30 17546 C 1653.57 3.74977 -2.62976 0
M  V30 17547 N 1655.06 3.82399 -2.61391 0
M  V30 17548 C 1655.79 4.66809 -3.32981 0
M  V30 17549 N 1655.29 5.55441 -4.14073 0
M  V30 17550 N 1657.08 4.60851 -3.21827 0
M  V30 17551 H 1649.23 0.962292 -1.89351 0
M  V30 17552 H 1651.5 0.4843 -0.814958 0
M  V30 17553 H 1651.2 2.27965 -2.67815 0
M  V30 17554 H 1651.08 3.49503 -1.41872 0
M  V30 17555 H 1653.46 2.88077 -0.639978 0
M  V30 17556 H 1653.54 1.67551 -1.93288 0
M  V30 17557 H 1653.19 3.52907 -3.65266 0
M  V30 17558 H 1653.12 4.72187 -2.33125 0
M  V30 17559 H 1655.61 3.19048 -2.02527 0
M  V30 17560 H 1655.92 6.16798 -4.65597 0
M  V30 17561 H 1654.27 5.55121 -4.18169 0
M  V30 17562 H 1657.46 3.90621 -2.5794 0
M  V30 17563 H 1657.63 5.26411 -3.77883 0
M  V30 17564 N 1651.04 0.732878 1.39523 0
M  V30 17565 C 1652.28 0.284541 2.0241 0
M  V30 17566 C 1652.64 -1.10672 1.56894 0
M  V30 17567 O 1653.84 -1.65302 2.11964 0
M  V30 17568 C 1652.11 0.380486 3.55369 0
M  V30 17569 S 1653.67 0.0116789 4.38798 0
M  V30 17570 H 1650.49 0.111634 0.702182 0
M  V30 17571 H 1653.09 0.958924 1.70367 0
M  V30 17572 H 1651.8 1.39437 3.85986 0
M  V30 17573 H 1651.33 -0.31179 3.92163 0
M  V30 17574 H 1653.34 -1.20519 4.81341 0
M  V30 17575 N 1652.52 -1.50101 0.480349 0
M  V30 17576 C 1653.76 -2.01974 -0.0712904 0
M  V30 17577 C 1654.08 -1.36377 -1.39378 0
M  V30 17578 O 1653.35 -0.512162 -1.89087 0
M  V30 17579 H 1651.93 -0.746424 -0.0293362 0
M  V30 17580 H 1654.6 -1.84338 0.632883 0
M  V30 17581 H 1653.69 -3.11351 -0.216057 0
M  V30 17582 N 1653.99 -0.213323 -1.5615 0
M  V30 17583 C 1655.24 0.420909 -1.97259 0
M  V30 17584 C 1655.56 1.61483 -1.10375 0
M  V30 17585 O 1656.76 2.31804 -1.41347 0
M  V30 17586 C 1655.22 0.800243 -3.5089 0
M  V30 17587 C 1654.83 -0.370405 -4.46466 0
M  V30 17588 C 1656.57 1.40054 -4.00731 0
M  V30 17589 C 1654.48 0.0309052 -5.91392 0
M  V30 17590 H 1653.41 0.16103 -0.736604 0
M  V30 17591 H 1656.06 -0.308232 -1.80893 0
M  V30 17592 H 1654.44 1.58657 -3.62828 0
M  V30 17593 H 1655.61 -1.14796 -4.46272 0
M  V30 17594 H 1653.93 -0.883391 -4.06922 0
M  V30 17595 H 1656.53 1.71355 -5.06499 0
M  V30 17596 H 1656.87 2.31345 -3.461 0
M  V30 17597 H 1657.4 0.677813 -3.91983 0
M  V30 17598 H 1654.14 -0.848284 -6.49988 0
M  V30 17599 H 1653.66 0.772941 -5.94799 0
M  V30 17600 H 1655.34 0.460441 -6.4536 0
M  V30 17601 N 1655.47 1.57485 0.0601405 0
M  V30 17602 C 1656.42 2.00939 1.07739 0
M  V30 17603 C 1657.41 0.893348 1.33821 0
M  V30 17604 O 1658.6 1.15727 1.33927 0
M  V30 17605 C 1655.73 2.46657 2.38778 0
M  V30 17606 C 1654.81 3.65019 2.1592 0
M  V30 17607 N 1655.2 4.78807 1.63025 0
M  V30 17608 C 1653.5 3.71794 2.46344 0
M  V30 17609 C 1654.2 5.60599 1.55253 0
M  V30 17610 N 1653.18 5.04788 2.01718 0
M  V30 17611 H 1656.98 2.86349 0.661923 0
M  V30 17612 H 1654.5 1.6019 0.267017 0
M  V30 17613 H 1656.49 2.76032 3.12429 0
M  V30 17614 H 1655.15 1.62639 2.81031 0
M  V30 17615 H 1656.16 5.00868 1.31725 0
M  V30 17616 H 1652.84 2.98513 2.91884 0
M  V30 17617 H 1654.23 6.61966 1.1511 0
M  V30 17618 N 1656.95 -0.331789 1.54068 0
M  V30 17619 C 1657.88 -1.42889 1.79208 0
M  V30 17620 C 1658.9 -1.48204 0.673754 0
M  V30 17621 O 1660.08 -1.51075 0.950712 0
M  V30 17622 C 1657.18 -2.81477 1.88743 0
M  V30 17623 C 1656.36 -2.99463 3.18812 0
M  V30 17624 C 1655.42 -4.18363 3.19154 0
M  V30 17625 O 1654.44 -4.11916 3.92828 0
M  V30 17626 N 1655.64 -5.27489 2.42354 0
M  V30 17627 H 1658.41 -1.21689 2.73883 0
M  V30 17628 H 1655.97 -0.521735 1.53263 0
M  V30 17629 H 1657.96 -3.59213 1.86409 0
M  V30 17630 H 1656.53 -2.95765 1.01202 0
M  V30 17631 H 1655.75 -2.09097 3.34174 0
M  V30 17632 H 1657.04 -3.0837 4.04704 0
M  V30 17633 H 1656.44 -5.35599 1.82071 0
M  V30 17634 H 1655 -6.03674 2.45806 0
M  V30 17635 N 1658.43 -1.46001 -0.593424 0
M  V30 17636 C 1659.68 -1.50457 -1.34933 0
M  V30 17637 C 1660 -0.153383 -1.94396 0
M  V30 17638 O 1659.27 0.818894 -1.77963 0
M  V30 17639 H 1657.85 -0.554119 -0.50096 0
M  V30 17640 H 1660.51 -1.82057 -0.695798 0
M  V30 17641 H 1659.61 -2.25131 -2.16154 0
M  V30 17642 N 1659.91 0.83715 -1.33527 0
M  V30 17643 C 1660.84 1.95164 -1.18263 0
M  V30 17644 C 1661.82 1.62414 -0.0776864 0
M  V30 17645 O 1663 1.86963 -0.24024 0
M  V30 17646 C 1660.13 3.28766 -0.814294 0
M  V30 17647 C 1659.17 3.80486 -1.92698 0
M  V30 17648 S 1660.01 4.01957 -3.53823 0
M  V30 17649 C 1661.16 5.38507 -3.19 0
M  V30 17650 H 1661.4 2.07813 -2.12605 0
M  V30 17651 H 1658.93 0.991125 -1.18389 0
M  V30 17652 H 1660.89 4.05964 -0.608556 0
M  V30 17653 H 1659.55 3.13905 0.110553 0
M  V30 17654 H 1658.74 4.77164 -1.62266 0
M  V30 17655 H 1658.34 3.10189 -2.08947 0
M  V30 17656 H 1660.64 6.21404 -2.69931 0
M  V30 17657 H 1661.58 5.73913 -4.14764 0
M  V30 17658 H 1661.99 5.03342 -2.55552 0
M  V30 17659 N 1661.38 1.17024 1.05561 0
M  V30 17660 C 1662.35 0.885897 2.11387 0
M  V30 17661 C 1663.35 -0.122327 1.60334 0
M  V30 17662 O 1664.54 0.109416 1.73856 0
M  V30 17663 C 1661.67 0.32626 3.39335 0
M  V30 17664 H 1662.86 1.82414 2.38045 0
M  V30 17665 H 1660.42 0.980191 1.21745 0
M  V30 17666 H 1661.15 -0.619308 3.18332 0
M  V30 17667 H 1660.94 1.05285 3.777 0
M  V30 17668 H 1662.43 0.145513 4.17346 0
M  V30 17669 N 1662.86 -1.24221 0.969889 0
M  V30 17670 C 1664.11 -1.92638 0.633913 0
M  V30 17671 C 1664.44 -1.75612 -0.829092 0
M  V30 17672 O 1663.72 -1.11057 -1.59677 0
M  V30 17673 C 1664 -3.45583 1.01213 0
M  V30 17674 C 1663.85 -3.71766 2.53199 0
M  V30 17675 C 1665.17 -4.36671 0.548294 0
M  V30 17676 H 1662.29 -0.699608 0.231772 0
M  V30 17677 H 1664.93 -1.46548 1.20929 0
M  V30 17678 H 1663.08 -3.8497 0.522531 0
M  V30 17679 H 1664.75 -3.41925 3.09653 0
M  V30 17680 H 1663 -3.16842 2.963 0
M  V30 17681 H 1663.67 -4.78787 2.74713 0
M  V30 17682 H 1666.14 -4.04672 0.968489 0
M  V30 17683 H 1665.02 -5.42412 0.841472 0
M  V30 17684 H 1665.28 -4.38646 -0.551588 0
M  V30 17685 N 1664.34 -0.740267 -1.39132 0
M  V30 17686 C 1665.59 -0.290953 -2.00702 0
M  V30 17687 C 1665.92 1.12051 -1.58613 0
M  V30 17688 O 1665.19 1.76488 -0.817457 0
M  V30 17689 C 1665.48 -0.398765 -3.57885 0
M  V30 17690 C 1665.33 -1.85038 -4.09977 0
M  V30 17691 C 1666.65 0.215717 -4.39571 0
M  V30 17692 H 1663.77 -0.107194 -0.729163 0
M  V30 17693 H 1666.41 -0.937411 -1.65265 0
M  V30 17694 H 1664.56 0.151613 -3.88204 0
M  V30 17695 H 1666.23 -2.45804 -3.90357 0
M  V30 17696 H 1664.48 -2.36994 -3.63341 0
M  V30 17697 H 1665.15 -1.87705 -5.19106 0
M  V30 17698 H 1667.62 -0.253518 -4.15327 0
M  V30 17699 H 1666.5 0.109966 -5.4879 0
M  V30 17700 H 1666.76 1.30242 -4.2248 0
M  V30 17701 N 1665.82 1.49844 -0.488302 0
M  V30 17702 C 1667.07 2.02009 0.0605782 0
M  V30 17703 C 1667.39 1.37114 1.38653 0
M  V30 17704 O 1666.66 0.522182 1.88812 0
M  V30 17705 H 1665.24 0.746569 0.0253773 0
M  V30 17706 H 1667.9 1.84 -0.64265 0
M  V30 17707 H 1667 3.11461 0.199542 0
M  V30 17708 N 1667.3 0.221601 1.56034 0
M  V30 17709 C 1668.23 -0.683171 2.23282 0
M  V30 17710 C 1669.21 -1.20101 1.20456 0
M  V30 17711 O 1670.39 -1.245 1.49041 0
M  V30 17712 C 1667.52 -1.89143 2.91277 0
M  V30 17713 C 1666.48 -1.50742 4.00576 0
M  V30 17714 C 1665.8 -2.79446 4.55867 0
M  V30 17715 C 1667.1 -0.697388 5.17623 0
M  V30 17716 H 1668.8 -0.122488 2.99149 0
M  V30 17717 H 1666.34 -0.0574732 1.43885 0
M  V30 17718 H 1668.3 -2.52982 3.37013 0
M  V30 17719 H 1667.02 -2.47708 2.12858 0
M  V30 17720 H 1665.68 -0.892492 3.5557 0
M  V30 17721 H 1665.33 -3.36155 3.74177 0
M  V30 17722 H 1665.03 -2.54486 5.29633 0
M  V30 17723 H 1666.55 -3.44228 5.04321 0
M  V30 17724 H 1667.96 -1.23948 5.59741 0
M  V30 17725 H 1666.36 -0.544875 5.97621 0
M  V30 17726 H 1667.43 0.295981 4.83996 0
M  V30 17727 N 1668.77 -1.57515 -0.0517878 0
M  V30 17728 C 1670.02 -1.88214 -0.7471 0
M  V30 17729 C 1670.35 -0.815991 -1.76556 0
M  V30 17730 O 1669.6 0.185772 -1.94816 0
M  V30 17731 C 1669.9 -3.25625 -1.4732 0
M  V30 17732 C 1669.57 -4.46985 -0.592863 0
M  V30 17733 C 1668.23 -4.79923 -0.350322 0
M  V30 17734 C 1670.58 -5.21197 0.0163333 0
M  V30 17735 C 1667.91 -5.84474 0.510567 0
M  V30 17736 C 1670.26 -6.26661 0.864792 0
M  V30 17737 C 1668.93 -6.58087 1.11701 0
M  V30 17738 H 1668.2 -0.688725 -0.273383 0
M  V30 17739 H 1670.84 -1.91499 -0.00740375 0
M  V30 17740 H 1669.15 -3.18224 -2.28563 0
M  V30 17741 H 1670.85 -3.46619 -2.01634 0
M  V30 17742 H 1667.44 -4.21218 -0.792044 0
M  V30 17743 H 1671.62 -4.96048 -0.158125 0
M  V30 17744 H 1666.88 -6.0721 0.71452 0
M  V30 17745 H 1671.05 -6.83318 1.34347 0
M  V30 17746 H 1668.68 -7.38926 1.78584 0
M  V30 17747 N 1670.25 0.323614 -1.54242 0
M  V30 17748 C 1671.5 1.05947 -1.72104 0
M  V30 17749 C 1671.82 1.88547 -0.497512 0
M  V30 17750 O 1671.09 1.89712 0.488485 0
M  V30 17751 H 1669.67 0.394141 -0.634557 0
M  V30 17752 H 1672.33 0.360063 -1.91545 0
M  V30 17753 H 1671.43 1.72552 -2.60062 0
M  V30 17754 N 1671.73 1.46313 0.585673 0
M  V30 17755 C 1672.96 1.55273 1.37496 0
M  V30 17756 C 1673.38 0.193481 1.87102 0
M  V30 17757 O 1672.74 -0.825859 1.61398 0
M  V30 17758 C 1672.79 2.5591 2.54052 0
M  V30 17759 O 1671.89 2.09208 3.55395 0
M  V30 17760 H 1671.23 0.522614 0.409598 0
M  V30 17761 H 1673.76 1.9186 0.710697 0
M  V30 17762 H 1673.77 2.75424 3.01008 0
M  V30 17763 H 1672.45 3.54619 2.17298 0
M  V30 17764 H 1671.02 1.9967 3.14939 0
M  V30 17765 N 1673.21 -0.830057 1.33969 0
M  V30 17766 C 1674.14 -1.94785 1.20795 0
M  V30 17767 C 1675.15 -1.62225 0.136752 0
M  V30 17768 O 1676.34 -1.74233 0.38797 0
M  V30 17769 C 1673.44 -3.28523 0.832209 0
M  V30 17770 C 1672.62 -3.89157 1.99689 0
M  V30 17771 C 1671.68 -5.01262 1.6007 0
M  V30 17772 O 1670.7 -5.19939 2.31629 0
M  V30 17773 N 1671.9 -5.78249 0.510754 0
M  V30 17774 H 1674.67 -2.06621 2.17089 0
M  V30 17775 H 1672.23 -1.00626 1.26831 0
M  V30 17776 H 1674.22 -4.00958 0.549094 0
M  V30 17777 H 1672.79 -3.12574 -0.0403271 0
M  V30 17778 H 1672.01 -3.09203 2.44514 0
M  V30 17779 H 1673.3 -4.26399 2.77599 0
M  V30 17780 H 1672.7 -5.65637 -0.0842912 0
M  V30 17781 H 1671.25 -6.51166 0.287345 0
M  V30 17782 N 1674.69 -1.17582 -1.04939 0
M  V30 17783 C 1675.6 -0.909588 -2.16249 0
M  V30 17784 C 1676.61 0.123166 -1.73564 0
M  V30 17785 O 1677.79 -0.0566976 -2.0132 0
M  V30 17786 C 1674.85 -0.429342 -3.44031 0
M  V30 17787 C 1673.92 -1.529 -4.01149 0
M  V30 17788 C 1673.15 -1.07157 -5.22832 0
M  V30 17789 O 1673.37 0.0732634 -5.70353 0
M  V30 17790 O 1672.31 -1.86567 -5.72255 0
M  V30 17791 H 1676.13 -1.84074 -2.41558 0
M  V30 17792 H 1673.72 -0.956914 -1.14732 0
M  V30 17793 H 1675.6 -0.16917 -4.2106 0
M  V30 17794 H 1674.27 0.473629 -3.20216 0
M  V30 17795 H 1673.18 -1.84308 -3.25548 0
M  V30 17796 H 1674.51 -2.40777 -4.29287 0
M  V30 17797 N 1676.17 1.23705 -0.976463 0
M  V30 17798 C 1677.58 1.44179 -0.684434 0
M  V30 17799 C 1677.78 1.86992 0.75075 0
M  V30 17800 O 1676.84 2.01349 1.52365 0
M  V30 17801 C 1678.15 2.49661 -1.676 0
M  V30 17802 C 1679.7 2.63479 -1.68961 0
M  V30 17803 C 1680.17 3.72167 -2.66938 0
M  V30 17804 N 1681.66 3.79605 -2.65433 0
M  V30 17805 C 1682.4 4.63251 -3.37914 0
M  V30 17806 N 1681.9 5.51018 -4.19941 0
M  V30 17807 N 1683.69 4.57412 -3.26697 0
M  V30 17808 H 1675.84 0.942155 -1.90361 0
M  V30 17809 H 1678.1 0.475629 -0.820049 0
M  V30 17810 H 1677.81 2.25111 -2.70218 0
M  V30 17811 H 1677.68 3.47978 -1.45571 0
M  V30 17812 H 1680.07 2.87382 -0.670497 0
M  V30 17813 H 1680.15 1.65491 -1.95055 0
M  V30 17814 H 1679.79 3.49013 -3.68988 0
M  V30 17815 H 1679.72 4.69688 -2.3812 0
M  V30 17816 H 1682.22 3.16882 -2.05899 0
M  V30 17817 H 1682.53 6.11825 -4.72113 0
M  V30 17818 H 1680.87 5.50655 -4.24033 0
M  V30 17819 H 1684.06 3.87863 -2.62069 0
M  V30 17820 H 1684.24 5.22373 -3.83446 0
M  V30 17821 N 1677.64 0.747635 1.38738 0
M  V30 17822 C 1678.87 0.310484 2.05063 0
M  V30 17823 C 1679.29 -1.05078 1.56013 0
M  V30 17824 O 1678.65 -1.66842 0.709461 0
M  V30 17825 C 1678.7 0.335837 3.59033 0
M  V30 17826 O 1677.8 -0.672218 4.06884 0
M  V30 17827 H 1677.14 0.138591 0.649375 0
M  V30 17828 H 1679.67 1.01709 1.77529 0
M  V30 17829 H 1679.68 0.184631 4.07582 0
M  V30 17830 H 1678.36 1.32906 3.94092 0
M  V30 17831 H 1676.94 -0.486112 3.69718 0
M  V30 17832 N 1679.12 -1.49583 0.496242 0
M  V30 17833 C 1680.4 -1.95275 -0.112751 0
M  V30 17834 C 1680.78 -1.43758 -1.54586 0
M  V30 17835 O 1680.13 -0.649285 -2.19081 0
M  V30 17836 C 1680.34 -3.48987 -0.0302774 0
M  V30 17837 C 1681.68 -4.24097 -0.206595 0
M  V30 17838 O 1682.71 -3.56043 -0.105689 0
M  V30 17839 O 1681.57 -5.44936 -0.413172 0
M  V30 17840 H 1678.66 -0.821183 -0.0979145 0
M  V30 17841 H 1681.21 -1.60248 0.558441 0
M  V30 17842 H 1679.98 -3.79104 0.969322 0
M  V30 17843 H 1679.6 -3.90618 -0.741825 0
M  V30 17844 N 1680.6 -0.229873 -1.55915 0
M  V30 17845 C 1681.85 0.399565 -1.98519 0
M  V30 17846 C 1682.17 1.59179 -1.1177 0
M  V30 17847 O 1681.43 1.95007 -0.16454 0
M  V30 17848 C 1681.73 0.869043 -3.46673 0
M  V30 17849 C 1681.39 -0.21356 -4.50394 0
M  V30 17850 C 1680.06 -0.510939 -4.7848 0
M  V30 17851 C 1682.41 -0.945307 -5.12556 0
M  V30 17852 C 1679.74 -1.54444 -5.66007 0
M  V30 17853 C 1682.09 -1.9682 -6.01203 0
M  V30 17854 C 1680.75 -2.27241 -6.27629 0
M  V30 17855 H 1680.02 0.146211 -0.726432 0
M  V30 17856 H 1682.67 -0.334135 -1.88562 0
M  V30 17857 H 1680.97 1.68165 -3.53875 0
M  V30 17858 H 1682.67 1.36605 -3.77015 0
M  V30 17859 H 1679.26 0.0283699 -4.28591 0
M  V30 17860 H 1683.45 -0.728806 -4.9092 0
M  V30 17861 H 1678.7 -1.78566 -5.84743 0
M  V30 17862 H 1682.88 -2.54023 -6.48418 0
M  V30 17863 H 1680.5 -3.07465 -6.95248 0
M  V30 17864 N 1682.08 1.5754 0.0434337 0
M  V30 17865 C 1683.31 1.92856 0.749268 0
M  V30 17866 C 1683.72 0.828405 1.69655 0
M  V30 17867 O 1683.08 -0.196294 1.81441 0
M  V30 17868 C 1683.13 3.28052 1.51869 0
M  V30 17869 O 1682.85 4.3384 0.609442 0
M  V30 17870 C 1684.35 3.77562 2.32298 0
M  V30 17871 H 1681.57 0.636818 0.211433 0
M  V30 17872 H 1684.11 2.04499 0.00524119 0
M  V30 17873 H 1682.27 3.1785 2.21472 0
M  V30 17874 H 1682.68 5.11794 1.1475 0
M  V30 17875 H 1684.16 4.7471 2.817 0
M  V30 17876 H 1684.63 3.08015 3.13087 0
M  V30 17877 H 1685.24 3.908 1.67796 0
M  V30 17878 N 1683.56 -0.31543 1.54411 0
M  V30 17879 C 1684.52 -1.37154 1.83634 0
M  V30 17880 C 1685.52 -1.44349 0.708518 0
M  V30 17881 O 1686.71 -1.44235 0.976824 0
M  V30 17882 C 1683.84 -2.758 2.00368 0
M  V30 17883 H 1685.03 -1.12493 2.78002 0
M  V30 17884 H 1682.59 -0.551346 1.46253 0
M  V30 17885 H 1683.32 -3.05704 1.08238 0
M  V30 17886 H 1683.11 -2.7197 2.82445 0
M  V30 17887 H 1684.6 -3.52187 2.24397 0
M  V30 17888 N 1685.03 -1.46622 -0.577906 0
M  V30 17889 C 1686.28 -1.51446 -1.33218 0
M  V30 17890 C 1686.6 -0.17258 -1.94837 0
M  V30 17891 O 1687.8 -0.0986578 -2.71321 0
M  V30 17892 C 1686.26 -2.66876 -2.41465 0
M  V30 17893 C 1685.87 -4.07506 -1.86127 0
M  V30 17894 C 1687.61 -2.80975 -3.18203 0
M  V30 17895 C 1685.52 -5.14268 -2.92031 0
M  V30 17896 H 1684.45 -0.563643 -0.500822 0
M  V30 17897 H 1687.1 -1.72845 -0.616186 0
M  V30 17898 H 1685.48 -2.38816 -3.15884 0
M  V30 17899 H 1686.65 -4.45378 -1.18218 0
M  V30 17900 H 1684.97 -3.98115 -1.2204 0
M  V30 17901 H 1687.57 -3.57906 -3.97249 0
M  V30 17902 H 1687.91 -1.88665 -3.71095 0
M  V30 17903 H 1688.44 -3.08705 -2.50891 0
M  V30 17904 H 1685.18 -6.08386 -2.44021 0
M  V30 17905 H 1684.7 -4.80936 -3.58414 0
M  V30 17906 H 1686.38 -5.40321 -3.55896 0
M  V30 17907 N 1686.51 0.822941 -1.34408 0
M  V30 17908 C 1687.76 1.57604 -1.26513 0
M  V30 17909 C 1688.08 1.94303 0.164769 0
M  V30 17910 O 1687.35 1.62278 1.09738 0
M  V30 17911 H 1685.93 0.584399 -0.465282 0
M  V30 17912 H 1688.59 0.982582 -1.68319 0
M  V30 17913 H 1687.69 2.49886 -1.86986 0
M  V30 17914 N 1687.99 1.18137 1.04314 0
M  V30 17915 C 1689.4 0.979768 1.58926 0
M  V30 17916 C 1689.75 -0.471214 1.90457 0
M  V30 17917 O 1688.88 -1.34812 1.69277 0
M  V30 17918 C 1689.47 1.77219 2.88754 0
M  V30 17919 C 1688.03 1.61501 3.39992 0
M  V30 17920 C 1687.18 1.76824 2.13609 0
M  V30 17921 H 1690.13 1.32717 0.870162 0
M  V30 17922 H 1690.15 1.2598 3.59039 0
M  V30 17923 H 1689.66 2.82818 2.65773 0
M  V30 17924 H 1687.76 0.58427 3.67991 0
M  V30 17925 H 1687.88 2.4115 4.13985 0
M  V30 17926 H 1686.24 1.19747 2.24795 0
M  V30 17927 H 1687.02 2.83853 1.93087 0
M  V30 17928 N 1689.47 -1.23186 0.98301 0
M  V30 17929 C 1690.69 -1.96242 0.671114 0
M  V30 17930 C 1691.12 -1.72248 -0.755792 0
M  V30 17931 O 1690.48 -0.995555 -1.5152 0
M  V30 17932 C 1690.52 -3.47293 0.970571 0
M  V30 17933 O 1689.63 -4.1235 0.0639814 0
M  V30 17934 H 1688.97 -0.614262 0.252147 0
M  V30 17935 H 1691.5 -1.56551 1.31731 0
M  V30 17936 H 1691.51 -3.9776 0.908345 0
M  V30 17937 H 1690.18 -3.64083 2.01039 0
M  V30 17938 H 1688.76 -3.72461 0.180842 0
M  V30 17939 N 1690.95 -0.754982 -1.38339 0
M  V30 17940 C 1692.19 -0.312224 -2.00382 0
M  V30 17941 C 1692.53 1.10362 -1.59793 0
M  V30 17942 O 1691.8 1.75611 -0.83613 0
M  V30 17943 C 1692.08 -0.436701 -3.57442 0
M  V30 17944 C 1691.94 -1.89376 -4.07991 0
M  V30 17945 C 1693.26 0.169083 -4.39775 0
M  V30 17946 H 1690.37 -0.114922 -0.727985 0
M  V30 17947 H 1693.02 -0.954887 -1.64262 0
M  V30 17948 H 1691.17 0.11043 -3.88343 0
M  V30 17949 H 1692.84 -2.4993 -3.87728 0
M  V30 17950 H 1691.08 -2.40834 -3.60807 0
M  V30 17951 H 1691.75 -1.932 -5.17086 0
M  V30 17952 H 1694.23 -0.297554 -4.15035 0
M  V30 17953 H 1693.1 0.0517531 -5.48876 0
M  V30 17954 H 1693.37 1.25754 -4.23838 0
M  V30 17955 N 1692.42 1.49318 -0.504168 0
M  V30 17956 C 1693.37 2.30832 0.286237 0
M  V30 17957 C 1694.37 1.39585 0.959818 0
M  V30 17958 O 1695.57 1.5662 0.887146 0
M  V30 17959 H 1691.95 0.743738 0.111167 0
M  V30 17960 H 1693.92 2.95412 -0.421206 0
M  V30 17961 C 1692.67 3.2101 1.33596 0
M  V30 17962 H 1691.99 3.91152 0.827057 0
M  V30 17963 H 1693.43 3.8098 1.86093 0
M  V30 17964 C 1691.89 2.40836 2.35583 0
M  V30 17965 O 1692.42 2.11476 3.41527 0
M  V30 17966 N 1690.63 2.02802 2.08134 0
M  V30 17967 H 1690.17 2.26879 1.21999 0
M  V30 17968 H 1690.13 1.49467 2.76599 0
M  V30 17969 N 1693.9 0.238138 1.5579 0
M  V30 17970 C 1695.15 -0.389474 1.97904 0
M  V30 17971 C 1695.46 -1.59707 1.1293 0
M  V30 17972 O 1696.67 -2.29526 1.45017 0
M  V30 17973 C 1695.13 -0.744319 3.52119 0
M  V30 17974 C 1694.73 0.441387 4.4582 0
M  V30 17975 C 1696.48 -1.33661 4.02908 0
M  V30 17976 C 1694.39 0.063184 5.91366 0
M  V30 17977 H 1693.32 -0.149291 0.739072 0
M  V30 17978 H 1695.97 0.336972 1.80379 0
M  V30 17979 H 1694.35 -1.52865 3.65306 0
M  V30 17980 H 1695.52 1.21881 4.44389 0
M  V30 17981 H 1693.84 0.948017 4.05465 0
M  V30 17982 H 1696.43 -1.63276 5.09161 0
M  V30 17983 H 1696.78 -2.2581 3.49737 0
M  V30 17984 H 1697.31 -0.615366 3.93012 0
M  V30 17985 H 1694.05 0.951584 6.48556 0
M  V30 17986 H 1693.57 -0.678216 5.95953 0
M  V30 17987 H 1695.25 -0.357712 6.4601 0
M  V30 17988 N 1695.38 -1.57561 -0.0350783 0
M  V30 17989 C 1696.34 -2.05145 -1.02217 0
M  V30 17990 C 1697.34 -0.954524 -1.29404 0
M  V30 17991 O 1698.53 -1.21833 -1.24509 0
M  V30 17992 C 1695.67 -2.4633 -2.35658 0
M  V30 17993 H 1696.86 -2.93605 -0.61126 0
M  V30 17994 H 1694.41 -1.53739 -0.28176 0
M  V30 17995 H 1695.15 -1.61008 -2.81508 0
M  V30 17996 H 1694.93 -3.26408 -2.17256 0
M  V30 17997 H 1696.42 -2.83592 -3.06537 0
M  V30 17998 N 1696.86 0.307236 -1.54576 0
M  V30 17999 C 1697.82 1.36178 -1.84359 0
M  V30 18000 C 1698.82 1.43971 -0.716163 0
M  V30 18001 O 1700.01 1.43715 -0.98446 0
M  V30 18002 C 1697.14 2.74733 -2.01828 0
M  V30 18003 H 1698.34 1.11017 -2.78595 0
M  V30 18004 H 1695.89 0.543582 -1.46543 0
M  V30 18005 H 1696.62 3.05126 -1.09858 0
M  V30 18006 H 1696.41 2.70468 -2.83883 0
M  V30 18007 H 1697.9 3.50992 -2.26261 0
M  V30 18008 N 1698.34 1.46926 0.570122 0
M  V30 18009 C 1699.75 1.32159 0.894766 0
M  V30 18010 C 1699.95 0.302411 1.99218 0
M  V30 18011 O 1699.01 -0.290615 2.50822 0
M  V30 18012 C 1700.32 2.71136 1.30021 0
M  V30 18013 C 1701.87 2.79323 1.41236 0
M  V30 18014 C 1702.34 4.18911 1.85142 0
M  V30 18015 N 1703.84 4.2139 1.92314 0
M  V30 18016 C 1704.57 5.263 2.27588 0
M  V30 18017 N 1704.07 6.41526 2.61565 0
M  V30 18018 N 1705.86 5.13671 2.28251 0
M  V30 18019 H 1698.01 2.11837 -0.154603 0
M  V30 18020 H 1700.27 0.947978 -0.00649658 0
M  V30 18021 H 1699.98 3.47087 0.567775 0
M  V30 18022 H 1699.85 3.02066 2.25911 0
M  V30 18023 H 1702.24 2.03653 2.13564 0
M  V30 18024 H 1702.32 2.52063 0.43566 0
M  V30 18025 H 1701.97 4.95081 1.13389 0
M  V30 18026 H 1701.9 4.43587 2.83792 0
M  V30 18027 H 1704.39 3.38257 1.68495 0
M  V30 18028 H 1704.7 7.17343 2.8747 0
M  V30 18029 H 1703.04 6.44867 2.59175 0
M  V30 18030 H 1706.24 4.22684 2.01137 0
M  V30 18031 H 1706.41 5.95541 2.55412 0
M  V30 18032 N 1699.82 -0.815801 1.34842 0
M  V30 18033 C 1700.75 -1.94193 1.29659 0
M  V30 18034 C 1701.73 -1.69221 0.172703 0
M  V30 18035 O 1702.91 -1.90716 0.366203 0
M  V30 18036 C 1700.04 -3.30777 1.0585 0
M  V30 18037 C 1699 -3.70207 2.1478 0
M  V30 18038 C 1698.32 -5.04852 1.76149 0
M  V30 18039 C 1699.62 -3.81553 3.56671 0
M  V30 18040 H 1701.32 -1.98787 2.23884 0
M  V30 18041 H 1698.86 -0.955013 1.07775 0
M  V30 18042 H 1700.81 -4.0915 1.00866 0
M  V30 18043 H 1699.54 -3.265 0.0806804 0
M  V30 18044 H 1698.2 -2.94113 2.18845 0
M  V30 18045 H 1697.85 -4.9707 0.770099 0
M  V30 18046 H 1697.55 -5.32205 2.49062 0
M  V30 18047 H 1699.07 -5.85676 1.72674 0
M  V30 18048 H 1700.48 -4.50181 3.54979 0
M  V30 18049 H 1698.88 -4.20367 4.28266 0
M  V30 18050 H 1699.95 -2.83356 3.93494 0
M  V30 18051 N 1701.29 -1.18689 -1.03686 0
M  V30 18052 C 1702.23 -0.875126 -2.11835 0
M  V30 18053 C 1703.24 0.128865 -1.62289 0
M  V30 18054 O 1704.43 -0.0994835 -1.78223 0
M  V30 18055 C 1701.53 -0.286914 -3.37683 0
M  V30 18056 C 1700.7 -1.3375 -4.16449 0
M  V30 18057 C 1699.76 -0.764286 -5.2062 0
M  V30 18058 O 1698.79 -1.43998 -5.50684 0
M  V30 18059 N 1699.99 0.436345 -5.78858 0
M  V30 18060 H 1702.75 -1.80601 -2.39172 0
M  V30 18061 H 1700.31 -1.0878 -1.19911 0
M  V30 18062 H 1702.31 0.110219 -4.0455 0
M  V30 18063 H 1700.88 0.548073 -3.07758 0
M  V30 18064 H 1700.1 -1.9098 -3.44848 0
M  V30 18065 H 1701.38 -2.04566 -4.65865 0
M  V30 18066 H 1700.78 1.00296 -5.56738 0
M  V30 18067 H 1699.34 0.775353 -6.47172 0
M  V30 18068 N 1702.77 1.22662 -0.989529 0
M  V30 18069 C 1703.68 2.28162 -0.545835 0
M  V30 18070 C 1704.7 1.69251 0.403762 0
M  V30 18071 O 1705.87 1.99563 0.271428 0
M  V30 18072 C 1702.94 3.46434 0.135808 0
M  V30 18073 C 1702 4.20673 -0.85633 0
M  V30 18074 C 1701.23 5.33298 -0.207121 0
M  V30 18075 O 1701.46 5.6157 0.99975 0
M  V30 18076 O 1700.39 5.94977 -0.910288 0
M  V30 18077 H 1704.22 2.68276 -1.42344 0
M  V30 18078 H 1701.8 1.28766 -0.757609 0
M  V30 18079 H 1703.68 4.18207 0.517776 0
M  V30 18080 H 1702.36 3.08252 0.988035 0
M  V30 18081 H 1701.26 3.51186 -1.28917 0
M  V30 18082 H 1702.6 4.62726 -1.67765 0
M  V30 18083 N 1704.25 0.762308 1.37937 0
M  V30 18084 C 1705.21 0.148588 2.28718 0
M  V30 18085 C 1706.21 -0.638198 1.47593 0
M  V30 18086 O 1707.4 -0.463178 1.67929 0
M  V30 18087 C 1704.53 -0.797492 3.31441 0
M  V30 18088 H 1705.73 0.94872 2.84498 0
M  V30 18089 H 1703.28 0.529888 1.47044 0
M  V30 18090 H 1704.02 -1.62298 2.80767 0
M  V30 18091 H 1703.8 -0.23561 3.91391 0
M  V30 18092 H 1705.29 -1.22262 3.99302 0
M  V30 18093 N 1705.73 -1.49049 0.51208 0
M  V30 18094 C 1706.96 -2.06885 -0.0249703 0
M  V30 18095 C 1707.37 -1.371 -1.29804 0
M  V30 18096 O 1706.73 -0.452798 -1.76794 0
M  V30 18097 C 1706.78 -3.60482 -0.27112 0
M  V30 18098 O 1706.5 -4.27643 0.951493 0
M  V30 18099 C 1708 -4.35063 -0.850568 0
M  V30 18100 H 1705.22 -0.670517 0.0254456 0
M  V30 18101 H 1707.76 -1.91682 0.712607 0
M  V30 18102 H 1705.92 -3.7535 -0.958702 0
M  V30 18103 H 1706.33 -5.19519 0.721156 0
M  V30 18104 H 1707.81 -5.43369 -0.972322 0
M  V30 18105 H 1708.28 -3.98285 -1.85111 0
M  V30 18106 H 1708.89 -4.24829 -0.200111 0
M  V30 18107 N 1707.21 -0.246397 -1.55662 0
M  V30 18108 C 1708.17 0.640041 -2.20082 0
M  V30 18109 C 1709.17 1.10313 -1.16994 0
M  V30 18110 O 1710.36 1.00792 -1.42079 0
M  V30 18111 C 1707.49 1.87964 -2.84398 0
M  V30 18112 H 1708.68 0.0780034 -2.99799 0
M  V30 18113 H 1706.24 0.00314588 -1.563 0
M  V30 18114 H 1706.97 2.48292 -2.08618 0
M  V30 18115 H 1706.76 1.5558 -3.59913 0
M  V30 18116 H 1708.25 2.51065 -3.33701 0
M  V30 18117 N 1708.68 1.57577 0.026722 0
M  V30 18118 C 1710.09 1.77689 0.573022 0
M  V30 18119 C 1710.45 0.877771 1.7547 0
M  V30 18120 O 1709.57 0.0732156 2.16276 0
M  V30 18121 C 1710.17 3.22239 1.0463 0
M  V30 18122 C 1708.72 3.4354 1.5381 0
M  V30 18123 C 1707.87 2.73163 0.47722 0
M  V30 18124 H 1710.82 1.57441 -0.199502 0
M  V30 18125 H 1710.84 3.28882 1.91355 0
M  V30 18126 H 1710.36 3.87654 0.186047 0
M  V30 18127 H 1708.46 2.83304 2.42012 0
M  V30 18128 H 1708.57 4.52158 1.58398 0
M  V30 18129 H 1706.93 2.37004 0.932793 0
M  V30 18130 H 1707.72 3.41261 -0.373605 0
M  V30 18131 N 1710.16 -0.299034 1.54737 0
M  V30 18132 C 1711.11 -1.38889 1.86581 0
M  V30 18133 C 1712.1 -1.52396 0.739723 0
M  V30 18134 O 1713.31 -1.5449 0.92374 0
M  V30 18135 H 1709.68 -0.463969 0.591808 0
M  V30 18136 H 1711.66 -1.09268 2.77674 0
M  V30 18137 C 1710.4 -2.74702 2.13152 0
M  V30 18138 H 1709.73 -2.65092 2.99277 0
M  V30 18139 H 1711.17 -3.49967 2.39372 0
M  V30 18140 C 1709.63 -3.23789 0.930706 0
M  V30 18141 O 1710.16 -4.01412 0.152193 0
M  V30 18142 N 1708.36 -2.81137 0.735545 0
M  V30 18143 H 1707.91 -2.1813 1.37029 0
M  V30 18144 H 1707.87 -3.1433 -0.0663452 0
M  V30 18145 N 1711.64 -1.47227 -0.562322 0
M  V30 18146 C 1712.86 -1.5744 -1.35008 0
M  V30 18147 C 1713.29 -0.223223 -1.86771 0
M  V30 18148 O 1712.65 0.800078 -1.62691 0
M  V30 18149 C 1712.7 -2.5992 -2.49948 0
M  V30 18150 O 1711.8 -2.14836 -3.52022 0
M  V30 18151 H 1711.14 -0.529064 -0.401232 0
M  V30 18152 H 1713.67 -1.92966 -0.680084 0
M  V30 18153 H 1713.68 -2.80177 -2.96588 0
M  V30 18154 H 1712.36 -3.58031 -2.11629 0
M  V30 18155 H 1710.93 -2.04655 -3.11722 0
M  V30 18156 N 1713.12 0.808639 -1.35273 0
M  V30 18157 C 1714.37 1.56071 -1.27768 0
M  V30 18158 C 1714.68 1.9505 0.146545 0
M  V30 18159 O 1715.89 2.69314 0.343855 0
M  V30 18160 C 1714.34 2.81648 -2.24059 0
M  V30 18161 C 1713.95 2.49915 -3.71815 0
M  V30 18162 C 1715.69 3.59658 -2.25492 0
M  V30 18163 C 1713.6 3.7177 -4.59936 0
M  V30 18164 H 1712.53 0.585811 -0.474701 0
M  V30 18165 H 1715.18 0.889051 -1.60525 0
M  V30 18166 H 1713.56 3.50514 -1.84271 0
M  V30 18167 H 1714.74 1.89068 -4.20226 0
M  V30 18168 H 1713.05 1.85154 -3.72971 0
M  V30 18169 H 1715.65 4.50162 -2.88545 0
M  V30 18170 H 1715.99 3.96835 -1.2581 0
M  V30 18171 H 1716.53 2.97751 -2.63798 0
M  V30 18172 H 1713.26 3.39704 -5.60608 0
M  V30 18173 H 1712.78 4.3185 -4.16252 0
M  V30 18174 H 1714.46 4.39022 -4.75256 0
M  V30 18175 N 1714.6 1.19237 1.03055 0
M  V30 18176 C 1715.53 0.871947 2.10885 0
M  V30 18177 C 1716.51 -0.170311 1.61706 0
M  V30 18178 O 1717.69 -0.0469972 1.88441 0
M  V30 18179 C 1714.82 0.304639 3.37327 0
M  V30 18180 C 1713.86 1.32569 4.05374 0
M  V30 18181 S 1714.7 2.88551 4.51108 0
M  V30 18182 C 1715.85 2.33359 5.8077 0
M  V30 18183 H 1716.09 1.78514 2.37739 0
M  V30 18184 H 1713.62 1.01933 1.1597 0
M  V30 18185 H 1715.58 -0.0161522 4.10497 0
M  V30 18186 H 1714.24 -0.586834 3.08569 0
M  V30 18187 H 1713.43 0.877829 4.96296 0
M  V30 18188 H 1713.03 1.59323 3.38367 0
M  V30 18189 H 1715.33 1.7225 6.55238 0
M  V30 18190 H 1716.27 3.22622 6.30334 0
M  V30 18191 H 1716.68 1.75999 5.36362 0
M  V30 18192 N 1716.07 -1.22136 0.99602 0
M  V30 18193 C 1717.32 -1.9125 0.674632 0
M  V30 18194 C 1717.65 -1.77331 -0.791655 0
M  V30 18195 O 1716.93 -1.14419 -1.57285 0
M  V30 18196 C 1717.21 -3.43359 1.08521 0
M  V30 18197 C 1717.06 -3.66312 2.61028 0
M  V30 18198 C 1718.38 -4.3541 0.640795 0
M  V30 18199 H 1715.5 -0.694534 0.246559 0
M  V30 18200 H 1718.14 -1.4395 1.2401 0
M  V30 18201 H 1716.29 -3.83775 0.604071 0
M  V30 18202 H 1717.97 -3.3528 3.16836 0
M  V30 18203 H 1716.21 -3.10485 3.02954 0
M  V30 18204 H 1716.88 -4.72852 2.84807 0
M  V30 18205 H 1719.36 -4.02527 1.05411 0
M  V30 18206 H 1718.23 -5.40505 0.956337 0
M  V30 18207 H 1718.49 -4.39717 -0.458421 0
M  V30 18208 N 1717.55 -0.769612 -1.37531 0
M  V30 18209 C 1718.78 -0.343069 -2.04543 0
M  V30 18210 C 1719.2 1.02583 -1.57665 0
M  V30 18211 O 1718.56 1.65692 -0.735915 0
M  V30 18212 C 1718.61 -0.392914 -3.58453 0
M  V30 18213 O 1717.71 0.607401 -4.07902 0
M  V30 18214 H 1717.05 -0.148905 -0.647088 0
M  V30 18215 H 1719.58 -1.04521 -1.75888 0
M  V30 18216 H 1719.59 -0.24945 -4.07237 0
M  V30 18217 H 1718.27 -1.39159 -3.91928 0
M  V30 18218 H 1716.85 0.427231 -3.70445 0
M  V30 18219 N 1719.03 1.48775 -0.519977 0
M  V30 18220 C 1719.99 2.27967 0.237405 0
M  V30 18221 C 1720.99 1.34787 0.876868 0
M  V30 18222 O 1722.18 1.57773 0.738463 0
M  V30 18223 C 1719.32 3.13353 1.34248 0
M  V30 18224 H 1720.51 2.96386 -0.457753 0
M  V30 18225 H 1718.06 1.53852 -0.275569 0
M  V30 18226 H 1718.8 2.49543 2.0712 0
M  V30 18227 H 1718.58 3.81885 0.889187 0
M  V30 18228 H 1720.07 3.73116 1.87547 0
M  V30 18229 N 1720.51 0.254649 1.55529 0
M  V30 18230 C 1721.44 -0.682459 2.17756 0
M  V30 18231 C 1722.42 -1.16722 1.13202 0
M  V30 18232 O 1723.6 -1.24395 1.41627 0
M  V30 18233 C 1720.73 -1.92837 2.78445 0
M  V30 18234 C 1719.78 -1.58082 3.96121 0
M  V30 18235 S 1720.61 -0.676715 5.31207 0
M  V30 18236 C 1721.77 -1.93146 5.95353 0
M  V30 18237 H 1722 -0.153664 2.96903 0
M  V30 18238 H 1719.53 0.0390444 1.54351 0
M  V30 18239 H 1721.49 -2.6436 3.14045 0
M  V30 18240 H 1720.15 -2.4283 1.9923 0
M  V30 18241 H 1719.34 -2.50738 4.37203 0
M  V30 18242 H 1718.95 -0.945965 3.61839 0
M  V30 18243 H 1721.24 -2.87783 6.13341 0
M  V30 18244 H 1722.18 -1.564 6.90612 0
M  V30 18245 H 1722.59 -2.08708 5.24501 0
M  V30 18246 N 1721.99 -1.57589 -0.0183649 0
M  V30 18247 C 1723.23 -1.90038 -0.708056 0
M  V30 18248 C 1723.57 -0.853686 -1.7443 0
M  V30 18249 O 1722.84 0.12994 -1.94065 0
M  V30 18250 C 1723.12 -3.33107 -1.3679 0
M  V30 18251 C 1722.98 -4.48479 -0.344448 0
M  V30 18252 C 1724.3 -3.75276 -2.29904 0
M  V30 18253 H 1721.41 -0.691134 -0.255934 0
M  V30 18254 H 1724.06 -1.89978 0.0291579 0
M  V30 18255 H 1722.21 -3.33289 -1.99626 0
M  V30 18256 H 1723.88 -4.60432 0.282816 0
M  V30 18257 H 1722.12 -4.32503 0.335196 0
M  V30 18258 H 1722.79 -5.45497 -0.844832 0
M  V30 18259 H 1725.27 -3.76529 -1.77103 0
M  V30 18260 H 1724.14 -4.76168 -2.73049 0
M  V30 18261 H 1724.41 -3.08124 -3.17036 0
M  V30 18262 N 1723.46 0.290824 -1.54893 0
M  V30 18263 C 1724.43 1.34215 -1.85793 0
M  V30 18264 C 1725.43 1.43204 -0.731393 0
M  V30 18265 O 1726.62 1.42663 -0.999647 0
M  V30 18266 C 1723.75 2.72577 -2.0473 0
M  V30 18267 H 1724.94 1.08056 -2.79757 0
M  V30 18268 H 1722.5 0.528008 -1.47111 0
M  V30 18269 H 1723.23 3.03943 -1.13088 0
M  V30 18270 H 1723.02 2.67442 -2.86736 0
M  V30 18271 H 1724.51 3.48573 -2.29971 0
M  V30 18272 N 1724.94 1.47523 0.554506 0
M  V30 18273 C 1725.87 1.56275 1.67663 0
M  V30 18274 C 1726.89 0.448743 1.56493 0
M  V30 18275 O 1728.08 0.718478 1.63402 0
M  V30 18276 C 1725.18 1.45348 3.06149 0
M  V30 18277 C 1724.35 2.71364 3.43046 0
M  V30 18278 C 1723.41 2.54237 4.60706 0
M  V30 18279 O 1722.43 3.28059 4.65152 0
M  V30 18280 N 1723.64 1.6224 5.57367 0
M  V30 18281 H 1726.4 2.53036 1.60601 0
M  V30 18282 H 1723.96 1.43936 0.741209 0
M  V30 18283 H 1725.95 1.31621 3.82698 0
M  V30 18284 H 1724.52 0.566583 3.07423 0
M  V30 18285 H 1723.74 2.99833 2.55917 0
M  V30 18286 H 1725.03 3.55017 3.64473 0
M  V30 18287 H 1724.43 1.01419 5.56534 0
M  V30 18288 H 1722.99 1.54463 6.33233 0
M  V30 18289 N 1726.42 -0.801453 1.357 0
M  V30 18290 C 1727.65 -1.58771 1.32194 0
M  V30 18291 C 1728.06 -1.88927 -0.101529 0
M  V30 18292 O 1727.4 -1.49649 -1.0654 0
M  V30 18293 C 1727.46 -2.94186 2.06627 0
M  V30 18294 C 1727.13 -2.86819 3.55786 0
M  V30 18295 C 1728.12 -2.59898 4.50276 0
M  V30 18296 C 1725.81 -3.05775 3.98506 0
M  V30 18297 C 1727.8 -2.52017 5.85462 0
M  V30 18298 C 1725.49 -2.97516 5.33786 0
M  V30 18299 C 1726.49 -2.70673 6.27076 0
M  V30 18300 O 1726.18 -2.62387 7.59874 0
M  V30 18301 H 1725.91 -0.499518 0.455475 0
M  V30 18302 H 1728.46 -1.00358 1.79213 0
M  V30 18303 H 1726.69 -3.54602 1.54253 0
M  V30 18304 H 1728.38 -3.55368 1.96133 0
M  V30 18305 H 1729.15 -2.44968 4.18588 0
M  V30 18306 H 1725.03 -3.25678 3.26274 0
M  V30 18307 H 1728.57 -2.30985 6.58249 0
M  V30 18308 H 1724.47 -3.12006 5.65086 0
M  V30 18309 H 1725.24 -2.77957 7.69859 0
M  V30 18310 N 1727.9 -1.19782 -1.02421 0
M  V30 18311 C 1729.14 -1.0048 -1.76158 0
M  V30 18312 C 1729.48 0.46281 -1.88605 0
M  V30 18313 O 1728.75 1.34366 -1.40628 0
M  V30 18314 C 1729.04 -1.67999 -3.1851 0
M  V30 18315 C 1728.89 -3.22155 -3.13905 0
M  V30 18316 C 1730.21 -1.40681 -4.17009 0
M  V30 18317 H 1727.33 -0.366436 -0.639448 0
M  V30 18318 H 1729.97 -1.47688 -1.19534 0
M  V30 18319 H 1728.12 -1.27862 -3.66856 0
M  V30 18320 H 1729.79 -3.71536 -2.7342 0
M  V30 18321 H 1728.03 -3.53456 -2.51498 0
M  V30 18322 H 1728.7 -3.64548 -4.14498 0
M  V30 18323 H 1731.18 -1.75488 -3.77284 0
M  V30 18324 H 1730.06 -1.90467 -5.14795 0
M  V30 18325 H 1730.32 -0.332889 -4.40845 0
M  V30 18326 N 1729.38 1.21606 -1.00248 0
M  V30 18327 C 1730.79 1.72365 -0.717446 0
M  V30 18328 C 1731.14 1.80668 0.765078 0
M  V30 18329 O 1730.26 1.45951 1.59772 0
M  V30 18330 C 1730.86 3.13046 -1.29567 0
M  V30 18331 C 1729.42 3.61172 -1.05981 0
M  V30 18332 C 1728.57 2.38775 -1.41003 0
M  V30 18333 H 1731.52 1.06818 -1.17369 0
M  V30 18334 H 1731.54 3.74392 -0.679054 0
M  V30 18335 H 1731.05 3.0697 -2.37467 0
M  V30 18336 H 1729.15 3.726 0.00214307 0
M  V30 18337 H 1729.26 4.46778 -1.72993 0
M  V30 18338 H 1727.63 2.40839 -0.82877 0
M  V30 18339 H 1728.41 2.35352 -2.49928 0
M  V30 18340 N 1730.86 0.776895 1.37121 0
M  V30 18341 C 1732.13 0.268067 1.93754 0
M  V30 18342 C 1732.51 -1.23774 1.71007 0
M  V30 18343 O 1731.86 -2.02331 1.0618 0
M  V30 18344 C 1732.07 0.647054 3.42949 0
M  V30 18345 C 1733.42 0.619737 4.20053 0
M  V30 18346 O 1734.44 0.586757 3.51334 0
M  V30 18347 O 1733.3 0.651412 5.42604 0
M  V30 18348 H 1730.4 0.0631883 0.824582 0
M  V30 18349 H 1732.94 0.858594 1.46377 0
M  V30 18350 H 1731.71 1.68608 3.5311 0
M  V30 18351 H 1731.34 0.0297448 3.97589 0
M  V30 18352 N 1732.33 -1.48497 0.527859 0
M  V30 18353 C 1733.24 -2.3337 -0.239957 0
M  V30 18354 C 1734.26 -1.46353 -0.941101 0
M  V30 18355 O 1735.44 -1.79337 -0.916532 0
M  V30 18356 C 1732.5 -3.22421 -1.27458 0
M  V30 18357 C 1731.56 -4.25309 -0.584017 0
M  V30 18358 C 1730.79 -5.10105 -1.56935 0
M  V30 18359 O 1731.02 -4.96846 -2.80178 0
M  V30 18360 O 1729.95 -5.91578 -1.10991 0
M  V30 18361 H 1733.78 -3.00265 0.455458 0
M  V30 18362 H 1731.36 -1.46582 0.288809 0
M  V30 18363 H 1733.24 -3.7751 -1.87254 0
M  V30 18364 H 1731.92 -2.58189 -1.95244 0
M  V30 18365 H 1730.83 -3.7406 0.0543828 0
M  V30 18366 H 1732.16 -4.92173 0.0518646 0
M  V30 18367 N 1733.81 -0.262893 -1.55392 0
M  V30 18368 C 1734.72 0.640223 -2.25695 0
M  V30 18369 C 1735.74 1.18019 -1.27857 0
M  V30 18370 O 1736.91 1.21308 -1.60768 0
M  V30 18371 C 1733.98 1.81336 -2.95497 0
M  V30 18372 C 1733.04 1.31128 -4.08784 0
M  V30 18373 C 1732.27 2.4285 -4.75247 0
M  V30 18374 O 1732.5 3.61939 -4.40859 0
M  V30 18375 O 1731.43 2.11699 -5.63442 0
M  V30 18376 H 1735.26 0.0710781 -3.03617 0
M  V30 18377 H 1732.84 -0.030765 -1.49368 0
M  V30 18378 H 1734.72 2.49764 -3.39406 0
M  V30 18379 H 1733.4 2.36982 -2.20502 0
M  V30 18380 H 1732.3 0.593816 -3.69357 0
M  V30 18381 H 1733.64 0.800711 -4.85643 0
M  V30 18382 N 1735.29 1.57597 0.0100073 0
M  V30 18383 C 1736.54 1.89308 0.696075 0
M  V30 18384 C 1736.85 0.863884 1.75489 0
M  V30 18385 O 1738.06 1.07087 2.49489 0
M  V30 18386 C 1736.51 3.36017 1.2892 0
M  V30 18387 C 1736.12 4.47211 0.265731 0
M  V30 18388 C 1737.87 3.76852 1.95404 0
M  V30 18389 C 1735.77 5.84991 0.868277 0
M  V30 18390 H 1734.7 0.706368 0.263744 0
M  V30 18391 H 1737.35 1.83435 -0.0488972 0
M  V30 18392 H 1735.74 3.36696 2.08451 0
M  V30 18393 H 1736.91 4.58033 -0.504256 0
M  V30 18394 H 1735.22 4.15332 -0.298096 0
M  V30 18395 H 1737.82 4.77121 2.41371 0
M  V30 18396 H 1738.16 3.09841 2.78036 0
M  V30 18397 H 1738.7 3.7843 1.22621 0
M  V30 18398 H 1735.44 6.5545 0.0809513 0
M  V30 18399 H 1734.96 5.77853 1.60766 0
M  V30 18400 H 1736.64 6.32331 1.36993 0
M  V30 18401 N 1736.77 -0.282606 1.55045 0
M  V30 18402 C 1738.02 -1.0132 1.74405 0
M  V30 18403 C 1738.33 -1.87792 0.547133 0
M  V30 18404 O 1739.54 -2.64257 0.622931 0
M  V30 18405 C 1737.99 -1.85128 3.08635 0
M  V30 18406 C 1737.6 -1.0357 4.35864 0
M  V30 18407 C 1739.34 -2.57676 3.37347 0
M  V30 18408 C 1737.25 -1.86761 5.61137 0
M  V30 18409 H 1736.18 -0.382013 0.650063 0
M  V30 18410 H 1738.83 -0.269307 1.81513 0
M  V30 18411 H 1737.21 -2.63576 2.95539 0
M  V30 18412 H 1738.39 -0.296061 4.59848 0
M  V30 18413 H 1736.7 -0.425208 4.14223 0
M  V30 18414 H 1739.3 -3.20303 4.28147 0
M  V30 18415 H 1739.64 -3.27464 2.57046 0
M  V30 18416 H 1740.18 -1.86264 3.51497 0
M  V30 18417 H 1736.91 -1.2141 6.44158 0
M  V30 18418 H 1736.43 -2.58348 5.4131 0
M  V30 18419 H 1738.11 -2.44361 5.9908 0
M  V30 18420 N 1738.25 -1.47815 -0.546675 0
M  V30 18421 C 1739.19 -1.61092 -1.65282 0
M  V30 18422 C 1740.16 -0.453531 -1.59788 0
M  V30 18423 O 1741.35 -0.674923 -1.78464 0
M  V30 18424 C 1738.49 -1.64103 -3.03585 0
M  V30 18425 C 1737.6 -2.90832 -3.19438 0
M  V30 18426 C 1736.74 -2.85112 -4.48201 0
M  V30 18427 C 1735.77 -4.06619 -4.57523 0
M  V30 18428 N 1734.91 -3.99073 -5.77655 0
M  V30 18429 H 1739.75 -2.55561 -1.53273 0
M  V30 18430 H 1737.29 -1.26752 -0.746477 0
M  V30 18431 H 1739.25 -1.63832 -3.83686 0
M  V30 18432 H 1737.88 -0.731382 -3.14405 0
M  V30 18433 H 1736.93 -3.00924 -2.327 0
M  V30 18434 H 1738.24 -3.80783 -3.22188 0
M  V30 18435 H 1737.39 -2.83149 -5.36574 0
M  V30 18436 H 1736.13 -1.92862 -4.47946 0
M  V30 18437 H 1735.14 -4.08876 -3.67561 0
M  V30 18438 H 1736.36 -5.00009 -4.5953 0
M  V30 18439 H 1734.31 -3.09633 -5.78328 0
M  V30 18440 H 1734.23 -4.82713 -5.81829 0
M  V30 18441 H 1735.49 -4.01143 -6.6836 0
M  V30 18442 N 1739.72 0.794246 -1.36123 0
M  V30 18443 C 1741.14 1.0916 -1.16431 0
M  V30 18444 C 1741.34 2.01495 0.0148797 0
M  V30 18445 O 1740.4 2.43123 0.681729 0
M  V30 18446 C 1741.71 1.71071 -2.47295 0
M  V30 18447 C 1743.26 1.83435 -2.53615 0
M  V30 18448 C 1743.73 2.48761 -3.84554 0
M  V30 18449 N 1745.22 2.56235 -3.85873 0
M  V30 18450 C 1745.96 3.07579 -4.83924 0
M  V30 18451 N 1745.45 3.59267 -5.92367 0
M  V30 18452 N 1747.25 3.06246 -4.71349 0
M  V30 18453 H 1739.4 0.180705 -2.1163 0
M  V30 18454 H 1741.66 0.142774 -0.937187 0
M  V30 18455 H 1741.37 1.10693 -3.33826 0
M  V30 18456 H 1741.24 2.70634 -2.62749 0
M  V30 18457 H 1743.63 2.42953 -1.67505 0
M  V30 18458 H 1743.71 0.82692 -2.42065 0
M  V30 18459 H 1743.35 1.8989 -4.71067 0
M  V30 18460 H 1743.28 3.50066 -3.93397 0
M  V30 18461 H 1745.77 2.19629 -3.07525 0
M  V30 18462 H 1746.09 3.96781 -6.63163 0
M  V30 18463 H 1744.43 3.57432 -5.96043 0
M  V30 18464 H 1747.62 2.65151 -3.85762 0
M  V30 18465 H 1747.8 3.45953 -5.47924 0
M  V30 18466 N 1741.2 1.20323 1.01785 0
M  V30 18467 C 1742.11 0.966603 2.13761 0
M  V30 18468 C 1743.13 -0.0771059 1.73829 0
M  V30 18469 O 1744.3 0.110054 2.01099 0
M  V30 18470 C 1741.37 0.520405 3.42772 0
M  V30 18471 C 1740.43 1.63482 3.96954 0
M  V30 18472 C 1739.66 1.20981 5.19807 0
M  V30 18473 O 1739.89 0.0779814 5.70347 0
M  V30 18474 O 1738.82 2.01674 5.67108 0
M  V30 18475 H 1742.65 1.90414 2.36593 0
M  V30 18476 H 1740.23 0.986997 1.12155 0
M  V30 18477 H 1742.11 0.280747 4.20464 0
M  V30 18478 H 1740.79 -0.388563 3.21359 0
M  V30 18479 H 1739.69 1.92874 3.20547 0
M  V30 18480 H 1741.03 2.52074 4.22752 0
M  V30 18481 N 1742.68 -1.21073 1.00892 0
M  V30 18482 C 1743.93 -1.90242 0.693851 0
M  V30 18483 C 1744.25 -1.78359 -0.77578 0
M  V30 18484 O 1743.51 -1.15694 -1.57839 0
M  V30 18485 C 1743.81 -3.41148 1.0655 0
M  V30 18486 C 1743.47 -3.73228 2.53005 0
M  V30 18487 C 1742.14 -3.81694 2.93024 0
M  V30 18488 C 1744.49 -3.88132 3.47855 0
M  V30 18489 C 1741.82 -4.02515 4.26847 0
M  V30 18490 C 1744.17 -4.10461 4.81357 0
M  V30 18491 C 1742.83 -4.17155 5.21093 0
M  V30 18492 H 1742.1 -0.696144 0.253898 0
M  V30 18493 H 1744.75 -1.43499 1.26808 0
M  V30 18494 H 1743.05 -3.89653 0.409575 0
M  V30 18495 H 1744.75 -3.92949 0.799525 0
M  V30 18496 H 1741.34 -3.67233 2.20994 0
M  V30 18497 H 1745.53 -3.80954 3.18101 0
M  V30 18498 H 1740.78 -4.0593 4.57199 0
M  V30 18499 H 1744.96 -4.20935 5.54785 0
M  V30 18500 H 1742.58 -4.33041 6.24804 0
M  V30 18501 N 1744.16 -0.784156 -1.36707 0
M  V30 18502 C 1745.09 -0.193081 -2.327 0
M  V30 18503 C 1746.07 0.668999 -1.56392 0
M  V30 18504 O 1747.25 0.603908 -1.84571 0
M  V30 18505 C 1744.38 0.677092 -3.40636 0
M  V30 18506 C 1743.34 -0.0846718 -4.27916 0
M  V30 18507 C 1742.66 0.905754 -5.26973 0
M  V30 18508 C 1743.96 -1.27085 -5.06603 0
M  V30 18509 H 1745.66 -0.995029 -2.82382 0
M  V30 18510 H 1743.2 -0.479929 -1.35767 0
M  V30 18511 H 1745.16 1.1005 -4.06776 0
M  V30 18512 H 1743.88 1.51169 -2.89509 0
M  V30 18513 H 1742.54 -0.488992 -3.63324 0
M  V30 18514 H 1742.19 1.73524 -4.72121 0
M  V30 18515 H 1741.89 0.400524 -5.86233 0
M  V30 18516 H 1743.41 1.32784 -5.95987 0
M  V30 18517 H 1744.83 -0.923469 -5.65814 0
M  V30 18518 H 1743.22 -1.70901 -5.7525 0
M  V30 18519 H 1744.29 -2.06882 -4.38552 0
M  V30 18520 N 1745.64 1.48215 -0.535727 0
M  V30 18521 C 1746.55 2.33494 0.227577 0
M  V30 18522 C 1747.56 1.4685 0.933327 0
M  V30 18523 O 1748.74 1.7982 0.907008 0
M  V30 18524 C 1745.8 3.23092 1.25747 0
M  V30 18525 C 1744.86 4.25613 0.561454 0
M  V30 18526 C 1744.1 5.1093 1.54228 0
M  V30 18527 O 1744.32 4.98325 2.77539 0
M  V30 18528 O 1743.25 5.92158 1.07852 0
M  V30 18529 H 1747.08 3.0002 -0.471375 0
M  V30 18530 H 1744.67 1.46427 -0.296579 0
M  V30 18531 H 1746.55 3.78498 1.8525 0
M  V30 18532 H 1745.22 2.5922 1.93872 0
M  V30 18533 H 1744.13 3.74026 -0.0742194 0
M  V30 18534 H 1745.46 4.92138 -0.0779649 0
M  V30 18535 N 1747.11 0.27113 1.5525 0
M  V30 18536 C 1748.04 -0.61179 2.25343 0
M  V30 18537 C 1749.03 -1.16208 1.24216 0
M  V30 18538 O 1750.21 -1.19696 1.52927 0
M  V30 18539 C 1747.34 -1.7978 2.97147 0
M  V30 18540 C 1746.29 -1.37922 4.05169 0
M  V30 18541 C 1745.62 -2.64801 4.64526 0
M  V30 18542 C 1746.92 -0.532357 5.1958 0
M  V30 18543 H 1748.61 -0.0272538 2.99388 0
M  V30 18544 H 1746.16 -0.0116681 1.43995 0
M  V30 18545 H 1748.11 -2.42132 3.44891 0
M  V30 18546 H 1746.84 -2.40811 2.20631 0
M  V30 18547 H 1745.5 -0.778918 3.5823 0
M  V30 18548 H 1745.14 -3.24081 3.84682 0
M  V30 18549 H 1744.84 -2.37507 5.37461 0
M  V30 18550 H 1746.37 -3.28009 5.15017 0
M  V30 18551 H 1747.78 -1.06078 5.63401 0
M  V30 18552 H 1746.18 -0.35447 5.99052 0
M  V30 18553 H 1747.25 0.44981 4.82809 0
M  V30 18554 N 1748.59 -1.576 -0.00164943 0
M  V30 18555 C 1749.54 -2.08318 -0.993594 0
M  V30 18556 C 1750.51 -0.978234 -1.34238 0
M  V30 18557 O 1751.69 -1.25056 -1.44103 0
M  V30 18558 C 1748.83 -2.58982 -2.28084 0
M  V30 18559 C 1747.95 -3.83372 -1.99123 0
M  V30 18560 C 1747.08 -4.22543 -3.21917 0
M  V30 18561 C 1746.12 -5.39774 -2.88635 0
M  V30 18562 N 1745.26 -5.74247 -4.03962 0
M  V30 18563 H 1750.1 -2.92802 -0.554154 0
M  V30 18564 H 1747.64 -1.44748 -0.261973 0
M  V30 18565 H 1749.59 -2.86434 -3.03334 0
M  V30 18566 H 1748.22 -1.77374 -2.697 0
M  V30 18567 H 1747.28 -3.62838 -1.14248 0
M  V30 18568 H 1748.59 -4.68722 -1.70591 0
M  V30 18569 H 1747.74 -4.51268 -4.05514 0
M  V30 18570 H 1746.48 -3.35899 -3.53587 0
M  V30 18571 H 1745.49 -5.10774 -2.03445 0
M  V30 18572 H 1746.71 -6.28094 -2.58215 0
M  V30 18573 H 1744.66 -4.9056 -4.35531 0
M  V30 18574 H 1744.57 -6.54167 -3.78948 0
M  V30 18575 H 1745.84 -6.07563 -4.88352 0
M  V30 18576 N 1750.07 0.274379 -1.55193 0
M  V30 18577 C 1751.32 1.00418 -1.75387 0
M  V30 18578 C 1751.64 1.86868 -0.557244 0
M  V30 18579 O 1750.91 1.9117 0.427883 0
M  V30 18580 H 1749.49 0.373753 -0.646775 0
M  V30 18581 H 1752.15 0.298942 -1.92594 0
M  V30 18582 H 1751.25 1.64191 -2.6542 0
M  V30 18583 N 1751.55 1.48103 0.538828 0
M  V30 18584 C 1752.8 1.54925 1.29156 0
M  V30 18585 C 1753.11 0.224177 1.94311 0
M  V30 18586 O 1754.32 0.170559 2.70964 0
M  V30 18587 C 1752.77 2.73184 2.34304 0
M  V30 18588 C 1752.38 4.12297 1.75257 0
M  V30 18589 C 1754.12 2.89313 3.10642 0
M  V30 18590 C 1752.03 5.2183 2.78294 0
M  V30 18591 H 1750.96 0.576723 0.485702 0
M  V30 18592 H 1753.61 1.74418 0.570142 0
M  V30 18593 H 1751.99 2.47107 3.09441 0
M  V30 18594 H 1753.17 4.48355 1.06368 0
M  V30 18595 H 1751.48 4.0121 1.11442 0
M  V30 18596 H 1754.08 3.68313 3.87621 0
M  V30 18597 H 1754.42 1.98438 3.65962 0
M  V30 18598 H 1754.96 3.15248 2.42618 0
M  V30 18599 H 1751.7 6.14642 2.27805 0
M  V30 18600 H 1751.22 4.90269 3.45537 0
M  V30 18601 H 1752.89 5.49567 3.41446 0
M  V30 18602 N 1753.03 -0.787016 1.36542 0
M  V30 18603 C 1754.3 -1.53325 1.21452 0
M  V30 18604 C 1754.68 -2.10166 -0.198313 0
M  V30 18605 O 1754.03 -1.94192 -1.20422 0
M  V30 18606 C 1754.24 -2.62629 2.29841 0
M  V30 18607 C 1755.59 -3.30446 2.66628 0
M  V30 18608 O 1756.61 -2.72914 2.28903 0
M  V30 18609 O 1755.47 -4.34424 3.31569 0
M  V30 18610 H 1752.57 -0.678361 0.473028 0
M  V30 18611 H 1755.11 -0.825292 1.4828 0
M  V30 18612 H 1753.88 -2.18639 3.24519 0
M  V30 18613 H 1753.51 -3.41042 2.04393 0
M  V30 18614 N 1754.5 -1.20861 -1.01145 0
M  V30 18615 C 1755.41 -0.977926 -2.13246 0
M  V30 18616 C 1756.43 0.0678862 -1.73868 0
M  V30 18617 O 1757.61 -0.120717 -2.01038 0
M  V30 18618 C 1754.67 -0.538575 -3.42491 0
M  V30 18619 C 1753.73 -1.65584 -3.96081 0
M  V30 18620 C 1752.97 -1.23736 -5.19158 0
M  V30 18621 O 1753.19 -0.108227 -5.70297 0
M  V30 18622 O 1752.12 -2.04679 -5.6603 0
M  V30 18623 H 1755.95 -1.91666 -2.3558 0
M  V30 18624 H 1753.53 -0.992931 -1.1163 0
M  V30 18625 H 1755.42 -0.303041 -4.20309 0
M  V30 18626 H 1754.09 0.371515 -3.21561 0
M  V30 18627 H 1753 -1.94572 -3.19519 0
M  V30 18628 H 1754.33 -2.54313 -4.21409 0
M  V30 18629 N 1755.98 1.20536 -1.01532 0
M  V30 18630 C 1757.39 1.71594 -0.735687 0
M  V30 18631 C 1757.74 1.81469 0.745873 0
M  V30 18632 O 1756.87 1.47638 1.58215 0
M  V30 18633 C 1757.46 3.11654 -1.3288 0
M  V30 18634 C 1756.02 3.60027 -1.09806 0
M  V30 18635 C 1755.17 2.37266 -1.43528 0
M  V30 18636 H 1758.12 1.05568 -1.18495 0
M  V30 18637 H 1758.14 3.7365 -0.718725 0
M  V30 18638 H 1757.65 3.04434 -2.4071 0
M  V30 18639 H 1755.76 3.72581 -0.0373763 0
M  V30 18640 H 1755.87 4.44918 -1.77722 0
M  V30 18641 H 1754.23 2.39947 -0.854268 0
M  V30 18642 H 1755.02 2.32688 -2.5241 0
M  V30 18643 N 1757.46 0.791395 1.36289 0
M  V30 18644 C 1758.71 0.365242 1.99484 0
M  V30 18645 C 1759.04 -1.06087 1.62663 0
M  V30 18646 O 1758.31 -1.73332 0.882396 0
M  V30 18647 C 1758.6 0.531317 3.56159 0
M  V30 18648 C 1758.45 2.00126 4.02827 0
M  V30 18649 C 1759.77 -0.0524248 4.40069 0
M  V30 18650 H 1756.89 0.134183 0.724682 0
M  V30 18651 H 1759.53 0.998102 1.61672 0
M  V30 18652 H 1757.68 -0.0074293 3.88499 0
M  V30 18653 H 1759.35 2.60122 3.80965 0
M  V30 18654 H 1757.6 2.50316 3.54294 0
M  V30 18655 H 1758.27 2.06842 5.11782 0
M  V30 18656 H 1760.74 0.407489 4.141 0
M  V30 18657 H 1759.62 0.0937898 5.4882 0
M  V30 18658 H 1759.88 -1.14472 4.27023 0
M  V30 18659 N 1758.94 -1.47929 0.54358 0
M  V30 18660 C 1759.87 -2.26722 -0.259258 0
M  V30 18661 C 1760.85 -1.33195 -0.932623 0
M  V30 18662 O 1762.03 -1.62558 -0.954322 0
M  V30 18663 C 1759.16 -3.09833 -1.36826 0
M  V30 18664 C 1758.21 -4.18836 -0.80488 0
M  V30 18665 S 1759.04 -5.34433 0.337912 0
M  V30 18666 C 1760.2 -6.21105 -0.773234 0
M  V30 18667 H 1760.43 -2.94468 0.409397 0
M  V30 18668 H 1757.96 -1.5084 0.329626 0
M  V30 18669 H 1759.92 -3.5829 -2.00345 0
M  V30 18670 H 1758.58 -2.41476 -2.00869 0
M  V30 18671 H 1757.77 -4.76665 -1.63726 0
M  V30 18672 H 1757.38 -3.73189 -0.246123 0
M  V30 18673 H 1759.67 -6.56629 -1.66865 0
M  V30 18674 H 1760.61 -7.07718 -0.232611 0
M  V30 18675 H 1761.02 -5.54463 -1.05977 0
M  V30 18676 N 1760.42 -0.27936 -1.55104 0
M  V30 18677 C 1761.65 0.339429 -2.04097 0
M  V30 18678 C 1762.06 1.49151 -1.15756 0
M  V30 18679 O 1761.42 1.81624 -0.178558 0
M  V30 18680 C 1761.47 0.816392 -3.52161 0
M  V30 18681 O 1761.19 -0.289812 -4.3714 0
M  V30 18682 C 1762.69 1.50256 -4.17059 0
M  V30 18683 H 1759.91 0.0768615 -0.666583 0
M  V30 18684 H 1762.45 -0.412691 -2.00293 0
M  V30 18685 H 1760.61 1.51859 -3.56395 0
M  V30 18686 H 1761.02 0.0776213 -5.24443 0
M  V30 18687 H 1762.5 1.78767 -5.22251 0
M  V30 18688 H 1762.97 2.4355 -3.65486 0
M  V30 18689 H 1763.58 0.844106 -4.16839 0
M  V30 18690 N 1761.9 1.57599 -0.0067085 0
M  V30 18691 C 1763.14 1.92717 0.681153 0
M  V30 18692 C 1763.5 0.881593 1.70564 0
M  V30 18693 O 1764.7 1.11823 2.44436 0
M  V30 18694 C 1762.97 3.32858 1.30155 0
M  V30 18695 S 1764.53 3.89871 2.0136 0
M  V30 18696 H 1761.35 0.674515 0.224833 0
M  V30 18697 H 1763.95 1.95392 -0.0650048 0
M  V30 18698 H 1762.65 4.0679 0.54318 0
M  V30 18699 H 1762.19 3.33573 2.0855 0
M  V30 18700 H 1764.2 3.7149 3.28952 0
M  V30 18701 N 1763.37 -0.266145 1.55336 0
M  V30 18702 C 1764.62 -0.998308 1.76527 0
M  V30 18703 C 1764.95 -1.85691 0.568535 0
M  V30 18704 O 1764.23 -1.89602 -0.433735 0
M  V30 18705 C 1764.51 -1.87509 3.07429 0
M  V30 18706 C 1764.36 -1.04596 4.3747 0
M  V30 18707 C 1765.68 -2.86099 3.34418 0
M  V30 18708 H 1762.8 -0.361514 0.642244 0
M  V30 18709 H 1765.44 -0.270186 1.88069 0
M  V30 18710 H 1763.59 -2.49591 2.97719 0
M  V30 18711 H 1765.27 -0.445323 4.59145 0
M  V30 18712 H 1763.51 -0.349641 4.32389 0
M  V30 18713 H 1764.18 -1.69279 5.25403 0
M  V30 18714 H 1766.66 -2.34153 3.43965 0
M  V30 18715 H 1765.53 -3.44584 4.27262 0
M  V30 18716 H 1765.79 -3.61577 2.5439 0
M  V30 18717 N 1764.85 -1.48386 -0.530967 0
M  V30 18718 C 1766.1 -1.55608 -1.28332 0
M  V30 18719 C 1766.41 -0.234479 -1.94189 0
M  V30 18720 O 1767.62 -0.184926 -2.70869 0
M  V30 18721 C 1766.08 -2.74423 -2.32852 0
M  V30 18722 C 1765.68 -4.13221 -1.73068 0
M  V30 18723 C 1767.43 -2.90956 -3.09103 0
M  V30 18724 C 1765.33 -5.23299 -2.75522 0
M  V30 18725 H 1764.26 -0.579291 -0.482637 0
M  V30 18726 H 1766.92 -1.74718 -0.560885 0
M  V30 18727 H 1765.3 -2.48745 -3.08126 0
M  V30 18728 H 1766.47 -4.48913 -1.03989 0
M  V30 18729 H 1764.79 -4.01796 -1.09312 0
M  V30 18730 H 1767.38 -3.70363 -3.85662 0
M  V30 18731 H 1767.73 -2.00376 -3.64905 0
M  V30 18732 H 1768.26 -3.1653 -2.40943 0
M  V30 18733 H 1765 -6.15842 -2.24542 0
M  V30 18734 H 1764.52 -4.92095 -3.42932 0
M  V30 18735 H 1766.2 -5.5137 -3.38526 0
M  V30 18736 N 1766.33 0.779763 -1.36958 0
M  V30 18737 C 1767.28 1.91417 -1.32145 0
M  V30 18738 C 1768.27 1.68074 -0.211572 0
M  V30 18739 O 1769.48 1.75962 -0.379139 0
M  V30 18740 H 1765.85 0.62934 -0.411624 0
M  V30 18741 H 1767.82 1.92594 -2.27926 0
M  V30 18742 C 1766.57 3.28574 -1.13729 0
M  V30 18743 H 1765.9 3.47109 -1.98383 0
M  V30 18744 H 1767.34 4.08272 -1.1441 0
M  V30 18745 C 1765.79 3.36531 0.157538 0
M  V30 18746 O 1766.32 3.85067 1.14397 0
M  V30 18747 N 1764.53 2.89872 0.205509 0
M  V30 18748 H 1764.08 2.50566 -0.597854 0
M  V30 18749 H 1764.04 2.95578 1.07151 0
M  V30 18750 N 1767.81 1.21396 1.00503 0
M  V30 18751 C 1769.22 1.02983 1.55728 0
M  V30 18752 C 1769.57 -0.410383 1.9186 0
M  V30 18753 O 1768.69 -1.29358 1.7348 0
M  V30 18754 C 1769.29 1.86316 2.8297 0
M  V30 18755 C 1767.85 1.72235 3.34682 0
M  V30 18756 C 1767 1.8353 2.07875 0
M  V30 18757 H 1769.95 1.35418 0.827499 0
M  V30 18758 H 1769.97 1.37339 3.5485 0
M  V30 18759 H 1769.48 2.91131 2.56641 0
M  V30 18760 H 1767.58 0.701047 3.65945 0
M  V30 18761 H 1767.69 2.54198 4.06103 0
M  V30 18762 H 1766.06 1.26838 2.20872 0
M  V30 18763 H 1766.84 2.89852 1.83958 0
M  V30 18764 N 1769.29 -1.19996 1.0217 0
M  V30 18765 C 1770.23 -2.25 0.589726 0
M  V30 18766 C 1771.23 -1.65218 -0.374086 0
M  V30 18767 O 1772.43 -1.78346 -0.243449 0
M  V30 18768 H 1768.81 -0.731968 0.172416 0
M  V30 18769 H 1770.78 -2.58759 1.48615 0
M  V30 18770 C 1769.53 -3.47663 -0.0509896 0
M  V30 18771 H 1768.85 -3.93946 0.681649 0
M  V30 18772 H 1770.29 -4.22819 -0.316287 0
M  V30 18773 C 1768.75 -3.11001 -1.29538 0
M  V30 18774 O 1769.28 -3.23 -2.38818 0
M  V30 18775 N 1767.49 -2.65502 -1.18141 0
M  V30 18776 H 1767.03 -2.55938 -0.292172 0
M  V30 18777 H 1766.99 -2.41342 -2.01498 0
M  V30 18778 N 1770.76 -0.798611 -1.35867 0
M  V30 18779 C 1771.7 -0.149116 -2.27712 0
M  V30 18780 C 1772.67 0.680209 -1.47689 0
M  V30 18781 O 1773.86 0.649211 -1.76968 0
M  V30 18782 C 1770.99 0.793938 -3.29263 0
M  V30 18783 C 1770.03 0.0452467 -4.26476 0
M  V30 18784 S 1770.86 -1.28533 -5.19846 0
M  V30 18785 C 1772.02 -0.346515 -6.2494 0
M  V30 18786 H 1772.25 -0.92784 -2.82451 0
M  V30 18787 H 1769.79 -0.593276 -1.42547 0
M  V30 18788 H 1771.74 1.33256 -3.88269 0
M  V30 18789 H 1770.41 1.54598 -2.73419 0
M  V30 18790 H 1769.6 0.761186 -4.98219 0
M  V30 18791 H 1769.2 -0.423174 -3.71598 0
M  V30 18792 H 1771.49 0.47122 -6.75859 0
M  V30 18793 H 1772.44 -1.0329 -7.00526 0
M  V30 18794 H 1772.84 0.0542422 -5.64474 0
M  V30 18795 N 1772.24 1.47639 -0.551417 0
M  V30 18796 C 1773.17 2.32743 0.187887 0
M  V30 18797 C 1774.15 1.43432 0.914407 0
M  V30 18798 O 1775.34 1.72295 0.896005 0
M  V30 18799 C 1772.47 3.25092 1.22199 0
M  V30 18800 C 1771.42 4.23598 0.612298 0
M  V30 18801 C 1770.75 5.0523 1.75062 0
M  V30 18802 C 1772.05 5.20526 -0.430135 0
M  V30 18803 H 1773.74 2.94804 -0.522598 0
M  V30 18804 H 1771.29 1.41764 -0.252768 0
M  V30 18805 H 1773.24 3.83467 1.74731 0
M  V30 18806 H 1771.96 2.61074 1.96235 0
M  V30 18807 H 1770.62 3.6644 0.108324 0
M  V30 18808 H 1770.27 4.3762 2.47987 0
M  V30 18809 H 1769.97 5.71918 1.34848 0
M  V30 18810 H 1771.5 5.66463 2.27931 0
M  V30 18811 H 1772.91 5.73299 0.00890168 0
M  V30 18812 H 1771.31 5.95384 -0.750836 0
M  V30 18813 H 1772.38 4.66356 -1.32815 0
M  V30 18814 N 1773.72 0.287581 1.54954 0
M  V30 18815 C 1774.67 -0.610315 2.2445 0
M  V30 18816 C 1775.66 -1.14786 1.24582 0
M  V30 18817 O 1776.87 -1.10005 1.42474 0
M  V30 18818 H 1773.24 -0.215394 0.720493 0
M  V30 18819 H 1775.21 -0.00148121 2.984 0
M  V30 18820 C 1773.96 -1.77719 2.9885 0
M  V30 18821 H 1773.29 -1.37277 3.75493 0
M  V30 18822 H 1774.73 -2.38181 3.50779 0
M  V30 18823 C 1773.19 -2.67321 2.05039 0
M  V30 18824 O 1773.72 -3.68038 1.60968 0
M  V30 18825 N 1771.92 -2.34761 1.71276 0
M  V30 18826 H 1771.47 -1.52905 2.07311 0
M  V30 18827 H 1771.43 -2.94981 1.08781 0
M  V30 18828 N 1775.2 -1.57593 0.0150662 0
M  V30 18829 C 1776.13 -2.06239 -0.999912 0
M  V30 18830 C 1777.14 -0.983112 -1.29764 0
M  V30 18831 O 1778.33 -1.25961 -1.26476 0
M  V30 18832 C 1775.43 -2.46011 -2.33092 0
M  V30 18833 C 1774.61 -3.76851 -2.2204 0
M  V30 18834 C 1773.66 -4.03326 -3.37956 0
M  V30 18835 O 1772.69 -4.73781 -3.15469 0
M  V30 18836 N 1773.89 -3.52399 -4.61298 0
M  V30 18837 H 1776.66 -2.93936 -0.584952 0
M  V30 18838 H 1774.22 -1.60984 -0.172001 0
M  V30 18839 H 1776.21 -2.60825 -3.09439 0
M  V30 18840 H 1774.78 -1.63753 -2.66277 0
M  V30 18841 H 1774 -3.71969 -1.30509 0
M  V30 18842 H 1775.29 -4.626 -2.11845 0
M  V30 18843 H 1774.69 -2.95374 -4.82463 0
M  V30 18844 H 1773.24 -3.72516 -5.3486 0
M  V30 18845 O 1776.72 0.126879 -1.61001 0
M  V30 18846 H 1777.41 0.759017 -1.78209 0
M  V30 END ATOM
M  V30 BEGIN BOND
M  V30 END BOND
M  V30 END CTAB
M  END
$$$$
