drugbank_target|P52732 Kinesin-like protein KIF11 (DB03996; DB04331; DB06040; DB07064; DB08032; DB08033; DB08037; DB08198; DB08239; DB08244; DB08246; DB08250)
 OpenBabel12092120013D

  0  0  0     0  0            999 V3000
M  V30 BEGIN CTAB
M  V30 COUNTS 16776 16877 0 0 0
M  V30 BEGIN ATOM
M  V30 1 H -0.908 1.98254 -0.117106 0
M  V30 2 N 0 1.576 0 0
M  V30 3 C 0.933 2.03868 1.02534 0
M  V30 4 C 1.911 0.928543 1.3348 0
M  V30 5 O 3.095 1.19667 1.45644 0
M  V30 6 C 0.222 2.43627 2.35294 0
M  V30 7 C -0.732 3.65373 2.2001 0
M  V30 8 S 0.101 5.13292 1.52614 0
M  V30 9 C 1.257 5.56322 2.86805 0
M  V30 10 H 1.49 2.90518 0.631377 0
M  V30 11 H -0.977 1.52953 0.210867 0
M  V30 12 H 0.981 2.67203 3.11629 0
M  V30 13 H -0.358 1.57376 2.7183 0
M  V30 14 H -1.165 3.90944 3.18086 0
M  V30 15 H -1.563 3.418 1.51819 0
M  V30 16 H 0.729 5.58782 3.83104 0
M  V30 17 H 1.672 6.56266 2.65933 0
M  V30 18 H 2.08 4.83886 2.90714 0
M  V30 19 N 1.4781 -0.272755 1.55222 0
M  V30 20 C 2.4411 -1.32041 1.87344 0
M  V30 21 C 3.4411 -1.42342 0.74803 0
M  V30 22 O 4.6311 -1.41488 1.0162 0
M  V30 23 C 1.7631 -2.70173 2.07893 0
M  V30 24 H 2.9561 -1.04789 2.80997 0
M  V30 25 H 0.5091 -0.51083 1.47717 0
M  V30 26 H 1.2441 -3.02605 1.16622 0
M  V30 27 H 1.0291 -2.64082 2.89833 0
M  V30 28 H 2.5191 -3.45869 2.34017 0
M  V30 29 N 2.9562 -1.48159 -0.537278 0
M  V30 30 C 4.1812 -1.59707 -1.32319 0
M  V30 31 C 4.6062 -0.254859 -1.86365 0
M  V30 32 O 3.9642 0.772378 -1.64024 0
M  V30 33 C 4.0122 -2.6412 -2.45505 0
M  V30 34 O 3.1162 -2.20774 -3.48328 0
M  V30 35 H 2.4572 -0.535791 -0.392204 0
M  V30 36 H 4.9872 -1.94092 -0.647268 0
M  V30 37 H 4.9972 -2.85166 -2.91795 0
M  V30 38 H 3.6722 -3.61567 -2.05528 0
M  V30 39 H 2.2492 -2.09911 -3.08207 0
M  V30 40 N 4.4343 0.785586 -1.36625 0
M  V30 41 C 5.3663 1.90711 -1.2713 0
M  V30 42 C 6.3793 1.61688 -0.189986 0
M  V30 43 O 7.5683 1.72864 -0.445014 0
M  V30 44 C 4.6683 3.25611 -0.939713 0
M  V30 45 C 3.8413 3.82385 -2.12369 0
M  V30 46 C 2.9003 4.95732 -1.76456 0
M  V30 47 O 1.9263 5.12047 -2.48589 0
M  V30 48 N 3.1283 5.76258 -0.700492 0
M  V30 49 H 5.8933 1.99376 -2.23762 0
M  V30 50 H 3.4543 0.964041 -1.30069 0
M  V30 51 H 5.4463 3.98937 -0.680554 0
M  V30 52 H 4.0163 3.12538 -0.0624074 0
M  V30 53 H 3.2363 3.01001 -2.54543 0
M  V30 54 H 4.5243 4.17047 -2.9146 0
M  V30 55 H 3.9223 5.65609 -0.101624 0
M  V30 56 H 2.4793 6.4987 -0.501165 0
M  V30 57 N 5.9124 1.20967 1.01018 0
M  V30 58 C 7.3234 1.02319 1.56165 0
M  V30 59 C 7.6744 -0.418546 1.91684 0
M  V30 60 O 6.7994 -1.30096 1.72928 0
M  V30 61 C 7.3944 1.85109 2.8376 0
M  V30 62 C 5.9534 1.70809 3.35412 0
M  V30 63 C 5.1004 1.82643 2.08655 0
M  V30 64 H 8.0514 1.35065 0.833255 0
M  V30 65 H 8.0724 1.35827 3.55431 0
M  V30 66 H 7.5844 2.90035 2.57878 0
M  V30 67 H 5.6854 0.685464 3.66241 0
M  V30 68 H 5.7984 2.52467 4.07182 0
M  V30 69 H 4.1624 1.25896 2.21409 0
M  V30 70 H 4.9454 2.89066 1.85191 0
M  V30 71 N 7.3905 -1.2043 1.01659 0
M  V30 72 C 8.3385 -2.25249 0.580143 0
M  V30 73 C 9.3325 -1.65057 -0.381115 0
M  V30 74 O 10.5385 -1.78241 -0.251039 0
M  V30 75 H 6.9135 -0.732695 0.169299 0
M  V30 76 H 8.8845 -2.59389 1.47512 0
M  V30 77 C 7.6335 -3.47638 -0.065788 0
M  V30 78 H 6.9565 -3.94233 0.664874 0
M  V30 79 H 8.3965 -4.2268 -0.334282 0
M  V30 80 C 6.8555 -3.10447 -1.3086 0
M  V30 81 O 7.3855 -3.21981 -2.4019 0
M  V30 82 N 5.5915 -2.64996 -1.1927 0
M  V30 83 H 5.1385 -2.55811 -0.303064 0
M  V30 84 H 5.0965 -2.40482 -2.02523 0
M  V30 85 N 8.8686 -0.792821 -1.36206 0
M  V30 86 C 10.0936 -0.377701 -2.03932 0
M  V30 87 C 10.5186 0.998947 -1.59382 0
M  V30 88 O 9.8766 1.64421 -0.763903 0
M  V30 89 C 9.9246 -0.453635 -3.57735 0
M  V30 90 O 9.0286 0.538151 -4.08874 0
M  V30 91 H 8.3696 -0.159855 -0.644471 0
M  V30 92 H 10.8996 -1.07488 -1.7409 0
M  V30 93 H 10.9096 -0.318464 -4.06755 0
M  V30 94 H 9.5846 -1.45784 -3.89512 0
M  V30 95 H 8.1616 0.364359 -3.71116 0
M  V30 96 N 10.3467 1.47872 -0.545128 0
M  V30 97 C 11.5717 2.07391 -0.0190611 0
M  V30 98 C 11.9967 1.39688 1.25971 0
M  V30 99 O 11.3547 0.467816 1.7516 0
M  V30 100 C 11.4027 3.60188 0.172335 0
M  V30 101 O 10.5067 3.9339 1.23766 0
M  V30 102 H 9.8477 0.662411 -0.0459059 0
M  V30 103 H 12.3777 1.90066 -0.757365 0
M  V30 104 H 12.3877 4.06129 0.390305 0
M  V30 105 H 11.0627 4.08865 -0.761725 0
M  V30 106 H 9.6397 3.5921 1.00114 0
M  V30 107 N 11.8248 0.280983 1.55075 0
M  V30 108 C 12.7878 -0.590896 2.21452 0
M  V30 109 C 13.7878 -1.07682 1.19421 0
M  V30 110 O 14.9778 -0.97605 1.44288 0
M  V30 111 C 12.1098 -1.81587 2.88511 0
M  V30 112 H 13.3028 -0.0112554 2.99898 0
M  V30 113 H 10.8558 0.0316438 1.56268 0
M  V30 114 H 11.5908 -2.43587 2.14093 0
M  V30 115 H 11.3758 -1.4753 3.63287 0
M  V30 116 H 12.8658 -2.43575 3.39206 0
M  V30 117 N 13.3029 -1.57598 0.00835791 0
M  V30 118 C 14.2499 -2.08945 -0.980346 0
M  V30 119 C 15.2199 -0.986738 -1.33614 0
M  V30 120 O 16.4049 -1.25968 -1.43306 0
M  V30 121 C 13.5449 -2.60425 -2.26435 0
M  V30 122 C 12.6579 -3.84628 -1.96685 0
M  V30 123 C 11.7929 -4.24579 -3.19228 0
M  V30 124 C 10.8319 -5.41596 -2.85202 0
M  V30 125 N 9.9689 -5.768 -4.00307 0
M  V30 126 H 14.8089 -2.93148 -0.535551 0
M  V30 127 H 12.3459 -1.44912 -0.252776 0
M  V30 128 H 14.3039 -2.88354 -3.01509 0
M  V30 129 H 12.9339 -1.79083 -2.68568 0
M  V30 130 H 11.9859 -3.63556 -1.11942 0
M  V30 131 H 13.2979 -4.69796 -1.67611 0
M  V30 132 H 12.4519 -4.53834 -4.02641 0
M  V30 133 H 11.1909 -3.38137 -3.51447 0
M  V30 134 H 10.1959 -5.12056 -2.00198 0
M  V30 135 H 11.4209 -6.29721 -2.54222 0
M  V30 136 H 9.3669 -4.93316 -4.32407 0
M  V30 137 H 9.2839 -6.5656 -3.74786 0
M  V30 138 H 10.5519 -6.10652 -4.84484 0
M  V30 139 N 14.781 0.264519 -1.55364 0
M  V30 140 C 15.728 1.32717 -1.88825 0
M  V30 141 C 16.698 1.48675 -0.740605 0
M  V30 142 O 17.883 1.62945 -0.992657 0
M  V30 143 C 15.023 2.68089 -2.17307 0
M  V30 144 C 14.136 2.60284 -3.44785 0
M  V30 145 C 13.271 3.87892 -3.62924 0
M  V30 146 C 12.31 3.74631 -4.84064 0
M  V30 147 N 11.447 4.94092 -4.98816 0
M  V30 148 H 16.287 1.03481 -2.79456 0
M  V30 149 H 13.824 0.499757 -1.3835 0
M  V30 150 H 15.782 3.46864 -2.31821 0
M  V30 151 H 14.412 2.95509 -1.299 0
M  V30 152 H 13.464 1.73173 -3.38697 0
M  V30 153 H 14.776 2.46388 -4.33698 0
M  V30 154 H 13.93 4.75109 -3.77302 0
M  V30 155 H 12.669 4.04664 -2.7221 0
M  V30 156 H 11.674 2.85797 -4.69681 0
M  V30 157 H 12.899 3.5937 -5.76221 0
M  V30 158 H 10.845 5.11259 -4.11036 0
M  V30 159 H 10.762 4.8276 -5.81789 0
M  V30 160 H 12.03 5.82857 -5.17588 0
M  V30 161 N 16.2591 1.48442 0.529413 0
M  V30 162 C 17.2061 1.63007 1.63394 0
M  V30 163 C 18.1761 0.47212 1.59249 0
M  V30 164 O 19.3611 0.695673 1.77666 0
M  V30 165 C 16.5011 1.6763 3.01653 0
M  V30 166 C 15.6141 2.94535 3.16027 0
M  V30 167 C 14.7491 2.90316 4.44849 0
M  V30 168 C 13.7881 4.11923 4.52754 0
M  V30 169 N 12.9251 4.05777 5.72965 0
M  V30 170 H 17.7651 2.5733 1.50285 0
M  V30 171 H 15.3021 1.27613 0.731656 0
M  V30 172 H 17.2601 1.68292 3.81751 0
M  V30 173 H 15.8901 0.76797 3.13532 0
M  V30 174 H 14.9421 3.03615 2.29177 0
M  V30 175 H 16.2541 3.84512 3.17729 0
M  V30 176 H 15.4081 2.89382 5.33238 0
M  V30 177 H 14.1471 1.98068 4.45668 0
M  V30 178 H 13.1521 4.13131 3.62771 0
M  V30 179 H 14.3771 5.0533 4.53672 0
M  V30 180 H 12.3231 3.16351 5.74681 0
M  V30 181 H 12.2401 4.8946 5.76164 0
M  V30 182 H 13.5081 4.08904 6.6364 0
M  V30 183 N 17.7372 -0.778329 1.37039 0
M  V30 184 C 18.6472 -1.92253 1.34446 0
M  V30 185 C 19.6632 -1.72267 0.244991 0
M  V30 186 O 20.8392 -1.95615 0.479258 0
M  V30 187 C 17.9042 -3.27282 1.144 0
M  V30 188 C 16.9652 -3.59969 2.33925 0
M  V30 189 C 16.1982 -4.88555 2.14825 0
M  V30 190 O 16.4212 -5.59113 1.12912 0
M  V30 191 O 15.3552 -5.20153 3.02861 0
M  V30 192 H 19.1812 -1.97392 2.30803 0
M  V30 193 H 16.7662 -0.920154 1.17701 0
M  V30 194 H 18.6482 -4.08062 1.05182 0
M  V30 195 H 17.3232 -3.23011 0.211124 0
M  V30 196 H 16.2302 -2.7945 2.48714 0
M  V30 197 H 17.5632 -3.68976 3.25757 0
M  V30 198 N 19.2153 -1.21501 -1.00376 0
M  V30 199 C 20.1253 -0.991447 -2.12621 0
M  V30 200 C 21.1413 0.0568446 -1.73907 0
M  V30 201 O 22.3173 -0.13348 -2.00957 0
M  V30 202 C 19.3823 -0.560312 -3.42142 0
M  V30 203 C 18.4433 -1.68096 -3.95022 0
M  V30 204 C 17.6763 -1.2703 -5.18362 0
M  V30 205 O 17.8993 -0.144438 -5.70217 0
M  V30 206 O 16.8333 -2.08269 -5.64719 0
M  V30 207 H 20.6593 -1.93158 -2.34358 0
M  V30 208 H 18.2443 -0.999999 -1.10997 0
M  V30 209 H 20.1263 -0.329724 -4.20108 0
M  V30 210 H 18.8013 0.351089 -3.2179 0
M  V30 211 H 17.7083 -1.96597 -3.18278 0
M  V30 212 H 19.0413 -2.56983 -4.19786 0
M  V30 213 N 20.6934 1.19889 -1.02296 0
M  V30 214 C 21.6404 2.22901 -0.598651 0
M  V30 215 C 22.6104 1.61588 0.384521 0
M  V30 216 O 23.7954 1.88697 0.282522 0
M  V30 217 C 20.9354 3.45063 0.0504476 0
M  V30 218 C 20.0484 4.20783 -0.978053 0
M  V30 219 C 19.1834 5.30356 -0.299338 0
M  V30 220 C 18.2224 5.97826 -1.31416 0
M  V30 221 N 17.3594 6.98975 -0.661667 0
M  V30 222 H 22.1994 2.58554 -1.48169 0
M  V30 223 H 19.7364 1.27039 -0.741584 0
M  V30 224 H 21.6944 4.14831 0.443971 0
M  V30 225 H 20.3244 3.10084 0.897097 0
M  V30 226 H 19.3764 3.50018 -1.48969 0
M  V30 227 H 20.6884 4.67109 -1.74958 0
M  V30 228 H 19.8424 6.06516 0.149347 0
M  V30 229 H 18.5814 4.85084 0.504445 0
M  V30 230 H 17.5864 5.20422 -1.77317 0
M  V30 231 H 18.8114 6.45183 -2.11933 0
M  V30 232 H 16.7574 6.55886 0.122132 0
M  V30 233 H 16.6744 7.43461 -1.37117 0
M  V30 234 H 17.9424 7.7914 -0.236785 0
M  V30 235 N 22.1715 0.800033 1.35784 0
M  V30 236 C 23.4195 0.376597 1.9856 0
M  V30 237 C 23.7405 -1.05812 1.63795 0
M  V30 238 O 23.0105 -1.73103 0.917171 0
M  V30 239 H 21.5905 0.136261 0.734467 0
M  V30 240 H 24.2525 1.02442 1.65806 0
M  V30 241 H 23.3485 0.477002 3.08433 0
M  V30 242 N 23.6496 -1.47581 0.552962 0
M  V30 243 C 24.5966 -2.29957 -0.197108 0
M  V30 244 C 25.5666 -1.38799 -0.912359 0
M  V30 245 O 26.7516 -1.67761 -0.908888 0
M  V30 246 C 23.8916 -3.22672 -1.22379 0
M  V30 247 C 23.0046 -4.28919 -0.515038 0
M  V30 248 C 22.1396 -5.0879 -1.52664 0
M  V30 249 C 21.1786 -6.06815 -0.802631 0
M  V30 250 N 20.3156 -6.7966 -1.76086 0
M  V30 251 H 25.1556 -2.93578 0.511486 0
M  V30 252 H 22.6926 -1.4471 0.264067 0
M  V30 253 H 24.6506 -3.74845 -1.83159 0
M  V30 254 H 23.2806 -2.60925 -1.90047 0
M  V30 255 H 22.3326 -3.79835 0.207192 0
M  V30 256 H 23.6446 -4.98773 0.0523425 0
M  V30 257 H 22.7986 -5.65091 -2.20809 0
M  V30 258 H 21.5376 -4.38828 -2.12794 0
M  V30 259 H 20.5426 -5.49695 -0.107238 0
M  V30 260 H 21.7676 -6.78784 -0.207135 0
M  V30 261 H 19.7136 -6.12432 -2.35081 0
M  V30 262 H 19.6306 -7.45669 -1.24552 0
M  V30 263 H 20.8986 -7.40538 -2.43359 0
M  V30 264 N 25.1277 -0.289203 -1.54924 0
M  V30 265 C 26.0757 0.607966 -2.24514 0
M  V30 266 C 27.0697 1.14655 -1.24702 0
M  V30 267 O 28.2757 1.09856 -1.4259 0
M  V30 268 H 24.6507 0.21464 -0.720718 0
M  V30 269 H 26.6217 -0.00164182 -2.984 0
M  V30 270 C 25.3707 1.77406 -2.99036 0
M  V30 271 H 24.6937 1.36884 -3.75637 0
M  V30 272 H 26.1337 2.37814 -3.51028 0
M  V30 273 C 24.5927 2.67107 -2.05318 0
M  V30 274 O 25.1227 3.6787 -1.61353 0
M  V30 275 N 23.3287 2.34582 -1.71521 0
M  V30 276 H 22.8757 1.52688 -2.07471 0
M  V30 277 H 22.8337 2.94867 -1.0909 0
M  V30 278 N 26.6058 1.57591 -0.0167156 0
M  V30 279 C 27.8548 1.90461 0.663877 0
M  V30 280 C 28.1678 0.893515 1.73999 0
M  V30 281 O 29.3738 1.11302 2.47637 0
M  V30 282 C 27.8298 3.38155 1.23204 0
M  V30 283 C 27.4378 4.47597 0.189866 0
M  V30 284 C 29.1818 3.80111 1.88986 0
M  V30 285 C 27.0888 5.86379 0.768964 0
M  V30 286 H 26.0188 0.710738 0.251729 0
M  V30 287 H 28.6698 1.83326 -0.0799926 0
M  V30 288 H 27.0518 3.40182 2.02712 0
M  V30 289 H 28.2258 4.57112 -0.581846 0
M  V30 290 H 26.5408 4.14766 -0.368475 0
M  V30 291 H 29.1378 4.81145 2.33247 0
M  V30 292 H 29.4808 3.14511 2.72743 0
M  V30 293 H 30.0138 3.80454 1.16187 0
M  V30 294 H 26.7528 6.55493 -0.0301957 0
M  V30 295 H 26.2728 5.80496 1.50945 0
M  V30 296 H 27.9518 6.34563 1.26251 0
M  V30 297 N 28.0839 -0.256276 1.55502 0
M  V30 298 C 29.0159 -1.33981 1.85962 0
M  V30 299 C 30.0289 -1.44743 0.745212 0
M  V30 300 O 31.2179 -1.4626 1.02324 0
M  V30 301 C 28.3179 -2.7194 2.02242 0
M  V30 302 C 27.4909 -2.83562 3.33033 0
M  V30 303 C 26.5499 -4.02304 3.39172 0
M  V30 304 O 25.5759 -3.92273 4.12444 0
M  V30 305 N 26.7779 -5.15045 2.67784 0
M  V30 306 H 29.5429 -1.08191 2.7949 0
M  V30 307 H 27.1039 -0.446388 1.55624 0
M  V30 308 H 29.0959 -3.49697 2.03701 0
M  V30 309 H 27.6659 -2.90479 1.15502 0
M  V30 310 H 26.8859 -1.92555 3.43971 0
M  V30 311 H 28.1739 -2.88271 4.19258 0
M  V30 312 H 27.5719 -5.26085 2.07968 0
M  V30 313 H 26.1289 -5.90972 2.74947 0
M  V30 314 N 29.562 -1.4872 -0.521534 0
M  V30 315 C 30.808 -1.574 -1.27879 0
M  V30 316 C 31.141 -0.250817 -1.92573 0
M  V30 317 O 30.416 0.743934 -1.79711 0
M  V30 318 C 30.699 -2.71843 -2.36164 0
M  V30 319 C 30.552 -4.13893 -1.76105 0
M  V30 320 C 31.871 -2.82008 -3.37875 0
M  V30 321 H 28.99 -0.572941 -0.463581 0
M  V30 322 H 31.632 -1.80927 -0.580119 0
M  V30 323 H 29.782 -2.51914 -2.95756 0
M  V30 324 H 31.454 -4.45284 -1.20499 0
M  V30 325 H 29.697 -4.20498 -1.06601 0
M  V30 326 H 30.368 -4.89804 -2.5455 0
M  V30 327 H 32.844 -3.00086 -2.88249 0
M  V30 328 H 31.72 -3.63796 -4.11028 0
M  V30 329 H 31.981 -1.90511 -3.98946 0
M  V30 330 N 31.0401 0.771051 -1.3745 0
M  V30 331 C 32.2861 1.5319 -1.32894 0
M  V30 332 C 32.6191 1.94008 0.0862511 0
M  V30 333 O 31.8941 1.64124 1.04373 0
M  V30 334 C 32.1771 2.79648 -2.26868 0
M  V30 335 C 32.0301 2.45079 -3.77169 0
M  V30 336 C 33.3491 3.81583 -2.19277 0
M  V30 337 H 30.4681 0.555744 -0.484064 0
M  V30 338 H 33.1101 0.884492 -1.68157 0
M  V30 339 H 31.2601 3.34891 -1.96926 0
M  V30 340 H 32.9321 1.95745 -4.1771 0
M  V30 341 H 31.1751 1.77767 -3.95704 0
M  V30 342 H 31.8461 3.35478 -4.38359 0
M  V30 343 H 34.3221 3.35835 -2.45671 0
M  V30 344 H 33.1981 4.67787 -2.87171 0
M  V30 345 H 33.4591 4.25897 -1.18592 0
M  V30 346 N 32.5182 1.22032 0.997298 0
M  V30 347 C 33.7642 1.04376 1.73878 0
M  V30 348 C 34.0972 -0.420716 1.89588 0
M  V30 349 O 33.3722 -1.31202 1.43583 0
M  V30 350 C 33.6552 1.75047 3.14691 0
M  V30 351 C 33.5082 3.29062 3.06656 0
M  V30 352 C 34.8272 1.49928 4.13775 0
M  V30 353 H 31.9462 0.380578 0.631133 0
M  V30 354 H 34.5882 1.50312 1.16217 0
M  V30 355 H 32.7382 1.35996 3.63919 0
M  V30 356 H 34.4102 3.7753 2.65083 0
M  V30 357 H 32.6532 3.58967 2.43568 0
M  V30 358 H 33.3242 3.73683 4.06282 0
M  V30 359 H 35.8002 1.83842 3.73285 0
M  V30 360 H 34.6762 2.01878 5.10428 0
M  V30 361 H 34.9372 0.430929 4.39995 0
M  V30 362 N 33.9963 -1.19345 1.0293 0
M  V30 363 C 35.4123 -1.41069 0.746446 0
M  V30 364 C 35.6123 -1.90078 -0.668776 0
M  V30 365 O 34.6683 -2.0778 -1.4347 0
M  V30 366 C 35.9813 -2.42141 1.78292 0
M  V30 367 C 37.5293 -2.55887 1.80252 0
M  V30 368 C 38.0043 -3.60214 2.8286 0
M  V30 369 N 39.4953 -3.67711 2.81679 0
M  V30 370 C 40.2303 -4.48128 3.57727 0
M  V30 371 N 39.7263 -5.32248 4.43491 0
M  V30 372 N 41.5193 -4.42782 3.46267 0
M  V30 373 H 33.6703 -0.858536 1.94275 0
M  V30 374 H 35.9333 -0.439541 0.839945 0
M  V30 375 H 35.6393 -2.13155 2.79746 0
M  V30 376 H 35.5133 -3.41323 1.60557 0
M  V30 377 H 37.9003 -2.84196 0.794757 0
M  V30 378 H 37.9813 -1.56858 2.02062 0
M  V30 379 H 37.6253 -3.32647 3.83807 0
M  V30 380 H 37.5553 -4.58895 2.58307 0
M  V30 381 H 40.0463 -3.07634 2.19476 0
M  V30 382 H 40.3593 -5.90729 4.98256 0
M  V30 383 H 38.7043 -5.31707 4.47564 0
M  V30 384 H 41.8953 -3.76107 2.78677 0
M  V30 385 H 42.0683 -5.05215 4.05785 0
M  V30 386 N 35.4744 -0.807222 -1.35358 0
M  V30 387 C 36.7144 -0.393534 -2.00576 0
M  V30 388 C 37.0784 1.0203 -1.62647 0
M  V30 389 O 38.2794 1.53603 -2.20589 0
M  V30 390 C 36.5504 -0.572017 -3.52793 0
M  V30 391 S 38.1094 -0.248845 -4.38094 0
M  V30 392 H 34.9274 -0.149425 -0.695121 0
M  V30 393 H 37.5294 -1.04961 -1.64935 0
M  V30 394 H 36.2334 -1.60097 -3.77885 0
M  V30 395 H 35.7644 0.099359 -3.93275 0
M  V30 396 H 37.7794 0.943253 -4.87152 0
M  V30 397 N 36.9525 1.47285 -0.560781 0
M  V30 398 C 38.3685 1.58065 -0.22081 0
M  V30 399 C 38.5685 1.55892 1.27671 0
M  V30 400 O 37.6245 1.46422 2.0571 0
M  V30 401 C 38.9375 2.88418 -0.850625 0
M  V30 402 C 40.4855 3.02009 -0.822184 0
M  V30 403 C 40.9605 4.35066 -1.43113 0
M  V30 404 N 42.4515 4.41711 -1.39448 0
M  V30 405 C 43.1865 5.43237 -1.83525 0
M  V30 406 N 42.6825 6.51555 -2.35474 0
M  V30 407 N 44.4755 5.34304 -1.74574 0
M  V30 408 H 36.6265 1.46941 -1.53369 0
M  V30 409 H 38.8895 0.699558 -0.639783 0
M  V30 410 H 38.5955 2.95755 -1.9032 0
M  V30 411 H 38.4695 3.75612 -0.345773 0
M  V30 412 H 40.8565 2.94266 0.221714 0
M  V30 413 H 40.9375 2.16347 -1.36483 0
M  V30 414 H 40.5815 4.43565 -2.47412 0
M  V30 415 H 40.5115 5.19465 -0.863899 0
M  V30 416 H 43.0025 3.64027 -1.01452 0
M  V30 417 H 43.3155 7.25203 -2.67021 0
M  V30 418 H 41.6605 6.52435 -2.39487 0
M  V30 419 H 44.8515 4.48581 -1.33763 0
M  V30 420 H 45.0245 6.13288 -2.09242 0
M  V30 421 N 38.4306 0.297415 1.54768 0
M  V30 422 C 39.8416 -0.195947 1.85669 0
M  V30 423 C 40.1926 -1.53707 1.21937 0
M  V30 424 O 39.3176 -2.10164 0.515754 0
M  V30 425 C 39.9126 -0.362318 3.36857 0
M  V30 426 C 38.4716 -0.799901 3.67802 0
M  V30 427 C 37.6186 0.0938578 2.77141 0
M  V30 428 H 40.5696 0.518538 1.4999 0
M  V30 429 H 40.5906 -1.19745 3.61167 0
M  V30 430 H 40.1026 0.613921 3.83214 0
M  V30 431 H 38.2036 -1.78682 3.26961 0
M  V30 432 H 38.3166 -0.621773 4.75048 0
M  V30 433 H 36.6806 -0.426254 2.51108 0
M  V30 434 H 37.4636 1.06639 3.26318 0
M  V30 435 N 39.9087 -1.5758 0.0250728 0
M  V30 436 C 41.1557 -1.91633 -0.654444 0
M  V30 437 C 41.4837 -0.901103 -1.72367 0
M  V30 438 O 40.7387 0.0905647 -1.9549 0
M  V30 439 C 41.0377 -3.32421 -1.31268 0
M  V30 440 C 40.7037 -4.49344 -0.374223 0
M  V30 441 C 39.3657 -4.8106 -0.115911 0
M  V30 442 C 41.7177 -5.20498 0.270432 0
M  V30 443 C 39.0457 -5.8129 0.79493 0
M  V30 444 C 41.3977 -6.21699 1.1693 0
M  V30 445 C 40.0617 -6.51859 1.43655 0
M  V30 446 H 39.3317 -0.701236 -0.239478 0
M  V30 447 H 41.9787 -1.91307 0.0859734 0
M  V30 448 H 40.2837 -3.28989 -2.12775 0
M  V30 449 H 41.9807 -3.56038 -1.84494 0
M  V30 450 H 38.5707 -4.24579 -0.58573 0
M  V30 451 H 42.7547 -4.96229 0.0839194 0
M  V30 452 H 38.0107 -6.03005 1.00973 0
M  V30 453 H 42.1847 -6.75955 1.67504 0
M  V30 454 H 39.8117 -7.2934 2.144 0
M  V30 455 N 41.3868 0.248026 -1.55636 0
M  V30 456 C 42.3348 1.32683 -1.91045 0
M  V30 457 C 43.3288 1.49883 -0.789401 0
M  V30 458 O 44.5348 1.51371 -0.974007 0
M  V30 459 H 40.9098 0.444272 -0.606734 0
M  V30 460 H 42.8808 1.00085 -2.81115 0
M  V30 461 C 41.6298 2.6755 -2.22064 0
M  V30 462 H 40.9528 2.55114 -3.07826 0
M  V30 463 H 42.3928 3.41912 -2.50743 0
M  V30 464 C 40.8518 3.20556 -1.0366 0
M  V30 465 O 41.3818 4.00695 -0.284016 0
M  V30 466 N 39.5878 2.78568 -0.82753 0
M  V30 467 H 39.1348 2.1351 -1.44123 0
M  V30 468 H 39.0928 3.14378 -0.0369803 0
M  V30 469 N 42.8649 1.48995 0.513639 0
M  V30 470 C 43.7949 1.67636 1.62544 0
M  V30 471 C 44.7759 0.525087 1.61793 0
M  V30 472 O 45.9609 0.759502 1.78732 0
M  V30 473 C 43.0909 1.73114 3.01079 0
M  V30 474 C 42.0449 2.87905 3.16693 0
M  V30 475 C 41.3709 2.78486 4.56453 0
M  V30 476 C 42.6709 4.29005 2.97913 0
M  V30 477 H 44.3649 2.60716 1.47198 0
M  V30 478 H 41.9109 1.25465 0.706714 0
M  V30 479 H 43.8639 1.84742 3.78746 0
M  V30 480 H 42.5879 0.766241 3.17484 0
M  V30 481 H 41.2469 2.75859 2.41448 0
M  V30 482 H 40.8949 1.7993 4.69717 0
M  V30 483 H 40.5949 3.55523 4.67843 0
M  V30 484 H 42.1189 2.92104 5.36197 0
M  V30 485 H 43.5329 4.41798 3.65359 0
M  V30 486 H 41.9299 5.07166 3.20785 0
M  V30 487 H 42.9999 4.44329 1.94165 0
M  V30 488 N 44.343 -0.763751 1.37857 0
M  V30 489 C 45.306 -1.85889 1.34081 0
M  V30 490 C 46.306 -1.58949 0.243277 0
M  V30 491 O 47.496 -1.66882 0.499589 0
M  V30 492 C 44.628 -3.23176 1.08489 0
M  V30 493 H 45.821 -1.90648 2.31502 0
M  V30 494 H 43.374 -0.964367 1.23003 0
M  V30 495 H 44.109 -3.24091 0.116318 0
M  V30 496 H 43.894 -3.44124 1.8794 0
M  V30 497 H 45.384 -4.03254 1.08517 0
M  V30 498 N 45.8211 -1.22559 -0.990812 0
M  V30 499 C 46.7311 -1.01394 -2.11557 0
M  V30 500 C 47.7471 0.0383962 -1.73958 0
M  V30 501 O 48.9231 -0.154787 -2.00804 0
M  V30 502 C 45.9881 -0.596569 -3.41529 0
M  V30 503 C 45.0491 -1.72276 -3.93217 0
M  V30 504 C 44.2821 -1.32521 -5.16985 0
M  V30 505 O 44.5051 -0.204909 -5.70032 0
M  V30 506 O 43.4391 -2.14247 -5.62478 0
M  V30 507 H 47.2651 -1.95633 -2.32296 0
M  V30 508 H 44.8501 -1.01172 -1.0993 0
M  V30 509 H 46.7321 -0.374263 -4.19735 0
M  V30 510 H 45.4071 0.316939 -3.22145 0
M  V30 511 H 44.3141 -1.99961 -3.16174 0
M  V30 512 H 45.6471 -2.61421 -4.17037 0
M  V30 513 N 47.2992 1.18797 -1.03562 0
M  V30 514 C 48.7152 1.40671 -0.753917 0
M  V30 515 C 48.9152 1.9043 0.658686 0
M  V30 516 O 47.9712 2.08538 1.42366 0
M  V30 517 C 49.2842 2.41192 -1.79574 0
M  V30 518 C 50.8322 2.54928 -1.81606 0
M  V30 519 C 51.3072 3.58709 -2.84766 0
M  V30 520 N 52.7982 3.66212 -2.83625 0
M  V30 521 C 53.5332 4.46225 -3.60098 0
M  V30 522 N 53.0292 5.29888 -4.46308 0
M  V30 523 N 54.8222 4.40939 -3.4861 0
M  V30 524 H 46.9732 0.848221 -1.94728 0
M  V30 525 H 49.2362 0.435081 -0.842264 0
M  V30 526 H 48.9422 2.11669 -2.80872 0
M  V30 527 H 48.8162 3.40467 -1.62365 0
M  V30 528 H 51.2032 2.83771 -0.809817 0
M  V30 529 H 51.2842 1.55784 -2.02891 0
M  V30 530 H 50.9282 3.30607 -3.85566 0
M  V30 531 H 50.8582 4.57519 -2.60737 0
M  V30 532 H 53.3492 3.06466 -2.21105 0
M  V30 533 H 53.6622 5.88078 -5.01382 0
M  V30 534 H 52.0072 5.29326 -4.50377 0
M  V30 535 H 55.1982 3.74624 -2.80668 0
M  V30 536 H 55.3712 5.03056 -4.08459 0
M  V30 537 N 48.7773 0.814389 1.34928 0
M  V30 538 C 49.7243 0.22822 2.29669 0
M  V30 539 C 50.6943 -0.642164 1.53184 0
M  V30 540 O 51.8793 -0.585605 1.81591 0
M  V30 541 C 49.0193 -0.61089 3.3965 0
M  V30 542 C 48.1323 0.280792 4.31086 0
M  V30 543 C 47.2673 -0.567067 5.28165 0
M  V30 544 C 46.3063 0.324531 6.11239 0
M  V30 545 N 45.4433 -0.483756 7.00431 0
M  V30 546 H 50.2833 1.04153 2.79206 0
M  V30 547 H 47.8203 0.525133 1.37407 0
M  V30 548 H 49.7783 -1.11263 4.0209 0
M  V30 549 H 48.4083 -1.38939 2.91369 0
M  V30 550 H 47.4603 0.900688 3.69583 0
M  V30 551 H 48.7723 0.966723 4.89342 0
M  V30 552 H 47.9263 -1.13363 5.96015 0
M  V30 553 H 46.6653 -1.28654 4.70425 0
M  V30 554 H 45.6703 0.903298 5.42329 0
M  V30 555 H 46.8953 1.04198 6.71059 0
M  V30 556 H 44.8413 -1.18706 6.45171 0
M  V30 557 H 44.7583 0.143965 7.55863 0
M  V30 558 H 46.0263 -1.03334 7.7262 0
M  V30 559 N 50.2554 -1.46986 0.568584 0
M  V30 560 C 51.2184 -2.28624 -0.162366 0
M  V30 561 C 52.2184 -1.37596 -0.832103 0
M  V30 562 O 53.4084 -1.60115 -0.68622 0
M  V30 563 C 50.5404 -3.17596 -1.23878 0
M  V30 564 H 51.7334 -2.94722 0.554899 0
M  V30 565 H 49.2864 -1.52863 0.325976 0
M  V30 566 H 50.0214 -2.56214 -1.98808 0
M  V30 567 H 49.8064 -3.846 -0.763219 0
M  V30 568 H 51.2964 -3.79078 -1.75185 0
M  V30 569 N 51.7335 -0.305618 -1.54608 0
M  V30 570 C 52.9585 0.307562 -2.05107 0
M  V30 571 C 53.3835 1.46385 -1.18123 0
M  V30 572 O 52.7415 1.8034 -0.186324 0
M  V30 573 C 52.7895 0.73704 -3.52987 0
M  V30 574 O 51.8935 1.84134 -3.6901 0
M  V30 575 H 51.2345 0.0589143 -0.661381 0
M  V30 576 H 53.7645 -0.448807 -1.99617 0
M  V30 577 H 53.7745 1.02459 -3.94925 0
M  V30 578 H 52.4495 -0.108773 -4.15758 0
M  V30 579 H 51.0265 1.55398 -3.38978 0
M  V30 580 N 53.2116 1.57565 -0.0334293 0
M  V30 581 C 54.1746 2.09393 0.932048 0
M  V30 582 C 55.1746 1.00986 1.25134 0
M  V30 583 O 56.3646 1.27129 1.19096 0
M  V30 584 C 53.4966 2.56338 2.2473 0
M  V30 585 H 54.6896 2.95984 0.483085 0
M  V30 586 H 52.2426 1.54819 0.21468 0
M  V30 587 H 52.9776 1.7309 2.74245 0
M  V30 588 H 52.7626 3.35542 2.02865 0
M  V30 589 H 54.2526 2.96646 2.93923 0
M  V30 590 N 54.6897 -0.239769 1.55765 0
M  V30 591 C 55.6397 -1.30002 1.87306 0
M  V30 592 C 56.6237 -1.43156 0.73452 0
M  V30 593 O 57.8157 -1.46277 0.99659 0
M  V30 594 C 54.9447 -2.65409 2.17745 0
M  V30 595 C 54.0307 -2.56231 3.37945 0
M  V30 596 N 54.4217 -2.16689 4.57033 0
M  V30 597 C 52.7197 -2.87229 3.41197 0
M  V30 598 C 53.4207 -2.18318 5.39177 0
M  V30 599 N 52.3967 -2.58098 4.78421 0
M  V30 600 H 56.1987 -0.984912 2.76906 0
M  V30 601 H 53.7127 -0.448381 1.56087 0
M  V30 602 H 55.7097 -3.41934 2.38509 0
M  V30 603 H 54.3697 -2.97781 1.29448 0
M  V30 604 H 55.3807 -1.88116 4.82528 0
M  V30 605 H 52.0577 -3.24094 2.63191 0
M  V30 606 H 53.4477 -1.90025 6.44469 0
M  V30 607 N 56.1678 -1.49265 -0.50573 0
M  V30 608 C 57.3928 -1.62478 -1.28902 0
M  V30 609 C 57.8178 -0.294332 -1.85783 0
M  V30 610 O 57.1758 0.737412 -1.65626 0
M  V30 611 C 57.2238 -2.69268 -2.39848 0
M  V30 612 O 56.3278 -2.28113 -3.43567 0
M  V30 613 H 55.6688 -0.54399 -0.380751 0
M  V30 614 H 58.1988 -1.95421 -0.605952 0
M  V30 615 H 58.2088 -2.91291 -2.85681 0
M  V30 616 H 56.8838 -3.65846 -1.97812 0
M  V30 617 H 55.4608 -2.16401 -3.03685 0
M  V30 618 N 57.6459 0.756429 -1.3826 0
M  V30 619 C 58.8949 1.51082 -1.3363 0
M  V30 620 C 59.2079 1.95467 0.0720068 0
M  V30 621 O 60.4139 2.7043 0.240834 0
M  V30 622 C 58.8699 2.72893 -2.34644 0
M  V30 623 C 58.4779 2.35544 -3.81081 0
M  V30 624 C 60.2219 3.50791 -2.39052 0
M  V30 625 C 58.1289 3.53948 -4.73787 0
M  V30 626 H 57.0589 0.56727 -0.49671 0
M  V30 627 H 59.7099 0.827147 -1.638 0
M  V30 628 H 58.0919 3.43227 -1.97513 0
M  V30 629 H 59.2659 1.72894 -4.27135 0
M  V30 630 H 57.5809 1.70786 -3.79764 0
M  V30 631 H 60.1779 4.38823 -3.05513 0
M  V30 632 H 60.5209 3.91745 -1.40861 0
M  V30 633 H 61.0539 2.87467 -2.74968 0
M  V30 634 H 57.7929 3.18064 -5.73163 0
M  V30 635 H 57.3129 4.15651 -4.32428 0
M  V30 636 H 58.9919 4.20566 -4.91663 0
M  V30 637 N 59.124 1.23083 0.984299 0
M  V30 638 C 60.37 1.06214 1.72761 0
M  V30 639 C 60.703 -0.400584 1.90024 0
M  V30 640 O 59.978 -1.29672 1.44967 0
M  V30 641 C 60.261 1.78375 3.12817 0
M  V30 642 C 60.114 3.32296 3.03149 0
M  V30 643 C 61.433 1.54309 4.12161 0
M  V30 644 H 58.552 0.387251 0.627061 0
M  V30 645 H 61.194 1.51536 1.14616 0
M  V30 646 H 59.344 1.39848 3.62457 0
M  V30 647 H 61.016 3.8032 2.61064 0
M  V30 648 H 59.259 3.6153 2.39747 0
M  V30 649 H 59.93 3.77972 4.02295 0
M  V30 650 H 62.406 1.87791 3.71314 0
M  V30 651 H 61.282 2.07281 5.08258 0
M  V30 652 H 61.543 0.477572 4.39513 0
M  V30 653 N 60.6021 -1.18246 1.0419 0
M  V30 654 C 61.5121 -2.25574 0.644476 0
M  V30 655 C 62.5281 -1.70845 -0.329826 0
M  V30 656 O 63.7041 -2.00554 -0.184443 0
M  V30 657 C 60.7691 -3.46697 0.014877 0
M  V30 658 C 59.8301 -4.16554 1.03834 0
M  V30 659 C 59.0631 -5.31894 0.438692 0
M  V30 660 O 59.2861 -5.65385 -0.754752 0
M  V30 661 O 58.2201 -5.90459 1.168 0
M  V30 662 H 62.0461 -2.61836 1.53869 0
M  V30 663 H 59.6311 -1.25352 0.812854 0
M  V30 664 H 61.5131 -4.20062 -0.335538 0
M  V30 665 H 60.1881 -3.12255 -0.853138 0
M  V30 666 H 59.0951 -3.45251 1.44057 0
M  V30 667 H 60.4281 -4.54998 1.87716 0
M  V30 668 N 62.0802 -0.821533 -1.34494 0
M  V30 669 C 63.3202 -0.414785 -2.00147 0
M  V30 670 C 63.6842 1.00299 -1.6372 0
M  V30 671 O 64.8852 1.51255 -2.22206 0
M  V30 672 C 63.1562 -0.609403 -3.52166 0
M  V30 673 S 64.7152 -0.295297 -4.37805 0
M  V30 674 H 61.5332 -0.15679 -0.693497 0
M  V30 675 H 64.1352 -1.06705 -1.63812 0
M  V30 676 H 62.8392 -1.64096 -3.76166 0
M  V30 677 H 62.3702 0.0576414 -3.93358 0
M  V30 678 H 64.3852 0.891531 -4.88125 0
M  V30 679 N 63.5583 1.46682 -0.576371 0
M  V30 680 C 64.8353 1.95599 0.00703437 0
M  V30 681 C 65.2153 1.51904 1.46589 0
M  V30 682 O 64.5633 0.766755 2.15251 0
M  V30 683 C 64.7733 3.4864 -0.158404 0
M  V30 684 C 66.1213 4.24594 -0.0229439 0
M  V30 685 O 67.1453 3.56094 -0.0869173 0
M  V30 686 O 66.0043 5.46373 0.118015 0
M  V30 687 H 63.0983 0.825275 0.053384 0
M  V30 688 H 65.6443 1.56996 -0.644244 0
M  V30 689 H 64.4163 3.7331 -1.17282 0
M  V30 690 H 64.0393 3.94057 0.5296 0
M  V30 691 N 65.0364 0.313813 1.54444 0
M  V30 692 C 66.4474 -0.176243 1.85866 0
M  V30 693 C 66.7984 -1.52405 1.23561 0
M  V30 694 O 65.9234 -2.09605 0.538016 0
M  V30 695 C 66.5184 -0.32657 3.37222 0
M  V30 696 C 65.0774 -0.760846 3.6863 0
M  V30 697 C 64.2244 0.123247 2.77026 0
M  V30 698 H 67.1754 0.534418 1.49431 0
M  V30 699 H 67.1964 -1.15908 3.62416 0
M  V30 700 H 66.7084 0.654531 3.82541 0
M  V30 701 H 64.8094 -1.75204 3.28838 0
M  V30 702 H 64.9224 -0.571353 4.75681 0
M  V30 703 H 63.2864 -0.399597 2.51546 0
M  V30 704 H 64.0694 1.10094 3.25168 0
M  V30 705 N 66.5145 -1.57545 0.0417849 0
M  V30 706 C 67.7605 -1.92601 -0.635021 0
M  V30 707 C 68.0935 -0.919627 -1.71045 0
M  V30 708 O 67.3685 0.0557892 -1.9442 0
M  V30 709 C 67.6515 -3.38085 -1.23979 0
M  V30 710 C 67.5045 -4.49467 -0.173057 0
M  V30 711 C 68.8235 -3.83776 -2.15416 0
M  V30 712 H 65.9425 -0.700397 -0.229374 0
M  V30 713 H 68.5845 -1.89728 0.101633 0
M  V30 714 H 66.7345 -3.40664 -1.86762 0
M  V30 715 H 68.4065 -4.59018 0.458312 0
M  V30 716 H 66.6495 -4.30909 0.499996 0
M  V30 717 H 67.3205 -5.48323 -0.636054 0
M  V30 718 H 69.7965 -3.83013 -1.62605 0
M  V30 719 H 68.6725 -4.8624 -2.54679 0
M  V30 720 H 68.9335 -3.19998 -3.05047 0
M  V30 721 N 67.9926 0.231505 -1.5589 0
M  V30 722 C 69.4086 0.580748 -1.48659 0
M  V30 723 C 69.6086 1.87617 -0.73498 0
M  V30 724 O 68.6646 2.51046 -0.270586 0
M  V30 725 C 69.9776 0.669202 -2.93159 0
M  V30 726 C 71.5256 0.760499 -3.03621 0
M  V30 727 C 72.0006 0.880383 -4.49459 0
M  V30 728 N 73.4916 0.944861 -4.53461 0
M  V30 729 C 74.2266 1.05716 -5.63571 0
M  V30 730 N 73.7226 1.13403 -6.83456 0
M  V30 731 N 75.5156 1.09152 -5.514 0
M  V30 732 H 67.6666 -0.618695 -2.03189 0
M  V30 733 H 69.9296 -0.215728 -0.923128 0
M  V30 734 H 69.6356 -0.212904 -3.51055 0
M  V30 735 H 69.5096 1.5361 -3.44505 0
M  V30 736 H 71.8966 1.63305 -2.45796 0
M  V30 737 H 71.9776 -0.131864 -2.5546 0
M  V30 738 H 71.6216 0.0123284 -5.07899 0
M  V30 739 H 71.5516 1.78802 -4.95316 0
M  V30 740 H 74.0426 0.896176 -3.6712 0
M  V30 741 H 74.3556 1.21921 -7.63122 0
M  V30 742 H 72.7006 1.10333 -6.86186 0
M  V30 743 H 75.8916 1.02805 -4.56671 0
M  V30 744 H 76.0646 1.17558 -6.37247 0
M  V30 745 N 69.4707 1.49531 0.497807 0
M  V30 746 C 70.4177 1.66436 1.59899 0
M  V30 747 C 71.3877 0.505793 1.58212 0
M  V30 748 O 72.5727 0.733202 1.7615 0
M  V30 749 C 69.7127 1.7399 2.98029 0
M  V30 750 C 68.8257 3.01172 3.09708 0
M  V30 751 C 67.9607 2.99686 4.38591 0
M  V30 752 C 66.9997 4.21434 4.43914 0
M  V30 753 N 66.1367 4.1784 5.64229 0
M  V30 754 H 70.9767 2.60459 1.44793 0
M  V30 755 H 68.5137 1.29137 0.704423 0
M  V30 756 H 70.4717 1.76352 3.78095 0
M  V30 757 H 69.1017 0.834301 3.11832 0
M  V30 758 H 68.1537 3.08408 2.22685 0
M  V30 759 H 69.4657 3.91165 3.09502 0
M  V30 760 H 68.6197 3.00628 5.2698 0
M  V30 761 H 67.3587 2.07477 4.41367 0
M  V30 762 H 66.3637 4.20733 3.53926 0
M  V30 763 H 67.5887 5.14839 4.42851 0
M  V30 764 H 65.5347 3.28469 5.67841 0
M  V30 765 H 65.4517 5.01571 5.65652 0
M  V30 766 H 66.7197 4.22889 6.54817 0
M  V30 767 N 70.9488 -0.749086 1.3866 0
M  V30 768 C 71.8588 -1.89358 1.38494 0
M  V30 769 C 72.8748 -1.71708 0.281476 0
M  V30 770 O 74.0508 -1.94554 0.520643 0
M  V30 771 C 71.1158 -3.24782 1.21316 0
M  V30 772 C 70.1768 -3.54926 2.41508 0
M  V30 773 C 69.4098 -4.83888 2.2514 0
M  V30 774 O 69.6328 -5.56592 1.24746 0
M  V30 775 O 68.5668 -5.13612 3.13826 0
M  V30 776 H 72.3928 -1.92452 2.34938 0
M  V30 777 H 69.9778 -0.894981 1.19626 0
M  V30 778 H 71.8598 -4.05739 1.13814 0
M  V30 779 H 70.5348 -3.2249 0.279592 0
M  V30 780 H 69.4418 -2.74112 2.54585 0
M  V30 781 H 70.7748 -3.61983 3.3351 0
M  V30 782 N 72.4269 -1.23603 -0.977757 0
M  V30 783 C 73.6729 -1.07129 -1.72195 0
M  V30 784 C 74.0059 0.390501 -1.90233 0
M  V30 785 O 73.2809 1.28902 -1.45653 0
M  V30 786 C 73.5639 -1.80031 -3.11867 0
M  V30 787 C 73.4169 -3.33899 -3.01383 0
M  V30 788 C 74.7359 -1.56492 -4.11337 0
M  V30 789 H 71.8549 -0.390571 -0.624999 0
M  V30 790 H 74.4969 -1.52142 -1.13811 0
M  V30 791 H 72.6469 -1.41768 -3.6171 0
M  V30 792 H 74.3189 -3.81699 -2.59043 0
M  V30 793 H 72.5619 -3.62796 -2.37827 0
M  V30 794 H 73.2329 -3.801 -4.00285 0
M  V30 795 H 75.7089 -1.89757 -3.70313 0
M  V30 796 H 74.5849 -2.09973 -5.07151 0
M  V30 797 H 74.8459 -0.500874 -4.39254 0
M  V30 798 N 73.905 1.17692 -1.04816 0
M  V30 799 C 75.13 1.92327 -0.776207 0
M  V30 800 C 75.555 1.76082 0.661581 0
M  V30 801 O 74.913 1.076 1.45917 0
M  V30 802 C 74.961 3.41539 -1.15687 0
M  V30 803 O 74.065 4.11402 -0.286775 0
M  V30 804 H 73.406 0.599735 -0.284981 0
M  V30 805 H 75.936 1.49201 -1.4 0
M  V30 806 H 75.946 3.92269 -1.12202 0
M  V30 807 H 74.621 3.52684 -2.20425 0
M  V30 808 H 73.198 3.70939 -0.381903 0
M  V30 809 N 75.3831 0.828654 1.34056 0
M  V30 810 C 76.6291 0.42008 1.98402 0
M  V30 811 C 76.9621 -1.01564 1.65525 0
M  V30 812 O 76.2371 -1.70834 0.929831 0
M  V30 813 C 76.5201 0.62927 3.54559 0
M  V30 814 C 76.3731 2.11152 3.97159 0
M  V30 815 C 77.6921 0.0688756 4.40046 0
M  V30 816 H 74.8111 0.154104 0.720709 0
M  V30 817 H 77.4531 1.04228 1.5886 0
M  V30 818 H 75.6031 0.0996418 3.88372 0
M  V30 819 H 77.2751 2.70522 3.73651 0
M  V30 820 H 75.5181 2.59985 3.47261 0
M  V30 821 H 76.1891 2.20868 5.05887 0
M  V30 822 H 78.6651 0.521458 4.1282 0
M  V30 823 H 77.5411 0.245006 5.48353 0
M  V30 824 H 77.8021 -1.0266 4.30015 0
M  V30 825 N 76.8612 -1.46375 0.584142 0
M  V30 826 C 78.2772 -1.57694 0.245929 0
M  V30 827 C 78.4772 -1.57903 -1.25175 0
M  V30 828 O 77.5332 -1.49676 -2.03355 0
M  V30 829 C 78.8462 -2.87028 0.896402 0
M  V30 830 C 80.3942 -3.00662 0.870127 0
M  V30 831 C 80.8692 -4.32734 1.50017 0
M  V30 832 N 82.3602 -4.39436 1.46458 0
M  V30 833 C 83.0952 -5.40248 1.92144 0
M  V30 834 N 82.5912 -6.47726 2.4581 0
M  V30 835 N 84.3842 -5.31459 1.83052 0
M  V30 836 H 76.5352 -1.44483 1.55687 0
M  V30 837 H 78.7982 -0.689291 0.650831 0
M  V30 838 H 78.5042 -2.9269 1.95002 0
M  V30 839 H 78.3782 -3.75014 0.405486 0
M  V30 840 H 80.7652 -2.94581 -0.174871 0
M  V30 841 H 80.8462 -2.14148 1.39908 0
M  V30 842 H 80.4902 -4.39573 2.54437 0
M  V30 843 H 80.4202 -5.18025 0.946432 0
M  V30 844 H 82.9112 -3.62367 1.07231 0
M  V30 845 H 83.2242 -7.20863 2.78525 0
M  V30 846 H 81.5692 -6.48542 2.49836 0
M  V30 847 H 84.7602 -4.46396 1.40883 0
M  V30 848 H 84.9332 -6.09881 2.18973 0
M  V30 849 N 78.3393 -0.321999 -1.54275 0
M  V30 850 C 79.5673 0.283052 -2.04955 0
M  V30 851 C 79.9823 1.45904 -1.19823 0
M  V30 852 O 79.3393 1.81063 -0.228545 0
M  V30 853 C 79.3903 0.719028 -3.54277 0
M  V30 854 O 79.1113 -0.410175 -4.36176 0
M  V30 855 C 80.6123 1.38705 -4.21041 0
M  V30 856 H 77.8323 0.0584616 -0.668448 0
M  V30 857 H 80.3763 -0.467734 -1.99079 0
M  V30 858 H 78.5313 1.41979 -3.60445 0
M  V30 859 H 78.9453 -0.0669416 -5.24457 0
M  V30 860 H 80.4193 1.64306 -5.2698 0
M  V30 861 H 80.8963 2.33385 -3.72059 0
M  V30 862 H 81.5023 0.728906 -4.19007 0
M  V30 863 N 79.8174 1.5752 -0.0501392 0
M  V30 864 C 81.0654 1.9227 0.622642 0
M  V30 865 C 81.3864 0.929083 1.71444 0
M  V30 866 O 80.6564 -0.0262186 1.95882 0
M  V30 867 H 79.2364 0.709739 0.232981 0
M  V30 868 H 81.8984 1.94628 -0.102898 0
M  V30 869 H 80.9944 2.93479 1.06191 0
M  V30 870 N 81.2955 -0.223234 1.56011 0
M  V30 871 C 82.5435 -0.946003 1.78592 0
M  V30 872 C 82.8645 -1.84936 0.618349 0
M  V30 873 O 82.1345 -1.92473 -0.364833 0
M  V30 874 H 80.7145 -0.352298 0.658707 0
M  V30 875 H 83.3765 -0.235494 1.93472 0
M  V30 876 H 82.4725 -1.55381 2.70672 0
M  V30 877 N 82.7736 -1.49793 -0.48987 0
M  V30 878 C 83.7036 -1.70201 -1.59856 0
M  V30 879 C 84.6846 -0.55076 -1.60937 0
M  V30 880 O 85.8696 -0.787841 -1.77501 0
M  V30 881 C 82.9996 -1.77882 -2.98287 0
M  V30 882 C 81.9536 -2.92907 -3.12073 0
M  V30 883 C 81.2796 -2.85712 -4.51965 0
M  V30 884 C 82.5796 -4.3369 -2.91051 0
M  V30 885 H 84.2736 -2.63025 -1.43032 0
M  V30 886 H 81.8196 -1.26574 -0.686664 0
M  V30 887 H 83.7726 -1.90744 -3.75759 0
M  V30 888 H 82.4966 -0.816653 -3.16225 0
M  V30 889 H 81.1556 -2.79665 -2.37029 0
M  V30 890 H 80.8036 -1.8738 -4.66795 0
M  V30 891 H 80.5036 -3.62921 -4.62128 0
M  V30 892 H 82.0276 -3.00598 -5.31482 0
M  V30 893 H 83.4416 -4.47555 -3.58284 0
M  V30 894 H 81.8386 -5.12205 -3.12675 0
M  V30 895 H 82.9086 -4.47362 -1.87071 0
M  V30 896 N 84.2517 0.741722 -1.39055 0
M  V30 897 C 85.2147 1.83733 -1.37021 0
M  V30 898 C 86.2147 1.58542 -0.268534 0
M  V30 899 O 87.4047 1.66067 -0.526076 0
M  V30 900 C 84.5367 3.2141 -1.13617 0
M  V30 901 H 85.7297 1.86941 -2.34506 0
M  V30 902 H 83.2827 0.944676 -1.24521 0
M  V30 903 H 84.0177 3.23865 -0.167863 0
M  V30 904 H 83.8027 3.4109 -1.93391 0
M  V30 905 H 85.2927 4.01477 -1.14918 0
M  V30 906 N 85.7298 1.2412 0.971189 0
M  V30 907 C 87.0068 0.986867 1.6888 0
M  V30 908 C 87.3868 -0.491857 2.0529 0
M  V30 909 O 86.7348 -1.46531 1.75331 0
M  V30 910 C 86.9448 1.9063 2.92338 0
M  V30 911 C 88.2928 2.17515 3.64654 0
M  V30 912 O 89.3168 1.88254 3.02388 0
M  V30 913 O 88.1758 2.6719 4.7673 0
M  V30 914 H 85.2698 0.372944 0.738134 0
M  V30 915 H 87.8158 1.35203 1.02559 0
M  V30 916 H 86.5878 2.90552 2.62097 0
M  V30 917 H 86.2108 1.54408 3.66393 0
M  V30 918 N 87.2079 -1.17134 1.05439 0
M  V30 919 C 88.1549 -2.21235 0.657539 0
M  V30 920 C 89.1249 -1.62551 -0.341543 0
M  V30 921 O 90.3099 -1.89379 -0.232393 0
M  V30 922 C 87.4499 -3.45076 0.0410575 0
M  V30 923 C 86.5629 -4.18042 1.08927 0
M  V30 924 C 85.6979 -5.29376 0.439848 0
M  V30 925 C 84.7369 -5.94132 1.4722 0
M  V30 926 N 83.8739 -6.96975 0.846756 0
M  V30 927 H 88.7139 -2.54534 1.54972 0
M  V30 928 H 86.2509 -1.25028 0.775006 0
M  V30 929 H 88.2089 -4.15862 -0.33383 0
M  V30 930 H 86.8389 -3.12353 -0.814568 0
M  V30 931 H 85.8909 -3.45945 1.58196 0
M  V30 932 H 87.2029 -4.62306 1.87282 0
M  V30 933 H 86.3569 -6.06699 0.0115125 0
M  V30 934 H 85.0959 -4.86251 -0.375656 0
M  V30 935 H 84.1009 -5.15538 1.91052 0
M  V30 936 H 85.3259 -6.39337 2.28965 0
M  V30 937 H 83.2719 -6.5598 0.0518075 0
M  V30 938 H 83.1889 -7.39565 1.5678 0
M  V30 939 H 84.4569 -7.78239 0.443277 0
M  V30 940 N 88.686 -0.835752 -1.33615 0
M  V30 941 C 89.911 -0.442389 -2.02627 0
M  V30 942 C 90.336 0.947735 -1.62479 0
M  V30 943 O 89.694 1.61907 -0.815826 0
M  V30 944 C 89.742 -0.567216 -3.56111 0
M  V30 945 O 88.846 0.407799 -4.10379 0
M  V30 946 H 88.187 -0.180278 -0.639059 0
M  V30 947 H 90.717 -1.12972 -1.70583 0
M  V30 948 H 90.727 -0.447708 -4.05536 0
M  V30 949 H 89.402 -1.58103 -3.84677 0
M  V30 950 H 87.979 0.246107 -3.72087 0
M  V30 951 N 90.1641 1.46063 -0.591896 0
M  V30 952 C 91.3891 2.07226 -0.0850314 0
M  V30 953 C 91.8141 1.43625 1.21463 0
M  V30 954 O 91.1721 0.523305 1.73583 0
M  V30 955 C 91.2201 3.60554 0.0576567 0
M  V30 956 O 90.3241 3.97128 1.11188 0
M  V30 957 H 89.6651 0.660615 -0.0669568 0
M  V30 958 H 92.1951 1.8756 -0.81745 0
M  V30 959 H 92.2051 4.07165 0.2609 0
M  V30 960 H 90.8801 4.06235 -0.891416 0
M  V30 961 H 89.4571 3.62213 0.886356 0
M  V30 962 N 91.6422 0.330177 1.54103 0
M  V30 963 C 93.0582 -0.0222371 1.59585 0
M  V30 964 C 93.2582 -1.49902 1.34654 0
M  V30 965 O 92.3142 -2.25592 1.13421 0
M  V30 966 C 93.6272 0.401932 2.98002 0
M  V30 967 C 95.1752 0.353145 3.11001 0
M  V30 968 C 95.6502 0.752576 4.51775 0
M  V30 969 N 97.1412 0.706239 4.57784 0
M  V30 970 C 97.8762 0.987417 5.64834 0
M  V30 971 N 97.3722 1.33607 6.79795 0
M  V30 972 N 99.1652 0.91254 5.54643 0
M  V30 973 H 91.3162 1.29228 1.68564 0
M  V30 974 H 93.5792 0.525906 0.78875 0
M  V30 975 H 93.2852 1.4311 3.21267 0
M  V30 976 H 93.1592 -0.229699 3.765 0
M  V30 977 H 95.5462 -0.666822 2.87467 0
M  V30 978 H 95.6272 1.0198 2.34593 0
M  V30 979 H 95.2712 1.77049 4.76042 0
M  V30 980 H 95.2012 0.0635409 5.26562 0
M  V30 981 H 97.6922 0.44889 3.75224 0
M  V30 982 H 98.0052 1.53582 7.57385 0
M  V30 983 H 96.3502 1.37439 6.81275 0
M  V30 984 H 99.5412 0.639601 4.6371 0
M  V30 985 H 99.7142 1.13503 6.37982 0
M  V30 986 N 93.1203 -1.57491 0.0584922 0
M  V30 987 C 94.0673 -2.11958 -0.913376 0
M  V30 988 C 95.0373 -1.02875 -1.30407 0
M  V30 989 O 96.2223 -1.30464 -1.39226 0
M  V30 990 C 93.3623 -2.67497 -2.18035 0
M  V30 991 C 92.4753 -3.90691 -1.84349 0
M  V30 992 C 91.6103 -4.3452 -3.05559 0
M  V30 993 C 90.6493 -5.50395 -2.67827 0
M  V30 994 N 89.7863 -5.89244 -3.81754 0
M  V30 995 H 94.6263 -2.94704 -0.442017 0
M  V30 996 H 92.1633 -1.45643 -0.206545 0
M  V30 997 H 94.1213 -2.978 -2.92183 0
M  V30 998 H 92.7513 -1.87537 -2.62735 0
M  V30 999 H 91.8033 -3.66934 -1.00319 0
M  V30 1000 H 93.1153 -4.7489 -1.5258 0
M  V30 1001 H 92.2693 -4.66414 -3.87998 0
M  V30 1002 H 91.0083 -3.49147 -3.40511 0
M  V30 1003 H 90.0133 -5.18165 -1.83806 0
M  V30 1004 H 91.2383 -6.3749 -2.34059 0
M  V30 1005 H 89.1843 -5.06823 -4.16493 0
M  V30 1006 H 89.1013 -6.68151 -3.53708 0
M  V30 1007 H 90.3693 -6.25756 -4.64811 0
M  V30 1008 N 94.5984 0.214957 -1.56127 0
M  V30 1009 C 95.8264 0.955092 -1.83536 0
M  V30 1010 C 96.2414 1.77677 -0.638472 0
M  V30 1011 O 95.5984 1.78219 0.392968 0
M  V30 1012 C 95.6494 1.86734 -3.09536 0
M  V30 1013 O 95.3704 1.07887 -4.24608 0
M  V30 1014 C 96.8714 2.72082 -3.4998 0
M  V30 1015 H 94.0914 0.279611 -0.609966 0
M  V30 1016 H 96.6354 0.228197 -2.03223 0
M  V30 1017 H 94.7904 2.5481 -2.91806 0
M  V30 1018 H 95.2044 1.69872 -4.9623 0
M  V30 1019 H 96.6784 3.31782 -4.41163 0
M  V30 1020 H 97.1554 3.44806 -2.7204 0
M  V30 1021 H 97.7614 2.09409 -3.70173 0
M  V30 1022 N 96.0765 1.50051 0.48192 0
M  V30 1023 C 97.3065 1.63999 1.2565 0
M  V30 1024 C 97.7145 0.318288 1.86504 0
M  V30 1025 O 97.0575 -0.708534 1.69486 0
M  V30 1026 C 97.1195 2.66504 2.4128 0
M  V30 1027 C 96.7835 4.10352 2.01148 0
M  V30 1028 C 97.7805 4.96562 1.54021 0
M  V30 1029 C 95.4655 4.56203 2.10199 0
M  V30 1030 C 97.4595 6.26668 1.16473 0
M  V30 1031 C 95.1465 5.86318 1.72264 0
M  V30 1032 C 96.1445 6.71375 1.25477 0
M  V30 1033 O 95.8325 7.99062 0.880626 0
M  V30 1034 H 95.5645 0.55456 0.386574 0
M  V30 1035 H 98.1185 1.96954 0.582944 0
M  V30 1036 H 96.3485 2.28769 3.11772 0
M  V30 1037 H 98.0375 2.69783 3.03268 0
M  V30 1038 H 98.8035 4.62358 1.46458 0
M  V30 1039 H 94.6825 3.90152 2.45566 0
M  V30 1040 H 98.2265 6.93011 0.798841 0
M  V30 1041 H 94.1235 6.20046 1.79482 0
M  V30 1042 H 94.8915 8.12239 1.01043 0
M  V30 1043 N 97.5546 -0.734337 1.39446 0
M  V30 1044 C 98.7826 -1.52358 1.39981 0
M  V30 1045 C 99.1976 -1.88799 -0.0054975 0
M  V30 1046 O 98.5546 -1.54146 -0.976998 0
M  V30 1047 C 98.6056 -2.81072 2.27333 0
M  V30 1048 O 98.3266 -2.46178 3.62392 0
M  V30 1049 C 99.8276 -3.75096 2.36259 0
M  V30 1050 H 97.0476 -0.470806 0.478103 0
M  V30 1051 H 99.5916 -0.907339 1.83269 0
M  V30 1052 H 97.7466 -3.39026 1.87457 0
M  V30 1053 H 98.1606 -3.28866 4.08592 0
M  V30 1054 H 99.6346 -4.62305 3.01626 0
M  V30 1055 H 100.112 -4.16892 1.38194 0
M  V30 1056 H 100.718 -3.23061 2.76608 0
M  V30 1057 N 99.0327 -1.24633 -0.964593 0
M  V30 1058 C 100.28 -1.08788 -1.70796 0
M  V30 1059 C 100.608 0.372783 -1.90894 0
M  V30 1060 O 99.8627 1.29167 -1.47018 0
M  V30 1061 C 100.162 -1.7763 -3.10133 0
M  V30 1062 C 99.8277 -3.27557 -3.09866 0
M  V30 1063 C 98.4897 -3.6846 -3.09501 0
M  V30 1064 C 100.842 -4.23389 -3.03959 0
M  V30 1065 C 98.1697 -5.03624 -3.00965 0
M  V30 1066 C 100.522 -5.58565 -2.96965 0
M  V30 1067 C 99.1857 -5.98809 -2.9493 0
M  V30 1068 H 98.4557 -0.398084 -0.624988 0
M  V30 1069 H 101.103 -1.54777 -1.12767 0
M  V30 1070 H 99.4077 -1.24044 -3.71645 0
M  V30 1071 H 101.105 -1.62832 -3.66451 0
M  V30 1072 H 97.6947 -2.95006 -3.10917 0
M  V30 1073 H 101.879 -3.92787 -3.03368 0
M  V30 1074 H 97.1347 -5.33998 -2.97752 0
M  V30 1075 H 101.309 -6.32523 -2.91354 0
M  V30 1076 H 98.9357 -7.03505 -2.88071 0
M  V30 1077 N 100.511 1.16574 -1.06058 0
M  V30 1078 C 101.788 1.83048 -0.689416 0
M  V30 1079 C 102.168 1.94122 0.829443 0
M  V30 1080 O 101.516 1.48249 1.7388 0
M  V30 1081 C 101.726 3.20186 -1.38859 0
M  V30 1082 C 103.074 3.95989 -1.53226 0
M  V30 1083 O 104.098 3.29696 -1.3483 0
M  V30 1084 O 102.957 5.14813 -1.83384 0
M  V30 1085 H 100.051 0.790258 -0.243764 0
M  V30 1086 H 102.597 1.23797 -1.16071 0
M  V30 1087 H 101.369 3.07146 -2.4244 0
M  V30 1088 H 100.992 3.87112 -0.907216 0
M  V30 1089 N 101.989 0.842826 1.3317 0
M  V30 1090 C 102.922 0.223862 2.27099 0
M  V30 1091 C 103.9 -0.631311 1.49844 0
M  V30 1092 O 105.084 -0.590708 1.79005 0
M  V30 1093 C 102.211 -0.685313 3.31694 0
M  V30 1094 C 101.257 0.094919 4.26394 0
M  V30 1095 S 102.09 1.45546 5.15341 0
M  V30 1096 C 103.246 0.551685 6.23464 0
M  V30 1097 H 103.479 1.02015 2.79249 0
M  V30 1098 H 101.012 0.639797 1.4052 0
M  V30 1099 H 102.97 -1.20426 3.92438 0
M  V30 1100 H 101.631 -1.4553 2.78352 0
M  V30 1101 H 100.824 -0.597059 5.00451 0
M  V30 1102 H 100.426 0.545054 3.70007 0
M  V30 1103 H 102.718 -0.248877 6.77043 0
M  V30 1104 H 103.661 1.26253 6.96754 0
M  V30 1105 H 104.069 0.131275 5.64347 0
M  V30 1106 N 103.467 -1.45747 0.599634 0
M  V30 1107 C 104.713 -2.02592 0.0918643 0
M  V30 1108 C 105.046 -1.46806 -1.27128 0
M  V30 1109 O 104.321 -0.639658 -1.83681 0
M  V30 1110 C 104.604 -3.60073 0.0443398 0
M  V30 1111 C 104.457 -4.26208 1.43759 0
M  V30 1112 C 105.776 -4.35309 -0.647608 0
M  V30 1113 H 102.895 -0.736175 0.034857 0
M  V30 1114 H 105.537 -1.73694 0.770081 0
M  V30 1115 H 103.687 -3.84823 -0.533224 0
M  V30 1116 H 105.359 -4.12668 2.06162 0
M  V30 1117 H 103.602 -3.84916 2.00056 0
M  V30 1118 H 104.273 -5.35069 1.35665 0
M  V30 1119 H 106.749 -4.15805 -0.156776 0
M  V30 1120 H 105.625 -5.45038 -0.649942 0
M  V30 1121 H 105.886 -4.07598 -1.71219 0
M  V30 1122 N 104.945 -0.338344 -1.53925 0
M  V30 1123 C 106.192 0.259758 -2.00827 0
M  V30 1124 C 106.52 1.50973 -1.22628 0
M  V30 1125 O 105.775 1.93379 -0.300509 0
M  V30 1126 C 106.074 0.62448 -3.51902 0
M  V30 1127 C 105.74 -0.528006 -4.47798 0
M  V30 1128 C 104.402 -0.844298 -4.73735 0
M  V30 1129 C 106.754 -1.30143 -5.0469 0
M  V30 1130 C 104.082 -1.93648 -5.53821 0
M  V30 1131 C 106.434 -2.38382 -5.85967 0
M  V30 1132 C 105.098 -2.70576 -6.10201 0
M  V30 1133 H 104.368 0.0950523 -0.734878 0
M  V30 1134 H 107.015 -0.465182 -1.85764 0
M  V30 1135 H 105.32 1.43006 -3.64769 0
M  V30 1136 H 107.017 1.09905 -3.85645 0
M  V30 1137 H 103.607 -0.271421 -4.2774 0
M  V30 1138 H 107.791 -1.07033 -4.84621 0
M  V30 1139 H 103.047 -2.19021 -5.70824 0
M  V30 1140 H 107.221 -2.98746 -6.29066 0
M  V30 1141 H 104.848 -3.55333 -6.72044 0
M  V30 1142 N 106.423 1.57458 -0.0668435 0
M  V30 1143 C 107.671 1.92919 0.602214 0
M  V30 1144 C 107.992 0.947215 1.70449 0
M  V30 1145 O 107.262 -0.00544117 1.95899 0
M  V30 1146 H 105.842 0.71217 0.22544 0
M  V30 1147 H 108.504 1.94508 -0.123535 0
M  V30 1148 H 107.6 2.94589 1.03073 0
M  V30 1149 N 107.901 -0.206675 1.56239 0
M  V30 1150 C 108.864 -1.23976 1.92776 0
M  V30 1151 C 109.864 -1.39041 0.807729 0
M  V30 1152 O 111.054 -1.37051 1.0753 0
M  V30 1153 C 108.186 -2.61112 2.19165 0
M  V30 1154 H 109.379 -0.927764 2.85189 0
M  V30 1155 H 106.932 -0.447718 1.4975 0
M  V30 1156 H 107.667 -2.97386 1.29352 0
M  V30 1157 H 107.452 -2.51552 3.00772 0
M  V30 1158 H 108.942 -3.35633 2.48476 0
M  V30 1159 N 109.379 -1.50304 -0.473955 0
M  V30 1160 C 110.604 -1.65175 -1.25427 0
M  V30 1161 C 111.029 -0.333673 -1.85117 0
M  V30 1162 O 110.387 0.702114 -1.67153 0
M  V30 1163 C 110.435 -2.74295 -2.34082 0
M  V30 1164 O 109.539 -2.35349 -3.38651 0
M  V30 1165 H 108.88 -0.551944 -0.369126 0
M  V30 1166 H 111.41 -1.96662 -0.564364 0
M  V30 1167 H 111.42 -2.97285 -2.79438 0
M  V30 1168 H 110.095 -3.69959 -1.90008 0
M  V30 1169 H 108.672 -2.22794 -2.99027 0
M  V30 1170 N 110.857 0.726932 -1.39834 0
M  V30 1171 C 112.085 1.51613 -1.40787 0
M  V30 1172 C 112.5 1.88799 -0.00451505 0
M  V30 1173 O 111.857 1.54662 0.968809 0
M  V30 1174 C 111.908 2.79863 -2.28821 0
M  V30 1175 O 111.629 2.44253 -3.63692 0
M  V30 1176 C 113.13 3.73837 -2.38245 0
M  V30 1177 H 110.35 0.468264 -0.480593 0
M  V30 1178 H 112.894 0.897607 -1.83748 0
M  V30 1179 H 111.049 3.38027 -1.89252 0
M  V30 1180 H 111.463 3.26695 -4.1033 0
M  V30 1181 H 112.937 4.60699 -3.04073 0
M  V30 1182 H 113.414 4.16153 -1.40403 0
M  V30 1183 H 114.02 3.21589 -2.78317 0
M  V30 1184 N 112.336 1.25143 0.95797 0
M  V30 1185 C 113.283 1.05235 2.05412 0
M  V30 1186 C 114.253 -0.0374561 1.66058 0
M  V30 1187 O 115.438 0.119073 1.90428 0
M  V30 1188 C 112.578 0.673589 3.38462 0
M  V30 1189 C 111.691 1.8379 3.90954 0
M  V30 1190 C 110.826 1.40381 5.12315 0
M  V30 1191 C 109.865 2.53746 5.57027 0
M  V30 1192 N 109.002 2.11136 6.69601 0
M  V30 1193 H 113.842 1.99048 2.21774 0
M  V30 1194 H 111.379 0.991277 1.08683 0
M  V30 1195 H 113.337 0.434964 4.14926 0
M  V30 1196 H 111.967 -0.227554 3.21997 0
M  V30 1197 H 111.019 2.18992 3.11041 0
M  V30 1198 H 112.331 2.68937 4.20089 0
M  V30 1199 H 111.485 1.12464 5.96185 0
M  V30 1200 H 110.224 0.523015 4.84887 0
M  V30 1201 H 109.229 2.82412 4.71724 0
M  V30 1202 H 110.454 3.42398 5.86464 0
M  V30 1203 H 108.4 1.25468 6.4389 0
M  V30 1204 H 108.317 2.89832 6.98236 0
M  V30 1205 H 109.585 1.86385 7.56889 0
M  V30 1206 N 113.814 -1.1601 1.06675 0
M  V30 1207 C 114.746 -2.20115 0.638921 0
M  V30 1208 C 115.759 -1.59916 -0.305057 0
M  V30 1209 O 116.948 -1.78245 -0.0954446 0
M  V30 1210 C 114.048 -3.38798 -0.0830083 0
M  V30 1211 C 113.221 -4.2855 0.875426 0
M  V30 1212 C 112.28 -5.25849 0.192042 0
M  V30 1213 O 111.306 -5.63102 0.830921 0
M  V30 1214 N 112.508 -5.70648 -1.06493 0
M  V30 1215 H 115.273 -2.57439 1.53444 0
M  V30 1216 H 112.834 -1.31057 0.950557 0
M  V30 1217 H 114.826 -4.00936 -0.550685 0
M  V30 1218 H 113.396 -2.99947 -0.880386 0
M  V30 1219 H 112.616 -3.63617 1.52238 0
M  V30 1220 H 113.904 -4.85393 1.52548 0
M  V30 1221 H 113.302 -5.42482 -1.60405 0
M  V30 1222 H 111.859 -6.34859 -1.47641 0
M  V30 1223 N 115.292 -0.849877 -1.32721 0
M  V30 1224 C 116.541 -0.447175 -1.96681 0
M  V30 1225 C 116.854 1.00135 -1.68025 0
M  V30 1226 O 118.06 1.50926 -2.25685 0
M  V30 1227 C 116.516 -0.7487 -3.52026 0
M  V30 1228 C 116.124 -2.21264 -3.89546 0
M  V30 1229 C 117.868 -0.413487 -4.22481 0
M  V30 1230 C 115.775 -2.45763 -5.37917 0
M  V30 1231 H 114.705 -0.163486 -0.736063 0
M  V30 1232 H 117.356 -1.03999 -1.51183 0
M  V30 1233 H 115.738 -0.0853727 -3.95908 0
M  V30 1234 H 116.912 -2.91736 -3.56689 0
M  V30 1235 H 115.227 -2.5119 -3.32103 0
M  V30 1236 H 117.824 -0.574017 -5.3161 0
M  V30 1237 H 118.167 0.644492 -4.11281 0
M  V30 1238 H 118.7 -1.03251 -3.84167 0
M  V30 1239 H 115.439 -3.50168 -5.54132 0
M  V30 1240 H 114.959 -1.79864 -5.72197 0
M  V30 1241 H 116.638 -2.29471 -6.0494 0
M  V30 1242 N 116.77 1.45427 -0.607355 0
M  V30 1243 C 118.047 1.9557 -0.0344566 0
M  V30 1244 C 118.427 1.54979 1.43334 0
M  V30 1245 O 117.775 0.812241 2.13576 0
M  V30 1246 C 117.985 3.48226 -0.232321 0
M  V30 1247 C 119.333 4.2445 -0.113001 0
M  V30 1248 O 120.357 3.55829 -0.162431 0
M  V30 1249 O 119.216 5.465 0.00209442 0
M  V30 1250 H 116.31 0.826222 0.0358667 0
M  V30 1251 H 118.856 1.55594 -0.6774 0
M  V30 1252 H 117.628 3.70739 -1.25174 0
M  V30 1253 H 117.251 3.95092 0.445896 0
M  V30 1254 N 118.248 0.346503 1.53744 0
M  V30 1255 C 119.494 -0.249473 2.0126 0
M  V30 1256 C 119.827 -1.49965 1.23386 0
M  V30 1257 O 119.102 -1.91811 0.32229 0
M  V30 1258 C 119.385 -0.560643 3.55709 0
M  V30 1259 C 119.238 0.701836 4.44291 0
M  V30 1260 C 120.557 -1.36905 4.18264 0
M  V30 1261 H 117.676 -0.0891987 0.731582 0
M  V30 1262 H 120.318 0.467624 1.84156 0
M  V30 1263 H 118.468 -1.17156 3.70414 0
M  V30 1264 H 120.14 1.33974 4.41417 0
M  V30 1265 H 118.383 1.32612 4.13033 0
M  V30 1266 H 119.054 0.43933 5.50249 0
M  V30 1267 H 121.53 -0.852448 4.07275 0
M  V30 1268 H 120.406 -1.55553 5.26398 0
M  V30 1269 H 120.667 -2.37203 3.73078 0
M  V30 1270 N 119.726 -1.57421 0.075193 0
M  V30 1271 C 120.956 -1.97659 -0.601203 0
M  V30 1272 C 121.364 -0.952427 -1.63479 0
M  V30 1273 O 120.707 0.0688241 -1.83571 0
M  V30 1274 C 120.769 -3.34218 -1.32434 0
M  V30 1275 C 120.433 -4.5484 -0.443826 0
M  V30 1276 C 121.43 -5.19034 0.299969 0
M  V30 1277 C 119.115 -5.00952 -0.367709 0
M  V30 1278 C 121.109 -6.27695 1.10807 0
M  V30 1279 C 118.796 -6.09484 0.444058 0
M  V30 1280 C 119.794 -6.72719 1.18061 0
M  V30 1281 O 119.482 -7.79161 1.97898 0
M  V30 1282 H 119.214 -0.65494 -0.167422 0
M  V30 1283 H 121.768 -2.04886 0.145157 0
M  V30 1284 H 119.998 -3.23615 -2.11685 0
M  V30 1285 H 121.687 -3.59038 -1.89331 0
M  V30 1286 H 122.453 -4.84351 0.250776 0
M  V30 1287 H 118.332 -4.51509 -0.930638 0
M  V30 1288 H 121.876 -6.76982 1.68347 0
M  V30 1289 H 117.773 -6.43601 0.494803 0
M  V30 1290 H 118.541 -7.96055 1.90367 0
M  V30 1291 N 121.204 0.198386 -1.56346 0
M  V30 1292 C 122.62 0.549085 -1.49857 0
M  V30 1293 C 122.82 1.86016 -0.774611 0
M  V30 1294 O 121.876 2.50416 -0.323776 0
M  V30 1295 C 123.189 0.606868 -2.94512 0
M  V30 1296 C 124.737 0.695925 -3.05165 0
M  V30 1297 C 125.212 0.784848 -4.51225 0
M  V30 1298 N 126.703 0.848463 -4.55363 0
M  V30 1299 C 127.438 0.937378 -5.65686 0
M  V30 1300 N 126.934 0.9888 -6.85707 0
M  V30 1301 N 128.727 0.974312 -5.53592 0
M  V30 1302 H 120.878 -0.661655 -2.01831 0
M  V30 1303 H 123.141 -0.235261 -0.918344 0
M  V30 1304 H 122.847 -0.28732 -3.50524 0
M  V30 1305 H 122.721 1.46268 -3.47686 0
M  V30 1306 H 125.108 1.58055 -2.49204 0
M  V30 1307 H 125.189 -0.186022 -2.55123 0
M  V30 1308 H 124.833 -0.0954072 -5.0781 0
M  V30 1309 H 124.763 1.68255 -4.98997 0
M  V30 1310 H 127.254 0.818103 -3.68938 0
M  V30 1311 H 127.567 1.05707 -7.65536 0
M  V30 1312 H 125.912 0.957534 -6.88372 0
M  V30 1313 H 129.103 0.930954 -4.58749 0
M  V30 1314 H 129.276 1.04015 -6.39597 0
M  V30 1315 N 122.682 1.50554 0.465978 0
M  V30 1316 C 123.907 1.65838 1.24549 0
M  V30 1317 C 124.332 0.343486 1.84937 0
M  V30 1318 O 123.69 -0.69324 1.67523 0
M  V30 1319 C 123.738 2.75533 2.32624 0
M  V30 1320 O 122.842 2.37142 3.37398 0
M  V30 1321 H 122.183 0.553893 0.366194 0
M  V30 1322 H 124.713 1.96959 0.553927 0
M  V30 1323 H 124.723 2.98763 2.77857 0
M  V30 1324 H 123.398 3.70962 1.88043 0
M  V30 1325 H 121.975 2.24377 2.97841 0
M  V30 1326 N 124.16 -0.719506 1.40217 0
M  V30 1327 C 125.406 -1.48152 1.38488 0
M  V30 1328 C 125.739 -1.94195 -0.0141867 0
M  V30 1329 O 125.014 -1.67884 -0.982096 0
M  V30 1330 C 125.297 -2.71035 2.37091 0
M  V30 1331 C 125.15 -2.30912 3.86005 0
M  V30 1332 C 126.469 -3.73182 2.33288 0
M  V30 1333 H 123.588 -0.537395 0.504357 0
M  V30 1334 H 126.23 -0.821472 1.71324 0
M  V30 1335 H 124.38 -3.27352 2.0922 0
M  V30 1336 H 126.052 -1.80107 4.24687 0
M  V30 1337 H 124.295 -1.62958 4.02029 0
M  V30 1338 H 124.966 -3.18978 4.50508 0
M  V30 1339 H 127.442 -3.26485 2.57966 0
M  V30 1340 H 126.318 -4.56806 3.04334 0
M  V30 1341 H 126.579 -4.21202 1.34317 0
M  V30 1342 N 125.638 -1.25649 -0.95132 0
M  V30 1343 C 126.884 -1.10757 -1.69884 0
M  V30 1344 C 127.217 0.350061 -1.91019 0
M  V30 1345 O 126.492 1.25783 -1.48354 0
M  V30 1346 C 126.775 -1.86606 -3.07978 0
M  V30 1347 C 126.628 -3.40217 -2.94232 0
M  V30 1348 C 127.947 -1.65182 -4.07925 0
M  V30 1349 H 125.066 -0.40374 -0.616574 0
M  V30 1350 H 127.708 -1.54521 -1.10558 0
M  V30 1351 H 125.858 -1.49409 -3.58621 0
M  V30 1352 H 127.53 -3.87108 -2.50889 0
M  V30 1353 H 125.773 -3.67759 -2.30078 0
M  V30 1354 H 126.444 -3.88505 -3.92133 0
M  V30 1355 H 128.92 -1.9757 -3.66204 0
M  V30 1356 H 127.796 -2.20683 -5.02583 0
M  V30 1357 H 128.057 -0.593933 -4.38092 0
M  V30 1358 N 127.117 1.15442 -1.07289 0
M  V30 1359 C 128.357 1.8788 -0.805012 0
M  V30 1360 C 128.721 1.80413 0.656907 0
M  V30 1361 O 129.922 2.47874 1.0398 0
M  V30 1362 C 128.193 3.3298 -1.29843 0
M  V30 1363 S 129.752 4.23158 -1.16114 0
M  V30 1364 H 126.57 0.64839 -0.291739 0
M  V30 1365 H 129.172 1.39285 -1.37186 0
M  V30 1366 H 127.876 3.35958 -2.35712 0
M  V30 1367 H 127.407 3.86629 -0.726767 0
M  V30 1368 H 129.422 4.96103 -0.0982778 0
M  V30 1369 N 128.595 0.856903 1.32268 0
M  V30 1370 C 130.006 0.515711 1.79436 0
M  V30 1371 C 130.357 -0.966586 1.70738 0
M  V30 1372 O 129.482 -1.75409 1.26731 0
M  V30 1373 C 130.077 0.929335 3.25805 0
M  V30 1374 C 128.636 0.640006 3.70919 0
M  V30 1375 C 127.783 1.12784 2.53328 0
M  V30 1376 H 130.734 1.04389 1.19535 0
M  V30 1377 H 130.755 0.246633 3.797 0
M  V30 1378 H 130.267 2.00821 3.32103 0
M  V30 1379 H 128.368 -0.428051 3.70133 0
M  V30 1380 H 128.481 1.20788 4.63624 0
M  V30 1381 H 126.845 0.548033 2.48734 0
M  V30 1382 H 127.628 2.21387 2.62379 0
M  V30 1383 N 130.073 -1.45103 0.615059 0
M  V30 1384 C 131.322 -2.01396 0.110718 0
M  V30 1385 C 131.635 -1.48834 -1.26916 0
M  V30 1386 O 132.841 -1.97152 -1.86664 0
M  V30 1387 C 131.297 -3.59599 0.14723 0
M  V30 1388 C 130.905 -4.21158 1.52743 0
M  V30 1389 C 132.649 -4.23428 -0.30148 0
M  V30 1390 C 130.556 -5.71535 1.51992 0
M  V30 1391 H 129.486 -0.753061 0.0376241 0
M  V30 1392 H 132.137 -1.66494 0.77149 0
M  V30 1393 H 130.519 -3.91724 -0.580339 0
M  V30 1394 H 131.693 -4.00594 2.2773 0
M  V30 1395 H 130.008 -3.69552 1.91886 0
M  V30 1396 H 132.605 -5.33703 -0.326392 0
M  V30 1397 H 132.948 -3.94629 -1.32565 0
M  V30 1398 H 133.481 -3.96047 0.373065 0
M  V30 1399 H 130.22 -6.05044 2.52193 0
M  V30 1400 H 129.74 -5.94268 0.81274 0
M  V30 1401 H 131.419 -6.34873 1.24681 0
M  V30 1402 N 131.551 -0.354651 -1.53558 0
M  V30 1403 C 132.481 0.489091 -2.2832 0
M  V30 1404 C 133.462 1.09324 -1.30316 0
M  V30 1405 O 134.647 1.11255 -1.59173 0
M  V30 1406 C 131.777 1.63456 -3.0643 0
M  V30 1407 C 130.731 1.1582 -4.12031 0
M  V30 1408 C 130.057 2.39305 -4.7816 0
M  V30 1409 C 131.357 0.250731 -5.21698 0
M  V30 1410 H 133.051 -0.134614 -2.99097 0
M  V30 1411 H 130.597 -0.0661826 -1.43848 0
M  V30 1412 H 132.55 2.23136 -3.57475 0
M  V30 1413 H 131.274 2.28533 -2.33325 0
M  V30 1414 H 129.933 0.584146 -3.61916 0
M  V30 1415 H 129.581 3.02814 -4.01637 0
M  V30 1416 H 129.281 2.08109 -5.49513 0
M  V30 1417 H 130.805 2.99691 -5.31994 0
M  V30 1418 H 132.219 0.754695 -5.68311 0
M  V30 1419 H 130.616 0.0301468 -6.00092 0
M  V30 1420 H 131.686 -0.710125 -4.79672 0
M  V30 1421 N 133.029 1.57378 -0.0835403 0
M  V30 1422 C 134.306 1.85363 0.624507 0
M  V30 1423 C 134.686 0.978239 1.87066 0
M  V30 1424 O 134.034 0.0475908 2.2845 0
M  V30 1425 C 134.244 3.35795 0.950947 0
M  V30 1426 C 135.592 4.03581 1.31939 0
M  V30 1427 O 136.616 3.40609 1.04232 0
M  V30 1428 O 135.475 5.14672 1.83779 0
M  V30 1429 H 132.569 0.766162 0.311329 0
M  V30 1430 H 135.115 1.69307 -0.115362 0
M  V30 1431 H 133.887 3.91244 0.0663899 0
M  V30 1432 H 133.51 3.57154 1.74719 0
M  V30 1433 N 134.507 -0.190092 1.56449 0
M  V30 1434 C 135.417 -1.25591 1.98152 0
M  V30 1435 C 136.433 -1.49519 0.889944 0
M  V30 1436 O 137.609 -1.62036 1.19609 0
M  V30 1437 C 134.674 -2.57916 2.3169 0
M  V30 1438 C 133.735 -2.42015 3.5458 0
M  V30 1439 C 132.968 -3.6803 3.8651 0
M  V30 1440 O 133.191 -4.72413 3.1966 0
M  V30 1441 O 132.125 -3.6326 4.79923 0
M  V30 1442 H 135.951 -0.931988 2.89046 0
M  V30 1443 H 133.536 -0.395488 1.4407 0
M  V30 1444 H 135.418 -3.36008 2.54316 0
M  V30 1445 H 134.093 -2.89925 1.43963 0
M  V30 1446 H 133 -1.62017 3.37196 0
M  V30 1447 H 134.333 -2.14937 4.4279 0
M  V30 1448 N 135.985 -1.50799 -0.457987 0
M  V30 1449 C 137.231 -1.62683 -1.21088 0
M  V30 1450 C 137.564 -0.332268 -1.91336 0
M  V30 1451 O 136.839 0.667043 -1.82704 0
M  V30 1452 C 137.122 -2.81615 -2.24422 0
M  V30 1453 C 136.975 -4.20989 -1.58392 0
M  V30 1454 C 138.294 -2.96085 -3.2561 0
M  V30 1455 H 135.413 -0.592087 -0.438864 0
M  V30 1456 H 138.055 -1.83225 -0.50286 0
M  V30 1457 H 136.205 -2.64231 -2.84806 0
M  V30 1458 H 137.877 -4.49994 -1.01504 0
M  V30 1459 H 136.12 -4.24641 -0.886704 0
M  V30 1460 H 136.791 -5.0016 -2.33547 0
M  V30 1461 H 139.267 -3.12042 -2.75262 0
M  V30 1462 H 138.143 -3.80902 -3.95228 0
M  V30 1463 H 138.404 -2.0726 -3.90507 0
M  V30 1464 N 137.463 0.71206 -1.40597 0
M  V30 1465 C 138.712 1.46754 -1.38369 0
M  V30 1466 C 139.025 1.95598 0.0097839 0
M  V30 1467 O 140.231 2.71059 0.154677 0
M  V30 1468 C 138.687 2.65289 -2.43207 0
M  V30 1469 C 138.295 2.23301 -3.88382 0
M  V30 1470 C 140.039 3.43008 -2.50091 0
M  V30 1471 C 137.946 3.38696 -4.84808 0
M  V30 1472 H 136.876 0.55118 -0.514506 0
M  V30 1473 H 139.527 0.774616 -1.66349 0
M  V30 1474 H 137.909 3.36769 -2.08332 0
M  V30 1475 H 139.083 1.59218 -4.32419 0
M  V30 1476 H 137.398 1.58618 -3.85006 0
M  V30 1477 H 139.995 4.28881 -3.1932 0
M  V30 1478 H 140.338 3.87065 -1.53253 0
M  V30 1479 H 140.871 2.78574 -2.83974 0
M  V30 1480 H 137.61 2.99668 -5.82992 0
M  V30 1481 H 137.13 4.01683 -4.45433 0
M  V30 1482 H 138.809 4.04712 -5.04794 0
M  V30 1483 N 138.941 1.26152 0.944643 0
M  V30 1484 C 139.874 1.01729 2.04271 0
M  V30 1485 C 140.852 -0.0568101 1.62501 0
M  V30 1486 O 142.036 0.0848987 1.88309 0
M  V30 1487 C 139.163 0.539792 3.34371 0
M  V30 1488 C 138.209 1.60593 3.9511 0
M  V30 1489 S 139.042 3.19392 4.29825 0
M  V30 1490 C 140.198 2.73402 5.63029 0
M  V30 1491 H 140.431 1.94703 2.24673 0
M  V30 1492 H 137.964 1.09793 1.08558 0
M  V30 1493 H 139.922 0.270956 4.09605 0
M  V30 1494 H 138.583 -0.369609 3.11918 0
M  V30 1495 H 137.776 1.22275 4.88943 0
M  V30 1496 H 137.378 1.82596 3.26397 0
M  V30 1497 H 139.67 2.1765 6.41588 0
M  V30 1498 H 140.613 3.65913 6.06229 0
M  V30 1499 H 141.021 2.13077 5.22741 0
M  V30 1500 N 140.419 -1.14872 1.07899 0
M  V30 1501 C 141.667 -1.85422 0.803941 0
M  V30 1502 C 141.988 -1.83051 -0.67211 0
M  V30 1503 O 141.258 -1.27532 -1.48703 0
M  V30 1504 H 139.838 -0.686537 0.294408 0
M  V30 1505 H 142.5 -1.39226 1.3639 0
M  V30 1506 H 141.596 -2.90399 1.14346 0
M  V30 1507 N 141.898 -0.863906 -1.31812 0
M  V30 1508 C 143.128 -0.485406 -2.00817 0
M  V30 1509 C 143.536 0.925007 -1.65046 0
M  V30 1510 O 142.879 1.61653 -0.872574 0
M  V30 1511 C 142.941 -0.555589 -3.55181 0
M  V30 1512 C 142.605 -1.92654 -4.14407 0
M  V30 1513 C 143.602 -2.89324 -4.31958 0
M  V30 1514 C 141.287 -2.2262 -4.50273 0
M  V30 1515 C 143.281 -4.14108 -4.84555 0
M  V30 1516 C 140.968 -3.47654 -5.02573 0
M  V30 1517 C 141.966 -4.43214 -5.19664 0
M  V30 1518 O 141.654 -5.66033 -5.70843 0
M  V30 1519 H 141.386 -0.188224 -0.649267 0
M  V30 1520 H 143.94 -1.16514 -1.69156 0
M  V30 1521 H 142.17 0.181037 -3.86276 0
M  V30 1522 H 143.859 -0.19138 -4.05449 0
M  V30 1523 H 144.625 -2.6748 -4.04573 0
M  V30 1524 H 140.504 -1.4902 -4.3625 0
M  V30 1525 H 144.048 -4.88703 -4.9781 0
M  V30 1526 H 139.945 -3.69345 -5.29391 0
M  V30 1527 H 140.713 -5.6812 -5.89222 0
M  V30 1528 N 143.376 1.44774 -0.622745 0
M  V30 1529 C 144.324 2.32387 0.0994683 0
M  V30 1530 C 145.318 1.46859 0.844326 0
M  V30 1531 O 146.524 1.63254 0.758174 0
M  V30 1532 H 142.899 0.750273 0.0509291 0
M  V30 1533 H 144.87 2.91062 -0.65767 0
M  V30 1534 C 143.619 3.30723 1.07319 0
M  V30 1535 H 142.942 3.96541 0.509462 0
M  V30 1536 H 144.382 3.94725 1.54817 0
M  V30 1537 C 142.841 2.59021 2.15429 0
M  V30 1538 O 143.371 2.38286 3.23393 0
M  V30 1539 N 141.577 2.189 1.91131 0
M  V30 1540 H 141.124 2.35964 1.03337 0
M  V30 1541 H 141.082 1.71251 2.63668 0
M  V30 1542 N 144.854 0.36279 1.53368 0
M  V30 1543 C 146.094 -0.227882 2.03126 0
M  V30 1544 C 146.458 -1.4622 1.24434 0
M  V30 1545 O 147.659 -2.12831 1.64184 0
M  V30 1546 C 145.93 -0.515427 3.53664 0
M  V30 1547 S 147.489 -1.08017 4.25297 0
M  V30 1548 H 144.307 -0.0665377 0.70788 0
M  V30 1549 H 146.909 0.50501 1.88865 0
M  V30 1550 H 145.613 0.390436 4.08539 0
M  V30 1551 H 145.144 -1.27747 3.72081 0
M  V30 1552 H 147.159 -2.36462 4.36234 0
M  V30 1553 N 146.332 -1.57332 0.0918853 0
M  V30 1554 C 147.56 -1.98574 -0.581048 0
M  V30 1555 C 147.975 -0.970903 -1.61923 0
M  V30 1556 O 147.332 0.0399054 -1.82456 0
M  V30 1557 C 147.383 -3.39872 -1.23164 0
M  V30 1558 O 147.104 -4.37469 -0.234989 0
M  V30 1559 C 148.605 -3.96099 -1.99049 0
M  V30 1560 H 145.825 -0.65261 -0.156018 0
M  V30 1561 H 148.369 -2.0379 0.170225 0
M  V30 1562 H 146.524 -3.35679 -1.93386 0
M  V30 1563 H 146.938 -5.19751 -0.70418 0
M  V30 1564 H 148.412 -4.97127 -2.39934 0
M  V30 1565 H 148.889 -3.3374 -2.85507 0
M  V30 1566 H 149.495 -4.03755 -1.3365 0
M  V30 1567 N 147.81 0.181792 -1.56548 0
M  V30 1568 C 149.059 0.898348 -1.8059 0
M  V30 1569 C 149.372 1.83862 -0.667379 0
M  V30 1570 O 150.578 2.59678 -0.792446 0
M  V30 1571 C 149.034 1.64791 -3.19956 0
M  V30 1572 C 148.642 0.751789 -4.41647 0
M  V30 1573 C 150.386 2.35331 -3.53298 0
M  V30 1574 C 148.293 1.50098 -5.72035 0
M  V30 1575 H 147.223 0.339194 -0.673397 0
M  V30 1576 H 149.874 0.151413 -1.82874 0
M  V30 1577 H 148.256 2.43921 -3.11959 0
M  V30 1578 H 149.43 -0.0018076 -4.608 0
M  V30 1579 H 147.745 0.156562 -4.16106 0
M  V30 1580 H 150.342 2.91958 -4.47956 0
M  V30 1581 H 150.685 3.10164 -2.77676 0
M  V30 1582 H 151.218 1.63154 -3.62803 0
M  V30 1583 H 147.957 0.795175 -6.50659 0
M  V30 1584 H 147.477 2.22817 -5.56878 0
M  V30 1585 H 149.156 2.05125 -6.13622 0
M  V30 1586 N 149.288 1.51039 0.449983 0
M  V30 1587 C 150.535 1.63081 1.20045 0
M  V30 1588 C 150.863 0.341024 1.91487 0
M  V30 1589 O 150.118 -0.674276 1.83717 0
M  V30 1590 C 150.417 2.77556 2.25161 0
M  V30 1591 C 150.083 4.17289 1.70823 0
M  V30 1592 C 148.745 4.55305 1.55725 0
M  V30 1593 C 151.097 5.04536 1.3074 0
M  V30 1594 C 148.425 5.78287 0.989999 0
M  V30 1595 C 150.777 6.28085 0.754482 0
M  V30 1596 C 149.441 6.64885 0.590308 0
M  V30 1597 H 148.711 0.596755 0.439277 0
M  V30 1598 H 151.358 1.85037 0.49333 0
M  V30 1599 H 149.663 2.49771 3.01863 0
M  V30 1600 H 151.36 2.84073 2.83026 0
M  V30 1601 H 147.95 3.8731 1.83546 0
M  V30 1602 H 152.134 4.75782 1.41229 0
M  V30 1603 H 147.39 6.05456 0.850451 0
M  V30 1604 H 151.564 6.95038 0.435324 0
M  V30 1605 H 149.191 7.60055 0.14862 0
M  V30 1606 N 150.766 -0.704594 1.40972 0
M  V30 1607 C 151.729 -1.80035 1.41845 0
M  V30 1608 C 152.729 -1.57774 0.310474 0
M  V30 1609 O 153.919 -1.64613 0.56992 0
M  V30 1610 C 151.051 -3.18284 1.22098 0
M  V30 1611 H 152.244 -1.80658 2.3938 0
M  V30 1612 H 149.797 -0.911329 1.26982 0
M  V30 1613 H 150.532 -3.23306 0.253672 0
M  V30 1614 H 150.317 -3.35843 2.02366 0
M  V30 1615 H 151.807 -3.98289 1.25522 0
M  V30 1616 N 152.244 -1.26651 -0.937939 0
M  V30 1617 C 153.474 -1.15006 -1.71631 0
M  V30 1618 C 153.882 0.297026 -1.86854 0
M  V30 1619 O 153.225 1.21493 -1.37786 0
M  V30 1620 C 153.287 -1.74984 -3.14039 0
M  V30 1621 C 152.951 -3.24103 -3.2219 0
M  V30 1622 C 153.948 -4.20877 -3.05219 0
M  V30 1623 C 151.633 -3.64625 -3.45476 0
M  V30 1624 C 153.627 -5.56151 -3.11408 0
M  V30 1625 C 151.314 -5.00032 -3.513 0
M  V30 1626 C 152.312 -5.95604 -3.34282 0
M  V30 1627 O 152 -7.28545 -3.3982 0
M  V30 1628 H 151.732 -0.401183 -0.544085 0
M  V30 1629 H 154.286 -1.67832 -1.18413 0
M  V30 1630 H 152.516 -1.16624 -3.68695 0
M  V30 1631 H 154.205 -1.58199 -3.73802 0
M  V30 1632 H 154.971 -3.90908 -2.87081 0
M  V30 1633 H 150.85 -2.90718 -3.57777 0
M  V30 1634 H 154.394 -6.30727 -2.98043 0
M  V30 1635 H 150.291 -5.29659 -3.68959 0
M  V30 1636 H 151.059 -7.3686 -3.56343 0
M  V30 1637 N 153.722 1.14298 -1.08507 0
M  V30 1638 C 154.97 1.84993 -0.813763 0
M  V30 1639 C 155.291 1.83405 0.662393 0
M  V30 1640 O 154.561 1.28319 1.48024 0
M  V30 1641 H 153.141 0.684966 -0.298045 0
M  V30 1642 H 155.803 1.385 -1.37126 0
M  V30 1643 H 154.899 2.89788 -1.15884 0
M  V30 1644 N 155.201 0.870884 1.31352 0
M  V30 1645 C 156.133 0.28455 2.27427 0
M  V30 1646 C 157.146 -0.552927 1.53123 0
M  V30 1647 O 158.335 -0.374771 1.74521 0
M  V30 1648 C 155.435 -0.615164 3.3327 0
M  V30 1649 C 154.608 0.190079 4.36987 0
M  V30 1650 C 153.667 -0.637917 5.22319 0
M  V30 1651 O 152.693 -0.065626 5.69162 0
M  V30 1652 N 153.895 -1.94973 5.46778 0
M  V30 1653 H 156.66 1.11017 2.7838 0
M  V30 1654 H 154.221 0.732458 1.44384 0
M  V30 1655 H 156.213 -1.1748 3.87273 0
M  V30 1656 H 154.783 -1.34146 2.82354 0
M  V30 1657 H 154.003 0.931165 3.83044 0
M  V30 1658 H 155.291 0.742579 5.03352 0
M  V30 1659 H 154.689 -2.4378 5.10478 0
M  V30 1660 H 153.246 -2.45713 6.03712 0
M  V30 1661 N 156.679 -1.44442 0.630414 0
M  V30 1662 C 157.907 -2.06414 0.141671 0
M  V30 1663 C 158.322 -1.47105 -1.18345 0
M  V30 1664 O 157.679 -0.593662 -1.72574 0
M  V30 1665 C 157.73 -3.61494 0.0199784 0
M  V30 1666 O 157.451 -4.18594 1.29269 0
M  V30 1667 C 158.952 -4.40499 -0.497544 0
M  V30 1668 H 156.172 -0.666292 0.0793452 0
M  V30 1669 H 158.716 -1.85323 0.864614 0
M  V30 1670 H 156.871 -3.8185 -0.653402 0
M  V30 1671 H 157.285 -5.12026 1.13707 0
M  V30 1672 H 158.759 -5.49433 -0.531708 0
M  V30 1673 H 159.236 -4.11895 -1.52445 0
M  V30 1674 H 159.842 -4.25061 0.142562 0
M  V30 1675 N 158.157 -0.370918 -1.53173 0
M  V30 1676 C 159.405 0.216673 -2.00935 0
M  V30 1677 C 159.726 1.48845 -1.25977 0
M  V30 1678 O 158.996 1.92286 -0.374551 0
M  V30 1679 H 157.576 0.0830565 -0.742368 0
M  V30 1680 H 160.238 -0.49838 -1.8842 0
M  V30 1681 H 159.334 0.439893 -3.08984 0
M  V30 1682 N 159.635 1.57281 -0.100228 0
M  V30 1683 C 160.863 1.98879 0.570509 0
M  V30 1684 C 161.278 0.979476 1.61405 0
M  V30 1685 O 160.635 -0.0302288 1.82475 0
M  V30 1686 C 160.686 3.4052 1.2136 0
M  V30 1687 O 160.407 4.37588 0.211786 0
M  V30 1688 C 161.908 3.97149 1.96945 0
M  V30 1689 H 159.128 0.653428 0.152555 0
M  V30 1690 H 161.672 2.03697 -0.18103 0
M  V30 1691 H 159.827 3.367 1.91603 0
M  V30 1692 H 160.241 5.20118 0.676607 0
M  V30 1693 H 161.715 4.98393 2.37294 0
M  V30 1694 H 162.192 3.3525 2.83733 0
M  V30 1695 H 162.798 4.04458 1.31506 0
M  V30 1696 N 161.113 -0.173488 1.56642 0
M  V30 1697 C 162.361 -0.888706 1.81512 0
M  V30 1698 C 162.682 -1.82875 0.676872 0
M  V30 1699 O 161.952 -1.93536 -0.303414 0
M  V30 1700 H 160.532 -0.331164 0.669582 0
M  V30 1701 H 163.194 -0.173823 1.94123 0
M  V30 1702 H 162.29 -1.46691 2.75478 0
M  V30 1703 N 162.591 -1.51276 -0.441967 0
M  V30 1704 C 163.538 -1.72256 -1.53612 0
M  V30 1705 C 164.508 -0.564164 -1.56225 0
M  V30 1706 O 165.693 -0.798074 -1.73307 0
M  V30 1707 C 162.833 -1.84932 -2.91366 0
M  V30 1708 C 161.946 -3.12459 -2.98317 0
M  V30 1709 C 161.081 -3.15758 -4.27166 0
M  V30 1710 C 160.12 -4.37619 -4.27967 0
M  V30 1711 N 159.257 -4.38493 -5.48333 0
M  V30 1712 H 164.097 -2.65654 -1.35026 0
M  V30 1713 H 161.634 -1.31662 -0.656009 0
M  V30 1714 H 163.592 -1.90263 -3.7129 0
M  V30 1715 H 162.222 -0.949461 -3.08521 0
M  V30 1716 H 161.274 -3.1646 -2.11086 0
M  V30 1717 H 162.586 -4.02382 -2.94771 0
M  V30 1718 H 161.74 -3.19979 -5.15459 0
M  V30 1719 H 160.479 -2.23715 -4.33362 0
M  V30 1720 H 159.484 -4.33579 -3.38067 0
M  V30 1721 H 160.709 -5.30921 -4.23438 0
M  V30 1722 H 158.655 -3.49318 -5.55259 0
M  V30 1723 H 158.572 -5.22219 -5.46647 0
M  V30 1724 H 159.84 -4.469 -6.38671 0
M  V30 1725 N 164.069 0.697108 -1.41344 0
M  V30 1726 C 165.297 1.48593 -1.43972 0
M  V30 1727 C 165.712 1.88747 -0.0445612 0
M  V30 1728 O 165.069 1.56682 0.935785 0
M  V30 1729 C 165.12 2.74946 -2.34706 0
M  V30 1730 O 164.841 2.36484 -3.68791 0
M  V30 1731 C 166.342 3.687 -2.46121 0
M  V30 1732 H 163.562 0.457964 -0.490418 0
M  V30 1733 H 166.106 0.858429 -1.8561 0
M  V30 1734 H 164.261 3.33937 -1.9638 0
M  V30 1735 H 164.675 3.17918 -4.17167 0
M  V30 1736 H 166.149 4.54145 -3.13777 0
M  V30 1737 H 166.626 4.13081 -1.49199 0
M  V30 1738 H 167.232 3.15613 -2.85076 0
M  V30 1739 N 165.547 1.27147 0.931209 0
M  V30 1740 C 166.794 1.13278 1.67852 0
M  V30 1741 C 167.122 -0.32204 1.91815 0
M  V30 1742 O 166.377 -1.25224 1.50391 0
M  V30 1743 C 166.676 1.8579 3.05314 0
M  V30 1744 C 166.342 3.35657 3.01073 0
M  V30 1745 C 165.004 3.76536 2.99623 0
M  V30 1746 C 167.356 4.31299 2.92627 0
M  V30 1747 C 164.684 5.11426 2.87506 0
M  V30 1748 C 167.036 5.66242 2.82051 0
M  V30 1749 C 165.7 6.06418 2.7895 0
M  V30 1750 H 164.97 0.414515 0.614214 0
M  V30 1751 H 167.617 1.57712 1.08624 0
M  V30 1752 H 165.922 1.33854 3.68226 0
M  V30 1753 H 167.619 1.72491 3.62005 0
M  V30 1754 H 164.209 3.03146 3.02986 0
M  V30 1755 H 168.393 4.00692 2.92848 0
M  V30 1756 H 163.649 5.41705 2.83489 0
M  V30 1757 H 167.823 6.40026 2.74481 0
M  V30 1758 H 165.45 7.10895 2.69318 0
M  V30 1759 N 167.025 -1.13721 1.09112 0
M  V30 1760 C 168.253 -1.88773 0.846899 0
M  V30 1761 C 168.668 -1.7896 -0.601572 0
M  V30 1762 O 168.025 -1.15394 -1.41388 0
M  V30 1763 C 168.076 -3.3849 1.26913 0
M  V30 1764 O 167.797 -3.48043 2.66079 0
M  V30 1765 C 169.298 -4.30518 1.05682 0
M  V30 1766 H 166.518 -0.59772 0.304914 0
M  V30 1767 H 169.062 -1.43977 1.45227 0
M  V30 1768 H 167.217 -3.80881 0.707723 0
M  V30 1769 H 167.631 -4.4109 2.83795 0
M  V30 1770 H 169.105 -5.3391 1.40156 0
M  V30 1771 H 169.582 -4.392 -0.00563416 0
M  V30 1772 H 170.188 -3.93893 1.60402 0
M  V30 1773 N 168.503 -0.877838 -1.30888 0
M  V30 1774 C 169.436 -0.283995 -2.26426 0
M  V30 1775 C 170.414 0.591361 -1.51465 0
M  V30 1776 O 171.598 0.54304 -1.80509 0
M  V30 1777 C 168.725 0.597129 -3.33395 0
M  V30 1778 C 167.771 -0.207937 -4.25993 0
M  V30 1779 S 168.604 -1.59158 -5.11301 0
M  V30 1780 C 169.76 -0.716791 -6.21782 0
M  V30 1781 H 169.993 -1.09383 -2.76446 0
M  V30 1782 H 167.526 -0.676828 -1.38775 0
M  V30 1783 H 169.484 1.09978 -3.95493 0
M  V30 1784 H 168.145 1.38099 -2.82113 0
M  V30 1785 H 167.338 0.464163 -5.01858 0
M  V30 1786 H 166.94 -0.642963 -3.68432 0
M  V30 1787 H 169.232 0.0692833 -6.77465 0
M  V30 1788 H 170.175 -1.44682 -6.93161 0
M  V30 1789 H 170.583 -0.280855 -5.63801 0
M  V30 1790 N 169.982 1.44106 -0.638065 0
M  V30 1791 C 170.892 2.34513 0.0637334 0
M  V30 1792 C 171.908 1.53018 0.828346 0
M  V30 1793 O 173.084 1.85723 0.779036 0
M  V30 1794 C 170.149 3.31095 1.02844 0
M  V30 1795 C 169.21 4.28497 0.26244 0
M  V30 1796 C 168.443 5.20465 1.1812 0
M  V30 1797 O 168.666 5.16514 2.42011 0
M  V30 1798 O 167.6 5.98251 0.661774 0
M  V30 1799 H 171.426 2.95989 -0.68003 0
M  V30 1800 H 169.011 1.43994 -0.398252 0
M  V30 1801 H 170.893 3.90526 1.58327 0
M  V30 1802 H 169.568 2.72144 1.7527 0
M  V30 1803 H 168.475 3.72592 -0.335602 0
M  V30 1804 H 169.808 4.90388 -0.421936 0
M  V30 1805 N 171.46 0.379036 1.52974 0
M  V30 1806 C 172.708 -0.206014 2.01047 0
M  V30 1807 C 173.029 -1.48175 1.26765 0
M  V30 1808 O 172.299 -1.92085 0.384743 0
M  V30 1809 H 170.879 -0.0791184 0.742798 0
M  V30 1810 H 173.541 0.508366 1.88153 0
M  V30 1811 H 172.637 -0.423501 3.09213 0
M  V30 1812 N 172.938 -1.57226 0.108567 0
M  V30 1813 C 173.848 -2.18292 -0.859401 0
M  V30 1814 C 174.864 -1.15612 -1.30038 0
M  V30 1815 O 176.04 -1.48039 -1.36552 0
M  V30 1816 C 173.105 -2.762 -2.09558 0
M  V30 1817 C 172.166 -3.93881 -1.70752 0
M  V30 1818 C 171.399 -4.49018 -2.88477 0
M  V30 1819 O 171.622 -4.03068 -4.036 0
M  V30 1820 O 170.556 -5.39852 -2.66164 0
M  V30 1821 H 174.382 -3.01441 -0.369769 0
M  V30 1822 H 171.967 -1.48945 -0.1165 0
M  V30 1823 H 173.849 -3.13156 -2.81978 0
M  V30 1824 H 172.524 -1.96089 -2.57548 0
M  V30 1825 H 171.431 -3.61713 -0.954714 0
M  V30 1826 H 172.764 -4.75396 -1.27513 0
M  V30 1827 N 174.416 0.165178 -1.56732 0
M  V30 1828 C 175.832 0.517174 -1.50988 0
M  V30 1829 C 176.032 1.84331 -0.813894 0
M  V30 1830 O 175.088 2.49672 -0.37682 0
M  V30 1831 C 176.401 0.544261 -2.95733 0
M  V30 1832 C 177.949 0.631039 -3.06573 0
M  V30 1833 C 178.424 0.68896 -4.52788 0
M  V30 1834 N 179.915 0.751683 -4.5706 0
M  V30 1835 C 180.65 0.817177 -5.67547 0
M  V30 1836 N 180.146 0.843129 -6.8765 0
M  V30 1837 N 181.939 0.856668 -5.55534 0
M  V30 1838 H 174.09 -0.704318 -2.00382 0
M  V30 1839 H 176.353 -0.254687 -0.913148 0
M  V30 1840 H 176.059 -0.361607 -3.49836 0
M  V30 1841 H 175.933 1.3886 -3.5071 0
M  V30 1842 H 178.32 1.52733 -2.52501 0
M  V30 1843 H 178.401 -0.240095 -2.54671 0
M  V30 1844 H 178.045 -0.2031 -5.07494 0
M  V30 1845 H 177.975 1.57633 -5.02454 0
M  V30 1846 H 180.466 0.739661 -3.70591 0
M  V30 1847 H 180.779 0.894448 -7.67606 0
M  V30 1848 H 179.124 0.811304 -6.90248 0
M  V30 1849 H 182.315 0.833437 -4.60621 0
M  V30 1850 H 182.488 0.904247 -6.4166 0
M  V30 1851 N 175.894 1.51508 0.433938 0
M  V30 1852 C 177.119 1.68443 1.21003 0
M  V30 1853 C 177.544 0.382636 1.84167 0
M  V30 1854 O 176.902 -0.65755 1.68956 0
M  V30 1855 C 176.95 2.80405 2.26727 0
M  V30 1856 O 176.054 2.44245 3.32292 0
M  V30 1857 H 175.395 0.561536 0.354363 0
M  V30 1858 H 177.925 1.9809 0.512024 0
M  V30 1859 H 177.935 3.0459 2.71457 0
M  V30 1860 H 176.61 3.74867 1.80132 0
M  V30 1861 H 175.187 2.30644 2.93015 0
M  V30 1862 N 177.372 -0.689602 1.41712 0
M  V30 1863 C 178.783 -1.26973 1.36875 0
M  V30 1864 C 179.134 -1.96124 0.054748 0
M  V30 1865 O 178.259 -1.99141 -0.84687 0
M  V30 1866 C 178.854 -2.30912 2.47922 0
M  V30 1867 C 177.413 -2.84486 2.46464 0
M  V30 1868 C 176.56 -1.58603 2.27465 0
M  V30 1869 H 179.511 -0.48396 1.51141 0
M  V30 1870 H 179.532 -3.12331 2.17323 0
M  V30 1871 H 179.044 -1.80554 3.43543 0
M  V30 1872 H 177.145 -3.39005 1.54617 0
M  V30 1873 H 177.258 -3.34511 3.42986 0
M  V30 1874 H 175.622 -1.84632 1.75451 0
M  V30 1875 H 176.405 -1.10233 3.25121 0
M  V30 1876 N 178.85 -1.27639 -0.924453 0
M  V30 1877 C 179.798 -1.10485 -2.04685 0
M  V30 1878 C 180.792 -0.0270421 -1.69378 0
M  V30 1879 O 181.998 -0.185008 -1.79047 0
M  V30 1880 H 178.373 -0.340546 -0.670472 0
M  V30 1881 H 180.344 -2.05566 -2.16298 0
M  V30 1882 C 179.093 -0.772229 -3.39016 0
M  V30 1883 H 178.416 -1.59351 -3.66671 0
M  V30 1884 H 179.856 -0.692097 -4.18313 0
M  V30 1885 C 178.315 0.523554 -3.32807 0
M  V30 1886 O 178.845 1.55702 -3.70297 0
M  V30 1887 N 177.051 0.520363 -2.85903 0
M  V30 1888 H 176.598 -0.32107 -2.55591 0
M  V30 1889 H 176.556 1.38742 -2.82131 0
M  V30 1890 N 180.328 1.1314 -1.09713 0
M  V30 1891 C 181.238 2.22242 -0.751367 0
M  V30 1892 C 182.254 1.72224 0.247938 0
M  V30 1893 O 183.43 2.01205 0.0885463 0
M  V30 1894 C 180.495 3.46231 -0.180274 0
M  V30 1895 C 179.556 4.11125 -1.2359 0
M  V30 1896 C 178.789 5.29195 -0.691966 0
M  V30 1897 O 179.012 5.68342 0.48414 0
M  V30 1898 O 177.946 5.84214 -1.44838 0
M  V30 1899 H 181.772 2.54197 -1.66186 0
M  V30 1900 H 179.357 1.21331 -0.871735 0
M  V30 1901 H 181.239 4.21185 0.134739 0
M  V30 1902 H 179.914 3.1597 0.703185 0
M  V30 1903 H 178.821 3.37985 -1.60366 0
M  V30 1904 H 180.154 4.45524 -2.09211 0
M  V30 1905 N 181.806 0.884767 1.30421 0
M  V30 1906 C 182.716 0.355398 2.31892 0
M  V30 1907 C 183.732 -0.542261 1.65335 0
M  V30 1908 O 184.908 -0.435432 1.96637 0
M  V30 1909 C 181.973 -0.421661 3.44126 0
M  V30 1910 C 181.034 0.505727 4.26311 0
M  V30 1911 C 180.267 -0.234343 5.33185 0
M  V30 1912 O 180.49 -1.46045 5.51386 0
M  V30 1913 O 179.424 0.415443 6.00465 0
M  V30 1914 H 183.25 1.19685 2.79122 0
M  V30 1915 H 180.835 0.648596 1.34587 0
M  V30 1916 H 182.717 -0.861641 4.12497 0
M  V30 1917 H 181.392 -1.23942 2.99032 0
M  V30 1918 H 180.299 0.994513 3.60639 0
M  V30 1919 H 181.632 1.28948 4.75009 0
M  V30 1920 N 183.284 -1.43765 0.645699 0
M  V30 1921 C 184.514 -2.05953 0.163318 0
M  V30 1922 C 184.922 -1.48432 -1.17322 0
M  V30 1923 O 184.265 -0.607295 -1.73371 0
M  V30 1924 C 184.327 -3.59499 -0.0103065 0
M  V30 1925 C 183.991 -4.39563 1.25035 0
M  V30 1926 C 184.988 -4.72108 2.17739 0
M  V30 1927 C 182.673 -4.79697 1.48983 0
M  V30 1928 C 184.667 -5.43688 3.3269 0
M  V30 1929 C 182.354 -5.51023 2.64229 0
M  V30 1930 C 183.352 -5.8294 3.55908 0
M  V30 1931 O 183.04 -6.5281 4.69142 0
M  V30 1932 H 182.772 -0.670798 0.0836986 0
M  V30 1933 H 185.326 -1.85384 0.884407 0
M  V30 1934 H 183.556 -3.78613 -0.78669 0
M  V30 1935 H 185.245 -4.03408 -0.449087 0
M  V30 1936 H 186.011 -4.41627 2.00476 0
M  V30 1937 H 181.89 -4.54266 0.785078 0
M  V30 1938 H 185.434 -5.68517 4.04269 0
M  V30 1939 H 181.331 -5.8092 2.81429 0
M  V30 1940 H 182.099 -6.71288 4.6831 0
M  V30 1941 N 184.763 -0.387143 -1.52771 0
M  V30 1942 C 185.991 0.195869 -2.05971 0
M  V30 1943 C 186.406 1.40691 -1.25903 0
M  V30 1944 O 185.763 1.79931 -0.305134 0
M  V30 1945 C 185.814 0.56812 -3.57008 0
M  V30 1946 O 185.535 -0.594803 -4.34043 0
M  V30 1947 C 187.036 1.20723 -4.26545 0
M  V30 1948 H 184.256 0.0300578 -0.670326 0
M  V30 1949 H 186.8 -0.551749 -1.96916 0
M  V30 1950 H 184.955 1.26564 -3.66143 0
M  V30 1951 H 185.369 -0.289322 -5.23701 0
M  V30 1952 H 186.843 1.41807 -5.33474 0
M  V30 1953 H 187.32 2.17395 -3.81623 0
M  V30 1954 H 187.926 0.550535 -4.21722 0
M  V30 1955 N 186.241 1.57166 -0.116904 0
M  V30 1956 C 187.487 1.96206 0.536166 0
M  V30 1957 C 187.842 0.99915 1.64422 0
M  V30 1958 O 187.135 0.0288195 1.91578 0
M  V30 1959 C 187.329 3.39508 1.11664 0
M  V30 1960 C 187.158 4.49651 0.0663474 0
M  V30 1961 C 185.928 5.03982 -0.36474 0
M  V30 1962 C 188.126 5.09322 -0.713829 0
M  V30 1963 N 186.108 5.97699 -1.40102 0
M  V30 1964 C 187.479 5.98963 -1.60136 0
M  V30 1965 C 189.534 4.91989 -0.764948 0
M  V30 1966 C 188.237 6.73128 -2.53556 0
M  V30 1967 C 190.263 5.66833 -1.68685 0
M  V30 1968 C 189.625 6.56158 -2.56196 0
M  V30 1969 H 185.724 0.764203 0.165886 0
M  V30 1970 H 188.308 1.93623 -0.204535 0
M  V30 1971 H 186.479 3.42743 1.82707 0
M  V30 1972 H 188.211 3.65677 1.73386 0
M  V30 1973 H 184.966 4.73592 0.027252 0
M  V30 1974 H 185.39 6.49262 -1.91802 0
M  V30 1975 H 190.032 4.22676 -0.102501 0
M  V30 1976 H 187.75 7.41689 -3.20816 0
M  V30 1977 H 191.336 5.55427 -1.73181 0
M  V30 1978 H 190.216 7.13057 -3.26372 0
M  V30 1979 N 187.719 -0.156864 1.56817 0
M  V30 1980 C 188.629 -1.2136 2.00771 0
M  V30 1981 C 189.645 -1.47598 0.921459 0
M  V30 1982 O 190.821 -1.59462 1.2302 0
M  V30 1983 C 187.886 -2.52943 2.37109 0
M  V30 1984 C 186.947 -2.34439 3.59634 0
M  V30 1985 C 186.18 -3.59748 3.94229 0
M  V30 1986 O 186.403 -4.65526 3.29609 0
M  V30 1987 O 185.337 -3.52998 4.8752 0
M  V30 1988 H 189.163 -0.870468 2.90958 0
M  V30 1989 H 186.748 -0.36484 1.44877 0
M  V30 1990 H 188.63 -3.30538 2.61386 0
M  V30 1991 H 187.305 -2.86806 1.5008 0
M  V30 1992 H 186.212 -1.54828 3.40557 0
M  V30 1993 H 187.545 -2.05496 4.4725 0
M  V30 1994 N 189.197 -1.51736 -0.425897 0
M  V30 1995 C 190.107 -1.76738 -1.54275 0
M  V30 1996 C 191.123 -0.65211 -1.61318 0
M  V30 1997 O 192.299 -0.935654 -1.78346 0
M  V30 1998 C 189.364 -1.89755 -2.90162 0
M  V30 1999 C 188.425 -3.13633 -2.93143 0
M  V30 2000 C 187.658 -3.2602 -4.22548 0
M  V30 2001 O 187.881 -2.44067 -5.15546 0
M  V30 2002 O 186.815 -4.19071 -4.32046 0
M  V30 2003 H 190.641 -2.71502 -1.36089 0
M  V30 2004 H 188.226 -1.36376 -0.610069 0
M  V30 2005 H 190.108 -2.00236 -3.70788 0
M  V30 2006 H 188.783 -0.981785 -3.08452 0
M  V30 2007 H 187.69 -3.08622 -2.11431 0
M  V30 2008 H 189.023 -4.04936 -2.798 0
M  V30 2009 N 190.675 0.682077 -1.42076 0
M  V30 2010 C 191.952 1.43755 -1.32642 0
M  V30 2011 C 192.332 2.11063 0.0396611 0
M  V30 2012 O 191.68 2.02701 1.05474 0
M  V30 2013 C 191.89 2.44596 -2.48946 0
M  V30 2014 C 193.238 3.09454 -2.9073 0
M  V30 2015 O 194.262 2.54922 -2.48783 0
M  V30 2016 O 193.121 4.08253 -3.63307 0
M  V30 2017 H 190.215 0.640857 -0.522715 0
M  V30 2018 H 192.761 0.711415 -1.54068 0
M  V30 2019 H 191.533 1.93609 -3.40046 0
M  V30 2020 H 191.156 3.24701 -2.29467 0
M  V30 2021 N 192.153 1.28127 0.917671 0
M  V30 2022 C 193.564 1.13622 1.48145 0
M  V30 2023 C 193.915 -0.275207 1.9426 0
M  V30 2024 O 193.04 -1.1691 1.82102 0
M  V30 2025 C 193.635 2.05648 2.69248 0
M  V30 2026 C 192.194 1.95219 3.21818 0
M  V30 2027 C 191.341 1.97618 1.94532 0
M  V30 2028 H 194.292 1.40874 0.730772 0
M  V30 2029 H 194.313 1.61818 3.44377 0
M  V30 2030 H 193.825 3.08365 2.35653 0
M  V30 2031 H 191.926 0.955244 3.60147 0
M  V30 2032 H 192.039 2.81976 3.87333 0
M  V30 2033 H 190.403 1.41973 2.11461 0
M  V30 2034 H 191.186 3.02007 1.63238 0
M  V30 2035 N 193.631 -1.12557 1.10312 0
M  V30 2036 C 194.561 -2.20341 0.772798 0
M  V30 2037 C 195.542 -1.68198 -0.25365 0
M  V30 2038 O 196.727 -1.93831 -0.119699 0
M  V30 2039 C 193.857 -3.46709 0.202443 0
M  V30 2040 C 192.811 -4.11996 1.15943 0
M  V30 2041 C 192.137 -5.328 0.450345 0
M  V30 2042 C 193.437 -4.5828 2.50552 0
M  V30 2043 H 195.131 -2.48229 1.674 0
M  V30 2044 H 192.677 -1.19308 0.806326 0
M  V30 2045 H 194.63 -4.2138 -0.0407752 0
M  V30 2046 H 193.354 -3.18245 -0.734001 0
M  V30 2047 H 192.013 -3.39305 1.38808 0
M  V30 2048 H 191.661 -5.00602 -0.490531 0
M  V30 2049 H 191.361 -5.7743 1.08851 0
M  V30 2050 H 192.885 -6.10219 0.215642 0
M  V30 2051 H 194.299 -5.2433 2.31843 0
M  V30 2052 H 192.696 -5.13683 3.10242 0
M  V30 2053 H 193.766 -3.72329 3.10643 0
M  V30 2054 N 195.109 -0.891671 -1.2995 0
M  V30 2055 C 196.072 -0.36828 -2.26222 0
M  V30 2056 C 197.072 0.493014 -1.53056 0
M  V30 2057 O 198.262 0.299213 -1.71611 0
M  V30 2058 C 195.394 0.47442 -3.37583 0
M  V30 2059 H 196.587 -1.21844 -2.74033 0
M  V30 2060 H 194.14 -0.669107 -1.41254 0
M  V30 2061 H 194.875 1.34489 -2.95099 0
M  V30 2062 H 194.66 -0.142615 -3.91841 0
M  V30 2063 H 196.15 0.83218 -4.09224 0
M  V30 2064 N 196.587 1.43421 -0.653314 0
M  V30 2065 C 197.835 2.01414 -0.166415 0
M  V30 2066 C 198.156 1.51803 1.22397 0
M  V30 2067 O 197.426 0.730693 1.81763 0
M  V30 2068 H 196.006 0.744703 -0.0585319 0
M  V30 2069 H 198.668 1.75629 -0.845003 0
M  V30 2070 H 197.764 3.11734 -0.151111 0
M  V30 2071 N 198.065 0.39524 1.52563 0
M  V30 2072 C 199.314 -0.186321 2.00838 0
M  V30 2073 C 199.627 -1.47402 1.28577 0
M  V30 2074 O 200.833 -2.13599 1.67593 0
M  V30 2075 C 199.289 -0.382595 3.57861 0
M  V30 2076 C 198.897 0.892202 4.39026 0
M  V30 2077 C 200.641 -0.9202 4.14406 0
M  V30 2078 C 198.548 0.66388 5.87662 0
M  V30 2079 H 197.478 -0.0734041 0.750418 0
M  V30 2080 H 200.129 0.518552 1.76021 0
M  V30 2081 H 198.511 -1.14946 3.7895 0
M  V30 2082 H 199.685 1.66414 4.29701 0
M  V30 2083 H 198 1.35519 3.9373 0
M  V30 2084 H 200.597 -1.10683 5.23119 0
M  V30 2085 H 200.94 -1.89096 3.70875 0
M  V30 2086 H 201.473 -0.212751 3.97231 0
M  V30 2087 H 198.212 1.6058 6.35527 0
M  V30 2088 H 197.732 -0.0690193 5.9976 0
M  V30 2089 H 199.411 0.300699 6.46301 0
M  V30 2090 N 199.544 -1.57102 0.125237 0
M  V30 2091 C 200.793 -1.94582 -0.531095 0
M  V30 2092 C 201.106 -1.01126 -1.6743 0
M  V30 2093 O 202.312 -1.28097 -2.39381 0
M  V30 2094 C 200.768 -3.45839 -0.996164 0
M  V30 2095 C 200.376 -4.47842 0.118926 0
M  V30 2096 C 202.12 -3.92227 -1.62352 0
M  V30 2097 C 200.027 -5.90284 -0.363192 0
M  V30 2098 H 198.957 -0.726391 -0.20217 0
M  V30 2099 H 201.608 -1.82339 0.206092 0
M  V30 2100 H 199.99 -3.53338 -1.78796 0
M  V30 2101 H 201.164 -4.52018 0.895358 0
M  V30 2102 H 199.479 -4.11243 0.653324 0
M  V30 2103 H 202.076 -4.96069 -1.99548 0
M  V30 2104 H 202.419 -3.32552 -2.50429 0
M  V30 2105 H 202.952 -3.87554 -0.897019 0
M  V30 2106 H 199.691 -6.53728 0.481679 0
M  V30 2107 H 199.211 -5.89515 -1.10597 0
M  V30 2108 H 200.89 -6.41752 -0.822377 0
M  V30 2109 N 201.022 0.148545 -1.56898 0
M  V30 2110 C 202.433 0.708766 -1.72723 0
M  V30 2111 C 202.784 1.81734 -0.739395 0
M  V30 2112 O 201.909 2.16194 0.0943169 0
M  V30 2113 C 202.504 1.29245 -3.13179 0
M  V30 2114 C 201.063 1.79925 -3.30611 0
M  V30 2115 C 200.21 0.687111 -2.68652 0
M  V30 2116 H 203.161 -0.0771063 -1.58513 0
M  V30 2117 H 203.182 2.16224 -3.13093 0
M  V30 2118 H 202.694 0.485382 -3.85053 0
M  V30 2119 H 200.795 2.63203 -2.63732 0
M  V30 2120 H 200.908 1.92903 -4.38549 0
M  V30 2121 H 199.272 1.11335 -2.29078 0
M  V30 2122 H 200.055 -0.108483 -3.43129 0
M  V30 2123 N 202.5 1.5196 0.417844 0
M  V30 2124 C 203.916 1.40569 0.755816 0
M  V30 2125 C 204.116 0.503316 1.95113 0
M  V30 2126 O 203.172 -0.0341925 2.52477 0
M  V30 2127 C 204.485 2.82947 1.01791 0
M  V30 2128 C 206.033 2.92231 1.12116 0
M  V30 2129 C 206.508 4.35559 1.41608 0
M  V30 2130 N 207.999 4.38753 1.48491 0
M  V30 2131 C 208.734 5.46705 1.7292 0
M  V30 2132 N 208.23 6.64788 1.95011 0
M  V30 2133 N 210.023 5.34209 1.74863 0
M  V30 2134 H 202.174 2.09168 -0.369098 0
M  V30 2135 H 204.437 0.942409 -0.102809 0
M  V30 2136 H 204.143 3.5106 0.212081 0
M  V30 2137 H 204.017 3.23462 1.94042 0
M  V30 2138 H 206.404 2.24304 1.9176 0
M  V30 2139 H 206.485 2.55185 0.177225 0
M  V30 2140 H 206.129 5.04042 0.624848 0
M  V30 2141 H 206.059 4.70133 2.37239 0
M  V30 2142 H 208.55 3.5363 1.33244 0
M  V30 2143 H 208.863 7.42845 2.13076 0
M  V30 2144 H 207.208 6.67869 1.92293 0
M  V30 2145 H 210.399 4.40937 1.57137 0
M  V30 2146 H 210.572 6.18415 1.93563 0
M  V30 2147 N 203.978 -0.674533 1.42435 0
M  V30 2148 C 205.206 -1.46283 1.46317 0
M  V30 2149 C 205.621 -1.88653 0.0745836 0
M  V30 2150 O 204.978 -1.58151 -0.91074 0
M  V30 2151 C 205.029 -2.71178 2.3905 0
M  V30 2152 O 204.75 -2.30586 3.72507 0
M  V30 2153 C 206.251 -3.64738 2.51955 0
M  V30 2154 H 203.471 -0.450104 0.497642 0
M  V30 2155 H 206.015 -0.828792 1.86953 0
M  V30 2156 H 204.17 -3.3077 2.01667 0
M  V30 2157 H 204.584 -3.11241 4.22172 0
M  V30 2158 H 206.058 -4.49096 3.20962 0
M  V30 2159 H 206.535 -4.10656 1.55752 0
M  V30 2160 H 207.141 -3.11038 2.90061 0
M  V30 2161 N 205.456 -1.28612 -0.910864 0
M  V30 2162 C 206.386 -1.15326 -2.03032 0
M  V30 2163 C 207.367 -0.0502924 -1.70026 0
M  V30 2164 O 208.552 -0.227797 -1.92859 0
M  V30 2165 C 205.682 -0.817343 -3.37545 0
M  V30 2166 C 204.636 -1.8754 -3.84724 0
M  V30 2167 C 203.962 -1.39305 -5.16235 0
M  V30 2168 C 205.262 -3.28244 -4.06267 0
M  V30 2169 H 206.956 -2.08975 -2.14406 0
M  V30 2170 H 204.502 -1.00612 -1.03021 0
M  V30 2171 H 206.455 -0.711151 -4.15356 0
M  V30 2172 H 205.179 0.154846 -3.26233 0
M  V30 2173 H 203.838 -1.97079 -3.09121 0
M  V30 2174 H 203.486 -0.409846 -5.01328 0
M  V30 2175 H 203.186 -2.10057 -5.48771 0
M  V30 2176 H 204.71 -1.30014 -5.96598 0
M  V30 2177 H 206.124 -3.21611 -4.74594 0
M  V30 2178 H 204.521 -3.96855 -4.5014 0
M  V30 2179 H 205.591 -3.72048 -3.10979 0
M  V30 2180 N 206.934 1.1197 -1.10907 0
M  V30 2181 C 207.884 2.15946 -0.731538 0
M  V30 2182 C 208.868 1.58758 0.261699 0
M  V30 2183 O 210.06 1.76863 0.0696722 0
M  V30 2184 C 207.189 3.42877 -0.170299 0
M  V30 2185 C 206.275 4.07037 -1.19087 0
M  V30 2186 N 206.666 4.46135 -2.38322 0
M  V30 2187 C 204.964 4.33884 -1.03252 0
M  V30 2188 C 205.665 4.96331 -3.03366 0
M  V30 2189 N 204.641 4.9214 -2.30865 0
M  V30 2190 H 208.443 2.43947 -1.63912 0
M  V30 2191 H 205.957 1.28927 -0.987505 0
M  V30 2192 H 207.954 4.16732 0.118271 0
M  V30 2193 H 206.614 3.16343 0.731935 0
M  V30 2194 H 207.625 4.38345 -2.75815 0
M  V30 2195 H 204.302 4.17084 -0.186256 0
M  V30 2196 H 205.692 5.36257 -4.04818 0
M  V30 2197 N 208.412 0.89855 1.29475 0
M  V30 2198 C 209.344 0.332726 2.26772 0
M  V30 2199 C 210.357 -0.520323 1.54261 0
M  V30 2200 O 211.546 -0.337668 1.75277 0
M  V30 2201 C 208.646 -0.544334 3.345 0
M  V30 2202 C 207.819 0.282728 4.36485 0
M  V30 2203 C 206.878 -0.526982 5.23555 0
M  V30 2204 O 205.904 0.0551165 5.69173 0
M  V30 2205 N 207.106 -1.83331 5.5079 0
M  V30 2206 H 209.871 1.16897 2.75962 0
M  V30 2207 H 207.432 0.762919 1.42798 0
M  V30 2208 H 209.424 -1.09239 3.89678 0
M  V30 2209 H 207.994 -1.28127 2.85136 0
M  V30 2210 H 207.214 1.01221 3.80983 0
M  V30 2211 H 208.502 0.84918 5.01664 0
M  V30 2212 H 207.9 -2.32898 5.15534 0
M  V30 2213 H 206.457 -2.32852 6.08788 0
M  V30 2214 N 209.89 -1.43072 0.660911 0
M  V30 2215 C 211.139 -2.00942 0.174735 0
M  V30 2216 C 211.452 -1.52797 -1.22117 0
M  V30 2217 O 212.658 -2.02991 -1.80297 0
M  V30 2218 C 211.114 -3.58948 0.261559 0
M  V30 2219 C 210.722 -4.16085 1.66064 0
M  V30 2220 C 212.466 -4.24173 -0.166617 0
M  V30 2221 C 210.373 -5.6641 1.70098 0
M  V30 2222 H 209.303 -0.751483 0.0615631 0
M  V30 2223 H 211.954 -1.63955 0.824069 0
M  V30 2224 H 210.336 -3.93372 -0.455421 0
M  V30 2225 H 211.51 -3.93147 2.40359 0
M  V30 2226 H 209.825 -3.6326 2.03546 0
M  V30 2227 H 212.422 -5.34471 -0.156433 0
M  V30 2228 H 212.765 -3.98647 -1.19943 0
M  V30 2229 H 213.298 -3.94659 0.498875 0
M  V30 2230 H 210.037 -5.96715 2.71315 0
M  V30 2231 H 209.557 -5.91382 1.00139 0
M  V30 2232 H 211.236 -6.30585 1.44816 0
M  V30 2233 N 211.368 -0.403325 -1.52352 0
M  V30 2234 C 212.615 0.174347 -2.01748 0
M  V30 2235 C 212.943 1.45636 -1.2892 0
M  V30 2236 O 212.198 1.9193 -0.382258 0
M  V30 2237 C 212.497 0.474665 -3.54234 0
M  V30 2238 C 212.163 -0.717458 -4.45155 0
M  V30 2239 C 210.825 -1.04447 -4.69728 0
M  V30 2240 C 213.177 -1.51432 -4.98716 0
M  V30 2241 C 210.505 -2.16963 -5.45109 0
M  V30 2242 C 212.857 -2.6302 -5.75329 0
M  V30 2243 C 211.521 -2.96213 -5.98175 0
M  V30 2244 H 210.791 0.0637981 -0.738248 0
M  V30 2245 H 213.438 -0.543553 -1.83624 0
M  V30 2246 H 211.743 1.27406 -3.70506 0
M  V30 2247 H 213.44 0.934496 -3.89959 0
M  V30 2248 H 210.03 -0.452596 -4.26204 0
M  V30 2249 H 214.214 -1.27491 -4.79645 0
M  V30 2250 H 209.47 -2.43034 -5.61021 0
M  V30 2251 H 213.644 -3.25158 -6.15829 0
M  V30 2252 H 211.271 -3.83516 -6.56368 0
M  V30 2253 N 212.846 1.57033 -0.133567 0
M  V30 2254 C 213.756 2.19632 0.824564 0
M  V30 2255 C 214.772 1.17666 1.28182 0
M  V30 2256 O 215.948 1.50193 1.3418 0
M  V30 2257 C 213.013 2.79499 2.05137 0
M  V30 2258 C 212.074 3.96548 1.64464 0
M  V30 2259 C 211.307 4.5355 2.81297 0
M  V30 2260 O 211.53 4.09438 3.97136 0
M  V30 2261 O 210.464 5.44018 2.57542 0
M  V30 2262 H 214.29 3.01991 0.321766 0
M  V30 2263 H 211.875 1.49112 0.0927889 0
M  V30 2264 H 213.757 3.17602 2.7696 0
M  V30 2265 H 212.432 2.00162 2.54395 0
M  V30 2266 H 211.339 3.63186 0.897048 0
M  V30 2267 H 212.672 4.77364 1.19934 0
M  V30 2268 N 214.325 -0.140222 1.56975 0
M  V30 2269 C 215.272 -1.17292 1.98774 0
M  V30 2270 C 216.242 -1.4232 0.856408 0
M  V30 2271 O 217.427 -1.54541 1.119 0
M  V30 2272 C 214.567 -2.49973 2.37923 0
M  V30 2273 C 213.68 -2.32062 3.64378 0
M  V30 2274 C 212.815 -3.57825 3.926 0
M  V30 2275 C 211.854 -3.3498 5.12303 0
M  V30 2276 N 210.991 -4.52891 5.36502 0
M  V30 2277 H 215.831 -0.809472 2.86795 0
M  V30 2278 H 213.368 -0.388237 1.41884 0
M  V30 2279 H 215.326 -3.27346 2.58652 0
M  V30 2280 H 213.956 -2.84252 1.52972 0
M  V30 2281 H 213.008 -1.45711 3.51387 0
M  V30 2282 H 214.32 -2.11145 4.51906 0
M  V30 2283 H 213.474 -4.43624 4.13863 0
M  V30 2284 H 212.213 -3.81753 3.03506 0
M  V30 2285 H 211.218 -2.4757 4.90906 0
M  V30 2286 H 212.443 -3.12444 6.02956 0
M  V30 2287 H 210.389 -4.76979 4.50363 0
M  V30 2288 H 210.306 -4.35001 6.18312 0
M  V30 2289 H 211.574 -5.39884 5.62268 0
M  V30 2290 N 215.803 -1.52179 -0.40978 0
M  V30 2291 C 216.733 -1.78435 -1.5061 0
M  V30 2292 C 217.714 -0.635295 -1.57791 0
M  V30 2293 O 218.899 -0.880823 -1.73076 0
M  V30 2294 C 216.029 -1.93444 -2.88439 0
M  V30 2295 C 214.983 -3.09038 -2.96108 0
M  V30 2296 C 214.309 -3.09268 -4.36185 0
M  V30 2297 C 215.609 -4.48508 -2.67652 0
M  V30 2298 H 217.303 -2.70237 -1.28889 0
M  V30 2299 H 214.849 -1.30036 -0.618605 0
M  V30 2300 H 216.802 -2.10394 -3.65119 0
M  V30 2301 H 215.526 -0.983129 -3.11452 0
M  V30 2302 H 214.185 -2.91837 -2.21872 0
M  V30 2303 H 213.833 -2.11861 -4.56206 0
M  V30 2304 H 213.533 -3.86907 -4.42241 0
M  V30 2305 H 215.057 -3.28348 -5.14801 0
M  V30 2306 H 216.471 -4.65918 -3.34056 0
M  V30 2307 H 214.868 -5.28059 -2.85085 0
M  V30 2308 H 215.938 -4.56649 -1.63095 0
M  V30 2309 N 217.281 0.66697 -1.42791 0
M  V30 2310 C 218.509 1.45505 -1.47091 0
M  V30 2311 C 218.924 1.8861 -0.0845873 0
M  V30 2312 O 218.281 1.58632 0.90234 0
M  V30 2313 C 218.332 2.69906 -2.40485 0
M  V30 2314 O 218.053 2.28608 -3.73725 0
M  V30 2315 C 219.554 3.63396 -2.53886 0
M  V30 2316 H 216.774 0.447459 -0.500022 0
M  V30 2317 H 219.318 0.818866 -1.8739 0
M  V30 2318 H 217.473 3.29696 -2.03419 0
M  V30 2319 H 217.887 3.08997 -4.23817 0
M  V30 2320 H 219.361 4.47387 -3.2334 0
M  V30 2321 H 219.838 4.09824 -1.57927 0
M  V30 2322 H 220.444 3.09495 -2.91706 0
M  V30 2323 N 218.759 1.29093 0.90403 0
M  V30 2324 C 220.036 1.075 1.63411 0
M  V30 2325 C 220.416 -0.382346 2.07609 0
M  V30 2326 O 219.764 -1.37031 1.82851 0
M  V30 2327 C 219.974 2.05858 2.81822 0
M  V30 2328 C 221.322 2.36539 3.52611 0
M  V30 2329 O 222.346 2.04019 2.91984 0
M  V30 2330 O 221.205 2.92085 4.61897 0
M  V30 2331 H 218.299 0.411547 0.717327 0
M  V30 2332 H 220.845 1.40449 0.952479 0
M  V30 2333 H 219.617 3.04037 2.46327 0
M  V30 2334 H 219.24 1.73613 3.57693 0
M  V30 2335 N 220.237 -1.11381 1.11499 0
M  V30 2336 C 221.185 -2.19522 0.768956 0
M  V30 2337 C 222.179 -1.67693 -0.239857 0
M  V30 2338 O 223.385 -1.79727 -0.0990755 0
M  V30 2339 H 219.76 -0.715711 0.230786 0
M  V30 2340 H 221.731 -2.45954 1.68964 0
M  V30 2341 C 220.48 -3.46945 0.229073 0
M  V30 2342 H 219.803 -3.8718 0.996596 0
M  V30 2343 H 221.243 -4.23993 0.0251441 0
M  V30 2344 C 219.702 -3.2042 -1.04079 0
M  V30 2345 O 220.232 -3.41178 -2.12038 0
M  V30 2346 N 218.438 -2.74151 -0.963823 0
M  V30 2347 H 217.985 -2.57459 -0.0851722 0
M  V30 2348 H 217.943 -2.56781 -1.81414 0
M  V30 2349 N 221.715 -0.905404 -1.28997 0
M  V30 2350 C 222.963 -0.533192 -1.9494 0
M  V30 2351 C 223.284 0.924618 -1.71685 0
M  V30 2352 O 222.554 1.65268 -1.05183 0
M  V30 2353 H 221.134 -0.194194 -0.721317 0
M  V30 2354 H 223.796 -1.15294 -1.57141 0
M  V30 2355 H 222.892 -0.72059 -3.03667 0
M  V30 2356 N 223.193 1.4272 -0.668489 0
M  V30 2357 C 224.421 2.05966 -0.196348 0
M  V30 2358 C 224.836 1.50191 1.14403 0
M  V30 2359 O 224.193 0.639208 1.7094 0
M  V30 2360 C 224.244 3.61314 -0.115815 0
M  V30 2361 O 223.965 4.1502 -1.40322 0
M  V30 2362 C 225.466 4.41663 0.380579 0
M  V30 2363 H 222.686 0.663954 -0.0969829 0
M  V30 2364 H 225.23 1.82966 -0.913446 0
M  V30 2365 H 223.385 3.83448 0.551931 0
M  V30 2366 H 223.799 5.08832 -1.27243 0
M  V30 2367 H 225.273 5.5065 0.385848 0
M  V30 2368 H 225.75 4.15792 1.41471 0
M  V30 2369 H 226.356 4.24534 -0.255209 0
M  V30 2370 N 224.671 0.411399 1.52136 0
M  V30 2371 C 225.581 -0.419774 2.30814 0
M  V30 2372 C 226.597 -1.0515 1.38634 0
M  V30 2373 O 227.773 -1.05252 1.71709 0
M  V30 2374 C 224.838 -1.52019 3.11594 0
M  V30 2375 C 223.899 -0.91129 4.19516 0
M  V30 2376 C 223.132 -1.95927 4.96436 0
M  V30 2377 O 223.355 -3.17775 4.73683 0
M  V30 2378 O 222.289 -1.56423 5.81219 0
M  V30 2379 H 226.115 0.221805 3.02889 0
M  V30 2380 H 223.7 0.174547 1.48377 0
M  V30 2381 H 225.582 -2.15898 3.61892 0
M  V30 2382 H 224.257 -2.14633 2.42311 0
M  V30 2383 H 223.164 -0.235157 3.7336 0
M  V30 2384 H 224.497 -0.32904 4.91099 0
M  V30 2385 N 226.149 -1.5696 0.141893 0
M  V30 2386 C 227.396 -1.9596 -0.510492 0
M  V30 2387 C 227.724 -1.02648 -1.65208 0
M  V30 2388 O 226.979 -0.0546947 -1.95624 0
M  V30 2389 C 227.278 -3.41242 -1.06249 0
M  V30 2390 C 226.944 -4.50882 -0.0398791 0
M  V30 2391 C 225.606 -4.80595 0.241247 0
M  V30 2392 C 227.958 -5.17058 0.65578 0
M  V30 2393 C 225.286 -5.73792 1.22393 0
M  V30 2394 C 227.638 -6.11313 1.62724 0
M  V30 2395 C 226.302 -6.39407 1.91612 0
M  V30 2396 H 225.572 -0.717068 -0.186802 0
M  V30 2397 H 228.219 -1.90142 0.227643 0
M  V30 2398 H 226.524 -3.43866 -1.87785 0
M  V30 2399 H 228.221 -3.68742 -1.57576 0
M  V30 2400 H 224.811 -4.27754 -0.269174 0
M  V30 2401 H 228.995 -4.94239 0.451779 0
M  V30 2402 H 224.251 -5.93853 1.45424 0
M  V30 2403 H 228.425 -6.61668 2.17183 0
M  V30 2404 H 226.052 -7.11427 2.6791 0
M  V30 2405 N 227.627 0.131896 -1.57047 0
M  V30 2406 C 228.852 0.860418 -1.8871 0
M  V30 2407 C 229.277 1.73251 -0.73251 0
M  V30 2408 O 228.635 1.785 0.317429 0
M  V30 2409 C 228.683 1.68047 -3.19049 0
M  V30 2410 O 227.787 2.7862 -3.04047 0
M  V30 2411 H 227.128 0.238743 -0.619595 0
M  V30 2412 H 229.658 0.118169 -2.04258 0
M  V30 2413 H 229.668 2.07238 -3.51449 0
M  V30 2414 H 228.343 1.04018 -4.02682 0
M  V30 2415 H 226.92 2.42726 -2.83088 0
M  V30 2416 N 229.106 1.52395 0.401703 0
M  V30 2417 C 230.352 1.67065 1.14966 0
M  V30 2418 C 230.685 0.403052 1.89971 0
M  V30 2419 O 229.96 -0.598774 1.85054 0
M  V30 2420 C 230.243 2.8975 2.13815 0
M  V30 2421 C 230.096 4.26578 1.42658 0
M  V30 2422 C 231.415 3.07965 3.14397 0
M  V30 2423 H 228.534 0.607968 0.416587 0
M  V30 2424 H 231.176 1.84965 0.434511 0
M  V30 2425 H 229.326 2.74619 2.74803 0
M  V30 2426 H 230.998 4.53451 0.847329 0
M  V30 2427 H 229.241 4.27639 0.72849 0
M  V30 2428 H 229.912 5.08483 2.14823 0
M  V30 2429 H 232.388 3.22043 2.63491 0
M  V30 2430 H 231.264 3.95308 3.80819 0
M  V30 2431 H 231.525 2.21611 3.82545 0
M  V30 2432 N 230.584 -0.659388 1.43143 0
M  V30 2433 C 231.531 -1.77249 1.47822 0
M  V30 2434 C 232.501 -1.62818 0.328558 0
M  V30 2435 O 233.686 -1.83151 0.534838 0
M  V30 2436 C 230.826 -3.15371 1.40126 0
M  V30 2437 C 229.939 -3.4098 2.65249 0
M  V30 2438 C 229.074 -4.68915 2.49584 0
M  V30 2439 C 228.113 -4.87608 3.70006 0
M  V30 2440 N 227.25 -6.06796 3.53189 0
M  V30 2441 H 232.09 -1.72584 2.42938 0
M  V30 2442 H 229.627 -0.842297 1.20598 0
M  V30 2443 H 231.585 -3.9521 1.33659 0
M  V30 2444 H 230.215 -3.19121 0.485964 0
M  V30 2445 H 229.267 -2.55282 2.8202 0
M  V30 2446 H 230.579 -3.50681 3.54717 0
M  V30 2447 H 229.733 -5.56871 2.4079 0
M  V30 2448 H 228.472 -4.61524 1.5763 0
M  V30 2449 H 227.477 -3.9809 3.79215 0
M  V30 2450 H 228.702 -4.96834 4.62961 0
M  V30 2451 H 226.648 -6.00549 2.63965 0
M  V30 2452 H 226.565 -6.17428 4.36255 0
M  V30 2453 H 227.833 -6.9739 3.48236 0
M  V30 2454 N 232.062 -1.29571 -0.897171 0
M  V30 2455 C 233.308 -1.17863 -1.65034 0
M  V30 2456 C 233.641 0.268729 -1.92332 0
M  V30 2457 O 232.916 1.19378 -1.53555 0
M  V30 2458 C 233.199 -1.995 -2.99786 0
M  V30 2459 C 233.052 -3.5239 -2.79538 0
M  V30 2460 C 234.371 -1.82335 -4.00552 0
M  V30 2461 H 231.49 -0.429528 -0.598895 0
M  V30 2462 H 234.132 -1.59072 -1.03905 0
M  V30 2463 H 232.282 -1.64485 -3.51962 0
M  V30 2464 H 233.954 -3.97401 -2.34244 0
M  V30 2465 H 232.197 -3.77187 -2.14273 0
M  V30 2466 H 232.868 -4.04787 -3.75302 0
M  V30 2467 H 235.344 -2.12924 -3.57495 0
M  V30 2468 H 234.22 -2.41801 -4.92771 0
M  V30 2469 H 234.481 -0.779209 -4.35179 0
M  V30 2470 N 233.54 1.10788 -1.12088 0
M  V30 2471 C 234.765 1.87002 -0.896949 0
M  V30 2472 C 235.19 1.79933 0.548261 0
M  V30 2473 O 234.548 1.16662 1.38779 0
M  V30 2474 C 234.596 3.3349 -1.37174 0
M  V30 2475 O 233.7 4.08745 -0.547831 0
M  V30 2476 H 233.041 0.580397 -0.322545 0
M  V30 2477 H 235.571 1.39996 -1.49206 0
M  V30 2478 H 235.581 3.84339 -1.36922 0
M  V30 2479 H 234.256 3.37951 -2.42408 0
M  V30 2480 H 232.833 3.6776 -0.617034 0
M  V30 2481 N 235.018 0.912232 1.28515 0
M  V30 2482 C 235.948 0.416403 2.29757 0
M  V30 2483 C 236.929 -0.515194 1.6211 0
M  V30 2484 O 238.114 -0.423253 1.89532 0
M  V30 2485 C 235.244 -0.34572 3.45575 0
M  V30 2486 C 234.198 0.496599 4.25109 0
M  V30 2487 C 233.524 -0.393771 5.33248 0
M  V30 2488 C 234.824 1.75307 4.92001 0
M  V30 2489 H 236.518 1.26249 2.7148 0
M  V30 2490 H 234.064 0.608515 1.30511 0
M  V30 2491 H 236.017 -0.703422 4.15488 0
M  V30 2492 H 234.741 -1.2257 3.02728 0
M  V30 2493 H 233.4 0.8368 3.56922 0
M  V30 2494 H 233.048 -1.27225 4.86644 0
M  V30 2495 H 232.748 0.166209 5.87365 0
M  V30 2496 H 234.272 -0.747389 6.06009 0
M  V30 2497 H 235.686 1.46437 5.54283 0
M  V30 2498 H 234.083 2.25534 5.56106 0
M  V30 2499 H 235.153 2.48176 4.16577 0
M  V30 2500 N 236.496 -1.42363 0.676048 0
M  V30 2501 C 237.426 -2.33497 0.0124832 0
M  V30 2502 C 238.407 -1.50748 -0.787981 0
M  V30 2503 O 239.592 -1.79346 -0.744884 0
M  V30 2504 C 236.722 -3.34377 -0.938582 0
M  V30 2505 C 235.676 -4.27289 -0.246622 0
M  V30 2506 C 235.002 -5.18386 -1.31071 0
M  V30 2507 C 236.302 -5.14916 0.875125 0
M  V30 2508 H 237.996 -2.89233 0.773593 0
M  V30 2509 H 235.542 -1.39073 0.37346 0
M  V30 2510 H 237.495 -3.97044 -1.41188 0
M  V30 2511 H 236.219 -2.76947 -1.73113 0
M  V30 2512 H 234.878 -3.66018 0.206456 0
M  V30 2513 H 234.526 -4.57282 -2.09528 0
M  V30 2514 H 234.226 -5.81378 -0.852839 0
M  V30 2515 H 235.75 -5.83929 -1.78492 0
M  V30 2516 H 237.164 -5.71262 0.482983 0
M  V30 2517 H 235.561 -5.86747 1.25887 0
M  V30 2518 H 236.631 -4.53242 1.72335 0
M  V30 2519 N 237.974 -0.419461 -1.51915 0
M  V30 2520 C 238.884 0.407528 -2.31033 0
M  V30 2521 C 239.9 1.04413 -1.3919 0
M  V30 2522 O 241.076 1.0434 -1.72265 0
M  V30 2523 C 238.141 1.50365 -3.12396 0
M  V30 2524 C 237.202 0.889029 -4.19994 0
M  V30 2525 C 236.435 1.93291 -4.97468 0
M  V30 2526 O 236.658 3.15259 -4.75361 0
M  V30 2527 O 235.592 1.53339 -5.8204 0
M  V30 2528 H 239.418 -0.237865 -3.02767 0
M  V30 2529 H 237.003 -0.182413 -1.48282 0
M  V30 2530 H 238.885 2.13975 -3.63032 0
M  V30 2531 H 237.56 2.13345 -2.43445 0
M  V30 2532 H 236.467 0.215353 -3.7348 0
M  V30 2533 H 237.8 0.302991 -4.91267 0
M  V30 2534 N 239.452 1.56882 -0.150215 0
M  V30 2535 C 240.701 1.95403 0.500071 0
M  V30 2536 C 241.014 1.03777 1.658 0
M  V30 2537 O 242.22 1.31889 2.37313 0
M  V30 2538 C 240.676 3.4738 0.941018 0
M  V30 2539 C 240.284 4.47596 -0.190158 0
M  V30 2540 C 242.028 3.9476 1.56091 0
M  V30 2541 C 239.935 5.90787 0.269237 0
M  V30 2542 H 238.865 0.729515 0.190588 0
M  V30 2543 H 241.516 1.81988 -0.235074 0
M  V30 2544 H 239.898 3.56138 1.73152 0
M  V30 2545 H 241.072 4.50536 -0.967157 0
M  V30 2546 H 239.387 4.10151 -0.718666 0
M  V30 2547 H 241.984 4.99181 1.9163 0
M  V30 2548 H 242.327 3.36494 2.45107 0
M  V30 2549 H 242.86 3.88932 0.835249 0
M  V30 2550 H 239.599 6.52879 -0.585621 0
M  V30 2551 H 239.119 5.912 1.01204 0
M  V30 2552 H 240.798 6.42979 0.720176 0
M  V30 2553 N 240.93 -0.123565 1.57115 0
M  V30 2554 C 242.16 -0.845233 1.88519 0
M  V30 2555 C 242.568 -1.74168 0.739064 0
M  V30 2556 O 241.911 -1.81244 -0.299355 0
M  V30 2557 C 241.973 -1.73452 3.14888 0
M  V30 2558 C 241.637 -1.01285 4.45635 0
M  V30 2559 C 242.634 -0.355774 5.18681 0
M  V30 2560 C 240.319 -0.99538 4.92339 0
M  V30 2561 C 242.313 0.309114 6.3665 0
M  V30 2562 C 240 -0.32669 6.10226 0
M  V30 2563 C 240.998 0.324406 6.82229 0
M  V30 2564 O 240.686 0.982437 7.97874 0
M  V30 2565 H 240.418 -0.248534 0.628655 0
M  V30 2566 H 242.972 -0.113907 2.05084 0
M  V30 2567 H 241.202 -2.50737 2.94394 0
M  V30 2568 H 242.891 -2.33021 3.32349 0
M  V30 2569 H 243.657 -0.360918 4.83655 0
M  V30 2570 H 239.536 -1.49159 4.36202 0
M  V30 2571 H 243.08 0.8179 6.92789 0
M  V30 2572 H 238.977 -0.319294 6.4471 0
M  V30 2573 H 239.745 0.886454 8.13686 0
M  V30 2574 N 242.408 -1.52605 -0.393616 0
M  V30 2575 C 243.356 -1.77688 -1.50099 0
M  V30 2576 C 244.35 -0.644615 -1.56656 0
M  V30 2577 O 245.556 -0.826997 -1.59877 0
M  V30 2578 H 241.931 -0.562159 -0.499481 0
M  V30 2579 H 243.902 -2.7043 -1.26135 0
M  V30 2580 C 242.651 -1.95858 -2.87289 0
M  V30 2581 H 241.974 -2.8241 -2.82992 0
M  V30 2582 H 243.414 -2.174 -3.64024 0
M  V30 2583 C 241.873 -0.729848 -3.28899 0
M  V30 2584 O 242.403 0.0949217 -4.01588 0
M  V30 2585 N 240.609 -0.561283 -2.85128 0
M  V30 2586 H 240.156 -1.23357 -2.26143 0
M  V30 2587 H 240.114 0.2595 -3.13327 0
M  V30 2588 N 243.887 0.651787 -1.4349 0
M  V30 2589 C 244.797 1.79368 -1.5121 0
M  V30 2590 C 245.813 1.69361 -0.399093 0
M  V30 2591 O 246.989 1.90505 -0.653431 0
M  V30 2592 C 244.054 3.15653 -1.43401 0
M  V30 2593 C 243.115 3.37446 -2.65384 0
M  V30 2594 C 242.348 4.67229 -2.57939 0
M  V30 2595 O 242.571 5.46676 -1.62792 0
M  V30 2596 O 241.505 4.90773 -3.48462 0
M  V30 2597 H 245.331 1.7581 -2.47638 0
M  V30 2598 H 242.916 0.810447 -1.25507 0
M  V30 2599 H 244.798 3.96935 -1.41494 0
M  V30 2600 H 243.473 3.19798 -0.501085 0
M  V30 2601 H 242.38 2.55923 -2.72863 0
M  V30 2602 H 243.713 3.38148 -3.57654 0
M  V30 2603 N 245.365 1.30045 0.890287 0
M  V30 2604 C 246.275 1.17885 2.02831 0
M  V30 2605 C 247.291 0.0999609 1.73713 0
M  V30 2606 O 248.467 0.313867 1.98939 0
M  V30 2607 C 245.532 0.866079 3.35708 0
M  V30 2608 C 244.593 2.02979 3.78283 0
M  V30 2609 C 243.826 1.73184 5.0482 0
M  V30 2610 O 244.049 0.657237 5.66601 0
M  V30 2611 O 242.983 2.58267 5.43674 0
M  V30 2612 H 246.809 2.13474 2.16015 0
M  V30 2613 H 244.394 1.09587 1.01543 0
M  V30 2614 H 246.276 0.706623 4.15433 0
M  V30 2615 H 244.951 -0.0599443 3.23644 0
M  V30 2616 H 243.858 2.24454 2.99285 0
M  V30 2617 H 245.191 2.93734 3.94944 0
M  V30 2618 N 246.843 -1.10192 1.12674 0
M  V30 2619 C 247.773 -2.18652 0.819362 0
M  V30 2620 C 248.754 -1.68698 -0.217915 0
M  V30 2621 O 249.939 -1.94041 -0.0785581 0
M  V30 2622 C 247.069 -3.46202 0.27594 0
M  V30 2623 C 246.023 -4.09444 1.24656 0
M  V30 2624 C 245.349 -5.31725 0.563258 0
M  V30 2625 C 246.649 -4.52863 2.60217 0
M  V30 2626 H 248.343 -2.44622 1.72628 0
M  V30 2627 H 245.889 -1.17571 0.831451 0
M  V30 2628 H 247.842 -4.21372 0.0486149 0
M  V30 2629 H 246.566 -3.1973 -0.666331 0
M  V30 2630 H 245.225 -3.36284 1.45974 0
M  V30 2631 H 244.873 -5.0153 -0.384235 0
M  V30 2632 H 244.573 -5.74991 1.21075 0
M  V30 2633 H 246.097 -6.09624 0.34503 0
M  V30 2634 H 247.511 -5.19294 2.42913 0
M  V30 2635 H 245.908 -5.06986 3.21068 0
M  V30 2636 H 246.978 -3.65656 3.18471 0
M  V30 2637 N 248.321 -0.919034 -1.28029 0
M  V30 2638 C 249.568 -0.554934 -1.94748 0
M  V30 2639 C 249.896 0.90231 -1.72304 0
M  V30 2640 O 249.151 1.65767 -1.04018 0
M  V30 2641 C 249.45 -0.816855 -3.4794 0
M  V30 2642 C 249.116 -2.25448 -3.90492 0
M  V30 2643 C 247.778 -2.64752 -4.01821 0
M  V30 2644 C 250.13 -3.18977 -4.12193 0
M  V30 2645 C 247.458 -3.96727 -4.32232 0
M  V30 2646 C 249.81 -4.50523 -4.44086 0
M  V30 2647 C 248.474 -4.89673 -4.53626 0
M  V30 2648 H 247.744 -0.203065 -0.712633 0
M  V30 2649 H 250.391 -1.16136 -1.52265 0
M  V30 2650 H 248.696 -0.127677 -3.91592 0
M  V30 2651 H 250.393 -0.514238 -3.97689 0
M  V30 2652 H 246.983 -1.93952 -3.82205 0
M  V30 2653 H 251.167 -2.89817 -4.02889 0
M  V30 2654 H 246.423 -4.26754 -4.37825 0
M  V30 2655 H 250.597 -5.23005 -4.59825 0
M  V30 2656 H 248.224 -5.91969 -4.76946 0
M  V30 2657 N 249.799 1.42003 -0.683588 0
M  V30 2658 C 251.076 1.95112 -0.138075 0
M  V30 2659 C 251.456 1.62359 1.34918 0
M  V30 2660 O 250.804 0.924311 2.08971 0
M  V30 2661 C 251.014 3.46505 -0.416581 0
M  V30 2662 C 252.362 4.23254 -0.337834 0
M  V30 2663 O 253.386 3.54468 -0.35082 0
M  V30 2664 O 252.245 5.45743 -0.287596 0
M  V30 2665 H 249.339 0.826961 -0.00797996 0
M  V30 2666 H 251.885 1.51784 -0.758924 0
M  V30 2667 H 250.657 3.63582 -1.4465 0
M  V30 2668 H 250.28 3.969 0.235839 0
M  V30 2669 N 251.277 0.427512 1.51691 0
M  V30 2670 C 252.207 -0.3796 2.30394 0
M  V30 2671 C 253.188 -1.02982 1.35384 0
M  V30 2672 O 254.373 -1.03534 1.643 0
M  V30 2673 C 251.503 -1.48649 3.1388 0
M  V30 2674 C 250.457 -0.960294 4.17088 0
M  V30 2675 C 249.783 -2.16219 4.89033 0
M  V30 2676 C 251.083 -0.00153679 5.223 0
M  V30 2677 H 252.777 0.277164 2.98114 0
M  V30 2678 H 250.323 0.134739 1.43368 0
M  V30 2679 H 252.276 -2.05826 3.67714 0
M  V30 2680 H 251 -2.1714 2.43962 0
M  V30 2681 H 249.659 -0.410806 3.64291 0
M  V30 2682 H 249.307 -2.83307 4.15628 0
M  V30 2683 H 249.007 -1.81654 5.58816 0
M  V30 2684 H 250.531 -2.73968 5.45687 0
M  V30 2685 H 251.945 -0.482687 5.71264 0
M  V30 2686 H 250.342 0.256199 5.99553 0
M  V30 2687 H 251.412 0.938174 4.75738 0
M  V30 2688 N 252.755 -1.56801 0.158532 0
M  V30 2689 C 253.685 -2.20347 -0.772609 0
M  V30 2690 C 254.666 -1.15518 -1.24859 0
M  V30 2691 O 255.851 -1.43902 -1.30406 0
M  V30 2692 C 252.981 -2.83417 -2.00729 0
M  V30 2693 C 251.935 -3.94174 -1.66765 0
M  V30 2694 C 251.261 -4.44233 -2.97592 0
M  V30 2695 C 252.561 -5.14392 -0.905447 0
M  V30 2696 H 254.255 -2.98413 -0.242959 0
M  V30 2697 H 251.801 -1.43537 -0.115419 0
M  V30 2698 H 253.754 -3.26543 -2.6636 0
M  V30 2699 H 252.478 -2.02701 -2.56086 0
M  V30 2700 H 251.137 -3.51684 -1.03508 0
M  V30 2701 H 250.785 -3.60325 -3.50963 0
M  V30 2702 H 250.485 -5.18945 -2.75626 0
M  V30 2703 H 252.009 -4.90037 -3.64274 0
M  V30 2704 H 253.423 -5.5429 -1.46408 0
M  V30 2705 H 251.82 -5.9494 -0.7853 0
M  V30 2706 H 252.89 -4.84795 0.100668 0
M  V30 2707 N 254.233 0.115231 -1.57178 0
M  V30 2708 C 255.181 1.16014 -2.01602 0
M  V30 2709 C 256.175 1.42653 -0.913587 0
M  V30 2710 O 257.381 1.42571 -1.09879 0
M  V30 2711 H 253.756 0.391252 -0.642204 0
M  V30 2712 H 255.727 0.758998 -2.88586 0
M  V30 2713 C 254.476 2.47767 -2.4394 0
M  V30 2714 H 253.799 2.28108 -3.28339 0
M  V30 2715 H 255.239 3.19432 -2.78818 0
M  V30 2716 C 253.698 3.10617 -1.30455 0
M  V30 2717 O 254.228 3.96846 -0.622585 0
M  V30 2718 N 252.434 2.70553 -1.06064 0
M  V30 2719 H 251.981 2.00527 -1.61699 0
M  V30 2720 H 251.939 3.12934 -0.303284 0
M  V30 2721 N 255.711 1.52812 0.385517 0
M  V30 2722 C 257.122 1.5993 0.963293 0
M  V30 2723 C 257.473 0.454302 1.90868 0
M  V30 2724 O 256.598 -0.422132 2.12243 0
M  V30 2725 C 257.193 2.89871 1.75387 0
M  V30 2726 C 255.752 2.99389 2.28129 0
M  V30 2727 C 254.899 2.55071 1.08783 0
M  V30 2728 H 257.85 1.5784 0.164948 0
M  V30 2729 H 257.871 2.76553 2.61341 0
M  V30 2730 H 257.383 3.73186 1.06554 0
M  V30 2731 H 255.484 2.20619 3.00263 0
M  V30 2732 H 255.597 4.04096 2.57377 0
M  V30 2733 H 253.961 2.09473 1.4489 0
M  V30 2734 H 254.744 3.40785 0.414807 0
M  V30 2735 N 257.189 -0.644168 1.43834 0
M  V30 2736 C 258.414 -1.43642 1.49605 0
M  V30 2737 C 258.839 -1.8773 0.117913 0
M  V30 2738 O 258.197 -1.57938 -0.890239 0
M  V30 2739 C 258.245 -2.6416 2.45463 0
M  V30 2740 O 257.349 -3.63538 1.94714 0
M  V30 2741 H 256.69 -0.430329 0.50568 0
M  V30 2742 H 259.22 -0.787448 1.8884 0
M  V30 2743 H 259.23 -3.11864 2.63068 0
M  V30 2744 H 257.905 -2.31414 3.45572 0
M  V30 2745 H 256.482 -3.2273 1.86814 0
M  V30 2746 N 258.668 -1.30515 -0.883378 0
M  V30 2747 C 259.893 -1.22487 -1.67367 0
M  V30 2748 C 260.318 0.208767 -1.86938 0
M  V30 2749 O 259.676 1.15015 -1.40148 0
M  V30 2750 C 259.724 -1.96041 -3.02655 0
M  V30 2751 O 258.828 -1.28859 -3.91751 0
M  V30 2752 H 258.169 -0.423573 -0.511353 0
M  V30 2753 H 260.699 -1.72362 -1.10239 0
M  V30 2754 H 260.709 -2.05124 -3.52687 0
M  V30 2755 H 259.384 -3.00307 -2.8773 0
M  V30 2756 H 257.961 -1.28141 -3.50192 0
M  V30 2757 N 260.146 1.09593 -1.13257 0
M  V30 2758 C 261.423 1.78293 -0.804432 0
M  V30 2759 C 261.803 1.99004 0.70431 0
M  V30 2760 O 261.151 1.59007 1.641 0
M  V30 2761 C 261.361 3.10707 -1.5894 0
M  V30 2762 C 262.709 3.85443 -1.78099 0
M  V30 2763 O 263.733 3.20454 -1.55525 0
M  V30 2764 O 262.592 5.02108 -2.15753 0
M  V30 2765 H 259.686 0.773156 -0.293528 0
M  V30 2766 H 262.232 1.16164 -1.23709 0
M  V30 2767 H 261.004 2.91106 -2.61482 0
M  V30 2768 H 260.627 3.80558 -1.15157 0
M  V30 2769 N 261.624 0.925811 1.2754 0
M  V30 2770 C 262.87 0.566092 1.94739 0
M  V30 2771 C 263.203 -0.890057 1.72603 0
M  V30 2772 O 262.478 -1.63467 1.05399 0
M  V30 2773 C 262.761 0.89054 3.48915 0
M  V30 2774 C 262.614 2.4003 3.80402 0
M  V30 2775 C 263.933 0.395101 4.38323 0
M  V30 2776 H 261.052 0.20714 0.707292 0
M  V30 2777 H 263.694 1.15725 1.50691 0
M  V30 2778 H 261.844 0.387452 3.86563 0
M  V30 2779 H 263.516 2.97494 3.52555 0
M  V30 2780 H 261.759 2.85028 3.2702 0
M  V30 2781 H 262.43 2.57785 4.8811 0
M  V30 2782 H 264.906 0.826241 4.07814 0
M  V30 2783 H 263.782 0.651086 5.45025 0
M  V30 2784 H 264.043 -0.704798 4.36446 0
M  V30 2785 N 263.102 -1.41638 0.69111 0
M  V30 2786 C 264.327 -2.06148 0.227583 0
M  V30 2787 C 264.752 -1.51652 -1.11281 0
M  V30 2788 O 264.11 -0.64164 -1.69566 0
M  V30 2789 C 264.158 -3.60095 0.190858 0
M  V30 2790 O 263.262 -4.03845 -0.835664 0
M  V30 2791 H 262.603 -0.654434 0.112306 0
M  V30 2792 H 265.133 -1.81484 0.944714 0
M  V30 2793 H 265.143 -4.07995 0.020207 0
M  V30 2794 H 263.818 -3.99129 1.16915 0
M  V30 2795 H 262.395 -3.67458 -0.63473 0
M  V30 2796 N 264.58 -0.43555 -1.51462 0
M  V30 2797 C 265.49 0.383001 -2.31453 0
M  V30 2798 C 266.506 1.02931 -1.4029 0
M  V30 2799 O 267.682 1.02507 -1.73362 0
M  V30 2800 C 264.747 1.47043 -3.13973 0
M  V30 2801 C 263.808 0.844433 -4.20913 0
M  V30 2802 C 263.041 1.88004 -4.9949 0
M  V30 2803 O 263.264 3.10199 -4.78678 0
M  V30 2804 O 262.198 1.47157 -5.83634 0
M  V30 2805 H 266.024 -0.269964 -3.02498 0
M  V30 2806 H 263.609 -0.19813 -1.4808 0
M  V30 2807 H 265.491 2.10113 -3.65281 0
M  V30 2808 H 264.166 2.10751 -2.45695 0
M  V30 2809 H 263.073 0.175729 -3.73687 0
M  V30 2810 H 264.406 0.250869 -4.9156 0
M  V30 2811 N 266.058 1.56714 -0.166846 0
M  V30 2812 C 267.474 1.58473 0.189372 0
M  V30 2813 C 267.674 1.18201 1.63189 0
M  V30 2814 O 266.73 0.891528 2.36237 0
M  V30 2815 C 268.043 3.00573 -0.0873872 0
M  V30 2816 C 269.591 3.1299 -0.0252443 0
M  V30 2817 C 270.066 4.57174 -0.274934 0
M  V30 2818 N 271.557 4.62665 -0.222553 0
M  V30 2819 C 272.292 5.72072 -0.389985 0
M  V30 2820 N 271.788 6.90054 -0.616229 0
M  V30 2821 N 273.581 5.61153 -0.326202 0
M  V30 2822 H 265.732 1.8118 -1.10849 0
M  V30 2823 H 267.995 0.839525 -0.440342 0
M  V30 2824 H 267.701 3.34497 -1.0865 0
M  V30 2825 H 267.575 3.72019 0.623037 0
M  V30 2826 H 269.962 2.78895 0.96444 0
M  V30 2827 H 270.043 2.43989 -0.768309 0
M  V30 2828 H 269.687 4.91976 -1.26181 0
M  V30 2829 H 269.617 5.24328 0.48869 0
M  V30 2830 H 272.108 3.77863 -0.0531512 0
M  V30 2831 H 272.421 7.69311 -0.733559 0
M  V30 2832 H 270.766 6.91927 -0.652791 0
M  V30 2833 H 273.957 4.67859 -0.150072 0
M  V30 2834 H 274.13 6.46364 -0.460116 0
M  V30 2835 N 267.536 -0.106894 1.57237 0
M  V30 2836 C 268.466 -1.13148 2.04254 0
M  V30 2837 C 269.447 -1.42476 0.929224 0
M  V30 2838 O 270.632 -1.52709 1.19973 0
M  V30 2839 C 267.762 -2.4545 2.45706 0
M  V30 2840 C 266.716 -2.30558 3.60592 0
M  V30 2841 C 266.042 -3.67931 3.87983 0
M  V30 2842 C 267.342 -1.75597 4.91897 0
M  V30 2843 H 269.036 -0.740374 2.90101 0
M  V30 2844 H 266.582 -0.354696 1.39563 0
M  V30 2845 H 268.535 -3.17389 2.77205 0
M  V30 2846 H 267.259 -2.86475 1.56843 0
M  V30 2847 H 265.918 -1.61067 3.29322 0
M  V30 2848 H 265.566 -4.06462 2.96306 0
M  V30 2849 H 265.266 -3.58817 4.65322 0
M  V30 2850 H 266.79 -4.41356 4.21945 0
M  V30 2851 H 268.204 -2.37364 5.21854 0
M  V30 2852 H 266.601 -1.77272 5.73319 0
M  V30 2853 H 267.671 -0.714451 4.79608 0
M  V30 2854 N 269.014 -1.53014 -0.377408 0
M  V30 2855 C 269.946 -1.74884 -1.48149 0
M  V30 2856 C 270.959 -0.629433 -1.5014 0
M  V30 2857 O 272.148 -0.905416 -1.53833 0
M  V30 2858 C 269.248 -1.80299 -2.86959 0
M  V30 2859 C 268.421 -3.09776 -3.08801 0
M  V30 2860 C 267.48 -3.06586 -4.27658 0
M  V30 2861 O 266.506 -3.80419 -4.23403 0
M  V30 2862 N 267.708 -2.26578 -5.34455 0
M  V30 2863 H 270.473 -2.70147 -1.29771 0
M  V30 2864 H 268.034 -1.51646 -0.56703 0
M  V30 2865 H 270.026 -1.75657 -3.64591 0
M  V30 2866 H 268.596 -0.92372 -2.98641 0
M  V30 2867 H 267.816 -3.27815 -2.18931 0
M  V30 2868 H 269.104 -3.95366 -3.20255 0
M  V30 2869 H 268.502 -1.66081 -5.40771 0
M  V30 2870 H 267.059 -2.27766 -6.10709 0
M  V30 2871 N 270.492 0.636531 -1.44174 0
M  V30 2872 C 271.425 1.76139 -1.45087 0
M  V30 2873 C 272.403 1.59611 -0.310326 0
M  V30 2874 O 273.587 1.81568 -0.506477 0
M  V30 2875 C 270.714 3.13648 -1.27839 0
M  V30 2876 C 269.76 3.48838 -2.45386 0
M  V30 2877 S 270.593 3.46927 -4.07924 0
M  V30 2878 C 271.749 4.87064 -3.9309 0
M  V30 2879 H 271.982 1.75096 -2.40268 0
M  V30 2880 H 269.515 0.810666 -1.31406 0
M  V30 2881 H 271.473 3.93002 -1.18575 0
M  V30 2882 H 270.134 3.12235 -0.341787 0
M  V30 2883 H 269.327 4.48886 -2.29167 0
M  V30 2884 H 268.929 2.76935 -2.51362 0
M  V30 2885 H 271.221 5.76153 -3.56446 0
M  V30 2886 H 272.164 5.08337 -4.92949 0
M  V30 2887 H 272.572 4.61384 -3.25246 0
M  V30 2888 N 271.97 1.30982 0.876444 0
M  V30 2889 C 273.217 1.20296 1.62896 0
M  V30 2890 C 273.545 -0.240395 1.93009 0
M  V30 2891 O 272.8 -1.18733 1.55567 0
M  V30 2892 C 273.099 1.98572 2.9716 0
M  V30 2893 C 272.765 3.48125 2.86566 0
M  V30 2894 C 271.427 3.88905 2.83383 0
M  V30 2895 C 273.779 4.43322 2.74071 0
M  V30 2896 C 271.107 5.2316 2.65556 0
M  V30 2897 C 273.459 5.77695 2.57781 0
M  V30 2898 C 272.123 6.17704 2.52979 0
M  V30 2899 H 271.393 0.440193 0.59608 0
M  V30 2900 H 274.04 1.62177 1.01837 0
M  V30 2901 H 272.345 1.49352 3.62217 0
M  V30 2902 H 274.042 1.8769 3.54364 0
M  V30 2903 H 270.632 3.15723 2.89856 0
M  V30 2904 H 274.816 4.12752 2.75589 0
M  V30 2905 H 270.072 5.53241 2.60259 0
M  V30 2906 H 274.246 6.51091 2.47089 0
M  V30 2907 H 271.873 7.21678 2.38924 0
M  V30 2908 N 273.449 -1.08991 1.13837 0
M  V30 2909 C 274.726 -1.77863 0.813876 0
M  V30 2910 C 275.106 -1.99375 -0.693746 0
M  V30 2911 O 274.454 -1.59875 -1.63255 0
M  V30 2912 C 274.664 -3.0986 1.60586 0
M  V30 2913 C 276.012 -3.84493 1.8014 0
M  V30 2914 O 277.036 -3.19624 1.57222 0
M  V30 2915 O 275.895 -5.00957 2.18413 0
M  V30 2916 H 272.989 -0.771589 0.297624 0
M  V30 2917 H 275.535 -1.15507 1.24323 0
M  V30 2918 H 274.307 -2.89715 2.63022 0
M  V30 2919 H 273.93 -3.79942 1.17173 0
M  V30 2920 N 274.927 -0.932562 -1.27047 0
M  V30 2921 C 276.204 -0.49377 -1.89265 0
M  V30 2922 C 276.584 1.02833 -1.8436 0
M  V30 2923 O 275.932 1.88461 -1.29209 0
M  V30 2924 C 276.142 -1.04536 -3.32976 0
M  V30 2925 C 277.49 -1.10879 -4.09867 0
M  V30 2926 O 278.514 -0.995327 -3.42011 0
M  V30 2927 O 277.373 -1.28417 -5.31198 0
M  V30 2928 H 274.467 -0.159596 -0.811454 0
M  V30 2929 H 277.013 -1.02457 -1.3528 0
M  V30 2930 H 275.785 -2.08913 -3.30864 0
M  V30 2931 H 275.408 -0.496494 -3.94488 0
M  V30 2932 N 276.405 1.4127 -0.698611 0
M  V30 2933 C 277.816 1.84187 -0.305289 0
M  V30 2934 C 278.167 1.58449 1.15708 0
M  V30 2935 O 277.292 1.05651 1.88856 0
M  V30 2936 C 277.887 3.3435 -0.547314 0
M  V30 2937 C 276.446 3.75826 -0.207878 0
M  V30 2938 C 275.593 2.64647 -0.828099 0
M  V30 2939 H 278.544 1.30778 -0.89904 0
M  V30 2940 H 278.565 3.8001 0.192998 0
M  V30 2941 H 278.077 3.53051 -1.61172 0
M  V30 2942 H 276.178 3.62725 0.852143 0
M  V30 2943 H 276.291 4.74462 -0.665021 0
M  V30 2944 H 274.655 2.53395 -0.257458 0
M  V30 2945 H 275.438 2.86165 -1.89643 0
M  V30 2946 N 277.883 0.443576 1.51229 0
M  V30 2947 C 279.299 0.0962001 1.5931 0
M  V30 2948 C 279.499 -1.39501 1.45402 0
M  V30 2949 O 278.555 -2.16557 1.29843 0
M  V30 2950 C 279.868 0.621875 2.94199 0
M  V30 2951 C 281.416 0.582865 3.07525 0
M  V30 2952 C 281.891 1.08562 4.44948 0
M  V30 2953 N 283.382 1.04387 4.51284 0
M  V30 2954 C 284.117 1.40368 5.55954 0
M  V30 2955 N 283.613 1.83664 6.68011 0
M  V30 2956 N 285.406 1.32145 5.46346 0
M  V30 2957 H 277.557 1.41376 1.58514 0
M  V30 2958 H 279.82 0.582965 0.747567 0
M  V30 2959 H 279.526 1.66546 3.09767 0
M  V30 2960 H 279.4 0.0502125 3.77167 0
M  V30 2961 H 281.787 -0.451749 2.91622 0
M  V30 2962 H 281.868 1.191 2.26382 0
M  V30 2963 H 281.512 2.11873 4.61598 0
M  V30 2964 H 281.442 0.453956 5.2464 0
M  V30 2965 H 283.933 0.725986 3.70861 0
M  V30 2966 H 284.246 2.0934 7.43906 0
M  V30 2967 H 282.591 1.87596 6.69203 0
M  V30 2968 H 285.782 0.981808 4.57688 0
M  V30 2969 H 285.955 1.60514 6.27805 0
M  V30 2970 N 279.361 -1.56624 0.175154 0
M  V30 2971 C 280.309 -2.19468 -0.770495 0
M  V30 2972 C 281.303 -1.15985 -1.23466 0
M  V30 2973 O 282.509 -1.34176 -1.19987 0
M  V30 2974 H 278.884 -0.703095 -0.266761 0
M  V30 2975 H 280.855 -2.97613 -0.216542 0
M  V30 2976 C 279.604 -2.85264 -1.98796 0
M  V30 2977 H 278.927 -3.64623 -1.63983 0
M  V30 2978 H 280.367 -3.327 -2.62843 0
M  V30 2979 C 278.826 -1.85239 -2.81404 0
M  V30 2980 O 279.356 -1.34024 -3.78682 0
M  V30 2981 N 277.562 -1.53911 -2.46495 0
M  V30 2982 H 277.109 -1.95751 -1.67449 0
M  V30 2983 H 277.067 -0.872382 -3.02054 0
M  V30 2984 N 280.839 0.0985539 -1.57292 0
M  V30 2985 C 281.786 1.11981 -2.01814 0
M  V30 2986 C 282.756 1.39999 -0.89384 0
M  V30 2987 O 283.941 1.5152 -1.15958 0
M  V30 2988 C 281.081 2.43577 -2.44467 0
M  V30 2989 C 280.194 2.2232 -3.70402 0
M  V30 2990 C 279.329 3.4729 -4.01949 0
M  V30 2991 C 278.368 3.2128 -5.21005 0
M  V30 2992 N 277.505 4.38507 -5.48321 0
M  V30 2993 H 282.345 0.733149 -2.88841 0
M  V30 2994 H 279.882 0.350482 -1.42864 0
M  V30 2995 H 281.84 3.20373 -2.6724 0
M  V30 2996 H 280.47 2.80097 -1.60455 0
M  V30 2997 H 279.522 1.36343 -3.55126 0
M  V30 2998 H 280.834 1.99089 -4.57345 0
M  V30 2999 H 279.988 4.32495 -4.25479 0
M  V30 3000 H 278.727 3.73572 -3.13521 0
M  V30 3001 H 277.732 2.34468 -4.97298 0
M  V30 3002 H 278.957 2.96348 -6.11028 0
M  V30 3003 H 276.903 4.64871 -4.62851 0
M  V30 3004 H 276.82 4.18455 -6.29628 0
M  V30 3005 H 278.088 5.24787 -5.76385 0
M  V30 3006 N 282.317 1.53212 0.369288 0
M  V30 3007 C 283.733 1.42902 0.710712 0
M  V30 3008 C 283.933 0.565135 1.93413 0
M  V30 3009 O 282.989 0.0461484 2.52458 0
M  V30 3010 C 284.302 2.86042 0.927382 0
M  V30 3011 C 285.85 2.9565 1.02762 0
M  V30 3012 C 286.325 4.39843 1.27679 0
M  V30 3013 N 287.816 4.43256 1.34457 0
M  V30 3014 C 288.551 5.51929 1.55439 0
M  V30 3015 N 288.047 6.70655 1.73762 0
M  V30 3016 N 289.84 5.39502 1.57779 0
M  V30 3017 H 281.991 2.07888 -0.435457 0
M  V30 3018 H 284.254 0.938661 -0.132739 0
M  V30 3019 H 283.96 3.51557 0.100287 0
M  V30 3020 H 283.834 3.29472 1.83653 0
M  V30 3021 H 286.221 2.30291 1.84527 0
M  V30 3022 H 286.302 2.5562 0.0959504 0
M  V30 3023 H 285.946 5.05774 0.464175 0
M  V30 3024 H 285.876 4.77443 2.22162 0
M  V30 3025 H 288.367 3.5769 1.21926 0
M  V30 3026 H 288.68 7.49248 1.89335 0
M  V30 3027 H 287.025 6.73648 1.70948 0
M  V30 3028 H 290.216 4.45713 1.43029 0
M  V30 3029 H 290.389 6.2426 1.7379 0
M  V30 3030 N 283.795 -0.628877 1.44509 0
M  V30 3031 C 285.043 -1.38565 1.4712 0
M  V30 3032 C 285.364 -1.94712 0.105899 0
M  V30 3033 O 284.634 -1.75912 -0.862079 0
M  V30 3034 H 283.214 -0.514333 0.541729 0
M  V30 3035 H 285.876 -0.740018 1.80305 0
M  V30 3036 H 284.972 -2.21583 2.19789 0
M  V30 3037 N 285.273 -1.31445 -0.869486 0
M  V30 3038 C 286.519 -1.21337 -1.62496 0
M  V30 3039 C 286.852 0.227872 -1.92858 0
M  V30 3040 O 286.127 1.16094 -1.56053 0
M  V30 3041 C 286.41 -2.05814 -2.95487 0
M  V30 3042 C 286.263 -3.5824 -2.72 0
M  V30 3043 C 287.582 -1.9079 -3.96594 0
M  V30 3044 H 284.701 -0.442135 -0.589649 0
M  V30 3045 H 287.343 -1.6124 -1.00507 0
M  V30 3046 H 285.493 -1.71913 -3.48394 0
M  V30 3047 H 287.165 -4.0228 -2.25762 0
M  V30 3048 H 285.408 -3.81647 -2.06224 0
M  V30 3049 H 286.079 -4.12657 -3.66631 0
M  V30 3050 H 288.555 -2.20459 -3.52898 0
M  V30 3051 H 287.431 -2.52199 -4.87531 0
M  V30 3052 H 287.692 -0.871341 -4.33428 0
M  V30 3053 N 286.751 1.08385 -1.14413 0
M  V30 3054 C 288 1.80153 -0.907076 0
M  V30 3055 C 288.313 1.87176 0.567851 0
M  V30 3056 O 289.519 2.55359 0.922172 0
M  V30 3057 C 287.975 3.23687 -1.57336 0
M  V30 3058 C 287.583 3.24897 -3.08457 0
M  V30 3059 C 289.327 4.00136 -1.41744 0
M  V30 3060 C 287.234 4.6302 -3.67921 0
M  V30 3061 H 286.164 0.675139 -0.335714 0
M  V30 3062 H 288.815 1.21733 -1.37307 0
M  V30 3063 H 287.197 3.82234 -1.03505 0
M  V30 3064 H 288.371 2.76055 -3.68958 0
M  V30 3065 H 286.686 2.61943 -3.2369 0
M  V30 3066 H 289.283 5.02201 -1.83572 0
M  V30 3067 H 289.626 4.14709 -0.363576 0
M  V30 3068 H 290.159 3.48058 -1.92614 0
M  V30 3069 H 286.898 4.5365 -4.73161 0
M  V30 3070 H 286.418 5.12143 -3.12201 0
M  V30 3071 H 288.097 5.31994 -3.68227 0
M  V30 3072 N 288.23 0.939286 1.26551 0
M  V30 3073 C 289.479 0.581601 1.93133 0
M  V30 3074 C 289.792 -0.883224 1.74524 0
M  V30 3075 O 290.998 -1.3502 2.35546 0
M  V30 3076 C 289.454 0.989425 3.46032 0
M  V30 3077 C 289.062 2.47573 3.73379 0
M  V30 3078 C 290.806 0.703544 4.18629 0
M  V30 3079 C 288.713 2.82235 5.19709 0
M  V30 3080 H 287.643 0.213803 0.723052 0
M  V30 3081 H 290.294 1.14167 1.4366 0
M  V30 3082 H 288.676 0.357902 3.94379 0
M  V30 3083 H 289.85 3.15614 3.35744 0
M  V30 3084 H 288.165 2.73471 3.1401 0
M  V30 3085 H 290.762 0.938869 5.26393 0
M  V30 3086 H 291.105 -0.359639 4.14744 0
M  V30 3087 H 291.638 1.2947 3.76141 0
M  V30 3088 H 288.377 3.87509 5.28694 0
M  V30 3089 H 287.897 2.18854 5.58447 0
M  V30 3090 H 289.576 2.70599 5.87695 0
M  V30 3091 N 289.708 -1.40897 0.706093 0
M  V30 3092 C 290.655 -2.30751 0.0474474 0
M  V30 3093 C 291.625 -1.47678 -0.76029 0
M  V30 3094 O 292.81 -1.76441 -0.726177 0
M  V30 3095 C 289.95 -3.33815 -0.875309 0
M  V30 3096 C 289.063 -4.31961 -0.0580623 0
M  V30 3097 C 288.198 -5.22093 -0.979425 0
M  V30 3098 C 287.237 -6.11902 -0.155706 0
M  V30 3099 N 286.374 -6.94482 -1.03144 0
M  V30 3100 H 291.214 -2.86513 0.819413 0
M  V30 3101 H 288.751 -1.41102 0.415783 0
M  V30 3102 H 290.709 -3.92129 -1.42446 0
M  V30 3103 H 289.339 -2.79579 -1.61356 0
M  V30 3104 H 288.391 -3.75507 0.608147 0
M  V30 3105 H 289.703 -4.95415 0.580082 0
M  V30 3106 H 288.857 -5.85292 -1.59744 0
M  V30 3107 H 287.596 -4.5889 -1.65141 0
M  V30 3108 H 286.601 -5.47742 0.475309 0
M  V30 3109 H 287.826 -6.77162 0.512635 0
M  V30 3110 H 285.772 -6.33877 -1.68924 0
M  V30 3111 H 285.689 -7.54665 -0.449108 0
M  V30 3112 H 286.957 -7.6214 -1.63593 0
M  V30 3113 N 291.186 -0.45159 -1.50991 0
M  V30 3114 C 292.434 0.109857 -2.01801 0
M  V30 3115 C 292.755 1.41958 -1.3369 0
M  V30 3116 O 292.025 1.9003 -0.475951 0
M  V30 3117 H 290.605 0.0435884 -0.745727 0
M  V30 3118 H 293.267 -0.597557 -1.85514 0
M  V30 3119 H 292.363 0.275489 -3.10882 0
M  V30 3120 N 292.664 1.56529 -0.183458 0
M  V30 3121 C 293.594 2.21549 0.737456 0
M  V30 3122 C 294.575 1.17489 1.23005 0
M  V30 3123 O 295.76 1.45959 1.281 0
M  V30 3124 C 292.89 2.86575 1.96194 0
M  V30 3125 C 291.844 3.96778 1.60473 0
M  V30 3126 C 291.17 4.48911 2.90487 0
M  V30 3127 C 292.47 5.15767 0.823497 0
M  V30 3128 H 294.164 2.98761 0.195453 0
M  V30 3129 H 291.71 1.43702 0.0925686 0
M  V30 3130 H 293.663 3.30739 2.61131 0
M  V30 3131 H 292.387 2.06749 2.52828 0
M  V30 3132 H 291.046 3.53286 0.978997 0
M  V30 3133 H 290.694 3.65862 3.45186 0
M  V30 3134 H 290.394 5.23265 2.67335 0
M  V30 3135 H 291.918 4.95771 3.56432 0
M  V30 3136 H 293.332 5.56549 1.37571 0
M  V30 3137 H 291.729 5.96114 0.690551 0
M  V30 3138 H 292.799 4.84574 -0.177782 0
M  V30 3139 N 294.142 -0.090211 1.57342 0
M  V30 3140 C 295.052 -1.12735 2.05738 0
M  V30 3141 C 296.068 -1.43557 0.983231 0
M  V30 3142 O 297.244 -1.54101 1.29672 0
M  V30 3143 C 294.309 -2.42659 2.47624 0
M  V30 3144 C 293.37 -2.18975 3.69254 0
M  V30 3145 C 292.603 -3.42704 4.09133 0
M  V30 3146 O 292.826 -4.51127 3.49057 0
M  V30 3147 O 291.76 -3.32003 5.02053 0
M  V30 3148 H 295.586 -0.746279 2.94388 0
M  V30 3149 H 293.171 -0.303064 1.46294 0
M  V30 3150 H 295.053 -3.19155 2.7517 0
M  V30 3151 H 293.728 -2.80182 1.62109 0
M  V30 3152 H 292.635 -1.40244 3.46818 0
M  V30 3153 H 293.968 -1.86342 4.55563 0
M  V30 3154 N 295.62 -1.53406 -0.361157 0
M  V30 3155 C 296.53 -1.83122 -1.4664 0
M  V30 3156 C 297.546 -0.719943 -1.58407 0
M  V30 3157 O 298.722 -1.01046 -1.74218 0
M  V30 3158 C 295.787 -2.01891 -2.81853 0
M  V30 3159 C 294.848 -3.25784 -2.79577 0
M  V30 3160 C 294.081 -3.43648 -4.0834 0
M  V30 3161 O 294.304 -2.65714 -5.0473 0
M  V30 3162 O 293.238 -4.37018 -4.13883 0
M  V30 3163 H 297.064 -2.7703 -1.24451 0
M  V30 3164 H 294.649 -1.38841 -0.551678 0
M  V30 3165 H 296.531 -2.15782 -3.61962 0
M  V30 3166 H 295.206 -1.11173 -3.0401 0
M  V30 3167 H 294.113 -3.17312 -1.98151 0
M  V30 3168 H 295.446 -4.16439 -2.62373 0
M  V30 3169 N 297.098 0.621204 -1.44841 0
M  V30 3170 C 298.347 1.37658 -1.47422 0
M  V30 3171 C 298.66 1.95264 -0.114629 0
M  V30 3172 O 299.866 2.71494 -0.0180199 0
M  V30 3173 C 298.322 2.49285 -2.59586 0
M  V30 3174 C 297.93 1.98149 -4.01797 0
M  V30 3175 C 299.674 3.26409 -2.71399 0
M  V30 3176 C 297.581 3.07178 -5.05367 0
M  V30 3177 H 296.511 0.517344 -0.548517 0
M  V30 3178 H 299.162 0.667257 -1.70938 0
M  V30 3179 H 297.544 3.22839 -2.29328 0
M  V30 3180 H 298.718 1.31395 -4.41669 0
M  V30 3181 H 297.033 1.33812 -3.94314 0
M  V30 3182 H 299.63 4.07706 -3.45948 0
M  V30 3183 H 299.973 3.76535 -1.77559 0
M  V30 3184 H 300.506 2.5995 -3.01116 0
M  V30 3185 H 297.245 2.61985 -6.00869 0
M  V30 3186 H 296.765 3.72542 -4.70077 0
M  V30 3187 H 298.444 3.71789 -5.29511 0
M  V30 3188 N 298.576 1.31904 0.862503 0
M  V30 3189 C 299.804 1.24998 1.64873 0
M  V30 3190 C 300.219 -0.183425 1.87907 0
M  V30 3191 O 299.576 -1.11794 1.44251 0
M  V30 3192 C 299.627 1.99829 3.01248 0
M  V30 3193 O 299.348 3.37575 2.79239 0
M  V30 3194 C 300.849 1.99852 3.95694 0
M  V30 3195 H 298.069 0.431599 0.513773 0
M  V30 3196 H 300.613 1.73901 1.07604 0
M  V30 3197 H 298.768 1.54668 3.55185 0
M  V30 3198 H 299.182 3.75776 3.65914 0
M  V30 3199 H 300.656 2.56709 4.88676 0
M  V30 3200 H 301.133 0.982852 4.28062 0
M  V30 3201 H 301.739 2.44926 3.47694 0
M  V30 3202 N 300.054 -1.07777 1.14986 0
M  V30 3203 C 301.3 -1.80557 0.923422 0
M  V30 3204 C 301.633 -1.86298 -0.548337 0
M  V30 3205 O 300.908 -1.34354 -1.40639 0
M  V30 3206 C 301.191 -3.25839 1.53299 0
M  V30 3207 C 301.044 -3.28269 3.07505 0
M  V30 3208 C 302.363 -4.22991 1.21518 0
M  V30 3209 H 299.482 -0.655493 0.336894 0
M  V30 3210 H 302.124 -1.26144 1.42083 0
M  V30 3211 H 300.274 -3.72306 1.10999 0
M  V30 3212 H 301.946 -2.90079 3.58681 0
M  V30 3213 H 300.189 -2.67355 3.4162 0
M  V30 3214 H 300.86 -4.30691 3.45266 0
M  V30 3215 H 303.336 -3.84894 1.581 0
M  V30 3216 H 302.212 -5.22945 1.66793 0
M  V30 3217 H 302.473 -4.41904 0.131505 0
M  V30 3218 N 301.532 -0.945985 -1.26051 0
M  V30 3219 C 302.482 -0.430164 -2.23905 0
M  V30 3220 C 303.466 0.47579 -1.53704 0
M  V30 3221 O 304.658 0.310252 -1.7426 0
M  V30 3222 C 301.787 0.298957 -3.41996 0
M  V30 3223 C 300.873 -0.624566 -4.19476 0
M  V30 3224 N 301.264 -1.75245 -4.74471 0
M  V30 3225 C 299.562 -0.431082 -4.43912 0
M  V30 3226 C 300.263 -2.32834 -5.3307 0
M  V30 3227 N 299.239 -1.61583 -5.1903 0
M  V30 3228 H 303.041 -1.29107 -2.64024 0
M  V30 3229 H 300.555 -0.802428 -1.41191 0
M  V30 3230 H 302.552 0.685565 -4.11225 0
M  V30 3231 H 301.212 1.15657 -3.03403 0
M  V30 3232 H 302.223 -2.13449 -4.71868 0
M  V30 3233 H 298.9 0.384364 -4.15727 0
M  V30 3234 H 300.29 -3.27893 -5.86461 0
M  V30 3235 N 303.011 1.40521 -0.713556 0
M  V30 3236 C 303.959 2.32549 -0.0485227 0
M  V30 3237 C 304.953 1.51931 0.74922 0
M  V30 3238 O 306.159 1.67745 0.652816 0
M  V30 3239 H 302.534 0.751994 0.00311138 0
M  V30 3240 H 304.505 2.86291 -0.841443 0
M  V30 3241 C 303.254 3.36879 0.860687 0
M  V30 3242 H 302.577 3.98978 0.256246 0
M  V30 3243 H 304.017 4.03772 1.294 0
M  V30 3244 C 302.476 2.72197 1.9852 0
M  V30 3245 O 303.006 2.5837 3.07584 0
M  V30 3246 N 301.212 2.30612 1.76823 0
M  V30 3247 H 300.759 2.42059 0.881217 0
M  V30 3248 H 300.717 1.87672 2.52243 0
M  V30 3249 N 304.489 0.459591 1.5075 0
M  V30 3250 C 305.436 -0.340524 2.28274 0
M  V30 3251 C 306.406 -0.997371 1.32822 0
M  V30 3252 O 307.591 -1.01202 1.61749 0
M  V30 3253 C 304.731 -1.42317 3.14388 0
M  V30 3254 C 303.844 -0.782251 4.24859 0
M  V30 3255 C 302.979 -1.84182 4.98247 0
M  V30 3256 C 302.018 -1.18053 6.00608 0
M  V30 3257 N 301.155 -2.18244 6.67319 0
M  V30 3258 H 305.995 0.326899 2.96202 0
M  V30 3259 H 303.532 0.173057 1.46078 0
M  V30 3260 H 305.49 -2.06241 3.62658 0
M  V30 3261 H 304.12 -2.05992 2.4853 0
M  V30 3262 H 303.172 -0.0307404 3.80388 0
M  V30 3263 H 304.484 -0.259663 4.98124 0
M  V30 3264 H 303.638 -2.55714 5.50177 0
M  V30 3265 H 302.377 -2.39819 4.24662 0
M  V30 3266 H 301.382 -0.450776 5.47949 0
M  V30 3267 H 302.607 -0.631202 6.7616 0
M  V30 3268 H 300.553 -2.72919 5.96533 0
M  V30 3269 H 300.47 -1.70938 7.36421 0
M  V30 3270 H 301.738 -2.89191 7.23871 0
M  V30 3271 N 305.967 -1.56429 0.191757 0
M  V30 3272 C 307.244 -1.89224 -0.495332 0
M  V30 3273 C 307.624 -1.10478 -1.79883 0
M  V30 3274 O 306.972 -0.204852 -2.2758 0
M  V30 3275 C 307.182 -3.41548 -0.717367 0
M  V30 3276 C 308.53 -4.11711 -1.03823 0
M  V30 3277 O 309.554 -3.4698 -0.805204 0
M  V30 3278 O 308.413 -5.2611 -1.47887 0
M  V30 3279 H 305.507 -0.785788 -0.25781 0
M  V30 3280 H 308.053 -1.68111 0.231721 0
M  V30 3281 H 306.825 -3.90772 0.203287 0
M  V30 3282 H 306.448 -3.68342 -1.497 0
M  V30 3283 N 307.445 0.0818655 -1.57387 0
M  V30 3284 C 308.355 1.11642 -2.06333 0
M  V30 3285 C 309.371 1.43033 -0.99083 0
M  V30 3286 O 310.547 1.53411 -1.30488 0
M  V30 3287 C 307.612 2.41342 -2.48907 0
M  V30 3288 C 306.673 2.17014 -3.7041 0
M  V30 3289 C 305.906 3.4053 -4.10944 0
M  V30 3290 O 306.129 4.4927 -3.51444 0
M  V30 3291 O 305.063 3.29336 -5.03807 0
M  V30 3292 H 308.889 0.730657 -2.9478 0
M  V30 3293 H 306.474 0.295301 -1.46452 0
M  V30 3294 H 308.356 3.17691 -2.76858 0
M  V30 3295 H 307.031 2.79319 -1.63593 0
M  V30 3296 H 305.938 1.38403 -3.47556 0
M  V30 3297 H 307.271 1.83923 -4.56545 0
M  V30 3298 N 308.923 1.53595 0.353017 0
M  V30 3299 C 310.169 1.70638 1.09593 0
M  V30 3300 C 310.502 0.463286 1.88593 0
M  V30 3301 O 309.777 -0.539597 1.86865 0
M  V30 3302 C 310.06 2.96406 2.04489 0
M  V30 3303 C 309.913 4.30901 1.29014 0
M  V30 3304 C 311.232 3.17812 3.0444 0
M  V30 3305 H 308.351 0.620913 0.397034 0
M  V30 3306 H 310.993 1.86254 0.375446 0
M  V30 3307 H 309.143 2.83223 2.65927 0
M  V30 3308 H 310.815 4.55917 0.702638 0
M  V30 3309 H 309.058 4.29741 0.592071 0
M  V30 3310 H 309.729 5.1506 1.98537 0
M  V30 3311 H 312.205 3.30263 2.53112 0
M  V30 3312 H 311.081 4.07223 3.6805 0
M  V30 3313 H 311.342 2.33669 3.75301 0
M  V30 3314 N 310.401 -0.613514 1.45168 0
M  V30 3315 C 311.631 -1.39743 1.52169 0
M  V30 3316 C 312.039 -1.88596 0.151086 0
M  V30 3317 O 311.382 -1.6251 -0.856521 0
M  V30 3318 C 311.444 -2.64035 2.43979 0
M  V30 3319 C 311.108 -2.36861 3.90827 0
M  V30 3320 C 312.105 -1.97591 4.80889 0
M  V30 3321 C 309.79 -2.49956 4.35692 0
M  V30 3322 C 311.784 -1.71768 6.1382 0
M  V30 3323 C 309.471 -2.23747 5.68665 0
M  V30 3324 C 310.469 -1.84714 6.57548 0
M  V30 3325 O 310.157 -1.58809 7.88058 0
M  V30 3326 H 309.889 -0.434382 0.517966 0
M  V30 3327 H 312.443 -0.75587 1.90986 0
M  V30 3328 H 310.673 -3.3089 2.00122 0
M  V30 3329 H 312.362 -3.26069 2.41731 0
M  V30 3330 H 313.128 -1.87015 4.47493 0
M  V30 3331 H 309.007 -2.79305 3.66756 0
M  V30 3332 H 312.551 -1.41227 6.83155 0
M  V30 3333 H 308.448 -2.33938 6.01617 0
M  V30 3334 H 309.216 -1.7291 8.00028 0
M  V30 3335 N 311.879 -1.3236 -0.855495 0
M  V30 3336 C 312.811 -1.17052 -1.97057 0
M  V30 3337 C 313.824 -0.10574 -1.62456 0
M  V30 3338 O 315.013 -0.354619 -1.74942 0
M  V30 3339 C 312.113 -0.769305 -3.30053 0
M  V30 3340 C 311.286 -1.9222 -3.929 0
M  V30 3341 C 310.345 -1.50466 -5.04228 0
M  V30 3342 O 309.371 -2.21655 -5.24269 0
M  V30 3343 N 310.573 -0.400209 -5.79119 0
M  V30 3344 H 313.338 -2.13103 -2.1073 0
M  V30 3345 H 310.899 -1.24885 -1.0303 0
M  V30 3346 H 312.891 -0.472407 -4.01933 0
M  V30 3347 H 311.461 0.100025 -3.1244 0
M  V30 3348 H 310.681 -2.38563 -3.13817 0
M  V30 3349 H 311.969 -2.69403 -4.31624 0
M  V30 3350 H 311.367 0.192319 -5.65373 0
M  V30 3351 H 309.924 -0.162912 -6.51596 0
M  V30 3352 N 313.357 1.07166 -1.15556 0
M  V30 3353 C 314.606 1.79181 -0.926132 0
M  V30 3354 C 314.919 1.87768 0.547967 0
M  V30 3355 O 316.125 2.56323 0.895036 0
M  V30 3356 C 314.581 3.22 -1.60761 0
M  V30 3357 C 314.189 3.21607 -3.11886 0
M  V30 3358 C 315.933 3.9861 -1.4598 0
M  V30 3359 C 313.84 4.59092 -3.72812 0
M  V30 3360 H 312.77 0.67154 -0.342856 0
M  V30 3361 H 315.421 1.2027 -1.3859 0
M  V30 3362 H 313.803 3.81115 -1.07553 0
M  V30 3363 H 314.977 2.72127 -3.71865 0
M  V30 3364 H 313.292 2.58495 -3.2645 0
M  V30 3365 H 315.889 5.00225 -1.88888 0
M  V30 3366 H 316.232 4.143 -0.407541 0
M  V30 3367 H 316.765 3.45996 -1.96295 0
M  V30 3368 H 313.504 4.48606 -4.77946 0
M  V30 3369 H 313.024 5.08803 -3.17616 0
M  V30 3370 H 314.703 5.28059 -3.73848 0
M  V30 3371 N 314.835 0.952656 1.25548 0
M  V30 3372 C 315.765 0.489287 2.28316 0
M  V30 3373 C 316.746 -0.463359 1.63667 0
M  V30 3374 O 317.931 -0.36274 1.90782 0
M  V30 3375 C 315.061 -0.235603 3.465 0
M  V30 3376 C 314.015 0.631593 4.23314 0
M  V30 3377 C 313.341 -0.223923 5.34231 0
M  V30 3378 C 314.641 1.90871 4.86174 0
M  V30 3379 H 316.335 1.34822 2.67326 0
M  V30 3380 H 313.881 0.649728 1.28509 0
M  V30 3381 H 315.834 -0.570882 4.17515 0
M  V30 3382 H 314.558 -1.12877 3.06474 0
M  V30 3383 H 313.217 0.949929 3.54079 0
M  V30 3384 H 312.865 -1.11678 4.90446 0
M  V30 3385 H 312.565 0.35299 5.86539 0
M  V30 3386 H 314.089 -0.554214 6.0808 0
M  V30 3387 H 315.503 1.63997 5.49343 0
M  V30 3388 H 313.9 2.43112 5.4865 0
M  V30 3389 H 314.97 2.61304 4.08471 0
M  V30 3390 N 316.313 -1.40141 0.720998 0
M  V30 3391 C 317.223 -2.34486 0.0731031 0
M  V30 3392 C 318.239 -1.57587 -0.737723 0
M  V30 3393 O 319.415 -1.89949 -0.669429 0
M  V30 3394 C 316.48 -3.36528 -0.833656 0
M  V30 3395 C 315.541 -4.29298 -0.0121673 0
M  V30 3396 C 314.774 -5.26466 -0.875742 0
M  V30 3397 O 314.997 -5.29745 -2.11485 0
M  V30 3398 O 313.931 -6.01092 -0.31185 0
M  V30 3399 H 317.757 -2.9152 0.851444 0
M  V30 3400 H 315.342 -1.41427 0.481527 0
M  V30 3401 H 317.224 -3.99093 -1.35289 0
M  V30 3402 H 315.899 -2.81899 -1.59105 0
M  V30 3403 H 314.806 -3.70001 0.552262 0
M  V30 3404 H 316.139 -4.87094 0.707129 0
M  V30 3405 N 317.792 -0.46758 -1.50504 0
M  V30 3406 C 318.739 0.328413 -2.28452 0
M  V30 3407 C 319.709 0.990313 -1.33349 0
M  V30 3408 O 320.894 1.00343 -1.62284 0
M  V30 3409 C 318.034 1.40648 -3.15138 0
M  V30 3410 C 317.147 0.759709 -4.25267 0
M  V30 3411 C 316.282 1.81537 -4.99217 0
M  V30 3412 C 315.321 1.14866 -6.01226 0
M  V30 3413 N 314.458 2.14702 -6.68467 0
M  V30 3414 H 319.298 -0.342603 -2.96024 0
M  V30 3415 H 316.835 -0.180801 -1.45985 0
M  V30 3416 H 318.793 2.04315 -3.63746 0
M  V30 3417 H 317.423 2.04671 -2.49619 0
M  V30 3418 H 316.475 0.0105671 -3.80399 0
M  V30 3419 H 317.787 0.233243 -4.98254 0
M  V30 3420 H 316.941 2.52793 -5.51526 0
M  V30 3421 H 315.68 2.37564 -4.25928 0
M  V30 3422 H 314.685 0.42171 -5.4818 0
M  V30 3423 H 315.91 0.595334 -6.76485 0
M  V30 3424 H 313.856 2.69752 -5.97972 0
M  V30 3425 H 313.773 1.6703 -7.37317 0
M  V30 3426 H 315.041 2.85348 -7.25394 0
M  V30 3427 N 319.27 1.56325 -0.20005 0
M  V30 3428 C 320.518 1.97329 0.436547 0
M  V30 3429 C 320.839 1.08826 1.61808 0
M  V30 3430 O 320.109 0.160604 1.95241 0
M  V30 3431 H 318.689 0.728714 0.164272 0
M  V30 3432 H 321.351 1.92761 -0.287937 0
M  V30 3433 H 320.447 3.02264 0.777353 0
M  V30 3434 N 320.748 -0.0735177 1.57428 0
M  V30 3435 C 321.711 -1.07192 2.02589 0
M  V30 3436 C 322.711 -1.31695 0.922661 0
M  V30 3437 O 323.901 -1.27445 1.18758 0
M  V30 3438 C 321.033 -2.41599 2.40506 0
M  V30 3439 H 322.226 -0.682727 2.92025 0
M  V30 3440 H 319.779 -0.319193 1.53006 0
M  V30 3441 H 320.514 -2.85354 1.5409 0
M  V30 3442 H 320.299 -2.25156 3.21009 0
M  V30 3443 H 321.789 -3.13367 2.76027 0
M  V30 3444 N 322.226 -1.5378 -0.344866 0
M  V30 3445 C 323.189 -1.80981 -1.40637 0
M  V30 3446 C 324.189 -0.680816 -1.45676 0
M  V30 3447 O 325.379 -0.949095 -1.46075 0
M  V30 3448 C 322.511 -1.95063 -2.79577 0
M  V30 3449 H 323.704 -2.75803 -1.17783 0
M  V30 3450 H 321.257 -1.45173 -0.579181 0
M  V30 3451 H 321.992 -1.02379 -3.07716 0
M  V30 3452 H 321.777 -2.77198 -2.77315 0
M  V30 3453 H 323.267 -2.17629 -3.56409 0
M  V30 3454 N 323.704 0.605807 -1.45491 0
M  V30 3455 C 324.651 1.7164 -1.54299 0
M  V30 3456 C 325.621 1.61486 -0.388761 0
M  V30 3457 O 326.806 1.81039 -0.602445 0
M  V30 3458 C 323.946 3.09953 -1.51734 0
M  V30 3459 C 323.059 3.309 -2.77721 0
M  V30 3460 C 322.194 4.59329 -2.66816 0
M  V30 3461 C 321.233 4.7354 -3.87848 0
M  V30 3462 N 320.37 5.9327 -3.75467 0
M  V30 3463 H 325.21 1.63449 -2.49176 0
M  V30 3464 H 322.747 0.796957 -1.23641 0
M  V30 3465 H 324.705 3.89977 -1.48235 0
M  V30 3466 H 323.335 3.17098 -0.604068 0
M  V30 3467 H 322.387 2.44639 -2.913 0
M  V30 3468 H 323.699 3.37274 -3.67488 0
M  V30 3469 H 322.853 5.4755 -2.61292 0
M  V30 3470 H 321.592 4.55355 -1.74651 0
M  V30 3471 H 320.597 3.83741 -3.93729 0
M  V30 3472 H 321.822 4.79309 -4.81082 0
M  V30 3473 H 319.768 5.90338 -2.86072 0
M  V30 3474 H 319.685 6.00811 -4.5887 0
M  V30 3475 H 320.953 6.83984 -3.73879 0
M  V30 3476 N 325.182 1.32811 0.848464 0
M  V30 3477 C 326.598 1.11937 1.13764 0
M  V30 3478 C 326.798 -0.0960789 2.01271 0
M  V30 3479 O 325.854 -0.779165 2.40178 0
M  V30 3480 C 327.167 2.402 1.809 0
M  V30 3481 C 328.715 2.46016 1.93508 0
M  V30 3482 C 329.19 3.74215 2.64059 0
M  V30 3483 N 330.681 3.75232 2.71579 0
M  V30 3484 C 331.416 4.71134 3.26833 0
M  V30 3485 N 330.912 5.77406 3.8285 0
M  V30 3486 N 332.705 4.58623 3.24995 0
M  V30 3487 H 324.856 2.1073 0.265855 0
M  V30 3488 H 327.119 0.930671 0.180431 0
M  V30 3489 H 326.825 3.29093 1.24058 0
M  V30 3490 H 326.699 2.51628 2.81004 0
M  V30 3491 H 329.086 1.57577 2.49506 0
M  V30 3492 H 329.167 2.38536 0.923811 0
M  V30 3493 H 328.811 4.63031 2.08722 0
M  V30 3494 H 328.741 3.78968 3.65637 0
M  V30 3495 H 331.232 2.98423 2.31845 0
M  V30 3496 H 331.545 6.46632 4.23187 0
M  V30 3497 H 329.89 5.81152 3.81165 0
M  V30 3498 H 333.081 3.74762 2.80484 0
M  V30 3499 H 333.254 5.33535 3.67756 0
M  V30 3500 N 326.66 -1.06551 1.16123 0
M  V30 3501 C 327.888 -1.83005 0.965237 0
M  V30 3502 C 328.303 -1.82423 -0.486542 0
M  V30 3503 O 327.66 -1.24152 -1.33763 0
M  V30 3504 C 327.711 -3.29733 1.48183 0
M  V30 3505 O 327.432 -3.30416 2.87674 0
M  V30 3506 C 328.933 -4.22926 1.32848 0
M  V30 3507 H 326.153 -0.577118 0.342309 0
M  V30 3508 H 328.697 -1.3445 1.54089 0
M  V30 3509 H 326.852 -3.75609 0.948517 0
M  V30 3510 H 327.266 -4.22149 3.11272 0
M  V30 3511 H 328.74 -5.23916 1.73827 0
M  V30 3512 H 329.217 -4.38346 0.273692 0
M  V30 3513 H 329.823 -3.82894 1.85127 0
M  V30 3514 N 328.138 -0.959301 -1.25041 0
M  V30 3515 C 329.366 -0.633949 -1.96948 0
M  V30 3516 C 329.781 0.794916 -1.7125 0
M  V30 3517 O 329.138 1.53231 -0.991287 0
M  V30 3518 C 329.189 -0.888805 -3.50403 0
M  V30 3519 O 328.91 -2.26149 -3.75218 0
M  V30 3520 C 330.411 -0.576482 -4.39536 0
M  V30 3521 H 327.631 -0.237263 -0.627652 0
M  V30 3522 H 330.175 -1.28495 -1.59089 0
M  V30 3523 H 328.33 -0.284145 -3.86357 0
M  V30 3524 H 328.744 -2.33514 -4.6965 0
M  V30 3525 H 330.218 -0.805314 -5.46094 0
M  V30 3526 H 330.695 0.489075 -4.36468 0
M  V30 3527 H 331.301 -1.16067 -4.09156 0
M  V30 3528 N 329.616 1.39756 -0.72842 0
M  V30 3529 C 330.579 2.29012 -0.0927297 0
M  V30 3530 C 331.579 1.45992 0.674025 0
M  V30 3531 O 332.769 1.66749 0.50402 0
M  V30 3532 C 329.901 3.29396 0.878137 0
M  V30 3533 H 331.094 2.86729 -0.879011 0
M  V30 3534 H 328.647 1.48293 -0.493847 0
M  V30 3535 H 329.382 2.76722 1.69101 0
M  V30 3536 H 329.167 3.907 0.331051 0
M  V30 3537 H 330.657 3.96199 1.3197 0
M  V30 3538 N 331.094 0.475555 1.50254 0
M  V30 3539 C 332.057 -0.305016 2.27161 0
M  V30 3540 C 333.057 -0.916519 1.32123 0
M  V30 3541 O 334.247 -0.785003 1.5551 0
M  V30 3542 C 331.379 -1.43496 3.09227 0
M  V30 3543 H 332.572 0.369511 2.97615 0
M  V30 3544 H 330.125 0.229747 1.54602 0
M  V30 3545 H 330.86 -2.14441 2.43281 0
M  V30 3546 H 330.645 -1.00223 3.79075 0
M  V30 3547 H 332.135 -1.98548 3.67381 0
M  V30 3548 N 332.573 -1.56217 0.208337 0
M  V30 3549 C 333.801 -2.02337 -0.43215 0
M  V30 3550 C 334.216 -1.08834 -1.54275 0
M  V30 3551 O 333.573 -0.0955462 -1.8225 0
M  V30 3552 C 333.624 -3.48072 -0.976138 0
M  V30 3553 O 333.345 -4.38007 0.0901621 0
M  V30 3554 C 334.846 -4.09773 -1.69119 0
M  V30 3555 H 332.066 -0.662385 -0.10718 0
M  V30 3556 H 334.61 -2.01966 0.320923 0
M  V30 3557 H 332.765 -3.49099 -1.67954 0
M  V30 3558 H 333.179 -5.23543 -0.316701 0
M  V30 3559 H 334.653 -5.13556 -2.02397 0
M  V30 3560 H 335.13 -3.53999 -2.59964 0
M  V30 3561 H 335.736 -4.12556 -1.03332 0
M  V30 3562 N 334.051 0.0651679 -1.57465 0
M  V30 3563 C 334.981 1.07693 -2.07182 0
M  V30 3564 C 335.962 1.39962 -0.966673 0
M  V30 3565 O 337.147 1.49475 -1.2398 0
M  V30 3566 C 334.277 2.3885 -2.52127 0
M  V30 3567 C 333.231 2.20917 -3.66579 0
M  V30 3568 C 332.557 3.57515 -3.97601 0
M  V30 3569 C 333.857 1.62493 -4.9638 0
M  V30 3570 H 335.551 0.663199 -2.91962 0
M  V30 3571 H 333.097 0.317569 -1.40455 0
M  V30 3572 H 335.05 3.09928 -2.85522 0
M  V30 3573 H 333.774 2.82215 -1.64384 0
M  V30 3574 H 332.433 1.52279 -3.33477 0
M  V30 3575 H 332.081 3.98463 -3.06979 0
M  V30 3576 H 331.781 3.46353 -4.74672 0
M  V30 3577 H 333.305 4.30013 -4.33499 0
M  V30 3578 H 334.719 2.23445 -5.27963 0
M  V30 3579 H 333.116 1.62009 -5.77818 0
M  V30 3580 H 334.186 0.587041 -4.81333 0
M  V30 3581 N 335.529 1.53961 0.336706 0
M  V30 3582 C 336.462 1.77255 1.43722 0
M  V30 3583 C 337.44 0.62193 1.50236 0
M  V30 3584 O 338.624 0.857874 1.67847 0
M  V30 3585 C 335.751 1.87733 2.81912 0
M  V30 3586 C 334.797 3.09933 2.92991 0
M  V30 3587 S 335.63 4.68836 2.58753 0
M  V30 3588 C 336.786 4.82202 3.99039 0
M  V30 3589 H 337.019 2.70322 1.23748 0
M  V30 3590 H 334.552 1.44917 0.532777 0
M  V30 3591 H 336.51 1.94455 3.61521 0
M  V30 3592 H 335.171 0.956666 2.99177 0
M  V30 3593 H 334.364 3.1396 3.94265 0
M  V30 3594 H 333.966 3.01472 2.21338 0
M  V30 3595 H 336.258 4.64032 4.9364 0
M  V30 3596 H 337.201 5.84298 4.00002 0
M  V30 3597 H 337.609 4.10604 3.87382 0
M  V30 3598 N 337.007 -0.598083 1.45811 0
M  V30 3599 C 337.955 -1.72932 1.55555 0
M  V30 3600 C 338.949 -1.63984 0.424921 0
M  V30 3601 O 340.155 -1.69663 0.601205 0
M  V30 3602 H 336.53 -0.571489 0.488779 0
M  V30 3603 H 338.501 -1.61842 2.50699 0
M  V30 3604 C 337.25 -3.11318 1.54843 0
M  V30 3605 H 336.573 -3.18867 2.41172 0
M  V30 3606 H 338.013 -3.90274 1.65717 0
M  V30 3607 C 336.472 -3.3578 0.274427 0
M  V30 3608 O 337.002 -3.9654 -0.641778 0
M  V30 3609 N 335.208 -2.90119 0.167139 0
M  V30 3610 H 334.755 -2.40855 0.913596 0
M  V30 3611 H 334.713 -3.0686 -0.684435 0
M  V30 3612 N 338.485 -1.33259 -0.841409 0
M  V30 3613 C 339.448 -1.23221 -1.9326 0
M  V30 3614 C 340.448 -0.151895 -1.60081 0
M  V30 3615 O 341.638 -0.403246 -1.69468 0
M  V30 3616 C 338.77 -0.898123 -3.28856 0
M  V30 3617 H 339.963 -2.2021 -2.03587 0
M  V30 3618 H 337.516 -1.17281 -1.03319 0
M  V30 3619 H 338.251 0.0693841 -3.24226 0
M  V30 3620 H 338.036 -1.67934 -3.54317 0
M  V30 3621 H 339.526 -0.852563 -4.08805 0
M  V30 3622 N 339.963 1.05934 -1.16686 0
M  V30 3623 C 341.193 1.82226 -0.973515 0
M  V30 3624 C 341.601 1.8297 0.481532 0
M  V30 3625 O 340.944 1.25009 1.34604 0
M  V30 3626 C 341.006 3.29897 -1.42858 0
M  V30 3627 C 340.67 3.52849 -2.90425 0
M  V30 3628 C 341.667 3.45595 -3.88407 0
M  V30 3629 C 339.352 3.80053 -3.28428 0
M  V30 3630 C 341.346 3.65217 -5.22394 0
M  V30 3631 C 339.033 3.99325 -4.62583 0
M  V30 3632 C 340.031 3.91905 -5.59374 0
M  V30 3633 O 339.719 4.10647 -6.91104 0
M  V30 3634 H 339.451 0.581314 -0.345036 0
M  V30 3635 H 342.005 1.3453 -1.55212 0
M  V30 3636 H 340.235 3.78472 -0.793477 0
M  V30 3637 H 341.924 3.87692 -1.20207 0
M  V30 3638 H 342.69 3.24564 -3.60393 0
M  V30 3639 H 338.569 3.84936 -2.53664 0
M  V30 3640 H 342.113 3.59341 -5.9793 0
M  V30 3641 H 338.01 4.19846 -4.90306 0
M  V30 3642 H 338.778 4.27915 -6.97733 0
M  V30 3643 N 341.441 0.965919 1.2453 0
M  V30 3644 C 342.666 0.643971 1.97149 0
M  V30 3645 C 343.091 -0.779487 1.71189 0
M  V30 3646 O 342.449 -1.5288 0.974553 0
M  V30 3647 C 342.497 0.922557 3.48599 0
M  V30 3648 O 341.601 0.00707672 4.12399 0
M  V30 3649 H 340.942 0.243647 0.617683 0
M  V30 3650 H 343.472 1.29558 1.58353 0
M  V30 3651 H 343.482 0.853373 3.98976 0
M  V30 3652 H 342.157 1.95996 3.66822 0
M  V30 3653 H 340.734 0.12943 3.72675 0
M  V30 3654 N 342.919 -1.39368 0.735821 0
M  V30 3655 C 344.144 -2.05319 0.293052 0
M  V30 3656 C 344.569 -1.55115 -1.064 0
M  V30 3657 O 343.927 -0.695261 -1.67439 0
M  V30 3658 C 343.975 -3.59305 0.305323 0
M  V30 3659 O 343.079 -4.06299 -0.706761 0
M  V30 3660 H 342.42 -0.650529 0.13307 0
M  V30 3661 H 344.95 -1.78386 1.00197 0
M  V30 3662 H 344.96 -4.07724 0.149997 0
M  V30 3663 H 343.635 -3.95207 1.29553 0
M  V30 3664 H 342.212 -3.69292 -0.517504 0
M  V30 3665 N 344.397 -0.483516 -1.5 0
M  V30 3666 C 345.813 -0.138404 -1.58999 0
M  V30 3667 C 346.013 1.35597 -1.4905 0
M  V30 3668 O 345.069 2.13039 -1.35539 0
M  V30 3669 C 346.382 -0.699658 -2.92447 0
M  V30 3670 C 347.93 -0.664195 -3.05872 0
M  V30 3671 C 348.405 -1.20321 -4.41913 0
M  V30 3672 N 349.896 -1.16315 -4.48358 0
M  V30 3673 C 350.631 -1.55058 -5.52037 0
M  V30 3674 N 350.127 -2.01311 -6.62907 0
M  V30 3675 N 351.92 -1.46584 -5.42651 0
M  V30 3676 H 344.071 -1.45529 -1.5471 0
M  V30 3677 H 346.334 -0.60258 -0.731848 0
M  V30 3678 H 346.04 -1.747 -3.05242 0
M  V30 3679 H 345.914 -0.150194 -3.76901 0
M  V30 3680 H 348.301 0.374272 -2.92717 0
M  V30 3681 H 348.382 -1.25061 -2.23144 0
M  V30 3682 H 348.026 -2.24037 -4.55818 0
M  V30 3683 H 347.956 -0.592896 -5.23252 0
M  V30 3684 H 350.447 -0.824058 -3.68806 0
M  V30 3685 H 350.76 -2.2899 -7.38095 0
M  V30 3686 H 349.105 -2.05273 -6.63994 0
M  V30 3687 H 352.296 -1.10281 -4.54924 0
M  V30 3688 H 352.469 -1.77103 -6.23329 0
M  V30 3689 N 345.875 1.56104 -0.216619 0
M  V30 3690 C 347.1 2.0301 0.424462 0
M  V30 3691 C 347.525 1.0955 1.52907 0
M  V30 3692 O 346.883 0.0827914 1.81111 0
M  V30 3693 C 346.931 3.4819 0.937883 0
M  V30 3694 O 346.035 3.57865 2.04955 0
M  V30 3695 H 345.376 0.656925 0.0966755 0
M  V30 3696 H 347.906 2.01859 -0.33381 0
M  V30 3697 H 347.916 3.88413 1.24897 0
M  V30 3698 H 346.591 4.15699 0.129387 0
M  V30 3699 H 345.168 3.29527 1.74546 0
M  V30 3700 N 347.353 -0.0568162 1.57498 0
M  V30 3701 C 348.303 -1.07315 2.01166 0
M  V30 3702 C 349.287 -1.33632 0.896171 0
M  V30 3703 O 350.479 -1.33682 1.16009 0
M  V30 3704 C 347.608 -2.38257 2.47161 0
M  V30 3705 C 346.694 -2.1515 3.65474 0
M  V30 3706 N 347.085 -1.62014 4.7915 0
M  V30 3707 C 345.383 -2.45559 3.72313 0
M  V30 3708 C 346.084 -1.54069 5.60926 0
M  V30 3709 N 345.06 -2.00652 5.05213 0
M  V30 3710 H 348.862 -0.655878 2.86488 0
M  V30 3711 H 346.376 -0.263635 1.60246 0
M  V30 3712 H 348.373 -3.11845 2.76691 0
M  V30 3713 H 347.033 -2.80687 1.63232 0
M  V30 3714 H 348.044 -1.30667 5.01145 0
M  V30 3715 H 344.721 -2.91253 2.99129 0
M  V30 3716 H 346.111 -1.13712 6.62208 0
M  V30 3717 N 348.832 -1.54138 -0.328536 0
M  V30 3718 C 350.057 -1.76378 -1.09112 0
M  V30 3719 C 350.482 -0.508596 -1.81094 0
M  V30 3720 O 349.84 0.539598 -1.73084 0
M  V30 3721 C 349.888 -2.95358 -2.06872 0
M  V30 3722 O 348.992 -2.66556 -3.14677 0
M  V30 3723 H 348.333 -0.584614 -0.314838 0
M  V30 3724 H 350.863 -2.01146 -0.374348 0
M  V30 3725 H 350.873 -3.22566 -2.4983 0
M  V30 3726 H 349.548 -3.86385 -1.5388 0
M  V30 3727 H 348.125 -2.50282 -2.7643 0
M  V30 3728 N 350.31 0.590341 -1.46126 0
M  V30 3729 C 351.556 1.35082 -1.51264 0
M  V30 3730 C 351.889 1.93534 -0.160711 0
M  V30 3731 O 351.164 1.76045 0.826956 0
M  V30 3732 C 351.447 2.48588 -2.6053 0
M  V30 3733 C 351.3 1.95221 -4.05227 0
M  V30 3734 C 352.619 3.50662 -2.6594 0
M  V30 3735 H 349.738 0.489803 -0.550692 0
M  V30 3736 H 352.38 0.663887 -1.78024 0
M  V30 3737 H 350.53 3.07186 -2.37843 0
M  V30 3738 H 352.202 1.41139 -4.39178 0
M  V30 3739 H 350.445 1.26101 -4.15068 0
M  V30 3740 H 351.116 2.77121 -4.77397 0
M  V30 3741 H 353.592 3.01934 -2.86313 0
M  V30 3742 H 352.468 4.27551 -3.44226 0
M  V30 3743 H 352.729 4.07399 -1.71694 0
M  V30 3744 N 351.788 1.33704 0.83433 0
M  V30 3745 C 353.035 1.25417 1.58987 0
M  V30 3746 C 353.363 -0.178869 1.93676 0
M  V30 3747 O 352.618 -1.13723 1.59265 0
M  V30 3748 C 352.917 2.07926 2.90692 0
M  V30 3749 C 352.583 3.57066 2.75345 0
M  V30 3750 C 351.245 3.97724 2.70867 0
M  V30 3751 C 353.597 4.51817 2.59828 0
M  V30 3752 C 350.925 5.31344 2.48778 0
M  V30 3753 C 353.277 5.85604 2.39272 0
M  V30 3754 C 351.941 6.25439 2.33199 0
M  V30 3755 H 351.211 0.458934 0.581774 0
M  V30 3756 H 353.858 1.65335 0.966261 0
M  V30 3757 H 352.163 1.608 3.57282 0
M  V30 3758 H 353.86 1.98868 3.48213 0
M  V30 3759 H 350.45 3.24785 2.79665 0
M  V30 3760 H 354.634 4.21311 2.62319 0
M  V30 3761 H 349.89 5.61241 2.42526 0
M  V30 3762 H 354.064 6.58623 2.2625 0
M  V30 3763 H 351.691 7.28914 2.15843 0
M  V30 3764 N 353.266 -1.05314 1.17247 0
M  V30 3765 C 354.491 -1.82509 0.985148 0
M  V30 3766 C 354.916 -1.82343 -0.461788 0
M  V30 3767 O 354.274 -1.23151 -1.33055 0
M  V30 3768 C 354.322 -3.26566 1.52929 0
M  V30 3769 O 353.426 -4.05666 0.742225 0
M  V30 3770 H 352.767 -0.564347 0.349869 0
M  V30 3771 H 355.297 -1.32718 1.55715 0
M  V30 3772 H 355.307 -3.77369 1.55103 0
M  V30 3773 H 353.982 -3.26001 2.58256 0
M  V30 3774 H 352.559 -3.64397 0.791794 0
M  V30 3775 N 354.744 -0.972509 -1.24016 0
M  V30 3776 C 355.99 -0.637978 -1.92504 0
M  V30 3777 C 356.323 0.825383 -1.75787 0
M  V30 3778 O 355.598 1.59442 -1.11393 0
M  V30 3779 C 355.881 -1.01942 -3.45369 0
M  V30 3780 C 355.734 -2.53983 -3.71231 0
M  V30 3781 C 357.053 -0.55751 -4.36555 0
M  V30 3782 H 354.172 -0.233248 -0.699117 0
M  V30 3783 H 356.814 -1.21238 -1.46292 0
M  V30 3784 H 354.964 -0.530656 -3.84859 0
M  V30 3785 H 356.636 -3.10374 -3.41271 0
M  V30 3786 H 354.879 -2.96968 -3.16216 0
M  V30 3787 H 355.55 -2.75723 -4.78206 0
M  V30 3788 H 358.026 -0.977029 -4.04467 0
M  V30 3789 H 356.902 -0.85292 -5.42233 0
M  V30 3790 H 357.163 0.542328 -4.38761 0
M  V30 3791 N 356.222 1.38976 -0.743202 0
M  V30 3792 C 357.45 2.04636 -0.30525 0
M  V30 3793 C 357.865 1.56044 1.06281 0
M  V30 3794 O 357.222 0.728921 1.67311 0
M  V30 3795 C 357.273 3.60193 -0.307177 0
M  V30 3796 O 356.994 4.06998 -1.62124 0
M  V30 3797 C 358.495 4.4306 0.145928 0
M  V30 3798 H 355.715 0.65788 -0.132041 0
M  V30 3799 H 358.259 1.77866 -1.00915 0
M  V30 3800 H 356.414 3.85835 0.347898 0
M  V30 3801 H 356.828 5.01371 -1.54036 0
M  V30 3802 H 358.302 5.51921 0.0934183 0
M  V30 3803 H 358.779 4.22706 1.19231 0
M  V30 3804 H 359.385 4.22584 -0.479886 0
M  V30 3805 N 357.7 0.491464 1.49741 0
M  V30 3806 C 358.949 -0.0582189 2.01616 0
M  V30 3807 C 359.262 -1.38927 1.3769 0
M  V30 3808 O 360.468 -2.02509 1.80838 0
M  V30 3809 C 358.924 -0.154235 3.59569 0
M  V30 3810 C 358.532 1.1696 4.32463 0
M  V30 3811 C 360.276 -0.65479 4.1942 0
M  V30 3812 C 358.183 1.03627 5.8225 0
M  V30 3813 H 357.113 -0.0255317 0.753568 0
M  V30 3814 H 359.764 0.629445 1.72367 0
M  V30 3815 H 358.146 -0.906138 3.85493 0
M  V30 3816 H 359.32 1.93405 4.18248 0
M  V30 3817 H 357.635 1.60285 3.84315 0
M  V30 3818 H 360.232 -0.771903 5.29099 0
M  V30 3819 H 360.575 -1.65127 3.8215 0
M  V30 3820 H 361.108 0.040304 3.9778 0
M  V30 3821 H 357.847 2.00672 6.24028 0
M  V30 3822 H 357.367 0.312546 5.98985 0
M  V30 3823 H 359.046 0.711114 6.4308 0
M  V30 3824 N 359.178 -1.55987 0.224894 0
M  V30 3825 C 360.128 -2.17076 -0.697296 0
M  V30 3826 C 361.112 -1.12006 -1.15514 0
M  V30 3827 O 362.304 -1.37985 -1.10857 0
M  V30 3828 C 359.433 -2.85679 -1.90374 0
M  V30 3829 C 358.519 -3.97977 -1.46543 0
M  V30 3830 N 358.91 -5.00359 -0.739909 0
M  V30 3831 C 357.208 -4.10128 -1.75245 0
M  V30 3832 C 357.909 -5.79407 -0.515939 0
M  V30 3833 N 356.885 -5.32892 -1.07364 0
M  V30 3834 H 360.687 -2.93592 -0.134594 0
M  V30 3835 H 358.201 -1.62379 0.0262885 0
M  V30 3836 H 360.198 -3.27857 -2.57518 0
M  V30 3837 H 358.858 -2.1066 -2.47088 0
M  V30 3838 H 359.869 -5.16412 -0.392253 0
M  V30 3839 H 356.546 -3.46263 -2.33255 0
M  V30 3840 H 357.936 -6.71872 0.0617349 0
M  V30 3841 N 360.656 0.0484629 -1.57525 0
M  V30 3842 C 361.589 1.08755 -2.00618 0
M  V30 3843 C 362.567 1.36272 -0.887058 0
M  V30 3844 O 363.751 1.49255 -1.15131 0
M  V30 3845 C 360.878 2.42675 -2.36277 0
M  V30 3846 C 359.924 2.31142 -3.58435 0
M  V30 3847 S 360.757 1.68326 -5.08357 0
M  V30 3848 C 361.913 3.03776 -5.47239 0
M  V30 3849 H 362.146 0.720415 -2.88439 0
M  V30 3850 H 359.679 0.257801 -1.52233 0
M  V30 3851 H 361.637 3.19699 -2.57494 0
M  V30 3852 H 360.298 2.76541 -1.48942 0
M  V30 3853 H 359.491 3.29957 -3.80978 0
M  V30 3854 H 359.093 1.62258 -3.36969 0
M  V30 3855 H 361.385 4.00106 -5.46737 0
M  V30 3856 H 362.328 2.85988 -6.47778 0
M  V30 3857 H 362.736 3.05456 -4.74718 0
M  V30 3858 N 362.134 1.5431 0.320358 0
M  V30 3859 C 363.081 1.83918 1.39438 0
M  V30 3860 C 364.051 0.686525 1.51248 0
M  V30 3861 O 365.236 0.933269 1.66417 0
M  V30 3862 C 362.376 2.075 2.75749 0
M  V30 3863 C 361.489 3.35177 2.72544 0
M  V30 3864 C 360.624 3.48704 4.00723 0
M  V30 3865 C 359.663 4.70244 3.91838 0
M  V30 3866 N 358.8 4.80679 5.11754 0
M  V30 3867 H 363.64 2.75544 1.13489 0
M  V30 3868 H 361.177 1.36459 0.549309 0
M  V30 3869 H 363.135 2.19166 3.54996 0
M  V30 3870 H 361.765 1.19163 3 0
M  V30 3871 H 360.817 3.32233 1.85271 0
M  V30 3872 H 362.129 4.24534 2.61863 0
M  V30 3873 H 361.283 3.59928 4.88402 0
M  V30 3874 H 360.022 2.57445 4.14214 0
M  V30 3875 H 359.027 4.59072 3.02544 0
M  V30 3876 H 360.252 5.6289 3.7991 0
M  V30 3877 H 358.198 3.92337 5.25745 0
M  V30 3878 H 358.115 5.64007 5.0342 0
M  V30 3879 H 359.383 4.96239 6.01138 0
M  V30 3880 N 363.613 -0.582584 1.46437 0
M  V30 3881 C 364.523 -1.71949 1.59595 0
M  V30 3882 C 365.539 -1.67264 0.479443 0
M  V30 3883 O 366.715 -1.87171 0.743579 0
M  V30 3884 C 363.78 -3.08452 1.58298 0
M  V30 3885 C 362.841 -3.244 2.81182 0
M  V30 3886 C 362.074 -4.54391 2.79937 0
M  V30 3887 O 362.297 -5.38287 1.8869 0
M  V30 3888 O 361.231 -4.73588 3.71481 0
M  V30 3889 H 365.057 -1.63795 2.55744 0
M  V30 3890 H 362.642 -0.749643 1.29231 0
M  V30 3891 H 364.524 -3.89732 1.60271 0
M  V30 3892 H 363.199 -3.17043 0.653094 0
M  V30 3893 H 362.106 -2.42613 2.84763 0
M  V30 3894 H 363.439 -3.20699 3.7338 0
M  V30 3895 N 365.091 -1.34144 -0.827227 0
M  V30 3896 C 366.319 -1.29325 -1.61501 0
M  V30 3897 C 366.734 0.13354 -1.88327 0
M  V30 3898 O 366.091 1.0793 -1.47164 0
M  V30 3899 C 366.142 -2.07746 -2.95844 0
M  V30 3900 O 365.863 -3.4486 -2.70191 0
M  V30 3901 C 367.364 -2.10273 -3.90256 0
M  V30 3902 H 364.584 -0.445069 -0.50215 0
M  V30 3903 H 367.128 -1.76693 -1.02955 0
M  V30 3904 H 365.283 -1.6403 -3.5096 0
M  V30 3905 H 365.697 -3.85345 -3.55822 0
M  V30 3906 H 367.171 -2.69575 -4.81698 0
M  V30 3907 H 367.648 -1.096 -4.25305 0
M  V30 3908 H 368.254 -2.54059 -3.41078 0
M  V30 3909 N 366.569 1.04691 -1.17803 0
M  V30 3910 C 367.797 1.81446 -0.99423 0
M  V30 3911 C 368.212 1.83174 0.457459 0
M  V30 3912 O 367.569 1.26265 1.31771 0
M  V30 3913 C 367.62 3.27334 -1.5341 0
M  V30 3914 O 367.341 3.25798 -2.92895 0
M  V30 3915 C 368.842 4.20759 -1.39559 0
M  V30 3916 H 366.062 0.571599 -0.351447 0
M  V30 3917 H 368.606 1.31982 -1.56208 0
M  V30 3918 H 366.761 3.74052 -1.00815 0
M  V30 3919 H 367.175 4.17144 -3.17949 0
M  V30 3920 H 368.649 5.21084 -1.82141 0
M  V30 3921 H 369.126 4.37856 -0.343394 0
M  V30 3922 H 369.732 3.79901 -1.91195 0
M  V30 3923 N 368.047 0.979072 1.23499 0
M  V30 3924 C 369.296 0.642751 1.91185 0
M  V30 3925 C 369.609 -0.827253 1.77245 0
M  V30 3926 O 370.815 -1.27458 2.39722 0
M  V30 3927 C 369.271 1.09901 3.42709 0
M  V30 3928 C 368.879 2.59327 3.65313 0
M  V30 3929 C 370.623 0.836371 4.16179 0
M  V30 3930 C 368.53 2.98627 5.10467 0
M  V30 3931 H 367.46 0.236698 0.715884 0
M  V30 3932 H 370.111 1.1868 1.39955 0
M  V30 3933 H 368.493 0.48319 3.93041 0
M  V30 3934 H 369.667 3.26136 3.25533 0
M  V30 3935 H 367.982 2.83323 3.05151 0
M  V30 3936 H 370.579 1.10586 5.23139 0
M  V30 3937 H 370.922 -0.227509 4.15678 0
M  V30 3938 H 371.455 1.41371 3.71832 0
M  V30 3939 H 368.194 4.04133 5.16098 0
M  V30 3940 H 367.714 2.3651 5.51201 0
M  V30 3941 H 369.393 2.89159 5.78788 0
M  V30 3942 N 369.525 -1.3858 0.750561 0
M  V30 3943 C 370.802 -1.94231 0.231009 0
M  V30 3944 C 371.182 -1.68611 -1.27018 0
M  V30 3945 O 370.53 -1.02296 -2.04323 0
M  V30 3946 C 370.74 -3.44123 0.581428 0
M  V30 3947 C 372.088 -4.2116 0.539389 0
M  V30 3948 O 373.112 -3.52391 0.519541 0
M  V30 3949 O 371.971 -5.43749 0.54765 0
M  V30 3950 H 369.065 -0.825639 0.0474263 0
M  V30 3951 H 371.611 -1.4799 0.830478 0
M  V30 3952 H 370.383 -3.56267 1.61833 0
M  V30 3953 H 370.006 -3.97573 -0.0462047 0
M  V30 3954 N 371.003 -0.499398 -1.49478 0
M  V30 3955 C 372.251 0.0455996 -2.02049 0
M  V30 3956 C 372.572 1.37633 -1.38138 0
M  V30 3957 O 371.842 1.8842 -0.536166 0
M  V30 3958 H 370.422 0.0198416 -0.746736 0
M  V30 3959 H 373.084 -0.656274 -1.83519 0
M  V30 3960 H 372.18 0.176445 -3.11601 0
M  V30 3961 N 372.481 1.55866 -0.233164 0
M  V30 3962 C 373.391 2.24431 0.683217 0
M  V30 3963 C 374.407 1.2558 1.2044 0
M  V30 3964 O 375.583 1.58422 1.24356 0
M  V30 3965 C 372.648 2.91979 1.86947 0
M  V30 3966 C 371.709 4.06204 1.38912 0
M  V30 3967 C 370.942 4.70522 2.51883 0
M  V30 3968 O 371.165 4.33865 3.70293 0
M  V30 3969 O 370.099 5.59296 2.22423 0
M  V30 3970 H 373.925 3.03426 0.129059 0
M  V30 3971 H 371.51 1.494 -0.0022283 0
M  V30 3972 H 373.392 3.34573 2.56201 0
M  V30 3973 H 372.067 2.15935 2.41151 0
M  V30 3974 H 370.974 3.68155 0.664259 0
M  V30 3975 H 372.307 4.84025 0.893328 0
M  V30 3976 N 373.959 -0.0401083 1.57549 0
M  V30 3977 C 374.869 -1.06133 2.0922 0
M  V30 3978 C 375.885 -1.40356 1.0284 0
M  V30 3979 O 377.061 -1.49897 1.34509 0
M  V30 3980 C 374.126 -2.34658 2.55218 0
M  V30 3981 C 373.187 -2.07117 3.76033 0
M  V30 3982 C 372.42 -3.29514 4.19829 0
M  V30 3983 O 372.643 -4.39794 3.63232 0
M  V30 3984 O 371.577 -3.15863 5.12362 0
M  V30 3985 H 375.403 -0.652244 2.96613 0
M  V30 3986 H 372.988 -0.256368 1.47184 0
M  V30 3987 H 374.87 -3.10239 2.85184 0
M  V30 3988 H 373.545 -2.74883 1.70941 0
M  V30 3989 H 372.452 -1.29139 3.51104 0
M  V30 3990 H 373.785 -1.71754 4.61261 0
M  V30 3991 N 375.437 -1.54477 -0.31217 0
M  V30 3992 C 376.367 -1.87652 -1.38957 0
M  V30 3993 C 377.348 -0.734358 -1.53431 0
M  V30 3994 O 378.533 -0.98911 -1.67123 0
M  V30 3995 C 375.663 -2.11396 -2.75552 0
M  V30 3996 C 374.617 -3.27243 -2.75855 0
M  V30 3997 C 373.943 -3.36382 -4.15633 0
M  V30 3998 C 375.243 -4.64622 -2.38587 0
M  V30 3999 H 376.937 -2.77887 -1.11442 0
M  V30 4000 H 374.483 -1.33707 -0.534655 0
M  V30 4001 H 376.436 -2.33189 -3.51 0
M  V30 4002 H 375.16 -1.17921 -3.04569 0
M  V30 4003 H 373.819 -3.05356 -2.02863 0
M  V30 4004 H 373.467 -2.40445 -4.41809 0
M  V30 4005 H 373.167 -4.14249 -4.1674 0
M  V30 4006 H 374.691 -3.60422 -4.92877 0
M  V30 4007 H 376.105 -4.86219 -3.03749 0
M  V30 4008 H 374.502 -5.45121 -2.50925 0
M  V30 4009 H 375.572 -4.66097 -1.33723 0
M  V30 4010 N 376.915 0.57481 -1.46744 0
M  V30 4011 C 378.161 1.3347 -1.52688 0
M  V30 4012 C 378.494 1.93353 -0.181229 0
M  V30 4013 O 377.769 1.76912 0.808237 0
M  V30 4014 C 378.052 2.45811 -2.63152 0
M  V30 4015 C 377.905 1.90912 -4.07275 0
M  V30 4016 C 379.224 3.47822 -2.69644 0
M  V30 4017 H 376.343 0.483935 -0.555856 0
M  V30 4018 H 378.985 0.644968 -1.78718 0
M  V30 4019 H 377.135 3.04646 -2.41088 0
M  V30 4020 H 378.807 1.36473 -4.4065 0
M  V30 4021 H 377.05 1.21691 -4.16382 0
M  V30 4022 H 377.721 2.72042 -4.80309 0
M  V30 4023 H 380.197 2.9888 -2.895 0
M  V30 4024 H 379.073 4.23876 -3.48742 0
M  V30 4025 H 379.334 4.05555 -1.76005 0
M  V30 4026 N 378.394 1.34581 0.820102 0
M  V30 4027 C 379.341 1.2639 1.93117 0
M  V30 4028 C 380.311 0.138554 1.65521 0
M  V30 4029 O 381.496 0.320004 1.88097 0
M  V30 4030 C 378.636 1.02812 3.29429 0
M  V30 4031 C 377.749 2.24146 3.693 0
M  V30 4032 C 376.884 1.93829 4.94574 0
M  V30 4033 C 375.923 3.1129 5.27034 0
M  V30 4034 N 375.06 2.80838 6.43486 0
M  V30 4035 H 379.9 2.21408 1.99455 0
M  V30 4036 H 377.437 1.10077 0.975784 0
M  V30 4037 H 379.395 0.871788 4.0799 0
M  V30 4038 H 378.025 0.114612 3.22596 0
M  V30 4039 H 377.077 2.50691 2.86109 0
M  V30 4040 H 378.389 3.11899 3.89257 0
M  V30 4041 H 377.543 1.74948 5.80929 0
M  V30 4042 H 376.282 1.03341 4.76626 0
M  V30 4043 H 375.287 3.30764 4.39175 0
M  V30 4044 H 376.512 4.02561 5.4692 0
M  V30 4045 H 374.458 1.92929 6.26988 0
M  V30 4046 H 374.375 3.62123 6.63629 0
M  V30 4047 H 375.643 2.65467 7.32903 0
M  V30 4048 N 379.872 -1.04064 1.18357 0
M  V30 4049 C 381.121 -1.76662 0.973313 0
M  V30 4050 C 381.434 -1.89154 -0.497991 0
M  V30 4051 O 382.64 -2.58606 -0.826762 0
M  V30 4052 C 381.096 -3.17624 1.69242 0
M  V30 4053 C 380.704 -3.13225 3.20303 0
M  V30 4054 C 382.448 -3.946 1.56497 0
M  V30 4055 C 380.355 -4.49046 3.84853 0
M  V30 4056 H 379.285 -0.662214 0.36054 0
M  V30 4057 H 381.936 -1.16553 1.41731 0
M  V30 4058 H 380.318 -3.78129 1.1762 0
M  V30 4059 H 381.492 -2.62172 3.78949 0
M  V30 4060 H 379.807 -2.49749 3.33189 0
M  V30 4061 H 382.404 -4.95042 2.02084 0
M  V30 4062 H 382.747 -4.13074 0.517243 0
M  V30 4063 H 383.28 -3.4067 2.05399 0
M  V30 4064 H 380.019 -4.35777 4.89672 0
M  V30 4065 H 379.539 -5.00203 3.30994 0
M  V30 4066 H 381.218 -5.17961 3.87718 0
M  V30 4067 N 381.35 -0.985608 -1.22978 0
M  V30 4068 C 382.598 -0.656087 -1.91154 0
M  V30 4069 C 382.919 0.813561 -1.77218 0
M  V30 4070 O 382.189 1.58244 -1.1548 0
M  V30 4071 H 380.769 -0.239674 -0.707506 0
M  V30 4072 H 383.431 -1.25054 -1.49491 0
M  V30 4073 H 382.527 -0.912253 -2.9847 0
M  V30 4074 N 382.828 1.3818 -0.7579 0
M  V30 4075 C 383.775 2.30416 -0.133057 0
M  V30 4076 C 384.745 1.50398 0.704957 0
M  V30 4077 O 385.93 1.79014 0.660192 0
M  V30 4078 C 383.07 3.36834 0.750813 0
M  V30 4079 C 382.183 4.31879 -0.102297 0
M  V30 4080 C 381.318 5.25368 0.784979 0
M  V30 4081 C 380.357 6.12058 -0.0715046 0
M  V30 4082 N 379.494 6.97832 0.772972 0
M  V30 4083 H 384.334 2.83274 -0.925186 0
M  V30 4084 H 381.871 1.39461 -0.467866 0
M  V30 4085 H 383.829 3.97145 1.27794 0
M  V30 4086 H 382.459 2.85374 1.50868 0
M  V30 4087 H 381.511 3.72991 -0.747095 0
M  V30 4088 H 382.823 4.92921 -0.763552 0
M  V30 4089 H 381.977 5.90818 1.37911 0
M  V30 4090 H 380.716 4.64703 1.47996 0
M  V30 4091 H 379.721 5.456 -0.678272 0
M  V30 4092 H 380.946 6.74793 -0.763606 0
M  V30 4093 H 378.892 6.3971 1.45282 0
M  V30 4094 H 378.809 7.55812 0.168709 0
M  V30 4095 H 380.077 7.67687 1.35194 0
M  V30 4096 N 384.306 0.507319 1.49211 0
M  V30 4097 C 385.236 -0.256939 2.32082 0
M  V30 4098 C 386.217 -0.956609 1.40652 0
M  V30 4099 O 387.402 -0.946788 1.69557 0
M  V30 4100 C 384.532 -1.31802 3.21318 0
M  V30 4101 C 383.486 -0.737855 4.21592 0
M  V30 4102 C 382.812 -1.89992 4.99807 0
M  V30 4103 C 384.112 0.275325 5.21574 0
M  V30 4104 H 385.806 0.434798 2.96226 0
M  V30 4105 H 383.352 0.210546 1.42452 0
M  V30 4106 H 385.305 -1.86045 3.78107 0
M  V30 4107 H 384.029 -2.03903 2.5513 0
M  V30 4108 H 382.688 -0.217126 3.65956 0
M  V30 4109 H 382.336 -2.60877 4.30061 0
M  V30 4110 H 382.036 -1.51777 5.6766 0
M  V30 4111 H 383.56 -2.44657 5.59442 0
M  V30 4112 H 384.974 -0.179193 5.7302 0
M  V30 4113 H 383.371 0.573649 5.97352 0
M  V30 4114 H 384.441 1.18903 4.70096 0
M  V30 4115 N 385.784 -1.5574 0.241426 0
M  V30 4116 C 386.732 -2.22538 -0.676718 0
M  V30 4117 C 387.726 -1.21117 -1.18436 0
M  V30 4118 O 388.932 -1.39144 -1.14188 0
M  V30 4119 H 385.307 -0.713776 -0.236701 0
M  V30 4120 H 387.278 -2.98264 -0.0901187 0
M  V30 4121 C 386.027 -2.93439 -1.86518 0
M  V30 4122 H 385.35 -3.7125 -1.4837 0
M  V30 4123 H 386.79 -3.43549 -2.48495 0
M  V30 4124 C 385.249 -1.97008 -2.73294 0
M  V30 4125 O 385.779 -1.49965 -3.72657 0
M  V30 4126 N 383.985 -1.64227 -2.39745 0
M  V30 4127 H 383.532 -2.02677 -1.58996 0
M  V30 4128 H 383.49 -0.999708 -2.98083 0
M  V30 4129 N 387.262 0.0317525 -1.57568 0
M  V30 4130 C 388.192 1.03274 -2.0942 0
M  V30 4131 C 389.173 1.3788 -0.996143 0
M  V30 4132 O 390.358 1.46811 -1.27122 0
M  V30 4133 C 387.488 2.33448 -2.57137 0
M  V30 4134 C 386.442 2.13091 -3.71182 0
M  V30 4135 C 385.768 3.49001 -4.05095 0
M  V30 4136 C 387.068 1.51928 -4.99715 0
M  V30 4137 H 388.762 0.60112 -2.93303 0
M  V30 4138 H 386.308 0.287705 -1.41097 0
M  V30 4139 H 388.261 3.03802 -2.92032 0
M  V30 4140 H 386.985 2.78665 -1.70333 0
M  V30 4141 H 385.644 1.45171 -3.36632 0
M  V30 4142 H 385.292 3.91862 -3.15362 0
M  V30 4143 H 384.992 3.36207 -4.81911 0
M  V30 4144 H 386.516 4.20721 -4.42522 0
M  V30 4145 H 387.93 2.12196 -5.32584 0
M  V30 4146 H 386.327 1.49716 -5.81124 0
M  V30 4147 H 387.397 0.484811 -4.8247 0
M  V30 4148 N 388.74 1.54641 0.303973 0
M  V30 4149 C 389.986 1.74038 1.04109 0
M  V30 4150 C 390.319 0.523051 1.87024 0
M  V30 4151 O 389.594 -0.479874 1.88487 0
M  V30 4152 C 389.877 3.02761 1.94955 0
M  V30 4153 C 389.73 4.34787 1.1524 0
M  V30 4154 C 391.049 3.27336 2.94175 0
M  V30 4155 H 388.168 0.63323 0.377079 0
M  V30 4156 H 390.81 1.87354 0.316001 0
M  V30 4157 H 388.96 2.9154 2.56782 0
M  V30 4158 H 390.632 4.57922 0.557236 0
M  V30 4159 H 388.875 4.31407 0.455053 0
M  V30 4160 H 389.546 5.21116 1.8205 0
M  V30 4161 H 392.022 3.38148 2.42477 0
M  V30 4162 H 390.898 4.18726 3.54908 0
M  V30 4163 H 391.159 2.45491 3.67677 0
M  V30 4164 N 390.218 -0.567019 1.47046 0
M  V30 4165 C 391.495 -1.3276 1.43646 0
M  V30 4166 C 391.875 -2.1071 0.128186 0
M  V30 4167 O 391.223 -2.10441 -0.890326 0
M  V30 4168 C 391.433 -2.2404 2.67595 0
M  V30 4169 C 392.781 -2.85372 3.14401 0
M  V30 4170 O 393.805 -2.34346 2.68254 0
M  V30 4171 O 392.664 -3.78091 3.946 0
M  V30 4172 H 389.758 -0.597293 0.571988 0
M  V30 4173 H 392.304 -0.586735 1.59234 0
M  V30 4174 H 391.076 -1.65975 3.54356 0
M  V30 4175 H 390.699 -3.05439 2.54544 0
M  V30 4176 N 391.696 -1.35014 -0.812953 0
M  V30 4177 C 392.626 -1.30069 -1.93919 0
M  V30 4178 C 393.607 -0.176275 -1.69184 0
M  V30 4179 O 394.792 -0.370227 -1.90638 0
M  V30 4180 C 391.922 -1.06547 -3.30552 0
M  V30 4181 C 390.876 -2.15561 -3.69753 0
M  V30 4182 C 390.202 -1.77214 -5.04479 0
M  V30 4183 C 391.502 -3.57476 -3.808 0
M  V30 4184 H 393.196 -2.24303 -1.98314 0
M  V30 4185 H 390.742 -1.07977 -0.952736 0
M  V30 4186 H 392.695 -1.01729 -4.08937 0
M  V30 4187 H 391.419 -0.0875719 -3.26483 0
M  V30 4188 H 390.078 -2.19466 -2.9365 0
M  V30 4189 H 389.726 -0.780589 -4.96906 0
M  V30 4190 H 389.426 -2.50184 -5.31678 0
M  V30 4191 H 390.95 -1.7391 -5.8531 0
M  V30 4192 H 392.364 -3.55929 -4.4943 0
M  V30 4193 H 390.761 -4.29152 -4.19462 0
M  V30 4194 H 391.831 -3.94091 -2.82525 0
M  V30 4195 N 393.175 1.03435 -1.18907 0
M  V30 4196 C 394.138 2.09756 -0.923844 0
M  V30 4197 C 395.138 1.60528 0.093416 0
M  V30 4198 O 396.328 1.73631 -0.140727 0
M  V30 4199 C 393.46 3.38692 -0.387354 0
M  V30 4200 H 394.653 2.34719 -1.86674 0
M  V30 4201 H 392.206 1.19959 -1.00197 0
M  V30 4202 H 392.941 3.19396 0.561845 0
M  V30 4203 H 392.726 3.75742 -1.12074 0
M  V30 4204 H 394.216 4.17016 -0.220694 0
M  V30 4205 N 394.653 0.992116 1.22453 0
M  V30 4206 C 395.901 0.666215 1.90804 0
M  V30 4207 C 396.222 -0.804152 1.77647 0
M  V30 4208 O 395.492 -1.57629 1.16318 0
M  V30 4209 H 394.072 0.243423 0.706225 0
M  V30 4210 H 396.734 1.25845 1.48825 0
M  V30 4211 H 395.83 0.928069 2.97982 0
M  V30 4212 N 396.131 -1.37776 0.765217 0
M  V30 4213 C 397.356 -2.04651 0.336537 0
M  V30 4214 C 397.781 -1.57337 -1.03086 0
M  V30 4215 O 397.139 -0.730621 -1.65927 0
M  V30 4216 C 397.187 -3.58577 0.381468 0
M  V30 4217 O 396.291 -4.07706 -0.62042 0
M  V30 4218 H 395.632 -0.64756 0.146838 0
M  V30 4219 H 398.162 -1.76221 1.03959 0
M  V30 4220 H 398.172 -4.07314 0.236448 0
M  V30 4221 H 396.847 -3.9237 1.37907 0
M  V30 4222 H 395.424 -3.70306 -0.439056 0
M  V30 4223 N 397.609 -0.515225 -1.4894 0
M  V30 4224 C 398.519 0.259774 -2.33157 0
M  V30 4225 C 399.535 0.953501 -1.45548 0
M  V30 4226 O 400.711 0.931735 -1.78552 0
M  V30 4227 C 397.776 1.30193 -3.21326 0
M  V30 4228 C 396.837 0.620129 -4.24797 0
M  V30 4229 C 396.07 1.61263 -5.08753 0
M  V30 4230 O 396.293 2.84389 -4.94448 0
M  V30 4231 O 395.227 1.16013 -5.90614 0
M  V30 4232 H 399.053 -0.429932 -3.00641 0
M  V30 4233 H 396.638 -0.276346 -1.46822 0
M  V30 4234 H 398.52 1.90455 -3.75905 0
M  V30 4235 H 397.195 1.97431 -2.56521 0
M  V30 4236 H 396.102 -0.0226019 -3.74093 0
M  V30 4237 H 397.435 -0.0100493 -4.92199 0
M  V30 4238 N 399.087 1.5561 -0.249682 0
M  V30 4239 C 400.035 2.22894 0.664906 0
M  V30 4240 C 401.029 1.21743 1.17792 0
M  V30 4241 O 402.235 1.39748 1.13449 0
M  V30 4242 H 398.61 0.715022 0.232912 0
M  V30 4243 H 400.581 2.98307 0.0742998 0
M  V30 4244 C 399.33 2.94424 1.84959 0
M  V30 4245 H 398.653 3.72031 1.46399 0
M  V30 4246 H 400.093 3.44862 2.4667 0
M  V30 4247 C 398.552 1.98454 2.72245 0
M  V30 4248 O 399.082 1.51939 3.71857 0
M  V30 4249 N 397.288 1.65496 2.38871 0
M  V30 4250 H 396.835 2.03517 1.57919 0
M  V30 4251 H 396.793 1.0155 2.97548 0
M  V30 4252 N 400.565 -0.0233959 1.57583 0
M  V30 4253 C 401.814 -0.712133 1.8871 0
M  V30 4254 C 402.127 -1.76217 0.848944 0
M  V30 4255 O 403.333 -2.50389 1.04964 0
M  V30 4256 C 401.789 -1.3177 3.3491 0
M  V30 4257 C 401.397 -0.303715 4.46969 0
M  V30 4258 C 403.141 -1.98598 3.75179 0
M  V30 4259 C 401.048 -0.917945 5.84233 0
M  V30 4260 H 399.978 -0.269735 0.704101 0
M  V30 4261 H 402.629 0.0333114 1.8347 0
M  V30 4262 H 401.011 -2.11304 3.34913 0
M  V30 4263 H 402.185 0.465325 4.58445 0
M  V30 4264 H 400.5 0.2628 4.1557 0
M  V30 4265 H 403.097 -2.45416 4.75053 0
M  V30 4266 H 403.44 -2.80659 3.07468 0
M  V30 4267 H 403.973 -1.25831 3.77374 0
M  V30 4268 H 400.712 -0.136633 6.55358 0
M  V30 4269 H 400.232 -1.65669 5.76467 0
M  V30 4270 H 401.911 -1.4236 6.31144 0
M  V30 4271 N 402.043 -1.548 -0.295768 0
M  V30 4272 C 403.291 -1.73985 -1.02828 0
M  V30 4273 C 403.612 -0.531406 -1.87619 0
M  V30 4274 O 402.882 0.454221 -1.90561 0
M  V30 4275 H 401.462 -0.641556 -0.382642 0
M  V30 4276 H 404.124 -1.92163 -0.325489 0
M  V30 4277 H 403.22 -2.63129 -1.67838 0
M  V30 4278 N 403.521 0.559213 -1.47345 0
M  V30 4279 C 404.937 0.884943 -1.32819 0
M  V30 4280 C 405.137 1.98988 -0.317173 0
M  V30 4281 O 404.193 2.51031 0.272011 0
M  V30 4282 C 405.506 1.28007 -2.72093 0
M  V30 4283 C 407.054 1.39161 -2.80363 0
M  V30 4284 C 407.529 1.82031 -4.20272 0
M  V30 4285 N 409.02 1.89185 -4.22804 0
M  V30 4286 C 409.755 2.2368 -5.27973 0
M  V30 4287 N 409.251 2.56802 -6.43447 0
M  V30 4288 N 411.044 2.24436 -5.15349 0
M  V30 4289 H 403.195 -0.170304 -2.11716 0
M  V30 4290 H 405.458 -0.0135247 -0.947904 0
M  V30 4291 H 405.164 0.542027 -3.47498 0
M  V30 4292 H 405.038 2.23665 -3.03733 0
M  V30 4293 H 407.425 2.12048 -2.05231 0
M  V30 4294 H 407.506 0.41696 -2.52379 0
M  V30 4295 H 407.15 1.09715 -4.95908 0
M  V30 4296 H 407.08 2.80495 -4.45679 0
M  V30 4297 H 409.571 1.65982 -3.39497 0
M  V30 4298 H 409.884 2.82144 -7.19454 0
M  V30 4299 H 408.229 2.54387 -6.46771 0
M  V30 4300 H 411.42 1.97998 -4.24163 0
M  V30 4301 H 411.593 2.50989 -5.97418 0
M  V30 4302 N 404.999 1.35443 0.805782 0
M  V30 4303 C 406.224 1.32037 1.59941 0
M  V30 4304 C 406.649 -0.0994215 1.87837 0
M  V30 4305 O 406.007 -1.06648 1.46615 0
M  V30 4306 C 406.055 2.13354 2.90711 0
M  V30 4307 O 405.159 1.5148 3.83572 0
M  V30 4308 H 404.5 0.452666 0.485787 0
M  V30 4309 H 407.03 1.78496 1.00002 0
M  V30 4310 H 407.04 2.25338 3.40128 0
M  V30 4311 H 405.715 3.16572 2.69732 0
M  V30 4312 H 404.292 1.4834 3.42125 0
M  V30 4313 N 406.477 -1.02803 1.19454 0
M  V30 4314 C 407.725 -1.75869 0.995722 0
M  V30 4315 C 408.046 -1.89138 -0.474543 0
M  V30 4316 O 407.316 -1.42558 -1.34366 0
M  V30 4317 H 405.896 -0.651511 0.365435 0
M  V30 4318 H 408.558 -1.24004 1.50363 0
M  V30 4319 H 407.654 -2.76661 1.44447 0
M  V30 4320 N 407.956 -0.998596 -1.21925 0
M  V30 4321 C 408.919 -0.558679 -2.22287 0
M  V30 4322 C 409.919 0.361525 -1.56683 0
M  V30 4323 O 411.109 0.152695 -1.73529 0
M  V30 4324 C 408.241 0.18661 -3.40389 0
M  V30 4325 H 409.434 -1.4463 -2.62721 0
M  V30 4326 H 406.987 -0.786413 -1.35075 0
M  V30 4327 H 407.722 1.08996 -3.05435 0
M  V30 4328 H 407.507 -0.474188 -3.89222 0
M  V30 4329 H 408.997 0.482367 -4.14805 0
M  V30 4330 N 409.434 1.37368 -0.772513 0
M  V30 4331 C 410.68 1.99969 -0.337681 0
M  V30 4332 C 411.013 1.61184 1.08321 0
M  V30 4333 O 410.288 0.858395 1.74533 0
M  V30 4334 C 410.571 3.56858 -0.482121 0
M  V30 4335 C 410.424 4.0555 -1.94549 0
M  V30 4336 C 411.743 4.39955 0.113143 0
M  V30 4337 H 408.862 0.726464 -0.124171 0
M  V30 4338 H 411.504 1.63034 -0.975699 0
M  V30 4339 H 409.654 3.88452 0.0610361 0
M  V30 4340 H 411.326 3.84518 -2.54841 0
M  V30 4341 H 409.569 3.57715 -2.45403 0
M  V30 4342 H 410.24 5.14587 -1.9976 0
M  V30 4343 H 412.716 4.14623 -0.35031 0
M  V30 4344 H 411.592 5.48897 -0.0180514 0
M  V30 4345 H 411.853 4.25403 1.20354 0
M  V30 4346 N 410.912 0.523116 1.48665 0
M  V30 4347 C 412.189 -0.0775449 1.95446 0
M  V30 4348 C 412.569 -1.5197 1.4652 0
M  V30 4349 O 411.917 -2.17876 0.688657 0
M  V30 4350 C 412.127 0.0326135 3.48985 0
M  V30 4351 C 413.475 -0.130141 4.24401 0
M  V30 4352 O 414.499 -0.0415142 3.56176 0
M  V30 4353 O 413.358 -0.31491 5.45592 0
M  V30 4354 H 410.452 -0.0831012 0.822814 0
M  V30 4355 H 412.998 0.587227 1.59216 0
M  V30 4356 H 411.77 1.03748 3.77296 0
M  V30 4357 H 411.393 -0.671317 3.91892 0
M  V30 4358 N 412.39 -1.55475 0.257931 0
M  V30 4359 C 413.337 -2.21837 -0.636939 0
M  V30 4360 C 414.307 -1.18596 -1.16294 0
M  V30 4361 O 415.492 -1.47081 -1.21539 0
M  V30 4362 C 412.632 -2.9301 -1.82317 0
M  V30 4363 C 411.745 -4.10931 -1.33265 0
M  V30 4364 C 410.88 -4.69791 -2.47931 0
M  V30 4365 C 409.919 -5.7994 -1.95796 0
M  V30 4366 N 409.056 -6.32935 -3.0387 0
M  V30 4367 H 413.896 -2.9793 -0.0643591 0
M  V30 4368 H 411.433 -1.47086 -0.0200031 0
M  V30 4369 H 413.391 -3.3248 -2.52018 0
M  V30 4370 H 412.021 -2.1937 -2.36805 0
M  V30 4371 H 411.073 -3.76699 -0.52931 0
M  V30 4372 H 412.385 -4.90417 -0.910654 0
M  V30 4373 H 411.539 -5.11892 -3.25656 0
M  V30 4374 H 410.278 -3.89545 -2.93438 0
M  V30 4375 H 409.283 -5.37305 -1.16546 0
M  V30 4376 H 410.508 -6.62043 -1.51246 0
M  V30 4377 H 408.454 -5.55591 -3.48791 0
M  V30 4378 H 408.371 -7.07645 -2.66035 0
M  V30 4379 H 409.639 -6.79695 -3.81621 0
M  V30 4380 N 413.868 0.0150385 -1.57593 0
M  V30 4381 C 415.284 0.370907 -1.5523 0
M  V30 4382 C 415.484 1.75735 -0.985882 0
M  V30 4383 O 414.54 2.44944 -0.613077 0
M  V30 4384 C 415.853 0.259908 -2.99575 0
M  V30 4385 C 417.401 0.335959 -3.11192 0
M  V30 4386 C 417.876 0.254253 -4.57294 0
M  V30 4387 N 419.367 0.312618 -4.62144 0
M  V30 4388 C 420.102 0.272505 -5.72752 0
M  V30 4389 N 419.598 0.183864 -6.92556 0
M  V30 4390 N 421.391 0.323267 -5.6117 0
M  V30 4391 H 413.542 -0.892104 -1.92757 0
M  V30 4392 H 415.805 -0.340563 -0.884715 0
M  V30 4393 H 415.511 -0.693403 -3.44797 0
M  V30 4394 H 415.385 1.048 -3.62349 0
M  V30 4395 H 417.772 1.27971 -2.65909 0
M  V30 4396 H 417.853 -0.481739 -2.51223 0
M  V30 4397 H 417.497 -0.685887 -5.03247 0
M  V30 4398 H 417.427 1.09024 -5.15191 0
M  V30 4399 H 419.918 0.38307 -3.75953 0
M  V30 4400 H 420.231 0.15874 -7.72637 0
M  V30 4401 H 418.576 0.149708 -6.94839 0
M  V30 4402 H 421.767 0.390607 -4.66467 0
M  V30 4403 H 421.94 0.288539 -6.47357 0
M  V30 4404 N 415.346 1.54954 0.287554 0
M  V30 4405 C 416.309 1.86076 1.33823 0
M  V30 4406 C 417.309 0.734414 1.43049 0
M  V30 4407 O 418.499 1.00266 1.42452 0
M  V30 4408 C 415.631 2.05305 2.72144 0
M  V30 4409 H 416.824 2.79984 1.07465 0
M  V30 4410 H 414.377 1.47223 0.524902 0
M  V30 4411 H 415.112 1.1373 3.03704 0
M  V30 4412 H 414.897 2.873 2.66836 0
M  V30 4413 H 416.387 2.30706 3.48087 0
M  V30 4414 N 416.824 -0.551391 1.4764 0
M  V30 4415 C 418.24 -0.877887 1.33287 0
M  V30 4416 C 418.44 -1.98817 0.327721 0
M  V30 4417 O 417.496 -2.51171 -0.258695 0
M  V30 4418 C 418.809 -1.26563 2.72768 0
M  V30 4419 C 420.357 -1.37673 2.81097 0
M  V30 4420 C 420.832 -1.79799 4.21232 0
M  V30 4421 N 422.323 -1.8694 4.23802 0
M  V30 4422 C 423.058 -2.20876 5.29151 0
M  V30 4423 N 422.554 -2.53386 6.448 0
M  V30 4424 N 424.347 -2.217 5.16532 0
M  V30 4425 H 416.498 0.18153 2.11623 0
M  V30 4426 H 418.761 0.0185514 0.947818 0
M  V30 4427 H 418.467 -0.523591 3.47781 0
M  V30 4428 H 418.341 -2.22052 3.04915 0
M  V30 4429 H 420.728 -2.10956 2.06353 0
M  V30 4430 H 420.809 -0.40357 2.52596 0
M  V30 4431 H 420.453 -1.07083 4.96483 0
M  V30 4432 H 420.383 -2.78128 4.4716 0
M  V30 4433 H 422.874 -1.64179 3.40373 0
M  V30 4434 H 423.187 -2.78325 7.20941 0
M  V30 4435 H 421.532 -2.50953 6.48111 0
M  V30 4436 H 424.723 -1.95745 4.25207 0
M  V30 4437 H 424.896 -2.47818 5.98741 0
M  V30 4438 N 418.302 -1.35869 -0.798587 0
M  V30 4439 C 419.212 -1.31578 -1.94228 0
M  V30 4440 C 420.228 -0.21939 -1.72611 0
M  V30 4441 O 421.404 -0.450167 -1.96305 0
M  V30 4442 C 418.469 -1.09528 -3.28944 0
M  V30 4443 C 417.53 -2.28556 -3.63402 0
M  V30 4444 C 416.763 -2.07549 -4.9169 0
M  V30 4445 O 416.986 -1.046 -5.60727 0
M  V30 4446 O 415.92 -2.95106 -5.24591 0
M  V30 4447 H 419.746 -2.27847 -2.00796 0
M  V30 4448 H 417.331 -1.16322 -0.937526 0
M  V30 4449 H 419.213 -0.991127 -4.09579 0
M  V30 4450 H 417.888 -0.16315 -3.23289 0
M  V30 4451 H 416.795 -2.44538 -2.83112 0
M  V30 4452 H 418.128 -3.20244 -3.73771 0
M  V30 4453 N 419.78 1.02168 -1.19998 0
M  V30 4454 C 420.743 2.08765 -0.94604 0
M  V30 4455 C 421.743 1.60618 0.0763846 0
M  V30 4456 O 422.933 1.73472 -0.159135 0
M  V30 4457 C 420.065 3.38262 -0.423255 0
M  V30 4458 H 421.258 2.32726 -1.89153 0
M  V30 4459 H 418.811 1.1889 -1.01464 0
M  V30 4460 H 419.546 3.19974 0.527938 0
M  V30 4461 H 419.331 3.74532 -1.16053 0
M  V30 4462 H 420.821 4.16759 -0.264911 0
M  V30 4463 N 421.258 1.00505 1.21394 0
M  V30 4464 C 422.506 0.686415 1.90086 0
M  V30 4465 C 422.827 -0.785264 1.7849 0
M  V30 4466 O 422.097 -1.56387 1.17983 0
M  V30 4467 H 420.677 0.2509 0.703604 0
M  V30 4468 H 423.339 1.27417 1.47482 0
M  V30 4469 H 422.435 0.959621 2.96981 0
M  V30 4470 N 422.737 -1.36956 0.779787 0
M  V30 4471 C 423.685 -2.32053 0.15942 0
M  V30 4472 C 424.679 -1.55333 -0.675878 0
M  V30 4473 O 425.885 -1.70668 -0.57204 0
M  V30 4474 H 422.26 -0.751286 0.0327707 0
M  V30 4475 H 424.231 -2.8195 0.977078 0
M  V30 4476 C 422.98 -3.40602 -0.698977 0
M  V30 4477 H 422.303 -3.99746 -0.0655966 0
M  V30 4478 H 423.743 -4.09486 -1.09989 0
M  V30 4479 C 422.202 -2.81359 -1.85307 0
M  V30 4480 O 422.732 -2.72751 -2.94906 0
M  V30 4481 N 420.938 -2.38786 -1.65619 0
M  V30 4482 H 420.485 -2.45987 -0.764725 0
M  V30 4483 H 420.443 -1.99493 -2.43002 0
M  V30 4484 N 424.215 -0.530993 -1.48385 0
M  V30 4485 C 425.464 0.00474348 -2.01699 0
M  V30 4486 C 425.777 1.35227 -1.41325 0
M  V30 4487 O 426.983 1.97643 -1.86144 0
M  V30 4488 C 425.439 0.0588473 -3.59852 0
M  V30 4489 C 425.047 -1.28385 -4.2921 0
M  V30 4490 C 426.791 0.543358 -4.21008 0
M  V30 4491 C 424.698 -1.19028 -5.79298 0
M  V30 4492 H 423.628 0.00554317 -0.75398 0
M  V30 4493 H 426.279 -0.674924 -1.70637 0
M  V30 4494 H 424.661 0.803612 -3.8776 0
M  V30 4495 H 425.835 -2.04426 -4.12973 0
M  V30 4496 H 424.15 -1.70418 -3.7993 0
M  V30 4497 H 426.747 0.631351 -5.3096 0
M  V30 4498 H 427.09 1.54937 -3.86394 0
M  V30 4499 H 427.623 -0.145754 -3.97533 0
M  V30 4500 H 424.362 -2.17147 -6.18488 0
M  V30 4501 H 423.882 -0.471246 -5.97946 0
M  V30 4502 H 425.561 -0.881365 -6.40969 0
M  V30 4503 N 425.693 1.55336 -0.266172 0
M  V30 4504 C 426.641 2.23587 0.641228 0
M  V30 4505 C 427.635 1.22986 1.16494 0
M  V30 4506 O 428.841 1.40943 1.1196 0
M  V30 4507 H 425.216 0.717452 0.225315 0
M  V30 4508 H 427.187 2.9837 0.0426561 0
M  V30 4509 C 425.936 2.96369 1.81826 0
M  V30 4510 H 425.259 3.73563 1.42445 0
M  V30 4511 H 426.699 3.47459 2.42998 0
M  V30 4512 C 425.158 2.0133 2.70125 0
M  V30 4513 O 425.688 1.55875 3.70224 0
M  V30 4514 N 423.894 1.6802 2.37102 0
M  V30 4515 H 423.441 2.05181 1.55751 0
M  V30 4516 H 423.399 1.047 2.96454 0
M  V30 4517 N 427.171 -0.0066808 1.57599 0
M  V30 4518 C 428.103 -1.02827 2.04839 0
M  V30 4519 C 429.116 -1.31108 0.965113 0
M  V30 4520 O 430.305 -1.28202 1.24203 0
M  V30 4521 C 427.405 -2.36464 2.42771 0
M  V30 4522 C 426.578 -2.27219 3.73751 0
M  V30 4523 C 425.637 -3.43489 3.98625 0
M  V30 4524 O 424.663 -3.21976 4.69382 0
M  V30 4525 N 425.865 -4.66116 3.46 0
M  V30 4526 H 428.63 -0.625455 2.93101 0
M  V30 4527 H 426.191 -0.194198 1.60731 0
M  V30 4528 H 428.183 -3.13008 2.56531 0
M  V30 4529 H 426.753 -2.68512 1.60063 0
M  V30 4530 H 425.973 -1.35629 3.70133 0
M  V30 4531 H 427.261 -2.18208 4.59633 0
M  V30 4532 H 426.659 -4.86493 2.88688 0
M  V30 4533 H 425.216 -5.39949 3.65101 0
M  V30 4534 N 428.649 -1.55105 -0.279332 0
M  V30 4535 C 429.874 -1.7976 -1.03446 0
M  V30 4536 C 430.299 -0.565952 -1.79384 0
M  V30 4537 O 429.657 0.484259 -1.74713 0
M  V30 4538 C 429.705 -3.0179 -1.97371 0
M  V30 4539 O 428.809 -2.76432 -3.06038 0
M  V30 4540 H 428.15 -0.594334 -0.29608 0
M  V30 4541 H 430.68 -2.02235 -0.310165 0
M  V30 4542 H 430.69 -3.30351 -2.39441 0
M  V30 4543 H 429.365 -3.91085 -1.4151 0
M  V30 4544 H 427.942 -2.58949 -2.68328 0
M  V30 4545 N 430.127 0.543554 -1.4793 0
M  V30 4546 C 431.057 1.65888 -1.64327 0
M  V30 4547 C 432.038 1.62818 -0.492383 0
M  V30 4548 O 433.223 1.80226 -0.723338 0
M  V30 4549 C 430.353 3.04506 -1.67013 0
M  V30 4550 C 429.307 3.2243 -2.81466 0
M  V30 4551 C 428.633 4.61972 -2.69233 0
M  V30 4552 C 429.933 3.06496 -4.22915 0
M  V30 4553 H 431.627 1.52421 -2.57698 0
M  V30 4554 H 429.173 0.731849 -1.24016 0
M  V30 4555 H 431.126 3.82391 -1.77074 0
M  V30 4556 H 429.85 3.18964 -0.70212 0
M  V30 4557 H 428.509 2.46957 -2.70938 0
M  V30 4558 H 428.157 4.73247 -1.7043 0
M  V30 4559 H 427.857 4.74911 -3.46025 0
M  V30 4560 H 429.381 5.41974 -2.81242 0
M  V30 4561 H 430.795 3.74186 -4.34348 0
M  V30 4562 H 429.192 3.30938 -5.006 0
M  V30 4563 H 430.262 2.03077 -4.40327 0
M  V30 4564 N 431.605 1.3629 0.791371 0
M  V30 4565 C 432.535 1.33137 1.91825 0
M  V30 4566 C 433.516 0.203168 1.68882 0
M  V30 4567 O 434.701 0.400509 1.90025 0
M  V30 4568 C 431.831 1.11793 3.28816 0
M  V30 4569 C 430.785 2.21417 3.66277 0
M  V30 4570 C 430.111 1.85218 5.01596 0
M  V30 4571 C 431.411 3.63489 3.75064 0
M  V30 4572 H 433.105 2.2743 1.9472 0
M  V30 4573 H 430.651 1.09479 0.935437 0
M  V30 4574 H 432.604 1.08222 4.07266 0
M  V30 4575 H 431.328 0.139501 3.26302 0
M  V30 4576 H 429.987 2.2411 2.90121 0
M  V30 4577 H 429.635 0.859544 4.95602 0
M  V30 4578 H 429.335 2.58611 5.27631 0
M  V30 4579 H 430.859 1.832 5.82469 0
M  V30 4580 H 432.273 3.63034 4.43711 0
M  V30 4581 H 430.67 4.35771 4.12582 0
M  V30 4582 H 431.74 3.98536 2.76219 0
M  V30 4583 N 433.083 -1.0153 1.20538 0
M  V30 4584 C 434.311 -1.78746 1.04199 0
M  V30 4585 C 434.726 -1.84323 -0.408733 0
M  V30 4586 O 434.083 -1.29714 -1.28377 0
M  V30 4587 C 434.134 -3.23152 1.62035 0
M  V30 4588 O 433.855 -3.17918 3.0143 0
M  V30 4589 C 435.356 -4.16911 1.50666 0
M  V30 4590 H 432.576 -0.56208 0.366479 0
M  V30 4591 H 435.12 -1.27794 1.59653 0
M  V30 4592 H 433.275 -3.71248 1.10697 0
M  V30 4593 H 433.689 -4.08567 3.28897 0
M  V30 4594 H 435.163 -5.16072 1.95892 0
M  V30 4595 H 435.64 -4.36791 0.459363 0
M  V30 4596 H 436.246 -3.74698 2.01201 0
M  V30 4597 N 434.561 -1.01147 -1.20859 0
M  V30 4598 C 435.491 -0.597663 -2.25722 0
M  V30 4599 C 436.472 0.384744 -1.65692 0
M  V30 4600 O 437.657 0.271303 -1.92296 0
M  V30 4601 C 434.787 0.0700149 -3.47229 0
M  V30 4602 C 433.741 -0.832843 -4.19819 0
M  V30 4603 C 433.067 -0.0312202 -5.34691 0
M  V30 4604 C 434.367 -2.1385 -4.76514 0
M  V30 4605 H 436.061 -1.47423 -2.60589 0
M  V30 4606 H 433.607 -0.710301 -1.25263 0
M  V30 4607 H 435.56 0.37103 -4.19763 0
M  V30 4608 H 434.284 0.981259 -3.11511 0
M  V30 4609 H 432.943 -1.11778 -3.49144 0
M  V30 4610 H 432.591 0.881515 -4.95215 0
M  V30 4611 H 432.291 -0.632434 -5.84187 0
M  V30 4612 H 433.815 0.26346 -6.10031 0
M  V30 4613 H 435.229 -1.9002 -5.40893 0
M  V30 4614 H 433.626 -2.69012 -5.36426 0
M  V30 4615 H 434.696 -2.80495 -3.95538 0
M  V30 4616 N 436.039 1.36541 -0.78704 0
M  V30 4617 C 437.287 1.98911 -0.357633 0
M  V30 4618 C 437.608 1.62778 1.07371 0
M  V30 4619 O 436.878 0.900612 1.73971 0
M  V30 4620 H 435.458 0.735734 -0.129246 0
M  V30 4621 H 438.12 1.66776 -1.00855 0
M  V30 4622 H 437.216 3.08874 -0.447549 0
M  V30 4623 N 437.518 0.538854 1.48102 0
M  V30 4624 C 438.934 0.19732 1.58376 0
M  V30 4625 C 439.134 -1.29971 1.5398 0
M  V30 4626 O 438.19 -2.07861 1.43352 0
M  V30 4627 C 439.503 0.807716 2.89649 0
M  V30 4628 C 441.051 0.77726 3.03196 0
M  V30 4629 C 441.526 1.36639 4.37143 0
M  V30 4630 N 443.017 1.32875 4.43732 0
M  V30 4631 C 443.752 1.7544 5.45901 0
M  V30 4632 N 443.248 2.25776 6.54979 0
M  V30 4633 N 445.041 1.66623 5.36836 0
M  V30 4634 H 437.192 1.5117 1.49202 0
M  V30 4635 H 439.455 0.629327 0.708979 0
M  V30 4636 H 439.161 1.85909 2.98548 0
M  V30 4637 H 439.035 0.289975 3.76084 0
M  V30 4638 H 441.422 -0.265374 2.93904 0
M  V30 4639 H 441.503 1.33256 2.18349 0
M  V30 4640 H 441.147 2.408 4.47189 0
M  V30 4641 H 441.077 0.786689 5.20691 0
M  V30 4642 H 443.568 0.96037 3.65493 0
M  V30 4643 H 443.881 2.56226 7.29087 0
M  V30 4644 H 442.226 2.29775 6.55918 0
M  V30 4645 H 445.417 1.27089 4.50517 0
M  V30 4646 H 445.59 2.00115 6.16326 0
M  V30 4647 N 438.996 -1.55193 0.274407 0
M  V30 4648 C 440.242 -1.99877 -0.343086 0
M  V30 4649 C 440.575 -1.16256 -1.55558 0
M  V30 4650 O 439.85 -0.232462 -1.93106 0
M  V30 4651 C 440.133 -3.52706 -0.725965 0
M  V30 4652 C 439.986 -4.47081 0.493818 0
M  V30 4653 C 441.305 -4.11422 -1.56268 0
M  V30 4654 H 438.424 -0.726625 -0.123229 0
M  V30 4655 H 441.066 -1.86136 0.38121 0
M  V30 4656 H 439.216 -3.64546 -1.34307 0
M  V30 4657 H 440.888 -4.47186 1.13237 0
M  V30 4658 H 439.131 -4.1877 1.13201 0
M  V30 4659 H 439.802 -5.51699 0.18217 0
M  V30 4660 H 442.278 -4.02855 -1.04151 0
M  V30 4661 H 441.154 -5.18568 -1.79939 0
M  V30 4662 H 441.415 -3.61607 -2.54348 0
M  V30 4663 N 440.474 -0.00167713 -1.576 0
M  V30 4664 C 441.723 0.682021 -1.89819 0
M  V30 4665 C 442.036 1.74844 -0.876871 0
M  V30 4666 O 443.242 2.48688 -1.08934 0
M  V30 4667 C 441.698 1.26425 -3.36964 0
M  V30 4668 C 441.306 0.232568 -4.47396 0
M  V30 4669 C 443.05 1.92604 -3.78291 0
M  V30 4670 C 440.957 0.824882 -5.85619 0
M  V30 4671 H 439.887 0.258499 -0.708304 0
M  V30 4672 H 442.538 -0.0624957 -1.83394 0
M  V30 4673 H 440.92 2.05949 -3.38232 0
M  V30 4674 H 442.094 -0.5382 -4.57646 0
M  V30 4675 H 440.409 -0.32888 -4.15099 0
M  V30 4676 H 443.006 2.37827 -4.78897 0
M  V30 4677 H 443.349 2.75732 -3.11894 0
M  V30 4678 H 443.882 1.19812 -3.79328 0
M  V30 4679 H 440.621 0.0323542 -6.55492 0
M  V30 4680 H 440.141 1.56477 -5.79029 0
M  V30 4681 H 441.82 1.32301 -6.33329 0
M  V30 4682 N 441.952 1.55251 0.271103 0
M  V30 4683 C 443.18 1.79974 1.02064 0
M  V30 4684 C 443.595 0.574003 1.79863 0
M  V30 4685 O 442.952 -0.456962 1.76686 0
M  V30 4686 C 443.003 3.02603 1.97772 0
M  V30 4687 O 442.724 4.20443 1.23124 0
M  V30 4688 C 444.225 3.39944 2.84522 0
M  V30 4689 H 441.445 0.599489 0.301419 0
M  V30 4690 H 443.989 2.02268 0.301313 0
M  V30 4691 H 442.144 2.8243 2.65165 0
M  V30 4692 H 442.558 4.89783 1.87651 0
M  V30 4693 H 444.032 4.28915 3.47471 0
M  V30 4694 H 444.509 2.59432 3.54389 0
M  V30 4695 H 445.115 3.62383 2.22618 0
M  V30 4696 N 443.43 -0.535701 1.48216 0
M  V30 4697 C 444.393 -1.623 1.61838 0
M  V30 4698 C 445.393 -1.53087 0.492024 0
M  V30 4699 O 446.583 -1.5686 0.757668 0
M  V30 4700 C 443.715 -3.01907 1.58319 0
M  V30 4701 H 444.908 -1.51564 2.58783 0
M  V30 4702 H 442.461 -0.757317 1.36727 0
M  V30 4703 H 443.196 -3.18155 0.628299 0
M  V30 4704 H 442.981 -3.10003 2.40085 0
M  V30 4705 H 444.471 -3.80969 1.71033 0
M  V30 4706 N 444.908 -1.36708 -0.784132 0
M  V30 4707 C 445.838 -1.34153 -1.91116 0
M  V30 4708 C 446.819 -0.212121 -1.68772 0
M  V30 4709 O 448.004 -0.410581 -1.8981 0
M  V30 4710 C 445.134 -1.13535 -3.28218 0
M  V30 4711 C 444.088 -2.23356 -3.65097 0
M  V30 4712 C 443.414 -1.87875 -5.00607 0
M  V30 4713 C 444.714 -3.65473 -3.73131 0
M  V30 4714 H 446.408 -2.28459 -1.93512 0
M  V30 4715 H 443.954 -1.09973 -0.929618 0
M  V30 4716 H 445.907 -1.10381 -4.06687 0
M  V30 4717 H 444.631 -0.156804 -3.26223 0
M  V30 4718 H 443.29 -2.25645 -2.88929 0
M  V30 4719 H 442.938 -0.885814 -4.95139 0
M  V30 4720 H 442.638 -2.61406 -5.26252 0
M  V30 4721 H 444.162 -1.86286 -5.81489 0
M  V30 4722 H 445.576 -3.65382 -4.41779 0
M  V30 4723 H 443.973 -4.37953 -4.10265 0
M  V30 4724 H 445.043 -3.99995 -2.74102 0
M  V30 4725 N 446.386 1.0089 -1.21074 0
M  V30 4726 C 447.632 1.74866 -1.02712 0
M  V30 4727 C 447.965 1.89178 0.438787 0
M  V30 4728 O 447.24 1.42325 1.32567 0
M  V30 4729 C 447.523 3.16347 -1.72036 0
M  V30 4730 C 447.376 3.09782 -3.26121 0
M  V30 4731 C 448.695 4.15187 -1.45973 0
M  V30 4732 H 445.814 0.634736 -0.374539 0
M  V30 4733 H 448.456 1.17646 -1.49196 0
M  V30 4734 H 446.606 3.65201 -1.32517 0
M  V30 4735 H 448.278 2.68673 -3.74983 0
M  V30 4736 H 446.521 2.46982 -3.56626 0
M  V30 4737 H 447.192 4.09829 -3.6979 0
M  V30 4738 H 449.668 3.75022 -1.80272 0
M  V30 4739 H 448.544 5.12331 -1.96999 0
M  V30 4740 H 448.805 4.40386 -0.388924 0
M  V30 4741 N 447.864 1.01787 1.20321 0
M  V30 4742 C 448.774 0.598898 2.26827 0
M  V30 4743 C 449.79 -0.36418 1.70146 0
M  V30 4744 O 450.966 -0.224812 2.00141 0
M  V30 4745 C 448.031 -0.0549769 3.46656 0
M  V30 4746 C 447.092 0.954205 4.18561 0
M  V30 4747 C 446.325 0.331439 5.3267 0
M  V30 4748 O 446.548 -0.86851 5.63749 0
M  V30 4749 O 445.482 1.0488 5.92692 0
M  V30 4750 H 449.308 1.48562 2.64883 0
M  V30 4751 H 446.893 0.787434 1.26964 0
M  V30 4752 H 448.775 -0.420102 4.19301 0
M  V30 4753 H 447.45 -0.915876 3.10473 0
M  V30 4754 H 446.357 1.37072 3.48083 0
M  V30 4755 H 447.69 1.78511 4.58688 0
M  V30 4756 N 449.342 -1.36122 0.79427 0
M  V30 4757 C 450.758 -1.5232 0.476525 0
M  V30 4758 C 450.958 -1.74685 -1.00436 0
M  V30 4759 O 450.014 -1.78115 -1.78973 0
M  V30 4760 C 451.327 -2.70607 1.31119 0
M  V30 4761 C 452.875 -2.8448 1.30537 0
M  V30 4762 C 453.35 -4.05778 2.12387 0
M  V30 4763 N 454.841 -4.12933 2.09859 0
M  V30 4764 C 455.576 -5.05876 2.69957 0
M  V30 4765 N 455.072 -6.04232 3.38934 0
M  V30 4766 N 456.865 -4.98528 2.59665 0
M  V30 4767 H 449.016 -1.1986 1.75349 0
M  V30 4768 H 451.279 -0.585418 0.745647 0
M  V30 4769 H 450.985 -2.60619 2.36158 0
M  V30 4770 H 450.859 -3.64888 0.955843 0
M  V30 4771 H 453.246 -2.93927 0.262876 0
M  V30 4772 H 453.327 -1.91093 1.70051 0
M  V30 4773 H 452.971 -3.97092 3.1667 0
M  V30 4774 H 452.901 -4.98323 1.70242 0
M  V30 4775 H 455.392 -3.42515 1.59662 0
M  V30 4776 H 455.705 -6.71724 3.82109 0
M  V30 4777 H 454.05 -6.04443 3.43036 0
M  V30 4778 H 457.241 -4.20641 2.05375 0
M  V30 4779 H 457.414 -5.70773 3.06793 0
M  V30 4780 N 450.82 -0.546701 -1.47814 0
M  V30 4781 C 452.048 -0.0232857 -2.06887 0
M  V30 4782 C 452.463 1.26571 -1.4009 0
M  V30 4783 O 451.82 1.7569 -0.493906 0
M  V30 4784 C 451.871 0.186975 -3.61016 0
M  V30 4785 O 451.592 -1.05097 -4.25307 0
M  V30 4786 C 453.093 0.748872 -4.36929 0
M  V30 4787 H 450.313 -0.0410763 -0.669742 0
M  V30 4788 H 452.857 -0.757117 -1.89968 0
M  V30 4789 H 451.012 0.870903 -3.77484 0
M  V30 4790 H 451.426 -0.842121 -5.17695 0
M  V30 4791 H 452.9 0.845334 -5.45489 0
M  V30 4792 H 453.377 1.75772 -4.02493 0
M  V30 4793 H 453.983 0.100979 -4.2518 0
M  V30 4794 N 452.299 1.55045 -0.282633 0
M  V30 4795 C 453.71 1.85473 0.213655 0
M  V30 4796 C 454.061 1.20465 1.54863 0
M  V30 4797 O 453.186 0.495676 2.10647 0
M  V30 4798 C 453.781 3.36496 0.394445 0
M  V30 4799 C 452.34 3.67022 0.834961 0
M  V30 4800 C 451.487 2.77218 -0.0674081 0
M  V30 4801 H 454.438 1.50478 -0.504202 0
M  V30 4802 H 454.459 3.60007 1.23186 0
M  V30 4803 H 453.971 3.83782 -0.577326 0
M  V30 4804 H 452.072 3.25241 1.81794 0
M  V30 4805 H 452.185 4.74433 0.667075 0
M  V30 4806 H 450.549 2.5069 0.450196 0
M  V30 4807 H 451.332 3.2732 -1.0352 0
M  V30 4808 N 453.777 0.010035 1.57597 0
M  V30 4809 C 454.727 -0.986858 2.05536 0
M  V30 4810 C 455.711 -1.29711 0.952042 0
M  V30 4811 O 456.903 -1.28641 1.21575 0
M  V30 4812 C 454.032 -2.2756 2.57043 0
M  V30 4813 C 453.118 -1.99455 3.74271 0
M  V30 4814 N 453.509 -1.41546 4.85591 0
M  V30 4815 C 451.807 -2.29547 3.82393 0
M  V30 4816 C 452.508 -1.3014 5.66956 0
M  V30 4817 N 451.484 -1.79044 5.13268 0
M  V30 4818 H 455.286 -0.533778 2.89012 0
M  V30 4819 H 452.8 -0.195432 1.6122 0
M  V30 4820 H 454.797 -2.99829 2.89669 0
M  V30 4821 H 453.457 -2.73512 1.7499 0
M  V30 4822 H 454.468 -1.09294 5.06236 0
M  V30 4823 H 451.145 -2.78304 3.11213 0
M  V30 4824 H 452.535 -0.855237 6.66435 0
M  V30 4825 N 455.255 -1.55392 -0.262866 0
M  V30 4826 C 456.501 -1.76737 -0.99458 0
M  V30 4827 C 456.834 -0.572453 -1.85571 0
M  V30 4828 O 456.109 0.429732 -1.89693 0
M  V30 4829 C 456.392 -3.07824 -1.8686 0
M  V30 4830 C 456.245 -4.3769 -1.03672 0
M  V30 4831 C 457.564 -3.35021 -2.85393 0
M  V30 4832 H 454.683 -0.643005 -0.360157 0
M  V30 4833 H 457.325 -1.88126 -0.266216 0
M  V30 4834 H 455.475 -2.98245 -2.48962 0
M  V30 4835 H 457.147 -4.59238 -0.43563 0
M  V30 4836 H 455.39 -4.32461 -0.340513 0
M  V30 4837 H 456.061 -5.25759 -1.6817 0
M  V30 4838 H 458.537 -3.44458 -2.33426 0
M  V30 4839 H 457.413 -4.27989 -3.43681 0
M  V30 4840 H 457.674 -2.55153 -3.61039 0
M  V30 4841 N 456.733 0.527833 -1.48498 0
M  V30 4842 C 458.144 1.10975 -1.50138 0
M  V30 4843 C 458.495 1.943 -0.272378 0
M  V30 4844 O 457.62 2.07319 0.620301 0
M  V30 4845 C 458.215 2.01927 -2.72049 0
M  V30 4846 C 456.774 2.55332 -2.76554 0
M  V30 4847 C 455.921 1.32341 -2.43683 0
M  V30 4848 H 458.872 0.312986 -1.55583 0
M  V30 4849 H 458.893 2.86244 -2.50689 0
M  V30 4850 H 458.405 1.41254 -3.61481 0
M  V30 4851 H 456.506 3.19721 -1.91336 0
M  V30 4852 H 456.619 2.94319 -3.78038 0
M  V30 4853 H 454.983 1.63989 -1.94884 0
M  V30 4854 H 455.766 0.734165 -3.35358 0
M  V30 4855 N 458.211 1.37122 0.776871 0
M  V30 4856 C 459.441 1.35034 1.56363 0
M  V30 4857 C 459.849 -0.0674681 1.8908 0
M  V30 4858 O 459.192 -1.03826 1.51545 0
M  V30 4859 C 459.254 2.11894 2.90415 0
M  V30 4860 C 458.918 3.60897 2.80362 0
M  V30 4861 C 459.915 4.54887 2.51742 0
M  V30 4862 C 457.6 4.03951 2.98545 0
M  V30 4863 C 459.594 5.89909 2.41426 0
M  V30 4864 C 457.281 5.3906 2.87849 0
M  V30 4865 C 458.279 6.31852 2.5933 0
M  V30 4866 O 457.967 7.64479 2.48651 0
M  V30 4867 H 457.699 0.464402 0.49123 0
M  V30 4868 H 460.253 1.80992 0.971127 0
M  V30 4869 H 458.483 1.60618 3.51765 0
M  V30 4870 H 460.172 2.02505 3.51776 0
M  V30 4871 H 460.938 4.22934 2.37385 0
M  V30 4872 H 456.817 3.3209 3.19746 0
M  V30 4873 H 460.361 6.62304 2.19086 0
M  V30 4874 H 456.258 5.70617 3.01773 0
M  V30 4875 H 457.026 7.74742 2.64039 0
M  V30 4876 N 459.689 -1.00246 1.21608 0
M  V30 4877 C 461.105 -1.26435 0.973975 0
M  V30 4878 C 461.305 -1.98642 -0.338143 0
M  V30 4879 O 460.361 -2.29026 -1.06317 0
M  V30 4880 C 461.674 -2.08551 2.16626 0
M  V30 4881 C 463.222 -2.21769 2.20879 0
M  V30 4882 C 463.697 -3.07267 3.39633 0
M  V30 4883 N 465.188 -3.14855 3.39736 0
M  V30 4884 C 465.923 -3.81274 4.28273 0
M  V30 4885 N 465.419 -4.497 5.27012 0
M  V30 4886 N 467.212 -3.7794 4.16074 0
M  V30 4887 H 459.363 -0.518089 2.05984 0
M  V30 4888 H 461.626 -0.291368 0.902113 0
M  V30 4889 H 461.332 -1.62847 3.11727 0
M  V30 4890 H 461.206 -3.09303 2.15897 0
M  V30 4891 H 463.593 -2.66691 1.26332 0
M  V30 4892 H 463.674 -1.20478 2.25652 0
M  V30 4893 H 463.318 -2.63047 4.34475 0
M  V30 4894 H 463.248 -4.08678 3.321 0
M  V30 4895 H 465.739 -2.66147 2.6828 0
M  V30 4896 H 466.052 -4.98092 5.90867 0
M  V30 4897 H 464.397 -4.48479 5.30935 0
M  V30 4898 H 467.588 -3.23638 3.38195 0
M  V30 4899 H 467.761 -4.29424 4.85282 0
M  V30 4900 N 461.167 -1.02423 -1.1978 0
M  V30 4901 C 462.077 -0.610919 -2.26506 0
M  V30 4902 C 463.093 0.355152 -1.70337 0
M  V30 4903 O 464.269 0.214195 -2.00258 0
M  V30 4904 C 461.334 0.0365921 -3.46681 0
M  V30 4905 C 460.395 -0.976389 -4.18049 0
M  V30 4906 C 459.628 -0.359683 -5.32487 0
M  V30 4907 O 459.851 0.838601 -5.64202 0
M  V30 4908 O 458.785 -1.08022 -5.92127 0
M  V30 4909 H 462.611 -1.49965 -2.64091 0
M  V30 4910 H 460.196 -0.794156 -1.26545 0
M  V30 4911 H 462.078 0.39786 -4.19518 0
M  V30 4912 H 460.753 0.899398 -3.10954 0
M  V30 4913 H 459.66 -1.38916 -3.47352 0
M  V30 4914 H 460.993 -1.80941 -4.57735 0
M  V30 4915 N 462.645 1.35699 -0.801477 0
M  V30 4916 C 463.87 2.03687 -0.390678 0
M  V30 4917 C 464.295 1.60015 0.988778 0
M  V30 4918 O 463.653 0.774357 1.63931 0
M  V30 4919 C 463.701 3.57439 -0.476404 0
M  V30 4920 O 462.805 4.09208 0.512106 0
M  V30 4921 H 462.146 0.64344 -0.163956 0
M  V30 4922 H 464.676 1.73403 -1.08594 0
M  V30 4923 H 464.686 4.06544 -0.344357 0
M  V30 4924 H 463.361 3.88576 -1.48262 0
M  V30 4925 H 461.938 3.7134 0.340721 0
M  V30 4926 N 464.123 0.554532 1.47522 0
M  V30 4927 C 465.07 -0.19466 2.29978 0
M  V30 4928 C 466.04 -0.910882 1.38896 0
M  V30 4929 O 467.225 -0.907102 1.67858 0
M  V30 4930 C 464.365 -1.22035 3.22802 0
M  V30 4931 C 463.478 -0.510474 4.28973 0
M  V30 4932 C 462.613 -1.52123 5.08952 0
M  V30 4933 C 461.652 -0.796173 6.069 0
M  V30 4934 N 460.789 -1.75363 6.79847 0
M  V30 4935 H 465.629 0.51461 2.93523 0
M  V30 4936 H 463.166 0.265607 1.44682 0
M  V30 4937 H 465.124 -1.8276 3.7504 0
M  V30 4938 H 463.754 -1.89769 2.61127 0
M  V30 4939 H 462.806 0.211234 3.79813 0
M  V30 4940 H 464.118 0.0576503 4.98767 0
M  V30 4941 H 463.272 -2.20207 5.65326 0
M  V30 4942 H 462.011 -2.12327 4.39054 0
M  V30 4943 H 461.016 -0.101388 5.49707 0
M  V30 4944 H 462.241 -0.199911 6.78806 0
M  V30 4945 H 460.187 -2.3443 6.12682 0
M  V30 4946 H 460.104 -1.23759 7.45801 0
M  V30 4947 H 461.372 -2.4257 7.40797 0
M  V30 4948 N 465.601 -1.54893 0.290851 0
M  V30 4949 C 466.531 -2.26103 -0.583084 0
M  V30 4950 C 467.512 -1.25684 -1.14619 0
M  V30 4951 O 468.697 -1.54436 -1.17741 0
M  V30 4952 C 465.827 -2.99409 -1.75987 0
M  V30 4953 C 464.781 -4.0689 -1.32758 0
M  V30 4954 C 464.107 -4.67856 -2.58872 0
M  V30 4955 C 465.407 -5.20215 -0.46624 0
M  V30 4956 H 467.101 -2.99398 0.0108214 0
M  V30 4957 H 464.647 -1.43998 0.00664468 0
M  V30 4958 H 466.6 -3.47943 -2.37727 0
M  V30 4959 H 465.324 -2.23675 -2.37985 0
M  V30 4960 H 463.983 -3.59191 -0.733299 0
M  V30 4961 H 463.631 -3.88772 -3.19163 0
M  V30 4962 H 463.331 -5.40438 -2.30653 0
M  V30 4963 H 464.855 -5.19147 -3.21433 0
M  V30 4964 H 466.269 -5.64704 -0.989047 0
M  V30 4965 H 464.666 -5.99455 -0.27826 0
M  V30 4966 H 465.736 -4.82198 0.511173 0
M  V30 4967 N 467.08 -0.0183926 -1.57589 0
M  V30 4968 C 468.308 0.673046 -1.95647 0
M  V30 4969 C 468.723 1.66275 -0.894312 0
M  V30 4970 O 468.08 1.82072 0.124975 0
M  V30 4971 C 468.131 1.38884 -3.33756 0
M  V30 4972 O 467.852 0.438806 -4.35897 0
M  V30 4973 C 469.353 2.1731 -3.86383 0
M  V30 4974 H 466.573 0.186292 -0.644621 0
M  V30 4975 H 469.117 -0.0749748 -2.04363 0
M  V30 4976 H 467.272 2.08835 -3.26293 0
M  V30 4977 H 467.686 0.945869 -5.15901 0
M  V30 4978 H 469.16 2.62863 -4.85394 0
M  V30 4979 H 469.637 3.00764 -3.20059 0
M  V30 4980 H 470.243 1.52339 -3.97081 0
M  V30 4981 N 468.558 1.5553 0.254621 0
M  V30 4982 C 469.974 1.4778 0.602753 0
M  V30 4983 C 470.174 0.707047 1.88688 0
M  V30 4984 O 469.23 0.233288 2.5142 0
M  V30 4985 C 470.543 2.92133 0.712648 0
M  V30 4986 C 472.091 3.02458 0.805488 0
M  V30 4987 C 472.566 4.48102 0.947009 0
M  V30 4988 N 474.057 4.52008 1.01207 0
M  V30 4989 C 474.792 5.61939 1.1407 0
M  V30 4990 N 474.288 6.81697 1.23536 0
M  V30 4991 N 476.081 5.49719 1.17325 0
M  V30 4992 H 468.232 2.04085 -0.588463 0
M  V30 4993 H 470.495 0.926229 -0.202001 0
M  V30 4994 H 470.201 3.51332 -0.160766 0
M  V30 4995 H 470.075 3.42187 1.58707 0
M  V30 4996 H 472.462 2.43344 1.66936 0
M  V30 4997 H 472.543 2.55627 -0.0939266 0
M  V30 4998 H 472.187 5.07824 0.087725 0
M  V30 4999 H 472.117 4.92607 1.86135 0
M  V30 5000 H 474.608 3.65749 0.950577 0
M  V30 5001 H 474.921 7.61228 1.33236 0
M  V30 5002 H 473.266 6.84473 1.20508 0
M  V30 5003 H 476.457 4.55095 1.09573 0
M  V30 5004 H 476.63 6.35432 1.27005 0
M  V30 5005 N 470.036 -0.519951 1.48776 0
M  V30 5006 C 471.285 -1.27175 1.56555 0
M  V30 5007 C 471.598 -1.9401 0.248869 0
M  V30 5008 O 472.804 -2.70725 0.205004 0
M  V30 5009 C 471.26 -2.30811 2.76142 0
M  V30 5010 C 470.868 -1.7 4.14493 0
M  V30 5011 C 472.612 -3.06937 2.9324 0
M  V30 5012 C 470.519 -2.71635 5.25327 0
M  V30 5013 H 469.449 -0.478329 0.582853 0
M  V30 5014 H 472.1 -0.547916 1.75129 0
M  V30 5015 H 470.482 -3.06274 2.51023 0
M  V30 5016 H 471.656 -1.00658 4.49672 0
M  V30 5017 H 469.971 -1.06331 4.02595 0
M  V30 5018 H 472.568 -3.82905 3.73213 0
M  V30 5019 H 472.911 -3.63409 2.03075 0
M  V30 5020 H 473.444 -2.38589 3.18308 0
M  V30 5021 H 470.183 -2.1997 6.1749 0
M  V30 5022 H 469.703 -3.39275 4.94624 0
M  V30 5023 H 471.382 -3.34429 5.53865 0
M  V30 5024 N 471.514 -1.37532 -0.769588 0
M  V30 5025 C 472.444 -1.36172 -1.89682 0
M  V30 5026 C 473.425 -0.23001 -1.68538 0
M  V30 5027 O 474.61 -0.43069 -1.89364 0
M  V30 5028 C 471.74 -1.1701 -3.26995 0
M  V30 5029 C 470.694 -2.27216 -3.62708 0
M  V30 5030 C 470.02 -1.93174 -4.98586 0
M  V30 5031 C 471.32 -3.6941 -3.69234 0
M  V30 5032 H 473.014 -2.30499 -1.91078 0
M  V30 5033 H 470.56 -1.10953 -0.917902 0
M  V30 5034 H 472.513 -1.14688 -4.05493 0
M  V30 5035 H 471.237 -0.191395 -3.26039 0
M  V30 5036 H 469.896 -2.28697 -2.86519 0
M  V30 5037 H 469.544 -0.938281 -4.94171 0
M  V30 5038 H 469.244 -2.66973 -5.23449 0
M  V30 5039 H 470.768 -1.92443 -5.79481 0
M  V30 5040 H 472.182 -3.70047 -4.37879 0
M  V30 5041 H 470.579 -4.4228 -4.05597 0
M  V30 5042 H 471.649 -4.0288 -2.69844 0
M  V30 5043 N 472.992 0.995999 -1.22138 0
M  V30 5044 C 473.924 2.08745 -0.946485 0
M  V30 5045 C 474.937 1.62633 0.0737356 0
M  V30 5046 O 476.126 1.77782 -0.159886 0
M  V30 5047 C 473.226 3.36516 -0.401305 0
M  V30 5048 C 472.399 4.11672 -1.47801 0
M  V30 5049 C 471.458 5.17728 -0.940461 0
M  V30 5050 O 470.484 5.45482 -1.62596 0
M  V30 5051 N 471.686 5.80005 0.239723 0
M  V30 5052 H 474.451 2.32908 -1.88611 0
M  V30 5053 H 472.012 1.16152 -1.12785 0
M  V30 5054 H 474.004 4.04691 -0.0270837 0
M  V30 5055 H 472.574 3.0944 0.443354 0
M  V30 5056 H 471.794 3.38171 -2.02568 0
M  V30 5057 H 473.082 4.58657 -2.20253 0
M  V30 5058 H 472.48 5.5982 0.813518 0
M  V30 5059 H 471.037 6.4943 0.555361 0
M  V30 5060 N 474.47 1.03057 1.19235 0
M  V30 5061 C 475.747 0.642608 1.84743 0
M  V30 5062 C 476.127 -0.878577 1.91948 0
M  V30 5063 O 475.475 -1.77597 1.43776 0
M  V30 5064 C 475.685 1.30665 3.23616 0
M  V30 5065 C 477.033 1.43098 3.9976 0
M  V30 5066 O 478.057 1.26396 3.3302 0
M  V30 5067 O 476.916 1.70223 5.19313 0
M  V30 5068 H 474.01 0.223573 0.796206 0
M  V30 5069 H 476.556 1.12883 1.26711 0
M  V30 5070 H 475.328 2.34544 3.13217 0
M  V30 5071 H 474.951 0.808405 3.89295 0
M  V30 5072 N 475.948 -1.35272 0.808662 0
M  V30 5073 C 477.173 -2.03477 0.401475 0
M  V30 5074 C 477.598 -1.60537 -0.980279 0
M  V30 5075 O 476.956 -0.78304 -1.63518 0
M  V30 5076 C 477.004 -3.57181 0.495354 0
M  V30 5077 O 476.108 -4.09474 -0.490397 0
M  V30 5078 H 475.449 -0.642561 0.167366 0
M  V30 5079 H 477.979 -1.72824 1.09512 0
M  V30 5080 H 477.989 -4.06356 0.365912 0
M  V30 5081 H 476.664 -3.87784 1.5032 0
M  V30 5082 H 475.241 -3.71516 -0.321023 0
M  V30 5083 N 477.426 -0.562348 -1.47226 0
M  V30 5084 C 478.356 0.170627 -2.32876 0
M  V30 5085 C 479.337 0.903748 -1.44106 0
M  V30 5086 O 480.522 0.883206 -1.72954 0
M  V30 5087 C 477.652 1.19786 -3.25989 0
M  V30 5088 C 476.606 0.580875 -4.2404 0
M  V30 5089 C 475.932 1.71311 -5.06514 0
M  V30 5090 C 477.232 -0.468714 -5.20193 0
M  V30 5091 H 478.926 -0.544441 -2.94408 0
M  V30 5092 H 476.472 -0.263271 -1.41573 0
M  V30 5093 H 478.425 1.71884 -3.84752 0
M  V30 5094 H 477.149 1.94294 -2.62521 0
M  V30 5095 H 475.808 0.0811538 -3.6651 0
M  V30 5096 H 475.456 2.44736 -4.39447 0
M  V30 5097 H 475.156 1.30604 -5.72902 0
M  V30 5098 H 476.68 2.23725 -5.68137 0
M  V30 5099 H 478.094 -0.0336028 -5.7329 0
M  V30 5100 H 476.491 -0.794957 -5.94811 0
M  V30 5101 H 477.561 -1.36269 -4.65359 0
M  V30 5102 N 478.904 1.54736 -0.299062 0
M  V30 5103 C 480.152 1.99706 0.31017 0
M  V30 5104 C 480.473 1.18896 1.54559 0
M  V30 5105 O 479.743 0.284445 1.93824 0
M  V30 5106 H 478.323 0.737686 0.117596 0
M  V30 5107 H 480.985 1.9054 -0.409943 0
M  V30 5108 H 480.081 3.06596 0.58355 0
M  V30 5109 N 480.382 0.0267497 1.57577 0
M  V30 5110 C 481.63 -0.651116 1.91324 0
M  V30 5111 C 481.951 -1.72804 0.90353 0
M  V30 5112 O 481.221 -1.95822 -0.0552946 0
M  V30 5113 H 479.801 -0.243491 0.706202 0
M  V30 5114 H 482.463 0.0739935 1.94759 0
M  V30 5115 H 481.559 -1.10536 2.9187 0
M  V30 5116 N 481.861 -1.55662 -0.24637 0
M  V30 5117 C 483.277 -1.48098 -0.594907 0
M  V30 5118 C 483.477 -0.717044 -1.8831 0
M  V30 5119 O 482.533 -0.246618 -2.51293 0
M  V30 5120 C 483.846 -2.92507 -0.697146 0
M  V30 5121 C 485.394 -3.02881 -0.789436 0
M  V30 5122 C 485.869 -4.48598 -0.923232 0
M  V30 5123 N 487.36 -4.52538 -0.988088 0
M  V30 5124 C 488.095 -5.62536 -1.11089 0
M  V30 5125 N 487.591 -6.82342 -1.19919 0
M  V30 5126 N 489.384 -5.50334 -1.14408 0
M  V30 5127 H 481.535 -2.0377 0.599278 0
M  V30 5128 H 483.798 -0.925145 0.20691 0
M  V30 5129 H 483.504 -3.51242 0.179396 0
M  V30 5130 H 483.378 -3.43024 -1.5689 0
M  V30 5131 H 485.765 -2.44226 -1.65643 0
M  V30 5132 H 485.846 -2.55574 0.107482 0
M  V30 5133 H 485.49 -5.07864 -0.0607927 0
M  V30 5134 H 485.42 -4.93587 -1.8352 0
M  V30 5135 H 487.911 -3.66248 -0.931167 0
M  V30 5136 H 488.224 -7.61924 -1.29197 0
M  V30 5137 H 486.569 -6.85102 -1.16876 0
M  V30 5138 H 489.76 -4.5567 -1.07158 0
M  V30 5139 H 489.933 -6.36096 -1.23634 0
M  V30 5140 N 483.339 0.512053 -1.4905 0
M  V30 5141 C 484.567 1.29116 -1.61669 0
M  V30 5142 C 484.982 1.86655 -0.283787 0
M  V30 5143 O 484.339 1.67293 0.729331 0
M  V30 5144 C 484.39 2.4293 -2.67707 0
M  V30 5145 O 484.111 1.87758 -3.95826 0
M  V30 5146 C 485.612 3.34476 -2.90931 0
M  V30 5147 H 482.832 0.392009 -0.544583 0
M  V30 5148 H 485.376 0.615881 -1.95006 0
M  V30 5149 H 483.531 3.06308 -2.37179 0
M  V30 5150 H 483.945 2.62393 -4.54148 0
M  V30 5151 H 485.419 4.10642 -3.68886 0
M  V30 5152 H 485.896 3.90801 -2.00427 0
M  V30 5153 H 486.502 2.76874 -3.22832 0
M  V30 5154 N 484.817 1.37938 0.762283 0
M  V30 5155 C 486.233 1.18945 1.06415 0
M  V30 5156 C 486.433 0.0321163 2.01474 0
M  V30 5157 O 485.489 -0.624844 2.44647 0
M  V30 5158 C 486.802 2.51218 1.65258 0
M  V30 5159 C 488.35 2.57824 1.7747 0
M  V30 5160 C 488.825 3.90251 2.39725 0
M  V30 5161 N 490.316 3.91744 2.47166 0
M  V30 5162 C 491.051 4.90966 2.96209 0
M  V30 5163 N 490.547 6.00585 3.45354 0
M  V30 5164 N 492.34 4.78363 2.9517 0
M  V30 5165 H 484.491 2.11994 0.131301 0
M  V30 5166 H 486.754 0.940262 0.120879 0
M  V30 5167 H 486.46 3.36317 1.02878 0
M  V30 5168 H 486.334 2.68989 2.64433 0
M  V30 5169 H 488.721 1.73126 2.3898 0
M  V30 5170 H 488.802 2.43928 0.770241 0
M  V30 5171 H 488.446 4.75368 1.78852 0
M  V30 5172 H 488.376 4.01454 3.40796 0
M  V30 5173 H 490.867 3.12563 2.12397 0
M  V30 5174 H 491.18 6.72236 3.81207 0
M  V30 5175 H 489.525 6.04217 3.43434 0
M  V30 5176 H 492.716 3.91841 2.56082 0
M  V30 5177 H 492.889 5.55843 3.33081 0
M  V30 5178 N 486.295 -0.989507 1.22664 0
M  V30 5179 C 487.523 -1.76496 1.07967 0
M  V30 5180 C 487.938 -1.85148 -0.369543 0
M  V30 5181 O 487.295 -1.32408 -1.25596 0
M  V30 5182 C 487.346 -3.19642 1.68853 0
M  V30 5183 O 487.067 -3.11453 3.08105 0
M  V30 5184 C 488.568 -4.13621 1.59475 0
M  V30 5185 H 485.788 -0.55418 0.378319 0
M  V30 5186 H 488.332 -1.24378 1.62328 0
M  V30 5187 H 486.487 -3.68816 1.18547 0
M  V30 5188 H 486.901 -4.01499 3.37489 0
M  V30 5189 H 488.375 -5.11801 2.06795 0
M  V30 5190 H 488.852 -4.35718 0.55191 0
M  V30 5191 H 489.458 -3.70346 2.09103 0
M  V30 5192 N 487.773 -1.03688 -1.18687 0
M  V30 5193 C 488.998 -0.757819 -1.93059 0
M  V30 5194 C 489.423 0.678353 -1.75442 0
M  V30 5195 O 488.781 1.46938 -1.06203 0
M  V30 5196 C 488.829 -1.12423 -3.42627 0
M  V30 5197 O 487.933 -0.247505 -4.11657 0
M  V30 5198 H 487.274 -0.279245 -0.602427 0
M  V30 5199 H 489.804 -1.3857 -1.5053 0
M  V30 5200 H 489.814 -1.08454 -3.93322 0
M  V30 5201 H 488.489 -2.17049 -3.54771 0
M  V30 5202 H 487.066 -0.34649 -3.71287 0
M  V30 5203 N 489.251 1.34841 -0.815825 0
M  V30 5204 C 490.5 1.97755 -0.396976 0
M  V30 5205 C 490.813 1.65422 1.04379 0
M  V30 5206 O 492.019 2.21771 1.5662 0
M  V30 5207 C 490.475 3.53818 -0.658869 0
M  V30 5208 C 490.083 3.95051 -2.11278 0
M  V30 5209 C 491.827 4.23397 -0.305834 0
M  V30 5210 C 489.734 5.43997 -2.31994 0
M  V30 5211 H 488.664 0.739985 -0.1447 0
M  V30 5212 H 491.315 1.53781 -1.00118 0
M  V30 5213 H 489.697 3.95997 0.0154112 0
M  V30 5214 H 490.871 3.63998 -2.82564 0
M  V30 5215 H 489.186 3.38388 -2.42657 0
M  V30 5216 H 491.783 5.32899 -0.43854 0
M  V30 5217 H 492.126 4.09508 0.748952 0
M  V30 5218 H 492.659 3.8667 -0.934403 0
M  V30 5219 H 489.398 5.62865 -3.35952 0
M  V30 5220 H 488.918 5.76589 -1.65244 0
M  V30 5221 H 490.597 6.10584 -2.14001 0
M  V30 5222 N 490.729 0.570148 1.46925 0
M  V30 5223 C 491.978 0.0487352 2.01641 0
M  V30 5224 C 492.291 -1.31433 1.44861 0
M  V30 5225 O 493.497 -1.92638 1.91318 0
M  V30 5226 C 491.953 0.0365817 3.59881 0
M  V30 5227 C 491.561 1.39719 4.25655 0
M  V30 5228 C 493.305 -0.431545 4.22301 0
M  V30 5229 C 491.212 1.34345 5.75939 0
M  V30 5230 H 490.142 0.0144492 0.753862 0
M  V30 5231 H 492.793 0.719928 1.68788 0
M  V30 5232 H 491.175 -0.700522 3.89755 0
M  V30 5233 H 492.349 2.15303 4.07408 0
M  V30 5234 H 490.664 1.80431 3.75278 0
M  V30 5235 H 493.261 -0.490354 5.32447 0
M  V30 5236 H 493.604 -1.44638 3.90366 0
M  V30 5237 H 494.137 0.251102 3.97007 0
M  V30 5238 H 490.876 2.33469 6.12513 0
M  V30 5239 H 490.396 0.629615 5.96486 0
M  V30 5240 H 492.075 1.051 6.38407 0
M  V30 5241 N 492.207 -1.54576 0.307264 0
M  V30 5242 C 493.17 -2.22423 -0.553224 0
M  V30 5243 C 494.17 -1.21231 -1.05639 0
M  V30 5244 O 495.36 -1.45923 -0.951419 0
M  V30 5245 C 492.492 -2.91552 -1.76664 0
M  V30 5246 H 493.685 -2.99874 0.0396484 0
M  V30 5247 H 491.238 -1.56192 0.0581629 0
M  V30 5248 H 491.973 -2.18196 -2.39918 0
M  V30 5249 H 491.758 -3.65738 -1.41343 0
M  V30 5250 H 493.248 -3.43292 -2.37783 0
M  V30 5251 N 493.685 -0.035106 -1.57561 0
M  V30 5252 C 494.913 0.652258 -1.9635 0
M  V30 5253 C 495.328 1.65317 -0.911897 0
M  V30 5254 O 494.685 1.82194 0.105657 0
M  V30 5255 C 494.736 1.35337 -3.35211 0
M  V30 5256 O 494.457 0.392548 -4.36338 0
M  V30 5257 C 495.958 2.13199 -3.88666 0
M  V30 5258 H 493.178 0.179444 -0.646561 0
M  V30 5259 H 495.722 -0.0966459 -2.04271 0
M  V30 5260 H 493.877 2.05362 -3.28489 0
M  V30 5261 H 494.291 0.891097 -5.16875 0
M  V30 5262 H 495.765 2.577 -4.88154 0
M  V30 5263 H 496.242 2.97353 -3.23231 0
M  V30 5264 H 496.848 1.48118 -3.98674 0
M  V30 5265 N 495.163 1.55791 0.238111 0
M  V30 5266 C 496.412 1.77234 0.962868 0
M  V30 5267 C 496.725 0.600661 1.86149 0
M  V30 5268 O 497.931 0.698315 2.62366 0
M  V30 5269 C 496.387 3.13808 1.76218 0
M  V30 5270 C 495.995 4.3865 0.910518 0
M  V30 5271 C 497.739 3.44585 2.47914 0
M  V30 5272 C 495.646 5.66252 1.70623 0
M  V30 5273 H 494.576 0.660731 0.36325 0
M  V30 5274 H 497.227 1.8221 0.217242 0
M  V30 5275 H 495.609 3.02963 2.55009 0
M  V30 5276 H 496.783 4.60507 0.164316 0
M  V30 5277 H 495.098 4.15271 0.30647 0
M  V30 5278 H 497.695 4.3714 3.07917 0
M  V30 5279 H 498.038 2.66314 3.19973 0
M  V30 5280 H 498.571 3.56685 1.76127 0
M  V30 5281 H 495.31 6.47369 1.02923 0
M  V30 5282 H 494.83 5.48483 2.42748 0
M  V30 5283 H 496.509 6.05829 2.27114 0
M  V30 5284 N 496.642 -0.504142 1.49319 0
M  V30 5285 C 497.867 -1.28729 1.62615 0
M  V30 5286 C 498.292 -1.85752 0.296309 0
M  V30 5287 O 497.65 -1.65704 -0.735649 0
M  V30 5288 C 497.698 -2.39561 2.69524 0
M  V30 5289 O 496.802 -3.43324 2.28478 0
M  V30 5290 H 496.143 -0.380172 0.544395 0
M  V30 5291 H 498.673 -0.603872 1.95485 0
M  V30 5292 H 498.683 -2.8537 2.91595 0
M  V30 5293 H 497.358 -1.97423 3.66056 0
M  V30 5294 H 495.935 -3.03455 2.16725 0
M  V30 5295 N 498.12 -1.38341 -0.754957 0
M  V30 5296 C 499.531 -1.30803 -1.3322 0
M  V30 5297 C 499.882 0.0368 -1.96165 0
M  V30 5298 O 499.007 0.938844 -1.94974 0
M  V30 5299 C 499.602 -2.3688 -2.42225 0
M  V30 5300 C 498.161 -2.32925 -2.95674 0
M  V30 5301 C 497.308 -2.19819 -1.69042 0
M  V30 5302 H 500.259 -1.48719 -0.553937 0
M  V30 5303 H 500.28 -2.02517 -3.22129 0
M  V30 5304 H 499.792 -3.34747 -1.96383 0
M  V30 5305 H 497.893 -1.38635 -3.45848 0
M  V30 5306 H 498.006 -3.27008 -3.50146 0
M  V30 5307 H 496.37 -1.66648 -1.92615 0
M  V30 5308 H 497.153 -3.19625 -1.25279 0
M  V30 5309 N 499.598 0.982988 -1.23187 0
M  V30 5310 C 500.561 2.05649 -1.01198 0
M  V30 5311 C 501.561 1.6078 0.0252464 0
M  V30 5312 O 502.751 1.72878 -0.214243 0
M  V30 5313 C 499.883 3.36744 -0.530656 0
M  V30 5314 H 501.076 2.2659 -1.96461 0
M  V30 5315 H 498.629 1.15602 -1.05195 0
M  V30 5316 H 499.364 3.21492 0.425873 0
M  V30 5317 H 499.149 3.7065 -1.2791 0
M  V30 5318 H 500.639 4.15705 -0.397366 0
M  V30 5319 N 501.076 1.04316 1.18135 0
M  V30 5320 C 502.301 0.768047 1.92655 0
M  V30 5321 C 502.726 -0.66904 1.758 0
M  V30 5322 O 502.084 -1.46372 1.06981 0
M  V30 5323 C 502.132 1.14239 3.42026 0
M  V30 5324 O 501.236 0.269333 4.1152 0
M  V30 5325 H 500.577 0.282436 0.600937 0
M  V30 5326 H 503.107 1.39367 1.49793 0
M  V30 5327 H 503.117 1.10538 3.92741 0
M  V30 5328 H 501.792 2.18928 3.53615 0
M  V30 5329 H 500.369 0.366175 3.71098 0
M  V30 5330 N 502.554 -1.34406 0.822964 0
M  V30 5331 C 503.484 -2.32052 0.259608 0
M  V30 5332 C 504.465 -1.58243 -0.623961 0
M  V30 5333 O 505.65 -1.86224 -0.55083 0
M  V30 5334 C 502.78 -3.42434 -0.579314 0
M  V30 5335 C 501.734 -4.27499 0.20712 0
M  V30 5336 C 501.06 -5.29349 -0.754547 0
M  V30 5337 C 502.36 -5.02758 1.41533 0
M  V30 5338 H 504.054 -2.79418 1.07545 0
M  V30 5339 H 501.6 -1.34338 0.518593 0
M  V30 5340 H 503.553 -4.0976 -0.983612 0
M  V30 5341 H 502.277 -2.93717 -1.4282 0
M  V30 5342 H 500.936 -3.61776 0.592787 0
M  V30 5343 H 500.584 -4.76895 -1.59939 0
M  V30 5344 H 500.284 -5.8714 -0.232561 0
M  V30 5345 H 501.808 -5.99544 -1.1567 0
M  V30 5346 H 503.222 -5.62938 1.08504 0
M  V30 5347 H 501.619 -5.70123 1.87296 0
M  V30 5348 H 502.689 -4.32451 2.1935 0
M  V30 5349 N 504.032 -0.577932 -1.46621 0
M  V30 5350 C 504.98 0.170882 -2.31971 0
M  V30 5351 C 505.974 0.889086 -1.44193 0
M  V30 5352 O 507.18 0.808017 -1.60845 0
M  V30 5353 H 503.555 0.0739763 -0.748353 0
M  V30 5354 H 505.526 -0.567856 -2.92947 0
M  V30 5355 C 504.275 1.17438 -3.27267 0
M  V30 5356 H 503.598 0.63116 -3.94787 0
M  V30 5357 H 505.038 1.66882 -3.89778 0
M  V30 5358 C 503.497 2.23292 -2.52274 0
M  V30 5359 O 504.027 3.30567 -2.28229 0
M  V30 5360 N 502.233 1.97772 -2.12919 0
M  V30 5361 H 501.78 1.10545 -2.32675 0
M  V30 5362 H 501.738 2.68809 -1.63062 0
M  V30 5363 N 505.51 1.54411 -0.315457 0
M  V30 5364 C 506.44 2.27002 0.547039 0
M  V30 5365 C 507.421 1.27492 1.12605 0
M  V30 5366 O 508.606 1.5629 1.15269 0
M  V30 5367 C 505.736 3.02171 1.71201 0
M  V30 5368 C 504.69 4.0895 1.26268 0
M  V30 5369 C 504.016 4.71915 2.51396 0
M  V30 5370 C 505.316 5.20891 0.383419 0
M  V30 5371 H 507.01 2.99343 -0.0584517 0
M  V30 5372 H 504.556 1.4397 -0.0295527 0
M  V30 5373 H 506.509 3.51681 2.32161 0
M  V30 5374 H 505.233 2.27433 2.34397 0
M  V30 5375 H 503.892 3.60312 0.676062 0
M  V30 5376 H 503.54 3.93801 3.12937 0
M  V30 5377 H 503.24 5.44039 2.22026 0
M  V30 5378 H 504.764 5.24195 3.13133 0
M  V30 5379 H 506.178 5.66206 0.899082 0
M  V30 5380 H 504.575 5.99821 0.182857 0
M  V30 5381 H 505.645 4.81324 -0.587821 0
M  V30 5382 N 506.988 0.0434614 1.5754 0
M  V30 5383 C 507.898 -0.94893 2.14552 0
M  V30 5384 C 508.914 -1.34707 1.10136 0
M  V30 5385 O 510.09 -1.42557 1.42266 0
M  V30 5386 C 507.155 -2.208 2.67298 0
M  V30 5387 C 506.216 -1.86893 3.86484 0
M  V30 5388 C 505.449 -3.06797 4.36705 0
M  V30 5389 O 505.672 -4.19921 3.86034 0
M  V30 5390 O 504.606 -2.8826 5.28384 0
M  V30 5391 H 508.432 -0.494099 2.99654 0
M  V30 5392 H 506.017 -0.177989 1.48336 0
M  V30 5393 H 507.899 -2.94686 3.01228 0
M  V30 5394 H 506.574 -2.65436 1.85272 0
M  V30 5395 H 505.481 -1.10347 3.57455 0
M  V30 5396 H 506.814 -1.47062 4.69716 0
M  V30 5397 N 508.466 -1.55915 -0.229846 0
M  V30 5398 C 509.376 -1.94891 -1.30593 0
M  V30 5399 C 510.392 -0.851604 -1.51736 0
M  V30 5400 O 511.568 -1.15447 -1.65027 0
M  V30 5401 C 508.633 -2.25052 -2.63728 0
M  V30 5402 C 507.694 -3.48306 -2.5096 0
M  V30 5403 C 506.927 -3.77019 -3.77747 0
M  V30 5404 O 507.15 -3.07534 -4.80395 0
M  V30 5405 O 506.084 -4.70523 -3.75356 0
M  V30 5406 H 509.91 -2.86581 -1.00525 0
M  V30 5407 H 507.495 -1.43017 -0.432025 0
M  V30 5408 H 509.377 -2.45682 -3.42372 0
M  V30 5409 H 508.052 -1.36538 -2.93495 0
M  V30 5410 H 506.959 -3.32964 -1.70546 0
M  V30 5411 H 508.292 -4.37177 -2.26136 0
M  V30 5412 N 509.944 0.496216 -1.49584 0
M  V30 5413 C 511.172 1.27394 -1.63029 0
M  V30 5414 C 511.587 1.86344 -0.303569 0
M  V30 5415 O 510.944 1.68057 0.711547 0
M  V30 5416 C 510.995 2.40077 -2.70269 0
M  V30 5417 O 510.716 1.83549 -3.97796 0
M  V30 5418 C 512.217 3.31372 -2.94462 0
M  V30 5419 H 509.437 0.386211 -0.54871 0
M  V30 5420 H 511.981 0.595163 -1.95648 0
M  V30 5421 H 510.136 3.03775 -2.40415 0
M  V30 5422 H 510.55 2.57561 -4.56905 0
M  V30 5423 H 512.024 4.06707 -3.73221 0
M  V30 5424 H 512.501 3.88654 -2.0456 0
M  V30 5425 H 513.107 2.73435 -3.25751 0
M  V30 5426 N 511.423 1.38739 0.74761 0
M  V30 5427 C 512.353 1.39173 1.87492 0
M  V30 5428 C 513.334 0.256794 1.6815 0
M  V30 5429 O 514.519 0.460762 1.88655 0
M  V30 5430 C 511.649 1.22197 3.25093 0
M  V30 5431 C 510.603 2.32957 3.59047 0
M  V30 5432 C 509.929 2.01082 4.95449 0
M  V30 5433 C 511.229 3.75237 3.6331 0
M  V30 5434 H 512.923 2.3351 1.87386 0
M  V30 5435 H 510.469 1.12399 0.900134 0
M  V30 5436 H 512.422 1.21124 4.03617 0
M  V30 5437 H 511.146 0.243241 3.25693 0
M  V30 5438 H 509.805 2.33226 2.82845 0
M  V30 5439 H 509.453 1.01678 4.92616 0
M  V30 5440 H 509.153 2.75267 5.19136 0
M  V30 5441 H 510.677 2.01638 5.76346 0
M  V30 5442 H 512.091 3.76966 4.31937 0
M  V30 5443 H 510.488 4.48677 3.98509 0
M  V30 5444 H 511.558 4.07122 2.634 0
M  V30 5445 N 512.901 -0.976442 1.23707 0
M  V30 5446 C 514.126 -1.75875 1.09922 0
M  V30 5447 C 514.551 -1.84911 -0.34489 0
M  V30 5448 O 513.909 -1.31363 -1.24954 0
M  V30 5449 C 513.957 -3.16179 1.73388 0
M  V30 5450 O 513.061 -4.00124 0.99871 0
M  V30 5451 H 512.402 -0.540954 0.385052 0
M  V30 5452 H 514.932 -1.22546 1.6384 0
M  V30 5453 H 514.942 -3.66741 1.78788 0
M  V30 5454 H 513.617 -3.08917 2.78466 0
M  V30 5455 H 512.194 -3.58624 1.02193 0
M  V30 5456 N 514.379 -1.04941 -1.1758 0
M  V30 5457 C 515.607 -0.778294 -1.91703 0
M  V30 5458 C 516.022 0.665697 -1.76675 0
M  V30 5459 O 515.379 1.45456 -1.10222 0
M  V30 5460 C 515.43 -1.14628 -3.42845 0
M  V30 5461 O 515.151 -2.53359 -3.57409 0
M  V30 5462 C 516.652 -0.900931 -4.34049 0
M  V30 5463 H 513.872 -0.283167 -0.608323 0
M  V30 5464 H 516.416 -1.39942 -1.49119 0
M  V30 5465 H 514.571 -0.569953 -3.83184 0
M  V30 5466 H 514.985 -2.67709 -4.51035 0
M  V30 5467 H 516.459 -1.20817 -5.38616 0
M  V30 5468 H 516.936 0.163966 -4.38894 0
M  V30 5469 H 517.542 -1.46097 -3.99419 0
M  V30 5470 N 515.857 1.33968 -0.830081 0
M  V30 5471 C 516.787 2.31911 -0.271911 0
M  V30 5472 C 517.768 1.58571 0.61556 0
M  V30 5473 O 518.953 1.86514 0.540946 0
M  V30 5474 C 516.083 3.42737 0.561146 0
M  V30 5475 C 515.037 4.27383 -0.229789 0
M  V30 5476 C 514.363 5.29742 0.726463 0
M  V30 5477 C 515.663 5.02 -1.44197 0
M  V30 5478 H 517.357 2.78844 -1.09025 0
M  V30 5479 H 514.903 1.34061 -0.52571 0
M  V30 5480 H 516.856 4.10276 0.961867 0
M  V30 5481 H 515.58 2.94471 1.41261 0
M  V30 5482 H 514.239 3.61456 -0.611964 0
M  V30 5483 H 513.887 4.77736 1.57408 0
M  V30 5484 H 513.587 5.87255 0.20142 0
M  V30 5485 H 515.111 6.00149 1.12489 0
M  V30 5486 H 516.525 5.62355 -1.11488 0
M  V30 5487 H 514.922 5.69122 -1.90317 0
M  V30 5488 H 515.992 4.31281 -2.2164 0
M  V30 5489 N 517.335 0.585699 1.46312 0
M  V30 5490 C 518.245 -0.148236 2.34131 0
M  V30 5491 C 519.261 -0.882972 1.49932 0
M  V30 5492 O 520.437 -0.845484 1.82794 0
M  V30 5493 C 517.502 -1.14714 3.27172 0
M  V30 5494 C 516.563 -0.416746 4.27272 0
M  V30 5495 C 515.796 -1.36806 5.15868 0
M  V30 5496 O 516.019 -2.60475 5.07454 0
M  V30 5497 O 514.953 -0.877018 5.95476 0
M  V30 5498 H 518.779 0.572882 2.98248 0
M  V30 5499 H 516.364 0.346082 1.45336 0
M  V30 5500 H 518.246 -1.72303 3.84564 0
M  V30 5501 H 516.921 -1.84967 2.65648 0
M  V30 5502 H 515.828 0.201061 3.73559 0
M  V30 5503 H 517.161 0.244872 4.9159 0
M  V30 5504 N 518.813 -1.54241 0.323641 0
M  V30 5505 C 520.043 -2.04687 -0.280464 0
M  V30 5506 C 520.451 -1.19939 -1.46326 0
M  V30 5507 O 519.794 -0.222872 -1.82343 0
M  V30 5508 C 519.856 -3.50978 -0.778123 0
M  V30 5509 C 519.52 -4.56127 0.282371 0
M  V30 5510 C 520.517 -5.07726 1.11847 0
M  V30 5511 C 518.202 -5.00451 0.430582 0
M  V30 5512 C 520.196 -6.02212 2.08851 0
M  V30 5513 C 517.883 -5.94752 1.40404 0
M  V30 5514 C 518.881 -6.45519 2.23147 0
M  V30 5515 O 518.569 -7.37968 3.1884 0
M  V30 5516 H 518.301 -0.673192 -0.0615473 0
M  V30 5517 H 520.855 -1.99999 0.467921 0
M  V30 5518 H 519.085 -3.53064 -1.57742 0
M  V30 5519 H 520.774 -3.84499 -1.30058 0
M  V30 5520 H 521.54 -4.74261 1.01496 0
M  V30 5521 H 517.419 -4.6055 -0.203569 0
M  V30 5522 H 520.963 -6.41761 2.73474 0
M  V30 5523 H 516.86 -6.27633 1.5082 0
M  V30 5524 H 517.628 -7.55841 3.14079 0
M  V30 5525 N 520.291 -0.0518155 -1.57515 0
M  V30 5526 C 521.254 0.907547 -2.10467 0
M  V30 5527 C 522.254 1.23947 -1.02439 0
M  V30 5528 O 523.444 1.17604 -1.2851 0
M  V30 5529 C 520.576 2.21723 -2.58944 0
M  V30 5530 H 521.769 0.44851 -2.96527 0
M  V30 5531 H 519.322 0.196598 -1.55059 0
M  V30 5532 H 520.057 2.72206 -1.76279 0
M  V30 5533 H 519.842 1.98935 -3.37886 0
M  V30 5534 H 521.332 2.90441 -3.00056 0
M  V30 5535 N 521.769 1.56035 0.221574 0
M  V30 5536 C 522.719 1.8881 1.27807 0
M  V30 5537 C 523.703 0.751177 1.42289 0
M  V30 5538 O 524.895 1.01359 1.45104 0
M  V30 5539 C 522.024 2.20828 2.6285 0
M  V30 5540 C 521.11 3.40912 2.52269 0
M  V30 5541 N 521.501 4.59531 2.1134 0
M  V30 5542 C 519.799 3.44526 2.83228 0
M  V30 5543 C 520.5 5.41689 2.1201 0
M  V30 5544 N 519.476 4.814 2.52497 0
M  V30 5545 H 523.278 2.78036 0.952529 0
M  V30 5546 H 520.792 1.566 0.430134 0
M  V30 5547 H 522.789 2.42483 3.39127 0
M  V30 5548 H 521.449 1.32914 2.9625 0
M  V30 5549 H 522.46 4.8469 1.82472 0
M  V30 5550 H 519.137 2.66956 3.21 0
M  V30 5551 H 520.527 6.46643 1.82491 0
M  V30 5552 N 523.247 -0.488276 1.49845 0
M  V30 5553 C 524.663 -0.820566 1.3689 0
M  V30 5554 C 524.863 -1.97248 0.411752 0
M  V30 5555 O 523.919 -2.52042 -0.151931 0
M  V30 5556 C 525.232 -1.1488 2.77891 0
M  V30 5557 C 526.78 -1.25626 2.86683 0
M  V30 5558 C 527.255 -1.61772 4.28479 0
M  V30 5559 N 528.746 -1.68797 4.31349 0
M  V30 5560 C 529.481 -1.98235 5.38043 0
M  V30 5561 N 528.977 -2.2581 6.54967 0
M  V30 5562 N 530.77 -1.99593 5.2547 0
M  V30 5563 H 522.921 0.271123 2.10662 0
M  V30 5564 H 525.184 0.058735 0.946179 0
M  V30 5565 H 524.89 -0.375614 3.49688 0
M  V30 5566 H 524.764 -2.08919 3.14058 0
M  V30 5567 H 527.151 -2.02014 2.15114 0
M  V30 5568 H 527.232 -0.296072 2.54081 0
M  V30 5569 H 526.876 -0.859295 5.00578 0
M  V30 5570 H 526.806 -2.58912 4.58554 0
M  V30 5571 H 529.297 -1.49595 3.4703 0
M  V30 5572 H 529.61 -2.47497 7.32096 0
M  V30 5573 H 527.955 -2.23239 6.58171 0
M  V30 5574 H 531.146 -1.77535 4.33127 0
M  V30 5575 H 531.319 -2.222 6.08713 0
M  V30 5576 N 524.725 -1.39134 -0.740242 0
M  V30 5577 C 525.688 -1.37217 -1.83587 0
M  V30 5578 C 526.688 -0.270221 -1.58513 0
M  V30 5579 O 527.878 -0.527843 -1.6601 0
M  V30 5580 C 525.01 -1.13959 -3.21288 0
M  V30 5581 H 526.203 -2.34705 -1.86691 0
M  V30 5582 H 523.756 -1.24622 -0.94335 0
M  V30 5583 H 524.491 -0.17131 -3.23847 0
M  V30 5584 H 524.276 -1.93754 -3.40884 0
M  V30 5585 H 525.766 -1.15346 -4.01354 0
M  V30 5586 N 526.204 0.969867 -1.24223 0
M  V30 5587 C 527.151 2.06407 -1.0327 0
M  V30 5588 C 528.121 1.66014 0.0533 0
M  V30 5589 O 529.306 1.90533 -0.100896 0
M  V30 5590 C 526.446 3.3909 -0.641262 0
M  V30 5591 C 525.559 3.9269 -1.80051 0
M  V30 5592 C 524.694 5.13631 -1.35486 0
M  V30 5593 C 523.733 5.59423 -2.48419 0
M  V30 5594 N 522.87 6.71586 -2.04737 0
M  V30 5595 H 527.71 2.23663 -1.96923 0
M  V30 5596 H 525.247 1.09624 -0.980862 0
M  V30 5597 H 527.205 4.15323 -0.395351 0
M  V30 5598 H 525.835 3.21765 0.258269 0
M  V30 5599 H 524.887 3.13116 -2.16014 0
M  V30 5600 H 526.199 4.22636 -2.64916 0
M  V30 5601 H 525.353 5.97231 -1.0677 0
M  V30 5602 H 524.092 4.85364 -0.476722 0
M  V30 5603 H 523.097 4.74398 -2.77897 0
M  V30 5604 H 524.322 5.89705 -3.36786 0
M  V30 5605 H 522.268 6.45058 -1.19318 0
M  V30 5606 H 522.185 7.0097 -2.83156 0
M  V30 5607 H 523.453 7.58633 -1.79154 0
M  V30 5608 N 527.682 1.05563 1.17022 0
M  V30 5609 C 528.63 0.653887 2.2322 0
M  V30 5610 C 529.624 -0.326642 1.66221 0
M  V30 5611 O 530.83 -0.192301 1.7897 0
M  V30 5612 H 527.205 0.193297 0.726733 0
M  V30 5613 H 529.176 1.5596 2.54399 0
M  V30 5614 C 527.925 0.0485434 3.47666 0
M  V30 5615 H 527.248 0.79413 3.91834 0
M  V30 5616 H 528.688 -0.195133 4.23551 0
M  V30 5617 C 527.147 -1.20583 3.14581 0
M  V30 5618 O 527.677 -2.29475 3.29703 0
M  V30 5619 N 525.883 -1.10493 2.68774 0
M  V30 5620 H 525.43 -0.218795 2.56669 0
M  V30 5621 H 525.388 -1.94507 2.47011 0
M  V30 5622 N 529.16 -1.33526 0.837174 0
M  V30 5623 C 530.409 -1.97098 0.428387 0
M  V30 5624 C 530.722 -1.67062 -1.01734 0
M  V30 5625 O 531.928 -2.24235 -1.53072 0
M  V30 5626 C 530.384 -3.52725 0.715075 0
M  V30 5627 C 529.992 -3.9164 2.17537 0
M  V30 5628 C 531.736 -4.22857 0.373154 0
M  V30 5629 C 529.643 -5.40237 2.40619 0
M  V30 5630 H 528.573 -0.737589 0.156455 0
M  V30 5631 H 531.224 -1.52169 1.02552 0
M  V30 5632 H 529.606 -3.95971 0.0475904 0
M  V30 5633 H 530.78 -3.59456 2.88319 0
M  V30 5634 H 529.095 -3.34485 2.4801 0
M  V30 5635 H 531.692 -5.32133 0.523264 0
M  V30 5636 H 532.035 -4.10647 -0.683708 0
M  V30 5637 H 532.568 -3.85135 0.995801 0
M  V30 5638 H 529.307 -5.57449 3.44864 0
M  V30 5639 H 528.827 -5.73887 1.74396 0
M  V30 5640 H 530.506 -6.07102 2.23688 0
M  V30 5641 N 530.638 -0.59345 -1.46 0
M  V30 5642 C 531.568 0.121192 -2.33185 0
M  V30 5643 C 532.549 0.872977 -1.4599 0
M  V30 5644 O 533.734 0.846321 -1.74789 0
M  V30 5645 C 530.864 1.12844 -3.28456 0
M  V30 5646 C 529.818 0.4908 -4.25177 0
M  V30 5647 C 529.144 1.60529 -5.10034 0
M  V30 5648 C 530.444 -0.578949 -5.19081 0
M  V30 5649 H 532.138 -0.606767 -2.93187 0
M  V30 5650 H 529.684 -0.293242 -1.40983 0
M  V30 5651 H 531.637 1.63684 -3.88311 0
M  V30 5652 H 530.361 1.88681 -2.66584 0
M  V30 5653 H 529.02 0.00339328 -3.666 0
M  V30 5654 H 528.668 2.35359 -4.44539 0
M  V30 5655 H 528.368 1.18422 -5.75543 0
M  V30 5656 H 529.892 2.11623 -5.72755 0
M  V30 5657 H 531.306 -0.155199 -5.7309 0
M  V30 5658 H 529.703 -0.920947 -5.92991 0
M  V30 5659 H 530.773 -1.46109 -4.62364 0
M  V30 5660 N 532.116 1.54067 -0.331816 0
M  V30 5661 C 533.064 2.26105 0.54582 0
M  V30 5662 C 534.058 1.27816 1.11173 0
M  V30 5663 O 535.264 1.45565 1.05882 0
M  V30 5664 H 531.639 0.726363 0.194683 0
M  V30 5665 H 533.61 2.98282 -0.083931 0
M  V30 5666 C 532.359 3.03814 1.69092 0
M  V30 5667 H 531.682 3.79269 1.26473 0
M  V30 5668 H 533.122 3.57453 2.28043 0
M  V30 5669 C 531.581 2.12606 2.61343 0
M  V30 5670 O 532.111 1.71437 3.6328 0
M  V30 5671 N 530.317 1.77925 2.29763 0
M  V30 5672 H 529.864 2.11602 1.46909 0
M  V30 5673 H 529.822 1.1718 2.91747 0
M  V30 5674 N 533.594 0.0601682 1.57485 0
M  V30 5675 C 534.541 -0.91112 2.12055 0
M  V30 5676 C 535.511 -1.30298 1.03013 0
M  V30 5677 O 536.696 -1.39087 1.30612 0
M  V30 5678 C 533.836 -2.1775 2.67729 0
M  V30 5679 C 532.949 -1.83933 3.90887 0
M  V30 5680 C 532.084 -3.05096 4.34845 0
M  V30 5681 C 531.123 -2.67241 5.5068 0
M  V30 5682 N 530.26 -3.81127 5.8965 0
M  V30 5683 H 535.1 -0.43888 2.9475 0
M  V30 5684 H 532.637 -0.204995 1.45665 0
M  V30 5685 H 534.595 -2.91866 2.98111 0
M  V30 5686 H 533.225 -2.62535 1.87816 0
M  V30 5687 H 532.277 -0.999287 3.6704 0
M  V30 5688 H 533.589 -1.52074 4.75052 0
M  V30 5689 H 532.743 -3.87502 4.66827 0
M  V30 5690 H 531.482 -3.40139 3.49509 0
M  V30 5691 H 530.487 -1.83254 5.18361 0
M  V30 5692 H 531.712 -2.3338 6.37738 0
M  V30 5693 H 529.658 -4.15954 5.07266 0
M  V30 5694 H 529.575 -3.52997 6.68528 0
M  V30 5695 H 530.843 -4.64145 6.2625 0
M  V30 5696 N 535.072 -1.5615 -0.213296 0
M  V30 5697 C 536.483 -1.69645 -0.779582 0
M  V30 5698 C 536.834 -0.663615 -1.84636 0
M  V30 5699 O 535.959 0.183633 -2.15619 0
M  V30 5700 C 536.554 -3.07567 -1.42084 0
M  V30 5701 C 535.113 -3.22889 -1.93442 0
M  V30 5702 C 534.26 -2.65581 -0.797612 0
M  V30 5703 H 537.211 -1.58696 0.0114951 0
M  V30 5704 H 537.232 -3.03884 -2.28986 0
M  V30 5705 H 536.744 -3.82716 -0.644187 0
M  V30 5706 H 534.845 -2.52623 -2.73884 0
M  V30 5707 H 534.958 -4.30197 -2.10872 0
M  V30 5708 H 533.322 -2.24278 -1.20712 0
M  V30 5709 H 534.105 -3.43284 -0.033494 0
M  V30 5710 N 536.55 0.480323 -1.50102 0
M  V30 5711 C 537.46 1.60547 -1.71061 0
M  V30 5712 C 538.476 1.63564 -0.593529 0
M  V30 5713 O 539.652 1.81604 -0.870751 0
M  V30 5714 C 536.717 2.96814 -1.79171 0
M  V30 5715 C 535.778 3.04259 -3.02861 0
M  V30 5716 C 535.011 4.34027 -3.10574 0
M  V30 5717 O 535.234 5.24009 -2.25323 0
M  V30 5718 O 534.168 4.46873 -4.03223 0
M  V30 5719 H 537.994 1.45788 -2.6642 0
M  V30 5720 H 535.579 0.658838 -1.34088 0
M  V30 5721 H 537.461 3.77765 -1.86738 0
M  V30 5722 H 536.136 3.11791 -0.869947 0
M  V30 5723 H 535.043 2.22419 -3.008 0
M  V30 5724 H 536.376 2.94216 -3.94586 0
M  V30 5725 N 538.028 1.39524 0.732853 0
M  V30 5726 C 539.274 1.37068 1.49467 0
M  V30 5727 C 539.607 -0.0327166 1.94172 0
M  V30 5728 O 538.882 -0.998071 1.66939 0
M  V30 5729 C 539.165 2.34494 2.73285 0
M  V30 5730 C 539.018 3.83784 2.34585 0
M  V30 5731 C 540.337 2.29717 3.75391 0
M  V30 5732 H 537.456 0.499206 0.542183 0
M  V30 5733 H 540.098 1.70532 0.837783 0
M  V30 5734 H 538.248 2.06087 3.29333 0
M  V30 5735 H 539.92 4.22949 1.84151 0
M  V30 5736 H 538.163 4.00455 1.66787 0
M  V30 5737 H 538.834 4.47444 3.23262 0
M  V30 5738 H 541.31 2.54839 3.28932 0
M  V30 5739 H 540.186 2.99962 4.59689 0
M  V30 5740 H 540.447 1.30291 4.22465 0
M  V30 5741 N 539.506 -0.963266 1.24736 0
M  V30 5742 C 540.454 -2.07985 1.04139 0
M  V30 5743 C 541.448 -1.69381 -0.0250556 0
M  V30 5744 O 542.654 -1.79531 0.129863 0
M  V30 5745 H 539.029 -0.680627 0.319768 0
M  V30 5746 H 541 -2.22517 1.98818 0
M  V30 5747 C 539.749 -3.4123 0.667615 0
M  V30 5748 H 539.072 -3.71397 1.48 0
M  V30 5749 H 540.512 -4.20244 0.563136 0
M  V30 5750 C 538.971 -3.3104 -0.625647 0
M  V30 5751 O 539.501 -3.65334 -1.67016 0
M  V30 5752 N 537.707 -2.84168 -0.608033 0
M  V30 5753 H 537.254 -2.56458 0.242323 0
M  V30 5754 H 537.212 -2.77732 -1.47352 0
M  V30 5755 N 540.985 -1.06182 -1.16461 0
M  V30 5756 C 541.917 -0.629584 -2.20383 0
M  V30 5757 C 542.93 0.311834 -1.59786 0
M  V30 5758 O 544.119 0.103 -1.78203 0
M  V30 5759 C 541.219 0.0973695 -3.3876 0
M  V30 5760 C 540.392 -0.857252 -4.28917 0
M  V30 5761 C 539.451 -0.169749 -5.25926 0
M  V30 5762 O 538.477 -0.807044 -5.6345 0
M  V30 5763 N 539.679 1.08911 -5.70192 0
M  V30 5764 H 542.444 -1.52352 -2.58087 0
M  V30 5765 H 540.005 -0.944993 -1.31459 0
M  V30 5766 H 541.997 0.567676 -4.00699 0
M  V30 5767 H 540.567 0.893093 -2.99571 0
M  V30 5768 H 539.787 -1.50696 -3.64259 0
M  V30 5769 H 541.075 -1.50489 -4.86035 0
M  V30 5770 H 540.473 1.62703 -5.41797 0
M  V30 5771 H 539.03 1.50331 -6.34227 0
M  V30 5772 N 542.463 1.3308 -0.844243 0
M  V30 5773 C 543.41 2.29104 -0.279323 0
M  V30 5774 C 544.38 1.54577 0.607882 0
M  V30 5775 O 545.565 1.8285 0.545009 0
M  V30 5776 C 542.705 3.40927 0.53508 0
M  V30 5777 C 541.818 4.30354 -0.376749 0
M  V30 5778 C 540.953 5.29297 0.449276 0
M  V30 5779 C 539.992 6.10365 -0.460606 0
M  V30 5780 N 539.129 7.01335 0.327612 0
M  V30 5781 H 543.969 2.76817 -1.10346 0
M  V30 5782 H 541.506 1.36203 -0.555611 0
M  V30 5783 H 543.464 4.04469 1.02278 0
M  V30 5784 H 542.094 2.94391 1.32414 0
M  V30 5785 H 541.146 3.67485 -0.982791 0
M  V30 5786 H 542.458 4.87067 -1.07549 0
M  V30 5787 H 541.612 5.98392 1.00058 0
M  V30 5788 H 540.351 4.73174 1.18143 0
M  V30 5789 H 539.356 5.40182 -1.02388 0
M  V30 5790 H 540.581 6.68571 -1.1912 0
M  V30 5791 H 538.527 6.47655 1.04305 0
M  V30 5792 H 538.444 7.55355 -0.3123 0
M  V30 5793 H 539.712 7.74731 0.86098 0
M  V30 5794 N 543.941 0.601185 1.45683 0
M  V30 5795 C 544.871 -0.108824 2.33246 0
M  V30 5796 C 545.852 -0.865223 1.46451 0
M  V30 5797 O 547.037 -0.83704 1.75235 0
M  V30 5798 C 544.167 -1.11101 3.2905 0
M  V30 5799 C 543.121 -0.468244 4.25431 0
M  V30 5800 C 542.447 -1.57822 5.10878 0
M  V30 5801 C 543.747 0.606469 5.18767 0
M  V30 5802 H 545.441 0.622306 2.92861 0
M  V30 5803 H 542.987 0.300714 1.40825 0
M  V30 5804 H 544.94 -1.61622 3.89174 0
M  V30 5805 H 543.664 -1.87265 2.67581 0
M  V30 5806 H 542.323 0.0160484 3.66596 0
M  V30 5807 H 541.971 -2.32998 4.45781 0
M  V30 5808 H 541.671 -1.15369 5.76163 0
M  V30 5809 H 543.195 -2.08583 5.73869 0
M  V30 5810 H 544.609 0.185589 5.73 0
M  V30 5811 H 543.006 0.952381 5.92494 0
M  V30 5812 H 544.076 1.48559 4.61582 0
M  V30 5813 N 545.419 -1.53889 0.339982 0
M  V30 5814 C 546.647 -2.05271 -0.259114 0
M  V30 5815 C 547.062 -1.21517 -1.44496 0
M  V30 5816 O 546.419 -0.24966 -1.80784 0
M  V30 5817 C 546.47 -3.55092 -0.677634 0
M  V30 5818 O 546.191 -4.35667 0.461051 0
M  V30 5819 C 547.692 -4.22631 -1.33782 0
M  V30 5820 H 544.912 -0.669085 -0.0506566 0
M  V30 5821 H 547.456 -1.9852 0.490935 0
M  V30 5822 H 545.611 -3.62077 -1.37763 0
M  V30 5823 H 546.025 -5.24343 0.128144 0
M  V30 5824 H 547.499 -5.28861 -1.58145 0
M  V30 5825 H 547.976 -3.74758 -2.29027 0
M  V30 5826 H 548.582 -4.19829 -0.679957 0
M  V30 5827 N 546.897 -0.0685191 -1.57451 0
M  V30 5828 C 547.844 0.899861 -2.12535 0
M  V30 5829 C 548.814 1.29749 -1.03703 0
M  V30 5830 O 549.999 1.38392 -1.31348 0
M  V30 5831 C 547.139 2.16328 -2.6888 0
M  V30 5832 C 546.252 1.81857 -3.91857 0
M  V30 5833 C 545.387 3.02786 -4.36457 0
M  V30 5834 C 544.426 2.64317 -5.5209 0
M  V30 5835 N 543.563 3.77994 -5.91663 0
M  V30 5836 H 548.403 0.423243 -2.94979 0
M  V30 5837 H 545.94 0.197268 -1.45771 0
M  V30 5838 H 547.898 2.90281 -2.99655 0
M  V30 5839 H 546.528 2.61536 -1.89206 0
M  V30 5840 H 545.58 0.979808 -3.67565 0
M  V30 5841 H 546.892 1.49553 -4.75852 0
M  V30 5842 H 546.046 3.85021 -4.68875 0
M  V30 5843 H 544.785 3.38281 -3.51308 0
M  V30 5844 H 543.79 1.80503 -5.19325 0
M  V30 5845 H 545.015 2.29995 -6.38967 0
M  V30 5846 H 542.961 4.13258 -5.09464 0
M  V30 5847 H 542.878 3.49447 -6.7039 0
M  V30 5848 H 544.146 4.60818 -6.28703 0
M  V30 5849 N 548.375 1.56261 0.205012 0
M  V30 5850 C 549.322 1.93754 1.25411 0
M  V30 5851 C 550.292 0.796826 1.45739 0
M  V30 5852 O 551.477 1.05414 1.59036 0
M  V30 5853 C 548.617 2.27383 2.59598 0
M  V30 5854 C 547.73 3.5447 2.46931 0
M  V30 5855 C 546.865 3.77468 3.73753 0
M  V30 5856 C 545.904 4.98014 3.55877 0
M  V30 5857 N 545.041 5.17316 4.74688 0
M  V30 5858 H 549.881 2.83203 0.92737 0
M  V30 5859 H 547.418 1.40158 0.446574 0
M  V30 5860 H 549.376 2.44895 3.37761 0
M  V30 5861 H 548.006 1.41088 2.90335 0
M  V30 5862 H 547.058 3.45061 1.60116 0
M  V30 5863 H 548.37 4.42789 2.29651 0
M  V30 5864 H 547.524 3.95165 4.60358 0
M  V30 5865 H 546.263 2.87461 3.93976 0
M  V30 5866 H 545.268 4.80249 2.67657 0
M  V30 5867 H 546.493 5.8952 3.37109 0
M  V30 5868 H 544.439 4.30255 4.95194 0
M  V30 5869 H 544.356 5.99796 4.60197 0
M  V30 5870 H 545.624 5.39463 5.62672 0
M  V30 5871 N 549.853 -0.472356 1.50355 0
M  V30 5872 C 550.816 -1.5529 1.68576 0
M  V30 5873 C 551.816 -1.50863 0.556511 0
M  V30 5874 O 553.006 -1.53505 0.823516 0
M  V30 5875 C 550.138 -2.94921 1.70981 0
M  V30 5876 H 551.331 -1.40451 2.64978 0
M  V30 5877 H 548.884 -0.698645 1.39816 0
M  V30 5878 H 549.619 -3.15204 0.762675 0
M  V30 5879 H 549.404 -2.99541 2.53017 0
M  V30 5880 H 550.894 -3.73372 1.87037 0
M  V30 5881 N 551.331 -1.39911 -0.725443 0
M  V30 5882 C 552.261 -1.42138 -1.85254 0
M  V30 5883 C 553.242 -0.283513 -1.67721 0
M  V30 5884 O 554.427 -0.490717 -1.87898 0
M  V30 5885 C 551.557 -1.27354 -3.23107 0
M  V30 5886 C 550.511 -2.3864 -3.55296 0
M  V30 5887 C 549.837 -2.08939 -4.92188 0
M  V30 5888 C 551.137 -3.8097 -3.57295 0
M  V30 5889 H 552.831 -2.36461 -1.83648 0
M  V30 5890 H 550.377 -1.13817 -0.882138 0
M  V30 5891 H 552.33 -1.2753 -4.01639 0
M  V30 5892 H 551.054 -0.295025 -3.25265 0
M  V30 5893 H 549.713 -2.37696 -2.79099 0
M  V30 5894 H 549.361 -1.09502 -4.90936 0
M  V30 5895 H 549.061 -2.83491 -5.14691 0
M  V30 5896 H 550.585 -2.10781 -5.73065 0
M  V30 5897 H 551.999 -3.8379 -4.25885 0
M  V30 5898 H 550.396 -4.5496 -3.9132 0
M  V30 5899 H 551.466 -4.11261 -2.5689 0
M  V30 5900 N 552.809 0.956637 -1.25245 0
M  V30 5901 C 554.058 1.69537 -1.0927 0
M  V30 5902 C 554.371 1.92136 0.366503 0
M  V30 5903 O 555.577 2.63687 0.64665 0
M  V30 5904 C 554.033 3.05211 -1.9072 0
M  V30 5905 C 553.641 2.90416 -3.41119 0
M  V30 5906 C 555.385 3.82882 -1.83308 0
M  V30 5907 C 553.292 4.21468 -4.14872 0
M  V30 5908 H 552.222 0.635804 -0.405302 0
M  V30 5909 H 554.873 1.06513 -1.49423 0
M  V30 5910 H 553.255 3.69128 -1.43389 0
M  V30 5911 H 554.429 2.35444 -3.9611 0
M  V30 5912 H 552.744 2.26203 -3.49602 0
M  V30 5913 H 555.341 4.79944 -2.35706 0
M  V30 5914 H 555.684 4.0853 -0.800572 0
M  V30 5915 H 556.217 3.25711 -2.28379 0
M  V30 5916 H 552.956 4.01009 -5.18529 0
M  V30 5917 H 552.476 4.76213 -3.64665 0
M  V30 5918 H 554.155 4.90022 -4.22478 0
M  V30 5919 N 554.287 1.06798 1.15896 0
M  V30 5920 C 555.234 0.683314 2.20453 0
M  V30 5921 C 556.204 -0.32255 1.62938 0
M  V30 5922 O 557.389 -0.210276 1.89638 0
M  V30 5923 C 554.529 0.0813266 3.45004 0
M  V30 5924 C 553.642 1.13799 4.16742 0
M  V30 5925 C 552.777 0.501598 5.28826 0
M  V30 5926 C 551.816 1.54144 5.92373 0
M  V30 5927 N 550.953 0.928038 6.9594 0
M  V30 5928 H 555.793 1.57932 2.52708 0
M  V30 5929 H 553.33 0.789544 1.24115 0
M  V30 5930 H 555.288 -0.285274 4.16224 0
M  V30 5931 H 553.918 -0.77806 3.13283 0
M  V30 5932 H 552.97 1.62223 3.44075 0
M  V30 5933 H 554.282 1.92664 4.60089 0
M  V30 5934 H 553.436 0.0823162 6.06644 0
M  V30 5935 H 552.175 -0.318883 4.86656 0
M  V30 5936 H 551.18 1.97056 5.13273 0
M  V30 5937 H 552.405 2.3641 6.36621 0
M  V30 5938 H 550.351 0.12836 6.55874 0
M  V30 5939 H 550.268 1.65401 7.37685 0
M  V30 5940 H 551.536 0.534071 7.77668 0
M  V30 5941 N 555.766 -1.3263 0.851289 0
M  V30 5942 C 556.676 -2.32722 0.296268 0
M  V30 5943 C 557.692 -1.63901 -0.584162 0
M  V30 5944 O 558.868 -1.95465 -0.485334 0
M  V30 5945 C 555.933 -3.42942 -0.509103 0
M  V30 5946 C 554.994 -4.2746 0.397069 0
M  V30 5947 C 554.227 -5.32416 -0.36996 0
M  V30 5948 O 554.45 -5.47491 -1.6003 0
M  V30 5949 O 553.384 -6.01327 0.262493 0
M  V30 5950 H 557.21 -2.82078 1.12543 0
M  V30 5951 H 554.795 -1.36194 0.614135 0
M  V30 5952 H 556.677 -4.1017 -0.96634 0
M  V30 5953 H 555.352 -2.95781 -1.31512 0
M  V30 5954 H 554.259 -3.63053 0.902411 0
M  V30 5955 H 555.592 -4.78136 1.16818 0
M  V30 5956 N 557.244 -0.608902 -1.45362 0
M  V30 5957 C 558.474 -0.110852 -2.06302 0
M  V30 5958 C 558.882 1.21062 -1.45398 0
M  V30 5959 O 558.225 1.74861 -0.562976 0
M  V30 5960 C 558.287 0.101793 -3.59356 0
M  V30 5961 C 557.951 -1.13808 -4.42602 0
M  V30 5962 C 558.948 -2.05653 -4.77496 0
M  V30 5963 C 556.633 -1.36727 -4.83333 0
M  V30 5964 C 558.627 -3.18745 -5.51978 0
M  V30 5965 C 556.314 -2.5012 -5.57569 0
M  V30 5966 C 557.312 -3.40957 -5.91809 0
M  V30 5967 O 557 -4.52376 -6.64538 0
M  V30 5968 H 556.732 -0.0666001 -0.672711 0
M  V30 5969 H 559.286 -0.836942 -1.87575 0
M  V30 5970 H 557.516 0.88279 -3.76489 0
M  V30 5971 H 559.205 0.551607 -4.02134 0
M  V30 5972 H 559.971 -1.89172 -4.46586 0
M  V30 5973 H 555.85 -0.669216 -4.56117 0
M  V30 5974 H 559.394 -3.8967 -5.78622 0
M  V30 5975 H 555.291 -2.66553 -5.87894 0
M  V30 5976 H 556.059 -4.51075 -6.82989 0
M  V30 5977 N 558.722 1.53707 -0.348139 0
M  V30 5978 C 559.95 2.05406 0.248224 0
M  V30 5979 C 560.365 1.22282 1.43849 0
M  V30 5980 O 559.722 0.259244 1.80649 0
M  V30 5981 C 559.773 3.55446 0.658793 0
M  V30 5982 O 559.494 4.35417 -0.484149 0
M  V30 5983 C 560.995 4.23335 1.31539 0
M  V30 5984 H 558.215 0.669344 0.0471075 0
M  V30 5985 H 560.759 1.98257 -0.501456 0
M  V30 5986 H 558.914 3.62803 1.35841 0
M  V30 5987 H 559.328 5.24268 -0.155949 0
M  V30 5988 H 560.802 5.29692 1.55338 0
M  V30 5989 H 561.279 3.75967 2.27036 0
M  V30 5990 H 561.885 4.20184 0.657683 0
M  V30 5991 N 560.2 0.0768682 1.57412 0
M  V30 5992 C 561.11 -0.903207 2.16516 0
M  V30 5993 C 562.126 -1.32341 1.12968 0
M  V30 5994 O 563.302 -1.39507 1.45258 0
M  V30 5995 C 560.367 -2.1508 2.71922 0
M  V30 5996 C 559.428 -1.78653 3.90361 0
M  V30 5997 C 558.661 -2.97465 4.43114 0
M  V30 5998 O 558.884 -4.11638 3.94854 0
M  V30 5999 O 557.818 -2.76987 5.3438 0
M  V30 6000 H 561.644 -0.430427 3.00634 0
M  V30 6001 H 559.229 -0.146485 1.4868 0
M  V30 6002 H 561.111 -2.8823 3.07411 0
M  V30 6003 H 559.786 -2.61446 1.9086 0
M  V30 6004 H 558.693 -1.0274 3.59716 0
M  V30 6005 H 560.026 -1.37066 4.7273 0
M  V30 6006 N 561.678 -1.56367 -0.196722 0
M  V30 6007 C 562.588 -1.97617 -1.2643 0
M  V30 6008 C 563.604 -0.883598 -1.49895 0
M  V30 6009 O 564.78 -1.18921 -1.62541 0
M  V30 6010 C 561.845 -2.30595 -2.58895 0
M  V30 6011 C 560.906 -3.53551 -2.43516 0
M  V30 6012 C 560.139 -3.84946 -3.69665 0
M  V30 6013 O 560.362 -3.17655 -4.73763 0
M  V30 6014 O 559.296 -4.78379 -3.65291 0
M  V30 6015 H 563.122 -2.88648 -0.944233 0
M  V30 6016 H 560.707 -1.43901 -0.401592 0
M  V30 6017 H 562.589 -2.52889 -3.37083 0
M  V30 6018 H 561.264 -1.42732 -2.90533 0
M  V30 6019 H 560.171 -3.36507 -1.63445 0
M  V30 6020 H 561.504 -4.41875 -2.16812 0
M  V30 6021 N 563.156 0.464375 -1.50603 0
M  V30 6022 C 564.405 1.21277 -1.61167 0
M  V30 6023 C 564.718 1.92953 -0.320704 0
M  V30 6024 O 565.924 2.69778 -0.30534 0
M  V30 6025 C 564.38 2.20403 -2.84518 0
M  V30 6026 C 563.988 1.54499 -4.20516 0
M  V30 6027 C 565.732 2.95843 -3.0443 0
M  V30 6028 C 563.639 2.51951 -5.35047 0
M  V30 6029 H 562.569 0.456367 -0.600204 0
M  V30 6030 H 565.22 0.48254 -1.77042 0
M  V30 6031 H 563.602 2.96746 -2.62217 0
M  V30 6032 H 564.776 0.83899 -4.53098 0
M  V30 6033 H 563.091 0.913152 -4.06264 0
M  V30 6034 H 565.688 3.6879 -3.87167 0
M  V30 6035 H 566.031 3.55622 -2.16423 0
M  V30 6036 H 566.564 2.26611 -3.26944 0
M  V30 6037 H 563.303 1.96901 -6.25228 0
M  V30 6038 H 562.823 3.20683 -5.06875 0
M  V30 6039 H 564.502 3.13643 -5.65895 0
M  V30 6040 N 564.634 1.40294 0.718013 0
M  V30 6041 C 565.544 1.42678 1.86226 0
M  V30 6042 C 566.56 0.319655 1.71039 0
M  V30 6043 O 567.736 0.563852 1.93346 0
M  V30 6044 C 564.801 1.2852 3.21999 0
M  V30 6045 C 563.862 2.49354 3.49458 0
M  V30 6046 C 563.095 2.35863 4.78753 0
M  V30 6047 O 563.318 1.37114 5.53675 0
M  V30 6048 O 562.252 3.25189 5.06494 0
M  V30 6049 H 566.078 2.39167 1.87171 0
M  V30 6050 H 563.663 1.2159 0.868112 0
M  V30 6051 H 565.545 1.22824 4.03103 0
M  V30 6052 H 564.22 0.351359 3.21787 0
M  V30 6053 H 563.127 2.60628 2.68373 0
M  V30 6054 H 564.46 3.41491 3.54464 0
M  V30 6055 N 566.112 -0.949982 1.2575 0
M  V30 6056 C 567.528 -1.22191 1.02672 0
M  V30 6057 C 567.728 -1.99898 -0.253588 0
M  V30 6058 O 566.784 -2.33329 -0.965076 0
M  V30 6059 C 568.097 -1.99175 2.25277 0
M  V30 6060 C 569.645 -2.12201 2.30087 0
M  V30 6061 C 570.12 -2.92586 3.5236 0
M  V30 6062 N 571.611 -3.00163 3.52784 0
M  V30 6063 C 572.346 -3.62766 4.44059 0
M  V30 6064 N 571.842 -4.26943 5.45611 0
M  V30 6065 N 573.635 -3.59953 4.3173 0
M  V30 6066 H 565.786 -0.430258 2.07996 0
M  V30 6067 H 568.049 -0.252844 0.91366 0
M  V30 6068 H 567.755 -1.49479 3.18354 0
M  V30 6069 H 567.629 -2.99868 2.28821 0
M  V30 6070 H 570.016 -2.61093 1.3753 0
M  V30 6071 H 570.097 -1.10799 2.30559 0
M  V30 6072 H 569.741 -2.44383 4.45241 0
M  V30 6073 H 569.671 -3.94224 3.49134 0
M  V30 6074 H 572.162 -2.54529 2.79327 0
M  V30 6075 H 572.475 -4.72583 6.11461 0
M  V30 6076 H 570.82 -4.25557 5.49478 0
M  V30 6077 H 574.011 -3.09003 3.51617 0
M  V30 6078 H 574.184 -4.08455 5.03059 0
M  V30 6079 N 567.59 -1.07411 -1.15328 0
M  V30 6080 C 568.52 -0.716472 -2.22236 0
M  V30 6081 C 569.501 0.296373 -1.67498 0
M  V30 6082 O 570.686 0.168989 -1.93463 0
M  V30 6083 C 567.816 -0.114142 -3.47112 0
M  V30 6084 C 566.77 -1.05421 -4.14814 0
M  V30 6085 C 566.096 -0.314604 -5.33774 0
M  V30 6086 C 567.396 -2.38808 -4.64508 0
M  V30 6087 H 569.09 -1.61029 -2.52408 0
M  V30 6088 H 566.636 -0.775702 -1.21321 0
M  V30 6089 H 568.589 0.148001 -4.2114 0
M  V30 6090 H 567.313 0.814755 -3.16274 0
M  V30 6091 H 565.972 -1.30128 -3.42728 0
M  V30 6092 H 565.62 0.617772 -4.99192 0
M  V30 6093 H 565.32 -0.941209 -5.80013 0
M  V30 6094 H 566.844 -0.0602747 -6.1057 0
M  V30 6095 H 568.258 -2.18424 -5.3006 0
M  V30 6096 H 566.655 -2.97069 -5.21412 0
M  V30 6097 H 567.725 -3.01067 -3.80114 0
M  V30 6098 N 569.068 1.32177 -0.85831 0
M  V30 6099 C 570.015 2.28794 -0.303607 0
M  V30 6100 C 570.985 1.55213 0.591453 0
M  V30 6101 O 572.17 1.83418 0.525585 0
M  V30 6102 C 569.31 3.41475 0.49889 0
M  V30 6103 C 568.423 4.2993 -0.422373 0
M  V30 6104 C 567.558 5.29743 0.393111 0
M  V30 6105 C 566.597 6.09842 -0.525317 0
M  V30 6106 N 565.734 7.01643 0.253208 0
M  V30 6107 H 570.574 2.75631 -1.13276 0
M  V30 6108 H 568.111 1.35606 -0.570026 0
M  V30 6109 H 570.069 4.05531 0.979826 0
M  V30 6110 H 568.699 2.95779 1.29284 0
M  V30 6111 H 567.751 3.66422 -1.02171 0
M  V30 6112 H 569.063 4.85899 -1.12709 0
M  V30 6113 H 568.217 5.9942 0.937056 0
M  V30 6114 H 566.956 4.744 1.13117 0
M  V30 6115 H 565.961 5.39066 -1.08112 0
M  V30 6116 H 567.186 6.6727 -1.26205 0
M  V30 6117 H 565.132 6.48725 0.974295 0
M  V30 6118 H 565.049 7.54981 -0.392398 0
M  V30 6119 H 566.317 7.756 0.778761 0
M  V30 6120 N 570.547 0.616602 1.45037 0
M  V30 6121 C 571.963 0.280994 1.57107 0
M  V30 6122 C 572.163 -1.21627 1.60653 0
M  V30 6123 O 571.219 -1.9997 1.54169 0
M  V30 6124 C 572.532 0.960116 2.8496 0
M  V30 6125 C 574.08 0.936884 2.98649 0
M  V30 6126 C 574.555 1.59619 4.29285 0
M  V30 6127 N 576.046 1.5621 4.36065 0
M  V30 6128 C 576.781 2.04131 5.35834 0
M  V30 6129 N 576.277 2.60177 6.4209 0
M  V30 6130 N 578.07 1.94845 5.27249 0
M  V30 6131 H 570.221 1.58867 1.40979 0
M  V30 6132 H 572.484 0.666024 0.674623 0
M  V30 6133 H 572.19 2.01473 2.88273 0
M  V30 6134 H 572.064 0.488921 3.74018 0
M  V30 6135 H 574.451 -0.109209 2.94898 0
M  V30 6136 H 574.532 1.44643 2.10979 0
M  V30 6137 H 574.176 2.64166 4.33796 0
M  V30 6138 H 574.106 1.06159 5.15789 0
M  V30 6139 H 576.597 1.15276 3.59889 0
M  V30 6140 H 576.91 2.94513 7.1448 0
M  V30 6141 H 575.255 2.64221 6.42816 0
M  V30 6142 H 578.446 1.50792 4.43147 0
M  V30 6143 H 578.619 2.32504 6.04852 0
M  V30 6144 N 572.025 -1.5352 0.356285 0
M  V30 6145 C 573.302 -1.93405 -0.292223 0
M  V30 6146 C 573.682 -1.28901 -1.67176 0
M  V30 6147 O 573.03 -0.444632 -2.24132 0
M  V30 6148 C 573.24 -3.47223 -0.35175 0
M  V30 6149 C 574.588 -4.20389 -0.596534 0
M  V30 6150 O 575.612 -3.53554 -0.433344 0
M  V30 6151 O 574.471 -5.3881 -0.913589 0
M  V30 6152 H 571.565 -0.808666 -0.173172 0
M  V30 6153 H 574.111 -1.64713 0.408391 0
M  V30 6154 H 572.883 -3.86423 0.615841 0
M  V30 6155 H 572.506 -3.8212 -1.09864 0
M  V30 6156 N 573.503 -0.0852151 -1.57369 0
M  V30 6157 C 574.433 0.874556 -2.16503 0
M  V30 6158 C 575.414 1.30111 -1.09568 0
M  V30 6159 O 576.599 1.36977 -1.37662 0
M  V30 6160 C 573.729 2.13731 -2.73745 0
M  V30 6161 C 572.683 1.84971 -3.85966 0
M  V30 6162 C 572.009 3.17991 -4.29867 0
M  V30 6163 C 573.309 1.14442 -5.09608 0
M  V30 6164 H 575.003 0.381899 -2.96954 0
M  V30 6165 H 572.549 0.18225 -1.42842 0
M  V30 6166 H 574.502 2.81302 -3.13763 0
M  V30 6167 H 573.226 2.65263 -1.90534 0
M  V30 6168 H 571.885 1.19801 -3.46473 0
M  V30 6169 H 571.533 3.6739 -3.4356 0
M  V30 6170 H 571.233 2.99534 -5.05523 0
M  V30 6171 H 572.757 3.86737 -4.72511 0
M  V30 6172 H 574.171 1.72105 -5.46857 0
M  V30 6173 H 572.568 1.06197 -5.90629 0
M  V30 6174 H 573.638 0.12559 -4.84737 0
M  V30 6175 N 574.981 1.5647 0.188427 0
M  V30 6176 C 575.944 1.9421 1.21718 0
M  V30 6177 C 576.944 0.823901 1.38089 0
M  V30 6178 O 578.134 1.09122 1.35787 0
M  V30 6179 C 575.266 2.22197 2.58537 0
M  V30 6180 H 576.459 2.86252 0.894418 0
M  V30 6181 H 574.012 1.50263 0.430211 0
M  V30 6182 H 574.747 1.32814 2.95856 0
M  V30 6183 H 574.532 3.03688 2.48025 0
M  V30 6184 H 576.022 2.52376 3.3271 0
M  V30 6185 N 576.459 -0.456382 1.50847 0
M  V30 6186 C 577.422 -1.53493 1.70213 0
M  V30 6187 C 578.422 -1.50264 0.572481 0
M  V30 6188 O 579.612 -1.52623 0.839751 0
M  V30 6189 C 576.744 -2.93091 1.741 0
M  V30 6190 H 577.937 -1.37633 2.66453 0
M  V30 6191 H 575.49 -0.683776 1.4055 0
M  V30 6192 H 576.225 -3.14378 0.796063 0
M  V30 6193 H 576.01 -2.9684 2.5618 0
M  V30 6194 H 577.5 -3.71368 1.90987 0
M  V30 6195 N 577.937 -1.40673 -0.710563 0
M  V30 6196 C 578.9 -1.4108 -1.80635 0
M  V30 6197 C 579.9 -0.303783 -1.57904 0
M  V30 6198 O 581.09 -0.562937 -1.64853 0
M  V30 6199 C 578.222 -1.20748 -3.18799 0
M  V30 6200 H 579.415 -2.38612 -1.81671 0
M  V30 6201 H 576.968 -1.26595 -0.916704 0
M  V30 6202 H 577.703 -0.239964 -3.23411 0
M  V30 6203 H 577.488 -2.00941 -3.36698 0
M  V30 6204 H 578.978 -1.23833 -3.98817 0
M  V30 6205 N 579.415 0.9433 -1.26252 0
M  V30 6206 C 580.831 1.21644 -1.03319 0
M  V30 6207 C 581.031 2.0003 0.242983 0
M  V30 6208 O 580.087 2.33838 0.952688 0
M  V30 6209 C 581.4 1.97978 -2.2633 0
M  V30 6210 C 582.948 2.10978 -2.31209 0
M  V30 6211 C 583.423 2.90713 -3.53907 0
M  V30 6212 N 584.914 2.98287 -3.54371 0
M  V30 6213 C 585.649 3.60406 -4.45976 0
M  V30 6214 N 585.145 4.24043 -5.47868 0
M  V30 6215 N 586.938 3.57658 -4.33633 0
M  V30 6216 H 579.089 0.419221 -2.08222 0
M  V30 6217 H 581.352 0.247995 -0.914988 0
M  V30 6218 H 581.058 1.47788 -3.19142 0
M  V30 6219 H 580.932 2.9865 -2.30408 0
M  V30 6220 H 583.319 2.6036 -1.38913 0
M  V30 6221 H 583.4 1.09575 -2.31143 0
M  V30 6222 H 583.044 2.42018 -4.46531 0
M  V30 6223 H 582.974 3.92367 -3.5122 0
M  V30 6224 H 585.465 2.53044 -2.80673 0
M  V30 6225 H 585.778 4.69334 -6.13959 0
M  V30 6226 H 584.123 4.22637 -5.51728 0
M  V30 6227 H 587.314 3.07134 -3.53251 0
M  V30 6228 H 587.487 4.05782 -5.05218 0
M  V30 6229 N 580.893 1.08022 1.14757 0
M  V30 6230 C 581.803 0.718292 2.23333 0
M  V30 6231 C 582.819 -0.273477 1.71837 0
M  V30 6232 O 583.995 -0.118406 2.01052 0
M  V30 6233 C 581.06 0.128855 3.4646 0
M  V30 6234 C 580.121 1.17473 4.12915 0
M  V30 6235 C 579.354 0.61333 5.30164 0
M  V30 6236 O 579.577 -0.568458 5.6756 0
M  V30 6237 O 578.511 1.3615 5.86299 0
M  V30 6238 H 582.337 1.62394 2.56636 0
M  V30 6239 H 579.922 0.853628 1.22611 0
M  V30 6240 H 581.804 -0.197249 4.20938 0
M  V30 6241 H 580.479 -0.750014 3.14891 0
M  V30 6242 H 579.386 1.5533 3.40328 0
M  V30 6243 H 580.719 2.02574 4.48581 0
M  V30 6244 N 582.371 -1.3172 0.865308 0
M  V30 6245 C 583.318 -2.2863 0.315736 0
M  V30 6246 C 584.288 -1.55524 -0.583213 0
M  V30 6247 O 585.473 -1.83694 -0.51585 0
M  V30 6248 C 582.613 -3.41735 -0.480773 0
M  V30 6249 C 581.726 -4.297 0.445167 0
M  V30 6250 C 580.861 -5.29944 -0.365012 0
M  V30 6251 C 579.9 -6.09554 0.557651 0
M  V30 6252 N 579.037 -7.01768 -0.215994 0
M  V30 6253 H 583.877 -2.75026 1.14736 0
M  V30 6254 H 581.414 -1.35302 0.577209 0
M  V30 6255 H 583.372 -4.06045 -0.958306 0
M  V30 6256 H 582.002 -2.96461 -1.27714 0
M  V30 6257 H 581.054 -3.65875 1.04113 0
M  V30 6258 H 582.366 -4.85295 1.15284 0
M  V30 6259 H 581.52 -5.99908 -0.905255 0
M  V30 6260 H 580.259 -4.74994 -1.106 0
M  V30 6261 H 579.264 -5.38485 1.10969 0
M  V30 6262 H 580.489 -6.66591 1.29742 0
M  V30 6263 H 578.435 -6.49232 -0.939878 0
M  V30 6264 H 578.352 -7.54762 0.432431 0
M  V30 6265 H 579.62 -7.76002 -0.737618 0
M  V30 6266 N 583.85 -0.624285 -1.44708 0
M  V30 6267 C 584.798 0.0969952 -2.32398 0
M  V30 6268 C 585.792 0.842762 -1.46949 0
M  V30 6269 O 586.998 0.756436 -1.63334 0
M  V30 6270 H 583.373 0.0501306 -0.750327 0
M  V30 6271 H 585.344 -0.660767 -2.90992 0
M  V30 6272 C 584.093 1.06967 -3.30837 0
M  V30 6273 H 583.416 0.505242 -3.96595 0
M  V30 6274 H 584.856 1.54397 -3.94889 0
M  V30 6275 C 583.315 2.15153 -2.5925 0
M  V30 6276 O 583.845 3.23139 -2.3863 0
M  V30 6277 N 582.051 1.90898 -2.19103 0
M  V30 6278 H 581.598 1.03086 -2.36074 0
M  V30 6279 H 581.556 2.63485 -1.71531 0
M  V30 6280 N 585.328 1.53329 -0.364422 0
M  V30 6281 C 586.576 2.00842 0.225189 0
M  V30 6282 C 586.897 1.25345 1.49378 0
M  V30 6283 O 586.167 0.366396 1.92443 0
M  V30 6284 H 584.747 0.742009 0.0862027 0
M  V30 6285 H 587.409 1.8863 -0.490389 0
M  V30 6286 H 586.505 3.08795 0.452987 0
M  V30 6287 N 586.806 0.0935595 1.57322 0
M  V30 6288 C 588.052 -0.571355 1.94585 0
M  V30 6289 C 588.385 -1.67929 0.975366 0
M  V30 6290 O 587.66 -1.94498 0.00816206 0
M  V30 6291 C 587.943 -1.12797 3.41978 0
M  V30 6292 C 587.796 -0.0251881 4.49793 0
M  V30 6293 C 589.115 -2.02682 3.90651 0
M  V30 6294 H 586.234 -0.206223 0.70756 0
M  V30 6295 H 588.876 0.163956 1.89291 0
M  V30 6296 H 587.026 -1.75461 3.4662 0
M  V30 6297 H 588.698 0.608979 4.57263 0
M  V30 6298 H 586.941 0.641399 4.29032 0
M  V30 6299 H 587.612 -0.455433 5.50118 0
M  V30 6300 H 590.088 -1.49925 3.88152 0
M  V30 6301 H 588.964 -2.38555 4.94351 0
M  V30 6302 H 589.225 -2.94362 3.29854 0
M  V30 6303 N 588.284 -1.56567 -0.180126 0
M  V30 6304 C 589.514 -1.85349 -0.912647 0
M  V30 6305 C 589.922 -0.675795 -1.76719 0
M  V30 6306 O 589.265 0.3645 -1.80047 0
M  V30 6307 C 589.327 -3.08431 -1.84691 0
M  V30 6308 C 588.991 -4.41694 -1.17284 0
M  V30 6309 C 589.988 -5.17062 -0.542532 0
M  V30 6310 C 587.673 -4.8843 -1.17223 0
M  V30 6311 C 589.667 -6.37351 0.0793953 0
M  V30 6312 C 587.354 -6.08652 -0.54647 0
M  V30 6313 C 588.352 -6.82955 0.0782458 0
M  V30 6314 O 588.04 -8.00897 0.694158 0
M  V30 6315 H 587.772 -0.619286 -0.271036 0
M  V30 6316 H 590.326 -2.0454 -0.187768 0
M  V30 6317 H 588.556 -2.85163 -2.61188 0
M  V30 6318 H 590.245 -3.23733 -2.44851 0
M  V30 6319 H 591.011 -4.8204 -0.535045 0
M  V30 6320 H 586.89 -4.30542 -1.64788 0
M  V30 6321 H 590.434 -6.95287 0.567612 0
M  V30 6322 H 586.331 -6.4314 -0.55151 0
M  V30 6323 H 587.099 -8.16352 0.592537 0
M  V30 6324 N 589.762 0.448376 -1.51087 0
M  V30 6325 C 591.011 1.19561 -1.62444 0
M  V30 6326 C 591.324 1.92602 -0.341151 0
M  V30 6327 O 592.53 2.69439 -0.333936 0
M  V30 6328 C 590.986 2.17373 -2.8684 0
M  V30 6329 C 590.594 1.5003 -4.22131 0
M  V30 6330 C 592.338 2.92597 -3.0755 0
M  V30 6331 C 590.245 2.46262 -5.37689 0
M  V30 6332 H 589.175 0.449975 -0.605011 0
M  V30 6333 H 591.826 0.463735 -1.77544 0
M  V30 6334 H 590.208 2.93948 -2.65349 0
M  V30 6335 H 591.382 0.790886 -4.53962 0
M  V30 6336 H 589.697 0.870011 -4.0721 0
M  V30 6337 H 592.294 3.64663 -3.91056 0
M  V30 6338 H 592.637 3.53306 -2.20183 0
M  V30 6339 H 593.17 2.23131 -3.29329 0
M  V30 6340 H 589.909 1.90258 -6.27281 0
M  V30 6341 H 589.429 3.15289 -5.10248 0
M  V30 6342 H 591.108 3.07623 -5.6919 0
M  V30 6343 N 591.24 1.41047 0.703093 0
M  V30 6344 C 592.465 1.43537 1.49706 0
M  V30 6345 C 592.89 0.0401853 1.88057 0
M  V30 6346 O 592.248 -0.954785 1.54122 0
M  V30 6347 C 592.296 2.3433 2.74084 0
M  V30 6348 O 591.4 1.79515 3.71279 0
M  V30 6349 H 590.741 0.487454 0.450871 0
M  V30 6350 H 593.271 1.85422 0.86486 0
M  V30 6351 H 593.281 2.49947 3.22476 0
M  V30 6352 H 591.956 3.35708 2.45506 0
M  V30 6353 H 590.533 1.7331 3.30179 0
M  V30 6354 N 592.718 -0.936591 1.26751 0
M  V30 6355 C 593.628 -2.06949 1.10496 0
M  V30 6356 C 594.644 -1.7396 0.037271 0
M  V30 6357 O 595.82 -1.99941 0.241944 0
M  V30 6358 C 592.885 -3.38612 0.744491 0
M  V30 6359 C 591.946 -3.85355 1.89209 0
M  V30 6360 C 591.179 -5.10735 1.54873 0
M  V30 6361 O 591.402 -5.68602 0.452546 0
M  V30 6362 O 590.336 -5.52632 2.38499 0
M  V30 6363 H 594.162 -2.23571 2.05547 0
M  V30 6364 H 591.747 -1.05428 1.05855 0
M  V30 6365 H 593.629 -4.17711 0.556396 0
M  V30 6366 H 592.304 -3.23218 -0.176582 0
M  V30 6367 H 591.211 -3.07182 2.13518 0
M  V30 6368 H 592.544 -4.05277 2.79305 0
M  V30 6369 N 594.196 -1.08629 -1.14182 0
M  V30 6370 C 595.106 -0.730126 -2.22949 0
M  V30 6371 C 596.122 0.26436 -1.7198 0
M  V30 6372 O 597.298 0.107742 -2.01112 0
M  V30 6373 C 594.363 -0.147227 -3.46387 0
M  V30 6374 C 593.424 -1.19662 -4.12286 0
M  V30 6375 C 592.657 -0.641437 -5.29831 0
M  V30 6376 O 592.88 0.538351 -5.67854 0
M  V30 6377 O 591.814 -1.39257 -5.85569 0
M  V30 6378 H 595.64 -1.63753 -2.55771 0
M  V30 6379 H 593.225 -0.860118 -1.22157 0
M  V30 6380 H 595.107 0.174923 -4.21037 0
M  V30 6381 H 593.782 0.733304 -3.15285 0
M  V30 6382 H 592.689 -1.57133 -3.395 0
M  V30 6383 H 594.022 -2.0495 -4.475 0
M  V30 6384 N 595.674 1.31259 -0.872281 0
M  V30 6385 C 596.622 2.30404 -0.318897 0
M  V30 6386 C 597.616 1.5962 0.567267 0
M  V30 6387 O 598.822 1.74204 0.453111 0
M  V30 6388 H 595.197 0.747243 -0.0844474 0
M  V30 6389 H 597.168 2.74549 -1.16899 0
M  V30 6390 C 595.917 3.44608 0.462683 0
M  V30 6391 H 595.24 3.99248 -0.209936 0
M  V30 6392 H 596.68 4.1609 0.815187 0
M  V30 6393 C 595.139 2.93456 1.65485 0
M  V30 6394 O 595.669 2.92418 2.75417 0
M  V30 6395 N 593.875 2.49628 1.48776 0
M  V30 6396 H 593.422 2.50671 0.593452 0
M  V30 6397 H 593.38 2.15759 2.28682 0
M  V30 6398 N 597.152 0.631951 1.44375 0
M  V30 6399 C 598.399 0.136767 2.02038 0
M  V30 6400 C 598.727 -1.24168 1.49709 0
M  V30 6401 O 597.982 -1.83809 0.671763 0
M  V30 6402 C 598.281 0.0735861 3.57324 0
M  V30 6403 C 597.947 1.39092 4.28911 0
M  V30 6404 C 596.609 1.75171 4.48184 0
M  V30 6405 C 598.961 2.26042 4.69632 0
M  V30 6406 C 596.289 2.97907 5.05439 0
M  V30 6407 C 598.641 3.4805 5.28246 0
M  V30 6408 C 597.305 3.84351 5.45738 0
M  V30 6409 H 596.575 0.0500466 0.739308 0
M  V30 6410 H 599.222 0.818429 1.7313 0
M  V30 6411 H 597.527 -0.691449 3.8565 0
M  V30 6412 H 599.224 -0.326091 3.99672 0
M  V30 6413 H 595.814 1.10015 4.1424 0
M  V30 6414 H 599.998 1.99463 4.54454 0
M  V30 6415 H 595.254 3.26108 5.17169 0
M  V30 6416 H 599.428 4.15658 5.5875 0
M  V30 6417 H 597.055 4.79538 5.8987 0
M  V30 6418 N 598.631 -1.53133 0.372548 0
M  V30 6419 C 600.047 -1.59585 0.02178 0
M  V30 6420 C 600.247 -1.38736 -1.46132 0
M  V30 6421 O 599.303 -1.19599 -2.22379 0
M  V30 6422 C 600.616 -2.9678 0.483959 0
M  V30 6423 C 602.164 -3.09909 0.438775 0
M  V30 6424 C 602.639 -4.49527 0.876876 0
M  V30 6425 N 604.13 -4.55663 0.832214 0
M  V30 6426 C 604.865 -5.61896 1.14281 0
M  V30 6427 N 604.361 -6.75852 1.52303 0
M  V30 6428 N 606.154 -5.51916 1.06515 0
M  V30 6429 H 598.305 -1.64936 1.33827 0
M  V30 6430 H 600.568 -0.773947 0.547458 0
M  V30 6431 H 600.274 -3.17198 1.51915 0
M  V30 6432 H 600.148 -3.7699 -0.125784 0
M  V30 6433 H 602.535 -2.89197 -0.587294 0
M  V30 6434 H 602.616 -2.31691 1.0841 0
M  V30 6435 H 602.26 -4.70979 1.90109 0
M  V30 6436 H 602.19 -5.26186 0.208727 0
M  V30 6437 H 604.681 -3.73844 0.552195 0
M  V30 6438 H 604.994 -7.52862 1.7441 0
M  V30 6439 H 603.339 -6.77226 1.56175 0
M  V30 6440 H 606.53 -4.6177 0.767235 0
M  V30 6441 H 606.703 -6.34609 1.31053 0
M  V30 6442 N 600.109 -0.101901 -1.5727 0
M  V30 6443 C 601.355 0.561027 -1.94885 0
M  V30 6444 C 601.688 1.6741 -0.984258 0
M  V30 6445 O 600.963 1.94491 -0.0184767 0
M  V30 6446 C 601.246 1.10982 -3.42571 0
M  V30 6447 C 601.099 0.00133418 -4.498 0
M  V30 6448 C 602.418 2.00608 -3.9172 0
M  V30 6449 H 599.537 0.202467 -0.708644 0
M  V30 6450 H 602.179 -0.173992 -1.89202 0
M  V30 6451 H 600.329 1.73621 -3.47546 0
M  V30 6452 H 602.001 -0.63322 -4.56933 0
M  V30 6453 H 600.244 -0.664143 -4.28686 0
M  V30 6454 H 600.915 0.426253 -5.50352 0
M  V30 6455 H 603.391 1.47864 -3.88941 0
M  V30 6456 H 602.267 2.3593 -4.95609 0
M  V30 6457 H 602.528 2.92608 -3.3141 0
M  V30 6458 N 601.587 1.56661 0.17182 0
M  V30 6459 C 602.52 1.91474 1.24149 0
M  V30 6460 C 603.498 0.777485 1.42807 0
M  V30 6461 O 604.682 1.03075 1.57822 0
M  V30 6462 C 601.809 2.16523 2.60453 0
M  V30 6463 C 600.855 3.39209 2.58533 0
M  V30 6464 S 601.688 4.93594 2.07665 0
M  V30 6465 C 602.844 5.21737 3.45747 0
M  V30 6466 H 603.077 2.81903 0.944346 0
M  V30 6467 H 600.61 1.49743 0.376364 0
M  V30 6468 H 602.568 2.31635 3.38903 0
M  V30 6469 H 601.229 1.26802 2.87368 0
M  V30 6470 H 600.422 3.53935 3.58812 0
M  V30 6471 H 600.024 3.2321 1.88178 0
M  V30 6472 H 602.316 5.13684 4.41741 0
M  V30 6473 H 603.259 6.23361 3.35896 0
M  V30 6474 H 603.667 4.49307 3.41736 0
M  V30 6475 N 603.065 -0.440357 1.51323 0
M  V30 6476 C 604.29 -1.21716 1.67928 0
M  V30 6477 C 604.715 -1.84328 0.374826 0
M  V30 6478 O 604.073 -1.68675 -0.664706 0
M  V30 6479 C 604.121 -2.27914 2.79442 0
M  V30 6480 O 603.225 -3.33325 2.42834 0
M  V30 6481 H 602.566 -0.35674 0.560029 0
M  V30 6482 H 605.096 -0.520417 1.97871 0
M  V30 6483 H 605.106 -2.72746 3.03436 0
M  V30 6484 H 603.781 -1.8172 3.741 0
M  V30 6485 H 602.358 -2.9399 2.294 0
M  V30 6486 N 604.543 -1.41418 -0.695603 0
M  V30 6487 C 605.791 -1.40496 -1.45277 0
M  V30 6488 C 606.112 -0.0149538 -1.94994 0
M  V30 6489 O 605.382 0.9432 -1.71699 0
M  V30 6490 H 603.962 -0.517147 -0.539044 0
M  V30 6491 H 606.624 -1.76656 -0.823321 0
M  V30 6492 H 605.72 -2.09214 -2.31595 0
M  V30 6493 N 606.021 0.929856 -1.27246 0
M  V30 6494 C 606.968 2.03017 -1.09785 0
M  V30 6495 C 607.938 1.661 0.000456744 0
M  V30 6496 O 609.123 1.90116 -0.161462 0
M  V30 6497 C 606.263 3.36878 -0.748816 0
M  V30 6498 C 605.376 3.86763 -1.92453 0
M  V30 6499 C 604.511 5.09061 -1.51758 0
M  V30 6500 C 603.55 5.51237 -2.66091 0
M  V30 6501 N 602.687 6.64732 -2.25999 0
M  V30 6502 H 607.527 2.17285 -2.03939 0
M  V30 6503 H 605.064 1.06448 -1.01524 0
M  V30 6504 H 607.022 4.13855 -0.527283 0
M  V30 6505 H 605.652 3.22424 0.155771 0
M  V30 6506 H 604.704 3.06086 -2.25867 0
M  V30 6507 H 606.016 4.13994 -2.78227 0
M  V30 6508 H 605.17 5.93532 -1.25716 0
M  V30 6509 H 603.909 4.83602 -0.630896 0
M  V30 6510 H 602.914 4.65316 -2.92849 0
M  V30 6511 H 604.139 5.78692 -3.55377 0
M  V30 6512 H 602.085 6.40935 -1.3978 0
M  V30 6513 H 602.002 6.91607 -3.05313 0
M  V30 6514 H 603.27 7.52549 -2.03199 0
M  V30 6515 N 607.499 1.09233 1.13605 0
M  V30 6516 C 608.429 0.751738 2.21068 0
M  V30 6517 C 609.41 -0.269688 1.67948 0
M  V30 6518 O 610.595 -0.13819 1.93708 0
M  V30 6519 C 607.725 0.16935 3.46887 0
M  V30 6520 C 606.679 1.12007 4.13084 0
M  V30 6521 C 606.005 0.399483 5.33206 0
M  V30 6522 C 607.305 2.46168 4.6065 0
M  V30 6523 H 608.999 1.65024 2.49815 0
M  V30 6524 H 606.545 0.794905 1.20072 0
M  V30 6525 H 608.498 -0.0809824 4.21322 0
M  V30 6526 H 607.222 -0.764335 3.1753 0
M  V30 6527 H 605.881 1.35564 3.40614 0
M  V30 6528 H 605.529 -0.538277 5.00112 0
M  V30 6529 H 605.229 1.03337 5.78442 0
M  V30 6530 H 606.753 0.157403 6.10397 0
M  V30 6531 H 608.167 2.26829 5.26518 0
M  V30 6532 H 606.564 3.05326 5.1662 0
M  V30 6533 H 607.634 3.07076 3.75276 0
M  V30 6534 N 608.977 -1.30795 0.87923 0
M  V30 6535 C 610.205 -2.00527 0.509548 0
M  V30 6536 C 610.62 -1.65944 -0.90045 0
M  V30 6537 O 609.977 -0.893525 -1.5913 0
M  V30 6538 C 610.028 -3.55276 0.667943 0
M  V30 6539 O 609.749 -3.88625 2.02242 0
M  V30 6540 C 611.25 -4.4228 0.300494 0
M  V30 6541 H 608.47 -0.641261 0.197549 0
M  V30 6542 H 611.014 -1.66813 1.18295 0
M  V30 6543 H 609.169 -3.87377 0.0419843 0
M  V30 6544 H 609.583 -4.83334 2.03688 0
M  V30 6545 H 611.057 -5.50061 0.462242 0
M  V30 6546 H 611.534 -4.32556 -0.76106 0
M  V30 6547 H 612.14 -4.15613 0.902536 0
M  V30 6548 N 610.455 -0.639598 -1.44038 0
M  V30 6549 C 611.701 -0.147698 -2.02261 0
M  V30 6550 C 612.034 1.23031 -1.50256 0
M  V30 6551 O 611.309 1.81847 -0.690068 0
M  V30 6552 C 611.592 -0.14362 -3.59813 0
M  V30 6553 C 611.445 -1.55458 -4.22082 0
M  V30 6554 C 612.764 0.527317 -4.36929 0
M  V30 6555 H 609.883 -0.0551453 -0.734934 0
M  V30 6556 H 612.525 -0.817688 -1.71505 0
M  V30 6557 H 610.675 0.426898 -3.86147 0
M  V30 6558 H 612.347 -2.17464 -4.06826 0
M  V30 6559 H 610.59 -2.10594 -3.79253 0
M  V30 6560 H 611.261 -1.50369 -5.31124 0
M  V30 6561 H 613.737 0.0420504 -4.16079 0
M  V30 6562 H 612.613 0.499389 -5.46624 0
M  V30 6563 H 612.874 1.59914 -4.12165 0
M  V30 6564 N 611.933 1.52934 -0.380664 0
M  V30 6565 C 612.865 2.23822 0.493581 0
M  V30 6566 C 613.878 1.25761 1.03383 0
M  V30 6567 O 615.067 1.5189 0.937633 0
M  V30 6568 C 612.167 2.9342 1.69582 0
M  V30 6569 C 611.34 4.18115 1.28445 0
M  V30 6570 C 610.399 4.70788 2.35042 0
M  V30 6571 O 609.425 5.34093 1.96807 0
M  V30 6572 N 610.627 4.49899 3.66839 0
M  V30 6573 H 613.392 2.99484 -0.11371 0
M  V30 6574 H 610.953 1.60577 -0.206587 0
M  V30 6575 H 612.945 3.2556 2.40401 0
M  V30 6576 H 611.515 2.21119 2.20965 0
M  V30 6577 H 610.735 3.92109 0.405503 0
M  V30 6578 H 612.023 4.99152 0.986132 0
M  V30 6579 H 611.421 3.99349 4.0067 0
M  V30 6580 H 609.978 4.86551 4.33718 0
M  V30 6581 N 613.412 0.11024 1.57214 0
M  V30 6582 C 614.322 -0.857077 2.18383 0
M  V30 6583 C 615.338 -1.29915 1.1575 0
M  V30 6584 O 616.514 -1.36394 1.48184 0
M  V30 6585 C 613.579 -2.09264 2.76423 0
M  V30 6586 C 612.64 -1.70333 3.94063 0
M  V30 6587 C 611.873 -2.87999 4.49324 0
M  V30 6588 O 612.096 -4.0317 4.03497 0
M  V30 6589 O 611.03 -2.6559 5.40135 0
M  V30 6590 H 614.856 -0.366561 3.0148 0
M  V30 6591 H 612.441 -0.114914 1.48957 0
M  V30 6592 H 614.323 -2.81644 3.13456 0
M  V30 6593 H 612.998 -2.57339 1.96363 0
M  V30 6594 H 611.905 -0.950864 3.61814 0
M  V30 6595 H 613.238 -1.27007 4.75531 0
M  V30 6596 N 614.89 -1.56749 -0.16351 0
M  V30 6597 C 615.8 -2.00255 -1.2221 0
M  V30 6598 C 616.816 -0.915194 -1.47987 0
M  V30 6599 O 617.992 -1.22342 -1.59982 0
M  V30 6600 C 615.057 -2.36035 -2.53946 0
M  V30 6601 C 614.118 -3.58637 -2.35962 0
M  V30 6602 C 613.351 -3.92701 -3.61416 0
M  V30 6603 O 613.574 -3.27632 -4.66919 0
M  V30 6604 O 612.508 -4.86019 -3.55062 0
M  V30 6605 H 616.334 -2.90586 -0.882794 0
M  V30 6606 H 613.919 -1.44721 -0.370978 0
M  V30 6607 H 615.801 -2.59982 -3.31643 0
M  V30 6608 H 614.476 -1.48863 -2.8744 0
M  V30 6609 H 613.383 -3.39898 -1.5627 0
M  V30 6610 H 614.716 -4.46374 -2.0739 0
M  V30 6611 N 616.368 0.432326 -1.51554 0
M  V30 6612 C 617.3 1.54357 -1.6943 0
M  V30 6613 C 618.313 1.52311 -0.574897 0
M  V30 6614 O 619.502 1.56997 -0.849369 0
M  V30 6615 C 616.602 2.93273 -1.69836 0
M  V30 6616 C 615.775 3.19768 -2.98442 0
M  V30 6617 C 614.834 4.38433 -2.90969 0
M  V30 6618 O 613.86 4.36842 -3.64908 0
M  V30 6619 N 615.062 5.42276 -2.07163 0
M  V30 6620 H 617.827 1.39426 -2.65293 0
M  V30 6621 H 615.388 0.621331 -1.49503 0
M  V30 6622 H 617.38 3.70687 -1.62399 0
M  V30 6623 H 615.95 3.01777 -0.815456 0
M  V30 6624 H 615.17 2.30607 -3.19709 0
M  V30 6625 H 616.458 3.343 -3.83563 0
M  V30 6626 H 615.856 5.46407 -1.46477 0
M  V30 6627 H 614.413 6.18524 -2.05601 0
M  V30 6628 N 617.846 1.41785 0.688094 0
M  V30 6629 C 619.095 1.4084 1.44385 0
M  V30 6630 C 619.408 0.0234166 1.95586 0
M  V30 6631 O 620.614 -0.108647 2.71283 0
M  V30 6632 C 619.07 2.47675 2.61123 0
M  V30 6633 C 618.678 3.92116 2.16677 0
M  V30 6634 C 620.422 2.55877 3.38714 0
M  V30 6635 C 618.329 4.90487 3.30419 0
M  V30 6636 H 617.259 0.523787 0.542368 0
M  V30 6637 H 619.91 1.6764 0.74627 0
M  V30 6638 H 618.292 2.14018 3.33185 0
M  V30 6639 H 619.466 4.35059 1.51856 0
M  V30 6640 H 617.781 3.87642 1.5206 0
M  V30 6641 H 620.378 3.26553 4.234 0
M  V30 6642 H 620.721 1.59801 3.84408 0
M  V30 6643 H 621.254 2.88662 2.73714 0
M  V30 6644 H 617.993 5.87994 2.89729 0
M  V30 6645 H 617.513 4.52187 3.94065 0
M  V30 6646 H 619.192 5.11591 3.96085 0
M  V30 6647 N 619.324 -0.923095 1.27737 0
M  V30 6648 C 620.57 -1.67375 1.14514 0
M  V30 6649 C 620.903 -1.91751 -0.307424 0
M  V30 6650 O 620.178 -1.51119 -1.22447 0
M  V30 6651 C 620.461 -3.03745 1.9342 0
M  V30 6652 C 620.314 -2.86581 3.46686 0
M  V30 6653 C 621.633 -4.04144 1.74228 0
M  V30 6654 H 618.752 -0.607427 0.417374 0
M  V30 6655 H 621.394 -1.07089 1.56946 0
M  V30 6656 H 619.544 -3.55204 1.5736 0
M  V30 6657 H 621.216 -2.42203 3.92601 0
M  V30 6658 H 619.459 -2.21829 3.72793 0
M  V30 6659 H 620.13 -3.83381 3.97143 0
M  V30 6660 H 622.606 -3.61712 2.05678 0
M  V30 6661 H 621.482 -4.97543 2.31824 0
M  V30 6662 H 621.743 -4.36661 0.691373 0
M  V30 6663 N 620.802 -1.09834 -1.13024 0
M  V30 6664 C 621.712 -0.753731 -2.22162 0
M  V30 6665 C 622.728 0.246105 -1.72251 0
M  V30 6666 O 623.904 0.0864051 -2.01215 0
M  V30 6667 C 620.969 -0.183958 -3.46212 0
M  V30 6668 C 620.03 -1.24028 -4.10993 0
M  V30 6669 C 619.263 -0.697597 -5.29121 0
M  V30 6670 O 619.486 0.478092 -5.68393 0
M  V30 6671 O 618.42 -1.4546 -5.84059 0
M  V30 6672 H 622.246 -1.66456 -2.5402 0
M  V30 6673 H 619.831 -0.873026 -1.21238 0
M  V30 6674 H 621.713 0.130257 -4.21199 0
M  V30 6675 H 620.388 0.699823 -3.16045 0
M  V30 6676 H 619.295 -1.60725 -3.37814 0
M  V30 6677 H 620.628 -2.09685 -4.45301 0
M  V30 6678 N 622.28 1.30327 -0.886154 0
M  V30 6679 C 623.21 2.30549 -0.370028 0
M  V30 6680 C 624.191 1.61039 0.547751 0
M  V30 6681 O 625.376 1.8864 0.461353 0
M  V30 6682 C 622.506 3.44808 0.415275 0
M  V30 6683 C 621.46 4.26024 -0.41085 0
M  V30 6684 C 620.786 5.32347 0.501128 0
M  V30 6685 C 622.086 4.95433 -1.65359 0
M  V30 6686 H 623.78 2.73969 -1.20754 0
M  V30 6687 H 621.326 1.3171 -0.582097 0
M  V30 6688 H 623.279 4.13986 0.78699 0
M  V30 6689 H 622.003 3.00197 1.28644 0
M  V30 6690 H 620.662 3.58535 -0.764719 0
M  V30 6691 H 620.31 4.83982 1.37004 0
M  V30 6692 H 620.01 5.87581 -0.0478356 0
M  V30 6693 H 621.534 6.0438 0.869333 0
M  V30 6694 H 622.948 5.5712 -1.35239 0
M  V30 6695 H 621.345 5.60537 -2.14284 0
M  V30 6696 H 622.415 4.21493 -2.39733 0
M  V30 6697 N 623.758 0.647228 1.43697 0
M  V30 6698 C 625.007 0.155552 2.01099 0
M  V30 6699 C 625.32 -1.23569 1.51624 0
M  V30 6700 O 626.526 -1.82226 2.01261 0
M  V30 6701 C 624.982 0.227296 3.59182 0
M  V30 6702 C 624.59 1.62086 4.17651 0
M  V30 6703 C 626.334 -0.207085 4.23995 0
M  V30 6704 C 624.241 1.64685 5.68008 0
M  V30 6705 H 623.171 0.0543895 0.752036 0
M  V30 6706 H 625.822 0.808386 1.64734 0
M  V30 6707 H 624.204 -0.492937 3.9292 0
M  V30 6708 H 625.378 2.36597 3.95422 0
M  V30 6709 H 623.693 2.0007 3.65186 0
M  V30 6710 H 626.29 -0.207426 5.34298 0
M  V30 6711 H 626.633 -1.23742 3.97484 0
M  V30 6712 H 627.166 0.461193 3.95118 0
M  V30 6713 H 623.905 2.65608 5.99277 0
M  V30 6714 H 623.425 0.944914 5.9231 0
M  V30 6715 H 625.104 1.38792 6.31938 0
M  V30 6716 N 625.236 -1.5273 0.388769 0
M  V30 6717 C 626.146 -2.30165 -0.453993 0
M  V30 6718 C 627.162 -1.37058 -1.07197 0
M  V30 6719 O 628.338 -1.70127 -1.0779 0
M  V30 6720 C 625.403 -3.09303 -1.56628 0
M  V30 6721 C 624.464 -4.18117 -0.973467 0
M  V30 6722 C 623.697 -4.93472 -2.03275 0
M  V30 6723 O 623.92 -4.68913 -3.24772 0
M  V30 6724 O 622.854 -5.78833 -1.65034 0
M  V30 6725 H 626.68 -3.03185 0.176816 0
M  V30 6726 H 624.265 -1.4862 0.152501 0
M  V30 6727 H 626.147 -3.58648 -2.21246 0
M  V30 6728 H 624.822 -2.39098 -2.18206 0
M  V30 6729 H 623.729 -3.7297 -0.290556 0
M  V30 6730 H 625.062 -4.90556 -0.401908 0
M  V30 6731 N 626.714 -0.118576 -1.57153 0
M  V30 6732 C 627.661 0.831789 -2.1529 0
M  V30 6733 C 628.631 1.26385 -1.07778 0
M  V30 6734 O 629.816 1.34144 -1.35684 0
M  V30 6735 C 626.956 2.07664 -2.75626 0
M  V30 6736 C 626.069 1.69298 -3.97444 0
M  V30 6737 C 625.204 2.88747 -4.45868 0
M  V30 6738 C 624.243 2.46619 -5.60219 0
M  V30 6739 N 623.38 3.5898 -6.03389 0
M  V30 6740 H 628.22 0.329183 -2.96176 0
M  V30 6741 H 625.757 0.150792 -1.46325 0
M  V30 6742 H 627.715 2.80601 -3.08738 0
M  V30 6743 H 626.345 2.55384 -1.97431 0
M  V30 6744 H 625.397 0.862374 -3.70496 0
M  V30 6745 H 626.709 1.34338 -4.80369 0
M  V30 6746 H 625.863 3.69909 -4.80887 0
M  V30 6747 H 624.602 3.26933 -3.61892 0
M  V30 6748 H 623.607 1.63889 -5.24805 0
M  V30 6749 H 624.832 2.0955 -6.45961 0
M  V30 6750 H 622.778 3.9684 -5.22354 0
M  V30 6751 H 622.695 3.27942 -6.81168 0
M  V30 6752 H 623.963 4.40583 -6.43045 0
M  V30 6753 N 628.193 1.56834 0.155195 0
M  V30 6754 C 629.442 1.82088 0.867567 0
M  V30 6755 C 629.755 0.69849 1.82703 0
M  V30 6756 O 630.961 0.836407 2.58295 0
M  V30 6757 C 629.417 3.22707 1.59336 0
M  V30 6758 C 629.025 4.42859 0.676719 0
M  V30 6759 C 630.769 3.57242 2.293 0
M  V30 6760 C 628.676 5.74501 1.40367 0
M  V30 6761 H 627.606 0.679057 0.327715 0
M  V30 6762 H 630.257 1.83105 0.120351 0
M  V30 6763 H 628.639 3.16054 2.38591 0
M  V30 6764 H 629.813 4.60731 -0.0800196 0
M  V30 6765 H 628.128 4.16311 0.0859129 0
M  V30 6766 H 630.725 4.52847 2.84312 0
M  V30 6767 H 631.068 2.82901 3.05406 0
M  V30 6768 H 631.601 3.6552 1.56972 0
M  V30 6769 H 628.34 6.51915 0.684623 0
M  V30 6770 H 627.86 5.60579 2.13332 0
M  V30 6771 H 629.539 6.17016 1.94681 0
M  V30 6772 N 629.671 -0.424282 1.51781 0
M  V30 6773 C 630.919 -1.17028 1.64769 0
M  V30 6774 C 631.24 -1.91409 0.372523 0
M  V30 6775 O 630.51 -1.86091 -0.612108 0
M  V30 6776 H 629.09 -0.434992 0.607282 0
M  V30 6777 H 631.752 -0.485169 1.88765 0
M  V30 6778 H 630.848 -1.8927 2.4816 0
M  V30 6779 N 631.149 -1.42148 -0.680565 0
M  V30 6780 C 632.112 -1.4488 -1.77602 0
M  V30 6781 C 633.112 -0.337209 -1.57224 0
M  V30 6782 O 634.302 -0.597778 -1.63622 0
M  V30 6783 C 631.434 -1.27483 -3.16166 0
M  V30 6784 H 632.627 -2.42412 -1.76568 0
M  V30 6785 H 630.18 -1.28511 -0.889645 0
M  V30 6786 H 630.915 -0.30851 -3.22829 0
M  V30 6787 H 630.7 -2.08037 -3.3236 0
M  V30 6788 H 632.19 -1.32265 -3.96101 0
M  V30 6789 N 632.627 0.916307 -1.28225 0
M  V30 6790 C 633.873 1.66765 -1.154 0
M  V30 6791 C 634.206 1.91912 0.297251 0
M  V30 6792 O 633.481 1.51766 1.21644 0
M  V30 6793 C 633.764 3.02715 -1.95028 0
M  V30 6794 C 633.617 2.84738 -3.48201 0
M  V30 6795 C 634.936 4.03215 -1.76369 0
M  V30 6796 H 632.055 0.605205 -0.42059 0
M  V30 6797 H 634.697 1.06255 -1.57512 0
M  V30 6798 H 632.847 3.54365 -1.59242 0
M  V30 6799 H 634.519 2.40118 -3.9388 0
M  V30 6800 H 632.762 2.19848 -3.73964 0
M  V30 6801 H 633.433 3.8127 -3.99171 0
M  V30 6802 H 635.909 3.60617 -2.07593 0
M  V30 6803 H 634.785 4.96306 -2.34459 0
M  V30 6804 H 635.046 4.36288 -0.71452 0
M  V30 6805 N 634.105 1.10431 1.1244 0
M  V30 6806 C 635.015 0.765502 2.21759 0
M  V30 6807 C 636.031 -0.236966 1.72379 0
M  V30 6808 O 637.207 -0.0757329 2.01258 0
M  V30 6809 C 634.272 0.202316 3.46109 0
M  V30 6810 C 633.333 1.26205 4.1033 0
M  V30 6811 C 632.566 0.725648 5.28744 0
M  V30 6812 O 632.789 -0.447942 5.68638 0
M  V30 6813 O 631.723 1.48555 5.83279 0
M  V30 6814 H 635.549 1.67801 2.53133 0
M  V30 6815 H 633.134 0.879443 1.20773 0
M  V30 6816 H 635.016 -0.107918 4.21262 0
M  V30 6817 H 633.691 -0.683052 3.16411 0
M  V30 6818 H 632.598 1.62514 3.36957 0
M  V30 6819 H 633.931 2.12044 4.44183 0
M  V30 6820 N 635.583 -1.29855 0.893053 0
M  V30 6821 C 636.493 -2.31661 0.370157 0
M  V30 6822 C 637.509 -1.65677 -0.531723 0
M  V30 6823 O 638.685 -1.9691 -0.422902 0
M  V30 6824 C 635.75 -3.44388 -0.399741 0
M  V30 6825 C 634.811 -4.2598 0.532861 0
M  V30 6826 C 634.044 -5.33324 -0.200388 0
M  V30 6827 O 634.267 -5.52305 -1.42531 0
M  V30 6828 O 633.201 -6.00188 0.453668 0
M  V30 6829 H 637.027 -2.78354 1.2146 0
M  V30 6830 H 634.612 -1.34171 0.657153 0
M  V30 6831 H 636.494 -4.13037 -0.835358 0
M  V30 6832 H 635.169 -2.99815 -1.22035 0
M  V30 6833 H 634.076 -3.59998 1.01746 0
M  V30 6834 H 635.409 -4.74178 1.3197 0
M  V30 6835 N 637.061 -0.65484 -1.43351 0
M  V30 6836 C 637.971 0.0363603 -2.34572 0
M  V30 6837 C 638.987 0.810432 -1.53974 0
M  V30 6838 O 640.163 0.757308 -1.86619 0
M  V30 6839 C 637.228 0.989733 -3.32273 0
M  V30 6840 C 636.289 0.212414 -4.28774 0
M  V30 6841 C 635.522 1.12038 -5.21808 0
M  V30 6842 O 635.745 2.35967 -5.19303 0
M  V30 6843 O 634.679 0.59191 -5.98982 0
M  V30 6844 H 638.505 -0.714527 -2.95175 0
M  V30 6845 H 636.09 -0.415029 -1.4352 0
M  V30 6846 H 637.972 1.53759 -3.92347 0
M  V30 6847 H 636.647 1.72082 -2.74171 0
M  V30 6848 H 635.554 -0.379062 -3.72175 0
M  V30 6849 H 636.887 -0.479138 -4.89862 0
M  V30 6850 N 638.539 1.52521 -0.396863 0
M  V30 6851 C 639.469 2.29582 0.425941 0
M  V30 6852 C 640.45 1.33281 1.05689 0
M  V30 6853 O 641.635 1.62181 1.06823 0
M  V30 6854 C 638.765 3.10821 1.54943 0
M  V30 6855 C 637.719 4.15069 1.04413 0
M  V30 6856 C 637.045 4.84578 2.26028 0
M  V30 6857 C 638.345 5.22191 0.106767 0
M  V30 6858 H 640.039 2.98612 -0.217045 0
M  V30 6859 H 637.585 1.43611 -0.105826 0
M  V30 6860 H 639.538 3.63492 2.13193 0
M  V30 6861 H 638.262 2.39538 2.22011 0
M  V30 6862 H 636.921 3.63389 0.484118 0
M  V30 6863 H 636.569 4.09835 2.91623 0
M  V30 6864 H 636.269 5.55043 1.92876 0
M  V30 6865 H 637.793 5.40056 2.84906 0
M  V30 6866 H 639.207 5.70176 0.597685 0
M  V30 6867 H 637.604 5.99947 -0.135352 0
M  V30 6868 H 638.674 4.77531 -0.842134 0
M  V30 6869 N 640.017 0.126909 1.57088 0
M  V30 6870 C 640.965 -0.837618 2.16995 0
M  V30 6871 C 641.959 -1.26974 1.12133 0
M  V30 6872 O 643.165 -1.24056 1.30423 0
M  V30 6873 H 639.54 -0.288256 0.694559 0
M  V30 6874 H 641.511 -0.307957 2.96807 0
M  V30 6875 C 640.26 -2.07474 2.79016 0
M  V30 6876 H 639.583 -1.75117 3.59408 0
M  V30 6877 H 641.023 -2.72949 3.24461 0
M  V30 6878 C 639.482 -2.86967 1.76498 0
M  V30 6879 O 640.012 -3.82625 1.22316 0
M  V30 6880 N 638.218 -2.51111 1.46258 0
M  V30 6881 H 637.765 -1.73389 1.90509 0
M  V30 6882 H 637.723 -3.04594 0.779085 0
M  V30 6883 N 641.495 -1.56914 -0.146875 0
M  V30 6884 C 642.911 -1.51582 -0.499518 0
M  V30 6885 C 643.111 -0.83535 -1.83369 0
M  V30 6886 O 642.167 -0.405932 -2.49216 0
M  V30 6887 C 643.48 -2.96349 -0.509711 0
M  V30 6888 C 645.028 -3.07288 -0.595217 0
M  V30 6889 C 645.503 -4.53562 -0.636071 0
M  V30 6890 N 646.994 -4.57906 -0.69829 0
M  V30 6891 C 647.729 -5.68462 -0.750886 0
M  V30 6892 N 647.225 -6.88588 -0.76282 0
M  V30 6893 N 649.018 -5.56496 -0.791777 0
M  V30 6894 H 641.169 -1.99547 0.727656 0
M  V30 6895 H 643.432 -0.910113 0.265327 0
M  V30 6896 H 643.138 -3.4939 0.402409 0
M  V30 6897 H 643.012 -3.52307 -1.34758 0
M  V30 6898 H 645.399 -2.54266 -1.49776 0
M  V30 6899 H 645.48 -2.54373 0.2698 0
M  V30 6900 H 645.124 -5.07222 0.262313 0
M  V30 6901 H 645.054 -5.04259 -1.51758 0
M  V30 6902 H 647.545 -3.71429 -0.696362 0
M  V30 6903 H 647.858 -7.68598 -0.804804 0
M  V30 6904 H 646.203 -6.91148 -0.730694 0
M  V30 6905 H 649.394 -4.61562 -0.779624 0
M  V30 6906 H 649.567 -6.42671 -0.829301 0
M  V30 6907 N 642.974 0.416227 -1.52004 0
M  V30 6908 C 644.22 1.16555 -1.6596 0
M  V30 6909 C 644.553 1.90347 -0.384906 0
M  V30 6910 O 643.828 1.84474 0.616405 0
M  V30 6911 C 644.111 2.1657 -2.87696 0
M  V30 6912 C 643.964 1.46722 -4.25197 0
M  V30 6913 C 645.283 3.17321 -3.04951 0
M  V30 6914 H 642.402 0.422369 -0.603965 0
M  V30 6915 H 645.044 0.452141 -1.84542 0
M  V30 6916 H 643.194 2.77411 -2.71985 0
M  V30 6917 H 644.866 0.89056 -4.52622 0
M  V30 6918 H 643.109 0.769263 -4.26925 0
M  V30 6919 H 643.78 2.19665 -5.0641 0
M  V30 6920 H 646.256 2.66552 -3.19514 0
M  V30 6921 H 645.132 3.84573 -3.91656 0
M  V30 6922 H 645.393 3.84643 -2.17951 0
M  V30 6923 N 644.452 1.42507 0.673017 0
M  V30 6924 C 645.68 1.46473 1.46128 0
M  V30 6925 C 646.095 0.0765912 1.88645 0
M  V30 6926 O 645.452 -0.909057 1.58248 0
M  V30 6927 C 645.503 2.39339 2.70923 0
M  V30 6928 O 645.224 3.72752 2.3019 0
M  V30 6929 C 646.725 2.52343 3.64469 0
M  V30 6930 H 643.945 0.49812 0.449575 0
M  V30 6931 H 646.489 1.87041 0.826802 0
M  V30 6932 H 644.644 2.02019 3.30556 0
M  V30 6933 H 645.058 4.22503 3.10791 0
M  V30 6934 H 646.532 3.2144 4.48754 0
M  V30 6935 H 647.009 1.56189 4.1049 0
M  V30 6936 H 647.615 2.90392 3.10729 0
M  V30 6937 N 645.93 -0.909495 1.28709 0
M  V30 6938 C 646.84 -2.04558 1.14861 0
M  V30 6939 C 647.856 -1.73842 0.0741621 0
M  V30 6940 O 649.032 -1.99383 0.2843 0
M  V30 6941 C 646.097 -3.36957 0.816148 0
M  V30 6942 C 645.158 -3.81255 1.97341 0
M  V30 6943 C 644.391 -5.07335 1.65671 0
M  V30 6944 O 644.614 -5.67514 0.573053 0
M  V30 6945 O 643.548 -5.47449 2.50167 0
M  V30 6946 H 647.374 -2.19161 2.10243 0
M  V30 6947 H 644.959 -1.03159 1.08068 0
M  V30 6948 H 646.841 -4.16436 0.644873 0
M  V30 6949 H 645.516 -3.2352 -0.107983 0
M  V30 6950 H 644.423 -3.02584 2.19986 0
M  V30 6951 H 645.756 -3.99261 2.87839 0
M  V30 6952 N 647.408 -1.11026 -1.11852 0
M  V30 6953 C 648.338 -0.786812 -2.19844 0
M  V30 6954 C 649.319 0.242935 -1.68356 0
M  V30 6955 O 650.504 0.107355 -1.93903 0
M  V30 6956 C 647.634 -0.224516 -3.46574 0
M  V30 6957 C 646.588 -1.18564 -4.1125 0
M  V30 6958 C 645.914 -0.484261 -5.32503 0
M  V30 6959 C 647.214 -2.53465 -4.56676 0
M  V30 6960 H 648.908 -1.68978 -2.47158 0
M  V30 6961 H 646.454 -0.813906 -1.18792 0
M  V30 6962 H 648.407 0.0139435 -4.21398 0
M  V30 6963 H 647.131 0.713722 -3.18706 0
M  V30 6964 H 645.79 -1.40966 -3.38414 0
M  V30 6965 H 645.438 0.458646 -5.00905 0
M  V30 6966 H 645.138 -1.12526 -5.76725 0
M  V30 6967 H 646.662 -0.254492 -6.10069 0
M  V30 6968 H 648.076 -2.35177 -5.22843 0
M  V30 6969 H 646.473 -3.13507 -5.11697 0
M  V30 6970 H 647.543 -3.13008 -3.70343 0
M  V30 6971 N 648.886 1.2938 -0.899927 0
M  V30 6972 C 650.133 1.9555 -0.525963 0
M  V30 6973 C 650.461 1.70945 0.927789 0
M  V30 6974 O 649.716 1.01545 1.67293 0
M  V30 6975 C 650.015 3.49114 -0.765113 0
M  V30 6976 C 649.681 3.93796 -2.19626 0
M  V30 6977 C 648.343 4.05707 -2.58758 0
M  V30 6978 C 650.695 4.16883 -3.12823 0
M  V30 6979 C 648.023 4.38074 -3.90267 0
M  V30 6980 C 650.375 4.50725 -4.4388 0
M  V30 6981 C 649.039 4.60845 -4.82885 0
M  V30 6982 H 648.309 0.715569 -0.192463 0
M  V30 6983 H 650.956 1.53972 -1.13863 0
M  V30 6984 H 649.261 3.91738 -0.069531 0
M  V30 6985 H 650.958 3.98409 -0.455144 0
M  V30 6986 H 647.548 3.85042 -1.88256 0
M  V30 6987 H 651.732 4.07147 -2.83804 0
M  V30 6988 H 646.988 4.44112 -4.20207 0
M  V30 6989 H 651.162 4.67538 -5.16121 0
M  V30 6990 H 648.789 4.85681 -5.84823 0
M  V30 6991 N 650.364 0.662433 1.43002 0
M  V30 6992 C 651.297 -0.073459 2.28082 0
M  V30 6993 C 652.275 -0.820869 1.40358 0
M  V30 6994 O 653.459 -0.818545 1.698 0
M  V30 6995 C 650.586 -1.11097 3.19961 0
M  V30 6996 C 649.632 -0.460557 4.24006 0
M  V30 6997 S 650.465 0.772717 5.29896 0
M  V30 6998 C 651.621 -0.264028 6.25343 0
M  V30 6999 H 651.854 0.648227 2.90147 0
M  V30 7000 H 649.387 0.451566 1.47649 0
M  V30 7001 H 651.345 -1.70452 3.73439 0
M  V30 7002 H 650.006 -1.80503 2.57056 0
M  V30 7003 H 649.199 -1.24299 4.88432 0
M  V30 7004 H 648.801 0.0591038 3.73953 0
M  V30 7005 H 651.093 -1.12748 6.68052 0
M  V30 7006 H 652.036 0.345443 7.07257 0
M  V30 7007 H 652.444 -0.603964 5.6126 0
M  V30 7008 N 651.842 -1.52309 0.404946 0
M  V30 7009 C 653.119 -1.94237 -0.230544 0
M  V30 7010 C 653.499 -1.34154 -1.6299 0
M  V30 7011 O 652.847 -0.515713 -2.22604 0
M  V30 7012 C 653.057 -3.48166 -0.241106 0
M  V30 7013 C 654.405 -4.22074 -0.462488 0
M  V30 7014 O 655.429 -3.54754 -0.320644 0
M  V30 7015 O 654.288 -5.41443 -0.741708 0
M  V30 7016 H 651.382 -0.813766 -0.147358 0
M  V30 7017 H 653.928 -1.6333 0.460587 0
M  V30 7018 H 652.7 -3.84269 0.738467 0
M  V30 7019 H 652.323 -3.85422 -0.97651 0
M  V30 7020 N 653.32 -0.135238 -1.57019 0
M  V30 7021 C 654.268 0.826099 -2.17436 0
M  V30 7022 C 655.262 1.26378 -1.12805 0
M  V30 7023 O 656.468 1.23363 -1.31079 0
M  V30 7024 H 652.843 0.284568 -0.696078 0
M  V30 7025 H 654.814 0.292212 -2.96966 0
M  V30 7026 C 653.563 2.05991 -2.80112 0
M  V30 7027 H 652.886 1.73209 -3.60331 0
M  V30 7028 H 654.326 2.71225 -3.25903 0
M  V30 7029 C 652.785 2.86027 -1.78017 0
M  V30 7030 O 653.315 3.81971 -1.24344 0
M  V30 7031 N 651.521 2.50332 -1.47588 0
M  V30 7032 H 651.068 1.72377 -1.91426 0
M  V30 7033 H 651.026 3.04177 -0.795228 0
M  V30 7034 N 654.798 1.5699 0.138552 0
M  V30 7035 C 655.745 1.98899 1.17081 0
M  V30 7036 C 656.715 0.857922 1.42228 0
M  V30 7037 O 657.9 1.12065 1.54422 0
M  V30 7038 C 655.04 2.38189 2.4972 0
M  V30 7039 C 654.153 3.64624 2.31674 0
M  V30 7040 C 653.288 3.9298 3.57407 0
M  V30 7041 C 652.327 5.1266 3.34435 0
M  V30 7042 N 651.464 5.36983 4.5232 0
M  V30 7043 H 656.304 2.86881 0.80642 0
M  V30 7044 H 653.841 1.41925 0.386727 0
M  V30 7045 H 655.799 2.59 3.2707 0
M  V30 7046 H 654.429 1.53275 2.84089 0
M  V30 7047 H 653.481 3.51542 1.45337 0
M  V30 7048 H 654.793 4.52131 2.10664 0
M  V30 7049 H 653.947 4.14335 4.43183 0
M  V30 7050 H 652.686 3.03912 3.8143 0
M  V30 7051 H 651.691 4.9117 2.47048 0
M  V30 7052 H 652.916 6.03288 3.11802 0
M  V30 7053 H 650.862 4.50871 4.76499 0
M  V30 7054 H 650.779 6.18775 4.34343 0
M  V30 7055 H 652.047 5.62842 5.39285 0
M  V30 7056 N 656.276 -0.40816 1.52223 0
M  V30 7057 C 657.224 -1.51788 1.76248 0
M  V30 7058 C 658.218 -1.57264 0.629638 0
M  V30 7059 O 659.424 -1.60659 0.811704 0
M  V30 7060 H 655.799 -0.504823 0.557367 0
M  V30 7061 H 657.77 -1.2871 2.69214 0
M  V30 7062 C 656.519 -2.89145 1.93107 0
M  V30 7063 H 655.842 -2.85674 2.79697 0
M  V30 7064 H 657.282 -3.66082 2.13916 0
M  V30 7065 C 655.741 -3.29581 0.698431 0
M  V30 7066 O 656.271 -4.01479 -0.133238 0
M  V30 7067 N 654.477 -2.85651 0.53405 0
M  V30 7068 H 654.024 -2.2731 1.21194 0
M  V30 7069 H 653.982 -3.13065 -0.289387 0
M  V30 7070 N 657.755 -1.42862 -0.66545 0
M  V30 7071 C 658.665 -1.49491 -1.80803 0
M  V30 7072 C 659.681 -0.382914 -1.69734 0
M  V30 7073 O 660.857 -0.635223 -1.9112 0
M  V30 7074 C 657.922 -1.40383 -3.17007 0
M  V30 7075 C 656.983 -2.62152 -3.39963 0
M  V30 7076 C 656.216 -2.53469 -4.69669 0
M  V30 7077 O 656.439 -1.57568 -5.48205 0
M  V30 7078 O 655.373 -3.43763 -4.94075 0
M  V30 7079 H 659.199 -2.45949 -1.78165 0
M  V30 7080 H 656.784 -1.24728 -0.822387 0
M  V30 7081 H 658.666 -1.377 -3.98267 0
M  V30 7082 H 657.341 -0.470546 -3.20262 0
M  V30 7083 H 656.248 -2.70409 -2.58515 0
M  V30 7084 H 657.581 -3.54411 -3.41546 0
M  V30 7085 N 659.233 0.902656 -1.29189 0
M  V30 7086 C 660.163 2.02294 -1.16616 0
M  V30 7087 C 661.144 1.6999 -0.0611175 0
M  V30 7088 O 662.329 1.9271 -0.240072 0
M  V30 7089 C 659.459 3.37018 -0.83882 0
M  V30 7090 C 658.413 3.83522 -1.89986 0
M  V30 7091 C 657.739 5.15337 -1.42589 0
M  V30 7092 C 659.039 4.04169 -3.30824 0
M  V30 7093 H 660.733 2.13071 -2.10336 0
M  V30 7094 H 658.279 1.02378 -1.01266 0
M  V30 7095 H 660.232 4.14895 -0.737584 0
M  V30 7096 H 658.956 3.26325 0.134071 0
M  V30 7097 H 657.615 3.07859 -1.99043 0
M  V30 7098 H 657.263 5.01056 -0.441759 0
M  V30 7099 H 656.963 5.47423 -2.13547 0
M  V30 7100 H 658.487 5.95758 -1.3381 0
M  V30 7101 H 659.901 4.72537 -3.24626 0
M  V30 7102 H 658.298 4.47604 -3.99713 0
M  V30 7103 H 659.368 3.08604 -3.74021 0
M  V30 7104 N 660.711 1.11618 1.11262 0
M  V30 7105 C 661.988 0.777876 1.79467 0
M  V30 7106 C 662.368 -0.733774 1.97937 0
M  V30 7107 O 661.716 -1.66443 1.56554 0
M  V30 7108 C 661.926 1.5431 3.13032 0
M  V30 7109 C 663.274 1.72357 3.88044 0
M  V30 7110 O 664.298 1.5075 3.22727 0
M  V30 7111 O 663.157 2.08276 5.05256 0
M  V30 7112 H 660.251 0.282018 0.777428 0
M  V30 7113 H 662.797 1.21971 1.17988 0
M  V30 7114 H 661.569 2.57132 2.94956 0
M  V30 7115 H 661.192 1.09495 3.82226 0
M  V30 7116 N 662.189 -1.289 0.906776 0
M  V30 7117 C 663.121 -2.26556 0.347159 0
M  V30 7118 C 664.134 -1.54589 -0.51049 0
M  V30 7119 O 665.323 -1.75489 -0.326501 0
M  V30 7120 C 662.423 -3.3484 -0.523024 0
M  V30 7121 C 661.596 -4.36296 0.310515 0
M  V30 7122 C 660.655 -5.23879 -0.493634 0
M  V30 7123 O 659.681 -5.69127 0.0913569 0
M  V30 7124 N 660.883 -5.51946 -1.7982 0
M  V30 7125 H 663.648 -2.75212 1.18652 0
M  V30 7126 H 661.209 -1.42309 0.771996 0
M  V30 7127 H 663.201 -3.90366 -1.06756 0
M  V30 7128 H 661.771 -2.85946 -1.26309 0
M  V30 7129 H 660.991 -3.80331 1.03644 0
M  V30 7130 H 662.279 -5.01113 0.881106 0
M  V30 7131 H 661.677 -5.17006 -2.2961 0
M  V30 7132 H 660.234 -6.10258 -2.28971 0
M  V30 7133 N 663.667 -0.670007 -1.42649 0
M  V30 7134 C 664.907 -0.194106 -2.03476 0
M  V30 7135 C 665.271 1.1755 -1.51809 0
M  V30 7136 O 666.472 1.74579 -2.04391 0
M  V30 7137 C 664.743 -0.221828 -3.56711 0
M  V30 7138 S 666.302 0.183772 -4.38415 0
M  V30 7139 H 663.12 -0.0802478 -0.706457 0
M  V30 7140 H 665.722 -0.882092 -1.74469 0
M  V30 7141 H 664.426 -1.22107 -3.91814 0
M  V30 7142 H 663.957 0.486149 -3.90385 0
M  V30 7143 H 665.972 1.41839 -4.75496 0
M  V30 7144 N 665.145 1.52092 -0.413018 0
M  V30 7145 C 666.092 2.27119 0.410558 0
M  V30 7146 C 667.062 1.29692 1.03774 0
M  V30 7147 O 668.247 1.58561 1.06128 0
M  V30 7148 C 665.387 3.09863 1.51918 0
M  V30 7149 C 664.5 4.22252 0.912528 0
M  V30 7150 C 663.635 4.92348 1.99417 0
M  V30 7151 C 662.674 5.96694 1.36466 0
M  V30 7152 N 661.811 6.60292 2.38661 0
M  V30 7153 H 666.651 2.97067 -0.235661 0
M  V30 7154 H 664.188 1.46542 -0.128055 0
M  V30 7155 H 666.146 3.56144 2.17295 0
M  V30 7156 H 664.776 2.42078 2.13537 0
M  V30 7157 H 663.828 3.80113 0.147697 0
M  V30 7158 H 665.14 4.9709 0.412717 0
M  V30 7159 H 664.294 5.42054 2.72512 0
M  V30 7160 H 663.033 4.17087 2.52764 0
M  V30 7161 H 662.038 5.46304 0.61906 0
M  V30 7162 H 663.263 6.73899 0.838827 0
M  V30 7163 H 661.209 5.87858 2.91134 0
M  V30 7164 H 661.126 7.30816 1.93503 0
M  V30 7165 H 662.394 7.14635 3.11314 0
M  V30 7166 N 666.623 0.143563 1.56945 0
M  V30 7167 C 667.848 -0.518701 2.00809 0
M  V30 7168 C 668.273 -1.5785 1.02298 0
M  V30 7169 O 667.631 -1.813 -0.0017839 0
M  V30 7170 C 667.679 -1.09929 3.43436 0
M  V30 7171 O 666.783 -2.21425 3.47915 0
M  V30 7172 H 666.124 -0.127215 0.6517 0
M  V30 7173 H 668.654 0.239283 2.03196 0
M  V30 7174 H 668.664 -1.4288 3.82164 0
M  V30 7175 H 667.339 -0.323162 4.14643 0
M  V30 7176 H 665.916 -1.89728 3.21026 0
M  V30 7177 N 668.101 -1.57061 -0.130224 0
M  V30 7178 C 669.378 -1.75205 -0.869631 0
M  V30 7179 C 669.758 -0.716063 -1.98584 0
M  V30 7180 O 669.106 0.262032 -2.26993 0
M  V30 7181 C 669.316 -3.19835 -1.39666 0
M  V30 7182 C 670.664 -3.82011 -1.85345 0
M  V30 7183 O 671.688 -3.23368 -1.49371 0
M  V30 7184 O 670.547 -4.85064 -2.51744 0
M  V30 7185 H 667.641 -0.716977 -0.412157 0
M  V30 7186 H 670.187 -1.69311 -0.11484 0
M  V30 7187 H 668.959 -3.86745 -0.595288 0
M  V30 7188 H 668.582 -3.30222 -2.21448 0
M  V30 7189 N 669.579 0.400081 -1.52437 0
M  V30 7190 C 670.509 1.4947 -1.7939 0
M  V30 7191 C 671.49 1.57383 -0.645329 0
M  V30 7192 O 672.675 1.72511 -0.891826 0
M  V30 7193 C 669.805 2.87201 -1.95276 0
M  V30 7194 C 668.759 2.94134 -3.10917 0
M  V30 7195 C 668.085 4.34207 -3.1204 0
M  V30 7196 C 669.385 2.64791 -4.50203 0
M  V30 7197 H 671.079 1.27165 -2.71052 0
M  V30 7198 H 668.625 0.610312 -1.30427 0
M  V30 7199 H 670.578 3.63772 -2.12715 0
M  V30 7200 H 669.302 3.10819 -1.00294 0
M  V30 7201 H 667.961 2.20009 -2.93243 0
M  V30 7202 H 667.609 4.54848 -2.14761 0
M  V30 7203 H 667.309 4.39768 -3.89715 0
M  V30 7204 H 668.833 5.127 -3.31619 0
M  V30 7205 H 670.247 3.31083 -4.68035 0
M  V30 7206 H 668.644 2.81717 -5.29864 0
M  V30 7207 H 669.714 1.60184 -4.57678 0
M  V30 7208 N 671.057 1.43213 0.657864 0
M  V30 7209 C 671.989 1.43974 1.78337 0
M  V30 7210 C 673.002 0.336482 1.59285 0
M  V30 7211 O 674.191 0.600631 1.68091 0
M  V30 7212 C 671.291 1.23242 3.15697 0
M  V30 7213 C 670.464 2.46319 3.61449 0
M  V30 7214 C 669.523 2.2088 4.77597 0
M  V30 7215 O 668.549 2.942 4.87273 0
M  V30 7216 N 669.751 1.22251 5.67481 0
M  V30 7217 H 672.516 2.40993 1.78164 0
M  V30 7218 H 670.077 1.3831 0.841549 0
M  V30 7219 H 672.069 1.04113 3.91079 0
M  V30 7220 H 670.639 0.346849 3.1067 0
M  V30 7221 H 669.859 2.80904 2.76563 0
M  V30 7222 H 671.147 3.28239 3.88763 0
M  V30 7223 H 670.545 0.616433 5.62331 0
M  V30 7224 H 669.102 1.09107 6.42603 0
M  V30 7225 N 672.536 -0.895792 1.29666 0
M  V30 7226 C 673.484 -2.02173 1.15017 0
M  V30 7227 C 674.478 -1.69276 0.0647651 0
M  V30 7228 O 675.684 -1.7859 0.224846 0
M  V30 7229 H 672.059 -0.662719 0.355397 0
M  V30 7230 H 674.03 -2.11666 2.10334 0
M  V30 7231 C 672.779 -3.37212 0.847555 0
M  V30 7232 H 672.102 -3.6303 1.67479 0
M  V30 7233 H 673.542 -4.16668 0.785106 0
M  V30 7234 C 672.001 -3.33891 -0.44929 0
M  V30 7235 O 672.531 -3.73673 -1.47415 0
M  V30 7236 N 670.737 -2.86991 -0.456547 0
M  V30 7237 H 670.284 -2.54813 0.377925 0
M  V30 7238 H 670.242 -2.85152 -1.32423 0
M  V30 7239 N 674.014 -1.12206 -1.10668 0
M  V30 7240 C 674.961 -0.787716 -2.16942 0
M  V30 7241 C 675.931 0.244442 -1.64291 0
M  V30 7242 O 677.116 0.119558 -1.90425 0
M  V30 7243 C 674.256 -0.24584 -3.44223 0
M  V30 7244 C 673.369 -1.33552 -4.10838 0
M  V30 7245 C 672.504 -0.753337 -5.25831 0
M  V30 7246 C 671.543 -1.82231 -5.84344 0
M  V30 7247 N 670.68 -1.25902 -6.90719 0
M  V30 7248 H 675.52 -1.69809 -2.44885 0
M  V30 7249 H 673.057 -0.847862 -1.20207 0
M  V30 7250 H 675.015 0.0863639 -4.17111 0
M  V30 7251 H 673.645 0.627702 -3.16638 0
M  V30 7252 H 672.697 -1.78454 -3.35944 0
M  V30 7253 H 674.009 -2.14396 -4.50373 0
M  V30 7254 H 673.163 -0.37166 -6.05561 0
M  V30 7255 H 671.902 0.0863297 -4.87624 0
M  V30 7256 H 670.907 -2.2132 -5.03287 0
M  V30 7257 H 672.132 -2.66515 -6.24617 0
M  V30 7258 H 670.078 -0.44114 -6.54515 0
M  V30 7259 H 669.995 -2.00408 -7.28953 0
M  V30 7260 H 671.263 -0.904498 -7.74235 0
M  V30 7261 N 675.492 1.28418 -0.913599 0
M  V30 7262 C 676.72 1.99106 -0.562536 0
M  V30 7263 C 677.135 1.68273 0.856137 0
M  V30 7264 O 676.492 0.935401 1.56705 0
M  V30 7265 C 676.543 3.5338 -0.761903 0
M  V30 7266 O 676.264 3.83127 -2.12475 0
M  V30 7267 C 677.765 4.41328 -0.417651 0
M  V30 7268 H 674.985 0.635798 -0.214481 0
M  V30 7269 H 677.529 1.63618 -1.22676 0
M  V30 7270 H 675.684 3.8713 -0.144676 0
M  V30 7271 H 676.098 4.77763 -2.16431 0
M  V30 7272 H 677.572 5.48642 -0.607919 0
M  V30 7273 H 678.049 4.34422 0.646108 0
M  V30 7274 H 678.655 4.13074 -1.01241 0
M  V30 7275 N 676.97 0.677563 1.42291 0
M  V30 7276 C 677.902 -0.0380218 2.29168 0
M  V30 7277 C 678.915 -0.762714 1.43828 0
M  V30 7278 O 680.104 -0.616413 1.67519 0
M  V30 7279 C 677.204 -1.07761 3.21311 0
M  V30 7280 C 676.377 -0.42618 4.35319 0
M  V30 7281 C 675.436 -1.36592 5.08162 0
M  V30 7282 O 674.462 -0.865174 5.62586 0
M  V30 7283 N 675.664 -2.69909 5.13935 0
M  V30 7284 H 678.429 0.707766 2.91223 0
M  V30 7285 H 675.99 0.52219 1.53247 0
M  V30 7286 H 677.982 -1.70761 3.6691 0
M  V30 7287 H 676.552 -1.72511 2.60689 0
M  V30 7288 H 675.772 0.383385 3.92331 0
M  V30 7289 H 677.06 0.0275277 5.08793 0
M  V30 7290 H 676.458 -3.13129 4.71134 0
M  V30 7291 H 675.015 -3.2815 5.6317 0
M  V30 7292 N 678.448 -1.51871 0.421078 0
M  V30 7293 C 679.358 -2.31077 -0.405069 0
M  V30 7294 C 680.374 -1.39301 -1.04265 0
M  V30 7295 O 681.55 -1.72376 -1.04157 0
M  V30 7296 C 678.615 -3.12556 -1.50032 0
M  V30 7297 C 677.676 -4.20088 -0.884559 0
M  V30 7298 C 676.909 -4.97673 -1.92762 0
M  V30 7299 O 677.132 -4.75696 -3.14753 0
M  V30 7300 O 676.066 -5.82203 -1.52719 0
M  V30 7301 H 679.892 -3.02742 0.241086 0
M  V30 7302 H 677.477 -1.48263 0.183991 0
M  V30 7303 H 679.359 -3.6326 -2.13589 0
M  V30 7304 H 678.034 -2.43672 -2.13086 0
M  V30 7305 H 676.941 -3.73502 -0.211379 0
M  V30 7306 H 678.274 -4.91298 -0.297763 0
M  V30 7307 N 679.926 -0.151884 -1.56866 0
M  V30 7308 C 680.856 0.781943 -2.20018 0
M  V30 7309 C 681.837 1.25347 -1.14987 0
M  V30 7310 O 683.022 1.31015 -1.43348 0
M  V30 7311 C 680.152 2.01928 -2.82564 0
M  V30 7312 C 679.106 1.68434 -3.93464 0
M  V30 7313 C 678.432 2.99472 -4.42968 0
M  V30 7314 C 679.732 0.927244 -5.14003 0
M  V30 7315 H 681.426 0.255607 -2.98307 0
M  V30 7316 H 678.972 0.121502 -1.43486 0
M  V30 7317 H 680.925 2.67741 -3.25411 0
M  V30 7318 H 679.649 2.56943 -2.01614 0
M  V30 7319 H 678.308 1.04998 -3.51242 0
M  V30 7320 H 677.956 3.52488 -3.58834 0
M  V30 7321 H 677.656 2.77823 -5.17772 0
M  V30 7322 H 679.18 3.66348 -4.88489 0
M  V30 7323 H 680.594 1.48756 -5.53665 0
M  V30 7324 H 678.991 0.810513 -5.94601 0
M  V30 7325 H 680.061 -0.0801163 -4.84834 0
M  V30 7326 N 681.404 1.57128 0.121893 0
M  V30 7327 C 682.314 2.03425 1.16857 0
M  V30 7328 C 683.33 0.954108 1.45509 0
M  V30 7329 O 684.506 1.26541 1.56682 0
M  V30 7330 C 681.571 2.42685 2.47599 0
M  V30 7331 C 680.632 3.64767 2.2637 0
M  V30 7332 C 679.865 4.02145 3.50878 0
M  V30 7333 O 680.088 3.39897 4.58068 0
M  V30 7334 O 679.022 4.95262 3.42051 0
M  V30 7335 H 682.848 2.92825 0.80544 0
M  V30 7336 H 680.433 1.45654 0.332477 0
M  V30 7337 H 682.315 2.68684 3.24634 0
M  V30 7338 H 680.99 1.56432 2.83392 0
M  V30 7339 H 679.897 3.43922 1.47203 0
M  V30 7340 H 681.23 4.51716 1.95482 0
M  V30 7341 N 682.882 -0.391992 1.52647 0
M  V30 7342 C 684.11 -1.1586 1.71418 0
M  V30 7343 C 684.525 -1.8381 0.431216 0
M  V30 7344 O 683.882 -1.7256 -0.594085 0
M  V30 7345 C 683.933 -2.20888 2.86165 0
M  V30 7346 O 683.654 -1.5571 4.09495 0
M  V30 7347 C 685.155 -3.103 3.1659 0
M  V30 7348 H 682.375 -0.347494 0.574011 0
M  V30 7349 H 684.919 -0.458972 1.99283 0
M  V30 7350 H 683.074 -2.86492 2.6077 0
M  V30 7351 H 683.488 -2.25474 4.73563 0
M  V30 7352 H 684.962 -3.8003 4.00351 0
M  V30 7353 H 685.439 -3.73639 2.30848 0
M  V30 7354 H 686.045 -2.50345 3.43813 0
M  V30 7355 N 684.36 -1.4356 -0.65026 0
M  V30 7356 C 685.588 -1.48779 -1.43779 0
M  V30 7357 C 686.003 -0.106593 -1.88499 0
M  V30 7358 O 685.36 0.883766 -1.59674 0
M  V30 7359 C 685.411 -2.43618 -2.67081 0
M  V30 7360 O 685.132 -3.76367 -2.24231 0
M  V30 7361 C 686.633 -2.5811 -3.60409 0
M  V30 7362 H 683.853 -0.50521 -0.441593 0
M  V30 7363 H 686.397 -1.88332 -0.796941 0
M  V30 7364 H 684.552 -2.07253 -3.273 0
M  V30 7365 H 684.966 -4.27394 -3.0403 0
M  V30 7366 H 686.44 -3.28539 -4.43583 0
M  V30 7367 H 686.917 -1.627 -4.07953 0
M  V30 7368 H 687.523 -2.95298 -3.0607 0
M  V30 7369 N 685.838 0.888903 -1.30139 0
M  V30 7370 C 686.77 1.99972 -1.11999 0
M  V30 7371 C 687.783 1.62673 -0.0643619 0
M  V30 7372 O 688.972 1.75788 -0.309983 0
M  V30 7373 C 686.072 3.31904 -0.685059 0
M  V30 7374 C 685.245 3.97665 -1.82158 0
M  V30 7375 C 684.304 5.07894 -1.37585 0
M  V30 7376 O 683.33 5.2974 -2.08241 0
M  V30 7377 N 684.532 5.7995 -0.252697 0
M  V30 7378 H 687.297 2.16085 -2.07671 0
M  V30 7379 H 684.858 1.06175 -1.22223 0
M  V30 7380 H 686.85 4.03005 -0.369964 0
M  V30 7381 H 685.42 3.12084 0.179507 0
M  V30 7382 H 684.64 3.19787 -2.305 0
M  V30 7383 H 685.928 4.3834 -2.58332 0
M  V30 7384 H 685.326 5.647 0.336141 0
M  V30 7385 H 683.883 6.518 0.00296813 0
M  V30 7386 N 687.317 1.12792 1.10072 0
M  V30 7387 C 688.264 0.79921 2.16521 0
M  V30 7388 C 689.234 -0.235726 1.64419 0
M  V30 7389 O 690.419 -0.109457 1.90486 0
M  V30 7390 C 687.559 0.264091 3.44088 0
M  V30 7391 C 686.672 1.35729 4.10124 0
M  V30 7392 C 685.807 0.781212 5.25424 0
M  V30 7393 C 684.846 1.85327 5.8337 0
M  V30 7394 N 683.983 1.29564 6.90042 0
M  V30 7395 H 688.823 1.71105 2.43981 0
M  V30 7396 H 686.36 0.854225 1.19756 0
M  V30 7397 H 688.318 -0.0642423 4.17151 0
M  V30 7398 H 686.948 -0.610901 3.16967 0
M  V30 7399 H 686 1.80234 3.34993 0
M  V30 7400 H 687.312 2.16782 4.4923 0
M  V30 7401 H 686.466 0.403769 6.05355 0
M  V30 7402 H 685.205 -0.0604686 4.87663 0
M  V30 7403 H 684.21 2.23986 5.02106 0
M  V30 7404 H 685.435 2.69824 6.23195 0
M  V30 7405 H 683.381 0.475844 6.54272 0
M  V30 7406 H 683.298 2.04271 7.2788 0
M  V30 7407 H 684.566 0.945545 7.73744 0
M  V30 7408 N 688.795 -1.27931 0.920396 0
M  V30 7409 C 689.745 -2.24727 0.384966 0
M  V30 7410 C 690.729 -1.52715 -0.506661 0
M  V30 7411 O 691.921 -1.73599 -0.345298 0
M  V30 7412 C 689.05 -3.41324 -0.3678 0
M  V30 7413 C 688.136 -4.20649 0.539925 0
M  V30 7414 N 688.527 -4.77906 1.6565 0
M  V30 7415 C 686.825 -4.4469 0.341557 0
M  V30 7416 C 687.526 -5.37652 2.22047 0
M  V30 7417 N 686.502 -5.2218 1.51093 0
M  V30 7418 H 690.304 -2.66572 1.23761 0
M  V30 7419 H 687.818 -1.42779 0.773819 0
M  V30 7420 H 689.815 -4.0976 -0.768277 0
M  V30 7421 H 688.475 -3.01012 -1.21746 0
M  V30 7422 H 689.486 -4.76073 2.03899 0
M  V30 7423 H 686.163 -4.14868 -0.468045 0
M  V30 7424 H 687.553 -5.92948 3.1601 0
M  V30 7425 N 690.273 -0.685099 -1.4193 0
M  V30 7426 C 691.203 -0.0273506 -2.33484 0
M  V30 7427 C 692.184 0.778366 -1.51246 0
M  V30 7428 O 693.369 0.733449 -1.79817 0
M  V30 7429 C 690.499 0.917272 -3.34968 0
M  V30 7430 C 689.453 0.21941 -4.27437 0
M  V30 7431 C 688.779 1.27768 -5.1921 0
M  V30 7432 C 690.079 -0.907894 -5.14349 0
M  V30 7433 H 691.773 -0.791994 -2.88735 0
M  V30 7434 H 689.319 -0.382308 -1.38832 0
M  V30 7435 H 691.272 1.38657 -3.97935 0
M  V30 7436 H 689.996 1.71346 -2.78043 0
M  V30 7437 H 688.655 -0.229757 -3.65879 0
M  V30 7438 H 688.303 2.06612 -4.58607 0
M  V30 7439 H 688.003 0.815803 -5.81909 0
M  V30 7440 H 689.527 1.7477 -5.85054 0
M  V30 7441 H 690.941 -0.519348 -5.70943 0
M  V30 7442 H 689.338 -1.2962 -5.85934 0
M  V30 7443 H 690.408 -1.75218 -4.52136 0
M  V30 7444 N 691.751 1.51645 -0.429126 0
M  V30 7445 C 692.683 2.25279 0.422124 0
M  V30 7446 C 693.696 1.28986 0.993299 0
M  V30 7447 O 694.885 1.54797 0.888836 0
M  V30 7448 C 691.985 2.98666 1.60162 0
M  V30 7449 C 691.158 4.2199 1.15078 0
M  V30 7450 C 690.217 4.78028 2.19946 0
M  V30 7451 O 689.243 5.40084 1.79716 0
M  V30 7452 N 690.445 4.61342 3.5234 0
M  V30 7453 H 693.21 2.98971 -0.208931 0
M  V30 7454 H 690.771 1.59838 -0.257568 0
M  V30 7455 H 692.763 3.33044 2.29922 0
M  V30 7456 H 691.333 2.28036 2.13818 0
M  V30 7457 H 690.553 3.932 0.280552 0
M  V30 7458 H 691.841 5.02037 0.826831 0
M  V30 7459 H 691.239 4.11894 3.87763 0
M  V30 7460 H 689.796 5.00104 4.18019 0
M  V30 7461 N 693.229 0.160201 1.56784 0
M  V30 7462 C 694.139 -0.787167 2.21 0
M  V30 7463 C 695.155 -1.26167 1.19825 0
M  V30 7464 O 696.331 -1.31611 1.52448 0
M  V30 7465 C 693.396 -2.00364 2.8294 0
M  V30 7466 C 692.457 -1.5771 3.99282 0
M  V30 7467 C 691.69 -2.73558 4.58259 0
M  V30 7468 O 691.913 -3.90129 4.16119 0
M  V30 7469 O 690.847 -2.48271 5.48311 0
M  V30 7470 H 694.673 -0.270462 3.02493 0
M  V30 7471 H 692.258 -0.0674666 1.49248 0
M  V30 7472 H 694.14 -2.71529 3.22257 0
M  V30 7473 H 692.815 -2.50961 2.04451 0
M  V30 7474 H 691.722 -0.835274 3.64656 0
M  V30 7475 H 693.055 -1.11815 4.79331 0
M  V30 7476 N 694.707 -1.5719 -0.113559 0
M  V30 7477 C 695.935 -1.89328 -0.834422 0
M  V30 7478 C 696.35 -0.752018 -1.73177 0
M  V30 7479 O 695.707 0.276912 -1.80387 0
M  V30 7480 C 695.758 -3.20962 -1.66329 0
M  V30 7481 O 695.479 -4.30695 -0.802069 0
M  V30 7482 C 696.98 -3.6684 -2.48884 0
M  V30 7483 H 694.2 -0.626769 -0.239587 0
M  V30 7484 H 696.744 -2.04273 -0.0963195 0
M  V30 7485 H 694.899 -3.0767 -2.35409 0
M  V30 7486 H 695.313 -5.06175 -1.37431 0
M  V30 7487 H 696.787 -4.61692 -3.02563 0
M  V30 7488 H 697.264 -2.93765 -3.26495 0
M  V30 7489 H 697.87 -3.82938 -1.85036 0
M  V30 7490 N 696.185 0.383891 -1.52853 0
M  V30 7491 C 697.132 1.46924 -1.77995 0
M  V30 7492 C 698.102 1.53958 -0.623396 0
M  V30 7493 O 699.287 1.70134 -0.863657 0
M  V30 7494 C 696.427 2.84093 -1.95921 0
M  V30 7495 C 695.54 2.86171 -3.23621 0
M  V30 7496 C 694.675 4.14799 -3.31836 0
M  V30 7497 C 693.714 4.10948 -4.53639 0
M  V30 7498 N 692.851 5.31192 -4.59107 0
M  V30 7499 H 697.691 1.24786 -2.70615 0
M  V30 7500 H 695.228 0.605265 -1.34071 0
M  V30 7501 H 697.186 3.63755 -2.04299 0
M  V30 7502 H 695.816 3.04671 -1.06656 0
M  V30 7503 H 694.868 1.9885 -3.24288 0
M  V30 7504 H 696.18 2.79194 -4.13343 0
M  V30 7505 H 695.334 5.02867 -3.39425 0
M  V30 7506 H 694.073 4.24505 -2.40097 0
M  V30 7507 H 693.078 3.21268 -4.46169 0
M  V30 7508 H 694.303 4.0286 -5.467 0
M  V30 7509 H 692.249 5.41518 -3.70262 0
M  V30 7510 H 692.166 5.26311 -5.42708 0
M  V30 7511 H 693.434 6.21143 -4.70958 0
M  V30 7512 N 697.663 1.43903 0.642637 0
M  V30 7513 C 698.593 1.52697 1.76652 0
M  V30 7514 C 699.574 0.380816 1.65782 0
M  V30 7515 O 700.759 0.599432 1.84717 0
M  V30 7516 C 697.889 1.45975 3.15133 0
M  V30 7517 C 696.843 2.58949 3.40778 0
M  V30 7518 C 696.169 2.37279 4.79169 0
M  V30 7519 C 697.469 4.01153 3.34475 0
M  V30 7520 H 699.163 2.46766 1.69549 0
M  V30 7521 H 696.709 1.18767 0.814279 0
M  V30 7522 H 698.662 1.5073 3.93521 0
M  V30 7523 H 697.386 0.484162 3.22991 0
M  V30 7524 H 696.045 2.53564 2.64765 0
M  V30 7525 H 695.693 1.37939 4.83717 0
M  V30 7526 H 695.393 3.13016 4.97287 0
M  V30 7527 H 696.917 2.43834 5.59801 0
M  V30 7528 H 698.331 4.07968 4.02784 0
M  V30 7529 H 696.728 4.77001 3.64129 0
M  V30 7530 H 697.798 4.25539 2.32475 0
M  V30 7531 N 699.141 -0.881989 1.30609 0
M  V30 7532 C 700.073 -1.99375 1.13058 0
M  V30 7533 C 701.086 -1.62636 0.0729879 0
M  V30 7534 O 702.275 -1.75621 0.319301 0
M  V30 7535 C 699.375 -3.31536 0.702651 0
M  V30 7536 C 698.548 -3.96693 1.84265 0
M  V30 7537 C 697.607 -5.07158 1.40277 0
M  V30 7538 O 696.633 -5.28628 2.11048 0
M  V30 7539 N 697.835 -5.79808 0.283449 0
M  V30 7540 H 700.6 -2.14981 2.08814 0
M  V30 7541 H 698.161 -1.05526 1.22784 0
M  V30 7542 H 700.153 -4.02804 0.391331 0
M  V30 7543 H 698.723 -3.12175 -0.162954 0
M  V30 7544 H 697.943 -3.1856 2.32192 0
M  V30 7545 H 699.231 -4.36964 2.60653 0
M  V30 7546 H 698.629 -5.64871 -0.306189 0
M  V30 7547 H 697.186 -6.51792 0.0315985 0
M  V30 7548 N 700.619 -1.13374 -1.09472 0
M  V30 7549 C 701.549 -0.833268 -2.18126 0
M  V30 7550 C 702.53 0.207169 -1.68834 0
M  V30 7551 O 703.715 0.0662012 -1.94087 0
M  V30 7552 C 700.845 -0.297979 -3.46019 0
M  V30 7553 C 699.799 -1.27261 -4.08642 0
M  V30 7554 C 699.125 -0.597104 -5.31356 0
M  V30 7555 C 700.425 -2.63095 -4.51197 0
M  V30 7556 H 702.119 -1.74182 -2.43518 0
M  V30 7557 H 699.665 -0.838921 -1.17039 0
M  V30 7558 H 701.618 -0.0754444 -4.21332 0
M  V30 7559 H 700.342 0.645959 -3.20148 0
M  V30 7560 H 699.001 -1.48113 -3.35348 0
M  V30 7561 H 698.649 0.352293 -5.01765 0
M  V30 7562 H 698.349 -1.24734 -5.74208 0
M  V30 7563 H 699.873 -0.38384 -6.09392 0
M  V30 7564 H 701.287 -2.46214 -5.17737 0
M  V30 7565 H 699.684 -3.2429 -5.04932 0
M  V30 7566 H 700.754 -3.20793 -3.6362 0
M  V30 7567 N 702.098 1.27442 -0.927168 0
M  V30 7568 C 703.344 1.94679 -0.568164 0
M  V30 7569 C 703.677 1.72697 0.888219 0
M  V30 7570 O 702.952 1.05573 1.63354 0
M  V30 7571 C 703.235 3.4882 -0.894253 0
M  V30 7572 C 703.088 3.80146 -2.40435 0
M  V30 7573 C 704.407 4.38281 -0.399766 0
M  V30 7574 H 701.526 0.707071 -0.207892 0
M  V30 7575 H 704.168 1.50568 -1.15885 0
M  V30 7576 H 702.318 3.86522 -0.391566 0
M  V30 7577 H 703.99 3.52238 -2.97869 0
M  V30 7578 H 702.233 3.26716 -2.85375 0
M  V30 7579 H 702.904 4.87835 -2.58304 0
M  V30 7580 H 705.38 4.07726 -0.83058 0
M  V30 7581 H 704.256 5.44955 -0.656885 0
M  V30 7582 H 704.517 4.36521 0.700153 0
M  V30 7583 N 703.576 0.692616 1.41565 0
M  V30 7584 C 704.523 0.0254264 2.30786 0
M  V30 7585 C 705.493 -0.774347 1.46946 0
M  V30 7586 O 706.678 -0.742981 1.7574 0
M  V30 7587 C 703.818 -0.907123 3.32964 0
M  V30 7588 C 702.931 -0.0992784 4.31886 0
M  V30 7589 C 702.066 -1.0292 5.21134 0
M  V30 7590 C 701.105 -0.214088 6.11725 0
M  V30 7591 N 700.242 -1.09766 6.93467 0
M  V30 7592 H 705.082 0.792036 2.87282 0
M  V30 7593 H 702.619 0.4023 1.41492 0
M  V30 7594 H 704.577 -1.46181 3.90752 0
M  V30 7595 H 703.207 -1.64016 2.78026 0
M  V30 7596 H 702.259 0.572287 3.76071 0
M  V30 7597 H 703.571 0.532782 4.95946 0
M  V30 7598 H 702.725 -1.65321 5.83741 0
M  V30 7599 H 701.464 -1.69512 4.57293 0
M  V30 7600 H 700.469 0.42302 5.4817 0
M  V30 7601 H 701.694 0.447995 6.77621 0
M  V30 7602 H 699.64 -1.74965 6.32237 0
M  V30 7603 H 699.557 -0.521099 7.54202 0
M  V30 7604 H 700.825 -1.70858 7.60544 0
M  V30 7605 N 705.054 -1.51416 0.437162 0
M  V30 7606 C 705.964 -2.31493 -0.380537 0
M  V30 7607 C 706.98 -1.40399 -1.02782 0
M  V30 7608 O 708.156 -1.73471 -1.02323 0
M  V30 7609 C 705.221 -3.1413 -1.46709 0
M  V30 7610 C 704.282 -4.21003 -0.839953 0
M  V30 7611 C 703.515 -4.9969 -1.87473 0
M  V30 7612 O 703.738 -4.79008 -3.09689 0
M  V30 7613 O 702.672 -5.8379 -1.46536 0
M  V30 7614 H 706.498 -3.02469 0.273183 0
M  V30 7615 H 704.083 -1.48059 0.199706 0
M  V30 7616 H 705.965 -3.65505 -2.09724 0
M  V30 7617 H 704.64 -2.45919 -2.10489 0
M  V30 7618 H 703.547 -3.73706 -0.171752 0
M  V30 7619 H 704.88 -4.91587 -0.245638 0
M  V30 7620 N 706.532 -0.168513 -1.56696 0
M  V30 7621 C 707.442 0.775435 -2.21414 0
M  V30 7622 C 708.458 1.25529 -1.20492 0
M  V30 7623 O 709.634 1.30801 -1.53144 0
M  V30 7624 C 706.699 1.9886 -2.83999 0
M  V30 7625 C 705.76 1.5559 -4.00113 0
M  V30 7626 C 704.993 2.71124 -4.59704 0
M  V30 7627 O 705.216 3.87917 -4.18182 0
M  V30 7628 O 704.15 2.4536 -5.4962 0
M  V30 7629 H 707.976 0.254416 -3.02632 0
M  V30 7630 H 705.561 0.0595507 -1.49281 0
M  V30 7631 H 707.443 2.69816 -3.23693 0
M  V30 7632 H 706.118 2.49874 -2.05779 0
M  V30 7633 H 705.025 0.815924 -3.65094 0
M  V30 7634 H 706.358 1.09271 -4.79917 0
M  V30 7635 N 708.01 1.57248 0.105221 0
M  V30 7636 C 709.24 1.89492 0.823175 0
M  V30 7637 C 709.648 0.75934 1.73294 0
M  V30 7638 O 708.991 -0.278182 1.81581 0
M  V30 7639 C 709.053 3.16891 1.69765 0
M  V30 7640 C 708.717 4.46787 0.960769 0
M  V30 7641 C 709.714 5.19061 0.295218 0
M  V30 7642 C 707.399 4.93467 0.937854 0
M  V30 7643 C 709.393 6.36246 -0.383393 0
M  V30 7644 C 707.08 6.10566 0.255452 0
M  V30 7645 C 708.078 6.81804 -0.404003 0
M  V30 7646 O 707.766 7.96673 -1.07549 0
M  V30 7647 H 707.498 0.631512 0.24118 0
M  V30 7648 H 710.052 2.05203 0.0899655 0
M  V30 7649 H 708.282 2.973 2.47285 0
M  V30 7650 H 709.971 3.35046 2.29126 0
M  V30 7651 H 710.737 4.84044 0.304448 0
M  V30 7652 H 706.616 4.37913 1.44058 0
M  V30 7653 H 710.16 6.91787 -0.898696 0
M  V30 7654 H 706.057 6.45039 0.244032 0
M  V30 7655 H 706.825 8.12596 -0.981355 0
M  V30 7656 N 709.488 -0.375779 1.53054 0
M  V30 7657 C 710.737 -1.11674 1.67964 0
M  V30 7658 C 711.05 -1.90755 0.432655 0
M  V30 7659 O 712.256 -2.67538 0.462109 0
M  V30 7660 C 710.712 -2.0344 2.96884 0
M  V30 7661 C 710.32 -1.29719 4.28809 0
M  V30 7662 C 712.064 -2.7759 3.2116 0
M  V30 7663 C 709.971 -2.20327 5.48826 0
M  V30 7664 H 708.901 -0.420597 0.625791 0
M  V30 7665 H 711.552 -0.378499 1.79554 0
M  V30 7666 H 709.934 -2.80953 2.79072 0
M  V30 7667 H 711.108 -0.573394 4.57219 0
M  V30 7668 H 709.423 -0.674735 4.10897 0
M  V30 7669 H 712.02 -3.4559 4.0801 0
M  V30 7670 H 712.363 -3.42399 2.36789 0
M  V30 7671 H 712.896 -2.07164 3.396 0
M  V30 7672 H 709.635 -1.60113 6.35645 0
M  V30 7673 H 709.155 -2.90585 5.2471 0
M  V30 7674 H 710.834 -2.80116 5.83219 0
M  V30 7675 N 710.966 -1.44241 -0.634997 0
M  V30 7676 C 712.194 -1.50296 -1.42193 0
M  V30 7677 C 712.609 -0.12658 -1.88375 0
M  V30 7678 O 711.966 0.86678 -1.60603 0
M  V30 7679 C 712.017 -2.46437 -2.64482 0
M  V30 7680 O 711.738 -3.78724 -2.20226 0
M  V30 7681 C 713.239 -2.61918 -3.57651 0
M  V30 7682 H 710.459 -0.509865 -0.43621 0
M  V30 7683 H 713.003 -1.89167 -0.776921 0
M  V30 7684 H 711.158 -2.10712 -3.25083 0
M  V30 7685 H 711.572 -4.30595 -2.9948 0
M  V30 7686 H 713.046 -3.33225 -4.40074 0
M  V30 7687 H 713.523 -1.67017 -4.06204 0
M  V30 7688 H 714.129 -2.98528 -3.02921 0
M  V30 7689 N 712.444 0.87505 -1.31075 0
M  V30 7690 C 713.669 1.66583 -1.23551 0
M  V30 7691 C 714.094 1.87067 0.19686 0
M  V30 7692 O 713.452 1.40877 1.1412 0
M  V30 7693 C 713.5 3.01401 -1.97965 0
M  V30 7694 O 712.604 3.90923 -1.31351 0
M  V30 7695 H 711.945 0.508645 -0.426821 0
M  V30 7696 H 714.475 1.09139 -1.7306 0
M  V30 7697 H 714.485 3.51374 -2.07366 0
M  V30 7698 H 713.16 2.85812 -3.02133 0
M  V30 7699 H 711.737 3.49369 -1.30368 0
M  V30 7700 N 713.922 1.13953 1.08869 0
M  V30 7701 C 714.885 0.824991 2.13838 0
M  V30 7702 C 715.885 -0.168198 1.59918 0
M  V30 7703 O 717.075 0.0595778 1.74098 0
M  V30 7704 C 714.207 0.228938 3.4013 0
M  V30 7705 H 715.4 1.75521 2.43171 0
M  V30 7706 H 712.953 0.94492 1.24503 0
M  V30 7707 H 713.688 -0.710227 3.16427 0
M  V30 7708 H 713.473 0.944243 3.80561 0
M  V30 7709 H 714.963 0.0259223 4.17592 0
M  V30 7710 N 715.4 -1.26948 0.933913 0
M  V30 7711 C 716.33 -2.29017 0.45534 0
M  V30 7712 C 717.311 -1.62961 -0.487605 0
M  V30 7713 O 718.496 -1.90223 -0.391022 0
M  V30 7714 C 715.626 -3.46112 -0.287015 0
M  V30 7715 C 714.58 -4.24205 0.568682 0
M  V30 7716 C 713.906 -5.3384 -0.303206 0
M  V30 7717 C 715.206 -4.88954 1.83633 0
M  V30 7718 H 716.9 -2.69298 1.30839 0
M  V30 7719 H 714.446 -1.29459 0.630579 0
M  V30 7720 H 716.399 -4.16622 -0.6328 0
M  V30 7721 H 715.123 -3.04765 -1.17414 0
M  V30 7722 H 713.782 -3.5545 0.897261 0
M  V30 7723 H 713.43 -4.88734 -1.18947 0
M  V30 7724 H 713.13 -5.86998 0.265879 0
M  V30 7725 H 714.654 -6.0719 -0.644423 0
M  V30 7726 H 716.068 -5.51717 1.55823 0
M  V30 7727 H 714.465 -5.52198 2.34941 0
M  V30 7728 H 715.535 -4.12305 2.55211 0
M  V30 7729 N 716.879 -0.700114 -1.41195 0
M  V30 7730 C 717.789 -0.0382854 -2.34569 0
M  V30 7731 C 718.805 0.761036 -1.56474 0
M  V30 7732 O 719.981 0.697553 -1.88934 0
M  V30 7733 C 717.046 0.883522 -3.35253 0
M  V30 7734 C 716.107 0.0758957 -4.29233 0
M  V30 7735 C 715.34 0.9538 -5.25108 0
M  V30 7736 O 715.563 2.19326 -5.26547 0
M  V30 7737 O 714.497 0.401049 -6.00562 0
M  V30 7738 H 718.323 -0.808073 -2.92752 0
M  V30 7739 H 715.908 -0.460479 -1.42127 0
M  V30 7740 H 717.79 1.41199 -3.9704 0
M  V30 7741 H 716.465 1.63272 -2.79506 0
M  V30 7742 H 715.372 -0.497274 -3.7078 0
M  V30 7743 H 716.705 -0.634741 -4.8809 0
M  V30 7744 N 718.357 1.51182 -0.445186 0
M  V30 7745 C 719.582 2.07056 0.119445 0
M  V30 7746 C 720.007 1.30966 1.35016 0
M  V30 7747 O 719.365 0.349827 1.77893 0
M  V30 7748 C 719.413 3.58234 0.412428 0
M  V30 7749 O 718.517 3.84249 1.49754 0
M  V30 7750 H 717.858 0.663998 -0.00157797 0
M  V30 7751 H 720.388 1.94699 -0.628779 0
M  V30 7752 H 720.398 4.02617 0.660583 0
M  V30 7753 H 719.073 4.13038 -0.487049 0
M  V30 7754 H 717.65 3.51724 1.23873 0
M  V30 7755 N 719.835 0.176821 1.56605 0
M  V30 7756 C 721.063 -0.472828 2.01425 0
M  V30 7757 C 721.478 -1.56436 1.05703 0
M  V30 7758 O 720.835 -1.82405 0.058808 0
M  V30 7759 C 720.886 -1.04607 3.46034 0
M  V30 7760 O 720.607 0.00189608 4.381 0
M  V30 7761 C 722.108 -1.7734 4.06282 0
M  V30 7762 H 719.328 -0.120503 0.660091 0
M  V30 7763 H 721.872 0.280166 2.02572 0
M  V30 7764 H 720.027 -1.74953 3.45645 0
M  V30 7765 H 720.441 -0.422118 5.22799 0
M  V30 7766 H 721.915 -2.12703 5.09374 0
M  V30 7767 H 722.392 -2.67043 3.4869 0
M  V30 7768 H 722.998 -1.11623 4.10391 0
M  V30 7769 N 721.313 -1.57302 -0.09688 0
M  V30 7770 C 722.223 -2.05258 -1.13606 0
M  V30 7771 C 723.239 -0.977137 -1.43972 0
M  V30 7772 O 724.415 -1.29018 -1.54649 0
M  V30 7773 C 721.48 -2.46593 -2.43706 0
M  V30 7774 C 720.541 -3.68322 -2.20538 0
M  V30 7775 C 719.774 -4.07676 -3.44435 0
M  V30 7776 O 719.997 -3.47141 -4.52603 0
M  V30 7777 O 718.931 -5.00641 -3.34129 0
M  V30 7778 H 722.757 -2.94069 -0.758752 0
M  V30 7779 H 720.342 -1.46164 -0.309263 0
M  V30 7780 H 722.224 -2.73814 -3.20318 0
M  V30 7781 H 720.899 -1.6092 -2.80867 0
M  V30 7782 H 719.806 -3.4622 -1.41713 0
M  V30 7783 H 721.139 -4.54769 -1.88271 0
M  V30 7784 N 722.791 0.367657 -1.53252 0
M  V30 7785 C 723.701 1.47415 -1.82499 0
M  V30 7786 C 724.717 1.58711 -0.713222 0
M  V30 7787 O 725.893 1.74644 -1.00306 0
M  V30 7788 C 722.958 2.82706 -2.00694 0
M  V30 7789 C 722.019 2.80955 -3.24596 0
M  V30 7790 C 721.252 4.09793 -3.41914 0
M  V30 7791 O 721.475 5.05852 -2.63572 0
M  V30 7792 O 720.409 4.15731 -4.3526 0
M  V30 7793 H 724.235 1.25624 -2.765 0
M  V30 7794 H 721.82 0.557559 -1.38606 0
M  V30 7795 H 723.702 3.62873 -2.14246 0
M  V30 7796 H 722.377 3.04479 -1.09883 0
M  V30 7797 H 721.284 1.99494 -3.16469 0
M  V30 7798 H 722.617 2.64136 -4.15323 0
M  V30 7799 N 724.269 1.44576 0.627338 0
M  V30 7800 C 725.216 1.51734 1.73912 0
M  V30 7801 C 726.186 0.364745 1.62046 0
M  V30 7802 O 727.371 0.575503 1.81914 0
M  V30 7803 C 724.511 1.47116 3.12171 0
M  V30 7804 C 723.624 2.72778 3.34986 0
M  V30 7805 C 722.759 2.59968 4.63239 0
M  V30 7806 C 721.798 3.80776 4.79245 0
M  V30 7807 N 720.935 3.66618 5.98778 0
M  V30 7808 H 725.775 2.46722 1.6713 0
M  V30 7809 H 723.312 1.22444 0.815224 0
M  V30 7810 H 725.27 1.42429 3.92135 0
M  V30 7811 H 723.9 0.556928 3.17959 0
M  V30 7812 H 722.952 2.87637 2.48936 0
M  V30 7813 H 724.264 3.62441 3.42692 0
M  V30 7814 H 723.418 2.53135 5.51369 0
M  V30 7815 H 722.157 1.67872 4.57898 0
M  V30 7816 H 721.162 3.87989 3.89544 0
M  V30 7817 H 722.387 4.73913 4.86398 0
M  V30 7818 H 720.333 2.77277 5.9452 0
M  V30 7819 H 720.25 4.499 6.07557 0
M  V30 7820 H 721.518 3.63684 6.89459 0
M  V30 7821 N 725.747 -0.868086 1.31537 0
M  V30 7822 C 726.677 -1.99131 1.21939 0
M  V30 7823 C 727.658 -1.69768 0.106166 0
M  V30 7824 O 728.843 -1.92006 0.291081 0
M  V30 7825 C 725.973 -3.34676 0.927879 0
M  V30 7826 C 724.927 -3.7835 2.00088 0
M  V30 7827 C 724.253 -5.11375 1.56203 0
M  V30 7828 C 725.553 -3.95256 3.41424 0
M  V30 7829 H 727.247 -2.07419 2.15911 0
M  V30 7830 H 724.793 -0.996569 1.03945 0
M  V30 7831 H 726.746 -4.12793 0.847327 0
M  V30 7832 H 725.47 -3.26565 -0.0475042 0
M  V30 7833 H 724.129 -3.02474 2.07135 0
M  V30 7834 H 723.777 -4.99709 0.57445 0
M  V30 7835 H 723.477 -5.41568 2.27985 0
M  V30 7836 H 725.001 -5.92001 1.49558 0
M  V30 7837 H 726.415 -4.63764 3.3704 0
M  V30 7838 H 724.812 -4.36849 4.1144 0
M  V30 7839 H 725.882 -2.98579 3.82072 0
M  V30 7840 N 727.225 -1.14528 -1.08264 0
M  V30 7841 C 728.175 -0.802141 -2.13424 0
M  V30 7842 C 729.159 0.209362 -1.59532 0
M  V30 7843 O 730.351 0.0114859 -1.76996 0
M  V30 7844 C 727.48 -0.282938 -3.42132 0
M  V30 7845 C 726.566 -1.32405 -4.02902 0
M  V30 7846 N 726.957 -2.52861 -4.38058 0
M  V30 7847 C 725.255 -1.17462 -4.30254 0
M  V30 7848 C 725.956 -3.1952 -4.86088 0
M  V30 7849 N 724.932 -2.46921 -4.84284 0
M  V30 7850 H 728.734 -1.71843 -2.38426 0
M  V30 7851 H 726.248 -1.02936 -1.2561 0
M  V30 7852 H 728.245 -0.0188053 -4.16896 0
M  V30 7853 H 726.905 0.627533 -3.18578 0
M  V30 7854 H 727.916 -2.90078 -4.2904 0
M  V30 7855 H 724.593 -0.323283 -4.16246 0
M  V30 7856 H 725.983 -4.2223 -5.22658 0
M  V30 7857 N 728.703 1.26451 -0.940633 0
M  V30 7858 C 729.98 1.88947 -0.505811 0
M  V30 7859 C 730.36 1.85011 1.01657 0
M  V30 7860 O 729.708 1.30406 1.87634 0
M  V30 7861 C 729.918 3.32304 -1.06654 0
M  V30 7862 C 731.266 4.09153 -1.13486 0
M  V30 7863 O 732.29 3.41371 -1.01708 0
M  V30 7864 O 731.149 5.30369 -1.31797 0
M  V30 7865 H 728.243 0.810422 -0.164759 0
M  V30 7866 H 730.789 1.34625 -1.03316 0
M  V30 7867 H 729.561 3.29527 -2.11015 0
M  V30 7868 H 729.184 3.94164 -0.521603 0
M  V30 7869 N 730.181 0.707592 1.40822 0
M  V30 7870 C 731.144 0.0587224 2.29125 0
M  V30 7871 C 732.144 -0.695624 1.44975 0
M  V30 7872 O 733.334 -0.528718 1.65983 0
M  V30 7873 C 730.466 -0.926939 3.28056 0
M  V30 7874 H 731.659 0.836349 2.88002 0
M  V30 7875 H 729.212 0.471778 1.4901 0
M  V30 7876 H 729.947 -1.7319 2.74182 0
M  V30 7877 H 729.732 -0.389015 3.90165 0
M  V30 7878 H 731.222 -1.37837 3.94196 0
M  V30 7879 N 731.66 -1.50943 0.453197 0
M  V30 7880 C 732.623 -2.26684 -0.338705 0
M  V30 7881 C 733.623 -1.30748 -0.936032 0
M  V30 7882 O 734.813 -1.54327 -0.808002 0
M  V30 7883 C 731.945 -3.07063 -1.48071 0
M  V30 7884 H 733.138 -2.98131 0.325289 0
M  V30 7885 H 730.691 -1.54926 0.206771 0
M  V30 7886 H 731.426 -2.4007 -2.18029 0
M  V30 7887 H 731.211 -3.77545 -1.0584 0
M  V30 7888 H 732.701 -3.64393 -2.0398 0
M  V30 7889 N 733.138 -0.185124 -1.56509 0
M  V30 7890 C 734.363 0.465278 -2.02114 0
M  V30 7891 C 734.788 1.55083 -1.06447 0
M  V30 7892 O 734.146 1.81241 -0.0462852 0
M  V30 7893 C 734.194 1.00784 -3.46229 0
M  V30 7894 O 733.298 2.12123 -3.53663 0
M  V30 7895 H 732.639 0.109891 -0.654843 0
M  V30 7896 H 735.169 -0.293072 -2.0249 0
M  V30 7897 H 735.179 1.32697 -3.85818 0
M  V30 7898 H 733.854 0.213113 -4.15354 0
M  V30 7899 H 732.431 1.8115 -3.25943 0
M  V30 7900 N 734.616 1.57351 0.0885366 0
M  V30 7901 C 735.563 2.02523 1.10693 0
M  V30 7902 C 736.533 0.902736 1.39427 0
M  V30 7903 O 737.718 1.16921 1.50779 0
M  V30 7904 C 734.858 2.46013 2.42016 0
M  V30 7905 C 733.971 3.7181 2.19957 0
M  V30 7906 C 733.106 4.04152 3.44724 0
M  V30 7907 C 732.145 5.2304 3.17956 0
M  V30 7908 N 731.282 5.51102 4.35007 0
M  V30 7909 H 736.122 2.89302 0.714742 0
M  V30 7910 H 733.659 1.43084 0.341378 0
M  V30 7911 H 735.617 2.69274 3.18665 0
M  V30 7912 H 734.247 1.62235 2.79069 0
M  V30 7913 H 733.299 3.55987 1.34079 0
M  V30 7914 H 734.611 4.58604 1.96173 0
M  V30 7915 H 733.765 4.28225 4.29777 0
M  V30 7916 H 732.504 3.15893 3.71568 0
M  V30 7917 H 731.509 4.98781 2.31296 0
M  V30 7918 H 732.734 6.12902 2.92451 0
M  V30 7919 H 730.68 4.65802 4.61914 0
M  V30 7920 H 730.597 6.3228 4.14437 0
M  V30 7921 H 731.865 5.79714 5.21106 0
M  V30 7922 N 736.094 -0.359525 1.53444 0
M  V30 7923 C 737.024 -1.44662 1.8329 0
M  V30 7924 C 738.005 -1.55617 0.68683 0
M  V30 7925 O 739.19 -1.70086 0.93725 0
M  V30 7926 C 736.32 -2.81923 2.02822 0
M  V30 7927 C 735.274 -2.85787 3.18606 0
M  V30 7928 C 734.6 -4.25781 3.23442 0
M  V30 7929 C 735.9 -2.52762 4.57065 0
M  V30 7930 H 737.594 -1.19934 2.74329 0
M  V30 7931 H 735.14 -0.575517 1.31999 0
M  V30 7932 H 737.093 -3.58005 2.22285 0
M  V30 7933 H 735.817 -3.08051 1.085 0
M  V30 7934 H 734.476 -2.12157 2.98973 0
M  V30 7935 H 734.124 -4.48994 2.26745 0
M  V30 7936 H 733.824 -4.29281 4.01238 0
M  V30 7937 H 735.348 -5.03727 3.45096 0
M  V30 7938 H 736.762 -3.18557 4.76649 0
M  V30 7939 H 735.159 -2.67569 5.37147 0
M  V30 7940 H 736.229 -1.47993 4.61764 0
M  V30 7941 N 737.572 -1.44907 -0.619662 0
M  V30 7942 C 738.502 -1.55488 -1.742 0
M  V30 7943 C 739.483 -0.407143 -1.65156 0
M  V30 7944 O 740.668 -0.628743 -1.8374 0
M  V30 7945 C 737.798 -1.5097 -3.1277 0
M  V30 7946 C 736.752 -2.64337 -3.36615 0
M  V30 7947 C 736.078 -2.44872 -4.75333 0
M  V30 7948 C 737.378 -4.06423 -3.28051 0
M  V30 7949 H 739.072 -2.49432 -1.65602 0
M  V30 7950 H 736.618 -1.20047 -0.795281 0
M  V30 7951 H 738.571 -1.56971 -3.91073 0
M  V30 7952 H 737.295 -0.535486 -3.2218 0
M  V30 7953 H 735.954 -2.57744 -2.60698 0
M  V30 7954 H 735.602 -1.45617 -4.81461 0
M  V30 7955 H 735.302 -3.20888 -4.92244 0
M  V30 7956 H 736.826 -2.52709 -5.55851 0
M  V30 7957 H 738.24 -4.14324 -3.96243 0
M  V30 7958 H 736.637 -4.82733 -3.56495 0
M  V30 7959 H 737.707 -4.29183 -2.25676 0
M  V30 7960 N 739.05 0.861098 -1.31996 0
M  V30 7961 C 739.998 1.99052 -1.20337 0
M  V30 7962 C 740.992 1.69045 -0.109623 0
M  V30 7963 O 742.198 1.77931 -0.272117 0
M  V30 7964 H 738.573 0.653064 -0.372843 0
M  V30 7965 H 740.544 2.06015 -2.15872 0
M  V30 7966 C 739.293 3.34846 -0.936663 0
M  V30 7967 H 738.616 3.58462 -1.77045 0
M  V30 7968 H 740.056 4.1444 -0.895302 0
M  V30 7969 C 738.515 3.34965 0.360607 0
M  V30 7970 O 739.045 3.7745 1.37456 0
M  V30 7971 N 737.251 2.88101 0.380296 0
M  V30 7972 H 736.798 2.53721 -0.445351 0
M  V30 7973 H 736.756 2.88563 1.24816 0
M  V30 7974 N 740.528 1.15101 1.07655 0
M  V30 7975 C 741.756 0.947731 1.83918 0
M  V30 7976 C 742.171 -0.503927 1.81951 0
M  V30 7977 O 741.528 -1.34941 1.2287 0
M  V30 7978 C 741.579 1.4503 3.31132 0
M  V30 7979 O 741.3 2.84508 3.33146 0
M  V30 7980 C 742.801 1.28806 4.24174 0
M  V30 7981 H 740.021 0.336786 0.580358 0
M  V30 7982 H 742.565 1.52799 1.35914 0
M  V30 7983 H 740.72 0.912632 3.76497 0
M  V30 7984 H 741.134 3.0723 4.251 0
M  V30 7985 H 742.608 1.6882 5.25551 0
M  V30 7986 H 743.085 0.231851 4.38588 0
M  V30 7987 H 743.691 1.81465 3.84643 0
M  V30 7988 N 742.006 -1.2595 0.947325 0
M  V30 7989 C 743.252 -1.9375 0.599064 0
M  V30 7990 C 743.585 -1.74088 -0.860632 0
M  V30 7991 O 742.86 -1.08158 -1.61654 0
M  V30 7992 C 743.143 -3.47353 0.949634 0
M  V30 7993 C 742.996 -3.76273 2.46452 0
M  V30 7994 C 744.315 -4.37589 0.469442 0
M  V30 7995 H 741.434 -0.703674 0.219115 0
M  V30 7996 H 744.076 -1.48705 1.18266 0
M  V30 7997 H 742.226 -3.8585 0.453008 0
M  V30 7998 H 743.898 -3.47455 3.03435 0
M  V30 7999 H 742.141 -3.22135 2.90537 0
M  V30 8000 H 742.812 -4.83664 2.66032 0
M  V30 8001 H 745.288 -4.06353 0.89534 0
M  V30 8002 H 744.164 -5.43841 0.7435 0
M  V30 8003 H 744.425 -4.37579 -0.630618 0
M  V30 8004 N 743.484 -0.715051 -1.40445 0
M  V30 8005 C 744.394 -0.0631624 -2.34515 0
M  V30 8006 C 745.41 0.744397 -1.57273 0
M  V30 8007 O 746.586 0.677475 -1.89663 0
M  V30 8008 C 743.651 0.847915 -3.36172 0
M  V30 8009 C 742.712 0.0303655 -4.29289 0
M  V30 8010 C 741.945 0.898051 -5.2609 0
M  V30 8011 O 742.168 2.13729 -5.28844 0
M  V30 8012 O 741.102 0.337328 -6.00954 0
M  V30 8013 H 744.928 -0.839078 -2.91879 0
M  V30 8014 H 742.513 -0.475527 -1.4163 0
M  V30 8015 H 744.395 1.3698 -3.98515 0
M  V30 8016 H 743.07 1.60299 -2.81222 0
M  V30 8017 H 741.977 -0.536573 -3.70232 0
M  V30 8018 H 743.31 -0.686474 -4.87389 0
M  V30 8019 N 744.962 1.50701 -0.461195 0
M  V30 8020 C 745.872 2.32069 0.343661 0
M  V30 8021 C 746.888 1.42016 1.00535 0
M  V30 8022 O 748.064 1.75077 0.995498 0
M  V30 8023 C 745.129 3.16424 1.41692 0
M  V30 8024 C 744.19 4.22286 0.772869 0
M  V30 8025 C 743.423 5.02609 1.79499 0
M  V30 8026 O 743.646 4.83874 3.0203 0
M  V30 8027 O 742.58 5.86047 1.3723 0
M  V30 8028 H 746.406 3.01996 -0.321268 0
M  V30 8029 H 743.991 1.47723 -0.223235 0
M  V30 8030 H 745.873 3.68795 2.03883 0
M  V30 8031 H 744.548 2.49236 2.0655 0
M  V30 8032 H 743.455 3.73931 0.112277 0
M  V30 8033 H 744.788 4.91915 0.167399 0
M  V30 8034 N 746.441 0.193421 1.56409 0
M  V30 8035 C 747.669 -0.451438 2.01915 0
M  V30 8036 C 748.084 -1.55306 1.07357 0
M  V30 8037 O 747.441 -1.82333 0.0781512 0
M  V30 8038 C 747.492 -1.00931 3.47124 0
M  V30 8039 O 747.213 0.0483623 4.38073 0
M  V30 8040 C 748.714 -1.73021 4.0814 0
M  V30 8041 H 745.934 -0.113495 0.661332 0
M  V30 8042 H 748.478 0.301636 2.02263 0
M  V30 8043 H 746.633 -1.71277 3.47481 0
M  V30 8044 H 747.047 -0.366644 5.23217 0
M  V30 8045 H 748.521 -2.07289 5.11601 0
M  V30 8046 H 748.998 -2.6333 3.51502 0
M  V30 8047 H 749.604 -1.07264 4.11551 0
M  V30 8048 N 747.919 -1.57396 -0.0801906 0
M  V30 8049 C 749.147 -1.91055 -0.794075 0
M  V30 8050 C 749.562 -0.788583 -1.71542 0
M  V30 8051 O 748.919 0.238587 -1.80934 0
M  V30 8052 C 748.97 -3.24418 -1.59484 0
M  V30 8053 O 748.691 -4.323 -0.710532 0
M  V30 8054 C 750.192 -3.72037 -2.41046 0
M  V30 8055 H 747.412 -0.63171 -0.226238 0
M  V30 8056 H 749.956 -2.04431 -0.0529685 0
M  V30 8057 H 748.111 -3.12595 -2.2883 0
M  V30 8058 H 748.525 -5.08976 -1.26663 0
M  V30 8059 H 749.999 -4.68006 -2.92702 0
M  V30 8060 H 750.476 -3.00624 -3.2019 0
M  V30 8061 H 751.082 -3.86777 -1.76871 0
M  V30 8062 N 749.397 0.351382 -1.53633 0
M  V30 8063 C 750.344 1.43115 -1.81071 0
M  V30 8064 C 751.314 1.52601 -0.655913 0
M  V30 8065 O 752.499 1.68264 -0.89955 0
M  V30 8066 C 749.639 2.79874 -2.01903 0
M  V30 8067 C 748.752 2.79242 -3.29618 0
M  V30 8068 C 747.887 4.07667 -3.40559 0
M  V30 8069 C 746.926 4.01233 -4.62254 0
M  V30 8070 N 746.063 5.21334 -4.70271 0
M  V30 8071 H 750.903 1.19017 -2.73201 0
M  V30 8072 H 748.44 0.576691 -1.35324 0
M  V30 8073 H 750.398 3.5934 -2.11969 0
M  V30 8074 H 749.028 3.0234 -1.13094 0
M  V30 8075 H 748.08 1.91927 -3.28433 0
M  V30 8076 H 749.392 2.70363 -4.19172 0
M  V30 8077 H 748.546 4.95555 -3.50015 0
M  V30 8078 H 747.285 4.19317 -2.49047 0
M  V30 8079 H 746.29 3.11732 -4.52884 0
M  V30 8080 H 747.515 3.91173 -5.55122 0
M  V30 8081 H 745.461 5.33543 -3.81665 0
M  V30 8082 H 745.378 5.14681 -5.5375 0
M  V30 8083 H 746.646 6.11014 -4.84027 0
M  V30 8084 N 750.875 1.45233 0.611969 0
M  V30 8085 C 752.152 1.39495 1.37115 0
M  V30 8086 C 752.532 0.0633303 2.11005 0
M  V30 8087 O 751.88 -0.954617 2.07604 0
M  V30 8088 C 752.09 2.60579 2.32163 0
M  V30 8089 C 753.438 3.05477 2.94905 0
M  V30 8090 O 754.462 2.60921 2.42485 0
M  V30 8091 O 753.321 3.82787 3.90047 0
M  V30 8092 H 750.415 0.55335 0.614599 0
M  V30 8093 H 752.961 1.57355 0.635423 0
M  V30 8094 H 751.733 3.49085 1.76793 0
M  V30 8095 H 751.356 2.45031 3.13122 0
M  V30 8096 N 752.353 -0.854086 1.3245 0
M  V30 8097 C 753.599 -1.61069 1.23225 0
M  V30 8098 C 753.932 -1.93111 -0.205349 0
M  V30 8099 O 753.207 -1.57397 -1.14265 0
M  V30 8100 C 753.49 -2.93065 2.09249 0
M  V30 8101 C 753.343 -2.67801 3.6139 0
M  V30 8102 C 754.662 -3.94341 1.95406 0
M  V30 8103 H 751.781 -0.584449 0.448986 0
M  V30 8104 H 754.423 -0.986189 1.62402 0
M  V30 8105 H 752.573 -3.46364 1.75967 0
M  V30 8106 H 754.245 -2.21052 4.04887 0
M  V30 8107 H 752.488 -2.01756 3.84027 0
M  V30 8108 H 753.159 -3.6179 4.16907 0
M  V30 8109 H 755.635 -3.50301 2.24562 0
M  V30 8110 H 754.511 -4.84555 2.57872 0
M  V30 8111 H 754.772 -4.32382 0.921865 0
M  V30 8112 N 753.831 -1.1567 -1.07043 0
M  V30 8113 C 755.056 -0.957946 -1.83952 0
M  V30 8114 C 755.481 0.488807 -1.81638 0
M  V30 8115 O 754.839 1.34869 -1.21162 0
M  V30 8116 C 754.887 -1.48064 -3.288 0
M  V30 8117 O 753.991 -0.681921 -4.06723 0
M  V30 8118 H 753.332 -0.341453 -0.569479 0
M  V30 8119 H 755.862 -1.53728 -1.35015 0
M  V30 8120 H 755.872 -1.49484 -3.7963 0
M  V30 8121 H 754.547 -2.53388 -3.29799 0
M  V30 8122 H 753.124 -0.737612 -3.65532 0
M  V30 8123 N 755.309 1.25446 -0.953992 0
M  V30 8124 C 756.557 1.92762 -0.607227 0
M  V30 8125 C 756.878 1.7509 0.858399 0
M  V30 8126 O 756.148 1.11416 1.61132 0
M  V30 8127 H 754.728 0.713377 -0.221591 0
M  V30 8128 H 757.39 1.52625 -1.21209 0
M  V30 8129 H 756.486 3.00695 -0.835998 0
M  V30 8130 N 756.787 0.722489 1.40064 0
M  V30 8131 C 757.717 0.0892452 2.33329 0
M  V30 8132 C 758.698 -0.737992 1.53257 0
M  V30 8133 O 759.883 -0.685516 1.81698 0
M  V30 8134 C 757.013 -0.828139 3.37282 0
M  V30 8135 C 755.967 -0.106005 4.27869 0
M  V30 8136 C 755.293 -1.13957 5.22415 0
M  V30 8137 C 756.593 1.04395 5.11761 0
M  V30 8138 H 758.287 0.868269 2.86534 0
M  V30 8139 H 755.833 0.418982 1.3777 0
M  V30 8140 H 757.786 -1.28058 4.01471 0
M  V30 8141 H 756.51 -1.63914 2.82489 0
M  V30 8142 H 755.169 0.326683 3.65142 0
M  V30 8143 H 754.817 -1.9438 4.63924 0
M  V30 8144 H 754.517 -0.661233 5.83868 0
M  V30 8145 H 756.041 -1.59197 5.89482 0
M  V30 8146 H 757.455 0.670541 5.69365 0
M  V30 8147 H 755.852 1.4511 5.82291 0
M  V30 8148 H 756.922 1.87144 4.47331 0
M  V30 8149 N 758.265 -1.50454 0.469181 0
M  V30 8150 C 759.215 -2.25381 -0.344582 0
M  V30 8151 C 760.199 -1.28892 -0.963098 0
M  V30 8152 O 761.391 -1.53805 -0.875964 0
M  V30 8153 C 758.52 -3.12232 -1.4271 0
M  V30 8154 C 757.606 -4.16168 -0.816411 0
M  V30 8155 N 757.997 -5.05762 0.0621424 0
M  V30 8156 C 756.295 -4.32712 -1.08056 0
M  V30 8157 C 756.996 -5.80264 0.408519 0
M  V30 8158 N 755.972 -5.43171 -0.215827 0
M  V30 8159 H 759.774 -2.92016 0.332237 0
M  V30 8160 H 757.288 -1.59911 0.283209 0
M  V30 8161 H 759.285 -3.64514 -2.02324 0
M  V30 8162 H 757.945 -2.47145 -2.10593 0
M  V30 8163 H 758.956 -5.16105 0.430841 0
M  V30 8164 H 755.633 -3.78844 -1.75452 0
M  V30 8165 H 757.023 -6.62408 1.12539 0
M  V30 8166 N 759.743 -0.201713 -1.56304 0
M  V30 8167 C 760.968 0.443815 -2.02596 0
M  V30 8168 C 761.393 1.53945 -1.08086 0
M  V30 8169 O 760.751 1.81182 -0.0655056 0
M  V30 8170 C 760.799 0.971066 -3.47279 0
M  V30 8171 O 759.903 2.0836 -3.55893 0
M  V30 8172 H 759.244 0.10294 -0.655972 0
M  V30 8173 H 761.774 -0.314533 -2.02168 0
M  V30 8174 H 761.784 1.28598 -3.87204 0
M  V30 8175 H 760.459 0.169048 -4.15556 0
M  V30 8176 H 759.036 1.77683 -3.27846 0
M  V30 8177 N 761.222 1.57436 0.0718424 0
M  V30 8178 C 762.169 2.03686 1.08539 0
M  V30 8179 C 763.139 0.917474 1.38462 0
M  V30 8180 O 764.324 1.18513 1.4953 0
M  V30 8181 C 761.464 2.48566 2.39393 0
M  V30 8182 C 760.577 3.74122 2.16001 0
M  V30 8183 C 759.712 4.07786 3.40418 0
M  V30 8184 C 758.751 5.26383 3.1239 0
M  V30 8185 N 757.888 5.55685 4.29138 0
M  V30 8186 H 762.728 2.90043 0.684018 0
M  V30 8187 H 760.265 1.43438 0.326183 0
M  V30 8188 H 762.223 2.72639 3.15791 0
M  V30 8189 H 760.853 1.65186 2.77333 0
M  V30 8190 H 759.905 3.57389 1.30296 0
M  V30 8191 H 761.217 4.60659 1.91298 0
M  V30 8192 H 760.371 4.32759 4.25211 0
M  V30 8193 H 759.11 3.19817 3.68197 0
M  V30 8194 H 758.115 5.01206 2.25993 0
M  V30 8195 H 759.34 6.1597 2.85934 0
M  V30 8196 H 757.286 4.70675 4.56948 0
M  V30 8197 H 757.203 6.3664 4.07708 0
M  V30 8198 H 758.471 5.85209 5.14928 0
M  V30 8199 N 762.7 -0.34323 1.53817 0
M  V30 8200 C 763.63 -1.42709 1.84814 0
M  V30 8201 C 764.611 -1.5488 0.703297 0
M  V30 8202 O 765.796 -1.69082 0.955237 0
M  V30 8203 C 762.926 -2.79756 2.05801 0
M  V30 8204 C 761.88 -2.82392 3.21619 0
M  V30 8205 C 761.206 -4.22326 3.2794 0
M  V30 8206 C 762.506 -2.479 4.59721 0
M  V30 8207 H 764.2 -1.17018 2.75585 0
M  V30 8208 H 761.746 -0.561485 1.32602 0
M  V30 8209 H 763.699 -3.55627 2.26069 0
M  V30 8210 H 762.423 -3.06883 1.11761 0
M  V30 8211 H 761.082 -2.08974 3.01207 0
M  V30 8212 H 760.73 -4.46564 2.31494 0
M  V30 8213 H 760.43 -4.25001 4.05768 0
M  V30 8214 H 761.954 -5.00039 3.50419 0
M  V30 8215 H 763.368 -3.13484 4.80001 0
M  V30 8216 H 761.765 -2.61857 5.39954 0
M  V30 8217 H 762.835 -1.43087 4.63308 0
M  V30 8218 N 764.178 -1.45556 -0.604258 0
M  V30 8219 C 765.455 -1.40221 -1.36373 0
M  V30 8220 C 765.835 -0.0745195 -2.10968 0
M  V30 8221 O 765.183 0.943594 -2.08107 0
M  V30 8222 C 765.393 -2.61807 -2.30777 0
M  V30 8223 C 766.741 -3.07037 -2.93281 0
M  V30 8224 O 767.765 -2.62203 -2.41097 0
M  V30 8225 O 766.624 -3.8485 -3.88011 0
M  V30 8226 H 763.718 -0.556602 -0.611656 0
M  V30 8227 H 766.264 -1.57689 -0.627069 0
M  V30 8228 H 765.036 -3.50017 -1.74939 0
M  V30 8229 H 764.659 -2.46688 -3.11818 0
M  V30 8230 N 765.656 0.84705 -1.32902 0
M  V30 8231 C 767.072 1.13645 -1.12058 0
M  V30 8232 C 767.272 2.01281 0.093937 0
M  V30 8233 O 766.328 2.4026 0.776608 0
M  V30 8234 C 767.641 1.80644 -2.40392 0
M  V30 8235 C 769.189 1.93246 -2.46221 0
M  V30 8236 C 769.664 2.6366 -3.74496 0
M  V30 8237 N 771.155 2.71179 -3.75521 0
M  V30 8238 C 771.89 3.26332 -4.71482 0
M  V30 8239 N 771.386 3.82236 -5.77813 0
M  V30 8240 N 773.179 3.24507 -4.58968 0
M  V30 8241 H 765.33 0.263612 -2.10758 0
M  V30 8242 H 767.593 0.17944 -0.930863 0
M  V30 8243 H 767.299 1.23708 -3.29225 0
M  V30 8244 H 767.173 2.80736 -2.51926 0
M  V30 8245 H 769.56 2.49338 -1.57843 0
M  V30 8246 H 769.641 0.921272 -2.38634 0
M  V30 8247 H 769.285 2.08229 -4.63253 0
M  V30 8248 H 769.215 3.65234 -3.79357 0
M  V30 8249 H 771.706 2.31527 -2.9867 0
M  V30 8250 H 772.019 4.22499 -6.47082 0
M  V30 8251 H 770.364 3.80546 -5.81558 0
M  V30 8252 H 773.555 2.80085 -3.7506 0
M  V30 8253 H 773.728 3.67188 -5.33926 0
M  V30 8254 N 767.134 1.16236 1.06428 0
M  V30 8255 C 768.081 0.86769 2.13869 0
M  V30 8256 C 769.051 -0.183298 1.65086 0
M  V30 8257 O 770.236 -0.0488002 1.90738 0
M  V30 8258 C 767.376 0.373427 3.43074 0
M  V30 8259 C 766.489 1.48708 4.05598 0
M  V30 8260 C 765.624 0.947977 5.22673 0
M  V30 8261 C 764.663 2.03793 5.77178 0
M  V30 8262 N 763.8 1.51451 6.85571 0
M  V30 8263 H 768.64 1.78781 2.38414 0
M  V30 8264 H 766.177 0.891892 1.16977 0
M  V30 8265 H 768.135 0.0685035 4.17144 0
M  V30 8266 H 766.765 -0.509752 3.1875 0
M  V30 8267 H 765.817 1.908 3.29089 0
M  V30 8268 H 767.129 2.30964 4.42105 0
M  V30 8269 H 766.283 0.596154 6.03764 0
M  V30 8270 H 765.022 0.0947081 4.87608 0
M  V30 8271 H 764.027 2.39847 4.94726 0
M  V30 8272 H 765.252 2.89514 6.14295 0
M  V30 8273 H 763.198 0.683755 6.52427 0
M  V30 8274 H 763.115 2.27325 7.21013 0
M  V30 8275 H 764.383 1.19123 7.70344 0
M  V30 8276 N 768.612 -1.24939 0.960631 0
M  V30 8277 C 769.559 -2.25658 0.484459 0
M  V30 8278 C 770.529 -1.59422 -0.466242 0
M  V30 8279 O 771.714 -1.87015 -0.378169 0
M  V30 8280 C 768.854 -3.44359 -0.225958 0
M  V30 8281 C 767.967 -4.25214 0.762682 0
M  V30 8282 C 767.102 -5.31192 0.0290931 0
M  V30 8283 C 766.141 -6.03739 1.00827 0
M  V30 8284 N 765.278 -7.01437 0.305155 0
M  V30 8285 H 770.118 -2.65758 1.34821 0
M  V30 8286 H 767.655 -1.30648 0.675983 0
M  V30 8287 H 769.613 -4.12035 -0.654472 0
M  V30 8288 H 768.243 -3.05118 -1.05371 0
M  V30 8289 H 767.295 -3.57144 1.30966 0
M  V30 8290 H 768.607 -4.75406 1.50964 0
M  V30 8291 H 767.761 -6.04971 -0.457763 0
M  V30 8292 H 766.5 -4.81889 -0.750614 0
M  V30 8293 H 765.505 -5.2877 1.50607 0
M  V30 8294 H 766.73 -6.55131 1.7883 0
M  V30 8295 H 764.676 -6.54415 -0.455704 0
M  V30 8296 H 764.593 -7.49475 0.991104 0
M  V30 8297 H 765.861 -7.79336 -0.159966 0
M  V30 8298 N 770.09 -0.729906 -1.39679 0
M  V30 8299 C 771.053 -0.0951668 -2.29002 0
M  V30 8300 C 772.053 0.672471 -1.46063 0
M  V30 8301 O 773.243 0.502245 -1.66803 0
M  V30 8302 C 770.375 0.874631 -3.29489 0
M  V30 8303 H 771.568 -0.882062 -2.86635 0
M  V30 8304 H 769.121 -0.495424 -1.4824 0
M  V30 8305 H 769.856 1.68807 -2.76902 0
M  V30 8306 H 769.641 0.326893 -3.90735 0
M  V30 8307 H 771.131 1.31548 -3.96339 0
M  V30 8308 N 771.568 1.50203 -0.477153 0
M  V30 8309 C 772.814 2.02658 0.0758507 0
M  V30 8310 C 773.147 1.358 1.38824 0
M  V30 8311 O 772.422 0.485696 1.88338 0
M  V30 8312 C 772.705 3.59208 0.253339 0
M  V30 8313 C 772.558 4.36629 -1.0805 0
M  V30 8314 C 773.877 4.28469 1.00509 0
M  V30 8315 H 770.996 0.736538 0.0260921 0
M  V30 8316 H 773.638 1.79464 -0.623925 0
M  V30 8317 H 771.788 3.79101 0.849378 0
M  V30 8318 H 773.46 4.28292 -1.71358 0
M  V30 8319 H 771.703 4.0013 -1.67566 0
M  V30 8320 H 772.374 5.44449 -0.909883 0
M  V30 8321 H 774.85 4.13087 0.499818 0
M  V30 8322 H 773.726 5.37804 1.09808 0
M  V30 8323 H 773.987 3.92057 2.04314 0
M  V30 8324 N 773.046 0.209999 1.56195 0
M  V30 8325 C 774.323 -0.473214 1.89789 0
M  V30 8326 C 774.703 -1.78581 1.1257 0
M  V30 8327 O 774.051 -2.27325 0.231398 0
M  V30 8328 C 774.261 -0.677458 3.42362 0
M  V30 8329 C 775.609 -0.990114 4.12895 0
M  V30 8330 O 776.633 -0.764655 3.47896 0
M  V30 8331 O 775.492 -1.41737 5.278 0
M  V30 8332 H 772.586 -0.248622 0.788743 0
M  V30 8333 H 775.132 0.251324 1.67829 0
M  V30 8334 H 773.904 0.248878 3.90508 0
M  V30 8335 H 773.527 -1.45391 3.70064 0
M  V30 8336 N 774.524 -1.57472 -0.0634922 0
M  V30 8337 C 775.456 -2.00999 -1.10145 0
M  V30 8338 C 776.469 -0.917219 -1.34503 0
M  V30 8339 O 777.658 -1.19501 -1.32596 0
M  V30 8340 C 774.758 -2.34089 -2.45063 0
M  V30 8341 C 773.931 -3.65317 -2.40546 0
M  V30 8342 C 772.99 -3.85982 -3.57637 0
M  V30 8343 O 772.016 -4.5747 -3.38689 0
M  V30 8344 N 773.218 -3.28971 -4.78287 0
M  V30 8345 H 775.983 -2.90656 -0.730714 0
M  V30 8346 H 773.544 -1.59926 -0.252017 0
M  V30 8347 H 775.536 -2.4508 -3.22053 0
M  V30 8348 H 774.106 -1.50279 -2.74107 0
M  V30 8349 H 773.326 -3.65003 -1.48885 0
M  V30 8350 H 774.614 -4.51468 -2.34636 0
M  V30 8351 H 774.012 -2.70962 -4.96584 0
M  V30 8352 H 772.569 -3.45398 -5.5276 0
M  V30 8353 N 776.003 0.335068 -1.53997 0
M  V30 8354 C 776.953 1.4127 -1.7896 0
M  V30 8355 C 777.937 1.474 -0.64513 0
M  V30 8356 O 779.129 1.52127 -0.904785 0
M  V30 8357 C 776.258 2.78292 -2.01018 0
M  V30 8358 C 775.344 2.7652 -3.21555 0
M  V30 8359 N 775.735 2.44374 -4.42849 0
M  V30 8360 C 774.033 3.0766 -3.22895 0
M  V30 8361 C 774.734 2.51049 -5.24737 0
M  V30 8362 N 773.71 2.8702 -4.6165 0
M  V30 8363 H 777.512 1.15327 -2.70327 0
M  V30 8364 H 775.026 0.543483 -1.53036 0
M  V30 8365 H 777.023 3.55949 -2.17039 0
M  V30 8366 H 775.683 3.05175 -1.10898 0
M  V30 8367 H 776.694 2.17422 -4.70051 0
M  V30 8368 H 773.371 3.3966 -2.42771 0
M  V30 8369 H 774.761 2.29283 -6.31569 0
M  V30 8370 N 777.481 1.45874 0.596531 0
M  V30 8371 C 778.429 1.55739 1.72766 0
M  V30 8372 C 779.423 0.426666 1.63939 0
M  V30 8373 O 780.629 0.60301 1.69599 0
M  V30 8374 H 777.004 0.489386 0.570968 0
M  V30 8375 H 778.975 2.50871 1.61575 0
M  V30 8376 C 777.724 1.55174 3.11153 0
M  V30 8377 H 777.047 2.41511 3.1861 0
M  V30 8378 H 778.487 1.66133 3.90097 0
M  V30 8379 C 776.946 0.278001 3.35751 0
M  V30 8380 O 777.476 -0.637557 3.96608 0
M  V30 8381 N 775.682 0.170227 2.90101 0
M  V30 8382 H 775.229 0.916159 2.40758 0
M  V30 8383 H 775.187 -0.68117 3.06932 0
M  V30 8384 N 778.959 -0.83999 1.33349 0
M  V30 8385 C 779.922 -1.93128 1.23426 0
M  V30 8386 C 780.922 -1.60065 0.153599 0
M  V30 8387 O 782.112 -1.69425 0.405049 0
M  V30 8388 C 779.244 -3.28761 0.901622 0
M  V30 8389 H 780.437 -2.03352 2.20427 0
M  V30 8390 H 777.99 -1.03194 1.17391 0
M  V30 8391 H 778.725 -3.24233 -0.0659337 0
M  V30 8392 H 778.51 -3.54138 1.68311 0
M  V30 8393 H 780 -4.08714 0.856913 0
M  V30 8394 N 780.437 -1.16799 -1.0581 0
M  V30 8395 C 781.347 -0.893492 -2.16919 0
M  V30 8396 C 782.363 0.136061 -1.73467 0
M  V30 8397 O 783.539 -0.0417348 -2.01357 0
M  V30 8398 C 780.604 -0.403763 -3.44341 0
M  V30 8399 C 779.665 -1.49914 -4.02274 0
M  V30 8400 C 778.898 -1.03269 -5.23614 0
M  V30 8401 O 779.121 0.115647 -5.70283 0
M  V30 8402 O 778.055 -1.8231 -5.73626 0
M  V30 8403 H 781.881 -1.82274 -2.42919 0
M  V30 8404 H 779.466 -0.948361 -1.1544 0
M  V30 8405 H 781.348 -0.137874 -4.21174 0
M  V30 8406 H 780.023 0.497413 -3.19855 0
M  V30 8407 H 778.93 -1.81883 -3.26909 0
M  V30 8408 H 780.263 -2.3758 -4.31064 0
M  V30 8409 N 781.915 1.24427 -0.967243 0
M  V30 8410 C 782.878 2.23637 -0.501927 0
M  V30 8411 C 783.878 1.55712 0.401283 0
M  V30 8412 O 785.068 1.73085 0.196808 0
M  V30 8413 C 782.2 3.39804 0.273176 0
M  V30 8414 H 783.393 2.66317 -1.37897 0
M  V30 8415 H 780.946 1.37033 -0.751783 0
M  V30 8416 H 781.681 3.02562 1.16733 0
M  V30 8417 H 781.466 3.90303 -0.37498 0
M  V30 8418 H 782.956 4.13443 0.587776 0
M  V30 8419 N 783.393 0.737304 1.3929 0
M  V30 8420 C 784.325 0.0592106 2.29124 0
M  V30 8421 C 785.338 -0.701026 1.46934 0
M  V30 8422 O 786.527 -0.544808 1.69983 0
M  V30 8423 C 783.627 -0.940358 3.25592 0
M  V30 8424 C 782.8 -0.241163 4.36735 0
M  V30 8425 C 781.859 -1.14916 5.13498 0
M  V30 8426 O 780.885 -0.625783 5.6575 0
M  V30 8427 N 782.087 -2.47869 5.2492 0
M  V30 8428 H 784.852 0.830647 2.87959 0
M  V30 8429 H 782.413 0.586718 1.50895 0
M  V30 8430 H 784.405 -1.55046 3.73822 0
M  V30 8431 H 782.975 -1.61299 2.67771 0
M  V30 8432 H 782.195 0.549441 3.90352 0
M  V30 8433 H 783.483 0.243299 5.08218 0
M  V30 8434 H 782.881 -2.92864 4.83991 0
M  V30 8435 H 781.438 -3.03969 5.76581 0
M  V30 8436 N 784.871 -1.49948 0.485112 0
M  V30 8437 C 786.148 -1.95186 -0.12726 0
M  V30 8438 C 786.528 -1.42605 -1.5565 0
M  V30 8439 O 785.876 -0.632986 -2.19558 0
M  V30 8440 C 786.086 -3.48955 -0.0562117 0
M  V30 8441 C 787.434 -4.23932 -0.238106 0
M  V30 8442 O 788.458 -3.55955 -0.132145 0
M  V30 8443 O 787.317 -5.44614 -0.453658 0
M  V30 8444 H 784.411 -0.820433 -0.104014 0
M  V30 8445 H 786.957 -1.60659 0.546517 0
M  V30 8446 H 785.729 -3.79814 0.941122 0
M  V30 8447 H 785.352 -3.90056 -0.770834 0
M  V30 8448 N 786.349 -0.21828 -1.56081 0
M  V30 8449 C 787.598 0.414644 -1.97392 0
M  V30 8450 C 787.911 1.61132 -1.10887 0
M  V30 8451 O 789.117 2.31355 -1.42082 0
M  V30 8452 C 787.573 0.789099 -3.51143 0
M  V30 8453 C 787.181 -0.384578 -4.46346 0
M  V30 8454 C 788.925 1.38781 -4.01173 0
M  V30 8455 C 786.832 0.0121288 -5.91399 0
M  V30 8456 H 785.762 0.158691 -0.737111 0
M  V30 8457 H 788.413 -0.313974 -1.80794 0
M  V30 8458 H 786.795 1.57505 -3.6333 0
M  V30 8459 H 787.969 -1.16212 -4.45905 0
M  V30 8460 H 786.284 -0.896306 -4.06639 0
M  V30 8461 H 788.881 1.69746 -5.07041 0
M  V30 8462 H 789.224 2.30245 -3.46833 0
M  V30 8463 H 789.757 0.665364 -3.92196 0
M  V30 8464 H 786.496 -0.868917 -6.49715 0
M  V30 8465 H 786.016 0.754053 -5.95041 0
M  V30 8466 H 787.695 0.439949 -6.45502 0
M  V30 8467 N 787.827 1.57504 0.0551401 0
M  V30 8468 C 789.074 1.88055 0.751104 0
M  V30 8469 C 789.402 0.812231 1.76729 0
M  V30 8470 O 788.657 -0.189918 1.94776 0
M  V30 8471 C 788.956 3.25311 1.48013 0
M  V30 8472 C 788.622 4.46858 0.602375 0
M  V30 8473 C 787.284 4.79847 0.360536 0
M  V30 8474 C 789.636 5.212 -0.00524047 0
M  V30 8475 C 786.964 5.84582 -0.498127 0
M  V30 8476 C 789.316 6.26844 -0.851453 0
M  V30 8477 C 787.98 6.58324 -1.103 0
M  V30 8478 H 787.25 0.688142 0.274848 0
M  V30 8479 H 789.897 1.91497 0.0114795 0
M  V30 8480 H 788.202 3.17737 2.29239 0
M  V30 8481 H 789.899 3.46189 2.02371 0
M  V30 8482 H 786.489 4.21049 0.801007 0
M  V30 8483 H 790.673 4.96013 0.168682 0
M  V30 8484 H 785.929 6.07361 -0.701594 0
M  V30 8485 H 790.103 6.83603 -1.32893 0
M  V30 8486 H 787.73 7.39304 -1.77011 0
M  V30 8487 N 789.305 -0.326896 1.54172 0
M  V30 8488 C 790.553 -1.06313 1.71878 0
M  V30 8489 C 790.874 -1.88652 0.493498 0
M  V30 8490 O 790.144 -1.89608 -0.492522 0
M  V30 8491 H 788.724 -0.39549 0.633716 0
M  V30 8492 H 791.386 -0.364139 1.91468 0
M  V30 8493 H 790.482 -1.73105 2.59694 0
M  V30 8494 N 790.784 -1.46188 -0.588786 0
M  V30 8495 C 791.731 -1.56292 -1.69828 0
M  V30 8496 C 792.701 -0.407581 -1.61022 0
M  V30 8497 O 793.886 -0.623532 -1.80324 0
M  V30 8498 C 791.026 -1.55341 -3.08161 0
M  V30 8499 C 790.139 -2.81564 -3.27636 0
M  V30 8500 C 789.274 -2.72158 -4.56183 0
M  V30 8501 C 788.313 -3.93348 -4.68981 0
M  V30 8502 N 787.45 -3.82365 -5.88848 0
M  V30 8503 H 792.29 -2.51066 -1.6053 0
M  V30 8504 H 789.827 -1.24562 -0.782474 0
M  V30 8505 H 791.785 -1.52776 -3.88221 0
M  V30 8506 H 790.415 -0.641034 -3.16371 0
M  V30 8507 H 789.467 -2.94136 -2.41223 0
M  V30 8508 H 790.779 -3.714 -3.32962 0
M  V30 8509 H 789.933 -2.67665 -5.44464 0
M  V30 8510 H 788.672 -1.79953 -4.53286 0
M  V30 8511 H 787.677 -3.98181 -3.7912 0
M  V30 8512 H 788.902 -4.86643 -4.73662 0
M  V30 8513 H 786.848 -2.92942 -5.86959 0
M  V30 8514 H 786.765 -4.65851 -5.95415 0
M  V30 8515 H 788.033 -3.81836 -6.79575 0
M  V30 8516 N 792.262 0.832906 -1.33792 0
M  V30 8517 C 793.21 1.96455 -1.24532 0
M  V30 8518 C 794.204 1.68774 -0.145455 0
M  V30 8519 O 795.41 1.77314 -0.309797 0
M  V30 8520 H 791.785 0.645008 -0.386611 0
M  V30 8521 H 793.756 2.01389 -2.20193 0
M  V30 8522 C 792.505 3.32784 -1.00748 0
M  V30 8523 H 791.828 3.54626 -1.84609 0
M  V30 8524 H 793.268 4.12447 -0.98301 0
M  V30 8525 C 791.727 3.35654 0.289475 0
M  V30 8526 O 792.257 3.80281 1.29419 0
M  V30 8527 N 790.463 2.88843 0.3191 0
M  V30 8528 H 790.01 2.52719 -0.499069 0
M  V30 8529 H 789.968 2.91145 1.18667 0
M  V30 8530 N 793.74 1.17359 1.05189 0
M  V30 8531 C 794.67 0.91365 2.14883 0
M  V30 8532 C 795.651 -0.144365 1.69486 0
M  V30 8533 O 796.836 0.00587861 1.94199 0
M  V30 8534 C 793.966 0.426196 3.44675 0
M  V30 8535 C 792.92 1.4234 4.03638 0
M  V30 8536 C 792.246 0.793902 5.28773 0
M  V30 8537 C 793.546 2.7966 4.41121 0
M  V30 8538 H 795.24 1.831 2.36885 0
M  V30 8539 H 792.786 0.881781 1.13845 0
M  V30 8540 H 794.739 0.231767 4.20762 0
M  V30 8541 H 793.463 -0.526693 3.22325 0
M  V30 8542 H 792.122 1.60457 3.2962 0
M  V30 8543 H 791.77 -0.165824 5.02727 0
M  V30 8544 H 791.47 1.45959 5.69183 0
M  V30 8545 H 792.994 0.609747 6.07548 0
M  V30 8546 H 794.408 2.6526 5.08242 0
M  V30 8547 H 792.805 3.42807 4.92548 0
M  V30 8548 H 793.875 3.34068 3.51464 0
M  V30 8549 N 795.218 -1.23913 0.973828 0
M  V30 8550 C 796.166 -2.27141 0.50098 0
M  V30 8551 C 797.16 -1.63623 -0.438631 0
M  V30 8552 O 798.366 -1.77253 -0.313247 0
M  V30 8553 H 794.741 -0.73817 0.14356 0
M  V30 8554 H 796.712 -2.64392 1.38346 0
M  V30 8555 C 795.461 -3.47195 -0.187377 0
M  V30 8556 H 794.784 -3.96318 0.526535 0
M  V30 8557 H 796.224 -4.21252 -0.481962 0
M  V30 8558 C 794.683 -3.05678 -1.41642 0
M  V30 8559 O 795.213 -3.1338 -2.51309 0
M  V30 8560 N 793.419 -2.60661 -1.28469 0
M  V30 8561 H 792.966 -2.54594 -0.39238 0
M  V30 8562 H 792.924 -2.33249 -2.10813 0
M  V30 8563 N 796.696 -0.74468 -1.38897 0
M  V30 8564 C 797.921 -0.306119 -2.05128 0
M  V30 8565 C 798.346 1.0541 -1.55789 0
M  V30 8566 O 797.704 1.66993 -0.705909 0
M  V30 8567 C 797.752 -0.328195 -3.59103 0
M  V30 8568 O 796.856 0.680876 -4.06741 0
M  V30 8569 H 796.197 -0.137209 -0.649669 0
M  V30 8570 H 798.727 -1.01331 -1.77745 0
M  V30 8571 H 798.737 -0.175956 -4.0762 0
M  V30 8572 H 797.412 -1.32067 -3.94374 0
M  V30 8573 H 795.989 0.49398 -3.69614 0
M  V30 8574 N 798.174 1.49689 -0.493057 0
M  V30 8575 C 799.104 2.31826 0.279073 0
M  V30 8576 C 800.085 1.39733 0.969987 0
M  V30 8577 O 801.27 1.68646 0.962925 0
M  V30 8578 C 798.4 3.20046 1.34862 0
M  V30 8579 C 797.354 4.20869 0.77805 0
M  V30 8580 C 796.68 4.97971 1.94753 0
M  V30 8581 C 797.98 5.21813 -0.225543 0
M  V30 8582 H 799.674 2.96627 -0.406512 0
M  V30 8583 H 797.22 1.42647 -0.196943 0
M  V30 8584 H 799.173 3.76315 1.89645 0
M  V30 8585 H 797.897 2.53172 2.06328 0
M  V30 8586 H 796.556 3.65733 0.252036 0
M  V30 8587 H 796.204 4.27552 2.64969 0
M  V30 8588 H 795.904 5.66186 1.57187 0
M  V30 8589 H 797.428 5.57082 2.49984 0
M  V30 8590 H 798.842 5.72823 0.233864 0
M  V30 8591 H 797.239 5.97872 -0.516622 0
M  V30 8592 H 798.309 4.71209 -1.14412 0
M  V30 8593 N 799.652 0.226554 1.55963 0
M  V30 8594 C 800.899 -0.403789 1.98433 0
M  V30 8595 C 801.227 -1.59416 1.1143 0
M  V30 8596 O 800.482 -1.95042 0.160389 0
M  V30 8597 C 800.781 -0.87642 3.46488 0
M  V30 8598 C 800.447 0.203973 4.50438 0
M  V30 8599 C 799.109 0.500754 4.78587 0
M  V30 8600 C 801.461 0.934396 5.12756 0
M  V30 8601 C 798.789 1.53239 5.66334 0
M  V30 8602 C 801.141 1.9554 6.0162 0
M  V30 8603 C 799.805 2.25905 6.28111 0
M  V30 8604 H 799.075 -0.147757 0.726119 0
M  V30 8605 H 801.722 0.330121 1.88633 0
M  V30 8606 H 800.027 -1.68918 3.53517 0
M  V30 8607 H 801.724 -1.37407 3.76723 0
M  V30 8608 H 798.314 -0.0374917 4.28584 0
M  V30 8609 H 802.498 0.718355 4.91074 0
M  V30 8610 H 797.754 1.77321 5.85122 0
M  V30 8611 H 801.928 2.52642 6.48957 0
M  V30 8612 H 799.555 3.05985 6.959 0
M  V30 8613 N 801.13 -1.57531 -0.0467866 0
M  V30 8614 C 802.078 -2.06455 -1.0714 0
M  V30 8615 C 803.072 -0.974744 -1.38546 0
M  V30 8616 O 804.278 -1.15974 -1.37659 0
M  V30 8617 H 800.653 -0.658607 -0.362962 0
M  V30 8618 H 802.624 -2.91613 -0.632813 0
M  V30 8619 C 801.373 -2.54481 -2.36927 0
M  V30 8620 H 800.696 -3.37946 -2.13617 0
M  V30 8621 H 802.136 -2.92442 -3.07007 0
M  V30 8622 C 800.595 -1.43836 -3.04652 0
M  V30 8623 O 801.125 -0.794531 -3.93764 0
M  V30 8624 N 799.331 -1.17727 -2.65686 0
M  V30 8625 H 798.878 -1.70265 -1.93307 0
M  V30 8626 H 798.836 -0.439051 -3.11319 0
M  V30 8627 N 802.608 0.318715 -1.54344 0
M  V30 8628 C 803.556 1.41254 -1.84798 0
M  V30 8629 C 804.55 1.53325 -0.720256 0
M  V30 8630 O 805.756 1.55653 -0.903992 0
M  V30 8631 H 802.131 0.471468 -0.585851 0
M  V30 8632 H 804.102 1.12795 -2.7626 0
M  V30 8633 C 802.851 2.77395 -2.09637 0
M  V30 8634 H 802.174 2.68881 -2.95876 0
M  V30 8635 H 803.614 3.52987 -2.34896 0
M  V30 8636 C 802.073 3.24948 -0.889398 0
M  V30 8637 O 802.603 4.01573 -0.101063 0
M  V30 8638 N 800.809 2.82051 -0.699684 0
M  V30 8639 H 800.356 2.19858 -1.3424 0
M  V30 8640 H 800.314 3.1422 0.106368 0
M  V30 8641 N 804.086 1.46499 0.581025 0
M  V30 8642 C 805.019 1.51706 1.70472 0
M  V30 8643 C 805.997 0.371036 1.5831 0
M  V30 8644 O 807.181 0.575426 1.79502 0
M  V30 8645 C 804.308 1.3972 3.08538 0
M  V30 8646 C 803.354 2.58525 3.39215 0
M  V30 8647 S 804.187 4.20872 3.311 0
M  V30 8648 C 805.343 4.11398 4.71702 0
M  V30 8649 H 805.576 2.46777 1.65796 0
M  V30 8650 H 803.109 1.34405 0.759908 0
M  V30 8651 H 805.067 1.33492 3.88188 0
M  V30 8652 H 803.728 0.460742 3.10702 0
M  V30 8653 H 802.921 2.46137 4.3981 0
M  V30 8654 H 802.523 2.61752 2.67136 0
M  V30 8655 H 804.815 3.78182 5.62125 0
M  V30 8656 H 805.758 5.11997 4.89147 0
M  V30 8657 H 806.166 3.42624 4.48631 0
M  V30 8658 N 805.565 -0.825799 1.34232 0
M  V30 8659 C 806.475 -1.9684 1.27638 0
M  V30 8660 C 807.491 -1.73018 0.184569 0
M  V30 8661 O 808.667 -1.97172 0.410525 0
M  V30 8662 C 805.732 -3.31084 1.02879 0
M  V30 8663 C 804.793 -3.67933 2.21188 0
M  V30 8664 C 804.026 -4.95772 1.976 0
M  V30 8665 O 804.249 -5.62721 0.93281 0
M  V30 8666 O 803.183 -5.30431 2.84477 0
M  V30 8667 H 807.009 -2.05346 2.23756 0
M  V30 8668 H 804.594 -0.960772 1.1441 0
M  V30 8669 H 806.476 -4.11492 0.908406 0
M  V30 8670 H 805.151 -3.23552 0.0979821 0
M  V30 8671 H 804.058 -2.87981 2.38784 0
M  V30 8672 H 805.391 -3.80147 3.12648 0
M  V30 8673 N 807.043 -1.17915 -1.04565 0
M  V30 8674 C 807.953 -0.916449 -2.15959 0
M  V30 8675 C 808.969 0.117655 -1.73602 0
M  V30 8676 O 810.145 -0.063089 -2.01301 0
M  V30 8677 C 807.21 -0.440262 -3.43893 0
M  V30 8678 C 806.271 -1.54172 -4.00661 0
M  V30 8679 C 805.504 -1.08816 -5.22489 0
M  V30 8680 O 805.727 0.0551547 -5.70373 0
M  V30 8681 O 804.661 -1.88383 -5.7166 0
M  V30 8682 H 808.487 -1.8484 -2.40972 0
M  V30 8683 H 806.072 -0.960552 -1.14428 0
M  V30 8684 H 807.954 -0.182537 -4.21004 0
M  V30 8685 H 806.629 0.46346 -3.20365 0
M  V30 8686 H 805.536 -1.85341 -3.24961 0
M  V30 8687 H 806.869 -2.42139 -4.2852 0
M  V30 8688 N 808.521 1.23394 -0.980386 0
M  V30 8689 C 809.451 2.2717 -0.540024 0
M  V30 8690 C 810.432 1.64659 0.426787 0
M  V30 8691 O 811.617 1.91543 0.320153 0
M  V30 8692 C 808.747 3.46939 0.15836 0
M  V30 8693 C 807.701 4.21802 -0.725732 0
M  V30 8694 C 807.027 5.34597 0.104866 0
M  V30 8695 C 808.327 4.81802 -2.01654 0
M  V30 8696 H 810.021 2.64257 -1.40743 0
M  V30 8697 H 807.567 1.2703 -0.678193 0
M  V30 8698 H 809.52 4.18683 0.477737 0
M  V30 8699 H 808.244 3.08912 1.06022 0
M  V30 8700 H 806.903 3.51875 -1.02857 0
M  V30 8701 H 806.551 4.92812 1.00726 0
M  V30 8702 H 806.251 5.85607 -0.483557 0
M  V30 8703 H 807.775 6.09163 0.418624 0
M  V30 8704 H 809.189 5.45554 -1.76193 0
M  V30 8705 H 807.586 5.43098 -2.55273 0
M  V30 8706 H 808.656 4.02549 -2.70338 0
M  V30 8707 N 809.999 0.752036 1.385 0
M  V30 8708 C 811.248 0.304294 1.99391 0
M  V30 8709 C 811.561 -1.11982 1.60373 0
M  V30 8710 O 812.767 -1.66795 2.14223 0
M  V30 8711 C 811.223 0.493101 3.56506 0
M  V30 8712 C 810.831 1.9262 4.04477 0
M  V30 8713 C 812.575 0.107994 4.24363 0
M  V30 8714 C 810.482 2.06365 5.54227 0
M  V30 8715 H 809.412 0.110024 0.745929 0
M  V30 8716 H 812.063 0.928355 1.58284 0
M  V30 8717 H 810.445 -0.20012 3.95494 0
M  V30 8718 H 811.619 2.65276 3.76783 0
M  V30 8719 H 809.934 2.26608 3.49339 0
M  V30 8720 H 812.531 0.189474 5.34364 0
M  V30 8721 H 812.874 -0.939165 4.05568 0
M  V30 8722 H 813.407 0.753011 3.90608 0
M  V30 8723 H 810.146 3.0933 5.77923 0
M  V30 8724 H 809.666 1.38167 5.83669 0
M  V30 8725 H 811.345 1.85286 6.19902 0
M  V30 8726 N 811.477 -1.49425 0.500989 0
M  V30 8727 C 812.424 -2.29126 -0.277443 0
M  V30 8728 C 813.394 -1.35522 -0.960363 0
M  V30 8729 O 814.579 -1.64479 -0.967027 0
M  V30 8730 C 811.719 -3.18193 -1.33593 0
M  V30 8731 C 810.832 -4.26854 -0.664791 0
M  V30 8732 C 809.967 -5.03137 -1.70372 0
M  V30 8733 C 809.006 -6.03635 -1.01445 0
M  V30 8734 N 808.143 -6.73083 -1.99758 0
M  V30 8735 H 812.983 -2.95187 0.408458 0
M  V30 8736 H 810.52 -1.45546 0.213275 0
M  V30 8737 H 812.478 -3.68207 -1.96161 0
M  V30 8738 H 811.108 -2.54116 -1.9906 0
M  V30 8739 H 810.16 -3.80328 0.0741708 0
M  V30 8740 H 811.472 -4.9865 -0.122197 0
M  V30 8741 H 810.626 -5.5702 -2.40445 0
M  V30 8742 H 809.365 -4.31114 -2.28017 0
M  V30 8743 H 808.37 -5.48984 -0.299496 0
M  V30 8744 H 809.595 -6.77644 -0.444497 0
M  V30 8745 H 807.541 -6.03832 -2.56365 0
M  V30 8746 H 807.458 -7.40855 -1.50565 0
M  V30 8747 H 808.726 -7.3157 -2.69119 0
M  V30 8748 N 812.955 -0.234822 -1.55841 0
M  V30 8749 C 814.232 0.442961 -1.90518 0
M  V30 8750 C 814.612 1.76768 -1.15397 0
M  V30 8751 O 813.96 2.26928 -0.267534 0
M  V30 8752 C 814.17 0.622905 -3.43396 0
M  V30 8753 C 815.518 0.9243 -4.14417 0
M  V30 8754 O 816.542 0.709211 -3.49068 0
M  V30 8755 O 815.401 1.33323 -5.29988 0
M  V30 8756 H 812.495 0.236042 -0.792599 0
M  V30 8757 H 815.041 -0.277992 -1.67408 0
M  V30 8758 H 813.813 -0.310973 -3.90062 0
M  V30 8759 H 813.436 1.39485 -3.7233 0
M  V30 8760 N 814.433 1.57553 0.0384317 0
M  V30 8761 C 815.681 1.88468 0.729672 0
M  V30 8762 C 816.002 0.831302 1.76393 0
M  V30 8763 O 815.272 -0.13622 1.95426 0
M  V30 8764 H 813.852 0.695529 0.272485 0
M  V30 8765 H 816.514 1.94899 0.0066032 0
M  V30 8766 H 815.61 2.8705 1.22511 0
M  V30 8767 N 815.911 -0.310526 1.54511 0
M  V30 8768 C 817.136 -1.07046 1.7764 0
M  V30 8769 C 817.561 -1.80488 0.529696 0
M  V30 8770 O 816.919 -1.73702 -0.519361 0
M  V30 8771 C 816.967 -2.03411 2.97752 0
M  V30 8772 O 816.071 -3.11545 2.7021 0
M  V30 8773 H 815.412 -0.307994 0.588248 0
M  V30 8774 H 817.942 -0.350848 2.01569 0
M  V30 8775 H 817.952 -2.46048 3.2546 0
M  V30 8776 H 816.627 -1.49361 3.88155 0
M  V30 8777 H 815.204 -2.7349 2.53491 0
M  V30 8778 N 817.389 -1.46805 -0.573248 0
M  V30 8779 C 818.614 -1.56433 -1.36175 0
M  V30 8780 C 819.039 -0.209336 -1.86932 0
M  V30 8781 O 818.397 0.812146 -1.62092 0
M  V30 8782 C 818.445 -2.58055 -2.51873 0
M  V30 8783 O 817.549 -2.12214 -3.53609 0
M  V30 8784 H 816.89 -0.526068 -0.405153 0
M  V30 8785 H 819.42 -1.92456 -0.694405 0
M  V30 8786 H 819.43 -2.77966 -2.98662 0
M  V30 8787 H 818.105 -3.56448 -2.14284 0
M  V30 8788 H 816.682 -2.02333 -3.13234 0
M  V30 8789 N 818.867 0.818669 -1.34668 0
M  V30 8790 C 819.814 1.92983 -1.26595 0
M  V30 8791 C 820.784 1.65506 -0.140315 0
M  V30 8792 O 821.969 1.88063 -0.322005 0
M  V30 8793 C 819.109 3.2932 -1.03163 0
M  V30 8794 C 818.222 3.69061 -2.24539 0
M  V30 8795 C 817.357 4.94368 -1.94355 0
M  V30 8796 C 816.396 5.26702 -3.11851 0
M  V30 8797 N 815.533 6.43187 -2.81522 0
M  V30 8798 H 820.373 1.99219 -2.2162 0
M  V30 8799 H 817.91 0.974612 -1.1018 0
M  V30 8800 H 819.868 4.07897 -0.87613 0
M  V30 8801 H 818.498 3.22584 -0.118045 0
M  V30 8802 H 817.55 2.85842 -2.50995 0
M  V30 8803 H 818.862 3.88924 -3.12313 0
M  V30 8804 H 818.016 5.80742 -1.75566 0
M  V30 8805 H 816.755 4.76515 -1.03848 0
M  V30 8806 H 815.76 4.38823 -3.31231 0
M  V30 8807 H 816.985 5.46492 -4.03142 0
M  V30 8808 H 814.931 6.26783 -1.93596 0
M  V30 8809 H 814.848 6.63243 -3.62829 0
M  V30 8810 H 816.116 7.32621 -2.66247 0
M  V30 8811 N 820.346 1.18468 1.03938 0
M  V30 8812 C 821.278 0.870615 2.12021 0
M  V30 8813 C 822.291 -0.132318 1.62261 0
M  V30 8814 O 823.48 0.0956901 1.78243 0
M  V30 8815 C 820.58 0.279727 3.37744 0
M  V30 8816 C 819.753 1.32863 4.16733 0
M  V30 8817 C 818.812 0.753204 5.20781 0
M  V30 8818 O 817.838 1.42825 5.5099 0
M  V30 8819 N 819.04 -0.448664 5.78764 0
M  V30 8820 H 821.805 1.80091 2.39556 0
M  V30 8821 H 819.366 1.08524 1.20142 0
M  V30 8822 H 821.358 -0.118829 4.04526 0
M  V30 8823 H 819.928 -0.554621 3.07641 0
M  V30 8824 H 819.148 1.90245 3.45254 0
M  V30 8825 H 820.436 2.03574 4.66299 0
M  V30 8826 H 819.834 -1.01481 5.56523 0
M  V30 8827 H 818.391 -0.789125 6.47005 0
M  V30 8828 N 821.824 -1.22873 0.986916 0
M  V30 8829 C 822.771 -2.2458 0.532215 0
M  V30 8830 C 823.741 -1.60375 -0.432322 0
M  V30 8831 O 824.926 -1.87775 -0.338416 0
M  V30 8832 C 822.066 -3.44761 -0.152864 0
M  V30 8833 C 821.179 -4.23501 0.852704 0
M  V30 8834 C 820.314 -5.31011 0.14176 0
M  V30 8835 C 819.353 -6.01464 1.1361 0
M  V30 8836 N 818.49 -7.00631 0.453871 0
M  V30 8837 H 823.33 -2.62838 1.40428 0
M  V30 8838 H 820.867 -1.29185 0.703543 0
M  V30 8839 H 822.825 -4.1333 -0.566926 0
M  V30 8840 H 821.455 -3.07284 -0.988756 0
M  V30 8841 H 820.507 -3.54286 1.38512 0
M  V30 8842 H 821.819 -4.72097 1.61014 0
M  V30 8843 H 820.973 -6.05805 -0.329337 0
M  V30 8844 H 819.712 -4.83373 -0.648229 0
M  V30 8845 H 818.717 -5.25456 1.61789 0
M  V30 8846 H 819.942 -6.5119 1.92686 0
M  V30 8847 H 817.888 -6.55235 -0.316791 0
M  V30 8848 H 817.805 -7.47204 1.14986 0
M  V30 8849 H 819.073 -7.795 0.00537823 0
M  V30 8850 N 823.302 -0.75937 -1.38099 0
M  V30 8851 C 824.265 -0.14372 -2.28749 0
M  V30 8852 C 825.265 0.641338 -1.47457 0
M  V30 8853 O 826.455 0.466751 -1.67831 0
M  V30 8854 C 823.587 0.804545 -3.3127 0
M  V30 8855 H 824.78 -0.942663 -2.847 0
M  V30 8856 H 822.333 -0.526757 -1.47156 0
M  V30 8857 H 823.068 1.62895 -2.80421 0
M  V30 8858 H 822.853 0.243939 -3.9134 0
M  V30 8859 H 824.343 1.23111 -3.99041 0
M  V30 8860 N 824.78 1.49157 -0.508906 0
M  V30 8861 C 825.713 2.26056 0.312103 0
M  V30 8862 C 826.691 1.30982 0.963456 0
M  V30 8863 O 827.875 1.60286 0.992002 0
M  V30 8864 C 825.002 3.06555 1.4402 0
M  V30 8865 C 824.048 4.16844 0.902414 0
M  V30 8866 S 824.881 5.35076 -0.213087 0
M  V30 8867 C 826.037 6.19132 0.917985 0
M  V30 8868 H 826.27 2.95343 -0.340559 0
M  V30 8869 H 823.803 1.51569 -0.294331 0
M  V30 8870 H 825.761 3.53517 2.08653 0
M  V30 8871 H 824.422 2.36722 2.0645 0
M  V30 8872 H 823.615 4.72714 1.74806 0
M  V30 8873 H 823.217 3.72513 0.333156 0
M  V30 8874 H 825.509 6.52556 1.82145 0
M  V30 8875 H 826.452 7.06982 0.397724 0
M  V30 8876 H 826.86 5.51839 1.18889 0
M  V30 8877 N 826.258 0.243083 1.55714 0
M  V30 8878 C 827.188 -0.652336 2.24203 0
M  V30 8879 C 828.169 -1.1843 1.221 0
M  V30 8880 O 829.354 -1.22435 1.50743 0
M  V30 8881 C 826.484 -1.85111 2.93856 0
M  V30 8882 C 825.438 -1.45208 4.02615 0
M  V30 8883 C 824.764 -2.73137 4.59674 0
M  V30 8884 C 826.064 -0.625988 5.18535 0
M  V30 8885 H 827.758 -0.0812504 2.9929 0
M  V30 8886 H 825.304 -0.0376388 1.43951 0
M  V30 8887 H 827.257 -2.48314 3.40468 0
M  V30 8888 H 825.981 -2.44751 2.16251 0
M  V30 8889 H 824.64 -0.843406 3.56766 0
M  V30 8890 H 824.288 -3.30967 3.78774 0
M  V30 8891 H 823.988 -2.47163 5.33089 0
M  V30 8892 H 825.512 -3.37245 5.09017 0
M  V30 8893 H 826.926 -1.16223 5.61396 0
M  V30 8894 H 825.323 -0.462465 5.98315 0
M  V30 8895 H 826.393 0.362652 4.83542 0
M  V30 8896 N 827.736 -1.57571 -0.0300757 0
M  V30 8897 C 828.646 -2.09892 -1.04798 0
M  V30 8898 C 829.662 -1.03732 -1.39698 0
M  V30 8899 O 830.838 -1.35461 -1.49038 0
M  V30 8900 C 827.903 -2.56707 -2.33028 0
M  V30 8901 C 826.964 -3.77345 -2.04718 0
M  V30 8902 C 826.197 -4.21918 -3.26834 0
M  V30 8903 O 826.42 -3.66025 -4.37472 0
M  V30 8904 O 825.354 -5.14362 -3.12594 0
M  V30 8905 H 829.18 -2.97023 -0.633344 0
M  V30 8906 H 826.765 -1.47344 -0.246991 0
M  V30 8907 H 828.647 -2.87154 -3.08417 0
M  V30 8908 H 827.322 -1.72688 -2.73789 0
M  V30 8909 H 826.229 -3.51919 -1.26901 0
M  V30 8910 H 827.562 -4.62345 -1.68813 0
M  V30 8911 N 829.214 0.302327 -1.54673 0
M  V30 8912 C 830.46 1.03924 -1.74149 0
M  V30 8913 C 830.793 1.86968 -0.525041 0
M  V30 8914 O 830.068 1.88538 0.477868 0
M  V30 8915 C 830.351 1.94633 -3.02969 0
M  V30 8916 C 830.204 1.14778 -4.34909 0
M  V30 8917 C 831.523 2.93826 -3.27649 0
M  V30 8918 H 828.642 0.376405 -0.633631 0
M  V30 8919 H 831.284 0.314007 -1.87387 0
M  V30 8920 H 829.434 2.56471 -2.91813 0
M  V30 8921 H 831.106 0.552363 -4.57981 0
M  V30 8922 H 829.349 0.450462 -4.31455 0
M  V30 8923 H 830.02 1.81495 -5.21309 0
M  V30 8924 H 832.496 2.42117 -3.38406 0
M  V30 8925 H 831.372 3.54462 -4.19104 0
M  V30 8926 H 831.633 3.67416 -2.45882 0
M  V30 8927 N 830.692 1.47107 0.565454 0
M  V30 8928 C 831.642 1.55384 1.66852 0
M  V30 8929 C 832.626 0.413369 1.55499 0
M  V30 8930 O 833.818 0.66281 1.64121 0
M  V30 8931 C 830.947 1.5634 3.05635 0
M  V30 8932 C 830.033 2.75742 3.22222 0
M  V30 8933 N 830.424 4.00515 3.08903 0
M  V30 8934 C 828.722 2.7233 3.53203 0
M  V30 8935 C 829.423 4.80435 3.27959 0
M  V30 8936 N 828.399 4.1261 3.53913 0
M  V30 8937 H 832.201 2.49635 1.55111 0
M  V30 8938 H 829.715 1.42986 0.769982 0
M  V30 8939 H 831.712 1.60359 3.84825 0
M  V30 8940 H 830.372 0.631785 3.18494 0
M  V30 8941 H 831.383 4.31501 2.86404 0
M  V30 8942 H 828.06 1.8827 3.7264 0
M  V30 8943 H 829.45 5.89334 3.22699 0
M  V30 8944 N 832.17 -0.811516 1.35101 0
M  V30 8945 C 833.117 -1.92308 1.27617 0
M  V30 8946 C 834.087 -1.6543 0.149091 0
M  V30 8947 O 835.272 -1.8789 0.331974 0
M  V30 8948 C 832.412 -3.28768 1.04908 0
M  V30 8949 C 831.525 -3.67865 2.26493 0
M  V30 8950 C 830.66 -4.9333 1.96974 0
M  V30 8951 C 829.699 -5.25041 3.1464 0
M  V30 8952 N 828.836 -6.41685 2.84929 0
M  V30 8953 H 833.676 -1.98041 2.22674 0
M  V30 8954 H 831.213 -0.968755 1.10696 0
M  V30 8955 H 833.171 -4.07426 0.897749 0
M  V30 8956 H 831.801 -3.22517 0.135151 0
M  V30 8957 H 830.853 -2.84507 2.52507 0
M  V30 8958 H 832.165 -3.87263 3.14371 0
M  V30 8959 H 831.319 -5.79803 1.78643 0
M  V30 8960 H 830.058 -4.75958 1.06374 0
M  V30 8961 H 829.063 -4.3706 3.33554 0
M  V30 8962 H 830.288 -5.44346 4.06035 0
M  V30 8963 H 828.234 -6.25747 1.96918 0
M  V30 8964 H 828.151 -6.6131 3.66341 0
M  V30 8965 H 829.419 -7.31198 2.70128 0
M  V30 8966 N 833.648 -1.19017 -1.03309 0
M  V30 8967 C 834.876 -1.01534 -1.80273 0
M  V30 8968 C 835.291 0.43605 -1.83696 0
M  V30 8969 O 834.648 1.30288 -1.27794 0
M  V30 8970 C 834.699 -1.5722 -3.25522 0
M  V30 8971 O 834.42 -2.96677 -3.22358 0
M  V30 8972 C 835.921 -1.4446 -4.19102 0
M  V30 8973 H 833.141 -0.358094 -0.567459 0
M  V30 8974 H 835.685 -1.57738 -1.3015 0
M  V30 8975 H 833.84 -1.05174 -3.7285 0
M  V30 8976 H 834.254 -3.22795 -4.13405 0
M  V30 8977 H 835.728 -1.88209 -5.18923 0
M  V30 8978 H 836.205 -0.394471 -4.37425 0
M  V30 8979 H 836.811 -1.95616 -3.77643 0
M  V30 8980 N 835.127 1.22348 -0.993418 0
M  V30 8981 C 836.057 2.26584 -0.564088 0
M  V30 8982 C 837.038 1.65102 0.409298 0
M  V30 8983 O 838.223 1.91872 0.299819 0
M  V30 8984 C 835.353 3.47087 0.121554 0
M  V30 8985 C 834.307 4.21009 -0.770429 0
M  V30 8986 C 833.633 5.34678 0.0481586 0
M  V30 8987 C 834.933 4.79636 -2.06752 0
M  V30 8988 H 836.627 2.62749 -1.43538 0
M  V30 8989 H 834.173 1.26303 -0.691628 0
M  V30 8990 H 836.126 4.19166 0.433303 0
M  V30 8991 H 834.85 3.1002 1.0274 0
M  V30 8992 H 833.509 3.50764 -1.06583 0
M  V30 8993 H 833.157 4.93852 0.954933 0
M  V30 8994 H 832.857 5.85061 -0.545641 0
M  V30 8995 H 834.381 6.09573 0.353991 0
M  V30 8996 H 835.795 5.43654 -1.81969 0
M  V30 8997 H 834.192 5.4036 -2.61019 0
M  V30 8998 H 835.262 3.99659 -2.74592 0
M  V30 8999 N 836.605 0.766683 1.37694 0
M  V30 9000 C 837.852 0.328714 1.99814 0
M  V30 9001 C 838.18 -1.09333 1.60862 0
M  V30 9002 O 837.435 -1.7657 0.8439 0
M  V30 9003 C 837.734 0.413831 3.54996 0
M  V30 9004 C 837.4 1.7934 4.137 0
M  V30 9005 C 836.062 2.17092 4.29447 0
M  V30 9006 C 838.414 2.69776 4.45949 0
M  V30 9007 C 835.742 3.44726 4.74743 0
M  V30 9008 C 838.094 3.96814 4.92667 0
M  V30 9009 C 836.758 4.34618 5.0662 0
M  V30 9010 H 836.028 0.120285 0.731172 0
M  V30 9011 H 838.675 0.97972 1.64541 0
M  V30 9012 H 836.98 -0.320723 3.90485 0
M  V30 9013 H 838.677 0.0563369 4.0096 0
M  V30 9014 H 835.267 1.48997 4.01868 0
M  V30 9015 H 839.451 2.41871 4.33373 0
M  V30 9016 H 834.707 3.73917 4.83731 0
M  V30 9017 H 838.881 4.67022 5.16588 0
M  V30 9018 H 836.508 5.33578 5.41478 0
M  V30 9019 N 838.083 -1.48885 0.516809 0
M  V30 9020 C 839.331 -2.02088 -0.0220166 0
M  V30 9021 C 839.652 -1.39735 -1.36011 0
M  V30 9022 O 838.922 -0.558119 -1.87781 0
M  V30 9023 H 837.502 -0.746917 -0.0111255 0
M  V30 9024 H 840.164 -1.8274 0.677647 0
M  V30 9025 H 839.26 -3.11786 -0.140067 0
M  V30 9026 N 839.561 -0.251338 -1.55583 0
M  V30 9027 C 840.509 0.662534 -2.22965 0
M  V30 9028 C 841.503 1.17662 -1.21869 0
M  V30 9029 O 842.709 1.133 -1.39868 0
M  V30 9030 H 839.084 0.232151 -0.715269 0
M  V30 9031 H 841.055 0.0711252 -2.98315 0
M  V30 9032 C 839.804 1.84646 -2.94621 0
M  V30 9033 H 839.127 1.46003 -3.72187 0
M  V30 9034 H 840.567 2.46303 -3.45124 0
M  V30 9035 C 839.026 2.72034 -1.98744 0
M  V30 9036 O 839.556 3.71695 -1.52335 0
M  V30 9037 N 837.762 2.38695 -1.6575 0
M  V30 9038 H 837.309 1.57702 -2.03685 0
M  V30 9039 H 837.267 2.9744 -1.01867 0
M  V30 9040 N 841.039 1.57585 0.0217189 0
M  V30 9041 C 841.969 2.10073 1.01939 0
M  V30 9042 C 842.95 1.0049 1.37243 0
M  V30 9043 O 844.135 1.28055 1.45999 0
M  V30 9044 C 841.265 2.58618 2.31806 0
M  V30 9045 C 840.219 3.72531 2.10724 0
M  V30 9046 C 839.545 4.07309 3.46415 0
M  V30 9047 C 840.845 5.00672 1.48743 0
M  V30 9048 H 842.539 2.9368 0.582432 0
M  V30 9049 H 840.085 1.41277 0.278715 0
M  V30 9050 H 842.038 2.9396 3.01936 0
M  V30 9051 H 840.762 1.72104 2.77575 0
M  V30 9052 H 839.421 3.37549 1.43025 0
M  V30 9053 H 839.069 3.17851 3.89846 0
M  V30 9054 H 838.769 4.84042 3.33132 0
M  V30 9055 H 840.293 4.45192 4.17895 0
M  V30 9056 H 841.707 5.33925 2.088 0
M  V30 9057 H 840.104 5.82065 1.46013 0
M  V30 9058 H 841.174 4.82769 0.45408 0
M  V30 9059 N 842.517 -0.29412 1.54831 0
M  V30 9060 C 843.447 -1.36757 1.89261 0
M  V30 9061 C 844.428 -1.52564 0.752214 0
M  V30 9062 O 845.613 -1.65958 1.00855 0
M  V30 9063 C 842.743 -2.73066 2.14597 0
M  V30 9064 C 841.697 -2.72017 3.3044 0
M  V30 9065 C 841.023 -4.11679 3.4121 0
M  V30 9066 C 842.323 -2.33149 4.67375 0
M  V30 9067 H 844.017 -1.08191 2.79169 0
M  V30 9068 H 841.563 -0.519014 1.34321 0
M  V30 9069 H 843.516 -3.48255 2.37269 0
M  V30 9070 H 842.24 -3.03172 1.21467 0
M  V30 9071 H 840.899 -1.99285 3.07703 0
M  V30 9072 H 840.547 -4.38973 2.45584 0
M  V30 9073 H 840.247 -4.11877 4.19084 0
M  V30 9074 H 841.771 -4.88637 3.6615 0
M  V30 9075 H 843.185 -2.98054 4.89731 0
M  V30 9076 H 841.582 -2.44546 5.48012 0
M  V30 9077 H 842.652 -1.28275 4.67626 0
M  V30 9078 N 843.995 -1.47404 -0.557645 0
M  V30 9079 C 845.22 -1.57868 -1.34508 0
M  V30 9080 C 845.645 -0.229151 -1.86699 0
M  V30 9081 O 845.003 0.794908 -1.62944 0
M  V30 9082 C 845.051 -2.60712 -2.49122 0
M  V30 9083 O 844.155 -2.15952 -3.51338 0
M  V30 9084 H 843.496 -0.530335 -0.399551 0
M  V30 9085 H 846.026 -1.93181 -0.673954 0
M  V30 9086 H 846.036 -2.81118 -2.95697 0
M  V30 9087 H 844.711 -3.58701 -2.10491 0
M  V30 9088 H 843.288 -2.05644 -3.11071 0
M  V30 9089 N 845.473 0.80434 -1.35529 0
M  V30 9090 C 846.698 1.598 -1.32207 0
M  V30 9091 C 847.123 1.87848 0.0974226 0
M  V30 9092 O 846.481 1.46728 1.06492 0
M  V30 9093 C 846.529 2.90483 -2.13663 0
M  V30 9094 O 845.633 3.83411 -1.51888 0
M  V30 9095 H 844.974 0.485305 -0.453183 0
M  V30 9096 H 847.504 0.998119 -1.78602 0
M  V30 9097 H 847.514 3.39888 -2.257 0
M  V30 9098 H 846.189 2.69395 -3.16859 0
M  V30 9099 H 844.766 3.41967 -1.48704 0
M  V30 9100 N 846.951 1.19563 1.02676 0
M  V30 9101 C 848.176 1.02556 1.80269 0
M  V30 9102 C 848.601 -0.421056 1.83327 0
M  V30 9103 O 847.959 -1.30279 1.26084 0
M  V30 9104 C 848.007 1.60165 3.23078 0
M  V30 9105 O 847.111 0.832404 4.03912 0
M  V30 9106 H 846.452 0.362354 0.556413 0
M  V30 9107 H 848.982 1.58633 1.29216 0
M  V30 9108 H 848.992 1.6347 3.7382 0
M  V30 9109 H 847.667 2.65454 3.20167 0
M  V30 9110 H 846.244 0.872768 3.62543 0
M  V30 9111 N 848.429 -1.21819 0.999893 0
M  V30 9112 C 849.675 -1.91035 0.680701 0
M  V30 9113 C 850.008 -1.77582 -0.786021 0
M  V30 9114 O 849.283 -1.14917 -1.56921 0
M  V30 9115 C 849.566 -3.43013 1.0961 0
M  V30 9116 C 849.419 -3.65481 2.6219 0
M  V30 9117 C 850.738 -4.35204 0.654616 0
M  V30 9118 H 847.857 -0.693748 0.248763 0
M  V30 9119 H 850.499 -1.43555 1.24466 0
M  V30 9120 H 848.649 -3.83581 0.616253 0
M  V30 9121 H 850.321 -3.34273 3.17899 0
M  V30 9122 H 848.564 -3.09522 3.03938 0
M  V30 9123 H 849.235 -4.71945 2.86307 0
M  V30 9124 H 851.711 -4.0219 1.06688 0
M  V30 9125 H 850.587 -5.40198 0.973492 0
M  V30 9126 H 850.848 -4.3986 -0.444458 0
M  V30 9127 N 849.908 -0.773975 -1.37286 0
M  V30 9128 C 851.133 -0.349561 -2.04433 0
M  V30 9129 C 851.558 1.02082 -1.5799 0
M  V30 9130 O 850.916 1.65458 -0.741172 0
M  V30 9131 C 850.964 -0.404292 -3.58326 0
M  V30 9132 O 850.068 0.594447 -4.08093 0
M  V30 9133 H 849.409 -0.150959 -0.646612 0
M  V30 9134 H 851.939 -1.05079 -1.75555 0
M  V30 9135 H 851.949 -0.262378 -4.07155 0
M  V30 9136 H 850.624 -1.40403 -3.91484 0
M  V30 9137 H 849.201 0.415468 -3.70578 0
M  V30 9138 N 851.386 1.48609 -0.524698 0
M  V30 9139 C 852.349 2.28041 0.230166 0
M  V30 9140 C 853.349 1.35065 0.872584 0
M  V30 9141 O 854.539 1.58007 0.73345 0
M  V30 9142 C 851.671 3.13778 1.33252 0
M  V30 9143 H 852.864 2.96239 -0.467161 0
M  V30 9144 H 850.417 1.53763 -0.280452 0
M  V30 9145 H 851.152 2.502 2.06327 0
M  V30 9146 H 850.937 3.82165 0.877058 0
M  V30 9147 H 852.427 3.7371 1.86362 0
M  V30 9148 N 852.864 0.259585 1.55447 0
M  V30 9149 C 853.794 -0.62852 2.24882 0
M  V30 9150 C 854.775 -1.17128 1.23349 0
M  V30 9151 O 855.96 -1.20829 1.52033 0
M  V30 9152 C 853.09 -1.81983 2.95803 0
M  V30 9153 C 852.044 -1.40929 4.04132 0
M  V30 9154 C 851.37 -2.68246 4.62545 0
M  V30 9155 C 852.67 -0.570956 5.1917 0
M  V30 9156 H 854.364 -0.0495021 2.99359 0
M  V30 9157 H 851.91 -0.0223688 1.43983 0
M  V30 9158 H 853.863 -2.44689 3.43082 0
M  V30 9159 H 852.587 -2.42444 2.18835 0
M  V30 9160 H 851.246 -0.805519 3.57641 0
M  V30 9161 H 850.894 -3.26931 3.82263 0
M  V30 9162 H 850.594 -2.41495 5.35681 0
M  V30 9163 H 852.118 -3.31827 5.12565 0
M  V30 9164 H 853.532 -1.10262 5.62597 0
M  V30 9165 H 851.929 -0.398979 5.98772 0
M  V30 9166 H 852.999 0.413918 4.8313 0
M  V30 9167 N 854.342 -1.57594 -0.0133615 0
M  V30 9168 C 855.619 -1.81173 -0.737273 0
M  V30 9169 C 855.999 -0.861395 -1.92726 0
M  V30 9170 O 855.347 0.0929324 -2.28311 0
M  V30 9171 C 855.557 -3.29314 -1.15557 0
M  V30 9172 C 856.905 -3.94707 -1.56498 0
M  V30 9173 O 857.929 -3.33557 -1.24973 0
M  V30 9174 O 856.788 -5.02402 -2.15069 0
M  V30 9175 H 853.882 -0.745575 -0.357837 0
M  V30 9176 H 856.428 -1.69696 0.0110674 0
M  V30 9177 H 855.2 -3.90096 -0.30677 0
M  V30 9178 H 854.823 -3.45739 -1.96343 0
M  V30 9179 N 855.82 0.285905 -1.54985 0
M  V30 9180 C 857.048 1.03776 -1.78992 0
M  V30 9181 C 857.463 1.80402 -0.556814 0
M  V30 9182 O 856.82 1.76242 0.473801 0
M  V30 9183 C 856.871 2.0065 -3.00702 0
M  V30 9184 O 856.592 1.27131 -4.19249 0
M  V30 9185 C 858.093 2.87753 -3.37214 0
M  V30 9186 H 855.313 0.307126 -0.596586 0
M  V30 9187 H 857.857 0.3206 -2.01971 0
M  V30 9188 H 856.012 2.67847 -2.79887 0
M  V30 9189 H 856.426 1.92316 -4.8797 0
M  V30 9190 H 857.9 3.51548 -4.2558 0
M  V30 9191 H 858.377 3.56848 -2.56039 0
M  V30 9192 H 858.983 2.26065 -3.60242 0
M  V30 9193 N 857.298 1.47698 0.54982 0
M  V30 9194 C 858.547 1.53961 1.30303 0
M  V30 9195 C 858.86 0.209731 1.94472 0
M  V30 9196 O 860.066 0.150418 2.71083 0
M  V30 9197 C 858.522 2.71436 2.36328 0
M  V30 9198 C 858.13 4.10983 1.78316 0
M  V30 9199 C 859.874 2.86996 3.12783 0
M  V30 9200 C 857.781 5.19747 2.82164 0
M  V30 9201 H 856.711 0.573098 0.489975 0
M  V30 9202 H 859.362 1.73989 0.583089 0
M  V30 9203 H 857.744 2.44801 3.11269 0
M  V30 9204 H 858.918 4.47552 1.09697 0
M  V30 9205 H 857.233 4.00371 1.1442 0
M  V30 9206 H 859.83 3.65422 3.90347 0
M  V30 9207 H 860.173 1.95712 3.67427 0
M  V30 9208 H 860.706 3.13436 2.44954 0
M  V30 9209 H 857.445 6.12932 2.32366 0
M  V30 9210 H 856.965 4.87688 3.49171 0
M  V30 9211 H 858.644 5.47014 3.4552 0
M  V30 9212 N 858.776 -0.797141 1.35954 0
M  V30 9213 C 860.004 -1.5858 1.32891 0
M  V30 9214 C 860.419 -1.88578 -0.0915564 0
M  V30 9215 O 859.776 -1.49532 -1.04625 0
M  V30 9216 C 859.827 -2.91143 2.14284 0
M  V30 9217 O 859.548 -2.62442 3.50793 0
M  V30 9218 C 861.049 -3.85476 2.18914 0
M  V30 9219 H 858.269 -0.492111 0.456144 0
M  V30 9220 H 860.813 -0.98994 1.78943 0
M  V30 9221 H 858.968 -3.47219 1.71807 0
M  V30 9222 H 859.382 -3.4715 3.93175 0
M  V30 9223 H 860.856 -4.75574 2.80238 0
M  V30 9224 H 861.333 -4.22758 1.19047 0
M  V30 9225 H 861.939 -3.35334 2.61593 0
M  V30 9226 N 860.254 -1.20106 -1.0204 0
M  V30 9227 C 861.482 -1.0344 -1.79186 0
M  V30 9228 C 861.897 0.416542 -1.84148 0
M  V30 9229 O 861.254 1.28925 -1.29168 0
M  V30 9230 C 861.305 -1.60663 -3.23836 0
M  V30 9231 O 861.026 -3.00079 -3.19193 0
M  V30 9232 C 862.527 -1.48897 -4.17546 0
M  V30 9233 H 859.747 -0.364093 -0.563629 0
M  V30 9234 H 862.291 -1.5911 -1.28469 0
M  V30 9235 H 860.446 -1.09122 -3.71714 0
M  V30 9236 H 860.86 -3.27162 -4.09958 0
M  V30 9237 H 862.334 -1.93703 -5.16898 0
M  V30 9238 H 862.811 -0.440843 -4.36982 0
M  V30 9239 H 863.417 -1.9961 -3.75547 0
M  V30 9240 N 861.732 1.21287 -1.00634 0
M  V30 9241 C 862.978 1.90671 -0.690822 0
M  V30 9242 C 863.311 1.77996 0.776592 0
M  V30 9243 O 862.586 1.15748 1.5631 0
M  V30 9244 C 862.869 3.42426 -1.11428 0
M  V30 9245 C 862.722 3.64086 -2.64124 0
M  V30 9246 C 864.041 4.34851 -0.677686 0
M  V30 9247 H 861.16 0.692419 -0.252439 0
M  V30 9248 H 863.802 1.42893 -1.25226 0
M  V30 9249 H 861.952 3.83249 -0.636586 0
M  V30 9250 H 863.624 3.32582 -3.19667 0
M  V30 9251 H 861.867 3.07906 -3.05576 0
M  V30 9252 H 862.538 4.7042 -2.88806 0
M  V30 9253 H 865.014 4.01619 -1.0882 0
M  V30 9254 H 863.89 5.39675 -1.00213 0
M  V30 9255 H 864.151 4.4009 0.421125 0
M  V30 9256 N 863.21 0.781244 1.36873 0
M  V30 9257 C 864.173 0.180094 2.28491 0
M  V30 9258 C 865.173 -0.617798 1.48458 0
M  V30 9259 O 866.363 -0.439991 1.68552 0
M  V30 9260 C 863.495 -0.751741 3.32508 0
M  V30 9261 H 864.688 0.987837 2.83164 0
M  V30 9262 H 862.241 0.550102 1.463 0
M  V30 9263 H 862.976 -1.58413 2.82977 0
M  V30 9264 H 862.761 -0.181649 3.91679 0
M  V30 9265 H 864.251 -1.16748 4.00949 0
M  V30 9266 N 864.689 -1.48329 0.532571 0
M  V30 9267 C 865.619 -2.32485 -0.217511 0
M  V30 9268 C 866.6 -1.42255 -0.932598 0
M  V30 9269 O 867.785 -1.7114 -0.917873 0
M  V30 9270 C 864.915 -3.23509 -1.26329 0
M  V30 9271 C 863.869 -4.22784 -0.666191 0
M  V30 9272 C 863.195 -5.0296 -1.81482 0
M  V30 9273 C 864.495 -5.21031 0.363813 0
M  V30 9274 H 866.189 -2.95445 0.485014 0
M  V30 9275 H 863.735 -1.42075 0.234694 0
M  V30 9276 H 865.688 -3.81211 -1.79601 0
M  V30 9277 H 864.412 -2.58554 -1.99543 0
M  V30 9278 H 863.071 -3.66272 -0.15498 0
M  V30 9279 H 862.719 -4.34427 -2.5354 0
M  V30 9280 H 862.419 -5.70154 -1.4212 0
M  V30 9281 H 863.943 -5.63514 -2.35126 0
M  V30 9282 H 865.357 -5.73241 -0.0819079 0
M  V30 9283 H 863.754 -5.96292 0.674956 0
M  V30 9284 H 864.824 -4.6801 1.26865 0
M  V30 9285 N 866.167 -0.267825 -1.55308 0
M  V30 9286 C 867.415 0.350343 -1.9904 0
M  V30 9287 C 867.736 1.56924 -1.15758 0
M  V30 9288 O 867.006 1.94358 -0.245336 0
M  V30 9289 H 865.586 0.132435 -0.735167 0
M  V30 9290 H 868.248 -0.371471 -1.91327 0
M  V30 9291 H 867.344 0.645203 -3.05358 0
M  V30 9292 N 867.645 1.57599 0.00500368 0
M  V30 9293 C 868.87 1.95026 0.705663 0
M  V30 9294 C 869.295 0.869643 1.6679 0
M  V30 9295 O 868.653 -0.172659 1.80476 0
M  V30 9296 C 868.701 3.31545 1.4181 0
M  V30 9297 O 867.805 3.25495 2.53232 0
M  V30 9298 H 867.146 0.636808 0.188074 0
M  V30 9299 H 869.676 2.04547 -0.046696 0
M  V30 9300 H 869.686 3.66996 1.78265 0
M  V30 9301 H 868.361 4.09751 0.712543 0
M  V30 9302 H 866.938 3.01714 2.19142 0
M  V30 9303 N 869.123 -0.277682 1.55134 0
M  V30 9304 C 870.053 -1.34742 1.90701 0
M  V30 9305 C 871.034 -1.51757 0.768354 0
M  V30 9306 O 872.219 -1.64879 1.02609 0
M  V30 9307 C 869.349 -2.70775 2.17481 0
M  V30 9308 C 868.303 -2.68497 3.33307 0
M  V30 9309 C 867.629 -4.08037 3.45557 0
M  V30 9310 C 868.929 -2.28178 4.69821 0
M  V30 9311 H 870.623 -1.05224 2.803 0
M  V30 9312 H 868.169 -0.504738 1.34864 0
M  V30 9313 H 870.122 -3.45719 2.40949 0
M  V30 9314 H 868.846 -3.01867 1.24676 0
M  V30 9315 H 867.505 -1.9601 3.09799 0
M  V30 9316 H 867.153 -4.36344 2.50226 0
M  V30 9317 H 866.853 -4.07409 4.23429 0
M  V30 9318 H 868.377 -4.84726 3.71312 0
M  V30 9319 H 869.791 -2.92843 4.92865 0
M  V30 9320 H 868.188 -2.3872 5.50575 0
M  V30 9321 H 869.258 -1.23308 4.6896 0
M  V30 9322 N 870.601 -1.47988 -0.541979 0
M  V30 9323 C 871.829 -1.59034 -1.32347 0
M  V30 9324 C 872.244 -0.246123 -1.87189 0
M  V30 9325 O 871.601 0.762889 -1.6579 0
M  V30 9326 C 871.652 -2.62759 -2.48274 0
M  V30 9327 O 871.373 -3.91963 -1.95695 0
M  V30 9328 C 872.874 -2.84133 -3.4027 0
M  V30 9329 H 870.094 -0.536574 -0.402901 0
M  V30 9330 H 872.638 -1.93725 -0.655045 0
M  V30 9331 H 870.793 -2.3096 -3.11025 0
M  V30 9332 H 871.207 -4.48769 -2.7149 0
M  V30 9333 H 872.681 -3.60538 -4.17991 0
M  V30 9334 H 873.158 -1.92512 -3.9476 0
M  V30 9335 H 873.764 -3.17188 -2.83322 0
M  V30 9336 N 872.079 0.78992 -1.36375 0
M  V30 9337 C 873.304 1.58389 -1.33895 0
M  V30 9338 C 873.729 1.8794 0.0774934 0
M  V30 9339 O 873.087 1.4785 1.0493 0
M  V30 9340 C 873.135 2.88201 -2.16732 0
M  V30 9341 O 872.239 3.81778 -1.55946 0
M  V30 9342 H 871.58 0.480471 -0.458305 0
M  V30 9343 H 874.11 0.979119 -1.79651 0
M  V30 9344 H 874.12 3.37475 -2.29292 0
M  V30 9345 H 872.795 2.66019 -3.19698 0
M  V30 9346 H 871.372 3.40371 -1.52323 0
M  V30 9347 N 873.557 1.20646 1.01402 0
M  V30 9348 C 874.806 1.01242 1.7445 0
M  V30 9349 C 875.119 -0.455732 1.90217 0
M  V30 9350 O 876.325 -0.768951 2.60383 0
M  V30 9351 C 874.781 1.76275 3.13776 0
M  V30 9352 C 874.389 3.27201 3.06013 0
M  V30 9353 C 876.133 1.65248 3.91016 0
M  V30 9354 C 874.04 3.9476 4.40362 0
M  V30 9355 H 872.97 0.375202 0.654018 0
M  V30 9356 H 875.621 1.44292 1.13367 0
M  V30 9357 H 874.003 1.26013 3.75415 0
M  V30 9358 H 875.177 3.84695 2.53665 0
M  V30 9359 H 873.492 3.38669 2.42265 0
M  V30 9360 H 876.089 2.13061 4.90417 0
M  V30 9361 H 876.432 0.609128 4.1182 0
M  V30 9362 H 876.965 2.12937 3.3601 0
M  V30 9363 H 873.704 4.99258 4.24761 0
M  V30 9364 H 873.224 3.42054 4.92706 0
M  V30 9365 H 874.903 3.99159 5.09196 0
M  V30 9366 N 875.035 -1.20752 1.01276 0
M  V30 9367 C 876.446 -1.7175 0.732033 0
M  V30 9368 C 876.797 -1.8131 -0.749733 0
M  V30 9369 O 875.922 -1.47301 -1.58529 0
M  V30 9370 C 876.517 -3.11936 1.32217 0
M  V30 9371 C 875.076 -3.6026 1.09039 0
M  V30 9372 C 874.223 -2.37571 1.43022 0
M  V30 9373 H 877.174 -1.0582 1.1827 0
M  V30 9374 H 877.195 -3.73802 0.710771 0
M  V30 9375 H 876.707 -3.04946 2.40061 0
M  V30 9376 H 874.808 -3.72588 0.0294464 0
M  V30 9377 H 874.921 -4.45295 1.76775 0
M  V30 9378 H 873.285 -2.40128 0.849159 0
M  V30 9379 H 874.068 -2.33225 2.51915 0
M  V30 9380 N 876.513 -0.788492 -1.36457 0
M  V30 9381 C 877.423 -0.187385 -2.3385 0
M  V30 9382 C 878.439 0.659984 -1.60998 0
M  V30 9383 O 879.615 0.575986 -1.92988 0
M  V30 9384 C 876.68 0.668525 -3.40194 0
M  V30 9385 C 875.741 -0.197234 -4.28847 0
M  V30 9386 C 874.974 0.61792 -5.30111 0
M  V30 9387 O 875.197 1.85396 -5.3943 0
M  V30 9388 O 874.131 0.0183016 -6.01897 0
M  V30 9389 H 877.957 -0.992617 -2.87021 0
M  V30 9390 H 875.542 -0.549934 -1.3891 0
M  V30 9391 H 877.424 1.15663 -4.05216 0
M  V30 9392 H 876.099 1.45166 -2.89324 0
M  V30 9393 H 875.006 -0.73207 -3.66867 0
M  V30 9394 H 876.339 -0.943863 -4.83065 0
M  V30 9395 N 877.991 1.48044 -0.54043 0
M  V30 9396 C 878.939 2.31461 0.229862 0
M  V30 9397 C 879.933 1.41884 0.925495 0
M  V30 9398 O 881.139 1.58736 0.848689 0
M  V30 9399 H 877.514 0.746227 0.0929975 0
M  V30 9400 H 879.485 2.94297 -0.493118 0
M  V30 9401 C 878.234 3.24172 1.25729 0
M  V30 9402 H 877.557 3.93052 0.731426 0
M  V30 9403 H 878.997 3.85404 1.76747 0
M  V30 9404 C 877.456 2.4651 2.2964 0
M  V30 9405 O 877.986 2.19742 3.36268 0
M  V30 9406 N 876.192 2.07817 2.03127 0
M  V30 9407 H 875.739 2.29786 1.1643 0
M  V30 9408 H 875.697 1.56168 2.72872 0
M  V30 9409 N 879.47 0.276058 1.55163 0
M  V30 9410 C 880.716 -0.340959 1.99913 0
M  V30 9411 C 881.049 -1.55434 1.16422 0
M  V30 9412 O 880.324 -1.93081 0.234517 0
M  V30 9413 C 880.607 -0.722211 3.52783 0
M  V30 9414 C 880.46 0.498575 4.47028 0
M  V30 9415 C 881.779 -1.5583 4.11589 0
M  V30 9416 H 878.898 -0.122455 0.726756 0
M  V30 9417 H 881.54 0.38319 1.86096 0
M  V30 9418 H 879.69 -1.33919 3.64689 0
M  V30 9419 H 881.362 1.13713 4.47065 0
M  V30 9420 H 879.605 1.13646 4.18649 0
M  V30 9421 H 880.276 0.188041 5.5168 0
M  V30 9422 H 882.752 -1.03722 4.02965 0
M  V30 9423 H 881.628 -1.79387 5.1876 0
M  V30 9424 H 881.889 -2.53963 3.61877 0
M  V30 9425 N 880.948 -1.576 0.00335426 0
M  V30 9426 C 882.173 -1.95398 -0.695311 0
M  V30 9427 C 882.598 -0.878476 -1.66326 0
M  V30 9428 O 881.956 0.163086 -1.80565 0
M  V30 9429 C 882.004 -3.32293 -1.40049 0
M  V30 9430 O 881.108 -3.26834 -2.51502 0
M  V30 9431 H 880.449 -0.637796 -0.184694 0
M  V30 9432 H 882.979 -2.04519 0.057543 0
M  V30 9433 H 882.989 -3.67936 -1.76316 0
M  V30 9434 H 881.664 -4.10123 -0.690803 0
M  V30 9435 H 880.241 -3.02872 -2.17539 0
M  V30 9436 N 882.426 0.269451 -1.5528 0
M  V30 9437 C 883.654 1.01872 -1.80082 0
M  V30 9438 C 884.069 1.79802 -0.575917 0
M  V30 9439 O 883.426 1.76735 0.455081 0
M  V30 9440 C 883.477 1.9745 -3.02813 0
M  V30 9441 O 883.198 1.22677 -4.20573 0
M  V30 9442 C 884.699 2.8416 -3.40247 0
M  V30 9443 H 881.919 0.300781 -0.59981 0
M  V30 9444 H 884.463 0.29916 -2.023 0
M  V30 9445 H 882.618 2.64864 -2.82712 0
M  V30 9446 H 883.032 1.87129 -4.89982 0
M  V30 9447 H 884.506 3.47014 -4.29284 0
M  V30 9448 H 884.983 3.54113 -2.59809 0
M  V30 9449 H 885.589 2.22232 -3.6262 0
M  V30 9450 N 883.904 1.48273 0.534124 0
M  V30 9451 C 884.854 1.58889 1.63519 0
M  V30 9452 C 885.838 0.44626 1.54588 0
M  V30 9453 O 887.03 0.697474 1.62679 0
M  V30 9454 C 884.159 1.62787 3.0225 0
M  V30 9455 C 883.245 2.82515 3.16301 0
M  V30 9456 N 883.636 4.06977 3.00338 0
M  V30 9457 C 881.934 2.7976 3.47347 0
M  V30 9458 C 882.635 4.87283 3.17694 0
M  V30 9459 N 881.611 4.20024 3.45081 0
M  V30 9460 H 885.413 2.52869 1.49781 0
M  V30 9461 H 882.927 1.44587 0.739479 0
M  V30 9462 H 884.924 1.68486 3.81337 0
M  V30 9463 H 883.584 0.699201 3.17082 0
M  V30 9464 H 884.595 4.37479 2.77186 0
M  V30 9465 H 881.272 1.96132 3.68563 0
M  V30 9466 H 882.662 5.96047 3.10126 0
M  V30 9467 N 885.382 -0.782676 1.36792 0
M  V30 9468 C 886.628 -1.54311 1.3159 0
M  V30 9469 C 886.961 -1.93928 -0.102696 0
M  V30 9470 O 886.236 -1.63233 -1.05761 0
M  V30 9471 C 886.519 -2.81561 2.24489 0
M  V30 9472 C 886.372 -2.48268 3.75078 0
M  V30 9473 C 887.691 -3.83428 2.16034 0
M  V30 9474 H 884.81 -0.559828 0.479335 0
M  V30 9475 H 887.452 -0.898717 1.67401 0
M  V30 9476 H 885.602 -3.36549 1.9408 0
M  V30 9477 H 887.274 -1.99279 4.16036 0
M  V30 9478 H 885.517 -1.81116 3.94182 0
M  V30 9479 H 886.188 -3.39183 4.35499 0
M  V30 9480 H 888.664 -3.37905 2.42815 0
M  V30 9481 H 887.54 -4.70204 2.83194 0
M  V30 9482 H 887.801 -4.26887 1.14976 0
M  V30 9483 N 886.86 -1.21182 -1.00761 0
M  V30 9484 C 888.085 -1.05411 -1.78615 0
M  V30 9485 C 888.51 0.391837 -1.83973 0
M  V30 9486 O 887.868 1.28256 -1.28141 0
M  V30 9487 C 887.916 -1.65285 -3.20489 0
M  V30 9488 O 887.02 -0.896558 -4.02536 0
M  V30 9489 H 886.361 -0.37116 -0.550578 0
M  V30 9490 H 888.891 -1.60669 -1.26676 0
M  V30 9491 H 888.901 -1.69397 -3.71172 0
M  V30 9492 H 887.576 -2.70514 -3.15904 0
M  V30 9493 H 886.153 -0.930335 -3.61108 0
M  V30 9494 N 888.338 1.20213 -1.01915 0
M  V30 9495 C 889.27 2.2251 -0.549725 0
M  V30 9496 C 890.283 1.58558 0.369235 0
M  V30 9497 O 891.472 1.77715 0.167176 0
M  V30 9498 C 888.572 3.38189 0.219432 0
M  V30 9499 C 887.745 4.31729 -0.702066 0
M  V30 9500 C 886.804 5.26196 0.0199624 0
M  V30 9501 O 885.83 5.65993 -0.60339 0
M  V30 9502 N 887.032 5.65895 1.29397 0
M  V30 9503 H 889.797 2.63412 -1.42948 0
M  V30 9504 H 887.358 1.3478 -0.896987 0
M  V30 9505 H 889.35 3.98392 0.711763 0
M  V30 9506 H 887.92 2.96156 1.00051 0
M  V30 9507 H 887.14 3.69455 -1.37466 0
M  V30 9508 H 888.428 4.91145 -1.3287 0
M  V30 9509 H 887.826 5.35579 1.8213 0
M  V30 9510 H 886.383 6.28395 1.73098 0
M  V30 9511 N 889.816 0.795718 1.36037 0
M  V30 9512 C 891.065 0.367575 1.98322 0
M  V30 9513 C 891.378 -1.06823 1.63854 0
M  V30 9514 O 892.584 -1.59895 2.19421 0
M  V30 9515 C 891.04 0.606272 3.54757 0
M  V30 9516 C 890.648 2.0539 3.98144 0
M  V30 9517 C 892.392 0.242947 4.23804 0
M  V30 9518 C 890.299 2.23893 5.47381 0
M  V30 9519 H 889.229 0.133699 0.742052 0
M  V30 9520 H 891.88 0.978242 1.5525 0
M  V30 9521 H 890.262 -0.0741957 3.9593 0
M  V30 9522 H 891.436 2.77129 3.68152 0
M  V30 9523 H 889.751 2.37607 3.41953 0
M  V30 9524 H 892.348 0.359382 5.33491 0
M  V30 9525 H 892.691 -0.809661 4.08351 0
M  V30 9526 H 893.224 0.876899 3.88015 0
M  V30 9527 H 889.963 3.27559 5.6779 0
M  V30 9528 H 889.483 1.56666 5.78978 0
M  V30 9529 H 891.162 2.04914 6.13693 0
M  V30 9530 N 891.294 -1.47756 0.548274 0
M  V30 9531 C 892.541 -2.02489 0.0208955 0
M  V30 9532 C 892.869 -1.42356 -1.32533 0
M  V30 9533 O 892.124 -0.565448 -1.87353 0
M  V30 9534 C 892.423 -3.5716 -0.131069 0
M  V30 9535 C 892.089 -4.36169 1.14313 0
M  V30 9536 C 890.751 -4.57476 1.4923 0
M  V30 9537 C 893.103 -4.81801 1.9879 0
M  V30 9538 C 890.431 -5.21662 2.68487 0
M  V30 9539 C 892.783 -5.47303 3.17242 0
M  V30 9540 C 891.447 -5.66844 3.52483 0
M  V30 9541 H 890.717 -0.740961 0.00764621 0
M  V30 9542 H 893.364 -1.77531 0.717987 0
M  V30 9543 H 891.669 -3.8106 -0.911063 0
M  V30 9544 H 893.366 -3.9715 -0.55433 0
M  V30 9545 H 889.956 -4.19858 0.861235 0
M  V30 9546 H 894.14 -4.65126 1.73123 0
M  V30 9547 H 889.396 -5.34987 2.95971 0
M  V30 9548 H 893.57 -5.81626 3.82994 0
M  V30 9549 H 891.197 -6.16352 4.44988 0
M  V30 9550 N 892.772 -0.284283 -1.55015 0
M  V30 9551 C 893.72 0.615091 -2.2432 0
M  V30 9552 C 894.714 1.15051 -1.24337 0
M  V30 9553 O 895.92 1.10308 -1.4224 0
M  V30 9554 H 892.295 0.216927 -0.720033 0
M  V30 9555 H 894.266 0.00783216 -2.98399 0
M  V30 9556 C 893.015 1.78355 -2.98471 0
M  V30 9557 H 892.338 1.38076 -3.752 0
M  V30 9558 H 893.778 2.38927 -3.50271 0
M  V30 9559 C 892.237 2.67757 -2.04469 0
M  V30 9560 O 892.767 3.6838 -1.60185 0
M  V30 9561 N 890.973 2.35125 -1.70776 0
M  V30 9562 H 890.52 1.53346 -2.06985 0
M  V30 9563 H 890.478 2.95212 -1.08153 0
M  V30 9564 N 894.251 1.57596 -0.0117121 0
M  V30 9565 C 895.184 2.04624 1.01016 0
M  V30 9566 C 896.162 0.938437 1.32786 0
M  V30 9567 O 897.346 1.20746 1.44751 0
M  V30 9568 C 894.473 2.45369 2.33477 0
M  V30 9569 C 893.519 3.66998 2.17289 0
M  V30 9570 S 894.352 5.14412 1.48795 0
M  V30 9571 C 895.508 5.58438 2.82662 0
M  V30 9572 H 895.741 2.9098 0.60977 0
M  V30 9573 H 893.274 1.53106 0.199494 0
M  V30 9574 H 895.232 2.69511 3.09635 0
M  V30 9575 H 893.893 1.59391 2.70653 0
M  V30 9576 H 893.086 3.93297 3.15172 0
M  V30 9577 H 892.688 3.42918 1.49275 0
M  V30 9578 H 894.98 5.61614 3.78941 0
M  V30 9579 H 895.923 6.58224 2.61049 0
M  V30 9580 H 896.331 4.86033 2.8711 0
M  V30 9581 N 895.729 -0.261212 1.5542 0
M  V30 9582 C 896.978 -0.989072 1.75785 0
M  V30 9583 C 897.291 -1.8702 0.572961 0
M  V30 9584 O 898.497 -2.63374 0.659289 0
M  V30 9585 C 896.953 -1.80857 3.11157 0
M  V30 9586 C 896.561 -0.975535 4.3725 0
M  V30 9587 C 898.305 -2.53003 3.40866 0
M  V30 9588 C 896.212 -1.7901 5.63657 0
M  V30 9589 H 895.142 -0.373019 0.655266 0
M  V30 9590 H 897.793 -0.244267 1.81867 0
M  V30 9591 H 896.175 -2.59479 2.99144 0
M  V30 9592 H 897.349 -0.232661 4.60212 0
M  V30 9593 H 895.664 -0.368083 4.1477 0
M  V30 9594 H 898.261 -3.14372 4.32521 0
M  V30 9595 H 898.604 -3.23891 2.61535 0
M  V30 9596 H 899.137 -1.81403 3.54031 0
M  V30 9597 H 895.876 -1.12522 6.4577 0
M  V30 9598 H 895.396 -2.50863 5.44819 0
M  V30 9599 H 897.075 -2.36082 6.0239 0
M  V30 9600 N 897.207 -1.48554 -0.526253 0
M  V30 9601 C 898.137 -1.66252 -1.63959 0
M  V30 9602 C 899.118 -0.511351 -1.62232 0
M  V30 9603 O 900.303 -0.744322 -1.7937 0
M  V30 9604 C 897.433 -1.70556 -3.02536 0
M  V30 9605 C 896.387 -2.8521 -3.19123 0
M  V30 9606 C 895.713 -2.74606 -4.58798 0
M  V30 9607 C 897.013 -4.26463 -3.0154 0
M  V30 9608 H 898.707 -2.59459 -1.49404 0
M  V30 9609 H 896.253 -1.24862 -0.717326 0
M  V30 9610 H 898.206 -1.81524 -3.80298 0
M  V30 9611 H 896.93 -0.739297 -3.18123 0
M  V30 9612 H 895.589 -2.73802 -2.43779 0
M  V30 9613 H 895.237 -1.75941 -4.71226 0
M  V30 9614 H 894.937 -3.51544 -4.70841 0
M  V30 9615 H 896.461 -2.87548 -5.38655 0
M  V30 9616 H 897.875 -4.38685 -3.69091 0
M  V30 9617 H 896.272 -5.04428 -3.25073 0
M  V30 9618 H 897.342 -4.42667 -1.97925 0
M  V30 9619 N 898.685 0.775411 -1.37205 0
M  V30 9620 C 899.632 1.88857 -1.32671 0
M  V30 9621 C 900.602 1.64976 -0.192899 0
M  V30 9622 O 901.787 1.86944 -0.381673 0
M  V30 9623 C 898.927 3.25871 -1.13588 0
M  V30 9624 C 898.04 3.61731 -2.36167 0
M  V30 9625 C 897.175 4.87934 -2.09985 0
M  V30 9626 C 896.214 5.16514 -3.2845 0
M  V30 9627 N 895.351 6.33905 -3.01842 0
M  V30 9628 H 900.191 1.92068 -2.27846 0
M  V30 9629 H 897.728 0.939066 -1.13225 0
M  V30 9630 H 899.686 4.04903 -1.00546 0
M  V30 9631 H 898.316 3.22045 -0.220613 0
M  V30 9632 H 897.368 2.77712 -2.59962 0
M  V30 9633 H 898.68 3.78792 -3.24528 0
M  V30 9634 H 897.834 5.74863 -1.93953 0
M  V30 9635 H 896.573 4.7297 -1.18956 0
M  V30 9636 H 895.578 4.28063 -3.45025 0
M  V30 9637 H 896.803 5.33389 -4.20325 0
M  V30 9638 H 894.749 6.20306 -2.13439 0
M  V30 9639 H 894.666 6.51364 -3.83746 0
M  V30 9640 H 895.934 7.23779 -2.8942 0
M  V30 9641 N 900.163 1.21714 1.00117 0
M  V30 9642 C 901.073 0.99597 2.12409 0
M  V30 9643 C 902.089 -0.0531431 1.73919 0
M  V30 9644 O 903.265 0.137757 2.00928 0
M  V30 9645 C 900.33 0.567593 3.42022 0
M  V30 9646 C 899.391 1.68936 3.94663 0
M  V30 9647 C 898.624 1.28133 5.1809 0
M  V30 9648 O 898.847 0.156574 5.70185 0
M  V30 9649 O 897.781 2.0947 5.64275 0
M  V30 9650 H 901.607 1.93657 2.33946 0
M  V30 9651 H 899.192 1.00236 1.10784 0
M  V30 9652 H 901.074 0.338664 4.20037 0
M  V30 9653 H 899.749 -0.34424 3.21864 0
M  V30 9654 H 898.656 1.97274 3.17858 0
M  V30 9655 H 899.989 2.57876 4.19238 0
M  V30 9656 N 901.641 -1.19671 1.02551 0
M  V30 9657 C 902.573 -2.22215 0.561517 0
M  V30 9658 C 903.586 -1.58751 -0.360821 0
M  V30 9659 O 904.775 -1.77802 -0.157749 0
M  V30 9660 C 901.875 -3.383 -0.201494 0
M  V30 9661 C 901.048 -4.3135 0.724952 0
M  V30 9662 C 900.107 -5.26199 0.00794334 0
M  V30 9663 O 899.133 -5.65665 0.633398 0
M  V30 9664 N 900.335 -5.66573 -1.26394 0
M  V30 9665 H 903.1 -2.6265 1.44343 0
M  V30 9666 H 900.661 -1.34303 0.904122 0
M  V30 9667 H 902.653 -3.98764 -0.690625 0
M  V30 9668 H 901.223 -2.96683 -0.98479 0
M  V30 9669 H 900.443 -3.6872 1.39423 0
M  V30 9670 H 901.731 -4.90433 1.35472 0
M  V30 9671 H 901.129 -5.36538 -1.79287 0
M  V30 9672 H 899.686 -6.29304 -1.69763 0
M  V30 9673 N 903.119 -0.802921 -1.35613 0
M  V30 9674 C 904.344 -0.392846 -2.03645 0
M  V30 9675 C 904.769 0.987075 -1.6012 0
M  V30 9676 O 904.127 1.63849 -0.776101 0
M  V30 9677 C 904.175 -0.480208 -3.57388 0
M  V30 9678 O 903.279 0.507751 -4.09262 0
M  V30 9679 H 902.62 -0.16464 -0.643265 0
M  V30 9680 H 905.15 -1.08779 -1.73287 0
M  V30 9681 H 905.16 -0.348683 -4.06507 0
M  V30 9682 H 903.835 -1.48675 -3.88418 0
M  V30 9683 H 902.412 0.336769 -3.71376 0
M  V30 9684 N 904.597 1.47463 -0.556102 0
M  V30 9685 C 905.527 2.32801 0.180497 0
M  V30 9686 C 906.508 1.43721 0.909848 0
M  V30 9687 O 907.693 1.72578 0.89053 0
M  V30 9688 C 904.823 3.25478 1.21167 0
M  V30 9689 C 903.777 4.2379 0.598846 0
M  V30 9690 C 903.103 5.05783 1.73457 0
M  V30 9691 C 904.403 5.20387 -0.446659 0
M  V30 9692 H 906.097 2.94636 -0.531956 0
M  V30 9693 H 903.643 1.41683 -0.257267 0
M  V30 9694 H 905.596 3.8402 1.73513 0
M  V30 9695 H 904.32 2.61695 1.95405 0
M  V30 9696 H 902.979 3.66472 0.0966897 0
M  V30 9697 H 902.627 4.38405 2.46596 0
M  V30 9698 H 902.327 5.72343 1.33031 0
M  V30 9699 H 903.851 5.67183 2.26131 0
M  V30 9700 H 905.265 5.73299 -0.00930019 0
M  V30 9701 H 903.662 5.95143 -0.769735 0
M  V30 9702 H 904.732 4.65932 -1.34295 0
M  V30 9703 N 906.075 0.2925 1.54862 0
M  V30 9704 C 907.038 -0.574423 2.21885 0
M  V30 9705 C 908.038 -1.06791 1.20218 0
M  V30 9706 O 909.228 -0.9653 1.45009 0
M  V30 9707 C 906.36 -1.79438 2.89853 0
M  V30 9708 H 907.553 0.0110319 2.99898 0
M  V30 9709 H 905.106 0.043256 1.5624 0
M  V30 9710 H 905.841 -2.4199 2.15897 0
M  V30 9711 H 905.626 -1.44827 3.64373 0
M  V30 9712 H 907.116 -2.41048 3.41007 0
M  V30 9713 N 907.553 -1.57587 0.0200696 0
M  V30 9714 C 908.516 -2.08595 -0.949767 0
M  V30 9715 C 909.516 -0.999215 -1.25985 0
M  V30 9716 O 910.706 -1.26115 -1.2017 0
M  V30 9717 C 907.838 -2.54424 -2.26895 0
M  V30 9718 H 909.031 -2.95563 -0.508161 0
M  V30 9719 H 906.584 -1.54631 -0.227798 0
M  V30 9720 H 907.319 -1.70758 -2.75703 0
M  V30 9721 H 907.104 -3.3381 -2.05702 0
M  V30 9722 H 908.594 -2.94144 -2.96427 0
M  V30 9723 N 909.032 0.252966 -1.55557 0
M  V30 9724 C 909.942 1.33472 -1.92931 0
M  V30 9725 C 910.958 1.52983 -0.828985 0
M  V30 9726 O 912.134 1.66723 -1.12984 0
M  V30 9727 C 909.199 2.6704 -2.21112 0
M  V30 9728 C 908.26 2.56103 -3.44542 0
M  V30 9729 C 907.493 3.83302 -3.71369 0
M  V30 9730 O 907.716 4.84907 -3.00368 0
M  V30 9731 O 906.65 3.823 -4.64898 0
M  V30 9732 H 910.476 1.04768 -2.85057 0
M  V30 9733 H 908.061 0.453208 -1.4236 0
M  V30 9734 H 909.943 3.45981 -2.40572 0
M  V30 9735 H 908.618 2.95489 -1.32166 0
M  V30 9736 H 907.525 1.7547 -3.30396 0
M  V30 9737 H 908.858 2.32601 -4.33772 0
M  V30 9738 N 910.51 1.48831 0.518367 0
M  V30 9739 C 911.735 1.61379 1.30275 0
M  V30 9740 C 912.16 0.278571 1.86026 0
M  V30 9741 O 911.518 -0.751427 1.64995 0
M  V30 9742 C 911.566 2.67225 2.42122 0
M  V30 9743 O 910.67 2.25192 3.45489 0
M  V30 9744 H 910.011 0.540742 0.385349 0
M  V30 9745 H 912.541 1.949 0.622498 0
M  V30 9746 H 912.551 2.88859 2.8814 0
M  V30 9747 H 911.226 3.64155 2.00907 0
M  V30 9748 H 909.803 2.13819 3.05509 0
M  V30 9749 N 911.988 -0.768124 1.37614 0
M  V30 9750 C 912.935 -1.88151 1.33671 0
M  V30 9751 C 913.905 -1.64871 0.201645 0
M  V30 9752 O 915.09 -1.86739 0.391582 0
M  V30 9753 C 912.23 -3.25264 1.15314 0
M  V30 9754 C 911.343 -3.60473 2.38082 0
M  V30 9755 C 910.478 -4.86814 2.12569 0
M  V30 9756 C 909.517 -5.14765 3.31184 0
M  V30 9757 N 908.654 -6.32295 3.052 0
M  V30 9758 H 913.494 -1.90857 2.28862 0
M  V30 9759 H 911.031 -0.933048 1.13722 0
M  V30 9760 H 912.989 -4.04364 1.02691 0
M  V30 9761 H 911.619 -3.21924 0.237689 0
M  V30 9762 H 910.671 -2.7633 2.61431 0
M  V30 9763 H 911.983 -3.77065 3.26532 0
M  V30 9764 H 911.137 -5.73826 1.96999 0
M  V30 9765 H 909.876 -4.72333 1.21462 0
M  V30 9766 H 908.881 -4.26227 3.4729 0
M  V30 9767 H 910.106 -5.31153 4.23147 0
M  V30 9768 H 908.052 -6.19166 2.16726 0
M  V30 9769 H 907.969 -6.4932 3.87195 0
M  V30 9770 H 909.237 -7.22234 2.93254 0
M  V30 9771 N 913.466 -1.22244 -0.994698 0
M  V30 9772 C 914.694 -1.07218 -1.76952 0
M  V30 9773 C 915.109 0.377388 -1.8499 0
M  V30 9774 O 914.466 1.26157 -1.31874 0
M  V30 9775 C 914.517 -1.67496 -3.20355 0
M  V30 9776 O 914.238 -3.06782 -3.12756 0
M  V30 9777 C 915.739 -1.57721 -4.14294 0
M  V30 9778 H 912.959 -0.375966 -0.555779 0
M  V30 9779 H 915.503 -1.61799 -1.25065 0
M  V30 9780 H 913.658 -1.16982 -3.69315 0
M  V30 9781 H 914.072 -3.35784 -4.02926 0
M  V30 9782 H 915.546 -2.04623 -5.12673 0
M  V30 9783 H 916.023 -0.533434 -4.35949 0
M  V30 9784 H 916.629 -2.07531 -3.71229 0
M  V30 9785 N 914.944 1.19125 -1.03184 0
M  V30 9786 C 916.19 1.89163 -0.731111 0
M  V30 9787 C 916.523 1.79604 0.738662 0
M  V30 9788 O 915.798 1.19037 1.53819 0
M  V30 9789 C 916.081 3.39986 -1.18666 0
M  V30 9790 C 915.934 3.58401 -2.71788 0
M  V30 9791 C 917.253 4.33316 -0.769772 0
M  V30 9792 H 914.372 0.686908 -0.267069 0
M  V30 9793 H 917.014 1.40205 -1.28229 0
M  V30 9794 H 915.164 3.81813 -0.717736 0
M  V30 9795 H 916.836 3.25727 -3.26649 0
M  V30 9796 H 915.079 3.01355 -3.12038 0
M  V30 9797 H 915.75 4.64189 -2.98719 0
M  V30 9798 H 918.226 3.9922 -1.17314 0
M  V30 9799 H 917.102 5.37427 -1.11637 0
M  V30 9800 H 917.363 4.40884 0.327681 0
M  V30 9801 N 916.422 0.810101 1.35185 0
M  V30 9802 C 917.352 0.237453 2.32289 0
M  V30 9803 C 918.333 -0.639032 1.5764 0
M  V30 9804 O 919.518 -0.568575 1.8569 0
M  V30 9805 C 916.648 -0.611964 3.41866 0
M  V30 9806 C 915.602 0.166318 4.27677 0
M  V30 9807 C 914.928 -0.805024 5.28605 0
M  V30 9808 C 916.228 1.36729 5.04086 0
M  V30 9809 H 917.922 1.04874 2.80432 0
M  V30 9810 H 915.468 0.505751 1.34826 0
M  V30 9811 H 917.421 -1.02267 4.08802 0
M  V30 9812 H 916.145 -1.45617 2.92341 0
M  V30 9813 H 914.804 0.558238 3.62325 0
M  V30 9814 H 914.452 -1.64483 4.75347 0
M  V30 9815 H 914.152 -0.288577 5.86891 0
M  V30 9816 H 915.676 -1.21386 5.98413 0
M  V30 9817 H 917.09 1.03128 5.63948 0
M  V30 9818 H 915.487 1.81848 5.71884 0
M  V30 9819 H 916.557 2.15214 4.34524 0
M  V30 9820 N 917.9 -1.47166 0.563914 0
M  V30 9821 C 918.832 -2.28165 -0.217583 0
M  V30 9822 C 919.845 -1.37405 -0.873134 0
M  V30 9823 O 921.034 -1.6217 -0.745857 0
M  V30 9824 C 918.134 -3.11873 -1.32621 0
M  V30 9825 C 917.307 -4.30637 -0.766177 0
M  V30 9826 C 916.366 -4.95889 -1.76014 0
M  V30 9827 O 915.392 -5.54071 -1.3036 0
M  V30 9828 N 916.594 -4.91191 -3.09373 0
M  V30 9829 H 919.359 -2.95876 0.477256 0
M  V30 9830 H 916.92 -1.5687 0.40043 0
M  V30 9831 H 918.912 -3.52392 -1.99003 0
M  V30 9832 H 917.482 -2.46361 -1.92419 0
M  V30 9833 H 916.702 -3.94129 0.0745998 0
M  V30 9834 H 917.99 -5.07442 -0.371472 0
M  V30 9835 H 917.388 -4.45133 -3.49104 0
M  V30 9836 H 915.945 -5.35708 -3.71295 0
M  V30 9837 N 919.378 -0.300708 -1.54705 0
M  V30 9838 C 920.288 0.584996 -2.27189 0
M  V30 9839 C 921.304 1.14866 -1.30697 0
M  V30 9840 O 922.48 1.17351 -1.63679 0
M  V30 9841 C 919.545 1.74076 -2.99831 0
M  V30 9842 C 918.606 1.2112 -4.1186 0
M  V30 9843 C 917.839 2.31188 -4.81028 0
M  V30 9844 O 918.062 3.5108 -4.49554 0
M  V30 9845 O 916.996 1.97897 -5.68437 0
M  V30 9846 H 920.822 -0.00298177 -3.037 0
M  V30 9847 H 918.407 -0.0671802 -1.49249 0
M  V30 9848 H 920.289 2.41413 -3.45395 0
M  V30 9849 H 918.964 2.31535 -2.26215 0
M  V30 9850 H 917.871 0.50357 -3.70695 0
M  V30 9851 H 919.204 0.682046 -4.87452 0
M  V30 9852 N 920.856 1.57574 -0.0284266 0
M  V30 9853 C 921.786 2.1321 0.952039 0
M  V30 9854 C 922.767 1.04806 1.33977 0
M  V30 9855 O 923.952 1.32635 1.41851 0
M  V30 9856 C 921.082 2.65862 2.23461 0
M  V30 9857 C 920.036 3.79047 1.98765 0
M  V30 9858 C 919.362 4.18124 3.33281 0
M  V30 9859 C 920.662 5.05151 1.32739 0
M  V30 9860 H 922.356 2.95385 0.488705 0
M  V30 9861 H 919.902 1.42092 0.233628 0
M  V30 9862 H 921.855 3.03417 2.92431 0
M  V30 9863 H 920.579 1.80848 2.71959 0
M  V30 9864 H 919.238 3.41929 1.32213 0
M  V30 9865 H 918.886 3.30092 3.79537 0
M  V30 9866 H 918.586 4.94396 3.17563 0
M  V30 9867 H 920.11 4.58262 4.0352 0
M  V30 9868 H 921.524 5.40297 1.91708 0
M  V30 9869 H 919.921 5.86416 1.27421 0
M  V30 9870 H 920.991 4.83969 0.300261 0
M  V30 9871 N 922.334 -0.244713 1.55689 0
M  V30 9872 C 923.583 -0.970373 1.76824 0
M  V30 9873 C 923.896 -1.86402 0.592764 0
M  V30 9874 O 925.102 -2.62659 0.687186 0
M  V30 9875 C 923.558 -1.77547 3.13058 0
M  V30 9876 C 923.166 -0.929104 4.3826 0
M  V30 9877 C 924.91 -2.49373 3.43531 0
M  V30 9878 C 922.817 -1.73021 5.65524 0
M  V30 9879 H 921.747 -0.366048 0.659185 0
M  V30 9880 H 924.398 -0.224964 1.82116 0
M  V30 9881 H 922.78 -2.56291 3.01879 0
M  V30 9882 H 923.954 -0.183836 4.60433 0
M  V30 9883 H 922.269 -0.324071 4.15137 0
M  V30 9884 H 924.866 -3.09767 4.35831 0
M  V30 9885 H 925.209 -3.21099 2.64955 0
M  V30 9886 H 925.742 -1.77637 3.55935 0
M  V30 9887 H 922.481 -1.05666 6.46927 0
M  V30 9888 H 922.001 -2.45071 5.47449 0
M  V30 9889 H 923.68 -2.2968 6.0486 0
M  V30 9890 N 923.813 -1.49104 -0.510467 0
M  V30 9891 C 924.761 -1.65547 -1.63392 0
M  V30 9892 C 925.755 -0.521522 -1.61172 0
M  V30 9893 O 926.961 -0.700865 -1.65795 0
M  V30 9894 H 923.336 -0.521843 -0.541464 0
M  V30 9895 H 925.307 -2.59864 -1.46673 0
M  V30 9896 C 924.056 -1.73051 -3.01577 0
M  V30 9897 H 923.379 -2.59676 -3.03987 0
M  V30 9898 H 924.819 -1.88594 -3.79748 0
M  V30 9899 C 923.278 -0.47328 -3.33559 0
M  V30 9900 O 923.808 0.405239 -3.99651 0
M  V30 9901 N 922.014 -0.339074 -2.88615 0
M  V30 9902 H 921.561 -1.05497 -2.35007 0
M  V30 9903 H 921.519 0.501061 -3.10382 0
M  V30 9904 N 925.291 0.760815 -1.38019 0
M  V30 9905 C 926.537 1.52198 -1.34028 0
M  V30 9906 C 926.87 1.94067 0.0718309 0
M  V30 9907 O 926.145 1.64895 1.0315 0
M  V30 9908 C 926.428 2.77954 -2.2894 0
M  V30 9909 C 926.281 2.42269 -3.7898 0
M  V30 9910 C 927.6 3.79943 -2.22107 0
M  V30 9911 H 924.719 0.552131 -0.488181 0
M  V30 9912 H 927.361 0.871971 -1.6881 0
M  V30 9913 H 925.511 3.33419 -1.9941 0
M  V30 9914 H 927.183 1.92635 -4.19153 0
M  V30 9915 H 925.426 1.74822 -3.97014 0
M  V30 9916 H 926.097 3.32211 -4.4084 0
M  V30 9917 H 928.573 3.34 -2.4816 0
M  V30 9918 H 927.449 4.6564 -2.90639 0
M  V30 9919 H 927.71 4.25004 -1.21753 0
M  V30 9920 N 926.769 1.22769 0.988202 0
M  V30 9921 C 927.699 1.02627 2.09738 0
M  V30 9922 C 928.68 -0.0543211 1.70013 0
M  V30 9923 O 929.865 0.108811 1.93895 0
M  V30 9924 C 926.995 0.608302 3.41931 0
M  V30 9925 C 925.949 1.63536 3.95525 0
M  V30 9926 C 925.275 1.07308 5.23822 0
M  V30 9927 C 926.575 3.02649 4.25677 0
M  V30 9928 H 928.269 1.954 2.26847 0
M  V30 9929 H 925.815 0.940888 1.09011 0
M  V30 9930 H 927.768 0.454478 4.18942 0
M  V30 9931 H 926.492 -0.355095 3.24664 0
M  V30 9932 H 925.151 1.77704 3.20651 0
M  V30 9933 H 924.799 0.100894 5.02899 0
M  V30 9934 H 924.499 1.75925 5.60646 0
M  V30 9935 H 926.023 0.930938 6.03462 0
M  V30 9936 H 927.437 2.91828 4.93467 0
M  V30 9937 H 925.834 3.68434 4.73684 0
M  V30 9938 H 926.904 3.52228 3.33262 0
M  V30 9939 N 928.247 -1.18576 1.03814 0
M  V30 9940 C 929.194 -2.2212 0.626988 0
M  V30 9941 C 930.164 -1.62064 -0.363912 0
M  V30 9942 O 931.349 -1.89041 -0.258469 0
M  V30 9943 C 928.489 -3.45099 -0.00650133 0
M  V30 9944 C 927.602 -4.19503 1.03156 0
M  V30 9945 C 926.737 -5.29932 0.366852 0
M  V30 9946 C 925.776 -5.96104 1.39018 0
M  V30 9947 N 924.913 -6.98076 0.750625 0
M  V30 9948 H 929.753 -2.56646 1.51449 0
M  V30 9949 H 927.29 -1.26084 0.757702 0
M  V30 9950 H 929.248 -4.15363 -0.391108 0
M  V30 9951 H 927.878 -3.11201 -0.857536 0
M  V30 9952 H 926.93 -3.48092 1.53414 0
M  V30 9953 H 928.242 -4.64843 1.80893 0
M  V30 9954 H 927.396 -6.06657 -0.0720979 0
M  V30 9955 H 926.135 -4.85687 -0.442631 0
M  V30 9956 H 925.14 -5.18122 1.8393 0
M  V30 9957 H 926.365 -6.42432 2.20132 0
M  V30 9958 H 924.311 -6.55989 -0.0385981 0
M  V30 9959 H 924.228 -7.41655 1.46574 0
M  V30 9960 H 925.496 -7.78776 0.335986 0
M  V30 9961 N 929.725 -0.817259 -1.34754 0
M  V30 9962 C 930.953 -0.415451 -2.02686 0
M  V30 9963 C 931.368 0.97688 -1.61563 0
M  V30 9964 O 930.725 1.63125 -0.818321 0
M  V30 9965 C 930.776 -0.501486 -3.58005 0
M  V30 9966 O 930.497 -1.83893 -3.97637 0
M  V30 9967 C 931.998 -0.0938504 -4.43201 0
M  V30 9968 H 929.218 -0.16742 -0.649778 0
M  V30 9969 H 931.762 -1.10384 -1.7215 0
M  V30 9970 H 929.917 0.138766 -3.87151 0
M  V30 9971 H 930.331 -1.8092 -4.92309 0
M  V30 9972 H 931.805 -0.205145 -5.51619 0
M  V30 9973 H 932.282 0.962011 -4.28535 0
M  V30 9974 H 932.888 -0.707677 -4.19371 0
M  V30 9975 N 931.203 1.46865 -0.571711 0
M  V30 9976 C 932.48 1.95596 0.0132445 0
M  V30 9977 C 932.86 1.51438 1.47071 0
M  V30 9978 O 932.208 0.759917 2.15494 0
M  V30 9979 C 932.418 3.48689 -0.147335 0
M  V30 9980 C 933.766 4.24599 -0.00946329 0
M  V30 9981 O 934.79 3.5612 -0.0756112 0
M  V30 9982 O 933.649 5.46332 0.135361 0
M  V30 9983 H 930.743 0.825102 0.0560039 0
M  V30 9984 H 933.289 1.57199 -0.639256 0
M  V30 9985 H 932.061 3.73681 -1.16096 0
M  V30 9986 H 931.684 3.93887 0.542109 0
M  V30 9987 N 932.681 0.308908 1.54543 0
M  V30 9988 C 933.611 -0.556657 2.26768 0
M  V30 9989 C 934.592 -1.13145 1.27013 0
M  V30 9990 O 935.777 -1.15931 1.558 0
M  V30 9991 C 932.907 -1.72481 3.01443 0
M  V30 9992 C 931.861 -1.28001 4.08411 0
M  V30 9993 C 931.187 -2.53395 4.70845 0
M  V30 9994 C 932.487 -0.405497 5.20724 0
M  V30 9995 H 934.181 0.0457618 2.99365 0
M  V30 9996 H 931.727 0.0234495 1.43981 0
M  V30 9997 H 933.68 -2.3365 3.50693 0
M  V30 9998 H 932.404 -2.35359 2.26437 0
M  V30 9999 H 931.063 -0.69133 3.60022 0
M  V30 10000 H 930.711 -3.14604 3.92471 0
M  V30 10001 H 930.411 -2.2433 5.43093 0
M  V30 10002 H 931.935 -3.15352 5.22863 0
M  V30 10003 H 933.349 -0.923076 5.6582 0
M  V30 10004 H 931.746 -0.208282 5.99738 0
M  V30 10005 H 932.816 0.567412 4.81569 0
M  V30 10006 N 934.159 -1.57557 0.0367827 0
M  V30 10007 C 935.089 -2.13712 -0.940719 0
M  V30 10008 C 936.07 -1.05515 -1.33419 0
M  V30 10009 O 937.255 -1.33385 -1.41146 0
M  V30 10010 C 934.385 -2.67043 -2.22048 0
M  V30 10011 C 933.339 -3.80096 -1.96752 0
M  V30 10012 C 932.665 -4.19886 -3.31059 0
M  V30 10013 C 933.965 -5.05848 -1.30058 0
M  V30 10014 H 935.659 -2.9564 -0.473033 0
M  V30 10015 H 933.205 -1.42214 -0.226089 0
M  V30 10016 H 935.158 -3.04964 -2.90818 0
M  V30 10017 H 933.882 -1.82287 -2.70996 0
M  V30 10018 H 932.541 -3.42625 -1.30398 0
M  V30 10019 H 932.189 -3.32101 -3.77781 0
M  V30 10020 H 931.889 -4.96073 -3.14937 0
M  V30 10021 H 933.413 -4.60395 -4.01084 0
M  V30 10022 H 934.827 -5.41306 -1.8884 0
M  V30 10023 H 933.224 -5.87084 -1.24309 0
M  V30 10024 H 934.294 -4.84122 -0.274591 0
M  V30 10025 N 935.637 0.236453 -1.55816 0
M  V30 10026 C 936.862 0.98449 -1.82545 0
M  V30 10027 C 937.287 1.77755 -0.615206 0
M  V30 10028 O 936.645 1.75982 0.435895 0
M  V30 10029 C 936.693 1.88973 -3.07118 0
M  V30 10030 O 935.797 2.98298 -2.84766 0
M  V30 10031 H 935.138 0.279577 -0.602273 0
M  V30 10032 H 937.668 0.254277 -2.03014 0
M  V30 10033 H 937.678 2.3024 -3.36829 0
M  V30 10034 H 936.353 1.30671 -3.94839 0
M  V30 10035 H 934.93 2.61085 -2.6625 0
M  V30 10036 N 937.115 1.49373 0.502552 0
M  V30 10037 C 938.34 1.62752 1.28556 0
M  V30 10038 C 938.765 0.298285 1.8572 0
M  V30 10039 O 938.123 -0.733885 1.65782 0
M  V30 10040 C 938.171 2.69778 2.39274 0
M  V30 10041 O 937.275 2.28843 3.43081 0
M  V30 10042 H 936.616 0.544799 0.379592 0
M  V30 10043 H 939.146 1.9555 0.601792 0
M  V30 10044 H 939.156 2.91899 2.8506 0
M  V30 10045 H 937.831 3.66266 1.97033 0
M  V30 10046 H 936.408 2.17047 3.03224 0
M  V30 10047 N 938.594 -0.753485 1.38421 0
M  V30 10048 C 939.524 -1.8808 1.38377 0
M  V30 10049 C 940.505 -1.68258 0.249664 0
M  V30 10050 O 941.69 -1.88848 0.45276 0
M  V30 10051 C 938.82 -3.25608 1.20818 0
M  V30 10052 C 937.774 -3.60032 2.31433 0
M  V30 10053 C 937.1 -4.96297 1.9898 0
M  V30 10054 C 938.4 -3.64898 3.73694 0
M  V30 10055 H 940.094 -1.88375 2.32713 0
M  V30 10056 H 937.64 -0.90489 1.12017 0
M  V30 10057 H 939.593 -4.04127 1.19412 0
M  V30 10058 H 938.317 -3.25793 0.229433 0
M  V30 10059 H 936.976 -2.83831 2.32025 0
M  V30 10060 H 936.624 -4.93043 0.995889 0
M  V30 10061 H 936.324 -5.20298 2.73063 0
M  V30 10062 H 937.848 -5.77196 1.99193 0
M  V30 10063 H 939.262 -4.33531 3.75132 0
M  V30 10064 H 937.659 -4.00407 4.46983 0
M  V30 10065 H 938.729 -2.65124 4.06002 0
M  V30 10066 N 940.072 -1.23292 -0.981677 0
M  V30 10067 C 940.982 -1.02964 -2.10798 0
M  V30 10068 C 941.998 0.0254674 -1.73981 0
M  V30 10069 O 943.174 -0.169706 -2.00684 0
M  V30 10070 C 940.239 -0.621934 -3.41076 0
M  V30 10071 C 939.3 -1.75194 -3.91926 0
M  V30 10072 C 938.533 -1.36359 -5.15986 0
M  V30 10073 O 938.756 -0.247265 -5.69864 0
M  V30 10074 O 937.69 -2.18421 -5.60871 0
M  V30 10075 H 941.516 -1.97354 -2.30836 0
M  V30 10076 H 939.101 -1.01986 -1.09175 0
M  V30 10077 H 940.983 -0.405446 -4.19445 0
M  V30 10078 H 939.658 0.29299 -3.22371 0
M  V30 10079 H 938.565 -2.02305 -3.1468 0
M  V30 10080 H 939.898 -2.64513 -4.15083 0
M  V30 10081 N 941.55 1.18024 -1.04442 0
M  V30 10082 C 942.483 2.20623 -0.583171 0
M  V30 10083 C 943.461 1.57994 0.384262 0
M  V30 10084 O 944.645 1.86135 0.297673 0
M  V30 10085 C 941.772 3.38378 0.147561 0
M  V30 10086 C 940.818 4.19423 -0.773711 0
M  V30 10087 S 941.651 4.85534 -2.25869 0
M  V30 10088 C 942.807 6.06686 -1.53891 0
M  V30 10089 H 943.04 2.59406 -1.45244 0
M  V30 10090 H 940.573 1.28518 -0.855708 0
M  V30 10091 H 942.531 4.06621 0.562988 0
M  V30 10092 H 941.192 2.97998 0.992765 0
M  V30 10093 H 940.385 5.03568 -0.208694 0
M  V30 10094 H 939.987 3.56579 -1.12816 0
M  V30 10095 H 942.279 6.72347 -0.834045 0
M  V30 10096 H 943.222 6.67702 -2.35755 0
M  V30 10097 H 943.63 5.55031 -1.02961 0
M  V30 10098 N 943.028 0.824394 1.34319 0
M  V30 10099 C 944.277 0.40956 1.97498 0
M  V30 10100 C 944.59 -1.03323 1.66083 0
M  V30 10101 O 945.796 -1.55205 2.22764 0
M  V30 10102 C 944.252 0.681384 3.53391 0
M  V30 10103 C 943.86 2.1379 3.93698 0
M  V30 10104 C 945.604 0.332788 4.23194 0
M  V30 10105 C 943.511 2.35453 5.42509 0
M  V30 10106 H 942.441 0.149409 0.739049 0
M  V30 10107 H 945.092 1.01095 1.5314 0
M  V30 10108 H 943.474 0.00980375 3.95999 0
M  V30 10109 H 944.648 2.84876 3.62191 0
M  V30 10110 H 942.963 2.44807 3.36836 0
M  V30 10111 H 945.56 0.472463 5.32609 0
M  V30 10112 H 945.903 -0.722862 4.09976 0
M  V30 10113 H 946.436 0.959005 3.86067 0
M  V30 10114 H 943.175 3.39529 5.60714 0
M  V30 10115 H 942.695 1.68912 5.75525 0
M  V30 10116 H 944.374 2.17885 6.09209 0
M  V30 10117 N 944.506 -1.46559 0.579492 0
M  V30 10118 C 945.436 -2.33059 -0.143437 0
M  V30 10119 C 946.417 -1.4515 -0.886868 0
M  V30 10120 O 947.602 -1.73973 -0.862961 0
M  V30 10121 C 944.732 -3.27364 -1.15973 0
M  V30 10122 C 943.686 -4.24689 -0.531348 0
M  V30 10123 C 943.012 -5.08479 -1.65388 0
M  V30 10124 C 944.312 -5.1961 0.529391 0
M  V30 10125 H 946.006 -2.93753 0.578762 0
M  V30 10126 H 943.552 -1.41256 0.279775 0
M  V30 10127 H 945.505 -3.86732 -1.67382 0
M  V30 10128 H 944.229 -2.64771 -1.91217 0
M  V30 10129 H 942.888 -3.6658 -0.0383749 0
M  V30 10130 H 942.536 -4.42273 -2.3959 0
M  V30 10131 H 942.236 -5.74387 -1.23909 0
M  V30 10132 H 943.76 -5.70709 -2.17079 0
M  V30 10133 H 945.174 -5.73212 0.100506 0
M  V30 10134 H 943.571 -5.93843 0.86432 0
M  V30 10135 H 944.641 -4.63737 1.4169 0
M  V30 10136 N 945.984 -0.3171 -1.54377 0
M  V30 10137 C 947.209 0.292311 -2.0533 0
M  V30 10138 C 947.634 1.45503 -1.19207 0
M  V30 10139 O 946.992 1.80197 -0.199721 0
M  V30 10140 C 947.04 0.710787 -3.53525 0
M  V30 10141 O 946.144 1.81387 -3.70368 0
M  V30 10142 H 945.485 0.0539976 -0.661801 0
M  V30 10143 H 948.015 -0.463629 -1.99278 0
M  V30 10144 H 948.025 0.995216 -3.95676 0
M  V30 10145 H 946.7 -0.139668 -4.15665 0
M  V30 10146 H 945.277 1.52875 -3.40123 0
M  V30 10147 N 947.462 1.57535 -0.0451378 0
M  V30 10148 C 948.873 1.80116 0.491426 0
M  V30 10149 C 949.224 0.956846 1.71286 0
M  V30 10150 O 948.349 0.17173 2.15718 0
M  V30 10151 C 948.944 3.26674 0.898315 0
M  V30 10152 C 947.503 3.50194 1.37989 0
M  V30 10153 C 946.65 2.75054 0.352202 0
M  V30 10154 H 949.601 1.56368 -0.271065 0
M  V30 10155 H 949.622 3.37263 1.76164 0
M  V30 10156 H 949.134 3.88099 0.009141 0
M  V30 10157 H 947.235 2.94041 2.28846 0
M  V30 10158 H 947.348 4.58909 1.37622 0
M  V30 10159 H 945.712 2.4101 0.823784 0
M  V30 10160 H 946.495 3.39203 -0.528782 0
M  V30 10161 N 948.94 -0.228186 1.55939 0
M  V30 10162 C 950.168 -0.970618 1.8272 0
M  V30 10163 C 950.583 -1.78212 0.623385 0
M  V30 10164 O 949.94 -1.77879 -0.408063 0
M  V30 10165 C 949.991 -1.89352 3.07942 0
M  V30 10166 O 949.712 -1.11483 4.23678 0
M  V30 10167 C 951.213 -2.75039 3.47661 0
M  V30 10168 H 948.433 -0.284772 0.607574 0
M  V30 10169 H 950.977 -0.245419 2.03022 0
M  V30 10170 H 949.132 -2.57275 2.89635 0
M  V30 10171 H 949.546 -1.74073 4.94772 0
M  V30 10172 H 951.02 -3.35511 4.38334 0
M  V30 10173 H 951.497 -3.471 2.69106 0
M  V30 10174 H 952.103 -2.1254 3.68384 0
M  V30 10175 N 950.418 -1.49637 -0.494624 0
M  V30 10176 C 951.664 -1.59681 -1.25019 0
M  V30 10177 C 951.997 -0.285511 -1.9209 0
M  V30 10178 O 951.272 0.711398 -1.81023 0
M  V30 10179 C 951.555 -2.76058 -2.31222 0
M  V30 10180 C 951.408 -4.17002 -1.68611 0
M  V30 10181 C 952.727 -2.88056 -3.32734 0
M  V30 10182 H 949.846 -0.581209 -0.453172 0
M  V30 10183 H 952.488 -1.81944 -0.547391 0
M  V30 10184 H 950.638 -2.57207 -2.91164 0
M  V30 10185 H 952.31 -4.47385 -1.12447 0
M  V30 10186 H 950.553 -4.22352 -0.989991 0
M  V30 10187 H 951.224 -4.94316 -2.45674 0
M  V30 10188 H 953.7 -3.05237 -2.82789 0
M  V30 10189 H 952.576 -3.71151 -4.04399 0
M  V30 10190 H 952.837 -1.97676 -3.95445 0
M  V30 10191 N 951.896 0.746133 -1.38819 0
M  V30 10192 C 953.142 1.50768 -1.35635 0
M  V30 10193 C 953.475 1.94132 0.0512435 0
M  V30 10194 O 952.75 1.65979 1.01396 0
M  V30 10195 C 953.033 2.7551 -2.31875 0
M  V30 10196 C 952.886 2.38236 -3.81528 0
M  V30 10197 C 954.205 3.77566 -2.26124 0
M  V30 10198 H 951.324 0.546922 -0.494009 0
M  V30 10199 H 953.966 0.854017 -1.69725 0
M  V30 10200 H 952.116 3.31285 -2.02935 0
M  V30 10201 H 953.788 1.88178 -4.21173 0
M  V30 10202 H 952.031 1.70601 -3.98846 0
M  V30 10203 H 952.702 3.27517 -4.44339 0
M  V30 10204 H 955.178 3.31349 -2.51689 0
M  V30 10205 H 954.054 4.62531 -2.95561 0
M  V30 10206 H 954.315 4.23689 -1.26254 0
M  V30 10207 N 953.375 1.23811 0.975125 0
M  V30 10208 C 954.6 1.10109 1.75757 0
M  V30 10209 C 955.025 -0.342922 1.84948 0
M  V30 10210 O 954.383 -1.24814 1.31496 0
M  V30 10211 C 954.431 1.73724 3.15994 0
M  V30 10212 O 953.535 1.00297 4.00018 0
M  V30 10213 H 952.876 0.385627 0.540544 0
M  V30 10214 H 955.406 1.63971 1.22372 0
M  V30 10215 H 955.416 1.79178 3.6655 0
M  V30 10216 H 954.091 2.78794 3.0862 0
M  V30 10217 H 952.668 1.02575 3.58515 0
M  V30 10218 N 954.853 -1.17469 1.05066 0
M  V30 10219 C 956.102 -1.87032 0.755114 0
M  V30 10220 C 956.415 -1.81844 -0.720572 0
M  V30 10221 O 957.621 -2.46866 -1.13002 0
M  V30 10222 C 956.077 -3.35581 1.30052 0
M  V30 10223 C 955.685 -3.49274 2.80556 0
M  V30 10224 C 957.429 -4.1048 1.08196 0
M  V30 10225 C 955.336 -4.91838 3.28404 0
M  V30 10226 H 954.266 -0.70057 0.278779 0
M  V30 10227 H 956.917 -1.32663 1.26779 0
M  V30 10228 H 955.299 -3.89479 0.715667 0
M  V30 10229 H 956.473 -3.05598 3.44886 0
M  V30 10230 H 954.788 -2.87793 3.00939 0
M  V30 10231 H 957.385 -5.15652 1.41447 0
M  V30 10232 H 957.728 -4.16295 0.0196603 0
M  V30 10233 H 958.261 -3.62784 1.63195 0
M  V30 10234 H 955 -4.91196 4.34058 0
M  V30 10235 H 954.52 -5.36189 2.68815 0
M  V30 10236 H 956.199 -5.60602 3.23009 0
M  V30 10237 N 956.331 -0.831506 -1.3388 0
M  V30 10238 C 957.261 -0.274378 -2.31882 0
M  V30 10239 C 958.242 0.613872 -1.58637 0
M  V30 10240 O 959.427 0.538961 -1.86571 0
M  V30 10241 C 956.557 0.557498 -3.42796 0
M  V30 10242 C 955.511 -0.234337 -4.27358 0
M  V30 10243 C 954.837 0.720825 -5.29819 0
M  V30 10244 C 956.137 -1.44732 -5.01847 0
M  V30 10245 H 957.831 -1.09322 -2.78728 0
M  V30 10246 H 955.377 -0.527136 -1.34005 0
M  V30 10247 H 957.33 0.957501 -4.10378 0
M  V30 10248 H 956.054 1.40947 -2.94621 0
M  V30 10249 H 954.713 -0.61581 -3.61391 0
M  V30 10250 H 954.361 1.569 -4.77903 0
M  V30 10251 H 954.061 0.195171 -5.87276 0
M  V30 10252 H 955.585 1.1185 -6.00268 0
M  V30 10253 H 956.999 -1.12087 -5.62236 0
M  V30 10254 H 955.396 -1.90923 -5.68919 0
M  V30 10255 H 956.466 -2.22099 -4.31045 0
M  V30 10256 N 957.809 1.4625 -0.587256 0
M  V30 10257 C 958.756 2.30354 0.143384 0
M  V30 10258 C 959.726 1.40891 0.879716 0
M  V30 10259 O 960.911 1.69837 0.869486 0
M  V30 10260 C 958.051 3.25441 1.14815 0
M  V30 10261 C 957.164 4.30004 0.414792 0
M  V30 10262 C 956.299 5.12214 1.40748 0
M  V30 10263 C 955.338 6.08523 0.660786 0
M  V30 10264 N 954.475 6.83585 1.60176 0
M  V30 10265 H 959.315 2.92304 -0.579866 0
M  V30 10266 H 956.852 1.44055 -0.29777 0
M  V30 10267 H 958.81 3.79018 1.7436 0
M  V30 10268 H 957.44 2.6529 1.83906 0
M  V30 10269 H 956.492 3.79248 -0.295787 0
M  V30 10270 H 957.804 4.98515 -0.168738 0
M  V30 10271 H 956.958 5.70091 2.0756 0
M  V30 10272 H 955.697 4.43675 2.02494 0
M  V30 10273 H 954.702 5.49796 -0.0210864 0
M  V30 10274 H 955.927 6.79083 0.0486551 0
M  V30 10275 H 953.873 6.17752 2.20724 0
M  V30 10276 H 953.79 7.48373 1.07115 0
M  V30 10277 H 955.058 7.46016 2.26009 0
M  V30 10278 N 959.287 0.325282 1.54207 0
M  V30 10279 C 960.536 -0.27768 1.99779 0
M  V30 10280 C 960.849 -1.5311 1.21723 0
M  V30 10281 O 962.055 -2.21017 1.57682 0
M  V30 10282 C 960.511 -0.545329 3.55745 0
M  V30 10283 C 960.119 0.691143 4.42637 0
M  V30 10284 C 961.863 -1.10815 4.09781 0
M  V30 10285 C 959.77 0.395302 5.90077 0
M  V30 10286 H 958.7 -0.107536 0.746292 0
M  V30 10287 H 961.351 0.437773 1.78202 0
M  V30 10288 H 959.733 -1.32101 3.73317 0
M  V30 10289 H 960.907 1.46653 4.3684 0
M  V30 10290 H 959.222 1.1743 3.99499 0
M  V30 10291 H 961.819 -1.34414 5.1753 0
M  V30 10292 H 962.162 -2.05806 3.6187 0
M  V30 10293 H 962.695 -0.393608 3.95848 0
M  V30 10294 H 959.434 1.31443 6.42186 0
M  V30 10295 H 958.954 -0.34235 5.98822 0
M  V30 10296 H 960.633 0.00576877 6.47 0
M  V30 10297 N 960.765 -1.57509 0.0534917 0
M  V30 10298 C 961.713 -2.12851 -0.937931 0
M  V30 10299 C 962.707 -1.06088 -1.32067 0
M  V30 10300 O 963.913 -1.24494 -1.30005 0
M  V30 10301 H 960.288 -0.680357 -0.320342 0
M  V30 10302 H 962.259 -2.95047 -0.446077 0
M  V30 10303 C 961.008 -2.69034 -2.20264 0
M  V30 10304 H 960.331 -3.50848 -1.91693 0
M  V30 10305 H 961.771 -3.11375 -2.87788 0
M  V30 10306 C 960.23 -1.62919 -2.94888 0
M  V30 10307 O 960.76 -1.04334 -3.87914 0
M  V30 10308 N 958.966 -1.34385 -2.57661 0
M  V30 10309 H 958.513 -1.82214 -1.82088 0
M  V30 10310 H 958.471 -0.636149 -3.07897 0
M  V30 10311 N 962.243 0.219913 -1.56058 0
M  V30 10312 C 963.468 0.965073 -1.83579 0
M  V30 10313 C 963.893 1.77092 -0.634024 0
M  V30 10314 O 963.251 1.76434 0.417205 0
M  V30 10315 C 963.299 1.85705 -3.09105 0
M  V30 10316 O 962.403 2.95261 -2.87914 0
M  V30 10317 H 961.744 0.273173 -0.605204 0
M  V30 10318 H 964.274 0.23273 -2.03272 0
M  V30 10319 H 964.284 2.26655 -3.39252 0
M  V30 10320 H 962.959 1.26476 -3.96203 0
M  V30 10321 H 961.536 2.58246 -2.69005 0
M  V30 10322 N 963.721 1.49897 0.486681 0
M  V30 10323 C 964.653 1.63755 1.60365 0
M  V30 10324 C 965.666 0.519614 1.54285 0
M  V30 10325 O 966.855 0.792219 1.59957 0
M  V30 10326 C 963.955 1.59153 2.99205 0
M  V30 10327 C 963.128 2.8672 3.30319 0
M  V30 10328 C 962.187 2.74974 4.48638 0
M  V30 10329 O 961.213 3.48922 4.49714 0
M  V30 10330 N 962.415 1.87479 5.49392 0
M  V30 10331 H 965.18 2.60094 1.48899 0
M  V30 10332 H 962.741 1.47166 0.674825 0
M  V30 10333 H 964.733 1.4893 3.76301 0
M  V30 10334 H 963.303 0.706133 3.0452 0
M  V30 10335 H 962.523 3.11188 2.41983 0
M  V30 10336 H 963.811 3.71262 3.47911 0
M  V30 10337 H 963.209 1.26684 5.51333 0
M  V30 10338 H 961.766 1.83169 6.25534 0
M  V30 10339 N 965.199 -0.738761 1.39212 0
M  V30 10340 C 966.129 -1.86602 1.40364 0
M  V30 10341 C 967.11 -1.67984 0.267495 0
M  V30 10342 O 968.295 -1.88358 0.472765 0
M  V30 10343 C 965.425 -3.24308 1.24265 0
M  V30 10344 C 964.379 -3.57557 2.35239 0
M  V30 10345 C 963.705 -4.94159 2.04233 0
M  V30 10346 C 965.005 -3.60914 3.77543 0
M  V30 10347 H 966.699 -1.85896 2.34698 0
M  V30 10348 H 964.245 -0.892959 1.1297 0
M  V30 10349 H 966.198 -4.02838 1.23692 0
M  V30 10350 H 964.922 -3.25531 0.263974 0
M  V30 10351 H 963.581 -2.81354 2.35022 0
M  V30 10352 H 963.229 -4.91959 1.04813 0
M  V30 10353 H 962.929 -5.17373 2.78567 0
M  V30 10354 H 964.453 -5.7505 2.05303 0
M  V30 10355 H 965.867 -4.29528 3.79709 0
M  V30 10356 H 964.264 -3.95644 4.51205 0
M  V30 10357 H 965.334 -2.60803 4.08791 0
M  V30 10358 N 966.677 -1.24326 -0.968545 0
M  V30 10359 C 967.624 -1.0349 -2.06297 0
M  V30 10360 C 968.594 0.0515333 -1.6602 0
M  V30 10361 O 969.779 -0.102924 -1.90522 0
M  V30 10362 C 966.919 -0.64487 -3.39021 0
M  V30 10363 C 966.032 -1.80469 -3.92498 0
M  V30 10364 C 965.167 -1.36032 -5.13487 0
M  V30 10365 C 964.206 -2.49014 -5.59159 0
M  V30 10366 N 963.343 -2.05451 -6.71367 0
M  V30 10367 H 968.183 -1.97161 -2.23454 0
M  V30 10368 H 965.72 -0.982028 -1.0952 0
M  V30 10369 H 967.678 -0.399771 -4.1528 0
M  V30 10370 H 966.308 0.254845 -3.21792 0
M  V30 10371 H 965.36 -2.16348 -3.12886 0
M  V30 10372 H 966.672 -2.65365 -4.22354 0
M  V30 10373 H 965.826 -1.07405 -5.97117 0
M  V30 10374 H 964.565 -0.481887 -4.85313 0
M  V30 10375 H 963.57 -2.78402 -4.74102 0
M  V30 10376 H 964.795 -3.37413 -5.89346 0
M  V30 10377 H 962.741 -1.20004 -6.4493 0
M  V30 10378 H 962.658 -2.83901 -7.00668 0
M  V30 10379 H 963.926 -1.79962 -7.58442 0
M  V30 10380 N 968.156 1.1691 -1.05688 0
M  V30 10381 C 969.106 2.19056 -0.632339 0
M  V30 10382 C 970.09 1.574 0.333797 0
M  V30 10383 O 971.282 1.76361 0.150223 0
M  V30 10384 C 968.411 3.43297 -0.0138209 0
M  V30 10385 C 967.497 4.12042 -1.00408 0
M  V30 10386 N 967.888 4.56535 -2.17737 0
M  V30 10387 C 966.186 4.38139 -0.833663 0
M  V30 10388 C 966.887 5.09644 -2.80425 0
M  V30 10389 N 965.863 5.02153 -2.08191 0
M  V30 10390 H 969.665 2.51165 -1.52621 0
M  V30 10391 H 967.179 1.33294 -0.927707 0
M  V30 10392 H 969.176 4.1576 0.308117 0
M  V30 10393 H 967.836 3.12677 0.87538 0
M  V30 10394 H 968.847 4.50463 -2.55546 0
M  V30 10395 H 965.524 4.175 0.00406684 0
M  V30 10396 H 966.914 5.54153 -3.79952 0
M  V30 10397 N 969.634 0.838594 1.33437 0
M  V30 10398 C 970.883 0.430484 1.97053 0
M  V30 10399 C 971.196 -1.01556 1.6717 0
M  V30 10400 O 972.402 -1.52834 2.24397 0
M  V30 10401 C 970.858 0.718828 3.52648 0
M  V30 10402 C 970.466 2.17953 3.91408 0
M  V30 10403 C 972.21 0.377654 4.22817 0
M  V30 10404 C 970.117 2.41194 5.39981 0
M  V30 10405 H 969.047 0.157239 0.737422 0
M  V30 10406 H 971.698 1.02714 1.5206 0
M  V30 10407 H 970.08 0.0518042 3.95966 0
M  V30 10408 H 971.254 2.88701 3.59149 0
M  V30 10409 H 969.569 2.48366 3.34221 0
M  V30 10410 H 972.166 0.528926 5.32077 0
M  V30 10411 H 972.509 -0.679338 4.1072 0
M  V30 10412 H 973.042 0.999899 3.85028 0
M  V30 10413 H 969.781 3.45457 5.57081 0
M  V30 10414 H 969.301 1.75007 5.73701 0
M  V30 10415 H 970.98 2.24334 6.06863 0
M  V30 10416 N 971.112 -1.45937 0.595003 0
M  V30 10417 C 972.359 -2.0232 0.0853053 0
M  V30 10418 C 972.687 -1.465 -1.27937 0
M  V30 10419 O 971.942 -0.624767 -1.85459 0
M  V30 10420 C 972.241 -3.57396 -0.0173747 0
M  V30 10421 C 971.907 -4.32311 1.28131 0
M  V30 10422 C 970.569 -4.52496 1.63708 0
M  V30 10423 C 972.921 -4.75233 2.14017 0
M  V30 10424 C 970.249 -5.12857 2.84947 0
M  V30 10425 C 972.601 -5.36933 3.34493 0
M  V30 10426 C 971.265 -5.55343 3.70338 0
M  V30 10427 H 970.535 -0.740342 0.0312154 0
M  V30 10428 H 973.182 -1.75157 0.774103 0
M  V30 10429 H 971.487 -3.83766 -0.789371 0
M  V30 10430 H 973.184 -3.98713 -0.427699 0
M  V30 10431 H 969.774 -4.16905 0.994374 0
M  V30 10432 H 973.958 -4.59383 1.87833 0
M  V30 10433 H 969.214 -5.253 3.12841 0
M  V30 10434 H 973.388 -5.69147 4.01304 0
M  V30 10435 H 971.015 -6.01883 4.64371 0
M  V30 10436 N 972.59 -0.333456 -1.54032 0
M  V30 10437 C 973.537 0.527981 -2.2468 0
M  V30 10438 C 974.507 1.10371 -1.24127 0
M  V30 10439 O 975.692 1.14221 -1.52834 0
M  V30 10440 C 972.832 1.67808 -3.01553 0
M  V30 10441 C 971.945 1.13064 -4.16942 0
M  V30 10442 C 971.08 2.24722 -4.81325 0
M  V30 10443 C 970.119 1.67277 -5.88799 0
M  V30 10444 N 969.256 2.72638 -6.47003 0
M  V30 10445 H 974.096 -0.0810308 -2.9789 0
M  V30 10446 H 971.633 -0.051761 -1.47009 0
M  V30 10447 H 973.591 2.35502 -3.44376 0
M  V30 10448 H 972.221 2.25823 -2.30659 0
M  V30 10449 H 971.273 0.344948 -3.78833 0
M  V30 10450 H 972.585 0.670373 -4.94275 0
M  V30 10451 H 971.739 3.00301 -5.27166 0
M  V30 10452 H 970.478 2.74089 -4.03394 0
M  V30 10453 H 969.483 0.902002 -5.4235 0
M  V30 10454 H 970.708 1.18775 -6.68632 0
M  V30 10455 H 968.654 3.21277 -5.71941 0
M  V30 10456 H 968.571 2.31204 -7.19778 0
M  V30 10457 H 969.839 3.48015 -6.97499 0
M  V30 10458 N 974.068 1.57479 -0.061844 0
M  V30 10459 C 975.296 1.97429 0.618837 0
M  V30 10460 C 975.711 0.939826 1.63746 0
M  V30 10461 O 975.068 -0.0747173 1.82347 0
M  V30 10462 C 975.119 3.3746 1.29628 0
M  V30 10463 O 974.84 4.36941 0.318431 0
M  V30 10464 C 976.341 3.92228 2.06572 0
M  V30 10465 H 973.561 0.649513 0.168444 0
M  V30 10466 H 976.105 2.04078 -0.131303 0
M  V30 10467 H 974.26 3.31928 1.99757 0
M  V30 10468 H 974.674 5.18313 0.803239 0
M  V30 10469 H 976.148 4.92458 2.49377 0
M  V30 10470 H 976.625 3.28231 2.91824 0
M  V30 10471 H 977.231 4.01131 1.4133 0
M  V30 10472 N 975.546 -0.211634 1.56173 0
M  V30 10473 C 976.771 -0.955324 1.84088 0
M  V30 10474 C 977.196 -1.76754 0.643407 0
M  V30 10475 O 976.554 -1.76653 -0.407842 0
M  V30 10476 C 976.602 -1.84063 3.10085 0
M  V30 10477 O 975.706 -2.9373 2.89476 0
M  V30 10478 H 975.047 -0.26996 0.606645 0
M  V30 10479 H 977.577 -0.221947 2.03393 0
M  V30 10480 H 977.587 -2.24852 3.40449 0
M  V30 10481 H 976.262 -1.24373 3.96868 0
M  V30 10482 H 974.839 -2.56816 2.7037 0
M  V30 10483 N 977.024 -1.50153 -0.478725 0
M  V30 10484 C 977.954 -1.71384 -1.58587 0
M  V30 10485 C 978.935 -0.562705 -1.60523 0
M  V30 10486 O 980.12 -0.80101 -1.76911 0
M  V30 10487 C 977.25 -1.80094 -2.96957 0
M  V30 10488 C 976.204 -2.95218 -3.09888 0
M  V30 10489 C 975.53 -2.89063 -4.49829 0
M  V30 10490 C 976.83 -4.35841 -2.8782 0
M  V30 10491 H 978.524 -2.64081 -1.41073 0
M  V30 10492 H 976.07 -1.27081 -0.677239 0
M  V30 10493 H 978.023 -1.93531 -3.74331 0
M  V30 10494 H 976.747 -0.840131 -3.1561 0
M  V30 10495 H 975.406 -2.81419 -2.34944 0
M  V30 10496 H 975.054 -1.90844 -4.6539 0
M  V30 10497 H 974.754 -3.66345 -4.59418 0
M  V30 10498 H 976.278 -3.04539 -5.29234 0
M  V30 10499 H 977.692 -4.50205 -3.54948 0
M  V30 10500 H 976.089 -5.14515 -3.0886 0
M  V30 10501 H 977.159 -4.48739 -1.83742 0
M  V30 10502 N 978.502 0.731368 -1.39602 0
M  V30 10503 C 979.73 1.52059 -1.40305 0
M  V30 10504 C 980.145 1.888 0.00147921 0
M  V30 10505 O 979.502 1.54354 0.973715 0
M  V30 10506 C 979.553 2.80588 -2.27931 0
M  V30 10507 O 979.274 2.45406 -3.62915 0
M  V30 10508 C 980.775 3.74592 -2.37056 0
M  V30 10509 H 977.995 0.469787 -0.479104 0
M  V30 10510 H 980.539 0.903436 -1.83462 0
M  V30 10511 H 978.694 3.38626 -1.88178 0
M  V30 10512 H 979.108 3.27996 -4.09291 0
M  V30 10513 H 980.582 4.61662 -3.02609 0
M  V30 10514 H 981.059 4.16597 -1.39081 0
M  V30 10515 H 981.665 3.22471 -2.77295 0
M  V30 10516 N 979.98 1.24838 0.961938 0
M  V30 10517 C 981.226 1.09313 1.70817 0
M  V30 10518 C 981.559 -0.366244 1.90715 0
M  V30 10519 O 980.834 -1.27036 1.47282 0
M  V30 10520 C 981.117 1.83988 3.09549 0
M  V30 10521 C 980.97 3.3771 2.97106 0
M  V30 10522 C 982.289 1.61718 4.09311 0
M  V30 10523 H 979.408 0.398498 0.619974 0
M  V30 10524 H 982.05 1.53579 1.11864 0
M  V30 10525 H 980.2 1.46363 3.59875 0
M  V30 10526 H 981.872 3.84967 2.54161 0
M  V30 10527 H 980.115 3.65795 2.33187 0
M  V30 10528 H 980.786 3.85166 3.95412 0
M  V30 10529 H 983.262 1.94458 3.67866 0
M  V30 10530 H 982.138 2.16415 5.04436 0
M  V30 10531 H 982.399 0.55677 4.3858 0
M  V30 10532 N 981.458 -1.16348 1.06306 0
M  V30 10533 C 982.421 -2.18941 0.678053 0
M  V30 10534 C 983.421 -1.58409 -0.276277 0
M  V30 10535 O 984.611 -1.74101 -0.0586435 0
M  V30 10536 C 981.743 -3.409 -0.00228684 0
M  V30 10537 H 982.936 -2.54516 1.58624 0
M  V30 10538 H 980.489 -1.30625 0.858298 0
M  V30 10539 H 981.224 -3.10881 -0.923212 0
M  V30 10540 H 981.009 -3.86089 0.683949 0
M  V30 10541 H 982.499 -4.16806 -0.257374 0
M  V30 10542 N 982.937 -0.845659 -1.3299 0
M  V30 10543 C 984.214 -0.366306 -1.92139 0
M  V30 10544 C 984.594 1.14912 -1.77083 0
M  V30 10545 O 983.942 1.96667 -1.16338 0
M  V30 10546 C 984.152 -0.820716 -3.39213 0
M  V30 10547 C 985.5 -0.832667 -4.16355 0
M  V30 10548 O 986.524 -0.764764 -3.47893 0
M  V30 10549 O 985.383 -0.926658 -5.38586 0
M  V30 10550 H 982.477 -0.105063 -0.820299 0
M  V30 10551 H 985.023 -0.931962 -1.41819 0
M  V30 10552 H 983.795 -1.86357 -3.44074 0
M  V30 10553 H 983.418 -0.232009 -3.96923 0
M  V30 10554 N 984.415 1.45619 -0.602734 0
M  V30 10555 C 985.362 2.30493 0.118944 0
M  V30 10556 C 986.332 1.41816 0.864723 0
M  V30 10557 O 987.517 1.7075 0.851424 0
M  V30 10558 C 984.657 3.2664 1.11356 0
M  V30 10559 C 983.77 4.3042 0.369161 0
M  V30 10560 C 982.905 5.13678 1.35307 0
M  V30 10561 C 981.944 6.09189 0.596207 0
M  V30 10562 N 981.081 6.85245 1.52916 0
M  V30 10563 H 985.921 2.91672 -0.610836 0
M  V30 10564 H 983.458 1.43731 -0.313032 0
M  V30 10565 H 985.416 3.80846 1.7033 0
M  V30 10566 H 984.046 2.67225 1.81081 0
M  V30 10567 H 983.098 3.78913 -0.335994 0
M  V30 10568 H 984.41 4.98307 -0.221603 0
M  V30 10569 H 983.564 5.7226 2.01502 0
M  V30 10570 H 982.303 4.45798 1.97777 0
M  V30 10571 H 981.308 5.49743 -0.0793984 0
M  V30 10572 H 982.533 6.79096 -0.0233734 0
M  V30 10573 H 980.479 6.20058 2.14159 0
M  V30 10574 H 980.396 7.49467 0.991713 0
M  V30 10575 H 981.664 7.48371 2.18083 0
M  V30 10576 N 985.893 0.34162 1.53853 0
M  V30 10577 C 987.142 -0.256475 2.00063 0
M  V30 10578 C 987.455 -1.51811 1.23341 0
M  V30 10579 O 988.661 -2.19332 1.60017 0
M  V30 10580 C 987.117 -0.507567 3.56303 0
M  V30 10581 C 986.725 0.738052 4.41879 0
M  V30 10582 C 988.469 -1.06463 4.10933 0
M  V30 10583 C 986.376 0.457865 5.89625 0
M  V30 10584 H 985.306 -0.0996143 0.747391 0
M  V30 10585 H 987.957 0.456649 1.77727 0
M  V30 10586 H 986.339 -1.28134 3.74697 0
M  V30 10587 H 987.513 1.51278 4.3526 0
M  V30 10588 H 985.828 1.21661 3.98231 0
M  V30 10589 H 988.425 -1.28918 5.18926 0
M  V30 10590 H 988.768 -2.01956 3.64032 0
M  V30 10591 H 989.301 -0.351601 3.96243 0
M  V30 10592 H 986.04 1.38247 6.40756 0
M  V30 10593 H 985.56 -0.278818 5.99152 0
M  V30 10594 H 987.239 0.0743914 6.46957 0
M  V30 10595 N 987.371 -1.57444 0.0701946 0
M  V30 10596 C 988.281 -2.16132 -0.912377 0
M  V30 10597 C 989.297 -1.12406 -1.32819 0
M  V30 10598 O 990.473 -1.44665 -1.40121 0
M  V30 10599 C 987.538 -2.71008 -2.16231 0
M  V30 10600 C 986.599 -3.896 -1.80306 0
M  V30 10601 C 985.832 -4.4185 -2.9934 0
M  V30 10602 O 986.055 -3.93106 -4.13309 0
M  V30 10603 O 984.989 -5.33201 -2.7925 0
M  V30 10604 H 988.815 -3.00449 -0.443167 0
M  V30 10605 H 986.4 -1.48617 -0.152786 0
M  V30 10606 H 988.282 -3.06186 -2.8953 0
M  V30 10607 H 986.957 -1.8975 -2.62253 0
M  V30 10608 H 985.864 -3.59277 -1.04264 0
M  V30 10609 H 987.197 -4.72145 -1.39068 0
M  V30 10610 N 988.849 0.203349 -1.56283 0
M  V30 10611 C 990.126 0.950415 -1.70958 0
M  V30 10612 C 990.506 2.01708 -0.622647 0
M  V30 10613 O 989.854 2.25523 0.367635 0
M  V30 10614 C 990.064 1.54434 -3.12971 0
M  V30 10615 C 991.412 2.02964 -3.72949 0
M  V30 10616 O 992.436 1.64293 -3.16048 0
M  V30 10617 O 991.295 2.74097 -4.72793 0
M  V30 10618 H 988.389 0.445154 -0.69697 0
M  V30 10619 H 990.935 0.193695 -1.68591 0
M  V30 10620 H 989.707 0.77505 -3.83547 0
M  V30 10621 H 989.33 2.36611 -3.19532 0
M  V30 10622 N 990.327 1.50405 0.470755 0
M  V30 10623 C 991.259 1.65447 1.58619 0
M  V30 10624 C 992.272 0.535949 1.53725 0
M  V30 10625 O 993.461 0.80914 1.59107 0
M  V30 10626 C 990.561 1.62318 2.975 0
M  V30 10627 C 989.734 2.90207 3.27259 0
M  V30 10628 C 988.793 2.79717 4.45696 0
M  V30 10629 O 987.819 3.53672 4.45987 0
M  V30 10630 N 989.021 1.93296 5.47373 0
M  V30 10631 H 991.786 2.61659 1.46132 0
M  V30 10632 H 989.347 1.47873 0.659178 0
M  V30 10633 H 991.339 1.52912 3.747 0
M  V30 10634 H 989.909 0.738392 3.03754 0
M  V30 10635 H 989.129 3.13737 2.38669 0
M  V30 10636 H 990.417 3.74931 3.43953 0
M  V30 10637 H 989.815 1.32524 5.49958 0
M  V30 10638 H 988.372 1.89793 6.23556 0
M  V30 10639 N 991.805 -0.723954 1.39988 0
M  V30 10640 C 992.752 -1.83803 1.39589 0
M  V30 10641 C 993.722 -1.64146 0.253996 0
M  V30 10642 O 994.907 -1.85398 0.450793 0
M  V30 10643 C 992.047 -3.21431 1.25604 0
M  V30 10644 C 991.16 -3.52717 2.49429 0
M  V30 10645 C 990.295 -4.79805 2.27949 0
M  V30 10646 C 989.334 -5.03968 3.47394 0
M  V30 10647 N 988.471 -6.22266 3.25161 0
M  V30 10648 H 993.311 -1.83479 2.34818 0
M  V30 10649 H 990.848 -0.896396 1.16633 0
M  V30 10650 H 992.806 -4.00892 1.15504 0
M  V30 10651 H 991.436 -3.21005 0.339986 0
M  V30 10652 H 990.488 -2.67872 2.7009 0
M  V30 10653 H 991.8 -3.66486 3.38363 0
M  V30 10654 H 990.954 -5.67268 2.15155 0
M  V30 10655 H 989.693 -4.68229 1.36428 0
M  V30 10656 H 988.698 -4.14963 3.60674 0
M  V30 10657 H 989.923 -5.17422 4.39831 0
M  V30 10658 H 987.869 -6.11957 2.36314 0
M  V30 10659 H 987.786 -6.36673 4.07656 0
M  V30 10660 H 989.054 -7.12539 3.16083 0
M  V30 10661 N 993.283 -1.25346 -0.955304 0
M  V30 10662 C 994.23 -1.05672 -2.05188 0
M  V30 10663 C 995.2 0.0339217 -1.66065 0
M  V30 10664 O 996.385 -0.123126 -1.90402 0
M  V30 10665 C 993.525 -0.680791 -3.38318 0
M  V30 10666 C 992.638 -1.84622 -3.90562 0
M  V30 10667 C 991.773 -1.41471 -5.12015 0
M  V30 10668 C 990.812 -2.54931 -5.56486 0
M  V30 10669 N 989.949 -2.1256 -6.69151 0
M  V30 10670 H 994.789 -1.9952 -2.2135 0
M  V30 10671 H 992.326 -0.993588 -1.08472 0
M  V30 10672 H 994.284 -0.443794 -4.14833 0
M  V30 10673 H 992.914 0.2207 -3.22045 0
M  V30 10674 H 991.966 -2.19654 -3.10574 0
M  V30 10675 H 993.278 -2.6983 -4.19515 0
M  V30 10676 H 992.432 -1.13732 -5.95945 0
M  V30 10677 H 991.171 -0.533334 -4.84775 0
M  V30 10678 H 990.176 -2.83415 -4.71122 0
M  V30 10679 H 991.401 -3.43645 -5.85734 0
M  V30 10680 H 989.347 -1.26838 -6.43621 0
M  V30 10681 H 989.264 -2.91317 -6.97618 0
M  V30 10682 H 990.532 -1.87996 -7.5649 0
M  V30 10683 N 994.761 1.15782 -1.06922 0
M  V30 10684 C 995.671 2.24008 -0.696948 0
M  V30 10685 C 996.687 1.71569 0.289862 0
M  V30 10686 O 997.863 2.00929 0.137585 0
M  V30 10687 C 994.928 3.46568 -0.0957895 0
M  V30 10688 C 993.989 4.14017 -1.13528 0
M  V30 10689 C 993.222 5.30725 -0.562713 0
M  V30 10690 O 993.445 5.66992 0.62259 0
M  V30 10691 O 992.379 5.87572 -1.30549 0
M  V30 10692 H 996.205 2.58174 -1.59938 0
M  V30 10693 H 993.79 1.2342 -0.841889 0
M  V30 10694 H 995.672 4.20731 0.237407 0
M  V30 10695 H 994.347 3.14161 0.780027 0
M  V30 10696 H 993.254 3.41795 -1.52076 0
M  V30 10697 H 994.587 4.50493 -1.98285 0
M  V30 10698 N 996.239 0.8527 1.3254 0
M  V30 10699 C 997.169 0.311234 2.31416 0
M  V30 10700 C 998.15 -0.588557 1.59593 0
M  V30 10701 O 999.335 -0.509211 1.87405 0
M  V30 10702 C 996.465 -0.502892 3.4364 0
M  V30 10703 C 995.419 0.302296 4.26931 0
M  V30 10704 C 994.745 -0.636445 5.30899 0
M  V30 10705 C 996.045 1.52697 4.99481 0
M  V30 10706 H 997.739 1.13742 2.76953 0
M  V30 10707 H 995.285 0.548389 1.33149 0
M  V30 10708 H 997.238 -0.892092 4.11849 0
M  V30 10709 H 995.962 -1.36242 2.96826 0
M  V30 10710 H 994.621 0.673226 3.60365 0
M  V30 10711 H 994.269 -1.49277 4.80339 0
M  V30 10712 H 993.969 -0.101716 5.87512 0
M  V30 10713 H 995.493 -1.02286 6.01972 0
M  V30 10714 H 996.907 1.21017 5.60382 0
M  V30 10715 H 995.304 1.9995 5.65809 0
M  V30 10716 H 996.374 2.28929 4.27457 0
M  V30 10717 N 997.718 -1.45297 0.610449 0
M  V30 10718 C 998.995 -1.95562 0.0386189 0
M  V30 10719 C 999.375 -1.55284 -1.43004 0
M  V30 10720 O 998.723 -0.816785 -2.13403 0
M  V30 10721 C 998.933 -3.48176 0.239731 0
M  V30 10722 C 1000.28 -4.24425 0.122035 0
M  V30 10723 O 1001.3 -3.55794 0.170003 0
M  V30 10724 O 1000.16 -5.46499 0.00953695 0
M  V30 10725 H 997.258 -0.826296 -0.0341081 0
M  V30 10726 H 999.804 -1.55449 0.68071 0
M  V30 10727 H 998.576 -3.70471 1.25963 0
M  V30 10728 H 998.199 -3.95186 -0.437486 0
M  V30 10729 N 999.196 -0.349774 -1.5367 0
M  V30 10730 C 1000.44 0.244343 -2.00617 0
M  V30 10731 C 1000.76 1.50567 -1.23914 0
M  V30 10732 O 1000.03 1.92784 -0.348016 0
M  V30 10733 H 998.615 0.0932792 -0.741153 0
M  V30 10734 H 1001.28 -0.472367 -1.89089 0
M  V30 10735 H 1000.37 0.482433 -3.08349 0
M  V30 10736 N 1000.67 1.57404 -0.0785433 0
M  V30 10737 C 1001.92 1.93744 0.589024 0
M  V30 10738 C 1002.25 0.959087 1.69209 0
M  V30 10739 O 1001.5 -0.0241604 1.95685 0
M  V30 10740 C 1001.8 3.36684 1.1991 0
M  V30 10741 C 1001.47 4.50356 0.221493 0
M  V30 10742 C 1000.13 4.81177 -0.0474347 0
M  V30 10743 C 1002.48 5.1928 -0.446941 0
M  V30 10744 C 999.811 5.78257 -0.99177 0
M  V30 10745 C 1002.16 6.17372 -1.37964 0
M  V30 10746 C 1000.83 6.46607 -1.65697 0
M  V30 10747 H 1000.1 0.70896 0.215539 0
M  V30 10748 H 1002.74 1.90905 -0.150856 0
M  V30 10749 H 1001.05 3.36022 2.01486 0
M  V30 10750 H 1002.75 3.62095 1.72303 0
M  V30 10751 H 999.336 4.26322 0.441284 0
M  V30 10752 H 1003.52 4.95658 -0.252298 0
M  V30 10753 H 998.776 5.9923 -1.21381 0
M  V30 10754 H 1002.95 6.6988 -1.9035 0
M  V30 10755 H 1000.58 7.21643 -2.39031 0
M  V30 10756 N 1002.15 -0.195058 1.56388 0
M  V30 10757 C 1003.08 -1.24444 1.97575 0
M  V30 10758 C 1004.06 -1.47471 0.847717 0
M  V30 10759 O 1005.25 -1.59208 1.11205 0
M  V30 10760 C 1002.38 -2.58866 2.31529 0
M  V30 10761 C 1001.33 -2.50451 3.47071 0
M  V30 10762 C 1000.66 -3.89146 3.667 0
M  V30 10763 C 1001.96 -2.02953 4.81256 0
M  V30 10764 H 1003.65 -0.902178 2.85484 0
M  V30 10765 H 1001.2 -0.43254 1.3735 0
M  V30 10766 H 1003.15 -3.3246 2.58936 0
M  V30 10767 H 1001.87 -2.94833 1.40502 0
M  V30 10768 H 1000.53 -1.79313 3.19754 0
M  V30 10769 H 1000.18 -4.22466 2.73004 0
M  V30 10770 H 999.882 -3.84391 4.44429 0
M  V30 10771 H 1001.41 -4.64363 3.96484 0
M  V30 10772 H 1002.82 -2.66306 5.07695 0
M  V30 10773 H 1001.22 -2.092 5.62455 0
M  V30 10774 H 1002.29 -0.982757 4.74837 0
M  V30 10775 N 1003.63 -1.50653 -0.462772 0
M  V30 10776 C 1004.85 -1.66103 -1.24196 0
M  V30 10777 C 1005.28 -0.347421 -1.84864 0
M  V30 10778 O 1004.64 0.689673 -1.6767 0
M  V30 10779 C 1004.69 -2.76027 -2.32037 0
M  V30 10780 O 1003.79 -2.37859 -3.36893 0
M  V30 10781 H 1003.13 -0.554672 -0.365014 0
M  V30 10782 H 1005.66 -1.97076 -0.549734 0
M  V30 10783 H 1005.67 -2.99354 -2.77221 0
M  V30 10784 H 1004.35 -3.71361 -1.87253 0
M  V30 10785 H 1002.92 -2.2501 -2.97363 0
M  V30 10786 N 1005.11 0.71652 -1.4037 0
M  V30 10787 C 1006.36 1.47193 -1.37903 0
M  V30 10788 C 1006.67 1.95593 0.0159939 0
M  V30 10789 O 1007.88 2.71009 0.163282 0
M  V30 10790 C 1006.33 2.6606 -2.42363 0
M  V30 10791 C 1005.94 2.24533 -3.87671 0
M  V30 10792 C 1007.68 3.438 -2.49001 0
M  V30 10793 C 1005.59 3.40234 -4.8373 0
M  V30 10794 H 1004.52 0.552811 -0.512753 0
M  V30 10795 H 1007.17 0.779894 -1.66102 0
M  V30 10796 H 1005.55 3.37429 -2.07262 0
M  V30 10797 H 1006.73 1.6059 -4.31911 0
M  V30 10798 H 1005.04 1.59839 -3.845 0
M  V30 10799 H 1007.64 4.29893 -3.17956 0
M  V30 10800 H 1007.98 3.8755 -1.52023 0
M  V30 10801 H 1008.52 2.79474 -2.83088 0
M  V30 10802 H 1005.26 3.01517 -5.82037 0
M  V30 10803 H 1004.78 4.03095 -4.44156 0
M  V30 10804 H 1006.45 4.06312 -5.03507 0
M  V30 10805 N 1006.59 1.25851 0.948643 0
M  V30 10806 C 1007.52 1.09248 2.06367 0
M  V30 10807 C 1008.5 -0.000205168 1.701 0
M  V30 10808 O 1009.68 0.170442 1.93451 0
M  V30 10809 C 1006.81 0.716777 3.39823 0
M  V30 10810 C 1005.77 1.76036 3.90122 0
M  V30 10811 C 1005.09 1.23918 5.20143 0
M  V30 10812 C 1006.39 3.16039 4.15833 0
M  V30 10813 H 1008.09 2.02518 2.20515 0
M  V30 10814 H 1005.63 0.975093 1.05962 0
M  V30 10815 H 1007.59 0.587531 4.17284 0
M  V30 10816 H 1006.31 -0.251626 3.25629 0
M  V30 10817 H 1004.97 1.87815 3.14835 0
M  V30 10818 H 1004.62 0.260836 5.02323 0
M  V30 10819 H 1004.32 1.93673 5.54765 0
M  V30 10820 H 1005.84 1.12245 6.00194 0
M  V30 10821 H 1007.25 3.0738 4.83933 0
M  V30 10822 H 1005.65 3.83317 4.61723 0
M  V30 10823 H 1006.72 3.62652 3.21887 0
M  V30 10824 N 1008.06 -1.15214 1.07534 0
M  V30 10825 C 1009.3 -1.87708 0.809009 0
M  V30 10826 C 1009.67 -1.80552 -0.653066 0
M  V30 10827 O 1010.87 -2.48095 -1.03452 0
M  V30 10828 C 1009.14 -3.32703 1.30552 0
M  V30 10829 S 1010.7 -4.2291 1.17015 0
M  V30 10830 H 1007.52 -0.647767 0.293118 0
M  V30 10831 H 1010.12 -1.38992 1.37482 0
M  V30 10832 H 1008.82 -3.35456 2.36427 0
M  V30 10833 H 1008.35 -3.86473 0.734995 0
M  V30 10834 H 1010.37 -4.96081 0.108836 0
M  V30 10835 N 1009.54 -0.859717 -1.32086 0
M  V30 10836 C 1010.49 -0.296897 -2.30697 0
M  V30 10837 C 1011.48 0.582473 -1.59071 0
M  V30 10838 O 1012.69 0.469713 -1.73763 0
M  V30 10839 H 1009.07 -0.0773132 -0.748015 0
M  V30 10840 H 1011.04 -1.14273 -2.75652 0
M  V30 10841 C 1009.79 0.495546 -3.44151 0
M  V30 10842 H 1009.11 -0.171829 -3.99431 0
M  V30 10843 H 1010.55 0.854854 -4.15293 0
M  V30 10844 C 1009.01 1.68278 -2.91863 0
M  V30 10845 O 1009.54 2.78194 -2.89777 0
M  V30 10846 N 1007.74 1.51151 -2.48197 0
M  V30 10847 H 1007.29 0.617345 -2.50093 0
M  V30 10848 H 1007.25 2.3073 -2.13567 0
M  V30 10849 N 1011.02 1.44971 -0.618145 0
M  V30 10850 C 1011.97 2.32354 0.106846 0
M  V30 10851 C 1012.96 1.4659 0.848984 0
M  V30 10852 O 1014.17 1.63012 0.763354 0
M  V30 10853 H 1010.54 0.750108 0.0533109 0
M  V30 10854 H 1012.51 2.9127 -0.648426 0
M  V30 10855 C 1011.26 3.30381 1.08368 0
M  V30 10856 H 1010.59 3.96377 0.52205 0
M  V30 10857 H 1012.03 3.94231 1.56069 0
M  V30 10858 C 1010.49 2.58336 2.1625 0
M  V30 10859 O 1011.02 2.37258 3.24148 0
M  V30 10860 N 1009.22 2.18292 1.91825 0
M  V30 10861 H 1008.77 2.35635 1.04086 0
M  V30 10862 H 1008.73 1.70413 2.6421 0
M  V30 10863 N 1012.5 0.357919 1.53482 0
M  V30 10864 C 1013.43 -0.484231 2.28424 0
M  V30 10865 C 1014.41 -1.09046 1.30548 0
M  V30 10866 O 1015.59 -1.10916 1.59409 0
M  V30 10867 C 1012.72 -1.62803 3.06778 0
M  V30 10868 C 1011.68 -1.14943 4.12277 0
M  V30 10869 C 1011 -2.38287 4.78669 0
M  V30 10870 C 1012.3 -0.239627 5.2175 0
M  V30 10871 H 1014 0.140979 2.99068 0
M  V30 10872 H 1011.54 0.069244 1.43833 0
M  V30 10873 H 1013.5 -2.22374 3.57949 0
M  V30 10874 H 1012.22 -2.28036 2.3381 0
M  V30 10875 H 1010.88 -0.576442 3.6204 0
M  V30 10876 H 1010.53 -3.01959 4.02281 0
M  V30 10877 H 1010.23 -2.06939 5.49955 0
M  V30 10878 H 1011.75 -2.98558 5.32631 0
M  V30 10879 H 1013.17 -0.742597 5.6847 0
M  V30 10880 H 1011.56 -0.0173747 6.00097 0
M  V30 10881 H 1012.63 0.720333 4.7952 0
M  V30 10882 N 1013.98 -1.5736 0.0868897 0
M  V30 10883 C 1014.93 -2.10105 -0.885435 0
M  V30 10884 C 1015.91 -1.01417 -1.24913 0
M  V30 10885 O 1017.1 -1.27704 -1.22558 0
M  V30 10886 C 1014.23 -2.67837 -2.14752 0
M  V30 10887 C 1013.32 -3.83553 -1.80963 0
M  V30 10888 N 1013.71 -4.91917 -1.17693 0
M  V30 10889 C 1012.01 -3.93134 -2.10622 0
M  V30 10890 C 1012.71 -5.72628 -1.02332 0
M  V30 10891 N 1011.68 -5.2139 -1.53796 0
M  V30 10892 H 1015.49 -2.91272 -0.392179 0
M  V30 10893 H 1013 -1.61981 -0.116566 0
M  V30 10894 H 1015 -3.03948 -2.85344 0
M  V30 10895 H 1013.66 -1.88122 -2.64651 0
M  V30 10896 H 1014.67 -5.10964 -0.844731 0
M  V30 10897 H 1011.34 -3.24416 -2.62793 0
M  V30 10898 H 1012.73 -6.69813 -0.529171 0
M  V30 10899 N 1015.45 0.186762 -1.56489 0
M  V30 10900 C 1016.36 1.25169 -1.98419 0
M  V30 10901 C 1017.38 1.49329 -0.893124 0
M  V30 10902 O 1018.56 1.61781 -1.19954 0
M  V30 10903 C 1015.62 2.57422 -2.32239 0
M  V30 10904 C 1014.68 2.4126 -3.55095 0
M  V30 10905 C 1013.92 3.67206 -3.87292 0
M  V30 10906 O 1014.14 4.71731 -3.20665 0
M  V30 10907 O 1013.07 3.62238 -4.80695 0
M  V30 10908 H 1016.9 0.925834 -2.89244 0
M  V30 10909 H 1014.48 0.392421 -1.44154 0
M  V30 10910 H 1016.37 3.35466 -2.5503 0
M  V30 10911 H 1015.04 2.89618 -1.44579 0
M  V30 10912 H 1013.95 1.61299 -3.37541 0
M  V30 10913 H 1015.28 2.13994 -4.43247 0
M  V30 10914 N 1016.93 1.50896 0.454776 0
M  V30 10915 C 1017.86 1.73885 1.5584 0
M  V30 10916 C 1018.84 0.588172 1.59607 0
M  V30 10917 O 1020.03 0.829054 1.75614 0
M  V30 10918 C 1017.16 1.84796 2.94054 0
M  V30 10919 C 1016.11 3.00111 3.05152 0
M  V30 10920 C 1015.44 2.96183 4.45174 0
M  V30 10921 C 1016.74 4.40365 2.80849 0
M  V30 10922 H 1018.43 2.66292 1.36854 0
M  V30 10923 H 1015.98 1.28142 0.656936 0
M  V30 10924 H 1017.93 1.99462 3.71204 0
M  V30 10925 H 1016.66 0.890235 3.14233 0
M  V30 10926 H 1015.31 2.85121 2.30438 0
M  V30 10927 H 1014.96 1.98224 4.62295 0
M  V30 10928 H 1014.66 3.73608 4.53532 0
M  V30 10929 H 1016.19 3.1292 5.24322 0
M  V30 10930 H 1017.6 4.55795 3.47741 0
M  V30 10931 H 1016 5.19363 3.00636 0
M  V30 10932 H 1017.07 4.51606 1.76579 0
M  V30 10933 N 1018.41 -0.709066 1.40748 0
M  V30 10934 C 1019.34 -1.83412 1.37451 0
M  V30 10935 C 1020.36 -1.60394 0.27884 0
M  V30 10936 O 1021.54 -1.70147 0.539642 0
M  V30 10937 C 1018.64 -3.19935 1.1178 0
M  V30 10938 C 1017.82 -3.70095 2.33128 0
M  V30 10939 C 1016.88 -4.85249 2.03518 0
M  V30 10940 O 1015.9 -4.97563 2.76442 0
M  V30 10941 N 1017.1 -5.7152 1.01714 0
M  V30 10942 H 1019.87 -1.86736 2.34414 0
M  V30 10943 H 1017.43 -0.890863 1.35186 0
M  V30 10944 H 1019.42 -3.94578 0.899464 0
M  V30 10945 H 1017.99 -3.11718 0.234624 0
M  V30 10946 H 1017.21 -2.8651 2.70751 0
M  V30 10947 H 1018.5 -4.00344 3.1401 0
M  V30 10948 H 1017.9 -5.64188 0.413307 0
M  V30 10949 H 1016.46 -6.46119 0.858696 0
M  V30 10950 N 1019.89 -1.26353 -0.941956 0
M  V30 10951 C 1020.8 -1.09618 -2.07415 0
M  V30 10952 C 1021.82 -0.0298963 -1.73974 0
M  V30 10953 O 1022.99 -0.233466 -2.00042 0
M  V30 10954 C 1020.06 -0.73013 -3.38925 0
M  V30 10955 C 1019.12 -1.87574 -3.86153 0
M  V30 10956 C 1018.35 -1.52706 -5.11387 0
M  V30 10957 O 1018.57 -0.428438 -5.68789 0
M  V30 10958 O 1017.51 -2.36154 -5.53638 0
M  V30 10959 H 1021.33 -2.04598 -2.2444 0
M  V30 10960 H 1018.92 -1.05407 -1.05876 0
M  V30 10961 H 1020.8 -0.538684 -4.17943 0
M  V30 10962 H 1019.48 0.190282 -3.2314 0
M  V30 10963 H 1018.38 -2.12214 -3.08084 0
M  V30 10964 H 1019.72 -2.77585 -4.06457 0
M  V30 10965 N 1021.37 1.14642 -1.08144 0
M  V30 10966 C 1022.32 2.21708 -0.703448 0
M  V30 10967 C 1023.31 1.66907 0.289535 0
M  V30 10968 O 1024.52 1.79354 0.152387 0
M  V30 10969 H 1020.89 0.722247 -0.209437 0
M  V30 10970 H 1022.86 2.50862 -1.61588 0
M  V30 10971 C 1021.61 3.47472 -0.125975 0
M  V30 10972 H 1020.93 3.89967 -0.881216 0
M  V30 10973 H 1022.37 4.2388 0.100737 0
M  V30 10974 C 1020.83 3.17189 1.13546 0
M  V30 10975 O 1021.36 3.34733 2.22073 0
M  V30 10976 N 1019.57 2.71169 1.04479 0
M  V30 10977 H 1019.12 2.57093 0.161566 0
M  V30 10978 H 1019.07 2.51282 1.88957 0
M  V30 10979 N 1022.85 0.866709 1.31628 0
M  V30 10980 C 1024.07 0.49039 2.01004 0
M  V30 10981 C 1024.49 -0.916244 1.65077 0
M  V30 10982 O 1023.85 -1.59975 0.8783 0
M  V30 10983 C 1023.9 0.634011 3.55897 0
M  V30 10984 O 1023.62 1.98525 3.90537 0
M  V30 10985 C 1025.12 0.258277 4.42547 0
M  V30 10986 H 1022.34 0.191421 0.643117 0
M  V30 10987 H 1024.88 1.16698 1.67934 0
M  V30 10988 H 1023.04 0.00501801 3.874 0
M  V30 10989 H 1023.45 1.99067 4.85255 0
M  V30 10990 H 1024.93 0.409733 5.50477 0
M  V30 10991 H 1025.4 -0.802301 4.3181 0
M  V30 10992 H 1026.01 0.862837 4.16456 0
M  V30 10993 N 1024.32 -1.44642 0.625825 0
M  V30 10994 C 1025.57 -2.01308 0.125682 0
M  V30 10995 C 1025.89 -1.49773 -1.25807 0
M  V30 10996 O 1027.09 -1.98533 -1.85194 0
M  V30 10997 C 1025.55 -3.59479 0.17395 0
M  V30 10998 C 1025.16 -4.20011 1.55868 0
M  V30 10999 C 1026.9 -4.2364 -0.270005 0
M  V30 11000 C 1024.81 -5.7039 1.56235 0
M  V30 11001 H 1023.74 -0.75276 0.0432194 0
M  V30 11002 H 1026.39 -1.65916 0.783842 0
M  V30 11003 H 1024.77 -3.92145 -0.551212 0
M  V30 11004 H 1025.94 -3.98891 2.307 0
M  V30 11005 H 1024.26 -3.68116 1.94627 0
M  V30 11006 H 1026.86 -5.33931 -0.28672 0
M  V30 11007 H 1027.2 -3.95603 -1.29629 0
M  V30 11008 H 1027.73 -3.95759 0.402487 0
M  V30 11009 H 1024.47 -6.03154 2.56683 0
M  V30 11010 H 1023.99 -5.93648 0.856881 0
M  V30 11011 H 1025.67 -6.33929 1.29396 0
M  V30 11012 N 1025.8 -0.366053 -1.5329 0
M  V30 11013 C 1027.04 0.223558 -2.03174 0
M  V30 11014 C 1027.41 1.45955 -1.24745 0
M  V30 11015 O 1028.61 2.12481 -1.64637 0
M  V30 11016 C 1026.88 0.507899 -3.53773 0
M  V30 11017 S 1028.44 1.07111 -4.25526 0
M  V30 11018 H 1025.25 0.0650309 -0.70802 0
M  V30 11019 H 1027.86 -0.509028 -1.88757 0
M  V30 11020 H 1026.56 -0.39913 -4.08455 0
M  V30 11021 H 1026.09 1.26954 -3.72352 0
M  V30 11022 H 1028.11 2.35533 -4.36737 0
M  V30 11023 N 1027.28 1.57312 -0.0952337 0
M  V30 11024 C 1028.5 1.99119 0.580206 0
M  V30 11025 C 1028.93 0.973955 1.60922 0
M  V30 11026 O 1028.29 -0.0575338 1.81209 0
M  V30 11027 C 1028.34 3.39893 1.20438 0
M  V30 11028 O 1027.44 3.40941 2.32019 0
M  V30 11029 H 1026.78 0.64748 0.147195 0
M  V30 11030 H 1029.31 2.03836 -0.176686 0
M  V30 11031 H 1029.32 3.7759 1.54564 0
M  V30 11032 H 1028 4.13453 0.450514 0
M  V30 11033 H 1026.57 3.1504 1.9951 0
M  V30 11034 N 1028.76 -0.17846 1.56586 0
M  V30 11035 C 1029.69 -1.22342 1.98884 0
M  V30 11036 C 1030.67 -1.46564 0.86331 0
M  V30 11037 O 1031.85 -1.58019 1.12887 0
M  V30 11038 C 1028.98 -2.56396 2.34261 0
M  V30 11039 C 1027.94 -2.46756 3.49708 0
M  V30 11040 C 1027.26 -3.85235 3.70807 0
M  V30 11041 C 1028.56 -1.97838 4.83381 0
M  V30 11042 H 1030.26 -0.871848 2.86425 0
M  V30 11043 H 1027.8 -0.417948 1.37801 0
M  V30 11044 H 1029.76 -3.29695 2.62448 0
M  V30 11045 H 1028.48 -2.93327 1.43621 0
M  V30 11046 H 1027.14 -1.75912 3.21637 0
M  V30 11047 H 1026.79 -4.19547 2.7747 0
M  V30 11048 H 1026.49 -3.79655 4.48481 0
M  V30 11049 H 1028.01 -4.60131 4.01387 0
M  V30 11050 H 1029.43 -2.60906 5.10491 0
M  V30 11051 H 1027.82 -2.03223 5.64642 0
M  V30 11052 H 1028.89 -0.932339 4.75852 0
M  V30 11053 N 1030.24 -1.51135 -0.446768 0
M  V30 11054 C 1031.48 -1.63578 -1.19875 0
M  V30 11055 C 1031.81 -0.346478 -1.91084 0
M  V30 11056 O 1031.09 0.653447 -1.83195 0
M  V30 11057 C 1031.37 -2.83275 -2.22323 0
M  V30 11058 C 1031.23 -4.22155 -1.55259 0
M  V30 11059 C 1032.54 -2.98496 -3.23401 0
M  V30 11060 H 1029.66 -0.595333 -0.434452 0
M  V30 11061 H 1032.31 -1.83593 -0.48923 0
M  V30 11062 H 1030.46 -2.6634 -2.82834 0
M  V30 11063 H 1032.13 -4.50736 -0.981571 0
M  V30 11064 H 1030.37 -4.25288 -0.855122 0
M  V30 11065 H 1031.04 -5.01882 -2.29823 0
M  V30 11066 H 1033.52 -3.14079 -2.72935 0
M  V30 11067 H 1032.39 -3.83828 -3.92386 0
M  V30 11068 H 1032.65 -2.10157 -3.88956 0
M  V30 11069 N 1031.71 0.701592 -1.41122 0
M  V30 11070 C 1032.62 1.84548 -1.44841 0
M  V30 11071 C 1033.64 1.70654 -0.339594 0
M  V30 11072 O 1034.82 1.92675 -0.586378 0
M  V30 11073 C 1031.88 3.20477 -1.3227 0
M  V30 11074 C 1030.94 3.46524 -2.53415 0
M  V30 11075 C 1030.17 4.75968 -2.41434 0
M  V30 11076 O 1030.4 5.52037 -1.43566 0
M  V30 11077 O 1029.33 5.02664 -3.31078 0
M  V30 11078 H 1033.16 1.84367 -2.41335 0
M  V30 11079 H 1030.74 0.853863 -1.22595 0
M  V30 11080 H 1032.62 4.01642 -1.2752 0
M  V30 11081 H 1031.3 3.21355 -0.388889 0
M  V30 11082 H 1030.21 2.65313 -2.63742 0
M  V30 11083 H 1031.54 3.50455 -3.45604 0
M  V30 11084 N 1033.19 1.2685 0.935242 0
M  V30 11085 C 1034.42 1.15645 1.72165 0
M  V30 11086 C 1034.84 -0.283909 1.85945 0
M  V30 11087 O 1034.2 -1.20567 1.354 0
M  V30 11088 C 1034.25 1.83689 3.10307 0
M  V30 11089 O 1033.35 1.12972 3.96625 0
M  V30 11090 H 1032.69 0.402629 0.528002 0
M  V30 11091 H 1035.22 1.67781 1.17093 0
M  V30 11092 H 1035.23 1.90749 3.60664 0
M  V30 11093 H 1033.91 2.88472 2.99595 0
M  V30 11094 H 1032.48 1.13929 3.5507 0
M  V30 11095 N 1034.67 -1.14067 1.0875 0
M  V30 11096 C 1035.6 -2.18926 0.67852 0
M  V30 11097 C 1036.62 -1.60441 -0.276163 0
M  V30 11098 O 1037.8 -1.78388 -0.0632788 0
M  V30 11099 C 1034.9 -3.38893 -0.0218852 0
M  V30 11100 C 1034.08 -4.26901 0.952582 0
M  V30 11101 C 1033.14 -5.25418 0.286859 0
M  V30 11102 O 1032.16 -5.61512 0.932354 0
M  V30 11103 N 1033.36 -5.72476 -0.961831 0
M  V30 11104 H 1036.13 -2.54629 1.58063 0
M  V30 11105 H 1033.69 -1.29321 0.974042 0
M  V30 11106 H 1035.68 -4.01864 -0.478278 0
M  V30 11107 H 1034.25 -3.01486 -0.826141 0
M  V30 11108 H 1033.47 -3.60812 1.58772 0
M  V30 11109 H 1034.76 -4.82563 1.61279 0
M  V30 11110 H 1034.16 -5.45287 -1.50594 0
M  V30 11111 H 1032.72 -6.37418 -1.36166 0
M  V30 11112 N 1036.15 -0.873678 -1.31166 0
M  V30 11113 C 1037.1 -0.330288 -2.28424 0
M  V30 11114 C 1038.07 0.573299 -1.55893 0
M  V30 11115 O 1039.25 0.504143 -1.84019 0
M  V30 11116 C 1036.39 0.459004 -3.42034 0
M  V30 11117 C 1035.5 -0.472519 -4.29408 0
M  V30 11118 C 1034.64 0.331261 -5.30166 0
M  V30 11119 C 1033.68 -0.596453 -6.09187 0
M  V30 11120 N 1032.81 0.171305 -7.01891 0
M  V30 11121 H 1037.65 -1.16485 -2.7429 0
M  V30 11122 H 1035.19 -0.585813 -1.34932 0
M  V30 11123 H 1037.15 0.932432 -4.06647 0
M  V30 11124 H 1035.78 1.25824 -2.97268 0
M  V30 11125 H 1034.83 -1.06441 -3.65205 0
M  V30 11126 H 1036.14 -1.18372 -4.84551 0
M  V30 11127 H 1035.3 0.867038 -6.00473 0
M  V30 11128 H 1034.04 1.07573 -4.75688 0
M  V30 11129 H 1033.04 -1.14395 -5.37767 0
M  V30 11130 H 1034.27 -1.33983 -6.65752 0
M  V30 11131 H 1032.21 0.89852 -6.49817 0
M  V30 11132 H 1032.13 -0.480481 -7.54472 0
M  V30 11133 H 1033.4 0.688192 -7.76456 0
M  V30 11134 N 1037.63 1.44308 -0.633487 0
M  V30 11135 C 1038.56 2.28943 0.108474 0
M  V30 11136 C 1039.57 1.41415 0.806582 0
M  V30 11137 O 1040.76 1.65544 0.667634 0
M  V30 11138 C 1037.86 3.17845 1.1759 0
M  V30 11139 C 1037.03 4.33802 0.559842 0
M  V30 11140 C 1036.09 5.03722 1.52154 0
M  V30 11141 O 1035.12 5.5966 1.03776 0
M  V30 11142 N 1036.32 5.05392 2.85586 0
M  V30 11143 H 1039.09 2.93262 -0.617879 0
M  V30 11144 H 1036.65 1.54781 -0.474819 0
M  V30 11145 H 1038.64 3.61485 1.81963 0
M  V30 11146 H 1037.21 2.55261 1.80445 0
M  V30 11147 H 1036.43 3.93325 -0.262559 0
M  V30 11148 H 1037.72 5.08637 0.128942 0
M  V30 11149 H 1037.11 4.61282 3.27468 0
M  V30 11150 H 1035.67 5.52813 3.45313 0
M  V30 11151 N 1039.1 0.374177 1.53094 0
M  V30 11152 C 1040.34 -0.21278 2.03289 0
M  V30 11153 C 1040.71 -1.45291 1.25517 0
M  V30 11154 O 1041.91 -2.11605 1.65761 0
M  V30 11155 C 1040.18 -0.48913 3.54037 0
M  V30 11156 S 1041.74 -1.04853 4.26088 0
M  V30 11157 H 1038.56 -0.0612752 0.708355 0
M  V30 11158 H 1041.16 0.519031 1.88484 0
M  V30 11159 H 1039.86 0.420786 4.08237 0
M  V30 11160 H 1039.39 -1.24978 3.7302 0
M  V30 11161 H 1041.41 -2.33213 4.3798 0
M  V30 11162 N 1040.58 -1.57259 0.103575 0
M  V30 11163 C 1041.83 -1.94272 -0.557024 0
M  V30 11164 C 1042.15 -0.986739 -1.68192 0
M  V30 11165 O 1041.42 -0.0402818 -1.95859 0
M  V30 11166 H 1040 -0.717237 -0.208757 0
M  V30 11167 H 1042.66 -1.94167 0.168898 0
M  V30 11168 H 1041.76 -2.96914 -0.961691 0
M  V30 11169 N 1042.06 0.170153 -1.56679 0
M  V30 11170 C 1043.01 1.22997 -1.9742 0
M  V30 11171 C 1044 1.45762 -0.863117 0
M  V30 11172 O 1045.21 1.46328 -1.04824 0
M  V30 11173 H 1041.58 0.413482 -0.628122 0
M  V30 11174 H 1043.55 0.859502 -2.85754 0
M  V30 11175 C 1042.3 2.5615 -2.35122 0
M  V30 11176 H 1041.63 2.39456 -3.20158 0
M  V30 11177 H 1043.07 3.28991 -2.67471 0
M  V30 11178 C 1041.53 3.14992 -1.19507 0
M  V30 11179 O 1042.06 3.98781 -0.483357 0
M  V30 11180 N 1040.26 2.74098 -0.965332 0
M  V30 11181 H 1039.81 2.06062 -1.54585 0
M  V30 11182 H 1039.77 3.13803 -0.193611 0
M  V30 11183 N 1043.54 1.5137 0.438746 0
M  V30 11184 C 1044.47 1.75528 1.53987 0
M  V30 11185 C 1045.45 0.605067 1.58975 0
M  V30 11186 O 1046.63 0.847634 1.74725 0
M  V30 11187 C 1043.76 1.87904 2.92078 0
M  V30 11188 C 1042.72 3.0333 3.01951 0
M  V30 11189 C 1042.04 3.00888 4.42007 0
M  V30 11190 C 1043.34 4.43319 2.76163 0
M  V30 11191 H 1045.04 2.67728 1.34022 0
M  V30 11192 H 1042.58 1.28831 0.643308 0
M  V30 11193 H 1044.54 2.03388 3.69068 0
M  V30 11194 H 1043.26 0.923514 3.13271 0
M  V30 11195 H 1041.92 2.87549 2.274 0
M  V30 11196 H 1041.57 2.03116 4.60166 0
M  V30 11197 H 1041.27 3.78397 4.49544 0
M  V30 11198 H 1042.79 3.18464 5.20973 0
M  V30 11199 H 1044.21 4.59458 3.42887 0
M  V30 11200 H 1042.6 5.22523 2.9511 0
M  V30 11201 H 1043.67 4.53453 1.71779 0
M  V30 11202 N 1045.02 -0.694098 1.41492 0
M  V30 11203 C 1046.24 -1.48286 1.44288 0
M  V30 11204 C 1046.66 -1.88737 0.0485783 0
M  V30 11205 O 1046.02 -1.56881 -0.932449 0
M  V30 11206 C 1046.07 -2.74446 2.3529 0
M  V30 11207 O 1045.79 -2.35698 3.69294 0
M  V30 11208 C 1047.29 -3.68175 2.46905 0
M  V30 11209 H 1044.51 -0.45692 0.491391 0
M  V30 11210 H 1047.05 -0.854477 1.85793 0
M  V30 11211 H 1045.21 -3.33518 1.9709 0
M  V30 11212 H 1045.62 -3.17029 4.17843 0
M  V30 11213 H 1047.1 -4.53476 3.14743 0
M  V30 11214 H 1047.57 -4.12763 1.50078 0
M  V30 11215 H 1048.18 -3.15006 2.85747 0
M  V30 11216 N 1046.49 -1.27344 -0.928501 0
M  V30 11217 C 1047.4 -1.11812 -2.06241 0
M  V30 11218 C 1048.42 -0.048347 -1.73933 0
M  V30 11219 O 1049.6 -0.25467 -1.99783 0
M  V30 11220 C 1046.66 -0.766036 -3.38131 0
M  V30 11221 C 1045.72 -1.91659 -3.84142 0
M  V30 11222 C 1044.96 -1.58121 -5.09738 0
M  V30 11223 O 1045.18 -0.488742 -5.68302 0
M  V30 11224 O 1044.11 -2.42013 -5.51102 0
M  V30 11225 H 1047.94 -2.06967 -2.22258 0
M  V30 11226 H 1045.52 -1.06524 -1.04752 0
M  V30 11227 H 1047.41 -0.582982 -4.17348 0
M  V30 11228 H 1046.08 0.155998 -3.23324 0
M  V30 11229 H 1044.99 -2.1547 -3.05816 0
M  V30 11230 H 1046.32 -2.8188 -4.0349 0
M  V30 11231 N 1047.97 1.13488 -1.09353 0
M  V30 11232 C 1049.25 1.80998 -0.741559 0
M  V30 11233 C 1049.63 1.96418 0.773505 0
M  V30 11234 O 1048.98 1.53168 1.69563 0
M  V30 11235 C 1049.19 3.16078 -1.47972 0
M  V30 11236 C 1050.54 3.91438 -1.64504 0
M  V30 11237 O 1051.56 3.25699 -1.44218 0
M  V30 11238 O 1050.42 5.0935 -1.98054 0
M  V30 11239 H 1047.51 0.782953 -0.266297 0
M  V30 11240 H 1050.06 1.20422 -1.19569 0
M  V30 11241 H 1048.83 3.00076 -2.51137 0
M  V30 11242 H 1048.45 3.84354 -1.01772 0
M  V30 11243 N 1049.45 0.880621 1.30701 0
M  V30 11244 C 1050.38 0.360251 2.30704 0
M  V30 11245 C 1051.36 -0.554572 1.60806 0
M  V30 11246 O 1052.55 -0.469345 1.88443 0
M  V30 11247 C 1049.68 -0.429888 3.44629 0
M  V30 11248 C 1048.63 0.392786 4.26194 0
M  V30 11249 C 1047.96 -0.52369 5.32129 0
M  V30 11250 C 1049.26 1.63258 4.96129 0
M  V30 11251 H 1050.95 1.19591 2.74478 0
M  V30 11252 H 1048.5 0.576508 1.31956 0
M  V30 11253 H 1050.45 -0.804532 4.13649 0
M  V30 11254 H 1049.17 -1.29916 2.99649 0
M  V30 11255 H 1047.83 0.749514 3.58856 0
M  V30 11256 H 1047.48 -1.39054 4.83397 0
M  V30 11257 H 1047.18 0.0229272 5.87596 0
M  V30 11258 H 1048.71 -0.894946 6.04006 0
M  V30 11259 H 1050.12 1.32877 5.57689 0
M  V30 11260 H 1048.52 2.11906 5.61441 0
M  V30 11261 H 1049.59 2.37944 4.22505 0
M  V30 11262 N 1050.93 -1.4397 0.641131 0
M  V30 11263 C 1051.88 -2.30728 -0.0577905 0
M  V30 11264 C 1052.85 -1.44059 -0.826819 0
M  V30 11265 O 1054.03 -1.72947 -0.805853 0
M  V30 11266 C 1051.17 -3.29478 -1.02657 0
M  V30 11267 C 1050.28 -4.31247 -0.254913 0
M  V30 11268 C 1049.42 -5.17085 -1.2164 0
M  V30 11269 C 1048.46 -6.10556 -0.434481 0
M  V30 11270 N 1047.6 -6.89059 -1.34694 0
M  V30 11271 H 1052.44 -2.8995 0.687953 0
M  V30 11272 H 1049.97 -1.4285 0.351029 0
M  V30 11273 H 1051.93 -3.85228 -1.60173 0
M  V30 11274 H 1050.56 -2.71932 -1.73933 0
M  V30 11275 H 1049.61 -3.77889 0.436338 0
M  V30 11276 H 1050.92 -4.97545 0.353642 0
M  V30 11277 H 1050.08 -5.77402 -1.86258 0
M  V30 11278 H 1048.82 -4.50885 -1.85888 0
M  V30 11279 H 1047.82 -5.49339 0.225125 0
M  V30 11280 H 1049.05 -6.78795 0.203415 0
M  V30 11281 H 1046.99 -6.25518 -1.97644 0
M  V30 11282 H 1046.91 -7.51833 -0.792657 0
M  V30 11283 H 1048.18 -7.5389 -1.98165 0
M  V30 11284 N 1052.41 -0.382291 -1.52893 0
M  V30 11285 C 1053.64 0.202408 -2.05908 0
M  V30 11286 C 1054.05 1.4109 -1.25456 0
M  V30 11287 O 1053.41 1.80027 -0.29942 0
M  V30 11288 C 1053.46 0.579452 -3.56826 0
M  V30 11289 O 1053.18 -0.58102 -4.3423 0
M  V30 11290 C 1054.68 1.22076 -4.2616 0
M  V30 11291 H 1051.9 0.0321859 -0.670228 0
M  V30 11292 H 1054.44 -0.545494 -1.9709 0
M  V30 11293 H 1052.6 1.27726 -3.65739 0
M  V30 11294 H 1053.01 -0.272693 -5.23791 0
M  V30 11295 H 1054.49 1.435 -5.33021 0
M  V30 11296 H 1054.96 2.18605 -3.80931 0
M  V30 11297 H 1055.57 0.563922 -4.21545 0
M  V30 11298 N 1053.89 1.57202 -0.111913 0
M  V30 11299 C 1055.13 1.94125 0.547573 0
M  V30 11300 C 1055.45 0.997026 1.68282 0
M  V30 11301 O 1056.65 1.26063 2.40459 0
M  V30 11302 C 1055.11 3.44982 1.02545 0
M  V30 11303 C 1054.72 4.47927 -0.0809529 0
M  V30 11304 C 1056.46 3.90837 1.65671 0
M  V30 11305 C 1054.37 5.89955 0.413224 0
M  V30 11306 H 1053.3 0.724651 0.208321 0
M  V30 11307 H 1055.95 1.82507 -0.190625 0
M  V30 11308 H 1054.33 3.5181 1.81785 0
M  V30 11309 H 1055.51 4.52761 -0.857003 0
M  V30 11310 H 1053.82 4.11782 -0.618434 0
M  V30 11311 H 1056.42 4.9436 2.03746 0
M  V30 11312 H 1056.76 3.30417 2.53239 0
M  V30 11313 H 1057.29 3.8678 0.929844 0
M  V30 11314 H 1054.03 6.54113 -0.426238 0
M  V30 11315 H 1053.55 5.88557 1.15591 0
M  V30 11316 H 1055.23 6.41032 0.876756 0
M  V30 11317 N 1055.36 -0.161842 1.56767 0
M  V30 11318 C 1056.31 -1.2002 1.97139 0
M  V30 11319 C 1057.28 -1.43486 0.836713 0
M  V30 11320 O 1058.47 -1.56069 1.0976 0
M  V30 11321 C 1055.61 -2.53228 2.34456 0
M  V30 11322 C 1054.72 -2.37062 3.61145 0
M  V30 11323 C 1053.85 -3.63202 3.87631 0
M  V30 11324 C 1052.89 -3.42008 5.07638 0
M  V30 11325 N 1052.03 -4.60242 5.30209 0
M  V30 11326 H 1056.87 -0.848918 2.85653 0
M  V30 11327 H 1054.41 -0.407753 1.41336 0
M  V30 11328 H 1056.36 -3.30879 2.54116 0
M  V30 11329 H 1054.99 -2.86333 1.4904 0
M  V30 11330 H 1054.05 -1.50539 3.49345 0
M  V30 11331 H 1055.36 -2.17353 4.48953 0
M  V30 11332 H 1054.51 -4.49285 4.0771 0
M  V30 11333 H 1053.25 -3.85899 2.98216 0
M  V30 11334 H 1052.26 -2.54312 4.87448 0
M  V30 11335 H 1053.48 -3.20724 5.98593 0
M  V30 11336 H 1051.43 -4.8314 4.43747 0
M  V30 11337 H 1051.34 -4.43481 6.12259 0
M  V30 11338 H 1052.61 -5.47581 5.54775 0
M  V30 11339 N 1056.84 -1.516 -0.430713 0
M  V30 11340 C 1057.77 -1.69594 -1.54177 0
M  V30 11341 C 1058.79 -0.576518 -1.5225 0
M  V30 11342 O 1059.98 -0.85104 -1.56906 0
M  V30 11343 C 1057.08 -1.70148 -2.93092 0
M  V30 11344 C 1056.25 -2.98782 -3.1945 0
M  V30 11345 C 1055.31 -2.91435 -4.38123 0
M  V30 11346 O 1054.33 -3.65372 -4.36454 0
M  V30 11347 N 1055.54 -2.0774 -5.42056 0
M  V30 11348 H 1058.3 -2.65442 -1.39143 0
M  V30 11349 H 1055.86 -1.49569 -0.61974 0
M  V30 11350 H 1057.85 -1.62793 -3.70514 0
M  V30 11351 H 1056.42 -0.818667 -3.0169 0
M  V30 11352 H 1055.64 -3.19954 -2.30267 0
M  V30 11353 H 1056.93 -3.83919 -3.33892 0
M  V30 11354 H 1056.33 -1.47059 -5.46251 0
M  V30 11355 H 1054.89 -2.06259 -6.18305 0
M  V30 11356 N 1058.32 0.686584 -1.41858 0
M  V30 11357 C 1059.55 1.47519 -1.45072 0
M  V30 11358 C 1059.96 1.88709 -0.0585868 0
M  V30 11359 O 1059.32 1.57373 0.924116 0
M  V30 11360 C 1059.37 2.73195 -2.36742 0
M  V30 11361 O 1059.09 2.33736 -3.70539 0
M  V30 11362 C 1060.59 3.66861 -2.48854 0
M  V30 11363 H 1057.81 0.454307 -0.493808 0
M  V30 11364 H 1060.36 0.844612 -1.86243 0
M  V30 11365 H 1058.51 3.32468 -1.98856 0
M  V30 11366 H 1058.93 3.14809 -4.19518 0
M  V30 11367 H 1060.4 4.51801 -3.17143 0
M  V30 11368 H 1060.88 4.11961 -1.52265 0
M  V30 11369 H 1061.48 3.13486 -2.87414 0
M  V30 11370 N 1059.8 1.27835 0.921735 0
M  V30 11371 C 1060.75 1.07723 2.00947 0
M  V30 11372 C 1061.73 0.00336676 1.609 0
M  V30 11373 O 1062.92 0.222593 1.75595 0
M  V30 11374 C 1060.05 0.732732 3.35389 0
M  V30 11375 C 1059.14 1.84504 3.81863 0
M  V30 11376 N 1059.53 3.08551 4.00787 0
M  V30 11377 C 1057.83 1.73308 4.10951 0
M  V30 11378 C 1058.53 3.80974 4.39584 0
M  V30 11379 N 1057.5 3.08773 4.47393 0
M  V30 11380 H 1061.31 2.01854 2.13617 0
M  V30 11381 H 1058.82 1.18637 1.109 0
M  V30 11382 H 1060.82 0.56975 4.12988 0
M  V30 11383 H 1059.48 -0.200885 3.24078 0
M  V30 11384 H 1060.49 3.44248 3.86928 0
M  V30 11385 H 1057.17 0.870698 4.0832 0
M  V30 11386 H 1058.56 4.87617 4.62255 0
M  V30 11387 N 1061.28 -1.12907 1.09954 0
M  V30 11388 C 1062.5 -1.88679 0.861099 0
M  V30 11389 C 1062.93 -1.78853 -0.582499 0
M  V30 11390 O 1062.28 -1.13992 -1.4098 0
M  V30 11391 C 1062.33 -3.36047 1.30785 0
M  V30 11392 O 1061.44 -4.09716 0.469728 0
M  V30 11393 H 1060.78 -0.586447 0.31141 0
M  V30 11394 H 1063.31 -1.42818 1.46507 0
M  V30 11395 H 1063.32 -3.86882 1.29562 0
M  V30 11396 H 1061.99 -3.42516 2.35914 0
M  V30 11397 H 1060.57 -3.6887 0.54674 0
M  V30 11398 N 1062.75 -0.88754 -1.30232 0
M  V30 11399 C 1063.69 -0.313488 -2.27046 0
M  V30 11400 C 1064.7 0.533383 -1.53814 0
M  V30 11401 O 1065.89 0.352516 -1.74984 0
M  V30 11402 C 1062.99 0.572674 -3.34026 0
M  V30 11403 C 1062.16 -0.245712 -4.36709 0
M  V30 11404 C 1061.22 0.57135 -5.23089 0
M  V30 11405 O 1060.25 -0.00685948 -5.692 0
M  V30 11406 N 1061.45 1.87994 -5.49216 0
M  V30 11407 H 1064.21 -1.14553 -2.76943 0
M  V30 11408 H 1061.77 -0.750785 -1.43439 0
M  V30 11409 H 1063.77 1.12539 -3.88738 0
M  V30 11410 H 1062.34 1.3054 -2.84039 0
M  V30 11411 H 1061.56 -0.979869 -3.81827 0
M  V30 11412 H 1062.84 -0.806618 -5.02366 0
M  V30 11413 H 1062.24 2.3726 -5.13541 0
M  V30 11414 H 1060.8 2.38005 -6.06792 0
M  V30 11415 N 1064.23 1.43628 -0.648757 0
M  V30 11416 C 1065.14 2.34554 0.0463037 0
M  V30 11417 C 1066.16 1.53629 0.816952 0
M  V30 11418 O 1067.33 1.86297 0.765212 0
M  V30 11419 C 1064.4 3.3185 1.00381 0
M  V30 11420 C 1063.46 4.2868 0.230589 0
M  V30 11421 C 1062.69 5.21328 1.14249 0
M  V30 11422 O 1062.92 5.18298 2.38166 0
M  V30 11423 O 1061.85 5.98726 0.617296 0
M  V30 11424 H 1065.68 2.95475 -0.702008 0
M  V30 11425 H 1063.26 1.43694 -0.408942 0
M  V30 11426 H 1065.14 3.91692 1.5542 0
M  V30 11427 H 1063.82 2.73439 1.73243 0
M  V30 11428 H 1062.73 3.72332 -0.363282 0
M  V30 11429 H 1064.06 4.90061 -0.458368 0
M  V30 11430 N 1065.71 0.390394 1.52688 0
M  V30 11431 C 1066.64 -0.43567 2.294 0
M  V30 11432 C 1067.62 -1.06253 1.32832 0
M  V30 11433 O 1068.81 -1.07509 1.61726 0
M  V30 11434 C 1065.94 -1.56259 3.10162 0
M  V30 11435 C 1064.89 -1.06172 4.14622 0
M  V30 11436 C 1064.22 -2.2808 4.83615 0
M  V30 11437 C 1065.52 -0.128902 5.22141 0
M  V30 11438 H 1067.21 0.204384 2.98702 0
M  V30 11439 H 1064.76 0.0997377 1.43654 0
M  V30 11440 H 1066.71 -2.14732 3.62585 0
M  V30 11441 H 1065.43 -2.23025 2.38595 0
M  V30 11442 H 1064.09 -0.499518 3.63181 0
M  V30 11443 H 1063.74 -2.93358 4.08595 0
M  V30 11444 H 1063.44 -1.95227 5.5422 0
M  V30 11445 H 1064.96 -2.87193 5.38844 0
M  V30 11446 H 1066.38 -0.621849 5.69917 0
M  V30 11447 H 1064.78 0.109919 5.99999 0
M  V30 11448 H 1065.85 0.821884 4.77884 0
M  V30 11449 N 1067.19 -1.57141 0.120249 0
M  V30 11450 C 1068.43 -1.97124 -0.540521 0
M  V30 11451 C 1068.79 -1.0022 -1.63768 0
M  V30 11452 O 1069.99 -1.29146 -2.35743 0
M  V30 11453 C 1068.26 -3.41371 -1.05833 0
M  V30 11454 S 1069.82 -4.03367 -1.72745 0
M  V30 11455 H 1066.64 -0.688962 -0.175646 0
M  V30 11456 H 1069.24 -1.94416 0.205625 0
M  V30 11457 H 1067.95 -4.09646 -0.248656 0
M  V30 11458 H 1067.48 -3.47732 -1.83972 0
M  V30 11459 H 1069.49 -3.94227 -3.0133 0
M  V30 11460 N 1068.67 0.153526 -1.5685 0
M  V30 11461 C 1069.61 1.18973 -1.97773 0
M  V30 11462 C 1070.58 1.43041 -0.844311 0
M  V30 11463 O 1071.77 1.55484 -1.10586 0
M  V30 11464 C 1068.91 2.51981 -2.35795 0
M  V30 11465 C 1068.02 2.35143 -3.62397 0
M  V30 11466 C 1067.16 3.61141 -3.89552 0
M  V30 11467 C 1066.2 3.39311 -5.09445 0
M  V30 11468 N 1065.33 4.57423 -5.32643 0
M  V30 11469 H 1070.17 0.833758 -2.86099 0
M  V30 11470 H 1067.71 0.400252 -1.4155 0
M  V30 11471 H 1069.67 3.29527 -2.55867 0
M  V30 11472 H 1068.3 2.85539 -1.50557 0
M  V30 11473 H 1067.35 1.48684 -3.50139 0
M  V30 11474 H 1068.66 2.14969 -4.501 0
M  V30 11475 H 1067.82 4.47117 -4.10087 0
M  V30 11476 H 1066.55 3.84312 -3.00259 0
M  V30 11477 H 1065.56 2.51723 -4.8879 0
M  V30 11478 H 1066.78 3.17545 -6.00285 0
M  V30 11479 H 1064.73 4.8078 -4.46303 0
M  V30 11480 H 1064.65 4.40228 -6.14602 0
M  V30 11481 H 1065.92 5.44632 -5.57671 0
M  V30 11482 N 1070.14 1.51827 0.422667 0
M  V30 11483 C 1071.07 1.77152 1.52117 0
M  V30 11484 C 1072.06 0.621895 1.58324 0
M  V30 11485 O 1073.24 0.866118 1.73816 0
M  V30 11486 C 1070.37 1.90991 2.90068 0
M  V30 11487 C 1069.32 3.06516 2.98717 0
M  V30 11488 C 1068.65 3.05559 4.38791 0
M  V30 11489 C 1069.95 4.46223 2.71445 0
M  V30 11490 H 1071.64 2.69135 1.31175 0
M  V30 11491 H 1069.19 1.29507 0.629607 0
M  V30 11492 H 1071.14 2.07291 3.6689 0
M  V30 11493 H 1069.87 0.956688 3.12274 0
M  V30 11494 H 1068.53 2.89945 2.24338 0
M  V30 11495 H 1068.17 2.07985 4.57986 0
M  V30 11496 H 1067.87 3.83144 4.45505 0
M  V30 11497 H 1069.4 3.23971 5.17566 0
M  V30 11498 H 1070.81 4.63069 3.37994 0
M  V30 11499 H 1069.21 5.25623 2.89552 0
M  V30 11500 H 1070.28 4.5525 1.6696 0
M  V30 11501 N 1071.62 -0.679052 1.4222 0
M  V30 11502 C 1072.56 -1.80369 1.39794 0
M  V30 11503 C 1073.53 -1.60462 0.262806 0
M  V30 11504 O 1074.72 -1.82992 0.452352 0
M  V30 11505 C 1071.84 -3.17305 1.18471 0
M  V30 11506 C 1070.89 -3.55969 2.34922 0
M  V30 11507 S 1071.72 -3.58884 3.97445 0
M  V30 11508 C 1072.88 -4.98519 3.78457 0
M  V30 11509 H 1073.11 -1.82152 2.34964 0
M  V30 11510 H 1070.65 -0.84932 1.28942 0
M  V30 11511 H 1072.6 -3.96348 1.06856 0
M  V30 11512 H 1071.26 -3.13112 0.248944 0
M  V30 11513 H 1070.46 -4.55491 2.1574 0
M  V30 11514 H 1070.06 -2.84275 2.4303 0
M  V30 11515 H 1072.35 -5.86481 3.39184 0
M  V30 11516 H 1073.29 -5.22748 4.77641 0
M  V30 11517 H 1073.7 -4.70836 3.11406 0
M  V30 11518 N 1073.1 -1.28322 -0.914942 0
M  V30 11519 C 1074.05 -1.12003 -2.03858 0
M  V30 11520 C 1075.04 -0.0396287 -1.69354 0
M  V30 11521 O 1076.25 -0.198309 -1.78904 0
M  V30 11522 H 1072.62 -0.34552 -0.667922 0
M  V30 11523 H 1074.59 -2.07168 -2.14765 0
M  V30 11524 C 1073.34 -0.797402 -3.38433 0
M  V30 11525 H 1072.67 -1.62071 -3.65476 0
M  V30 11526 H 1074.11 -0.723165 -4.17787 0
M  V30 11527 C 1072.57 0.498807 -3.33187 0
M  V30 11528 O 1073.1 1.52946 -3.71444 0
M  V30 11529 N 1071.3 0.499101 -2.86282 0
M  V30 11530 H 1070.85 -0.340056 -2.55346 0
M  V30 11531 H 1070.81 1.36641 -2.83155 0
M  V30 11532 N 1074.58 1.12322 -1.10551 0
M  V30 11533 C 1075.51 2.20176 -0.777486 0
M  V30 11534 C 1076.49 1.68252 0.250069 0
M  V30 11535 O 1077.67 1.93856 0.115574 0
M  V30 11536 C 1074.8 3.46666 -0.209822 0
M  V30 11537 C 1073.76 4.11749 -1.1682 0
M  V30 11538 C 1073.08 5.32703 -0.461684 0
M  V30 11539 C 1074.38 4.57746 -2.51527 0
M  V30 11540 H 1076.08 2.47872 -1.67928 0
M  V30 11541 H 1073.62 1.19136 -0.808863 0
M  V30 11542 H 1075.58 4.21388 0.0318068 0
M  V30 11543 H 1074.3 3.18401 0.727226 0
M  V30 11544 H 1072.96 3.39009 -1.3953 0
M  V30 11545 H 1072.61 5.00706 0.479875 0
M  V30 11546 H 1072.31 5.77197 -1.1008 0
M  V30 11547 H 1073.83 6.10172 -0.228629 0
M  V30 11548 H 1075.25 5.23835 -2.32958 0
M  V30 11549 H 1073.64 5.13021 -3.11335 0
M  V30 11550 H 1074.71 3.71667 -3.11435 0
M  V30 11551 N 1076.06 0.894434 1.2976 0
M  V30 11552 C 1077.3 0.527831 1.96432 0
M  V30 11553 C 1077.66 -0.914793 1.69261 0
M  V30 11554 O 1076.95 -1.63911 0.99215 0
M  V30 11555 C 1077.14 0.750307 3.49435 0
M  V30 11556 C 1076.97 2.213 3.91479 0
M  V30 11557 C 1075.74 2.85943 4.16611 0
M  V30 11558 C 1077.94 3.18771 4.03595 0
M  V30 11559 N 1075.92 4.2271 4.45185 0
M  V30 11560 C 1077.29 4.40641 4.3616 0
M  V30 11561 C 1079.35 3.14432 3.86053 0
M  V30 11562 C 1078.05 5.58725 4.53011 0
M  V30 11563 C 1080.08 4.31797 4.0411 0
M  V30 11564 C 1079.44 5.52435 4.37029 0
M  V30 11565 H 1075.54 0.242654 0.7434 0
M  V30 11566 H 1078.12 1.15415 1.56804 0
M  V30 11567 H 1076.29 0.153411 3.88097 0
M  V30 11568 H 1078.03 0.349663 4.03187 0
M  V30 11569 H 1074.78 2.36763 4.10171 0
M  V30 11570 H 1075.21 4.9337 4.63589 0
M  V30 11571 H 1079.85 2.22255 3.5967 0
M  V30 11572 H 1077.57 6.51398 4.78232 0
M  V30 11573 H 1081.15 4.2992 3.91995 0
M  V30 11574 H 1080.03 6.41738 4.50712 0
M  V30 11575 N 1077.53 -1.43282 0.656365 0
M  V30 11576 C 1078.76 -2.06125 0.178879 0
M  V30 11577 C 1079.18 -1.49216 -1.15672 0
M  V30 11578 O 1078.53 -0.624693 -1.71475 0
M  V30 11579 C 1078.59 -3.614 0.0851785 0
M  V30 11580 O 1078.31 -4.16194 1.36798 0
M  V30 11581 C 1079.81 -4.41325 -0.41801 0
M  V30 11582 H 1077.03 -0.664753 0.0913504 0
M  V30 11583 H 1079.57 -1.83733 0.897901 0
M  V30 11584 H 1077.73 -3.82966 -0.584421 0
M  V30 11585 H 1078.14 -5.09892 1.22924 0
M  V30 11586 H 1079.61 -5.50303 -0.432519 0
M  V30 11587 H 1080.09 -4.14577 -1.44991 0
M  V30 11588 H 1080.7 -4.24735 0.219208 0
M  V30 11589 N 1079.01 -0.398486 -1.52479 0
M  V30 11590 C 1079.92 0.439328 -2.3045 0
M  V30 11591 C 1080.94 1.06322 -1.37738 0
M  V30 11592 O 1082.12 1.06704 -1.7081 0
M  V30 11593 C 1079.18 1.54655 -3.10294 0
M  V30 11594 C 1078.24 0.946824 -4.18729 0
M  V30 11595 C 1077.47 2.00129 -4.94757 0
M  V30 11596 O 1077.7 3.2178 -4.70971 0
M  V30 11597 O 1076.63 1.61345 -5.79872 0
M  V30 11598 H 1080.46 -0.196118 -3.03066 0
M  V30 11599 H 1078.04 -0.161961 -1.4852 0
M  V30 11600 H 1079.92 2.18958 -3.60049 0
M  V30 11601 H 1078.6 2.1668 -2.40482 0
M  V30 11602 H 1077.51 0.266802 -3.73147 0
M  V30 11603 H 1078.84 0.370664 -4.90802 0
M  V30 11604 N 1080.49 1.57075 -0.12858 0
M  V30 11605 C 1081.91 1.57964 0.227961 0
M  V30 11606 C 1082.11 1.14186 1.66023 0
M  V30 11607 O 1081.16 0.833655 2.38341 0
M  V30 11608 C 1082.48 3.00697 -0.0140648 0
M  V30 11609 C 1084.02 3.12958 0.0510876 0
M  V30 11610 C 1084.5 4.57709 -0.163368 0
M  V30 11611 N 1085.99 4.6307 -0.109663 0
M  V30 11612 C 1086.73 5.72853 -0.250366 0
M  V30 11613 N 1086.22 6.91351 -0.447772 0
M  V30 11614 N 1088.01 5.61781 -0.189265 0
M  V30 11615 H 1080.17 1.83829 -1.06398 0
M  V30 11616 H 1082.43 0.850014 -0.419739 0
M  V30 11617 H 1082.13 3.37047 -1.00461 0
M  V30 11618 H 1082.01 3.70389 0.713571 0
M  V30 11619 H 1084.4 2.7646 1.03216 0
M  V30 11620 H 1084.48 2.4579 -0.708583 0
M  V30 11621 H 1084.12 4.94907 -1.14146 0
M  V30 11622 H 1084.05 5.2298 0.616405 0
M  V30 11623 H 1086.54 3.7788 0.0390086 0
M  V30 11624 H 1086.85 7.70871 -0.54574 0
M  V30 11625 H 1085.2 6.93314 -0.483866 0
M  V30 11626 H 1088.39 4.68086 -0.0359374 0
M  V30 11627 H 1088.56 6.47294 -0.302359 0
M  V30 11628 N 1081.97 -0.145205 1.5693 0
M  V30 11629 C 1083.22 -0.857516 1.83447 0
M  V30 11630 C 1083.54 -1.81088 0.709739 0
M  V30 11631 O 1082.8 -1.9337 -0.301097 0
M  V30 11632 C 1083.1 -1.66391 3.16305 0
M  V30 11633 C 1082.76 -0.857171 4.42678 0
M  V30 11634 C 1081.43 -0.634611 4.76997 0
M  V30 11635 C 1083.78 -0.293105 5.20375 0
M  V30 11636 C 1081.11 0.162693 5.86474 0
M  V30 11637 C 1083.46 0.491248 6.3069 0
M  V30 11638 C 1082.12 0.724368 6.63558 0
M  V30 11639 H 1081.39 -0.313787 0.671281 0
M  V30 11640 H 1084.04 -0.121074 1.91117 0
M  V30 11641 H 1082.34 -2.47051 3.04094 0
M  V30 11642 H 1084.04 -2.21855 3.34038 0
M  V30 11643 H 1080.63 -1.0407 4.15773 0
M  V30 11644 H 1084.82 -0.452326 4.94234 0
M  V30 11645 H 1080.07 0.352788 6.10381 0
M  V30 11646 H 1084.25 0.935449 6.90089 0
M  V30 11647 H 1081.87 1.34403 7.48224 0
M  V30 11648 N 1083.45 -1.52049 -0.414609 0
M  V30 11649 C 1084.69 -1.67511 -1.17129 0
M  V30 11650 C 1085.05 -0.39383 -1.87917 0
M  V30 11651 O 1086.25 -0.424496 -2.65427 0
M  V30 11652 C 1084.52 -2.85982 -2.14357 0
M  V30 11653 S 1086.08 -3.21898 -2.98206 0
M  V30 11654 H 1082.9 -0.589923 -0.396877 0
M  V30 11655 H 1085.5 -1.90025 -0.459409 0
M  V30 11656 H 1084.21 -3.77488 -1.6103 0
M  V30 11657 H 1083.74 -2.65725 -2.90092 0
M  V30 11658 H 1085.75 -2.70095 -4.16249 0
M  V30 11659 N 1084.93 0.6715 -1.42579 0
M  V30 11660 C 1085.89 1.76676 -1.46008 0
M  V30 11661 C 1086.89 1.57007 -0.347213 0
M  V30 11662 O 1088.08 1.63238 -0.608185 0
M  V30 11663 C 1085.21 3.15348 -1.29494 0
M  V30 11664 H 1086.4 1.75021 -2.43531 0
M  V30 11665 H 1083.96 0.881444 -1.29075 0
M  V30 11666 H 1084.69 3.22626 -0.32906 0
M  V30 11667 H 1084.48 3.31028 -2.10149 0
M  V30 11668 H 1085.97 3.95251 -1.34784 0
M  V30 11669 N 1086.4 1.28806 0.908124 0
M  V30 11670 C 1087.33 1.15758 2.02787 0
M  V30 11671 C 1088.31 0.053911 1.70015 0
M  V30 11672 O 1089.5 0.231901 1.9281 0
M  V30 11673 C 1086.63 0.824526 3.37371 0
M  V30 11674 C 1085.58 1.88359 3.84324 0
M  V30 11675 C 1084.91 1.40404 5.15937 0
M  V30 11676 C 1086.21 3.29108 4.05568 0
M  V30 11677 H 1087.9 2.09431 2.13961 0
M  V30 11678 H 1085.45 1.00831 1.02806 0
M  V30 11679 H 1087.4 0.71999 4.15204 0
M  V30 11680 H 1086.13 -0.147902 3.26265 0
M  V30 11681 H 1084.79 1.97736 3.087 0
M  V30 11682 H 1084.43 0.420515 5.01239 0
M  V30 11683 H 1084.13 2.11224 5.48323 0
M  V30 11684 H 1085.66 1.31283 5.9632 0
M  V30 11685 H 1087.07 3.2262 4.73909 0
M  V30 11686 H 1085.47 3.97812 4.49294 0
M  V30 11687 H 1086.54 3.72709 3.10187 0
M  V30 11688 N 1087.88 -1.11734 1.11145 0
M  V30 11689 C 1088.79 -2.21267 0.779607 0
M  V30 11690 C 1089.81 -1.72526 -0.225986 0
M  V30 11691 O 1090.98 -2.01302 -0.0629166 0
M  V30 11692 C 1088.05 -3.45973 0.22435 0
M  V30 11693 C 1087.11 -4.09518 1.28816 0
M  V30 11694 C 1086.34 -5.28271 0.7593 0
M  V30 11695 O 1086.57 -5.68912 -0.411725 0
M  V30 11696 O 1085.5 -5.82322 1.52266 0
M  V30 11697 H 1089.33 -2.5206 1.6941 0
M  V30 11698 H 1086.91 -1.20211 0.887115 0
M  V30 11699 H 1088.79 -4.21322 -0.0810921 0
M  V30 11700 H 1087.47 -3.1684 -0.662891 0
M  V30 11701 H 1086.37 -3.35915 1.64657 0
M  V30 11702 H 1087.71 -4.42824 2.14868 0
M  V30 11703 N 1089.36 -0.901303 -1.29284 0
M  V30 11704 C 1090.27 -0.3849 -2.31421 0
M  V30 11705 C 1091.29 0.521163 -1.66012 0
M  V30 11706 O 1092.46 0.410356 -1.97175 0
M  V30 11707 C 1089.53 0.377804 -3.44635 0
M  V30 11708 C 1088.59 -0.559974 -4.25632 0
M  V30 11709 C 1087.82 0.166425 -5.3344 0
M  V30 11710 O 1088.04 1.39012 -5.53202 0
M  V30 11711 O 1086.98 -0.491875 -5.99887 0
M  V30 11712 H 1090.8 -1.2323 -2.77575 0
M  V30 11713 H 1088.39 -0.665683 -1.3375 0
M  V30 11714 H 1090.27 0.809041 -4.13561 0
M  V30 11715 H 1088.95 1.20124 -3.00586 0
M  V30 11716 H 1087.85 -1.04036 -3.59343 0
M  V30 11717 H 1089.19 -1.34987 -4.73328 0
M  V30 11718 N 1090.84 1.42931 -0.663954 0
M  V30 11719 C 1091.78 2.3079 0.0210764 0
M  V30 11720 C 1092.75 1.45356 0.803796 0
M  V30 11721 O 1093.94 1.74207 0.778237 0
M  V30 11722 C 1091.08 3.31069 0.974023 0
M  V30 11723 C 1090.19 4.31598 0.186273 0
M  V30 11724 C 1089.33 5.18955 1.13399 0
M  V30 11725 C 1088.37 6.1117 0.337292 0
M  V30 11726 N 1087.5 6.91114 1.23715 0
M  V30 11727 H 1092.34 2.88819 -0.733995 0
M  V30 11728 H 1089.88 1.42274 -0.373711 0
M  V30 11729 H 1091.84 3.87727 1.54024 0
M  V30 11730 H 1090.47 2.74665 1.69585 0
M  V30 11731 H 1089.52 3.77147 -0.496402 0
M  V30 11732 H 1090.83 4.96919 -0.432753 0
M  V30 11733 H 1089.99 5.80292 1.77049 0
M  V30 11734 H 1088.73 4.53785 1.78691 0
M  V30 11735 H 1087.73 5.48911 -0.312492 0
M  V30 11736 H 1088.96 6.78386 -0.31138 0
M  V30 11737 H 1086.9 6.28583 1.87668 0
M  V30 11738 H 1086.82 7.52999 0.672946 0
M  V30 11739 H 1088.09 7.56948 1.86146 0
M  V30 11740 N 1092.32 0.406567 1.52266 0
M  V30 11741 C 1093.56 -0.169611 2.03695 0
M  V30 11742 C 1093.92 -1.42596 1.2857 0
M  V30 11743 O 1095.12 -2.08041 1.70212 0
M  V30 11744 C 1093.39 -0.413924 3.54995 0
M  V30 11745 S 1094.95 -0.957916 4.28217 0
M  V30 11746 H 1091.77 -0.0462362 0.709495 0
M  V30 11747 H 1094.37 0.558895 1.87341 0
M  V30 11748 H 1093.07 0.507285 4.07253 0
M  V30 11749 H 1092.61 -1.17038 3.75587 0
M  V30 11750 H 1094.62 -2.2387 4.42828 0
M  V30 11751 N 1093.79 -1.57004 0.136909 0
M  V30 11752 C 1094.7 -2.19807 -0.819887 0
M  V30 11753 C 1095.72 -1.17939 -1.27932 0
M  V30 11754 O 1096.9 -1.50478 -1.3386 0
M  V30 11755 C 1093.96 -2.79935 -2.04542 0
M  V30 11756 C 1093.02 -3.96897 -1.6362 0
M  V30 11757 C 1092.26 -4.54148 -2.80331 0
M  V30 11758 O 1092.48 -4.10282 -3.96264 0
M  V30 11759 O 1091.41 -5.44565 -2.56384 0
M  V30 11760 H 1095.24 -3.02058 -0.315337 0
M  V30 11761 H 1092.82 -1.49131 -0.0896151 0
M  V30 11762 H 1094.71 -3.18191 -2.76283 0
M  V30 11763 H 1093.38 -2.00703 -2.53969 0
M  V30 11764 H 1092.29 -3.63376 -0.889316 0
M  V30 11765 H 1093.62 -4.77618 -1.18918 0
M  V30 11766 N 1095.27 0.136881 -1.57004 0
M  V30 11767 C 1096.22 1.18782 -1.99984 0
M  V30 11768 C 1097.21 1.43899 -0.893841 0
M  V30 11769 O 1098.42 1.44072 -1.07904 0
M  V30 11770 H 1094.8 0.400065 -0.636751 0
M  V30 11771 H 1096.77 0.798696 -2.87512 0
M  V30 11772 C 1095.52 2.51105 -2.40502 0
M  V30 11773 H 1094.84 2.32611 -3.25165 0
M  V30 11774 H 1096.28 3.23244 -2.74389 0
M  V30 11775 C 1094.74 3.12386 -1.26161 0
M  V30 11776 O 1095.27 3.97666 -0.567836 0
M  V30 11777 N 1093.47 2.71989 -1.02326 0
M  V30 11778 H 1093.02 2.02736 -1.58921 0
M  V30 11779 H 1092.98 3.13322 -0.26013 0
M  V30 11780 N 1096.75 1.52266 0.40654 0
M  V30 11781 C 1098 1.6568 1.15035 0
M  V30 11782 C 1098.31 0.394135 1.91588 0
M  V30 11783 O 1099.52 0.408113 2.68415 0
M  V30 11784 C 1097.97 2.92725 2.0938 0
M  V30 11785 C 1097.58 4.26108 1.38332 0
M  V30 11786 C 1099.33 3.15502 2.84004 0
M  V30 11787 C 1097.23 5.44275 2.3134 0
M  V30 11788 H 1096.16 0.61719 0.43312 0
M  V30 11789 H 1098.81 1.78755 0.414598 0
M  V30 11790 H 1097.2 2.73355 2.86519 0
M  V30 11791 H 1098.37 4.55971 0.665396 0
M  V30 11792 H 1096.69 4.09454 0.757384 0
M  V30 11793 H 1099.28 4.00964 3.5374 0
M  V30 11794 H 1099.63 2.29842 3.471 0
M  V30 11795 H 1100.16 3.35357 2.13964 0
M  V30 11796 H 1096.9 6.3229 1.72887 0
M  V30 11797 H 1096.42 5.18749 3.01098 0
M  V30 11798 H 1098.1 5.77457 2.91809 0
M  V30 11799 N 1098.23 -0.663929 1.42933 0
M  V30 11800 C 1099.16 -1.78946 1.43217 0
M  V30 11801 C 1100.17 -1.59426 0.329727 0
M  V30 11802 O 1101.36 -1.68344 0.5935 0
M  V30 11803 C 1098.46 -3.16217 1.21902 0
M  V30 11804 C 1097.64 -3.6249 2.44785 0
M  V30 11805 C 1096.69 -4.78529 2.18853 0
M  V30 11806 O 1095.72 -4.88516 2.92131 0
M  V30 11807 N 1096.92 -5.67994 1.19845 0
M  V30 11808 H 1099.69 -1.79184 2.40236 0
M  V30 11809 H 1097.25 -0.847404 1.37952 0
M  V30 11810 H 1099.24 -3.91517 1.02454 0
M  V30 11811 H 1097.81 -3.10814 0.333676 0
M  V30 11812 H 1097.03 -2.77751 2.79729 0
M  V30 11813 H 1098.32 -3.90151 3.26588 0
M  V30 11814 H 1097.72 -5.62588 0.59259 0
M  V30 11815 H 1096.27 -6.4306 1.06382 0
M  V30 11816 N 1099.71 -1.29285 -0.901281 0
M  V30 11817 C 1100.65 -1.1428 -2.00521 0
M  V30 11818 C 1101.62 -0.0365428 -1.6606 0
M  V30 11819 O 1102.81 -0.203771 -1.89709 0
M  V30 11820 C 1099.95 -0.823671 -3.35126 0
M  V30 11821 C 1099.06 -2.01021 -3.8238 0
M  V30 11822 C 1098.2 -1.6306 -5.05554 0
M  V30 11823 C 1097.24 -2.78304 -5.45173 0
M  V30 11824 N 1096.37 -2.4075 -6.59533 0
M  V30 11825 H 1101.21 -2.08729 -2.12688 0
M  V30 11826 H 1098.75 -1.0387 -1.04161 0
M  V30 11827 H 1100.71 -0.61934 -4.12577 0
M  V30 11828 H 1099.34 0.0839113 -3.22691 0
M  V30 11829 H 1098.39 -2.32629 -3.00978 0
M  V30 11830 H 1099.7 -2.8738 -4.07694 0
M  V30 11831 H 1098.86 -1.38906 -5.90584 0
M  V30 11832 H 1097.59 -0.738464 -4.82077 0
M  V30 11833 H 1096.6 -3.03142 -4.58678 0
M  V30 11834 H 1097.82 -3.68179 -5.70632 0
M  V30 11835 H 1095.77 -1.54022 -6.37662 0
M  V30 11836 H 1095.69 -3.20643 -6.84634 0
M  V30 11837 H 1096.96 -2.19912 -7.47836 0
M  V30 11838 N 1101.18 1.11143 -1.11736 0
M  V30 11839 C 1102.6 1.64462 -0.883693 0
M  V30 11840 C 1102.95 1.87324 0.583448 0
M  V30 11841 O 1102.07 1.60975 1.44623 0
M  V30 11842 C 1102.67 2.98765 -1.59764 0
M  V30 11843 C 1101.23 3.4898 -1.41032 0
M  V30 11844 C 1100.37 2.23729 -1.63831 0
M  V30 11845 H 1103.32 0.947415 -1.27317 0
M  V30 11846 H 1103.34 3.65885 -1.04443 0
M  V30 11847 H 1102.86 2.82094 -2.66542 0
M  V30 11848 H 1100.96 3.7081 -0.364781 0
M  V30 11849 H 1101.07 4.27571 -2.16148 0
M  V30 11850 H 1099.43 2.31507 -1.06191 0
M  V30 11851 H 1100.22 2.09597 -2.7189 0
M  V30 11852 N 1102.66 0.908147 1.28804 0
M  V30 11853 C 1103.59 0.409106 2.29888 0
M  V30 11854 C 1104.57 -0.520338 1.61946 0
M  V30 11855 O 1105.76 -0.429268 1.89396 0
M  V30 11856 C 1102.89 -0.35669 3.45463 0
M  V30 11857 C 1101.84 0.4831 4.25265 0
M  V30 11858 C 1101.17 -0.4107 5.3312 0
M  V30 11859 C 1102.47 1.73744 4.92555 0
M  V30 11860 H 1104.16 1.25386 2.7188 0
M  V30 11861 H 1101.71 0.604368 1.30703 0
M  V30 11862 H 1103.66 -0.71661 4.15262 0
M  V30 11863 H 1102.39 -1.2353 3.02337 0
M  V30 11864 H 1101.04 0.825464 3.57186 0
M  V30 11865 H 1100.69 -1.28769 4.86238 0
M  V30 11866 H 1100.39 0.14756 5.87415 0
M  V30 11867 H 1101.92 -0.766626 6.05768 0
M  V30 11868 H 1103.33 1.44676 5.54745 0
M  V30 11869 H 1101.73 2.23767 5.5682 0
M  V30 11870 H 1102.8 2.46853 4.17363 0
M  V30 11871 N 1104.14 -1.42577 0.671525 0
M  V30 11872 C 1105.37 -2.06442 0.199152 0
M  V30 11873 C 1105.79 -1.50104 -1.1336 0
M  V30 11874 O 1105.15 -0.618211 -1.70434 0
M  V30 11875 C 1105.2 -3.60323 0.141215 0
M  V30 11876 O 1104.3 -4.02655 -0.891238 0
M  V30 11877 H 1103.64 -0.655919 0.103277 0
M  V30 11878 H 1106.17 -1.82768 0.919614 0
M  V30 11879 H 1106.18 -4.07984 -0.0360209 0
M  V30 11880 H 1104.86 -4.00702 1.11403 0
M  V30 11881 H 1103.43 -3.66549 -0.685309 0
M  V30 11882 N 1105.62 -0.414636 -1.52048 0
M  V30 11883 C 1106.84 0.161137 -2.06773 0
M  V30 11884 C 1107.27 1.37628 -1.2822 0
M  V30 11885 O 1106.63 1.78562 -0.313915 0
M  V30 11886 C 1106.67 0.48452 -3.5733 0
M  V30 11887 O 1105.78 1.57466 -3.81154 0
M  V30 11888 H 1105.12 0.0118003 -0.663895 0
M  V30 11889 H 1107.65 -0.589424 -1.95926 0
M  V30 11890 H 1107.66 0.741567 -4.01204 0
M  V30 11891 H 1106.33 -0.403733 -4.13936 0
M  V30 11892 H 1104.91 1.30935 -3.49157 0
M  V30 11893 N 1107.1 1.56929 -0.145233 0
M  V30 11894 C 1108.34 1.96358 0.50707 0
M  V30 11895 C 1108.68 1.03005 1.64632 0
M  V30 11896 O 1107.95 0.0721045 1.94366 0
M  V30 11897 C 1108.23 3.45502 1.01492 0
M  V30 11898 C 1108.09 4.49633 -0.122708 0
M  V30 11899 C 1109.41 3.97103 1.89729 0
M  V30 11900 H 1106.52 0.713958 0.182848 0
M  V30 11901 H 1109.17 1.8865 -0.226102 0
M  V30 11902 H 1107.32 3.52202 1.6397 0
M  V30 11903 H 1108.99 4.55013 -0.758988 0
M  V30 11904 H 1107.23 4.26691 -0.782109 0
M  V30 11905 H 1107.9 5.51318 0.27432 0
M  V30 11906 H 1110.38 3.92871 1.37082 0
M  V30 11907 H 1109.25 5.01927 2.22173 0
M  V30 11908 H 1109.52 3.39354 2.83357 0
M  V30 11909 N 1108.58 -0.128553 1.57075 0
M  V30 11910 C 1109.51 -1.18362 1.96273 0
M  V30 11911 C 1110.52 -1.3818 0.860818 0
M  V30 11912 O 1111.71 -1.37424 1.13916 0
M  V30 11913 C 1108.81 -2.54533 2.23755 0
M  V30 11914 C 1107.98 -2.55446 3.55058 0
M  V30 11915 C 1107.04 -3.73291 3.70864 0
M  V30 11916 O 1106.07 -3.57315 4.43074 0
M  V30 11917 N 1107.27 -4.91481 3.08912 0
M  V30 11918 H 1110.03 -0.850276 2.87385 0
M  V30 11919 H 1107.6 -0.317931 1.58748 0
M  V30 11920 H 1109.59 -3.31912 2.31553 0
M  V30 11921 H 1108.16 -2.80087 1.38816 0
M  V30 11922 H 1107.38 -1.6385 3.58534 0
M  V30 11923 H 1108.67 -2.53104 4.4138 0
M  V30 11924 H 1108.06 -5.07364 2.50196 0
M  V30 11925 H 1106.62 -5.6657 3.22245 0
M  V30 11926 N 1110.05 -1.5248 -0.398459 0
M  V30 11927 C 1110.96 -1.79492 -1.51062 0
M  V30 11928 C 1111.98 -0.681101 -1.60116 0
M  V30 11929 O 1113.16 -0.967671 -1.7663 0
M  V30 11930 C 1110.22 -1.94958 -2.86692 0
M  V30 11931 C 1109.28 -3.1887 -2.87438 0
M  V30 11932 C 1108.51 -3.33588 -4.16599 0
M  V30 11933 O 1108.74 -2.53327 -5.11059 0
M  V30 11934 O 1107.67 -4.26795 -4.24416 0
M  V30 11935 H 1111.5 -2.73913 -1.31169 0
M  V30 11936 H 1109.08 -1.37455 -0.585372 0
M  V30 11937 H 1110.96 -2.06891 -3.67116 0
M  V30 11938 H 1109.64 -1.03726 -3.06631 0
M  V30 11939 H 1108.55 -3.12386 -2.0583 0
M  V30 11940 H 1109.88 -4.09917 -2.7245 0
M  V30 11941 N 1111.53 0.65634 -1.43283 0
M  V30 11942 C 1112.48 1.79058 -1.48462 0
M  V30 11943 C 1113.47 1.65563 -0.358512 0
M  V30 11944 O 1114.68 1.71947 -0.532365 0
M  V30 11945 H 1111.05 0.590716 -0.465358 0
M  V30 11946 H 1113.03 1.7181 -2.43975 0
M  V30 11947 C 1111.77 3.17304 -1.42175 0
M  V30 11948 H 1111.1 3.28324 -2.2813 0
M  V30 11949 H 1112.54 3.96633 -1.4986 0
M  V30 11950 C 1111 3.36613 -0.138929 0
M  V30 11951 O 1111.53 3.93633 0.80101 0
M  V30 11952 N 1109.73 2.90557 -0.0501237 0
M  V30 11953 H 1109.28 2.4434 -0.815821 0
M  V30 11954 H 1109.24 3.03853 0.807504 0
M  V30 11955 N 1113.01 1.29761 0.894412 0
M  V30 11956 C 1114.26 1.17409 1.64006 0
M  V30 11957 C 1114.57 -0.272355 1.93695 0
M  V30 11958 O 1115.78 -0.517269 2.66527 0
M  V30 11959 C 1114.23 2.05379 2.95546 0
M  V30 11960 C 1113.84 3.54878 2.73433 0
M  V30 11961 C 1115.59 2.01765 3.73485 0
M  V30 11962 C 1113.49 4.34935 4.00731 0
M  V30 11963 H 1112.42 0.43583 0.615279 0
M  V30 11964 H 1115.07 1.5444 0.990983 0
M  V30 11965 H 1113.46 1.61222 3.61695 0
M  V30 11966 H 1114.63 4.07122 2.15844 0
M  V30 11967 H 1112.94 3.60218 2.08882 0
M  V30 11968 H 1115.54 2.58835 4.67877 0
M  V30 11969 H 1115.88 0.998876 4.04139 0
M  V30 11970 H 1116.42 2.43994 3.14184 0
M  V30 11971 H 1113.16 5.3747 3.75241 0
M  V30 11972 H 1112.68 3.87458 4.5786 0
M  V30 11973 H 1114.36 4.45875 4.68833 0
M  V30 11974 N 1114.49 -1.10549 1.12324 0
M  V30 11975 C 1115.42 -2.16657 0.747826 0
M  V30 11976 C 1116.43 -1.61238 -0.224981 0
M  V30 11977 O 1117.62 -1.78499 -0.00649408 0
M  V30 11978 C 1114.72 -3.38791 0.0859421 0
M  V30 11979 C 1113.89 -4.23655 1.08792 0
M  V30 11980 C 1112.95 -5.24239 0.453871 0
M  V30 11981 O 1111.98 -5.58262 1.11052 0
M  V30 11982 N 1113.18 -5.75246 -0.779215 0
M  V30 11983 H 1115.95 -2.49472 1.66084 0
M  V30 11984 H 1113.51 -1.26157 1.01469 0
M  V30 11985 H 1115.5 -4.03182 -0.350186 0
M  V30 11986 H 1114.07 -3.03961 -0.729807 0
M  V30 11987 H 1113.29 -3.55578 1.70171 0
M  V30 11988 H 1114.58 -4.77187 1.76549 0
M  V30 11989 H 1113.98 -5.49802 -1.3317 0
M  V30 11990 H 1112.53 -6.41428 -1.15818 0
M  V30 11991 N 1115.97 -0.914965 -1.28321 0
M  V30 11992 C 1116.9 -0.361578 -2.2633 0
M  V30 11993 C 1117.91 0.500637 -1.54911 0
M  V30 11994 O 1119.1 0.31532 -1.75693 0
M  V30 11995 C 1116.2 0.501693 -3.35166 0
M  V30 11996 C 1115.37 -0.338289 -4.3609 0
M  V30 11997 C 1114.43 0.460267 -5.24183 0
M  V30 11998 O 1113.46 -0.127594 -5.69057 0
M  V30 11999 N 1114.66 1.76302 -5.5308 0
M  V30 12000 H 1117.42 -1.20402 -2.74451 0
M  V30 12001 H 1114.99 -0.781042 -1.41814 0
M  V30 12002 H 1116.98 1.04268 -3.91037 0
M  V30 12003 H 1115.55 1.24485 -2.86744 0
M  V30 12004 H 1114.77 -1.06064 -3.79663 0
M  V30 12005 H 1116.06 -0.912996 -5.00542 0
M  V30 12006 H 1115.45 2.26314 -5.18458 0
M  V30 12007 H 1114.01 2.25081 -6.11704 0
M  V30 12008 N 1117.44 1.42219 -0.679077 0
M  V30 12009 C 1118.39 2.308 -0.00340316 0
M  V30 12010 C 1119.36 1.462 0.788334 0
M  V30 12011 O 1120.55 1.75023 0.759716 0
M  V30 12012 C 1117.69 3.32084 0.938854 0
M  V30 12013 C 1116.8 4.31772 0.140485 0
M  V30 12014 C 1115.93 5.20128 1.07888 0
M  V30 12015 C 1114.97 6.11493 0.27245 0
M  V30 12016 N 1114.11 6.92388 1.16378 0
M  V30 12017 H 1118.95 2.88024 -0.764587 0
M  V30 12018 H 1116.49 1.41869 -0.38878 0
M  V30 12019 H 1118.44 3.89339 1.49903 0
M  V30 12020 H 1117.07 2.76448 1.66662 0
M  V30 12021 H 1116.13 3.76599 -0.536376 0
M  V30 12022 H 1117.44 4.96432 -0.485433 0
M  V30 12023 H 1116.59 5.82137 1.70884 0
M  V30 12024 H 1115.33 4.55655 1.73868 0
M  V30 12025 H 1114.34 5.48549 -0.370693 0
M  V30 12026 H 1115.56 6.78017 -0.383315 0
M  V30 12027 H 1113.51 6.30538 1.8099 0
M  V30 12028 H 1113.42 7.5367 0.593043 0
M  V30 12029 H 1114.69 7.58879 1.78107 0
M  V30 12030 N 1118.92 0.422693 1.51826 0
M  V30 12031 C 1120.15 -0.15017 2.06856 0
M  V30 12032 C 1120.57 -1.36946 1.28948 0
M  V30 12033 O 1119.93 -1.78393 0.32338 0
M  V30 12034 C 1119.98 -0.465563 3.57582 0
M  V30 12035 O 1119.08 -1.55442 3.81984 0
M  V30 12036 H 1118.42 -0.00827931 0.663948 0
M  V30 12037 H 1120.95 0.599806 1.95611 0
M  V30 12038 H 1120.96 -0.720279 4.01592 0
M  V30 12039 H 1119.64 0.425679 4.13716 0
M  V30 12040 H 1118.21 -1.29081 3.49846 0
M  V30 12041 N 1120.4 -1.5685 0.153553 0
M  V30 12042 C 1121.35 -2.1709 -0.783626 0
M  V30 12043 C 1122.32 -1.10567 -1.23952 0
M  V30 12044 O 1123.5 -1.38638 -1.31088 0
M  V30 12045 C 1120.64 -2.80183 -2.01473 0
M  V30 12046 C 1119.75 -4.01117 -1.60403 0
M  V30 12047 C 1118.89 -4.5219 -2.78743 0
M  V30 12048 C 1117.93 -5.65574 -2.34079 0
M  V30 12049 N 1117.07 -6.11235 -3.4545 0
M  V30 12050 H 1121.91 -2.96836 -0.263127 0
M  V30 12051 H 1119.44 -1.46625 -0.11816 0
M  V30 12052 H 1121.4 -3.14912 -2.73654 0
M  V30 12053 H 1120.03 -2.03071 -2.50923 0
M  V30 12054 H 1119.08 -3.72325 -0.779631 0
M  V30 12055 H 1120.39 -4.83243 -1.23605 0
M  V30 12056 H 1119.55 -4.89008 -3.59105 0
M  V30 12057 H 1118.29 -3.69085 -3.18791 0
M  V30 12058 H 1117.29 -5.28326 -1.52158 0
M  V30 12059 H 1118.52 -6.50468 -1.95109 0
M  V30 12060 H 1116.46 -5.31064 -3.85106 0
M  V30 12061 H 1116.38 -6.88304 -3.12687 0
M  V30 12062 H 1117.65 -6.527 -4.26149 0
M  V30 12063 N 1121.88 0.120221 -1.57141 0
M  V30 12064 C 1123.15 0.858458 -1.75755 0
M  V30 12065 C 1123.53 1.98124 -0.728693 0
M  V30 12066 O 1122.88 2.27155 0.247573 0
M  V30 12067 C 1123.09 1.37627 -3.20718 0
M  V30 12068 C 1124.44 1.82909 -3.83183 0
M  V30 12069 O 1125.46 1.47309 -3.24312 0
M  V30 12070 O 1124.32 2.4865 -4.86657 0
M  V30 12071 H 1121.42 0.407583 -0.719587 0
M  V30 12072 H 1123.96 0.104057 -1.69381 0
M  V30 12073 H 1122.74 0.570651 -3.87117 0
M  V30 12074 H 1122.36 2.19341 -3.31625 0
M  V30 12075 N 1123.36 1.52689 0.390367 0
M  V30 12076 C 1124.61 1.6689 1.13272 0
M  V30 12077 C 1124.92 0.414433 1.91159 0
M  V30 12078 O 1126.12 0.436559 2.67967 0
M  V30 12079 C 1124.58 2.94929 2.06264 0
M  V30 12080 C 1124.19 4.27551 1.33805 0
M  V30 12081 C 1125.93 3.18497 2.80642 0
M  V30 12082 C 1123.84 5.46698 2.25554 0
M  V30 12083 H 1122.77 0.621749 0.426549 0
M  V30 12084 H 1125.42 1.79185 0.395615 0
M  V30 12085 H 1123.8 2.76378 2.83604 0
M  V30 12086 H 1124.98 4.56651 0.616997 0
M  V30 12087 H 1123.29 4.10234 0.713913 0
M  V30 12088 H 1125.89 4.04693 3.49467 0
M  V30 12089 H 1126.23 2.33511 3.44642 0
M  V30 12090 H 1126.76 3.37607 2.10395 0
M  V30 12091 H 1123.5 6.34088 1.66171 0
M  V30 12092 H 1123.02 5.21913 2.95579 0
M  V30 12093 H 1124.7 5.80519 2.85668 0
M  V30 12094 N 1124.83 -0.648732 1.43629 0
M  V30 12095 C 1126.08 -1.41066 1.45699 0
M  V30 12096 C 1126.41 -1.94024 0.082612 0
M  V30 12097 O 1125.69 -1.7257 -0.897207 0
M  V30 12098 C 1125.97 -2.58882 2.50304 0
M  V30 12099 C 1125.82 -2.11387 3.97033 0
M  V30 12100 C 1127.14 -3.61092 2.51597 0
M  V30 12101 H 1124.26 -0.511591 0.530512 0
M  V30 12102 H 1126.9 -0.735069 1.75205 0
M  V30 12103 H 1125.05 -3.16518 2.25274 0
M  V30 12104 H 1126.73 -1.58718 4.33136 0
M  V30 12105 H 1124.97 -1.4272 4.0965 0
M  V30 12106 H 1125.64 -2.96129 4.65845 0
M  V30 12107 H 1128.12 -3.13223 2.73917 0
M  V30 12108 H 1126.99 -4.41071 3.26722 0
M  V30 12109 H 1127.25 -4.13985 1.55141 0
M  V30 12110 N 1126.31 -1.30234 -0.887518 0
M  V30 12111 C 1127.26 -1.16302 -2.01436 0
M  V30 12112 C 1128.25 -0.0755422 -1.69231 0
M  V30 12113 O 1129.46 -0.236213 -1.78443 0
M  V30 12114 H 1125.84 -0.35961 -0.660443 0
M  V30 12115 H 1127.81 -2.11677 -2.10322 0
M  V30 12116 C 1126.56 -0.869009 -3.36665 0
M  V30 12117 H 1125.88 -1.69787 -3.61956 0
M  V30 12118 H 1127.32 -0.811621 -4.16159 0
M  V30 12119 C 1125.78 0.428021 -3.3417 0
M  V30 12120 O 1126.31 1.45033 -3.74604 0
M  V30 12121 N 1124.51 0.438264 -2.87276 0
M  V30 12122 H 1124.06 -0.394142 -2.54567 0
M  V30 12123 H 1124.02 1.30604 -2.85989 0
M  V30 12124 N 1127.79 1.09952 -1.12909 0
M  V30 12125 C 1128.74 2.16436 -0.801514 0
M  V30 12126 C 1129.71 1.64444 0.233976 0
M  V30 12127 O 1130.89 1.90497 0.10743 0
M  V30 12128 C 1128.03 3.4406 -0.267753 0
M  V30 12129 C 1127.15 4.09979 -1.36165 0
M  V30 12130 C 1126.28 5.25341 -0.786803 0
M  V30 12131 C 1125.32 5.83172 -1.85948 0
M  V30 12132 N 1124.46 6.89904 -1.30298 0
M  V30 12133 H 1129.3 2.43799 -1.71365 0
M  V30 12134 H 1126.83 1.19665 -0.855499 0
M  V30 12135 H 1128.79 4.17157 0.0598031 0
M  V30 12136 H 1127.42 3.17031 0.607528 0
M  V30 12137 H 1126.47 3.34801 -1.8059 0
M  V30 12138 H 1127.79 4.48999 -2.17259 0
M  V30 12139 H 1126.94 6.05312 -0.410211 0
M  V30 12140 H 1125.68 4.87669 0.055279 0
M  V30 12141 H 1124.68 5.01867 -2.24521 0
M  V30 12142 H 1125.91 6.22907 -2.70487 0
M  V30 12143 H 1123.85 6.54221 -0.482806 0
M  V30 12144 H 1123.77 7.27662 -2.05046 0
M  V30 12145 H 1125.04 7.73643 -0.953779 0
M  V30 12146 N 1129.27 0.921757 1.27833 0
M  V30 12147 C 1130.2 0.360683 2.25332 0
M  V30 12148 C 1131.18 -0.53961 1.53385 0
M  V30 12149 O 1132.36 -0.48146 1.82248 0
M  V30 12150 C 1129.49 -0.483626 3.35229 0
M  V30 12151 C 1128.54 0.352405 4.25042 0
M  V30 12152 S 1129.37 1.76421 5.05605 0
M  V30 12153 C 1130.53 0.92742 6.18991 0
M  V30 12154 H 1130.76 1.18703 2.72574 0
M  V30 12155 H 1128.29 0.72354 1.36397 0
M  V30 12156 H 1130.25 -0.964914 3.98998 0
M  V30 12157 H 1128.91 -1.28444 2.86637 0
M  V30 12158 H 1128.1 -0.293558 5.03144 0
M  V30 12159 H 1127.71 0.767643 3.66037 0
M  V30 12160 H 1130 0.160698 6.77309 0
M  V30 12161 H 1130.94 1.68126 6.87851 0
M  V30 12162 H 1131.35 0.472056 5.62523 0
M  V30 12163 N 1130.75 -1.41857 0.686609 0
M  V30 12164 C 1131.97 -2.05699 0.222561 0
M  V30 12165 C 1132.39 -1.51636 -1.12481 0
M  V30 12166 O 1131.75 -0.660925 -1.70112 0
M  V30 12167 C 1131.8 -3.61138 0.161818 0
M  V30 12168 O 1131.52 -4.13199 1.45596 0
M  V30 12169 C 1133.02 -4.42112 -0.324304 0
M  V30 12170 H 1130.24 -0.662665 0.10543 0
M  V30 12171 H 1132.78 -1.81788 0.936671 0
M  V30 12172 H 1130.94 -3.8412 -0.503056 0
M  V30 12173 H 1131.35 -5.0717 1.33712 0
M  V30 12174 H 1132.83 -5.51097 -0.315694 0
M  V30 12175 H 1133.3 -4.1756 -1.36164 0
M  V30 12176 H 1133.91 -4.24174 0.309251 0
M  V30 12177 N 1132.22 -0.430739 -1.51599 0
M  V30 12178 C 1133.47 0.137929 -2.0203 0
M  V30 12179 C 1133.8 1.43287 -1.31526 0
M  V30 12180 O 1133.05 1.9121 -0.416814 0
M  V30 12181 C 1133.35 0.410694 -3.55032 0
M  V30 12182 C 1133.02 -0.797634 -4.43789 0
M  V30 12183 C 1131.68 -1.12902 -4.67768 0
M  V30 12184 C 1134.03 -1.60403 -4.95904 0
M  V30 12185 C 1131.36 -2.2676 -5.41107 0
M  V30 12186 C 1133.71 -2.73354 -5.70491 0
M  V30 12187 C 1132.38 -3.06955 -5.92735 0
M  V30 12188 H 1131.65 0.0504718 -0.739279 0
M  V30 12189 H 1134.29 -0.576585 -1.82614 0
M  V30 12190 H 1132.6 1.20703 -3.72744 0
M  V30 12191 H 1134.3 0.864006 -3.91581 0
M  V30 12192 H 1130.89 -0.529397 -4.25318 0
M  V30 12193 H 1135.07 -1.36122 -4.77268 0
M  V30 12194 H 1130.33 -2.53114 -5.56546 0
M  V30 12195 H 1134.5 -3.36213 -6.09864 0
M  V30 12196 H 1132.13 -3.95293 -6.49344 0
M  V30 12197 N 1133.7 1.56767 -0.161869 0
M  V30 12198 C 1134.65 2.1409 0.784183 0
M  V30 12199 C 1135.64 1.07262 1.19932 0
M  V30 12200 O 1136.83 1.33406 1.16326 0
M  V30 12201 C 1133.96 2.77778 2.01729 0
M  V30 12202 C 1133.04 3.91751 1.62457 0
M  V30 12203 N 1133.43 4.96972 0.940888 0
M  V30 12204 C 1131.73 4.02735 1.91626 0
M  V30 12205 C 1132.43 5.76858 0.748946 0
M  V30 12206 N 1131.41 5.28134 1.28745 0
M  V30 12207 H 1135.21 2.92811 0.252763 0
M  V30 12208 H 1132.73 1.62353 0.0391501 0
M  V30 12209 H 1134.72 3.17216 2.70517 0
M  V30 12210 H 1133.38 2.00535 2.55374 0
M  V30 12211 H 1134.39 5.14413 0.599981 0
M  V30 12212 H 1131.07 3.36585 2.47016 0
M  V30 12213 H 1132.46 6.71575 0.208991 0
M  V30 12214 N 1135.18 -0.111886 1.57202 0
M  V30 12215 C 1136.41 -0.836317 1.89791 0
M  V30 12216 C 1136.83 -1.72304 0.754513 0
M  V30 12217 O 1136.19 -1.78889 -0.294672 0
M  V30 12218 C 1136.24 -1.63971 3.21164 0
M  V30 12219 O 1135.34 -2.74726 3.0757 0
M  V30 12220 H 1134.68 -0.230833 0.622585 0
M  V30 12221 H 1137.21 -0.0921478 2.04392 0
M  V30 12222 H 1137.22 -2.02746 3.54059 0
M  V30 12223 H 1135.9 -0.98882 4.03974 0
M  V30 12224 H 1134.47 -2.39101 2.86156 0
M  V30 12225 N 1136.66 -1.52894 -0.382264 0
M  V30 12226 C 1137.59 -1.74413 -1.48703 0
M  V30 12227 C 1138.6 -0.624663 -1.50339 0
M  V30 12228 O 1139.79 -0.900527 -1.54119 0
M  V30 12229 C 1136.89 -1.79387 -2.8753 0
M  V30 12230 C 1136.07 -3.08794 -3.09783 0
M  V30 12231 C 1135.12 -3.05226 -4.2863 0
M  V30 12232 O 1134.15 -3.79073 -4.24609 0
M  V30 12233 N 1135.35 -2.2488 -5.35172 0
M  V30 12234 H 1138.12 -2.69734 -1.30628 0
M  V30 12235 H 1135.68 -1.51465 -0.571842 0
M  V30 12236 H 1137.67 -1.74498 -3.65147 0
M  V30 12237 H 1136.24 -0.914233 -2.98932 0
M  V30 12238 H 1135.46 -3.27118 -2.19971 0
M  V30 12239 H 1136.75 -3.94347 -3.21509 0
M  V30 12240 H 1136.15 -1.64363 -5.41296 0
M  V30 12241 H 1134.7 -2.25825 -6.1143 0
M  V30 12242 N 1138.14 0.641106 -1.43971 0
M  V30 12243 C 1139.08 1.75352 -1.50068 0
M  V30 12244 C 1140.05 1.62386 -0.349266 0
M  V30 12245 O 1141.24 1.82455 -0.558118 0
M  V30 12246 C 1138.38 3.13561 -1.4413 0
M  V30 12247 C 1137.49 3.37574 -2.6957 0
M  V30 12248 C 1136.63 4.65698 -2.55535 0
M  V30 12249 C 1135.67 4.82857 -3.76186 0
M  V30 12250 N 1134.8 6.02249 -3.60888 0
M  V30 12251 H 1139.64 1.69477 -2.45116 0
M  V30 12252 H 1137.18 0.826871 -1.2166 0
M  V30 12253 H 1139.14 3.93476 -1.38681 0
M  V30 12254 H 1137.77 3.18476 -0.526563 0
M  V30 12255 H 1136.82 2.5167 -2.85248 0
M  V30 12256 H 1138.13 3.46135 -3.59154 0
M  V30 12257 H 1137.29 5.53759 -2.47862 0
M  V30 12258 H 1136.03 4.59479 -1.63495 0
M  V30 12259 H 1135.03 3.93229 -3.84254 0
M  V30 12260 H 1136.26 4.90898 -4.6925 0
M  V30 12261 H 1134.2 5.97138 -2.71591 0
M  V30 12262 H 1134.12 6.11822 -4.44083 0
M  V30 12263 H 1135.39 6.92898 -3.57088 0
M  V30 12264 N 1139.62 1.30703 0.880598 0
M  V30 12265 C 1140.86 1.19778 1.63277 0
M  V30 12266 C 1141.19 -0.246521 1.92931 0
M  V30 12267 O 1140.45 -1.19226 1.55189 0
M  V30 12268 C 1140.74 1.97628 2.97789 0
M  V30 12269 C 1140.41 3.47213 2.87669 0
M  V30 12270 C 1139.07 3.88004 2.84617 0
M  V30 12271 C 1141.42 4.4245 2.75477 0
M  V30 12272 C 1138.75 5.22315 2.67216 0
M  V30 12273 C 1141.1 5.76874 2.59614 0
M  V30 12274 C 1139.77 6.16898 2.54939 0
M  V30 12275 H 1139.04 0.438298 0.597475 0
M  V30 12276 H 1141.69 1.61853 1.02352 0
M  V30 12277 H 1139.99 1.48201 3.6269 0
M  V30 12278 H 1141.69 1.86563 3.54958 0
M  V30 12279 H 1138.28 3.14802 2.90857 0
M  V30 12280 H 1142.46 4.11875 2.76899 0
M  V30 12281 H 1137.72 5.52412 2.62014 0
M  V30 12282 H 1141.89 6.50304 2.49155 0
M  V30 12283 H 1139.52 7.20916 2.41214 0
M  V30 12284 N 1141.09 -1.09351 1.1349 0
M  V30 12285 C 1142.33 -1.83156 0.907372 0
M  V30 12286 C 1142.7 -1.8376 -0.556441 0
M  V30 12287 O 1143.9 -2.5323 -0.90156 0
M  V30 12288 C 1142.17 -3.25315 1.48004 0
M  V30 12289 S 1143.73 -4.16113 1.39268 0
M  V30 12290 H 1140.55 -0.631319 0.327043 0
M  V30 12291 H 1143.15 -1.31509 1.44657 0
M  V30 12292 H 1141.85 -3.22452 2.53876 0
M  V30 12293 H 1141.38 -3.82034 0.938822 0
M  V30 12294 H 1143.4 -4.94806 0.371645 0
M  V30 12295 N 1142.57 -0.928524 -1.27343 0
M  V30 12296 C 1143.53 -0.43292 -2.25074 0
M  V30 12297 C 1144.53 0.448976 -1.54405 0
M  V30 12298 O 1145.72 0.249939 -1.72398 0
M  V30 12299 C 1142.86 0.377539 -3.38803 0
M  V30 12300 H 1144.05 -1.29642 -2.70431 0
M  V30 12301 H 1141.6 -0.709289 -1.3928 0
M  V30 12302 H 1142.34 1.25982 -2.98829 0
M  V30 12303 H 1142.12 -0.254782 -3.91271 0
M  V30 12304 H 1143.61 0.714634 -4.1144 0
M  V30 12305 N 1144.05 1.41491 -0.694123 0
M  V30 12306 C 1145.33 1.95004 -0.152571 0
M  V30 12307 C 1145.71 1.63357 1.33707 0
M  V30 12308 O 1145.05 0.939815 2.08278 0
M  V30 12309 C 1145.26 3.46186 -0.44232 0
M  V30 12310 C 1146.61 4.22991 -0.369279 0
M  V30 12311 O 1147.64 3.54198 -0.377152 0
M  V30 12312 O 1146.5 5.45514 -0.328145 0
M  V30 12313 H 1143.59 0.826879 -0.0141253 0
M  V30 12314 H 1146.14 1.51216 -0.770183 0
M  V30 12315 H 1144.91 3.62497 -1.47348 0
M  V30 12316 H 1144.53 3.97064 0.206337 0
M  V30 12317 N 1145.53 0.438773 1.51369 0
M  V30 12318 C 1146.75 -0.128221 2.07003 0
M  V30 12319 C 1147.18 -1.3557 1.30393 0
M  V30 12320 O 1146.54 -1.7804 0.342283 0
M  V30 12321 C 1146.58 -0.42761 3.58056 0
M  V30 12322 O 1145.69 -1.51382 3.83611 0
M  V30 12323 H 1145.03 -0.00123679 0.663999 0
M  V30 12324 H 1147.56 0.62052 1.94963 0
M  V30 12325 H 1147.57 -0.677645 4.02333 0
M  V30 12326 H 1146.24 0.469535 4.13241 0
M  V30 12327 H 1144.82 -1.25363 3.51196 0
M  V30 12328 N 1147.01 -1.56678 0.170181 0
M  V30 12329 C 1148.28 -1.88524 -0.521362 0
M  V30 12330 C 1148.66 -1.07989 -1.81388 0
M  V30 12331 O 1148.01 -0.17347 -2.27841 0
M  V30 12332 C 1148.22 -3.40527 -0.764367 0
M  V30 12333 C 1149.57 -4.10241 -1.09487 0
M  V30 12334 O 1150.59 -3.45837 -0.852945 0
M  V30 12335 O 1149.45 -5.24022 -1.55124 0
M  V30 12336 H 1146.55 -0.782161 -0.268614 0
M  V30 12337 H 1149.09 -1.68414 0.208531 0
M  V30 12338 H 1147.86 -3.91015 0.149416 0
M  V30 12339 H 1147.49 -3.66244 -1.54762 0
M  V30 12340 N 1148.48 0.103547 -1.57259 0
M  V30 12341 C 1149.73 0.806979 -1.8529 0
M  V30 12342 C 1150.05 1.79679 -0.757653 0
M  V30 12343 O 1149.32 1.94695 0.216913 0
M  V30 12344 H 1147.9 0.301012 -0.683667 0
M  V30 12345 H 1150.56 0.0871886 -1.94705 0
M  V30 12346 H 1149.66 1.34275 -2.81738 0
M  V30 12347 N 1149.96 1.53094 0.37415 0
M  V30 12348 C 1151.21 1.68861 1.11769 0
M  V30 12349 C 1151.54 0.436032 1.89549 0
M  V30 12350 O 1150.79 -0.581879 1.86849 0
M  V30 12351 C 1151.09 2.88432 2.11049 0
M  V30 12352 C 1150.76 4.25284 1.49814 0
M  V30 12353 C 1149.42 4.62501 1.32841 0
M  V30 12354 C 1151.77 5.10425 1.05433 0
M  V30 12355 C 1149.1 5.82502 0.700567 0
M  V30 12356 C 1151.45 6.31064 0.440525 0
M  V30 12357 C 1150.11 6.67 0.258216 0
M  V30 12358 H 1149.38 0.617906 0.40899 0
M  V30 12359 H 1152.03 1.87265 0.4005 0
M  V30 12360 H 1150.34 2.64505 2.8904 0
M  V30 12361 H 1152.03 2.97825 2.68517 0
M  V30 12362 H 1148.62 3.95976 1.64016 0
M  V30 12363 H 1152.81 4.82229 1.17342 0
M  V30 12364 H 1148.06 6.08942 0.547652 0
M  V30 12365 H 1152.24 6.96344 0.0883962 0
M  V30 12366 H 1149.86 7.59851 -0.230354 0
M  V30 12367 N 1151.44 -0.633461 1.44309 0
M  V30 12368 C 1152.66 -1.42527 1.50668 0
M  V30 12369 C 1153.09 -1.87637 0.131861 0
M  V30 12370 O 1152.45 -1.58595 -0.878477 0
M  V30 12371 C 1152.5 -2.62328 2.47419 0
M  V30 12372 O 1151.6 -3.62081 1.97411 0
M  V30 12373 H 1150.94 -0.426559 0.508864 0
M  V30 12374 H 1153.47 -0.773392 1.8942 0
M  V30 12375 H 1153.48 -3.09901 2.65378 0
M  V30 12376 H 1152.16 -2.2884 3.47283 0
M  V30 12377 H 1150.73 -3.21333 1.89208 0
M  V30 12378 N 1152.92 -1.31168 -0.873655 0
M  V30 12379 C 1153.85 -1.14325 -1.98651 0
M  V30 12380 C 1154.86 -0.0833421 -1.62587 0
M  V30 12381 O 1156.05 -0.330477 -1.75414 0
M  V30 12382 C 1153.15 -0.723747 -3.31082 0
M  V30 12383 C 1152.33 -1.86787 -3.95512 0
M  V30 12384 C 1151.38 -1.43503 -5.06254 0
M  V30 12385 O 1150.41 -2.14409 -5.27273 0
M  V30 12386 N 1151.61 -0.320362 -5.79615 0
M  V30 12387 H 1154.38 -2.10179 -2.13647 0
M  V30 12388 H 1151.94 -1.23454 -1.04742 0
M  V30 12389 H 1153.93 -0.416971 -4.02546 0
M  V30 12390 H 1152.5 0.143073 -3.12272 0
M  V30 12391 H 1151.72 -2.34216 -3.17075 0
M  V30 12392 H 1153.01 -2.6343 -4.35296 0
M  V30 12393 H 1152.41 0.270215 -5.65054 0
M  V30 12394 H 1150.96 -0.0731 -6.51759 0
M  V30 12395 N 1154.4 1.08748 -1.14068 0
M  V30 12396 C 1155.31 2.19123 -0.837998 0
M  V30 12397 C 1156.32 1.73065 0.180164 0
M  V30 12398 O 1157.5 2.01398 0.00952285 0
M  V30 12399 C 1154.56 3.45257 -0.316 0
M  V30 12400 C 1153.62 4.05959 -1.39628 0
M  V30 12401 C 1152.86 5.26072 -0.899095 0
M  V30 12402 O 1153.08 5.69804 0.260744 0
M  V30 12403 O 1152.01 5.7808 -1.67652 0
M  V30 12404 H 1155.84 2.4748 -1.76033 0
M  V30 12405 H 1153.43 1.17816 -0.918675 0
M  V30 12406 H 1155.31 4.21389 -0.0306425 0
M  V30 12407 H 1153.98 3.18486 0.578654 0
M  V30 12408 H 1152.89 3.31432 -1.73505 0
M  V30 12409 H 1154.22 4.36971 -2.26533 0
M  V30 12410 N 1155.87 0.935264 1.26849 0
M  V30 12411 C 1156.8 0.457776 2.28969 0
M  V30 12412 C 1157.79 -0.48587 1.63013 0
M  V30 12413 O 1158.97 -0.388998 1.90264 0
M  V30 12414 C 1156.1 -0.283332 3.46142 0
M  V30 12415 C 1155.05 0.573196 4.24144 0
M  V30 12416 C 1154.38 -0.297525 5.33872 0
M  V30 12417 C 1155.68 1.84153 4.88759 0
M  V30 12418 H 1157.37 1.31125 2.69159 0
M  V30 12419 H 1154.92 0.631956 1.29392 0
M  V30 12420 H 1156.87 -0.628366 4.16689 0
M  V30 12421 H 1155.6 -1.1709 3.04889 0
M  V30 12422 H 1154.26 0.901043 3.55354 0
M  V30 12423 H 1153.9 -1.18427 4.8886 0
M  V30 12424 H 1153.6 0.272126 5.8697 0
M  V30 12425 H 1155.13 -0.637961 6.07258 0
M  V30 12426 H 1156.54 1.5641 5.51551 0
M  V30 12427 H 1154.94 2.35528 5.51948 0
M  V30 12428 H 1156.01 2.5565 4.12033 0
M  V30 12429 N 1157.35 -1.41121 0.701616 0
M  V30 12430 C 1158.77 -1.55162 0.373766 0
M  V30 12431 C 1158.97 -1.6759 -1.11875 0
M  V30 12432 O 1158.02 -1.65768 -1.90465 0
M  V30 12433 C 1159.34 -2.78758 1.12759 0
M  V30 12434 C 1160.89 -2.92561 1.11253 0
M  V30 12435 C 1161.36 -4.19052 1.84822 0
M  V30 12436 N 1162.85 -4.26023 1.81821 0
M  V30 12437 C 1163.59 -5.22771 2.3558 0
M  V30 12438 N 1163.08 -6.25512 2.97836 0
M  V30 12439 N 1164.88 -5.14752 2.25802 0
M  V30 12440 H 1157.03 -1.31299 1.66956 0
M  V30 12441 H 1159.29 -0.633894 0.704898 0
M  V30 12442 H 1159 -2.75804 2.18231 0
M  V30 12443 H 1158.87 -3.70456 0.710095 0
M  V30 12444 H 1161.26 -2.95026 0.0660506 0
M  V30 12445 H 1161.34 -2.0202 1.56913 0
M  V30 12446 H 1160.98 -4.17349 2.89452 0
M  V30 12447 H 1160.91 -5.08577 1.36592 0
M  V30 12448 H 1163.4 -3.52411 1.36438 0
M  V30 12449 H 1163.72 -6.95736 3.36409 0
M  V30 12450 H 1162.06 -6.25997 3.01916 0
M  V30 12451 H 1165.25 -4.33414 1.76833 0
M  V30 12452 H 1165.42 -5.89983 2.68001 0
M  V30 12453 N 1158.83 -0.446794 -1.51134 0
M  V30 12454 C 1159.78 0.374154 -2.29571 0
M  V30 12455 C 1160.77 1.01241 -1.35818 0
M  V30 12456 O 1161.98 0.946293 -1.53119 0
M  V30 12457 H 1158.35 0.13948 -0.738951 0
M  V30 12458 H 1160.32 -0.308117 -2.96805 0
M  V30 12459 C 1159.07 1.45754 -3.15675 0
M  V30 12460 H 1158.4 0.975787 -3.87709 0
M  V30 12461 H 1159.84 2.00502 -3.73597 0
M  V30 12462 C 1158.3 2.44606 -2.31667 0
M  V30 12463 O 1158.83 3.49352 -1.98284 0
M  V30 12464 N 1157.03 2.15725 -1.94708 0
M  V30 12465 H 1156.58 1.30572 -2.22056 0
M  V30 12466 H 1156.54 2.82103 -1.38798 0
M  V30 12467 N 1160.31 1.56586 -0.178487 0
M  V30 12468 C 1161.56 1.97098 0.464617 0
M  V30 12469 C 1161.88 1.06476 1.62767 0
M  V30 12470 O 1161.14 0.100337 1.95443 0
M  V30 12471 C 1161.44 3.43629 0.982552 0
M  V30 12472 C 1161.1 4.50853 -0.0653645 0
M  V30 12473 C 1159.77 4.79901 -0.353349 0
M  V30 12474 C 1162.12 5.15387 -0.776279 0
M  V30 12475 C 1159.45 5.70779 -1.35751 0
M  V30 12476 C 1161.8 6.07349 -1.76948 0
M  V30 12477 C 1160.46 6.34761 -2.06483 0
M  V30 12478 H 1159.73 0.721232 0.170016 0
M  V30 12479 H 1162.38 1.89559 -0.271959 0
M  V30 12480 H 1160.68 3.48155 1.79709 0
M  V30 12481 H 1162.38 3.7232 1.48926 0
M  V30 12482 H 1158.97 4.28266 0.169266 0
M  V30 12483 H 1163.15 4.9305 -0.567008 0
M  V30 12484 H 1158.41 5.90298 -1.59244 0
M  V30 12485 H 1162.58 6.56419 -2.32567 0
M  V30 12486 H 1160.21 7.0498 -2.84441 0
M  V30 12487 N 1161.79 -0.095206 1.57312 0
M  V30 12488 C 1162.73 -1.13438 2.03063 0
M  V30 12489 C 1163.73 -1.41478 0.931679 0
M  V30 12490 O 1164.93 -1.41161 1.11686 0
M  V30 12491 H 1161.31 -0.383042 0.647134 0
M  V30 12492 H 1163.28 -0.722186 2.89529 0
M  V30 12493 C 1162.03 -2.44641 2.47075 0
M  V30 12494 H 1161.35 -2.23908 3.31218 0
M  V30 12495 H 1162.79 -3.15855 2.82863 0
M  V30 12496 C 1161.25 -3.08931 1.34399 0
M  V30 12497 O 1161.78 -3.96021 0.673071 0
M  V30 12498 N 1159.99 -2.6918 1.09501 0
M  V30 12499 H 1159.53 -1.98451 1.6424 0
M  V30 12500 H 1159.49 -3.12522 0.34311 0
M  V30 12501 N 1163.26 -1.53291 -0.366026 0
M  V30 12502 C 1164.2 -1.75981 -1.46845 0
M  V30 12503 C 1165.21 -0.640574 -1.49668 0
M  V30 12504 O 1166.4 -0.916823 -1.53155 0
M  V30 12505 C 1163.5 -1.82426 -2.85611 0
M  V30 12506 C 1162.67 -3.12062 -3.0649 0
M  V30 12507 C 1161.73 -3.09755 -4.25368 0
M  V30 12508 O 1160.76 -3.83555 -4.20564 0
M  V30 12509 N 1161.96 -2.30544 -5.32757 0
M  V30 12510 H 1164.72 -2.71104 -1.2776 0
M  V30 12511 H 1162.28 -1.52063 -0.555745 0
M  V30 12512 H 1164.28 -1.78361 -3.63276 0
M  V30 12513 H 1162.85 -0.945888 -2.97946 0
M  V30 12514 H 1162.07 -3.29433 -2.16489 0
M  V30 12515 H 1163.35 -3.97735 -3.17308 0
M  V30 12516 H 1162.75 -1.70095 -5.39522 0
M  V30 12517 H 1161.31 -2.32298 -6.09 0
M  V30 12518 N 1164.74 0.6258 -1.44643 0
M  V30 12519 C 1165.65 1.76611 -1.5442 0
M  V30 12520 C 1166.67 1.68614 -0.429576 0
M  V30 12521 O 1167.84 1.89296 -0.687686 0
M  V30 12522 C 1164.91 3.13015 -1.49071 0
M  V30 12523 C 1163.97 3.32604 -2.71428 0
M  V30 12524 C 1163.2 4.62501 -2.66325 0
M  V30 12525 O 1163.43 5.43651 -1.72626 0
M  V30 12526 O 1162.36 4.84408 -3.57258 0
M  V30 12527 H 1166.19 1.71315 -2.50769 0
M  V30 12528 H 1163.77 0.787677 -1.26949 0
M  V30 12529 H 1165.65 3.94318 -1.48631 0
M  V30 12530 H 1164.33 3.18842 -0.558686 0
M  V30 12531 H 1163.24 2.50959 -2.77435 0
M  V30 12532 H 1164.57 3.31642 -3.63695 0
M  V30 12533 N 1166.22 1.31629 0.866686 0
M  V30 12534 C 1167.47 1.21263 1.61678 0
M  V30 12535 C 1167.79 -0.228562 1.93656 0
M  V30 12536 O 1167.06 -1.15014 1.58583 0
M  V30 12537 H 1165.64 0.445817 0.59938 0
M  V30 12538 H 1168.3 1.64998 1.03739 0
M  V30 12539 H 1167.4 1.78669 2.55898 0
M  V30 12540 N 1167.7 -1.08142 1.14644 0
M  V30 12541 C 1168.93 -1.84318 0.939926 0
M  V30 12542 C 1169.34 -1.81735 -0.511636 0
M  V30 12543 O 1168.7 -1.22297 -1.35461 0
M  V30 12544 C 1168.75 -3.31744 1.43625 0
M  V30 12545 O 1168.47 -3.3435 2.83094 0
M  V30 12546 C 1169.97 -4.24717 1.27007 0
M  V30 12547 H 1167.19 -0.581781 0.334323 0
M  V30 12548 H 1169.74 -1.36561 1.52221 0
M  V30 12549 H 1167.89 -3.7688 0.896664 0
M  V30 12550 H 1168.31 -4.26399 3.05425 0
M  V30 12551 H 1169.78 -5.26262 1.66591 0
M  V30 12552 H 1170.26 -4.38682 0.213257 0
M  V30 12553 H 1170.86 -3.85409 1.79833 0
M  V30 12554 N 1169.18 -0.941978 -1.26351 0
M  V30 12555 C 1170.12 -0.450906 -2.26353 0
M  V30 12556 C 1171.09 0.489857 -1.58712 0
M  V30 12557 O 1172.28 0.40589 -1.86433 0
M  V30 12558 C 1169.42 0.277054 -3.43986 0
M  V30 12559 C 1168.53 -0.699474 -4.263 0
M  V30 12560 C 1167.67 0.0497661 -5.31177 0
M  V30 12561 C 1166.71 -0.918531 -6.05169 0
M  V30 12562 N 1165.84 -0.200993 -7.01812 0
M  V30 12563 H 1170.68 -1.30861 -2.6773 0
M  V30 12564 H 1168.22 -0.656514 -1.31637 0
M  V30 12565 H 1170.18 0.715567 -4.11018 0
M  V30 12566 H 1168.81 1.09889 -3.0352 0
M  V30 12567 H 1167.86 -1.2565 -3.59049 0
M  V30 12568 H 1169.17 -1.4389 -4.77595 0
M  V30 12569 H 1168.33 0.547521 -6.04224 0
M  V30 12570 H 1167.07 0.822068 -4.80722 0
M  V30 12571 H 1166.07 -1.4274 -5.30947 0
M  V30 12572 H 1167.3 -1.69085 -6.57713 0
M  V30 12573 H 1165.24 0.552803 -6.53667 0
M  V30 12574 H 1165.16 -0.879735 -7.50864 0
M  V30 12575 H 1166.43 0.275642 -7.79012 0
M  V30 12576 N 1170.66 1.40747 -0.709091 0
M  V30 12577 C 1171.59 2.33404 -0.0669763 0
M  V30 12578 C 1172.57 1.52546 0.752582 0
M  V30 12579 O 1173.75 1.81036 0.702823 0
M  V30 12580 C 1170.88 3.36476 0.860285 0
M  V30 12581 C 1169.84 4.27748 0.146828 0
M  V30 12582 C 1169.16 5.21304 1.18937 0
M  V30 12583 C 1170.46 5.12734 -0.995064 0
M  V30 12584 H 1172.16 2.87349 -0.840888 0
M  V30 12585 H 1169.7 1.38163 -0.405817 0
M  V30 12586 H 1171.65 4.00231 1.31883 0
M  V30 12587 H 1170.38 2.80912 1.66602 0
M  V30 12588 H 1169.04 3.65437 -0.291826 0
M  V30 12589 H 1168.69 4.62048 1.98798 0
M  V30 12590 H 1168.39 5.8321 0.716917 0
M  V30 12591 H 1169.91 5.87936 1.64815 0
M  V30 12592 H 1171.32 5.69979 -0.61618 0
M  V30 12593 H 1169.72 5.83649 -1.39547 0
M  V30 12594 H 1170.79 4.49097 -1.82867 0
M  V30 12595 N 1172.13 0.454803 1.50895 0
M  V30 12596 C 1173.38 -0.105927 2.02523 0
M  V30 12597 C 1173.71 -1.40825 1.33724 0
M  V30 12598 O 1172.99 -1.89038 0.457683 0
M  V30 12599 C 1173.27 -0.306635 3.58792 0
M  V30 12600 C 1173.12 1.01556 4.38185 0
M  V30 12601 C 1174.44 -1.06858 4.2693 0
M  V30 12602 H 1171.56 -0.0370232 0.736069 0
M  V30 12603 H 1174.2 0.597215 1.8037 0
M  V30 12604 H 1172.35 -0.905563 3.77799 0
M  V30 12605 H 1174.03 1.64981 4.30789 0
M  V30 12606 H 1172.27 1.61608 4.02574 0
M  V30 12607 H 1172.94 0.828959 5.4574 0
M  V30 12608 H 1175.42 -0.561086 4.123 0
M  V30 12609 H 1174.29 -1.1778 5.36115 0
M  V30 12610 H 1174.55 -2.10111 3.8898 0
M  V30 12611 N 1173.61 -1.56489 0.186789 0
M  V30 12612 C 1174.52 -2.22304 -0.749543 0
M  V30 12613 C 1175.54 -1.21949 -1.24115 0
M  V30 12614 O 1176.71 -1.5466 -1.29005 0
M  V30 12615 C 1173.78 -2.863 -1.95533 0
M  V30 12616 C 1172.84 -4.01901 -1.5091 0
M  V30 12617 C 1172.07 -4.62837 -2.6574 0
M  V30 12618 O 1172.3 -4.22681 -3.8301 0
M  V30 12619 O 1171.23 -5.52446 -2.38929 0
M  V30 12620 H 1175.06 -3.02909 -0.21908 0
M  V30 12621 H 1172.64 -1.49341 -0.0421249 0
M  V30 12622 H 1174.52 -3.2682 -2.6602 0
M  V30 12623 H 1173.2 -2.08681 -2.47455 0
M  V30 12624 H 1172.1 -3.66021 -0.773261 0
M  V30 12625 H 1173.44 -4.8116 -1.03663 0
M  V30 12626 N 1175.09 0.086862 -1.5736 0
M  V30 12627 C 1176 1.12297 -2.05977 0
M  V30 12628 C 1177.02 1.43347 -0.986284 0
M  V30 12629 O 1178.19 1.53825 -1.3 0
M  V30 12630 C 1175.26 2.42131 -2.4814 0
M  V30 12631 C 1174.32 2.18189 -3.69719 0
M  V30 12632 C 1173.55 3.41833 -4.09861 0
M  V30 12633 O 1173.77 4.50383 -3.50016 0
M  V30 12634 O 1172.71 3.30934 -5.02759 0
M  V30 12635 H 1176.53 0.740012 -2.94546 0
M  V30 12636 H 1174.12 0.29995 -1.46358 0
M  V30 12637 H 1176 3.18568 -2.75848 0
M  V30 12638 H 1174.68 2.79837 -1.62705 0
M  V30 12639 H 1173.58 1.39506 -3.47115 0
M  V30 12640 H 1174.92 1.85372 -4.55959 0
M  V30 12641 N 1176.57 1.53483 0.357892 0
M  V30 12642 C 1177.79 1.74264 1.12458 0
M  V30 12643 C 1178.22 0.473944 1.82031 0
M  V30 12644 O 1177.58 -0.57253 1.72023 0
M  V30 12645 C 1177.62 2.91356 2.12471 0
M  V30 12646 O 1176.73 2.60502 3.19707 0
M  V30 12647 H 1176.07 0.578499 0.325937 0
M  V30 12648 H 1178.6 2.00395 0.412666 0
M  V30 12649 H 1178.61 3.1774 2.5594 0
M  V30 12650 H 1177.28 3.83378 1.61226 0
M  V30 12651 H 1175.86 2.44961 2.81156 0
M  V30 12652 N 1178.05 -0.61812 1.44973 0
M  V30 12653 C 1179.29 -1.37944 1.48658 0
M  V30 12654 C 1179.62 -1.93805 0.123749 0
M  V30 12655 O 1178.9 -1.74434 -0.860401 0
M  V30 12656 C 1179.18 -2.53515 2.55739 0
M  V30 12657 C 1179.04 -2.02918 4.01428 0
M  V30 12658 C 1180.35 -3.55674 2.59199 0
M  V30 12659 H 1177.47 -0.500223 0.541244 0
M  V30 12660 H 1180.12 -0.69774 1.76725 0
M  V30 12661 H 1178.27 -3.11669 2.31937 0
M  V30 12662 H 1179.94 -1.49494 4.36405 0
M  V30 12663 H 1178.18 -1.33999 4.12586 0
M  V30 12664 H 1178.85 -2.86181 4.72021 0
M  V30 12665 H 1181.33 -3.07343 2.80499 0
M  V30 12666 H 1180.2 -4.34042 3.36004 0
M  V30 12667 H 1180.46 -4.10601 1.63888 0
M  V30 12668 N 1179.52 -1.32087 -0.859693 0
M  V30 12669 C 1180.47 -1.20601 -1.96784 0
M  V30 12670 C 1181.44 -0.089355 -1.65859 0
M  V30 12671 O 1182.63 -0.264022 -1.88964 0
M  V30 12672 C 1179.77 -0.929872 -3.32336 0
M  V30 12673 C 1178.88 -2.13084 -3.75791 0
M  V30 12674 C 1178.01 -1.79061 -5.00111 0
M  V30 12675 C 1177.05 -2.95507 -5.36043 0
M  V30 12676 N 1176.19 -2.61611 -6.5154 0
M  V30 12677 H 1181.03 -2.1539 -2.0594 0
M  V30 12678 H 1178.57 -1.07131 -1.00803 0
M  V30 12679 H 1180.52 -0.750285 -4.10398 0
M  V30 12680 H 1179.15 -0.0187929 -3.22795 0
M  V30 12681 H 1178.21 -2.42086 -2.93425 0
M  V30 12682 H 1179.52 -3.00205 -3.98344 0
M  V30 12683 H 1178.67 -1.57625 -5.85866 0
M  V30 12684 H 1177.41 -0.891459 -4.79483 0
M  V30 12685 H 1176.42 -3.17581 -4.48801 0
M  V30 12686 H 1177.64 -3.86147 -5.5863 0
M  V30 12687 H 1175.59 -1.74231 -6.32439 0
M  V30 12688 H 1175.5 -3.42262 -6.74087 0
M  V30 12689 H 1176.77 -2.43592 -7.40461 0
M  V30 12690 N 1181 1.07532 -1.15215 0
M  V30 12691 C 1181.95 2.12909 -0.815714 0
M  V30 12692 C 1182.94 1.59662 0.1992 0
M  V30 12693 O 1184.13 1.77 0.000215597 0
M  V30 12694 C 1181.26 3.41945 -0.304717 0
M  V30 12695 C 1180.34 4.0205 -1.34968 0
M  V30 12696 N 1180.73 4.36439 -2.55646 0
M  V30 12697 C 1179.03 4.29498 -1.20199 0
M  V30 12698 C 1179.73 4.84044 -3.22609 0
M  V30 12699 N 1178.71 4.82702 -2.5 0
M  V30 12700 H 1182.51 2.37327 -1.73358 0
M  V30 12701 H 1180.02 1.24952 -1.03734 0
M  V30 12702 H 1182.02 4.16875 -0.0453503 0
M  V30 12703 H 1180.68 3.18971 0.607235 0
M  V30 12704 H 1181.69 4.27184 -2.92804 0
M  V30 12705 H 1178.37 4.16032 -0.349781 0
M  V30 12706 H 1179.76 5.19959 -4.2555 0
M  V30 12707 N 1182.48 0.948665 1.2585 0
M  V30 12708 C 1183.71 0.616741 1.98018 0
M  V30 12709 C 1184.13 -0.803005 1.70098 0
M  V30 12710 O 1183.49 -1.54208 0.953392 0
M  V30 12711 C 1183.54 0.874429 3.49837 0
M  V30 12712 O 1182.64 -0.0497568 4.1237 0
M  V30 12713 H 1181.98 0.235112 0.620982 0
M  V30 12714 H 1184.51 1.27364 1.60124 0
M  V30 12715 H 1184.52 0.798309 4.00114 0
M  V30 12716 H 1183.2 1.90922 3.69488 0
M  V30 12717 H 1181.77 0.0780591 3.72818 0
M  V30 12718 N 1183.96 -1.40369 0.716545 0
M  V30 12719 C 1185.24 -1.94737 0.183576 0
M  V30 12720 C 1185.62 -1.65464 -1.31092 0
M  V30 12721 O 1184.96 -0.972832 -2.06756 0
M  V30 12722 C 1185.17 -3.45438 0.497339 0
M  V30 12723 C 1186.52 -4.2235 0.436526 0
M  V30 12724 O 1187.55 -3.53553 0.433454 0
M  V30 12725 O 1186.4 -5.44923 0.41489 0
M  V30 12726 H 1183.5 -0.82655 0.0272785 0
M  V30 12727 H 1186.04 -1.49972 0.794143 0
M  V30 12728 H 1184.82 -3.60107 1.53097 0
M  V30 12729 H 1184.44 -3.97342 -0.143141 0
M  V30 12730 N 1185.44 -0.462799 -1.50652 0
M  V30 12731 C 1186.38 0.335664 -2.28346 0
M  V30 12732 C 1187.35 0.994541 -1.33034 0
M  V30 12733 O 1188.54 1.00857 -1.61964 0
M  V30 12734 C 1185.68 1.41648 -3.1469 0
M  V30 12735 C 1184.79 0.773207 -4.25024 0
M  V30 12736 C 1183.93 1.83121 -4.98638 0
M  V30 12737 C 1182.97 1.16774 -6.00858 0
M  V30 12738 N 1182.1 2.16823 -6.67782 0
M  V30 12739 H 1186.94 -0.333202 -2.96131 0
M  V30 12740 H 1184.48 -0.176166 -1.46041 0
M  V30 12741 H 1186.44 2.05468 -3.63096 0
M  V30 12742 H 1185.07 2.05462 -2.48968 0
M  V30 12743 H 1184.12 0.0226444 -3.80393 0
M  V30 12744 H 1185.43 0.249061 -4.98178 0
M  V30 12745 H 1184.59 2.54543 -5.5072 0
M  V30 12746 H 1183.32 2.38915 -4.25172 0
M  V30 12747 H 1182.33 0.439112 -5.48044 0
M  V30 12748 H 1183.55 0.616809 -6.76293 0
M  V30 12749 H 1181.5 2.71649 -5.97112 0
M  V30 12750 H 1181.42 1.69371 -7.36783 0
M  V30 12751 H 1182.69 2.8765 -7.24484 0
M  V30 12752 N 1186.91 1.56388 -0.195085 0
M  V30 12753 C 1187.84 2.22091 0.720971 0
M  V30 12754 C 1188.83 1.184 1.22128 0
M  V30 12755 O 1190.01 1.46907 1.27012 0
M  V30 12756 C 1187.14 2.88025 1.94059 0
M  V30 12757 C 1186.09 3.97959 1.5752 0
M  V30 12758 C 1185.42 4.51058 2.87143 0
M  V30 12759 C 1186.72 5.16365 0.785145 0
M  V30 12760 H 1188.41 2.98898 0.173245 0
M  V30 12761 H 1185.96 1.43767 0.0818868 0
M  V30 12762 H 1187.91 3.32671 2.58666 0
M  V30 12763 H 1186.64 2.08623 2.51285 0
M  V30 12764 H 1185.3 3.54004 0.952715 0
M  V30 12765 H 1184.94 3.68418 3.42458 0
M  V30 12766 H 1184.64 5.25237 2.63439 0
M  V30 12767 H 1186.17 4.98406 3.52738 0
M  V30 12768 H 1187.58 5.57556 1.33431 0
M  V30 12769 H 1185.98 5.9661 0.646231 0
M  V30 12770 H 1187.05 4.84428 -0.213789 0
M  V30 12771 N 1188.39 -0.0785156 1.57404 0
M  V30 12772 C 1189.34 -1.11278 2.04255 0
M  V30 12773 C 1190.33 -1.40482 0.946633 0
M  V30 12774 O 1191.54 -1.39968 1.13177 0
M  V30 12775 H 1187.92 -0.376157 0.65116 0
M  V30 12776 H 1189.89 -0.691437 2.90279 0
M  V30 12777 C 1188.64 -2.42006 2.49656 0
M  V30 12778 H 1187.96 -2.20383 3.33574 0
M  V30 12779 H 1189.4 -3.12837 2.86197 0
M  V30 12780 C 1187.86 -3.07488 1.37669 0
M  V30 12781 O 1188.39 -3.95285 0.715036 0
M  V30 12782 N 1186.59 -2.68004 1.1235 0
M  V30 12783 H 1186.14 -1.96698 1.66336 0
M  V30 12784 H 1186.1 -3.12141 0.376238 0
M  V30 12785 N 1189.87 -1.5367 -0.349747 0
M  V30 12786 C 1191.12 -1.70281 -1.08853 0
M  V30 12787 C 1191.44 -0.465438 -1.89364 0
M  V30 12788 O 1190.71 0.520615 -1.88856 0
M  V30 12789 H 1189.29 -0.627775 -0.404854 0
M  V30 12790 H 1191.95 -1.90906 -0.392523 0
M  V30 12791 H 1191.05 -2.57096 -1.76941 0
M  V30 12792 N 1191.35 0.610423 -1.45298 0
M  V30 12793 C 1192.3 1.74245 -1.54083 0
M  V30 12794 C 1193.29 1.64338 -0.411003 0
M  V30 12795 O 1194.5 1.70167 -0.586799 0
M  V30 12796 H 1190.87 0.575612 -0.483916 0
M  V30 12797 H 1192.84 1.63961 -2.49318 0
M  V30 12798 C 1191.59 3.1262 -1.52198 0
M  V30 12799 H 1190.91 3.209 -2.3846 0
M  V30 12800 H 1192.35 3.91665 -1.62403 0
M  V30 12801 C 1190.81 3.36001 -0.24595 0
M  V30 12802 O 1191.34 3.95982 0.675374 0
M  V30 12803 N 1189.55 2.9025 -0.142537 0
M  V30 12804 H 1189.1 2.41621 -0.893143 0
M  V30 12805 H 1189.05 3.06268 0.710427 0
M  V30 12806 N 1192.83 1.32541 0.852676 0
M  V30 12807 C 1193.76 1.24254 1.97694 0
M  V30 12808 C 1194.74 0.125971 1.69633 0
M  V30 12809 O 1195.92 0.31347 1.91653 0
M  V30 12810 C 1193.05 0.966874 3.3357 0
M  V30 12811 C 1192.01 2.0449 3.75989 0
M  V30 12812 C 1191.33 1.6216 5.09518 0
M  V30 12813 C 1192.63 3.46013 3.91244 0
M  V30 12814 H 1194.33 2.18317 2.04886 0
M  V30 12815 H 1191.87 1.05101 0.984371 0
M  V30 12816 H 1193.83 0.895444 4.11776 0
M  V30 12817 H 1192.55 -0.0093893 3.26599 0
M  V30 12818 H 1191.21 2.10651 3.00036 0
M  V30 12819 H 1190.86 0.632729 4.99005 0
M  V30 12820 H 1190.56 2.3429 5.38871 0
M  V30 12821 H 1192.08 1.56457 5.90215 0
M  V30 12822 H 1193.49 3.4243 4.59799 0
M  V30 12823 H 1191.89 4.1651 4.32017 0
M  V30 12824 H 1192.96 3.8553 2.941 0
M  V30 12825 N 1194.3 -1.0692 1.15784 0
M  V30 12826 C 1195.21 -2.17762 0.872753 0
M  V30 12827 C 1196.23 -1.73329 -0.152608 0
M  V30 12828 O 1197.41 -2.01387 0.022519 0
M  V30 12829 C 1194.47 -3.4471 0.370887 0
M  V30 12830 C 1193.53 -4.03686 1.46069 0
M  V30 12831 C 1192.77 -5.24575 0.982675 0
M  V30 12832 O 1192.99 -5.70146 -0.17006 0
M  V30 12833 O 1191.92 -5.7534 1.76828 0
M  V30 12834 H 1195.75 -2.44648 1.79948 0
M  V30 12835 H 1193.33 -1.1634 0.937303 0
M  V30 12836 H 1195.22 -4.21287 0.0976779 0
M  V30 12837 H 1193.89 -3.19366 -0.527912 0
M  V30 12838 H 1192.8 -3.28629 1.78756 0
M  V30 12839 H 1194.13 -4.33312 2.33456 0
M  V30 12840 N 1195.78 -0.955326 -1.25345 0
M  V30 12841 C 1196.73 -0.474888 -2.25862 0
M  V30 12842 C 1197.7 0.472996 -1.59223 0
M  V30 12843 O 1198.88 0.386094 -1.86853 0
M  V30 12844 C 1196.02 0.240554 -3.44261 0
M  V30 12845 C 1195.14 -0.74465 -4.25534 0
M  V30 12846 C 1194.27 -0.00657513 -5.312 0
M  V30 12847 C 1193.31 -0.982666 -6.04161 0
M  V30 12848 N 1192.45 -0.275418 -7.0156 0
M  V30 12849 H 1197.29 -1.33693 -2.66327 0
M  V30 12850 H 1194.83 -0.670439 -1.30933 0
M  V30 12851 H 1196.78 0.671933 -4.11753 0
M  V30 12852 H 1195.41 1.06664 -3.04668 0
M  V30 12853 H 1194.47 -1.29451 -3.57696 0
M  V30 12854 H 1195.78 -1.48948 -4.76042 0
M  V30 12855 H 1194.93 0.483404 -6.04771 0
M  V30 12856 H 1193.67 0.771035 -4.81567 0
M  V30 12857 H 1192.68 -1.48364 -5.29404 0
M  V30 12858 H 1193.9 -1.76052 -6.55883 0
M  V30 12859 H 1191.85 0.483441 -6.54216 0
M  V30 12860 H 1191.76 -0.959324 -7.49889 0
M  V30 12861 H 1193.03 0.193002 -7.79261 0
M  V30 12862 N 1197.26 1.39987 -0.723979 0
M  V30 12863 C 1198.51 1.99964 -0.26406 0
M  V30 12864 C 1198.82 1.58084 1.1519 0
M  V30 12865 O 1200.03 2.10819 1.71077 0
M  V30 12866 C 1198.49 3.57427 -0.421174 0
M  V30 12867 C 1198.09 4.08276 -1.84432 0
M  V30 12868 C 1199.84 4.24494 -0.0224734 0
M  V30 12869 C 1197.74 5.58272 -1.95157 0
M  V30 12870 H 1196.67 0.747995 -0.0949728 0
M  V30 12871 H 1199.33 1.60122 -0.896276 0
M  V30 12872 H 1197.71 3.95011 0.279762 0
M  V30 12873 H 1198.88 3.82051 -2.57631 0
M  V30 12874 H 1197.2 3.53834 -2.19523 0
M  V30 12875 H 1199.79 5.34637 -0.0817744 0
M  V30 12876 H 1200.14 4.03593 1.02069 0
M  V30 12877 H 1200.67 3.92046 -0.67416 0
M  V30 12878 H 1197.41 5.84038 -2.97623 0
M  V30 12879 H 1196.93 5.86335 -1.2638 0
M  V30 12880 H 1198.61 6.23509 -1.72759 0
M  V30 12881 N 1198.74 0.470782 1.50404 0
M  V30 12882 C 1199.96 -0.084284 2.07229 0
M  V30 12883 C 1200.39 -1.32774 1.33239 0
M  V30 12884 O 1199.75 -1.77274 0.379971 0
M  V30 12885 C 1199.8 -0.351565 3.58882 0
M  V30 12886 O 1198.9 -1.43211 3.86736 0
M  V30 12887 H 1198.24 0.0128479 0.663876 0
M  V30 12888 H 1200.77 0.661735 1.93603 0
M  V30 12889 H 1200.78 -0.592151 4.0368 0
M  V30 12890 H 1199.46 0.557084 4.12152 0
M  V30 12891 H 1198.03 -1.17886 3.53776 0
M  V30 12892 N 1200.22 -1.56282 0.203376 0
M  V30 12893 C 1201.15 -2.16714 -0.74616 0
M  V30 12894 C 1202.16 -1.13121 -1.17079 0
M  V30 12895 O 1203.35 -1.40179 -1.10509 0
M  V30 12896 C 1200.45 -2.72115 -2.02007 0
M  V30 12897 C 1199.62 -4.00695 -1.75391 0
M  V30 12898 C 1198.68 -4.40839 -2.8731 0
M  V30 12899 O 1197.71 -5.081 -2.56561 0
M  V30 12900 N 1198.91 -4.05024 -4.15856 0
M  V30 12901 H 1201.68 -2.98821 -0.229326 0
M  V30 12902 H 1199.24 -1.61885 0.0217049 0
M  V30 12903 H 1201.23 -2.95951 -2.76035 0
M  V30 12904 H 1199.8 -1.94415 -2.44789 0
M  V30 12905 H 1199.02 -3.84905 -0.851 0
M  V30 12906 H 1200.31 -4.8461 -1.55017 0
M  V30 12907 H 1199.71 -3.50938 -4.43688 0
M  V30 12908 H 1198.26 -4.33792 -4.86485 0
M  V30 12909 N 1201.7 0.070167 -1.57444 0
M  V30 12910 C 1202.61 1.10106 -2.07157 0
M  V30 12911 C 1203.62 1.42293 -1.00143 0
M  V30 12912 O 1204.8 1.52437 -1.31624 0
M  V30 12913 C 1201.86 2.39486 -2.50694 0
M  V30 12914 C 1200.92 2.14255 -3.72012 0
M  V30 12915 C 1200.16 3.37466 -4.13464 0
M  V30 12916 O 1200.38 4.46645 -3.54773 0
M  V30 12917 O 1199.31 3.25583 -5.0624 0
M  V30 12918 H 1203.14 0.70873 -2.95315 0
M  V30 12919 H 1200.72 0.28441 -1.46668 0
M  V30 12920 H 1202.61 3.15625 -2.79212 0
M  V30 12921 H 1201.28 2.78095 -1.65664 0
M  V30 12922 H 1200.19 1.35816 -3.48575 0
M  V30 12923 H 1201.52 1.80525 -4.57899 0
M  V30 12924 N 1203.17 1.53854 0.341593 0
M  V30 12925 C 1204.4 1.75134 1.10162 0
M  V30 12926 C 1204.82 0.491415 1.82292 0
M  V30 12927 O 1204.17 -0.53703 1.7442 0
M  V30 12928 C 1204.22 2.93273 2.1136 0
M  V30 12929 O 1203.95 4.14393 1.42162 0
M  V30 12930 C 1205.45 3.26621 2.99723 0
M  V30 12931 H 1202.67 0.585126 0.328434 0
M  V30 12932 H 1205.21 2.00684 0.393204 0
M  V30 12933 H 1203.37 2.70048 2.77764 0
M  V30 12934 H 1203.78 4.8072 2.09783 0
M  V30 12935 H 1205.25 4.12629 3.66662 0
M  V30 12936 H 1205.73 2.43008 3.65847 0
M  V30 12937 H 1206.34 3.51858 2.38906 0
M  V30 12938 N 1204.65 -0.602709 1.4562 0
M  V30 12939 C 1205.56 -1.74132 1.5721 0
M  V30 12940 C 1206.58 -1.67909 0.456347 0
M  V30 12941 O 1207.75 -1.88178 0.717714 0
M  V30 12942 C 1204.82 -3.10604 1.54032 0
M  V30 12943 C 1203.88 -3.28244 2.76685 0
M  V30 12944 C 1203.11 -4.58205 2.73649 0
M  V30 12945 O 1203.34 -5.40836 1.81254 0
M  V30 12946 O 1202.27 -4.78663 3.64919 0
M  V30 12947 H 1206.1 -1.67304 2.53462 0
M  V30 12948 H 1203.68 -0.767381 1.28186 0
M  V30 12949 H 1205.56 -3.91904 1.54885 0
M  V30 12950 H 1204.24 -3.17913 0.60934 0
M  V30 12951 H 1203.14 -2.46514 2.81393 0
M  V30 12952 H 1204.48 -3.25814 3.68925 0
M  V30 12953 N 1206.13 -1.32992 -0.845635 0
M  V30 12954 C 1207.06 -1.18513 -1.96182 0
M  V30 12955 C 1208.07 -0.11781 -1.62373 0
M  V30 12956 O 1209.26 -0.36761 -1.74674 0
M  V30 12957 C 1206.36 -0.793812 -3.29472 0
M  V30 12958 C 1205.54 -1.95134 -3.91461 0
M  V30 12959 C 1204.6 -1.54209 -5.03096 0
M  V30 12960 O 1203.62 -2.25545 -5.22607 0
M  V30 12961 N 1204.82 -0.443235 -5.78805 0
M  V30 12962 H 1207.59 -2.14663 -2.09141 0
M  V30 12963 H 1205.15 -1.25648 -1.02099 0
M  V30 12964 H 1207.14 -0.502263 -4.01571 0
M  V30 12965 H 1205.71 0.0768031 -3.12506 0
M  V30 12966 H 1204.93 -2.40889 -3.12035 0
M  V30 12967 H 1206.22 -2.72604 -4.2961 0
M  V30 12968 H 1205.62 0.150298 -5.655 0
M  V30 12969 H 1204.17 -0.211331 -6.51457 0
M  V30 12970 N 1207.61 1.06304 -1.1635 0
M  V30 12971 C 1209.02 1.31227 -0.90838 0
M  V30 12972 C 1209.22 1.96665 0.438779 0
M  V30 12973 O 1208.28 2.2332 1.17833 0
M  V30 12974 C 1209.59 2.19303 -2.05734 0
M  V30 12975 C 1211.14 2.3272 -2.09309 0
M  V30 12976 C 1211.62 3.24151 -3.23559 0
M  V30 12977 N 1213.11 3.31734 -3.23275 0
M  V30 12978 C 1213.84 4.02572 -4.08318 0
M  V30 12979 N 1213.34 4.75933 -5.03448 0
M  V30 12980 N 1215.13 3.98621 -3.96305 0
M  V30 12981 H 1207.28 0.622228 -2.03081 0
M  V30 12982 H 1209.54 0.336892 -0.886119 0
M  V30 12983 H 1209.25 1.78497 -3.03037 0
M  V30 12984 H 1209.12 3.19888 -1.99879 0
M  V30 12985 H 1211.51 2.72774 -1.12599 0
M  V30 12986 H 1211.59 1.31804 -2.19229 0
M  V30 12987 H 1211.24 2.84813 -4.20528 0
M  V30 12988 H 1211.17 4.25046 -3.10875 0
M  V30 12989 H 1213.66 2.79453 -2.5439 0
M  V30 12990 H 1213.97 5.27512 -5.64758 0
M  V30 12991 H 1212.32 4.74913 -5.07427 0
M  V30 12992 H 1215.51 3.40427 -3.21289 0
M  V30 12993 H 1215.68 4.5356 -4.62804 0
M  V30 12994 N 1209.09 0.96196 1.24836 0
M  V30 12995 C 1210.33 0.628484 1.94498 0
M  V30 12996 C 1210.69 -0.820337 1.73593 0
M  V30 12997 O 1211.89 -1.26376 2.37239 0
M  V30 12998 C 1210.16 0.986119 3.43527 0
M  V30 12999 S 1211.72 0.766324 4.32057 0
M  V30 13000 H 1208.54 0.230758 0.672511 0
M  V30 13001 H 1211.14 1.23769 1.51332 0
M  V30 13002 H 1209.84 2.03756 3.56247 0
M  V30 13003 H 1209.38 0.367454 3.9168 0
M  V30 13004 H 1211.39 -0.359227 4.94898 0
M  V30 13005 N 1210.56 -1.39601 0.731392 0
M  V30 13006 C 1211.47 -2.34425 0.090527 0
M  V30 13007 C 1212.49 -1.58131 -0.725992 0
M  V30 13008 O 1213.67 -1.90441 -0.655294 0
M  V30 13009 C 1210.73 -3.37138 -0.808624 0
M  V30 13010 C 1209.79 -4.29295 0.0197365 0
M  V30 13011 C 1209.02 -5.27102 -0.836593 0
M  V30 13012 O 1209.25 -5.31302 -2.07543 0
M  V30 13013 O 1208.18 -6.01307 -0.267172 0
M  V30 13014 H 1212.01 -2.9088 0.873084 0
M  V30 13015 H 1209.59 -1.41066 0.492024 0
M  V30 13016 H 1211.47 -4.00087 -1.32319 0
M  V30 13017 H 1210.15 -2.83074 -1.57006 0
M  V30 13018 H 1209.06 -3.69581 0.579744 0
M  V30 13019 H 1210.39 -4.86555 0.743308 0
M  V30 13020 N 1212.04 -0.478751 -1.50152 0
M  V30 13021 C 1213.27 0.0732929 -2.0727 0
M  V30 13022 C 1213.69 1.32066 -1.33941 0
M  V30 13023 O 1213.05 1.7707 -0.389367 0
M  V30 13024 C 1213.1 0.332528 -3.59064 0
M  V30 13025 O 1212.2 1.41158 -3.8749 0
M  V30 13026 H 1211.54 -0.0163684 -0.663798 0
M  V30 13027 H 1214.07 -0.671993 -1.9325 0
M  V30 13028 H 1214.08 0.570735 -4.03988 0
M  V30 13029 H 1212.76 -0.578934 -4.11851 0
M  V30 13030 H 1211.34 1.16008 -3.54396 0
M  V30 13031 N 1213.52 1.56172 -0.211661 0
M  V30 13032 C 1214.45 2.22843 0.697375 0
M  V30 13033 C 1215.43 1.19689 1.20866 0
M  V30 13034 O 1216.62 1.48245 1.25447 0
M  V30 13035 C 1213.75 2.90067 1.90993 0
M  V30 13036 C 1212.7 3.99608 1.5329 0
M  V30 13037 C 1212.03 4.54078 2.82343 0
M  V30 13038 C 1213.33 5.17169 0.730333 0
M  V30 13039 H 1215.02 2.99065 0.141533 0
M  V30 13040 H 1212.57 1.43846 0.0666337 0
M  V30 13041 H 1214.52 3.35396 2.55123 0
M  V30 13042 H 1213.24 2.11276 2.49058 0
M  V30 13043 H 1211.9 3.54995 0.915115 0
M  V30 13044 H 1211.55 3.72029 3.38531 0
M  V30 13045 H 1211.25 5.28001 2.57853 0
M  V30 13046 H 1212.77 5.02119 3.47432 0
M  V30 13047 H 1214.19 5.5894 1.2751 0
M  V30 13048 H 1212.59 5.97262 0.582916 0
M  V30 13049 H 1213.66 4.84174 -0.265157 0
M  V30 13050 N 1215 -0.0618163 1.57479 0
M  V30 13051 C 1215.95 -1.09105 2.05424 0
M  V30 13052 C 1216.94 -1.3947 0.961479 0
M  V30 13053 O 1218.15 -1.3876 1.14655 0
M  V30 13054 H 1214.52 -0.36923 0.655113 0
M  V30 13055 H 1216.49 -0.66061 2.90996 0
M  V30 13056 C 1215.24 -2.39345 2.52209 0
M  V30 13057 H 1214.56 -2.16832 3.35893 0
M  V30 13058 H 1216 -3.09784 2.89499 0
M  V30 13059 C 1214.46 -3.06011 1.40922 0
M  V30 13060 O 1214.99 -3.94504 0.756921 0
M  V30 13061 N 1213.2 -2.66797 1.15186 0
M  V30 13062 H 1212.75 -1.94923 1.68412 0
M  V30 13063 H 1212.7 -3.11724 0.409324 0
M  V30 13064 N 1216.48 -1.54033 -0.333429 0
M  V30 13065 C 1217.7 -1.75716 -1.09232 0
M  V30 13066 C 1218.12 -0.501076 -1.82029 0
M  V30 13067 O 1217.48 0.527772 -1.74702 0
M  V30 13068 C 1217.53 -2.9439 -2.09802 0
M  V30 13069 O 1217.25 -4.15141 -1.39963 0
M  V30 13070 C 1218.75 -3.28206 -2.97987 0
M  V30 13071 H 1215.97 -0.586859 -0.325326 0
M  V30 13072 H 1218.51 -2.0089 -0.382555 0
M  V30 13073 H 1216.67 -2.71518 -2.76327 0
M  V30 13074 H 1217.08 -4.81826 -2.0723 0
M  V30 13075 H 1218.56 -4.14568 -3.64469 0
M  V30 13076 H 1219.03 -2.44944 -3.64553 0
M  V30 13077 H 1219.64 -3.5312 -2.37036 0
M  V30 13078 N 1217.95 0.594978 -1.45938 0
M  V30 13079 C 1219.37 0.917069 -1.30622 0
M  V30 13080 C 1219.57 1.99702 -0.268554 0
M  V30 13081 O 1218.63 2.50293 0.333146 0
M  V30 13082 C 1219.94 1.34604 -2.68891 0
M  V30 13083 C 1221.49 1.45957 -2.76886 0
M  V30 13084 C 1221.96 1.92225 -4.15708 0
M  V30 13085 N 1223.45 1.99439 -4.18065 0
M  V30 13086 C 1224.19 2.36488 -5.22361 0
M  V30 13087 N 1223.68 2.72416 -6.36994 0
M  V30 13088 N 1225.48 2.36936 -5.09723 0
M  V30 13089 H 1217.63 -0.118625 -2.12068 0
M  V30 13090 H 1219.89 0.00959453 -0.947951 0
M  V30 13091 H 1219.6 0.626605 -3.46073 0
M  V30 13092 H 1219.47 2.31006 -2.98188 0
M  V30 13093 H 1221.86 2.16989 -1.99999 0
M  V30 13094 H 1221.94 0.47838 -2.51287 0
M  V30 13095 H 1221.58 1.21775 -4.93085 0
M  V30 13096 H 1221.51 2.9128 -4.38707 0
M  V30 13097 H 1224 1.74212 -3.35349 0
M  V30 13098 H 1224.32 2.99604 -7.1236 0
M  V30 13099 H 1222.66 2.70083 -6.40375 0
M  V30 13100 H 1225.85 2.08282 -4.19209 0
M  V30 13101 H 1226.03 2.65483 -5.9112 0
M  V30 13102 N 1219.43 1.33438 0.838571 0
M  V30 13103 C 1220.66 1.27951 1.62592 0
M  V30 13104 C 1221.08 -0.149502 1.88207 0
M  V30 13105 O 1220.43 -1.09174 1.46244 0
M  V30 13106 C 1220.48 2.0523 2.97595 0
M  V30 13107 O 1220.2 3.42557 2.73105 0
M  V30 13108 C 1221.71 2.06957 3.92025 0
M  V30 13109 H 1218.93 0.440796 0.505905 0
M  V30 13110 H 1221.47 1.75814 1.0445 0
M  V30 13111 H 1219.62 1.61049 3.52338 0
M  V30 13112 H 1220.04 3.82314 3.59076 0
M  V30 13113 H 1221.51 2.65481 4.83967 0
M  V30 13114 H 1221.99 1.0599 4.26219 0
M  V30 13115 H 1222.6 2.51158 3.4322 0
M  V30 13116 N 1220.91 -1.05686 1.16912 0
M  V30 13117 C 1222.16 -1.78862 0.955839 0
M  V30 13118 C 1222.49 -1.87257 -0.514645 0
M  V30 13119 O 1221.76 -1.36869 -1.38193 0
M  V30 13120 C 1222.05 -3.23021 1.59152 0
M  V30 13121 C 1221.9 -3.22669 3.13376 0
M  V30 13122 C 1223.22 -4.2073 1.29128 0
M  V30 13123 H 1220.34 -0.64931 0.348663 0
M  V30 13124 H 1222.98 -1.23561 1.44335 0
M  V30 13125 H 1221.13 -3.70243 1.17697 0
M  V30 13126 H 1222.8 -2.83562 3.63855 0
M  V30 13127 H 1221.05 -2.61149 3.46386 0
M  V30 13128 H 1221.72 -4.24394 3.52979 0
M  V30 13129 H 1224.19 -3.8198 1.65017 0
M  V30 13130 H 1223.07 -5.19851 1.76198 0
M  V30 13131 H 1223.33 -4.41595 0.21119 0
M  V30 13132 N 1222.39 -0.968567 -1.24324 0
M  V30 13133 C 1223.62 -0.647628 -1.96187 0
M  V30 13134 C 1224.03 0.787267 -1.72043 0
M  V30 13135 O 1223.37 1.53996 -1.00155 0
M  V30 13136 C 1223.43 -0.843517 -3.49464 0
M  V30 13137 C 1223.1 -2.25822 -3.97308 0
M  V30 13138 C 1224.09 -3.23602 -4.06913 0
M  V30 13139 C 1221.78 -2.58614 -4.30609 0
M  V30 13140 C 1223.77 -4.5226 -4.49154 0
M  V30 13141 C 1221.46 -3.87499 -4.72534 0
M  V30 13142 C 1222.46 -4.84134 -4.81771 0
M  V30 13143 O 1222.14 -6.10719 -5.2276 0
M  V30 13144 H 1221.88 -0.240568 -0.631746 0
M  V30 13145 H 1224.43 -1.29926 -1.59086 0
M  V30 13146 H 1222.66 -0.134716 -3.86465 0
M  V30 13147 H 1224.35 -0.521533 -4.02536 0
M  V30 13148 H 1225.12 -2.99596 -3.81402 0
M  V30 13149 H 1220.99 -1.84116 -4.22637 0
M  V30 13150 H 1224.54 -5.27689 -4.56279 0
M  V30 13151 H 1220.44 -4.11305 -4.97492 0
M  V30 13152 H 1221.2 -6.14298 -5.40906 0
M  V30 13153 N 1223.87 1.39211 -0.738786 0
M  V30 13154 C 1225.11 2.00436 -0.28839 0
M  V30 13155 C 1225.44 1.58626 1.12552 0
M  V30 13156 O 1224.7 0.808154 1.78234 0
M  V30 13157 C 1225 3.55758 -0.342224 0
M  V30 13158 C 1224.66 4.1723 -1.70968 0
M  V30 13159 C 1223.32 4.33734 -2.08395 0
M  V30 13160 C 1225.68 4.51294 -2.60736 0
M  V30 13161 C 1223 4.81592 -3.35091 0
M  V30 13162 C 1225.36 5.00562 -3.86808 0
M  V30 13163 C 1224.02 5.15274 -4.24322 0
M  V30 13164 H 1223.29 0.733447 -0.105529 0
M  V30 13165 H 1225.94 1.66481 -0.94637 0
M  V30 13166 H 1224.24 3.8976 0.399331 0
M  V30 13167 H 1225.94 4.00993 0.0244582 0
M  V30 13168 H 1222.53 4.04788 -1.4087 0
M  V30 13169 H 1226.71 4.38158 -2.3309 0
M  V30 13170 H 1221.97 4.91167 -3.64095 0
M  V30 13171 H 1226.14 5.25892 -4.5652 0
M  V30 13172 H 1223.77 5.52119 -5.2256 0
M  V30 13173 N 1225.34 0.486708 1.49896 0
M  V30 13174 C 1226.57 -0.0622999 2.07306 0
M  V30 13175 C 1226.99 -1.31353 1.3464 0
M  V30 13176 O 1226.35 -1.76861 0.398752 0
M  V30 13177 C 1226.4 -0.313481 3.59235 0
M  V30 13178 O 1225.5 -1.39101 3.88233 0
M  V30 13179 H 1224.85 0.0198885 0.663702 0
M  V30 13180 H 1227.38 0.682232 1.92891 0
M  V30 13181 H 1227.39 -0.549302 4.04285 0
M  V30 13182 H 1226.06 0.600767 4.11538 0
M  V30 13183 H 1224.64 -1.14127 3.55006 0
M  V30 13184 N 1226.82 -1.56058 0.219941 0
M  V30 13185 C 1227.73 -2.23844 -0.70222 0
M  V30 13186 C 1228.75 -1.24554 -1.215 0
M  V30 13187 O 1229.93 -1.57362 -1.25695 0
M  V30 13188 C 1226.99 -2.90384 -1.89416 0
M  V30 13189 C 1226.05 -4.05012 -1.42351 0
M  V30 13190 C 1225.28 -4.68369 -2.55863 0
M  V30 13191 O 1225.51 -4.3071 -3.73958 0
M  V30 13192 O 1224.44 -5.5739 -2.27157 0
M  V30 13193 H 1228.27 -3.03305 -0.15478 0
M  V30 13194 H 1225.85 -1.49396 -0.010438 0
M  V30 13195 H 1227.73 -3.32389 -2.59028 0
M  V30 13196 H 1226.41 -2.13883 -2.42973 0
M  V30 13197 H 1225.32 -3.67579 -0.695448 0
M  V30 13198 H 1226.65 -4.83251 -0.934332 0
M  V30 13199 N 1228.3 0.053464 -1.57509 0
M  V30 13200 C 1229.23 1.08863 -2.01696 0
M  V30 13201 C 1230.25 1.33916 -0.925765 0
M  V30 13202 O 1231.44 1.31833 -1.20343 0
M  V30 13203 C 1228.54 2.43567 -2.35644 0
M  V30 13204 C 1227.71 2.38215 -3.66841 0
M  V30 13205 C 1226.77 3.55172 -3.88252 0
M  V30 13206 O 1225.79 3.35769 -4.59617 0
M  V30 13207 N 1227 4.76182 -3.3201 0
M  V30 13208 H 1229.76 0.712192 -2.91115 0
M  V30 13209 H 1227.32 0.241829 -1.60084 0
M  V30 13210 H 1229.31 3.20486 -2.47125 0
M  V30 13211 H 1227.88 2.73145 -1.52022 0
M  V30 13212 H 1227.1 1.46557 -3.65943 0
M  V30 13213 H 1228.39 2.31757 -4.52953 0
M  V30 13214 H 1227.79 4.94849 -2.74118 0
M  V30 13215 H 1226.35 5.5055 -3.4891 0
M  V30 13216 N 1229.78 1.54207 0.325255 0
M  V30 13217 C 1231.03 1.73523 1.06119 0
M  V30 13218 C 1231.38 0.501912 1.85738 0
M  V30 13219 O 1230.67 -0.505659 1.84807 0
M  V30 13220 C 1230.87 2.95 2.01766 0
M  V30 13221 C 1230.7 4.30028 1.31552 0
M  V30 13222 C 1229.47 4.94212 1.05273 0
M  V30 13223 C 1231.66 5.0906 0.732304 0
M  V30 13224 N 1229.65 6.13074 0.318312 0
M  V30 13225 C 1231.02 6.19865 0.12941 0
M  V30 13226 C 1233.07 4.93835 0.634951 0
M  V30 13227 C 1231.78 7.17106 -0.561389 0
M  V30 13228 C 1233.8 5.91385 -0.0421426 0
M  V30 13229 C 1233.16 7.01541 -0.633988 0
M  V30 13230 H 1229.26 0.687811 0.372076 0
M  V30 13231 H 1231.85 1.91662 0.342581 0
M  V30 13232 H 1230.02 2.78329 2.70901 0
M  V30 13233 H 1231.75 3.02952 2.68333 0
M  V30 13234 H 1228.5 4.54111 1.34462 0
M  V30 13235 H 1228.93 6.76991 -0.0347026 0
M  V30 13236 H 1233.57 4.0882 1.07825 0
M  V30 13237 H 1231.29 8.01681 -1.01652 0
M  V30 13238 H 1234.87 5.81682 -0.117085 0
M  V30 13239 H 1233.75 7.75728 -1.1496 0
M  V30 13240 N 1231.26 -0.58723 1.46251 0
M  V30 13241 C 1232.5 -1.3476 1.51551 0
M  V30 13242 C 1232.84 -1.93499 0.16483 0
M  V30 13243 O 1232.11 -1.7622 -0.823207 0
M  V30 13244 C 1232.39 -2.48033 2.61059 0
M  V30 13245 C 1232.25 -1.94358 4.05642 0
M  V30 13246 C 1233.57 -3.50096 2.66685 0
M  V30 13247 H 1230.69 -0.48863 0.551733 0
M  V30 13248 H 1233.33 -0.660097 1.78165 0
M  V30 13249 H 1231.48 -3.06679 2.38496 0
M  V30 13250 H 1233.15 -1.40204 4.39478 0
M  V30 13251 H 1231.39 -1.25217 4.15335 0
M  V30 13252 H 1232.06 -2.76105 4.77986 0
M  V30 13253 H 1234.54 -3.01324 2.86955 0
M  V30 13254 H 1233.42 -4.26817 3.45135 0
M  V30 13255 H 1233.68 -4.07032 1.7256 0
M  V30 13256 N 1232.74 -1.33881 -0.831482 0
M  V30 13257 C 1233.96 -1.28961 -1.62431 0
M  V30 13258 C 1234.39 0.135249 -1.87613 0
M  V30 13259 O 1233.74 1.09426 -1.44553 0
M  V30 13260 C 1233.79 -2.07767 -2.94729 0
M  V30 13261 O 1232.9 -1.44133 -3.86393 0
M  V30 13262 H 1232.24 -0.443313 -0.494337 0
M  V30 13263 H 1234.77 -1.76555 -1.0339 0
M  V30 13264 H 1234.78 -2.18806 -3.44366 0
M  V30 13265 H 1233.45 -3.11367 -2.75724 0
M  V30 13266 H 1232.03 -1.41784 -3.44894 0
M  V30 13267 N 1234.21 1.05064 -1.1747 0
M  V30 13268 C 1235.44 1.82299 -0.98903 0
M  V30 13269 C 1235.86 1.82441 0.457907 0
M  V30 13270 O 1235.22 1.23433 1.32793 0
M  V30 13271 C 1235.27 3.26239 -1.53624 0
M  V30 13272 O 1234.37 4.05507 -0.750857 0
M  V30 13273 H 1233.71 0.563601 -0.35107 0
M  V30 13274 H 1236.24 1.32386 -1.55997 0
M  V30 13275 H 1236.25 3.77038 -1.55906 0
M  V30 13276 H 1234.93 3.25451 -2.58949 0
M  V30 13277 H 1233.51 3.64227 -0.799548 0
M  V30 13278 N 1235.69 0.975146 1.23809 0
M  V30 13279 C 1236.62 0.530389 2.27396 0
M  V30 13280 C 1237.6 -0.433763 1.64476 0
M  V30 13281 O 1238.79 -0.32827 1.91405 0
M  V30 13282 C 1235.92 -0.173066 3.46869 0
M  V30 13283 C 1234.87 0.707844 4.22106 0
M  V30 13284 C 1234.2 -0.127527 5.34548 0
M  V30 13285 C 1235.5 1.99609 4.82652 0
M  V30 13286 H 1237.19 1.39622 2.64851 0
M  V30 13287 H 1234.74 0.672802 1.27316 0
M  V30 13288 H 1236.69 -0.495481 4.18477 0
M  V30 13289 H 1235.41 -1.0733 3.0846 0
M  V30 13290 H 1234.07 1.01364 3.52308 0
M  V30 13291 H 1233.72 -1.02814 4.9238 0
M  V30 13292 H 1233.42 0.458728 5.85807 0
M  V30 13293 H 1234.95 -0.444443 6.0898 0
M  V30 13294 H 1236.36 1.73878 5.46296 0
M  V30 13295 H 1234.76 2.52969 5.44175 0
M  V30 13296 H 1235.83 2.68629 4.03691 0
M  V30 13297 N 1237.17 -1.38817 0.746158 0
M  V30 13298 C 1238.12 -2.32373 0.102785 0
M  V30 13299 C 1239.11 -1.53638 -0.713556 0
M  V30 13300 O 1240.32 -1.69223 -0.613488 0
M  V30 13301 H 1236.69 -0.751861 0.0144405 0
M  V30 13302 H 1238.66 -2.84249 0.908032 0
M  V30 13303 C 1237.41 -3.38796 -0.781827 0
M  V30 13304 H 1236.74 -3.99467 -0.163057 0
M  V30 13305 H 1238.18 -4.06682 -1.19941 0
M  V30 13306 C 1236.63 -2.76756 -1.92113 0
M  V30 13307 O 1237.16 -2.65478 -3.0147 0
M  V30 13308 N 1235.37 -2.34676 -1.71392 0
M  V30 13309 H 1234.92 -2.44049 -0.824483 0
M  V30 13310 H 1234.88 -1.93508 -2.47794 0
M  V30 13311 N 1238.65 -0.49465 -1.49636 0
M  V30 13312 C 1239.56 0.291881 -2.32777 0
M  V30 13313 C 1240.57 0.973468 -1.44221 0
M  V30 13314 O 1241.75 0.956252 -1.77251 0
M  V30 13315 C 1238.81 1.34609 -3.19502 0
M  V30 13316 C 1237.88 0.678611 -4.23903 0
M  V30 13317 C 1237.11 1.68259 -5.06483 0
M  V30 13318 O 1237.33 2.91176 -4.90482 0
M  V30 13319 O 1236.27 1.24141 -5.88959 0
M  V30 13320 H 1240.09 -0.388459 -3.01205 0
M  V30 13321 H 1237.68 -0.256086 -1.47189 0
M  V30 13322 H 1239.56 1.95617 -3.73245 0
M  V30 13323 H 1238.23 2.00947 -2.53775 0
M  V30 13324 H 1237.14 0.0289541 -3.74089 0
M  V30 13325 H 1238.47 0.0577817 -4.92166 0
M  V30 13326 N 1240.13 1.55939 -0.228214 0
M  V30 13327 C 1241.54 1.59094 0.12704 0
M  V30 13328 C 1241.74 1.24514 1.58425 0
M  V30 13329 O 1240.8 0.983544 2.32557 0
M  V30 13330 C 1242.11 2.99999 -0.205268 0
M  V30 13331 C 1243.66 3.1265 -0.148046 0
M  V30 13332 C 1244.13 4.55743 -0.454122 0
M  V30 13333 N 1245.62 4.61435 -0.403937 0
M  V30 13334 C 1246.36 5.70101 -0.614173 0
M  V30 13335 N 1245.86 6.87104 -0.88654 0
M  V30 13336 N 1247.65 5.5944 -0.546153 0
M  V30 13337 H 1239.8 1.7669 -1.17874 0
M  V30 13338 H 1242.06 0.821599 -0.472947 0
M  V30 13339 H 1241.77 3.29976 -1.21692 0
M  V30 13340 H 1241.64 3.74177 0.476573 0
M  V30 13341 H 1244.03 2.82465 0.854255 0
M  V30 13342 H 1244.11 2.40786 -0.863462 0
M  V30 13343 H 1243.75 4.86646 -1.45389 0
M  V30 13344 H 1243.68 5.25841 0.282561 0
M  V30 13345 H 1246.18 3.77363 -0.201388 0
M  V30 13346 H 1246.49 7.65839 -1.03488 0
M  V30 13347 H 1244.83 6.88833 -0.923808 0
M  V30 13348 H 1248.02 4.6691 -0.33355 0
M  V30 13349 H 1248.2 6.44061 -0.713402 0
M  V30 13350 N 1241.6 -0.0451101 1.57535 0
M  V30 13351 C 1242.51 -1.06796 2.08882 0
M  V30 13352 C 1243.53 -1.40682 1.02394 0
M  V30 13353 O 1244.71 -1.50324 1.34033 0
M  V30 13354 C 1241.77 -2.35467 2.54472 0
M  V30 13355 C 1240.83 -2.0831 3.75374 0
M  V30 13356 C 1240.07 -3.30846 4.1878 0
M  V30 13357 O 1240.29 -4.40945 3.61834 0
M  V30 13358 O 1239.22 -3.17488 5.11356 0
M  V30 13359 H 1243.05 -0.661658 2.96405 0
M  V30 13360 H 1240.63 -0.26104 1.47102 0
M  V30 13361 H 1242.52 -3.11143 2.84198 0
M  V30 13362 H 1241.19 -2.75425 1.70068 0
M  V30 13363 H 1240.1 -1.30254 3.50692 0
M  V30 13364 H 1241.43 -1.73218 4.60713 0
M  V30 13365 N 1243.08 -1.54377 -0.317073 0
M  V30 13366 C 1244.01 -1.80563 -1.41172 0
M  V30 13367 C 1245.03 -0.687865 -1.47554 0
M  V30 13368 O 1246.22 -0.965084 -1.50161 0
M  V30 13369 C 1243.32 -1.9142 -2.79663 0
M  V30 13370 C 1242.49 -3.21655 -2.96407 0
M  V30 13371 C 1241.55 -3.23131 -4.15298 0
M  V30 13372 O 1240.57 -3.96741 -4.08149 0
M  V30 13373 N 1241.78 -2.47376 -5.25153 0
M  V30 13374 H 1244.54 -2.75032 -1.1907 0
M  V30 13375 H 1242.1 -1.53754 -0.507086 0
M  V30 13376 H 1244.09 -1.89828 -3.57418 0
M  V30 13377 H 1242.66 -1.0402 -2.94786 0
M  V30 13378 H 1241.88 -3.36154 -2.05899 0
M  V30 13379 H 1243.17 -4.07629 -3.04494 0
M  V30 13380 H 1242.57 -1.87173 -5.33838 0
M  V30 13381 H 1241.13 -2.51555 -6.01301 0
M  V30 13382 N 1244.56 0.579466 -1.4656 0
M  V30 13383 C 1245.47 1.71609 -1.59961 0
M  V30 13384 C 1246.49 1.67162 -0.483002 0
M  V30 13385 O 1247.66 1.87012 -0.747561 0
M  V30 13386 C 1244.73 3.08114 -1.58954 0
M  V30 13387 C 1243.79 3.238 -2.81872 0
M  V30 13388 C 1243.02 4.53794 -2.80904 0
M  V30 13389 O 1243.24 5.37884 -1.89835 0
M  V30 13390 O 1242.18 4.72796 -3.72488 0
M  V30 13391 H 1246 1.6325 -2.56092 0
M  V30 13392 H 1243.59 0.746891 -1.2939 0
M  V30 13393 H 1245.47 3.8939 -1.611 0
M  V30 13394 H 1244.15 3.16903 -0.65984 0
M  V30 13395 H 1243.05 2.42006 -2.85279 0
M  V30 13396 H 1244.39 3.19904 -3.74062 0
M  V30 13397 N 1246.04 1.3432 0.824371 0
M  V30 13398 C 1246.97 1.2842 1.95014 0
M  V30 13399 C 1247.95 0.161925 1.69328 0
M  V30 13400 O 1249.13 0.354052 1.90945 0
M  V30 13401 C 1246.26 1.03741 3.31444 0
M  V30 13402 C 1245.22 2.12419 3.71567 0
M  V30 13403 C 1244.54 1.72931 5.05963 0
M  V30 13404 C 1245.84 3.54235 3.83817 0
M  V30 13405 H 1247.54 2.22614 2.00209 0
M  V30 13406 H 1245.08 1.07165 0.961856 0
M  V30 13407 H 1247.04 0.982586 4.09784 0
M  V30 13408 H 1245.76 0.0598892 3.26545 0
M  V30 13409 H 1244.42 2.16968 2.955 0
M  V30 13410 H 1244.07 0.738433 4.9755 0
M  V30 13411 H 1243.77 2.45668 5.3378 0
M  V30 13412 H 1245.29 1.68941 5.86763 0
M  V30 13413 H 1246.71 3.52106 4.52432 0
M  V30 13414 H 1245.1 4.25581 4.23085 0
M  V30 13415 H 1246.17 3.91682 2.85856 0
M  V30 13416 N 1247.52 -1.0444 1.18026 0
M  V30 13417 C 1248.47 -2.10671 0.871877 0
M  V30 13418 C 1249.45 -1.60134 -0.156798 0
M  V30 13419 O 1250.64 -1.76938 0.0467129 0
M  V30 13420 C 1247.77 -3.41017 0.395271 0
M  V30 13421 C 1246.86 -3.98331 1.4558 0
M  V30 13422 N 1247.25 -4.29508 2.67127 0
M  V30 13423 C 1245.55 -4.2616 1.31544 0
M  V30 13424 C 1246.25 -4.7532 3.35329 0
M  V30 13425 N 1245.22 -4.75904 2.6271 0
M  V30 13426 H 1249.03 -2.32647 1.79589 0
M  V30 13427 H 1246.54 -1.22158 1.0701 0
M  V30 13428 H 1248.54 -4.16609 0.155861 0
M  V30 13429 H 1247.2 -3.20469 -0.522452 0
M  V30 13430 H 1248.21 -4.19271 3.04027 0
M  V30 13431 H 1244.88 -4.14959 0.459962 0
M  V30 13432 H 1246.27 -5.08493 4.39186 0
M  V30 13433 N 1248.99 -0.981699 -1.2329 0
M  V30 13434 C 1249.94 -0.515432 -2.26817 0
M  V30 13435 C 1250.94 0.428204 -1.63899 0
M  V30 13436 O 1252.14 0.301954 -1.77449 0
M  V30 13437 H 1248.52 -0.148257 -0.737241 0
M  V30 13438 H 1250.49 -1.40027 -2.63505 0
M  V30 13439 C 1249.24 0.165266 -3.47307 0
M  V30 13440 H 1248.56 -0.55176 -3.95974 0
M  V30 13441 H 1250 0.45513 -4.2155 0
M  V30 13442 C 1248.46 1.39693 -3.06574 0
M  V30 13443 O 1248.99 2.49308 -3.14974 0
M  V30 13444 N 1247.2 1.26806 -2.61474 0
M  V30 13445 H 1246.74 0.376161 -2.54839 0
M  V30 13446 H 1246.7 2.09324 -2.34587 0
M  V30 13447 N 1250.47 1.3842 -0.753509 0
M  V30 13448 C 1251.4 2.33073 -0.141198 0
M  V30 13449 C 1252.38 1.54863 0.70367 0
M  V30 13450 O 1253.57 1.8318 0.644872 0
M  V30 13451 C 1250.7 3.39043 0.752802 0
M  V30 13452 C 1249.65 4.27999 0.0106692 0
M  V30 13453 C 1248.98 5.24824 1.02291 0
M  V30 13454 C 1250.28 5.09308 -1.15768 0
M  V30 13455 H 1251.97 2.84528 -0.93188 0
M  V30 13456 H 1249.52 1.36802 -0.449567 0
M  V30 13457 H 1251.47 4.04224 1.19083 0
M  V30 13458 H 1250.2 2.8607 1.57581 0
M  V30 13459 H 1248.85 3.64323 -0.407939 0
M  V30 13460 H 1248.5 4.68139 1.83998 0
M  V30 13461 H 1248.2 5.85196 0.53101 0
M  V30 13462 H 1249.73 5.92882 1.46026 0
M  V30 13463 H 1251.14 5.6773 -0.797203 0
M  V30 13464 H 1249.54 5.78914 -1.58044 0
M  V30 13465 H 1250.61 4.43051 -1.97062 0
M  V30 13466 N 1251.95 0.502579 1.49372 0
M  V30 13467 C 1252.88 -0.264307 2.31999 0
M  V30 13468 C 1253.86 -0.96107 1.40348 0
M  V30 13469 O 1255.05 -0.952167 1.69255 0
M  V30 13470 C 1252.18 -1.32822 3.20898 0
M  V30 13471 C 1251.13 -0.751236 4.21355 0
M  V30 13472 C 1250.46 -1.91578 4.99201 0
M  V30 13473 C 1251.76 0.258764 5.21659 0
M  V30 13474 H 1253.45 0.425391 2.96363 0
M  V30 13475 H 1251 0.206022 1.42519 0
M  V30 13476 H 1252.95 -1.87245 3.77515 0
M  V30 13477 H 1251.67 -2.04712 2.54481 0
M  V30 13478 H 1250.33 -0.228743 3.65886 0
M  V30 13479 H 1249.98 -2.62241 4.2923 0
M  V30 13480 H 1249.68 -1.53578 5.67175 0
M  V30 13481 H 1251.2 -2.46432 5.58663 0
M  V30 13482 H 1252.62 -0.197385 5.7296 0
M  V30 13483 H 1251.02 0.554681 5.97531 0
M  V30 13484 H 1252.09 1.1741 4.70471 0
M  V30 13485 N 1253.43 -1.55816 0.23648 0
M  V30 13486 C 1254.34 -2.24576 -0.678439 0
M  V30 13487 C 1255.35 -1.25836 -1.20172 0
M  V30 13488 O 1256.53 -1.58686 -1.24019 0
M  V30 13489 C 1253.6 -2.92376 -1.86325 0
M  V30 13490 C 1252.66 -4.06499 -1.38047 0
M  V30 13491 C 1251.89 -4.71057 -2.50881 0
M  V30 13492 O 1252.11 -4.34652 -3.69369 0
M  V30 13493 O 1251.05 -5.59768 -2.21232 0
M  V30 13494 H 1254.87 -3.03452 -0.122601 0
M  V30 13495 H 1252.46 -1.49399 0.00540803 0
M  V30 13496 H 1254.34 -3.35117 -2.55488 0
M  V30 13497 H 1253.01 -2.16448 -2.40691 0
M  V30 13498 H 1251.92 -3.68296 -0.656422 0
M  V30 13499 H 1253.25 -4.84214 -0.883024 0
M  V30 13500 N 1254.91 0.036755 -1.57557 0
M  V30 13501 C 1256.15 0.730186 -1.89199 0
M  V30 13502 C 1256.49 1.75414 -0.833271 0
M  V30 13503 O 1255.76 1.93901 0.152579 0
M  V30 13504 C 1256.04 1.40669 -3.31488 0
M  V30 13505 C 1255.9 0.396764 -4.48047 0
M  V30 13506 C 1257.22 2.34268 -3.72567 0
M  V30 13507 H 1254.33 0.263983 -0.6881 0
M  V30 13508 H 1256.98 -0.0069847 -1.89999 0
M  V30 13509 H 1255.13 2.03502 -3.30937 0
M  V30 13510 H 1256.8 -0.229062 -4.60731 0
M  V30 13511 H 1255.04 -0.284698 -4.32865 0
M  V30 13512 H 1255.71 0.908436 -5.44474 0
M  V30 13513 H 1258.19 1.81485 -3.74436 0
M  V30 13514 H 1257.06 2.78587 -4.72949 0
M  V30 13515 H 1257.33 3.20611 -3.04403 0
M  V30 13516 N 1256.39 1.54543 0.308881 0
M  V30 13517 C 1257.63 1.73706 1.04661 0
M  V30 13518 C 1257.96 0.517111 1.87189 0
M  V30 13519 O 1257.24 -0.485856 1.88334 0
M  V30 13520 C 1257.52 3.02141 1.95916 0
M  V30 13521 C 1257.38 4.34419 1.1662 0
M  V30 13522 C 1258.69 3.26401 2.95213 0
M  V30 13523 H 1255.81 0.63203 0.379087 0
M  V30 13524 H 1258.46 1.87253 0.321947 0
M  V30 13525 H 1256.61 2.90723 2.57706 0
M  V30 13526 H 1258.28 4.57743 0.571772 0
M  V30 13527 H 1256.52 4.3126 0.468747 0
M  V30 13528 H 1257.19 5.20535 1.83704 0
M  V30 13529 H 1259.67 3.37377 2.43549 0
M  V30 13530 H 1258.54 4.17597 3.56235 0
M  V30 13531 H 1258.8 2.44322 3.68455 0
M  V30 13532 N 1257.86 -0.571685 1.46866 0
M  V30 13533 C 1259.09 -1.36008 1.56578 0
M  V30 13534 C 1259.51 -1.86909 0.211326 0
M  V30 13535 O 1258.87 -1.62179 -0.810421 0
M  V30 13536 C 1258.92 -2.51598 2.58323 0
M  V30 13537 O 1258.02 -3.53383 2.1259 0
M  V30 13538 H 1257.36 -0.404593 0.526498 0
M  V30 13539 H 1259.89 -0.692357 1.92529 0
M  V30 13540 H 1259.9 -2.98366 2.78283 0
M  V30 13541 H 1258.58 -2.13904 3.56676 0
M  V30 13542 H 1257.16 -3.13019 2.02666 0
M  V30 13543 N 1259.34 -1.34755 -0.817236 0
M  V30 13544 C 1260.27 -1.22648 -1.93624 0
M  V30 13545 C 1261.29 -0.152226 -1.62087 0
M  V30 13546 O 1262.48 -0.404578 -1.73855 0
M  V30 13547 C 1259.58 -0.863519 -3.27714 0
M  V30 13548 C 1258.75 -2.03394 -3.87233 0
M  V30 13549 C 1257.81 -1.64846 -4.99712 0
M  V30 13550 O 1256.83 -2.3658 -5.17705 0
M  V30 13551 N 1258.04 -0.565909 -5.77735 0
M  V30 13552 H 1260.8 -2.19051 -2.0454 0
M  V30 13553 H 1258.36 -1.27785 -0.994113 0
M  V30 13554 H 1260.35 -0.58733 -4.00415 0
M  V30 13555 H 1258.92 0.0104987 -3.12598 0
M  V30 13556 H 1258.14 -2.47454 -3.06856 0
M  V30 13557 H 1259.43 -2.81655 -4.23731 0
M  V30 13558 H 1258.83 0.030313 -5.65692 0
M  V30 13559 H 1257.39 -0.349467 -6.50862 0
M  V30 13560 N 1260.82 1.03812 -1.18578 0
M  V30 13561 C 1262.06 1.78618 -0.993725 0
M  V30 13562 C 1262.42 1.86206 0.468133 0
M  V30 13563 O 1263.62 2.57243 0.779714 0
M  V30 13564 C 1261.9 3.17883 -1.63357 0
M  V30 13565 S 1263.45 4.08994 -1.58962 0
M  V30 13566 H 1260.27 0.614997 -0.356792 0
M  V30 13567 H 1262.87 1.24458 -1.50766 0
M  V30 13568 H 1261.58 3.09972 -2.68972 0
M  V30 13569 H 1261.11 3.77119 -1.12003 0
M  V30 13570 H 1263.12 4.9247 -0.6073 0
M  V30 13571 N 1262.3 0.988223 1.22768 0
M  V30 13572 C 1263.54 0.669599 1.93121 0
M  V30 13573 C 1263.9 -0.783331 1.75294 0
M  V30 13574 O 1265.1 -1.21315 2.39867 0
M  V30 13575 C 1263.37 1.05876 3.41358 0
M  V30 13576 S 1264.93 0.857797 4.30334 0
M  V30 13577 H 1261.75 0.244972 0.667465 0
M  V30 13578 H 1264.35 1.26952 1.48673 0
M  V30 13579 H 1263.06 2.11267 3.51844 0
M  V30 13580 H 1262.59 0.450453 3.90813 0
M  V30 13581 H 1264.6 -0.254171 4.95549 0
M  V30 13582 N 1263.78 -1.38018 0.760839 0
M  V30 13583 C 1264.69 -2.34181 0.140232 0
M  V30 13584 C 1265.7 -1.59635 -0.692287 0
M  V30 13585 O 1266.88 -1.91788 -0.614752 0
M  V30 13586 C 1263.94 -3.38778 -0.73693 0
M  V30 13587 C 1263 -4.29157 0.110792 0
M  V30 13588 C 1262.24 -5.28758 -0.724599 0
M  V30 13589 O 1262.46 -5.35585 -1.96226 0
M  V30 13590 O 1261.39 -6.01738 -0.139565 0
M  V30 13591 H 1265.22 -2.88962 0.934588 0
M  V30 13592 H 1262.8 -1.3999 0.521835 0
M  V30 13593 H 1264.69 -4.02804 -1.23803 0
M  V30 13594 H 1263.36 -2.86341 -1.50966 0
M  V30 13595 H 1262.27 -3.68268 0.658007 0
M  V30 13596 H 1263.6 -4.84869 0.846346 0
M  V30 13597 N 1265.25 -0.510493 -1.49103 0
M  V30 13598 C 1266.22 0.251915 -2.27811 0
M  V30 13599 C 1267.22 0.885432 -1.34226 0
M  V30 13600 O 1268.41 0.748494 -1.573 0
M  V30 13601 C 1265.54 1.3624 -3.12492 0
M  V30 13602 H 1266.73 -0.438872 -2.96671 0
M  V30 13603 H 1264.28 -0.265767 -1.54024 0
M  V30 13604 H 1265.02 2.08705 -2.48219 0
M  V30 13605 H 1264.8 0.913485 -3.81311 0
M  V30 13606 H 1266.29 1.89919 -3.71915 0
M  V30 13607 N 1266.73 1.55688 -0.24474 0
M  V30 13608 C 1267.96 2.03743 0.387776 0
M  V30 13609 C 1268.38 1.1229 1.50906 0
M  V30 13610 O 1267.74 0.115445 1.80932 0
M  V30 13611 C 1267.79 3.49825 0.874927 0
M  V30 13612 O 1266.89 3.61504 1.98466 0
M  V30 13613 H 1266.23 0.658561 0.0848107 0
M  V30 13614 H 1268.76 2.01224 -0.370165 0
M  V30 13615 H 1268.77 3.90603 1.17871 0
M  V30 13616 H 1267.45 4.15864 0.0543852 0
M  V30 13617 H 1266.02 3.32622 1.68574 0
M  V30 13618 N 1268.21 -0.0283989 1.57574 0
M  V30 13619 C 1269.43 -0.734537 1.93957 0
M  V30 13620 C 1269.86 -1.68062 0.844787 0
M  V30 13621 O 1269.22 -1.802 -0.199432 0
M  V30 13622 C 1269.27 -1.46716 3.29404 0
M  V30 13623 O 1268.37 -2.58036 3.217 0
M  V30 13624 H 1267.71 -0.197507 0.633946 0
M  V30 13625 H 1270.24 0.0163258 2.04593 0
M  V30 13626 H 1270.25 -1.83693 3.64309 0
M  V30 13627 H 1268.93 -0.773292 4.08648 0
M  V30 13628 H 1267.5 -2.23597 2.98427 0
M  V30 13629 N 1269.69 -1.54705 -0.300681 0
M  V30 13630 C 1270.91 -1.78318 -1.05913 0
M  V30 13631 C 1271.34 -0.541177 -1.80147 0
M  V30 13632 O 1270.7 0.508291 -1.74029 0
M  V30 13633 C 1270.74 -2.99041 -2.01511 0
M  V30 13634 O 1269.85 -2.72188 -3.09818 0
M  V30 13635 H 1269.19 -0.590197 -0.304242 0
M  V30 13636 H 1271.72 -2.01789 -0.338006 0
M  V30 13637 H 1271.73 -3.2702 -2.43971 0
M  V30 13638 H 1270.4 -3.89098 -1.46886 0
M  V30 13639 H 1268.98 -2.55227 -2.71871 0
M  V30 13640 N 1271.17 0.563888 -1.47167 0
M  V30 13641 C 1272.44 1.32454 -1.43928 0
M  V30 13642 C 1272.82 2.10683 -0.13267 0
M  V30 13643 O 1272.17 2.1063 0.885845 0
M  V30 13644 C 1272.38 2.2347 -2.68071 0
M  V30 13645 C 1273.73 2.84702 -3.15008 0
M  V30 13646 O 1274.75 2.33775 -2.68752 0
M  V30 13647 O 1273.61 3.77251 -3.95404 0
M  V30 13648 H 1270.71 0.596074 -0.573258 0
M  V30 13649 H 1273.25 0.583345 -1.59359 0
M  V30 13650 H 1272.02 1.6522 -3.54708 0
M  V30 13651 H 1271.65 3.04897 -2.55193 0
M  V30 13652 N 1272.64 1.35187 0.810078 0
M  V30 13653 C 1273.89 1.27602 1.56207 0
M  V30 13654 C 1274.21 -0.148621 1.95035 0
M  V30 13655 O 1275.41 -0.346721 2.69277 0
M  V30 13656 C 1273.87 2.23759 2.81886 0
M  V30 13657 C 1273.48 3.71549 2.5031 0
M  V30 13658 C 1275.22 2.25109 3.59898 0
M  V30 13659 C 1273.13 4.5954 3.7226 0
M  V30 13660 H 1272.06 0.474078 0.586316 0
M  V30 13661 H 1274.71 1.6043 0.890759 0
M  V30 13662 H 1273.09 1.83898 3.5071 0
M  V30 13663 H 1274.26 4.20025 1.89515 0
M  V30 13664 H 1272.58 3.72773 1.85551 0
M  V30 13665 H 1275.18 2.88066 4.50469 0
M  V30 13666 H 1275.52 1.25387 3.96968 0
M  V30 13667 H 1276.05 2.63481 2.98031 0
M  V30 13668 H 1272.79 5.60246 3.403 0
M  V30 13669 H 1272.31 4.15792 4.32293 0
M  V30 13670 H 1273.99 4.74789 4.39528 0
M  V30 13671 N 1274.12 -1.03182 1.19127 0
M  V30 13672 C 1275.35 -1.80165 1.01726 0
M  V30 13673 C 1275.77 -1.83742 -0.434095 0
M  V30 13674 O 1275.12 -1.27932 -1.30152 0
M  V30 13675 C 1275.17 -3.25354 1.57566 0
M  V30 13676 O 1274.89 -3.22042 2.9702 0
M  V30 13677 C 1276.4 -4.18948 1.44906 0
M  V30 13678 H 1273.62 -0.567078 0.358698 0
M  V30 13679 H 1276.16 -1.29982 1.57877 0
M  V30 13680 H 1274.31 -3.72738 1.0557 0
M  V30 13681 H 1274.73 -4.13061 3.23235 0
M  V30 13682 H 1276.2 -5.18723 1.88762 0
M  V30 13683 H 1276.68 -4.37383 0.399125 0
M  V30 13684 H 1277.29 -3.77435 1.96018 0
M  V30 13685 N 1275.6 -0.99472 -1.22242 0
M  V30 13686 C 1276.51 -0.555502 -2.27928 0
M  V30 13687 C 1277.53 0.396584 -1.6942 0
M  V30 13688 O 1278.7 0.262965 -1.99676 0
M  V30 13689 C 1275.77 0.121121 -3.46488 0
M  V30 13690 C 1274.83 -0.874155 -4.20306 0
M  V30 13691 C 1274.06 -0.229726 -5.33205 0
M  V30 13692 O 1274.28 0.975935 -5.61989 0
M  V30 13693 O 1273.22 -0.935501 -5.94586 0
M  V30 13694 H 1277.04 -1.4348 -2.6767 0
M  V30 13695 H 1274.63 -0.763061 -1.28444 0
M  V30 13696 H 1276.51 0.500043 -4.18423 0
M  V30 13697 H 1275.19 0.974959 -3.08668 0
M  V30 13698 H 1274.09 -1.30404 -3.50636 0
M  V30 13699 H 1275.43 -1.69725 -4.62011 0
M  V30 13700 N 1277.08 1.37613 -0.768148 0
M  V30 13701 C 1278.03 2.30311 -0.150176 0
M  V30 13702 C 1279 1.50918 0.69376 0
M  V30 13703 O 1280.18 1.795 0.64687 0
M  V30 13704 C 1277.32 3.37382 0.72576 0
M  V30 13705 C 1276.43 4.31791 -0.13439 0
M  V30 13706 C 1275.57 5.25937 0.745915 0
M  V30 13707 C 1274.61 6.11988 -0.116988 0
M  V30 13708 N 1273.74 6.98387 0.721091 0
M  V30 13709 H 1278.58 2.82579 -0.946212 0
M  V30 13710 H 1276.12 1.3911 -0.478217 0
M  V30 13711 H 1278.08 3.98084 1.24839 0
M  V30 13712 H 1276.71 2.86488 1.48743 0
M  V30 13713 H 1275.76 3.72426 -0.774793 0
M  V30 13714 H 1277.07 4.9234 -0.800163 0
M  V30 13715 H 1276.23 5.91826 1.33516 0
M  V30 13716 H 1274.97 4.6579 1.44538 0
M  V30 13717 H 1273.97 5.45081 -0.7188 0
M  V30 13718 H 1275.2 6.74207 -0.813732 0
M  V30 13719 H 1273.14 6.40772 1.40524 0
M  V30 13720 H 1273.06 7.55916 0.112536 0
M  V30 13721 H 1274.33 7.6867 1.29485 0
M  V30 13722 N 1278.56 0.518393 1.4883 0
M  V30 13723 C 1279.78 -0.0183131 2.07392 0
M  V30 13724 C 1280.21 -1.28468 1.37396 0
M  V30 13725 O 1279.56 -1.75975 0.436177 0
M  V30 13726 C 1279.61 -0.237211 3.59819 0
M  V30 13727 O 1278.72 -1.30835 3.91096 0
M  V30 13728 H 1278.06 0.0339621 0.663131 0
M  V30 13729 H 1280.59 0.722993 1.914 0
M  V30 13730 H 1280.6 -0.463424 4.0536 0
M  V30 13731 H 1279.27 0.687925 4.10171 0
M  V30 13732 H 1277.85 -1.06571 3.57347 0
M  V30 13733 N 1280.03 -1.55556 0.252993 0
M  V30 13734 C 1281.31 -1.91022 -0.420696 0
M  V30 13735 C 1281.69 -1.17452 -1.75409 0
M  V30 13736 O 1281.04 -0.294 -2.26601 0
M  V30 13737 C 1281.25 -3.441 -0.582787 0
M  V30 13738 C 1282.6 -4.15468 -0.875873 0
M  V30 13739 O 1283.62 -3.49872 -0.668425 0
M  V30 13740 O 1282.48 -5.31508 -1.27128 0
M  V30 13741 H 1279.57 -0.7953 -0.226776 0
M  V30 13742 H 1282.12 -1.67072 0.297511 0
M  V30 13743 H 1280.89 -3.89673 0.356474 0
M  V30 13744 H 1280.52 -3.73933 -1.3513 0
M  V30 13745 N 1281.51 0.0200419 -1.57587 0
M  V30 13746 C 1282.76 0.707627 -1.89307 0
M  V30 13747 C 1283.08 1.7541 -0.851831 0
M  V30 13748 O 1282.35 1.95571 0.113404 0
M  V30 13749 H 1280.93 0.264349 -0.698662 0
M  V30 13750 H 1283.59 -0.0161428 -1.94893 0
M  V30 13751 H 1282.69 1.19152 -2.8846 0
M  V30 13752 N 1282.99 1.54862 0.292472 0
M  V30 13753 C 1284.41 1.46267 0.638611 0
M  V30 13754 C 1284.61 0.660824 1.90356 0
M  V30 13755 O 1283.66 0.171909 2.51914 0
M  V30 13756 C 1284.98 2.90309 0.783675 0
M  V30 13757 C 1286.52 3.00404 0.879004 0
M  V30 13758 C 1287 4.4566 1.056 0
M  V30 13759 N 1288.49 4.49406 1.122 0
M  V30 13760 C 1289.22 5.5899 1.2774 0
M  V30 13761 N 1288.72 6.78482 1.40123 0
M  V30 13762 N 1290.51 5.46695 1.30696 0
M  V30 13763 H 1282.66 2.0546 -0.538521 0
M  V30 13764 H 1284.93 0.930879 -0.179354 0
M  V30 13765 H 1284.63 3.5162 -0.0750437 0
M  V30 13766 H 1284.51 3.38215 1.67004 0
M  V30 13767 H 1286.89 2.39201 1.7282 0
M  V30 13768 H 1286.98 2.55781 -0.0315624 0
M  V30 13769 H 1286.62 5.07459 0.211535 0
M  V30 13770 H 1286.55 4.87921 1.98092 0
M  V30 13771 H 1289.04 3.63322 1.03948 0
M  V30 13772 H 1289.35 7.57752 1.5176 0
M  V30 13773 H 1287.7 6.81331 1.37163 0
M  V30 13774 H 1290.89 4.52288 1.20638 0
M  V30 13775 H 1291.06 6.32146 1.42463 0
M  V30 13776 N 1284.47 -0.556076 1.47464 0
M  V30 13777 C 1285.42 -1.66304 1.60036 0
M  V30 13778 C 1286.39 -1.60074 0.443348 0
M  V30 13779 O 1287.57 -1.7889 0.663545 0
M  V30 13780 C 1284.71 -3.04624 1.62167 0
M  V30 13781 C 1283.82 -3.21283 2.88793 0
M  V30 13782 C 1282.96 -4.50008 2.82252 0
M  V30 13783 C 1282 -4.60103 4.03698 0
M  V30 13784 N 1281.13 -5.80184 3.95387 0
M  V30 13785 H 1285.97 -1.54897 2.5458 0
M  V30 13786 H 1283.51 -0.754533 1.26274 0
M  V30 13787 H 1285.47 -3.84721 1.61386 0
M  V30 13788 H 1284.1 -3.14865 0.711348 0
M  V30 13789 H 1283.15 -2.34611 2.99436 0
M  V30 13790 H 1284.46 -3.24607 3.78724 0
M  V30 13791 H 1283.62 -5.38366 2.79726 0
M  V30 13792 H 1282.36 -4.49165 1.90005 0
M  V30 13793 H 1281.36 -3.70157 4.06527 0
M  V30 13794 H 1282.59 -4.62704 4.97073 0
M  V30 13795 H 1280.53 -5.80288 3.05944 0
M  V30 13796 H 1280.45 -5.8489 4.78998 0
M  V30 13797 H 1281.72 -6.709 3.96879 0
M  V30 13798 N 1285.95 -1.35615 -0.802897 0
M  V30 13799 C 1286.91 -1.28705 -1.89651 0
M  V30 13800 C 1287.91 -0.197681 -1.5958 0
M  V30 13801 O 1289.1 -0.451618 -1.68244 0
M  V30 13802 C 1286.23 -0.991941 -3.26149 0
M  V30 13803 H 1287.43 -2.25951 -1.97196 0
M  V30 13804 H 1284.98 -1.20192 -0.999179 0
M  V30 13805 H 1285.71 -0.0235051 -3.24291 0
M  V30 13806 H 1285.5 -1.78013 -3.49362 0
M  V30 13807 H 1286.99 -0.969298 -4.06195 0
M  V30 13808 N 1287.43 1.02549 -1.19673 0
M  V30 13809 C 1288.39 2.09064 -0.939407 0
M  V30 13810 C 1289.39 1.60593 0.0814837 0
M  V30 13811 O 1290.58 1.73521 -0.153626 0
M  V30 13812 C 1287.71 3.38395 -0.412513 0
M  V30 13813 H 1288.9 2.33325 -1.88413 0
M  V30 13814 H 1286.46 1.19211 -1.01086 0
M  V30 13815 H 1287.19 3.19805 0.538094 0
M  V30 13816 H 1286.98 3.74898 -1.14863 0
M  V30 13817 H 1288.47 4.16841 -0.251678 0
M  V30 13818 N 1288.9 1.00119 1.21713 0
M  V30 13819 C 1289.85 0.529464 2.21767 0
M  V30 13820 C 1290.84 -0.406858 1.55671 0
M  V30 13821 O 1292.03 -0.232329 1.75469 0
M  V30 13822 C 1289.16 -0.146336 3.42988 0
M  V30 13823 C 1288.24 0.81078 4.16278 0
M  V30 13824 N 1288.64 1.96204 4.66195 0
M  V30 13825 C 1286.93 0.628371 4.41551 0
M  V30 13826 C 1287.63 2.56346 5.2217 0
M  V30 13827 N 1286.61 1.8454 5.11318 0
M  V30 13828 H 1290.41 1.40738 2.58012 0
M  V30 13829 H 1287.93 0.864518 1.37477 0
M  V30 13830 H 1289.92 -0.501726 4.1387 0
M  V30 13831 H 1288.58 -1.02029 3.08254 0
M  V30 13832 H 1289.59 2.34255 4.61893 0
M  V30 13833 H 1286.27 -0.198819 4.17026 0
M  V30 13834 H 1287.66 3.53688 5.71274 0
M  V30 13835 N 1290.38 -1.37203 0.775435 0
M  V30 13836 C 1291.29 -2.34019 0.165062 0
M  V30 13837 C 1292.31 -1.6036 -0.675316 0
M  V30 13838 O 1293.48 -1.9243 -0.594375 0
M  V30 13839 C 1290.55 -3.3954 -0.700957 0
M  V30 13840 C 1289.61 -4.29015 0.156304 0
M  V30 13841 C 1288.84 -5.29497 -0.668476 0
M  V30 13842 O 1289.07 -5.37636 -1.90535 0
M  V30 13843 O 1288 -6.01852 -0.0757351 0
M  V30 13844 H 1291.83 -2.87955 0.965184 0
M  V30 13845 H 1289.41 -1.39429 0.536654 0
M  V30 13846 H 1291.29 -4.04094 -1.19524 0
M  V30 13847 H 1289.97 -2.87926 -1.4792 0
M  V30 13848 H 1288.87 -3.67549 0.69703 0
M  V30 13849 H 1290.21 -4.83944 0.897725 0
M  V30 13850 N 1291.86 -0.526279 -1.48553 0
M  V30 13851 C 1292.81 0.238513 -2.29564 0
M  V30 13852 C 1293.78 0.937222 -1.37133 0
M  V30 13853 O 1294.96 0.93897 -1.66096 0
M  V30 13854 C 1292.1 1.28173 -3.20415 0
M  V30 13855 C 1291.21 0.592244 -4.27921 0
M  V30 13856 C 1290.35 1.61808 -5.05956 0
M  V30 13857 C 1289.39 0.911846 -6.0527 0
M  V30 13858 N 1288.53 1.88305 -6.76377 0
M  V30 13859 H 1293.37 -0.458502 -2.94452 0
M  V30 13860 H 1290.9 -0.237948 -1.45163 0
M  V30 13861 H 1292.86 1.89883 -3.71484 0
M  V30 13862 H 1291.49 1.94718 -2.57458 0
M  V30 13863 H 1290.54 -0.138714 -3.80147 0
M  V30 13864 H 1291.85 0.0375427 -4.98786 0
M  V30 13865 H 1291.01 2.30956 -5.61021 0
M  V30 13866 H 1289.75 2.20667 -4.34922 0
M  V30 13867 H 1288.75 0.206273 -5.49413 0
M  V30 13868 H 1289.98 0.329415 -6.78301 0
M  V30 13869 H 1287.92 2.46079 -6.08096 0
M  V30 13870 H 1287.84 1.37969 -7.43304 0
M  V30 13871 H 1289.11 2.56663 -7.36033 0
M  V30 13872 N 1293.34 1.5542 -0.261239 0
M  V30 13873 C 1294.27 2.19334 0.665214 0
M  V30 13874 C 1295.28 1.17388 1.128 0
M  V30 13875 O 1296.47 1.44183 1.0523 0
M  V30 13876 C 1293.57 2.79425 1.91768 0
M  V30 13877 C 1292.74 4.06929 1.60399 0
M  V30 13878 C 1291.8 4.51199 2.70751 0
M  V30 13879 O 1290.83 5.17272 2.37526 0
M  V30 13880 N 1292.03 4.20179 4.00537 0
M  V30 13881 H 1294.8 2.99467 0.118262 0
M  V30 13882 H 1292.36 1.61693 -0.0817727 0
M  V30 13883 H 1294.35 3.05992 2.64861 0
M  V30 13884 H 1292.92 2.03366 2.37405 0
M  V30 13885 H 1292.14 3.87798 0.707559 0
M  V30 13886 H 1293.43 4.9003 1.36924 0
M  V30 13887 H 1292.83 3.67164 4.30357 0
M  V30 13888 H 1291.38 4.51549 4.7005 0
M  V30 13889 N 1294.82 -0.0116844 1.57596 0
M  V30 13890 C 1295.77 -1.01509 2.04157 0
M  V30 13891 C 1296.75 -1.31011 0.934076 0
M  V30 13892 O 1297.94 -1.30305 1.1979 0
M  V30 13893 C 1295.07 -2.31081 2.53883 0
M  V30 13894 C 1294.16 -2.04594 3.71486 0
M  V30 13895 N 1294.55 -1.48224 4.83594 0
M  V30 13896 C 1292.85 -2.34795 3.79193 0
M  V30 13897 C 1293.55 -1.37941 5.65108 0
M  V30 13898 N 1292.52 -1.861 5.10752 0
M  V30 13899 H 1296.32 -0.573556 2.88249 0
M  V30 13900 H 1293.84 -0.217632 1.60935 0
M  V30 13901 H 1295.84 -3.03793 2.85509 0
M  V30 13902 H 1294.5 -2.75897 1.71204 0
M  V30 13903 H 1295.51 -1.16261 5.04682 0
M  V30 13904 H 1292.18 -2.82566 3.07348 0
M  V30 13905 H 1293.57 -0.946997 6.65193 0
M  V30 13906 N 1296.29 -1.55015 -0.284256 0
M  V30 13907 C 1297.24 -1.87898 -1.37102 0
M  V30 13908 C 1298.24 -0.754231 -1.51683 0
M  V30 13909 O 1299.44 -0.93844 -1.53601 0
M  V30 13910 H 1295.82 -0.596208 -0.458301 0
M  V30 13911 H 1297.79 -2.78704 -1.06613 0
M  V30 13912 C 1296.54 -2.15764 -2.72656 0
M  V30 13913 H 1295.86 -3.01792 -2.62224 0
M  V30 13914 H 1297.3 -2.42701 -3.47667 0
M  V30 13915 C 1295.76 -0.961561 -3.22886 0
M  V30 13916 O 1296.29 -0.190489 -4.01248 0
M  V30 13917 N 1294.49 -0.762338 -2.80422 0
M  V30 13918 H 1294.04 -1.39104 -2.16813 0
M  V30 13919 H 1294 0.0363482 -3.14379 0
M  V30 13920 N 1297.77 0.548248 -1.47757 0
M  V30 13921 C 1299.02 1.30139 -1.54099 0
M  V30 13922 C 1299.33 1.9445 -0.2118 0
M  V30 13923 O 1300.54 2.71067 -0.153302 0
M  V30 13924 C 1299 2.36039 -2.71687 0
M  V30 13925 C 1298.6 1.77879 -4.11173 0
M  V30 13926 C 1300.35 3.12478 -2.87329 0
M  V30 13927 C 1298.25 2.81611 -5.20047 0
M  V30 13928 H 1297.18 0.489364 -0.573619 0
M  V30 13929 H 1299.84 0.581237 -1.74051 0
M  V30 13930 H 1298.22 3.11008 -2.45132 0
M  V30 13931 H 1299.39 1.09221 -4.47669 0
M  V30 13932 H 1297.71 1.13994 -4.00493 0
M  V30 13933 H 1300.3 3.89958 -3.65837 0
M  V30 13934 H 1300.65 3.67218 -1.96103 0
M  V30 13935 H 1301.18 2.4462 -3.13697 0
M  V30 13936 H 1297.92 2.31714 -6.13179 0
M  V30 13937 H 1297.44 3.48652 -4.88059 0
M  V30 13938 H 1299.12 3.44938 -5.47382 0
M  V30 13939 N 1299.25 1.36039 0.795694 0
M  V30 13940 C 1300.5 1.29919 1.5533 0
M  V30 13941 C 1300.82 -0.123325 1.94109 0
M  V30 13942 O 1300.08 -1.09115 1.62457 0
M  V30 13943 C 1300.38 2.16166 2.84617 0
M  V30 13944 C 1300.04 3.64805 2.65006 0
M  V30 13945 C 1298.71 4.05319 2.59365 0
M  V30 13946 C 1301.06 4.59073 2.46781 0
M  V30 13947 C 1298.39 5.38251 2.33458 0
M  V30 13948 C 1300.74 5.92216 2.22402 0
M  V30 13949 C 1299.4 6.31862 2.1519 0
M  V30 13950 H 1298.67 0.475408 0.568391 0
M  V30 13951 H 1301.32 1.68035 0.918512 0
M  V30 13952 H 1299.62 1.70967 3.5253 0
M  V30 13953 H 1301.32 2.0876 3.42375 0
M  V30 13954 H 1297.91 3.32662 2.70248 0
M  V30 13955 H 1302.1 4.28651 2.50144 0
M  V30 13956 H 1297.35 5.67957 2.26352 0
M  V30 13957 H 1301.53 6.64833 2.07293 0
M  V30 13958 H 1299.15 7.34797 1.94878 0
M  V30 13959 N 1300.73 -1.01913 1.20215 0
M  V30 13960 C 1301.66 -2.12282 0.97256 0
M  V30 13961 C 1302.64 -1.6982 -0.0975709 0
M  V30 13962 O 1303.82 -1.94109 0.0594307 0
M  V30 13963 C 1300.95 -3.43369 0.521085 0
M  V30 13964 C 1299.91 -3.99559 1.53417 0
M  V30 13965 C 1299.23 -5.26383 0.93942 0
M  V30 13966 C 1300.53 -4.33241 2.91718 0
M  V30 13967 H 1302.23 -2.31746 1.89563 0
M  V30 13968 H 1299.77 -1.1137 0.912841 0
M  V30 13969 H 1301.73 -4.19963 0.347713 0
M  V30 13970 H 1300.45 -3.23655 -0.437605 0
M  V30 13971 H 1299.11 -3.25069 1.69486 0
M  V30 13972 H 1298.76 -5.02993 -0.0271236 0
M  V30 13973 H 1298.46 -5.64942 1.616 0
M  V30 13974 H 1299.98 -6.05635 0.777059 0
M  V30 13975 H 1301.4 -5.00734 2.79175 0
M  V30 13976 H 1299.79 -4.82907 3.56259 0
M  V30 13977 H 1300.86 -3.42118 3.43633 0
M  V30 13978 N 1302.21 -1.00763 -1.2118 0
M  V30 13979 C 1303.48 -0.607236 -1.85935 0
M  V30 13980 C 1303.86 0.915048 -1.90237 0
M  V30 13981 O 1303.21 1.80308 -1.40361 0
M  V30 13982 C 1303.42 -1.24466 -3.26051 0
M  V30 13983 C 1304.77 -1.35443 -4.02418 0
M  V30 13984 O 1305.79 -1.20018 -3.35372 0
M  V30 13985 O 1304.65 -1.60282 -5.22467 0
M  V30 13986 H 1301.75 -0.208338 -0.800328 0
M  V30 13987 H 1304.29 -1.10444 -1.28842 0
M  V30 13988 H 1303.06 -2.28524 -3.17635 0
M  V30 13989 H 1302.69 -0.733966 -3.90767 0
M  V30 13990 N 1303.68 1.3679 -0.7827 0
M  V30 13991 C 1304.62 2.28805 -0.13451 0
M  V30 13992 C 1305.63 1.49159 0.652338 0
M  V30 13993 O 1306.82 1.71682 0.488626 0
M  V30 13994 C 1303.92 3.28508 0.832802 0
M  V30 13995 C 1303.09 4.37291 0.0974435 0
M  V30 13996 C 1302.15 5.16999 0.979715 0
M  V30 13997 O 1301.18 5.67501 0.439439 0
M  V30 13998 N 1302.38 5.32786 2.30477 0
M  V30 13999 H 1305.14 2.85072 -0.924873 0
M  V30 14000 H 1302.7 1.48884 -0.636012 0
M  V30 14001 H 1304.7 3.78718 1.42671 0
M  V30 14002 H 1303.27 2.7293 1.52408 0
M  V30 14003 H 1302.49 3.88335 -0.677483 0
M  V30 14004 H 1303.77 5.07143 -0.410259 0
M  V30 14005 H 1303.17 4.93358 2.76793 0
M  V30 14006 H 1301.73 5.86264 2.84848 0
M  V30 14007 N 1305.16 0.53415 1.48272 0
M  V30 14008 C 1306.1 -0.273689 2.26553 0
M  V30 14009 C 1307.07 -0.941085 1.32598 0
M  V30 14010 O 1308.26 -0.964653 1.61947 0
M  V30 14011 C 1305.38 -1.38796 3.08955 0
M  V30 14012 C 1304.43 -0.831533 4.18315 0
M  V30 14013 S 1305.26 0.303875 5.34637 0
M  V30 14014 C 1306.42 -0.812767 6.206 0
M  V30 14015 H 1306.65 0.390639 2.94722 0
M  V30 14016 H 1304.19 0.320014 1.51047 0
M  V30 14017 H 1306.14 -2.02622 3.57008 0
M  V30 14018 H 1304.8 -2.02402 2.40192 0
M  V30 14019 H 1304 -1.66758 4.75613 0
M  V30 14020 H 1303.6 -0.269881 3.73025 0
M  V30 14021 H 1305.89 -1.71043 6.55554 0
M  V30 14022 H 1306.83 -0.27767 7.07555 0
M  V30 14023 H 1307.24 -1.09505 5.53777 0
M  V30 14024 N 1306.64 -1.55279 0.269478 0
M  V30 14025 C 1307.87 -2.03876 -0.352418 0
M  V30 14026 C 1308.28 -1.14804 -1.49885 0
M  V30 14027 O 1307.64 -0.166989 -1.81734 0
M  V30 14028 C 1307.69 -3.51634 -0.838799 0
M  V30 14029 O 1307.41 -4.37316 0.261972 0
M  V30 14030 C 1308.91 -4.16094 -1.52909 0
M  V30 14031 H 1306.13 -0.66608 -0.0811043 0
M  V30 14032 H 1308.68 -2.00551 0.399929 0
M  V30 14033 H 1306.83 -3.55421 -1.54125 0
M  V30 14034 H 1307.25 -5.24383 -0.111013 0
M  V30 14035 H 1308.72 -5.21102 -1.82089 0
M  V30 14036 H 1309.2 -3.63928 -2.45872 0
M  V30 14037 H 1309.8 -4.16293 -0.87063 0
M  V30 14038 N 1308.12 0.00332656 -1.576 0
M  V30 14039 C 1309.37 0.688044 -1.89602 0
M  V30 14040 C 1309.68 1.75121 -0.871316 0
M  V30 14041 O 1310.89 2.49032 -1.08144 0
M  V30 14042 C 1309.34 1.27494 -3.36561 0
M  V30 14043 C 1308.95 0.246771 -4.4732 0
M  V30 14044 C 1310.69 1.93804 -3.77677 0
M  V30 14045 C 1308.6 0.843471 -5.85354 0
M  V30 14046 H 1307.53 0.260747 -0.707479 0
M  V30 14047 H 1310.18 -0.0566727 -1.83412 0
M  V30 14048 H 1308.56 2.07022 -3.37577 0
M  V30 14049 H 1309.74 -0.523668 -4.57815 0
M  V30 14050 H 1308.05 -0.3157 -4.15202 0
M  V30 14051 H 1310.65 2.39347 -4.78139 0
M  V30 14052 H 1310.99 2.7672 -3.11017 0
M  V30 14053 H 1311.53 1.21015 -3.78946 0
M  V30 14054 H 1308.27 0.0531655 -6.55478 0
M  V30 14055 H 1307.79 1.58315 -5.7853 0
M  V30 14056 H 1309.46 1.34311 -6.32906 0
M  V30 14057 N 1309.6 1.55164 0.276031 0
M  V30 14058 C 1310.87 1.66338 1.02913 0
M  V30 14059 C 1311.25 0.527876 2.04393 0
M  V30 14060 O 1310.6 -0.472437 2.23563 0
M  V30 14061 C 1310.81 3.05427 1.68865 0
M  V30 14062 C 1312.16 3.63075 2.2014 0
M  V30 14063 O 1313.18 3.0804 1.78857 0
M  V30 14064 O 1312.04 4.59492 2.95854 0
M  V30 14065 H 1309.14 0.675446 0.477181 0
M  V30 14066 H 1311.68 1.67504 0.272129 0
M  V30 14067 H 1310.45 3.79514 0.953125 0
M  V30 14068 H 1310.08 3.08147 2.5126 0
M  V30 14069 N 1311.07 -0.540404 1.48045 0
M  V30 14070 C 1311.98 -1.67308 1.64455 0
M  V30 14071 C 1313 -1.65823 0.527152 0
M  V30 14072 O 1314.18 -1.84964 0.796881 0
M  V30 14073 C 1311.24 -3.03792 1.67068 0
M  V30 14074 C 1310.3 -3.16213 2.90358 0
M  V30 14075 C 1309.54 -4.46187 2.92837 0
M  V30 14076 O 1309.76 -5.32662 2.04029 0
M  V30 14077 O 1308.69 -4.62754 3.84892 0
M  V30 14078 H 1312.52 -1.56403 2.6033 0
M  V30 14079 H 1310.1 -0.712323 1.31325 0
M  V30 14080 H 1311.99 -3.84982 1.71368 0
M  V30 14081 H 1310.66 -3.15043 0.74363 0
M  V30 14082 H 1309.57 -2.34357 2.91595 0
M  V30 14083 H 1310.9 -3.09874 3.82412 0
M  V30 14084 N 1312.55 -1.36459 -0.788468 0
M  V30 14085 C 1313.83 -1.21289 -1.53455 0
M  V30 14086 C 1314.21 0.200549 -2.10145 0
M  V30 14087 O 1313.56 1.20629 -1.94064 0
M  V30 14088 C 1313.77 -2.29562 -2.62873 0
M  V30 14089 C 1315.12 -2.66277 -3.30729 0
M  V30 14090 O 1316.14 -2.28612 -2.73157 0
M  V30 14091 O 1315 -3.31106 -4.34777 0
M  V30 14092 H 1312.09 -0.472306 -0.678864 0
M  V30 14093 H 1314.64 -1.48192 -0.826869 0
M  V30 14094 H 1313.41 -3.24286 -2.18984 0
M  V30 14095 H 1313.03 -2.0403 -3.41259 0
M  V30 14096 N 1314.03 1.01274 -1.20754 0
M  V30 14097 C 1314.98 2.09894 -0.959852 0
M  V30 14098 C 1315.95 1.65726 0.111351 0
M  V30 14099 O 1317.13 1.90769 -0.0341721 0
M  V30 14100 C 1314.27 3.41126 -0.52223 0
M  V30 14101 C 1313.39 3.98749 -1.66202 0
M  V30 14102 C 1312.52 5.18057 -1.17432 0
M  V30 14103 C 1311.56 5.67772 -2.28694 0
M  V30 14104 N 1310.7 6.78338 -1.81114 0
M  V30 14105 H 1315.54 2.30416 -1.88977 0
M  V30 14106 H 1313.07 1.12989 -0.941906 0
M  V30 14107 H 1315.03 4.16451 -0.249799 0
M  V30 14108 H 1313.66 3.20665 0.370688 0
M  V30 14109 H 1312.71 3.20483 -2.04927 0
M  V30 14110 H 1314.03 4.31646 -2.49967 0
M  V30 14111 H 1313.18 6.00601 -0.858086 0
M  V30 14112 H 1311.92 4.86735 -0.306614 0
M  V30 14113 H 1310.92 4.8383 -2.61129 0
M  V30 14114 H 1312.15 6.01127 -3.15948 0
M  V30 14115 H 1310.09 6.48837 -0.966761 0
M  V30 14116 H 1310.01 7.10448 -2.58457 0
M  V30 14117 H 1311.28 7.64437 -1.52502 0
M  V30 14118 N 1315.51 1.01404 1.20644 0
M  V30 14119 C 1316.44 0.602465 2.25594 0
M  V30 14120 C 1317.42 -0.381216 1.65773 0
M  V30 14121 O 1318.61 -0.267209 1.92353 0
M  V30 14122 C 1315.74 -0.0626245 3.47244 0
M  V30 14123 C 1314.69 0.841776 4.1964 0
M  V30 14124 C 1314.02 0.0426002 5.34683 0
M  V30 14125 C 1315.32 2.14864 4.76058 0
M  V30 14126 H 1317.01 1.47977 2.60275 0
M  V30 14127 H 1314.56 0.712966 1.25111 0
M  V30 14128 H 1316.51 -0.362095 4.19841 0
M  V30 14129 H 1315.23 -0.974627 3.11719 0
M  V30 14130 H 1313.89 1.12521 3.48905 0
M  V30 14131 H 1313.54 -0.870973 4.95402 0
M  V30 14132 H 1313.24 0.644866 5.84051 0
M  V30 14133 H 1314.76 -0.250476 6.10086 0
M  V30 14134 H 1316.18 1.9117 5.40488 0
M  V30 14135 H 1314.57 2.70153 5.35852 0
M  V30 14136 H 1315.64 2.81336 3.9494 0
M  V30 14137 N 1316.99 -1.36373 0.789944 0
M  V30 14138 C 1318.24 -1.98476 0.359165 0
M  V30 14139 C 1318.55 -1.634 -1.07517 0
M  V30 14140 O 1319.76 -2.18742 -1.60824 0
M  V30 14141 C 1318.21 -3.55011 0.591228 0
M  V30 14142 C 1317.82 -3.99011 2.03701 0
M  V30 14143 C 1319.56 -4.23903 0.224979 0
M  V30 14144 C 1317.47 -5.48325 2.2157 0
M  V30 14145 H 1316.4 -0.742612 0.130552 0
M  V30 14146 H 1319.05 -1.55664 0.971652 0
M  V30 14147 H 1317.43 -3.95895 -0.0909788 0
M  V30 14148 H 1318.61 -3.69324 2.75566 0
M  V30 14149 H 1316.92 -3.42957 2.36155 0
M  V30 14150 H 1319.52 -5.33638 0.336764 0
M  V30 14151 H 1319.86 -4.08004 -0.826964 0
M  V30 14152 H 1320.4 -3.88383 0.860443 0
M  V30 14153 H 1317.13 -5.69173 3.25149 0
M  V30 14154 H 1316.65 -5.79637 1.54211 0
M  V30 14155 H 1318.33 -6.14556 2.0231 0
M  V30 14156 N 1318.47 -0.542005 -1.47987 0
M  V30 14157 C 1319.43 0.203537 -2.28294 0
M  V30 14158 C 1320.43 0.856762 -1.36074 0
M  V30 14159 O 1321.62 0.71496 -1.58852 0
M  V30 14160 C 1318.75 1.29581 -3.15312 0
M  V30 14161 H 1319.94 -0.501701 -2.95674 0
M  V30 14162 H 1317.5 -0.298378 -1.53426 0
M  V30 14163 H 1318.23 2.03393 -2.5259 0
M  V30 14164 H 1318.02 0.832398 -3.83163 0
M  V30 14165 H 1319.51 1.81988 -3.75859 0
M  V30 14166 N 1319.94 1.55134 -0.277709 0
M  V30 14167 C 1320.88 2.20028 0.641913 0
M  V30 14168 C 1321.89 1.18578 1.11549 0
M  V30 14169 O 1323.08 1.45291 1.03695 0
M  V30 14170 C 1320.18 2.81443 1.88794 0
M  V30 14171 C 1319.35 4.08607 1.56074 0
M  V30 14172 C 1318.41 4.54045 2.6595 0
M  V30 14173 O 1317.44 5.19762 2.32026 0
M  V30 14174 N 1318.64 4.24403 3.96058 0
M  V30 14175 H 1321.4 2.99575 0.0864929 0
M  V30 14176 H 1318.96 1.61598 -0.0989178 0
M  V30 14177 H 1320.96 3.08784 2.616 0
M  V30 14178 H 1319.53 2.05873 2.35234 0
M  V30 14179 H 1318.75 3.88527 0.666388 0
M  V30 14180 H 1320.03 4.91455 1.31719 0
M  V30 14181 H 1319.43 3.71708 4.26439 0
M  V30 14182 H 1317.99 4.56509 4.65234 0
M  V30 14183 N 1321.42 0.00503138 1.57599 0
M  V30 14184 C 1322.37 -1.00294 2.09866 0
M  V30 14185 C 1323.36 -1.35267 1.01977 0
M  V30 14186 O 1324.57 -1.33772 1.20437 0
M  V30 14187 H 1320.94 -0.341112 0.670184 0
M  V30 14188 H 1322.92 -0.536595 2.93536 0
M  V30 14189 C 1321.66 -2.28432 2.62133 0
M  V30 14190 H 1320.99 -2.02391 3.44787 0
M  V30 14191 H 1322.43 -2.97227 3.02378 0
M  V30 14192 C 1320.89 -2.99758 1.53774 0
M  V30 14193 O 1321.42 -3.90939 0.923563 0
M  V30 14194 N 1319.62 -2.61671 1.26398 0
M  V30 14195 H 1319.17 -1.87605 1.76528 0
M  V30 14196 H 1319.13 -3.09707 0.541168 0
M  V30 14197 N 1322.9 -1.55308 -0.267798 0
M  V30 14198 C 1323.83 -1.91555 -1.33525 0
M  V30 14199 C 1324.81 -0.778001 -1.51265 0
M  V30 14200 O 1326 -1.03657 -1.64222 0
M  V30 14201 C 1323.13 -2.19201 -2.69385 0
M  V30 14202 C 1322.08 -3.3501 -2.66369 0
M  V30 14203 C 1321.41 -3.48148 -4.05829 0
M  V30 14204 C 1322.71 -4.71265 -2.25182 0
M  V30 14205 H 1324.4 -2.80965 -1.03437 0
M  V30 14206 H 1321.95 -1.35183 -0.496141 0
M  V30 14207 H 1323.9 -2.43146 -3.44177 0
M  V30 14208 H 1322.62 -1.26596 -3.01067 0
M  V30 14209 H 1321.28 -3.11041 -1.94034 0
M  V30 14210 H 1320.93 -2.53 -4.34741 0
M  V30 14211 H 1320.63 -4.26014 -4.04704 0
M  V30 14212 H 1322.15 -3.74391 -4.82352 0
M  V30 14213 H 1323.57 -4.94719 -2.89699 0
M  V30 14214 H 1321.96 -5.52084 -2.3521 0
M  V30 14215 H 1323.03 -4.69735 -1.20319 0
M  V30 14216 N 1324.38 0.532545 -1.4833 0
M  V30 14217 C 1325.29 1.66433 -1.65339 0
M  V30 14218 C 1326.3 1.65541 -0.535939 0
M  V30 14219 O 1327.48 1.84539 -0.806679 0
M  V30 14220 C 1324.54 3.02901 -1.68676 0
M  V30 14221 C 1323.61 3.14669 -2.92031 0
M  V30 14222 C 1322.84 4.44627 -2.95199 0
M  V30 14223 O 1323.06 5.31572 -2.06851 0
M  V30 14224 O 1322 4.60707 -3.87341 0
M  V30 14225 H 1325.82 1.5502 -2.61156 0
M  V30 14226 H 1323.41 0.705348 -1.31701 0
M  V30 14227 H 1325.29 3.84068 -1.73407 0
M  V30 14228 H 1323.96 3.14644 -0.760327 0
M  V30 14229 H 1322.87 2.32807 -2.92834 0
M  V30 14230 H 1324.2 3.07841 -3.8405 0
M  V30 14231 N 1325.86 1.36875 0.78122 0
M  V30 14232 C 1326.79 1.34559 1.9083 0
M  V30 14233 C 1327.77 0.215713 1.68727 0
M  V30 14234 O 1328.95 0.41462 1.89722 0
M  V30 14235 C 1326.08 1.14233 3.27976 0
M  V30 14236 C 1325.04 2.24132 3.64621 0
M  V30 14237 C 1324.36 1.8894 5.00206 0
M  V30 14238 C 1325.66 3.66266 3.72353 0
M  V30 14239 H 1327.36 2.28871 1.93025 0
M  V30 14240 H 1324.9 1.10171 0.927275 0
M  V30 14241 H 1326.85 1.11246 4.06451 0
M  V30 14242 H 1325.58 0.163747 3.26189 0
M  V30 14243 H 1324.24 2.26259 2.88448 0
M  V30 14244 H 1323.89 0.896351 4.94949 0
M  V30 14245 H 1323.59 2.62525 5.25694 0
M  V30 14246 H 1325.11 1.87523 5.81092 0
M  V30 14247 H 1326.52 3.66321 4.41001 0
M  V30 14248 H 1324.92 4.38825 4.09332 0
M  V30 14249 H 1325.99 4.00578 2.7325 0
M  V30 14250 N 1327.33 -1.00632 1.21289 0
M  V30 14251 C 1328.28 -2.11502 0.96798 0
M  V30 14252 C 1329.28 -1.6919 -0.0843024 0
M  V30 14253 O 1330.48 -1.79875 0.06697 0
M  V30 14254 H 1326.86 -0.691398 0.295759 0
M  V30 14255 H 1328.83 -2.29337 1.90911 0
M  V30 14256 C 1327.58 -3.43357 0.547818 0
M  V30 14257 H 1326.9 -3.76348 1.34915 0
M  V30 14258 H 1328.34 -4.21957 0.415759 0
M  V30 14259 C 1326.8 -3.28648 -0.741086 0
M  V30 14260 O 1327.33 -3.59267 -1.79695 0
M  V30 14261 N 1325.53 -2.81866 -0.707084 0
M  V30 14262 H 1325.08 -2.57149 0.152447 0
M  V30 14263 H 1325.04 -2.72406 -1.56979 0
M  V30 14264 N 1328.81 -1.02043 -1.20104 0
M  V30 14265 C 1329.72 -0.603724 -2.26699 0
M  V30 14266 C 1330.74 0.360558 -1.70223 0
M  V30 14267 O 1331.91 0.220552 -2.00189 0
M  V30 14268 C 1328.98 0.0475988 -3.46667 0
M  V30 14269 C 1328.04 -0.963111 -4.18357 0
M  V30 14270 C 1327.27 -0.342775 -5.32598 0
M  V30 14271 O 1327.5 0.856509 -5.63933 0
M  V30 14272 O 1326.43 -1.06141 -5.92467 0
M  V30 14273 H 1330.26 -1.49125 -2.64566 0
M  V30 14274 H 1327.84 -0.790134 -1.26796 0
M  V30 14275 H 1329.72 0.411177 -4.19389 0
M  V30 14276 H 1328.4 0.909266 -3.10667 0
M  V30 14277 H 1327.3 -1.37813 -3.47791 0
M  V30 14278 H 1328.64 -1.79487 -4.58307 0
M  V30 14279 N 1330.29 1.35952 -0.797165 0
M  V30 14280 C 1331.52 2.0328 -0.385316 0
M  V30 14281 C 1331.93 1.60095 1.00076 0
M  V30 14282 O 1331.29 0.794014 1.64322 0
M  V30 14283 C 1331.34 3.5871 -0.448284 0
M  V30 14284 O 1331.06 4.00323 -1.7797 0
M  V30 14285 C 1332.56 4.43291 -0.0280465 0
M  V30 14286 H 1329.78 0.652192 -0.157756 0
M  V30 14287 H 1332.33 1.73769 -1.07817 0
M  V30 14288 H 1330.48 3.86903 0.196224 0
M  V30 14289 H 1330.9 4.94941 -1.73592 0
M  V30 14290 H 1332.37 5.51862 -0.123234 0
M  V30 14291 H 1332.85 4.27059 1.02552 0
M  V30 14292 H 1333.45 4.20375 -0.645343 0
M  V30 14293 N 1331.77 0.549846 1.47697 0
M  V30 14294 C 1333.02 0.0209424 2.01689 0
M  V30 14295 C 1333.33 -1.33417 1.43036 0
M  V30 14296 O 1334.54 -1.95257 1.88646 0
M  V30 14297 C 1332.99 -0.0130171 3.59898 0
M  V30 14298 C 1332.6 1.3384 4.2754 0
M  V30 14299 C 1334.34 -0.489701 4.21666 0
M  V30 14300 C 1332.25 1.26395 5.77735 0
M  V30 14301 H 1331.18 0.00405885 0.753989 0
M  V30 14302 H 1333.83 0.696599 1.69764 0
M  V30 14303 H 1332.21 -0.754168 3.88752 0
M  V30 14304 H 1333.39 2.09668 4.10336 0
M  V30 14305 H 1331.7 1.75242 3.77729 0
M  V30 14306 H 1334.3 -0.563684 5.31721 0
M  V30 14307 H 1334.64 -1.50004 3.88336 0
M  V30 14308 H 1335.18 0.196366 3.97315 0
M  V30 14309 H 1331.92 2.25005 6.15673 0
M  V30 14310 H 1331.44 0.547353 5.97297 0
M  V30 14311 H 1333.11 0.962918 6.39794 0
M  V30 14312 N 1333.25 -1.54984 0.285932 0
M  V30 14313 C 1334.19 -2.2295 -0.596822 0
M  V30 14314 C 1335.16 -1.20674 -1.14136 0
M  V30 14315 O 1336.35 -1.49249 -1.18867 0
M  V30 14316 C 1333.49 -2.9625 -1.77002 0
M  V30 14317 C 1332.6 -4.13268 -1.25831 0
M  V30 14318 C 1331.74 -4.74187 -2.39417 0
M  V30 14319 C 1330.78 -5.83377 -1.85304 0
M  V30 14320 N 1329.91 -6.38313 -2.92405 0
M  V30 14321 H 1334.75 -2.97998 -0.0106104 0
M  V30 14322 H 1332.29 -1.47099 0.00653041 0
M  V30 14323 H 1334.25 -3.36971 -2.4598 0
M  V30 14324 H 1332.88 -2.23606 -2.3281 0
M  V30 14325 H 1331.93 -3.77593 -0.461278 0
M  V30 14326 H 1333.24 -4.91979 -0.822049 0
M  V30 14327 H 1332.4 -5.17683 -3.16369 0
M  V30 14328 H 1331.13 -3.94775 -2.86364 0
M  V30 14329 H 1330.14 -5.3932 -1.06835 0
M  V30 14330 H 1331.36 -6.64664 -1.3928 0
M  V30 14331 H 1329.31 -5.61791 -3.38713 0
M  V30 14332 H 1329.23 -7.12328 -2.53228 0
M  V30 14333 H 1330.5 -6.86468 -3.69299 0
M  V30 14334 N 1334.72 -0.0133892 -1.57594 0
M  V30 14335 C 1335.97 0.667896 -1.90321 0
M  V30 14336 C 1336.29 1.74187 -0.88984 0
M  V30 14337 O 1337.49 2.47871 -1.10779 0
M  V30 14338 C 1335.95 1.23917 -3.37894 0
M  V30 14339 C 1335.56 0.199313 -4.47556 0
M  V30 14340 C 1337.3 1.89788 -3.79712 0
M  V30 14341 C 1335.21 0.781339 -5.86216 0
M  V30 14342 H 1334.14 0.253229 -0.710205 0
M  V30 14343 H 1336.79 -0.0761229 -1.83342 0
M  V30 14344 H 1335.17 2.03429 -3.39754 0
M  V30 14345 H 1336.34 -0.572196 -4.57234 0
M  V30 14346 H 1334.66 -0.359719 -4.14843 0
M  V30 14347 H 1337.26 2.34262 -4.80651 0
M  V30 14348 H 1337.6 2.73406 -3.13934 0
M  V30 14349 H 1338.13 1.16989 -3.80208 0
M  V30 14350 H 1334.87 -0.0163598 -6.55498 0
M  V30 14351 H 1334.39 1.5217 -5.80176 0
M  V30 14352 H 1336.07 1.2759 -6.34295 0
M  V30 14353 N 1336.2 1.55448 0.259558 0
M  V30 14354 C 1337.45 1.76337 0.987396 0
M  V30 14355 C 1337.77 0.57505 1.86328 0
M  V30 14356 O 1337.04 -0.409621 1.9157 0
M  V30 14357 H 1335.62 0.650312 0.367565 0
M  V30 14358 H 1338.28 1.9287 0.280551 0
M  V30 14359 H 1337.38 2.66975 1.61651 0
M  V30 14360 N 1337.68 -0.524672 1.4861 0
M  V30 14361 C 1338.61 -1.63782 1.66426 0
M  V30 14362 C 1339.59 -1.62177 0.513077 0
M  V30 14363 O 1340.78 -1.7929 0.74623 0
M  V30 14364 C 1337.91 -3.02354 1.70877 0
M  V30 14365 C 1336.86 -3.18819 2.85549 0
M  V30 14366 C 1336.19 -4.58506 2.75094 0
M  V30 14367 C 1337.49 -3.01086 4.26784 0
M  V30 14368 H 1339.18 -1.49127 2.59618 0
M  V30 14369 H 1336.73 -0.715997 1.24938 0
M  V30 14370 H 1338.68 -3.80105 1.81929 0
M  V30 14371 H 1337.4 -3.18044 0.742682 0
M  V30 14372 H 1336.06 -2.43487 2.74061 0
M  V30 14373 H 1335.71 -4.71038 1.76443 0
M  V30 14374 H 1335.41 -4.70466 3.52044 0
M  V30 14375 H 1336.93 -5.38348 2.88121 0
M  V30 14376 H 1338.35 -3.68624 4.39077 0
M  V30 14377 H 1336.75 -3.24536 5.04774 0
M  V30 14378 H 1337.82 -1.97454 4.42877 0
M  V30 14379 N 1339.16 -1.37287 -0.77395 0
M  V30 14380 C 1340.39 -1.35563 -1.56302 0
M  V30 14381 C 1340.8 0.0595356 -1.88706 0
M  V30 14382 O 1340.16 1.02072 -1.51286 0
M  V30 14383 C 1340.21 -2.19195 -2.87464 0
M  V30 14384 O 1339.93 -3.55197 -2.5645 0
M  V30 14385 C 1341.43 -2.25425 -3.81704 0
M  V30 14386 H 1338.65 -0.464431 -0.484298 0
M  V30 14387 H 1341.2 -1.80597 -0.959425 0
M  V30 14388 H 1339.35 -1.77676 -3.44253 0
M  V30 14389 H 1339.76 -3.99011 -3.40427 0
M  V30 14390 H 1341.24 -2.8827 -4.70749 0
M  V30 14391 H 1341.72 -1.26205 -4.20677 0
M  V30 14392 H 1342.32 -2.67247 -3.30846 0
M  V30 14393 N 1340.64 0.999871 -1.21821 0
M  V30 14394 C 1341.58 2.08864 -0.98206 0
M  V30 14395 C 1342.55 1.65835 0.0937677 0
M  V30 14396 O 1343.74 1.90722 -0.0544038 0
M  V30 14397 C 1340.88 3.40553 -0.558382 0
M  V30 14398 C 1339.99 3.96964 -1.70422 0
M  V30 14399 C 1339.13 5.16782 -1.2292 0
M  V30 14400 C 1338.17 5.65315 -2.34703 0
M  V30 14401 N 1337.3 6.76379 -1.88299 0
M  V30 14402 H 1342.14 2.28399 -1.9141 0
M  V30 14403 H 1339.68 1.11984 -0.953837 0
M  V30 14404 H 1341.64 4.16163 -0.293955 0
M  V30 14405 H 1340.27 3.2104 0.336656 0
M  V30 14406 H 1339.32 3.18291 -2.08315 0
M  V30 14407 H 1340.63 4.2897 -2.54531 0
M  V30 14408 H 1339.79 5.99657 -0.92174 0
M  V30 14409 H 1338.52 4.86383 -0.358222 0
M  V30 14410 H 1337.53 4.81033 -2.66246 0
M  V30 14411 H 1338.75 5.97742 -3.22306 0
M  V30 14412 H 1336.7 6.47775 -1.03552 0
M  V30 14413 H 1336.62 7.07666 -2.65978 0
M  V30 14414 H 1337.89 7.62776 -1.60601 0
M  V30 14415 N 1342.11 1.02678 1.19562 0
M  V30 14416 C 1343.04 0.626359 2.24942 0
M  V30 14417 C 1344.03 -0.363612 1.66168 0
M  V30 14418 O 1345.21 -0.246793 1.92625 0
M  V30 14419 C 1342.34 -0.0257912 3.4729 0
M  V30 14420 C 1341.29 0.886237 4.18724 0
M  V30 14421 C 1340.62 0.0993081 5.34608 0
M  V30 14422 C 1341.92 2.19901 4.73752 0
M  V30 14423 H 1343.61 1.50729 2.58691 0
M  V30 14424 H 1341.16 0.726195 1.24348 0
M  V30 14425 H 1343.11 -0.317545 4.20202 0
M  V30 14426 H 1341.84 -0.941511 3.12735 0
M  V30 14427 H 1340.5 1.16215 3.47692 0
M  V30 14428 H 1340.14 -0.81838 4.96298 0
M  V30 14429 H 1339.84 0.706776 5.83334 0
M  V30 14430 H 1341.37 -0.185754 6.10317 0
M  V30 14431 H 1342.78 1.96892 5.3843 0
M  V30 14432 H 1341.18 2.75821 5.32956 0
M  V30 14433 H 1342.25 2.85509 3.91934 0
M  V30 14434 N 1343.59 -1.35528 0.804364 0
M  V30 14435 C 1344.54 -2.31728 0.20125 0
M  V30 14436 C 1345.53 -1.56527 -0.647751 0
M  V30 14437 O 1346.74 -1.71672 -0.541163 0
M  V30 14438 H 1343.12 -0.750572 0.0463165 0
M  V30 14439 H 1345.09 -2.80142 1.02777 0
M  V30 14440 C 1343.84 -3.41807 -0.637429 0
M  V30 14441 H 1343.16 -3.99799 0.00651699 0
M  V30 14442 H 1344.6 -4.11403 -1.02585 0
M  V30 14443 C 1343.06 -2.84655 -1.80202 0
M  V30 14444 O 1343.59 -2.78026 -2.89939 0
M  V30 14445 N 1341.79 -2.41735 -1.61285 0
M  V30 14446 H 1341.34 -2.47327 -0.720231 0
M  V30 14447 H 1341.3 -2.03844 -2.39364 0
M  V30 14448 N 1345.07 -0.557671 -1.47404 0
M  V30 14449 C 1346.31 -0.0361491 -2.04368 0
M  V30 14450 C 1346.68 1.2894 -1.42262 0
M  V30 14451 O 1347.88 1.89864 -1.90276 0
M  V30 14452 C 1346.15 0.0547287 -3.57358 0
M  V30 14453 S 1347.71 0.522307 -4.3568 0
M  V30 14454 H 1344.52 -0.0253676 -0.710547 0
M  V30 14455 H 1347.13 -0.744509 -1.80769 0
M  V30 14456 H 1345.83 -0.914374 -4.00084 0
M  V30 14457 H 1345.36 0.786629 -3.85455 0
M  V30 14458 H 1347.38 1.7819 -4.63101 0
M  V30 14459 N 1346.55 1.54831 -0.294147 0
M  V30 14460 C 1347.8 2.00001 0.317135 0
M  V30 14461 C 1348.12 1.18256 1.54421 0
M  V30 14462 O 1347.38 0.245035 1.9416 0
M  V30 14463 C 1347.68 3.4997 0.72495 0
M  V30 14464 C 1347.34 4.49126 -0.399616 0
M  V30 14465 C 1346.01 4.75958 -0.708354 0
M  V30 14466 C 1348.36 5.08208 -1.15644 0
M  V30 14467 C 1345.69 5.59137 -1.77716 0
M  V30 14468 C 1348.04 5.9255 -2.21512 0
M  V30 14469 C 1346.7 6.17695 -2.52999 0
M  V30 14470 H 1345.97 0.731856 0.116048 0
M  V30 14471 H 1348.62 1.87019 -0.41182 0
M  V30 14472 H 1346.92 3.60526 1.53388 0
M  V30 14473 H 1348.62 3.82341 1.20898 0
M  V30 14474 H 1345.21 4.28341 -0.148877 0
M  V30 14475 H 1349.4 4.87486 -0.931178 0
M  V30 14476 H 1344.65 5.76859 -2.02592 0
M  V30 14477 H 1348.83 6.37359 -2.80617 0
M  V30 14478 H 1346.45 6.81939 -3.35951 0
M  V30 14479 N 1348.03 0.0217466 1.57585 0
M  V30 14480 C 1348.96 -0.961069 2.12804 0
M  V30 14481 C 1349.94 -1.3442 1.04237 0
M  V30 14482 O 1351.12 -1.42412 1.32032 0
M  V30 14483 C 1348.25 -2.24586 2.64912 0
M  V30 14484 C 1347.21 -2.0037 3.78201 0
M  V30 14485 C 1346.53 -3.35051 4.16708 0
M  V30 14486 C 1347.83 -1.34879 5.04584 0
M  V30 14487 H 1349.53 -0.501222 2.95175 0
M  V30 14488 H 1347.07 -0.239649 1.41992 0
M  V30 14489 H 1349.03 -2.93715 3.02175 0
M  V30 14490 H 1347.75 -2.72723 1.79693 0
M  V30 14491 H 1346.41 -1.33662 3.41365 0
M  V30 14492 H 1346.06 -3.80932 3.28481 0
M  V30 14493 H 1345.76 -3.19656 4.93045 0
M  V30 14494 H 1347.28 -4.05459 4.56547 0
M  V30 14495 H 1348.7 -1.93997 5.3948 0
M  V30 14496 H 1347.09 -1.29906 5.85871 0
M  V30 14497 H 1348.16 -0.320774 4.83838 0
M  V30 14498 N 1349.51 -1.55583 -0.251311 0
M  V30 14499 C 1350.42 -1.93073 -1.33266 0
M  V30 14500 C 1351.43 -0.830612 -1.52895 0
M  V30 14501 O 1352.61 -1.13162 -1.66602 0
M  V30 14502 C 1349.67 -2.21396 -2.66805 0
M  V30 14503 C 1348.73 -3.44815 -2.55737 0
M  V30 14504 C 1347.97 -3.71777 -3.82907 0
M  V30 14505 O 1348.19 -3.00884 -4.84587 0
M  V30 14506 O 1347.12 -4.65305 -3.81805 0
M  V30 14507 H 1350.95 -2.85168 -1.04465 0
M  V30 14508 H 1348.53 -1.42408 -0.451693 0
M  V30 14509 H 1350.42 -2.4094 -3.45725 0
M  V30 14510 H 1349.09 -1.3248 -2.95348 0
M  V30 14511 H 1348 -3.30582 -1.75118 0
M  V30 14512 H 1349.33 -4.34019 -2.32139 0
M  V30 14513 N 1350.98 0.516783 -1.48886 0
M  V30 14514 C 1351.92 1.63632 -1.60491 0
M  V30 14515 C 1352.93 1.55301 -0.488424 0
M  V30 14516 O 1354.12 1.6152 -0.75983 0
M  V30 14517 C 1351.22 3.02351 -1.53093 0
M  V30 14518 C 1350.39 3.36028 -2.80006 0
M  V30 14519 C 1349.45 4.54087 -2.65879 0
M  V30 14520 O 1348.48 4.56652 -3.3979 0
M  V30 14521 N 1349.68 5.53058 -1.76372 0
M  V30 14522 H 1352.44 1.54109 -2.57042 0
M  V30 14523 H 1350 0.704338 -1.45776 0
M  V30 14524 H 1352 3.79225 -1.41318 0
M  V30 14525 H 1350.57 3.05881 -0.644637 0
M  V30 14526 H 1349.79 2.48204 -3.06249 0
M  V30 14527 H 1351.07 3.5532 -3.64177 0
M  V30 14528 H 1350.47 5.53773 -1.1555 0
M  V30 14529 H 1349.03 6.29097 -1.70529 0
M  V30 14530 N 1352.46 1.37696 0.766659 0
M  V30 14531 C 1353.74 1.23715 1.51506 0
M  V30 14532 C 1354.12 -0.167091 2.10438 0
M  V30 14533 O 1353.47 -1.17526 1.95959 0
M  V30 14534 C 1353.68 2.33715 2.59188 0
M  V30 14535 C 1355.02 2.71504 3.26451 0
M  V30 14536 O 1356.05 2.32929 2.69486 0
M  V30 14537 O 1354.91 3.37981 4.29454 0
M  V30 14538 H 1352 0.483046 0.671264 0
M  V30 14539 H 1354.55 1.49489 0.803188 0
M  V30 14540 H 1353.32 3.27729 2.13797 0
M  V30 14541 H 1352.94 2.09433 3.3797 0
M  V30 14542 N 1353.94 -0.993397 1.22349 0
M  V30 14543 C 1354.87 -2.10171 1.01737 0
M  V30 14544 C 1355.85 -1.69989 -0.0615276 0
M  V30 14545 O 1357.04 -1.93939 0.100591 0
M  V30 14546 C 1354.17 -3.42186 0.593801 0
M  V30 14547 C 1353.12 -3.96215 1.61858 0
M  V30 14548 C 1352.45 -5.24272 1.05086 0
M  V30 14549 C 1353.75 -4.26956 3.00842 0
M  V30 14550 H 1355.44 -2.27673 1.94436 0
M  V30 14551 H 1352.99 -1.09408 0.936258 0
M  V30 14552 H 1354.94 -4.19131 0.436715 0
M  V30 14553 H 1353.66 -3.2451 -0.368855 0
M  V30 14554 H 1352.32 -3.21401 1.76343 0
M  V30 14555 H 1351.97 -5.02937 0.0795747 0
M  V30 14556 H 1351.67 -5.61387 1.73547 0
M  V30 14557 H 1353.19 -6.03851 0.905349 0
M  V30 14558 H 1354.61 -4.94699 2.89734 0
M  V30 14559 H 1353 -4.75242 3.66422 0
M  V30 14560 H 1354.07 -3.34752 3.50812 0
M  V30 14561 N 1355.42 -1.03311 -1.19015 0
M  V30 14562 C 1356.36 -0.617567 -2.22384 0
M  V30 14563 C 1357.33 0.370779 -1.61909 0
M  V30 14564 O 1358.52 0.266481 -1.8893 0
M  V30 14565 C 1355.66 0.0211303 -3.45094 0
M  V30 14566 C 1354.77 -1.01377 -4.19937 0
M  V30 14567 C 1353.91 -0.344385 -5.30082 0
M  V30 14568 C 1352.95 -1.3649 -5.96688 0
M  V30 14569 N 1352.08 -0.721026 -6.98388 0
M  V30 14570 H 1356.92 -1.5036 -2.57286 0
M  V30 14571 H 1354.46 -0.75235 -1.26405 0
M  V30 14572 H 1356.42 0.408713 -4.15193 0
M  V30 14573 H 1355.05 0.870721 -3.10835 0
M  V30 14574 H 1354.1 -1.51937 -3.4874 0
M  V30 14575 H 1355.41 -1.78921 -4.65606 0
M  V30 14576 H 1354.57 0.097814 -6.06621 0
M  V30 14577 H 1353.31 0.463216 -4.85495 0
M  V30 14578 H 1352.31 -1.81732 -5.18897 0
M  V30 14579 H 1353.54 -2.17407 -6.43359 0
M  V30 14580 H 1351.48 0.0664057 -6.55966 0
M  V30 14581 H 1351.4 -1.43428 -7.4227 0
M  V30 14582 H 1352.67 -0.30297 -7.78911 0
M  V30 14583 N 1356.9 1.35099 -0.81154 0
M  V30 14584 C 1357.83 2.32264 -0.239925 0
M  V30 14585 C 1358.81 1.57708 0.637354 0
M  V30 14586 O 1359.99 1.85751 0.566598 0
M  V30 14587 C 1357.12 3.41931 0.608325 0
M  V30 14588 C 1356.08 4.27659 -0.170869 0
M  V30 14589 C 1355.4 5.28691 0.799398 0
M  V30 14590 C 1356.7 5.0394 -1.37266 0
M  V30 14591 H 1358.4 2.8032 -1.05172 0
M  V30 14592 H 1355.94 1.34773 -0.507185 0
M  V30 14593 H 1357.89 4.08911 1.01832 0
M  V30 14594 H 1356.62 2.92496 1.45306 0
M  V30 14595 H 1355.28 3.62265 -0.562094 0
M  V30 14596 H 1354.93 4.75521 1.63977 0
M  V30 14597 H 1354.63 5.86921 0.282331 0
M  V30 14598 H 1356.15 5.98542 1.20749 0
M  V30 14599 H 1357.56 5.63838 -1.03728 0
M  V30 14600 H 1355.96 5.7169 -1.82456 0
M  V30 14601 H 1357.03 4.34295 -2.15676 0
M  V30 14602 N 1358.37 0.56548 1.47106 0
M  V30 14603 C 1359.65 -0.0215358 1.95588 0
M  V30 14604 C 1360.03 -1.47712 1.50813 0
M  V30 14605 O 1359.38 -2.15814 0.750776 0
M  V30 14606 C 1359.59 0.132552 3.48748 0
M  V30 14607 C 1360.94 -0.00853591 4.24599 0
M  V30 14608 O 1361.96 0.0605142 3.56149 0
M  V30 14609 O 1360.82 -0.158519 5.4627 0
M  V30 14610 H 1357.91 -0.0595011 0.824857 0
M  V30 14611 H 1360.46 0.632586 1.57469 0
M  V30 14612 H 1359.23 1.14511 3.7417 0
M  V30 14613 H 1358.85 -0.558801 3.93654 0
M  V30 14614 N 1359.85 -1.54672 0.302354 0
M  V30 14615 C 1361.1 -1.99345 -0.307307 0
M  V30 14616 C 1361.41 -1.19437 -1.549 0
M  V30 14617 O 1362.62 -1.54384 -2.23334 0
M  V30 14618 C 1361.08 -3.54896 -0.59808 0
M  V30 14619 C 1360.68 -4.43614 0.625357 0
M  V30 14620 C 1362.43 -4.08091 -1.16886 0
M  V30 14621 C 1360.34 -5.90599 0.307661 0
M  V30 14622 H 1359.27 -0.744614 -0.118603 0
M  V30 14623 H 1361.92 -1.78832 0.411271 0
M  V30 14624 H 1360.3 -3.71314 -1.37629 0
M  V30 14625 H 1361.47 -4.38969 1.40152 0
M  V30 14626 H 1359.79 -4.01198 1.11487 0
M  V30 14627 H 1362.38 -5.15477 -1.42082 0
M  V30 14628 H 1362.73 -3.58775 -2.11155 0
M  V30 14629 H 1363.26 -3.9522 -0.452329 0
M  V30 14630 H 1360 -6.44067 1.21895 0
M  V30 14631 H 1359.52 -5.98248 -0.431208 0
M  V30 14632 H 1361.2 -6.46937 -0.0902796 0
M  V30 14633 N 1361.33 -0.0301034 -1.57571 0
M  V30 14634 C 1362.74 0.508591 -1.79639 0
M  V30 14635 C 1363.09 1.72191 -0.940458 0
M  V30 14636 O 1362.22 2.15872 -0.151138 0
M  V30 14637 C 1362.81 0.929446 -3.25802 0
M  V30 14638 C 1361.37 1.41325 -3.48861 0
M  V30 14639 C 1360.52 0.378433 -2.74706 0
M  V30 14640 H 1363.47 -0.256131 -1.56619 0
M  V30 14641 H 1363.49 1.79374 -3.35567 0
M  V30 14642 H 1363 0.0461738 -3.88073 0
M  V30 14643 H 1361.1 2.31641 -2.91844 0
M  V30 14644 H 1361.22 1.41995 -4.57574 0
M  V30 14645 H 1359.58 0.846744 -2.40213 0
M  V30 14646 H 1360.36 -0.49639 -3.39692 0
M  V30 14647 N 1362.81 1.55714 0.243056 0
M  V30 14648 C 1364.04 1.81786 0.98801 0
M  V30 14649 C 1364.45 0.606352 1.78798 0
M  V30 14650 O 1363.81 -0.425018 1.77482 0
M  V30 14651 C 1363.86 3.06121 1.92281 0
M  V30 14652 O 1363.58 4.22595 1.15521 0
M  V30 14653 C 1365.08 3.45021 2.78344 0
M  V30 14654 H 1362.3 0.604829 0.290557 0
M  V30 14655 H 1364.85 2.02779 0.26478 0
M  V30 14656 H 1363 2.87167 2.60027 0
M  V30 14657 H 1363.41 4.93088 1.78786 0
M  V30 14658 H 1364.89 4.35112 3.39678 0
M  V30 14659 H 1365.37 2.65782 3.49652 0
M  V30 14660 H 1365.97 3.66339 2.16045 0
M  V30 14661 N 1364.29 -0.50888 1.49158 0
M  V30 14662 C 1365.53 -1.261 1.57934 0
M  V30 14663 C 1365.86 -1.93199 0.264405 0
M  V30 14664 O 1365.13 -1.82359 -0.715684 0
M  V30 14665 H 1363.71 -0.468421 0.581886 0
M  V30 14666 H 1366.37 -0.590447 1.85741 0
M  V30 14667 H 1365.46 -2.02913 2.37135 0
M  V30 14668 N 1365.76 -1.381 -0.759346 0
M  V30 14669 C 1366.99 -1.37213 -1.54855 0
M  V30 14670 C 1367.41 0.0395175 -1.88759 0
M  V30 14671 O 1366.76 1.00462 -1.5236 0
M  V30 14672 C 1366.82 -2.22232 -2.85123 0
M  V30 14673 O 1366.54 -3.57897 -2.52668 0
M  V30 14674 C 1368.04 -2.29461 -3.79292 0
M  V30 14675 H 1365.26 -0.469542 -0.479345 0
M  V30 14676 H 1367.8 -1.81604 -0.940216 0
M  V30 14677 H 1365.96 -1.81317 -3.42349 0
M  V30 14678 H 1366.37 -4.02599 -3.36176 0
M  V30 14679 H 1367.84 -2.93246 -4.67665 0
M  V30 14680 H 1368.32 -1.3066 -4.19315 0
M  V30 14681 H 1368.93 -2.70741 -3.27993 0
M  V30 14682 N 1367.24 0.986894 -1.22875 0
M  V30 14683 C 1368.47 1.76266 -1.08342 0
M  V30 14684 C 1368.89 1.85226 0.365602 0
M  V30 14685 O 1368.24 1.32675 1.25314 0
M  V30 14686 C 1368.29 3.19282 -1.69533 0
M  V30 14687 O 1368.01 3.10796 -3.08768 0
M  V30 14688 C 1369.52 4.13281 -1.60355 0
M  V30 14689 H 1366.74 0.553374 -0.379497 0
M  V30 14690 H 1369.28 1.24033 -1.62592 0
M  V30 14691 H 1367.43 3.68563 -1.19332 0
M  V30 14692 H 1367.85 4.0078 -3.38343 0
M  V30 14693 H 1369.32 5.11359 -2.07884 0
M  V30 14694 H 1369.8 4.356 -0.561182 0
M  V30 14695 H 1370.41 3.699 -2.09891 0
M  V30 14696 N 1368.72 1.0394 1.18466 0
M  V30 14697 C 1370.13 0.77011 1.70077 0
M  V30 14698 C 1370.48 -0.70916 1.82935 0
M  V30 14699 O 1369.61 -1.55209 1.50795 0
M  V30 14700 C 1370.2 1.39132 3.08914 0
M  V30 14701 C 1368.76 1.17037 3.57742 0
M  V30 14702 C 1367.91 1.48279 2.34326 0
M  V30 14703 H 1370.86 1.20598 1.03159 0
M  V30 14704 H 1370.88 0.793861 3.72126 0
M  V30 14705 H 1370.39 2.46795 2.99523 0
M  V30 14706 H 1368.49 0.112435 3.7243 0
M  V30 14707 H 1368.61 1.8665 4.41247 0
M  V30 14708 H 1366.97 0.902438 2.38177 0
M  V30 14709 H 1367.75 2.57047 2.27556 0
M  V30 14710 N 1370.2 -1.34667 0.818693 0
M  V30 14711 C 1371.13 -2.28368 0.195126 0
M  V30 14712 C 1372.14 -1.50836 -0.612562 0
M  V30 14713 O 1373.33 -1.72917 -0.442936 0
M  V30 14714 C 1370.43 -3.30601 -0.745411 0
M  V30 14715 C 1369.61 -4.37396 0.0185308 0
M  V30 14716 C 1368.66 -5.19415 -0.842298 0
M  V30 14717 O 1367.69 -5.68467 -0.288821 0
M  V30 14718 N 1368.89 -5.38709 -2.1627 0
M  V30 14719 H 1371.66 -2.8252 1.00013 0
M  V30 14720 H 1369.22 -1.47146 0.675262 0
M  V30 14721 H 1371.21 -3.82367 -1.3258 0
M  V30 14722 H 1369.78 -2.76875 -1.45118 0
M  V30 14723 H 1369 -3.86402 0.780205 0
M  V30 14724 H 1370.29 -5.05877 0.544575 0
M  V30 14725 H 1369.69 -5.00523 -2.63616 0
M  V30 14726 H 1368.24 -5.9361 -2.69204 0
M  V30 14727 N 1371.68 -0.573274 -1.46804 0
M  V30 14728 C 1373.09 -0.23423 -1.57872 0
M  V30 14729 C 1373.29 1.26342 -1.56971 0
M  V30 14730 O 1372.35 2.04459 -1.48165 0
M  V30 14731 C 1373.66 -0.875097 -2.87685 0
M  V30 14732 C 1375.21 -0.847812 -3.01299 0
M  V30 14733 C 1375.68 -1.46804 -4.33835 0
M  V30 14734 N 1377.18 -1.43196 -4.4051 0
M  V30 14735 C 1377.91 -1.88133 -5.41658 0
M  V30 14736 N 1377.41 -2.41001 -6.49531 0
M  V30 14737 N 1379.2 -1.79107 -5.32801 0
M  V30 14738 H 1371.35 -1.54612 -1.45633 0
M  V30 14739 H 1373.61 -0.645703 -0.694098 0
M  V30 14740 H 1373.32 -1.92826 -2.94127 0
M  V30 14741 H 1373.19 -0.377671 -3.75305 0
M  V30 14742 H 1375.58 0.196707 -2.94444 0
M  V30 14743 H 1375.66 -1.38316 -2.1518 0
M  V30 14744 H 1375.31 -2.51171 -4.41447 0
M  V30 14745 H 1375.24 -0.908 -5.18713 0
M  V30 14746 H 1377.73 -1.04541 -3.63152 0
M  V30 14747 H 1378.04 -2.73172 -7.22908 0
M  V30 14748 H 1376.38 -2.45021 -6.50377 0
M  V30 14749 H 1379.58 -1.37569 -4.47429 0
M  V30 14750 H 1379.75 -2.14445 -6.11488 0
M  V30 14751 N 1373.15 1.5451 -0.310553 0
M  V30 14752 C 1374.1 2.23871 0.561277 0
M  V30 14753 C 1375.07 1.22475 1.12202 0
M  V30 14754 O 1376.26 1.51121 1.16477 0
M  V30 14755 C 1373.4 2.99029 1.72267 0
M  V30 14756 C 1372.51 4.15218 1.19241 0
M  V30 14757 C 1371.64 4.77935 2.31843 0
M  V30 14758 C 1370.68 5.86251 1.75999 0
M  V30 14759 N 1369.82 6.42885 2.82212 0
M  V30 14760 H 1374.66 2.97977 -0.0367998 0
M  V30 14761 H 1372.2 1.4707 -0.0299317 0
M  V30 14762 H 1374.16 3.40842 2.40588 0
M  V30 14763 H 1372.79 2.27281 2.29223 0
M  V30 14764 H 1371.84 3.78279 0.401148 0
M  V30 14765 H 1373.15 4.93225 0.743675 0
M  V30 14766 H 1372.3 5.2265 3.08094 0
M  V30 14767 H 1371.04 3.99281 2.80047 0
M  V30 14768 H 1370.05 5.40952 0.982415 0
M  V30 14769 H 1371.27 6.66795 1.28688 0
M  V30 14770 H 1369.22 5.67109 3.29732 0
M  V30 14771 H 1369.14 7.16267 2.41864 0
M  V30 14772 H 1370.4 6.92256 3.58332 0
M  V30 14773 N 1374.63 0.0384594 1.57553 0
M  V30 14774 C 1375.86 -0.651613 1.96898 0
M  V30 14775 C 1376.28 -1.64328 0.915308 0
M  V30 14776 O 1375.64 -1.80883 -0.122824 0
M  V30 14777 C 1375.69 -1.32613 3.3533 0
M  V30 14778 O 1374.79 -2.44159 3.32355 0
M  V30 14779 H 1374.13 -0.170441 0.641752 0
M  V30 14780 H 1376.66 0.103086 2.0434 0
M  V30 14781 H 1376.67 -1.68076 3.71772 0
M  V30 14782 H 1375.35 -0.599275 4.1156 0
M  V30 14783 H 1373.93 -2.10738 3.07642 0
M  V30 14784 N 1376.11 -1.55841 -0.234795 0
M  V30 14785 C 1377.34 -1.82043 -0.976937 0
M  V30 14786 C 1377.75 -0.613552 -1.78975 0
M  V30 14787 O 1377.09 0.427271 -1.78662 0
M  V30 14788 C 1377.15 -3.0178 -1.95369 0
M  V30 14789 C 1376.82 -4.3732 -1.32666 0
M  V30 14790 C 1377.82 -5.14847 -0.723107 0
M  V30 14791 C 1375.5 -4.8403 -1.3424 0
M  V30 14792 C 1377.49 -6.37238 -0.143646 0
M  V30 14793 C 1375.18 -6.06367 -0.759087 0
M  V30 14794 C 1376.18 -6.82811 -0.16075 0
M  V30 14795 O 1375.87 -8.02836 0.41352 0
M  V30 14796 H 1375.6 -0.609424 -0.292537 0
M  V30 14797 H 1378.15 -2.03758 -0.259216 0
M  V30 14798 H 1376.38 -2.7585 -2.71005 0
M  V30 14799 H 1378.07 -3.14968 -2.56027 0
M  V30 14800 H 1378.84 -4.79873 -0.703371 0
M  V30 14801 H 1374.72 -4.24512 -1.7975 0
M  V30 14802 H 1378.26 -6.96847 0.324002 0
M  V30 14803 H 1374.16 -6.40816 -0.776191 0
M  V30 14804 H 1374.93 -8.17926 0.306554 0
M  V30 14805 N 1377.59 0.500963 -1.49426 0
M  V30 14806 C 1378.52 1.61114 -1.69011 0
M  V30 14807 C 1379.5 1.61341 -0.538813 0
M  V30 14808 O 1380.69 1.78081 -0.77466 0
M  V30 14809 C 1377.82 2.99598 -1.75666 0
M  V30 14810 C 1376.77 3.14236 -2.90585 0
M  V30 14811 C 1376.1 4.54071 -2.82354 0
M  V30 14812 C 1377.4 2.94258 -4.3152 0
M  V30 14813 H 1379.09 1.44978 -2.61957 0
M  V30 14814 H 1376.64 0.69603 -1.26061 0
M  V30 14815 H 1378.59 3.77163 -1.87953 0
M  V30 14816 H 1377.31 3.16822 -0.793186 0
M  V30 14817 H 1375.97 2.39096 -2.779 0
M  V30 14818 H 1375.62 4.68172 -1.83914 0
M  V30 14819 H 1375.32 4.64806 -3.59485 0
M  V30 14820 H 1376.84 5.33696 -2.96649 0
M  V30 14821 H 1378.26 3.61592 -4.44886 0
M  V30 14822 H 1376.65 3.16464 -5.09873 0
M  V30 14823 H 1377.72 1.90383 -4.45962 0
M  V30 14824 N 1379.07 1.38501 0.752011 0
M  V30 14825 C 1380.3 1.37832 1.53902 0
M  V30 14826 C 1380.71 -0.0333526 1.89171 0
M  V30 14827 O 1380.05 -1.01076 1.53393 0
M  V30 14828 C 1380.11 2.17098 2.86546 0
M  V30 14829 C 1379.77 3.65895 2.73807 0
M  V30 14830 C 1380.77 4.59353 2.43497 0
M  V30 14831 C 1378.46 4.0927 2.9121 0
M  V30 14832 C 1380.45 5.94167 2.30746 0
M  V30 14833 C 1378.14 5.44165 2.78079 0
M  V30 14834 C 1379.14 6.36427 2.47891 0
M  V30 14835 O 1378.82 7.68839 2.34822 0
M  V30 14836 H 1378.56 0.473187 0.482773 0
M  V30 14837 H 1381.11 1.82715 0.938324 0
M  V30 14838 H 1379.34 1.66936 3.48811 0
M  V30 14839 H 1381.03 2.08817 3.48067 0
M  V30 14840 H 1381.79 4.27147 2.29718 0
M  V30 14841 H 1377.67 3.37803 3.13704 0
M  V30 14842 H 1381.22 6.66148 2.07105 0
M  V30 14843 H 1377.11 5.75967 2.91432 0
M  V30 14844 H 1377.88 7.79379 2.50022 0
M  V30 14845 N 1380.55 -0.980364 1.23396 0
M  V30 14846 C 1381.96 -1.53622 1.061 0
M  V30 14847 C 1382.31 -1.92648 -0.371645 0
M  V30 14848 O 1381.43 -1.76051 -1.25837 0
M  V30 14849 C 1382.03 -2.79159 1.91979 0
M  V30 14850 C 1380.59 -3.31144 1.78943 0
M  V30 14851 C 1379.73 -2.04135 1.87681 0
M  V30 14852 H 1382.68 -0.800047 1.37058 0
M  V30 14853 H 1382.71 -3.52011 1.4446 0
M  V30 14854 H 1382.22 -2.50723 2.96242 0
M  V30 14855 H 1380.32 -3.64459 0.774634 0
M  V30 14856 H 1380.43 -4.009 2.62329 0
M  V30 14857 H 1378.8 -2.18271 1.31262 0
M  V30 14858 H 1379.58 -1.78081 2.93499 0
M  V30 14859 N 1382.02 -1.04567 -1.17913 0
M  V30 14860 C 1383.25 -0.772146 -1.92491 0
M  V30 14861 C 1383.67 0.665297 -1.75942 0
M  V30 14862 O 1383.03 1.46144 -1.07292 0
M  V30 14863 C 1383.08 -1.14966 -3.41782 0
M  V30 14864 O 1382.18 -0.278091 -4.11461 0
M  V30 14865 H 1381.52 -0.283715 -0.600335 0
M  V30 14866 H 1384.05 -1.39685 -1.49496 0
M  V30 14867 H 1384.06 -1.11374 -3.92505 0
M  V30 14868 H 1382.74 -2.1968 -3.53148 0
M  V30 14869 H 1381.32 -0.374073 -3.71019 0
M  V30 14870 N 1383.5 1.34231 -0.825823 0
M  V30 14871 C 1384.73 2.02417 -0.428348 0
M  V30 14872 C 1385.14 1.62181 0.966573 0
M  V30 14873 O 1384.5 0.828691 1.62601 0
M  V30 14874 C 1384.55 3.57678 -0.524271 0
M  V30 14875 O 1384.27 3.96458 -1.86422 0
M  V30 14876 C 1385.77 4.43132 -0.122069 0
M  V30 14877 H 1382.99 0.648699 -0.171554 0
M  V30 14878 H 1385.54 1.71443 -1.11478 0
M  V30 14879 H 1383.69 3.87232 0.114112 0
M  V30 14880 H 1384.11 4.91147 -1.84051 0
M  V30 14881 H 1385.58 5.51477 -0.240264 0
M  V30 14882 H 1386.06 4.29139 0.934705 0
M  V30 14883 H 1386.66 4.18912 -0.734366 0
M  V30 14884 N 1384.98 0.581051 1.46498 0
M  V30 14885 C 1385.91 -0.140957 2.33074 0
M  V30 14886 C 1386.89 -0.885323 1.45245 0
M  V30 14887 O 1388.08 -0.86111 1.74065 0
M  V30 14888 C 1385.21 -1.15625 3.27488 0
M  V30 14889 C 1384.16 -0.526829 4.24745 0
M  V30 14890 C 1383.49 -1.64847 5.08655 0
M  V30 14891 C 1384.79 0.53492 5.19554 0
M  V30 14892 H 1386.48 0.581888 2.93691 0
M  V30 14893 H 1384.03 0.281278 1.41226 0
M  V30 14894 H 1385.98 -1.6697 3.8691 0
M  V30 14895 H 1384.7 -1.90935 2.64974 0
M  V30 14896 H 1383.36 -0.0344738 3.66584 0
M  V30 14897 H 1383.01 -2.3912 4.42528 0
M  V30 14898 H 1382.71 -1.23298 5.74518 0
M  V30 14899 H 1384.23 -2.16472 5.7094 0
M  V30 14900 H 1385.65 0.106606 5.73201 0
M  V30 14901 H 1384.04 0.870639 5.93751 0
M  V30 14902 H 1385.11 1.42184 4.63586 0
M  V30 14903 N 1386.46 -1.54343 0.318742 0
M  V30 14904 C 1387.7 -2.00777 -0.285699 0
M  V30 14905 C 1388.04 -1.20664 -1.52164 0
M  V30 14906 O 1387.31 -0.287674 -1.92361 0
M  V30 14907 C 1387.59 -3.54641 -0.624649 0
M  V30 14908 C 1387.45 -4.45483 0.621663 0
M  V30 14909 C 1388.77 -4.15729 -1.4442 0
M  V30 14910 H 1385.89 -0.729856 -0.102367 0
M  V30 14911 H 1388.53 -1.84968 0.434364 0
M  V30 14912 H 1386.68 -3.68243 -1.23811 0
M  V30 14913 H 1388.35 -4.43759 1.25998 0
M  V30 14914 H 1386.59 -4.15356 1.25148 0
M  V30 14915 H 1387.26 -5.50951 0.340106 0
M  V30 14916 H 1389.74 -4.05672 -0.925699 0
M  V30 14917 H 1388.62 -5.23509 -1.65013 0
M  V30 14918 H 1388.88 -3.68743 -2.43887 0
M  V30 14919 N 1387.94 -0.0468143 -1.5753 0
M  V30 14920 C 1389.35 0.309707 -1.56566 0
M  V30 14921 C 1389.55 1.7173 -1.05408 0
M  V30 14922 O 1388.61 2.4235 -0.708723 0
M  V30 14923 C 1389.92 0.142151 -3.00364 0
M  V30 14924 C 1391.47 0.213585 -3.1227 0
M  V30 14925 C 1391.94 0.0746102 -4.57939 0
M  V30 14926 N 1393.43 0.131027 -4.63015 0
M  V30 14927 C 1394.17 0.0475409 -5.7338 0
M  V30 14928 N 1393.67 -0.0880445 -6.92744 0
M  V30 14929 N 1395.46 0.102809 -5.62006 0
M  V30 14930 H 1387.61 -0.967057 -1.89108 0
M  V30 14931 H 1389.87 -0.375018 -0.870669 0
M  V30 14932 H 1389.58 -0.828171 -3.4181 0
M  V30 14933 H 1389.45 0.905006 -3.66182 0
M  V30 14934 H 1391.84 1.17438 -2.70726 0
M  V30 14935 H 1391.92 -0.57995 -2.49139 0
M  V30 14936 H 1391.56 -0.882839 -5.00168 0
M  V30 14937 H 1391.49 0.887235 -5.19072 0
M  V30 14938 H 1393.99 0.235246 -3.77167 0
M  V30 14939 H 1394.3 -0.144574 -7.72665 0
M  V30 14940 H 1392.64 -0.12307 -6.94891 0
M  V30 14941 H 1395.83 0.207259 -4.67641 0
M  V30 14942 H 1396.01 0.0342865 -6.47991 0
M  V30 14943 N 1389.41 1.55964 0.226527 0
M  V30 14944 C 1390.64 1.82823 0.968673 0
M  V30 14945 C 1391.06 0.625281 1.78145 0
M  V30 14946 O 1390.41 -0.40617 1.77923 0
M  V30 14947 C 1390.47 3.08143 1.89024 0
M  V30 14948 O 1390.19 4.23797 1.11032 0
M  V30 14949 C 1391.69 3.47954 2.74669 0
M  V30 14950 H 1388.91 0.607876 0.284126 0
M  V30 14951 H 1391.45 2.03048 0.243258 0
M  V30 14952 H 1389.61 2.89908 2.56967 0
M  V30 14953 H 1390.02 4.94957 1.73546 0
M  V30 14954 H 1391.49 4.38691 3.35044 0
M  V30 14955 H 1391.97 2.69476 3.46813 0
M  V30 14956 H 1392.58 3.6861 2.12147 0
M  V30 14957 N 1390.89 -0.493031 1.4969 0
M  V30 14958 C 1391.8 -1.61991 1.69694 0
M  V30 14959 C 1392.82 -1.64061 0.579641 0
M  V30 14960 O 1393.99 -1.82335 0.855323 0
M  V30 14961 C 1391.06 -2.98323 1.76648 0
M  V30 14962 C 1390.12 -3.06816 3.00271 0
M  V30 14963 C 1389.35 -4.36644 3.06883 0
M  V30 14964 O 1389.58 -5.25901 2.20872 0
M  V30 14965 O 1388.51 -4.50275 3.99419 0
M  V30 14966 H 1392.34 -1.48042 2.65174 0
M  V30 14967 H 1389.92 -0.670182 1.33525 0
M  V30 14968 H 1391.8 -3.79335 1.83529 0
M  V30 14969 H 1390.48 -3.12517 0.843482 0
M  V30 14970 H 1389.39 -2.24962 2.98903 0
M  V30 14971 H 1390.72 -2.97551 3.92077 0
M  V30 14972 N 1392.37 -1.38898 -0.744656 0
M  V30 14973 C 1393.78 -1.31789 -1.32244 0
M  V30 14974 C 1394.13 0.0222208 -1.96187 0
M  V30 14975 O 1393.26 0.924328 -1.95666 0
M  V30 14976 C 1393.85 -2.38674 -2.40458 0
M  V30 14977 C 1392.41 -2.35116 -2.93935 0
M  V30 14978 C 1391.56 -2.21069 -1.67403 0
M  V30 14979 H 1394.51 -1.49126 -0.54287 0
M  V30 14980 H 1394.53 -2.04905 -3.20615 0
M  V30 14981 H 1394.04 -3.36197 -1.9389 0
M  V30 14982 H 1392.14 -1.41201 -3.44809 0
M  V30 14983 H 1392.26 -3.29602 -3.47706 0
M  V30 14984 H 1390.62 -1.68074 -1.91372 0
M  V30 14985 H 1391.4 -3.20547 -1.229 0
M  V30 14986 N 1393.85 0.973806 -1.23914 0
M  V30 14987 C 1395.26 1.24128 -1.00322 0
M  V30 14988 C 1395.46 1.99378 0.29169 0
M  V30 14989 O 1394.52 2.31445 1.00943 0
M  V30 14990 C 1395.83 2.03438 -2.21435 0
M  V30 14991 C 1397.38 2.16553 -2.25995 0
M  V30 14992 C 1397.86 2.99257 -3.46712 0
M  V30 14993 N 1399.35 3.0684 -3.46992 0
M  V30 14994 C 1400.08 3.71174 -4.37055 0
M  V30 14995 N 1399.58 4.37277 -5.37364 0
M  V30 14996 N 1401.37 3.68126 -4.24782 0
M  V30 14997 H 1393.52 0.469872 -2.07138 0
M  V30 14998 H 1395.79 0.270234 -0.908668 0
M  V30 14999 H 1395.49 1.55527 -3.15443 0
M  V30 15000 H 1395.37 3.0418 -2.23057 0
M  V30 15001 H 1397.75 2.6367 -1.32522 0
M  V30 15002 H 1397.83 1.15179 -2.28402 0
M  V30 15003 H 1397.48 2.52835 -4.40496 0
M  V30 15004 H 1397.41 4.00815 -3.41547 0
M  V30 15005 H 1399.9 2.59813 -2.74419 0
M  V30 15006 H 1400.21 4.84166 -6.02331 0
M  V30 15007 H 1398.56 4.35965 -5.41257 0
M  V30 15008 H 1401.75 3.15657 -3.45656 0
M  V30 15009 H 1401.92 4.17981 -4.95173 0
M  V30 15010 N 1395.33 1.05191 1.17357 0
M  V30 15011 C 1396.24 0.663617 2.25018 0
M  V30 15012 C 1397.25 -0.315299 1.71119 0
M  V30 15013 O 1398.43 -0.167398 2.00703 0
M  V30 15014 C 1395.49 0.0443307 3.46672 0
M  V30 15015 C 1394.55 1.07369 4.15656 0
M  V30 15016 C 1393.79 0.483864 5.31502 0
M  V30 15017 O 1394.01 -0.706692 5.66005 0
M  V30 15018 O 1392.94 1.21812 5.89445 0
M  V30 15019 H 1396.77 1.56088 2.60519 0
M  V30 15020 H 1394.36 0.823474 1.24657 0
M  V30 15021 H 1396.24 -0.299839 4.20332 0
M  V30 15022 H 1394.91 -0.826579 3.12969 0
M  V30 15023 H 1393.82 1.46985 3.44015 0
M  V30 15024 H 1395.15 1.91575 4.53387 0
M  V30 15025 N 1396.8 -1.33791 0.83293 0
M  V30 15026 C 1397.75 -2.26795 0.234069 0
M  V30 15027 C 1398.74 -1.48991 -0.60749 0
M  V30 15028 O 1399.93 -1.70907 -0.46043 0
M  V30 15029 C 1397.06 -3.38107 -0.594863 0
M  V30 15030 C 1396.15 -4.23315 0.257877 0
M  V30 15031 N 1396.54 -4.87899 1.33373 0
M  V30 15032 C 1394.83 -4.45978 0.0438997 0
M  V30 15033 C 1395.54 -5.51278 1.85655 0
M  V30 15034 N 1394.51 -5.31103 1.15892 0
M  V30 15035 H 1398.31 -2.7424 1.05688 0
M  V30 15036 H 1395.83 -1.47627 0.676767 0
M  V30 15037 H 1397.82 -4.03716 -1.04014 0
M  V30 15038 H 1396.48 -2.92212 -1.41571 0
M  V30 15039 H 1397.5 -4.88624 1.71659 0
M  V30 15040 H 1394.17 -4.10818 -0.743985 0
M  V30 15041 H 1395.56 -6.12723 2.75717 0
M  V30 15042 N 1398.28 -0.588812 -1.46187 0
M  V30 15043 C 1399.21 0.128595 -2.33146 0
M  V30 15044 C 1400.19 0.877608 -1.45712 0
M  V30 15045 O 1401.38 0.851866 -1.74519 0
M  V30 15046 C 1398.51 1.13886 -3.28096 0
M  V30 15047 C 1397.46 0.504296 -4.25019 0
M  V30 15048 C 1396.79 1.62147 -5.09522 0
M  V30 15049 C 1398.09 -0.562466 -5.19263 0
M  V30 15050 H 1399.78 -0.597455 -2.93378 0
M  V30 15051 H 1397.33 -0.288764 -1.41075 0
M  V30 15052 H 1399.28 1.64916 -3.8779 0
M  V30 15053 H 1398.01 1.89527 -2.65983 0
M  V30 15054 H 1396.66 0.0150325 -3.66597 0
M  V30 15055 H 1396.31 2.36769 -4.4379 0
M  V30 15056 H 1396.01 1.20249 -5.75164 0
M  V30 15057 H 1397.54 2.13441 -5.7208 0
M  V30 15058 H 1398.95 -0.137003 -5.73136 0
M  V30 15059 H 1397.35 -0.902115 -5.93281 0
M  V30 15060 H 1398.42 -1.4464 -4.62825 0
M  V30 15061 N 1399.76 1.54172 -0.326923 0
M  V30 15062 C 1400.69 2.27402 0.530154 0
M  V30 15063 C 1401.67 1.28325 1.11655 0
M  V30 15064 O 1402.86 1.57142 1.14105 0
M  V30 15065 C 1399.99 3.03435 1.68951 0
M  V30 15066 C 1398.94 4.09877 1.23226 0
M  V30 15067 C 1398.27 4.7377 2.47882 0
M  V30 15068 C 1399.57 5.21161 0.344698 0
M  V30 15069 H 1401.26 2.99291 -0.0806959 0
M  V30 15070 H 1398.81 1.43944 -0.0402511 0
M  V30 15071 H 1400.76 3.53396 2.29541 0
M  V30 15072 H 1399.48 2.29169 2.327 0
M  V30 15073 H 1398.14 3.60805 0.649267 0
M  V30 15074 H 1397.79 3.96116 3.10002 0
M  V30 15075 H 1397.49 5.45674 2.17977 0
M  V30 15076 H 1399.01 5.26507 3.09229 0
M  V30 15077 H 1400.43 5.66859 0.856979 0
M  V30 15078 H 1398.83 5.99941 0.138276 0
M  V30 15079 H 1399.9 4.80874 -0.623575 0
M  V30 15080 N 1401.24 0.0551678 1.57503 0
M  V30 15081 C 1402.52 -0.657808 1.84207 0
M  V30 15082 C 1402.9 -1.88798 0.944372 0
M  V30 15083 O 1402.24 -2.28499 0.00641728 0
M  V30 15084 C 1402.45 -1.0113 3.34026 0
M  V30 15085 C 1403.8 -1.39189 4.01138 0
M  V30 15086 O 1404.83 -1.10353 3.38675 0
M  V30 15087 O 1403.68 -1.93023 5.11277 0
M  V30 15088 H 1400.78 -0.325084 0.760427 0
M  V30 15089 H 1403.32 0.0848352 1.69488 0
M  V30 15090 H 1402.1 -0.13688 3.91061 0
M  V30 15091 H 1401.72 -1.81126 3.53948 0
M  V30 15092 N 1402.72 -1.56081 -0.218252 0
M  V30 15093 C 1403.65 -1.89176 -1.29403 0
M  V30 15094 C 1404.66 -0.780312 -1.42881 0
M  V30 15095 O 1405.85 -1.05863 -1.4372 0
M  V30 15096 C 1402.95 -2.08818 -2.66923 0
M  V30 15097 C 1402.12 -3.39854 -2.75351 0
M  V30 15098 C 1401.18 -3.48889 -3.93908 0
M  V30 15099 O 1400.21 -4.21894 -3.82091 0
M  V30 15100 N 1401.41 -2.80273 -5.08357 0
M  V30 15101 H 1404.18 -2.82047 -1.01338 0
M  V30 15102 H 1401.74 -1.56667 -0.408278 0
M  V30 15103 H 1403.73 -2.12175 -3.44622 0
M  V30 15104 H 1402.3 -1.22557 -2.87574 0
M  V30 15105 H 1401.52 -3.48568 -1.84104 0
M  V30 15106 H 1402.81 -4.26168 -2.77954 0
M  V30 15107 H 1402.2 -2.20744 -5.20854 0
M  V30 15108 H 1400.76 -2.89286 -5.84086 0
M  V30 15109 N 1404.2 0.485086 -1.49949 0
M  V30 15110 C 1405.13 1.59312 -1.7071 0
M  V30 15111 C 1406.11 1.6076 -0.555896 0
M  V30 15112 O 1407.29 1.77249 -0.793504 0
M  V30 15113 C 1404.42 2.97718 -1.78834 0
M  V30 15114 C 1403.38 3.11136 -2.93902 0
M  V30 15115 C 1402.7 4.51051 -2.87154 0
M  V30 15116 C 1404 2.89665 -4.34617 0
M  V30 15117 H 1405.7 1.42192 -2.6348 0
M  V30 15118 H 1403.24 0.68262 -1.26792 0
M  V30 15119 H 1405.19 3.75148 -1.91943 0
M  V30 15120 H 1403.92 3.15963 -0.826744 0
M  V30 15121 H 1402.58 2.36135 -2.80421 0
M  V30 15122 H 1402.23 4.66195 -1.88869 0
M  V30 15123 H 1401.93 4.60967 -3.64394 0
M  V30 15124 H 1403.45 5.3052 -3.02293 0
M  V30 15125 H 1404.86 3.56853 -4.48697 0
M  V30 15126 H 1403.26 3.11039 -5.13201 0
M  V30 15127 H 1404.33 1.85642 -4.47956 0
M  V30 15128 N 1405.67 1.39291 0.737279 0
M  V30 15129 C 1406.62 1.37829 1.85127 0
M  V30 15130 C 1407.59 0.238321 1.64381 0
M  V30 15131 O 1408.78 0.433081 1.8582 0
M  V30 15132 C 1405.92 1.22531 3.22615 0
M  V30 15133 C 1405.03 2.46052 3.55081 0
M  V30 15134 C 1404.16 2.2336 4.81958 0
M  V30 15135 C 1403.2 3.42569 5.0726 0
M  V30 15136 N 1402.34 3.19209 6.2534 0
M  V30 15137 H 1407.18 2.33056 1.85712 0
M  V30 15138 H 1404.72 1.15772 0.907484 0
M  V30 15139 H 1406.67 1.11673 4.01976 0
M  V30 15140 H 1405.3 0.30934 3.21314 0
M  V30 15141 H 1404.36 2.67521 2.70438 0
M  V30 15142 H 1405.67 3.3485 3.69698 0
M  V30 15143 H 1404.82 2.09732 5.69295 0
M  V30 15144 H 1403.56 1.31953 4.6951 0
M  V30 15145 H 1402.57 3.56698 4.18386 0
M  V30 15146 H 1403.79 4.34874 5.21595 0
M  V30 15147 H 1401.74 2.30464 6.14184 0
M  V30 15148 H 1401.65 4.01562 6.40534 0
M  V30 15149 H 1402.92 3.09269 7.15523 0
M  V30 15150 N 1407.15 -0.967221 1.24429 0
M  V30 15151 C 1408.57 -1.23594 1.00979 0
M  V30 15152 C 1408.77 -1.99529 -0.281112 0
M  V30 15153 O 1407.82 -2.31977 -0.997139 0
M  V30 15154 C 1409.14 -2.02261 2.22511 0
M  V30 15155 C 1410.68 -2.15352 2.2714 0
M  V30 15156 C 1411.16 -2.97414 3.48294 0
M  V30 15157 N 1412.65 -3.04996 3.48614 0
M  V30 15158 C 1413.39 -3.68851 4.39017 0
M  V30 15159 N 1412.88 -4.34421 5.39676 0
M  V30 15160 N 1414.67 -3.65868 4.26728 0
M  V30 15161 H 1406.83 -0.458881 2.07384 0
M  V30 15162 H 1409.09 -0.265411 0.910088 0
M  V30 15163 H 1408.79 -1.53852 3.16263 0
M  V30 15164 H 1408.67 -3.02993 2.24667 0
M  V30 15165 H 1411.06 -2.62964 1.33919 0
M  V30 15166 H 1411.14 -1.13966 2.2901 0
M  V30 15167 H 1410.78 -2.50495 4.41831 0
M  V30 15168 H 1410.71 -3.98998 3.43668 0
M  V30 15169 H 1413.2 -2.58354 2.75793 0
M  V30 15170 H 1413.51 -4.80965 6.04891 0
M  V30 15171 H 1411.86 -4.33089 5.43562 0
M  V30 15172 H 1415.05 -3.13819 3.47325 0
M  V30 15173 H 1415.22 -4.15349 4.97382 0
M  V30 15174 N 1408.63 -1.05812 -1.16797 0
M  V30 15175 C 1409.58 -0.664599 -2.21024 0
M  V30 15176 C 1410.55 0.336352 -1.62659 0
M  V30 15177 O 1411.73 0.226346 -1.89453 0
M  V30 15178 C 1408.87 -0.0520739 -3.45061 0
M  V30 15179 C 1407.98 -1.10261 -4.17692 0
M  V30 15180 C 1407.12 -0.456746 -5.29233 0
M  V30 15181 C 1406.16 -1.49116 -5.93659 0
M  V30 15182 N 1405.3 -0.869002 -6.96701 0
M  V30 15183 H 1410.14 -1.55784 -2.54038 0
M  V30 15184 H 1407.67 -0.778993 -1.2478 0
M  V30 15185 H 1409.63 0.320552 -4.15967 0
M  V30 15186 H 1408.26 0.804592 -3.12612 0
M  V30 15187 H 1407.31 -1.593 -3.45438 0
M  V30 15188 H 1408.62 -1.88757 -4.61706 0
M  V30 15189 H 1407.78 -0.0308814 -6.06692 0
M  V30 15190 H 1406.52 0.360131 -4.86369 0
M  V30 15191 H 1405.52 -1.92697 -5.14925 0
M  V30 15192 H 1406.75 -2.31005 -6.38603 0
M  V30 15193 H 1404.69 -0.0727494 -6.5596 0
M  V30 15194 H 1404.61 -1.59141 -7.3906 0
M  V30 15195 H 1405.88 -0.46812 -7.78093 0
M  V30 15196 N 1410.11 1.33347 -0.840014 0
M  V30 15197 C 1411.04 2.28029 -0.231432 0
M  V30 15198 C 1412.05 1.51792 0.588488 0
M  V30 15199 O 1413.24 1.736 0.415371 0
M  V30 15200 C 1410.34 3.31745 0.692721 0
M  V30 15201 C 1409.51 4.37311 -0.0881144 0
M  V30 15202 C 1408.57 5.20689 0.759557 0
M  V30 15203 O 1407.6 5.68854 0.198347 0
M  V30 15204 N 1408.8 5.42082 2.07672 0
M  V30 15205 H 1411.57 2.80893 -1.04495 0
M  V30 15206 H 1409.13 1.46053 -0.698586 0
M  V30 15207 H 1411.12 3.84428 1.2648 0
M  V30 15208 H 1409.69 2.79148 1.40695 0
M  V30 15209 H 1408.91 3.85112 -0.841579 0
M  V30 15210 H 1410.2 5.04947 -0.624986 0
M  V30 15211 H 1409.6 5.04654 2.55619 0
M  V30 15212 H 1408.15 5.97817 2.59726 0
M  V30 15213 N 1411.59 0.596556 1.45873 0
M  V30 15214 C 1413 0.173758 1.8589 0
M  V30 15215 C 1413.35 -1.26665 1.49835 0
M  V30 15216 O 1412.47 -1.9588 0.919773 0
M  V30 15217 C 1413.07 0.308567 3.37392 0
M  V30 15218 C 1411.63 -0.0594585 3.76353 0
M  V30 15219 C 1410.77 0.638127 2.69858 0
M  V30 15220 H 1413.72 0.803928 1.36831 0
M  V30 15221 H 1413.75 -0.462294 3.77681 0
M  V30 15222 H 1413.26 1.35701 3.63603 0
M  V30 15223 H 1411.36 -1.1075 3.5576 0
M  V30 15224 H 1411.47 0.326506 4.77986 0
M  V30 15225 H 1409.84 0.0769147 2.54584 0
M  V30 15226 H 1410.62 1.68849 2.98906 0
M  V30 15227 N 1413.06 -1.53996 0.335095 0
M  V30 15228 C 1413.97 -2.28436 -0.534244 0
M  V30 15229 C 1414.99 -1.33224 -1.11926 0
M  V30 15230 O 1416.17 -1.66252 -1.13676 0
M  V30 15231 C 1413.23 -3.03634 -1.67354 0
M  V30 15232 C 1412.29 -4.14455 -1.11916 0
M  V30 15233 C 1411.52 -4.86058 -2.20416 0
M  V30 15234 O 1411.75 -4.57263 -3.40979 0
M  V30 15235 O 1410.68 -5.72704 -1.85185 0
M  V30 15236 H 1414.51 -3.03618 0.0706314 0
M  V30 15237 H 1412.09 -1.49062 0.100409 0
M  V30 15238 H 1413.97 -3.50687 -2.33659 0
M  V30 15239 H 1412.65 -2.31317 -2.26438 0
M  V30 15240 H 1411.56 -3.71725 -0.420871 0
M  V30 15241 H 1412.89 -4.8885 -0.573295 0
M  V30 15242 N 1414.54 -0.0635198 -1.57472 0
M  V30 15243 C 1415.47 0.90431 -2.15278 0
M  V30 15244 C 1416.45 1.31609 -1.07764 0
M  V30 15245 O 1417.64 1.38861 -1.35762 0
M  V30 15246 C 1414.77 2.17483 -2.70774 0
M  V30 15247 C 1413.72 1.90272 -3.8338 0
M  V30 15248 C 1413.05 3.23885 -4.25444 0
M  V30 15249 C 1414.35 1.21454 -5.07983 0
M  V30 15250 H 1416.04 0.422786 -2.964 0
M  V30 15251 H 1413.59 0.201918 -1.42577 0
M  V30 15252 H 1415.54 2.856 -3.09856 0
M  V30 15253 H 1414.26 2.67863 -1.86861 0
M  V30 15254 H 1412.92 1.24564 -3.44789 0
M  V30 15255 H 1412.57 3.72089 -3.38465 0
M  V30 15256 H 1412.27 3.06472 -5.01347 0
M  V30 15257 H 1413.8 3.93212 -4.67137 0
M  V30 15258 H 1415.21 1.79625 -5.44433 0
M  V30 15259 H 1413.61 1.14327 -5.89109 0
M  V30 15260 H 1414.68 0.19238 -4.84518 0
M  V30 15261 N 1416.02 1.56195 0.209972 0
M  V30 15262 C 1416.95 1.96378 1.26324 0
M  V30 15263 C 1417.93 0.833606 1.48273 0
M  V30 15264 O 1419.12 1.0968 1.60262 0
M  V30 15265 C 1416.25 2.29048 2.61064 0
M  V30 15266 C 1415.2 3.44665 2.53752 0
M  V30 15267 C 1414.53 3.6297 3.92628 0
M  V30 15268 C 1415.83 4.79297 2.07536 0
M  V30 15269 H 1417.52 2.8461 0.929379 0
M  V30 15270 H 1415.07 1.36931 0.445627 0
M  V30 15271 H 1417.02 2.55752 3.34916 0
M  V30 15272 H 1415.74 1.37682 2.96161 0
M  V30 15273 H 1414.4 3.18028 1.82356 0
M  V30 15274 H 1414.05 2.68961 4.25052 0
M  V30 15275 H 1413.75 4.40741 3.88614 0
M  V30 15276 H 1415.27 3.92035 4.68125 0
M  V30 15277 H 1416.69 5.05131 2.71138 0
M  V30 15278 H 1415.08 5.60433 2.14557 0
M  V30 15279 H 1416.15 4.73877 1.02802 0
M  V30 15280 N 1417.5 -0.477127 1.50204 0
M  V30 15281 C 1418.43 -1.59442 1.63259 0
M  V30 15282 C 1419.41 -1.55327 0.480864 0
M  V30 15283 O 1420.59 -1.75038 0.699578 0
M  V30 15284 C 1417.72 -2.98009 1.6096 0
M  V30 15285 C 1416.77 -3.20301 2.8162 0
M  V30 15286 S 1417.6 -3.00849 4.43001 0
M  V30 15287 C 1418.75 -4.41769 4.43386 0
M  V30 15288 H 1418.99 -1.48128 2.5777 0
M  V30 15289 H 1416.52 -0.66403 1.39392 0
M  V30 15290 H 1418.48 -3.779 1.60319 0
M  V30 15291 H 1417.14 -3.06718 0.676948 0
M  V30 15292 H 1416.33 -4.21515 2.76299 0
M  V30 15293 H 1415.93 -2.48173 2.79797 0
M  V30 15294 H 1418.23 -5.34294 4.16576 0
M  V30 15295 H 1419.17 -4.52135 5.44958 0
M  V30 15296 H 1419.58 -4.23565 3.73166 0
M  V30 15297 N 1418.98 -1.3968 -0.729882 0
M  V30 15298 C 1419.91 -1.33201 -1.85291 0
M  V30 15299 C 1420.89 -0.204787 -1.61305 0
M  V30 15300 O 1422.07 -0.386087 -1.84504 0
M  V30 15301 C 1419.2 -1.06955 -3.21369 0
M  V30 15302 C 1418.24 -2.21937 -3.64207 0
M  V30 15303 S 1419.08 -3.84249 -3.72979 0
M  V30 15304 C 1420.23 -3.60239 -5.11839 0
M  V30 15305 H 1420.47 -2.28244 -1.90504 0
M  V30 15306 H 1418 -1.25796 -0.895252 0
M  V30 15307 H 1419.96 -0.924975 -3.99943 0
M  V30 15308 H 1418.62 -0.135902 -3.13806 0
M  V30 15309 H 1417.81 -1.99179 -4.62973 0
M  V30 15310 H 1417.41 -2.32624 -2.92852 0
M  V30 15311 H 1419.71 -3.17821 -5.98328 0
M  V30 15312 H 1420.65 -4.58485 -5.39627 0
M  V30 15313 H 1421.06 -2.94229 -4.81757 0
M  V30 15314 N 1420.45 0.960609 -1.2494 0
M  V30 15315 C 1421.38 2.074 -1.07274 0
M  V30 15316 C 1422.37 1.70092 0.0164365 0
M  V30 15317 O 1423.55 1.93604 -0.151975 0
M  V30 15318 C 1420.68 3.40491 -0.684317 0
M  V30 15319 C 1419.63 3.91784 -1.72306 0
M  V30 15320 C 1418.96 5.21301 -1.18949 0
M  V30 15321 C 1420.26 4.18829 -3.12056 0
M  V30 15322 H 1421.95 2.22438 -2.00404 0
M  V30 15323 H 1419.5 1.06888 -0.964937 0
M  V30 15324 H 1421.45 4.17826 -0.547686 0
M  V30 15325 H 1420.18 3.25374 0.282687 0
M  V30 15326 H 1418.84 3.16613 -1.84802 0
M  V30 15327 H 1418.48 5.02549 -0.212892 0
M  V30 15328 H 1418.18 5.56588 -1.8837 0
M  V30 15329 H 1419.71 6.01238 -1.06513 0
M  V30 15330 H 1421.12 4.86844 -3.02748 0
M  V30 15331 H 1419.52 4.6536 -3.78894 0
M  V30 15332 H 1420.59 3.25333 -3.59564 0
M  V30 15333 N 1421.93 1.0643 1.16234 0
M  V30 15334 C 1422.88 0.670457 2.22728 0
M  V30 15335 C 1423.87 -0.31428 1.66459 0
M  V30 15336 O 1425.08 -0.178996 1.79108 0
M  V30 15337 H 1421.46 0.198692 0.725276 0
M  V30 15338 H 1423.43 1.57846 2.53233 0
M  V30 15339 C 1422.18 0.074379 3.4762 0
M  V30 15340 H 1421.5 0.823227 3.91233 0
M  V30 15341 H 1422.94 -0.163652 4.23684 0
M  V30 15342 C 1421.4 -1.18242 3.15469 0
M  V30 15343 O 1421.93 -2.27018 3.314 0
M  V30 15344 N 1420.13 -1.08493 2.69588 0
M  V30 15345 H 1419.68 -0.199714 2.56825 0
M  V30 15346 H 1419.64 -1.92666 2.48449 0
M  V30 15347 N 1423.41 -1.329 0.847073 0
M  V30 15348 C 1424.65 -1.99318 0.45294 0
M  V30 15349 C 1425.01 -1.65606 -0.971536 0
M  V30 15350 O 1426.22 -2.25054 -1.46983 0
M  V30 15351 C 1424.49 -3.50938 0.67656 0
M  V30 15352 S 1426.05 -4.37161 0.378869 0
M  V30 15353 H 1422.86 -0.690376 0.170008 0
M  V30 15354 H 1425.47 -1.61744 1.09814 0
M  V30 15355 H 1424.17 -3.72963 1.71252 0
M  V30 15356 H 1423.7 -3.93396 0.0175049 0
M  V30 15357 H 1425.72 -4.89739 -0.79813 0
M  V30 15358 N 1424.89 -0.604284 -1.45555 0
M  V30 15359 C 1426.11 -0.102634 -2.07146 0
M  V30 15360 C 1426.54 1.20239 -1.44652 0
M  V30 15361 O 1425.9 1.73133 -0.538033 0
M  V30 15362 C 1425.94 0.0270231 -3.6059 0
M  V30 15363 O 1425.05 1.0781 -3.98059 0
M  V30 15364 H 1424.39 -0.0725667 -0.660023 0
M  V30 15365 H 1426.92 -0.833355 -1.86859 0
M  V30 15366 H 1426.93 0.226299 -4.07372 0
M  V30 15367 H 1425.6 -0.925896 -4.05463 0
M  V30 15368 H 1424.18 0.855552 -3.62953 0
M  V30 15369 N 1426.37 1.53816 -0.343257 0
M  V30 15370 C 1427.28 2.28716 0.522121 0
M  V30 15371 C 1428.29 1.33815 1.11218 0
M  V30 15372 O 1429.47 1.66853 1.12793 0
M  V30 15373 C 1426.53 3.04517 1.65741 0
M  V30 15374 C 1425.59 4.15043 1.09716 0
M  V30 15375 C 1424.83 4.8722 2.17835 0
M  V30 15376 O 1425.05 4.59065 3.38549 0
M  V30 15377 O 1423.98 5.73678 1.82145 0
M  V30 15378 H 1427.81 3.03576 -0.086732 0
M  V30 15379 H 1425.4 1.49007 -0.108313 0
M  V30 15380 H 1427.28 3.51921 2.31796 0
M  V30 15381 H 1425.95 2.32514 2.25208 0
M  V30 15382 H 1424.86 3.71943 0.401152 0
M  V30 15383 H 1426.19 4.89147 0.547362 0
M  V30 15384 N 1427.84 0.0718701 1.57436 0
M  V30 15385 C 1428.79 -0.913026 2.13931 0
M  V30 15386 C 1429.79 -1.3082 1.07622 0
M  V30 15387 O 1430.99 -1.28544 1.26002 0
M  V30 15388 H 1427.37 -0.31238 0.684049 0
M  V30 15389 H 1429.34 -0.411613 2.95547 0
M  V30 15390 C 1428.09 -2.17109 2.71586 0
M  V30 15391 H 1427.41 -1.87585 3.53061 0
M  V30 15392 H 1428.85 -2.84134 3.14712 0
M  V30 15393 C 1427.31 -2.92967 1.6635 0
M  V30 15394 O 1427.84 -3.8667 1.08854 0
M  V30 15395 N 1426.05 -2.56075 1.37383 0
M  V30 15396 H 1425.59 -1.79949 1.84326 0
M  V30 15397 H 1425.55 -3.07134 0.672039 0
M  V30 15398 N 1429.32 -1.56304 -0.201686 0
M  V30 15399 C 1430.27 -1.94901 -1.26949 0
M  V30 15400 C 1431.26 -0.833574 -1.47472 0
M  V30 15401 O 1432.47 -1.01854 -1.48411 0
M  V30 15402 H 1428.85 -0.619663 -0.426053 0
M  V30 15403 H 1430.82 -2.83964 -0.9169 0
M  V30 15404 C 1429.57 -2.29913 -2.60835 0
M  V30 15405 H 1428.89 -3.15268 -2.45858 0
M  V30 15406 H 1430.33 -2.60789 -3.34313 0
M  V30 15407 C 1428.79 -1.13136 -3.17335 0
M  V30 15408 O 1429.32 -0.402915 -3.99674 0
M  V30 15409 N 1427.52 -0.909912 -2.75987 0
M  V30 15410 H 1427.07 -1.50402 -2.09134 0
M  V30 15411 H 1427.03 -0.130348 -3.1413 0
M  V30 15412 N 1430.8 0.469154 -1.50455 0
M  V30 15413 C 1431.75 1.56691 -1.6946 0
M  V30 15414 C 1432.72 1.57217 -0.535921 0
M  V30 15415 O 1433.9 1.74717 -0.766715 0
M  V30 15416 C 1431.04 2.94651 -1.79651 0
M  V30 15417 C 1430.16 3.03899 -3.07033 0
M  V30 15418 C 1429.29 4.32786 -3.08009 0
M  V30 15419 C 1428.33 4.35784 -4.29836 0
M  V30 15420 N 1427.47 5.56145 -4.28541 0
M  V30 15421 H 1432.31 1.39791 -2.63178 0
M  V30 15422 H 1429.84 0.679628 -1.30459 0
M  V30 15423 H 1431.8 3.74658 -1.83541 0
M  V30 15424 H 1430.43 3.10182 -0.893713 0
M  V30 15425 H 1429.48 2.16754 -3.12605 0
M  V30 15426 H 1430.8 3.01974 -3.97005 0
M  V30 15427 H 1429.95 5.21141 -3.10639 0
M  V30 15428 H 1428.69 4.37323 -2.1587 0
M  V30 15429 H 1427.69 3.45825 -4.27417 0
M  V30 15430 H 1428.92 4.32937 -5.23204 0
M  V30 15431 H 1426.86 5.61464 -3.39256 0
M  V30 15432 H 1426.78 5.55969 -5.12284 0
M  V30 15433 H 1428.05 6.4662 -4.35319 0
M  V30 15434 N 1432.28 1.40065 0.722464 0
M  V30 15435 C 1433.19 1.42086 1.86678 0
M  V30 15436 C 1434.2 0.314223 1.71139 0
M  V30 15437 O 1435.38 0.55771 1.93524 0
M  V30 15438 C 1432.45 1.27498 3.22405 0
M  V30 15439 C 1431.51 2.48243 3.50248 0
M  V30 15440 C 1430.74 2.34342 4.79499 0
M  V30 15441 O 1430.96 1.35355 5.54108 0
M  V30 15442 O 1429.9 3.23579 5.07523 0
M  V30 15443 H 1433.72 2.38571 1.87929 0
M  V30 15444 H 1431.31 1.21314 0.871968 0
M  V30 15445 H 1433.19 1.21543 4.03491 0
M  V30 15446 H 1431.86 0.341141 3.21897 0
M  V30 15447 H 1430.77 2.59775 2.69199 0
M  V30 15448 H 1432.1 3.40364 3.55547 0
M  V30 15449 N 1433.76 -0.95397 1.25448 0
M  V30 15450 C 1434.67 -2.08452 1.07634 0
M  V30 15451 C 1435.68 -1.73995 0.013294 0
M  V30 15452 O 1436.86 -2.00256 0.214367 0
M  V30 15453 C 1433.92 -3.39606 0.697756 0
M  V30 15454 C 1432.99 -3.87926 1.83881 0
M  V30 15455 C 1432.22 -5.12821 1.47819 0
M  V30 15456 O 1432.44 -5.69172 0.374143 0
M  V30 15457 O 1431.38 -5.55866 2.3086 0
M  V30 15458 H 1435.2 -2.26382 2.02447 0
M  V30 15459 H 1432.79 -1.06877 1.04392 0
M  V30 15460 H 1434.67 -4.18438 0.498778 0
M  V30 15461 H 1433.34 -3.22944 -0.221108 0
M  V30 15462 H 1432.25 -3.10095 2.09265 0
M  V30 15463 H 1433.58 -4.09087 2.73694 0
M  V30 15464 N 1435.24 -1.07045 -1.15668 0
M  V30 15465 C 1436.46 -0.812746 -1.90268 0
M  V30 15466 C 1436.88 0.633722 -1.77847 0
M  V30 15467 O 1436.24 1.43444 -1.12828 0
M  V30 15468 C 1436.29 -1.20793 -3.40722 0
M  V30 15469 O 1436.01 -2.59764 -3.52781 0
M  V30 15470 C 1437.51 -0.979074 -4.32353 0
M  V30 15471 H 1434.73 -0.294093 -0.603117 0
M  V30 15472 H 1437.27 -1.42609 -1.46571 0
M  V30 15473 H 1435.43 -0.638975 -3.82094 0
M  V30 15474 H 1435.84 -2.75801 -4.46133 0
M  V30 15475 H 1437.32 -1.30513 -5.36349 0
M  V30 15476 H 1437.79 0.0847752 -4.39118 0
M  V30 15477 H 1438.4 -1.53278 -3.96719 0
M  V30 15478 N 1436.71 1.32449 -0.85411 0
M  V30 15479 C 1437.96 1.96537 -0.453451 0
M  V30 15480 C 1438.28 1.68344 0.995982 0
M  V30 15481 O 1439.48 2.26166 1.50204 0
M  V30 15482 C 1437.94 3.51785 -0.759934 0
M  V30 15483 C 1437.55 3.88838 -2.22506 0
M  V30 15484 C 1439.29 4.22347 -0.426973 0
M  V30 15485 C 1437.2 5.37129 -2.47479 0
M  V30 15486 H 1436.13 0.735537 -0.165835 0
M  V30 15487 H 1438.78 1.50851 -1.04481 0
M  V30 15488 H 1437.16 3.95879 -0.0980116 0
M  V30 15489 H 1438.33 3.55756 -2.92873 0
M  V30 15490 H 1436.65 3.31299 -2.52249 0
M  V30 15491 H 1439.25 5.31424 -0.590986 0
M  V30 15492 H 1439.59 4.11485 0.631359 0
M  V30 15493 H 1440.12 3.83835 -1.04477 0
M  V30 15494 H 1436.86 5.53012 -3.51935 0
M  V30 15495 H 1436.38 5.71619 -1.8169 0
M  V30 15496 H 1438.06 6.04204 -2.31401 0
M  V30 15497 N 1438.19 0.611994 1.45232 0
M  V30 15498 C 1439.6 0.193464 1.85695 0
M  V30 15499 C 1439.95 -1.25069 1.5117 0
M  V30 15500 O 1439.08 -1.94894 0.940497 0
M  V30 15501 C 1439.67 0.344334 3.37046 0
M  V30 15502 C 1438.23 -0.0195378 3.76395 0
M  V30 15503 C 1437.38 0.666714 2.69166 0
M  V30 15504 H 1440.33 0.818395 1.35971 0
M  V30 15505 H 1440.35 -0.422209 3.7815 0
M  V30 15506 H 1439.86 1.3955 3.62143 0
M  V30 15507 H 1437.96 -1.06971 3.56915 0
M  V30 15508 H 1438.08 0.377184 4.77613 0
M  V30 15509 H 1436.44 0.103912 2.54488 0
M  V30 15510 H 1437.22 1.7201 2.97099 0
M  V30 15511 N 1439.67 -1.53632 0.351409 0
M  V30 15512 C 1440.95 -1.93311 -0.298362 0
M  V30 15513 C 1441.33 -1.28369 -1.67584 0
M  V30 15514 O 1440.67 -0.437514 -2.24272 0
M  V30 15515 C 1440.88 -3.47109 -0.362773 0
M  V30 15516 C 1442.23 -4.20197 -0.609878 0
M  V30 15517 O 1443.26 -3.53415 -0.444566 0
M  V30 15518 O 1442.12 -5.38517 -0.930691 0
M  V30 15519 H 1439.21 -0.808112 -0.175739 0
M  V30 15520 H 1441.76 -1.64841 0.40316 0
M  V30 15521 H 1440.53 -3.86617 0.60357 0
M  V30 15522 H 1440.15 -3.81769 -1.11076 0
M  V30 15523 N 1441.15 -0.0802183 -1.57396 0
M  V30 15524 C 1442.39 0.587831 -1.94094 0
M  V30 15525 C 1442.73 1.6875 -0.961093 0
M  V30 15526 O 1442 1.94498 0.00832799 0
M  V30 15527 C 1442.28 1.15692 -3.41009 0
M  V30 15528 C 1442.14 0.0633211 -4.49755 0
M  V30 15529 C 1443.46 2.05987 -3.88918 0
M  V30 15530 H 1440.58 0.212214 -0.705786 0
M  V30 15531 H 1443.22 -0.147902 -1.89423 0
M  V30 15532 H 1441.37 1.78394 -3.4512 0
M  V30 15533 H 1443.04 -0.57019 -4.57763 0
M  V30 15534 H 1441.28 -0.605003 -4.2956 0
M  V30 15535 H 1441.95 0.502056 -5.49712 0
M  V30 15536 H 1444.43 1.5321 -3.86867 0
M  V30 15537 H 1443.31 2.42737 -4.92311 0
M  V30 15538 H 1443.57 2.97147 -3.27347 0
M  V30 15539 N 1442.63 1.56409 0.193394 0
M  V30 15540 C 1443.9 1.71559 0.93951 0
M  V30 15541 C 1444.28 0.635478 2.01308 0
M  V30 15542 O 1443.63 -0.353267 2.25753 0
M  V30 15543 C 1443.84 3.13948 1.52438 0
M  V30 15544 C 1445.19 3.74234 2.00585 0
M  V30 15545 O 1446.21 3.17088 1.62277 0
M  V30 15546 O 1445.07 4.74529 2.71081 0
M  V30 15547 H 1442.17 0.69979 0.440707 0
M  V30 15548 H 1444.71 1.68711 0.182957 0
M  V30 15549 H 1443.48 3.84033 0.750613 0
M  V30 15550 H 1443.11 3.21032 2.34572 0
M  V30 15551 N 1444.1 -0.461169 1.50702 0
M  V30 15552 C 1445.35 -1.21431 1.62427 0
M  V30 15553 C 1445.68 -1.91406 0.328228 0
M  V30 15554 O 1444.96 -1.82563 -0.670898 0
M  V30 15555 C 1445.24 -2.25016 2.8114 0
M  V30 15556 C 1445.09 -1.5928 4.20654 0
M  V30 15557 C 1446.41 -3.26234 2.95397 0
M  V30 15558 H 1443.53 -0.440113 0.59116 0
M  V30 15559 H 1446.17 -0.506726 1.83118 0
M  V30 15560 H 1444.32 -2.85363 2.63629 0
M  V30 15561 H 1446 -1.02454 4.49779 0
M  V30 15562 H 1444.24 -0.895665 4.24453 0
M  V30 15563 H 1444.91 -2.34602 4.99666 0
M  V30 15564 H 1447.39 -2.7592 3.1146 0
M  V30 15565 H 1446.26 -3.96031 3.80067 0
M  V30 15566 H 1446.52 -3.90943 2.06436 0
M  V30 15567 N 1445.58 -1.40446 -0.715026 0
M  V30 15568 C 1446.49 -1.43074 -1.85922 0
M  V30 15569 C 1447.51 -0.323294 -1.7097 0
M  V30 15570 O 1448.68 -0.567966 -1.93226 0
M  V30 15571 C 1445.75 -1.29206 -3.21725 0
M  V30 15572 C 1444.81 -2.50097 -3.48927 0
M  V30 15573 C 1444.04 -2.36881 -4.7825 0
M  V30 15574 O 1444.27 -1.38292 -5.53382 0
M  V30 15575 O 1443.2 -3.26266 -5.058 0
M  V30 15576 H 1447.03 -2.39565 -1.86661 0
M  V30 15577 H 1444.61 -1.21775 -0.865522 0
M  V30 15578 H 1446.49 -1.23681 -4.02841 0
M  V30 15579 H 1445.17 -0.358207 -3.21712 0
M  V30 15580 H 1444.07 -2.61199 -2.67817 0
M  V30 15581 H 1445.41 -3.42244 -3.53737 0
M  V30 15582 N 1447.06 0.947303 -1.25952 0
M  V30 15583 C 1447.97 2.07878 -1.08738 0
M  V30 15584 C 1448.99 1.73985 -0.0225212 0
M  V30 15585 O 1450.16 2.00139 -0.224984 0
M  V30 15586 C 1447.23 3.39231 -0.715756 0
M  V30 15587 C 1446.29 3.86945 -1.85935 0
M  V30 15588 C 1445.52 5.1203 -1.50537 0
M  V30 15589 O 1445.74 5.68965 -0.404323 0
M  V30 15590 O 1444.68 5.54634 -2.33805 0
M  V30 15591 H 1448.5 2.25305 -2.03645 0
M  V30 15592 H 1446.09 1.06321 -1.04958 0
M  V30 15593 H 1447.97 4.18167 -0.520962 0
M  V30 15594 H 1446.65 3.23057 0.203978 0
M  V30 15595 H 1445.55 3.08981 -2.10906 0
M  V30 15596 H 1446.89 4.0763 -2.75859 0
M  V30 15597 N 1448.54 1.07657 1.15099 0
M  V30 15598 C 1449.5 0.703558 2.18135 0
M  V30 15599 C 1450.5 -0.257771 1.5872 0
M  V30 15600 O 1451.69 -0.0383211 1.74158 0
M  V30 15601 C 1448.82 0.0374978 3.40879 0
M  V30 15602 H 1450.02 1.61583 2.52648 0
M  V30 15603 H 1447.57 0.873484 1.29615 0
M  V30 15604 H 1448.3 -0.886868 3.11938 0
M  V30 15605 H 1448.09 0.728961 3.85264 0
M  V30 15606 H 1449.58 -0.208714 4.17078 0
M  V30 15607 N 1450.02 -1.31994 0.861122 0
M  V30 15608 C 1451.26 -1.97317 0.468371 0
M  V30 15609 C 1451.6 -1.67954 -0.974941 0
M  V30 15610 O 1450.87 -0.971243 -1.68514 0
M  V30 15611 C 1451.15 -3.52918 0.715607 0
M  V30 15612 C 1451.01 -3.91888 2.20781 0
M  V30 15613 C 1452.33 -4.39747 0.17624 0
M  V30 15614 H 1449.44 -0.716733 0.171646 0
M  V30 15615 H 1452.09 -1.56269 1.08074 0
M  V30 15616 H 1450.24 -3.88013 0.194387 0
M  V30 15617 H 1451.91 -3.66938 2.7956 0
M  V30 15618 H 1450.15 -3.40813 2.68382 0
M  V30 15619 H 1450.82 -5.00346 2.33147 0
M  V30 15620 H 1453.3 -4.11424 0.622043 0
M  V30 15621 H 1452.17 -5.47592 0.378748 0
M  V30 15622 H 1452.44 -4.32393 -0.921358 0
M  V30 15623 N 1451.49 -0.619688 -1.44906 0
M  V30 15624 C 1452.42 0.0791121 -2.33366 0
M  V30 15625 C 1453.41 0.846503 -1.47541 0
M  V30 15626 O 1454.59 0.814657 -1.76287 0
M  V30 15627 C 1451.72 1.06901 -3.30438 0
M  V30 15628 C 1450.67 0.41403 -4.25993 0
M  V30 15629 C 1450 1.51303 -5.12846 0
M  V30 15630 C 1451.3 -0.672483 -5.17953 0
M  V30 15631 H 1452.99 -0.659551 -2.92045 0
M  V30 15632 H 1450.54 -0.318623 -1.40431 0
M  V30 15633 H 1452.49 1.56653 -3.912 0
M  V30 15634 H 1451.22 1.83842 -2.69944 0
M  V30 15635 H 1449.88 -0.0627315 -3.66546 0
M  V30 15636 H 1449.52 2.27303 -4.48712 0
M  V30 15637 H 1449.22 1.08022 -5.77586 0
M  V30 15638 H 1450.75 2.01258 -5.76479 0
M  V30 15639 H 1452.16 -0.258542 -5.72717 0
M  V30 15640 H 1450.56 -1.02776 -5.91234 0
M  V30 15641 H 1451.63 -1.54425 -4.59653 0
M  V30 15642 N 1452.97 1.53444 -0.359552 0
M  V30 15643 C 1454.22 2.00769 0.231564 0
M  V30 15644 C 1454.54 1.2487 1.49775 0
M  V30 15645 O 1453.81 0.360284 1.92558 0
M  V30 15646 H 1452.39 0.741732 0.0885581 0
M  V30 15647 H 1455.05 1.88785 -0.484397 0
M  V30 15648 H 1454.15 3.0865 0.462789 0
M  V30 15649 N 1454.45 0.0885642 1.57351 0
M  V30 15650 C 1455.38 -0.902617 2.10679 0
M  V30 15651 C 1456.4 -1.25037 1.04257 0
M  V30 15652 O 1457.58 -1.20462 1.31723 0
M  V30 15653 C 1454.68 -2.21362 2.56616 0
M  V30 15654 C 1453.86 -2.04219 3.86799 0
M  V30 15655 C 1452.92 -3.18774 4.18652 0
M  V30 15656 O 1451.94 -2.93024 4.87981 0
M  V30 15657 N 1453.14 -4.44357 3.73534 0
M  V30 15658 H 1455.91 -0.447199 2.96345 0
M  V30 15659 H 1453.47 -0.0967178 1.61611 0
M  V30 15660 H 1455.46 -2.96935 2.74976 0
M  V30 15661 H 1454.03 -2.58349 1.75996 0
M  V30 15662 H 1453.25 -1.13015 3.77652 0
M  V30 15663 H 1454.54 -1.90035 4.71979 0
M  V30 15664 H 1453.94 -4.68159 3.17558 0
M  V30 15665 H 1452.5 -5.169 3.97061 0
M  V30 15666 N 1455.93 -1.56509 -0.185096 0
M  V30 15667 C 1457.16 -1.85058 -0.918527 0
M  V30 15668 C 1457.57 -0.670181 -1.76933 0
M  V30 15669 O 1456.91 0.370215 -1.79931 0
M  V30 15670 C 1456.97 -3.07843 -1.85669 0
M  V30 15671 C 1456.64 -4.41319 -1.18686 0
M  V30 15672 C 1457.63 -5.16887 -0.558946 0
M  V30 15673 C 1455.32 -4.88056 -1.18773 0
M  V30 15674 C 1457.31 -6.37373 0.0591595 0
M  V30 15675 C 1455 -6.08475 -0.565791 0
M  V30 15676 C 1456 -6.82977 0.0565621 0
M  V30 15677 O 1455.68 -8.01114 0.668726 0
M  V30 15678 H 1455.42 -0.618423 -0.273001 0
M  V30 15679 H 1457.97 -2.04479 -0.194261 0
M  V30 15680 H 1456.2 -2.84332 -2.62092 0
M  V30 15681 H 1457.89 -3.22954 -2.45877 0
M  V30 15682 H 1458.66 -4.81867 -0.550347 0
M  V30 15683 H 1454.53 -4.30016 -1.66154 0
M  V30 15684 H 1458.08 -6.95464 0.545534 0
M  V30 15685 H 1453.98 -6.42961 -0.571927 0
M  V30 15686 H 1454.74 -8.16536 0.566616 0
M  V30 15687 N 1457.41 0.45317 -1.50944 0
M  V30 15688 C 1458.63 1.22672 -1.66611 0
M  V30 15689 C 1459.05 1.85398 -0.356814 0
M  V30 15690 O 1458.41 1.70026 0.663122 0
M  V30 15691 C 1458.46 2.32238 -2.77034 0
M  V30 15692 O 1458.18 1.72081 -4.02889 0
M  V30 15693 C 1459.68 3.22802 -3.03832 0
M  V30 15694 H 1456.9 0.370337 -0.559546 0
M  V30 15695 H 1459.44 0.538884 -1.97272 0
M  V30 15696 H 1457.6 2.96765 -2.49017 0
M  V30 15697 H 1458.01 2.4437 -4.64095 0
M  V30 15698 H 1459.49 3.95851 -3.84716 0
M  V30 15699 H 1459.96 3.82636 -2.15608 0
M  V30 15700 H 1460.57 2.63993 -3.33449 0
M  V30 15701 N 1458.88 1.40823 0.707568 0
M  V30 15702 C 1459.79 1.44058 1.85161 0
M  V30 15703 C 1460.81 0.332357 1.70796 0
M  V30 15704 O 1461.99 0.578205 1.92922 0
M  V30 15705 C 1459.05 1.3091 3.21035 0
M  V30 15706 C 1458.11 2.51944 3.47595 0
M  V30 15707 C 1457.35 2.39414 4.76987 0
M  V30 15708 O 1457.57 1.41224 5.52641 0
M  V30 15709 O 1456.5 3.28944 5.04063 0
M  V30 15710 H 1460.33 2.40551 1.85388 0
M  V30 15711 H 1457.91 1.22232 0.859052 0
M  V30 15712 H 1459.8 1.25816 4.02179 0
M  V30 15713 H 1458.47 0.375263 3.21517 0
M  V30 15714 H 1457.38 2.62615 2.66428 0
M  V30 15715 H 1458.71 3.44115 3.51917 0
M  V30 15716 N 1460.36 -0.94061 1.26453 0
M  V30 15717 C 1461.27 -2.07298 1.09839 0
M  V30 15718 C 1462.29 -1.73971 0.0317477 0
M  V30 15719 O 1463.46 -2.00017 0.235594 0
M  V30 15720 C 1460.53 -3.38847 0.733736 0
M  V30 15721 C 1459.59 -3.85954 1.87985 0
M  V30 15722 C 1458.82 -5.11224 1.5325 0
M  V30 15723 O 1459.05 -5.68743 0.434491 0
M  V30 15724 O 1457.98 -5.53386 2.36743 0
M  V30 15725 H 1461.81 -2.24222 2.04837 0
M  V30 15726 H 1459.39 -1.05763 1.0552 0
M  V30 15727 H 1461.27 -4.17885 0.543131 0
M  V30 15728 H 1459.95 -3.2316 -0.186843 0
M  V30 15729 H 1458.86 -3.07858 2.12542 0
M  V30 15730 H 1460.19 -4.06162 2.78017 0
M  V30 15731 N 1461.84 -1.08266 -1.14527 0
M  V30 15732 C 1463.25 -0.832702 -1.67102 0
M  V30 15733 C 1463.6 0.640776 -1.85441 0
M  V30 15734 O 1462.73 1.49505 -1.56452 0
M  V30 15735 C 1463.32 -1.50502 -3.03537 0
M  V30 15736 C 1461.88 -1.30234 -3.53152 0
M  V30 15737 C 1461.03 -1.56873 -2.28661 0
M  V30 15738 H 1463.98 -1.24344 -0.986118 0
M  V30 15739 H 1464 -0.931426 -3.68924 0
M  V30 15740 H 1463.51 -2.57741 -2.90157 0
M  V30 15741 H 1461.61 -0.250582 -3.71756 0
M  V30 15742 H 1461.73 -2.02898 -4.34015 0
M  V30 15743 H 1460.09 -0.990214 -2.34663 0
M  V30 15744 H 1460.87 -2.65316 -2.17859 0
M  V30 15745 N 1463.32 1.31536 -0.86811 0
M  V30 15746 C 1464.25 2.31037 -0.33822 0
M  V30 15747 C 1465.23 1.60269 0.569892 0
M  V30 15748 O 1466.42 1.87987 0.487305 0
M  V30 15749 C 1463.55 3.44203 0.462753 0
M  V30 15750 C 1462.5 4.26549 -0.3521 0
M  V30 15751 C 1461.83 5.31605 0.574443 0
M  V30 15752 C 1463.13 4.97665 -1.58516 0
M  V30 15753 H 1464.82 2.75607 -1.16967 0
M  V30 15754 H 1462.37 1.325 -0.56389 0
M  V30 15755 H 1464.32 4.12862 0.843967 0
M  V30 15756 H 1463.04 2.98396 1.32769 0
M  V30 15757 H 1461.7 3.59555 -0.715237 0
M  V30 15758 H 1461.35 4.82048 1.43661 0
M  V30 15759 H 1461.05 5.87591 0.0331436 0
M  V30 15760 H 1462.57 6.03124 0.952541 0
M  V30 15761 H 1463.99 5.58931 -1.27549 0
M  V30 15762 H 1462.38 5.63437 -2.06539 0
M  V30 15763 H 1463.45 4.24756 -2.33902 0
M  V30 15764 N 1464.8 0.627364 1.44575 0
M  V30 15765 C 1466.02 0.135576 2.06956 0
M  V30 15766 C 1466.45 -1.17922 1.46547 0
M  V30 15767 O 1465.81 -1.72255 0.565509 0
M  V30 15768 C 1465.85 0.030347 3.60587 0
M  V30 15769 O 1464.96 -1.01464 3.99724 0
M  V30 15770 H 1464.3 0.083058 0.658785 0
M  V30 15771 H 1466.83 0.862977 1.8551 0
M  V30 15772 H 1466.84 -0.161461 4.0768 0
M  V30 15773 H 1465.51 0.990285 4.03938 0
M  V30 15774 H 1464.09 -0.797701 3.64268 0
M  V30 15775 N 1466.28 -1.53251 0.367684 0
M  V30 15776 C 1467.21 -2.23396 -0.512539 0
M  V30 15777 C 1468.22 -1.2488 -1.04446 0
M  V30 15778 O 1469.41 -1.5109 -0.950477 0
M  V30 15779 C 1466.51 -2.91971 -1.72064 0
M  V30 15780 C 1465.68 -4.17011 -1.31986 0
M  V30 15781 C 1464.74 -4.68779 -2.39025 0
M  V30 15782 O 1463.77 -5.32405 -2.01328 0
M  V30 15783 N 1464.97 -4.46773 -3.7064 0
M  V30 15784 H 1467.73 -2.9957 0.0883152 0
M  V30 15785 H 1465.3 -1.60746 0.192966 0
M  V30 15786 H 1467.29 -3.23511 -2.43152 0
M  V30 15787 H 1465.86 -2.19237 -2.22831 0
M  V30 15788 H 1465.08 -3.91751 -0.438732 0
M  V30 15789 H 1466.37 -4.98298 -1.02842 0
M  V30 15790 H 1465.76 -3.95938 -4.04042 0
M  V30 15791 H 1464.32 -4.82857 -4.37827 0
M  V30 15792 N 1467.75 -0.0969077 -1.57302 0
M  V30 15793 C 1468.66 0.875561 -2.17649 0
M  V30 15794 C 1469.68 1.30892 -1.14645 0
M  V30 15795 O 1470.86 1.37646 -1.47022 0
M  V30 15796 C 1467.92 2.116 -2.74639 0
M  V30 15797 C 1466.98 1.73667 -3.92604 0
M  V30 15798 C 1466.21 2.91798 -4.46867 0
M  V30 15799 O 1466.44 4.06577 -4.00064 0
M  V30 15800 O 1465.37 2.70159 -5.37864 0
M  V30 15801 H 1469.2 0.392107 -3.01158 0
M  V30 15802 H 1466.78 0.127539 -1.48855 0
M  V30 15803 H 1468.66 2.84292 -3.11057 0
M  V30 15804 H 1467.34 2.58994 -1.94174 0
M  V30 15805 H 1466.25 0.981505 -3.60995 0
M  V30 15806 H 1467.58 1.31035 -4.74437 0
M  V30 15807 N 1469.23 1.56605 0.176793 0
M  V30 15808 C 1470.64 1.71418 0.739775 0
M  V30 15809 C 1470.99 0.706527 1.83037 0
M  V30 15810 O 1470.12 -0.133259 2.15989 0
M  V30 15811 C 1470.71 3.10799 1.34867 0
M  V30 15812 C 1469.27 3.27315 1.85854 0
M  V30 15813 C 1468.42 2.67371 0.73541 0
M  V30 15814 H 1471.37 1.58626 -0.0485305 0
M  V30 15815 H 1471.39 3.09146 2.21831 0
M  V30 15816 H 1470.9 3.84116 0.554688 0
M  V30 15817 H 1469 2.58947 2.67913 0
M  V30 15818 H 1469.12 4.35002 2.00774 0
M  V30 15819 H 1467.48 2.27035 1.15444 0
M  V30 15820 H 1468.26 3.43268 -0.0466351 0
M  V30 15821 N 1470.71 -0.445159 1.51182 0
M  V30 15822 C 1471.93 -1.22249 1.67541 0
M  V30 15823 C 1472.36 -1.84446 0.368972 0
M  V30 15824 O 1471.72 -1.68463 -0.670058 0
M  V30 15825 C 1471.77 -2.288 2.78717 0
M  V30 15826 O 1470.87 -3.34094 2.41775 0
M  V30 15827 H 1470.21 -0.358516 0.558894 0
M  V30 15828 H 1472.74 -0.526696 1.97704 0
M  V30 15829 H 1472.75 -2.73708 3.02569 0
M  V30 15830 H 1471.43 -1.82906 3.73521 0
M  V30 15831 H 1470 -2.94717 2.28466 0
M  V30 15832 N 1472.19 -1.41197 -0.700089 0
M  V30 15833 C 1473.43 -1.40519 -1.46227 0
M  V30 15834 C 1473.77 -0.0126108 -1.94196 0
M  V30 15835 O 1473.04 0.958837 -1.69223 0
M  V30 15836 C 1473.32 -2.40808 -2.67738 0
M  V30 15837 C 1473.18 -3.89154 -2.25563 0
M  V30 15838 C 1474.5 -2.38415 -3.69927 0
M  V30 15839 H 1471.62 -0.511724 -0.530384 0
M  V30 15840 H 1474.26 -1.72441 -0.797754 0
M  V30 15841 H 1472.41 -2.13717 -3.24434 0
M  V30 15842 H 1474.08 -4.27132 -1.74229 0
M  V30 15843 H 1472.32 -4.04239 -1.57395 0
M  V30 15844 H 1472.99 -4.54866 -3.12731 0
M  V30 15845 H 1475.47 -2.62447 -3.22895 0
M  V30 15846 H 1474.35 -3.10609 -4.52563 0
M  V30 15847 H 1474.61 -1.40116 -4.19309 0
M  V30 15848 N 1473.67 0.933891 -1.2695 0
M  V30 15849 C 1474.94 1.65874 -1.0366 0
M  V30 15850 C 1475.32 2.0666 0.43066 0
M  V30 15851 O 1474.67 1.79606 1.41259 0
M  V30 15852 C 1474.88 2.86546 -1.99229 0
M  V30 15853 C 1476.23 3.58031 -2.28251 0
M  V30 15854 O 1477.25 2.96663 -1.97154 0
M  V30 15855 O 1476.11 4.68583 -2.81233 0
M  V30 15856 H 1473.21 0.72673 -0.394706 0
M  V30 15857 H 1475.75 0.984975 -1.38189 0
M  V30 15858 H 1474.52 2.53351 -2.9821 0
M  V30 15859 H 1474.15 3.61645 -1.65224 0
M  V30 15860 N 1475.14 1.08871 1.13951 0
M  V30 15861 C 1476.11 0.726655 2.17376 0
M  V30 15862 C 1477.11 -0.240922 1.58985 0
M  V30 15863 O 1478.3 -0.0198472 1.74189 0
M  V30 15864 C 1475.43 0.0736505 3.4082 0
M  V30 15865 H 1476.62 1.64254 2.5092 0
M  V30 15866 H 1474.17 0.887183 1.28681 0
M  V30 15867 H 1474.91 -0.853733 3.12861 0
M  V30 15868 H 1474.69 0.769782 3.84469 0
M  V30 15869 H 1476.18 -0.164465 4.17276 0
M  V30 15870 N 1476.62 -1.31073 0.875073 0
M  V30 15871 C 1477.87 -1.9613 0.487584 0
M  V30 15872 C 1478.19 -1.69482 -0.964407 0
M  V30 15873 O 1477.46 -1.013 -1.67676 0
M  V30 15874 H 1476.04 -0.725649 0.177319 0
M  V30 15875 H 1478.7 -1.59787 1.11598 0
M  V30 15876 H 1477.8 -3.05265 0.649574 0
M  V30 15877 N 1478.1 -0.635022 -1.4424 0
M  V30 15878 C 1479.35 -0.141276 -2.02307 0
M  V30 15879 C 1479.68 1.23508 -1.49865 0
M  V30 15880 O 1478.95 1.82065 -0.684291 0
M  V30 15881 C 1479.24 -0.132196 -3.59857 0
M  V30 15882 C 1479.09 -1.54117 -4.22573 0
M  V30 15883 C 1480.41 0.541186 -4.3676 0
M  V30 15884 H 1477.53 -0.0528117 -0.735105 0
M  V30 15885 H 1480.17 -0.812239 -1.71763 0
M  V30 15886 H 1478.32 0.439156 -3.8601 0
M  V30 15887 H 1479.99 -2.16171 -4.07514 0
M  V30 15888 H 1478.24 -2.09389 -3.79919 0
M  V30 15889 H 1478.91 -1.48682 -5.31599 0
M  V30 15890 H 1481.38 0.0552603 -4.16063 0
M  V30 15891 H 1480.26 0.516742 -5.46462 0
M  V30 15892 H 1480.52 1.61222 -4.11655 0
M  V30 15893 N 1479.58 1.53054 -0.375806 0
M  V30 15894 C 1480.86 1.93761 0.26757 0
M  V30 15895 C 1481.24 1.31019 1.65521 0
M  V30 15896 O 1480.58 0.473138 2.23548 0
M  V30 15897 C 1480.79 3.47643 0.307505 0
M  V30 15898 C 1482.14 4.21114 0.542951 0
M  V30 15899 O 1483.17 3.54077 0.388285 0
M  V30 15900 O 1482.02 5.39929 0.8449 0
M  V30 15901 H 1479.12 0.810805 0.16286 0
M  V30 15902 H 1481.66 1.64179 -0.429334 0
M  V30 15903 H 1480.44 3.85608 -0.665001 0
M  V30 15904 H 1480.06 3.83488 1.04988 0
M  V30 15905 N 1481.06 0.105248 1.57248 0
M  V30 15906 C 1482.3 -0.559306 1.96599 0
M  V30 15907 C 1482.66 -1.64717 0.986529 0
M  V30 15908 O 1483.86 -2.36965 1.2689 0
M  V30 15909 C 1482.13 -1.09085 3.40346 0
M  V30 15910 S 1483.69 -1.76586 4.017 0
M  V30 15911 H 1480.51 -0.182213 0.687255 0
M  V30 15912 H 1483.11 0.187064 1.94603 0
M  V30 15913 H 1481.82 -0.287734 4.0939 0
M  V30 15914 H 1481.35 -1.87282 3.45961 0
M  V30 15915 H 1483.36 -3.05078 3.91334 0
M  V30 15916 N 1482.53 -1.56697 -0.168486 0
M  V30 15917 C 1483.76 -1.86652 -0.904195 0
M  V30 15918 C 1484.18 -0.691906 -1.74912 0
M  V30 15919 O 1483.54 0.358971 -1.77711 0
M  V30 15920 C 1483.59 -3.15043 -1.75442 0
M  V30 15921 O 1482.69 -2.97466 -2.85636 0
M  V30 15922 H 1482.04 -0.613859 -0.253128 0
M  V30 15923 H 1484.57 -2.03927 -0.165773 0
M  V30 15924 H 1484.58 -3.4652 -2.15378 0
M  V30 15925 H 1483.25 -4.00147 -1.13381 0
M  V30 15926 H 1481.83 -2.7735 -2.49262 0
M  V30 15927 N 1484.01 0.437135 -1.51416 0
M  V30 15928 C 1485.24 1.21359 -1.68187 0
M  V30 15929 C 1485.66 1.84247 -0.378748 0
M  V30 15930 O 1485.02 1.68816 0.661115 0
M  V30 15931 C 1485.07 2.27319 -2.79926 0
M  V30 15932 O 1484.17 3.32807 -2.43543 0
M  V30 15933 H 1483.51 0.355547 -0.560787 0
M  V30 15934 H 1486.04 0.516204 -1.97981 0
M  V30 15935 H 1486.05 2.721 -3.04016 0
M  V30 15936 H 1484.73 1.80923 -3.74486 0
M  V30 15937 H 1483.31 2.93501 -2.30025 0
M  V30 15938 N 1485.49 1.41566 0.692592 0
M  V30 15939 C 1486.74 1.40381 1.44831 0
M  V30 15940 C 1487.05 0.0172068 1.95592 0
M  V30 15941 O 1488.26 -0.11726 2.71247 0
M  V30 15942 C 1486.71 2.46844 2.61908 0
M  V30 15943 C 1486.32 3.91426 2.17921 0
M  V30 15944 C 1488.07 2.548 3.39525 0
M  V30 15945 C 1485.97 4.89436 3.31974 0
M  V30 15946 H 1484.9 0.522062 0.544028 0
M  V30 15947 H 1487.55 1.67402 0.751589 0
M  V30 15948 H 1485.94 2.12959 3.33863 0
M  V30 15949 H 1487.11 4.34575 1.53236 0
M  V30 15950 H 1485.43 3.87158 1.5329 0
M  V30 15951 H 1488.02 3.25207 4.24434 0
M  V30 15952 H 1488.37 1.58579 3.84913 0
M  V30 15953 H 1488.9 2.87791 2.74629 0
M  V30 15954 H 1485.64 5.87071 2.91595 0
M  V30 15955 H 1485.16 4.50933 3.95499 0
M  V30 15956 H 1486.84 5.10331 3.97708 0
M  V30 15957 N 1486.97 -0.927146 1.27443 0
M  V30 15958 C 1488.22 -1.67159 1.13589 0
M  V30 15959 C 1488.54 -1.92379 -0.31865 0
M  V30 15960 O 1487.81 -1.53045 -1.22287 0
M  V30 15961 H 1486.39 -0.619524 0.417371 0
M  V30 15962 H 1489.05 -1.11323 1.59979 0
M  V30 15963 H 1488.15 -2.63954 1.66537 0
M  V30 15964 N 1488.45 -1.09474 -1.13372 0
M  V30 15965 C 1489.69 -0.82945 -1.84295 0
M  V30 15966 C 1490.02 0.646788 -1.83961 0
M  V30 15967 O 1489.29 1.46929 -1.29572 0
M  V30 15968 H 1487.87 -0.303853 -0.682409 0
M  V30 15969 H 1490.53 -1.38298 -1.3733 0
M  V30 15970 H 1489.62 -1.18342 -2.88793 0
M  V30 15971 N 1489.92 1.30607 -0.882012 0
M  V30 15972 C 1491.17 1.96547 -0.499703 0
M  V30 15973 C 1491.5 1.69484 0.948098 0
M  V30 15974 O 1490.78 0.997929 1.66948 0
M  V30 15975 C 1491.06 3.51735 -0.771662 0
M  V30 15976 C 1490.91 3.88326 -2.26987 0
M  V30 15977 C 1492.23 4.39411 -0.246178 0
M  V30 15978 H 1489.35 0.713912 -0.183026 0
M  V30 15979 H 1491.99 1.5453 -1.10546 0
M  V30 15980 H 1490.14 3.87655 -0.256092 0
M  V30 15981 H 1491.82 3.62444 -2.85362 0
M  V30 15982 H 1490.06 3.36501 -2.7377 0
M  V30 15983 H 1490.73 4.96574 -2.41078 0
M  V30 15984 H 1493.21 4.10382 -0.687419 0
M  V30 15985 H 1492.08 5.4692 -0.465817 0
M  V30 15986 H 1492.34 4.33804 0.852452 0
M  V30 15987 N 1491.4 0.642663 1.43901 0
M  V30 15988 C 1492.81 0.232809 1.85243 0
M  V30 15989 C 1493.16 -1.21834 1.53789 0
M  V30 15990 O 1492.29 -1.92855 0.981625 0
M  V30 15991 C 1492.88 0.415749 3.36239 0
M  V30 15992 C 1491.44 0.0603055 3.76352 0
M  V30 15993 C 1490.59 0.723658 2.67691 0
M  V30 15994 H 1493.54 0.847052 1.34204 0
M  V30 15995 H 1493.56 -0.341903 3.78961 0
M  V30 15996 H 1493.07 1.472 3.59101 0
M  V30 15997 H 1491.18 -0.993761 3.59103 0
M  V30 15998 H 1491.29 0.478408 4.76705 0
M  V30 15999 H 1489.65 0.15787 2.5421 0
M  V30 16000 H 1490.44 1.78273 2.93383 0
M  V30 16001 N 1492.88 -1.52852 0.383918 0
M  V30 16002 C 1494.13 -2.0151 -0.199989 0
M  V30 16003 C 1494.46 -1.27058 -1.47263 0
M  V30 16004 O 1493.71 -0.357819 -1.92401 0
M  V30 16005 C 1494.01 -3.53602 -0.519674 0
M  V30 16006 C 1493.68 -4.46032 0.660789 0
M  V30 16007 C 1492.34 -4.71018 0.984646 0
M  V30 16008 C 1494.69 -5.00602 1.45077 0
M  V30 16009 C 1492.02 -5.47824 2.10013 0
M  V30 16010 C 1494.37 -5.78627 2.55682 0
M  V30 16011 C 1493.03 -6.01894 2.88582 0
M  V30 16012 H 1492.3 -0.737377 -0.0731812 0
M  V30 16013 H 1494.95 -1.843 0.520157 0
M  V30 16014 H 1493.26 -3.68856 -1.32108 0
M  V30 16015 H 1494.95 -3.88739 -0.984011 0
M  V30 16016 H 1491.54 -4.26745 0.398359 0
M  V30 16017 H 1495.73 -4.81228 1.21381 0
M  V30 16018 H 1490.98 -5.64066 2.3588 0
M  V30 16019 H 1495.16 -6.19914 3.173 0
M  V30 16020 H 1492.78 -6.61192 3.75138 0
M  V30 16021 N 1494.36 -0.113586 -1.5719 0
M  V30 16022 C 1495.61 0.54572 -1.95008 0
M  V30 16023 C 1495.93 1.67031 -0.996541 0
M  V30 16024 O 1495.19 1.9569 -0.0194353 0
M  V30 16025 C 1495.49 1.1238 -3.39272 0
M  V30 16026 C 1495.15 0.12112 -4.50737 0
M  V30 16027 C 1493.82 -0.154607 -4.80952 0
M  V30 16028 C 1496.17 -0.562502 -5.18156 0
M  V30 16029 C 1493.5 -1.12033 -5.75904 0
M  V30 16030 C 1495.85 -1.51682 -6.14146 0
M  V30 16031 C 1494.51 -1.80059 -6.42756 0
M  V30 16032 H 1493.78 0.199693 -0.713585 0
M  V30 16033 H 1496.43 -0.193344 -1.90521 0
M  V30 16034 H 1494.73 1.93951 -3.40426 0
M  V30 16035 H 1496.43 1.64195 -3.65843 0
M  V30 16036 H 1493.02 0.34621 -4.27199 0
M  V30 16037 H 1497.21 -0.362645 -4.94973 0
M  V30 16038 H 1492.46 -1.34699 -5.96377 0
M  V30 16039 H 1496.64 -2.05225 -6.65474 0
M  V30 16040 H 1494.26 -2.55046 -7.16139 0
M  V30 16041 N 1495.84 1.56784 0.160173 0
M  V30 16042 C 1496.77 1.93848 1.22293 0
M  V30 16043 C 1497.78 0.832803 1.39886 0
M  V30 16044 O 1498.97 1.11124 1.39692 0
M  V30 16045 C 1496.07 2.18581 2.58989 0
M  V30 16046 C 1495.24 3.49839 2.62548 0
M  V30 16047 C 1494.3 3.63268 3.80687 0
M  V30 16048 O 1493.33 4.35785 3.6617 0
M  V30 16049 N 1494.53 2.98948 4.97605 0
M  V30 16050 H 1497.3 2.85614 0.908004 0
M  V30 16051 H 1494.86 1.58075 0.349851 0
M  V30 16052 H 1496.85 2.24819 3.36509 0
M  V30 16053 H 1495.42 1.33145 2.82827 0
M  V30 16054 H 1494.64 3.5516 1.7104 0
M  V30 16055 H 1495.93 4.3619 2.61945 0
M  V30 16056 H 1495.33 2.39924 5.12302 0
M  V30 16057 H 1493.88 3.10765 5.72947 0
M  V30 16058 N 1497.32 -0.429099 1.51646 0
M  V30 16059 C 1498.27 -1.52004 1.69937 0
M  V30 16060 C 1499.25 -1.51087 0.5533 0
M  V30 16061 O 1500.44 -1.57401 0.809558 0
M  V30 16062 C 1497.57 -2.90123 1.83531 0
M  V30 16063 C 1496.66 -2.95764 3.03948 0
M  V30 16064 N 1497.05 -2.71135 4.26989 0
M  V30 16065 C 1495.35 -3.26927 3.03372 0
M  V30 16066 C 1496.05 -2.82831 5.08312 0
M  V30 16067 N 1495.02 -3.14856 4.43133 0
M  V30 16068 H 1498.82 -1.31726 2.62727 0
M  V30 16069 H 1496.34 -0.63653 1.49406 0
M  V30 16070 H 1498.34 -3.68618 1.94747 0
M  V30 16071 H 1497 -3.11415 0.919285 0
M  V30 16072 H 1498.01 -2.45906 4.55797 0
M  V30 16073 H 1494.68 -3.53941 2.21432 0
M  V30 16074 H 1496.07 -2.67673 6.1628 0
M  V30 16075 N 1498.79 -1.41931 -0.685074 0
M  V30 16076 C 1499.74 -1.44604 -1.79884 0
M  V30 16077 C 1500.71 -0.299166 -1.63384 0
M  V30 16078 O 1501.9 -0.501749 -1.84085 0
M  V30 16079 C 1499.04 -1.3442 -3.17845 0
M  V30 16080 C 1498.15 -2.59061 -3.45704 0
M  V30 16081 C 1497.28 -2.41094 -4.73336 0
M  V30 16082 C 1496.32 -3.61159 -4.94197 0
M  V30 16083 N 1495.46 -3.42198 -6.13062 0
M  V30 16084 H 1500.3 -2.39788 -1.76934 0
M  V30 16085 H 1497.84 -1.1906 -0.863891 0
M  V30 16086 H 1499.79 -1.26515 -3.97555 0
M  V30 16087 H 1498.42 -0.42838 -3.19945 0
M  V30 16088 H 1497.48 -2.77374 -2.60322 0
M  V30 16089 H 1498.79 -3.48341 -3.57016 0
M  V30 16090 H 1497.94 -2.30717 -5.61119 0
M  V30 16091 H 1496.68 -1.49288 -4.64289 0
M  V30 16092 H 1495.69 -3.7198 -4.04859 0
M  V30 16093 H 1496.91 -4.53933 -5.05096 0
M  V30 16094 H 1494.86 -2.531 -6.05208 0
M  V30 16095 H 1494.77 -4.25059 -6.25189 0
M  V30 16096 H 1496.04 -3.35612 -7.03551 0
M  V30 16097 N 1500.27 0.920374 -1.27933 0
M  V30 16098 C 1501.22 2.02196 -1.1129 0
M  V30 16099 C 1502.19 1.66096 -0.0118871 0
M  V30 16100 O 1503.37 1.8999 -0.175586 0
M  V30 16101 C 1500.51 3.36312 -0.77383 0
M  V30 16102 C 1499.63 3.85322 -1.95322 0
M  V30 16103 C 1498.76 5.07919 -1.55537 0
M  V30 16104 C 1497.8 5.49244 -2.7018 0
M  V30 16105 N 1496.94 6.63034 -2.30933 0
M  V30 16106 H 1501.78 2.15764 -2.05548 0
M  V30 16107 H 1499.31 1.05691 -1.02312 0
M  V30 16108 H 1501.27 4.13451 -0.558024 0
M  V30 16109 H 1499.9 3.22531 0.131806 0
M  V30 16110 H 1498.95 3.04399 -2.28135 0
M  V30 16111 H 1500.27 4.11915 -2.81296 0
M  V30 16112 H 1499.42 5.92581 -1.30123 0
M  V30 16113 H 1498.16 4.8312 -0.666818 0
M  V30 16114 H 1497.16 4.63127 -2.96299 0
M  V30 16115 H 1498.39 5.76035 -3.59667 0
M  V30 16116 H 1496.34 6.39878 -1.44539 0
M  V30 16117 H 1496.25 6.89319 -3.10444 0
M  V30 16118 H 1497.52 7.51018 -2.08786 0
M  V30 16119 N 1501.75 1.10074 1.1279 0
M  V30 16120 C 1502.97 0.863106 1.88587 0
M  V30 16121 C 1503.4 -0.580595 1.78915 0
M  V30 16122 O 1502.76 -1.40859 1.14142 0
M  V30 16123 C 1502.81 1.31142 3.35908 0
M  V30 16124 O 1501.91 0.474088 4.09666 0
M  V30 16125 H 1501.25 0.312034 0.586115 0
M  V30 16126 H 1503.78 1.46659 1.42662 0
M  V30 16127 H 1503.79 1.29974 3.86744 0
M  V30 16128 H 1502.47 2.36279 3.42265 0
M  V30 16129 H 1501.04 0.550665 3.68812 0
M  V30 16130 N 1503.23 -1.30138 0.888926 0
M  V30 16131 C 1504.18 -2.25598 0.33005 0
M  V30 16132 C 1505.16 -1.51434 -0.543751 0
M  V30 16133 O 1506.35 -1.72706 -0.387529 0
M  V30 16134 C 1503.48 -3.40326 -0.450925 0
M  V30 16135 C 1502.57 -4.21841 0.437187 0
M  V30 16136 N 1502.96 -4.81803 1.53947 0
M  V30 16137 C 1501.26 -4.45391 0.233015 0
M  V30 16138 C 1501.96 -5.42907 2.0887 0
M  V30 16139 N 1500.93 -5.25709 1.38314 0
M  V30 16140 H 1504.74 -2.6951 1.17224 0
M  V30 16141 H 1502.25 -1.44623 0.738771 0
M  V30 16142 H 1504.25 -4.07764 -0.867971 0
M  V30 16143 H 1502.91 -2.97953 -1.2905 0
M  V30 16144 H 1503.92 -4.80904 1.92229 0
M  V30 16145 H 1500.6 -4.13603 -0.569074 0
M  V30 16146 H 1501.99 -6.00478 3.01457 0
M  V30 16147 N 1504.71 -0.650285 -1.43559 0
M  V30 16148 C 1505.95 -0.162164 -2.01448 0
M  V30 16149 C 1506.27 1.22717 -1.51544 0
M  V30 16150 O 1505.54 1.81917 -0.726855 0
M  V30 16151 H 1504.12 -0.0569599 -0.744825 0
M  V30 16152 H 1506.79 -0.841294 -1.75807 0
M  V30 16153 H 1505.88 -0.144531 -3.11765 0
M  V30 16154 N 1506.18 1.52647 -0.392018 0
M  V30 16155 C 1507.13 2.26532 0.441819 0
M  V30 16156 C 1508.1 1.2825 1.05552 0
M  V30 16157 O 1509.29 1.57083 1.08303 0
M  V30 16158 C 1506.43 3.0774 1.56174 0
M  V30 16159 C 1505.54 4.20955 0.970632 0
M  V30 16160 C 1504.67 4.89553 2.06183 0
M  V30 16161 C 1503.71 5.94756 1.44676 0
M  V30 16162 N 1502.85 6.5694 2.47738 0
M  V30 16163 H 1507.69 2.97363 -0.194699 0
M  V30 16164 H 1505.23 1.46704 -0.107848 0
M  V30 16165 H 1507.18 3.53116 2.22183 0
M  V30 16166 H 1505.81 2.39112 2.16853 0
M  V30 16167 H 1504.87 3.79874 0.200067 0
M  V30 16168 H 1506.18 4.96474 0.481181 0
M  V30 16169 H 1505.33 5.38247 2.79956 0
M  V30 16170 H 1504.07 4.13564 2.58488 0
M  V30 16171 H 1503.08 5.45399 0.694288 0
M  V30 16172 H 1504.3 6.72679 0.931617 0
M  V30 16173 H 1502.25 5.8379 2.99208 0
M  V30 16174 H 1502.16 7.2808 2.03556 0
M  V30 16175 H 1503.43 7.10277 3.21133 0
M  V30 16176 N 1507.66 0.121921 1.57128 0
M  V30 16177 C 1508.94 -0.579087 1.86831 0
M  V30 16178 C 1509.32 -1.84623 1.0236 0
M  V30 16179 O 1508.67 -2.28266 0.103326 0
M  V30 16180 C 1508.88 -0.86872 3.38015 0
M  V30 16181 C 1510.23 -1.22051 4.0668 0
M  V30 16182 O 1511.25 -0.958889 3.43051 0
M  V30 16183 O 1510.11 -1.71164 5.19004 0
M  V30 16184 H 1507.2 -0.292539 0.773531 0
M  V30 16185 H 1509.75 0.156644 1.68975 0
M  V30 16186 H 1508.52 0.0291056 3.91289 0
M  V30 16187 H 1508.14 -1.65951 3.61312 0
M  V30 16188 N 1509.14 -1.56867 -0.151857 0
M  V30 16189 C 1510.09 -1.97899 -1.18763 0
M  V30 16190 C 1511.06 -0.845833 -1.42951 0
M  V30 16191 O 1512.24 -1.10751 -1.55367 0
M  V30 16192 C 1509.38 -2.36063 -2.5173 0
M  V30 16193 C 1508.5 -3.62647 -2.34757 0
M  V30 16194 C 1507.63 -3.89936 -3.60726 0
M  V30 16195 C 1506.67 -5.09806 -3.38769 0
M  V30 16196 N 1505.81 -5.33129 -4.56856 0
M  V30 16197 H 1510.65 -2.86187 -0.830713 0
M  V30 16198 H 1508.18 -1.41592 -0.398745 0
M  V30 16199 H 1510.14 -2.56218 -3.29254 0
M  V30 16200 H 1508.77 -1.50861 -2.85379 0
M  V30 16201 H 1507.82 -3.50297 -1.48312 0
M  V30 16202 H 1509.14 -4.50328 -2.1449 0
M  V30 16203 H 1508.29 -4.10563 -4.4668 0
M  V30 16204 H 1507.03 -3.00668 -3.83993 0
M  V30 16205 H 1506.03 -4.89057 -2.51203 0
M  V30 16206 H 1507.26 -6.00623 -3.16906 0
M  V30 16207 H 1505.2 -4.46815 -4.80305 0
M  V30 16208 H 1505.12 -6.1507 -4.39574 0
M  V30 16209 H 1506.39 -5.5825 -5.44038 0
M  V30 16210 N 1510.62 0.421051 -1.51871 0
M  V30 16211 C 1511.53 1.5371 -1.7723 0
M  V30 16212 C 1512.54 1.61109 -0.657256 0
M  V30 16213 O 1513.72 1.78047 -0.941343 0
M  V30 16214 C 1510.79 2.89555 -1.9068 0
M  V30 16215 C 1509.85 2.9214 -3.14567 0
M  V30 16216 C 1509.08 4.21505 -3.27367 0
M  V30 16217 O 1509.3 5.14764 -2.45712 0
M  V30 16218 O 1508.24 4.30706 -4.20448 0
M  V30 16219 H 1512.06 1.35221 -2.71935 0
M  V30 16220 H 1509.65 0.605712 -1.3657 0
M  V30 16221 H 1511.53 3.70147 -2.01418 0
M  V30 16222 H 1510.2 3.08137 -0.991627 0
M  V30 16223 H 1509.11 2.10444 -3.09296 0
M  V30 16224 H 1510.44 2.78505 -4.05827 0
M  V30 16225 N 1512.1 1.42293 0.677538 0
M  V30 16226 C 1513.04 1.45787 1.81243 0
M  V30 16227 C 1514.04 0.333895 1.66077 0
M  V30 16228 O 1515.24 0.50678 1.72719 0
M  V30 16229 H 1511.62 0.456538 0.597559 0
M  V30 16230 H 1513.59 2.41398 1.75413 0
M  V30 16231 C 1512.34 1.37449 3.19379 0
M  V30 16232 H 1511.66 2.23231 3.31674 0
M  V30 16233 H 1513.1 1.43955 3.98814 0
M  V30 16234 C 1511.56 0.0889433 3.36783 0
M  V30 16235 O 1512.09 -0.859357 3.924 0
M  V30 16236 N 1510.3 0.00698476 2.90599 0
M  V30 16237 H 1509.84 0.779459 2.45524 0
M  V30 16238 H 1509.8 -0.852522 3.02621 0
M  V30 16239 N 1513.57 -0.913576 1.28419 0
M  V30 16240 C 1514.99 -1.192 1.0613 0
M  V30 16241 C 1515.19 -2.00542 -0.196232 0
M  V30 16242 O 1514.25 -2.35998 -0.897853 0
M  V30 16243 C 1515.56 -1.92642 2.30889 0
M  V30 16244 C 1517.11 -2.05524 2.3607 0
M  V30 16245 C 1517.58 -2.82374 3.60595 0
M  V30 16246 N 1519.07 -2.89935 3.61236 0
M  V30 16247 C 1519.81 -3.49899 4.54266 0
M  V30 16248 N 1519.3 -4.11141 5.57615 0
M  V30 16249 N 1521.1 -3.4744 4.41862 0
M  V30 16250 H 1513.25 -0.370509 2.09143 0
M  V30 16251 H 1515.51 -0.226573 0.920526 0
M  V30 16252 H 1515.22 -1.40299 3.22504 0
M  V30 16253 H 1515.09 -2.93191 2.37316 0
M  V30 16254 H 1517.48 -2.57047 1.44951 0
M  V30 16255 H 1517.56 -1.0415 2.33637 0
M  V30 16256 H 1517.2 -2.3153 4.52058 0
M  V30 16257 H 1517.13 -3.84063 3.60282 0
M  V30 16258 H 1519.62 -2.46424 2.86502 0
M  V30 16259 H 1519.94 -4.54877 6.24746 0
M  V30 16260 H 1518.28 -4.09645 5.61441 0
M  V30 16261 H 1521.47 -2.98806 3.60323 0
M  V30 16262 H 1521.65 -3.9388 5.14551 0
M  V30 16263 N 1515.05 -1.1067 -1.12204 0
M  V30 16264 C 1516.3 -0.84895 -1.83405 0
M  V30 16265 C 1516.62 0.62724 -1.84637 0
M  V30 16266 O 1515.89 1.45546 -1.31123 0
M  V30 16267 H 1514.47 -0.311074 -0.679148 0
M  V30 16268 H 1517.13 -1.39747 -1.35856 0
M  V30 16269 H 1516.23 -1.21398 -2.87522 0
M  V30 16270 N 1516.53 1.29665 -0.895815 0
M  V30 16271 C 1517.78 1.94995 -0.515749 0
M  V30 16272 C 1518.09 1.71427 0.94192 0
M  V30 16273 O 1519.3 2.3083 1.42933 0
M  V30 16274 C 1517.75 3.4919 -0.871468 0
M  V30 16275 C 1517.36 3.81562 -2.34764 0
M  V30 16276 C 1519.11 4.20775 -0.561123 0
M  V30 16277 C 1517.01 5.28984 -2.64442 0
M  V30 16278 H 1515.94 0.729889 -0.189151 0
M  V30 16279 H 1518.59 1.4745 -1.09228 0
M  V30 16280 H 1516.98 3.95366 -0.223908 0
M  V30 16281 H 1518.15 3.46258 -3.04043 0
M  V30 16282 H 1516.47 3.23107 -2.62661 0
M  V30 16283 H 1519.06 5.29275 -0.759755 0
M  V30 16284 H 1519.41 4.13285 0.500129 0
M  V30 16285 H 1519.94 3.80317 -1.16635 0
M  V30 16286 H 1516.68 5.41535 -3.69351 0
M  V30 16287 H 1516.2 5.6555 -1.99784 0
M  V30 16288 H 1517.88 5.96536 -2.50506 0
M  V30 16289 N 1518.01 0.657889 1.43212 0
M  V30 16290 C 1518.96 -0.0427288 2.32561 0
M  V30 16291 C 1519.95 -0.808236 1.48875 0
M  V30 16292 O 1521.16 -0.718109 1.65055 0
M  V30 16293 H 1517.53 -0.0326049 0.751293 0
M  V30 16294 H 1519.5 0.728503 2.89371 0
M  V30 16295 C 1518.25 -0.99216 3.33244 0
M  V30 16296 H 1517.57 -0.412542 3.97666 0
M  V30 16297 H 1519.01 -1.45138 3.98385 0
M  V30 16298 C 1517.47 -2.09044 2.64201 0
M  V30 16299 O 1518 -3.17481 2.46107 0
M  V30 16300 N 1516.21 -1.85732 2.23499 0
M  V30 16301 H 1515.76 -0.975483 2.38416 0
M  V30 16302 H 1515.71 -2.5941 1.77634 0
M  V30 16303 N 1519.49 -1.52437 0.400108 0
M  V30 16304 C 1520.71 -2.0613 -0.178364 0
M  V30 16305 C 1521.13 -1.27094 -1.39616 0
M  V30 16306 O 1520.49 -0.320409 -1.79665 0
M  V30 16307 C 1520.54 -3.57478 -0.53777 0
M  V30 16308 O 1520.26 -4.33522 0.631657 0
M  V30 16309 C 1521.76 -4.27556 -1.17094 0
M  V30 16310 H 1518.98 -0.670558 -0.0243619 0
M  V30 16311 H 1521.52 -1.9644 0.568459 0
M  V30 16312 H 1519.68 -3.67205 -1.23449 0
M  V30 16313 H 1520.09 -5.23437 0.333803 0
M  V30 16314 H 1521.57 -5.3466 -1.3727 0
M  V30 16315 H 1522.04 -3.83456 -2.14145 0
M  V30 16316 H 1522.65 -4.22174 -0.514687 0
M  V30 16317 N 1520.96 -0.130252 -1.57061 0
M  V30 16318 C 1521.89 0.812189 -2.18919 0
M  V30 16319 C 1522.88 1.2692 -1.13249 0
M  V30 16320 O 1524.06 1.32978 -1.41529 0
M  V30 16321 C 1521.19 2.05803 -2.79754 0
M  V30 16322 C 1520.14 1.73841 -3.91105 0
M  V30 16323 C 1519.47 3.05549 -4.38799 0
M  V30 16324 C 1520.77 0.997991 -5.12677 0
M  V30 16325 H 1522.46 0.296692 -2.97926 0
M  V30 16326 H 1520.01 0.141265 -1.43305 0
M  V30 16327 H 1521.96 2.72201 -3.21691 0
M  V30 16328 H 1520.69 2.59697 -1.98053 0
M  V30 16329 H 1519.35 1.09828 -3.49762 0
M  V30 16330 H 1518.99 3.57399 -3.53942 0
M  V30 16331 H 1518.69 2.84932 -5.13894 0
M  V30 16332 H 1520.22 3.73045 -4.83394 0
M  V30 16333 H 1521.63 1.56372 -5.51562 0
M  V30 16334 H 1520.03 0.892378 -5.93428 0
M  V30 16335 H 1521.1 -0.0132936 -4.84898 0
M  V30 16336 N 1522.44 1.56945 0.143535 0
M  V30 16337 C 1523.35 2.01795 1.1965 0
M  V30 16338 C 1524.37 0.933965 1.4681 0
M  V30 16339 O 1525.55 1.2437 1.58411 0
M  V30 16340 C 1522.61 2.39249 2.5092 0
M  V30 16341 C 1521.67 3.61613 2.31376 0
M  V30 16342 C 1520.9 3.97271 3.56386 0
M  V30 16343 O 1521.13 3.33552 4.62709 0
M  V30 16344 O 1520.06 4.90501 3.48844 0
M  V30 16345 H 1523.89 2.91687 0.845718 0
M  V30 16346 H 1521.47 1.45182 0.352518 0
M  V30 16347 H 1523.35 2.64184 3.28306 0
M  V30 16348 H 1522.03 1.52511 2.85521 0
M  V30 16349 H 1520.94 3.4186 1.51929 0
M  V30 16350 H 1522.27 4.48979 2.01689 0
M  V30 16351 N 1523.92 -0.412991 1.52093 0
M  V30 16352 C 1525.34 -0.751324 1.40809 0
M  V30 16353 C 1525.54 -1.94951 0.509543 0
M  V30 16354 O 1524.59 -2.52486 -0.026132 0
M  V30 16355 C 1525.91 -1.00888 2.8327 0
M  V30 16356 C 1527.45 -1.11183 2.92587 0
M  V30 16357 C 1527.93 -1.40217 4.36008 0
M  V30 16358 N 1529.42 -1.4709 4.39225 0
M  V30 16359 C 1530.16 -1.71174 5.47254 0
M  V30 16360 N 1529.65 -1.92887 6.65407 0
M  V30 16361 N 1531.44 -1.73157 5.34765 0
M  V30 16362 H 1523.6 0.375774 2.0905 0
M  V30 16363 H 1525.86 0.105817 0.942076 0
M  V30 16364 H 1525.56 -0.200872 3.51126 0
M  V30 16365 H 1525.44 -1.93008 3.2408 0
M  V30 16366 H 1527.83 -1.91043 2.24915 0
M  V30 16367 H 1527.91 -0.169078 2.55241 0
M  V30 16368 H 1527.55 -0.608754 5.04239 0
M  V30 16369 H 1527.48 -2.35737 4.70888 0
M  V30 16370 H 1529.97 -1.32114 3.54054 0
M  V30 16371 H 1530.28 -2.10704 7.43521 0
M  V30 16372 H 1528.63 -1.9016 6.68479 0
M  V30 16373 H 1531.82 -1.55728 4.41437 0
M  V30 16374 H 1531.99 -1.91587 6.1903 0
M  V30 16375 N 1525.4 -1.4265 -0.669982 0
M  V30 16376 C 1526.62 -1.46992 -1.46315 0
M  V30 16377 C 1527.05 -0.0840655 -1.87912 0
M  V30 16378 O 1526.41 0.918554 -1.56308 0
M  V30 16379 C 1526.46 -2.40663 -2.6854 0
M  V30 16380 O 1525.56 -1.88132 -3.66988 0
M  V30 16381 H 1524.9 -0.497844 -0.439372 0
M  V30 16382 H 1527.43 -1.8739 -0.821348 0
M  V30 16383 H 1527.44 -2.57405 -3.16554 0
M  V30 16384 H 1526.12 -3.41346 -2.37604 0
M  V30 16385 H 1524.69 -1.80969 -3.26044 0
M  V30 16386 N 1526.88 0.906753 -1.28902 0
M  V30 16387 C 1527.82 2.01004 -1.13429 0
M  V30 16388 C 1528.79 1.66074 -0.0295031 0
M  V30 16389 O 1529.98 1.89793 -0.195727 0
M  V30 16390 C 1527.12 3.35473 -0.809457 0
M  V30 16391 C 1526.23 3.83229 -1.99398 0
M  V30 16392 C 1525.37 5.06241 -1.60915 0
M  V30 16393 C 1524.41 5.46348 -2.7599 0
M  V30 16394 N 1523.54 6.60548 -2.37952 0
M  V30 16395 H 1528.38 2.13571 -2.07825 0
M  V30 16396 H 1525.92 1.046 -1.03428 0
M  V30 16397 H 1527.88 4.12836 -0.601845 0
M  V30 16398 H 1526.51 3.22652 0.0975896 0
M  V30 16399 H 1525.56 3.01962 -2.31351 0
M  V30 16400 H 1526.87 4.08908 -2.85649 0
M  V30 16401 H 1526.03 5.91168 -1.36401 0
M  V30 16402 H 1524.77 4.82385 -0.718021 0
M  V30 16403 H 1523.77 4.59959 -3.01195 0
M  V30 16404 H 1525 5.72188 -3.65757 0
M  V30 16405 H 1522.94 6.38309 -1.51318 0
M  V30 16406 H 1522.86 6.85987 -3.17738 0
M  V30 16407 H 1524.13 7.48762 -2.1674 0
M  V30 16408 N 1528.36 1.11264 1.11616 0
M  V30 16409 C 1529.6 0.861639 1.83585 0
M  V30 16410 C 1529.93 -0.611221 1.8433 0
M  V30 16411 O 1529.21 -1.45116 1.29505 0
M  V30 16412 C 1529.49 1.42157 3.30852 0
M  V30 16413 C 1529.35 2.96192 3.38512 0
M  V30 16414 C 1530.66 1.07099 4.2687 0
M  V30 16415 H 1527.78 0.314464 0.666545 0
M  V30 16416 H 1530.43 1.37722 1.30892 0
M  V30 16417 H 1528.58 0.983054 3.75857 0
M  V30 16418 H 1530.25 3.48634 3.0208 0
M  V30 16419 H 1528.49 3.32353 2.7879 0
M  V30 16420 H 1529.16 3.30457 4.42156 0
M  V30 16421 H 1531.64 1.44952 3.90036 0
M  V30 16422 H 1530.51 1.48957 5.28302 0
M  V30 16423 H 1530.77 -0.018482 4.42096 0
M  V30 16424 N 1529.83 -1.29188 0.902679 0
M  V30 16425 C 1530.74 -2.3138 0.387363 0
M  V30 16426 C 1531.76 -1.66067 -0.519396 0
M  V30 16427 O 1532.94 -1.97219 -0.408257 0
M  V30 16428 C 1530 -3.44675 -0.374137 0
M  V30 16429 C 1529.06 -4.25572 0.564503 0
M  V30 16430 C 1528.29 -5.33458 -0.160748 0
M  V30 16431 O 1528.52 -5.53349 -1.38423 0
M  V30 16432 O 1527.45 -5.99834 0.498259 0
M  V30 16433 H 1531.28 -2.77444 1.23525 0
M  V30 16434 H 1528.86 -1.33679 0.667106 0
M  V30 16435 H 1530.74 -4.13647 -0.80464 0
M  V30 16436 H 1529.42 -3.00714 -1.19804 0
M  V30 16437 H 1528.33 -3.59232 1.04418 0
M  V30 16438 H 1529.66 -4.73184 1.3549 0
M  V30 16439 N 1531.31 -0.665475 -1.42861 0
M  V30 16440 C 1532.22 0.018927 -2.34592 0
M  V30 16441 C 1533.24 0.798967 -1.54572 0
M  V30 16442 O 1534.41 0.743419 -1.87177 0
M  V30 16443 C 1531.48 0.965013 -3.32999 0
M  V30 16444 C 1530.54 0.180544 -4.2892 0
M  V30 16445 C 1529.77 1.08157 -5.22626 0
M  V30 16446 O 1530 2.32101 -5.21043 0
M  V30 16447 O 1528.93 0.54738 -5.99406 0
M  V30 16448 H 1532.76 -0.736444 -2.94636 0
M  V30 16449 H 1530.34 -0.425684 -1.43207 0
M  V30 16450 H 1532.22 1.50839 -3.93479 0
M  V30 16451 H 1530.9 1.7004 -2.75442 0
M  V30 16452 H 1529.8 -0.40671 -3.71883 0
M  V30 16453 H 1531.14 -0.515529 -4.89493 0
M  V30 16454 N 1532.79 1.52222 -0.408187 0
M  V30 16455 C 1534.02 2.06221 0.16743 0
M  V30 16456 C 1534.43 1.27832 1.3894 0
M  V30 16457 O 1533.79 0.329933 1.79493 0
M  V30 16458 C 1533.84 3.57758 0.518804 0
M  V30 16459 O 1533.56 4.33181 -0.654639 0
M  V30 16460 C 1535.06 4.28171 1.14825 0
M  V30 16461 H 1532.28 0.670677 0.0208054 0
M  V30 16462 H 1534.83 1.96136 -0.578868 0
M  V30 16463 H 1532.98 3.67854 1.215 0
M  V30 16464 H 1533.4 5.23252 -0.361558 0
M  V30 16465 H 1534.87 5.3538 1.34433 0
M  V30 16466 H 1535.35 3.84586 2.12108 0
M  V30 16467 H 1535.95 4.22441 0.492291 0
M  V30 16468 N 1534.27 0.138579 1.5699 0
M  V30 16469 C 1535.5 -0.521806 2.00212 0
M  V30 16470 C 1535.91 -1.58967 1.01857 0
M  V30 16471 O 1535.27 -1.82494 0.0143099 0
M  V30 16472 C 1535.32 -1.13014 3.4338 0
M  V30 16473 O 1535.04 -0.104938 4.37974 0
M  V30 16474 C 1536.54 -1.87195 4.01837 0
M  V30 16475 H 1533.76 -0.136564 0.656956 0
M  V30 16476 H 1536.3 0.230685 2.03195 0
M  V30 16477 H 1534.46 -1.8333 3.41275 0
M  V30 16478 H 1534.87 -0.54948 5.21614 0
M  V30 16479 H 1536.35 -2.25061 5.04035 0
M  V30 16480 H 1536.82 -2.75467 3.42074 0
M  V30 16481 H 1537.43 -1.21597 4.07547 0
M  V30 16482 N 1535.75 -1.57019 -0.13521 0
M  V30 16483 C 1536.66 -2.02427 -1.18578 0
M  V30 16484 C 1537.67 -0.941738 -1.46312 0
M  V30 16485 O 1538.85 -1.25208 -1.57749 0
M  V30 16486 C 1535.91 -2.40577 -2.49647 0
M  V30 16487 C 1534.97 -3.62835 -2.29455 0
M  V30 16488 C 1534.21 -3.99156 -3.54274 0
M  V30 16489 O 1534.43 -3.36001 -4.60933 0
M  V30 16490 O 1533.36 -4.92345 -3.46238 0
M  V30 16491 H 1537.19 -2.92131 -0.830237 0
M  V30 16492 H 1534.77 -1.45366 -0.344814 0
M  V30 16493 H 1536.66 -2.65922 -3.269 0
M  V30 16494 H 1535.33 -1.54023 -2.84708 0
M  V30 16495 H 1534.24 -3.42661 -1.50114 0
M  V30 16496 H 1535.57 -4.50043 -1.99305 0
M  V30 16497 N 1537.22 0.404919 -1.52309 0
M  V30 16498 C 1538.17 1.49281 -1.72334 0
M  V30 16499 C 1539.16 1.50188 -0.577267 0
M  V30 16500 O 1540.35 1.56093 -0.834497 0
M  V30 16501 C 1537.48 2.87166 -1.88123 0
M  V30 16502 C 1536.57 2.90891 -3.08615 0
M  V30 16503 N 1536.96 2.64307 -4.31249 0
M  V30 16504 C 1535.25 3.2206 -3.08535 0
M  V30 16505 C 1535.96 2.74708 -5.12748 0
M  V30 16506 N 1534.93 3.07766 -4.48086 0
M  V30 16507 H 1538.73 1.2753 -2.64789 0
M  V30 16508 H 1536.25 0.61268 -1.50399 0
M  V30 16509 H 1538.24 3.65473 -2.00587 0
M  V30 16510 H 1536.9 3.09913 -0.968712 0
M  V30 16511 H 1537.92 2.38624 -4.59651 0
M  V30 16512 H 1534.59 3.50373 -2.27035 0
M  V30 16513 H 1535.98 2.57835 -6.2046 0
M  V30 16514 N 1538.7 1.43003 0.662408 0
M  V30 16515 C 1539.63 1.50248 1.78739 0
M  V30 16516 C 1540.61 0.357934 1.66291 0
M  V30 16517 O 1541.8 0.573919 1.85526 0
M  V30 16518 C 1538.93 1.41618 3.17114 0
M  V30 16519 C 1537.88 2.54228 3.44314 0
M  V30 16520 C 1537.21 2.30653 4.82393 0
M  V30 16521 C 1538.51 3.96505 3.39972 0
M  V30 16522 H 1540.2 2.44406 1.72934 0
M  V30 16523 H 1537.75 1.17633 0.830569 0
M  V30 16524 H 1539.7 1.45293 3.9556 0
M  V30 16525 H 1538.43 0.439605 3.23628 0
M  V30 16526 H 1537.08 2.49891 2.68235 0
M  V30 16527 H 1536.73 1.3126 4.85572 0
M  V30 16528 H 1536.43 3.06134 5.01554 0
M  V30 16529 H 1537.96 2.36096 5.63108 0
M  V30 16530 H 1539.37 4.02378 4.08368 0
M  V30 16531 H 1537.77 4.71937 3.70668 0
M  V30 16532 H 1538.84 4.22295 2.38318 0
M  V30 16533 N 1540.18 -0.899904 1.29381 0
M  V30 16534 C 1541.43 -1.65282 1.17515 0
M  V30 16535 C 1541.76 -1.92275 -0.272788 0
M  V30 16536 O 1541.03 -1.53303 -1.19701 0
M  V30 16537 C 1541.32 -3.00207 1.98867 0
M  V30 16538 C 1541.17 -2.80281 3.51799 0
M  V30 16539 C 1542.49 -4.00936 1.81489 0
M  V30 16540 H 1539.61 -0.5998 0.428263 0
M  V30 16541 H 1542.25 -1.04241 1.58852 0
M  V30 16542 H 1540.4 -3.52308 1.63741 0
M  V30 16543 H 1542.07 -2.35082 3.96905 0
M  V30 16544 H 1540.32 -2.15068 3.76733 0
M  V30 16545 H 1540.99 -3.76155 4.03994 0
M  V30 16546 H 1543.46 -3.57944 2.12169 0
M  V30 16547 H 1542.34 -4.9328 2.4076 0
M  V30 16548 H 1542.6 -4.35342 0.770021 0
M  V30 16549 N 1541.66 -1.11854 -1.11024 0
M  V30 16550 C 1542.89 -0.892714 -1.8665 0
M  V30 16551 C 1543.3 0.557721 -1.80374 0
M  V30 16552 O 1542.66 1.3853 -1.1881 0
M  V30 16553 C 1542.71 -1.35135 -3.35292 0
M  V30 16554 O 1542.43 -2.74493 -3.41446 0
M  V30 16555 C 1543.93 -1.16157 -4.27811 0
M  V30 16556 H 1541.15 -0.319409 -0.590101 0
M  V30 16557 H 1543.7 -1.48697 -1.40391 0
M  V30 16558 H 1541.85 -0.80046 -3.7904 0
M  V30 16559 H 1542.26 -2.94474 -4.34034 0
M  V30 16560 H 1543.74 -1.53144 -5.30331 0
M  V30 16561 H 1544.22 -0.101546 -4.39083 0
M  V30 16562 H 1544.82 -1.69966 -3.89861 0
M  V30 16563 N 1543.14 1.28707 -0.909517 0
M  V30 16564 C 1544.08 2.27427 -0.393155 0
M  V30 16565 C 1545.05 1.57414 0.53009 0
M  V30 16566 O 1546.24 1.85339 0.453205 0
M  V30 16567 C 1543.38 3.4317 0.364507 0
M  V30 16568 C 1542.49 4.27942 -0.590757 0
M  V30 16569 C 1541.63 5.30878 0.184931 0
M  V30 16570 C 1540.67 6.07311 -0.764222 0
M  V30 16571 N 1539.8 7.02096 -0.0223203 0
M  V30 16572 H 1544.64 2.70974 -1.24005 0
M  V30 16573 H 1542.18 1.33265 -0.6228 0
M  V30 16574 H 1544.14 4.09063 0.819937 0
M  V30 16575 H 1542.77 3.00625 1.17578 0
M  V30 16576 H 1541.82 3.62131 -1.16471 0
M  V30 16577 H 1543.13 4.81102 -1.31689 0
M  V30 16578 H 1542.29 6.02635 0.701116 0
M  V30 16579 H 1541.02 4.78474 0.944143 0
M  V30 16580 H 1540.03 5.34408 -1.29182 0
M  V30 16581 H 1541.25 6.61804 -1.52292 0
M  V30 16582 H 1539.2 6.52048 0.718978 0
M  V30 16583 H 1539.12 7.5286 -0.688359 0
M  V30 16584 H 1540.39 7.78059 0.473807 0
M  V30 16585 N 1544.61 0.673042 1.42506 0
M  V30 16586 C 1545.84 0.201349 2.0642 0
M  V30 16587 C 1546.26 -1.132 1.50224 0
M  V30 16588 O 1545.62 -1.70368 0.620024 0
M  V30 16589 C 1545.67 0.14505 3.60308 0
M  V30 16590 O 1544.77 -0.886953 4.02749 0
M  V30 16591 H 1544.12 0.103975 0.655809 0
M  V30 16592 H 1546.65 0.921559 1.8267 0
M  V30 16593 H 1546.66 -0.0316792 4.07988 0
M  V30 16594 H 1545.33 1.11829 4.00583 0
M  V30 16595 H 1543.91 -0.681408 3.66621 0
M  V30 16596 N 1546.09 -1.52004 0.416254 0
M  V30 16597 C 1547.51 -1.59457 0.0674775 0
M  V30 16598 C 1547.71 -1.42865 -1.42098 0
M  V30 16599 O 1546.76 -1.2592 -2.18862 0
M  V30 16600 C 1548.08 -2.95272 0.56876 0
M  V30 16601 C 1549.63 -3.08525 0.527356 0
M  V30 16602 C 1550.1 -4.46832 1.00526 0
M  V30 16603 N 1551.59 -4.53092 0.962377 0
M  V30 16604 C 1552.33 -5.58393 1.30327 0
M  V30 16605 N 1551.82 -6.71212 1.71597 0
M  V30 16606 N 1553.62 -5.48639 1.22278 0
M  V30 16607 H 1545.77 -1.61036 1.38496 0
M  V30 16608 H 1548.03 -0.75795 0.569399 0
M  V30 16609 H 1547.74 -3.12717 1.60937 0
M  V30 16610 H 1547.61 -3.77196 -0.0177595 0
M  V30 16611 H 1550 -2.9076 -0.504225 0
M  V30 16612 H 1550.08 -2.28491 1.15002 0
M  V30 16613 H 1549.72 -4.6534 2.03521 0
M  V30 16614 H 1549.65 -5.25373 0.359345 0
M  V30 16615 H 1552.14 -3.72109 0.65904 0
M  V30 16616 H 1552.46 -7.47558 1.95901 0
M  V30 16617 H 1550.8 -6.72475 1.75507 0
M  V30 16618 H 1553.99 -4.59383 0.899175 0
M  V30 16619 H 1554.16 -6.30596 1.49175 0
M  V30 16620 N 1547.57 -0.146903 -1.56914 0
M  V30 16621 C 1548.5 0.788924 -2.19769 0
M  V30 16622 C 1549.48 1.25712 -1.14589 0
M  V30 16623 O 1550.67 1.3147 -1.42931 0
M  V30 16624 C 1547.8 2.02824 -2.81921 0
M  V30 16625 C 1546.75 1.69683 -3.92927 0
M  V30 16626 C 1546.08 3.00877 -4.42015 0
M  V30 16627 C 1547.38 0.943559 -5.13706 0
M  V30 16628 H 1549.07 0.265076 -2.98224 0
M  V30 16629 H 1546.62 0.126057 -1.43447 0
M  V30 16630 H 1548.57 2.68773 -3.2456 0
M  V30 16631 H 1547.29 2.57581 -2.00797 0
M  V30 16632 H 1545.95 1.06112 -3.50907 0
M  V30 16633 H 1545.6 3.53625 -3.57713 0
M  V30 16634 H 1545.3 2.79466 -5.16888 0
M  V30 16635 H 1546.82 3.67897 -4.87323 0
M  V30 16636 H 1548.24 1.50513 -5.5319 0
M  V30 16637 H 1546.64 0.829387 -5.94341 0
M  V30 16638 H 1547.71 -0.0647228 -4.84857 0
M  V30 16639 N 1549.05 1.57088 0.126881 0
M  V30 16640 C 1550.46 1.73685 0.684865 0
M  V30 16641 C 1550.81 0.764401 1.80697 0
M  V30 16642 O 1549.94 -0.0644761 2.16304 0
M  V30 16643 C 1550.53 3.14933 1.24911 0
M  V30 16644 C 1549.09 3.33063 1.75346 0
M  V30 16645 C 1548.24 2.69575 0.649976 0
M  V30 16646 H 1551.19 1.58391 -0.0989715 0
M  V30 16647 H 1551.21 3.16047 2.11884 0
M  V30 16648 H 1550.72 3.85686 0.432204 0
M  V30 16649 H 1548.82 2.67339 2.59539 0
M  V30 16650 H 1548.93 4.41169 1.86833 0
M  V30 16651 H 1547.3 2.30592 1.08163 0
M  V30 16652 H 1548.08 3.42946 -0.15582 0
M  V30 16653 N 1550.53 -0.396836 1.52522 0
M  V30 16654 C 1551.46 -1.49088 1.79708 0
M  V30 16655 C 1552.44 -1.57246 0.648678 0
M  V30 16656 O 1553.62 -1.72321 0.895495 0
M  V30 16657 C 1550.75 -2.86785 1.95887 0
M  V30 16658 C 1549.71 -2.93472 3.11542 0
M  V30 16659 C 1549.03 -4.33542 3.12963 0
M  V30 16660 C 1550.33 -2.63832 4.50766 0
M  V30 16661 H 1552.03 -1.26588 2.71322 0
M  V30 16662 H 1549.57 -0.607535 1.30557 0
M  V30 16663 H 1551.53 -3.63319 2.13489 0
M  V30 16664 H 1550.25 -3.10605 1.00955 0
M  V30 16665 H 1548.91 -2.19384 2.93711 0
M  V30 16666 H 1548.56 -4.5439 2.15729 0
M  V30 16667 H 1548.26 -4.38938 3.9065 0
M  V30 16668 H 1549.78 -5.11993 3.32709 0
M  V30 16669 H 1551.19 -3.30086 4.68739 0
M  V30 16670 H 1549.59 -2.80589 5.30462 0
M  V30 16671 H 1550.66 -1.59209 4.58018 0
M  V30 16672 N 1552.01 -1.43353 -0.654814 0
M  V30 16673 C 1553.42 -1.26718 -0.970297 0
M  V30 16674 C 1553.62 -0.185747 -2.00642 0
M  V30 16675 O 1552.68 0.436357 -2.48701 0
M  V30 16676 C 1553.99 -2.63095 -1.45608 0
M  V30 16677 C 1555.54 -2.70613 -1.57281 0
M  V30 16678 C 1556.01 -4.07404 -2.0925 0
M  V30 16679 N 1557.5 -4.09461 -2.16555 0
M  V30 16680 C 1558.24 -5.12135 -2.57885 0
M  V30 16681 N 1557.74 -6.25185 -2.98523 0
M  V30 16682 N 1559.53 -4.9949 -2.57811 0
M  V30 16683 H 1551.68 -2.12378 0.0308331 0
M  V30 16684 H 1553.94 -0.946744 -0.0487843 0
M  V30 16685 H 1553.65 -3.43186 -0.769171 0
M  V30 16686 H 1553.52 -2.88381 -2.43138 0
M  V30 16687 H 1555.91 -1.90855 -2.25074 0
M  V30 16688 H 1555.99 -2.49094 -0.581879 0
M  V30 16689 H 1555.63 -4.87628 -1.4206 0
M  V30 16690 H 1555.56 -4.26287 -3.09172 0
M  V30 16691 H 1558.06 -3.27858 -1.87929 0
M  V30 16692 H 1558.37 -6.99362 -3.28804 0
M  V30 16693 H 1556.71 -6.28659 -2.96332 0
M  V30 16694 H 1559.9 -4.10238 -2.25438 0
M  V30 16695 H 1560.08 -5.79637 -2.89699 0
M  V30 16696 N 1553.48 0.89303 -1.29857 0
M  V30 16697 C 1554.45 1.97944 -1.15546 0
M  V30 16698 C 1555.45 1.60554 -0.088989 0
M  V30 16699 O 1556.64 1.7092 -0.336464 0
M  V30 16700 C 1553.77 3.32126 -0.768442 0
M  V30 16701 H 1554.96 2.12067 -2.12055 0
M  V30 16702 H 1552.51 1.0784 -1.13138 0
M  V30 16703 H 1553.25 3.23704 0.196504 0
M  V30 16704 H 1553.03 3.60631 -1.53907 0
M  V30 16705 H 1554.52 4.11834 -0.691559 0
M  V30 16706 N 1554.96 1.12442 1.10429 0
M  V30 16707 C 1555.89 0.750131 2.16577 0
M  V30 16708 C 1556.91 -0.223265 1.61262 0
M  V30 16709 O 1558.1 -0.00459454 1.78499 0
M  V30 16710 C 1555.2 0.0895474 3.38782 0
M  V30 16711 C 1554.37 1.09242 4.23539 0
M  V30 16712 C 1553.43 0.45945 5.2419 0
M  V30 16713 O 1552.45 1.11646 5.58143 0
M  V30 16714 N 1553.66 -0.773093 5.75329 0
M  V30 16715 H 1556.42 1.66349 2.49295 0
M  V30 16716 H 1553.98 1.01603 1.26049 0
M  V30 16717 H 1555.97 -0.345895 4.03219 0
M  V30 16718 H 1554.54 -0.726572 3.04039 0
M  V30 16719 H 1553.76 1.70549 3.55396 0
M  V30 16720 H 1555.05 1.77057 4.76999 0
M  V30 16721 H 1554.45 -1.32585 5.49943 0
M  V30 16722 H 1553.01 -1.15135 6.41551 0
M  V30 16723 N 1556.44 -1.28223 0.91633 0
M  V30 16724 C 1557.69 -1.94149 0.546705 0
M  V30 16725 C 1558 -1.72904 -0.914529 0
M  V30 16726 O 1559.21 -2.33075 -1.39243 0
M  V30 16727 C 1557.66 -3.47759 0.92691 0
M  V30 16728 C 1557.27 -3.77779 2.40805 0
M  V30 16729 C 1559.02 -4.19829 0.627994 0
M  V30 16730 C 1556.92 -5.2471 2.72825 0
M  V30 16731 H 1555.85 -0.726787 0.200739 0
M  V30 16732 H 1558.5 -1.45694 1.1156 0
M  V30 16733 H 1556.89 -3.9496 0.286779 0
M  V30 16734 H 1558.06 -3.41377 3.09513 0
M  V30 16735 H 1556.37 -3.18887 2.67769 0
M  V30 16736 H 1558.97 -5.27999 0.843862 0
M  V30 16737 H 1559.31 -4.14028 -0.434315 0
M  V30 16738 H 1559.85 -3.78413 1.22671 0
M  V30 16739 H 1556.59 -5.35591 3.77919 0
M  V30 16740 H 1556.11 -5.623 2.08756 0
M  V30 16741 H 1557.79 -5.92475 2.59965 0
M  V30 16742 N 1557.92 -0.68059 -1.42147 0
M  V30 16743 C 1558.87 0.00572503 -2.32599 0
M  V30 16744 C 1559.86 0.784449 -1.50142 0
M  V30 16745 O 1561.07 0.69176 -1.66177 0
M  V30 16746 H 1557.44 0.0206483 -0.751716 0
M  V30 16747 H 1559.41 -0.774447 -2.88175 0
M  V30 16748 C 1558.16 0.939019 -3.3478 0
M  V30 16749 H 1557.48 0.349225 -3.98272 0
M  V30 16750 H 1558.92 1.38782 -4.00644 0
M  V30 16751 C 1557.38 2.04814 -2.67493 0
M  V30 16752 O 1557.91 3.13526 -2.51126 0
M  V30 16753 N 1556.12 1.82153 -2.26426 0
M  V30 16754 H 1555.67 0.93743 -2.39938 0
M  V30 16755 H 1555.62 2.56551 -1.81738 0
M  V30 16756 N 1559.4 1.51781 -0.424309 0
M  V30 16757 C 1560.33 2.30313 0.384462 0
M  V30 16758 C 1561.31 1.35166 1.03268 0
M  V30 16759 O 1562.49 1.64081 1.0388 0
M  V30 16760 C 1559.62 3.13566 1.49311 0
M  V30 16761 C 1558.58 4.16884 0.969096 0
M  V30 16762 C 1557.9 4.88576 2.17251 0
M  V30 16763 C 1559.2 5.22298 0.0125613 0
M  V30 16764 H 1560.9 2.98172 -0.270871 0
M  V30 16765 H 1558.44 1.43396 -0.131712 0
M  V30 16766 H 1560.39 3.67279 2.06602 0
M  V30 16767 H 1559.12 2.43504 2.17655 0
M  V30 16768 H 1557.78 3.64203 0.418494 0
M  V30 16769 H 1557.43 4.15029 2.84183 0
M  V30 16770 H 1557.13 5.58432 1.82833 0
M  V30 16771 H 1558.65 5.45107 2.75119 0
M  V30 16772 H 1560.06 5.71161 0.494744 0
M  V30 16773 H 1558.46 5.99606 -0.243544 0
M  V30 16774 H 1559.53 4.75935 -0.92813 0
M  V30 16775 O 1560.91 0.296107 1.58762 0
M  V30 16776 H 1561.6 -0.269544 1.91815 0
M  V30 END ATOM
M  V30 BEGIN BOND
M  V30 END BOND
M  V30 END CTAB
M  END
$$$$
