drugbank_target|Q6UWP2 Dehydrogenase/reductase SDR family member 11 (DB03461)
 OpenBabel12092120273D

  0  0  0     0  0            999 V3000
M  V30 BEGIN CTAB
M  V30 COUNTS 3961 3993 0 0 0
M  V30 BEGIN ATOM
M  V30 1 H -0.908 1.98254 -0.117106 0
M  V30 2 N 0 1.576 0 0
M  V30 3 C 0.933 2.03868 1.02534 0
M  V30 4 C 1.911 0.928543 1.3348 0
M  V30 5 O 3.095 1.19667 1.45644 0
M  V30 6 C 0.222 2.43627 2.35294 0
M  V30 7 C -0.732 3.65373 2.2001 0
M  V30 8 S 0.101 5.13292 1.52614 0
M  V30 9 C 1.257 5.56322 2.86805 0
M  V30 10 H 1.49 2.90518 0.631377 0
M  V30 11 H -0.977 1.52953 0.210867 0
M  V30 12 H 0.981 2.67203 3.11629 0
M  V30 13 H -0.358 1.57376 2.7183 0
M  V30 14 H -1.165 3.90944 3.18086 0
M  V30 15 H -1.563 3.418 1.51819 0
M  V30 16 H 0.729 5.58782 3.83104 0
M  V30 17 H 1.672 6.56266 2.65933 0
M  V30 18 H 2.08 4.83886 2.90714 0
M  V30 19 N 1.4781 -0.272755 1.55222 0
M  V30 20 C 2.4411 -1.32041 1.87344 0
M  V30 21 C 3.4411 -1.42342 0.74803 0
M  V30 22 O 4.6311 -1.41488 1.0162 0
M  V30 23 C 1.7631 -2.70173 2.07893 0
M  V30 24 H 2.9561 -1.04789 2.80997 0
M  V30 25 H 0.5091 -0.51083 1.47717 0
M  V30 26 H 1.2441 -3.02605 1.16622 0
M  V30 27 H 1.0291 -2.64082 2.89833 0
M  V30 28 H 2.5191 -3.45869 2.34017 0
M  V30 29 N 2.9562 -1.48159 -0.537278 0
M  V30 30 C 4.3722 -1.34118 -0.865129 0
M  V30 31 C 4.5722 -0.346678 -1.98495 0
M  V30 32 O 3.6282 0.234715 -2.51407 0
M  V30 33 C 4.9412 -2.73963 -1.23954 0
M  V30 34 C 6.4892 -2.82397 -1.34984 0
M  V30 35 C 6.9642 -4.22928 -1.75772 0
M  V30 36 N 8.4552 -4.25566 -1.82887 0
M  V30 37 C 9.1902 -5.31235 -2.15817 0
M  V30 38 N 8.6862 -6.47189 -2.47222 0
M  V30 39 N 10.4792 -5.18624 -2.16761 0
M  V30 40 H 2.6302 -2.1144 0.201715 0
M  V30 41 H 4.8932 -0.947598 0.0275949 0
M  V30 42 H 4.5992 -3.48264 -0.490381 0
M  V30 43 H 4.4732 -3.0702 -2.19132 0
M  V30 44 H 6.8602 -2.08356 -2.08978 0
M  V30 45 H 6.9412 -2.5297 -0.379448 0
M  V30 46 H 6.5852 -4.97482 -1.02341 0
M  V30 47 H 6.5152 -4.49794 -2.73848 0
M  V30 48 H 9.0062 -3.41924 -1.60924 0
M  V30 49 H 9.3192 -7.23564 -2.71433 0
M  V30 50 H 7.6642 -6.50476 -2.44757 0
M  V30 51 H 10.8552 -4.27056 -1.91679 0
M  V30 52 H 11.0282 -6.01078 -2.42093 0
M  V30 53 N 4.4343 0.785586 -1.36625 0
M  V30 54 C 5.8453 1.36101 -1.27803 0
M  V30 55 C 6.1963 1.96035 0.0804875 0
M  V30 56 O 5.3213 1.92834 0.982042 0
M  V30 57 C 5.9163 2.47442 -2.31426 0
M  V30 58 C 4.4753 3.00789 -2.26281 0
M  V30 59 C 3.6223 1.73896 -2.15999 0
M  V30 60 H 6.5733 0.586928 -1.47448 0
M  V30 61 H 6.5943 3.2656 -1.95291 0
M  V30 62 H 6.1063 2.03791 -3.30289 0
M  V30 63 H 4.2073 3.48851 -1.30896 0
M  V30 64 H 4.3203 3.57343 -3.19128 0
M  V30 65 H 2.6843 1.9628 -1.62316 0
M  V30 66 H 3.4673 1.32368 -3.16755 0
M  V30 67 N 5.9124 1.20967 1.01018 0
M  V30 68 C 7.1604 1.02172 1.74371 0
M  V30 69 C 7.4814 -0.446414 1.89821 0
M  V30 70 O 6.7514 -1.32234 1.44537 0
M  V30 71 H 5.3314 0.375066 0.646014 0
M  V30 72 H 7.9934 1.52187 1.21758 0
M  V30 73 H 7.0894 1.48538 2.74487 0
M  V30 74 N 7.3905 -1.2043 1.01659 0
M  V30 75 C 8.3235 -2.21924 0.531521 0
M  V30 76 C 9.3015 -1.57054 -0.421032 0
M  V30 77 O 10.4855 -1.85389 -0.341035 0
M  V30 78 C 7.6125 -3.37942 -0.226496 0
M  V30 79 C 6.6585 -4.21115 0.67561 0
M  V30 80 S 7.4915 -4.90674 2.14475 0
M  V30 81 C 8.6475 -6.10113 1.3969 0
M  V30 82 H 8.8805 -2.62725 1.3915 0
M  V30 83 H 6.4135 -1.30481 0.825479 0
M  V30 84 H 8.3715 -4.05196 -0.657738 0
M  V30 85 H 7.0325 -2.956 -1.06205 0
M  V30 86 H 6.2255 -5.03918 0.091108 0
M  V30 87 H 5.8275 -3.59115 1.04463 0
M  V30 88 H 8.1195 -6.7411 0.676897 0
M  V30 89 H 9.0625 -6.73022 2.20107 0
M  V30 90 H 9.4705 -5.57283 0.899786 0
M  V30 91 N 8.8686 -0.792821 -1.36206 0
M  V30 92 C 9.7786 -0.194808 -2.3379 0
M  V30 93 C 10.7946 0.654869 -1.61206 0
M  V30 94 O 11.9706 0.569856 -1.9317 0
M  V30 95 C 9.0356 0.657721 -3.40404 0
M  V30 96 C 8.0966 -0.210849 -4.28782 0
M  V30 97 C 7.3296 0.601086 -5.30304 0
M  V30 98 O 7.5526 1.83682 -5.40016 0
M  V30 99 O 6.4866 -0.000808277 -6.019 0
M  V30 100 H 10.3126 -1.00172 -2.86704 0
M  V30 101 H 7.8976 -0.554341 -1.38735 0
M  V30 102 H 9.7796 1.14375 -4.05581 0
M  V30 103 H 8.4546 1.44247 -2.89784 0
M  V30 104 H 7.3616 -0.743714 -3.66633 0
M  V30 105 H 8.6946 -0.959195 -4.82763 0
M  V30 106 N 10.3467 1.47872 -0.545128 0
M  V30 107 C 11.7627 1.5829 -0.204032 0
M  V30 108 C 11.9627 1.54529 1.29317 0
M  V30 109 O 11.0187 1.44232 2.07252 0
M  V30 110 C 12.3317 2.89304 -0.819987 0
M  V30 111 C 13.8797 3.02864 -0.790105 0
M  V30 112 C 14.3547 4.3656 -1.38491 0
M  V30 113 N 15.8457 4.43165 -1.34755 0
M  V30 114 C 16.5807 5.45153 -1.77753 0
M  V30 115 N 16.0767 6.54016 -2.2855 0
M  V30 116 N 17.8697 5.36125 -1.68897 0
M  V30 117 H 10.0207 1.4856 -1.51802 0
M  V30 118 H 12.2837 0.706305 -0.632327 0
M  V30 119 H 11.9897 2.97757 -1.87173 0
M  V30 120 H 11.8637 3.75957 -0.305915 0
M  V30 121 H 14.2507 2.94014 0.252913 0
M  V30 122 H 14.3317 2.17782 -1.34181 0
M  V30 123 H 13.9757 4.46164 -2.42693 0
M  V30 124 H 13.9057 5.20353 -0.808754 0
M  V30 125 H 16.3967 3.65083 -0.975855 0
M  V30 126 H 16.7097 7.27994 -2.59314 0
M  V30 127 H 15.0547 6.54938 -2.32553 0
M  V30 128 H 18.2457 4.49975 -1.28998 0
M  V30 129 H 18.4187 6.15472 -2.02726 0
M  V30 130 N 11.8248 0.280983 1.55075 0
M  V30 131 C 13.0708 -0.327573 2.00745 0
M  V30 132 C 13.4258 -1.53045 1.16598 0
M  V30 133 O 12.7188 -1.90221 0.229451 0
M  V30 134 C 12.9128 -0.754656 3.49342 0
M  V30 135 C 12.7418 0.40529 4.4787 0
M  V30 136 C 11.5118 0.890947 4.97383 0
M  V30 137 C 13.7098 1.24371 4.99035 0
M  V30 138 N 11.6918 2.01975 5.79724 0
M  V30 139 C 13.0628 2.22031 5.7888 0
M  V30 140 C 15.1178 1.27638 4.81262 0
M  V30 141 C 13.8208 3.22709 6.42846 0
M  V30 142 C 15.8468 2.27164 5.46031 0
M  V30 143 C 15.2088 3.23556 6.25692 0
M  V30 144 H 11.3078 -0.0848774 0.77738 0
M  V30 145 H 13.8918 0.406342 1.90413 0
M  V30 146 H 12.0628 -1.45778 3.60005 0
M  V30 147 H 13.7948 -1.34105 3.81835 0
M  V30 148 H 10.5498 0.469262 4.71269 0
M  V30 149 H 10.9738 2.58794 6.25584 0
M  V30 150 H 15.6158 0.544936 4.19274 0
M  V30 151 H 13.3338 3.96784 7.0398 0
M  V30 152 H 16.9198 2.30441 5.34217 0
M  V30 153 H 15.7998 3.99309 6.74924 0
M  V30 154 N 13.3029 -1.57598 0.00835791 0
M  V30 155 C 14.7189 -1.55764 -0.347822 0
M  V30 156 C 14.9189 -1.01186 -1.74252 0
M  V30 157 O 13.9749 -0.649371 -2.44007 0
M  V30 158 C 15.2879 -2.99927 -0.215407 0
M  V30 159 C 16.8359 -3.11656 -0.289725 0
M  V30 160 C 17.3109 -4.57621 -0.18634 0
M  V30 161 N 18.8019 -4.62557 -0.243978 0
M  V30 162 C 19.5369 -5.73094 -0.18745 0
M  V30 163 N 19.0329 -6.92753 -0.0810331 0
M  V30 164 N 20.8259 -5.61588 -0.239925 0
M  V30 165 H 12.9769 -1.91411 0.92062 0
M  V30 166 H 15.2399 -0.879562 0.353659 0
M  V30 167 H 14.9459 -3.43729 0.744512 0
M  V30 168 H 14.8199 -3.63865 -0.994097 0
M  V30 169 H 17.2069 -2.67779 -1.24009 0
M  V30 170 H 17.2879 -2.5048 0.51898 0
M  V30 171 H 16.9319 -5.02174 0.760519 0
M  V30 172 H 16.8619 -5.16752 -1.01364 0
M  V30 173 H 19.3529 -3.76481 -0.327217 0
M  V30 174 H 19.6659 -7.72787 -0.0440241 0
M  V30 175 H 18.0109 -6.94984 -0.0465419 0
M  V30 176 H 21.2019 -4.66996 -0.321317 0
M  V30 177 H 21.3749 -6.47714 -0.192407 0
M  V30 178 N 14.781 0.264519 -1.55364 0
M  V30 179 C 16.058 1.01677 -1.67096 0
M  V30 180 C 16.438 2.03996 -0.543015 0
M  V30 181 O 15.786 2.23907 0.45585 0
M  V30 182 C 15.996 1.66596 -3.0667 0
M  V30 183 C 17.344 2.17442 -3.64697 0
M  V30 184 O 18.368 1.76568 -3.09358 0
M  V30 185 O 17.227 2.92439 -4.61673 0
M  V30 186 H 14.321 0.472161 -0.678965 0
M  V30 187 H 16.867 0.259703 -1.67701 0
M  V30 188 H 15.639 0.924962 -3.80211 0
M  V30 189 H 15.262 2.48968 -3.10001 0
M  V30 190 N 16.2591 1.48442 0.529413 0
M  V30 191 C 17.6751 1.34575 0.858004 0
M  V30 192 C 17.8751 0.3572 1.98309 0
M  V30 193 O 16.9311 -0.221379 2.51528 0
M  V30 194 C 18.2441 2.74617 1.22499 0
M  V30 195 C 19.7921 2.83109 1.33484 0
M  V30 196 C 20.2671 4.23854 1.73526 0
M  V30 197 N 21.7581 4.2653 1.80628 0
M  V30 198 C 22.4931 5.32372 2.12997 0
M  V30 199 N 21.9891 6.48491 2.43786 0
M  V30 200 N 23.7821 5.19766 2.14008 0
M  V30 201 H 15.9331 2.1133 -0.212925 0
M  V30 202 H 18.1961 0.947439 -0.0326199 0
M  V30 203 H 17.9021 3.4852 0.471905 0
M  V30 204 H 17.7761 3.08177 2.17501 0
M  V30 205 H 20.1631 2.09462 2.0787 0
M  V30 206 H 20.2441 2.53168 0.366027 0
M  V30 207 H 19.8881 4.98018 0.997013 0
M  V30 208 H 19.8181 4.5124 2.71459 0
M  V30 209 H 22.3091 3.42772 1.59108 0
M  V30 210 H 22.6221 7.24993 2.67592 0
M  V30 211 H 20.9671 6.51765 2.41304 0
M  V30 212 H 24.1581 4.28066 1.89412 0
M  V30 213 H 24.3311 6.02354 2.38902 0
M  V30 214 N 17.7372 -0.778329 1.37039 0
M  V30 215 C 18.6672 -1.90546 1.34962 0
M  V30 216 C 19.6482 -1.68681 0.219274 0
M  V30 217 O 20.8332 -1.89634 0.418624 0
M  V30 218 C 17.9632 -3.27734 1.14925 0
M  V30 219 C 16.9172 -3.64147 2.24902 0
M  V30 220 C 16.2432 -4.99806 1.89996 0
M  V30 221 C 17.5432 -3.71579 3.67051 0
M  V30 222 H 19.2372 -1.92541 2.29277 0
M  V30 223 H 16.7832 -0.924948 1.10366 0
M  V30 224 H 18.7362 -4.06215 1.12104 0
M  V30 225 H 17.4602 -3.26154 0.170631 0
M  V30 226 H 16.1192 -2.8797 2.26868 0
M  V30 227 H 15.7672 -4.94759 0.906796 0
M  V30 228 H 15.4672 -5.25139 2.63634 0
M  V30 229 H 16.9912 -5.80694 1.88749 0
M  V30 230 H 18.4052 -4.40227 3.67251 0
M  V30 231 H 16.8022 -4.08405 4.39688 0
M  V30 232 H 17.8722 -2.72404 4.01154 0
M  V30 233 N 19.2153 -1.21501 -1.00376 0
M  V30 234 C 20.1783 -0.976927 -2.07337 0
M  V30 235 C 21.1783 0.0525322 -1.60714 0
M  V30 236 O 22.3683 -0.184869 -1.73216 0
M  V30 237 C 19.5003 -0.473423 -3.37597 0
M  V30 238 H 20.6933 -1.92587 -2.29892 0
M  V30 239 H 18.2463 -1.03217 -1.17371 0
M  V30 240 H 18.9813 0.480379 -3.20722 0
M  V30 241 H 18.7663 -1.216 -3.72768 0
M  V30 242 H 20.2563 -0.32675 -4.1632 0
M  V30 243 N 20.6934 1.19889 -1.02296 0
M  V30 244 C 21.6234 2.25141 -0.619174 0
M  V30 245 C 22.6044 1.66051 0.368915 0
M  V30 246 O 23.7894 1.92546 0.252941 0
M  V30 247 C 20.9194 3.4728 0.0368783 0
M  V30 248 C 19.8734 4.19005 -0.872865 0
M  V30 249 C 19.1994 5.34637 -0.0822402 0
M  V30 250 C 20.4994 4.74452 -2.18387 0
M  V30 251 H 22.1934 2.59171 -1.49903 0
M  V30 252 H 19.7394 1.24579 -0.722222 0
M  V30 253 H 21.6924 4.20098 0.330958 0
M  V30 254 H 20.4164 3.12433 0.95149 0
M  V30 255 H 19.0754 3.48061 -1.15105 0
M  V30 256 H 18.7234 4.96034 0.83422 0
M  V30 257 H 18.4234 5.83557 -0.688149 0
M  V30 258 H 19.9474 6.10255 0.205238 0
M  V30 259 H 21.3614 5.39055 -1.95172 0
M  V30 260 H 19.7584 5.33834 -2.74119 0
M  V30 261 H 20.8284 3.92844 -2.84257 0
M  V30 262 N 22.1715 0.800033 1.35784 0
M  V30 263 C 23.4175 0.377901 1.99248 0
M  V30 264 C 23.7505 -1.05052 1.63333 0
M  V30 265 O 23.0255 -1.72768 0.893385 0
M  V30 266 C 23.3085 0.553922 3.55814 0
M  V30 267 C 23.1615 2.0268 4.01548 0
M  V30 268 C 24.4805 -0.0244802 4.40093 0
M  V30 269 H 21.5995 0.138782 0.723815 0
M  V30 270 H 24.2415 1.00835 1.61035 0
M  V30 271 H 22.3915 0.0172398 3.88496 0
M  V30 272 H 24.0635 2.62536 3.79305 0
M  V30 273 H 22.3065 2.5256 3.52698 0
M  V30 274 H 22.9775 2.10087 5.10458 0
M  V30 275 H 25.4535 0.433775 4.13833 0
M  V30 276 H 24.3295 0.128637 5.48749 0
M  V30 277 H 24.5905 -1.11758 4.27741 0
M  V30 278 N 23.6496 -1.47581 0.552962 0
M  V30 279 C 24.8776 -2.06875 0.0320556 0
M  V30 280 C 25.2926 -1.40625 -1.25976 0
M  V30 281 O 24.6496 -0.501349 -1.75479 0
M  V30 282 C 24.7006 -3.61092 -0.17167 0
M  V30 283 O 24.4216 -4.24858 1.06899 0
M  V30 284 C 25.9226 -4.37242 -0.730344 0
M  V30 285 H 23.1426 -0.669561 0.043915 0
M  V30 286 H 25.6866 -1.89646 0.765163 0
M  V30 287 H 23.8416 -3.7785 -0.854894 0
M  V30 288 H 24.2556 -5.17334 0.864059 0
M  V30 289 H 25.7296 -5.45842 -0.822203 0
M  V30 290 H 26.2066 -4.03235 -1.74064 0
M  V30 291 H 26.8126 -4.25219 -0.0829543 0
M  V30 292 N 25.1277 -0.289203 -1.54924 0
M  V30 293 C 26.3757 0.322879 -1.99504 0
M  V30 294 C 26.6967 1.55313 -1.1791 0
M  V30 295 O 25.9667 1.94001 -0.272097 0
M  V30 296 H 24.5467 0.122291 -0.736922 0
M  V30 297 H 27.2087 -0.397802 -1.90797 0
M  V30 298 H 26.3047 0.603061 -3.06218 0
M  V30 299 N 26.6058 1.57591 -0.0167156 0
M  V30 300 C 27.5688 2.08393 0.954204 0
M  V30 301 C 28.5688 0.996531 1.26198 0
M  V30 302 O 29.7588 1.25858 1.20438 0
M  V30 303 C 26.8908 2.5394 2.27436 0
M  V30 304 H 28.0838 2.95455 0.514451 0
M  V30 305 H 25.6368 1.54582 0.231089 0
M  V30 306 H 26.3718 1.70171 2.76066 0
M  V30 307 H 26.1568 3.33371 2.06412 0
M  V30 308 H 27.6468 2.93512 2.97053 0
M  V30 309 N 28.0839 -0.256276 1.55502 0
M  V30 310 C 29.3089 -1.00766 1.81276 0
M  V30 311 C 29.7339 -1.78524 0.59252 0
M  V30 312 O 29.0919 -1.75413 -0.45827 0
M  V30 313 C 29.1399 -1.92869 3.04687 0
M  V30 314 O 28.2439 -3.019 2.80945 0
M  V30 315 H 27.5849 -0.287224 0.598664 0
M  V30 316 H 30.1149 -0.280109 2.02674 0
M  V30 317 H 30.1249 -2.34511 3.33869 0
M  V30 318 H 28.7999 -1.35689 3.93143 0
M  V30 319 H 27.3769 -2.64454 2.62904 0
M  V30 320 N 29.562 -1.4872 -0.521534 0
M  V30 321 C 30.81 -1.56857 -1.27437 0
M  V30 322 C 31.131 -0.247982 -1.93417 0
M  V30 323 O 30.401 0.731151 -1.81744 0
M  V30 324 H 28.981 -0.577885 -0.473347 0
M  V30 325 H 31.643 -1.85233 -0.606205 0
M  V30 326 H 30.739 -2.35402 -2.0492 0
M  V30 327 N 31.0401 0.771051 -1.3745 0
M  V30 328 C 32.2881 1.52661 -1.32435 0
M  V30 329 C 32.6091 1.9479 0.0905024 0
M  V30 330 O 31.8791 1.66348 1.03466 0
M  V30 331 H 30.4591 0.566218 -0.487244 0
M  V30 332 H 33.1211 0.917636 -1.71946 0
M  V30 333 H 32.2171 2.42568 -1.96385 0
M  V30 334 N 32.5182 1.22032 0.997298 0
M  V30 335 C 33.7672 1.03637 1.73038 0
M  V30 336 C 34.0802 -0.429475 1.90827 0
M  V30 337 O 35.2862 -0.732995 2.61418 0
M  V30 338 C 33.7422 1.80582 3.11317 0
M  V30 339 C 33.3502 3.31387 3.01474 0
M  V30 340 C 35.0942 1.70621 3.88701 0
M  V30 341 C 33.0012 4.00791 4.3488 0
M  V30 342 H 31.9312 0.384179 0.648785 0
M  V30 343 H 34.5822 1.4584 1.11368 0
M  V30 344 H 32.9642 1.31175 3.73643 0
M  V30 345 H 34.1382 3.88155 2.4834 0
M  V30 346 H 32.4532 3.41976 2.37575 0
M  V30 347 H 35.0502 2.19799 4.87434 0
M  V30 348 H 35.3932 0.665823 4.10941 0
M  V30 349 H 35.9262 2.17547 3.33044 0
M  V30 350 H 32.6652 5.05064 4.1784 0
M  V30 351 H 32.1852 3.48811 4.87945 0
M  V30 352 H 33.8642 4.06139 5.03647 0
M  V30 353 N 33.9963 -1.19345 1.0293 0
M  V30 354 C 35.2443 -1.88665 0.724574 0
M  V30 355 C 35.5653 -1.80036 -0.749144 0
M  V30 356 O 34.8353 -1.2111 -1.53978 0
M  V30 357 H 33.4153 -0.698406 0.265025 0
M  V30 358 H 36.0773 -1.44885 1.30362 0
M  V30 359 H 35.1733 -2.94987 1.01926 0
M  V30 360 N 35.4744 -0.807222 -1.35358 0
M  V30 361 C 36.4374 -0.223665 -2.28106 0
M  V30 362 C 37.4374 0.589354 -1.4961 0
M  V30 363 O 38.6274 0.407745 -1.69361 0
M  V30 364 C 35.7594 0.688149 -3.33882 0
M  V30 365 H 36.9524 -1.04169 -2.81227 0
M  V30 366 H 34.5054 -0.577921 -1.45223 0
M  V30 367 H 35.2404 1.52984 -2.85948 0
M  V30 368 H 35.0254 0.10687 -3.91954 0
M  V30 369 H 36.5154 1.09075 -4.03104 0
M  V30 370 N 36.9525 1.47285 -0.560781 0
M  V30 371 C 37.9155 2.28535 0.174488 0
M  V30 372 C 38.9155 1.37153 0.839388 0
M  V30 373 O 40.1055 1.59748 0.694702 0
M  V30 374 C 37.2375 3.16934 1.25561 0
M  V30 375 H 38.4305 2.95012 -0.539262 0
M  V30 376 H 35.9835 1.53034 -0.317865 0
M  V30 377 H 36.7185 2.55157 2.00164 0
M  V30 378 H 36.5035 3.8419 0.783604 0
M  V30 379 H 37.9935 3.78143 1.77193 0
M  V30 380 N 38.4306 0.297415 1.54768 0
M  V30 381 C 39.6766 -0.313376 2.00364 0
M  V30 382 C 40.0096 -1.53815 1.18553 0
M  V30 383 O 39.2846 -1.92739 0.261103 0
M  V30 384 C 39.5676 -0.673525 3.53745 0
M  V30 385 C 39.4206 0.560133 4.46299 0
M  V30 386 C 40.7396 -1.50143 4.13697 0
M  V30 387 H 37.8586 -0.112428 0.728374 0
M  V30 388 H 40.5006 0.4088 1.8555 0
M  V30 389 H 38.6506 -1.28881 3.665 0
M  V30 390 H 40.3226 1.19863 4.45455 0
M  V30 391 H 38.5656 1.19405 4.17043 0
M  V30 392 H 39.2366 0.26405 5.51368 0
M  V30 393 H 41.7126 -0.981588 4.04356 0
M  V30 394 H 40.5886 -1.72221 5.21182 0
M  V30 395 H 40.8496 -2.48952 3.65343 0
M  V30 396 N 39.9087 -1.5758 0.0250728 0
M  V30 397 C 40.8717 -2.08896 -0.943139 0
M  V30 398 C 41.8717 -1.00321 -1.25668 0
M  V30 399 O 43.0617 -1.26495 -1.19769 0
M  V30 400 C 40.1937 -2.55143 -2.26086 0
M  V30 401 H 41.3867 -2.95723 -0.498775 0
M  V30 402 H 38.9397 -1.54703 -0.222888 0
M  V30 403 H 39.6747 -1.71633 -2.75159 0
M  V30 404 H 39.4597 -3.34461 -2.04641 0
M  V30 405 H 40.9497 -2.95083 -2.95492 0
M  V30 406 N 41.3868 0.248026 -1.55636 0
M  V30 407 C 42.8028 0.596483 -1.48035 0
M  V30 408 C 43.0028 1.88386 -0.715039 0
M  V30 409 O 42.0588 2.51319 -0.243944 0
M  V30 410 C 43.3718 0.700258 -2.92433 0
M  V30 411 C 44.9198 0.792659 -3.02797 0
M  V30 412 C 45.3948 0.928005 -4.485 0
M  V30 413 N 46.8858 0.992903 -4.52433 0
M  V30 414 C 47.6208 1.11687 -5.62418 0
M  V30 415 N 47.1168 1.20645 -6.82214 0
M  V30 416 N 48.9098 1.14994 -5.50212 0
M  V30 417 H 41.0608 -0.597109 -2.03834 0
M  V30 418 H 43.3238 -0.205925 -0.925364 0
M  V30 419 H 43.0298 -0.175658 -3.51261 0
M  V30 420 H 42.9038 1.57255 -3.42857 0
M  V30 421 H 45.2908 1.65903 -2.4405 0
M  V30 422 H 45.3718 -0.104762 -2.55585 0
M  V30 423 H 45.0158 0.0661971 -5.07857 0
M  V30 424 H 44.9458 1.84045 -4.93391 0
M  V30 425 H 47.4368 0.935064 -3.66149 0
M  V30 426 H 47.7498 1.30008 -7.61786 0
M  V30 427 H 46.0948 1.17605 -6.84977 0
M  V30 428 H 49.2858 1.07643 -4.55555 0
M  V30 429 H 49.4588 1.24311 -6.35965 0
M  V30 430 N 42.8649 1.48995 0.513639 0
M  V30 431 C 43.8279 1.64229 1.59879 0
M  V30 432 C 44.8279 0.514696 1.5234 0
M  V30 433 O 46.0179 0.78087 1.55718 0
M  V30 434 C 43.1499 1.62783 2.99524 0
M  V30 435 H 44.3429 2.61004 1.47705 0
M  V30 436 H 41.8959 1.37837 0.736936 0
M  V30 437 H 42.6309 0.675461 3.17188 0
M  V30 438 H 42.4159 2.4466 3.06404 0
M  V30 439 H 43.9059 1.76669 3.78388 0
M  V30 440 N 44.343 -0.763751 1.37857 0
M  V30 441 C 45.273 -1.89103 1.36975 0
M  V30 442 C 46.254 -1.68439 0.237152 0
M  V30 443 O 47.439 -1.8918 0.438713 0
M  V30 444 C 44.569 -3.26496 1.18395 0
M  V30 445 C 43.523 -3.61741 2.28751 0
M  V30 446 C 42.849 -4.97762 1.95286 0
M  V30 447 C 44.149 -3.67665 3.70972 0
M  V30 448 H 45.843 -1.90099 2.31307 0
M  V30 449 H 43.389 -0.91319 1.11341 0
M  V30 450 H 45.342 -4.05003 1.16406 0
M  V30 451 H 44.066 -3.25955 0.205215 0
M  V30 452 H 42.725 -2.85547 2.29909 0
M  V30 453 H 42.373 -4.93769 0.959221 0
M  V30 454 H 42.073 -5.22313 2.69189 0
M  V30 455 H 43.597 -5.7866 1.94898 0
M  V30 456 H 45.011 -4.36307 3.719 0
M  V30 457 H 43.408 -4.03718 4.43995 0
M  V30 458 H 44.478 -2.68134 4.0402 0
M  V30 459 N 45.8211 -1.22559 -0.990812 0
M  V30 460 C 47.0671 -1.05297 -1.73322 0
M  V30 461 C 47.4001 0.410655 -1.89808 0
M  V30 462 O 46.6751 1.30439 -1.44277 0
M  V30 463 C 46.9581 -1.76713 -3.13759 0
M  V30 464 C 46.8111 -3.30684 -3.04907 0
M  V30 465 C 48.1301 -1.52121 -4.12974 0
M  V30 466 H 45.2491 -0.38392 -0.629106 0
M  V30 467 H 47.8911 -1.50926 -1.15418 0
M  V30 468 H 46.0411 -1.37924 -3.63193 0
M  V30 469 H 47.7131 -3.7893 -2.63077 0
M  V30 470 H 45.9561 -3.60253 -2.41661 0
M  V30 471 H 46.6271 -3.75833 -4.04294 0
M  V30 472 H 49.1031 -1.85819 -3.72304 0
M  V30 473 H 47.9791 -2.04582 -5.0935 0
M  V30 474 H 48.2401 -0.454257 -4.3976 0
M  V30 475 N 47.2992 1.18797 -1.03562 0
M  V30 476 C 48.2312 2.21731 -0.580337 0
M  V30 477 C 49.2442 1.59051 0.347349 0
M  V30 478 O 50.4332 1.77929 0.142669 0
M  V30 479 C 47.5332 3.38459 0.172805 0
M  V30 480 C 46.7062 4.3072 -0.761496 0
M  V30 481 C 45.7652 5.26174 -0.0525547 0
M  V30 482 O 44.7912 5.65108 -0.681333 0
M  V30 483 N 45.9932 5.67624 1.21586 0
M  V30 484 H 48.7582 2.61417 -1.46565 0
M  V30 485 H 46.3192 1.33531 -0.915476 0
M  V30 486 H 48.3112 3.99335 0.656793 0
M  V30 487 H 46.8812 2.97507 0.959602 0
M  V30 488 H 46.1012 3.67525 -1.42544 0
M  V30 489 H 47.3892 4.89267 -1.39626 0
M  V30 490 H 46.7872 5.38038 1.74732 0
M  V30 491 H 45.3442 6.30721 1.64421 0
M  V30 492 N 48.7773 0.814389 1.34928 0
M  V30 493 C 49.7093 0.187834 2.28429 0
M  V30 494 C 50.7223 -0.617374 1.5064 0
M  V30 495 O 51.9113 -0.448454 1.72775 0
M  V30 496 C 49.0113 -0.755962 3.30361 0
M  V30 497 C 48.1843 0.00456686 4.374 0
M  V30 498 C 47.2433 -0.858876 5.19143 0
M  V30 499 O 46.2693 -0.306968 5.68372 0
M  V30 500 N 47.4713 -2.17988 5.38016 0
M  V30 501 H 50.2363 0.991105 2.82838 0
M  V30 502 H 47.7973 0.670561 1.4736 0
M  V30 503 H 49.7893 -1.338 3.81942 0
M  V30 504 H 48.3593 -1.46001 2.7641 0
M  V30 505 H 47.5793 0.767865 3.86649 0
M  V30 506 H 48.8673 0.528422 5.06049 0
M  V30 507 H 48.2653 -2.65212 4.99679 0
M  V30 508 H 46.8223 -2.71098 5.92747 0
M  V30 509 N 50.2554 -1.46986 0.568584 0
M  V30 510 C 51.5034 -2.02041 0.0487022 0
M  V30 511 C 51.8244 -1.44408 -1.31039 0
M  V30 512 O 51.0944 -0.623477 -1.85714 0
M  V30 513 H 49.6744 -0.746849 0.015014 0
M  V30 514 H 52.3364 -1.80257 0.741168 0
M  V30 515 H 51.4324 -3.12085 -0.0308961 0
M  V30 516 N 51.7335 -0.305618 -1.54608 0
M  V30 517 C 52.6635 0.561482 -2.26649 0
M  V30 518 C 53.6445 1.13415 -1.26772 0
M  V30 519 O 54.8295 1.16262 -1.55553 0
M  V30 520 C 51.9595 1.73122 -3.01075 0
M  V30 521 C 50.9135 1.2887 -4.08138 0
M  V30 522 C 50.2395 2.54396 -4.70305 0
M  V30 523 C 51.5395 0.416578 -5.20636 0
M  V30 524 H 53.2335 -0.0393902 -2.99374 0
M  V30 525 H 50.7795 -0.020385 -1.43986 0
M  V30 526 H 52.7325 2.34396 -3.50195 0
M  V30 527 H 51.4565 2.3584 -2.25936 0
M  V30 528 H 50.1155 0.698991 -3.59875 0
M  V30 529 H 49.7635 3.15439 -3.918 0
M  V30 530 H 49.4635 2.25486 -5.42614 0
M  V30 531 H 50.9875 3.16464 -5.2219 0
M  V30 532 H 52.4015 0.935116 -5.65622 0
M  V30 533 H 50.7985 0.221046 -5.99693 0
M  V30 534 H 51.8685 -0.557162 -4.81688 0
M  V30 535 N 53.2116 1.57565 -0.0334293 0
M  V30 536 C 54.1586 2.10478 0.946981 0
M  V30 537 C 55.1286 1.00787 1.32027 0
M  V30 538 O 56.3136 1.28232 1.41284 0
M  V30 539 C 53.4536 2.63994 2.22263 0
M  V30 540 C 52.5666 3.87709 1.90541 0
M  V30 541 C 51.7016 4.29604 3.12433 0
M  V30 542 C 50.7406 5.46065 2.76549 0
M  V30 543 N 49.8776 5.83096 3.9108 0
M  V30 544 H 54.7176 2.93963 0.488846 0
M  V30 545 H 52.2546 1.45296 0.22969 0
M  V30 546 H 54.2126 2.93114 2.96884 0
M  V30 547 H 52.8426 1.83333 2.65685 0
M  V30 548 H 51.8946 3.65291 1.06144 0
M  V30 549 H 53.2066 4.72403 1.60116 0
M  V30 550 H 52.3606 4.60182 3.9537 0
M  V30 551 H 51.0996 3.43685 3.46023 0
M  V30 552 H 50.1046 5.15176 1.92026 0
M  V30 553 H 51.3296 6.33685 2.44171 0
M  V30 554 H 49.2756 5.00132 4.24504 0
M  V30 555 H 49.1926 6.6244 3.64293 0
M  V30 556 H 50.4606 6.18282 4.74708 0
M  V30 557 N 54.6897 -0.239769 1.55765 0
M  V30 558 C 55.9357 -0.968234 1.78194 0
M  V30 559 C 56.2687 -1.84701 0.599938 0
M  V30 560 O 55.5437 -1.9031 -0.401524 0
M  V30 561 C 55.8267 -1.8227 3.10564 0
M  V30 562 C 55.6797 -0.971633 4.3918 0
M  V30 563 C 56.9987 -2.80388 3.39221 0
M  V30 564 H 54.1177 -0.350572 0.648281 0
M  V30 565 H 56.7597 -0.238259 1.885 0
M  V30 566 H 54.9097 -2.44507 3.01908 0
M  V30 567 H 56.5817 -0.367408 4.59835 0
M  V30 568 H 54.8247 -0.276276 4.32919 0
M  V30 569 H 55.4957 -1.60346 5.28198 0
M  V30 570 H 57.9717 -2.28287 3.47885 0
M  V30 571 H 56.8477 -3.3729 4.33044 0
M  V30 572 H 57.1087 -3.57212 2.60484 0
M  V30 573 N 56.1678 -1.49265 -0.50573 0
M  V30 574 C 57.4138 -1.58748 -1.26202 0
M  V30 575 C 57.7468 -0.271227 -1.92297 0
M  V30 576 O 57.0218 0.724831 -1.80489 0
M  V30 577 C 57.3048 -2.74332 -2.33268 0
M  V30 578 C 57.1578 -4.15737 -1.71705 0
M  V30 579 C 58.4768 -2.85576 -3.34865 0
M  V30 580 H 55.5958 -0.577826 -0.457478 0
M  V30 581 H 58.2378 -1.81532 -0.560897 0
M  V30 582 H 56.3878 -2.55036 -2.93068 0
M  V30 583 H 58.0598 -4.46537 -1.15769 0
M  V30 584 H 56.3028 -4.21605 -1.02135 0
M  V30 585 H 56.9738 -4.92477 -2.49341 0
M  V30 586 H 59.4498 -3.03127 -2.8505 0
M  V30 587 H 58.3258 -3.68135 -4.07146 0
M  V30 588 H 58.5868 -1.94732 -3.96903 0
M  V30 589 N 57.6459 0.756429 -1.3826 0
M  V30 590 C 58.8939 1.51248 -1.34047 0
M  V30 591 C 59.2149 1.94875 0.0698372 0
M  V30 592 O 58.4849 1.67436 1.01696 0
M  V30 593 H 57.0649 0.561018 -0.493222 0
M  V30 594 H 59.7269 0.899347 -1.7291 0
M  V30 595 H 58.8229 2.40472 -1.98947 0
M  V30 596 N 59.124 1.23083 0.984299 0
M  V30 597 C 60.364 1.07226 1.74017 0
M  V30 598 C 60.728 -0.384766 1.88105 0
M  V30 599 O 61.929 -0.664411 2.60459 0
M  V30 600 C 60.2 1.77348 3.10294 0
M  V30 601 S 61.759 1.77014 4.01512 0
M  V30 602 H 58.577 0.383819 0.598502 0
M  V30 603 H 61.179 1.56158 1.17622 0
M  V30 604 H 59.883 2.82506 2.97689 0
M  V30 605 H 59.414 1.28682 3.71759 0
M  V30 606 H 61.429 0.825956 4.89277 0
M  V30 607 N 60.6021 -1.18246 1.0419 0
M  V30 608 C 61.5651 -2.20128 0.638452 0
M  V30 609 C 62.5651 -1.57885 -0.304805 0
M  V30 610 O 63.7551 -1.73967 -0.0900369 0
M  V30 611 C 60.8871 -3.4084 -0.0637751 0
M  V30 612 H 62.0801 -2.57336 1.54007 0
M  V30 613 H 59.6331 -1.32152 0.834598 0
M  V30 614 H 60.3681 -3.09166 -0.979136 0
M  V30 615 H 60.1531 -3.8726 0.614198 0
M  V30 616 H 61.6431 -4.16274 -0.332512 0
M  V30 617 N 62.0802 -0.821533 -1.34494 0
M  V30 618 C 63.4962 -0.507117 -1.51329 0
M  V30 619 C 63.6962 0.968964 -1.76673 0
M  V30 620 O 62.7522 1.75348 -1.81685 0
M  V30 621 C 64.0652 -1.36544 -2.67911 0
M  V30 622 C 65.6132 -1.36242 -2.81793 0
M  V30 623 C 66.0882 -2.2052 -4.01416 0
M  V30 624 N 67.5792 -2.18136 -4.08621 0
M  V30 625 C 68.3142 -2.80095 -5.00334 0
M  V30 626 N 67.8102 -3.51039 -5.9728 0
M  V30 627 N 69.6032 -2.69656 -4.93196 0
M  V30 628 H 61.7542 -1.77729 -1.16302 0
M  V30 629 H 64.0172 -0.757291 -0.570276 0
M  V30 630 H 63.7232 -2.41361 -2.55808 0
M  V30 631 H 63.5972 -1.02917 -3.62888 0
M  V30 632 H 65.9842 -0.322041 -2.93338 0
M  V30 633 H 66.0652 -1.73866 -1.87628 0
M  V30 634 H 65.7092 -3.24607 -3.90631 0
M  V30 635 H 65.6392 -1.80247 -4.94791 0
M  V30 636 H 68.1302 -1.6653 -3.39229 0
M  V30 637 H 68.4432 -3.95565 -6.63889 0
M  V30 638 H 66.7882 -3.55145 -5.97409 0
M  V30 639 H 69.9792 -2.13808 -4.16418 0
M  V30 640 H 70.1522 -3.1823 -5.64476 0
M  V30 641 N 63.5583 1.46682 -0.576371 0
M  V30 642 C 64.7863 2.06798 -0.0649635 0
M  V30 643 C 65.2013 1.42612 1.23723 0
M  V30 644 O 64.5583 0.529203 1.74659 0
M  V30 645 C 64.6093 3.6132 0.114202 0
M  V30 646 O 64.3303 4.23104 -1.13644 0
M  V30 647 C 65.8313 4.38349 0.66069 0
M  V30 648 H 63.0513 0.668778 -0.0545616 0
M  V30 649 H 65.5953 1.88404 -0.795237 0
M  V30 650 H 63.7503 3.79162 0.794673 0
M  V30 651 H 64.1643 5.15894 -0.946253 0
M  V30 652 H 65.6383 5.47081 0.73526 0
M  V30 653 H 66.1153 4.05953 1.67627 0
M  V30 654 H 66.7213 4.25297 0.0152951 0
M  V30 655 N 65.0364 0.313813 1.54444 0
M  V30 656 C 66.2824 -0.292108 2.00685 0
M  V30 657 C 66.6154 -1.52548 1.20177 0
M  V30 658 O 65.8904 -1.92452 0.281531 0
M  V30 659 C 66.1734 -0.635968 3.5444 0
M  V30 660 C 66.0264 0.607437 4.4568 0
M  V30 661 C 67.3454 -1.45747 4.15266 0
M  V30 662 H 64.4644 -0.104697 0.729526 0
M  V30 663 H 67.1064 0.428457 1.85106 0
M  V30 664 H 65.2564 -1.24986 3.67846 0
M  V30 665 H 66.9284 1.24581 4.44159 0
M  V30 666 H 65.1714 1.23822 4.15753 0
M  V30 667 H 65.8424 0.322515 5.51057 0
M  V30 668 H 68.3184 -0.938645 4.05375 0
M  V30 669 H 67.1944 -1.66683 5.2298 0
M  V30 670 H 67.4554 -2.45063 3.67963 0
M  V30 671 N 66.5145 -1.57545 0.0417849 0
M  V30 672 C 67.7625 -1.91937 -0.632829 0
M  V30 673 C 68.0835 -0.919978 -1.71934 0
M  V30 674 O 67.3535 0.0366064 -1.95866 0
M  V30 675 H 65.9335 -0.708493 -0.236742 0
M  V30 676 H 68.5955 -1.9468 0.0925745 0
M  V30 677 H 67.6915 -2.92912 -1.07746 0
M  V30 678 N 67.9926 0.231505 -1.5589 0
M  V30 679 C 68.9406 1.30649 -1.92441 0
M  V30 680 C 69.9346 1.49037 -0.805254 0
M  V30 681 O 71.1406 1.50329 -0.990007 0
M  V30 682 H 67.5156 0.437812 -0.611412 0
M  V30 683 H 69.4866 0.970973 -2.82161 0
M  V30 684 C 68.2356 2.65179 -2.24889 0
M  V30 685 H 67.5586 2.51835 -3.10514 0
M  V30 686 H 68.9986 3.39234 -2.54355 0
M  V30 687 C 67.4576 3.19439 -1.07054 0
M  V30 688 O 67.9876 4.00371 -0.326499 0
M  V30 689 N 66.1936 2.77675 -0.85703 0
M  V30 690 H 65.7406 2.11969 -1.46379 0
M  V30 691 H 65.6986 3.14321 -0.0703223 0
M  V30 692 N 69.4707 1.49531 0.497807 0
M  V30 693 C 70.7197 1.58426 1.24837 0
M  V30 694 C 71.0327 0.277643 1.93619 0
M  V30 695 O 72.2387 0.24517 2.70391 0
M  V30 696 C 70.6947 2.79538 2.26686 0
M  V30 697 C 70.3027 4.16971 1.63828 0
M  V30 698 C 72.0467 2.97764 3.0255 0
M  V30 699 C 69.9537 5.29301 2.63807 0
M  V30 700 H 68.8837 0.58989 0.469623 0
M  V30 701 H 71.5347 1.75923 0.521857 0
M  V30 702 H 69.9167 2.55542 3.02514 0
M  V30 703 H 71.0907 4.51116 0.939711 0
M  V30 704 H 69.4057 4.04129 1.00342 0
M  V30 705 H 72.0027 3.78856 3.77323 0
M  V30 706 H 72.3457 2.08448 3.60354 0
M  V30 707 H 72.8787 3.21815 2.33838 0
M  V30 708 H 69.6177 6.20687 2.10779 0
M  V30 709 H 69.1377 4.99606 3.31894 0
M  V30 710 H 70.8167 5.58768 3.2617 0
M  V30 711 N 70.9488 -0.749086 1.3866 0
M  V30 712 C 71.8588 -1.89358 1.38494 0
M  V30 713 C 72.8748 -1.71708 0.281476 0
M  V30 714 O 74.0508 -1.94554 0.520643 0
M  V30 715 C 71.1158 -3.24782 1.21316 0
M  V30 716 C 70.1768 -3.54926 2.41508 0
M  V30 717 C 69.4098 -4.83888 2.2514 0
M  V30 718 O 69.6328 -5.56592 1.24746 0
M  V30 719 O 68.5668 -5.13612 3.13826 0
M  V30 720 H 72.3928 -1.92452 2.34938 0
M  V30 721 H 69.9778 -0.894981 1.19626 0
M  V30 722 H 71.8598 -4.05739 1.13814 0
M  V30 723 H 70.5348 -3.2249 0.279592 0
M  V30 724 H 69.4418 -2.74112 2.54585 0
M  V30 725 H 70.7748 -3.61983 3.3351 0
M  V30 726 N 72.4269 -1.23603 -0.977757 0
M  V30 727 C 73.3369 -1.03632 -2.1047 0
M  V30 728 C 74.3529 0.0199435 -1.73989 0
M  V30 729 O 75.5289 -0.176076 -2.00629 0
M  V30 730 C 72.5939 -0.63276 -3.40877 0
M  V30 731 C 71.6549 -1.76437 -3.91367 0
M  V30 732 C 70.8879 -1.37997 -5.15551 0
M  V30 733 O 71.1109 -0.265357 -5.69782 0
M  V30 734 O 70.0449 -2.20201 -5.60174 0
M  V30 735 H 73.8709 -1.98086 -2.30208 0
M  V30 736 H 71.4559 -1.02332 -1.08851 0
M  V30 737 H 73.3379 -0.418761 -4.19314 0
M  V30 738 H 72.0129 0.282754 -3.22463 0
M  V30 739 H 70.9199 -2.03304 -3.14036 0
M  V30 740 H 72.2529 -2.6583 -4.14241 0
M  V30 741 N 73.905 1.17692 -1.04816 0
M  V30 742 C 74.835 2.23777 -0.666791 0
M  V30 743 C 75.816 1.66796 0.33361 0
M  V30 744 O 77.001 1.93039 0.212042 0
M  V30 745 C 74.131 3.47281 -0.0367933 0
M  V30 746 C 73.085 4.17059 -0.961546 0
M  V30 747 C 72.411 5.34342 -0.195626 0
M  V30 748 C 73.711 4.69713 -2.28402 0
M  V30 749 H 75.405 2.55933 -1.55367 0
M  V30 750 H 72.951 1.23019 -0.748484 0
M  V30 751 H 74.904 4.20706 0.241775 0
M  V30 752 H 73.628 3.14381 0.885004 0
M  V30 753 H 72.287 3.45541 -1.22462 0
M  V30 754 H 71.935 4.97692 0.728816 0
M  V30 755 H 71.635 5.81966 -0.811775 0
M  V30 756 H 73.159 6.10553 0.0757473 0
M  V30 757 H 74.573 5.34794 -2.06563 0
M  V30 758 H 72.97 5.279 -2.8538 0
M  V30 759 H 74.04 3.86726 -2.92525 0
M  V30 760 N 75.3831 0.828654 1.34056 0
M  V30 761 C 76.3461 0.259927 2.27721 0
M  V30 762 C 77.3461 -0.565478 1.50529 0
M  V30 763 O 78.5361 -0.38075 1.69988 0
M  V30 764 C 75.6681 -0.634944 3.34935 0
M  V30 765 H 76.8611 1.0863 2.79534 0
M  V30 766 H 74.4141 0.600951 1.44285 0
M  V30 767 H 75.1491 -1.48416 2.88346 0
M  V30 768 H 74.9341 -0.0444999 3.92075 0
M  V30 769 H 76.4241 -1.02648 4.04788 0
M  V30 770 N 76.8612 -1.46375 0.584142 0
M  V30 771 C 77.8242 -2.28784 -0.138108 0
M  V30 772 C 78.8242 -1.38471 -0.817462 0
M  V30 773 O 80.0142 -1.60833 -0.669199 0
M  V30 774 C 77.1462 -3.18892 -1.20503 0
M  V30 775 H 78.3392 -2.94117 0.586127 0
M  V30 776 H 75.8922 -1.52509 0.342171 0
M  V30 777 H 76.6272 -2.58309 -1.96079 0
M  V30 778 H 76.4122 -3.85388 -0.722384 0
M  V30 779 H 77.9022 -3.80914 -1.71155 0
M  V30 780 N 78.3393 -0.321999 -1.54275 0
M  V30 781 C 79.2493 0.553631 -2.27974 0
M  V30 782 C 80.2653 1.13054 -1.32268 0
M  V30 783 O 81.4413 1.15084 -1.6528 0
M  V30 784 C 78.5063 1.69927 -3.02201 0
M  V30 785 C 77.5673 1.15433 -4.1349 0
M  V30 786 C 76.8003 2.24537 -4.84168 0
M  V30 787 O 77.0233 3.44852 -4.5435 0
M  V30 788 O 75.9573 1.90044 -5.7111 0
M  V30 789 H 79.7833 -0.0448345 -3.03667 0
M  V30 790 H 77.3683 -0.0877418 -1.49142 0
M  V30 791 H 79.2503 2.3663 -3.48689 0
M  V30 792 H 77.9253 2.28395 -2.29385 0
M  V30 793 H 76.8323 0.452436 -3.71354 0
M  V30 794 H 78.1653 0.614805 -4.88345 0
M  V30 795 N 79.8174 1.5752 -0.0501392 0
M  V30 796 C 81.0574 1.94521 0.627783 0
M  V30 797 C 81.4214 0.928265 1.68069 0
M  V30 798 O 82.6224 1.18517 2.41261 0
M  V30 799 C 80.8934 3.36319 1.20932 0
M  V30 800 S 82.4524 3.95272 1.90539 0
M  V30 801 H 79.2704 0.680456 0.206158 0
M  V30 802 H 81.8724 1.95139 -0.118829 0
M  V30 803 H 80.5764 4.08132 0.430865 0
M  V30 804 H 80.1074 3.39193 1.99277 0
M  V30 805 H 82.1224 3.80415 3.18589 0
M  V30 806 N 81.2955 -0.223234 1.56011 0
M  V30 807 C 82.2425 -1.27664 1.92277 0
M  V30 808 C 83.2125 -1.46659 0.779763 0
M  V30 809 O 84.3975 -1.60256 1.03551 0
M  V30 810 C 81.5375 -2.62234 2.24338 0
M  V30 811 C 80.6505 -2.51051 3.51564 0
M  V30 812 C 79.7855 -3.78133 3.7308 0
M  V30 813 C 78.8245 -3.61665 4.93827 0
M  V30 814 N 77.9615 -4.80693 5.11741 0
M  V30 815 H 82.8015 -0.960358 2.82101 0
M  V30 816 H 80.3385 -0.462901 1.39627 0
M  V30 817 H 82.2965 -3.40596 2.40936 0
M  V30 818 H 80.9265 -2.91961 1.3769 0
M  V30 819 H 79.9785 -1.64132 3.43169 0
M  V30 820 H 81.2905 -2.34803 4.40079 0
M  V30 821 H 80.4445 -4.64938 3.89766 0
M  V30 822 H 79.1835 -3.97304 2.82844 0
M  V30 823 H 78.1885 -2.73244 4.77093 0
M  V30 824 H 79.4135 -3.43966 5.85546 0
M  V30 825 H 77.3595 -5.00181 4.24446 0
M  V30 826 H 77.2765 -4.67165 5.94384 0
M  V30 827 H 78.5445 -5.6893 5.3286 0
M  V30 828 N 82.7736 -1.49793 -0.48987 0
M  V30 829 C 83.9986 -1.63836 -1.27172 0
M  V30 830 C 84.4236 -0.31402 -1.8546 0
M  V30 831 O 83.7816 0.719803 -1.66399 0
M  V30 832 C 83.8296 -2.71797 -2.36978 0
M  V30 833 O 82.9336 -2.31744 -3.41128 0
M  V30 834 H 82.2746 -0.547997 -0.37496 0
M  V30 835 H 84.8046 -1.96053 -0.585191 0
M  V30 836 H 84.8146 -2.94305 -2.82575 0
M  V30 837 H 83.4896 -3.67923 -1.93921 0
M  V30 838 H 82.0666 -2.1961 -3.01373 0
M  V30 839 N 84.2517 0.741722 -1.39055 0
M  V30 840 C 85.2147 1.83733 -1.37021 0
M  V30 841 C 86.2147 1.58542 -0.268534 0
M  V30 842 O 87.4047 1.66067 -0.526076 0
M  V30 843 C 84.5367 3.2141 -1.13617 0
M  V30 844 H 85.7297 1.86941 -2.34506 0
M  V30 845 H 83.2827 0.944676 -1.24521 0
M  V30 846 H 84.0177 3.23865 -0.167863 0
M  V30 847 H 83.8027 3.4109 -1.93391 0
M  V30 848 H 85.2927 4.01477 -1.14918 0
M  V30 849 N 85.7298 1.2412 0.971189 0
M  V30 850 C 86.9778 1.07668 1.71032 0
M  V30 851 C 87.2988 -0.385797 1.91146 0
M  V30 852 O 86.5688 -1.27569 1.4867 0
M  V30 853 H 85.1488 0.395429 0.633755 0
M  V30 854 H 87.8108 1.55984 1.16855 0
M  V30 855 H 86.9068 1.57195 2.69622 0
M  V30 856 N 87.2079 -1.17134 1.05439 0
M  V30 857 C 88.4379 -1.91094 0.785274 0
M  V30 858 C 88.8459 -1.77198 -0.663142 0
M  V30 859 O 88.1889 -1.10835 -1.46497 0
M  V30 860 C 88.2509 -3.42594 1.08949 0
M  V30 861 C 87.9149 -3.80274 2.53458 0
M  V30 862 C 88.9119 -3.82912 3.51673 0
M  V30 863 C 86.5969 -4.11162 2.88532 0
M  V30 864 C 88.5909 -4.15913 4.83006 0
M  V30 865 C 86.2779 -4.43831 4.20068 0
M  V30 866 C 87.2759 -4.46185 5.17115 0
M  V30 867 O 86.9639 -4.78083 6.46291 0
M  V30 868 H 86.6959 -0.613073 0.284811 0
M  V30 869 H 89.2499 -1.49461 1.40893 0
M  V30 870 H 87.4799 -3.84534 0.408741 0
M  V30 871 H 89.1689 -3.97817 0.805991 0
M  V30 872 H 89.9349 -3.5917 3.25917 0
M  V30 873 H 85.8139 -4.085 2.13656 0
M  V30 874 H 89.3579 -4.17665 5.5875 0
M  V30 875 H 85.2549 -4.67037 4.45586 0
M  V30 876 H 86.0229 -4.9593 6.51149 0
M  V30 877 N 88.686 -0.835752 -1.33615 0
M  V30 878 C 90.097 -0.487099 -1.80234 0
M  V30 879 C 90.448 0.993627 -1.69179 0
M  V30 880 O 89.573 1.77403 -1.23924 0
M  V30 881 C 90.168 -0.877385 -3.27242 0
M  V30 882 C 88.727 -0.580915 -3.7189 0
M  V30 883 C 87.874 -1.0874 -2.5509 0
M  V30 884 H 90.825 -1.02474 -1.2118 0
M  V30 885 H 90.846 -0.186195 -3.80044 0
M  V30 886 H 90.358 -1.95512 -3.35256 0
M  V30 887 H 88.459 0.486881 -3.69405 0
M  V30 888 H 88.572 -1.13396 -4.65487 0
M  V30 889 H 86.936 -0.508392 -2.49575 0
M  V30 890 H 87.719 -2.17184 -2.65868 0
M  V30 891 N 90.1641 1.46063 -0.591896 0
M  V30 892 C 91.4121 2.01938 -0.0808391 0
M  V30 893 C 91.7331 1.46475 1.28725 0
M  V30 894 O 91.0031 0.652944 1.84698 0
M  V30 895 H 89.5831 0.746516 -0.0268938 0
M  V30 896 H 92.2451 1.79055 -0.769752 0
M  V30 897 H 91.3411 3.12094 -0.0187578 0
M  V30 898 N 91.6422 0.330177 1.54103 0
M  V30 899 C 92.8702 -0.272179 2.05102 0
M  V30 900 C 93.2852 -1.45267 1.20595 0
M  V30 901 O 92.6422 -1.8094 0.238144 0
M  V30 902 C 92.6932 -0.70023 3.54653 0
M  V30 903 O 92.4142 0.433301 4.35952 0
M  V30 904 C 93.9152 -1.3647 4.21771 0
M  V30 905 H 91.1352 -0.0549159 0.668749 0
M  V30 906 H 93.6792 0.478285 1.98828 0
M  V30 907 H 91.8342 -1.40066 3.61193 0
M  V30 908 H 92.2482 0.0947539 5.24414 0
M  V30 909 H 93.7222 -1.61509 5.27843 0
M  V30 910 H 94.1992 -2.31409 3.73292 0
M  V30 911 H 94.8052 -0.706675 4.19388 0
M  V30 912 N 93.1203 -1.57491 0.0584922 0
M  V30 913 C 94.0503 -2.14988 -0.911178 0
M  V30 914 C 95.0313 -1.07343 -1.31952 0
M  V30 915 O 96.2163 -1.35318 -1.39294 0
M  V30 916 C 93.3463 -2.70078 -2.18347 0
M  V30 917 C 92.3003 -3.82771 -1.91495 0
M  V30 918 C 91.6263 -4.24408 -3.25241 0
M  V30 919 C 92.9263 -5.07592 -1.23075 0
M  V30 920 H 94.6203 -2.96263 -0.432246 0
M  V30 921 H 92.1663 -1.42512 -0.206469 0
M  V30 922 H 94.1193 -3.08943 -2.86587 0
M  V30 923 H 92.8433 -1.86005 -2.68458 0
M  V30 924 H 91.5023 -3.44389 -1.25664 0
M  V30 925 H 91.1503 -3.37275 -3.73168 0
M  V30 926 H 90.8503 -5.00366 -3.08071 0
M  V30 927 H 92.3743 -4.65879 -3.94701 0
M  V30 928 H 93.7883 -5.43857 -1.81362 0
M  V30 929 H 92.1853 -5.88741 -1.16207 0
M  V30 930 H 93.2553 -4.84454 -0.207847 0
M  V30 931 N 94.5984 0.214957 -1.56127 0
M  V30 932 C 95.8474 0.936451 -1.78643 0
M  V30 933 C 96.1604 1.85237 -0.628229 0
M  V30 934 O 97.3664 2.613 -0.737186 0
M  V30 935 C 95.8224 1.7154 -3.16389 0
M  V30 936 C 95.4304 0.845299 -4.39953 0
M  V30 937 C 97.1744 2.42772 -3.48227 0
M  V30 938 C 95.0814 1.62198 -5.68723 0
M  V30 939 H 94.0114 0.353401 -0.666051 0
M  V30 940 H 96.6624 0.190169 -1.82512 0
M  V30 941 H 95.0444 2.50484 -3.06715 0
M  V30 942 H 96.2184 0.0959353 -4.607 0
M  V30 943 H 94.5334 0.244789 -4.1568 0
M  V30 944 H 97.1304 3.01394 -4.41663 0
M  V30 945 H 97.4734 3.15984 -2.71035 0
M  V30 946 H 98.0064 1.70813 -3.5926 0
M  V30 947 H 94.7454 0.933011 -6.48826 0
M  V30 948 H 94.2654 2.34579 -5.52026 0
M  V30 949 H 95.9444 2.18095 -6.09133 0
M  V30 950 N 96.0765 1.50051 0.48192 0
M  V30 951 C 97.4875 1.5348 1.06305 0
M  V30 952 C 97.8385 0.331997 1.93371 0
M  V30 953 O 96.9635 -0.556256 2.09129 0
M  V30 954 C 97.5585 2.7813 1.93466 0
M  V30 955 C 96.1175 2.84275 2.46707 0
M  V30 956 C 95.2645 2.47637 1.24785 0
M  V30 957 H 98.2155 1.56472 0.264995 0
M  V30 958 H 98.2365 2.59372 2.78399 0
M  V30 959 H 97.7485 3.65654 1.30072 0
M  V30 960 H 95.8495 2.01077 3.13686 0
M  V30 961 H 95.9625 3.8691 2.82555 0
M  V30 962 H 94.3265 1.99835 1.57918 0
M  V30 963 H 95.1095 3.37457 0.630694 0
M  V30 964 N 97.5546 -0.734337 1.39446 0
M  V30 965 C 98.7846 -1.52137 1.39778 0
M  V30 966 C 99.1926 -1.89198 -0.00929312 0
M  V30 967 O 98.5356 -1.54666 -0.991168 0
M  V30 968 C 98.5976 -2.83762 2.20724 0
M  V30 969 C 98.2616 -2.69131 3.69347 0
M  V30 970 C 99.2586 -2.37635 4.62413 0
M  V30 971 C 96.9436 -2.85982 4.1294 0
M  V30 972 C 98.9376 -2.23172 5.97054 0
M  V30 973 C 96.6246 -2.71137 5.47657 0
M  V30 974 C 97.6226 -2.39777 6.39528 0
M  V30 975 O 97.3106 -2.25026 7.71763 0
M  V30 976 H 97.0426 -0.476717 0.479288 0
M  V30 977 H 99.5966 -0.915012 1.83893 0
M  V30 978 H 97.8266 -3.4666 1.71359 0
M  V30 979 H 99.5156 -3.45383 2.13226 0
M  V30 980 H 100.282 -2.24267 4.30034 0
M  V30 981 H 96.1606 -3.09383 3.41765 0
M  V30 982 H 99.7046 -1.98617 6.68728 0
M  V30 983 H 95.6016 -2.84083 5.79626 0
M  V30 984 H 96.3696 -2.40091 7.82495 0
M  V30 985 N 99.0327 -1.24633 -0.964593 0
M  V30 986 C 100.449 -1.01239 -1.2338 0
M  V30 987 C 100.649 0.2769 -1.99588 0
M  V30 988 O 99.7047 0.992241 -2.32187 0
M  V30 989 C 101.018 -2.22937 -2.01791 0
M  V30 990 C 102.566 -2.27594 -2.14872 0
M  V30 991 C 103.041 -3.48921 -2.96678 0
M  V30 992 N 104.532 -3.49257 -3.04259 0
M  V30 993 C 105.267 -4.39795 -3.67924 0
M  V30 994 N 104.763 -5.40591 -4.33281 0
M  V30 995 N 106.556 -4.275 -3.64966 0
M  V30 996 H 98.7067 -2.0748 -0.454502 0
M  V30 997 H 100.97 -0.910647 -0.26349 0
M  V30 998 H 100.676 -3.16587 -1.53184 0
M  V30 999 H 100.55 -2.25306 -3.02518 0
M  V30 1000 H 102.937 -1.34473 -2.6268 0
M  V30 1001 H 103.018 -2.2925 -1.13482 0
M  V30 1002 H 102.662 -4.42359 -2.49562 0
M  V30 1003 H 102.592 -3.4451 -3.98272 0
M  V30 1004 H 105.083 -2.76337 -2.57771 0
M  V30 1005 H 105.396 -6.05904 -4.79687 0
M  V30 1006 H 103.741 -5.44475 -4.3194 0
M  V30 1007 H 106.932 -3.47987 -3.13086 0
M  V30 1008 H 107.105 -4.98258 -4.14298 0
M  V30 1009 N 100.511 1.16574 -1.06058 0
M  V30 1010 C 101.751 1.88723 -0.78504 0
M  V30 1011 C 102.115 1.79706 0.676006 0
M  V30 1012 O 103.316 2.46757 1.06603 0
M  V30 1013 C 101.587 3.34338 -1.26304 0
M  V30 1014 S 103.146 4.24366 -1.1162 0
M  V30 1015 H 99.9638 0.651448 -0.284846 0
M  V30 1016 H 102.566 1.40732 -1.35701 0
M  V30 1017 H 101.27 3.38439 -2.32136 0
M  V30 1018 H 100.801 3.87378 -0.685719 0
M  V30 1019 H 102.816 4.96179 -0.0456539 0
M  V30 1020 N 101.989 0.842826 1.3317 0
M  V30 1021 C 103.266 0.362216 1.92217 0
M  V30 1022 C 103.646 -1.15289 1.76838 0
M  V30 1023 O 102.994 -1.96914 1.15919 0
M  V30 1024 C 103.204 0.813495 3.39387 0
M  V30 1025 C 104.552 0.823804 4.16532 0
M  V30 1026 O 105.576 0.757358 3.48055 0
M  V30 1027 O 104.435 0.915193 5.38782 0
M  V30 1028 H 101.529 0.103317 0.820521 0
M  V30 1029 H 104.075 0.928942 1.42017 0
M  V30 1030 H 102.847 1.85624 3.4447 0
M  V30 1031 H 102.47 0.223561 3.96971 0
M  V30 1032 N 103.467 -1.45747 0.599634 0
M  V30 1033 C 104.397 -2.33235 -0.111306 0
M  V30 1034 C 105.378 -1.46359 -0.866781 0
M  V30 1035 O 106.563 -1.75146 -0.838904 0
M  V30 1036 C 103.693 -3.28932 -1.11451 0
M  V30 1037 C 102.647 -4.25381 -0.472772 0
M  V30 1038 C 101.973 -5.1071 -1.58365 0
M  V30 1039 C 103.273 -5.18831 0.600948 0
M  V30 1040 H 104.967 -2.92927 0.61919 0
M  V30 1041 H 102.513 -1.40857 0.299215 0
M  V30 1042 H 104.466 -3.89002 -1.62036 0
M  V30 1043 H 103.19 -2.67381 -1.8755 0
M  V30 1044 H 101.849 -3.66598 0.0121472 0
M  V30 1045 H 101.497 -4.45533 -2.33473 0
M  V30 1046 H 101.197 -5.7604 -1.15982 0
M  V30 1047 H 102.721 -5.73647 -2.09194 0
M  V30 1048 H 104.135 -5.73019 0.179491 0
M  V30 1049 H 102.532 -5.92595 0.946076 0
M  V30 1050 H 103.602 -4.6174 1.48068 0
M  V30 1051 N 104.945 -0.338344 -1.53925 0
M  V30 1052 C 106.17 0.263987 -2.05713 0
M  V30 1053 C 106.595 1.43847 -1.21201 0
M  V30 1054 O 105.953 1.79904 -0.224535 0
M  V30 1055 C 106.001 0.662 -3.54471 0
M  V30 1056 O 105.105 1.76265 -3.72833 0
M  V30 1057 H 104.446 0.0448722 -0.662482 0
M  V30 1058 H 106.976 -0.491048 -1.9862 0
M  V30 1059 H 106.986 0.940594 -3.9701 0
M  V30 1060 H 105.661 -0.196937 -4.15433 0
M  V30 1061 H 104.238 1.48173 -3.42198 0
M  V30 1062 N 106.423 1.57458 -0.0668435 0
M  V30 1063 C 107.371 2.13639 0.919851 0
M  V30 1064 C 108.365 1.07204 1.31163 0
M  V30 1065 O 109.571 1.25591 1.28945 0
M  V30 1066 H 105.946 0.683048 0.314562 0
M  V30 1067 H 107.917 2.95415 0.421047 0
M  V30 1068 C 106.666 2.70892 2.17975 0
M  V30 1069 H 105.989 3.5246 1.88711 0
M  V30 1070 H 107.429 3.13803 2.85138 0
M  V30 1071 C 105.888 1.65414 2.93496 0
M  V30 1072 O 106.418 1.07619 3.87015 0
M  V30 1073 N 104.624 1.36564 2.56512 0
M  V30 1074 H 104.171 1.83751 1.80536 0
M  V30 1075 H 104.129 0.66223 3.07347 0
M  V30 1076 N 107.901 -0.206675 1.56239 0
M  V30 1077 C 108.811 -1.27686 1.96808 0
M  V30 1078 C 109.827 -1.50455 0.874035 0
M  V30 1079 O 111.003 -1.63295 1.17884 0
M  V30 1080 C 108.068 -2.60358 2.28942 0
M  V30 1081 C 107.129 -2.45762 3.51994 0
M  V30 1082 C 106.362 -3.72108 3.82585 0
M  V30 1083 O 106.585 -4.75776 3.14631 0
M  V30 1084 O 105.519 -3.6833 4.76043 0
M  V30 1085 H 109.345 -0.962593 2.88041 0
M  V30 1086 H 106.93 -0.410746 1.43643 0
M  V30 1087 H 108.812 -3.38687 2.50737 0
M  V30 1088 H 107.487 -2.91435 1.4088 0
M  V30 1089 H 106.394 -1.65584 3.35459 0
M  V30 1090 H 107.727 -2.19621 4.40486 0
M  V30 1091 N 109.379 -1.50304 -0.473955 0
M  V30 1092 C 110.289 -1.7174 -1.5982 0
M  V30 1093 C 111.305 -0.600457 -1.63311 0
M  V30 1094 O 112.481 -0.878441 -1.81233 0
M  V30 1095 C 109.546 -1.80427 -2.96052 0
M  V30 1096 C 108.607 -3.04148 -3.02972 0
M  V30 1097 C 107.84 -3.12411 -4.32706 0
M  V30 1098 O 108.063 -2.27542 -5.23049 0
M  V30 1099 O 106.997 -4.05113 -4.45159 0
M  V30 1100 H 110.823 -2.67035 -1.44657 0
M  V30 1101 H 108.408 -1.34366 -0.653148 0
M  V30 1102 H 110.29 -1.88338 -3.7697 0
M  V30 1103 H 108.965 -0.883156 -3.11419 0
M  V30 1104 H 107.872 -3.0174 -2.21142 0
M  V30 1105 H 109.205 -3.95829 -2.92541 0
M  V30 1106 N 110.857 0.726932 -1.39834 0
M  V30 1107 C 112.134 1.47902 -1.28001 0
M  V30 1108 C 112.514 2.1083 0.106789 0
M  V30 1109 O 111.862 1.99242 1.11869 0
M  V30 1110 C 112.072 2.52392 -2.41038 0
M  V30 1111 C 113.42 3.18546 -2.80737 0
M  V30 1112 O 114.444 2.62708 -2.40547 0
M  V30 1113 O 113.303 4.19604 -3.50135 0
M  V30 1114 H 110.397 0.657163 -0.502062 0
M  V30 1115 H 112.943 0.760071 -1.51727 0
M  V30 1116 H 111.715 2.04329 -3.33715 0
M  V30 1117 H 111.338 3.31837 -2.19021 0
M  V30 1118 N 112.336 1.25143 0.95797 0
M  V30 1119 C 113.585 1.0909 1.69654 0
M  V30 1120 C 113.898 -0.368548 1.92097 0
M  V30 1121 O 115.104 -0.649455 2.63618 0
M  V30 1122 C 113.56 1.90395 3.05414 0
M  V30 1123 C 113.168 3.4081 2.90779 0
M  V30 1124 C 114.912 1.82901 3.83076 0
M  V30 1125 C 112.819 4.14423 4.21909 0
M  V30 1126 H 111.749 0.404625 0.636235 0
M  V30 1127 H 114.4 1.4931 1.06672 0
M  V30 1128 H 112.782 1.42996 3.69281 0
M  V30 1129 H 113.956 3.95859 2.35865 0
M  V30 1130 H 112.271 3.49361 2.26575 0
M  V30 1131 H 114.868 2.35196 4.80195 0
M  V30 1132 H 115.211 0.796224 4.08615 0
M  V30 1133 H 115.744 2.28033 3.25954 0
M  V30 1134 H 112.483 5.18102 4.01561 0
M  V30 1135 H 112.003 3.64159 4.76601 0
M  V30 1136 H 113.682 4.21956 4.90471 0
M  V30 1137 N 113.814 -1.1601 1.06675 0
M  V30 1138 C 114.744 -2.22688 0.702307 0
M  V30 1139 C 115.725 -1.67306 -0.307032 0
M  V30 1140 O 116.91 -1.93352 -0.181305 0
M  V30 1141 C 114.04 -3.47178 0.092038 0
M  V30 1142 C 112.994 -4.15477 1.02777 0
M  V30 1143 C 112.32 -5.33963 0.28061 0
M  V30 1144 C 113.62 -4.66019 2.35846 0
M  V30 1145 H 115.314 -2.53429 1.59419 0
M  V30 1146 H 112.86 -1.21813 0.767961 0
M  V30 1147 H 114.813 -4.21037 -0.174814 0
M  V30 1148 H 113.537 -3.15749 -0.834877 0
M  V30 1149 H 112.196 -3.43549 1.27944 0
M  V30 1150 H 111.844 -4.98788 -0.649545 0
M  V30 1151 H 111.544 -5.806 0.904258 0
M  V30 1152 H 113.068 -6.10596 0.021396 0
M  V30 1153 H 114.482 -5.3144 2.15045 0
M  V30 1154 H 112.879 -5.23293 2.93743 0
M  V30 1155 H 113.949 -3.82023 2.98641 0
M  V30 1156 N 115.292 -0.849877 -1.32721 0
M  V30 1157 C 116.517 -0.463856 -2.02146 0
M  V30 1158 C 116.942 0.930449 -1.63476 0
M  V30 1159 O 116.3 1.61033 -0.832952 0
M  V30 1160 C 116.348 -0.604955 -3.55489 0
M  V30 1161 O 115.452 0.36425 -4.10788 0
M  V30 1162 H 114.793 -0.187046 -0.637111 0
M  V30 1163 H 117.323 -1.14775 -1.69375 0
M  V30 1164 H 117.333 -0.490696 -4.05038 0
M  V30 1165 H 116.008 -1.62174 -3.82978 0
M  V30 1166 H 114.585 0.206628 -3.72327 0
M  V30 1167 N 116.77 1.45427 -0.607355 0
M  V30 1168 C 117.703 2.27635 0.160482 0
M  V30 1169 C 118.681 1.37122 0.873857 0
M  V30 1170 O 119.865 1.66551 0.882775 0
M  V30 1171 C 116.992 3.15486 1.23231 0
M  V30 1172 C 116.038 4.21939 0.622097 0
M  V30 1173 S 116.871 5.32459 -0.569852 0
M  V30 1174 C 118.027 6.23879 0.502577 0
M  V30 1175 H 118.26 2.9241 -0.536983 0
M  V30 1176 H 115.793 1.49265 -0.394868 0
M  V30 1177 H 117.751 3.66659 1.84585 0
M  V30 1178 H 116.412 2.49977 1.90185 0
M  V30 1179 H 115.605 4.8333 1.42856 0
M  V30 1180 H 115.207 3.73906 0.0837063 0
M  V30 1181 H 117.499 6.63261 1.38171 0
M  V30 1182 H 118.442 7.0806 -0.0751759 0
M  V30 1183 H 118.85 5.58545 0.8178 0
M  V30 1184 N 118.248 0.346503 1.53744 0
M  V30 1185 C 119.495 -0.249104 2.00962 0
M  V30 1186 C 119.823 -1.5032 1.23426 0
M  V30 1187 O 119.078 -1.93217 0.310761 0
M  V30 1188 C 119.377 -0.605809 3.52228 0
M  V30 1189 C 119.043 0.551747 4.47512 0
M  V30 1190 C 117.705 0.86941 4.73281 0
M  V30 1191 C 120.057 1.32818 5.03993 0
M  V30 1192 C 117.385 1.96582 5.52786 0
M  V30 1193 C 119.737 2.41486 5.84694 0
M  V30 1194 C 118.401 2.73808 6.08757 0
M  V30 1195 H 117.671 -0.0911538 0.735372 0
M  V30 1196 H 120.318 0.475027 1.85515 0
M  V30 1197 H 118.623 -1.4107 3.65522 0
M  V30 1198 H 120.32 -1.07858 3.86222 0
M  V30 1199 H 116.91 0.294102 4.2759 0
M  V30 1200 H 121.094 1.09602 4.84047 0
M  V30 1201 H 116.35 2.22045 5.69654 0
M  V30 1202 H 120.524 3.02078 6.27473 0
M  V30 1203 H 118.151 3.58892 6.7015 0
M  V30 1204 N 119.726 -1.57421 0.075193 0
M  V30 1205 C 120.951 -1.98364 -0.605515 0
M  V30 1206 C 121.376 -0.953383 -1.62149 0
M  V30 1207 O 120.734 0.0806053 -1.81121 0
M  V30 1208 C 120.782 -3.38332 -1.24756 0
M  V30 1209 O 119.886 -3.37959 -2.36342 0
M  V30 1210 H 119.227 -0.645553 -0.155428 0
M  V30 1211 H 121.757 -2.04044 0.150714 0
M  V30 1212 H 121.767 -3.75591 -1.5936 0
M  V30 1213 H 120.442 -4.12846 -0.503129 0
M  V30 1214 H 119.019 -3.12474 -2.03506 0
M  V30 1215 N 121.204 0.198386 -1.56346 0
M  V30 1216 C 122.167 1.22952 -1.93431 0
M  V30 1217 C 123.167 1.38611 -0.815092 0
M  V30 1218 O 124.357 1.36479 -1.08255 0
M  V30 1219 C 121.489 2.59946 -2.20546 0
M  V30 1220 H 122.682 0.912626 -2.85677 0
M  V30 1221 H 120.235 0.43977 -1.49986 0
M  V30 1222 H 120.97 2.96696 -1.30927 0
M  V30 1223 H 120.755 2.49953 -3.02102 0
M  V30 1224 H 122.245 3.3431 -2.50253 0
M  V30 1225 N 122.682 1.50554 0.465978 0
M  V30 1226 C 123.931 1.61038 1.21448 0
M  V30 1227 C 124.244 0.31865 1.92987 0
M  V30 1228 O 125.45 0.302469 2.6981 0
M  V30 1229 C 123.906 2.84283 2.20706 0
M  V30 1230 C 123.514 4.20352 1.54946 0
M  V30 1231 C 125.258 3.04115 2.96166 0
M  V30 1232 C 123.165 5.34778 2.5252 0
M  V30 1233 H 122.095 0.599718 0.457005 0
M  V30 1234 H 124.746 1.7699 0.484424 0
M  V30 1235 H 123.128 2.61901 2.97025 0
M  V30 1236 H 124.302 4.53008 0.843811 0
M  V30 1237 H 122.617 4.06167 0.917475 0
M  V30 1238 H 125.214 3.86774 3.69202 0
M  V30 1239 H 125.557 2.16045 3.55852 0
M  V30 1240 H 126.09 3.26702 2.26959 0
M  V30 1241 H 122.829 6.25018 1.97566 0
M  V30 1242 H 122.349 5.06534 3.21222 0
M  V30 1243 H 124.028 5.65561 3.14245 0
M  V30 1244 N 124.16 -0.719506 1.40217 0
M  V30 1245 C 125.576 -1.02707 1.22161 0
M  V30 1246 C 125.776 -2.0128 0.0940557 0
M  V30 1247 O 124.832 -2.46452 -0.549318 0
M  V30 1248 C 126.145 -1.57454 2.56181 0
M  V30 1249 C 127.693 -1.69458 2.63159 0
M  V30 1250 C 128.168 -2.27611 3.97438 0
M  V30 1251 N 129.659 -2.35002 3.99159 0
M  V30 1252 C 130.394 -2.80972 4.99842 0
M  V30 1253 N 129.89 -3.26723 6.10921 0
M  V30 1254 N 131.683 -2.80321 4.87213 0
M  V30 1255 H 123.834 -0.0660492 2.12297 0
M  V30 1256 H 126.097 -0.0919077 0.943534 0
M  V30 1257 H 125.803 -0.924873 3.39321 0
M  V30 1258 H 125.677 -2.56036 2.76993 0
M  V30 1259 H 128.064 -2.33543 1.80393 0
M  V30 1260 H 128.145 -0.694867 2.46181 0
M  V30 1261 H 127.789 -1.6415 4.80643 0
M  V30 1262 H 127.719 -3.2829 4.11744 0
M  V30 1263 H 130.21 -2.02685 3.18947 0
M  V30 1264 H 130.523 -3.60355 6.8364 0
M  V30 1265 H 128.868 -3.24692 6.14492 0
M  V30 1266 H 132.059 -2.43912 3.9953 0
M  V30 1267 H 132.232 -3.15831 5.65822 0
M  V30 1268 N 125.638 -1.25649 -0.95132 0
M  V30 1269 C 126.863 -1.13443 -1.73624 0
M  V30 1270 C 127.288 0.307565 -1.85568 0
M  V30 1271 O 126.646 1.22282 -1.33854 0
M  V30 1272 C 126.694 -1.79723 -3.12621 0
M  V30 1273 O 125.798 -1.07912 -3.98031 0
M  V30 1274 H 125.139 -0.395872 -0.533086 0
M  V30 1275 H 127.669 -1.66276 -1.1922 0
M  V30 1276 H 127.679 -1.86141 -3.63064 0
M  V30 1277 H 126.354 -2.84633 -3.03244 0
M  V30 1278 H 124.931 -1.09398 -3.56492 0
M  V30 1279 N 127.117 1.15442 -1.07289 0
M  V30 1280 C 128.049 2.19773 -0.650585 0
M  V30 1281 C 129.062 1.60076 0.296572 0
M  V30 1282 O 130.251 1.78293 0.0859905 0
M  V30 1283 C 127.351 3.38838 0.0650398 0
M  V30 1284 C 126.524 4.2808 -0.898141 0
M  V30 1285 C 125.583 5.2574 -0.219926 0
M  V30 1286 O 124.609 5.62654 -0.860773 0
M  V30 1287 N 125.811 5.71205 1.03466 0
M  V30 1288 H 128.576 2.56622 -1.54808 0
M  V30 1289 H 126.137 1.30551 -0.957494 0
M  V30 1290 H 128.129 4.01222 0.529415 0
M  V30 1291 H 126.699 3.00409 0.864466 0
M  V30 1292 H 125.919 3.62804 -1.54165 0
M  V30 1293 H 127.207 4.84577 -1.5512 0
M  V30 1294 H 126.605 5.43325 1.57526 0
M  V30 1295 H 125.162 6.35633 1.44272 0
M  V30 1296 N 128.595 0.856903 1.32268 0
M  V30 1297 C 129.545 0.274899 2.26337 0
M  V30 1298 C 130.529 -0.580543 1.50062 0
M  V30 1299 O 131.721 -0.429559 1.71708 0
M  V30 1300 C 128.85 -0.533841 3.39124 0
M  V30 1301 C 127.936 0.334114 4.22782 0
M  V30 1302 N 128.327 1.42143 4.85416 0
M  V30 1303 C 126.625 0.124256 4.45827 0
M  V30 1304 C 127.326 1.95559 5.47843 0
M  V30 1305 N 126.302 1.25444 5.28928 0
M  V30 1306 H 130.104 1.10612 2.72291 0
M  V30 1307 H 127.618 0.703258 1.46383 0
M  V30 1308 H 129.615 -0.96722 4.05525 0
M  V30 1309 H 128.275 -1.36283 2.94715 0
M  V30 1310 H 129.286 1.80436 4.85451 0
M  V30 1311 H 125.963 -0.669837 4.12092 0
M  V30 1312 H 127.353 2.86714 6.07655 0
M  V30 1313 N 130.073 -1.45103 0.615059 0
M  V30 1314 C 131.298 -2.07064 0.117988 0
M  V30 1315 C 131.723 -1.4554 -1.19163 0
M  V30 1316 O 131.081 -0.550855 -1.72729 0
M  V30 1317 C 131.129 -3.606 -0.000288387 0
M  V30 1318 O 130.233 -3.98847 -1.04856 0
M  V30 1319 H 129.574 -0.659467 0.0774581 0
M  V30 1320 H 132.104 -1.86236 0.847186 0
M  V30 1321 H 132.114 -4.07529 -0.196091 0
M  V30 1322 H 130.789 -4.04765 0.955932 0
M  V30 1323 H 129.366 -3.63577 -0.828619 0
M  V30 1324 N 131.551 -0.354651 -1.53558 0
M  V30 1325 C 132.799 0.237972 -2.00694 0
M  V30 1326 C 133.12 1.50173 -1.24391 0
M  V30 1327 O 132.39 1.92673 -0.354135 0
M  V30 1328 H 130.97 0.0909256 -0.741446 0
M  V30 1329 H 133.632 -0.478368 -1.88938 0
M  V30 1330 H 132.728 0.47264 -3.085 0
M  V30 1331 N 133.029 1.57378 -0.0835403 0
M  V30 1332 C 134.275 1.94217 0.583733 0
M  V30 1333 C 134.608 0.964653 1.68547 0
M  V30 1334 O 133.883 -0.00422258 1.945 0
M  V30 1335 C 134.166 3.41253 1.14972 0
M  V30 1336 C 134.019 4.49768 0.0538277 0
M  V30 1337 C 135.338 3.89352 2.05166 0
M  V30 1338 H 132.457 0.706233 0.210724 0
M  V30 1339 H 135.099 1.89392 -0.1519 0
M  V30 1340 H 133.249 3.45496 1.77665 0
M  V30 1341 H 134.921 4.57641 -0.579851 0
M  V30 1342 H 133.164 4.29432 -0.614068 0
M  V30 1343 H 133.835 5.49817 0.490452 0
M  V30 1344 H 136.311 3.87189 1.52393 0
M  V30 1345 H 135.187 4.92822 2.41698 0
M  V30 1346 H 135.448 3.27973 2.96456 0
M  V30 1347 N 134.507 -0.190092 1.56449 0
M  V30 1348 C 135.784 -0.935886 1.71757 0
M  V30 1349 C 136.164 -2.01173 0.639726 0
M  V30 1350 O 135.512 -2.25827 -0.348502 0
M  V30 1351 C 135.722 -1.51775 3.1427 0
M  V30 1352 C 137.07 -1.99794 3.74656 0
M  V30 1353 O 138.094 -1.61607 3.1743 0
M  V30 1354 O 136.953 -2.70079 4.751 0
M  V30 1355 H 134.047 -0.439229 0.700719 0
M  V30 1356 H 136.593 -0.179395 1.68749 0
M  V30 1357 H 135.365 -0.742505 3.84191 0
M  V30 1358 H 134.988 -2.33894 3.21527 0
M  V30 1359 N 135.985 -1.50799 -0.457987 0
M  V30 1360 C 137.234 -1.6168 -1.20593 0
M  V30 1361 C 137.547 -0.32888 -1.92815 0
M  V30 1362 O 138.753 -0.316773 -2.69646 0
M  V30 1363 C 137.209 -2.8545 -2.19195 0
M  V30 1364 C 136.817 -4.21168 -1.52715 0
M  V30 1365 C 138.561 -3.05681 -2.94549 0
M  V30 1366 C 136.468 -5.3611 -2.4968 0
M  V30 1367 H 135.398 -0.602134 -0.453818 0
M  V30 1368 H 138.049 -1.77245 -0.475031 0
M  V30 1369 H 136.431 -2.63472 -2.95632 0
M  V30 1370 H 137.605 -4.53449 -0.819775 0
M  V30 1371 H 135.92 -4.06648 -0.895922 0
M  V30 1372 H 138.517 -3.88727 -3.67145 0
M  V30 1373 H 138.86 -2.17929 -3.54701 0
M  V30 1374 H 139.393 -3.27901 -2.25223 0
M  V30 1375 H 136.132 -6.26057 -1.94249 0
M  V30 1376 H 135.652 -5.0823 -3.18532 0
M  V30 1377 H 137.331 -5.6722 -3.11241 0
M  V30 1378 N 137.463 0.71206 -1.40597 0
M  V30 1379 C 138.703 1.48438 -1.40519 0
M  V30 1380 C 139.067 1.91998 -0.00767611 0
M  V30 1381 O 140.268 2.6854 0.118239 0
M  V30 1382 C 138.539 2.67514 -2.37004 0
M  V30 1383 S 140.098 3.56875 -2.55315 0
M  V30 1384 H 136.916 0.507457 -0.498005 0
M  V30 1385 H 139.518 0.832355 -1.76896 0
M  V30 1386 H 138.222 2.33689 -3.37368 0
M  V30 1387 H 137.753 3.37625 -2.01923 0
M  V30 1388 H 139.768 4.62081 -1.8082 0
M  V30 1389 N 138.941 1.26152 0.944643 0
M  V30 1390 C 140.19 1.10883 1.68487 0
M  V30 1391 C 140.503 -0.348153 1.92477 0
M  V30 1392 O 141.709 -0.621459 2.64292 0
M  V30 1393 C 140.165 1.93624 3.03377 0
M  V30 1394 C 139.773 3.43875 2.87148 0
M  V30 1395 C 141.517 1.86954 3.81115 0
M  V30 1396 C 139.424 4.18875 4.1749 0
M  V30 1397 H 138.354 0.41135 0.631907 0
M  V30 1398 H 141.005 1.50433 1.05082 0
M  V30 1399 H 139.387 1.46904 3.67743 0
M  V30 1400 H 140.561 3.98338 2.31653 0
M  V30 1401 H 138.876 3.51744 2.22856 0
M  V30 1402 H 141.473 2.40275 4.77673 0
M  V30 1403 H 141.816 0.839518 4.07747 0
M  V30 1404 H 142.349 2.31477 3.23517 0
M  V30 1405 H 139.088 5.22332 3.96043 0
M  V30 1406 H 138.608 3.69193 4.72712 0
M  V30 1407 H 140.287 4.27134 4.85968 0
M  V30 1408 N 140.419 -1.14872 1.07899 0
M  V30 1409 C 141.367 -2.21857 0.698727 0
M  V30 1410 C 142.361 -1.66845 -0.293086 0
M  V30 1411 O 143.567 -1.79321 -0.156204 0
M  V30 1412 H 139.942 -0.722691 0.207899 0
M  V30 1413 H 141.913 -2.51205 1.61054 0
M  V30 1414 C 140.662 -3.47498 0.11858 0
M  V30 1415 H 139.985 -3.90154 0.872914 0
M  V30 1416 H 141.425 -4.23858 -0.109759 0
M  V30 1417 C 139.884 -3.16947 -1.1422 0
M  V30 1418 O 140.414 -3.3426 -2.22785 0
M  V30 1419 N 138.62 -2.70946 -1.05055 0
M  V30 1420 H 138.167 -2.57058 -0.167038 0
M  V30 1421 H 138.125 -2.50879 -1.89491 0
M  V30 1422 N 141.898 -0.863906 -1.31812 0
M  V30 1423 C 142.846 -0.30422 -2.30602 0
M  V30 1424 C 143.84 0.577419 -1.59255 0
M  V30 1425 O 145.046 0.464194 -1.73912 0
M  V30 1426 H 141.421 -0.0796877 -0.747766 0
M  V30 1427 H 143.392 -1.15148 -2.75288 0
M  V30 1428 C 142.141 0.484617 -3.44306 0
M  V30 1429 H 141.464 -0.18451 -3.99374 0
M  V30 1430 H 142.904 0.841664 -4.15562 0
M  V30 1431 C 141.363 1.6735 -2.92396 0
M  V30 1432 O 141.893 2.77273 -2.90659 0
M  V30 1433 N 140.099 1.50362 -2.48676 0
M  V30 1434 H 139.646 0.609402 -2.50288 0
M  V30 1435 H 139.604 2.30051 -2.14299 0
M  V30 1436 N 143.376 1.44774 -0.622745 0
M  V30 1437 C 144.339 2.29069 0.0774015 0
M  V30 1438 C 145.339 1.4059 0.780461 0
M  V30 1439 O 146.529 1.62551 0.626322 0
M  V30 1440 C 143.661 3.21974 1.12006 0
M  V30 1441 H 144.854 2.92459 -0.663901 0
M  V30 1442 H 142.407 1.51548 -0.382486 0
M  V30 1443 H 143.142 2.63417 1.89162 0
M  V30 1444 H 142.927 3.87168 0.619951 0
M  V30 1445 H 144.417 3.85318 1.60995 0
M  V30 1446 N 144.854 0.36279 1.53368 0
M  V30 1447 C 146.102 -0.227326 2.00817 0
M  V30 1448 C 146.423 -1.49511 1.25186 0
M  V30 1449 O 145.693 -1.92482 0.364348 0
M  V30 1450 H 144.273 -0.0869923 0.741917 0
M  V30 1451 H 146.935 0.488381 1.88682 0
M  V30 1452 H 146.031 -0.456273 3.08747 0
M  V30 1453 N 146.332 -1.57332 0.0918853 0
M  V30 1454 C 147.262 -2.16872 -0.865371 0
M  V30 1455 C 148.243 -1.10118 -1.29646 0
M  V30 1456 O 149.428 -1.38242 -1.36392 0
M  V30 1457 C 146.558 -2.74649 -2.12569 0
M  V30 1458 C 145.512 -3.86747 -1.83333 0
M  V30 1459 C 144.838 -4.31212 -3.16166 0
M  V30 1460 C 146.138 -5.10089 -1.1228 0
M  V30 1461 H 147.832 -2.97114 -0.369307 0
M  V30 1462 H 145.378 -1.42918 -0.176194 0
M  V30 1463 H 147.331 -3.14952 -2.7997 0
M  V30 1464 H 146.055 -1.91657 -2.64452 0
M  V30 1465 H 144.714 -3.46978 -1.18331 0
M  V30 1466 H 144.362 -3.45115 -3.6593 0
M  V30 1467 H 144.062 -5.06788 -2.97388 0
M  V30 1468 H 145.586 -4.74146 -3.84731 0
M  V30 1469 H 147 -5.47582 -1.69785 0
M  V30 1470 H 145.397 -5.91073 -1.03693 0
M  V30 1471 H 146.467 -4.84786 -0.105041 0
M  V30 1472 N 147.81 0.181792 -1.56548 0
M  V30 1473 C 148.773 1.20894 -1.94724 0
M  V30 1474 C 149.773 1.37738 -0.829747 0
M  V30 1475 O 150.963 1.35323 -1.09697 0
M  V30 1476 C 148.095 2.57593 -2.23291 0
M  V30 1477 H 149.288 0.882275 -2.86629 0
M  V30 1478 H 146.841 0.423838 -1.50444 0
M  V30 1479 H 147.576 2.95291 -1.34067 0
M  V30 1480 H 147.361 2.46735 -3.04736 0
M  V30 1481 H 148.851 3.31637 -2.53785 0
M  V30 1482 N 149.288 1.51039 0.449983 0
M  V30 1483 C 150.704 1.38934 0.785462 0
M  V30 1484 C 150.904 0.461817 1.96136 0
M  V30 1485 O 149.96 -0.0877389 2.52348 0
M  V30 1486 C 151.273 2.80724 1.0777 0
M  V30 1487 C 152.821 2.89787 1.1829 0
M  V30 1488 C 153.296 4.32457 1.50815 0
M  V30 1489 N 154.787 4.35505 1.57764 0
M  V30 1490 C 155.522 5.42914 1.84477 0
M  V30 1491 N 155.018 6.60502 2.09068 0
M  V30 1492 N 156.811 5.3038 1.86155 0
M  V30 1493 H 148.962 2.09904 -0.324647 0
M  V30 1494 H 151.225 0.944378 -0.0827957 0
M  V30 1495 H 150.931 3.50531 0.286498 0
M  V30 1496 H 150.805 3.19273 2.00859 0
M  V30 1497 H 153.192 2.20186 1.96474 0
M  V30 1498 H 153.273 2.54752 0.231314 0
M  V30 1499 H 152.917 5.02603 0.731622 0
M  V30 1500 H 152.847 4.64995 2.47158 0
M  V30 1501 H 155.338 3.50724 1.40715 0
M  V30 1502 H 155.651 7.38158 2.28785 0
M  V30 1503 H 153.996 6.63639 2.06416 0
M  V30 1504 H 157.187 4.37505 1.66454 0
M  V30 1505 H 157.36 6.1417 2.06637 0
M  V30 1506 N 150.766 -0.704594 1.40972 0
M  V30 1507 C 152.177 -1.28418 1.3552 0
M  V30 1508 C 152.528 -1.96171 0.0339434 0
M  V30 1509 O 151.653 -1.98231 -0.867944 0
M  V30 1510 C 152.248 -2.33528 2.45459 0
M  V30 1511 C 150.807 -2.87085 2.43433 0
M  V30 1512 C 149.954 -1.61007 2.2577 0
M  V30 1513 H 152.905 -0.499963 1.50619 0
M  V30 1514 H 152.926 -3.14619 2.13998 0
M  V30 1515 H 152.438 -1.84187 3.41609 0
M  V30 1516 H 150.539 -3.40626 1.51013 0
M  V30 1517 H 150.652 -3.3813 3.39419 0
M  V30 1518 H 149.016 -1.86482 1.73483 0
M  V30 1519 H 149.799 -1.13675 3.23933 0
M  V30 1520 N 152.244 -1.26651 -0.937939 0
M  V30 1521 C 153.521 -1.0313 -1.66204 0
M  V30 1522 C 153.901 0.437256 -2.06522 0
M  V30 1523 O 153.249 1.41831 -1.79154 0
M  V30 1524 C 153.459 -1.98314 -2.87181 0
M  V30 1525 C 154.807 -2.27107 -3.58758 0
M  V30 1526 O 155.831 -1.96205 -2.97291 0
M  V30 1527 O 154.69 -2.79736 -4.69479 0
M  V30 1528 H 151.784 -0.392384 -0.727986 0
M  V30 1529 H 154.33 -1.37874 -0.989382 0
M  V30 1530 H 153.102 -2.97399 -2.54302 0
M  V30 1531 H 152.725 -1.64068 -3.6217 0
M  V30 1532 N 153.722 1.14298 -1.08507 0
M  V30 1533 C 154.95 1.89219 -0.836876 0
M  V30 1534 C 155.365 1.78638 0.611054 0
M  V30 1535 O 154.722 1.14643 1.41998 0
M  V30 1536 C 154.773 3.39158 -1.25116 0
M  V30 1537 O 154.494 3.49449 -2.64229 0
M  V30 1538 C 155.995 4.31073 -1.03398 0
M  V30 1539 H 153.215 0.599328 -0.301739 0
M  V30 1540 H 155.759 1.44746 -1.44461 0
M  V30 1541 H 153.914 3.81251 -0.687514 0
M  V30 1542 H 154.328 4.42589 -2.81452 0
M  V30 1543 H 155.802 5.34646 -1.37323 0
M  V30 1544 H 156.279 4.3919 0.0289259 0
M  V30 1545 H 156.885 3.94738 -1.58311 0
M  V30 1546 N 155.201 0.870884 1.31352 0
M  V30 1547 C 156.131 0.343096 2.30966 0
M  V30 1548 C 157.112 -0.566507 1.60389 0
M  V30 1549 O 158.297 -0.483336 1.88089 0
M  V30 1550 C 155.427 -0.455487 3.443 0
M  V30 1551 C 154.381 0.361103 4.26474 0
M  V30 1552 C 153.707 -0.563221 5.31725 0
M  V30 1553 C 155.007 1.59566 4.97329 0
M  V30 1554 H 156.701 1.17548 2.75359 0
M  V30 1555 H 154.247 0.566686 1.32381 0
M  V30 1556 H 156.2 -0.83525 4.13039 0
M  V30 1557 H 154.924 -1.32139 2.98675 0
M  V30 1558 H 153.583 0.722825 3.59403 0
M  V30 1559 H 153.231 -1.42643 4.82351 0
M  V30 1560 H 152.931 -0.0207409 5.87596 0
M  V30 1561 H 154.455 -0.939808 6.03324 0
M  V30 1562 H 155.869 1.28728 5.58661 0
M  V30 1563 H 154.266 2.07728 5.63 0
M  V30 1564 H 155.336 2.34798 4.24262 0
M  V30 1565 N 156.679 -1.44442 0.630414 0
M  V30 1566 C 157.609 -2.33418 -0.0618083 0
M  V30 1567 C 158.59 -1.48165 -0.835541 0
M  V30 1568 O 159.775 -1.76886 -0.801564 0
M  V30 1569 C 156.905 -3.31222 -1.04449 0
M  V30 1570 C 155.859 -4.26288 -0.382436 0
M  V30 1571 C 155.185 -5.13954 -1.47497 0
M  V30 1572 C 156.485 -5.1744 0.710865 0
M  V30 1573 H 158.179 -2.91548 0.681184 0
M  V30 1574 H 155.725 -1.40191 0.329026 0
M  V30 1575 H 157.678 -3.92351 -1.53748 0
M  V30 1576 H 156.402 -2.71299 -1.81836 0
M  V30 1577 H 155.061 -3.6649 0.0899054 0
M  V30 1578 H 154.709 -4.50385 -2.2397 0
M  V30 1579 H 154.409 -5.7837 -1.03737 0
M  V30 1580 H 155.933 -5.77955 -1.96979 0
M  V30 1581 H 157.347 -5.72509 0.300996 0
M  V30 1582 H 155.744 -5.90455 1.07156 0
M  V30 1583 H 156.814 -4.58496 1.57829 0
M  V30 1584 N 158.157 -0.370918 -1.53173 0
M  V30 1585 C 159.382 0.220293 -2.06227 0
M  V30 1586 C 159.807 1.41243 -1.24225 0
M  V30 1587 O 159.165 1.79387 -0.262645 0
M  V30 1588 C 159.213 0.586663 -3.55796 0
M  V30 1589 O 158.317 1.68317 -3.76488 0
M  V30 1590 H 157.658 0.0308099 -0.663285 0
M  V30 1591 H 160.188 -0.533068 -1.97534 0
M  V30 1592 H 160.198 0.85617 -3.98916 0
M  V30 1593 H 158.873 -0.285013 -4.14922 0
M  V30 1594 H 157.45 1.40881 -3.45264 0
M  V30 1595 N 159.635 1.57281 -0.100228 0
M  V30 1596 C 160.883 1.94153 0.561157 0
M  V30 1597 C 161.204 0.983157 1.68401 0
M  V30 1598 O 160.474 0.0361132 1.95867 0
M  V30 1599 H 159.054 0.716791 0.210283 0
M  V30 1600 H 161.716 1.94202 -0.164765 0
M  V30 1601 H 160.812 2.96709 0.968008 0
M  V30 1602 N 161.113 -0.173488 1.56642 0
M  V30 1603 C 162.338 -0.910149 1.86363 0
M  V30 1604 C 162.763 -1.75132 0.686318 0
M  V30 1605 O 162.121 -1.77595 -0.364643 0
M  V30 1606 C 162.169 -1.76447 3.14482 0
M  V30 1607 O 161.273 -2.86584 2.96553 0
M  V30 1608 H 160.614 -0.255086 0.613047 0
M  V30 1609 H 163.144 -0.172283 2.03873 0
M  V30 1610 H 163.154 -2.16483 3.45831 0
M  V30 1611 H 161.829 -1.14658 3.99783 0
M  V30 1612 H 160.406 -2.50146 2.76553 0
M  V30 1613 N 162.591 -1.51276 -0.441967 0
M  V30 1614 C 163.819 -1.67516 -1.21434 0
M  V30 1615 C 164.234 -0.37055 -1.85128 0
M  V30 1616 O 163.591 0.650498 -1.70513 0
M  V30 1617 C 163.642 -2.78748 -2.30177 0
M  V30 1618 O 163.363 -4.04154 -1.69089 0
M  V30 1619 C 164.864 -3.06217 -3.20541 0
M  V30 1620 H 162.084 -0.562276 -0.366178 0
M  V30 1621 H 164.628 -1.97666 -0.524244 0
M  V30 1622 H 162.783 -2.5121 -2.94911 0
M  V30 1623 H 163.197 -4.65894 -2.40922 0
M  V30 1624 H 164.671 -3.8764 -3.92987 0
M  V30 1625 H 165.148 -2.18439 -3.81026 0
M  V30 1626 H 165.754 -3.35397 -2.61513 0
M  V30 1627 N 164.069 0.697108 -1.41344 0
M  V30 1628 C 165.294 1.49096 -1.44171 0
M  V30 1629 C 165.719 1.88038 -0.0481568 0
M  V30 1630 O 165.077 1.54525 0.948243 0
M  V30 1631 C 165.125 2.73088 -2.3549 0
M  V30 1632 O 164.229 3.70514 -1.81088 0
M  V30 1633 H 163.57 0.448801 -0.489361 0
M  V30 1634 H 166.1 0.856992 -1.85787 0
M  V30 1635 H 166.11 3.21413 -2.51312 0
M  V30 1636 H 164.785 2.44081 -3.36745 0
M  V30 1637 H 163.362 3.29441 -1.74708 0
M  V30 1638 N 165.547 1.27147 0.931209 0
M  V30 1639 C 166.795 1.13055 1.6752 0
M  V30 1640 C 167.116 -0.324791 1.92276 0
M  V30 1641 O 166.386 -1.22775 1.52654 0
M  V30 1642 H 164.966 0.415391 0.620854 0
M  V30 1643 H 167.628 1.59623 1.11833 0
M  V30 1644 H 166.724 1.65694 2.64485 0
M  V30 1645 N 167.025 -1.13721 1.09112 0
M  V30 1646 C 168.271 -1.85413 0.836283 0
M  V30 1647 C 168.626 -1.8175 -0.631249 0
M  V30 1648 O 167.919 -1.24238 -1.45861 0
M  V30 1649 C 168.113 -3.32861 1.30146 0
M  V30 1650 C 167.942 -3.50882 2.81268 0
M  V30 1651 C 166.712 -3.65312 3.49106 0
M  V30 1652 C 168.91 -3.47196 3.7942 0
M  V30 1653 N 166.892 -3.71563 4.88686 0
M  V30 1654 C 168.263 -3.59777 5.04936 0
M  V30 1655 C 170.318 -3.30577 3.72321 0
M  V30 1656 C 169.021 -3.57455 6.24194 0
M  V30 1657 C 171.047 -3.29562 4.91063 0
M  V30 1658 C 170.409 -3.42691 6.15421 0
M  V30 1659 H 166.508 -0.694812 0.358832 0
M  V30 1660 H 169.092 -1.36246 1.39087 0
M  V30 1661 H 167.263 -3.80602 0.774361 0
M  V30 1662 H 168.995 -3.92346 0.99229 0
M  V30 1663 H 165.75 -3.6685 2.9953 0
M  V30 1664 H 166.174 -3.78387 5.61384 0
M  V30 1665 H 170.816 -3.19332 2.77105 0
M  V30 1666 H 168.534 -3.67475 7.19714 0
M  V30 1667 H 172.12 -3.17905 4.87266 0
M  V30 1668 H 171 -3.41862 7.05762 0
M  V30 1669 N 168.503 -0.877838 -1.30888 0
M  V30 1670 C 169.45 -0.337538 -2.28318 0
M  V30 1671 C 170.42 0.568346 -1.56074 0
M  V30 1672 O 171.605 0.498298 -1.84178 0
M  V30 1673 C 168.745 0.448142 -3.42178 0
M  V30 1674 C 167.858 -0.48615 -4.29256 0
M  V30 1675 C 166.993 0.314427 -5.30269 0
M  V30 1676 C 166.032 -0.615791 -6.08995 0
M  V30 1677 N 165.169 0.14902 -7.01942 0
M  V30 1678 H 170.009 -1.17356 -2.73919 0
M  V30 1679 H 167.546 -0.590094 -1.34745 0
M  V30 1680 H 169.504 0.919517 -4.06941 0
M  V30 1681 H 168.134 1.24879 -2.97666 0
M  V30 1682 H 167.186 -1.076 -3.64865 0
M  V30 1683 H 168.498 -1.19909 -4.84173 0
M  V30 1684 H 167.652 0.847969 -6.00745 0
M  V30 1685 H 166.391 1.06062 -4.76027 0
M  V30 1686 H 165.396 -1.16102 -5.37401 0
M  V30 1687 H 166.621 -1.36097 -6.65323 0
M  V30 1688 H 164.567 0.877884 -6.50099 0
M  V30 1689 H 164.484 -0.504433 -7.54315 0
M  V30 1690 H 165.752 0.663537 -7.76671 0
M  V30 1691 N 169.982 1.44106 -0.638065 0
M  V30 1692 C 171.259 1.95453 -0.0759321 0
M  V30 1693 C 171.639 1.57984 1.40015 0
M  V30 1694 O 170.987 0.857361 2.11806 0
M  V30 1695 C 171.197 3.47655 -0.306132 0
M  V30 1696 C 172.545 4.24114 -0.203008 0
M  V30 1697 O 173.569 3.55405 -0.237871 0
M  V30 1698 O 172.428 5.46381 -0.113827 0
M  V30 1699 H 169.522 0.826797 0.0183332 0
M  V30 1700 H 172.068 1.54122 -0.710251 0
M  V30 1701 H 170.84 3.68 -1.3301 0
M  V30 1702 H 170.463 3.95949 0.361991 0
M  V30 1703 N 171.46 0.379036 1.52974 0
M  V30 1704 C 172.393 -0.504932 2.22544 0
M  V30 1705 C 173.371 -1.0723 1.22231 0
M  V30 1706 O 174.555 -1.12589 1.51182 0
M  V30 1707 C 171.682 -1.69794 2.93066 0
M  V30 1708 C 170.728 -1.25678 4.07563 0
M  V30 1709 S 171.561 -0.246852 5.34931 0
M  V30 1710 C 172.717 -1.44588 6.08971 0
M  V30 1711 H 172.95 0.0858666 2.97176 0
M  V30 1712 H 170.483 0.163183 1.53535 0
M  V30 1713 H 172.441 -2.38219 3.34308 0
M  V30 1714 H 171.102 -2.26002 2.18133 0
M  V30 1715 H 170.295 -2.14725 4.5597 0
M  V30 1716 H 169.897 -0.651584 3.6828 0
M  V30 1717 H 172.189 -2.37469 6.34519 0
M  V30 1718 H 173.132 -1.00292 7.00962 0
M  V30 1719 H 173.54 -1.65804 5.39601 0
M  V30 1720 N 172.938 -1.57226 0.108567 0
M  V30 1721 C 174.185 -1.94833 -0.551943 0
M  V30 1722 C 174.513 -0.991204 -1.67348 0
M  V30 1723 O 173.768 -0.0131878 -1.95696 0
M  V30 1724 C 174.067 -3.38911 -1.13463 0
M  V30 1725 C 173.733 -4.50696 -0.135509 0
M  V30 1726 C 172.395 -4.80998 0.139252 0
M  V30 1727 C 174.747 -5.18333 0.545957 0
M  V30 1728 C 172.075 -5.76259 1.10194 0
M  V30 1729 C 174.427 -6.14627 1.49721 0
M  V30 1730 C 173.091 -6.43327 1.78006 0
M  V30 1731 H 172.361 -0.712944 -0.20197 0
M  V30 1732 H 175.008 -1.90582 0.18726 0
M  V30 1733 H 173.313 -3.39805 -1.95037 0
M  V30 1734 H 175.01 -3.65317 -1.65362 0
M  V30 1735 H 171.6 -4.27087 -0.359846 0
M  V30 1736 H 175.784 -4.95087 0.346842 0
M  V30 1737 H 171.04 -5.96804 1.32795 0
M  V30 1738 H 175.214 -6.66126 2.03099 0
M  V30 1739 H 172.841 -7.1695 2.52759 0
M  V30 1740 N 174.416 0.165178 -1.56732 0
M  V30 1741 C 175.364 1.22369 -1.97809 0
M  V30 1742 C 176.358 1.45488 -0.867741 0
M  V30 1743 O 177.564 1.45995 -1.05288 0
M  V30 1744 H 173.939 0.411486 -0.629431 0
M  V30 1745 H 175.91 0.850425 -2.86025 0
M  V30 1746 C 174.659 2.55403 -2.35934 0
M  V30 1747 H 173.982 2.38438 -3.20916 0
M  V30 1748 H 175.422 3.2814 -2.68514 0
M  V30 1749 C 173.881 3.14611 -1.20506 0
M  V30 1750 O 174.411 3.98626 -0.496016 0
M  V30 1751 N 172.617 2.7379 -0.97403 0
M  V30 1752 H 172.164 2.0557 -1.55238 0
M  V30 1753 H 172.122 3.1374 -0.203573 0
M  V30 1754 N 175.894 1.51508 0.433938 0
M  V30 1755 C 177.14 1.64588 1.18484 0
M  V30 1756 C 177.473 0.362666 1.90784 0
M  V30 1757 O 176.748 -0.637892 1.83742 0
M  V30 1758 C 177.031 2.85149 2.19913 0
M  V30 1759 C 176.884 4.23456 1.51674 0
M  V30 1760 C 178.203 3.01227 3.20858 0
M  V30 1761 H 175.322 0.598994 0.429389 0
M  V30 1762 H 177.964 1.84002 0.473647 0
M  V30 1763 H 176.114 2.68729 2.80566 0
M  V30 1764 H 177.786 4.51552 0.943322 0
M  V30 1765 H 176.029 4.25998 0.819035 0
M  V30 1766 H 176.7 5.03812 2.2556 0
M  V30 1767 H 179.176 3.16382 2.70263 0
M  V30 1768 H 178.052 3.87141 3.89118 0
M  V30 1769 H 178.313 2.13447 3.8716 0
M  V30 1770 N 177.372 -0.689602 1.41712 0
M  V30 1771 C 178.32 -1.82475 1.44242 0
M  V30 1772 C 179.314 -1.66354 0.319774 0
M  V30 1773 O 180.52 -1.73143 0.492089 0
M  V30 1774 H 176.895 -0.601416 0.451445 0
M  V30 1775 H 178.866 -1.77458 2.39899 0
M  V30 1776 C 177.615 -3.20535 1.3473 0
M  V30 1777 H 176.938 -3.33559 2.20405 0
M  V30 1778 H 178.378 -4.00023 1.40562 0
M  V30 1779 C 176.837 -3.36846 0.0603281 0
M  V30 1780 O 177.367 -3.91656 -0.892663 0
M  V30 1781 N 175.573 -2.90595 -0.0177039 0
M  V30 1782 H 175.12 -2.46178 0.758572 0
M  V30 1783 H 175.078 -3.01886 -0.878201 0
M  V30 1784 N 178.85 -1.27639 -0.924453 0
M  V30 1785 C 180.096 -1.14336 -1.67497 0
M  V30 1786 C 180.429 0.309465 -1.91718 0
M  V30 1787 O 179.704 1.22608 -1.50989 0
M  V30 1788 C 179.987 -1.93096 -3.0395 0
M  V30 1789 C 179.84 -3.46381 -2.8695 0
M  V30 1790 C 181.159 -1.73798 -4.0433 0
M  V30 1791 H 178.278 -0.416728 -0.607871 0
M  V30 1792 H 180.92 -1.56832 -1.07256 0
M  V30 1793 H 179.07 -1.56982 -3.55372 0
M  V30 1794 H 180.742 -3.92343 -2.42621 0
M  V30 1795 H 178.985 -3.72557 -2.22225 0
M  V30 1796 H 179.656 -3.96735 -3.83804 0
M  V30 1797 H 182.132 -2.05293 -3.61931 0
M  V30 1798 H 181.008 -2.31294 -4.97789 0
M  V30 1799 H 181.269 -0.686725 -4.36734 0
M  V30 1800 N 180.328 1.1314 -1.09713 0
M  V30 1801 C 181.258 2.20748 -0.761102 0
M  V30 1802 C 182.239 1.68061 0.262566 0
M  V30 1803 O 183.424 1.93765 0.129977 0
M  V30 1804 C 180.554 3.46812 -0.184054 0
M  V30 1805 C 179.508 4.12606 -1.13757 0
M  V30 1806 C 178.834 5.33031 -0.422083 0
M  V30 1807 C 180.134 4.59603 -2.48118 0
M  V30 1808 H 181.828 2.49113 -1.66082 0
M  V30 1809 H 179.374 1.19734 -0.799987 0
M  V30 1810 H 181.327 4.21353 0.0631215 0
M  V30 1811 H 180.051 3.17851 0.750868 0
M  V30 1812 H 178.71 3.40036 -1.37007 0
M  V30 1813 H 178.358 5.00335 0.517072 0
M  V30 1814 H 178.058 5.77999 -1.05788 0
M  V30 1815 H 179.582 6.10325 -0.183277 0
M  V30 1816 H 180.996 5.25552 -2.29059 0
M  V30 1817 H 179.393 5.15321 -3.07514 0
M  V30 1818 H 180.463 3.73971 -3.08665 0
M  V30 1819 N 181.806 0.884767 1.30421 0
M  V30 1820 C 182.769 0.356277 2.26414 0
M  V30 1821 C 183.769 -0.501124 1.52792 0
M  V30 1822 O 184.959 -0.30831 1.7145 0
M  V30 1823 C 182.091 -0.492316 3.37326 0
M  V30 1824 H 183.284 1.20389 2.74675 0
M  V30 1825 H 180.837 0.661607 1.41607 0
M  V30 1826 H 181.572 -1.36052 2.94381 0
M  V30 1827 H 181.357 0.121832 3.91911 0
M  V30 1828 H 182.847 -0.853871 4.08777 0
M  V30 1829 N 183.284 -1.43765 0.645699 0
M  V30 1830 C 184.214 -2.33471 -0.0370477 0
M  V30 1831 C 185.195 -1.49042 -0.819779 0
M  V30 1832 O 186.38 -1.77726 -0.782758 0
M  V30 1833 C 183.51 -3.32311 -1.0093 0
M  V30 1834 C 182.464 -4.2667 -0.337201 0
M  V30 1835 C 181.79 -5.1549 -1.42037 0
M  V30 1836 C 183.09 -5.16657 0.765706 0
M  V30 1837 H 184.784 -2.90809 0.712069 0
M  V30 1838 H 182.33 -1.39834 0.343876 0
M  V30 1839 H 184.283 -3.9396 -1.49578 0
M  V30 1840 H 183.007 -2.73213 -1.78948 0
M  V30 1841 H 181.666 -3.66374 0.128771 0
M  V30 1842 H 181.314 -4.52735 -2.1918 0
M  V30 1843 H 181.014 -5.79438 -0.975966 0
M  V30 1844 H 182.538 -5.80012 -1.90838 0
M  V30 1845 H 183.952 -5.72158 0.361702 0
M  V30 1846 H 182.349 -5.89286 1.13413 0
M  V30 1847 H 183.419 -4.56796 1.62683 0
M  V30 1848 N 184.763 -0.387143 -1.52771 0
M  V30 1849 C 185.988 0.198407 -2.06449 0
M  V30 1850 C 186.413 1.39918 -1.25716 0
M  V30 1851 O 185.771 1.79099 -0.281657 0
M  V30 1852 C 185.819 0.548893 -3.56398 0
M  V30 1853 O 184.923 1.64315 -3.78252 0
M  V30 1854 H 184.264 0.0237731 -0.663574 0
M  V30 1855 H 186.794 -0.553989 -1.96957 0
M  V30 1856 H 186.804 0.813812 -3.99801 0
M  V30 1857 H 185.479 -0.329005 -4.14597 0
M  V30 1858 H 184.056 1.37211 -3.46738 0
M  V30 1859 N 186.241 1.57166 -0.116904 0
M  V30 1860 C 187.49 1.94298 0.541407 0
M  V30 1861 C 187.803 1.00236 1.67964 0
M  V30 1862 O 189.009 1.26826 2.40057 0
M  V30 1863 C 187.465 3.45306 1.01449 0
M  V30 1864 C 187.073 4.47899 -0.0951738 0
M  V30 1865 C 188.817 3.91361 1.6443 0
M  V30 1866 C 186.724 5.90083 0.394491 0
M  V30 1867 H 185.654 0.725308 0.206019 0
M  V30 1868 H 188.305 1.82446 -0.196419 0
M  V30 1869 H 186.687 3.52385 1.80667 0
M  V30 1870 H 187.861 4.52486 -0.871374 0
M  V30 1871 H 186.176 4.11583 -0.631505 0
M  V30 1872 H 188.773 4.95004 2.02176 0
M  V30 1873 H 189.116 3.3122 2.52189 0
M  V30 1874 H 189.649 3.87073 0.917559 0
M  V30 1875 H 186.388 6.53974 -0.447004 0
M  V30 1876 H 185.908 5.88921 1.13722 0
M  V30 1877 H 187.587 6.41307 0.856399 0
M  V30 1878 N 187.719 -0.156864 1.56817 0
M  V30 1879 C 188.959 -0.877453 1.84608 0
M  V30 1880 C 189.323 -1.78791 0.699845 0
M  V30 1881 O 190.524 -2.5472 0.858553 0
M  V30 1882 C 188.795 -1.63992 3.17555 0
M  V30 1883 S 190.354 -2.40729 3.66872 0
M  V30 1884 H 187.172 -0.293612 0.647544 0
M  V30 1885 H 189.774 -0.138099 1.95012 0
M  V30 1886 H 188.478 -0.962363 3.98957 0
M  V30 1887 H 188.009 -2.42038 3.10131 0
M  V30 1888 H 190.024 -3.65725 3.3535 0
M  V30 1889 N 189.197 -1.51736 -0.425897 0
M  V30 1890 C 190.425 -1.68794 -1.1965 0
M  V30 1891 C 190.84 -0.390164 -1.84725 0
M  V30 1892 O 190.197 0.632376 -1.71194 0
M  V30 1893 C 190.248 -2.81174 -2.27208 0
M  V30 1894 O 189.969 -4.05925 -1.64793 0
M  V30 1895 C 191.47 -3.09599 -3.17275 0
M  V30 1896 H 188.69 -0.566128 -0.360194 0
M  V30 1897 H 191.234 -1.98211 -0.503249 0
M  V30 1898 H 189.389 -2.54324 -2.9223 0
M  V30 1899 H 189.803 -4.68423 -2.35967 0
M  V30 1900 H 191.277 -3.91786 -3.88854 0
M  V30 1901 H 191.754 -2.22468 -3.78688 0
M  V30 1902 H 192.36 -3.38151 -2.57941 0
M  V30 1903 N 190.675 0.682077 -1.42076 0
M  V30 1904 C 192.091 0.994324 -1.24841 0
M  V30 1905 C 192.291 2.0096 -0.147389 0
M  V30 1906 O 191.347 2.47822 0.483782 0
M  V30 1907 C 192.66 1.50607 -2.60265 0
M  V30 1908 C 194.208 1.62421 -2.6756 0
M  V30 1909 C 194.683 2.16994 -4.03333 0
M  V30 1910 N 196.174 2.24337 -4.0525 0
M  V30 1911 C 196.909 2.67621 -5.07116 0
M  V30 1912 N 196.405 3.1041 -6.19368 0
M  V30 1913 N 198.198 2.67305 -4.94474 0
M  V30 1914 H 190.349 0.00973908 -2.12398 0
M  V30 1915 H 192.612 0.0668593 -0.945639 0
M  V30 1916 H 192.318 0.834583 -3.41654 0
M  V30 1917 H 192.192 2.48602 -2.83684 0
M  V30 1918 H 194.579 2.28678 -1.86521 0
M  V30 1919 H 194.66 0.629352 -2.47937 0
M  V30 1920 H 194.304 1.51349 -4.84826 0
M  V30 1921 H 194.234 3.17258 -4.20304 0
M  V30 1922 H 196.725 1.94158 -3.24209 0
M  V30 1923 H 197.038 3.42103 -6.92954 0
M  V30 1924 H 195.383 3.08286 -6.22884 0
M  V30 1925 H 198.574 2.33233 -4.05857 0
M  V30 1926 H 198.747 3.00718 -5.73997 0
M  V30 1927 N 192.153 1.28127 0.917671 0
M  V30 1928 C 193.063 1.13556 2.05286 0
M  V30 1929 C 194.079 0.0630914 1.73886 0
M  V30 1930 O 195.255 0.271598 1.9956 0
M  V30 1931 C 192.32 0.794676 3.3747 0
M  V30 1932 C 191.381 1.94909 3.82504 0
M  V30 1933 C 190.614 1.62437 5.0838 0
M  V30 1934 O 190.837 0.536905 5.67867 0
M  V30 1935 O 189.771 2.46677 5.4903 0
M  V30 1936 H 193.597 2.08844 2.20495 0
M  V30 1937 H 191.182 1.07409 1.03845 0
M  V30 1938 H 193.064 0.618344 4.16839 0
M  V30 1939 H 191.739 -0.128581 3.23445 0
M  V30 1940 H 190.646 2.18055 3.03978 0
M  V30 1941 H 191.979 2.85291 4.01086 0
M  V30 1942 N 193.631 -1.12557 1.10312 0
M  V30 1943 C 194.594 -2.16434 0.75424 0
M  V30 1944 C 195.594 -1.59278 -0.220685 0
M  V30 1945 O 196.784 -1.742 0.00230591 0
M  V30 1946 C 193.916 -3.40699 0.116987 0
M  V30 1947 H 195.109 -2.48811 1.67431 0
M  V30 1948 H 192.662 -1.27542 0.903475 0
M  V30 1949 H 193.397 -3.13921 -0.813877 0
M  V30 1950 H 193.182 -3.83459 0.818613 0
M  V30 1951 H 194.672 -4.17451 -0.111387 0
M  V30 1952 N 195.109 -0.891671 -1.2995 0
M  V30 1953 C 196.339 -0.527893 -1.99742 0
M  V30 1954 C 196.747 0.88979 -1.66971 0
M  V30 1955 O 196.09 1.59766 -0.906667 0
M  V30 1956 C 196.152 -0.630804 -3.53922 0
M  V30 1957 C 195.816 -2.01401 -4.10228 0
M  V30 1958 C 196.813 -2.98422 -4.25724 0
M  V30 1959 C 194.498 -2.32121 -4.45449 0
M  V30 1960 C 196.492 -4.24293 -4.75662 0
M  V30 1961 C 194.179 -3.58237 -4.95086 0
M  V30 1962 C 195.177 -4.54137 -5.10146 0
M  V30 1963 O 194.865 -5.78014 -5.58708 0
M  V30 1964 H 194.597 -0.201953 -0.645129 0
M  V30 1965 H 197.151 -1.20076 -1.66646 0
M  V30 1966 H 195.381 0.0990616 -3.86573 0
M  V30 1967 H 197.07 -0.277338 -4.04951 0
M  V30 1968 H 197.836 -2.76001 -3.98809 0
M  V30 1969 H 193.715 -1.5824 -4.32991 0
M  V30 1970 H 197.259 -4.99153 -4.87332 0
M  V30 1971 H 193.156 -3.80491 -5.21437 0
M  V30 1972 H 193.924 -5.8049 -5.77039 0
M  V30 1973 N 196.587 1.43421 -0.653314 0
M  V30 1974 C 197.519 2.29071 0.0769134 0
M  V30 1975 C 198.532 1.42513 0.787017 0
M  V30 1976 O 199.721 1.66449 0.644757 0
M  V30 1977 C 196.821 3.19436 1.13199 0
M  V30 1978 C 195.994 4.34533 0.500006 0
M  V30 1979 C 195.053 5.05771 1.45198 0
M  V30 1980 O 194.079 5.61037 0.960538 0
M  V30 1981 N 195.281 5.0928 2.78594 0
M  V30 1982 H 198.046 2.92382 -0.658235 0
M  V30 1983 H 195.607 1.54112 -0.496104 0
M  V30 1984 H 197.599 3.63958 1.76964 0
M  V30 1985 H 196.169 2.57724 1.7691 0
M  V30 1986 H 195.389 3.92925 -0.316738 0
M  V30 1987 H 196.677 5.08766 0.0588345 0
M  V30 1988 H 196.075 4.65751 3.2108 0
M  V30 1989 H 194.632 5.57519 3.37662 0
M  V30 1990 N 198.065 0.39524 1.52563 0
M  V30 1991 C 199.29 -0.187456 2.06551 0
M  V30 1992 C 199.715 -1.39249 1.26457 0
M  V30 1993 O 199.073 -1.78947 0.291151 0
M  V30 1994 C 199.121 -0.529985 3.56684 0
M  V30 1995 O 198.225 -1.62307 3.79118 0
M  V30 1996 H 197.566 -0.0202537 0.663691 0
M  V30 1997 H 200.096 0.564426 1.96661 0
M  V30 1998 H 200.106 -0.792598 4.00227 0
M  V30 1999 H 198.781 0.350987 4.14416 0
M  V30 2000 H 197.358 -1.3537 3.47461 0
M  V30 2001 N 199.544 -1.57102 0.125237 0
M  V30 2002 C 200.477 -2.11371 -0.860094 0
M  V30 2003 C 201.455 -1.03168 -1.25679 0
M  V30 2004 O 202.639 -1.30862 -1.35674 0
M  V30 2005 C 199.766 -2.61555 -2.1519 0
M  V30 2006 C 198.812 -3.81701 -1.9028 0
M  V30 2007 S 199.645 -5.23797 -1.11343 0
M  V30 2008 C 200.801 -5.77353 -2.41689 0
M  V30 2009 H 201.034 -2.94617 -0.39852 0
M  V30 2010 H 198.567 -1.54145 -0.0886555 0
M  V30 2011 H 200.525 -2.91122 -2.89411 0
M  V30 2012 H 199.186 -1.78479 -2.58465 0
M  V30 2013 H 198.379 -4.14985 -2.86014 0
M  V30 2014 H 197.981 -3.52783 -1.24178 0
M  V30 2015 H 200.273 -5.87458 -3.37489 0
M  V30 2016 H 201.216 -6.75323 -2.12942 0
M  V30 2017 H 201.624 -5.05457 -2.51342 0
M  V30 2018 N 201.022 0.148545 -1.56898 0
M  V30 2019 C 201.969 1.18345 -1.98149 0
M  V30 2020 C 202.939 1.42772 -0.848848 0
M  V30 2021 O 204.124 1.55132 -1.11079 0
M  V30 2022 C 201.264 2.51231 -2.36594 0
M  V30 2023 C 200.377 2.33991 -3.63142 0
M  V30 2024 C 199.512 3.59902 -3.90697 0
M  V30 2025 C 198.551 3.37692 -5.1052 0
M  V30 2026 N 197.688 4.5573 -5.34092 0
M  V30 2027 H 202.528 0.82467 -2.86362 0
M  V30 2028 H 200.065 0.395756 -1.41676 0
M  V30 2029 H 202.023 3.28713 -2.56912 0
M  V30 2030 H 200.653 2.85059 -1.51463 0
M  V30 2031 H 199.705 1.47572 -3.50609 0
M  V30 2032 H 201.017 2.13539 -4.5078 0
M  V30 2033 H 200.171 4.45813 -4.11505 0
M  V30 2034 H 198.91 3.83357 -3.01477 0
M  V30 2035 H 197.915 2.5017 -4.89587 0
M  V30 2036 H 199.14 3.15637 -6.0129 0
M  V30 2037 H 197.086 4.79361 -4.47827 0
M  V30 2038 H 197.003 4.38274 -6.15996 0
M  V30 2039 H 198.271 5.42858 -5.59397 0
M  V30 2040 N 202.5 1.5196 0.417844 0
M  V30 2041 C 203.41 1.77554 1.53336 0
M  V30 2042 C 204.426 0.660655 1.6097 0
M  V30 2043 O 205.602 0.945099 1.77848 0
M  V30 2044 C 202.667 1.91291 2.89152 0
M  V30 2045 C 201.728 3.15183 2.91475 0
M  V30 2046 C 200.961 3.28256 4.20813 0
M  V30 2047 O 201.184 2.46798 5.14244 0
M  V30 2048 O 200.118 4.21356 4.29817 0
M  V30 2049 H 203.944 2.7222 1.34647 0
M  V30 2050 H 201.529 1.36698 0.602828 0
M  V30 2051 H 203.411 2.02199 3.69721 0
M  V30 2052 H 202.086 0.998129 3.07927 0
M  V30 2053 H 200.993 3.09739 2.09791 0
M  V30 2054 H 202.326 4.06414 2.77648 0
M  V30 2055 N 203.978 -0.674533 1.42435 0
M  V30 2056 C 205.394 -0.98769 1.25367 0
M  V30 2057 C 205.594 -2.00879 0.158044 0
M  V30 2058 O 204.65 -2.48075 -0.470633 0
M  V30 2059 C 205.963 -1.49224 2.6106 0
M  V30 2060 C 207.511 -1.61 2.68417 0
M  V30 2061 C 207.986 -2.14852 4.04478 0
M  V30 2062 N 209.477 -2.22185 4.06434 0
M  V30 2063 C 210.212 -2.64928 5.08528 0
M  V30 2064 N 209.708 -3.07121 6.21006 0
M  V30 2065 N 211.501 -2.64679 4.95885 0
M  V30 2066 H 203.652 0.00152503 2.124 0
M  V30 2067 H 205.915 -0.0618434 0.945981 0
M  V30 2068 H 205.621 -0.816453 3.42092 0
M  V30 2069 H 205.495 -2.47094 2.84999 0
M  V30 2070 H 207.882 -2.27686 1.87732 0
M  V30 2071 H 207.963 -0.616195 2.48267 0
M  V30 2072 H 207.607 -1.48775 4.85622 0
M  V30 2073 H 207.537 -3.15024 4.2198 0
M  V30 2074 H 210.028 -1.92435 3.25234 0
M  V30 2075 H 210.341 -3.38423 6.94759 0
M  V30 2076 H 208.686 -3.04978 6.24511 0
M  V30 2077 H 211.877 -2.31078 4.07088 0
M  V30 2078 H 212.05 -2.9767 5.75584 0
M  V30 2079 N 205.456 -1.28612 -0.910864 0
M  V30 2080 C 206.404 -1.1265 -2.03501 0
M  V30 2081 C 207.398 -0.0450054 -1.6934 0
M  V30 2082 O 208.604 -0.203988 -1.7884 0
M  V30 2083 H 204.979 -0.347639 -0.666822 0
M  V30 2084 H 206.95 -2.07849 -2.14106 0
M  V30 2085 C 205.699 -0.808143 -3.38178 0
M  V30 2086 H 205.022 -1.63231 -3.6496 0
M  V30 2087 H 206.462 -0.736426 -4.17556 0
M  V30 2088 C 204.921 0.488226 -3.33344 0
M  V30 2089 O 205.451 1.51766 -3.71927 0
M  V30 2090 N 203.657 0.490009 -2.86439 0
M  V30 2091 H 203.204 -0.348161 -2.55236 0
M  V30 2092 H 203.162 1.35741 -2.83587 0
M  V30 2093 N 206.934 1.1197 -1.10907 0
M  V30 2094 C 208.18 1.8386 -0.855773 0
M  V30 2095 C 208.513 1.84134 0.617103 0
M  V30 2096 O 207.788 1.29041 1.45529 0
M  V30 2097 C 208.071 3.31305 -1.411 0
M  V30 2098 C 207.924 3.39456 -2.9511 0
M  V30 2099 C 209.243 4.2721 -1.05736 0
M  V30 2100 H 206.362 0.667545 -0.312334 0
M  V30 2101 H 209.004 1.31331 -1.37303 0
M  V30 2102 H 207.154 3.76169 -0.97105 0
M  V30 2103 H 208.826 3.03191 -3.47668 0
M  V30 2104 H 207.069 2.79849 -3.31462 0
M  V30 2105 H 207.74 4.43209 -3.29044 0
M  V30 2106 H 210.216 3.90497 -1.43706 0
M  V30 2107 H 209.092 5.28775 -1.47269 0
M  V30 2108 H 209.353 4.42088 0.0325958 0
M  V30 2109 N 208.412 0.89855 1.29475 0
M  V30 2110 C 209.689 0.443416 1.90508 0
M  V30 2111 C 210.069 -1.07685 1.81569 0
M  V30 2112 O 209.417 -1.9182 1.24166 0
M  V30 2113 C 209.627 0.956708 3.35631 0
M  V30 2114 C 210.975 0.999728 4.12663 0
M  V30 2115 O 211.999 0.904299 3.4453 0
M  V30 2116 O 210.858 1.14289 5.34416 0
M  V30 2117 H 207.952 0.138025 0.815401 0
M  V30 2118 H 210.498 0.98834 1.37949 0
M  V30 2119 H 209.27 2.00067 3.36287 0
M  V30 2120 H 208.893 0.391728 3.95666 0
M  V30 2121 N 209.89 -1.43072 0.660911 0
M  V30 2122 C 211.167 -1.95307 0.107017 0
M  V30 2123 C 211.547 -1.60192 -1.37484 0
M  V30 2124 O 210.895 -0.890949 -2.10415 0
M  V30 2125 C 211.105 -3.47124 0.361402 0
M  V30 2126 C 212.453 -4.23738 0.270455 0
M  V30 2127 O 213.477 -3.54981 0.294382 0
M  V30 2128 O 212.336 -5.46131 0.200737 0
M  V30 2129 H 209.43 -0.826984 -0.00517729 0
M  V30 2130 H 211.976 -1.52972 0.734681 0
M  V30 2131 H 210.748 -3.65837 1.38848 0
M  V30 2132 H 210.371 -3.96475 -0.298953 0
M  V30 2133 N 211.368 -0.403325 -1.52352 0
M  V30 2134 C 212.616 0.174003 -2.0135 0
M  V30 2135 C 212.937 1.46139 -1.29106 0
M  V30 2136 O 212.207 1.91448 -0.415253 0
M  V30 2137 H 210.787 0.0672911 -0.743963 0
M  V30 2138 H 213.449 -0.538235 -1.87321 0
M  V30 2139 H 212.545 0.374254 -3.09848 0
M  V30 2140 N 212.846 1.57033 -0.133567 0
M  V30 2141 C 213.796 2.12641 0.822671 0
M  V30 2142 C 214.78 1.05081 1.21847 0
M  V30 2143 O 215.972 1.31287 1.18713 0
M  V30 2144 C 213.101 2.74094 2.06706 0
M  V30 2145 C 212.187 3.88757 1.69497 0
M  V30 2146 N 212.578 4.95194 1.03037 0
M  V30 2147 C 210.876 3.99213 1.98859 0
M  V30 2148 C 211.577 5.75414 0.852873 0
M  V30 2149 N 210.553 5.25726 1.3825 0
M  V30 2150 H 214.355 2.92308 0.305537 0
M  V30 2151 H 211.869 1.62256 0.0684276 0
M  V30 2152 H 213.866 3.12285 2.76195 0
M  V30 2153 H 212.526 1.95896 2.5895 0
M  V30 2154 H 213.537 5.13247 0.692669 0
M  V30 2155 H 210.214 3.32075 2.53047 0
M  V30 2156 H 211.604 6.71089 0.330091 0
M  V30 2157 N 214.325 -0.140222 1.56975 0
M  V30 2158 C 215.574 -0.850152 1.82908 0
M  V30 2159 C 215.887 -1.82028 0.715892 0
M  V30 2160 O 217.093 -2.57485 0.861016 0
M  V30 2161 C 215.549 -1.5625 3.24213 0
M  V30 2162 C 215.157 -0.63443 4.43485 0
M  V30 2163 C 216.901 -2.25881 3.59413 0
M  V30 2164 C 214.808 -1.34879 5.75814 0
M  V30 2165 H 213.738 -0.321221 0.682153 0
M  V30 2166 H 216.389 -0.102874 1.83211 0
M  V30 2167 H 214.771 -2.35565 3.18316 0
M  V30 2168 H 215.945 0.12398 4.60633 0
M  V30 2169 H 214.26 -0.0461836 4.16374 0
M  V30 2170 H 216.857 -2.79978 4.5554 0
M  V30 2171 H 217.2 -3.02693 2.85802 0
M  V30 2172 H 217.733 -1.53477 3.67001 0
M  V30 2173 H 214.472 -0.622385 6.52539 0
M  V30 2174 H 213.992 -2.07974 5.6259 0
M  V30 2175 H 215.671 -1.88784 6.18845 0
M  V30 2176 N 215.803 -1.52179 -0.40978 0
M  V30 2177 C 217.052 -1.65434 -1.15388 0
M  V30 2178 C 217.365 -0.390056 -1.91671 0
M  V30 2179 O 218.571 -0.402399 -2.68501 0
M  V30 2180 C 217.027 -2.92279 -2.10003 0
M  V30 2181 C 216.635 -4.25813 -1.39239 0
M  V30 2182 C 218.379 -3.14897 -2.84675 0
M  V30 2183 C 216.286 -5.43782 -2.32498 0
M  V30 2184 H 215.216 -0.616267 -0.434432 0
M  V30 2185 H 217.867 -1.78666 -0.418401 0
M  V30 2186 H 216.249 -2.72744 -2.871 0
M  V30 2187 H 217.423 -4.55828 -0.675099 0
M  V30 2188 H 215.738 -4.09292 -0.766097 0
M  V30 2189 H 218.335 -4.0021 -3.54593 0
M  V30 2190 H 218.678 -2.29103 -3.47588 0
M  V30 2191 H 219.211 -3.34901 -2.14677 0
M  V30 2192 H 215.95 -6.3192 -1.74233 0
M  V30 2193 H 215.47 -5.18106 -3.02201 0
M  V30 2194 H 217.149 -5.76834 -2.93038 0
M  V30 2195 N 217.281 0.66697 -1.42791 0
M  V30 2196 C 218.229 1.80157 -1.47127 0
M  V30 2197 C 219.223 1.65825 -0.346199 0
M  V30 2198 O 220.429 1.72338 -0.519572 0
M  V30 2199 H 216.804 0.594158 -0.460956 0
M  V30 2200 H 218.775 1.73619 -2.42692 0
M  V30 2201 C 217.524 3.18351 -1.39813 0
M  V30 2202 H 216.847 3.3001 -2.25684 0
M  V30 2203 H 218.287 3.97736 -1.46908 0
M  V30 2204 C 216.746 3.36707 -0.11391 0
M  V30 2205 O 217.276 3.93027 0.830241 0
M  V30 2206 N 215.482 2.90586 -0.0285295 0
M  V30 2207 H 215.029 2.4494 -0.79764 0
M  V30 2208 H 214.987 3.03245 0.830063 0
M  V30 2209 N 218.759 1.29093 0.90403 0
M  V30 2210 C 220.008 1.16187 1.64874 0
M  V30 2211 C 220.321 -0.286742 1.93487 0
M  V30 2212 O 221.527 -0.537062 2.66135 0
M  V30 2213 C 219.983 2.03177 2.97064 0
M  V30 2214 C 219.591 3.52836 2.76062 0
M  V30 2215 C 221.335 1.98984 3.74974 0
M  V30 2216 C 219.242 4.31945 4.03952 0
M  V30 2217 H 218.172 0.431246 0.618501 0
M  V30 2218 H 220.823 1.53699 1.00243 0
M  V30 2219 H 219.205 1.5853 3.62883 0
M  V30 2220 H 220.379 4.05507 2.18863 0
M  V30 2221 H 218.694 3.58656 2.11553 0
M  V30 2222 H 221.291 2.55351 4.69787 0
M  V30 2223 H 221.634 0.968815 4.0487 0
M  V30 2224 H 222.167 2.41652 3.15989 0
M  V30 2225 H 218.906 5.34667 3.79225 0
M  V30 2226 H 218.426 3.84045 4.60727 0
M  V30 2227 H 220.105 4.42379 4.72133 0
M  V30 2228 N 220.237 -1.11381 1.11499 0
M  V30 2229 C 221.185 -2.19522 0.768956 0
M  V30 2230 C 222.179 -1.67693 -0.239857 0
M  V30 2231 O 223.385 -1.79727 -0.0990755 0
M  V30 2232 H 219.76 -0.715711 0.230786 0
M  V30 2233 H 221.731 -2.45954 1.68964 0
M  V30 2234 C 220.48 -3.46945 0.229073 0
M  V30 2235 H 219.803 -3.8718 0.996596 0
M  V30 2236 H 221.243 -4.23993 0.0251441 0
M  V30 2237 C 219.702 -3.2042 -1.04079 0
M  V30 2238 O 220.232 -3.41178 -2.12038 0
M  V30 2239 N 218.438 -2.74151 -0.963823 0
M  V30 2240 H 217.985 -2.57459 -0.0851722 0
M  V30 2241 H 217.943 -2.56781 -1.81414 0
M  V30 2242 N 221.715 -0.905404 -1.28997 0
M  V30 2243 C 222.94 -0.549175 -1.99997 0
M  V30 2244 C 223.365 0.860276 -1.67275 0
M  V30 2245 O 222.723 1.57355 -0.900502 0
M  V30 2246 C 222.771 -0.755185 -3.52604 0
M  V30 2247 O 221.875 0.189692 -4.11964 0
M  V30 2248 H 221.216 -0.213899 -0.628604 0
M  V30 2249 H 223.746 -1.21856 -1.64354 0
M  V30 2250 H 223.756 -0.662045 -4.02593 0
M  V30 2251 H 222.431 -1.78271 -3.75755 0
M  V30 2252 H 221.008 0.0485257 -3.72868 0
M  V30 2253 N 223.193 1.4272 -0.668489 0
M  V30 2254 C 224.126 2.28111 0.0637898 0
M  V30 2255 C 225.104 1.40705 0.814912 0
M  V30 2256 O 226.288 1.70146 0.81134 0
M  V30 2257 C 223.415 3.20429 1.0974 0
M  V30 2258 C 222.461 4.24197 0.442579 0
M  V30 2259 S 223.294 5.29563 -0.795173 0
M  V30 2260 C 224.45 6.25449 0.237516 0
M  V30 2261 H 224.683 2.8987 -0.660521 0
M  V30 2262 H 222.216 1.47456 -0.457821 0
M  V30 2263 H 224.174 3.74158 1.68868 0
M  V30 2264 H 222.835 2.57818 1.79411 0
M  V30 2265 H 222.028 4.88954 1.22227 0
M  V30 2266 H 221.63 3.73925 -0.0749554 0
M  V30 2267 H 223.922 6.68524 1.09915 0
M  V30 2268 H 224.865 7.07104 -0.375421 0
M  V30 2269 H 225.273 5.61511 0.580167 0
M  V30 2270 N 224.671 0.411399 1.52136 0
M  V30 2271 C 225.896 -0.165538 2.06738 0
M  V30 2272 C 226.321 -1.379 1.27926 0
M  V30 2273 O 225.679 -1.78628 0.310114 0
M  V30 2274 C 225.727 -0.492124 3.57226 0
M  V30 2275 O 224.831 -1.58276 3.80818 0
M  V30 2276 H 224.172 -0.0132132 0.663869 0
M  V30 2277 H 226.702 0.585253 1.96051 0
M  V30 2278 H 226.712 -0.750104 4.01045 0
M  V30 2279 H 225.387 0.394922 4.14021 0
M  V30 2280 H 223.964 -1.31677 3.48877 0
M  V30 2281 N 226.149 -1.5696 0.141893 0
M  V30 2282 C 227.397 -1.95573 -0.509484 0
M  V30 2283 C 227.718 -1.02746 -1.65736 0
M  V30 2284 O 226.988 -0.0880311 -1.95702 0
M  V30 2285 H 225.568 -0.722115 -0.191205 0
M  V30 2286 H 228.23 -1.93697 0.216196 0
M  V30 2287 H 227.326 -2.99171 -0.889 0
M  V30 2288 N 227.627 0.131896 -1.57047 0
M  V30 2289 C 228.577 1.1679 -1.95816 0
M  V30 2290 C 229.561 1.37756 -0.831393 0
M  V30 2291 O 230.753 1.39065 -1.09499 0
M  V30 2292 C 227.882 2.49778 -2.35512 0
M  V30 2293 C 226.968 2.32342 -3.54793 0
M  V30 2294 N 227.359 1.8469 -4.70875 0
M  V30 2295 C 225.657 2.63043 -3.60173 0
M  V30 2296 C 226.358 1.80656 -5.52936 0
M  V30 2297 N 225.334 2.24528 -4.95064 0
M  V30 2298 H 229.136 0.791818 -2.83033 0
M  V30 2299 H 226.65 0.339791 -1.58805 0
M  V30 2300 H 228.647 3.24692 -2.61498 0
M  V30 2301 H 227.307 2.88156 -1.49654 0
M  V30 2302 H 228.318 1.54429 -4.9434 0
M  V30 2303 H 224.995 3.05193 -2.84892 0
M  V30 2304 H 226.385 1.45178 -6.56028 0
M  V30 2305 N 229.106 1.52395 0.401703 0
M  V30 2306 C 230.522 1.41363 0.740864 0
M  V30 2307 C 230.722 0.523982 1.94568 0
M  V30 2308 O 229.778 -0.00741204 2.52499 0
M  V30 2309 C 231.091 2.84011 0.987847 0
M  V30 2310 C 232.639 2.93404 1.09011 0
M  V30 2311 C 233.114 4.37036 1.3698 0
M  V30 2312 N 234.605 4.40304 1.43829 0
M  V30 2313 C 235.34 5.48508 1.67112 0
M  V30 2314 N 234.836 6.66819 1.87949 0
M  V30 2315 N 236.629 5.36034 1.69187 0
M  V30 2316 H 228.78 2.08765 -0.391262 0
M  V30 2317 H 231.043 0.941265 -0.112798 0
M  V30 2318 H 230.749 3.51265 0.174835 0
M  V30 2319 H 230.623 3.25502 1.906 0
M  V30 2320 H 233.01 2.26325 1.8937 0
M  V30 2321 H 233.091 2.55359 0.15015 0
M  V30 2322 H 232.735 5.04676 0.571353 0
M  V30 2323 H 232.665 4.72623 2.3224 0
M  V30 2324 H 235.156 3.55024 1.29486 0
M  V30 2325 H 235.469 7.45063 2.05185 0
M  V30 2326 H 233.814 6.6987 1.85199 0
M  V30 2327 H 237.005 4.42579 1.52451 0
M  V30 2328 H 237.178 6.20434 1.86993 0
M  V30 2329 N 230.584 -0.659388 1.43143 0
M  V30 2330 C 231.83 -1.42145 1.44647 0
M  V30 2331 C 232.163 -1.9408 0.0681907 0
M  V30 2332 O 231.438 -1.71899 -0.910007 0
M  V30 2333 C 231.721 -2.60735 2.48373 0
M  V30 2334 C 231.574 -2.14332 3.95451 0
M  V30 2335 C 232.893 -3.62951 2.48906 0
M  V30 2336 H 230.012 -0.51552 0.526696 0
M  V30 2337 H 232.654 -0.748069 1.74654 0
M  V30 2338 H 230.804 -3.18184 2.22916 0
M  V30 2339 H 232.476 -1.61932 4.31944 0
M  V30 2340 H 230.719 -1.4576 4.08578 0
M  V30 2341 H 231.39 -2.99583 4.63631 0
M  V30 2342 H 233.866 -3.1525 2.71582 0
M  V30 2343 H 232.742 -4.43487 3.23435 0
M  V30 2344 H 233.003 -4.15126 1.52061 0
M  V30 2345 N 232.062 -1.29571 -0.897171 0
M  V30 2346 C 232.992 -1.17473 -2.01798 0
M  V30 2347 C 233.973 -0.068323 -1.69963 0
M  V30 2348 O 235.158 -0.248239 -1.92607 0
M  V30 2349 C 232.288 -0.853099 -3.36659 0
M  V30 2350 C 231.242 -1.9161 -3.82713 0
M  V30 2351 C 230.568 -1.44773 -5.14728 0
M  V30 2352 C 231.868 -3.32535 -4.02763 0
M  V30 2353 H 233.562 -2.11237 -2.12177 0
M  V30 2354 H 231.108 -1.01699 -1.01948 0
M  V30 2355 H 233.061 -0.755165 -4.14578 0
M  V30 2356 H 231.785 0.120236 -3.26379 0
M  V30 2357 H 230.444 -2.00346 -3.07013 0
M  V30 2358 H 230.092 -0.462995 -5.00865 0
M  V30 2359 H 229.792 -2.15865 -5.46513 0
M  V30 2360 H 231.316 -1.36334 -5.95185 0
M  V30 2361 H 232.73 -3.26626 -4.71156 0
M  V30 2362 H 231.127 -4.01607 -4.45905 0
M  V30 2363 H 232.197 -3.75326 -3.07016 0
M  V30 2364 N 233.54 1.10788 -1.12088 0
M  V30 2365 C 234.951 1.64181 -0.88891 0
M  V30 2366 C 235.302 1.87508 0.577498 0
M  V30 2367 O 234.427 1.61434 1.44112 0
M  V30 2368 C 235.022 2.98257 -1.60712 0
M  V30 2369 C 233.581 3.4853 -1.42139 0
M  V30 2370 C 232.728 2.23208 -1.6454 0
M  V30 2371 H 235.679 0.943368 -1.27618 0
M  V30 2372 H 235.7 3.65552 -1.05604 0
M  V30 2373 H 235.212 2.81246 -2.67436 0
M  V30 2374 H 233.313 3.70692 -0.376552 0
M  V30 2375 H 233.426 4.26882 -2.17505 0
M  V30 2376 H 231.79 2.31169 -1.06925 0
M  V30 2377 H 232.573 2.08733 -2.72554 0
M  V30 2378 N 235.018 0.912232 1.28515 0
M  V30 2379 C 235.948 0.416403 2.29757 0
M  V30 2380 C 236.929 -0.515194 1.6211 0
M  V30 2381 O 238.114 -0.423253 1.89532 0
M  V30 2382 C 235.244 -0.34572 3.45575 0
M  V30 2383 C 234.198 0.496599 4.25109 0
M  V30 2384 C 233.524 -0.393771 5.33248 0
M  V30 2385 C 234.824 1.75307 4.92001 0
M  V30 2386 H 236.518 1.26249 2.7148 0
M  V30 2387 H 234.064 0.608515 1.30511 0
M  V30 2388 H 236.017 -0.703422 4.15488 0
M  V30 2389 H 234.741 -1.2257 3.02728 0
M  V30 2390 H 233.4 0.8368 3.56922 0
M  V30 2391 H 233.048 -1.27225 4.86644 0
M  V30 2392 H 232.748 0.166209 5.87365 0
M  V30 2393 H 234.272 -0.747389 6.06009 0
M  V30 2394 H 235.686 1.46437 5.54283 0
M  V30 2395 H 234.083 2.25534 5.56106 0
M  V30 2396 H 235.153 2.48176 4.16577 0
M  V30 2397 N 236.496 -1.42363 0.676048 0
M  V30 2398 C 237.721 -2.06377 0.205705 0
M  V30 2399 C 238.146 -1.50463 -1.12883 0
M  V30 2400 O 237.504 -0.623619 -1.70237 0
M  V30 2401 C 237.552 -3.60277 0.152655 0
M  V30 2402 O 236.656 -4.02935 -0.87845 0
M  V30 2403 H 235.997 -0.655588 0.105359 0
M  V30 2404 H 238.527 -1.82475 0.925412 0
M  V30 2405 H 238.537 -4.07993 -0.0230675 0
M  V30 2406 H 237.212 -4.00346 1.12675 0
M  V30 2407 H 235.789 -3.66764 -0.673668 0
M  V30 2408 N 237.974 -0.419461 -1.51915 0
M  V30 2409 C 239.22 0.153166 -2.02221 0
M  V30 2410 C 239.553 1.43907 -1.30401 0
M  V30 2411 O 238.828 1.90055 -0.413438 0
M  V30 2412 C 239.111 0.390291 -3.57979 0
M  V30 2413 C 238.964 -0.913014 -4.40436 0
M  V30 2414 C 240.283 1.16794 -4.2432 0
M  V30 2415 H 237.402 0.0541924 -0.735005 0
M  V30 2416 H 240.044 -0.554955 -1.81715 0
M  V30 2417 H 238.194 0.993491 -3.75582 0
M  V30 2418 H 239.866 -1.54882 -4.34522 0
M  V30 2419 H 238.109 -1.52168 -4.06236 0
M  V30 2420 H 238.78 -0.701361 -5.47526 0
M  V30 2421 H 241.256 0.657161 -4.10878 0
M  V30 2422 H 240.132 1.3026 -5.3322 0
M  V30 2423 H 240.393 2.19132 -3.83971 0
M  V30 2424 N 239.452 1.56882 -0.150215 0
M  V30 2425 C 240.68 2.00593 0.506948 0
M  V30 2426 C 241.095 1.03033 1.58208 0
M  V30 2427 O 240.452 0.0278396 1.82479 0
M  V30 2428 C 240.503 3.44209 1.10465 0
M  V30 2429 O 240.224 4.3804 0.0724636 0
M  V30 2430 C 241.725 4.03214 1.84211 0
M  V30 2431 H 238.945 0.65795 0.13169 0
M  V30 2432 H 241.489 2.03018 -0.245743 0
M  V30 2433 H 239.644 3.42625 1.80795 0
M  V30 2434 H 240.058 5.22007 0.510793 0
M  V30 2435 H 241.532 5.0569 2.21318 0
M  V30 2436 H 242.009 3.44107 2.72923 0
M  V30 2437 H 242.615 4.08437 1.18572 0
M  V30 2438 N 240.93 -0.123565 1.57115 0
M  V30 2439 C 241.88 -1.1575 1.96433 0
M  V30 2440 C 242.864 -1.37313 0.838686 0
M  V30 2441 O 244.056 -1.38482 1.10235 0
M  V30 2442 C 241.185 -2.48526 2.36833 0
M  V30 2443 C 240.271 -2.30457 3.5602 0
M  V30 2444 N 240.662 -1.8219 4.71848 0
M  V30 2445 C 238.96 -2.61129 3.61563 0
M  V30 2446 C 239.661 -1.77721 5.53886 0
M  V30 2447 N 238.637 -2.21899 4.96248 0
M  V30 2448 H 242.439 -0.776797 2.83449 0
M  V30 2449 H 239.953 -0.331364 1.58983 0
M  V30 2450 H 241.95 -3.233 2.63216 0
M  V30 2451 H 240.61 -2.87358 1.5118 0
M  V30 2452 H 241.621 -1.51805 4.95152 0
M  V30 2453 H 238.298 -3.03678 2.86507 0
M  V30 2454 H 239.688 -1.41697 6.56789 0
M  V30 2455 N 242.408 -1.52605 -0.393616 0
M  V30 2456 C 243.655 -1.67424 -1.1391 0
M  V30 2457 C 243.983 -0.411859 -1.90089 0
M  V30 2458 O 243.238 0.605626 -1.86093 0
M  V30 2459 C 243.537 -2.85721 -2.14705 0
M  V30 2460 C 243.203 -4.23342 -1.55218 0
M  V30 2461 C 241.865 -4.60771 -1.3872 0
M  V30 2462 C 244.217 -5.09041 -1.11924 0
M  V30 2463 C 241.545 -5.81563 -0.774689 0
M  V30 2464 C 243.897 -6.30452 -0.520853 0
M  V30 2465 C 242.561 -6.66617 -0.343134 0
M  V30 2466 H 241.831 -0.612648 -0.416826 0
M  V30 2467 H 244.478 -1.8674 -0.424315 0
M  V30 2468 H 242.783 -2.60803 -2.92385 0
M  V30 2469 H 244.48 -2.94382 -2.72288 0
M  V30 2470 H 241.07 -3.93855 -1.69045 0
M  V30 2471 H 245.254 -4.80695 -1.23473 0
M  V30 2472 H 240.51 -6.08196 -0.625154 0
M  V30 2473 H 244.684 -6.96175 -0.177065 0
M  V30 2474 H 242.311 -7.60083 0.133571 0
M  V30 2475 N 243.887 0.651787 -1.4349 0
M  V30 2476 C 245.117 1.43728 -1.48411 0
M  V30 2477 C 245.525 1.8893 -0.10103 0
M  V30 2478 O 244.868 1.60182 0.899307 0
M  V30 2479 C 244.93 2.70411 -2.36893 0
M  V30 2480 C 244.594 2.4714 -3.8441 0
M  V30 2481 C 245.591 2.10271 -4.75481 0
M  V30 2482 C 243.276 2.6142 -4.28912 0
M  V30 2483 C 245.27 1.87982 -6.0905 0
M  V30 2484 C 242.957 2.38746 -5.62533 0
M  V30 2485 C 243.955 2.02083 -6.5242 0
M  V30 2486 O 243.643 1.79647 -7.8357 0
M  V30 2487 H 243.375 0.447962 -0.506267 0
M  V30 2488 H 245.929 0.80624 -1.88915 0
M  V30 2489 H 244.159 3.36079 -1.91278 0
M  V30 2490 H 245.848 3.32364 -2.33 0
M  V30 2491 H 246.614 1.98814 -4.42378 0
M  V30 2492 H 242.493 2.88931 -3.59222 0
M  V30 2493 H 246.037 1.5929 -6.7917 0
M  V30 2494 H 241.934 2.49806 -5.95203 0
M  V30 2495 H 242.702 1.9406 -7.95162 0
M  V30 2496 N 245.365 1.30045 0.890287 0
M  V30 2497 C 246.59 1.21598 1.68014 0
M  V30 2498 C 247.015 -0.218678 1.86825 0
M  V30 2499 O 246.373 -1.15756 1.39536 0
M  V30 2500 C 246.421 1.94434 3.03691 0
M  V30 2501 O 245.525 1.2678 3.92429 0
M  V30 2502 H 244.866 0.420856 0.513592 0
M  V30 2503 H 247.396 1.71775 1.11151 0
M  V30 2504 H 247.406 2.03251 3.5377 0
M  V30 2505 H 246.081 2.98777 2.89318 0
M  V30 2506 H 244.658 1.26282 3.50866 0
M  V30 2507 N 246.843 -1.10192 1.12674 0
M  V30 2508 C 247.806 -2.14786 0.799979 0
M  V30 2509 C 248.806 -1.59711 -0.18685 0
M  V30 2510 O 249.996 -1.74156 0.0392558 0
M  V30 2511 C 247.128 -3.40374 0.189228 0
M  V30 2512 H 248.321 -2.45203 1.72671 0
M  V30 2513 H 245.874 -1.25597 0.930326 0
M  V30 2514 H 246.609 -3.15577 -0.747107 0
M  V30 2515 H 246.394 -3.81637 0.899766 0
M  V30 2516 H 247.884 -4.17594 -0.0228143 0
M  V30 2517 N 248.321 -0.919034 -1.28029 0
M  V30 2518 C 249.549 -0.570971 -1.98866 0
M  V30 2519 C 249.964 0.848996 -1.68634 0
M  V30 2520 O 249.321 1.56307 -0.942036 0
M  V30 2521 C 249.372 -0.776876 -3.53054 0
M  V30 2522 O 249.093 -2.14097 -3.82222 0
M  V30 2523 C 250.594 -0.436356 -4.41147 0
M  V30 2524 H 247.814 -0.217175 -0.634883 0
M  V30 2525 H 250.358 -1.23368 -1.63097 0
M  V30 2526 H 248.513 -0.161085 -3.87065 0
M  V30 2527 H 248.927 -2.18455 -4.76841 0
M  V30 2528 H 250.401 -0.63117 -5.4838 0
M  V30 2529 H 250.878 0.627686 -4.34692 0
M  V30 2530 H 251.484 -1.02991 -4.12641 0
M  V30 2531 N 249.799 1.42003 -0.683588 0
M  V30 2532 C 250.746 2.30798 -0.0107309 0
M  V30 2533 C 251.716 1.4645 0.783688 0
M  V30 2534 O 252.901 1.75263 0.754156 0
M  V30 2535 C 250.041 3.3238 0.928306 0
M  V30 2536 C 249.154 4.31814 0.126776 0
M  V30 2537 C 248.289 5.20468 1.06236 0
M  V30 2538 C 247.328 6.11577 0.253035 0
M  V30 2539 N 246.465 6.92754 1.14179 0
M  V30 2540 H 251.305 2.8778 -0.773727 0
M  V30 2541 H 248.842 1.41745 -0.393283 0
M  V30 2542 H 250.8 3.89813 1.48666 0
M  V30 2543 H 249.43 2.76976 1.65783 0
M  V30 2544 H 248.482 3.76427 -0.54833 0
M  V30 2545 H 249.794 4.96276 -0.501192 0
M  V30 2546 H 248.948 5.82677 1.69035 0
M  V30 2547 H 247.687 4.56204 1.7242 0
M  V30 2548 H 246.692 5.48428 -0.388108 0
M  V30 2549 H 247.917 6.77892 -0.404839 0
M  V30 2550 H 245.863 6.3111 1.78987 0
M  V30 2551 H 245.78 7.53855 0.569111 0
M  V30 2552 H 247.048 7.59441 1.75697 0
M  V30 2553 N 251.277 0.427512 1.51691 0
M  V30 2554 C 252.507 -0.140986 2.06118 0
M  V30 2555 C 252.915 -1.37854 1.29588 0
M  V30 2556 O 252.258 -1.80411 0.346036 0
M  V30 2557 C 252.32 -0.538276 3.55447 0
M  V30 2558 C 251.984 0.591095 4.53161 0
M  V30 2559 C 252.981 1.46027 4.98971 0
M  V30 2560 C 250.666 0.769028 4.96378 0
M  V30 2561 C 252.66 2.49216 5.8666 0
M  V30 2562 C 250.347 1.80421 5.83859 0
M  V30 2563 C 251.345 2.66417 6.28897 0
M  V30 2564 O 251.033 3.68159 7.14643 0
M  V30 2565 H 250.765 -0.0157455 0.675817 0
M  V30 2566 H 253.319 0.602495 1.96365 0
M  V30 2567 H 251.549 -1.33432 3.6295 0
M  V30 2568 H 253.238 -1.0368 3.92435 0
M  V30 2569 H 254.004 1.33429 4.66285 0
M  V30 2570 H 249.883 0.109273 4.6087 0
M  V30 2571 H 253.427 3.16372 6.21735 0
M  V30 2572 H 249.324 1.93042 6.15959 0
M  V30 2573 H 250.092 3.64622 7.32798 0
M  V30 2574 N 252.755 -1.56801 0.158532 0
M  V30 2575 C 253.718 -2.16138 -0.762705 0
M  V30 2576 C 254.718 -1.1061 -1.16713 0
M  V30 2577 O 255.908 -1.36191 -1.08617 0
M  V30 2578 C 253.04 -2.73386 -2.03649 0
M  V30 2579 H 254.233 -2.98886 -0.246354 0
M  V30 2580 H 251.786 -1.56035 -0.0909744 0
M  V30 2581 H 252.521 -1.94335 -2.59623 0
M  V30 2582 H 252.306 -3.50601 -1.75559 0
M  V30 2583 H 253.796 -3.19065 -2.6942 0
M  V30 2584 N 254.233 0.115231 -1.57178 0
M  V30 2585 C 255.479 0.82357 -1.85325 0
M  V30 2586 C 255.812 1.79349 -0.744814 0
M  V30 2587 O 255.087 1.92899 0.249024 0
M  V30 2588 C 255.37 1.57014 -3.24066 0
M  V30 2589 C 255.223 0.619565 -4.45513 0
M  V30 2590 C 256.542 2.52545 -3.60429 0
M  V30 2591 H 253.661 0.297948 -0.674089 0
M  V30 2592 H 256.303 0.0877138 -1.89797 0
M  V30 2593 H 254.453 2.19742 -3.20383 0
M  V30 2594 H 256.125 0.000837639 -4.613 0
M  V30 2595 H 254.368 -0.0686174 -4.33746 0
M  V30 2596 H 255.039 1.17866 -5.3927 0
M  V30 2597 H 257.515 1.9992 -3.64926 0
M  V30 2598 H 256.391 3.01811 -4.58477 0
M  V30 2599 H 256.652 3.35383 -2.88047 0
M  V30 2600 N 255.711 1.52812 0.385517 0
M  V30 2601 C 256.939 1.71907 1.15133 0
M  V30 2602 C 257.354 0.439004 1.83625 0
M  V30 2603 O 256.711 -0.586765 1.7281 0
M  V30 2604 C 256.762 2.87099 2.19673 0
M  V30 2605 O 256.483 4.10151 1.53973 0
M  V30 2606 C 257.984 3.17902 3.08955 0
M  V30 2607 H 255.204 0.575479 0.345057 0
M  V30 2608 H 257.748 1.99476 0.45052 0
M  V30 2609 H 255.903 2.61982 2.85384 0
M  V30 2610 H 256.317 4.74514 2.23465 0
M  V30 2611 H 257.791 4.01959 3.7833 0
M  V30 2612 H 258.268 2.3243 3.72657 0
M  V30 2613 H 258.874 3.44871 2.48885 0
M  V30 2614 N 257.189 -0.644168 1.43834 0
M  V30 2615 C 258.152 -1.73857 1.49353 0
M  V30 2616 C 259.152 -1.56315 0.377112 0
M  V30 2617 O 260.342 -1.62048 0.639226 0
M  V30 2618 C 257.474 -3.12819 1.35488 0
M  V30 2619 H 258.667 -1.70342 2.46827 0
M  V30 2620 H 256.22 -0.856652 1.30733 0
M  V30 2621 H 256.955 -3.2194 0.390569 0
M  V30 2622 H 256.74 -3.26958 2.16428 0
M  V30 2623 H 258.23 -3.92606 1.42302 0
M  V30 2624 N 258.668 -1.30515 -0.883378 0
M  V30 2625 C 259.598 -1.19607 -2.00541 0
M  V30 2626 C 260.579 -0.086346 -1.69881 0
M  V30 2627 O 261.764 -0.268654 -1.92333 0
M  V30 2628 C 258.894 -0.888758 -3.35736 0
M  V30 2629 C 257.848 -1.95659 -3.8066 0
M  V30 2630 C 257.174 -1.50224 -5.13164 0
M  V30 2631 C 258.474 -3.36788 -3.99213 0
M  V30 2632 H 260.168 -2.13476 -2.09925 0
M  V30 2633 H 257.714 -1.02775 -1.00863 0
M  V30 2634 H 259.667 -0.799094 -4.13754 0
M  V30 2635 H 258.391 0.0856125 -3.26488 0
M  V30 2636 H 257.05 -2.03591 -3.04871 0
M  V30 2637 H 256.698 -0.516092 -5.00345 0
M  V30 2638 H 256.398 -2.2165 -5.44192 0
M  V30 2639 H 257.922 -1.42639 -5.93706 0
M  V30 2640 H 259.336 -3.31605 -4.67665 0
M  V30 2641 H 257.733 -4.06314 -4.41621 0
M  V30 2642 H 258.803 -3.78561 -3.03017 0
M  V30 2643 N 260.146 1.09593 -1.13257 0
M  V30 2644 C 261.374 1.855 -0.916378 0
M  V30 2645 C 261.789 1.81069 0.534738 0
M  V30 2646 O 261.146 1.20562 1.37007 0
M  V30 2647 C 261.197 3.33546 -1.39388 0
M  V30 2648 O 260.918 3.37927 -2.78813 0
M  V30 2649 C 262.419 4.26299 -1.21588 0
M  V30 2650 H 259.639 0.585991 -0.326887 0
M  V30 2651 H 262.183 1.38488 -1.5047 0
M  V30 2652 H 260.338 3.77992 -0.848597 0
M  V30 2653 H 260.752 4.30254 -2.9997 0
M  V30 2654 H 262.226 5.28341 -1.59876 0
M  V30 2655 H 262.703 4.38918 -0.157376 0
M  V30 2656 H 263.309 3.87668 -1.7491 0
M  V30 2657 N 261.624 0.925811 1.2754 0
M  V30 2658 C 262.534 0.428993 2.30644 0
M  V30 2659 C 263.55 -0.489387 1.66976 0
M  V30 2660 O 264.726 -0.372653 1.97922 0
M  V30 2661 C 261.791 -0.311967 3.45294 0
M  V30 2662 C 260.852 0.641098 4.24486 0
M  V30 2663 C 260.085 -0.0645955 5.33661 0
M  V30 2664 O 260.308 -1.28429 5.55754 0
M  V30 2665 O 259.242 0.606265 5.98839 0
M  V30 2666 H 263.068 1.28504 2.75173 0
M  V30 2667 H 260.653 0.691086 1.32455 0
M  V30 2668 H 262.535 -0.729972 4.15029 0
M  V30 2669 H 261.21 -1.14365 3.02824 0
M  V30 2670 H 260.117 1.10874 3.57292 0
M  V30 2671 H 261.45 1.43995 4.70666 0
M  V30 2672 N 263.102 -1.41638 0.69111 0
M  V30 2673 C 264.35 -2.00902 0.219758 0
M  V30 2674 C 264.671 -1.54994 -1.18329 0
M  V30 2675 O 263.941 -0.778628 -1.79762 0
M  V30 2676 H 262.521 -0.74289 0.0782558 0
M  V30 2677 H 265.183 -1.73327 0.891271 0
M  V30 2678 H 264.279 -3.11224 0.233708 0
M  V30 2679 N 264.58 -0.43555 -1.51462 0
M  V30 2680 C 265.51 0.367376 -2.30592 0
M  V30 2681 C 266.491 1.02263 -1.35928 0
M  V30 2682 O 267.676 1.02661 -1.64847 0
M  V30 2683 C 264.806 1.46983 -3.14664 0
M  V30 2684 C 263.76 0.938161 -4.17591 0
M  V30 2685 C 263.086 2.13622 -4.90173 0
M  V30 2686 C 264.386 -0.0261621 -5.22293 0
M  V30 2687 H 266.08 -0.292969 -2.97963 0
M  V30 2688 H 263.626 -0.14234 -1.43295 0
M  V30 2689 H 265.579 2.03873 -3.688 0
M  V30 2690 H 264.303 2.15843 -2.4511 0
M  V30 2691 H 262.962 0.391481 -3.64504 0
M  V30 2692 H 262.61 2.81098 -4.17124 0
M  V30 2693 H 262.31 1.78688 -5.59772 0
M  V30 2694 H 263.834 2.7107 -5.47132 0
M  V30 2695 H 265.248 0.452384 -5.71512 0
M  V30 2696 H 263.645 -0.287992 -5.99409 0
M  V30 2697 H 264.715 -0.963391 -4.75233 0
M  V30 2698 N 266.058 1.56714 -0.166846 0
M  V30 2699 C 267.474 1.58473 0.189372 0
M  V30 2700 C 267.674 1.18201 1.63189 0
M  V30 2701 O 266.73 0.891528 2.36237 0
M  V30 2702 C 268.043 3.00573 -0.0873872 0
M  V30 2703 C 269.591 3.1299 -0.0252443 0
M  V30 2704 C 270.066 4.57174 -0.274934 0
M  V30 2705 N 271.557 4.62665 -0.222553 0
M  V30 2706 C 272.292 5.72072 -0.389985 0
M  V30 2707 N 271.788 6.90054 -0.616229 0
M  V30 2708 N 273.581 5.61153 -0.326202 0
M  V30 2709 H 265.732 1.8118 -1.10849 0
M  V30 2710 H 267.995 0.839525 -0.440342 0
M  V30 2711 H 267.701 3.34497 -1.0865 0
M  V30 2712 H 267.575 3.72019 0.623037 0
M  V30 2713 H 269.962 2.78895 0.96444 0
M  V30 2714 H 270.043 2.43989 -0.768309 0
M  V30 2715 H 269.687 4.91976 -1.26181 0
M  V30 2716 H 269.617 5.24328 0.48869 0
M  V30 2717 H 272.108 3.77863 -0.0531512 0
M  V30 2718 H 272.421 7.69311 -0.733559 0
M  V30 2719 H 270.766 6.91927 -0.652791 0
M  V30 2720 H 273.957 4.67859 -0.150072 0
M  V30 2721 H 274.13 6.46364 -0.460116 0
M  V30 2722 N 267.536 -0.106894 1.57237 0
M  V30 2723 C 268.468 -1.15646 1.97885 0
M  V30 2724 C 269.481 -1.36981 0.879779 0
M  V30 2725 O 270.67 -1.35841 1.15799 0
M  V30 2726 C 267.77 -2.51425 2.27241 0
M  V30 2727 C 266.943 -2.50529 3.58545 0
M  V30 2728 C 266.002 -3.68145 3.75973 0
M  V30 2729 O 265.028 -3.51176 4.47956 0
M  V30 2730 N 266.23 -4.87177 3.15656 0
M  V30 2731 H 268.995 -0.81059 2.8853 0
M  V30 2732 H 266.556 -0.296024 1.59171 0
M  V30 2733 H 268.548 -3.28689 2.36105 0
M  V30 2734 H 267.118 -2.78147 1.42663 0
M  V30 2735 H 266.338 -1.58894 3.60758 0
M  V30 2736 H 267.626 -2.46997 4.44826 0
M  V30 2737 H 267.024 -5.03868 2.57165 0
M  V30 2738 H 265.581 -5.62075 3.30023 0
M  V30 2739 N 269.014 -1.53014 -0.377408 0
M  V30 2740 C 269.924 -1.81557 -1.48574 0
M  V30 2741 C 270.94 -0.703102 -1.59162 0
M  V30 2742 O 272.116 -0.99192 -1.75279 0
M  V30 2743 C 269.181 -1.9889 -2.83978 0
M  V30 2744 C 268.242 -3.22801 -2.83016 0
M  V30 2745 C 267.475 -3.39298 -4.11962 0
M  V30 2746 O 267.698 -2.60345 -5.0752 0
M  V30 2747 O 266.632 -4.32604 -4.18494 0
M  V30 2748 H 270.458 -2.75695 -1.27382 0
M  V30 2749 H 268.043 -1.38248 -0.566373 0
M  V30 2750 H 269.925 -2.11931 -3.6423 0
M  V30 2751 H 268.6 -1.07942 -3.05172 0
M  V30 2752 H 267.507 -3.15193 -2.01505 0
M  V30 2753 H 268.84 -4.13632 -2.66775 0
M  V30 2754 N 270.492 0.636531 -1.44174 0
M  V30 2755 C 271.422 1.76003 -1.53444 0
M  V30 2756 C 272.403 1.65619 -0.387841 0
M  V30 2757 O 273.588 1.84461 -0.607257 0
M  V30 2758 C 270.718 3.14511 -1.4731 0
M  V30 2759 C 269.672 3.39677 -2.60391 0
M  V30 2760 C 268.998 4.78159 -2.39308 0
M  V30 2761 C 270.298 3.32772 -4.02567 0
M  V30 2762 H 271.992 1.68501 -2.47483 0
M  V30 2763 H 269.538 0.809237 -1.19111 0
M  V30 2764 H 271.491 3.92878 -1.52397 0
M  V30 2765 H 270.215 3.22783 -0.49785 0
M  V30 2766 H 268.874 2.63688 -2.54684 0
M  V30 2767 H 268.522 4.83128 -1.39988 0
M  V30 2768 H 268.222 4.95956 -3.15122 0
M  V30 2769 H 269.746 5.58762 -2.46205 0
M  V30 2770 H 271.16 4.01051 -4.09672 0
M  V30 2771 H 269.557 3.62104 -4.7854 0
M  V30 2772 H 270.627 2.30669 -4.2652 0
M  V30 2773 N 271.97 1.30982 0.876444 0
M  V30 2774 C 273.386 1.09498 1.16113 0
M  V30 2775 C 273.586 -0.13875 2.01022 0
M  V30 2776 O 272.642 -0.829935 2.38471 0
M  V30 2777 C 273.955 2.36308 1.85954 0
M  V30 2778 C 275.503 2.41856 1.98683 0
M  V30 2779 C 275.978 3.6853 2.71937 0
M  V30 2780 N 277.469 3.69387 2.79477 0
M  V30 2781 C 278.204 4.64096 3.36753 0
M  V30 2782 N 277.7 5.69155 3.95012 0
M  V30 2783 N 279.493 4.51626 3.3465 0
M  V30 2784 H 271.644 2.10118 0.310494 0
M  V30 2785 H 273.907 0.926634 0.200131 0
M  V30 2786 H 273.613 3.26388 1.31011 0
M  V30 2787 H 273.487 2.4561 2.86278 0
M  V30 2788 H 275.874 1.52249 2.52793 0
M  V30 2789 H 275.955 2.36523 0.9742 0
M  V30 2790 H 275.599 4.58499 2.18496 0
M  V30 2791 H 275.529 3.71127 3.73593 0
M  V30 2792 H 278.02 2.93438 2.38123 0
M  V30 2793 H 278.333 6.3751 4.36808 0
M  V30 2794 H 276.678 5.72937 3.93406 0
M  V30 2795 H 279.869 3.68728 2.8837 0
M  V30 2796 H 280.042 5.25614 3.7899 0
M  V30 2797 N 273.449 -1.08991 1.13837 0
M  V30 2798 C 274.359 -2.19301 0.833333 0
M  V30 2799 C 275.375 -1.73026 -0.183847 0
M  V30 2800 O 276.551 -2.01395 -0.0138092 0
M  V30 2801 C 273.616 -3.45323 0.308651 0
M  V30 2802 C 272.677 -4.06255 1.38764 0
M  V30 2803 C 271.91 -5.26262 0.887896 0
M  V30 2804 O 272.133 -5.69747 -0.27287 0
M  V30 2805 O 271.067 -5.78435 1.66421 0
M  V30 2806 H 274.893 -2.47854 1.75506 0
M  V30 2807 H 272.478 -1.18012 0.916166 0
M  V30 2808 H 274.36 -4.21394 0.0216739 0
M  V30 2809 H 273.035 -3.18362 -0.585431 0
M  V30 2810 H 271.942 -3.318 1.72799 0
M  V30 2811 H 273.275 -4.37452 2.25602 0
M  V30 2812 N 274.927 -0.932562 -1.27047 0
M  V30 2813 C 275.89 -0.440064 -2.24936 0
M  V30 2814 C 276.89 0.444071 -1.54547 0
M  V30 2815 O 278.08 0.244465 -1.72476 0
M  V30 2816 C 275.212 0.36678 -3.38921 0
M  V30 2817 H 276.405 -1.305 -2.70018 0
M  V30 2818 H 273.958 -0.713707 -1.39054 0
M  V30 2819 H 274.693 1.25033 -2.99228 0
M  V30 2820 H 274.478 -0.267204 -3.91188 0
M  V30 2821 H 275.968 0.701567 -4.11665 0
M  V30 2822 N 276.405 1.4127 -0.698611 0
M  V30 2823 C 277.337 2.292 0.00399731 0
M  V30 2824 C 278.35 1.44944 0.741279 0
M  V30 2825 O 279.539 1.68416 0.591477 0
M  V30 2826 C 276.639 3.22875 1.02979 0
M  V30 2827 C 275.812 4.35904 0.36151 0
M  V30 2828 C 274.871 5.10134 1.29033 0
M  V30 2829 O 273.897 5.63809 0.781562 0
M  V30 2830 N 275.099 5.17885 2.6225 0
M  V30 2831 H 277.864 2.9014 -0.750921 0
M  V30 2832 H 275.425 1.52455 -0.544882 0
M  V30 2833 H 277.417 3.69404 1.65296 0
M  V30 2834 H 275.987 2.63221 1.68622 0
M  V30 2835 H 275.207 3.91719 -0.441584 0
M  V30 2836 H 276.495 5.08696 -0.103055 0
M  V30 2837 H 275.893 4.7573 3.061 0
M  V30 2838 H 274.45 5.6798 3.19754 0
M  V30 2839 N 277.883 0.443576 1.51229 0
M  V30 2840 C 279.111 -0.11929 2.06556 0
M  V30 2841 C 279.526 -1.35921 1.31038 0
M  V30 2842 O 278.883 -1.78675 0.371704 0
M  V30 2843 C 278.934 -0.435228 3.5887 0
M  V30 2844 O 278.655 0.755486 4.31537 0
M  V30 2845 C 280.156 -1.04808 4.30732 0
M  V30 2846 H 277.376 -0.0051584 0.67098 0
M  V30 2847 H 279.92 0.624453 1.94733 0
M  V30 2848 H 278.075 -1.12887 3.70588 0
M  V30 2849 H 278.489 0.483491 5.22267 0
M  V30 2850 H 279.963 -1.2191 5.3837 0
M  V30 2851 H 280.44 -2.03081 3.89429 0
M  V30 2852 H 281.046 -0.393637 4.23474 0
M  V30 2853 N 279.361 -1.56624 0.175154 0
M  V30 2854 C 280.311 -2.14747 -0.766004 0
M  V30 2855 C 281.295 -1.08275 -1.19018 0
M  V30 2856 O 282.487 -1.34388 -1.15191 0
M  V30 2857 C 279.616 -2.79478 -1.99366 0
M  V30 2858 C 278.702 -3.93114 -1.5913 0
M  V30 2859 N 279.093 -4.97752 -0.89872 0
M  V30 2860 C 277.391 -4.04345 -1.88204 0
M  V30 2861 C 278.092 -5.77473 -0.700012 0
M  V30 2862 N 277.068 -5.29207 -1.24263 0
M  V30 2863 H 280.87 -2.93015 -0.22793 0
M  V30 2864 H 278.384 -1.6238 -0.0253843 0
M  V30 2865 H 280.381 -3.19498 -2.67818 0
M  V30 2866 H 279.041 -2.02692 -2.53665 0
M  V30 2867 H 280.052 -5.14903 -0.556347 0
M  V30 2868 H 276.729 -3.38667 -2.44153 0
M  V30 2869 H 278.119 -6.71728 -0.152047 0
M  V30 2870 N 280.839 0.0985539 -1.57292 0
M  V30 2871 C 282.088 0.801358 -1.85098 0
M  V30 2872 C 282.401 1.80066 -0.763902 0
M  V30 2873 O 283.607 2.55112 -0.928981 0
M  V30 2874 C 282.063 1.47599 -3.28242 0
M  V30 2875 C 281.671 0.516624 -4.45011 0
M  V30 2876 C 283.415 2.16272 -3.65276 0
M  V30 2877 C 281.322 1.19564 -5.79188 0
M  V30 2878 H 280.252 0.303022 -0.69043 0
M  V30 2879 H 282.903 0.0542623 -1.8342 0
M  V30 2880 H 281.285 2.27042 -3.2445 0
M  V30 2881 H 282.459 -0.246065 -4.60143 0
M  V30 2882 H 280.774 -0.064227 -4.1635 0
M  V30 2883 H 283.371 2.67802 -4.62803 0
M  V30 2884 H 283.714 2.95009 -2.93727 0
M  V30 2885 H 284.247 1.43693 -3.70941 0
M  V30 2886 H 280.986 0.449157 -6.53959 0
M  V30 2887 H 280.506 1.92984 -5.67906 0
M  V30 2888 H 282.185 1.7231 -6.23633 0
M  V30 2889 N 282.317 1.53212 0.369288 0
M  V30 2890 C 283.733 1.42902 0.710712 0
M  V30 2891 C 283.933 0.565135 1.93413 0
M  V30 2892 O 282.989 0.0461484 2.52458 0
M  V30 2893 C 284.302 2.86042 0.927382 0
M  V30 2894 C 285.85 2.9565 1.02762 0
M  V30 2895 C 286.325 4.39843 1.27679 0
M  V30 2896 N 287.816 4.43256 1.34457 0
M  V30 2897 C 288.551 5.51929 1.55439 0
M  V30 2898 N 288.047 6.70655 1.73762 0
M  V30 2899 N 289.84 5.39502 1.57779 0
M  V30 2900 H 281.991 2.07888 -0.435457 0
M  V30 2901 H 284.254 0.938661 -0.132739 0
M  V30 2902 H 283.96 3.51557 0.100287 0
M  V30 2903 H 283.834 3.29472 1.83653 0
M  V30 2904 H 286.221 2.30291 1.84527 0
M  V30 2905 H 286.302 2.5562 0.0959504 0
M  V30 2906 H 285.946 5.05774 0.464175 0
M  V30 2907 H 285.876 4.77443 2.22162 0
M  V30 2908 H 288.367 3.5769 1.21926 0
M  V30 2909 H 288.68 7.49248 1.89335 0
M  V30 2910 H 287.025 6.73648 1.70948 0
M  V30 2911 H 290.216 4.45713 1.43029 0
M  V30 2912 H 290.389 6.2426 1.7379 0
M  V30 2913 N 283.795 -0.628877 1.44509 0
M  V30 2914 C 284.758 -1.72263 1.51188 0
M  V30 2915 C 285.758 -1.55907 0.39367 0
M  V30 2916 O 286.948 -1.61361 0.656377 0
M  V30 2917 C 284.08 -3.11365 1.38798 0
M  V30 2918 H 285.273 -1.67714 2.4862 0
M  V30 2919 H 282.826 -0.842737 1.31634 0
M  V30 2920 H 283.561 -3.21507 0.424693 0
M  V30 2921 H 283.346 -3.24644 2.19884 0
M  V30 2922 H 284.836 -3.91075 1.46458 0
M  V30 2923 N 285.273 -1.31445 -0.869486 0
M  V30 2924 C 286.501 -1.24122 -1.65534 0
M  V30 2925 C 286.916 0.193387 -1.87807 0
M  V30 2926 O 286.273 1.12557 -1.43656 0
M  V30 2927 C 286.324 -1.98229 -3.02304 0
M  V30 2928 O 286.045 -3.3609 -2.81026 0
M  V30 2929 C 287.546 -1.97751 -3.96749 0
M  V30 2930 H 284.766 -0.428868 -0.516055 0
M  V30 2931 H 287.31 -1.73328 -1.08525 0
M  V30 2932 H 285.465 -1.52782 -3.56001 0
M  V30 2933 H 285.879 -3.7383 -3.67902 0
M  V30 2934 H 287.353 -2.54114 -4.90031 0
M  V30 2935 H 287.83 -0.960137 -4.28577 0
M  V30 2936 H 288.436 -2.43079 -3.48988 0
M  V30 2937 N 286.751 1.08385 -1.14413 0
M  V30 2938 C 287.991 1.8238 -0.922868 0
M  V30 2939 C 288.355 1.84225 0.540842 0
M  V30 2940 O 289.556 2.53985 0.880058 0
M  V30 2941 C 287.827 3.24048 -1.50757 0
M  V30 2942 S 289.386 4.14917 -1.4279 0
M  V30 2943 H 286.204 0.628524 -0.332384 0
M  V30 2944 H 288.806 1.30278 -1.45766 0
M  V30 2945 H 287.51 3.20288 -2.56601 0
M  V30 2946 H 287.041 3.81224 -0.971178 0
M  V30 2947 H 289.056 4.94473 -0.413582 0
M  V30 2948 N 288.23 0.939286 1.26551 0
M  V30 2949 C 289.479 0.581601 1.93133 0
M  V30 2950 C 289.792 -0.883224 1.74524 0
M  V30 2951 O 290.998 -1.3502 2.35546 0
M  V30 2952 C 289.454 0.989425 3.46032 0
M  V30 2953 C 289.062 2.47573 3.73379 0
M  V30 2954 C 290.806 0.703544 4.18629 0
M  V30 2955 C 288.713 2.82235 5.19709 0
M  V30 2956 H 287.643 0.213803 0.723052 0
M  V30 2957 H 290.294 1.14167 1.4366 0
M  V30 2958 H 288.676 0.357902 3.94379 0
M  V30 2959 H 289.85 3.15614 3.35744 0
M  V30 2960 H 288.165 2.73471 3.1401 0
M  V30 2961 H 290.762 0.938869 5.26393 0
M  V30 2962 H 291.105 -0.359639 4.14744 0
M  V30 2963 H 291.638 1.2947 3.76141 0
M  V30 2964 H 288.377 3.87509 5.28694 0
M  V30 2965 H 287.897 2.18854 5.58447 0
M  V30 2966 H 289.576 2.70599 5.87695 0
M  V30 2967 N 289.708 -1.40897 0.706093 0
M  V30 2968 C 290.933 -2.05895 0.249435 0
M  V30 2969 C 291.358 -1.52823 -1.09666 0
M  V30 2970 O 290.716 -0.659589 -1.68876 0
M  V30 2971 C 290.764 -3.59872 0.22904 0
M  V30 2972 O 289.868 -4.04708 -0.792784 0
M  V30 2973 H 289.209 -0.653206 0.119241 0
M  V30 2974 H 291.739 -1.80471 0.96391 0
M  V30 2975 H 291.749 -4.07951 0.0634791 0
M  V30 2976 H 290.424 -3.97866 1.21141 0
M  V30 2977 H 289.001 -3.68111 -0.59572 0
M  V30 2978 N 291.186 -0.45159 -1.50991 0
M  V30 2979 C 292.597 0.00818571 -1.86698 0
M  V30 2980 C 292.948 1.40661 -1.3678 0
M  V30 2981 O 292.073 2.0391 -0.724546 0
M  V30 2982 C 292.668 0.0216303 -3.38793 0
M  V30 2983 C 291.227 0.425865 -3.73983 0
M  V30 2984 C 290.374 -0.372163 -2.74791 0
M  V30 2985 H 293.325 -0.666785 -1.44013 0
M  V30 2986 H 293.346 0.828078 -3.7138 0
M  V30 2987 H 292.858 -0.996288 -3.75094 0
M  V30 2988 H 290.959 1.44886 -3.43277 0
M  V30 2989 H 291.072 0.140761 -4.78893 0
M  V30 2990 H 289.436 0.171498 -2.54122 0
M  V30 2991 H 290.219 -1.38922 -3.13935 0
M  V30 2992 N 292.664 1.56529 -0.183458 0
M  V30 2993 C 293.912 1.96855 0.457452 0
M  V30 2994 C 294.233 1.07104 1.62953 0
M  V30 2995 O 293.503 0.139887 1.954 0
M  V30 2996 H 292.083 0.72693 0.171992 0
M  V30 2997 H 294.745 1.93056 -0.267476 0
M  V30 2998 H 293.841 3.01423 0.809368 0
M  V30 2999 N 294.142 -0.090211 1.57342 0
M  V30 3000 C 295.388 -0.793982 1.86611 0
M  V30 3001 C 295.721 -1.78142 0.773252 0
M  V30 3002 O 294.996 -1.93271 -0.218304 0
M  V30 3003 C 295.279 -1.51839 3.26523 0
M  V30 3004 C 295.132 -0.548609 4.46442 0
M  V30 3005 C 296.451 -2.46779 3.64401 0
M  V30 3006 H 293.57 -0.287186 0.678744 0
M  V30 3007 H 296.212 -0.0575076 1.89913 0
M  V30 3008 H 294.362 -2.14617 3.23839 0
M  V30 3009 H 296.034 0.0725513 4.61243 0
M  V30 3010 H 294.277 0.137614 4.33582 0
M  V30 3011 H 294.948 -1.09271 5.41076 0
M  V30 3012 H 297.424 -1.94089 3.68061 0
M  V30 3013 H 296.3 -2.94479 4.63221 0
M  V30 3014 H 296.561 -3.30758 2.93346 0
M  V30 3015 N 295.62 -1.53406 -0.361157 0
M  V30 3016 C 296.866 -1.70054 -1.10496 0
M  V30 3017 C 297.199 -0.453278 -1.88836 0
M  V30 3018 O 296.474 0.5495 -1.86576 0
M  V30 3019 C 296.757 -2.95317 -2.06058 0
M  V30 3020 C 296.61 -4.3021 -1.31298 0
M  V30 3021 C 297.929 -3.16193 -3.06121 0
M  V30 3022 H 295.048 -0.618799 -0.400321 0
M  V30 3023 H 297.69 -1.86052 -0.385318 0
M  V30 3024 H 295.84 -2.81809 -2.67425 0
M  V30 3025 H 297.512 -4.55538 -0.726807 0
M  V30 3026 H 295.755 -4.29421 -0.614853 0
M  V30 3027 H 296.426 -5.14 -2.01265 0
M  V30 3028 H 298.902 -3.28916 -2.5486 0
M  V30 3029 H 297.778 -4.05266 -3.70204 0
M  V30 3030 H 298.039 -2.31676 -3.76535 0
M  V30 3031 N 297.098 0.621204 -1.44841 0
M  V30 3032 C 298.008 1.7612 -1.5498 0
M  V30 3033 C 299.024 1.68477 -0.434927 0
M  V30 3034 O 300.2 1.89076 -0.693693 0
M  V30 3035 C 297.265 3.1254 -1.50065 0
M  V30 3036 C 296.326 3.31741 -2.72482 0
M  V30 3037 C 295.559 4.61653 -2.67792 0
M  V30 3038 O 295.782 5.431 -1.74352 0
M  V30 3039 O 294.716 4.83271 -3.58794 0
M  V30 3040 H 298.542 1.70518 -2.51311 0
M  V30 3041 H 296.127 0.783643 -1.27198 0
M  V30 3042 H 298.009 3.93844 -1.49882 0
M  V30 3043 H 296.684 3.18663 -0.568806 0
M  V30 3044 H 295.591 2.50077 -2.7823 0
M  V30 3045 H 296.924 3.30486 -3.64746 0
M  V30 3046 N 298.576 1.31904 0.862503 0
M  V30 3047 C 299.804 1.24998 1.64873 0
M  V30 3048 C 300.219 -0.183425 1.87907 0
M  V30 3049 O 299.576 -1.11794 1.44251 0
M  V30 3050 C 299.627 1.99829 3.01248 0
M  V30 3051 O 299.348 3.37575 2.79239 0
M  V30 3052 C 300.849 1.99852 3.95694 0
M  V30 3053 H 298.069 0.431599 0.513773 0
M  V30 3054 H 300.613 1.73901 1.07604 0
M  V30 3055 H 298.768 1.54668 3.55185 0
M  V30 3056 H 299.182 3.75776 3.65914 0
M  V30 3057 H 300.656 2.56709 4.88676 0
M  V30 3058 H 301.133 0.982852 4.28062 0
M  V30 3059 H 301.739 2.44926 3.47694 0
M  V30 3060 N 300.054 -1.07777 1.14986 0
M  V30 3061 C 300.986 -2.14769 0.800436 0
M  V30 3062 C 301.999 -1.61739 -0.185595 0
M  V30 3063 O 303.188 -1.78462 0.0370358 0
M  V30 3064 C 300.288 -3.38481 0.168533 0
M  V30 3065 C 299.461 -4.20876 1.1909 0
M  V30 3066 C 298.52 -5.22976 0.581575 0
M  V30 3067 O 297.546 -5.55388 1.24633 0
M  V30 3068 N 298.748 -5.76976 -0.638706 0
M  V30 3069 H 301.513 -2.45348 1.72118 0
M  V30 3070 H 299.074 -1.23645 1.04515 0
M  V30 3071 H 301.066 -4.03916 -0.251764 0
M  V30 3072 H 299.636 -3.05651 -0.655467 0
M  V30 3073 H 298.856 -3.51322 1.78791 0
M  V30 3074 H 300.144 -4.7274 1.88133 0
M  V30 3075 H 299.542 -5.52886 -1.19723 0
M  V30 3076 H 298.099 -6.44061 -1.00142 0
M  V30 3077 N 301.532 -0.945985 -1.26051 0
M  V30 3078 C 302.779 -0.596118 -1.93527 0
M  V30 3079 C 303.107 0.865559 -1.74179 0
M  V30 3080 O 302.362 1.63524 -1.0751 0
M  V30 3081 C 302.661 -0.890475 -3.46129 0
M  V30 3082 C 302.327 -2.3368 -3.85622 0
M  V30 3083 C 300.989 -2.73216 -3.96114 0
M  V30 3084 C 303.341 -3.27648 -4.05334 0
M  V30 3085 C 300.669 -4.05806 -4.2372 0
M  V30 3086 C 303.021 -4.59841 -4.3443 0
M  V30 3087 C 301.685 -4.99185 -4.43137 0
M  V30 3088 H 300.955 -0.218135 -0.708165 0
M  V30 3089 H 303.602 -1.1934 -1.49768 0
M  V30 3090 H 301.907 -0.210711 -3.91233 0
M  V30 3091 H 303.604 -0.598478 -3.96509 0
M  V30 3092 H 300.194 -2.02015 -3.78005 0
M  V30 3093 H 304.378 -2.98298 -3.96651 0
M  V30 3094 H 299.634 -4.35945 -4.28675 0
M  V30 3095 H 303.808 -5.32641 -4.48628 0
M  V30 3096 H 301.435 -6.01952 -4.64282 0
M  V30 3097 N 303.011 1.40521 -0.713556 0
M  V30 3098 C 303.974 2.29098 -0.0684347 0
M  V30 3099 C 304.974 1.45268 0.689472 0
M  V30 3100 O 306.164 1.66205 0.521677 0
M  V30 3101 C 303.296 3.28446 0.913024 0
M  V30 3102 H 304.489 2.87645 -0.84855 0
M  V30 3103 H 302.042 1.48809 -0.47809 0
M  V30 3104 H 302.777 2.74913 1.72027 0
M  V30 3105 H 302.562 3.90327 0.372472 0
M  V30 3106 H 304.052 3.94777 1.36165 0
M  V30 3107 N 304.489 0.459591 1.5075 0
M  V30 3108 C 305.736 -0.0993495 2.02256 0
M  V30 3109 C 306.064 -1.40751 1.34237 0
M  V30 3110 O 305.319 -1.90379 0.453228 0
M  V30 3111 C 305.618 -0.342866 3.55752 0
M  V30 3112 C 305.284 0.88218 4.42186 0
M  V30 3113 C 303.946 1.21808 4.65528 0
M  V30 3114 C 306.298 1.69837 4.92752 0
M  V30 3115 C 303.626 2.37045 5.36681 0
M  V30 3116 C 305.978 2.84192 5.65171 0
M  V30 3117 C 304.642 3.1821 5.8677 0
M  V30 3118 H 303.912 -0.0363545 0.740108 0
M  V30 3119 H 306.559 0.611329 1.8148 0
M  V30 3120 H 304.864 -1.13567 3.7498 0
M  V30 3121 H 306.561 -0.789121 3.93159 0
M  V30 3122 H 303.151 0.610467 4.2423 0
M  V30 3123 H 307.335 1.45205 4.74583 0
M  V30 3124 H 302.591 2.63689 5.51614 0
M  V30 3125 H 306.765 3.4779 6.03337 0
M  V30 3126 H 304.392 4.07613 6.41682 0
M  V30 3127 N 305.967 -1.56429 0.191757 0
M  V30 3128 C 306.914 -2.18936 -0.730454 0
M  V30 3129 C 307.884 -1.13557 -1.21219 0
M  V30 3130 O 309.069 -1.41794 -1.27668 0
M  V30 3131 C 306.209 -2.85013 -1.9458 0
M  V30 3132 C 305.322 -4.04909 -1.50574 0
M  V30 3133 C 304.457 -4.58853 -2.67634 0
M  V30 3134 C 303.496 -5.71114 -2.20217 0
M  V30 3135 N 302.633 -6.19478 -3.30442 0
M  V30 3136 H 307.473 -2.97389 -0.190664 0
M  V30 3137 H 305.01 -1.46869 -0.0823694 0
M  V30 3138 H 306.968 -3.21492 -2.65893 0
M  V30 3139 H 305.598 -2.09129 -2.45896 0
M  V30 3140 H 304.65 -3.74115 -0.688605 0
M  V30 3141 H 305.962 -4.86113 -1.11784 0
M  V30 3142 H 305.116 -4.97619 -3.47074 0
M  V30 3143 H 303.855 -3.76749 -3.09696 0
M  V30 3144 H 302.86 -5.31879 -1.3923 0
M  V30 3145 H 304.085 -6.55033 -1.79189 0
M  V30 3146 H 302.031 -5.40297 -3.72041 0
M  V30 3147 H 301.948 -6.95725 -2.9581 0
M  V30 3148 H 303.216 -6.62898 -4.10106 0
M  V30 3149 N 307.445 0.0818655 -1.57387 0
M  V30 3150 C 308.375 1.09885 -2.06028 0
M  V30 3151 C 309.356 1.4098 -0.951774 0
M  V30 3152 O 310.541 1.50781 -1.22387 0
M  V30 3153 C 307.671 2.4151 -2.4958 0
M  V30 3154 C 306.625 2.24792 -3.64215 0
M  V30 3155 C 305.951 3.61712 -3.93787 0
M  V30 3156 C 307.251 1.67749 -4.94629 0
M  V30 3157 H 308.945 0.694128 -2.91243 0
M  V30 3158 H 306.491 0.332448 -1.4011 0
M  V30 3159 H 308.444 3.12939 -2.82219 0
M  V30 3160 H 307.168 2.83943 -1.61381 0
M  V30 3161 H 305.827 1.55807 -3.31843 0
M  V30 3162 H 305.475 4.01697 -3.02735 0
M  V30 3163 H 305.175 3.51368 -4.70971 0
M  V30 3164 H 306.699 4.34587 -4.28913 0
M  V30 3165 H 308.113 2.29032 -5.25564 0
M  V30 3166 H 306.51 1.68128 -5.76067 0
M  V30 3167 H 307.58 0.638059 -4.80684 0
M  V30 3168 N 308.923 1.53595 0.353017 0
M  V30 3169 C 309.873 1.77299 1.43349 0
M  V30 3170 C 310.857 0.627884 1.48143 0
M  V30 3171 O 312.049 0.88697 1.53173 0
M  V30 3172 C 309.178 1.97757 2.80619 0
M  V30 3173 C 308.264 3.18305 2.80254 0
M  V30 3174 N 308.655 4.39967 2.49526 0
M  V30 3175 C 306.953 3.19283 3.11407 0
M  V30 3176 C 307.654 5.21772 2.57156 0
M  V30 3177 N 306.63 4.58269 2.92388 0
M  V30 3178 H 310.432 2.68963 1.18474 0
M  V30 3179 H 307.946 1.52391 0.561306 0
M  V30 3180 H 309.943 2.1287 3.58458 0
M  V30 3181 H 308.603 1.07329 3.06448 0
M  V30 3182 H 309.614 4.67482 2.22893 0
M  V30 3183 H 306.291 2.3879 3.4247 0
M  V30 3184 H 307.681 6.2885 2.36638 0
M  V30 3185 N 310.401 -0.613514 1.45168 0
M  V30 3186 C 311.678 -1.37263 1.39349 0
M  V30 3187 C 312.058 -2.11012 0.0610848 0
M  V30 3188 O 311.406 -2.07502 -0.956825 0
M  V30 3189 C 311.616 -2.3244 2.60332 0
M  V30 3190 C 312.964 -2.9523 3.05163 0
M  V30 3191 O 313.988 -2.42762 2.60663 0
M  V30 3192 O 312.847 -3.90454 3.82372 0
M  V30 3193 H 309.941 -0.615188 0.552696 0
M  V30 3194 H 312.487 -0.637097 1.57287 0
M  V30 3195 H 311.259 -1.77164 3.48896 0
M  V30 3196 H 310.882 -3.13383 2.44698 0
M  V30 3197 N 311.879 -1.3236 -0.855495 0
M  V30 3198 C 312.826 -1.21225 -1.964 0
M  V30 3199 C 313.796 -0.0946204 -1.6583 0
M  V30 3200 O 314.981 -0.27002 -1.8888 0
M  V30 3201 C 312.121 -0.940419 -3.32039 0
M  V30 3202 C 311.234 -2.14276 -3.75113 0
M  V30 3203 C 310.369 -1.80648 -4.9954 0
M  V30 3204 C 309.408 -2.97208 -5.35102 0
M  V30 3205 N 308.545 -2.63678 -6.50706 0
M  V30 3206 H 313.385 -2.16042 -2.05255 0
M  V30 3207 H 310.922 -1.07451 -1.00463 0
M  V30 3208 H 312.88 -0.763311 -4.10158 0
M  V30 3209 H 311.51 -0.0290413 -3.22787 0
M  V30 3210 H 310.562 -2.43017 -2.92655 0
M  V30 3211 H 311.874 -3.01468 -3.97389 0
M  V30 3212 H 311.028 -1.59484 -5.85363 0
M  V30 3213 H 309.767 -0.906678 -4.79198 0
M  V30 3214 H 308.772 -3.19004 -4.47791 0
M  V30 3215 H 309.997 -3.87918 -5.57401 0
M  V30 3216 H 307.943 -1.76238 -6.31883 0
M  V30 3217 H 307.86 -3.444 -6.72997 0
M  V30 3218 H 309.128 -2.45942 -7.39684 0
M  V30 3219 N 313.357 1.07166 -1.15556 0
M  V30 3220 C 314.634 1.76546 -0.842069 0
M  V30 3221 C 315.014 2.00453 0.661939 0
M  V30 3222 O 314.362 1.62452 1.60691 0
M  V30 3223 C 314.572 3.07266 -1.65495 0
M  V30 3224 C 315.92 3.81578 -1.86234 0
M  V30 3225 O 316.944 3.17083 -1.62287 0
M  V30 3226 O 315.803 4.97419 -2.26355 0
M  V30 3227 H 312.897 0.766756 -0.309862 0
M  V30 3228 H 315.443 1.13514 -1.26145 0
M  V30 3229 H 314.215 2.85494 -2.67598 0
M  V30 3230 H 313.838 3.7803 -1.23203 0
M  V30 3231 N 314.835 0.952656 1.25548 0
M  V30 3232 C 316.246 0.647392 1.75116 0
M  V30 3233 C 316.597 -0.837274 1.77438 0
M  V30 3234 O 315.722 -1.65525 1.39393 0
M  V30 3235 C 316.317 1.16845 3.18014 0
M  V30 3236 C 314.876 0.913382 3.6515 0
M  V30 3237 C 314.023 1.31265 2.44264 0
M  V30 3238 H 316.974 1.12968 1.11462 0
M  V30 3239 H 316.995 0.527606 3.76824 0
M  V30 3240 H 316.507 2.24902 3.16292 0
M  V30 3241 H 314.608 -0.152316 3.72289 0
M  V30 3242 H 314.721 1.54845 4.53387 0
M  V30 3243 H 313.085 0.731028 2.43984 0
M  V30 3244 H 313.868 2.40239 2.45234 0
M  V30 3245 N 316.313 -1.40141 0.720998 0
M  V30 3246 C 317.223 -2.34486 0.0731031 0
M  V30 3247 C 318.239 -1.57587 -0.737723 0
M  V30 3248 O 319.415 -1.89949 -0.669429 0
M  V30 3249 C 316.48 -3.36528 -0.833656 0
M  V30 3250 C 315.541 -4.29298 -0.0121673 0
M  V30 3251 C 314.774 -5.26466 -0.875742 0
M  V30 3252 O 314.997 -5.29745 -2.11485 0
M  V30 3253 O 313.931 -6.01092 -0.31185 0
M  V30 3254 H 317.757 -2.9152 0.851444 0
M  V30 3255 H 315.342 -1.41427 0.481527 0
M  V30 3256 H 317.224 -3.99093 -1.35289 0
M  V30 3257 H 315.899 -2.81899 -1.59105 0
M  V30 3258 H 314.806 -3.70001 0.552262 0
M  V30 3259 H 316.139 -4.87094 0.707129 0
M  V30 3260 N 317.792 -0.46758 -1.50504 0
M  V30 3261 C 318.739 0.328413 -2.28452 0
M  V30 3262 C 319.709 0.990313 -1.33349 0
M  V30 3263 O 320.894 1.00343 -1.62284 0
M  V30 3264 C 318.034 1.40648 -3.15138 0
M  V30 3265 C 317.147 0.759709 -4.25267 0
M  V30 3266 C 316.282 1.81537 -4.99217 0
M  V30 3267 C 315.321 1.14866 -6.01226 0
M  V30 3268 N 314.458 2.14702 -6.68467 0
M  V30 3269 H 319.298 -0.342603 -2.96024 0
M  V30 3270 H 316.835 -0.180801 -1.45985 0
M  V30 3271 H 318.793 2.04315 -3.63746 0
M  V30 3272 H 317.423 2.04671 -2.49619 0
M  V30 3273 H 316.475 0.0105671 -3.80399 0
M  V30 3274 H 317.787 0.233243 -4.98254 0
M  V30 3275 H 316.941 2.52793 -5.51526 0
M  V30 3276 H 315.68 2.37564 -4.25928 0
M  V30 3277 H 314.685 0.42171 -5.4818 0
M  V30 3278 H 315.91 0.595334 -6.76485 0
M  V30 3279 H 313.856 2.69752 -5.97972 0
M  V30 3280 H 313.773 1.6703 -7.37317 0
M  V30 3281 H 315.041 2.85348 -7.25394 0
M  V30 3282 N 319.27 1.56325 -0.20005 0
M  V30 3283 C 320.233 2.18084 0.705132 0
M  V30 3284 C 321.233 1.13666 1.1374 0
M  V30 3285 O 322.423 1.39023 1.04968 0
M  V30 3286 C 319.555 2.78689 1.96329 0
M  V30 3287 H 320.748 2.99435 0.167023 0
M  V30 3288 H 318.301 1.56221 0.0495725 0
M  V30 3289 H 319.036 2.0115 2.5438 0
M  V30 3290 H 318.821 3.55133 1.66202 0
M  V30 3291 H 320.311 3.26096 2.60866 0
M  V30 3292 N 320.748 -0.0735177 1.57428 0
M  V30 3293 C 321.711 -1.07192 2.02589 0
M  V30 3294 C 322.711 -1.31695 0.922661 0
M  V30 3295 O 323.901 -1.27445 1.18758 0
M  V30 3296 C 321.033 -2.41599 2.40506 0
M  V30 3297 H 322.226 -0.682727 2.92025 0
M  V30 3298 H 319.779 -0.319193 1.53006 0
M  V30 3299 H 320.514 -2.85354 1.5409 0
M  V30 3300 H 320.299 -2.25156 3.21009 0
M  V30 3301 H 321.789 -3.13367 2.76027 0
M  V30 3302 N 322.226 -1.5378 -0.344866 0
M  V30 3303 C 323.189 -1.80981 -1.40637 0
M  V30 3304 C 324.189 -0.680816 -1.45676 0
M  V30 3305 O 325.379 -0.949095 -1.46075 0
M  V30 3306 C 322.511 -1.95063 -2.79577 0
M  V30 3307 H 323.704 -2.75803 -1.17783 0
M  V30 3308 H 321.257 -1.45173 -0.579181 0
M  V30 3309 H 321.992 -1.02379 -3.07716 0
M  V30 3310 H 321.777 -2.77198 -2.77315 0
M  V30 3311 H 323.267 -2.17629 -3.56409 0
M  V30 3312 N 323.704 0.605807 -1.45491 0
M  V30 3313 C 324.932 1.39136 -1.5313 0
M  V30 3314 C 325.347 1.88082 -0.164507 0
M  V30 3315 O 324.704 1.62316 0.834247 0
M  V30 3316 C 324.755 2.59463 -2.51716 0
M  V30 3317 O 324.476 2.12551 -3.83084 0
M  V30 3318 C 325.977 3.52301 -2.6907 0
M  V30 3319 H 323.197 0.425849 -0.51855 0
M  V30 3320 H 325.741 0.73865 -1.90694 0
M  V30 3321 H 323.896 3.20772 -2.17219 0
M  V30 3322 H 324.31 2.90744 -4.36541 0
M  V30 3323 H 325.784 4.33271 -3.42024 0
M  V30 3324 H 326.261 4.02757 -1.75167 0
M  V30 3325 H 326.867 2.96845 -3.04571 0
M  V30 3326 N 325.182 1.32811 0.848464 0
M  V30 3327 C 326.412 1.26556 1.63301 0
M  V30 3328 C 326.82 -0.1676 1.88456 0
M  V30 3329 O 326.163 -1.11713 1.45828 0
M  V30 3330 C 326.225 1.96202 3.01239 0
M  V30 3331 C 325.889 3.45528 2.99098 0
M  V30 3332 C 326.886 4.40903 2.75501 0
M  V30 3333 C 324.571 3.87558 3.19537 0
M  V30 3334 C 326.565 5.76282 2.72356 0
M  V30 3335 C 324.252 5.23044 3.16019 0
M  V30 3336 C 325.25 6.17217 2.92458 0
M  V30 3337 O 324.938 7.50223 2.88825 0
M  V30 3338 H 324.67 0.43771 0.515156 0
M  V30 3339 H 327.224 1.7559 1.0657 0
M  V30 3340 H 325.454 1.41746 3.59785 0
M  V30 3341 H 327.143 1.83573 3.62016 0
M  V30 3342 H 327.909 4.09756 2.5947 0
M  V30 3343 H 323.788 3.14674 3.369 0
M  V30 3344 H 327.332 6.4976 2.53886 0
M  V30 3345 H 323.229 5.53818 3.31596 0
M  V30 3346 H 323.997 7.59657 3.04735 0
M  V30 3347 N 326.66 -1.06551 1.16123 0
M  V30 3348 C 327.57 -2.17484 0.879662 0
M  V30 3349 C 328.586 -1.73377 -0.147104 0
M  V30 3350 O 329.762 -2.01379 0.0289128 0
M  V30 3351 C 326.827 -3.44591 0.381829 0
M  V30 3352 C 325.888 -4.0322 1.4735 0
M  V30 3353 C 325.121 -5.24261 0.999324 0
M  V30 3354 O 325.344 -5.70198 -0.151957 0
M  V30 3355 O 324.278 -5.74775 1.78653 0
M  V30 3356 H 328.104 -2.44075 1.80724 0
M  V30 3357 H 325.689 -1.16042 0.940992 0
M  V30 3358 H 327.571 -4.21254 0.111053 0
M  V30 3359 H 326.246 -3.19532 -0.51777 0
M  V30 3360 H 325.153 -3.2806 1.79798 0
M  V30 3361 H 326.486 -4.32568 2.34831 0
M  V30 3362 N 328.138 -0.959301 -1.25041 0
M  V30 3363 C 329.07 -0.440543 -2.24926 0
M  V30 3364 C 330.083 0.446131 -1.56568 0
M  V30 3365 O 331.272 0.253657 -1.76689 0
M  V30 3366 C 328.372 0.38412 -3.36716 0
M  V30 3367 C 327.545 -0.490658 -4.34639 0
M  V30 3368 C 326.604 0.276587 -5.25473 0
M  V30 3369 O 325.63 -0.326614 -5.68262 0
M  V30 3370 N 326.832 1.56844 -5.5891 0
M  V30 3371 H 329.597 -1.29931 -2.70071 0
M  V30 3372 H 327.158 -0.830181 -1.38995 0
M  V30 3373 H 329.15 0.905228 -3.94446 0
M  V30 3374 H 327.72 1.14377 -2.90924 0
M  V30 3375 H 326.94 -1.19282 -3.7572 0
M  V30 3376 H 328.228 -1.08756 -4.97041 0
M  V30 3377 H 327.626 2.08036 -5.26059 0
M  V30 3378 H 326.183 2.03541 -6.19205 0
M  V30 3379 N 329.616 1.39756 -0.72842 0
M  V30 3380 C 330.549 2.28176 -0.0330172 0
M  V30 3381 C 331.527 1.44035 0.754501 0
M  V30 3382 O 332.711 1.73434 0.738445 0
M  V30 3383 C 329.838 3.24795 0.960504 0
M  V30 3384 C 328.884 4.25693 0.262264 0
M  V30 3385 S 329.717 5.25714 -1.01906 0
M  V30 3386 C 330.873 6.25894 -0.0279717 0
M  V30 3387 H 331.106 2.86807 -0.78287 0
M  V30 3388 H 328.639 1.45382 -0.519951 0
M  V30 3389 H 330.597 3.80983 1.52846 0
M  V30 3390 H 329.258 2.65196 1.68315 0
M  V30 3391 H 328.451 4.93699 1.01379 0
M  V30 3392 H 328.053 3.7327 -0.233482 0
M  V30 3393 H 330.345 6.72585 0.814621 0
M  V30 3394 H 331.288 7.04876 -0.67499 0
M  V30 3395 H 331.696 5.63466 0.341489 0
M  V30 3396 N 331.094 0.475555 1.50254 0
M  V30 3397 C 332.041 -0.316293 2.28622 0
M  V30 3398 C 333.011 -0.983227 1.33873 0
M  V30 3399 O 334.196 -0.994805 1.62814 0
M  V30 3400 C 331.336 -1.38975 3.1588 0
M  V30 3401 C 330.449 -0.737146 4.25664 0
M  V30 3402 C 329.584 -1.78887 5.00173 0
M  V30 3403 C 328.623 -1.11676 6.01826 0
M  V30 3404 N 327.76 -2.11154 6.69596 0
M  V30 3405 H 332.6 0.358297 2.95838 0
M  V30 3406 H 330.137 0.188541 1.45887 0
M  V30 3407 H 332.095 -2.02383 3.64825 0
M  V30 3408 H 330.725 -2.03344 2.50701 0
M  V30 3409 H 329.777 0.0096065 3.80399 0
M  V30 3410 H 331.089 -0.206816 4.98371 0
M  V30 3411 H 330.243 -2.49865 5.52859 0
M  V30 3412 H 328.982 -2.35302 4.27182 0
M  V30 3413 H 327.987 -0.392633 5.48396 0
M  V30 3414 H 329.212 -0.55945 6.76792 0
M  V30 3415 H 327.158 -2.66577 5.99394 0
M  V30 3416 H 327.075 -1.63118 7.38193 0
M  V30 3417 H 328.343 -2.81497 7.26897 0
M  V30 3418 N 332.573 -1.56217 0.208337 0
M  V30 3419 C 333.813 -1.99849 -0.428927 0
M  V30 3420 C 334.177 -1.09262 -1.57879 0
M  V30 3421 O 335.378 -1.42185 -2.28116 0
M  V30 3422 C 333.649 -3.46777 -0.864879 0
M  V30 3423 S 335.208 -4.12434 -1.49811 0
M  V30 3424 H 332.026 -0.697742 -0.136665 0
M  V30 3425 H 334.628 -1.92953 0.314519 0
M  V30 3426 H 333.332 -4.10396 -0.0181326 0
M  V30 3427 H 332.863 -3.57518 -1.64147 0
M  V30 3428 H 334.878 -4.10532 -2.78707 0
M  V30 3429 N 334.051 0.0651679 -1.57465 0
M  V30 3430 C 334.981 1.07693 -2.07182 0
M  V30 3431 C 335.962 1.39962 -0.966673 0
M  V30 3432 O 337.147 1.49475 -1.2398 0
M  V30 3433 C 334.277 2.3885 -2.52127 0
M  V30 3434 C 333.231 2.20917 -3.66579 0
M  V30 3435 C 332.557 3.57515 -3.97601 0
M  V30 3436 C 333.857 1.62493 -4.9638 0
M  V30 3437 H 335.551 0.663199 -2.91962 0
M  V30 3438 H 333.097 0.317569 -1.40455 0
M  V30 3439 H 335.05 3.09928 -2.85522 0
M  V30 3440 H 333.774 2.82215 -1.64384 0
M  V30 3441 H 332.433 1.52279 -3.33477 0
M  V30 3442 H 332.081 3.98463 -3.06979 0
M  V30 3443 H 331.781 3.46353 -4.74672 0
M  V30 3444 H 333.305 4.30013 -4.33499 0
M  V30 3445 H 334.719 2.23445 -5.27963 0
M  V30 3446 H 333.116 1.62009 -5.77818 0
M  V30 3447 H 334.186 0.587041 -4.81333 0
M  V30 3448 N 335.529 1.53961 0.336706 0
M  V30 3449 C 336.476 1.82428 1.41381 0
M  V30 3450 C 337.446 0.670444 1.51968 0
M  V30 3451 O 338.631 0.915565 1.67398 0
M  V30 3452 C 335.771 2.04564 2.77934 0
M  V30 3453 C 334.884 3.32267 2.76084 0
M  V30 3454 C 334.019 3.44434 4.04399 0
M  V30 3455 C 333.058 4.66061 3.96804 0
M  V30 3456 N 332.195 4.75224 5.16823 0
M  V30 3457 H 337.035 2.74324 1.16405 0
M  V30 3458 H 334.572 1.35869 0.563752 0
M  V30 3459 H 336.53 2.15388 3.57301 0
M  V30 3460 H 335.16 1.15974 3.01247 0
M  V30 3461 H 334.212 3.3025 1.88784 0
M  V30 3462 H 335.524 4.21733 2.66351 0
M  V30 3463 H 334.678 3.54728 4.92192 0
M  V30 3464 H 333.417 2.53037 4.16921 0
M  V30 3465 H 332.422 4.55838 3.07396 0
M  V30 3466 H 333.647 5.58829 3.85858 0
M  V30 3467 H 331.593 3.86739 5.29876 0
M  V30 3468 H 331.51 5.58636 5.09374 0
M  V30 3469 H 332.778 4.89835 6.06367 0
M  V30 3470 N 337.007 -0.598083 1.45811 0
M  V30 3471 C 338.418 -1.18011 1.44673 0
M  V30 3472 C 338.769 -1.95378 0.179364 0
M  V30 3473 O 337.894 -2.04124 -0.718509 0
M  V30 3474 C 338.489 -2.14677 2.62105 0
M  V30 3475 C 337.048 -2.68236 2.64057 0
M  V30 3476 C 336.195 -1.43816 2.37091 0
M  V30 3477 H 339.146 -0.38686 1.53913 0
M  V30 3478 H 339.167 -2.97878 2.36746 0
M  V30 3479 H 338.679 -1.5834 3.5433 0
M  V30 3480 H 336.78 -3.28486 1.75864 0
M  V30 3481 H 336.893 -3.12021 3.63566 0
M  V30 3482 H 335.257 -1.731 1.86838 0
M  V30 3483 H 336.04 -0.893333 3.31473 0
M  V30 3484 N 338.485 -1.33259 -0.841409 0
M  V30 3485 C 339.395 -1.25332 -1.98316 0
M  V30 3486 C 340.411 -0.164364 -1.73222 0
M  V30 3487 O 341.587 -0.387486 -1.97637 0
M  V30 3488 C 338.652 -0.990078 -3.32262 0
M  V30 3489 C 337.713 -2.16879 -3.70489 0
M  V30 3490 C 336.946 -1.91801 -4.98044 0
M  V30 3491 O 337.169 -0.867075 -5.63771 0
M  V30 3492 O 336.103 -2.78267 -5.33714 0
M  V30 3493 H 339.929 -2.21344 -2.07944 0
M  V30 3494 H 337.514 -1.1328 -0.974058 0
M  V30 3495 H 339.396 -0.860321 -4.12524 0
M  V30 3496 H 338.071 -0.0602155 -3.23644 0
M  V30 3497 H 336.978 -2.35407 -2.90748 0
M  V30 3498 H 338.311 -3.0819 -3.8377 0
M  V30 3499 N 339.963 1.05934 -1.16686 0
M  V30 3500 C 341.24 1.75643 -0.860747 0
M  V30 3501 C 341.62 2.01144 0.640641 0
M  V30 3502 O 340.968 1.64147 1.58959 0
M  V30 3503 C 341.178 3.05493 -1.68745 0
M  V30 3504 C 342.526 3.79581 -1.90271 0
M  V30 3505 O 343.55 3.15344 -1.65641 0
M  V30 3506 O 342.409 4.9499 -2.31618 0
M  V30 3507 H 339.503 0.763426 -0.317977 0
M  V30 3508 H 342.049 1.1217 -1.27342 0
M  V30 3509 H 340.821 2.8264 -2.70611 0
M  V30 3510 H 340.444 3.76702 -1.27206 0
M  V30 3511 N 341.441 0.965919 1.2453 0
M  V30 3512 C 342.687 0.62776 1.92839 0
M  V30 3513 C 343.02 -0.834694 1.75347 0
M  V30 3514 O 342.295 -1.60031 1.10546 0
M  V30 3515 C 342.578 1.00109 3.45905 0
M  V30 3516 C 342.431 2.52011 3.72573 0
M  V30 3517 C 343.75 0.53435 4.36844 0
M  V30 3518 H 340.869 0.229537 0.700344 0
M  V30 3519 H 343.511 1.2046 1.46933 0
M  V30 3520 H 341.661 0.510238 3.85135 0
M  V30 3521 H 343.333 3.08559 3.42912 0
M  V30 3522 H 341.576 2.95287 3.17786 0
M  V30 3523 H 342.247 2.73183 4.79661 0
M  V30 3524 H 344.723 0.955565 4.04979 0
M  V30 3525 H 343.599 0.824152 5.42678 0
M  V30 3526 H 343.86 -0.565589 4.38467 0
M  V30 3527 N 342.919 -1.39368 0.735821 0
M  V30 3528 C 343.882 -2.2896 0.104874 0
M  V30 3529 C 344.882 -1.46347 -0.666274 0
M  V30 3530 O 346.072 -1.67014 -0.49517 0
M  V30 3531 C 343.204 -3.29857 -0.860656 0
M  V30 3532 H 344.397 -2.86259 0.894205 0
M  V30 3533 H 341.95 -1.48029 0.501704 0
M  V30 3534 H 342.685 -2.77615 -1.67631 0
M  V30 3535 H 342.47 -3.9087 -0.310327 0
M  V30 3536 H 343.96 -3.96893 -1.29867 0
M  V30 3537 N 344.397 -0.483516 -1.5 0
M  V30 3538 C 345.307 0.309172 -2.32554 0
M  V30 3539 C 346.323 0.984159 -1.43493 0
M  V30 3540 O 347.499 0.969399 -1.76535 0
M  V30 3541 C 344.564 1.36979 -3.18493 0
M  V30 3542 C 343.625 0.710095 -4.23387 0
M  V30 3543 C 342.858 1.72018 -5.05218 0
M  V30 3544 O 343.081 2.94813 -4.88305 0
M  V30 3545 O 342.015 1.28515 -5.8802 0
M  V30 3546 H 345.841 -0.366064 -3.01486 0
M  V30 3547 H 343.426 -0.24514 -1.47375 0
M  V30 3548 H 345.308 1.98385 -3.71781 0
M  V30 3549 H 343.983 2.02828 -2.52275 0
M  V30 3550 H 342.89 0.0567539 -3.74057 0
M  V30 3551 H 344.223 0.0943557 -4.9211 0
M  V30 3552 N 345.875 1.56104 -0.216619 0
M  V30 3553 C 346.838 2.18819 0.681962 0
M  V30 3554 C 347.838 1.14866 1.12528 0
M  V30 3555 O 349.028 1.40128 1.03488 0
M  V30 3556 C 346.16 2.80756 1.93362 0
M  V30 3557 H 347.353 2.99595 0.135254 0
M  V30 3558 H 344.906 1.56265 0.0330003 0
M  V30 3559 H 345.641 2.03837 2.52232 0
M  V30 3560 H 345.426 3.56876 1.62426 0
M  V30 3561 H 346.916 3.28844 2.57393 0
M  V30 3562 N 347.353 -0.0568162 1.57498 0
M  V30 3563 C 348.599 -0.75422 1.88253 0
M  V30 3564 C 348.932 -1.76461 0.810865 0
M  V30 3565 O 348.207 -1.93691 -0.177259 0
M  V30 3566 C 348.49 -1.44878 3.2967 0
M  V30 3567 C 348.343 -0.453789 4.47505 0
M  V30 3568 C 349.662 -2.38994 3.69554 0
M  V30 3569 H 346.781 -0.272724 0.684683 0
M  V30 3570 H 349.423 -0.0172113 1.89992 0
M  V30 3571 H 347.573 -2.077 3.28318 0
M  V30 3572 H 349.245 0.170371 4.60985 0
M  V30 3573 H 347.488 0.229552 4.33192 0
M  V30 3574 H 348.159 -0.977699 5.43273 0
M  V30 3575 H 350.635 -1.86239 3.72095 0
M  V30 3576 H 349.511 -2.84587 4.69363 0
M  V30 3577 H 349.772 -3.24461 3.00296 0
M  V30 3578 N 348.832 -1.54138 -0.328536 0
M  V30 3579 C 350.081 -1.71318 -1.06456 0
M  V30 3580 C 350.394 -0.491109 -1.89334 0
M  V30 3581 O 351.6 -0.54416 -2.65991 0
M  V30 3582 C 350.056 -3.03 -1.94214 0
M  V30 3583 C 349.664 -4.32595 -1.16471 0
M  V30 3584 C 351.408 -3.29544 -2.67583 0
M  V30 3585 C 349.315 -5.55341 -2.03347 0
M  V30 3586 H 348.245 -0.638429 -0.401155 0
M  V30 3587 H 350.896 -1.80633 -0.323106 0
M  V30 3588 H 349.278 -2.87579 -2.72239 0
M  V30 3589 H 350.452 -4.58766 -0.432525 0
M  V30 3590 H 348.767 -4.12777 -0.548063 0
M  V30 3591 H 351.364 -4.18444 -3.3288 0
M  V30 3592 H 351.707 -2.47206 -3.34955 0
M  V30 3593 H 352.24 -3.45809 -1.96623 0
M  V30 3594 H 348.979 -6.40268 -1.40491 0
M  V30 3595 H 348.499 -5.33397 -2.74313 0
M  V30 3596 H 350.178 -5.91557 -2.62049 0
M  V30 3597 N 350.31 0.590341 -1.46126 0
M  V30 3598 C 351.54 1.37304 -1.54373 0
M  V30 3599 C 351.948 1.88332 -0.181071 0
M  V30 3600 O 351.291 1.63852 0.830559 0
M  V30 3601 C 351.353 2.6012 -2.48149 0
M  V30 3602 C 351.017 2.30613 -3.94546 0
M  V30 3603 C 352.014 1.89915 -4.83971 0
M  V30 3604 C 349.699 2.42993 -4.39613 0
M  V30 3605 C 351.693 1.61981 -6.16475 0
M  V30 3606 C 349.38 2.14672 -5.72153 0
M  V30 3607 C 350.378 1.7423 -6.60404 0
M  V30 3608 O 350.066 1.46251 -7.90485 0
M  V30 3609 H 349.798 0.426086 -0.524811 0
M  V30 3610 H 352.352 0.72539 -1.92165 0
M  V30 3611 H 350.582 3.27664 -2.05361 0
M  V30 3612 H 352.271 3.22182 -2.46887 0
M  V30 3613 H 353.037 1.79872 -4.50412 0
M  V30 3614 H 348.916 2.73435 -3.71153 0
M  V30 3615 H 352.46 1.30341 -6.85315 0
M  V30 3616 H 348.357 2.24337 -6.05263 0
M  V30 3617 H 349.125 1.6016 -8.02677 0
M  V30 3618 N 351.788 1.33704 0.83433 0
M  V30 3619 C 353.034 1.25603 1.59222 0
M  V30 3620 C 353.367 -0.176659 1.93395 0
M  V30 3621 O 352.642 -1.11915 1.59076 0
M  V30 3622 C 352.925 2.13576 2.89926 0
M  V30 3623 C 352.778 3.65326 2.62406 0
M  V30 3624 C 354.097 2.01238 3.91397 0
M  V30 3625 H 351.216 0.457613 0.577719 0
M  V30 3626 H 353.858 1.63848 0.961972 0
M  V30 3627 H 352.008 1.8109 3.43713 0
M  V30 3628 H 353.68 4.08124 2.15017 0
M  V30 3629 H 351.923 3.8698 1.96033 0
M  V30 3630 H 352.594 4.22232 3.55562 0
M  V30 3631 H 355.07 2.29738 3.46929 0
M  V30 3632 H 353.946 2.65036 4.80673 0
M  V30 3633 H 354.207 0.985951 4.30966 0
M  V30 3634 N 353.266 -1.05314 1.17247 0
M  V30 3635 C 354.196 -2.1498 0.911362 0
M  V30 3636 C 355.177 -1.69471 -0.146169 0
M  V30 3637 O 356.362 -1.942 0.003812 0
M  V30 3638 C 353.492 -3.4472 0.422528 0
M  V30 3639 C 352.446 -4.03789 1.4191 0
M  V30 3640 C 351.772 -5.28858 0.788274 0
M  V30 3641 C 353.072 -4.41418 2.7919 0
M  V30 3642 H 354.766 -2.3708 1.82848 0
M  V30 3643 H 352.312 -1.13938 0.880569 0
M  V30 3644 H 354.265 -4.20787 0.227289 0
M  V30 3645 H 352.989 -3.22269 -0.530123 0
M  V30 3646 H 351.648 -3.2979 1.60106 0
M  V30 3647 H 351.296 -5.02709 -0.171173 0
M  V30 3648 H 350.996 -5.69338 1.45353 0
M  V30 3649 H 352.52 -6.07612 0.603282 0
M  V30 3650 H 353.934 -5.08524 2.64719 0
M  V30 3651 H 352.331 -4.92913 3.42282 0
M  V30 3652 H 353.401 -3.51819 3.33693 0
M  V30 3653 N 354.744 -0.972509 -1.24016 0
M  V30 3654 C 355.969 -0.654417 -1.96805 0
M  V30 3655 C 356.394 0.770398 -1.716 0
M  V30 3656 O 355.752 1.52361 -0.982647 0
M  V30 3657 C 355.8 -0.941031 -3.48105 0
M  V30 3658 O 354.904 -0.0289472 -4.1239 0
M  V30 3659 H 354.245 -0.24692 -0.616382 0
M  V30 3660 H 356.775 -1.30396 -1.57664 0
M  V30 3661 H 356.785 -0.87452 -3.98517 0
M  V30 3662 H 355.46 -1.97939 -3.65777 0
M  V30 3663 H 354.037 -0.149192 -3.72601 0
M  V30 3664 N 356.222 1.38976 -0.743202 0
M  V30 3665 C 357.45 2.04636 -0.30525 0
M  V30 3666 C 357.865 1.56044 1.06281 0
M  V30 3667 O 357.222 0.728921 1.67311 0
M  V30 3668 C 357.273 3.60193 -0.307177 0
M  V30 3669 O 356.994 4.06998 -1.62124 0
M  V30 3670 C 358.495 4.4306 0.145928 0
M  V30 3671 H 355.715 0.65788 -0.132041 0
M  V30 3672 H 358.259 1.77866 -1.00915 0
M  V30 3673 H 356.414 3.85835 0.347898 0
M  V30 3674 H 356.828 5.01371 -1.54036 0
M  V30 3675 H 358.302 5.51921 0.0934183 0
M  V30 3676 H 358.779 4.22706 1.19231 0
M  V30 3677 H 359.385 4.22584 -0.479886 0
M  V30 3678 N 357.7 0.491464 1.49741 0
M  V30 3679 C 359.111 0.0413169 1.86654 0
M  V30 3680 C 359.462 -1.36985 1.40462 0
M  V30 3681 O 358.587 -2.01917 0.778354 0
M  V30 3682 C 359.182 0.0682023 3.38731 0
M  V30 3683 C 357.741 -0.32656 3.74981 0
M  V30 3684 C 356.888 0.444888 2.73708 0
M  V30 3685 H 359.839 0.704733 1.42194 0
M  V30 3686 H 359.86 -0.729322 3.73445 0
M  V30 3687 H 359.372 1.09539 3.72321 0
M  V30 3688 H 357.473 -1.35734 3.46997 0
M  V30 3689 H 357.586 -0.013741 4.79098 0
M  V30 3690 H 355.95 -0.104062 2.54487 0
M  V30 3691 H 356.733 1.47197 3.10142 0
M  V30 3692 N 359.178 -1.55987 0.224894 0
M  V30 3693 C 360.141 -2.19178 -0.670348 0
M  V30 3694 C 361.141 -1.15461 -1.11917 0
M  V30 3695 O 362.331 -1.40675 -1.02743 0
M  V30 3696 C 359.463 -2.81777 -1.9187 0
M  V30 3697 H 360.656 -2.99662 -0.119364 0
M  V30 3698 H 358.209 -1.5628 -0.0247128 0
M  V30 3699 H 358.944 -2.05172 -2.51147 0
M  V30 3700 H 358.729 -3.57732 -1.60531 0
M  V30 3701 H 360.219 -3.30205 -2.55645 0
M  V30 3702 N 360.656 0.0484629 -1.57525 0
M  V30 3703 C 361.606 1.06246 -2.01732 0
M  V30 3704 C 362.59 1.33155 -0.903245 0
M  V30 3705 O 363.782 1.33065 -1.16717 0
M  V30 3706 C 360.911 2.36943 -2.48421 0
M  V30 3707 C 359.997 2.13208 -3.6661 0
M  V30 3708 N 360.388 1.5947 -4.80003 0
M  V30 3709 C 358.686 2.43581 -3.7361 0
M  V30 3710 C 359.387 1.51092 -5.61735 0
M  V30 3711 N 358.363 1.9797 -5.0627 0
M  V30 3712 H 362.165 0.640675 -2.86832 0
M  V30 3713 H 359.679 0.255134 -1.60383 0
M  V30 3714 H 361.676 3.10374 -2.78341 0
M  V30 3715 H 360.336 2.79818 -1.64718 0
M  V30 3716 H 361.347 1.28008 -5.01831 0
M  V30 3717 H 358.024 2.89662 -3.00669 0
M  V30 3718 H 359.414 1.10199 -6.62801 0
M  V30 3719 N 362.134 1.5431 0.320358 0
M  V30 3720 C 363.383 1.7188 1.05546 0
M  V30 3721 C 363.696 0.501143 1.89071 0
M  V30 3722 O 364.902 0.558258 2.65699 0
M  V30 3723 C 363.358 3.04025 1.92605 0
M  V30 3724 C 362.966 4.33207 1.14176 0
M  V30 3725 C 364.71 3.30959 2.65832 0
M  V30 3726 C 362.617 5.56412 2.00399 0
M  V30 3727 H 361.547 0.640547 0.397763 0
M  V30 3728 H 364.198 1.80802 0.313522 0
M  V30 3729 H 362.58 2.89019 2.7071 0
M  V30 3730 H 363.754 4.58989 0.40819 0
M  V30 3731 H 362.069 4.13062 0.526165 0
M  V30 3732 H 364.666 4.20203 3.30656 0
M  V30 3733 H 365.009 2.48979 3.33639 0
M  V30 3734 H 365.542 3.46847 1.94787 0
M  V30 3735 H 362.281 6.41004 1.37094 0
M  V30 3736 H 361.801 5.34844 2.7148 0
M  V30 3737 H 363.48 5.92938 2.58908 0
M  V30 3738 N 363.613 -0.582584 1.46437 0
M  V30 3739 C 364.545 -1.70618 1.53043 0
M  V30 3740 C 365.558 -1.57322 0.418769 0
M  V30 3741 O 366.747 -1.64744 0.687136 0
M  V30 3742 C 363.847 -3.08869 1.39474 0
M  V30 3743 C 363.02 -3.48166 2.64762 0
M  V30 3744 C 362.079 -4.65478 2.4539 0
M  V30 3745 O 361.105 -4.71333 3.19114 0
M  V30 3746 N 362.307 -5.60365 1.51564 0
M  V30 3747 H 365.072 -1.65405 2.49923 0
M  V30 3748 H 362.633 -0.768567 1.42494 0
M  V30 3749 H 364.625 -3.85143 1.24287 0
M  V30 3750 H 363.195 -3.08449 0.507758 0
M  V30 3751 H 362.415 -2.61598 2.9489 0
M  V30 3752 H 363.703 -3.71188 3.4799 0
M  V30 3753 H 363.101 -5.5837 0.907705 0
M  V30 3754 H 361.658 -6.36068 1.4234 0
M  V30 3755 N 365.091 -1.34144 -0.827227 0
M  V30 3756 C 366.34 -1.25602 -1.5782 0
M  V30 3757 C 366.653 0.173445 -1.94829 0
M  V30 3758 O 367.859 0.380984 -2.68814 0
M  V30 3759 C 366.315 -2.20151 -2.84713 0
M  V30 3760 C 365.923 -3.68331 -2.55021 0
M  V30 3761 C 367.667 -2.20508 -3.62735 0
M  V30 3762 C 365.574 -4.54762 -3.78082 0
M  V30 3763 H 364.504 -0.466573 -0.592306 0
M  V30 3764 H 367.155 -1.59283 -0.911116 0
M  V30 3765 H 365.537 -1.79417 -3.53023 0
M  V30 3766 H 366.711 -4.17577 -1.94849 0
M  V30 3767 H 365.026 -3.7038 -1.90283 0
M  V30 3768 H 367.623 -2.82306 -4.54101 0
M  V30 3769 H 367.966 -1.20322 -3.98533 0
M  V30 3770 H 368.499 -2.59664 -3.01362 0
M  V30 3771 H 365.238 -5.55867 -3.47407 0
M  V30 3772 H 364.758 -4.10254 -4.37552 0
M  V30 3773 H 366.437 -4.69153 -4.45538 0
M  V30 3774 N 366.569 1.04691 -1.17803 0
M  V30 3775 C 367.817 1.7743 -0.967617 0
M  V30 3776 C 368.138 1.88359 0.504574 0
M  V30 3777 O 367.408 1.40402 1.36617 0
M  V30 3778 H 365.988 0.657242 -0.355024 0
M  V30 3779 H 368.65 1.2638 -1.48371 0
M  V30 3780 H 367.746 2.78924 -1.40027 0
M  V30 3781 N 368.047 0.979072 1.23499 0
M  V30 3782 C 369.324 0.563674 1.87302 0
M  V30 3783 C 369.704 -0.959199 1.88049 0
M  V30 3784 O 369.052 -1.83535 1.36114 0
M  V30 3785 C 369.262 1.16822 3.28867 0
M  V30 3786 C 370.61 1.26014 4.0547 0
M  V30 3787 O 371.634 1.12158 3.38082 0
M  V30 3788 O 370.493 1.48044 5.26066 0
M  V30 3789 H 367.587 0.189602 0.804972 0
M  V30 3790 H 370.133 1.07407 1.31384 0
M  V30 3791 H 368.905 2.21049 3.22883 0
M  V30 3792 H 368.528 0.642564 3.92373 0
M  V30 3793 N 369.525 -1.3858 0.750561 0
M  V30 3794 C 370.774 -1.99424 0.302172 0
M  V30 3795 C 371.087 -1.60254 -1.12152 0
M  V30 3796 O 372.293 -2.14046 -1.67023 0
M  V30 3797 C 370.749 -3.56558 0.489307 0
M  V30 3798 C 370.357 -4.04682 1.92189 0
M  V30 3799 C 372.101 -4.24374 0.103478 0
M  V30 3800 C 370.008 -5.54446 2.05775 0
M  V30 3801 H 368.938 -0.746046 0.10923 0
M  V30 3802 H 371.589 -1.58383 0.92667 0
M  V30 3803 H 369.971 -3.95472 -0.204329 0
M  V30 3804 H 371.145 -3.77065 2.64875 0
M  V30 3805 H 369.46 -3.4958 2.26236 0
M  V30 3806 H 372.057 -5.34384 0.183787 0
M  V30 3807 H 372.4 -4.05468 -0.943481 0
M  V30 3808 H 372.933 -3.90688 0.748854 0
M  V30 3809 H 369.672 -5.78252 3.08714 0
M  V30 3810 H 369.192 -5.83816 1.37546 0
M  V30 3811 H 370.871 -6.20099 1.84626 0
M  V30 3812 N 371.003 -0.499398 -1.49478 0
M  V30 3813 C 371.935 0.316575 -2.27003 0
M  V30 3814 C 372.948 0.932047 -1.33479 0
M  V30 3815 O 374.137 0.815658 -1.58774 0
M  V30 3816 C 371.237 1.46055 -3.05812 0
M  V30 3817 C 370.41 0.952679 -4.26899 0
M  V30 3818 C 369.469 1.97407 -4.87767 0
M  V30 3819 O 368.495 1.54326 -5.4788 0
M  V30 3820 N 369.697 3.30436 -4.77276 0
M  V30 3821 H 372.462 -0.348168 -2.97671 0
M  V30 3822 H 370.023 -0.33185 -1.58463 0
M  V30 3823 H 372.015 2.14135 -3.43407 0
M  V30 3824 H 370.585 2.02948 -2.37762 0
M  V30 3825 H 369.805 0.0968248 -3.94081 0
M  V30 3826 H 371.093 0.59174 -5.05347 0
M  V30 3827 H 370.491 3.68126 -4.29534 0
M  V30 3828 H 369.048 3.94235 -5.19059 0
M  V30 3829 N 372.481 1.55866 -0.233164 0
M  V30 3830 C 373.414 2.16794 0.712442 0
M  V30 3831 C 374.392 1.1158 1.18273 0
M  V30 3832 O 375.576 1.39897 1.26337 0
M  V30 3833 C 372.703 2.75757 1.96661 0
M  V30 3834 C 371.749 3.93902 1.63533 0
M  V30 3835 S 372.582 5.30223 0.74995 0
M  V30 3836 C 373.738 5.92631 2.01343 0
M  V30 3837 H 373.971 2.96662 0.194617 0
M  V30 3838 H 371.504 1.5439 -0.0177425 0
M  V30 3839 H 373.462 3.10367 2.68668 0
M  V30 3840 H 372.123 1.9586 2.45556 0
M  V30 3841 H 371.316 4.33702 2.56747 0
M  V30 3842 H 370.918 3.60499 0.995804 0
M  V30 3843 H 373.21 6.09312 2.96219 0
M  V30 3844 H 374.153 6.88388 1.65915 0
M  V30 3845 H 374.561 5.21571 2.15925 0
M  V30 3846 N 373.959 -0.0401083 1.57549 0
M  V30 3847 C 375.375 -0.395556 1.54621 0
M  V30 3848 C 375.575 -1.77281 0.957799 0
M  V30 3849 O 374.631 -2.45888 0.574031 0
M  V30 3850 C 375.944 -0.307535 2.99123 0
M  V30 3851 C 377.492 -0.385425 3.10618 0
M  V30 3852 C 377.967 -0.326973 4.56831 0
M  V30 3853 N 379.458 -0.386102 4.61588 0
M  V30 3854 C 380.193 -0.363591 5.72246 0
M  V30 3855 N 379.689 -0.29402 6.92176 0
M  V30 3856 N 381.482 -0.412503 5.60584 0
M  V30 3857 H 373.633 0.861325 1.94152 0
M  V30 3858 H 375.896 0.326445 0.890021 0
M  V30 3859 H 375.602 0.638461 3.45856 0
M  V30 3860 H 375.476 -1.10552 3.60636 0
M  V30 3861 H 377.863 -1.32185 2.63839 0
M  V30 3862 H 377.944 0.44171 2.51957 0
M  V30 3863 H 377.588 0.605738 5.04275 0
M  V30 3864 H 377.518 -1.17207 5.13391 0
M  V30 3865 H 380.009 -0.442832 3.75296 0
M  V30 3866 H 380.322 -0.28164 7.72287 0
M  V30 3867 H 378.667 -0.260232 6.94513 0
M  V30 3868 H 381.858 -0.464769 4.65787 0
M  V30 3869 H 382.031 -0.391492 6.46816 0
M  V30 3870 N 375.437 -1.54477 -0.31217 0
M  V30 3871 C 376.848 -1.64344 -0.885891 0
M  V30 3872 C 377.199 -0.54485 -1.88483 0
M  V30 3873 O 376.324 0.320387 -2.14015 0
M  V30 3874 C 376.919 -2.97908 -1.61357 0
M  V30 3875 C 375.478 -3.09933 -2.13585 0
M  V30 3876 C 374.625 -2.59971 -0.964897 0
M  V30 3877 H 377.576 -1.58448 -0.0894528 0
M  V30 3878 H 377.597 -2.88706 -2.47848 0
M  V30 3879 H 377.109 -3.77845 -0.886277 0
M  V30 3880 H 375.21 -2.34694 -2.89395 0
M  V30 3881 H 375.323 -4.15916 -2.37804 0
M  V30 3882 H 373.687 -2.16147 -1.34731 0
M  V30 3883 H 374.47 -3.42376 -0.251742 0
M  V30 3884 N 376.915 0.57481 -1.46744 0
M  V30 3885 C 378.143 1.35856 -1.56047 0
M  V30 3886 C 378.558 1.87691 -0.204365 0
M  V30 3887 O 377.915 1.64049 0.79963 0
M  V30 3888 C 377.966 2.54066 -2.57163 0
M  V30 3889 O 377.687 2.04377 -3.87507 0
M  V30 3890 C 379.188 3.46514 -2.76483 0
M  V30 3891 H 376.408 0.414754 -0.527466 0
M  V30 3892 H 378.952 0.698035 -1.92218 0
M  V30 3893 H 377.107 3.16092 -2.23974 0
M  V30 3894 H 377.521 2.81419 -4.4261 0
M  V30 3895 H 378.995 4.25919 -3.51137 0
M  V30 3896 H 379.472 3.98951 -1.83671 0
M  V30 3897 H 380.078 2.90318 -3.10799 0
M  V30 3898 N 378.394 1.34581 0.820102 0
M  V30 3899 C 379.304 1.28471 1.96297 0
M  V30 3900 C 380.32 0.191902 1.72939 0
M  V30 3901 O 381.496 0.418879 1.96996 0
M  V30 3902 C 378.561 1.04281 3.30645 0
M  V30 3903 C 377.622 2.22745 3.66992 0
M  V30 3904 C 376.855 1.997 4.9493 0
M  V30 3905 O 377.078 0.956656 5.6232 0
M  V30 3906 O 376.012 2.86723 5.2922 0
M  V30 3907 H 379.838 2.24624 2.04396 0
M  V30 3908 H 377.423 1.14816 0.955913 0
M  V30 3909 H 379.305 0.925841 4.11104 0
M  V30 3910 H 377.98 0.111697 3.23507 0
M  V30 3911 H 376.887 2.40003 2.86966 0
M  V30 3912 H 378.22 3.14257 3.78819 0
M  V30 3913 N 379.872 -1.04064 1.18357 0
M  V30 3914 C 380.804 -2.12114 0.868358 0
M  V30 3915 C 381.817 -1.62247 -0.134045 0
M  V30 3916 O 383.006 -1.78253 0.0937933 0
M  V30 3917 C 380.106 -3.37773 0.276132 0
M  V30 3918 C 379.279 -4.16874 1.3242 0
M  V30 3919 C 378.338 -5.20861 0.747662 0
M  V30 3920 O 377.364 -5.51141 1.42239 0
M  V30 3921 N 378.566 -5.78715 -0.454823 0
M  V30 3922 H 381.331 -2.39748 1.79836 0
M  V30 3923 H 378.892 -1.20258 1.08396 0
M  V30 3924 H 380.884 -4.04513 -0.123133 0
M  V30 3925 H 379.454 -3.07581 -0.557895 0
M  V30 3926 H 378.674 -3.45456 1.89878 0
M  V30 3927 H 379.962 -4.66516 2.03078 0
M  V30 3928 H 379.36 -5.56415 -1.02073 0
M  V30 3929 H 377.917 -6.46921 -0.79601 0
M  V30 3930 N 381.35 -0.985608 -1.22978 0
M  V30 3931 C 382.596 -0.65836 -1.91816 0
M  V30 3932 C 382.929 0.806692 -1.76653 0
M  V30 3933 O 382.204 1.58252 -1.13078 0
M  V30 3934 C 382.487 -1.056 -3.44268 0
M  V30 3935 C 382.34 -2.57906 -3.68516 0
M  V30 3936 C 383.659 -0.603781 -4.35939 0
M  V30 3937 H 380.778 -0.24065 -0.696604 0
M  V30 3938 H 383.42 -1.22783 -1.44998 0
M  V30 3939 H 381.57 -0.571445 -3.84274 0
M  V30 3940 H 383.242 -3.13976 -3.3796 0
M  V30 3941 H 381.485 -3.00305 -3.13048 0
M  V30 3942 H 382.156 -2.80779 -4.75255 0
M  V30 3943 H 384.632 -1.01987 -4.03408 0
M  V30 3944 H 383.508 -0.910383 -5.41298 0
M  V30 3945 H 383.769 0.495761 -4.39312 0
M  V30 3946 N 382.828 1.3818 -0.7579 0
M  V30 3947 C 384.056 2.04301 -0.326937 0
M  V30 3948 C 384.471 1.57163 1.0462 0
M  V30 3949 O 383.828 0.746626 1.66529 0
M  V30 3950 C 383.879 3.59846 -0.345363 0
M  V30 3951 O 383.6 4.05256 -1.66432 0
M  V30 3952 C 385.101 4.4319 0.098927 0
M  V30 3953 H 382.321 0.656443 -0.139012 0
M  V30 3954 H 384.865 1.76786 -1.02796 0
M  V30 3955 H 383.02 3.86182 0.306955 0
M  V30 3956 H 383.434 4.99709 -1.59345 0
M  V30 3957 H 384.908 5.51989 0.0348745 0
M  V30 3958 H 385.385 4.23947 1.14741 0
M  V30 3959 H 385.991 4.22051 -0.52468 0
M  V30 3960 O 384.345 0.648902 1.4789 0
M  V30 3961 H 385.036 0.173089 1.92925 0
M  V30 END ATOM
M  V30 BEGIN BOND
M  V30 END BOND
M  V30 END CTAB
M  END
$$$$
