drugbank_target|P21802 Fibroblast growth factor receptor 2 (DB00039; DB01041; DB01109; DB01901; DB02058; DB02491; DB08896; DB08901; DB09078; DB09079; DB10770; DB10772; DB12010; DB12147; DB15102; DB15685; DB15822)
 OpenBabel12092119393D

  0  0  0     0  0            999 V3000
M  V30 BEGIN CTAB
M  V30 COUNTS 12835 12987 0 0 0
M  V30 BEGIN ATOM
M  V30 1 H -0.908 1.98254 -0.117106 0
M  V30 2 N 0 1.576 0 0
M  V30 3 C 0.933 2.03868 1.02534 0
M  V30 4 C 1.911 0.928543 1.3348 0
M  V30 5 O 3.095 1.19667 1.45644 0
M  V30 6 C 0.222 2.43627 2.35294 0
M  V30 7 C -0.732 3.65373 2.2001 0
M  V30 8 S 0.101 5.13292 1.52614 0
M  V30 9 C 1.257 5.56322 2.86805 0
M  V30 10 H 1.49 2.90518 0.631377 0
M  V30 11 H -0.977 1.52953 0.210867 0
M  V30 12 H 0.981 2.67203 3.11629 0
M  V30 13 H -0.358 1.57376 2.7183 0
M  V30 14 H -1.165 3.90944 3.18086 0
M  V30 15 H -1.563 3.418 1.51819 0
M  V30 16 H 0.729 5.58782 3.83104 0
M  V30 17 H 1.672 6.56266 2.65933 0
M  V30 18 H 2.08 4.83886 2.90714 0
M  V30 19 N 1.4781 -0.272755 1.55222 0
M  V30 20 C 2.7241 -1.00581 1.761 0
M  V30 21 C 3.0571 -1.85932 0.560625 0
M  V30 22 O 2.3321 -1.89416 -0.441801 0
M  V30 23 C 2.6151 -1.88816 3.06628 0
M  V30 24 C 2.4681 -1.06457 4.37021 0
M  V30 25 C 3.7871 -2.8752 3.33197 0
M  V30 26 H 0.9061 -0.364244 0.640699 0
M  V30 27 H 3.5481 -0.278189 1.87952 0
M  V30 28 H 1.6981 -2.50856 2.96654 0
M  V30 29 H 3.3701 -0.464863 4.58952 0
M  V30 30 H 1.6131 -0.368043 4.32236 0
M  V30 31 H 2.2841 -1.71514 5.24678 0
M  V30 32 H 4.7601 -2.35615 3.42965 0
M  V30 33 H 3.6361 -3.46399 4.25792 0
M  V30 34 H 3.8971 -3.62657 2.52849 0
M  V30 35 N 2.9562 -1.48159 -0.537278 0
M  V30 36 C 4.1812 -1.59707 -1.32319 0
M  V30 37 C 4.6062 -0.254859 -1.86365 0
M  V30 38 O 3.9642 0.772378 -1.64024 0
M  V30 39 C 4.0122 -2.6412 -2.45505 0
M  V30 40 O 3.1162 -2.20774 -3.48328 0
M  V30 41 H 2.4572 -0.535791 -0.392204 0
M  V30 42 H 4.9872 -1.94092 -0.647268 0
M  V30 43 H 4.9972 -2.85166 -2.91795 0
M  V30 44 H 3.6722 -3.61567 -2.05528 0
M  V30 45 H 2.2492 -2.09911 -3.08207 0
M  V30 46 N 4.4343 0.785586 -1.36625 0
M  V30 47 C 5.6803 1.5452 -1.32269 0
M  V30 48 C 6.0353 1.92159 0.0962266 0
M  V30 49 O 5.3283 1.60158 1.05167 0
M  V30 50 C 5.5223 2.83007 -2.1827 0
M  V30 51 C 5.3513 2.57925 -3.68382 0
M  V30 52 C 4.1213 2.52752 -4.37544 0
M  V30 53 C 6.3193 2.26861 -4.61561 0
M  V30 54 N 4.3013 2.19608 -5.73276 0
M  V30 55 C 5.6723 2.03738 -5.85569 0
M  V30 56 C 7.7273 2.129 -4.50087 0
M  V30 57 C 6.4303 1.68065 -6.9939 0
M  V30 58 C 8.4563 1.78626 -5.63779 0
M  V30 59 C 7.8183 1.56353 -6.86828 0
M  V30 60 H 3.9173 0.566301 -0.539283 0
M  V30 61 H 6.5013 0.917736 -1.71714 0
M  V30 62 H 4.6723 3.43614 -1.81063 0
M  V30 63 H 6.4043 3.48775 -2.05275 0
M  V30 64 H 3.1593 2.6813 -3.90389 0
M  V30 65 H 3.5833 2.05771 -6.44971 0
M  V30 66 H 8.2253 2.28808 -3.55537 0
M  V30 67 H 5.9433 1.50895 -7.93887 0
M  V30 68 H 9.5293 1.68502 -5.56865 0
M  V30 69 H 8.4093 1.30223 -7.73312 0
M  V30 70 N 5.9124 1.20967 1.01018 0
M  V30 71 C 7.1604 1.02172 1.74371 0
M  V30 72 C 7.4814 -0.446414 1.89821 0
M  V30 73 O 6.7514 -1.32234 1.44537 0
M  V30 74 H 5.3314 0.375066 0.646014 0
M  V30 75 H 7.9934 1.52187 1.21758 0
M  V30 76 H 7.0894 1.48538 2.74487 0
M  V30 77 N 7.3905 -1.2043 1.01659 0
M  V30 78 C 8.8065 -1.41852 0.731442 0
M  V30 79 C 9.0065 -1.89358 -0.688898 0
M  V30 80 O 8.0625 -2.06247 -1.45666 0
M  V30 81 C 9.3755 -2.44019 1.75714 0
M  V30 82 C 10.9235 -2.57785 1.77527 0
M  V30 83 C 11.3985 -3.63194 2.79023 0
M  V30 84 N 12.8895 -3.70678 2.77763 0
M  V30 85 C 13.6245 -4.51897 3.52954 0
M  V30 86 N 13.1205 -5.36921 4.37821 0
M  V30 87 N 14.9135 -4.4643 3.41551 0
M  V30 88 H 7.0645 -0.879093 1.93354 0
M  V30 89 H 9.3275 -0.448425 0.835236 0
M  V30 90 H 9.0335 -2.1611 2.77469 0
M  V30 91 H 8.9075 -3.43007 1.56927 0
M  V30 92 H 11.2945 -2.85023 0.764569 0
M  V30 93 H 11.3755 -1.58992 2.00387 0
M  V30 94 H 11.0195 -3.36699 3.80258 0
M  V30 95 H 10.9495 -4.61609 2.53425 0
M  V30 96 H 13.4405 -3.09944 2.16201 0
M  V30 97 H 13.7535 -5.95981 4.91962 0
M  V30 98 H 12.0985 -5.36424 4.41899 0
M  V30 99 H 15.2895 -3.79042 2.74672 0
M  V30 100 H 15.4625 -5.09491 4.00404 0
M  V30 101 N 8.8686 -0.792821 -1.36206 0
M  V30 102 C 10.1156 -0.366786 -1.99151 0
M  V30 103 C 10.4436 1.06243 -1.62919 0
M  V30 104 O 9.6986 1.74927 -0.877442 0
M  V30 105 C 9.9976 -0.481501 -3.54142 0
M  V30 106 C 9.6636 -1.87202 -4.10203 0
M  V30 107 C 8.3256 -2.25248 -4.25226 0
M  V30 108 C 10.6776 -2.78237 -4.40719 0
M  V30 109 C 8.0056 -3.53723 -4.68078 0
M  V30 110 C 10.3576 -4.06144 -4.85005 0
M  V30 111 C 9.0216 -4.44207 -4.98234 0
M  V30 112 H 8.2916 -0.134217 -0.728743 0
M  V30 113 H 10.9386 -1.01094 -1.62641 0
M  V30 114 H 9.2436 0.246146 -3.91026 0
M  V30 115 H 10.9406 -0.132844 -4.0078 0
M  V30 116 H 7.5306 -1.56639 -3.98951 0
M  V30 117 H 11.7146 -2.50097 -4.28679 0
M  V30 118 H 6.9706 -3.8308 -4.76508 0
M  V30 119 H 11.1446 -4.76796 -5.07581 0
M  V30 120 H 8.7716 -5.43814 -5.31197 0
M  V30 121 N 10.3467 1.47872 -0.545128 0
M  V30 122 C 11.5957 2.01695 -0.0145033 0
M  V30 123 C 11.9087 1.42609 1.33873 0
M  V30 124 O 13.1147 1.88021 1.95858 0
M  V30 125 C 11.5707 3.59892 0.0245068 0
M  V30 126 C 11.1787 4.27966 -1.32475 0
M  V30 127 C 12.9227 4.21507 0.50316 0
M  V30 128 C 10.8297 5.78136 -1.2455 0
M  V30 129 H 9.7597 0.753998 -0.00165172 0
M  V30 130 H 12.4107 1.69985 -0.691175 0
M  V30 131 H 10.7927 3.88509 0.766575 0
M  V30 132 H 11.9667 4.11003 -2.08357 0
M  V30 133 H 10.2817 3.78286 -1.74036 0
M  V30 134 H 12.8787 5.31538 0.580656 0
M  V30 135 H 13.2217 3.87855 1.51243 0
M  V30 136 H 13.7547 3.97376 -0.183681 0
M  V30 137 H 10.4937 6.16388 -2.23039 0
M  V30 138 H 10.0137 5.97469 -0.528282 0
M  V30 139 H 11.6927 6.40099 -0.942488 0
M  V30 140 N 11.8248 0.280983 1.55075 0
M  V30 141 C 13.0648 -0.335234 2.01632 0
M  V30 142 C 13.4288 -1.5261 1.16508 0
M  V30 143 O 14.6298 -2.21235 1.52672 0
M  V30 144 C 12.9008 -0.702172 3.50434 0
M  V30 145 S 14.4598 -1.30409 4.18974 0
M  V30 146 H 11.2778 -0.103967 0.703358 0
M  V30 147 H 13.8798 0.404187 1.91276 0
M  V30 148 H 12.5838 0.17333 4.10034 0
M  V30 149 H 12.1148 -1.4729 3.64786 0
M  V30 150 H 14.1298 -2.59253 4.23087 0
M  V30 151 N 13.3029 -1.57598 0.00835791 0
M  V30 152 C 14.2329 -2.1198 -0.979113 0
M  V30 153 C 15.2139 -1.03091 -1.35301 0
M  V30 154 O 16.3989 -1.30818 -1.43528 0
M  V30 155 C 13.5289 -2.62995 -2.26828 0
M  V30 156 C 12.4829 -3.76485 -2.03576 0
M  V30 157 C 11.8089 -4.13846 -3.38579 0
M  V30 158 C 13.1089 -5.0342 -1.39161 0
M  V30 159 H 14.8029 -2.94738 -0.526281 0
M  V30 160 H 12.3489 -1.41783 -0.251704 0
M  V30 161 H 14.3019 -2.99669 -2.96271 0
M  V30 162 H 13.0259 -1.7737 -2.7424 0
M  V30 163 H 11.6849 -3.40217 -1.36557 0
M  V30 164 H 11.3329 -3.25232 -3.83709 0
M  V30 165 H 11.0329 -4.90312 -3.23834 0
M  V30 166 H 12.5569 -4.53086 -4.09323 0
M  V30 167 H 13.9709 -5.37812 -1.98573 0
M  V30 168 H 12.3679 -5.84746 -1.34878 0
M  V30 169 H 13.4379 -4.83548 -0.361868 0
M  V30 170 N 14.781 0.264519 -1.55364 0
M  V30 171 C 16.027 0.99646 -1.76631 0
M  V30 172 C 16.36 1.85632 -0.570478 0
M  V30 173 O 15.635 1.89647 0.43175 0
M  V30 174 C 15.918 1.87187 -3.07625 0
M  V30 175 C 15.771 1.04138 -4.37579 0
M  V30 176 C 17.09 2.85749 -3.34717 0
M  V30 177 H 14.209 0.360841 -0.642622 0
M  V30 178 H 16.851 0.268218 -1.88097 0
M  V30 179 H 15.001 2.49279 -2.9798 0
M  V30 180 H 16.673 0.440517 -4.59192 0
M  V30 181 H 14.916 0.345115 -4.32425 0
M  V30 182 H 15.587 1.68729 -5.2558 0
M  V30 183 H 18.063 2.33793 -3.4421 0
M  V30 184 H 16.939 3.44136 -4.27623 0
M  V30 185 H 17.2 3.61311 -2.54768 0
M  V30 186 N 16.2591 1.48442 0.529413 0
M  V30 187 C 17.5051 1.5672 1.28711 0
M  V30 188 C 17.8381 0.2406 1.92704 0
M  V30 189 O 17.1131 -0.753454 1.79313 0
M  V30 190 C 17.3961 2.70587 2.37603 0
M  V30 191 C 17.2491 4.12953 1.78297 0
M  V30 192 C 18.5681 2.80212 3.39366 0
M  V30 193 H 15.6871 0.570474 0.466613 0
M  V30 194 H 18.3291 1.80617 0.589706 0
M  V30 195 H 16.4791 2.50342 2.97088 0
M  V30 196 H 18.1511 4.44639 1.22858 0
M  V30 197 H 16.3941 4.19927 1.0883 0
M  V30 198 H 17.0651 4.88448 2.57144 0
M  V30 199 H 19.5411 2.98553 2.89836 0
M  V30 200 H 18.4171 3.61611 4.12951 0
M  V30 201 H 18.6781 1.88393 3.99951 0
M  V30 202 N 17.7372 -0.778329 1.37039 0
M  V30 203 C 18.9832 -1.53892 1.32079 0
M  V30 204 C 19.3162 -1.9396 -0.0965386 0
M  V30 205 O 18.5912 -1.63568 -1.05242 0
M  V30 206 C 18.8742 -2.80847 2.25382 0
M  V30 207 C 18.7272 -2.47076 3.75864 0
M  V30 208 C 20.0462 -3.82741 2.1725 0
M  V30 209 H 17.1652 -0.558303 0.48111 0
M  V30 210 H 19.8072 -0.893397 1.67685 0
M  V30 211 H 17.9572 -3.35931 1.95148 0
M  V30 212 H 19.6292 -1.97957 4.16666 0
M  V30 213 H 17.8722 -1.79863 3.94755 0
M  V30 214 H 18.5432 -3.37798 4.36574 0
M  V30 215 H 21.0192 -3.37133 2.43887 0
M  V30 216 H 19.8952 -4.69303 2.84686 0
M  V30 217 H 20.1562 -4.2652 1.16331 0
M  V30 218 N 19.2153 -1.21501 -1.00376 0
M  V30 219 C 20.4433 -1.059 -1.77744 0
M  V30 220 C 20.8583 0.391125 -1.84704 0
M  V30 221 O 20.2153 1.27133 -1.30933 0
M  V30 222 C 20.2663 -1.65111 -3.21591 0
M  V30 223 O 19.9873 -3.0445 -3.15027 0
M  V30 224 C 21.4883 -1.54637 -4.15454 0
M  V30 225 H 18.7083 -0.371825 -0.558558 0
M  V30 226 H 21.2523 -1.60865 -1.26264 0
M  V30 227 H 19.4073 -1.14235 -3.70175 0
M  V30 228 H 19.8213 -3.3278 -4.0541 0
M  V30 229 H 21.2953 -2.00808 -5.14179 0
M  V30 230 H 21.7723 -0.501022 -4.36333 0
M  V30 231 H 22.3783 -2.04767 -3.72761 0
M  V30 232 N 20.6934 1.19889 -1.02296 0
M  V30 233 C 21.6264 2.21639 -0.543282 0
M  V30 234 C 22.6044 1.57275 0.412698 0
M  V30 235 O 23.7884 1.85568 0.331198 0
M  V30 236 C 20.9154 3.38057 0.208571 0
M  V30 237 C 19.9614 4.20751 -0.697933 0
M  V30 238 S 20.7944 4.89529 -2.17075 0
M  V30 239 C 21.9504 6.09363 -1.42923 0
M  V30 240 H 22.1834 2.61984 -1.40541 0
M  V30 241 H 19.7164 1.30041 -0.832387 0
M  V30 242 H 21.6744 4.05539 0.63624 0
M  V30 243 H 20.3354 2.96159 1.04635 0
M  V30 244 H 19.5284 5.03862 -0.117831 0
M  V30 245 H 19.1304 3.58556 -1.06366 0
M  V30 246 H 21.4224 6.73742 -0.712637 0
M  V30 247 H 22.3654 6.71845 -2.23673 0
M  V30 248 H 22.7734 5.56798 -0.929327 0
M  V30 249 N 22.1715 0.800033 1.35784 0
M  V30 250 C 23.1345 0.211565 2.28221 0
M  V30 251 C 24.1345 -0.59728 1.49296 0
M  V30 252 O 25.3245 -0.416721 1.69142 0
M  V30 253 C 22.4565 -0.705846 3.33513 0
M  V30 254 H 23.6495 1.02677 2.81776 0
M  V30 255 H 21.2025 0.570211 1.45528 0
M  V30 256 H 21.9375 -1.54498 2.85133 0
M  V30 257 H 21.7225 -0.127655 3.91892 0
M  V30 258 H 23.2125 -1.11211 4.02519 0
M  V30 259 N 23.6496 -1.47581 0.552962 0
M  V30 260 C 24.8776 -2.06875 0.0320556 0
M  V30 261 C 25.2926 -1.40625 -1.25976 0
M  V30 262 O 24.6496 -0.501349 -1.75479 0
M  V30 263 C 24.7006 -3.61092 -0.17167 0
M  V30 264 O 24.4216 -4.24858 1.06899 0
M  V30 265 C 25.9226 -4.37242 -0.730344 0
M  V30 266 H 23.1426 -0.669561 0.043915 0
M  V30 267 H 25.6866 -1.89646 0.765163 0
M  V30 268 H 23.8416 -3.7785 -0.854894 0
M  V30 269 H 24.2556 -5.17334 0.864059 0
M  V30 270 H 25.7296 -5.45842 -0.822203 0
M  V30 271 H 26.2066 -4.03235 -1.74064 0
M  V30 272 H 26.8126 -4.25219 -0.0829543 0
M  V30 273 N 25.1277 -0.289203 -1.54924 0
M  V30 274 C 26.0577 0.58549 -2.2604 0
M  V30 275 C 27.0387 1.14753 -1.25562 0
M  V30 276 O 28.2237 1.17906 -1.54311 0
M  V30 277 C 25.3537 1.76305 -2.99222 0
M  V30 278 C 24.3077 1.33191 -4.06748 0
M  V30 279 C 23.6337 2.5937 -4.6758 0
M  V30 280 C 24.9337 0.471775 -5.20165 0
M  V30 281 H 26.6277 -0.00763532 -2.99399 0
M  V30 282 H 24.1737 -0.00511229 -1.43999 0
M  V30 283 H 26.1267 2.38097 -3.47689 0
M  V30 284 H 24.8507 2.38223 -2.23422 0
M  V30 285 H 23.5097 0.737121 -3.59113 0
M  V30 286 H 23.1577 3.19576 -3.88433 0
M  V30 287 H 22.8577 2.31228 -5.40192 0
M  V30 288 H 24.3817 3.21985 -5.18804 0
M  V30 289 H 25.7957 0.995056 -5.64599 0
M  V30 290 H 24.1927 0.284639 -5.99425 0
M  V30 291 H 25.2627 -0.506041 -4.82252 0
M  V30 292 N 26.6058 1.57591 -0.0167156 0
M  V30 293 C 27.8308 1.9598 0.67872 0
M  V30 294 C 28.2558 0.892546 1.65575 0
M  V30 295 O 27.6138 -0.147772 1.80697 0
M  V30 296 C 27.6618 3.33468 1.37227 0
M  V30 297 O 26.7658 3.28954 2.48722 0
M  V30 298 H 26.1068 0.639339 0.17928 0
M  V30 299 H 28.6368 2.04463 -0.0748802 0
M  V30 300 H 28.6468 3.69417 1.7319 0
M  V30 301 H 27.3218 4.10694 0.656007 0
M  V30 302 H 25.8988 3.04705 2.14963 0
M  V30 303 N 28.0839 -0.256276 1.55502 0
M  V30 304 C 29.0139 -1.32102 1.92539 0
M  V30 305 C 29.9949 -1.50684 0.789194 0
M  V30 306 O 31.1799 -1.63449 1.04872 0
M  V30 307 C 28.3099 -2.67752 2.21192 0
M  V30 308 C 27.2639 -2.63878 3.36975 0
M  V30 309 C 26.5899 -4.03236 3.51147 0
M  V30 310 C 27.8899 -2.21682 4.72921 0
M  V30 311 H 29.5839 -1.01351 2.81724 0
M  V30 312 H 27.1299 -0.486105 1.35547 0
M  V30 313 H 29.0829 -3.42365 2.45691 0
M  V30 314 H 27.8069 -3.0012 1.28824 0
M  V30 315 H 26.4659 -1.91722 3.12471 0
M  V30 316 H 26.1139 -4.32854 2.56216 0
M  V30 317 H 25.8139 -4.01535 4.29003 0
M  V30 318 H 27.3379 -4.79563 3.77957 0
M  V30 319 H 28.7519 -2.86023 4.96854 0
M  V30 320 H 27.1489 -2.3111 5.53812 0
M  V30 321 H 28.2189 -1.16833 4.70615 0
M  V30 322 N 29.562 -1.4872 -0.521534 0
M  V30 323 C 30.525 -1.63379 -1.60748 0
M  V30 324 C 31.525 -0.50661 -1.52611 0
M  V30 325 O 32.715 -0.772601 -1.5613 0
M  V30 326 C 29.847 -1.61192 -3.00383 0
M  V30 327 H 31.04 -2.60217 -1.49087 0
M  V30 328 H 28.593 -1.37444 -0.744235 0
M  V30 329 H 29.328 -0.65863 -3.17541 0
M  V30 330 H 29.113 -2.43032 -3.07698 0
M  V30 331 H 30.603 -1.7466 -3.7932 0
M  V30 332 N 31.0401 0.771051 -1.3745 0
M  V30 333 C 32.4561 1.07171 -1.18265 0
M  V30 334 C 32.6561 2.01491 -0.019287 0
M  V30 335 O 31.7121 2.44244 0.640408 0
M  V30 336 C 33.0251 1.66854 -2.50161 0
M  V30 337 C 34.5731 1.79109 -2.56689 0
M  V30 338 C 35.0481 2.42205 -3.88717 0
M  V30 339 N 36.5391 2.49655 -3.90162 0
M  V30 340 C 37.2741 2.9933 -4.8907 0
M  V30 341 N 36.7701 3.49172 -5.98374 0
M  V30 342 N 38.5631 2.9821 -4.76474 0
M  V30 343 H 30.7141 0.144796 -2.11906 0
M  V30 344 H 32.9771 0.126863 -0.939473 0
M  V30 345 H 32.6831 1.05017 -3.35655 0
M  V30 346 H 32.5571 2.6614 -2.673 0
M  V30 347 H 34.9441 2.40077 -1.71601 0
M  V30 348 H 35.0251 0.785757 -2.43433 0
M  V30 349 H 34.6691 1.81875 -4.74219 0
M  V30 350 H 34.5991 3.43345 -3.99276 0
M  V30 351 H 37.0901 2.14383 -3.11205 0
M  V30 352 H 37.4031 3.8548 -6.69795 0
M  V30 353 H 35.7481 3.47275 -6.02018 0
M  V30 354 H 38.9391 2.58572 -3.90203 0
M  V30 355 H 39.1121 3.36613 -5.53711 0
M  V30 356 N 32.5182 1.22032 0.997298 0
M  V30 357 C 33.9292 1.0397 1.55071 0
M  V30 358 C 34.2802 -0.398192 1.92117 0
M  V30 359 O 33.4052 -1.28254 1.74298 0
M  V30 360 C 34.0002 1.88109 2.81781 0
M  V30 361 C 32.5592 1.74357 3.33581 0
M  V30 362 C 31.7062 1.84846 2.06706 0
M  V30 363 H 34.6572 1.35941 0.818883 0
M  V30 364 H 34.6782 1.39589 3.53971 0
M  V30 365 H 34.1902 2.92754 2.54787 0
M  V30 366 H 32.2912 0.72427 3.65493 0
M  V30 367 H 32.4042 2.56772 4.04481 0
M  V30 368 H 30.7682 1.28238 2.20062 0
M  V30 369 H 31.5512 2.91014 1.82114 0
M  V30 370 N 33.9963 -1.19345 1.0293 0
M  V30 371 C 35.2213 -1.93538 0.745511 0
M  V30 372 C 35.6463 -1.75007 -0.689511 0
M  V30 373 O 35.0043 -1.05265 -1.47611 0
M  V30 374 C 35.0523 -3.43336 1.10239 0
M  V30 375 O 34.1563 -4.11806 0.221289 0
M  V30 376 H 33.4973 -0.604193 0.275404 0
M  V30 377 H 36.0273 -1.5141 1.37609 0
M  V30 378 H 36.0373 -3.94004 1.05947 0
M  V30 379 H 34.7123 -3.56146 2.14786 0
M  V30 380 H 33.2893 -3.715 0.322842 0
M  V30 381 N 35.4744 -0.807222 -1.35358 0
M  V30 382 C 36.7214 -0.387888 -1.9875 0
M  V30 383 C 37.0494 1.04509 -1.64037 0
M  V30 384 O 36.3044 1.73986 -0.895946 0
M  V30 385 C 36.6034 -0.519036 -3.53611 0
M  V30 386 C 36.2694 -1.91542 -4.08194 0
M  V30 387 C 34.9314 -2.29745 -4.22813 0
M  V30 388 C 37.2834 -2.82896 -4.37744 0
M  V30 389 C 34.6114 -3.58668 -4.643 0
M  V30 390 C 36.9634 -4.11265 -4.8067 0
M  V30 391 C 35.6274 -4.49466 -4.93494 0
M  V30 392 H 34.8974 -0.141938 -0.727279 0
M  V30 393 H 37.5444 -1.02814 -1.6156 0
M  V30 394 H 35.8494 0.204658 -3.91265 0
M  V30 395 H 37.5464 -0.175345 -4.00616 0
M  V30 396 H 34.1364 -1.60862 -3.97268 0
M  V30 397 H 38.3204 -2.54629 -4.26002 0
M  V30 398 H 33.5764 -3.88113 -4.72418 0
M  V30 399 H 37.7504 -4.82153 -5.02496 0
M  V30 400 H 35.3774 -5.49418 -5.25399 0
M  V30 401 N 36.9525 1.47285 -0.560781 0
M  V30 402 C 38.1775 2.07359 -0.0410566 0
M  V30 403 C 38.6025 1.41017 1.24483 0
M  V30 404 O 37.9605 0.486368 1.74654 0
M  V30 405 C 38.0085 3.6035 0.134123 0
M  V30 406 O 37.1125 3.94681 1.19587 0
M  V30 407 H 36.4535 0.661887 -0.0529291 0
M  V30 408 H 38.9835 1.89252 -0.777482 0
M  V30 409 H 38.9935 4.0652 0.347207 0
M  V30 410 H 37.6685 4.08034 -0.805047 0
M  V30 411 H 36.2455 3.60251 0.962987 0
M  V30 412 N 38.4306 0.297415 1.54768 0
M  V30 413 C 39.3606 -0.573494 2.26348 0
M  V30 414 C 40.3416 -1.14085 1.26169 0
M  V30 415 O 41.5266 -1.17086 1.54934 0
M  V30 416 C 38.6566 -1.74716 3.00153 0
M  V30 417 C 37.6106 -1.31032 4.07449 0
M  V30 418 C 36.9366 -2.56887 4.68949 0
M  V30 419 C 38.2366 -0.444183 5.20408 0
M  V30 420 H 39.9306 0.0235131 2.99391 0
M  V30 421 H 37.4766 0.0127488 1.43994 0
M  V30 422 H 39.4296 -2.3625 3.48947 0
M  V30 423 H 38.1536 -2.37035 2.24682 0
M  V30 424 H 36.8126 -0.718066 3.59499 0
M  V30 425 H 36.4606 -3.17512 3.90122 0
M  V30 426 H 36.1606 -2.2836 5.41411 0
M  V30 427 H 37.6846 -3.19229 5.20505 0
M  V30 428 H 39.0986 -0.9651 5.65118 0
M  V30 429 H 37.4956 -0.252846 5.99567 0
M  V30 430 H 38.5656 0.531609 4.81977 0
M  V30 431 N 39.9087 -1.5758 0.0250728 0
M  V30 432 C 41.1547 -1.91917 -0.655413 0
M  V30 433 C 41.4877 -0.901433 -1.72011 0
M  V30 434 O 40.7627 0.0764069 -1.9435 0
M  V30 435 C 41.0457 -3.36751 -1.27558 0
M  V30 436 C 40.8987 -4.49258 -0.220719 0
M  V30 437 C 42.2177 -3.81469 -2.19475 0
M  V30 438 H 39.3367 -0.697925 -0.23679 0
M  V30 439 H 41.9787 -1.89825 0.0815036 0
M  V30 440 H 40.1287 -3.38664 -1.90365 0
M  V30 441 H 41.8007 -4.59478 0.409601 0
M  V30 442 H 40.0437 -4.31415 0.454264 0
M  V30 443 H 40.7147 -5.47618 -0.694175 0
M  V30 444 H 43.1907 -3.81266 -1.66659 0
M  V30 445 H 42.0667 -4.83512 -2.59822 0
M  V30 446 H 42.3277 -3.16744 -3.08424 0
M  V30 447 N 41.3868 0.248026 -1.55636 0
M  V30 448 C 42.2968 1.32859 -1.93354 0
M  V30 449 C 43.3128 1.52719 -0.833838 0
M  V30 450 O 44.4888 1.66363 -1.13513 0
M  V30 451 C 41.5538 2.66337 -2.21958 0
M  V30 452 C 40.6148 2.55008 -3.45354 0
M  V30 453 C 39.8478 3.82121 -3.72584 0
M  V30 454 O 40.0708 4.83951 -3.01907 0
M  V30 455 O 39.0048 3.80822 -4.6611 0
M  V30 456 H 42.8308 1.03862 -2.85388 0
M  V30 457 H 40.4158 0.448686 -1.42503 0
M  V30 458 H 42.2978 3.45216 -2.4167 0
M  V30 459 H 40.9728 2.95068 -1.33103 0
M  V30 460 H 39.8798 1.7442 -3.30951 0
M  V30 461 H 41.2128 2.31222 -4.34508 0
M  V30 462 N 42.8649 1.48995 0.513639 0
M  V30 463 C 44.1419 1.48338 1.27495 0
M  V30 464 C 44.5219 0.204065 2.10111 0
M  V30 465 O 43.8699 -0.813881 2.13514 0
M  V30 466 C 44.0799 2.75498 2.14247 0
M  V30 467 C 45.4279 3.24484 2.73852 0
M  V30 468 O 46.4519 2.76528 2.24523 0
M  V30 469 O 45.3109 4.07974 3.6362 0
M  V30 470 H 42.4049 0.593149 0.576284 0
M  V30 471 H 44.9509 1.61246 0.528948 0
M  V30 472 H 43.7229 3.60109 1.53092 0
M  V30 473 H 43.3459 2.6539 2.96064 0
M  V30 474 N 44.343 -0.763751 1.37857 0
M  V30 475 C 45.571 -1.55293 1.36718 0
M  V30 476 C 45.986 -1.88745 -0.0455434 0
M  V30 477 O 45.343 -1.52039 -1.00947 0
M  V30 478 C 45.394 -2.85831 2.2132 0
M  V30 479 O 45.115 -2.5381 3.57089 0
M  V30 480 C 46.616 -3.80023 2.28249 0
M  V30 481 H 43.836 -0.480841 0.468009 0
M  V30 482 H 46.38 -0.946009 1.81303 0
M  V30 483 H 44.535 -3.42926 1.80223 0
M  V30 484 H 44.949 -3.37459 4.01524 0
M  V30 485 H 46.423 -4.68599 2.91752 0
M  V30 486 H 46.9 -4.1973 1.2932 0
M  V30 487 H 47.506 -3.28855 2.69693 0
M  V30 488 N 45.8211 -1.22559 -0.990812 0
M  V30 489 C 47.0491 -1.07779 -1.76611 0
M  V30 490 C 47.4641 0.371513 -1.85109 0
M  V30 491 O 46.8211 1.25737 -1.32274 0
M  V30 492 C 46.8721 -1.68512 -3.19822 0
M  V30 493 O 46.5931 -3.07774 -3.1178 0
M  V30 494 C 48.0941 -1.59035 -4.13791 0
M  V30 495 H 45.3141 -0.377729 -0.554583 0
M  V30 496 H 47.8581 -1.62195 -1.24551 0
M  V30 497 H 46.0131 -1.18154 -3.68942 0
M  V30 498 H 46.4271 -3.37062 -4.01858 0
M  V30 499 H 47.9011 -2.0625 -5.1202 0
M  V30 500 H 48.3781 -0.547273 -4.35777 0
M  V30 501 H 48.9841 -2.08709 -3.70568 0
M  V30 502 N 47.2992 1.18797 -1.03562 0
M  V30 503 C 48.2292 2.24472 -0.643019 0
M  V30 504 C 49.2102 1.66433 0.351283 0
M  V30 505 O 50.3952 1.92803 0.232505 0
M  V30 506 C 47.5252 3.473 4.24935e-05 0
M  V30 507 C 46.4792 4.18055 -0.917257 0
M  V30 508 C 45.8052 5.34519 -0.138941 0
M  V30 509 C 47.1052 4.72109 -2.23407 0
M  V30 510 H 48.7992 2.57566 -1.52643 0
M  V30 511 H 46.3452 1.23806 -0.735394 0
M  V30 512 H 48.2982 4.20426 0.286383 0
M  V30 513 H 47.0222 3.13424 0.918299 0
M  V30 514 H 45.6812 3.46821 -1.1879 0
M  V30 515 H 45.3292 4.96891 0.781562 0
M  V30 516 H 45.0292 5.82794 -0.750005 0
M  V30 517 H 46.5532 6.10438 0.1405 0
M  V30 518 H 47.9672 5.36955 -2.00879 0
M  V30 519 H 46.3642 5.30897 -2.79765 0
M  V30 520 H 47.4342 3.89807 -2.88407 0
M  V30 521 N 48.7773 0.814389 1.34928 0
M  V30 522 C 49.6873 0.231978 2.3345 0
M  V30 523 C 50.7033 -0.629139 1.62228 0
M  V30 524 O 51.8793 -0.539052 1.94052 0
M  V30 525 C 48.9443 -0.603482 3.41407 0
M  V30 526 C 48.0053 0.279037 4.28392 0
M  V30 527 C 47.2383 -0.516643 5.31193 0
M  V30 528 O 47.4613 -1.75068 5.4287 0
M  V30 529 O 46.3953 0.0965652 6.01823 0
M  V30 530 H 50.2213 1.04721 2.85074 0
M  V30 531 H 47.8063 0.576343 1.37836 0
M  V30 532 H 49.6883 -1.07908 4.0735 0
M  V30 533 H 48.3633 -1.39618 2.92042 0
M  V30 534 H 47.2703 0.801948 3.65403 0
M  V30 535 H 48.6033 1.03588 4.81176 0
M  V30 536 N 50.2554 -1.46986 0.568584 0
M  V30 537 C 51.6664 -1.86188 0.138219 0
M  V30 538 C 52.0174 -1.47388 -1.29504 0
M  V30 539 O 51.1424 -0.88219 -1.97602 0
M  V30 540 C 51.7374 -3.3792 0.244065 0
M  V30 541 C 50.2964 -3.76171 -0.131335 0
M  V30 542 C 49.4434 -2.71027 0.586465 0
M  V30 543 H 52.3944 -1.38342 0.777645 0
M  V30 544 H 52.4154 -3.76729 -0.534351 0
M  V30 545 H 51.9274 -3.66128 1.28731 0
M  V30 546 H 50.0284 -3.5358 -1.17526 0
M  V30 547 H 50.1414 -4.78523 0.235146 0
M  V30 548 H 48.5054 -2.54684 0.0282722 0
M  V30 549 H 49.2884 -3.02077 1.63109 0
M  V30 550 N 51.7335 -0.305618 -1.54608 0
M  V30 551 C 52.6435 0.57778 -2.27374 0
M  V30 552 C 53.6595 1.14451 -1.31061 0
M  V30 553 O 54.8355 1.16831 -1.6405 0
M  V30 554 C 51.9005 1.73123 -3.00382 0
M  V30 555 C 50.9615 1.19812 -4.12242 0
M  V30 556 C 50.1945 2.2966 -4.81759 0
M  V30 557 O 50.4175 3.49651 -4.50666 0
M  V30 558 O 49.3515 1.96091 -5.69062 0
M  V30 559 H 53.1775 -0.012624 -3.03697 0
M  V30 560 H 50.7625 -0.0719184 -1.49227 0
M  V30 561 H 52.6445 2.40315 -3.4616 0
M  V30 562 H 51.3195 2.30815 -2.26949 0
M  V30 563 H 50.2265 0.491798 -3.70853 0
M  V30 564 H 51.5595 0.666566 -4.87666 0
M  V30 565 N 53.2116 1.57565 -0.0334293 0
M  V30 566 C 54.1216 2.13943 0.962572 0
M  V30 567 C 55.1376 1.09276 1.35406 0
M  V30 568 O 56.3136 1.41355 1.4346 0
M  V30 569 C 53.3786 2.65887 2.22497 0
M  V30 570 C 52.4396 3.85286 1.8935 0
M  V30 571 C 51.6726 4.34743 3.09571 0
M  V30 572 O 51.8956 3.83352 4.22371 0
M  V30 573 O 50.8296 5.26538 2.91618 0
M  V30 574 H 54.6556 2.99333 0.513169 0
M  V30 575 H 52.2406 1.4822 0.18743 0
M  V30 576 H 54.1226 2.99346 2.96598 0
M  V30 577 H 52.7976 1.83578 2.6661 0
M  V30 578 H 51.7046 3.56746 1.1262 0
M  V30 579 H 53.0376 4.68771 1.5005 0
M  V30 580 N 54.6897 -0.239769 1.55765 0
M  V30 581 C 56.1007 -0.808263 1.68297 0
M  V30 582 C 56.4517 -1.85736 0.632181 0
M  V30 583 O 55.5767 -2.15277 -0.220204 0
M  V30 584 C 56.1717 -1.47284 3.05111 0
M  V30 585 C 54.7307 -1.98895 3.19559 0
M  V30 586 C 53.8777 -0.842575 2.64189 0
M  V30 587 H 56.8287 -0.0154422 1.58692 0
M  V30 588 H 56.8497 -2.34111 2.99954 0
M  V30 589 H 56.3617 -0.709053 3.81568 0
M  V30 590 H 54.4627 -2.78132 2.47938 0
M  V30 591 H 54.5757 -2.18143 4.26556 0
M  V30 592 H 52.9397 -1.24501 2.22197 0
M  V30 593 H 53.7227 -0.0917552 3.43177 0
M  V30 594 N 56.1678 -1.49265 -0.50573 0
M  V30 595 C 57.5788 -1.51769 -1.08734 0
M  V30 596 C 57.9298 -0.301192 -1.93874 0
M  V30 597 O 57.0548 0.589456 -2.08217 0
M  V30 598 C 57.6498 -2.75017 -1.97867 0
M  V30 599 C 56.2088 -2.80314 -2.51199 0
M  V30 600 C 55.3558 -2.4562 -1.28709 0
M  V30 601 H 58.3068 -1.56031 -0.289855 0
M  V30 602 H 58.3278 -2.5491 -2.82491 0
M  V30 603 H 57.8398 -3.63539 -1.35873 0
M  V30 604 H 55.9408 -1.96061 -3.16845 0
M  V30 605 H 56.0538 -3.82366 -2.88675 0
M  V30 606 H 54.4178 -1.97297 -1.61078 0
M  V30 607 H 55.2008 -3.36411 -0.6843 0
M  V30 608 N 57.6459 0.756429 -1.3826 0
M  V30 609 C 58.8739 1.54565 -1.3754 0
M  V30 610 C 59.2889 1.88767 0.0355331 0
M  V30 611 O 58.6459 1.52572 1.0014 0
M  V30 612 C 58.6969 2.84654 -2.22833 0
M  V30 613 O 58.4179 2.51912 -3.5843 0
M  V30 614 C 59.9189 3.78807 -2.30261 0
M  V30 615 H 57.1389 0.478353 -0.470553 0
M  V30 616 H 59.6829 0.936381 -1.81803 0
M  V30 617 H 57.8379 3.41965 -1.8204 0
M  V30 618 H 58.2519 3.35325 -4.03308 0
M  V30 619 H 59.7259 4.67045 -2.94233 0
M  V30 620 H 60.2029 4.19038 -1.31545 0
M  V30 621 H 60.8089 3.2742 -2.71433 0
M  V30 622 N 59.124 1.23083 0.984299 0
M  V30 623 C 60.071 1.00854 2.07598 0
M  V30 624 C 61.041 -0.0726709 1.65941 0
M  V30 625 O 62.226 0.0786535 1.90638 0
M  V30 626 C 59.366 0.601645 3.39815 0
M  V30 627 C 58.479 1.75456 3.94765 0
M  V30 628 C 57.614 1.29482 5.15177 0
M  V30 629 C 56.653 2.41873 5.62284 0
M  V30 630 N 55.79 1.96885 6.73929 0
M  V30 631 H 60.63 1.943 2.25946 0
M  V30 632 H 58.167 0.968001 1.10762 0
M  V30 633 H 60.125 0.346854 4.15756 0
M  V30 634 H 58.755 -0.295803 3.21442 0
M  V30 635 H 57.807 2.12346 3.15616 0
M  V30 636 H 59.119 2.59965 4.25699 0
M  V30 637 H 58.273 0.997923 5.98437 0
M  V30 638 H 57.012 0.420046 4.85888 0
M  V30 639 H 56.017 2.72342 4.77608 0
M  V30 640 H 57.242 3.29881 5.93595 0
M  V30 641 H 55.188 1.11782 6.46406 0
M  V30 642 H 55.105 2.74956 7.04227 0
M  V30 643 H 56.373 1.70289 7.60672 0
M  V30 644 N 60.6021 -1.18246 1.0419 0
M  V30 645 C 61.8321 -1.91916 0.764961 0
M  V30 646 C 62.2401 -1.76485 -0.681898 0
M  V30 647 O 61.5831 -1.09275 -1.47664 0
M  V30 648 C 61.6451 -3.4373 1.05309 0
M  V30 649 C 61.3091 -3.8294 2.4941 0
M  V30 650 C 62.3061 -3.86621 3.47592 0
M  V30 651 C 59.9911 -4.142 2.84155 0
M  V30 652 C 61.9851 -4.21013 4.78568 0
M  V30 653 C 59.6721 -4.48262 4.15337 0
M  V30 654 C 60.6701 -4.51645 5.12353 0
M  V30 655 O 60.3581 -4.84911 6.41183 0
M  V30 656 H 60.0901 -0.61606 0.278292 0
M  V30 657 H 62.6441 -1.50947 1.39299 0
M  V30 658 H 60.8741 -3.84946 0.367933 0
M  V30 659 H 62.5631 -3.9865 0.763752 0
M  V30 660 H 63.3291 -3.62607 3.22089 0
M  V30 661 H 59.2081 -4.10743 2.09311 0
M  V30 662 H 62.7521 -4.23568 5.54289 0
M  V30 663 H 58.6491 -4.71737 4.40607 0
M  V30 664 H 59.4171 -5.02809 6.45852 0
M  V30 665 N 62.0802 -0.821533 -1.34494 0
M  V30 666 C 63.0122 -0.199946 -2.28326 0
M  V30 667 C 64.0252 0.609377 -1.50965 0
M  V30 668 O 65.2142 0.439285 -1.7301 0
M  V30 669 C 62.3142 0.738431 -3.30757 0
M  V30 670 C 61.4872 -0.0277632 -4.37391 0
M  V30 671 C 60.5462 0.831332 -5.19591 0
M  V30 672 O 59.5722 0.276822 -5.68526 0
M  V30 673 N 60.7742 2.15132 -5.39165 0
M  V30 674 H 63.5392 -1.00609 -2.82308 0
M  V30 675 H 61.1002 -0.678366 -1.47003 0
M  V30 676 H 63.0922 1.31773 -3.82646 0
M  V30 677 H 61.6622 1.44533 -2.7718 0
M  V30 678 H 60.8822 -0.788359 -3.86236 0
M  V30 679 H 62.1702 -0.555251 -5.05761 0
M  V30 680 H 61.5682 2.62559 -5.01078 0
M  V30 681 H 60.1252 2.6795 -5.94177 0
M  V30 682 N 63.5583 1.46682 -0.576371 0
M  V30 683 C 64.8073 2.01619 -0.0572825 0
M  V30 684 C 65.1203 1.45417 1.30818 0
M  V30 685 O 66.3263 1.92133 1.91825 0
M  V30 686 C 64.7823 3.59863 -0.0518371 0
M  V30 687 C 64.3903 4.25059 -1.41523 0
M  V30 688 C 66.1343 4.2248 0.413639 0
M  V30 689 C 64.0413 5.75364 -1.36785 0
M  V30 690 H 62.9713 0.753794 -0.0176448 0
M  V30 691 H 65.6223 1.68481 -0.727076 0
M  V30 692 H 64.0043 3.90048 0.683994 0
M  V30 693 H 65.1783 4.06491 -2.17029 0
M  V30 694 H 63.4933 3.7451 -1.8202 0
M  V30 695 H 66.0903 5.3265 0.467779 0
M  V30 696 H 66.4333 3.90976 1.42982 0
M  V30 697 H 66.9663 3.96897 -0.267929 0
M  V30 698 H 63.7053 6.11518 -2.36063 0
M  V30 699 H 63.2253 5.96214 -0.654895 0
M  V30 700 H 64.9043 6.37955 -1.07805 0
M  V30 701 N 65.0364 0.313813 1.54444 0
M  V30 702 C 66.2614 -0.296681 2.05267 0
M  V30 703 C 66.6864 -1.45757 1.18897 0
M  V30 704 O 66.0444 -1.80239 0.195886 0
M  V30 705 C 66.0924 -0.71831 3.53373 0
M  V30 706 O 65.1964 -1.82175 3.69981 0
M  V30 707 H 64.5374 -0.0554061 0.661684 0
M  V30 708 H 67.0674 0.459387 1.99376 0
M  V30 709 H 67.0774 -1.00364 3.95463 0
M  V30 710 H 65.7524 0.130821 4.15694 0
M  V30 711 H 64.3294 -1.53598 3.39797 0
M  V30 712 N 66.5145 -1.57545 0.0417849 0
M  V30 713 C 67.4465 -2.07904 -0.964799 0
M  V30 714 C 68.4595 -1.00497 -1.28079 0
M  V30 715 O 69.6485 -1.28087 -1.24322 0
M  V30 716 C 66.7485 -2.49928 -2.28887 0
M  V30 717 C 65.9215 -3.80562 -2.15619 0
M  V30 718 C 64.9805 -4.08999 -3.31069 0
M  V30 719 O 64.0065 -4.79061 -3.0739 0
M  V30 720 N 65.2085 -3.6017 -4.55256 0
M  V30 721 H 67.9735 -2.94886 -0.535029 0
M  V30 722 H 65.5345 -1.61252 -0.144681 0
M  V30 723 H 67.5265 -2.66034 -3.04972 0
M  V30 724 H 66.0965 -1.68245 -2.63463 0
M  V30 725 H 65.3165 -3.74129 -1.24183 0
M  V30 726 H 66.6045 -4.66126 -2.03971 0
M  V30 727 H 66.0025 -3.03512 -4.77386 0
M  V30 728 H 64.5595 -3.81532 -5.28466 0
M  V30 729 N 67.9926 0.231505 -1.5589 0
M  V30 730 C 69.4036 0.799327 -1.68724 0
M  V30 731 C 69.7546 1.85398 -0.642022 0
M  V30 732 O 68.8796 2.1539 0.208784 0
M  V30 733 C 69.4746 1.45664 -3.05888 0
M  V30 734 C 68.0336 1.97197 -3.20609 0
M  V30 735 C 67.1806 0.828552 -2.64632 0
M  V30 736 H 70.1316 0.00702616 -1.58698 0
M  V30 737 H 70.1526 2.32517 -3.01191 0
M  V30 738 H 69.6646 0.688808 -3.81939 0
M  V30 739 H 67.7656 2.76813 -2.4941 0
M  V30 740 H 67.8786 2.15878 -4.27707 0
M  V30 741 H 66.2426 1.23321 -2.22854 0
M  V30 742 H 67.0256 0.0735544 -3.43221 0
M  V30 743 N 69.4707 1.49531 0.497807 0
M  V30 744 C 70.3807 1.69176 1.62532 0
M  V30 745 C 71.3967 0.5744 1.64246 0
M  V30 746 O 72.5727 0.849497 1.82608 0
M  V30 747 C 69.6377 1.75695 2.98885 0
M  V30 748 C 68.6987 2.9929 3.07773 0
M  V30 749 C 67.9317 3.05488 4.37622 0
M  V30 750 O 68.1547 2.19192 5.26603 0
M  V30 751 O 67.0887 3.9798 4.51548 0
M  V30 752 H 70.9147 2.647 1.48887 0
M  V30 753 H 68.4997 1.3331 0.674441 0
M  V30 754 H 70.3817 1.82317 3.79919 0
M  V30 755 H 69.0567 0.8335 3.12785 0
M  V30 756 H 67.9637 2.98183 2.25915 0
M  V30 757 H 69.2967 3.91125 2.98801 0
M  V30 758 N 70.9488 -0.749086 1.3866 0
M  V30 759 C 72.1948 -1.51056 1.35314 0
M  V30 760 C 72.5278 -1.94121 -0.0553751 0
M  V30 761 O 71.8028 -1.65763 -1.01749 0
M  V30 762 C 72.0858 -2.76003 2.31288 0
M  V30 763 C 71.9388 -2.39047 3.8102 0
M  V30 764 C 73.2578 -3.78046 2.2532 0
M  V30 765 H 70.3768 -0.547972 0.492844 0
M  V30 766 H 73.0188 -0.857628 1.69543 0
M  V30 767 H 71.1688 -3.31716 2.02229 0
M  V30 768 H 72.8408 -1.89074 4.20771 0
M  V30 769 H 71.0838 -1.71449 3.98482 0
M  V30 770 H 71.7548 -3.28462 4.4364 0
M  V30 771 H 74.2308 -3.31884 2.50983 0
M  V30 772 H 73.1068 -4.63159 2.94576 0
M  V30 773 H 73.3678 -4.23957 1.25352 0
M  V30 774 N 72.4269 -1.23603 -0.977757 0
M  V30 775 C 73.6569 -1.09487 -1.75203 0
M  V30 776 C 74.0649 0.356321 -1.85814 0
M  V30 777 O 73.4079 1.25816 -1.33851 0
M  V30 778 C 73.4699 -1.64905 -3.19447 0
M  V30 779 C 73.1339 -3.13688 -3.32338 0
M  V30 780 C 74.1309 -4.10953 -3.18455 0
M  V30 781 C 71.8159 -3.53449 -3.56902 0
M  V30 782 C 73.8099 -5.45962 -3.28944 0
M  V30 783 C 71.4969 -4.88602 -3.6703 0
M  V30 784 C 72.4949 -5.84668 -3.53062 0
M  V30 785 O 72.1829 -7.17365 -3.62826 0
M  V30 786 H 71.9149 -0.38367 -0.556573 0
M  V30 787 H 74.4689 -1.6398 -1.23693 0
M  V30 788 H 72.6989 -1.04835 -3.72218 0
M  V30 789 H 74.3879 -1.46226 -3.78646 0
M  V30 790 H 75.1539 -3.81577 -2.99372 0
M  V30 791 H 71.0329 -2.79188 -3.66844 0
M  V30 792 H 74.5769 -6.20925 -3.17958 0
M  V30 793 H 70.4739 -5.17653 -3.85623 0
M  V30 794 H 71.2419 -7.2515 -3.79605 0
M  V30 795 N 73.905 1.17692 -1.04816 0
M  V30 796 C 75.151 1.88137 -0.75711 0
M  V30 797 C 75.484 1.80604 0.713841 0
M  V30 798 O 74.759 1.21146 1.52164 0
M  V30 799 C 75.042 3.38318 -1.2334 0
M  V30 800 C 74.895 3.54622 -2.76701 0
M  V30 801 C 76.214 4.32214 -0.829415 0
M  V30 802 H 73.333 0.683163 -0.27651 0
M  V30 803 H 75.975 1.38424 -1.30149 0
M  V30 804 H 74.125 3.80787 -0.770286 0
M  V30 805 H 75.797 3.21194 -3.31107 0
M  V30 806 H 74.04 2.97026 -3.16161 0
M  V30 807 H 74.711 4.60028 -3.05088 0
M  V30 808 H 77.187 3.97565 -1.22805 0
M  V30 809 H 76.063 5.35838 -1.19033 0
M  V30 810 H 76.324 4.41294 0.266891 0
M  V30 811 N 75.3831 0.828654 1.34056 0
M  V30 812 C 76.3461 0.259927 2.27721 0
M  V30 813 C 77.3461 -0.565478 1.50529 0
M  V30 814 O 78.5361 -0.38075 1.69988 0
M  V30 815 C 75.6681 -0.634944 3.34935 0
M  V30 816 H 76.8611 1.0863 2.79534 0
M  V30 817 H 74.4141 0.600951 1.44285 0
M  V30 818 H 75.1491 -1.48416 2.88346 0
M  V30 819 H 74.9341 -0.0444999 3.92075 0
M  V30 820 H 76.4241 -1.02648 4.04788 0
M  V30 821 N 76.8612 -1.46375 0.584142 0
M  V30 822 C 77.8242 -2.28784 -0.138108 0
M  V30 823 C 78.8242 -1.38471 -0.817462 0
M  V30 824 O 80.0142 -1.60833 -0.669199 0
M  V30 825 C 77.1462 -3.18892 -1.20503 0
M  V30 826 H 78.3392 -2.94117 0.586127 0
M  V30 827 H 75.8922 -1.52509 0.342171 0
M  V30 828 H 76.6272 -2.58309 -1.96079 0
M  V30 829 H 76.4122 -3.85388 -0.722384 0
M  V30 830 H 77.9022 -3.80914 -1.71155 0
M  V30 831 N 78.3393 -0.321999 -1.54275 0
M  V30 832 C 79.7503 0.166384 -1.85957 0
M  V30 833 C 80.1013 1.51747 -1.24367 0
M  V30 834 O 79.2263 2.09317 -0.549124 0
M  V30 835 C 79.8213 0.308681 -3.37391 0
M  V30 836 C 78.3803 0.741286 -3.69028 0
M  V30 837 C 77.5273 -0.137937 -2.76957 0
M  V30 838 H 80.4783 -0.542335 -1.49146 0
M  V30 839 H 80.4993 1.13984 -3.63026 0
M  V30 840 H 80.0113 -0.674809 -3.82188 0
M  V30 841 H 78.1123 1.73458 -3.29762 0
M  V30 842 H 78.2253 0.546118 -4.75977 0
M  V30 843 H 76.5893 0.386251 -2.51754 0
M  V30 844 H 77.3723 -1.11816 -3.2458 0
M  V30 845 N 79.8174 1.5752 -0.0501392 0
M  V30 846 C 81.0654 1.9227 0.622642 0
M  V30 847 C 81.3864 0.929083 1.71444 0
M  V30 848 O 80.6564 -0.0262186 1.95882 0
M  V30 849 H 79.2364 0.709739 0.232981 0
M  V30 850 H 81.8984 1.94628 -0.102898 0
M  V30 851 H 80.9944 2.93479 1.06191 0
M  V30 852 N 81.2955 -0.223234 1.56011 0
M  V30 853 C 82.2055 -1.29766 1.95443 0
M  V30 854 C 83.2215 -1.51373 0.858028 0
M  V30 855 O 84.3975 -1.64536 1.16146 0
M  V30 856 C 81.4625 -2.62772 2.26167 0
M  V30 857 C 80.5235 -2.49482 3.49367 0
M  V30 858 C 79.7565 -3.76145 3.78616 0
M  V30 859 O 79.9795 -4.79087 3.09568 0
M  V30 860 O 78.9135 -3.73358 4.72109 0
M  V30 861 H 82.7395 -0.99309 2.87004 0
M  V30 862 H 80.3245 -0.425958 1.43199 0
M  V30 863 H 82.2065 -3.41327 2.47131 0
M  V30 864 H 80.8815 -2.92913 1.37781 0
M  V30 865 H 79.7885 -1.69133 3.33684 0
M  V30 866 H 81.1215 -2.2428 4.38131 0
M  V30 867 N 82.7736 -1.49793 -0.48987 0
M  V30 868 C 83.9986 -1.63836 -1.27172 0
M  V30 869 C 84.4236 -0.31402 -1.8546 0
M  V30 870 O 83.7816 0.719803 -1.66399 0
M  V30 871 C 83.8296 -2.71797 -2.36978 0
M  V30 872 O 82.9336 -2.31744 -3.41128 0
M  V30 873 H 82.2746 -0.547997 -0.37496 0
M  V30 874 H 84.8046 -1.96053 -0.585191 0
M  V30 875 H 84.8146 -2.94305 -2.82575 0
M  V30 876 H 83.4896 -3.67923 -1.93921 0
M  V30 877 H 82.0666 -2.1961 -3.01373 0
M  V30 878 N 84.2517 0.741722 -1.39055 0
M  V30 879 C 85.1817 1.869 -1.39966 0
M  V30 880 C 86.1627 1.6804 -0.26392 0
M  V30 881 O 87.3477 1.88458 -0.468755 0
M  V30 882 C 84.4777 3.24572 -1.23574 0
M  V30 883 C 83.4317 3.58056 -2.34477 0
M  V30 884 C 82.7577 4.94593 -2.0318 0
M  V30 885 C 84.0577 3.61716 -3.76774 0
M  V30 886 H 85.7517 1.86395 -2.34302 0
M  V30 887 H 83.2977 0.895361 -1.1278 0
M  V30 888 H 85.2507 4.031 -1.22834 0
M  V30 889 H 83.9747 3.25587 -0.257045 0
M  V30 890 H 82.6337 2.81854 -2.34423 0
M  V30 891 H 82.2817 4.92181 -1.03765 0
M  V30 892 H 81.9817 5.17964 -2.77465 0
M  V30 893 H 83.5057 5.75486 -2.04079 0
M  V30 894 H 84.9197 4.30335 -3.78794 0
M  V30 895 H 83.3167 3.96603 -4.50362 0
M  V30 896 H 84.3867 2.61672 -4.08235 0
M  V30 897 N 85.7298 1.2412 0.971189 0
M  V30 898 C 86.6398 1.04747 2.09917 0
M  V30 899 C 87.6558 -0.0107162 1.73997 0
M  V30 900 O 88.8318 0.186714 2.00533 0
M  V30 901 C 85.8968 0.650828 3.40537 0
M  V30 902 C 84.9578 1.7851 3.90426 0
M  V30 903 C 84.1908 1.40729 5.14812 0
M  V30 904 O 84.4138 0.29557 5.69634 0
M  V30 905 O 83.3478 2.23168 5.58999 0
M  V30 906 H 87.1738 1.99304 2.29154 0
M  V30 907 H 84.7588 1.02908 1.08307 0
M  V30 908 H 86.6408 0.440992 4.19086 0
M  V30 909 H 85.3158 -0.265649 3.22608 0
M  V30 910 H 84.2228 2.04966 3.12953 0
M  V30 911 H 85.5558 2.68023 4.12825 0
M  V30 912 N 87.2079 -1.17134 1.05439 0
M  V30 913 C 88.4539 -1.87733 0.767077 0
M  V30 914 C 88.7869 -1.8098 -0.704253 0
M  V30 915 O 88.0619 -1.21951 -1.5152 0
M  V30 916 C 88.3449 -3.37659 1.25133 0
M  V30 917 C 88.1979 -3.53149 2.78578 0
M  V30 918 C 89.5169 -4.31768 0.852324 0
M  V30 919 H 86.6359 -0.681687 0.280129 0
M  V30 920 H 89.2779 -1.37732 1.30881 0
M  V30 921 H 87.4279 -3.80373 0.790469 0
M  V30 922 H 89.0999 -3.19434 3.32806 0
M  V30 923 H 87.3429 -2.95345 3.17732 0
M  V30 924 H 88.0139 -4.58403 3.07523 0
M  V30 925 H 90.4899 -3.96909 1.24911 0
M  V30 926 H 89.3659 -5.35199 1.21873 0
M  V30 927 H 89.6269 -4.41429 -0.243485 0
M  V30 928 N 88.686 -0.835752 -1.33615 0
M  V30 929 C 90.102 -0.523139 -1.50783 0
M  V30 930 C 90.302 0.950171 -1.77691 0
M  V30 931 O 89.358 1.73411 -1.83534 0
M  V30 932 C 90.671 -1.39378 -2.66448 0
M  V30 933 C 92.219 -1.39223 -2.80332 0
M  V30 934 C 92.694 -2.24765 -3.99055 0
M  V30 935 N 94.185 -2.22458 -4.06284 0
M  V30 936 C 94.92 -2.85386 -4.97336 0
M  V30 937 N 94.416 -3.57354 -5.93523 0
M  V30 938 N 96.209 -2.74872 -4.90308 0
M  V30 939 H 88.36 -1.78952 -1.14411 0
M  V30 940 H 90.623 -0.763297 -0.562212 0
M  V30 941 H 90.329 -2.44061 -2.53234 0
M  V30 942 H 90.203 -1.0676 -3.61776 0
M  V30 943 H 92.59 -0.353136 -2.92979 0
M  V30 944 H 92.671 -1.75846 -1.85773 0
M  V30 945 H 92.315 -3.28732 -3.87167 0
M  V30 946 H 92.245 -1.85485 -4.92852 0
M  V30 947 H 94.736 -1.70119 -3.37443 0
M  V30 948 H 95.049 -4.02584 -6.59656 0
M  V30 949 H 93.394 -3.61461 -5.93608 0
M  V30 950 H 96.585 -2.18213 -4.14126 0
M  V30 951 H 96.758 -3.24199 -5.61069 0
M  V30 952 N 90.1641 1.46063 -0.591896 0
M  V30 953 C 91.4041 2.04228 -0.0838014 0
M  V30 954 C 91.7681 1.45231 1.25587 0
M  V30 955 O 92.9691 1.94653 1.85375 0
M  V30 956 C 91.2401 3.57389 -0.0286282 0
M  V30 957 S 92.7991 4.3678 0.420557 0
M  V30 958 H 89.6171 0.709762 -0.0419319 0
M  V30 959 H 92.2191 1.78983 -0.786465 0
M  V30 960 H 90.9231 3.97843 -1.00743 0
M  V30 961 H 90.4541 3.87185 0.69652 0
M  V30 962 H 92.4691 4.67131 1.67341 0
M  V30 963 N 91.6422 0.330177 1.54103 0
M  V30 964 C 92.5722 -0.525353 2.27513 0
M  V30 965 C 93.5532 -1.11383 1.2856 0
M  V30 966 O 94.7382 -1.13773 1.57383 0
M  V30 967 C 91.8682 -1.6831 3.03791 0
M  V30 968 C 90.8222 -1.2236 4.10137 0
M  V30 969 C 90.1482 -2.46882 4.74293 0
M  V30 970 C 91.4482 -0.333697 5.21233 0
M  V30 971 H 93.1422 0.087013 2.99274 0
M  V30 972 H 90.6882 0.0432893 1.43935 0
M  V30 973 H 92.6412 -2.28795 3.5388 0
M  V30 974 H 91.3652 -2.32216 2.29659 0
M  V30 975 H 90.0242 -0.64165 3.60941 0
M  V30 976 H 89.6722 -3.09165 3.96769 0
M  V30 977 H 89.3722 -2.16825 5.46133 0
M  V30 978 H 90.8962 -3.08117 5.27159 0
M  V30 979 H 92.3102 -0.845013 5.67038 0
M  V30 980 H 90.7072 -0.125612 5.99969 0
M  V30 981 H 91.7772 0.633724 4.80741 0
M  V30 982 N 93.1203 -1.57491 0.0584922 0
M  V30 983 C 94.0503 -2.14988 -0.911178 0
M  V30 984 C 95.0313 -1.07343 -1.31952 0
M  V30 985 O 96.2163 -1.35318 -1.39294 0
M  V30 986 C 93.3463 -2.70078 -2.18347 0
M  V30 987 C 92.3003 -3.82771 -1.91495 0
M  V30 988 C 91.6263 -4.24408 -3.25241 0
M  V30 989 C 92.9263 -5.07592 -1.23075 0
M  V30 990 H 94.6203 -2.96263 -0.432246 0
M  V30 991 H 92.1663 -1.42512 -0.206469 0
M  V30 992 H 94.1193 -3.08943 -2.86587 0
M  V30 993 H 92.8433 -1.86005 -2.68458 0
M  V30 994 H 91.5023 -3.44389 -1.25664 0
M  V30 995 H 91.1503 -3.37275 -3.73168 0
M  V30 996 H 90.8503 -5.00366 -3.08071 0
M  V30 997 H 92.3743 -4.65879 -3.94701 0
M  V30 998 H 93.7883 -5.43857 -1.81362 0
M  V30 999 H 92.1853 -5.88741 -1.16207 0
M  V30 1000 H 93.2553 -4.84454 -0.207847 0
M  V30 1001 N 94.5984 0.214957 -1.56127 0
M  V30 1002 C 95.5454 1.26642 -1.92952 0
M  V30 1003 C 96.5154 1.46244 -0.78753 0
M  V30 1004 O 97.7004 1.59704 -1.04399 0
M  V30 1005 C 94.8404 2.6104 -2.25726 0
M  V30 1006 C 93.9534 2.49183 -3.52891 0
M  V30 1007 C 93.0884 3.76149 -3.7508 0
M  V30 1008 C 92.1274 3.59041 -4.95738 0
M  V30 1009 N 91.2644 4.77972 -5.14283 0
M  V30 1010 H 96.1044 0.945384 -2.82607 0
M  V30 1011 H 93.6414 0.455489 -1.3987 0
M  V30 1012 H 95.5994 3.39313 -2.42739 0
M  V30 1013 H 94.2294 2.91227 -1.39236 0
M  V30 1014 H 93.2814 1.6231 -3.44034 0
M  V30 1015 H 94.5934 2.32466 -4.41318 0
M  V30 1016 H 93.7474 4.62865 -3.92226 0
M  V30 1017 H 92.4864 3.95799 -2.84947 0
M  V30 1018 H 91.4914 2.7071 -4.78535 0
M  V30 1019 H 92.7164 3.40856 -5.87362 0
M  V30 1020 H 90.6624 4.97923 -4.27093 0
M  V30 1021 H 90.5794 4.64006 -5.96853 0
M  V30 1022 H 91.8474 5.66096 -5.35869 0
M  V30 1023 N 96.0765 1.50051 0.48192 0
M  V30 1024 C 97.3535 1.51009 1.2432 0
M  V30 1025 C 97.7335 0.248587 2.09631 0
M  V30 1026 O 97.0815 -0.768409 2.15192 0
M  V30 1027 C 97.2915 2.79981 2.08355 0
M  V30 1028 C 98.6395 3.3022 2.66908 0
M  V30 1029 O 99.6635 2.81228 2.18607 0
M  V30 1030 O 98.5225 4.15595 3.54884 0
M  V30 1031 H 95.6165 0.605239 0.563573 0
M  V30 1032 H 98.1625 1.62332 0.494627 0
M  V30 1033 H 96.9345 3.63275 1.45419 0
M  V30 1034 H 96.5575 2.7161 2.90368 0
M  V30 1035 N 97.5546 -0.734337 1.39446 0
M  V30 1036 C 98.5176 -1.83004 1.37994 0
M  V30 1037 C 99.5176 -1.58397 0.276938 0
M  V30 1038 O 100.708 -1.65785 0.534875 0
M  V30 1039 C 97.8396 -3.20802 1.1532 0
M  V30 1040 H 99.0326 -1.85694 2.35494 0
M  V30 1041 H 96.5856 -0.938059 1.25021 0
M  V30 1042 H 97.3206 -3.23772 0.185036 0
M  V30 1043 H 97.1056 -3.4006 1.95197 0
M  V30 1044 H 98.5956 -4.00862 1.17046 0
M  V30 1045 N 99.0327 -1.24633 -0.964593 0
M  V30 1046 C 99.9957 -1.0424 -2.04124 0
M  V30 1047 C 100.996 0.00137563 -1.608 0
M  V30 1048 O 102.186 -0.239883 -1.7254 0
M  V30 1049 C 99.3177 -0.580588 -3.3592 0
M  V30 1050 H 100.511 -1.99803 -2.23649 0
M  V30 1051 H 98.0637 -1.06899 -1.14027 0
M  V30 1052 H 98.7987 0.3781 -3.22088 0
M  V30 1053 H 98.5837 -1.33398 -3.6871 0
M  V30 1054 H 100.074 -0.459034 -4.15069 0
M  V30 1055 N 100.511 1.16574 -1.06058 0
M  V30 1056 C 101.757 1.87324 -0.777022 0
M  V30 1057 C 102.09 1.81351 0.694645 0
M  V30 1058 O 101.365 1.22753 1.50871 0
M  V30 1059 C 101.648 3.36991 -1.26922 0
M  V30 1060 C 101.501 3.51667 -2.80447 0
M  V30 1061 C 102.82 4.3131 -0.87521 0
M  V30 1062 H 99.9388 0.680191 -0.28374 0
M  V30 1063 H 102.581 1.37036 -1.3161 0
M  V30 1064 H 100.731 3.79949 -0.81063 0
M  V30 1065 H 102.403 3.17664 -3.34495 0
M  V30 1066 H 100.646 2.93656 -3.19294 0
M  V30 1067 H 101.317 4.56766 -3.0995 0
M  V30 1068 H 103.793 3.9624 -1.27014 0
M  V30 1069 H 102.669 5.34545 -1.2471 0
M  V30 1070 H 102.93 4.41552 0.220071 0
M  V30 1071 N 101.989 0.842826 1.3317 0
M  V30 1072 C 103.238 0.436738 1.96915 0
M  V30 1073 C 103.551 -1.01025 1.67491 0
M  V30 1074 O 104.757 -1.5212 2.24881 0
M  V30 1075 C 103.213 0.730021 3.52418 0
M  V30 1076 C 102.821 2.19195 3.90714 0
M  V30 1077 C 104.565 0.391076 4.22695 0
M  V30 1078 C 102.472 2.42907 5.39212 0
M  V30 1079 H 101.402 0.15958 0.736919 0
M  V30 1080 H 104.053 1.03196 1.51733 0
M  V30 1081 H 102.435 0.0643755 3.95948 0
M  V30 1082 H 103.609 2.8984 3.58231 0
M  V30 1083 H 101.924 2.49425 3.33431 0
M  V30 1084 H 104.521 0.545817 5.31907 0
M  V30 1085 H 104.864 -0.666294 4.10933 0
M  V30 1086 H 105.397 1.01212 3.84709 0
M  V30 1087 H 102.136 3.47224 5.55982 0
M  V30 1088 H 101.656 1.76827 5.73142 0
M  V30 1089 H 103.335 2.2626 6.06148 0
M  V30 1090 N 103.467 -1.45747 0.599634 0
M  V30 1091 C 104.692 -2.07178 0.0960198 0
M  V30 1092 C 105.117 -1.44268 -1.207 0
M  V30 1093 O 104.475 -0.532503 -1.73303 0
M  V30 1094 C 104.523 -3.60579 -0.0385348 0
M  V30 1095 O 103.627 -3.97713 -1.0908 0
M  V30 1096 H 102.968 -0.660251 0.0704593 0
M  V30 1097 H 105.498 -1.87124 0.827385 0
M  V30 1098 H 105.508 -4.07298 -0.239304 0
M  V30 1099 H 104.183 -4.05756 0.912947 0
M  V30 1100 H 102.76 -3.62678 -0.867135 0
M  V30 1101 N 104.945 -0.338344 -1.53925 0
M  V30 1102 C 106.191 0.252842 -2.01822 0
M  V30 1103 C 106.546 1.48612 -1.22197 0
M  V30 1104 O 105.839 1.89238 -0.299892 0
M  V30 1105 C 106.033 0.62448 -3.51902 0
M  V30 1106 C 105.862 -0.571235 -4.46057 0
M  V30 1107 C 104.632 -1.07493 -4.93734 0
M  V30 1108 C 106.83 -1.42807 -4.94076 0
M  V30 1109 N 104.812 -2.23351 -5.71828 0
M  V30 1110 C 106.183 -2.43362 -5.70241 0
M  V30 1111 C 108.238 -1.45412 -4.76193 0
M  V30 1112 C 106.941 -3.46346 -6.30426 0
M  V30 1113 C 108.967 -2.47274 -5.37224 0
M  V30 1114 C 108.329 -3.46555 -6.13253 0
M  V30 1115 H 104.428 0.0559669 -0.779995 0
M  V30 1116 H 107.012 -0.476732 -1.88773 0
M  V30 1117 H 105.183 1.32317 -3.65167 0
M  V30 1118 H 106.915 1.19841 -3.86549 0
M  V30 1119 H 103.67 -0.643848 -4.69203 0
M  V30 1120 H 104.094 -2.81834 -6.15548 0
M  V30 1121 H 108.736 -0.700171 -4.16962 0
M  V30 1122 H 106.454 -4.22638 -6.88769 0
M  V30 1123 H 110.04 -2.50109 -5.25297 0
M  V30 1124 H 108.92 -4.24083 -6.59638 0
M  V30 1125 N 106.423 1.57458 -0.0668435 0
M  V30 1126 C 107.651 1.97624 0.612565 0
M  V30 1127 C 108.066 0.94502 1.63447 0
M  V30 1128 O 107.423 -0.0689276 1.8237 0
M  V30 1129 C 107.474 3.37869 1.28555 0
M  V30 1130 O 107.195 4.3704 0.304557 0
M  V30 1131 C 108.696 3.92882 2.05325 0
M  V30 1132 H 105.916 0.650045 0.166381 0
M  V30 1133 H 108.46 2.04035 -0.137782 0
M  V30 1134 H 106.615 3.3256 1.98702 0
M  V30 1135 H 107.029 5.18565 0.786779 0
M  V30 1136 H 108.503 4.93247 2.47812 0
M  V30 1137 H 108.98 3.29156 2.9078 0
M  V30 1138 H 109.586 4.01577 1.40056 0
M  V30 1139 N 107.901 -0.206675 1.56239 0
M  V30 1140 C 108.848 -1.25617 1.93621 0
M  V30 1141 C 109.818 -1.45824 0.795274 0
M  V30 1142 O 111.003 -1.59148 1.05245 0
M  V30 1143 C 108.143 -2.59839 2.27107 0
M  V30 1144 C 107.256 -2.47308 3.54207 0
M  V30 1145 C 106.391 -3.74155 3.7707 0
M  V30 1146 C 105.43 -3.56407 4.97635 0
M  V30 1147 N 104.567 -4.75238 5.1681 0
M  V30 1148 H 109.407 -0.930383 2.83104 0
M  V30 1149 H 106.944 -0.448065 1.4011 0
M  V30 1150 H 108.902 -3.38021 2.44535 0
M  V30 1151 H 107.532 -2.90485 1.40778 0
M  V30 1152 H 106.584 -1.60483 3.4489 0
M  V30 1153 H 107.896 -2.30122 4.42544 0
M  V30 1154 H 107.05 -4.60778 3.94675 0
M  V30 1155 H 105.789 -3.94282 2.87042 0
M  V30 1156 H 104.794 -2.68168 4.79964 0
M  V30 1157 H 106.019 -3.37736 5.89161 0
M  V30 1158 H 103.965 -4.95651 4.29728 0
M  V30 1159 H 103.882 -4.60835 5.99306 0
M  V30 1160 H 105.15 -5.63246 5.38864 0
M  V30 1161 N 109.379 -1.50304 -0.473955 0
M  V30 1162 C 110.656 -1.51667 -1.23518 0
M  V30 1163 C 111.036 -0.259701 -2.09496 0
M  V30 1164 O 110.384 0.756986 -2.15597 0
M  V30 1165 C 110.594 -2.81082 -2.06868 0
M  V30 1166 C 111.942 -3.31631 -2.65153 0
M  V30 1167 O 112.966 -2.82384 -2.17113 0
M  V30 1168 O 111.825 -4.17471 -3.52675 0
M  V30 1169 H 108.919 -0.60822 -0.560355 0
M  V30 1170 H 111.465 -1.62592 -0.486011 0
M  V30 1171 H 110.237 -3.64041 -1.4349 0
M  V30 1172 H 109.86 -2.73146 -2.88924 0
M  V30 1173 N 110.857 0.726932 -1.39834 0
M  V30 1174 C 112.105 1.4837 -1.37225 0
M  V30 1175 C 112.426 1.94979 0.0284857 0
M  V30 1176 O 111.696 1.69555 0.981213 0
M  V30 1177 H 110.276 0.55043 -0.505011 0
M  V30 1178 H 112.938 0.862468 -1.74778 0
M  V30 1179 H 112.034 2.36198 -2.04003 0
M  V30 1180 N 112.336 1.25143 0.95797 0
M  V30 1181 C 113.582 1.09855 1.70469 0
M  V30 1182 C 113.915 -0.360187 1.90831 0
M  V30 1183 O 113.19 -1.26568 1.47685 0
M  V30 1184 C 113.473 1.8497 3.08963 0
M  V30 1185 C 113.326 3.38652 2.96032 0
M  V30 1186 C 114.645 1.63016 4.08795 0
M  V30 1187 H 111.764 0.400465 0.618706 0
M  V30 1188 H 114.406 1.53933 1.11376 0
M  V30 1189 H 112.556 1.47505 3.59409 0
M  V30 1190 H 114.228 3.85772 2.52938 0
M  V30 1191 H 112.471 3.66534 2.32025 0
M  V30 1192 H 113.142 3.8642 3.94187 0
M  V30 1193 H 115.618 1.95625 3.67247 0
M  V30 1194 H 114.494 2.18015 5.03747 0
M  V30 1195 H 114.755 0.570692 4.38401 0
M  V30 1196 N 113.814 -1.1601 1.06675 0
M  V30 1197 C 114.764 -2.18512 0.650888 0
M  V30 1198 C 115.748 -1.57677 -0.320441 0
M  V30 1199 O 116.94 -1.76482 -0.135266 0
M  V30 1200 C 114.069 -3.43273 0.0429255 0
M  V30 1201 C 113.155 -4.11176 1.03898 0
M  V30 1202 N 113.546 -4.54672 2.216 0
M  V30 1203 C 111.844 -4.37417 0.870779 0
M  V30 1204 C 112.545 -5.07248 2.84736 0
M  V30 1205 N 111.521 -5.0037 2.12441 0
M  V30 1206 H 115.323 -2.49863 1.54745 0
M  V30 1207 H 112.837 -1.32503 0.938975 0
M  V30 1208 H 114.834 -4.16006 -0.272857 0
M  V30 1209 H 113.494 -3.13408 -0.84884 0
M  V30 1210 H 114.505 -4.4828 2.59356 0
M  V30 1211 H 111.182 -4.17488 0.0313293 0
M  V30 1212 H 112.572 -5.50912 3.84636 0
M  V30 1213 N 115.292 -0.849877 -1.32721 0
M  V30 1214 C 116.222 -0.306308 -2.31482 0
M  V30 1215 C 117.203 0.591952 -1.59468 0
M  V30 1216 O 118.388 0.513199 -1.87296 0
M  V30 1217 C 115.518 0.510204 -3.43532 0
M  V30 1218 C 114.472 -0.293209 -4.26994 0
M  V30 1219 C 113.798 0.647743 -5.30762 0
M  V30 1220 C 115.098 -1.51634 -4.99804 0
M  V30 1221 H 116.792 -1.13153 -2.77195 0
M  V30 1222 H 114.338 -0.545553 -1.33266 0
M  V30 1223 H 116.291 0.900856 -4.11658 0
M  V30 1224 H 115.015 1.36874 -2.96535 0
M  V30 1225 H 113.674 -0.665555 -3.60508 0
M  V30 1226 H 113.322 1.50299 -4.8002 0
M  V30 1227 H 113.022 0.11422 -5.87489 0
M  V30 1228 H 114.546 1.03567 -6.01753 0
M  V30 1229 H 115.96 -1.19824 -5.60638 0
M  V30 1230 H 114.357 -1.98745 -5.66234 0
M  V30 1231 H 115.427 -2.28018 -4.27943 0
M  V30 1232 N 116.77 1.45427 -0.607355 0
M  V30 1233 C 118.018 2.01841 -0.102253 0
M  V30 1234 C 118.339 1.47832 1.27164 0
M  V30 1235 O 117.609 0.672497 1.83995 0
M  V30 1236 H 116.189 0.746188 -0.0348101 0
M  V30 1237 H 118.851 1.78229 -0.7887 0
M  V30 1238 H 117.947 3.12057 -0.0518585 0
M  V30 1239 N 118.248 0.346503 1.53744 0
M  V30 1240 C 119.659 -0.136779 1.86198 0
M  V30 1241 C 120.01 -1.49749 1.26766 0
M  V30 1242 O 119.135 -2.08417 0.582355 0
M  V30 1243 C 119.73 -0.254966 3.37839 0
M  V30 1244 C 118.289 -0.682482 3.70161 0
M  V30 1245 C 117.436 0.181981 2.76702 0
M  V30 1246 H 120.387 0.565994 1.48264 0
M  V30 1247 H 120.408 -1.08195 3.64793 0
M  V30 1248 H 119.92 0.735526 3.81066 0
M  V30 1249 H 118.021 -1.68189 3.3248 0
M  V30 1250 H 118.134 -0.470326 4.76786 0
M  V30 1251 H 116.498 -0.34615 2.52337 0
M  V30 1252 H 117.281 1.16966 3.2276 0
M  V30 1253 N 119.726 -1.57421 0.075193 0
M  V30 1254 C 120.674 -2.14124 -0.908508 0
M  V30 1255 C 121.668 -1.07898 -1.30592 0
M  V30 1256 O 122.874 -1.26273 -1.28277 0
M  V30 1257 H 119.249 -0.684707 -0.310935 0
M  V30 1258 H 121.22 -2.95634 -0.405374 0
M  V30 1259 C 119.969 -2.72044 -2.16535 0
M  V30 1260 H 119.292 -3.53456 -1.86839 0
M  V30 1261 H 120.732 -3.15311 -2.83469 0
M  V30 1262 C 119.191 -1.66968 -2.92615 0
M  V30 1263 O 119.721 -1.0967 -3.86439 0
M  V30 1264 N 117.927 -1.37923 -2.55784 0
M  V30 1265 H 117.474 -1.84706 -1.79559 0
M  V30 1266 H 117.432 -0.67852 -3.06991 0
M  V30 1267 N 121.204 0.198386 -1.56346 0
M  V30 1268 C 122.152 1.26538 -1.95169 0
M  V30 1269 C 123.146 1.47295 -0.836685 0
M  V30 1270 O 124.352 1.48195 -1.02167 0
M  V30 1271 H 120.727 0.424744 -0.620561 0
M  V30 1272 H 122.698 0.910904 -2.84157 0
M  V30 1273 C 121.447 2.6035 -2.30463 0
M  V30 1274 H 120.77 2.45192 -3.15786 0
M  V30 1275 H 122.21 3.33762 -2.61494 0
M  V30 1276 C 120.669 3.17096 -1.13806 0
M  V30 1277 O 121.199 3.99588 -0.41135 0
M  V30 1278 N 119.405 2.75795 -0.915736 0
M  V30 1279 H 118.952 2.08816 -1.50843 0
M  V30 1280 H 118.91 3.14101 -0.136979 0
M  V30 1281 N 122.682 1.50554 0.465978 0
M  V30 1282 C 124.098 1.38093 0.800154 0
M  V30 1283 C 124.298 0.440988 1.96615 0
M  V30 1284 O 123.354 -0.114499 2.5224 0
M  V30 1285 C 124.667 2.79565 1.10742 0
M  V30 1286 C 126.215 2.88516 1.21357 0
M  V30 1287 C 126.69 4.30833 1.55393 0
M  V30 1288 N 128.181 4.33807 1.62375 0
M  V30 1289 C 128.916 5.40927 1.90225 0
M  V30 1290 N 128.412 6.58247 2.16062 0
M  V30 1291 N 130.205 5.28376 1.9177 0
M  V30 1292 H 122.356 2.10237 -0.302366 0
M  V30 1293 H 124.619 0.945203 -0.0727746 0
M  V30 1294 H 124.325 3.50208 0.323661 0
M  V30 1295 H 124.199 3.17125 2.04234 0
M  V30 1296 H 126.586 2.1809 1.98799 0
M  V30 1297 H 126.667 2.54492 0.258321 0
M  V30 1298 H 126.311 5.01799 0.784889 0
M  V30 1299 H 126.241 4.62347 2.52076 0
M  V30 1300 H 128.732 3.49212 1.44427 0
M  V30 1301 H 129.045 7.3569 2.36601 0
M  V30 1302 H 127.39 6.61413 2.13444 0
M  V30 1303 H 130.581 4.35715 1.71085 0
M  V30 1304 H 130.754 6.11944 2.13139 0
M  V30 1305 N 124.16 -0.719506 1.40217 0
M  V30 1306 C 125.388 -1.50864 1.41589 0
M  V30 1307 C 125.803 -1.88794 0.0145275 0
M  V30 1308 O 125.16 -1.55174 -0.960594 0
M  V30 1309 C 125.211 -2.78646 2.30302 0
M  V30 1310 O 124.932 -2.42321 3.64983 0
M  V30 1311 C 126.433 -3.72569 2.40224 0
M  V30 1312 H 123.653 -0.465709 0.48307 0
M  V30 1313 H 126.197 -0.88785 1.84221 0
M  V30 1314 H 124.352 -3.37019 1.91042 0
M  V30 1315 H 124.766 -3.24514 4.12057 0
M  V30 1316 H 126.24 -4.5908 3.06512 0
M  V30 1317 H 126.717 -4.15403 1.42608 0
M  V30 1318 H 127.323 -3.20109 2.80019 0
M  V30 1319 N 125.638 -1.25649 -0.95132 0
M  V30 1320 C 126.884 -1.10757 -1.69884 0
M  V30 1321 C 127.217 0.350061 -1.91019 0
M  V30 1322 O 126.492 1.25783 -1.48354 0
M  V30 1323 C 126.775 -1.86606 -3.07978 0
M  V30 1324 C 126.628 -3.40217 -2.94232 0
M  V30 1325 C 127.947 -1.65182 -4.07925 0
M  V30 1326 H 125.066 -0.40374 -0.616574 0
M  V30 1327 H 127.708 -1.54521 -1.10558 0
M  V30 1328 H 125.858 -1.49409 -3.58621 0
M  V30 1329 H 127.53 -3.87108 -2.50889 0
M  V30 1330 H 125.773 -3.67759 -2.30078 0
M  V30 1331 H 126.444 -3.88505 -3.92133 0
M  V30 1332 H 128.92 -1.9757 -3.66204 0
M  V30 1333 H 127.796 -2.20683 -5.02583 0
M  V30 1334 H 128.057 -0.593933 -4.38092 0
M  V30 1335 N 127.117 1.15442 -1.07289 0
M  V30 1336 C 128.047 2.22312 -0.714107 0
M  V30 1337 C 129.028 1.67467 0.298155 0
M  V30 1338 O 130.213 1.93445 0.171048 0
M  V30 1339 C 127.343 3.47124 -0.110448 0
M  V30 1340 C 126.297 4.14926 -1.04979 0
M  V30 1341 C 125.623 5.33807 -0.308924 0
M  V30 1342 C 126.923 4.64762 -2.38314 0
M  V30 1343 H 128.617 2.5258 -1.6076 0
M  V30 1344 H 126.163 1.21404 -0.77441 0
M  V30 1345 H 128.116 4.21124 0.152482 0
M  V30 1346 H 126.84 3.16187 0.81812 0
M  V30 1347 H 125.499 3.42866 -1.29764 0
M  V30 1348 H 125.147 4.99126 0.623084 0
M  V30 1349 H 124.847 5.80113 -0.935036 0
M  V30 1350 H 126.371 6.10576 -0.0537771 0
M  V30 1351 H 127.785 5.30292 -2.1786 0
M  V30 1352 H 126.182 5.21728 -2.96514 0
M  V30 1353 H 127.252 3.80434 -3.00663 0
M  V30 1354 N 128.595 0.856903 1.32268 0
M  V30 1355 C 129.844 0.457599 1.96441 0
M  V30 1356 C 130.157 -0.992426 1.68553 0
M  V30 1357 O 131.363 -1.49727 2.26482 0
M  V30 1358 C 129.819 0.767358 3.51624 0
M  V30 1359 C 129.427 2.23326 3.88367 0
M  V30 1360 C 131.171 0.435887 4.22256 0
M  V30 1361 C 129.078 2.48613 5.36606 0
M  V30 1362 H 128.008 0.167387 0.735185 0
M  V30 1363 H 130.659 1.048 1.5063 0
M  V30 1364 H 129.041 0.106367 3.95857 0
M  V30 1365 H 130.215 2.93623 3.55137 0
M  V30 1366 H 128.53 2.52948 3.30766 0
M  V30 1367 H 131.127 0.602202 5.31298 0
M  V30 1368 H 131.47 -0.622672 4.11617 0
M  V30 1369 H 132.003 1.05286 3.83614 0
M  V30 1370 H 128.742 3.53101 5.52268 0
M  V30 1371 H 128.262 1.82896 5.71235 0
M  V30 1372 H 129.941 2.32676 6.03714 0
M  V30 1373 N 130.073 -1.45103 0.615059 0
M  V30 1374 C 131.321 -2.01784 0.112955 0
M  V30 1375 C 131.642 -1.48504 -1.26378 0
M  V30 1376 O 130.912 -0.682245 -1.83636 0
M  V30 1377 H 129.492 -0.745993 0.0387668 0
M  V30 1378 H 132.154 -1.77808 0.798141 0
M  V30 1379 H 131.25 -3.12025 0.0684069 0
M  V30 1380 N 131.551 -0.354651 -1.53558 0
M  V30 1381 C 132.461 0.50515 -2.29097 0
M  V30 1382 C 133.477 1.10223 -1.34636 0
M  V30 1383 O 134.653 1.11553 -1.67684 0
M  V30 1384 C 131.718 1.63479 -3.05738 0
M  V30 1385 C 130.779 1.06636 -4.15845 0
M  V30 1386 C 130.012 2.14217 -4.88822 0
M  V30 1387 O 130.235 3.35137 -4.61562 0
M  V30 1388 O 129.169 1.77887 -5.75013 0
M  V30 1389 H 132.995 -0.109237 -3.03503 0
M  V30 1390 H 130.58 -0.119357 -1.48922 0
M  V30 1391 H 132.462 2.2918 -3.5363 0
M  V30 1392 H 131.137 2.23478 -2.34178 0
M  V30 1393 H 130.044 0.373565 -3.7223 0
M  V30 1394 H 131.377 0.511081 -4.89539 0
M  V30 1395 N 133.029 1.57378 -0.0835403 0
M  V30 1396 C 134.259 1.97975 0.590713 0
M  V30 1397 C 134.667 0.961083 1.62972 0
M  V30 1398 O 134.01 -0.0590879 1.83605 0
M  V30 1399 C 134.072 3.34915 1.3066 0
M  V30 1400 C 133.736 4.55069 0.419698 0
M  V30 1401 C 134.733 5.18868 -0.32749 0
M  V30 1402 C 132.418 5.0114 0.341137 0
M  V30 1403 C 134.412 6.27098 -1.14134 0
M  V30 1404 C 132.099 6.0924 -0.476374 0
M  V30 1405 C 133.097 6.72083 -1.21627 0
M  V30 1406 O 132.785 7.781 -2.02028 0
M  V30 1407 H 132.517 0.655818 0.163947 0
M  V30 1408 H 135.071 2.04807 -0.156021 0
M  V30 1409 H 133.301 3.24733 2.09966 0
M  V30 1410 H 134.99 3.60037 1.87424 0
M  V30 1411 H 135.756 4.84211 -0.276459 0
M  V30 1412 H 131.635 4.51996 0.90668 0
M  V30 1413 H 135.179 6.7608 -1.71935 0
M  V30 1414 H 131.076 6.43329 -0.528927 0
M  V30 1415 H 131.844 7.95034 -1.94586 0
M  V30 1416 N 134.507 -0.190092 1.56449 0
M  V30 1417 C 135.437 -1.23816 1.97969 0
M  V30 1418 C 136.418 -1.47201 0.852395 0
M  V30 1419 O 137.603 -1.58854 1.1171 0
M  V30 1420 C 134.733 -2.5813 2.3235 0
M  V30 1421 C 133.687 -2.49348 3.47864 0
M  V30 1422 C 133.013 -3.8798 3.67934 0
M  V30 1423 C 134.313 -2.01424 4.81898 0
M  V30 1424 H 136.007 -0.89311 2.85769 0
M  V30 1425 H 133.553 -0.428177 1.37487 0
M  V30 1426 H 135.506 -3.31637 2.59991 0
M  V30 1427 H 134.23 -2.94386 1.41438 0
M  V30 1428 H 132.889 -1.78297 3.20321 0
M  V30 1429 H 132.537 -4.21597 2.74344 0
M  V30 1430 H 132.237 -3.82978 4.45648 0
M  V30 1431 H 133.761 -4.63101 3.97957 0
M  V30 1432 H 135.175 -2.64693 5.08538 0
M  V30 1433 H 133.572 -2.07413 5.63116 0
M  V30 1434 H 134.642 -0.967677 4.75146 0
M  V30 1435 N 135.985 -1.50799 -0.457987 0
M  V30 1436 C 136.917 -1.66786 -1.57211 0
M  V30 1437 C 137.93 -0.548962 -1.53265 0
M  V30 1438 O 139.119 -0.8226 -1.58416 0
M  V30 1439 C 136.219 -1.64834 -2.96113 0
M  V30 1440 C 135.392 -2.92971 -3.24787 0
M  V30 1441 C 134.451 -2.83485 -4.43309 0
M  V30 1442 O 133.477 -3.5744 -4.42973 0
M  V30 1443 N 134.679 -1.97929 -5.45714 0
M  V30 1444 H 137.444 -2.62889 -1.43909 0
M  V30 1445 H 135.005 -1.48427 -0.646617 0
M  V30 1446 H 136.997 -1.56084 -3.7339 0
M  V30 1447 H 135.567 -0.764118 -3.03117 0
M  V30 1448 H 134.787 -3.15749 -2.36 0
M  V30 1449 H 136.075 -3.77834 -3.40762 0
M  V30 1450 H 135.473 -1.37182 -5.48815 0
M  V30 1451 H 134.03 -1.95073 -6.21924 0
M  V30 1452 N 137.463 0.71206 -1.40597 0
M  V30 1453 C 138.712 1.46754 -1.38369 0
M  V30 1454 C 139.025 1.95598 0.0097839 0
M  V30 1455 O 140.231 2.71059 0.154677 0
M  V30 1456 C 138.687 2.65289 -2.43207 0
M  V30 1457 C 138.295 2.23301 -3.88382 0
M  V30 1458 C 140.039 3.43008 -2.50091 0
M  V30 1459 C 137.946 3.38696 -4.84808 0
M  V30 1460 H 136.876 0.55118 -0.514506 0
M  V30 1461 H 139.527 0.774616 -1.66349 0
M  V30 1462 H 137.909 3.36769 -2.08332 0
M  V30 1463 H 139.083 1.59218 -4.32419 0
M  V30 1464 H 137.398 1.58618 -3.85006 0
M  V30 1465 H 139.995 4.28881 -3.1932 0
M  V30 1466 H 140.338 3.87065 -1.53253 0
M  V30 1467 H 140.871 2.78574 -2.83974 0
M  V30 1468 H 137.61 2.99668 -5.82992 0
M  V30 1469 H 137.13 4.01683 -4.45433 0
M  V30 1470 H 138.809 4.04712 -5.04794 0
M  V30 1471 N 138.941 1.26152 0.944643 0
M  V30 1472 C 139.888 1.07408 2.04285 0
M  V30 1473 C 140.858 -0.0198413 1.66088 0
M  V30 1474 O 142.043 0.139264 1.90291 0
M  V30 1475 C 139.183 0.70945 3.37729 0
M  V30 1476 C 138.296 1.87926 3.88983 0
M  V30 1477 C 137.431 1.45807 5.10797 0
M  V30 1478 C 136.47 2.5964 5.54305 0
M  V30 1479 N 135.607 2.18226 6.67324 0
M  V30 1480 H 140.447 2.01389 2.1965 0
M  V30 1481 H 137.984 1.00275 1.07626 0
M  V30 1482 H 139.942 0.478948 4.14442 0
M  V30 1483 H 138.572 -0.193389 3.2222 0
M  V30 1484 H 137.624 2.22279 3.08701 0
M  V30 1485 H 138.936 2.73377 4.17213 0
M  V30 1486 H 138.09 1.18781 5.94959 0
M  V30 1487 H 136.829 0.574414 4.84305 0
M  V30 1488 H 135.834 2.87399 4.68702 0
M  V30 1489 H 137.059 3.48599 5.828 0
M  V30 1490 H 135.005 1.3229 6.42523 0
M  V30 1491 H 134.922 2.97221 6.95123 0
M  V30 1492 H 136.19 1.94403 7.54869 0
M  V30 1493 N 140.419 -1.14872 1.07899 0
M  V30 1494 C 141.667 -1.85422 0.803941 0
M  V30 1495 C 141.988 -1.83051 -0.67211 0
M  V30 1496 O 141.258 -1.27532 -1.48703 0
M  V30 1497 H 139.838 -0.686537 0.294408 0
M  V30 1498 H 142.5 -1.39226 1.3639 0
M  V30 1499 H 141.596 -2.90399 1.14346 0
M  V30 1500 N 141.898 -0.863906 -1.31812 0
M  V30 1501 C 142.861 -0.320212 -2.26952 0
M  V30 1502 C 143.861 0.525369 -1.51975 0
M  V30 1503 O 145.051 0.335547 -1.70938 0
M  V30 1504 C 142.183 0.545919 -3.365 0
M  V30 1505 H 143.376 -1.16004 -2.76556 0
M  V30 1506 H 140.929 -0.638995 -1.42641 0
M  V30 1507 H 141.664 1.40718 -2.92179 0
M  V30 1508 H 141.449 -0.0594674 -3.92055 0
M  V30 1509 H 142.939 0.918796 -4.07367 0
M  V30 1510 N 143.376 1.44774 -0.622745 0
M  V30 1511 C 144.604 2.06487 -0.130722 0
M  V30 1512 C 145.019 1.46476 1.19123 0
M  V30 1513 O 144.376 0.584502 1.72887 0
M  V30 1514 C 144.427 3.615 -0.000807207 0
M  V30 1515 O 144.148 4.19274 -1.27048 0
M  V30 1516 C 145.649 4.40229 0.520898 0
M  V30 1517 H 142.869 0.666704 -0.0758106 0
M  V30 1518 H 145.413 1.85779 -0.854774 0
M  V30 1519 H 143.568 3.81498 0.673643 0
M  V30 1520 H 143.982 5.12622 -1.1099 0
M  V30 1521 H 145.456 5.49144 0.560838 0
M  V30 1522 H 145.933 4.1108 1.54627 0
M  V30 1523 H 146.539 4.25131 -0.120018 0
M  V30 1524 N 144.854 0.36279 1.53368 0
M  V30 1525 C 146.265 -0.117022 1.86333 0
M  V30 1526 C 146.616 -1.48397 1.28347 0
M  V30 1527 O 145.741 -2.07787 0.604428 0
M  V30 1528 C 146.336 -0.21912 3.38091 0
M  V30 1529 C 144.895 -0.643184 3.70864 0
M  V30 1530 C 144.042 0.211318 2.76494 0
M  V30 1531 H 146.993 0.581687 1.47655 0
M  V30 1532 H 147.014 -1.04319 3.6592 0
M  V30 1533 H 146.526 0.775902 3.80265 0
M  V30 1534 H 144.627 -1.64654 3.34245 0
M  V30 1535 H 144.74 -0.41973 4.77258 0
M  V30 1536 H 143.104 -0.319367 2.5269 0
M  V30 1537 H 143.887 1.20383 3.21501 0
M  V30 1538 N 146.332 -1.57332 0.0918853 0
M  V30 1539 C 147.748 -1.57389 -0.264766 0
M  V30 1540 C 147.948 -1.10281 -1.68643 0
M  V30 1541 O 147.004 -0.777801 -2.40222 0
M  V30 1542 C 148.317 -3.00648 -0.0561195 0
M  V30 1543 C 149.865 -3.12754 -0.124116 0
M  V30 1544 C 150.34 -4.57965 0.0564972 0
M  V30 1545 N 151.831 -4.632 0.00155611 0
M  V30 1546 C 152.566 -5.73281 0.116598 0
M  V30 1547 N 152.062 -6.92208 0.286294 0
M  V30 1548 N 153.855 -5.6207 0.0580973 0
M  V30 1549 H 146.006 -1.86262 1.02079 0
M  V30 1550 H 148.269 -0.859579 0.399786 0
M  V30 1551 H 147.975 -3.393 0.925669 0
M  V30 1552 H 147.849 -3.68623 -0.799823 0
M  V30 1553 H 150.236 -2.73976 -1.09641 0
M  V30 1554 H 150.317 -2.47377 0.651024 0
M  V30 1555 H 149.961 -4.97436 1.02564 0
M  V30 1556 H 149.891 -5.21399 -0.738297 0
M  V30 1557 H 152.382 -3.77686 -0.127192 0
M  V30 1558 H 152.695 -7.71934 0.365676 0
M  V30 1559 H 151.04 -6.94254 0.32192 0
M  V30 1560 H 154.231 -4.68043 -0.0733204 0
M  V30 1561 H 154.404 -6.47824 0.151203 0
M  V30 1562 N 147.81 0.181792 -1.56548 0
M  V30 1563 C 149.087 0.926765 -1.72251 0
M  V30 1564 C 149.467 2.00831 -0.650386 0
M  V30 1565 O 148.815 2.26008 0.336521 0
M  V30 1566 C 149.025 1.50106 -3.1507 0
M  V30 1567 C 150.373 1.97805 -3.75711 0
M  V30 1568 O 151.397 1.59922 -3.18282 0
M  V30 1569 O 150.256 2.67555 -4.76525 0
M  V30 1570 H 147.35 0.435506 -0.703039 0
M  V30 1571 H 149.896 0.170443 -1.68842 0
M  V30 1572 H 148.668 0.72212 -3.84579 0
M  V30 1573 H 148.291 2.32186 -3.22763 0
M  V30 1574 N 149.288 1.51039 0.449983 0
M  V30 1575 C 150.513 1.6715 1.22783 0
M  V30 1576 C 150.938 0.363081 1.84563 0
M  V30 1577 O 150.296 -0.675433 1.68249 0
M  V30 1578 C 150.344 2.77985 2.29689 0
M  V30 1579 O 149.448 2.40707 3.34864 0
M  V30 1580 H 148.789 0.557746 0.360299 0
M  V30 1581 H 151.319 1.97535 0.533005 0
M  V30 1582 H 151.329 3.01693 2.74673 0
M  V30 1583 H 150.004 3.72935 1.84098 0
M  V30 1584 H 148.581 2.27523 2.95445 0
M  V30 1585 N 150.766 -0.704594 1.40972 0
M  V30 1586 C 152.014 -1.46169 1.39568 0
M  V30 1587 C 152.335 -1.95 0.00253745 0
M  V30 1588 O 151.605 -1.71095 -0.954114 0
M  V30 1589 H 150.185 -0.542326 0.513704 0
M  V30 1590 H 152.847 -0.834553 1.76128 0
M  V30 1591 H 151.943 -2.32922 2.07735 0
M  V30 1592 N 152.244 -1.26651 -0.937939 0
M  V30 1593 C 153.174 -1.10993 -2.05433 0
M  V30 1594 C 154.155 -0.0142161 -1.70094 0
M  V30 1595 O 155.34 -0.186837 -1.93299 0
M  V30 1596 C 152.47 -0.745561 -3.39203 0
M  V30 1597 C 151.424 -1.79337 -3.88616 0
M  V30 1598 C 150.75 -1.28324 -5.19073 0
M  V30 1599 C 152.05 -3.19553 -4.13138 0
M  V30 1600 H 153.744 -2.0438 -2.1879 0
M  V30 1601 H 151.29 -0.984041 -1.05131 0
M  V30 1602 H 153.243 -0.622888 -4.16771 0
M  V30 1603 H 151.967 0.22401 -3.25831 0
M  V30 1604 H 150.626 -1.90477 -3.13231 0
M  V30 1605 H 150.274 -0.303414 -5.02084 0
M  V30 1606 H 149.974 -1.98369 -5.53103 0
M  V30 1607 H 151.498 -1.1733 -5.99221 0
M  V30 1608 H 152.912 -3.11471 -4.81309 0
M  V30 1609 H 151.309 -3.87218 -4.58457 0
M  V30 1610 H 152.379 -3.65368 -3.18801 0
M  V30 1611 N 153.722 1.14298 -1.08507 0
M  V30 1612 C 154.952 1.88945 -0.835663 0
M  V30 1613 C 155.36 1.78894 0.615928 0
M  V30 1614 O 154.703 1.1468 1.43506 0
M  V30 1615 C 154.765 3.39585 -1.17994 0
M  V30 1616 C 154.429 3.7342 -2.63451 0
M  V30 1617 C 155.426 3.73454 -3.61702 0
M  V30 1618 C 153.111 4.03368 -2.99332 0
M  V30 1619 C 155.105 4.02961 -4.93864 0
M  V30 1620 C 152.792 4.32538 -4.31687 0
M  V30 1621 C 153.79 4.32318 -5.28763 0
M  V30 1622 O 153.478 4.6078 -6.58739 0
M  V30 1623 H 153.21 0.605307 -0.300965 0
M  V30 1624 H 155.764 1.45673 -1.44806 0
M  V30 1625 H 153.994 3.83315 -0.51055 0
M  V30 1626 H 155.683 3.9554 -0.911182 0
M  V30 1627 H 156.449 3.50403 -3.35325 0
M  V30 1628 H 152.328 4.02692 -2.24411 0
M  V30 1629 H 155.872 4.02704 -5.69627 0
M  V30 1630 H 151.769 4.55059 -4.57812 0
M  V30 1631 H 152.537 4.78492 -6.64069 0
M  V30 1632 N 155.201 0.870884 1.31352 0
M  V30 1633 C 156.164 0.332243 2.26779 0
M  V30 1634 C 157.164 -0.517302 1.52252 0
M  V30 1635 O 158.354 -0.326477 1.71113 0
M  V30 1636 C 155.486 -0.528066 3.36785 0
M  V30 1637 H 156.679 1.17469 2.75937 0
M  V30 1638 H 154.232 0.64655 1.423 0
M  V30 1639 H 154.967 -1.39167 2.92922 0
M  V30 1640 H 154.752 0.0802582 3.92018 0
M  V30 1641 H 156.242 -0.897179 4.07849 0
M  V30 1642 N 156.679 -1.44442 0.630414 0
M  V30 1643 C 157.919 -2.03934 0.137919 0
M  V30 1644 C 158.283 -1.48509 -1.21692 0
M  V30 1645 O 159.484 -1.99499 -1.80149 0
M  V30 1646 C 157.755 -3.57187 0.123373 0
M  V30 1647 S 159.314 -4.37741 -0.304604 0
M  V30 1648 H 156.132 -0.708401 0.0607353 0
M  V30 1649 H 158.734 -1.76835 0.833643 0
M  V30 1650 H 157.438 -3.95032 1.11256 0
M  V30 1651 H 156.969 -3.88895 -0.59362 0
M  V30 1652 H 158.984 -4.71403 -1.54897 0
M  V30 1653 N 158.157 -0.370918 -1.53173 0
M  V30 1654 C 159.385 0.217704 -2.05751 0
M  V30 1655 C 159.8 1.42018 -1.24404 0
M  V30 1656 O 159.157 1.80245 -0.286033 0
M  V30 1657 C 159.208 0.605954 -3.56385 0
M  V30 1658 O 158.929 -0.548734 -4.3465 0
M  V30 1659 C 160.43 1.2524 -4.25241 0
M  V30 1660 H 157.65 0.0371659 -0.66997 0
M  V30 1661 H 160.194 -0.530832 -1.9749 0
M  V30 1662 H 158.349 1.3044 -3.6478 0
M  V30 1663 H 158.763 -0.23376 -5.23979 0
M  V30 1664 H 160.237 1.47458 -5.3194 0
M  V30 1665 H 160.714 2.2143 -3.79296 0
M  V30 1666 H 161.32 0.595233 -4.21114 0
M  V30 1667 N 159.635 1.57281 -0.100228 0
M  V30 1668 C 160.598 2.13158 0.842398 0
M  V30 1669 C 161.598 1.06202 1.20738 0
M  V30 1670 O 162.788 1.32066 1.13597 0
M  V30 1671 C 159.92 2.65639 2.13655 0
M  V30 1672 H 161.113 2.97766 0.357114 0
M  V30 1673 H 158.666 1.5559 0.148823 0
M  V30 1674 H 159.401 1.84566 2.66657 0
M  V30 1675 H 159.186 3.43844 1.88451 0
M  V30 1676 H 160.676 3.08846 2.81077 0
M  V30 1677 N 161.113 -0.173488 1.56642 0
M  V30 1678 C 162.338 -0.910149 1.86363 0
M  V30 1679 C 162.763 -1.75132 0.686318 0
M  V30 1680 O 162.121 -1.77595 -0.364643 0
M  V30 1681 C 162.169 -1.76447 3.14482 0
M  V30 1682 O 161.273 -2.86584 2.96553 0
M  V30 1683 H 160.614 -0.255086 0.613047 0
M  V30 1684 H 163.144 -0.172283 2.03873 0
M  V30 1685 H 163.154 -2.16483 3.45831 0
M  V30 1686 H 161.829 -1.14658 3.99783 0
M  V30 1687 H 160.406 -2.50146 2.76553 0
M  V30 1688 N 162.591 -1.51276 -0.441967 0
M  V30 1689 C 164.007 -1.39349 -0.778083 0
M  V30 1690 C 164.207 -0.472212 -1.95889 0
M  V30 1691 O 163.263 0.0743551 -2.5239 0
M  V30 1692 C 164.576 -2.81292 -1.0628 0
M  V30 1693 C 166.124 -2.9041 -1.16751 0
M  V30 1694 C 166.599 -4.33251 -1.48519 0
M  V30 1695 N 168.09 -4.36336 -1.55453 0
M  V30 1696 C 168.825 -5.43885 -1.81596 0
M  V30 1697 N 168.321 -6.61601 -2.05562 0
M  V30 1698 N 170.114 -5.3136 -1.8334 0
M  V30 1699 H 162.265 -2.09729 0.335774 0
M  V30 1700 H 164.528 -0.943925 0.0878028 0
M  V30 1701 H 164.234 -3.50678 -0.267905 0
M  V30 1702 H 164.108 -3.20334 -1.99163 0
M  V30 1703 H 166.495 -2.21225 -1.95304 0
M  V30 1704 H 166.576 -2.54871 -0.217801 0
M  V30 1705 H 166.22 -5.02984 -0.704958 0
M  V30 1706 H 166.15 -4.66299 -2.44689 0
M  V30 1707 H 168.641 -3.51466 -1.38853 0
M  V30 1708 H 168.954 -7.39361 -2.24867 0
M  V30 1709 H 167.299 -6.64725 -2.02894 0
M  V30 1710 H 170.49 -4.38382 -1.64132 0
M  V30 1711 H 170.663 -6.15258 -2.03377 0
M  V30 1712 N 164.069 0.697108 -1.41344 0
M  V30 1713 C 165.297 1.48593 -1.43972 0
M  V30 1714 C 165.712 1.88747 -0.0445612 0
M  V30 1715 O 165.069 1.56682 0.935785 0
M  V30 1716 C 165.12 2.74946 -2.34706 0
M  V30 1717 O 164.841 2.36484 -3.68791 0
M  V30 1718 C 166.342 3.687 -2.46121 0
M  V30 1719 H 163.562 0.457964 -0.490418 0
M  V30 1720 H 166.106 0.858429 -1.8561 0
M  V30 1721 H 164.261 3.33937 -1.9638 0
M  V30 1722 H 164.675 3.17918 -4.17167 0
M  V30 1723 H 166.149 4.54145 -3.13777 0
M  V30 1724 H 166.626 4.13081 -1.49199 0
M  V30 1725 H 167.232 3.15613 -2.85076 0
M  V30 1726 N 165.547 1.27147 0.931209 0
M  V30 1727 C 166.793 1.13446 1.68101 0
M  V30 1728 C 167.126 -0.319628 1.91552 0
M  V30 1729 O 166.401 -1.23407 1.50336 0
M  V30 1730 C 166.684 1.91482 3.0497 0
M  V30 1731 C 166.537 3.44855 2.88782 0
M  V30 1732 C 167.856 1.71651 4.05246 0
M  V30 1733 H 164.975 0.413498 0.610072 0
M  V30 1734 H 167.617 1.56261 1.08086 0
M  V30 1735 H 165.767 1.55095 3.56199 0
M  V30 1736 H 167.439 3.9105 2.44698 0
M  V30 1737 H 165.682 3.71373 2.24198 0
M  V30 1738 H 166.353 3.94694 3.85902 0
M  V30 1739 H 168.829 2.0337 3.63015 0
M  V30 1740 H 167.705 2.28651 4.99009 0
M  V30 1741 H 167.966 0.663555 4.37092 0
M  V30 1742 N 167.025 -1.13721 1.09112 0
M  V30 1743 C 168.302 -1.81155 0.737706 0
M  V30 1744 C 168.682 -1.96253 -0.777683 0
M  V30 1745 O 168.03 -1.52807 -1.69889 0
M  V30 1746 C 168.24 -3.16392 1.47299 0
M  V30 1747 C 169.588 -3.91787 1.63671 0
M  V30 1748 O 170.612 -3.26005 1.43524 0
M  V30 1749 O 169.471 -5.0977 1.96969 0
M  V30 1750 H 166.565 -0.783518 0.26463 0
M  V30 1751 H 169.111 -1.20676 1.19312 0
M  V30 1752 H 167.883 -3.0061 2.50498 0
M  V30 1753 H 167.506 -3.8457 1.00953 0
M  V30 1754 N 168.503 -0.877838 -1.30888 0
M  V30 1755 C 169.728 -0.506629 -2.01117 0
M  V30 1756 C 170.153 0.895564 -1.65412 0
M  V30 1757 O 169.511 1.5923 -0.866922 0
M  V30 1758 C 169.559 -0.680223 -3.54126 0
M  V30 1759 O 168.663 0.277033 -4.11468 0
M  V30 1760 H 168.004 -0.200518 -0.633 0
M  V30 1761 H 170.534 -1.18342 -1.66902 0
M  V30 1762 H 170.544 -0.5765 -4.03907 0
M  V30 1763 H 169.219 -1.70261 -3.79452 0
M  V30 1764 H 167.796 0.127606 -3.72682 0
M  V30 1765 N 169.982 1.44106 -0.638065 0
M  V30 1766 C 170.892 2.34513 0.0637334 0
M  V30 1767 C 171.908 1.53018 0.828346 0
M  V30 1768 O 173.084 1.85723 0.779036 0
M  V30 1769 C 170.149 3.31095 1.02844 0
M  V30 1770 C 169.21 4.28497 0.26244 0
M  V30 1771 C 168.443 5.20465 1.1812 0
M  V30 1772 O 168.666 5.16514 2.42011 0
M  V30 1773 O 167.6 5.98251 0.661774 0
M  V30 1774 H 171.426 2.95989 -0.68003 0
M  V30 1775 H 169.011 1.43994 -0.398252 0
M  V30 1776 H 170.893 3.90526 1.58327 0
M  V30 1777 H 169.568 2.72144 1.7527 0
M  V30 1778 H 168.475 3.72592 -0.335602 0
M  V30 1779 H 169.808 4.90388 -0.421936 0
M  V30 1780 N 171.46 0.379036 1.52974 0
M  V30 1781 C 172.688 -0.20679 2.05864 0
M  V30 1782 C 173.103 -1.41356 1.25155 0
M  V30 1783 O 172.46 -1.8009 0.295588 0
M  V30 1784 C 172.511 -0.587045 3.56702 0
M  V30 1785 O 172.232 0.571776 4.34353 0
M  V30 1786 C 173.733 -1.22983 4.25899 0
M  V30 1787 H 170.953 -0.0336123 0.670158 0
M  V30 1788 H 173.497 0.541298 1.97206 0
M  V30 1789 H 171.652 -1.28504 3.65466 0
M  V30 1790 H 172.066 0.261544 5.23847 0
M  V30 1791 H 173.54 -1.44635 5.32715 0
M  V30 1792 H 174.017 -2.19416 3.80465 0
M  V30 1793 H 174.623 -0.572892 4.21424 0
M  V30 1794 N 172.938 -1.57226 0.108567 0
M  V30 1795 C 174.184 -1.95919 -0.546564 0
M  V30 1796 C 174.539 -0.990417 -1.6495 0
M  V30 1797 O 173.832 -0.0186593 -1.91591 0
M  V30 1798 C 174.026 -3.38911 -1.13463 0
M  V30 1799 C 173.855 -4.4961 -0.0901926 0
M  V30 1800 C 172.625 -5.04168 0.338008 0
M  V30 1801 C 174.823 -5.09693 0.686808 0
M  V30 1802 N 172.805 -5.98434 1.36931 0
M  V30 1803 C 174.176 -5.99804 1.56958 0
M  V30 1804 C 176.231 -4.92388 0.738846 0
M  V30 1805 C 174.934 -6.74463 2.49983 0
M  V30 1806 C 176.96 -5.67719 1.65676 0
M  V30 1807 C 176.322 -6.57507 2.52713 0
M  V30 1808 H 172.421 -0.763312 -0.169936 0
M  V30 1809 H 175.005 -1.93728 0.194264 0
M  V30 1810 H 173.176 -3.41769 -1.84522 0
M  V30 1811 H 174.908 -3.64752 -1.75322 0
M  V30 1812 H 171.663 -4.73571 -0.0523673 0
M  V30 1813 H 172.087 -6.5027 1.88356 0
M  V30 1814 H 176.729 -4.22724 0.080084 0
M  V30 1815 H 174.447 -7.4338 3.16878 0
M  V30 1816 H 178.033 -5.56338 1.70233 0
M  V30 1817 H 176.913 -7.14778 3.22586 0
M  V30 1818 N 174.416 0.165178 -1.56732 0
M  V30 1819 C 175.646 0.894919 -1.86212 0
M  V30 1820 C 176.054 1.76066 -0.692627 0
M  V30 1821 O 175.397 1.80387 0.347303 0
M  V30 1822 C 175.459 1.8174 -3.10179 0
M  V30 1823 C 175.123 1.13064 -4.42793 0
M  V30 1824 C 176.12 0.493169 -5.17556 0
M  V30 1825 C 173.805 1.12556 -4.89527 0
M  V30 1826 C 175.799 -0.140209 -6.37246 0
M  V30 1827 C 173.486 0.488366 -6.09145 0
M  V30 1828 C 174.484 -0.143411 -6.82849 0
M  V30 1829 O 174.172 -0.77055 -8.00199 0
M  V30 1830 H 173.904 0.265114 -0.621844 0
M  V30 1831 H 176.458 0.168242 -2.0471 0
M  V30 1832 H 174.688 2.58455 -2.87642 0
M  V30 1833 H 176.377 2.4175 -3.26055 0
M  V30 1834 H 177.143 0.489023 -4.82528 0
M  V30 1835 H 173.022 1.60672 -4.32094 0
M  V30 1836 H 176.566 -0.633932 -6.94714 0
M  V30 1837 H 172.463 0.490116 -6.43637 0
M  V30 1838 H 173.231 -0.670408 -8.1575 0
M  V30 1839 N 175.894 1.51508 0.433938 0
M  V30 1840 C 177.141 1.64345 1.18309 0
M  V30 1841 C 177.469 0.361315 1.91115 0
M  V30 1842 O 176.724 -0.654753 1.84422 0
M  V30 1843 C 177.023 2.79928 2.22205 0
M  V30 1844 C 176.689 4.19078 1.66387 0
M  V30 1845 C 175.351 4.56932 1.50887 0
M  V30 1846 C 177.703 5.05894 1.25381 0
M  V30 1847 C 175.031 5.79305 0.928608 0
M  V30 1848 C 177.383 6.2885 0.687823 0
M  V30 1849 C 176.047 6.65473 0.519755 0
M  V30 1850 H 175.317 0.601381 0.432923 0
M  V30 1851 H 177.964 1.85549 0.473676 0
M  V30 1852 H 176.269 2.52959 2.99197 0
M  V30 1853 H 177.966 2.87059 2.79997 0
M  V30 1854 H 174.556 3.89234 1.79428 0
M  V30 1855 H 178.74 4.77253 1.36175 0
M  V30 1856 H 173.996 6.06324 0.786186 0
M  V30 1857 H 178.17 6.95461 0.361581 0
M  V30 1858 H 175.797 7.6017 0.0679979 0
M  V30 1859 N 177.372 -0.689602 1.41712 0
M  V30 1860 C 178.305 -1.81403 1.3845 0
M  V30 1861 C 179.283 -1.60653 0.250874 0
M  V30 1862 O 180.467 -1.83323 0.43874 0
M  V30 1863 C 177.594 -3.18176 1.1611 0
M  V30 1864 C 176.64 -3.57705 2.3227 0
M  V30 1865 S 177.473 -3.61827 3.94767 0
M  V30 1866 C 178.629 -5.01318 3.74742 0
M  V30 1867 H 178.862 -1.83893 2.33603 0
M  V30 1868 H 176.395 -0.858878 1.28307 0
M  V30 1869 H 178.353 -3.97132 1.03907 0
M  V30 1870 H 177.014 -3.13288 0.225668 0
M  V30 1871 H 176.207 -4.57082 2.12349 0
M  V30 1872 H 175.809 -2.86073 2.40911 0
M  V30 1873 H 178.101 -5.88986 3.34817 0
M  V30 1874 H 179.044 -5.26283 4.73743 0
M  V30 1875 H 179.452 -4.73138 3.07898 0
M  V30 1876 N 178.85 -1.27639 -0.924453 0
M  V30 1877 C 180.096 -1.14336 -1.67497 0
M  V30 1878 C 180.429 0.309465 -1.91718 0
M  V30 1879 O 179.704 1.22608 -1.50989 0
M  V30 1880 C 179.987 -1.93096 -3.0395 0
M  V30 1881 C 179.84 -3.46381 -2.8695 0
M  V30 1882 C 181.159 -1.73798 -4.0433 0
M  V30 1883 H 178.278 -0.416728 -0.607871 0
M  V30 1884 H 180.92 -1.56832 -1.07256 0
M  V30 1885 H 179.07 -1.56982 -3.55372 0
M  V30 1886 H 180.742 -3.92343 -2.42621 0
M  V30 1887 H 178.985 -3.72557 -2.22225 0
M  V30 1888 H 179.656 -3.96735 -3.83804 0
M  V30 1889 H 182.132 -2.05293 -3.61931 0
M  V30 1890 H 181.008 -2.31294 -4.97789 0
M  V30 1891 H 181.269 -0.686725 -4.36734 0
M  V30 1892 N 180.328 1.1314 -1.09713 0
M  V30 1893 C 181.276 2.20717 -0.733934 0
M  V30 1894 C 182.27 1.6729 0.266506 0
M  V30 1895 O 183.476 1.79547 0.127656 0
M  V30 1896 H 179.851 0.719292 -0.21937 0
M  V30 1897 H 181.822 2.48611 -1.6503 0
M  V30 1898 C 180.571 3.47265 -0.173849 0
M  V30 1899 H 179.894 3.88716 -0.934873 0
M  V30 1900 H 181.334 4.23979 0.0423126 0
M  V30 1901 C 179.793 3.18724 1.09164 0
M  V30 1902 O 180.323 3.37762 2.17439 0
M  V30 1903 N 178.529 2.72583 1.00732 0
M  V30 1904 H 178.076 2.57291 0.126121 0
M  V30 1905 H 178.034 2.53862 1.85476 0
M  V30 1906 N 181.806 0.884767 1.30421 0
M  V30 1907 C 183.052 0.503851 1.96441 0
M  V30 1908 C 183.385 -0.944518 1.69684 0
M  V30 1909 O 182.66 -1.66737 1.00145 0
M  V30 1910 C 182.943 0.779085 3.51571 0
M  V30 1911 C 182.796 2.27807 3.87846 0
M  V30 1912 C 184.115 0.255452 4.39358 0
M  V30 1913 H 181.234 0.184533 0.713524 0
M  V30 1914 H 183.876 1.10872 1.54297 0
M  V30 1915 H 182.026 0.264274 3.876 0
M  V30 1916 H 183.698 2.86127 3.61841 0
M  V30 1917 H 181.941 2.74479 3.35922 0
M  V30 1918 H 182.612 2.42125 4.96064 0
M  V30 1919 H 185.088 0.696079 4.10236 0
M  V30 1920 H 183.964 0.477361 5.4682 0
M  V30 1921 H 184.225 -0.843293 4.33983 0
M  V30 1922 N 183.284 -1.43765 0.645699 0
M  V30 1923 C 184.512 -2.06253 0.163556 0
M  V30 1924 C 184.927 -1.48352 -1.16778 0
M  V30 1925 O 184.284 -0.611932 -1.71935 0
M  V30 1926 C 184.335 -3.61453 0.0583186 0
M  V30 1927 O 184.056 -4.172 1.33702 0
M  V30 1928 C 185.557 -4.41002 -0.450795 0
M  V30 1929 H 182.777 -0.665413 0.0864077 0
M  V30 1930 H 185.321 -1.84396 0.884222 0
M  V30 1931 H 183.476 -3.82522 -0.612865 0
M  V30 1932 H 183.89 -5.10791 1.19131 0
M  V30 1933 H 185.364 -5.49966 -0.473403 0
M  V30 1934 H 185.841 -4.13488 -1.48068 0
M  V30 1935 H 186.447 -4.24886 0.187637 0
M  V30 1936 N 184.763 -0.387143 -1.52771 0
M  V30 1937 C 186.04 0.253197 -1.93954 0
M  V30 1938 C 186.42 1.64545 -1.32243 0
M  V30 1939 O 185.768 2.23191 -0.489699 0
M  V30 1940 C 185.978 0.281722 -3.47861 0
M  V30 1941 C 187.326 0.511715 -4.21505 0
M  V30 1942 O 188.35 0.362023 -3.54356 0
M  V30 1943 O 187.209 0.804847 -5.40541 0
M  V30 1944 H 184.303 0.156845 -0.811991 0
M  V30 1945 H 186.849 -0.441494 -1.63856 0
M  V30 1946 H 185.621 -0.693571 -3.85104 0
M  V30 1947 H 185.244 1.02142 -3.84256 0
M  V30 1948 N 186.241 1.57166 -0.116904 0
M  V30 1949 C 187.204 2.14039 0.819742 0
M  V30 1950 C 188.204 1.07477 1.19605 0
M  V30 1951 O 189.394 1.33263 1.1219 0
M  V30 1952 C 186.526 2.67891 2.10826 0
M  V30 1953 H 187.719 2.98128 0.325511 0
M  V30 1954 H 185.272 1.55739 0.132312 0
M  V30 1955 H 186.007 1.87384 2.64685 0
M  V30 1956 H 185.792 3.45823 1.84793 0
M  V30 1957 H 187.282 3.11809 2.77785 0
M  V30 1958 N 187.719 -0.156864 1.56817 0
M  V30 1959 C 188.968 -0.869504 1.81996 0
M  V30 1960 C 189.281 -1.82777 0.696545 0
M  V30 1961 O 190.487 -2.58384 0.833658 0
M  V30 1962 C 188.943 -1.59679 3.22538 0
M  V30 1963 C 188.551 -0.681431 4.42787 0
M  V30 1964 C 190.295 -2.2968 3.56997 0
M  V30 1965 C 188.202 -1.40978 5.74351 0
M  V30 1966 H 187.132 -0.328438 0.678708 0
M  V30 1967 H 189.783 -0.1223 1.83092 0
M  V30 1968 H 188.165 -2.38927 3.158 0
M  V30 1969 H 189.339 0.0751166 4.60739 0
M  V30 1970 H 187.654 -0.0903431 4.16302 0
M  V30 1971 H 190.251 -2.84794 4.52544 0
M  V30 1972 H 190.594 -3.05707 2.82576 0
M  V30 1973 H 191.127 -1.57361 3.65352 0
M  V30 1974 H 187.866 -0.691561 6.51842 0
M  V30 1975 H 187.386 -2.13929 5.60352 0
M  V30 1976 H 189.065 -1.95337 6.16808 0
M  V30 1977 N 189.197 -1.51736 -0.425897 0
M  V30 1978 C 190.422 -1.69082 -1.20108 0
M  V30 1979 C 190.847 -0.392398 -1.83962 0
M  V30 1980 O 190.205 0.64858 -1.69302 0
M  V30 1981 C 190.253 -2.81604 -2.25237 0
M  V30 1982 O 189.357 -2.46004 -3.30992 0
M  V30 1983 H 188.698 -0.563408 -0.35138 0
M  V30 1984 H 191.228 -1.98358 -0.501512 0
M  V30 1985 H 191.238 -3.06025 -2.69838 0
M  V30 1986 H 189.913 -3.75817 -1.78142 0
M  V30 1987 H 188.49 -2.32195 -2.91787 0
M  V30 1988 N 190.675 0.682077 -1.42076 0
M  V30 1989 C 191.9 1.47558 -1.45744 0
M  V30 1990 C 192.325 1.87977 -0.0680981 0
M  V30 1991 O 191.683 1.55522 0.9318 0
M  V30 1992 C 191.731 2.70575 -2.38373 0
M  V30 1993 O 190.835 3.68573 -1.85007 0
M  V30 1994 H 190.176 0.443585 -0.494093 0
M  V30 1995 H 192.706 0.837238 -1.86686 0
M  V30 1996 H 192.716 3.18729 -2.54707 0
M  V30 1997 H 191.391 2.40495 -3.39315 0
M  V30 1998 H 189.968 3.2757 -1.78192 0
M  V30 1999 N 192.153 1.28127 0.917671 0
M  V30 2000 C 193.401 1.14825 1.66312 0
M  V30 2001 C 193.722 -0.304379 1.9261 0
M  V30 2002 O 192.992 -1.21149 1.53947 0
M  V30 2003 H 191.572 0.421953 0.616413 0
M  V30 2004 H 194.234 1.608 1.10134 0
M  V30 2005 H 193.33 1.68489 2.62712 0
M  V30 2006 N 193.631 -1.12557 1.10312 0
M  V30 2007 C 194.908 -1.80363 0.756878 0
M  V30 2008 C 195.288 -1.97067 -0.756824 0
M  V30 2009 O 194.636 -1.54601 -1.68259 0
M  V30 2010 C 194.846 -3.14812 1.50647 0
M  V30 2011 C 196.194 -3.90029 1.67817 0
M  V30 2012 O 197.218 -3.24464 1.46974 0
M  V30 2013 O 196.077 -5.07652 2.02365 0
M  V30 2014 H 193.171 -0.780667 0.272926 0
M  V30 2015 H 195.717 -1.19404 1.20586 0
M  V30 2016 H 194.489 -2.97936 2.53672 0
M  V30 2017 H 194.112 -3.83478 1.05026 0
M  V30 2018 N 195.109 -0.891671 -1.2995 0
M  V30 2019 C 196.386 -0.433307 -1.9074 0
M  V30 2020 C 196.766 1.08646 -1.80995 0
M  V30 2021 O 196.114 1.92476 -1.23147 0
M  V30 2022 C 196.324 -0.938895 -3.36134 0
M  V30 2023 C 197.672 -0.977829 -4.13187 0
M  V30 2024 O 198.696 -0.886015 -3.45005 0
M  V30 2025 O 197.555 -1.11453 -5.35015 0
M  V30 2026 H 194.649 -0.133699 -0.816121 0
M  V30 2027 H 197.195 -0.981011 -1.38471 0
M  V30 2028 H 195.967 -1.98281 -3.37343 0
M  V30 2029 H 195.59 -0.37074 -3.95868 0
M  V30 2030 N 196.587 1.43421 -0.653314 0
M  V30 2031 C 197.497 2.34568 0.0388565 0
M  V30 2032 C 198.513 1.53888 0.81207 0
M  V30 2033 O 199.689 1.86539 0.759294 0
M  V30 2034 C 196.754 3.32167 0.993269 0
M  V30 2035 C 195.815 4.28751 0.216977 0
M  V30 2036 C 195.048 5.21688 1.12593 0
M  V30 2037 O 195.271 5.19052 2.36519 0
M  V30 2038 O 194.205 5.98919 0.598284 0
M  V30 2039 H 198.031 2.95251 -0.711386 0
M  V30 2040 H 195.616 1.43564 -0.413502 0
M  V30 2041 H 197.498 3.92183 1.54176 0
M  V30 2042 H 196.173 2.73987 1.72374 0
M  V30 2043 H 195.08 3.72215 -0.375101 0
M  V30 2044 H 196.413 4.89913 -0.473924 0
M  V30 2045 N 198.065 0.39524 1.52563 0
M  V30 2046 C 199.342 -0.242908 1.94086 0
M  V30 2047 C 199.722 -1.63841 1.33114 0
M  V30 2048 O 199.07 -2.22928 0.501529 0
M  V30 2049 C 199.28 -0.26327 3.48006 0
M  V30 2050 C 200.628 -0.489354 4.21771 0
M  V30 2051 O 201.652 -0.343226 3.54543 0
M  V30 2052 O 200.511 -0.776169 5.4096 0
M  V30 2053 H 197.605 -0.152536 0.812811 0
M  V30 2054 H 200.151 0.450178 1.6362 0
M  V30 2055 H 198.923 0.713985 3.84731 0
M  V30 2056 H 198.546 -1.00103 3.84792 0
M  V30 2057 N 199.544 -1.57102 0.125237 0
M  V30 2058 C 200.821 -1.86953 -0.575142 0
M  V30 2059 C 201.201 -1.02749 -1.84407 0
M  V30 2060 O 200.549 -0.108144 -2.28244 0
M  V30 2061 C 200.759 -3.38198 -0.861583 0
M  V30 2062 C 202.107 -4.06937 -1.21192 0
M  V30 2063 O 203.131 -3.43252 -0.951645 0
M  V30 2064 O 201.99 -5.19364 -1.70068 0
M  V30 2065 H 199.084 -0.774147 -0.290906 0
M  V30 2066 H 201.63 -1.68942 0.160211 0
M  V30 2067 H 200.402 -3.91282 0.0373647 0
M  V30 2068 H 200.025 -3.61661 -1.65188 0
M  V30 2069 N 201.022 0.148545 -1.56898 0
M  V30 2070 C 202.25 0.876389 -1.87422 0
M  V30 2071 C 202.665 1.74809 -0.713256 0
M  V30 2072 O 202.022 1.79725 0.317025 0
M  V30 2073 C 202.073 1.73438 -3.17178 0
M  V30 2074 O 201.794 0.897809 -4.28802 0
M  V30 2075 C 203.295 2.56993 -3.61205 0
M  V30 2076 H 200.515 0.253489 -0.621277 0
M  V30 2077 H 203.059 0.141798 -2.04008 0
M  V30 2078 H 201.214 2.42205 -3.0235 0
M  V30 2079 H 201.628 1.48672 -5.02988 0
M  V30 2080 H 203.102 3.12773 -4.54838 0
M  V30 2081 H 203.579 3.32958 -2.86419 0
M  V30 2082 H 204.185 1.9352 -3.78722 0
M  V30 2083 N 202.5 1.5196 0.417844 0
M  V30 2084 C 203.777 1.56146 1.17803 0
M  V30 2085 C 204.157 0.337275 2.08388 0
M  V30 2086 O 203.505 -0.676447 2.18258 0
M  V30 2087 C 203.715 2.88566 1.96293 0
M  V30 2088 C 205.063 3.41244 2.52662 0
M  V30 2089 O 206.087 2.90247 2.06483 0
M  V30 2090 O 204.946 4.30273 3.36938 0
M  V30 2091 H 202.04 0.628598 0.537395 0
M  V30 2092 H 204.586 1.64283 0.425331 0
M  V30 2093 H 203.358 3.69116 1.2988 0
M  V30 2094 H 202.981 2.83681 2.78587 0
M  V30 2095 N 203.978 -0.674533 1.42435 0
M  V30 2096 C 205.226 -1.43175 1.42637 0
M  V30 2097 C 205.547 -1.94951 0.0438992 0
M  V30 2098 O 204.817 -1.7308 -0.917607 0
M  V30 2099 H 203.397 -0.531307 0.525092 0
M  V30 2100 H 206.059 -0.797006 1.77859 0
M  V30 2101 H 205.155 -2.28463 2.12629 0
M  V30 2102 N 205.456 -1.28612 -0.910864 0
M  V30 2103 C 206.419 -1.12803 -1.9952 0
M  V30 2104 C 207.419 -0.0668264 -1.60661 0
M  V30 2105 O 208.609 -0.312847 -1.71368 0
M  V30 2106 C 205.741 -0.72254 -3.33155 0
M  V30 2107 H 206.934 -2.09109 -2.14973 0
M  V30 2108 H 204.487 -1.11639 -1.09391 0
M  V30 2109 H 205.222 0.241152 -3.23402 0
M  V30 2110 H 205.007 -1.48916 -3.62721 0
M  V30 2111 H 206.497 -0.634666 -4.12749 0
M  V30 2112 N 206.934 1.1197 -1.10907 0
M  V30 2113 C 207.844 2.21433 -0.774896 0
M  V30 2114 C 208.86 1.72478 0.229657 0
M  V30 2115 O 210.036 2.01288 0.0672008 0
M  V30 2116 C 207.101 3.4602 -0.216986 0
M  V30 2117 C 206.162 4.09791 -1.27944 0
M  V30 2118 C 205.395 5.28431 -0.748055 0
M  V30 2119 O 205.618 5.68823 0.423833 0
M  V30 2120 O 204.552 5.82644 -1.51027 0
M  V30 2121 H 208.378 2.5242 -1.68873 0
M  V30 2122 H 205.963 1.20399 -0.884555 0
M  V30 2123 H 207.845 4.21304 0.090059 0
M  V30 2124 H 206.52 3.16698 0.669633 0
M  V30 2125 H 205.427 3.36265 -1.63941 0
M  V30 2126 H 206.76 4.4328 -2.13925 0
M  V30 2127 N 208.412 0.89855 1.29475 0
M  V30 2128 C 209.689 0.443416 1.90508 0
M  V30 2129 C 210.069 -1.07685 1.81569 0
M  V30 2130 O 209.417 -1.9182 1.24166 0
M  V30 2131 C 209.627 0.956708 3.35631 0
M  V30 2132 C 210.975 0.999728 4.12663 0
M  V30 2133 O 211.999 0.904299 3.4453 0
M  V30 2134 O 210.858 1.14289 5.34416 0
M  V30 2135 H 207.952 0.138025 0.815401 0
M  V30 2136 H 210.498 0.98834 1.37949 0
M  V30 2137 H 209.27 2.00067 3.36287 0
M  V30 2138 H 208.893 0.391728 3.95666 0
M  V30 2139 N 209.89 -1.43072 0.660911 0
M  V30 2140 C 211.137 -2.01721 0.177445 0
M  V30 2141 C 211.465 -1.5218 -1.21126 0
M  V30 2142 O 210.72 -0.708659 -1.82419 0
M  V30 2143 C 211.019 -3.57103 0.145563 0
M  V30 2144 C 210.685 -4.26021 1.47705 0
M  V30 2145 C 209.347 -4.44563 1.84165 0
M  V30 2146 C 211.699 -4.64983 2.35458 0
M  V30 2147 C 209.027 -4.99334 3.0803 0
M  V30 2148 C 211.379 -5.21127 3.58622 0
M  V30 2149 C 210.043 -5.37884 3.95268 0
M  V30 2150 H 209.313 -0.73815 0.0649317 0
M  V30 2151 H 211.96 -1.71446 0.853144 0
M  V30 2152 H 210.265 -3.86965 -0.61361 0
M  V30 2153 H 211.962 -4.00248 -0.2455 0
M  V30 2154 H 208.552 -4.11939 1.18339 0
M  V30 2155 H 212.736 -4.50343 2.08579 0
M  V30 2156 H 207.992 -5.10493 3.36462 0
M  V30 2157 H 212.166 -5.50262 4.26831 0
M  V30 2158 H 209.793 -5.80089 4.91325 0
M  V30 2159 N 211.368 -0.403325 -1.52352 0
M  V30 2160 C 212.614 0.174605 -2.02047 0
M  V30 2161 C 212.947 1.45282 -1.28867 0
M  V30 2162 O 212.222 1.90483 -0.393257 0
M  V30 2163 C 212.505 0.428238 -3.57545 0
M  V30 2164 C 212.358 -0.866248 -4.4138 0
M  V30 2165 C 213.677 1.21287 -4.23057 0
M  V30 2166 H 210.796 0.0619851 -0.734389 0
M  V30 2167 H 213.438 -0.53565 -1.82293 0
M  V30 2168 H 211.588 1.03327 -3.74507 0
M  V30 2169 H 213.26 -1.50265 -4.3614 0
M  V30 2170 H 211.503 -1.47851 -4.07827 0
M  V30 2171 H 212.174 -0.643249 -5.48239 0
M  V30 2172 H 214.65 0.700703 -4.10158 0
M  V30 2173 H 213.526 1.35909 -5.31808 0
M  V30 2174 H 213.787 2.23193 -3.81625 0
M  V30 2175 N 212.846 1.57033 -0.133567 0
M  V30 2176 C 214.071 2.00475 0.531477 0
M  V30 2177 C 214.496 1.01291 1.58499 0
M  V30 2178 O 213.854 -0.0133279 1.81295 0
M  V30 2179 C 213.902 3.42729 1.12113 0
M  V30 2180 O 213.006 3.46498 2.23636 0
M  V30 2181 H 212.347 0.650876 0.131362 0
M  V30 2182 H 214.877 2.03344 -0.22634 0
M  V30 2183 H 214.887 3.81246 1.4531 0
M  V30 2184 H 213.562 4.14428 0.349557 0
M  V30 2185 H 212.139 3.19811 1.91769 0
M  V30 2186 N 214.325 -0.140222 1.56975 0
M  V30 2187 C 215.235 -1.19223 2.02047 0
M  V30 2188 C 216.251 -1.46612 0.937062 0
M  V30 2189 O 217.427 -1.58148 1.24704 0
M  V30 2190 C 214.492 -2.50414 2.39778 0
M  V30 2191 C 213.553 -2.30612 3.621 0
M  V30 2192 C 212.786 -3.55547 3.98023 0
M  V30 2193 O 213.009 -4.62004 3.34528 0
M  V30 2194 O 211.943 -3.47808 4.91237 0
M  V30 2195 H 215.769 -0.839559 2.91865 0
M  V30 2196 H 213.354 -0.349453 1.45256 0
M  V30 2197 H 215.236 -3.27747 2.64877 0
M  V30 2198 H 213.911 -2.85198 1.53114 0
M  V30 2199 H 212.818 -1.51207 3.4218 0
M  V30 2200 H 214.151 -2.00741 4.49404 0
M  V30 2201 N 215.803 -1.52179 -0.40978 0
M  V30 2202 C 216.751 -1.76086 -1.51975 0
M  V30 2203 C 217.745 -0.627964 -1.57331 0
M  V30 2204 O 218.951 -0.809993 -1.60745 0
M  V30 2205 H 215.326 -0.556829 -0.505416 0
M  V30 2206 H 217.297 -2.69077 -1.28996 0
M  V30 2207 C 216.046 -1.92799 -2.8935 0
M  V30 2208 H 215.369 -2.79392 -2.85972 0
M  V30 2209 H 216.809 -2.13527 -3.66309 0
M  V30 2210 C 215.268 -0.694923 -3.29655 0
M  V30 2211 O 215.798 0.13751 -4.01465 0
M  V30 2212 N 214.004 -0.53101 -2.85707 0
M  V30 2213 H 213.551 -1.20952 -2.27439 0
M  V30 2214 H 213.509 0.292718 -3.13034 0
M  V30 2215 N 217.281 0.66697 -1.42791 0
M  V30 2216 C 218.506 1.46004 -1.47301 0
M  V30 2217 C 218.931 1.87894 -0.0880317 0
M  V30 2218 O 218.289 1.56502 0.915253 0
M  V30 2219 C 218.337 2.68031 -2.41229 0
M  V30 2220 O 217.441 3.6659 -1.88906 0
M  V30 2221 H 216.782 0.43832 -0.49877 0
M  V30 2222 H 219.312 0.817391 -1.87563 0
M  V30 2223 H 219.322 3.1601 -2.58073 0
M  V30 2224 H 217.997 2.36883 -3.41847 0
M  V30 2225 H 216.574 3.25661 -1.81656 0
M  V30 2226 N 218.759 1.29093 0.90403 0
M  V30 2227 C 219.707 1.13727 2.02901 0
M  V30 2228 C 220.701 0.0539853 1.69314 0
M  V30 2229 O 221.907 0.213469 1.7873 0
M  V30 2230 H 218.282 0.35117 0.664969 0
M  V30 2231 H 220.253 2.08982 2.13001 0
M  V30 2232 C 219.002 0.826066 3.37745 0
M  V30 2233 H 218.325 1.65164 3.64089 0
M  V30 2234 H 219.765 0.758559 4.17159 0
M  V30 2235 C 218.224 -0.470541 3.33598 0
M  V30 2236 O 218.754 -1.49792 3.72727 0
M  V30 2237 N 216.96 -0.474812 2.86695 0
M  V30 2238 H 216.507 0.361692 2.55048 0
M  V30 2239 H 216.465 -1.34236 2.84303 0
M  V30 2240 N 220.237 -1.11381 1.11499 0
M  V30 2241 C 221.185 -2.19522 0.768956 0
M  V30 2242 C 222.179 -1.67693 -0.239857 0
M  V30 2243 O 223.385 -1.79727 -0.0990755 0
M  V30 2244 H 219.76 -0.715711 0.230786 0
M  V30 2245 H 221.731 -2.45954 1.68964 0
M  V30 2246 C 220.48 -3.46945 0.229073 0
M  V30 2247 H 219.803 -3.8718 0.996596 0
M  V30 2248 H 221.243 -4.23993 0.0251441 0
M  V30 2249 C 219.702 -3.2042 -1.04079 0
M  V30 2250 O 220.232 -3.41178 -2.12038 0
M  V30 2251 N 218.438 -2.74151 -0.963823 0
M  V30 2252 H 217.985 -2.57459 -0.0851722 0
M  V30 2253 H 217.943 -2.56781 -1.81414 0
M  V30 2254 N 221.715 -0.905404 -1.28997 0
M  V30 2255 C 222.662 -0.385892 -2.27551 0
M  V30 2256 C 223.632 0.535113 -1.57244 0
M  V30 2257 O 224.817 0.459119 -1.85194 0
M  V30 2258 C 221.957 0.375461 -3.43051 0
M  V30 2259 C 221.07 -0.577092 -4.28128 0
M  V30 2260 C 220.205 0.201879 -5.30816 0
M  V30 2261 C 219.244 -0.744829 -6.07551 0
M  V30 2262 N 218.381 9.42587e-05 -7.021 0
M  V30 2263 H 223.221 -1.23139 -2.71368 0
M  V30 2264 H 220.758 -0.618542 -1.33463 0
M  V30 2265 H 222.716 0.832992 -4.088 0
M  V30 2266 H 221.346 1.18537 -3.00248 0
M  V30 2267 H 220.398 -1.15315 -3.62501 0
M  V30 2268 H 221.71 -1.30152 -4.8152 0
M  V30 2269 H 220.864 0.720351 -6.02408 0
M  V30 2270 H 219.603 0.959413 -4.7817 0
M  V30 2271 H 218.608 -1.27475 -5.34818 0
M  V30 2272 H 219.833 -1.50178 -6.62286 0
M  V30 2273 H 217.779 0.739791 -6.51815 0
M  V30 2274 H 217.696 -0.664321 -7.53076 0
M  V30 2275 H 218.964 0.498644 -7.77903 0
M  V30 2276 N 223.193 1.4272 -0.668489 0
M  V30 2277 C 224.609 1.55992 -0.33745 0
M  V30 2278 C 224.809 1.64933 1.15756 0
M  V30 2279 O 223.865 1.61278 1.94282 0
M  V30 2280 C 225.178 2.81314 -1.06222 0
M  V30 2281 C 226.726 2.95078 -1.04394 0
M  V30 2282 C 227.201 4.23252 -1.74991 0
M  V30 2283 N 228.692 4.3015 -1.71829 0
M  V30 2284 C 229.427 5.28127 -2.23315 0
M  V30 2285 N 228.923 6.32293 -2.83156 0
M  V30 2286 N 230.716 5.19882 -2.13726 0
M  V30 2287 H 222.867 1.3516 -1.63846 0
M  V30 2288 H 225.13 0.650174 -0.689912 0
M  V30 2289 H 224.836 2.80823 -2.11734 0
M  V30 2290 H 224.71 3.72012 -0.62344 0
M  V30 2291 H 227.097 2.951 0.0028244 0
M  V30 2292 H 227.178 2.05627 -1.52155 0
M  V30 2293 H 226.822 4.2399 -2.79633 0
M  V30 2294 H 226.752 5.11626 -1.24685 0
M  V30 2295 H 229.243 3.55499 -1.28175 0
M  V30 2296 H 229.556 7.03398 -3.20079 0
M  V30 2297 H 227.901 6.32873 -2.87223 0
M  V30 2298 H 231.092 4.37423 -1.66669 0
M  V30 2299 H 231.265 5.96077 -2.54158 0
M  V30 2300 N 224.671 0.411399 1.52136 0
M  V30 2301 C 225.634 -0.401089 2.25663 0
M  V30 2302 C 226.634 -0.971732 1.28117 0
M  V30 2303 O 227.824 -0.850254 1.52041 0
M  V30 2304 C 224.956 -1.56483 3.02863 0
M  V30 2305 H 226.149 0.24295 2.98914 0
M  V30 2306 H 223.702 0.163968 1.55438 0
M  V30 2307 H 224.437 -2.24567 2.33967 0
M  V30 2308 H 224.222 -1.16211 3.74483 0
M  V30 2309 H 225.712 -2.13951 3.58629 0
M  V30 2310 N 226.149 -1.5696 0.141893 0
M  V30 2311 C 227.56 -1.82797 -0.379776 0
M  V30 2312 C 227.911 -1.06033 -1.6508 0
M  V30 2313 O 227.036 -0.304011 -2.14254 0
M  V30 2314 C 227.631 -3.31578 -0.695802 0
M  V30 2315 C 226.19 -3.58014 -1.16201 0
M  V30 2316 C 225.337 -2.76699 -0.182455 0
M  V30 2317 H 228.288 -1.54406 0.366675 0
M  V30 2318 H 228.309 -3.47454 -1.55099 0
M  V30 2319 H 227.821 -3.87421 0.229449 0
M  V30 2320 H 225.922 -3.07553 -2.10338 0
M  V30 2321 H 226.035 -4.66501 -1.09151 0
M  V30 2322 H 224.399 -2.45618 -0.674072 0
M  V30 2323 H 225.182 -3.35311 0.736297 0
M  V30 2324 N 227.627 0.131896 -1.57047 0
M  V30 2325 C 228.857 0.855219 -1.88068 0
M  V30 2326 C 229.265 1.74557 -0.729817 0
M  V30 2327 O 228.608 1.81083 0.308962 0
M  V30 2328 C 228.67 1.75119 -3.13964 0
M  V30 2329 C 228.334 1.03646 -4.45091 0
M  V30 2330 C 229.331 0.383276 -5.18485 0
M  V30 2331 C 227.016 1.02148 -4.91804 0
M  V30 2332 C 229.01 -0.275347 -6.36805 0
M  V30 2333 C 226.697 0.359047 -6.10044 0
M  V30 2334 C 227.695 -0.288222 -6.82392 0
M  V30 2335 O 227.383 -0.94011 -7.98384 0
M  V30 2336 H 227.115 0.251864 -0.627328 0
M  V30 2337 H 229.669 0.124782 -2.05021 0
M  V30 2338 H 227.899 2.52295 -2.9306 0
M  V30 2339 H 229.588 2.3478 -3.31109 0
M  V30 2340 H 230.354 0.386562 -4.83457 0
M  V30 2341 H 226.233 1.5147 -4.35405 0
M  V30 2342 H 229.777 -0.781148 -6.93213 0
M  V30 2343 H 225.674 0.35348 -6.44531 0
M  V30 2344 H 226.442 -0.84329 -8.14144 0
M  V30 2345 N 229.106 1.52395 0.401703 0
M  V30 2346 C 230.352 1.68019 1.14635 0
M  V30 2347 C 230.707 0.408722 1.88009 0
M  V30 2348 O 230 -0.597133 1.82057 0
M  V30 2349 C 230.194 2.84578 2.16217 0
M  V30 2350 C 230.023 4.22938 1.5282 0
M  V30 2351 C 228.793 4.88352 1.29772 0
M  V30 2352 C 230.991 5.04778 0.985094 0
M  V30 2353 N 228.973 6.10726 0.623455 0
M  V30 2354 C 230.344 6.1845 0.438172 0
M  V30 2355 C 232.399 4.90057 0.880275 0
M  V30 2356 C 231.102 7.19013 -0.203306 0
M  V30 2357 C 233.128 5.9086 0.252639 0
M  V30 2358 C 232.49 7.03829 -0.283573 0
M  V30 2359 H 228.589 0.668413 0.405892 0
M  V30 2360 H 231.173 1.89717 0.437674 0
M  V30 2361 H 229.344 2.64483 2.84435 0
M  V30 2362 H 231.076 2.89202 2.83098 0
M  V30 2363 H 227.831 4.46846 1.56926 0
M  V30 2364 H 228.255 6.76323 0.302733 0
M  V30 2365 H 232.897 4.02938 1.28065 0
M  V30 2366 H 230.615 8.05751 -0.615726 0
M  V30 2367 H 234.201 5.81543 0.172954 0
M  V30 2368 H 233.081 7.80493 -0.761575 0
M  V30 2369 N 230.584 -0.659388 1.43143 0
M  V30 2370 C 231.812 -1.44723 1.47861 0
M  V30 2371 C 232.227 -1.88563 0.0945886 0
M  V30 2372 O 231.584 -1.59108 -0.893915 0
M  V30 2373 C 231.635 -2.68627 2.41913 0
M  V30 2374 O 231.356 -2.26623 3.74932 0
M  V30 2375 C 232.857 -3.62045 2.55809 0
M  V30 2376 H 230.077 -0.444801 0.502387 0
M  V30 2377 H 232.621 -0.808916 1.87821 0
M  V30 2378 H 230.776 -3.28613 2.05164 0
M  V30 2379 H 231.19 -3.06745 4.2545 0
M  V30 2380 H 232.664 -4.45666 3.25708 0
M  V30 2381 H 233.141 -4.08981 1.60099 0
M  V30 2382 H 233.747 -3.07944 2.93344 0
M  V30 2383 N 232.062 -1.29571 -0.897171 0
M  V30 2384 C 233.01 -1.14802 -2.02295 0
M  V30 2385 C 234.004 -0.0629637 -1.69283 0
M  V30 2386 O 235.21 -0.222945 -1.78614 0
M  V30 2387 H 231.585 -0.354692 -0.663097 0
M  V30 2388 H 233.556 -2.10108 -2.11889 0
M  V30 2389 C 232.305 -0.843966 -3.37302 0
M  V30 2390 H 231.628 -1.67093 -3.63208 0
M  V30 2391 H 233.068 -0.780672 -4.16751 0
M  V30 2392 C 231.527 0.452843 -3.33843 0
M  V30 2393 O 232.057 1.47813 -3.73516 0
M  V30 2394 N 230.263 0.459601 -2.86943 0
M  V30 2395 H 229.81 -0.375213 -2.54853 0
M  V30 2396 H 229.768 1.32726 -2.85011 0
M  V30 2397 N 233.54 1.10788 -1.12088 0
M  V30 2398 C 234.768 1.86461 -0.896651 0
M  V30 2399 C 235.183 1.80492 0.553912 0
M  V30 2400 O 234.54 1.19102 1.38278 0
M  V30 2401 C 234.591 3.35006 -1.35843 0
M  V30 2402 O 234.312 3.40866 -2.75213 0
M  V30 2403 C 235.813 4.27565 -1.1706 0
M  V30 2404 H 233.033 0.589425 -0.320654 0
M  V30 2405 H 235.577 1.40076 -1.48993 0
M  V30 2406 H 233.732 3.7887 -0.808458 0
M  V30 2407 H 234.146 4.33411 -2.9539 0
M  V30 2408 H 235.62 5.30007 -1.54263 0
M  V30 2409 H 236.097 4.3906 -0.110814 0
M  V30 2410 H 236.703 3.89501 -1.70789 0
M  V30 2411 N 235.018 0.912232 1.28515 0
M  V30 2412 C 235.928 0.404506 2.31086 0
M  V30 2413 C 236.944 -0.50707 1.66448 0
M  V30 2414 O 238.12 -0.393624 1.97516 0
M  V30 2415 C 235.185 -0.348572 3.44943 0
M  V30 2416 C 234.246 0.59604 4.25142 0
M  V30 2417 C 233.479 -0.121194 5.33562 0
M  V30 2418 O 233.702 -1.34317 5.5436 0
M  V30 2419 O 232.636 0.542716 5.99448 0
M  V30 2420 H 236.462 1.25579 2.76521 0
M  V30 2421 H 234.047 0.676998 1.33181 0
M  V30 2422 H 235.929 -0.77395 4.14232 0
M  V30 2423 H 234.604 -1.17571 3.01594 0
M  V30 2424 H 233.511 1.07079 3.58448 0
M  V30 2425 H 234.844 1.38995 4.72167 0
M  V30 2426 N 236.496 -1.42363 0.676048 0
M  V30 2427 C 237.443 -2.308 -0.00150904 0
M  V30 2428 C 238.413 -1.46032 -0.791444 0
M  V30 2429 O 239.598 -1.74861 -0.76344 0
M  V30 2430 C 236.738 -3.31883 -0.945919 0
M  V30 2431 C 235.851 -4.31741 -0.149675 0
M  V30 2432 C 234.986 -5.19898 -1.08995 0
M  V30 2433 C 234.025 -6.11434 -0.285465 0
M  V30 2434 N 233.162 -6.92138 -1.17851 0
M  V30 2435 H 238.002 -2.88187 0.758455 0
M  V30 2436 H 235.539 -1.41952 0.38576 0
M  V30 2437 H 237.497 -3.89019 -1.50731 0
M  V30 2438 H 236.127 -2.76093 -1.6725 0
M  V30 2439 H 235.179 -3.76713 0.528359 0
M  V30 2440 H 236.491 -4.96534 0.474866 0
M  V30 2441 H 235.645 -5.81772 -1.72123 0
M  V30 2442 H 234.384 -4.55284 -1.74837 0
M  V30 2443 H 233.389 -5.48627 0.359018 0
M  V30 2444 H 234.614 -6.78097 0.368883 0
M  V30 2445 H 232.56 -6.30152 -1.82332 0
M  V30 2446 H 232.477 -7.53542 -0.609082 0
M  V30 2447 H 233.745 -7.58499 -1.79722 0
M  V30 2448 N 237.974 -0.419461 -1.51915 0
M  V30 2449 C 238.907 0.445751 -2.23804 0
M  V30 2450 C 239.885 1.03951 -1.25031 0
M  V30 2451 O 241.069 1.08541 -1.54114 0
M  V30 2452 C 238.196 1.61964 -2.97465 0
M  V30 2453 C 237.242 1.14828 -4.10751 0
M  V30 2454 S 238.075 0.104938 -5.35397 0
M  V30 2455 C 239.231 1.28391 -6.1259 0
M  V30 2456 H 239.464 -0.164627 -2.96844 0
M  V30 2457 H 236.997 -0.203833 -1.53049 0
M  V30 2458 H 238.955 2.29271 -3.40507 0
M  V30 2459 H 237.616 2.20139 -2.24048 0
M  V30 2460 H 236.809 2.02561 -4.61503 0
M  V30 2461 H 236.411 0.553712 -3.69878 0
M  V30 2462 H 238.703 2.20563 -6.40592 0
M  V30 2463 H 239.646 0.816724 -7.03374 0
M  V30 2464 H 240.054 1.51439 -5.43807 0
M  V30 2465 N 239.452 1.56882 -0.150215 0
M  V30 2466 C 240.362 2.20494 0.801222 0
M  V30 2467 C 241.378 1.19019 1.26927 0
M  V30 2468 O 242.554 1.51607 1.32579 0
M  V30 2469 C 239.619 2.81659 2.02161 0
M  V30 2470 C 238.68 3.9827 1.60249 0
M  V30 2471 C 237.913 4.56508 2.7647 0
M  V30 2472 O 238.136 4.13627 3.92771 0
M  V30 2473 O 237.07 5.46719 2.51757 0
M  V30 2474 H 240.896 3.02315 0.289717 0
M  V30 2475 H 238.481 1.49202 0.0769684 0
M  V30 2476 H 240.363 3.20522 2.73576 0
M  V30 2477 H 239.038 2.02849 2.52258 0
M  V30 2478 H 237.945 3.64117 0.858477 0
M  V30 2479 H 239.278 4.78609 1.14864 0
M  V30 2480 N 240.93 -0.123565 1.57115 0
M  V30 2481 C 241.877 -1.15177 2.00007 0
M  V30 2482 C 242.847 -1.41403 0.871454 0
M  V30 2483 O 244.032 -1.53346 1.13533 0
M  V30 2484 C 241.172 -2.47436 2.40561 0
M  V30 2485 C 240.285 -2.28184 3.66819 0
M  V30 2486 C 239.42 -3.53641 3.96373 0
M  V30 2487 C 238.459 -3.29528 5.15827 0
M  V30 2488 N 237.596 -4.47175 5.41275 0
M  V30 2489 H 242.436 -0.779008 2.87638 0
M  V30 2490 H 239.973 -0.373166 1.42288 0
M  V30 2491 H 241.931 -3.24584 2.62109 0
M  V30 2492 H 240.561 -2.82614 1.55978 0
M  V30 2493 H 239.613 -1.41976 3.52912 0
M  V30 2494 H 240.925 -2.0634 4.5412 0
M  V30 2495 H 240.079 -4.39209 4.18545 0
M  V30 2496 H 238.818 -3.78512 3.07538 0
M  V30 2497 H 237.823 -2.42349 4.93505 0
M  V30 2498 H 239.048 -3.06031 6.06236 0
M  V30 2499 H 236.994 -4.72175 4.55397 0
M  V30 2500 H 236.911 -4.28419 6.22891 0
M  V30 2501 H 238.179 -5.3389 5.67963 0
M  V30 2502 N 242.408 -1.52605 -0.393616 0
M  V30 2503 C 243.824 -1.41753 -0.733357 0
M  V30 2504 C 244.024 -0.534293 -1.94287 0
M  V30 2505 O 243.08 -0.0059787 -2.52499 0
M  V30 2506 C 244.393 -2.84531 -0.972772 0
M  V30 2507 C 245.941 -2.93978 -1.07453 0
M  V30 2508 C 246.416 -4.37756 -1.3466 0
M  V30 2509 N 247.907 -4.4106 -1.41492 0
M  V30 2510 C 248.642 -5.49387 -1.642 0
M  V30 2511 N 248.138 -6.67806 -1.8441 0
M  V30 2512 N 249.931 -5.36923 -1.66342 0
M  V30 2513 H 242.082 -2.08555 0.402328 0
M  V30 2514 H 244.345 -0.940654 0.117789 0
M  V30 2515 H 244.051 -3.51353 -0.156204 0
M  V30 2516 H 243.925 -3.26508 -1.88871 0
M  V30 2517 H 246.312 -2.27326 -1.88167 0
M  V30 2518 H 246.393 -2.55435 -0.136605 0
M  V30 2519 H 246.037 -5.04972 -0.544581 0
M  V30 2520 H 245.967 -4.73848 -2.2973 0
M  V30 2521 H 248.458 -3.55705 -1.27601 0
M  V30 2522 H 248.771 -7.46141 -2.01231 0
M  V30 2523 H 247.116 -6.70843 -1.81644 0
M  V30 2524 H 250.307 -4.43381 -1.50102 0
M  V30 2525 H 250.48 -6.21416 -1.837 0
M  V30 2526 N 243.887 0.651787 -1.4349 0
M  V30 2527 C 244.817 1.77621 -1.51569 0
M  V30 2528 C 245.798 1.66022 -0.370253 0
M  V30 2529 O 246.983 1.85095 -0.587658 0
M  V30 2530 C 244.113 3.16056 -1.43966 0
M  V30 2531 C 243.067 3.4242 -2.56774 0
M  V30 2532 C 242.393 4.8067 -2.34223 0
M  V30 2533 C 243.693 3.37023 -3.99015 0
M  V30 2534 H 245.387 1.71117 -2.45681 0
M  V30 2535 H 242.933 0.821825 -1.18246 0
M  V30 2536 H 244.886 3.94472 -1.48221 0
M  V30 2537 H 243.61 3.23293 -0.463586 0
M  V30 2538 H 242.269 2.66375 -2.51873 0
M  V30 2539 H 241.917 4.84585 -1.34856 0
M  V30 2540 H 241.617 4.9927 -3.09844 0
M  V30 2541 H 243.141 5.61342 -2.40265 0
M  V30 2542 H 244.555 4.05374 -4.05395 0
M  V30 2543 H 242.952 3.67159 -4.74673 0
M  V30 2544 H 244.022 2.3518 -4.2405 0
M  V30 2545 N 245.365 1.30045 0.890287 0
M  V30 2546 C 246.315 1.12592 1.9826 0
M  V30 2547 C 247.299 0.0426021 1.60844 0
M  V30 2548 O 248.491 0.265346 1.75 0
M  V30 2549 C 245.62 0.814301 3.33503 0
M  V30 2550 C 244.706 1.93761 3.7725 0
M  V30 2551 N 245.097 3.18232 3.93143 0
M  V30 2552 C 243.395 1.83277 4.06602 0
M  V30 2553 C 244.096 3.9158 4.30163 0
M  V30 2554 N 243.072 3.19591 4.3973 0
M  V30 2555 H 246.874 2.07003 2.08631 0
M  V30 2556 H 244.388 1.21307 1.07974 0
M  V30 2557 H 246.385 0.67029 4.11476 0
M  V30 2558 H 245.045 -0.121797 3.24471 0
M  V30 2559 H 246.056 3.53581 3.78419 0
M  V30 2560 H 242.733 0.97001 4.06075 0
M  V30 2561 H 244.123 4.98744 4.50226 0
M  V30 2562 N 246.843 -1.10192 1.12674 0
M  V30 2563 C 247.806 -2.14786 0.799979 0
M  V30 2564 C 248.806 -1.59711 -0.18685 0
M  V30 2565 O 249.996 -1.74156 0.0392558 0
M  V30 2566 C 247.128 -3.40374 0.189228 0
M  V30 2567 H 248.321 -2.45203 1.72671 0
M  V30 2568 H 245.874 -1.25597 0.930326 0
M  V30 2569 H 246.609 -3.15577 -0.747107 0
M  V30 2570 H 246.394 -3.81637 0.899766 0
M  V30 2571 H 247.884 -4.17594 -0.0228143 0
M  V30 2572 N 248.321 -0.919034 -1.28029 0
M  V30 2573 C 249.567 -0.555757 -1.95036 0
M  V30 2574 C 249.9 0.899198 -1.72128 0
M  V30 2575 O 249.175 1.64023 -1.04531 0
M  V30 2576 C 249.458 -0.872024 -3.49382 0
M  V30 2577 C 249.311 -2.3801 -3.81669 0
M  V30 2578 C 250.63 -0.37185 -4.38526 0
M  V30 2579 H 247.749 -0.203386 -0.708381 0
M  V30 2580 H 250.391 -1.14924 -1.51303 0
M  V30 2581 H 248.541 -0.366946 -3.86763 0
M  V30 2582 H 250.213 -2.9562 -3.54128 0
M  V30 2583 H 248.456 -2.83289 -3.28526 0
M  V30 2584 H 249.127 -2.55192 -4.8947 0
M  V30 2585 H 251.603 -0.804602 -4.08247 0
M  V30 2586 H 250.479 -0.622173 -5.45362 0
M  V30 2587 H 250.74 0.727934 -4.36066 0
M  V30 2588 N 249.799 1.42003 -0.683588 0
M  V30 2589 C 251.21 1.84501 -0.285736 0
M  V30 2590 C 251.561 1.57213 1.17382 0
M  V30 2591 O 250.686 1.03642 1.89966 0
M  V30 2592 C 251.281 3.34912 -0.511821 0
M  V30 2593 C 249.84 3.76025 -0.168005 0
M  V30 2594 C 248.987 2.6551 -0.799983 0
M  V30 2595 H 251.938 1.31724 -0.885119 0
M  V30 2596 H 251.959 3.79784 0.233292 0
M  V30 2597 H 251.471 3.54741 -1.57418 0
M  V30 2598 H 249.572 3.61801 0.890567 0
M  V30 2599 H 249.685 4.75141 -0.614661 0
M  V30 2600 H 248.049 2.53654 -0.230568 0
M  V30 2601 H 248.832 2.8816 -1.86597 0
M  V30 2602 N 251.277 0.427512 1.51691 0
M  V30 2603 C 252.24 -0.377132 2.26076 0
M  V30 2604 C 253.24 -0.958089 1.29141 0
M  V30 2605 O 254.43 -0.83408 1.52934 0
M  V30 2606 C 251.562 -1.53262 3.04506 0
M  V30 2607 H 252.755 0.27464 2.9864 0
M  V30 2608 H 250.308 0.180445 1.55255 0
M  V30 2609 H 251.043 -2.22072 2.36335 0
M  V30 2610 H 250.828 -1.12232 3.75694 0
M  V30 2611 H 252.318 -2.10135 3.60878 0
M  V30 2612 N 252.755 -1.56801 0.158532 0
M  V30 2613 C 253.718 -2.16138 -0.762705 0
M  V30 2614 C 254.718 -1.1061 -1.16713 0
M  V30 2615 O 255.908 -1.36191 -1.08617 0
M  V30 2616 C 253.04 -2.73386 -2.03649 0
M  V30 2617 H 254.233 -2.98886 -0.246354 0
M  V30 2618 H 251.786 -1.56035 -0.0909744 0
M  V30 2619 H 252.521 -1.94335 -2.59623 0
M  V30 2620 H 252.306 -3.50601 -1.75559 0
M  V30 2621 H 253.796 -3.19065 -2.6942 0
M  V30 2622 N 254.233 0.115231 -1.57178 0
M  V30 2623 C 255.181 1.16014 -2.01602 0
M  V30 2624 C 256.175 1.42653 -0.913587 0
M  V30 2625 O 257.381 1.42571 -1.09879 0
M  V30 2626 H 253.756 0.391252 -0.642204 0
M  V30 2627 H 255.727 0.758998 -2.88586 0
M  V30 2628 C 254.476 2.47767 -2.4394 0
M  V30 2629 H 253.799 2.28108 -3.28339 0
M  V30 2630 H 255.239 3.19432 -2.78818 0
M  V30 2631 C 253.698 3.10617 -1.30455 0
M  V30 2632 O 254.228 3.96846 -0.622585 0
M  V30 2633 N 252.434 2.70553 -1.06064 0
M  V30 2634 H 251.981 2.00527 -1.61699 0
M  V30 2635 H 251.939 3.12934 -0.303284 0
M  V30 2636 N 255.711 1.52812 0.385517 0
M  V30 2637 C 256.939 1.71907 1.15133 0
M  V30 2638 C 257.354 0.439004 1.83625 0
M  V30 2639 O 256.711 -0.586765 1.7281 0
M  V30 2640 C 256.762 2.87099 2.19673 0
M  V30 2641 O 256.483 4.10151 1.53973 0
M  V30 2642 C 257.984 3.17902 3.08955 0
M  V30 2643 H 255.204 0.575479 0.345057 0
M  V30 2644 H 257.748 1.99476 0.45052 0
M  V30 2645 H 255.903 2.61982 2.85384 0
M  V30 2646 H 256.317 4.74514 2.23465 0
M  V30 2647 H 257.791 4.01959 3.7833 0
M  V30 2648 H 258.268 2.3243 3.72657 0
M  V30 2649 H 258.874 3.44871 2.48885 0
M  V30 2650 N 257.189 -0.644168 1.43834 0
M  V30 2651 C 258.435 -1.40603 1.46146 0
M  V30 2652 C 258.768 -1.93997 0.0887717 0
M  V30 2653 O 258.043 -1.72854 -0.891724 0
M  V30 2654 C 258.326 -2.58086 2.51124 0
M  V30 2655 C 258.179 -2.10126 3.97702 0
M  V30 2656 C 259.498 -3.60291 2.52742 0
M  V30 2657 H 256.617 -0.509905 0.532134 0
M  V30 2658 H 259.259 -0.729502 1.75437 0
M  V30 2659 H 257.409 -3.15801 2.26278 0
M  V30 2660 H 259.081 -1.57342 4.33637 0
M  V30 2661 H 257.324 -1.41419 4.10101 0
M  V30 2662 H 257.995 -2.94649 4.66783 0
M  V30 2663 H 260.471 -3.12352 2.7491 0
M  V30 2664 H 259.347 -4.40032 3.28121 0
M  V30 2665 H 259.608 -4.1349 1.56455 0
M  V30 2666 N 258.668 -1.30515 -0.883378 0
M  V30 2667 C 259.615 -1.17032 -1.98927 0
M  V30 2668 C 260.585 -0.0594241 -1.65994 0
M  V30 2669 O 261.77 -0.229895 -1.8941 0
M  V30 2670 C 258.91 -0.869777 -3.33959 0
M  V30 2671 C 258.023 -2.06271 -3.79574 0
M  V30 2672 C 257.158 -1.70011 -5.03259 0
M  V30 2673 C 256.197 -2.8579 -5.41286 0
M  V30 2674 N 255.334 -2.49816 -6.56153 0
M  V30 2675 H 260.174 -2.1164 -2.09792 0
M  V30 2676 H 257.711 -1.05296 -1.02719 0
M  V30 2677 H 259.669 -0.676138 -4.11685 0
M  V30 2678 H 258.299 0.0394332 -3.22776 0
M  V30 2679 H 257.351 -2.36755 -2.97744 0
M  V30 2680 H 258.663 -2.92971 -4.03694 0
M  V30 2681 H 257.817 -1.47032 -5.88614 0
M  V30 2682 H 256.556 -0.804829 -4.81013 0
M  V30 2683 H 255.561 -3.09434 -4.54456 0
M  V30 2684 H 256.786 -3.76008 -5.65504 0
M  V30 2685 H 254.732 -1.62795 -6.35479 0
M  V30 2686 H 254.649 -3.30048 -6.8015 0
M  V30 2687 H 255.917 -2.30197 -7.44735 0
M  V30 2688 N 260.146 1.09593 -1.13257 0
M  V30 2689 C 261.393 1.81734 -0.893257 0
M  V30 2690 C 261.721 1.8563 0.580656 0
M  V30 2691 O 260.976 1.31906 1.44566 0
M  V30 2692 C 261.275 3.27802 -1.42411 0
M  V30 2693 C 260.941 3.44041 -2.91456 0
M  V30 2694 C 259.603 3.48181 -3.3215 0
M  V30 2695 C 261.955 3.48719 -3.87356 0
M  V30 2696 C 259.283 3.54575 -4.67433 0
M  V30 2697 C 261.635 3.56648 -5.2248 0
M  V30 2698 C 260.299 3.59055 -5.62704 0
M  V30 2699 H 259.569 0.665011 -0.326866 0
M  V30 2700 H 262.216 1.2912 -1.41422 0
M  V30 2701 H 260.521 3.83042 -0.823795 0
M  V30 2702 H 262.218 3.82149 -1.21503 0
M  V30 2703 H 258.808 3.41502 -2.58987 0
M  V30 2704 H 262.992 3.44763 -3.57004 0
M  V30 2705 H 258.248 3.54725 -4.97976 0
M  V30 2706 H 262.422 3.59212 -5.96607 0
M  V30 2707 H 260.049 3.63763 -6.67518 0
M  V30 2708 N 261.624 0.925811 1.2754 0
M  V30 2709 C 263.04 0.625767 1.46821 0
M  V30 2710 C 263.24 -0.825506 1.83814 0
M  V30 2711 O 262.296 -1.60356 1.95044 0
M  V30 2712 C 263.609 1.57402 2.56213 0
M  V30 2713 C 265.157 1.58204 2.70075 0
M  V30 2714 C 265.632 2.51721 3.82623 0
M  V30 2715 N 267.123 2.49917 3.89994 0
M  V30 2716 C 267.858 3.18968 4.76494 0
M  V30 2717 N 267.354 3.97391 5.67496 0
M  V30 2718 N 269.147 3.07996 4.70208 0
M  V30 2719 H 261.298 1.86409 1.01811 0
M  V30 2720 H 263.561 0.800213 0.508295 0
M  V30 2721 H 263.267 2.60925 2.35819 0
M  V30 2722 H 263.141 1.31428 3.53563 0
M  V30 2723 H 265.528 0.554124 2.89851 0
M  V30 2724 H 265.609 1.88226 1.73218 0
M  V30 2725 H 265.253 3.54622 3.63601 0
M  V30 2726 H 265.183 2.18996 4.78903 0
M  V30 2727 H 267.674 1.9296 3.24923 0
M  V30 2728 H 267.987 4.4707 6.30356 0
M  V30 2729 H 266.332 4.01495 5.67298 0
M  V30 2730 H 269.523 2.46223 3.9811 0
M  V30 2731 H 269.696 3.6208 5.37403 0
M  V30 2732 N 263.102 -1.41638 0.69111 0
M  V30 2733 C 264.342 -2.03166 0.224291 0
M  V30 2734 C 264.706 -1.53537 -1.15284 0
M  V30 2735 O 265.907 -2.0696 -1.71525 0
M  V30 2736 C 264.178 -3.56342 0.274758 0
M  V30 2737 S 265.737 -4.3864 -0.118669 0
M  V30 2738 H 262.555 -0.705188 0.0907263 0
M  V30 2739 H 265.157 -1.7314 0.907895 0
M  V30 2740 H 263.861 -3.89958 1.2791 0
M  V30 2741 H 263.392 -3.91063 -0.428142 0
M  V30 2742 H 265.407 -4.77549 -1.34764 0
M  V30 2743 N 264.58 -0.43555 -1.51462 0
M  V30 2744 C 265.991 0.0279871 -1.86679 0
M  V30 2745 C 266.342 1.42104 -1.35281 0
M  V30 2746 O 265.467 2.04667 -0.702878 0
M  V30 2747 C 266.062 0.0575626 -3.38751 0
M  V30 2748 C 264.621 0.465507 -3.7351 0
M  V30 2749 C 263.768 -0.342996 -2.75171 0
M  V30 2750 H 266.719 -0.651473 -1.44712 0
M  V30 2751 H 266.74 0.867421 -3.70481 0
M  V30 2752 H 266.252 -0.956448 -3.7613 0
M  V30 2753 H 264.353 1.48519 -3.41721 0
M  V30 2754 H 264.466 0.191546 -4.78717 0
M  V30 2755 H 262.83 0.198442 -2.53926 0
M  V30 2756 H 263.613 -1.35585 -3.15391 0
M  V30 2757 N 266.058 1.56714 -0.166846 0
M  V30 2758 C 267.021 2.16539 0.751232 0
M  V30 2759 C 268.021 1.11228 1.16125 0
M  V30 2760 O 269.211 1.36765 1.07894 0
M  V30 2761 C 266.343 2.74462 2.02196 0
M  V30 2762 H 267.536 2.99013 0.230499 0
M  V30 2763 H 265.089 1.56081 0.0826982 0
M  V30 2764 H 265.824 1.95709 2.58589 0
M  V30 2765 H 265.609 3.51527 1.73698 0
M  V30 2766 H 267.099 3.20489 2.67725 0
M  V30 2767 N 267.536 -0.106894 1.57237 0
M  V30 2768 C 268.784 -0.810921 1.85117 0
M  V30 2769 C 269.105 -1.7984 0.753827 0
M  V30 2770 O 268.375 -1.94649 -0.221056 0
M  V30 2771 H 266.955 -0.302466 0.683025 0
M  V30 2772 H 269.617 -0.0913324 1.94686 0
M  V30 2773 H 268.713 -1.34875 2.81452 0
M  V30 2774 N 269.014 -1.53014 -0.377408 0
M  V30 2775 C 270.262 -1.6829 -1.11906 0
M  V30 2776 C 270.583 -0.431206 -1.90173 0
M  V30 2777 O 269.853 0.554595 -1.87886 0
M  V30 2778 H 268.433 -0.620371 -0.416112 0
M  V30 2779 H 271.095 -1.90167 -0.426893 0
M  V30 2780 H 270.191 -2.53862 -1.8155 0
M  V30 2781 N 270.492 0.636531 -1.44174 0
M  V30 2782 C 271.44 1.76995 -1.50915 0
M  V30 2783 C 272.434 1.65053 -0.381295 0
M  V30 2784 O 273.64 1.71197 -0.55601 0
M  V30 2785 H 270.015 0.584247 -0.473455 0
M  V30 2786 H 271.986 1.68432 -2.4632 0
M  V30 2787 C 270.735 3.15314 -1.46534 0
M  V30 2788 H 270.058 3.25149 -2.32633 0
M  V30 2789 H 271.498 3.9453 -1.55312 0
M  V30 2790 C 269.957 3.3639 -0.185305 0
M  V30 2791 O 270.487 3.94699 0.746688 0
M  V30 2792 N 268.693 2.9046 -0.0901606 0
M  V30 2793 H 268.24 2.43193 -0.849416 0
M  V30 2794 H 268.198 3.04937 0.765553 0
M  V30 2795 N 271.97 1.30982 0.876444 0
M  V30 2796 C 273.381 1.18277 1.44456 0
M  V30 2797 C 273.732 -0.213265 1.95037 0
M  V30 2798 O 272.857 -1.11057 1.85729 0
M  V30 2799 C 273.452 2.1411 2.62569 0
M  V30 2800 C 272.011 2.05358 3.15444 0
M  V30 2801 C 271.158 2.03706 1.88146 0
M  V30 2802 H 274.109 1.43127 0.685584 0
M  V30 2803 H 274.13 1.72692 3.39054 0
M  V30 2804 H 273.642 3.15706 2.25724 0
M  V30 2805 H 271.743 1.06934 3.56926 0
M  V30 2806 H 271.856 2.94156 3.78166 0
M  V30 2807 H 270.22 1.48629 2.06837 0
M  V30 2808 H 271.003 3.07047 1.53547 0
M  V30 2809 N 273.449 -1.08991 1.13837 0
M  V30 2810 C 274.382 -2.15049 0.763477 0
M  V30 2811 C 275.36 -1.60629 -0.252398 0
M  V30 2812 O 276.544 -1.87958 -0.142853 0
M  V30 2813 C 273.671 -3.38441 0.132545 0
M  V30 2814 C 272.717 -4.11596 1.11763 0
M  V30 2815 S 273.55 -4.6521 2.65216 0
M  V30 2816 C 274.706 -5.91896 2.03495 0
M  V30 2817 H 274.939 -2.46518 1.66182 0
M  V30 2818 H 272.472 -1.21008 0.958976 0
M  V30 2819 H 274.43 -4.09883 -0.225074 0
M  V30 2820 H 273.091 -3.05182 -0.743135 0
M  V30 2821 H 272.284 -5.00121 0.624076 0
M  V30 2822 H 271.886 -3.46038 1.41894 0
M  V30 2823 H 274.178 -6.63156 1.38675 0
M  V30 2824 H 275.121 -6.45938 2.9012 0
M  V30 2825 H 275.529 -5.44625 1.48471 0
M  V30 2826 N 274.927 -0.932562 -1.27047 0
M  V30 2827 C 276.338 -0.619451 -1.76124 0
M  V30 2828 C 276.689 0.865397 -1.76083 0
M  V30 2829 O 275.814 1.67722 -1.36742 0
M  V30 2830 C 276.409 -1.11771 -3.19832 0
M  V30 2831 C 274.968 -0.855174 -3.66557 0
M  V30 2832 C 274.115 -1.27362 -2.46321 0
M  V30 2833 H 277.066 -1.11181 -1.13245 0
M  V30 2834 H 277.087 -0.46759 -3.77616 0
M  V30 2835 H 276.599 -2.19842 -3.1983 0
M  V30 2836 H 274.7 0.211524 -3.71999 0
M  V30 2837 H 274.813 -1.47613 -4.55793 0
M  V30 2838 H 273.177 -0.692119 -2.45116 0
M  V30 2839 H 273.96 -2.36307 -2.49025 0
M  V30 2840 N 276.405 1.4127 -0.698611 0
M  V30 2841 C 277.633 2.05503 -0.239992 0
M  V30 2842 C 278.048 1.52584 1.11191 0
M  V30 2843 O 277.405 0.675323 1.69545 0
M  V30 2844 C 277.456 3.60987 -0.192429 0
M  V30 2845 O 277.177 4.1195 -1.49094 0
M  V30 2846 C 278.678 4.42371 0.28681 0
M  V30 2847 H 275.898 0.661748 -0.111045 0
M  V30 2848 H 278.442 1.80987 -0.95205 0
M  V30 2849 H 276.597 3.84533 0.470472 0
M  V30 2850 H 277.011 5.06018 -1.38007 0
M  V30 2851 H 278.485 5.51344 0.26896 0
M  V30 2852 H 278.962 4.18699 1.32619 0
M  V30 2853 H 279.568 4.23897 -0.345201 0
M  V30 2854 N 277.883 0.443576 1.51229 0
M  V30 2855 C 278.816 -0.410089 2.24485 0
M  V30 2856 C 279.794 -1.01949 1.26669 0
M  V30 2857 O 280.978 -1.06075 1.55821 0
M  V30 2858 C 278.105 -1.57211 3.00004 0
M  V30 2859 C 277.151 -1.08279 4.12526 0
M  V30 2860 S 277.984 -0.0197476 5.35496 0
M  V30 2861 C 279.14 -1.18629 6.14555 0
M  V30 2862 H 279.373 0.211832 2.96544 0
M  V30 2863 H 276.906 0.228156 1.52705 0
M  V30 2864 H 278.864 -2.23825 3.44111 0
M  V30 2865 H 277.525 -2.16547 2.27522 0
M  V30 2866 H 276.718 -1.95193 4.64667 0
M  V30 2867 H 276.32 -0.494797 3.70713 0
M  V30 2868 H 278.612 -2.10344 6.4402 0
M  V30 2869 H 279.555 -0.70472 7.04584 0
M  V30 2870 H 279.963 -1.42768 5.46148 0
M  V30 2871 N 279.361 -1.56624 0.175154 0
M  V30 2872 C 280.777 -1.58571 -0.180966 0
M  V30 2873 C 280.977 -1.19065 -1.6256 0
M  V30 2874 O 280.033 -0.904044 -2.35761 0
M  V30 2875 C 281.346 -3.00522 0.103326 0
M  V30 2876 C 282.894 -3.12972 0.0418426 0
M  V30 2877 C 283.369 -4.57022 0.299175 0
M  V30 2878 N 284.86 -4.62541 0.247086 0
M  V30 2879 C 285.595 -5.71857 0.420318 0
M  V30 2880 N 285.091 -6.89717 0.652816 0
M  V30 2881 N 286.884 -5.60972 0.355957 0
M  V30 2882 H 279.035 -1.80589 1.11809 0
M  V30 2883 H 281.298 -0.837178 0.444788 0
M  V30 2884 H 281.004 -3.33916 1.10422 0
M  V30 2885 H 280.878 -3.72344 -0.603299 0
M  V30 2886 H 283.265 -2.79403 -0.949636 0
M  V30 2887 H 283.346 -2.43578 0.781238 0
M  V30 2888 H 282.99 -4.913 1.28788 0
M  V30 2889 H 282.92 -5.24579 -0.460876 0
M  V30 2890 H 285.411 -3.77829 0.0731895 0
M  V30 2891 H 285.724 -7.68911 0.774347 0
M  V30 2892 H 284.069 -6.91572 0.689476 0
M  V30 2893 H 287.26 -4.67773 0.174882 0
M  V30 2894 H 287.433 -6.46111 0.494388 0
M  V30 2895 N 280.839 0.0985539 -1.57292 0
M  V30 2896 C 282.085 0.798769 -1.87059 0
M  V30 2897 C 282.44 1.76514 -0.76555 0
M  V30 2898 O 281.733 1.90181 0.232752 0
M  V30 2899 C 281.927 1.56927 -3.21105 0
M  V30 2900 C 281.756 0.679026 -4.44544 0
M  V30 2901 C 280.526 0.326071 -5.04247 0
M  V30 2902 C 282.724 -0.0124715 -5.14298 0
M  V30 2903 N 280.706 -0.572702 -6.11223 0
M  V30 2904 C 282.077 -0.769446 -6.15207 0
M  V30 2905 C 284.132 -0.0867545 -4.97824 0
M  V30 2906 C 282.835 -1.59376 -7.01421 0
M  V30 2907 C 284.861 -0.897955 -5.84543 0
M  V30 2908 C 284.223 -1.64306 -6.84969 0
M  V30 2909 H 280.322 0.268568 -0.734435 0
M  V30 2910 H 282.906 0.0614664 -1.94603 0
M  V30 2911 H 281.077 2.27748 -3.1462 0
M  V30 2912 H 282.809 2.21641 -3.38611 0
M  V30 2913 H 279.564 0.67295 -4.68795 0
M  V30 2914 H 279.988 -1.01454 -6.69355 0
M  V30 2915 H 284.63 0.474963 -4.20124 0
M  V30 2916 H 282.348 -2.16655 -7.78515 0
M  V30 2917 H 285.934 -0.958059 -5.73858 0
M  V30 2918 H 284.814 -2.26065 -7.50909 0
M  V30 2919 N 282.317 1.53212 0.369288 0
M  V30 2920 C 283.247 1.82365 1.45826 0
M  V30 2921 C 284.228 0.676907 1.56051 0
M  V30 2922 O 285.413 0.926401 1.70679 0
M  V30 2923 C 282.543 2.01023 2.83208 0
M  V30 2924 C 281.497 3.1678 2.8781 0
M  V30 2925 C 280.823 3.20724 4.27832 0
M  V30 2926 C 282.123 4.55447 2.55667 0
M  V30 2927 H 283.817 2.73559 1.21678 0
M  V30 2928 H 281.363 1.3163 0.583911 0
M  V30 2929 H 283.316 2.20001 3.59413 0
M  V30 2930 H 282.04 1.06536 3.08736 0
M  V30 2931 H 280.699 2.97616 2.14056 0
M  V30 2932 H 280.347 2.23882 4.50429 0
M  V30 2933 H 280.047 3.98496 4.31827 0
M  V30 2934 H 281.571 3.41881 5.05915 0
M  V30 2935 H 282.985 4.74611 3.21586 0
M  V30 2936 H 281.382 5.35432 2.70984 0
M  V30 2937 H 282.452 4.60812 1.5093 0
M  V30 2938 N 283.795 -0.628877 1.44509 0
M  V30 2939 C 284.742 -1.74074 1.51549 0
M  V30 2940 C 285.712 -1.62084 0.363021 0
M  V30 2941 O 286.897 -1.81975 0.573567 0
M  V30 2942 C 284.037 -3.12328 1.46784 0
M  V30 2943 C 283.15 -3.35277 2.72422 0
M  V30 2944 C 282.285 -4.63515 2.59475 0
M  V30 2945 C 281.324 -4.7965 3.80266 0
M  V30 2946 N 280.461 -5.99168 3.65981 0
M  V30 2947 H 285.301 -1.67392 2.46544 0
M  V30 2948 H 282.838 -0.816527 1.22357 0
M  V30 2949 H 284.796 -3.92286 1.42012 0
M  V30 2950 H 283.426 -3.18018 0.553544 0
M  V30 2951 H 282.478 -2.49242 2.87372 0
M  V30 2952 H 283.79 -3.43078 3.62076 0
M  V30 2953 H 282.944 -5.51638 2.52548 0
M  V30 2954 H 281.683 -4.58076 1.67384 0
M  V30 2955 H 280.688 -3.89957 3.87574 0
M  V30 2956 H 281.913 -4.86902 4.73395 0
M  V30 2957 H 279.859 -5.94814 2.76644 0
M  V30 2958 H 279.776 -6.08035 4.49254 0
M  V30 2959 H 281.044 -6.89846 3.6295 0
M  V30 2960 N 285.273 -1.31445 -0.869486 0
M  V30 2961 C 286.221 -1.19067 -1.99814 0
M  V30 2962 C 287.215 -0.0988569 -1.69111 0
M  V30 2963 O 288.421 -0.260781 -1.78101 0
M  V30 2964 H 284.796 -0.368677 -0.655425 0
M  V30 2965 H 286.767 -2.14555 -2.07385 0
M  V30 2966 C 285.516 -0.915323 -3.35436 0
M  V30 2967 H 284.839 -1.74759 -3.59582 0
M  V30 2968 H 286.279 -0.868895 -4.15001 0
M  V30 2969 C 284.738 0.381928 -3.34728 0
M  V30 2970 O 285.268 1.39857 -3.76567 0
M  V30 2971 N 283.474 0.398633 -2.87853 0
M  V30 2972 H 283.021 -0.429186 -2.54 0
M  V30 2973 H 282.979 1.26651 -2.87762 0
M  V30 2974 N 286.751 1.08385 -1.14413 0
M  V30 2975 C 287.999 1.80419 -0.910679 0
M  V30 2976 C 288.32 1.86658 0.564243 0
M  V30 2977 O 287.59 1.35985 1.41014 0
M  V30 2978 H 286.17 0.668204 -0.333934 0
M  V30 2979 H 288.832 1.31037 -1.44275 0
M  V30 2980 H 287.928 2.83238 -1.31082 0
M  V30 2981 N 288.23 0.939286 1.26551 0
M  V30 2982 C 289.177 0.446088 2.26448 0
M  V30 2983 C 290.147 -0.493234 1.58608 0
M  V30 2984 O 291.332 -0.409857 1.86346 0
M  V30 2985 C 288.472 -0.284375 3.43926 0
M  V30 2986 C 287.585 0.690399 4.26448 0
M  V30 2987 C 286.72 -0.0610712 5.31165 0
M  V30 2988 C 285.759 0.905649 6.05363 0
M  V30 2989 N 284.896 0.186055 7.01853 0
M  V30 2990 H 289.736 1.30291 2.68008 0
M  V30 2991 H 287.273 0.65371 1.31776 0
M  V30 2992 H 289.231 -0.724313 4.10864 0
M  V30 2993 H 287.861 -1.10535 3.03285 0
M  V30 2994 H 286.913 1.24885 3.59316 0
M  V30 2995 H 288.225 1.42873 4.779 0
M  V30 2996 H 287.379 -0.56038 6.04106 0
M  V30 2997 H 286.118 -0.832297 4.80546 0
M  V30 2998 H 285.123 1.4161 5.3125 0
M  V30 2999 H 286.348 1.67685 6.58072 0
M  V30 3000 H 284.294 -0.566714 6.53548 0
M  V30 3001 H 284.211 0.863752 7.51049 0
M  V30 3002 H 285.479 -0.292221 7.78952 0
M  V30 3003 N 289.708 -1.40897 0.706093 0
M  V30 3004 C 290.618 -2.3455 0.0482286 0
M  V30 3005 C 291.634 -1.56796 -0.754396 0
M  V30 3006 O 292.81 -1.89228 -0.689538 0
M  V30 3007 C 289.875 -3.35625 -0.869303 0
M  V30 3008 C 288.936 -4.29261 -0.0576994 0
M  V30 3009 C 288.169 -5.25508 -0.931531 0
M  V30 3010 O 288.392 -5.27472 -2.17092 0
M  V30 3011 O 287.326 -6.00727 -0.375587 0
M  V30 3012 H 291.152 -2.92407 0.820476 0
M  V30 3013 H 288.737 -1.4193 0.4665 0
M  V30 3014 H 290.619 -3.97635 -1.39514 0
M  V30 3015 H 289.294 -2.80196 -1.62086 0
M  V30 3016 H 288.201 -3.70566 0.512988 0
M  V30 3017 H 289.534 -4.87817 0.655426 0
M  V30 3018 N 291.186 -0.45159 -1.50991 0
M  V30 3019 C 292.433 0.110074 -2.02201 0
M  V30 3020 C 292.761 1.4146 -1.33489 0
M  V30 3021 O 292.016 1.90617 -0.443125 0
M  V30 3022 C 292.315 0.361728 -3.55565 0
M  V30 3023 C 291.981 -0.858717 -4.42648 0
M  V30 3024 C 290.643 -1.19338 -4.66167 0
M  V30 3025 C 292.995 -1.67221 -4.93646 0
M  V30 3026 C 290.323 -2.34195 -5.37931 0
M  V30 3027 C 292.675 -2.8119 -5.6667 0
M  V30 3028 C 291.339 -3.15094 -5.88449 0
M  V30 3029 H 290.609 0.040279 -0.739904 0
M  V30 3030 H 293.256 -0.601696 -1.81802 0
M  V30 3031 H 291.561 1.15554 -3.74372 0
M  V30 3032 H 293.258 0.80996 -3.92735 0
M  V30 3033 H 289.848 -0.58796 -4.24548 0
M  V30 3034 H 294.032 -1.42686 -4.75347 0
M  V30 3035 H 289.288 -2.6076 -5.53005 0
M  V30 3036 H 293.462 -3.44585 -6.05173 0
M  V30 3037 H 291.089 -4.04204 -6.43835 0
M  V30 3038 N 292.664 1.56529 -0.183458 0
M  V30 3039 C 293.611 2.18546 0.742055 0
M  V30 3040 C 294.581 1.12912 1.2182 0
M  V30 3041 O 295.766 1.41115 1.28418 0
M  V30 3042 C 292.906 2.83977 1.96089 0
M  V30 3043 C 292.019 4.04105 1.52719 0
M  V30 3044 C 291.154 4.57427 2.70063 0
M  V30 3045 C 290.193 5.69938 2.23243 0
M  V30 3046 N 289.33 6.17717 3.33722 0
M  V30 3047 H 294.17 2.97284 0.206432 0
M  V30 3048 H 291.707 1.46823 0.0901571 0
M  V30 3049 H 293.665 3.20077 2.67594 0
M  V30 3050 H 292.295 2.07822 2.47002 0
M  V30 3051 H 291.347 3.73745 0.708436 0
M  V30 3052 H 292.659 4.85513 1.1436 0
M  V30 3053 H 291.813 4.95772 3.49708 0
M  V30 3054 H 290.552 3.75101 3.11689 0
M  V30 3055 H 289.557 5.31133 1.42048 0
M  V30 3056 H 290.782 6.54073 1.82661 0
M  V30 3057 H 288.728 5.38317 3.74902 0
M  V30 3058 H 288.645 6.94146 2.99495 0
M  V30 3059 H 289.913 6.60713 4.13616 0
M  V30 3060 N 294.142 -0.090211 1.57342 0
M  V30 3061 C 295.074 -1.13541 1.99101 0
M  V30 3062 C 296.087 -1.3604 0.894258 0
M  V30 3063 O 297.276 -1.34606 1.17233 0
M  V30 3064 C 294.376 -2.49001 2.29895 0
M  V30 3065 C 293.549 -2.46712 3.61182 0
M  V30 3066 C 292.608 -3.64136 3.79857 0
M  V30 3067 O 291.634 -3.46405 4.51655 0
M  V30 3068 N 292.836 -4.83802 3.20806 0
M  V30 3069 H 295.601 -0.779942 2.89373 0
M  V30 3070 H 293.162 -0.279125 1.59476 0
M  V30 3071 H 295.154 -3.26166 2.39578 0
M  V30 3072 H 293.724 -2.76619 1.45605 0
M  V30 3073 H 292.944 -1.55058 3.62423 0
M  V30 3074 H 294.232 -2.42265 4.4742 0
M  V30 3075 H 293.63 -5.01112 2.62494 0
M  V30 3076 H 292.187 -5.58543 3.35966 0
M  V30 3077 N 295.62 -1.53406 -0.361157 0
M  V30 3078 C 296.53 -1.83122 -1.4664 0
M  V30 3079 C 297.546 -0.719943 -1.58407 0
M  V30 3080 O 298.722 -1.01046 -1.74218 0
M  V30 3081 C 295.787 -2.01891 -2.81853 0
M  V30 3082 C 294.848 -3.25784 -2.79577 0
M  V30 3083 C 294.081 -3.43648 -4.0834 0
M  V30 3084 O 294.304 -2.65714 -5.0473 0
M  V30 3085 O 293.238 -4.37018 -4.13883 0
M  V30 3086 H 297.064 -2.7703 -1.24451 0
M  V30 3087 H 294.649 -1.38841 -0.551678 0
M  V30 3088 H 296.531 -2.15782 -3.61962 0
M  V30 3089 H 295.206 -1.11173 -3.0401 0
M  V30 3090 H 294.113 -3.17312 -1.98151 0
M  V30 3091 H 295.446 -4.16439 -2.62373 0
M  V30 3092 N 297.098 0.621204 -1.44841 0
M  V30 3093 C 298.048 1.72663 -1.48901 0
M  V30 3094 C 299.032 1.56964 -0.353702 0
M  V30 3095 O 300.224 1.66532 -0.599669 0
M  V30 3096 C 297.353 3.11381 -1.44557 0
M  V30 3097 C 296.439 3.32514 -2.6324 0
M  V30 3098 N 296.83 3.23969 -3.8843 0
M  V30 3099 C 295.128 3.63343 -2.58647 0
M  V30 3100 C 295.829 3.46062 -4.67564 0
M  V30 3101 N 294.805 3.69407 -3.98797 0
M  V30 3102 H 298.607 1.64529 -2.43531 0
M  V30 3103 H 296.121 0.82401 -1.39942 0
M  V30 3104 H 298.118 3.90667 -1.4555 0
M  V30 3105 H 296.778 3.20674 -0.509731 0
M  V30 3106 H 297.789 3.02669 -4.20252 0
M  V30 3107 H 294.466 3.79556 -1.73906 0
M  V30 3108 H 295.856 3.44963 -5.76585 0
M  V30 3109 N 298.576 1.31904 0.862503 0
M  V30 3110 C 299.992 1.10724 1.14945 0
M  V30 3111 C 300.192 -0.117421 2.01158 0
M  V30 3112 O 299.248 -0.804595 2.39338 0
M  V30 3113 C 300.561 2.38267 1.83437 0
M  V30 3114 C 302.109 2.43949 1.96106 0
M  V30 3115 C 302.584 3.71394 2.68013 0
M  V30 3116 N 304.075 3.72331 2.75543 0
M  V30 3117 C 304.81 4.67641 3.31812 0
M  V30 3118 N 304.306 5.73313 3.88953 0
M  V30 3119 N 306.099 4.5515 3.29841 0
M  V30 3120 H 298.25 2.10436 0.288191 0
M  V30 3121 H 300.513 0.928705 0.190292 0
M  V30 3122 H 300.219 3.27759 1.27542 0
M  V30 3123 H 300.093 2.48633 2.83657 0
M  V30 3124 H 302.48 1.54922 2.51164 0
M  V30 3125 H 302.561 2.37543 0.949059 0
M  V30 3126 H 302.205 4.60791 2.13621 0
M  V30 3127 H 302.135 3.75069 3.69636 0
M  V30 3128 H 304.626 2.95947 2.34997 0
M  V30 3129 H 304.939 6.42107 4.30022 0
M  V30 3130 H 303.284 5.77077 3.87308 0
M  V30 3131 H 306.475 3.71766 2.84443 0
M  V30 3132 H 306.648 5.29604 3.73394 0
M  V30 3133 N 300.054 -1.07777 1.14986 0
M  V30 3134 C 301.303 -1.79669 0.916617 0
M  V30 3135 C 301.616 -1.87474 -0.557917 0
M  V30 3136 O 302.822 -2.55845 -0.908617 0
M  V30 3137 C 301.278 -3.22848 1.59051 0
M  V30 3138 C 300.886 -3.23257 3.10176 0
M  V30 3139 C 302.63 -3.99379 1.43864 0
M  V30 3140 C 300.537 -4.61063 3.70372 0
M  V30 3141 H 299.467 -0.673349 0.33929 0
M  V30 3142 H 302.118 -1.21003 1.37951 0
M  V30 3143 H 300.5 -3.8168 1.0553 0
M  V30 3144 H 301.674 -2.74095 3.70417 0
M  V30 3145 H 299.989 -2.60222 3.25074 0
M  V30 3146 H 302.586 -5.0122 1.86232 0
M  V30 3147 H 302.929 -4.14511 0.385564 0
M  V30 3148 H 303.462 -3.47032 1.94457 0
M  V30 3149 H 300.201 -4.51135 4.7556 0
M  V30 3150 H 299.721 -5.1048 3.14913 0
M  V30 3151 H 301.4 -5.30034 3.71043 0
M  V30 3152 N 301.532 -0.945985 -1.26051 0
M  V30 3153 C 302.78 -0.594941 -1.93145 0
M  V30 3154 C 303.101 0.86953 -1.7454 0
M  V30 3155 O 302.371 1.61838 -1.10387 0
M  V30 3156 H 300.951 -0.217044 -0.714773 0
M  V30 3157 H 303.613 -1.20235 -1.53393 0
M  V30 3158 H 302.709 -0.816835 -3.01221 0
M  V30 3159 N 303.011 1.40521 -0.713556 0
M  V30 3160 C 304.259 2.00527 -0.251692 0
M  V30 3161 C 304.58 1.56857 1.15848 0
M  V30 3162 O 303.85 0.807127 1.785 0
M  V30 3163 H 302.43 0.741551 -0.0900646 0
M  V30 3164 H 305.092 1.71887 -0.918733 0
M  V30 3165 H 304.188 3.10813 -0.283192 0
M  V30 3166 N 304.489 0.459591 1.5075 0
M  V30 3167 C 305.719 -0.0972338 2.06371 0
M  V30 3168 C 306.127 -1.35074 1.32483 0
M  V30 3169 O 305.47 -1.79637 0.384226 0
M  V30 3170 C 305.532 -0.462759 3.56509 0
M  V30 3171 C 305.196 0.687084 4.51805 0
M  V30 3172 C 306.193 1.56578 4.95761 0
M  V30 3173 C 303.878 0.874144 4.94635 0
M  V30 3174 C 305.872 2.61604 5.81242 0
M  V30 3175 C 303.559 1.92765 5.79901 0
M  V30 3176 C 304.557 2.79697 6.23104 0
M  V30 3177 O 304.245 3.83235 7.06673 0
M  V30 3178 H 303.977 -0.00140687 0.675999 0
M  V30 3179 H 306.531 0.644011 1.95043 0
M  V30 3180 H 304.761 -1.25703 3.65699 0
M  V30 3181 H 306.45 -0.953323 3.94546 0
M  V30 3182 H 307.216 1.4329 4.6335 0
M  V30 3183 H 303.095 0.207006 4.60535 0
M  V30 3184 H 306.639 3.29489 6.14884 0
M  V30 3185 H 302.536 2.06064 6.11725 0
M  V30 3186 H 303.304 3.80084 7.24899 0
M  V30 3187 N 305.967 -1.56429 0.191757 0
M  V30 3188 C 306.914 -2.18936 -0.730454 0
M  V30 3189 C 307.884 -1.13557 -1.21219 0
M  V30 3190 O 309.069 -1.41794 -1.27668 0
M  V30 3191 C 306.209 -2.85013 -1.9458 0
M  V30 3192 C 305.322 -4.04909 -1.50574 0
M  V30 3193 C 304.457 -4.58853 -2.67634 0
M  V30 3194 C 303.496 -5.71114 -2.20217 0
M  V30 3195 N 302.633 -6.19478 -3.30442 0
M  V30 3196 H 307.473 -2.97389 -0.190664 0
M  V30 3197 H 305.01 -1.46869 -0.0823694 0
M  V30 3198 H 306.968 -3.21492 -2.65893 0
M  V30 3199 H 305.598 -2.09129 -2.45896 0
M  V30 3200 H 304.65 -3.74115 -0.688605 0
M  V30 3201 H 305.962 -4.86113 -1.11784 0
M  V30 3202 H 305.116 -4.97619 -3.47074 0
M  V30 3203 H 303.855 -3.76749 -3.09696 0
M  V30 3204 H 302.86 -5.31879 -1.3923 0
M  V30 3205 H 304.085 -6.55033 -1.79189 0
M  V30 3206 H 302.031 -5.40297 -3.72041 0
M  V30 3207 H 301.948 -6.95725 -2.9581 0
M  V30 3208 H 303.216 -6.62898 -4.10106 0
M  V30 3209 N 307.445 0.0818655 -1.57387 0
M  V30 3210 C 308.691 0.784074 -1.8703 0
M  V30 3211 C 309.024 1.77729 -0.782689 0
M  V30 3212 O 308.299 1.93384 0.208051 0
M  V30 3213 C 308.582 1.50105 -3.27323 0
M  V30 3214 C 308.435 0.524925 -4.46727 0
M  V30 3215 C 309.754 2.44843 -3.65705 0
M  V30 3216 H 306.873 0.283582 -0.680257 0
M  V30 3217 H 309.515 0.0474352 -1.89941 0
M  V30 3218 H 307.665 2.12897 -3.24972 0
M  V30 3219 H 309.337 -0.0970111 -4.61198 0
M  V30 3220 H 307.58 -0.160606 -4.33503 0
M  V30 3221 H 308.251 1.064 -5.41648 0
M  V30 3222 H 310.727 1.92135 -3.69085 0
M  V30 3223 H 309.603 2.92018 -4.64776 0
M  V30 3224 H 309.864 3.29197 -2.95096 0
M  V30 3225 N 308.923 1.53595 0.353017 0
M  V30 3226 C 310.339 1.43648 0.695516 0
M  V30 3227 C 310.539 0.585617 1.92802 0
M  V30 3228 O 309.595 0.0729223 2.52395 0
M  V30 3229 C 310.908 2.8701 0.896991 0
M  V30 3230 C 312.456 2.96723 0.996209 0
M  V30 3231 C 312.931 4.41173 1.23007 0
M  V30 3232 N 314.422 4.44657 1.29749 0
M  V30 3233 C 315.157 5.53547 1.49577 0
M  V30 3234 N 314.653 6.72461 1.66639 0
M  V30 3235 N 316.446 5.41145 1.52048 0
M  V30 3236 H 308.597 2.07415 -0.457481 0
M  V30 3237 H 310.86 0.9372 -0.142687 0
M  V30 3238 H 310.566 3.51644 0.0629938 0
M  V30 3239 H 310.44 3.31401 1.80148 0
M  V30 3240 H 312.827 2.32235 1.82074 0
M  V30 3241 H 312.908 2.55707 0.0688331 0
M  V30 3242 H 312.552 5.06238 0.410505 0
M  V30 3243 H 312.482 4.79772 2.17086 0
M  V30 3244 H 314.973 3.58963 1.18126 0
M  V30 3245 H 315.286 7.51214 1.81378 0
M  V30 3246 H 313.631 6.75423 1.63794 0
M  V30 3247 H 316.822 4.47205 1.38294 0
M  V30 3248 H 316.995 6.26068 1.67159 0
M  V30 3249 N 310.401 -0.613514 1.45168 0
M  V30 3250 C 311.349 -1.74572 1.53712 0
M  V30 3251 C 312.343 -1.64426 0.407505 0
M  V30 3252 O 313.549 -1.70291 0.583176 0
M  V30 3253 H 309.924 -0.576641 0.48269 0
M  V30 3254 H 311.895 -1.64492 2.48968 0
M  V30 3255 C 310.644 -3.12943 1.51532 0
M  V30 3256 H 309.967 -3.21407 2.37776 0
M  V30 3257 H 311.407 -3.9201 1.61569 0
M  V30 3258 C 309.866 -3.36053 0.238798 0
M  V30 3259 O 310.396 -3.95837 -0.6838 0
M  V30 3260 N 308.602 -2.9028 0.136359 0
M  V30 3261 H 308.149 -2.41811 0.887999 0
M  V30 3262 H 308.107 -3.06116 -0.716944 0
M  V30 3263 N 311.879 -1.3236 -0.855495 0
M  V30 3264 C 312.811 -1.17052 -1.97057 0
M  V30 3265 C 313.824 -0.10574 -1.62456 0
M  V30 3266 O 315.013 -0.354619 -1.74942 0
M  V30 3267 C 312.113 -0.769305 -3.30053 0
M  V30 3268 C 311.286 -1.9222 -3.929 0
M  V30 3269 C 310.345 -1.50466 -5.04228 0
M  V30 3270 O 309.371 -2.21655 -5.24269 0
M  V30 3271 N 310.573 -0.400209 -5.79119 0
M  V30 3272 H 313.338 -2.13103 -2.1073 0
M  V30 3273 H 310.899 -1.24885 -1.0303 0
M  V30 3274 H 312.891 -0.472407 -4.01933 0
M  V30 3275 H 311.461 0.100025 -3.1244 0
M  V30 3276 H 310.681 -2.38563 -3.13817 0
M  V30 3277 H 311.969 -2.69403 -4.31624 0
M  V30 3278 H 311.367 0.192319 -5.65373 0
M  V30 3279 H 309.924 -0.162912 -6.51596 0
M  V30 3280 N 313.357 1.07166 -1.15556 0
M  V30 3281 C 314.307 2.12649 -0.82247 0
M  V30 3282 C 315.291 1.59725 0.194129 0
M  V30 3283 O 316.483 1.76999 -0.00540402 0
M  V30 3284 C 313.612 3.41847 -0.315572 0
M  V30 3285 C 312.698 4.0162 -1.36244 0
M  V30 3286 N 313.089 4.35625 -2.5703 0
M  V30 3287 C 311.387 4.29114 -1.21562 0
M  V30 3288 C 312.088 4.83017 -3.24144 0
M  V30 3289 N 311.064 4.81906 -2.51531 0
M  V30 3290 H 314.866 2.36776 -1.74111 0
M  V30 3291 H 312.38 1.24622 -1.0413 0
M  V30 3292 H 314.377 4.16859 -0.0585855 0
M  V30 3293 H 313.037 3.19163 0.597105 0
M  V30 3294 H 314.048 4.26253 -2.94158 0
M  V30 3295 H 310.725 4.15919 -0.362988 0
M  V30 3296 H 312.115 5.18605 -4.27198 0
M  V30 3297 N 314.835 0.952656 1.25548 0
M  V30 3298 C 316.081 0.616826 1.93822 0
M  V30 3299 C 316.436 -0.836684 1.73255 0
M  V30 3300 O 315.729 -1.59218 1.06584 0
M  V30 3301 C 315.923 0.908818 3.45652 0
M  V30 3302 C 315.752 2.38916 3.80984 0
M  V30 3303 C 314.522 3.04637 4.03143 0
M  V30 3304 C 316.72 3.36838 3.88645 0
M  V30 3305 N 314.702 4.42565 4.25453 0
M  V30 3306 C 316.073 4.60065 4.1562 0
M  V30 3307 C 318.128 3.31704 3.71318 0
M  V30 3308 C 316.831 5.78795 4.2707 0
M  V30 3309 C 318.857 4.4977 3.84006 0
M  V30 3310 C 318.219 5.71783 4.11392 0
M  V30 3311 H 314.318 0.27629 0.731565 0
M  V30 3312 H 316.902 1.22443 1.5138 0
M  V30 3313 H 315.073 0.330166 3.86994 0
M  V30 3314 H 316.805 0.533093 4.01174 0
M  V30 3315 H 313.56 2.55215 3.98952 0
M  V30 3316 H 313.984 5.1399 4.40617 0
M  V30 3317 H 318.626 2.3842 3.49164 0
M  V30 3318 H 316.344 6.72521 4.48041 0
M  V30 3319 H 319.93 4.47342 3.71989 0
M  V30 3320 H 318.81 6.61617 4.2099 0
M  V30 3321 N 316.313 -1.40141 0.720998 0
M  V30 3322 C 317.538 -2.05618 0.271258 0
M  V30 3323 C 317.963 -1.53978 -1.08039 0
M  V30 3324 O 317.321 -0.677463 -1.68167 0
M  V30 3325 C 317.369 -3.59609 0.267197 0
M  V30 3326 O 316.473 -4.05526 -0.749814 0
M  V30 3327 H 315.814 -0.651904 0.126162 0
M  V30 3328 H 318.344 -1.79439 0.982997 0
M  V30 3329 H 318.354 -4.0786 0.106744 0
M  V30 3330 H 317.029 -3.96559 1.25354 0
M  V30 3331 H 315.606 -3.68722 -0.556644 0
M  V30 3332 N 317.792 -0.46758 -1.50504 0
M  V30 3333 C 318.722 0.318381 -2.31319 0
M  V30 3334 C 319.703 0.993564 -1.38066 0
M  V30 3335 O 320.888 0.991411 -1.66987 0
M  V30 3336 C 318.018 1.40275 -3.17711 0
M  V30 3337 C 316.972 0.849373 -4.19487 0
M  V30 3338 C 316.298 2.03177 -4.94594 0
M  V30 3339 C 317.598 -0.136942 -5.2212 0
M  V30 3340 H 319.292 -0.356106 -2.97275 0
M  V30 3341 H 316.838 -0.172703 -1.42961 0
M  V30 3342 H 318.791 1.96004 -3.73042 0
M  V30 3343 H 317.515 2.10596 -2.49634 0
M  V30 3344 H 316.174 0.314076 -3.65252 0
M  V30 3345 H 315.822 2.72187 -4.22993 0
M  V30 3346 H 315.522 1.66774 -5.63436 0
M  V30 3347 H 317.046 2.59403 -5.52759 0
M  V30 3348 H 318.46 0.331056 -5.72343 0
M  V30 3349 H 316.857 -0.41507 -5.98663 0
M  V30 3350 H 317.927 -1.06398 -4.73083 0
M  V30 3351 N 319.27 1.56325 -0.20005 0
M  V30 3352 C 320.519 1.96895 0.437652 0
M  V30 3353 C 320.832 1.08999 1.62415 0
M  V30 3354 O 322.038 1.39372 2.32997 0
M  V30 3355 C 320.494 3.50198 0.830025 0
M  V30 3356 C 320.102 4.46765 -0.332461 0
M  V30 3357 C 321.846 3.99526 1.43453 0
M  V30 3358 C 319.753 5.91344 0.0811468 0
M  V30 3359 H 318.683 0.735209 0.167282 0
M  V30 3360 H 321.334 1.81148 -0.292853 0
M  V30 3361 H 319.716 3.61467 1.61734 0
M  V30 3362 H 320.89 4.47231 -1.11 0
M  V30 3363 H 319.205 4.07657 -0.848789 0
M  V30 3364 H 321.802 5.05025 1.75652 0
M  V30 3365 H 322.145 3.44122 2.34277 0
M  V30 3366 H 322.678 3.91393 0.71109 0
M  V30 3367 H 319.417 6.50685 -0.793033 0
M  V30 3368 H 318.937 5.94121 0.823445 0
M  V30 3369 H 320.616 6.44945 0.515252 0
M  V30 3370 N 320.748 -0.0735177 1.57428 0
M  V30 3371 C 321.681 -1.11932 1.98863 0
M  V30 3372 C 322.659 -1.37666 0.865266 0
M  V30 3373 O 323.843 -1.51068 1.12742 0
M  V30 3374 C 320.97 -2.46403 2.32386 0
M  V30 3375 C 320.016 -2.36815 3.54713 0
M  V30 3376 S 320.849 -1.76392 5.05614 0
M  V30 3377 C 322.005 -3.12444 5.42337 0
M  V30 3378 H 322.238 -0.766212 2.87257 0
M  V30 3379 H 319.771 -0.281987 1.51803 0
M  V30 3380 H 321.729 -3.23755 2.52375 0
M  V30 3381 H 320.39 -2.78876 1.44524 0
M  V30 3382 H 319.583 -3.35977 3.7568 0
M  V30 3383 H 319.185 -1.67598 3.34345 0
M  V30 3384 H 321.477 -4.08753 5.40303 0
M  V30 3385 H 322.42 -2.96258 6.43146 0
M  V30 3386 H 322.828 -3.1297 4.69798 0
M  V30 3387 N 322.226 -1.5378 -0.344866 0
M  V30 3388 C 323.136 -1.84667 -1.4469 0
M  V30 3389 C 324.152 -0.736704 -1.57635 0
M  V30 3390 O 325.328 -1.02888 -1.73136 0
M  V30 3391 C 322.393 -2.04869 -2.79696 0
M  V30 3392 C 321.454 -3.28731 -2.76106 0
M  V30 3393 C 320.687 -3.4796 -4.04673 0
M  V30 3394 O 320.91 -2.71052 -5.01883 0
M  V30 3395 O 319.844 -4.41383 -4.09224 0
M  V30 3396 H 323.67 -2.78334 -1.21506 0
M  V30 3397 H 321.255 -1.39418 -0.536921 0
M  V30 3398 H 323.137 -2.19609 -3.59652 0
M  V30 3399 H 321.812 -1.14391 -3.02814 0
M  V30 3400 H 320.719 -3.19396 -1.94774 0
M  V30 3401 H 322.052 -4.19198 -2.57941 0
M  V30 3402 N 323.704 0.605807 -1.45491 0
M  V30 3403 C 324.929 1.39625 -1.53361 0
M  V30 3404 C 325.354 1.87351 -0.167645 0
M  V30 3405 O 324.712 1.60243 0.848051 0
M  V30 3406 C 324.76 2.57559 -2.5238 0
M  V30 3407 O 323.864 3.58248 -2.04285 0
M  V30 3408 H 323.205 0.416771 -0.516912 0
M  V30 3409 H 325.735 0.737103 -1.90861 0
M  V30 3410 H 325.745 3.0478 -2.71244 0
M  V30 3411 H 324.42 2.22171 -3.51586 0
M  V30 3412 H 322.997 3.17664 -1.95305 0
M  V30 3413 N 325.182 1.32811 0.848464 0
M  V30 3414 C 326.428 1.23907 1.60546 0
M  V30 3415 C 326.761 -0.197161 1.93197 0
M  V30 3416 O 326.036 -1.13596 1.5788 0
M  V30 3417 C 326.319 2.10489 2.92175 0
M  V30 3418 C 326.172 3.62522 2.66266 0
M  V30 3419 C 327.491 1.97075 3.93509 0
M  V30 3420 H 324.61 0.451459 0.58254 0
M  V30 3421 H 327.252 1.62818 0.979296 0
M  V30 3422 H 325.402 1.77434 3.45614 0
M  V30 3423 H 327.074 4.05821 2.19334 0
M  V30 3424 H 325.317 3.84879 2.00126 0
M  V30 3425 H 325.988 4.18437 3.6002 0
M  V30 3426 H 328.464 2.26045 3.49346 0
M  V30 3427 H 327.34 2.59923 4.83457 0
M  V30 3428 H 327.601 0.940186 4.31987 0
M  V30 3429 N 326.66 -1.06551 1.16123 0
M  V30 3430 C 327.906 -1.79567 0.94252 0
M  V30 3431 C 328.239 -1.86869 -0.528547 0
M  V30 3432 O 327.514 -1.35838 -1.39206 0
M  V30 3433 C 327.797 -3.24195 1.56747 0
M  V30 3434 C 327.65 -3.24989 3.10969 0
M  V30 3435 C 328.969 -4.21678 1.25998 0
M  V30 3436 H 326.088 -0.651883 0.343828 0
M  V30 3437 H 328.73 -1.2463 1.43413 0
M  V30 3438 H 326.88 -3.71107 1.14942 0
M  V30 3439 H 328.552 -2.86258 3.61737 0
M  V30 3440 H 326.795 -2.63716 3.44436 0
M  V30 3441 H 327.466 -4.27005 3.49815 0
M  V30 3442 H 329.942 -3.83196 1.62174 0
M  V30 3443 H 328.818 -5.21146 1.7233 0
M  V30 3444 H 329.079 -4.4174 0.178367 0
M  V30 3445 N 328.138 -0.959301 -1.25041 0
M  V30 3446 C 329.549 -0.65667 -1.74771 0
M  V30 3447 C 329.9 0.827852 -1.77879 0
M  V30 3448 O 329.025 1.64783 -1.40269 0
M  V30 3449 C 329.62 -1.1853 -3.1739 0
M  V30 3450 C 328.179 -0.932734 -3.6466 0
M  V30 3451 C 327.326 -1.32558 -2.43564 0
M  V30 3452 H 330.277 -1.13558 -1.10862 0
M  V30 3453 H 330.298 -0.547582 -3.76539 0
M  V30 3454 H 329.81 -2.26576 -3.15095 0
M  V30 3455 H 327.911 0.13257 -3.72364 0
M  V30 3456 H 328.024 -1.57248 -4.52559 0
M  V30 3457 H 326.388 -0.743956 -2.43593 0
M  V30 3458 H 327.171 -2.41537 -2.43957 0
M  V30 3459 N 329.616 1.39756 -0.72842 0
M  V30 3460 C 330.841 2.05472 -0.282159 0
M  V30 3461 C 331.266 1.54549 1.07221 0
M  V30 3462 O 330.624 0.686372 1.67805 0
M  V30 3463 C 330.672 3.59462 -0.286264 0
M  V30 3464 O 329.776 4.05918 0.728298 0
M  V30 3465 H 329.117 0.651226 -0.129618 0
M  V30 3466 H 331.647 1.78915 -0.992499 0
M  V30 3467 H 331.657 4.07798 -0.128373 0
M  V30 3468 H 330.332 3.95889 -1.27456 0
M  V30 3469 H 328.909 3.69012 0.537081 0
M  V30 3470 N 331.094 0.475555 1.50254 0
M  V30 3471 C 332.371 -0.139685 1.95101 0
M  V30 3472 C 332.751 -1.56555 1.41611 0
M  V30 3473 O 332.099 -2.19956 0.618993 0
M  V30 3474 C 332.309 -0.0784298 3.48912 0
M  V30 3475 C 333.657 -0.265095 4.23772 0
M  V30 3476 O 334.681 -0.154808 3.55863 0
M  V30 3477 O 333.54 -0.488327 5.44314 0
M  V30 3478 H 330.634 -0.109236 0.819754 0
M  V30 3479 H 333.18 0.536276 1.61004 0
M  V30 3480 H 331.952 0.916918 3.80405 0
M  V30 3481 H 331.575 -0.795655 3.89558 0
M  V30 3482 N 332.573 -1.56217 0.208337 0
M  V30 3483 C 333.52 -2.19699 -0.707192 0
M  V30 3484 C 334.49 -1.14836 -1.20008 0
M  V30 3485 O 335.675 -1.4314 -1.26157 0
M  V30 3486 C 332.815 -2.87061 -1.91546 0
M  V30 3487 C 331.928 -4.06483 -1.46271 0
M  V30 3488 C 331.063 -4.61665 -2.62752 0
M  V30 3489 C 330.102 -5.73417 -2.14147 0
M  V30 3490 N 329.239 -6.22948 -3.23853 0
M  V30 3491 H 334.079 -2.97575 -0.159111 0
M  V30 3492 H 331.616 -1.46948 -0.0667874 0
M  V30 3493 H 333.574 -3.24294 -2.62468 0
M  V30 3494 H 332.204 -2.11725 -2.43664 0
M  V30 3495 H 331.256 -3.74825 -0.648886 0
M  V30 3496 H 332.568 -4.87271 -1.06622 0
M  V30 3497 H 331.722 -5.01272 -3.41776 0
M  V30 3498 H 330.461 -3.80013 -3.05682 0
M  V30 3499 H 329.466 -5.33326 -1.33581 0
M  V30 3500 H 330.691 -6.56897 -1.72232 0
M  V30 3501 H 328.637 -5.44213 -3.6629 0
M  V30 3502 H 328.554 -6.98823 -2.88414 0
M  V30 3503 H 329.822 -6.6721 -4.03052 0
M  V30 3504 N 334.051 0.0651679 -1.57465 0
M  V30 3505 C 335.299 0.761555 -1.87202 0
M  V30 3506 C 335.62 1.77778 -0.801243 0
M  V30 3507 O 334.89 1.95166 0.16937 0
M  V30 3508 H 333.47 0.284251 -0.690804 0
M  V30 3509 H 336.132 0.0396827 -1.9486 0
M  V30 3510 H 335.228 1.27365 -2.84929 0
M  V30 3511 N 335.529 1.53961 0.336706 0
M  V30 3512 C 336.477 1.83136 1.43401 0
M  V30 3513 C 337.471 0.702313 1.54156 0
M  V30 3514 O 338.677 0.885765 1.56698 0
M  V30 3515 H 335.052 0.580309 0.478273 0
M  V30 3516 H 337.023 2.74925 1.16012 0
M  V30 3517 C 335.772 2.06385 2.79822 0
M  V30 3518 H 335.095 2.92718 2.72316 0
M  V30 3519 H 336.535 2.30761 3.55704 0
M  V30 3520 C 334.994 0.851414 3.25964 0
M  V30 3521 O 335.524 0.0541904 4.01663 0
M  V30 3522 N 333.73 0.66672 2.82848 0
M  V30 3523 H 333.277 1.31665 2.21409 0
M  V30 3524 H 333.235 -0.143032 3.14074 0
M  V30 3525 N 337.007 -0.598083 1.45811 0
M  V30 3526 C 338.237 -1.38121 1.53643 0
M  V30 3527 C 338.645 -1.88425 0.171081 0
M  V30 3528 O 337.988 -1.63409 -0.839237 0
M  V30 3529 C 338.05 -2.61432 2.46766 0
M  V30 3530 C 337.714 -2.32702 3.93318 0
M  V30 3531 C 338.711 -1.92479 4.82957 0
M  V30 3532 C 336.396 -2.45321 4.38318 0
M  V30 3533 C 338.39 -1.65248 6.15607 0
M  V30 3534 C 336.077 -2.17703 5.71007 0
M  V30 3535 C 337.075 -1.7773 6.5947 0
M  V30 3536 O 336.763 -1.50441 7.89698 0
M  V30 3537 H 336.495 -0.428863 0.522544 0
M  V30 3538 H 339.049 -0.73557 1.91777 0
M  V30 3539 H 337.279 -3.28749 2.0362 0
M  V30 3540 H 338.968 -3.23487 2.45175 0
M  V30 3541 H 339.734 -1.82258 4.49452 0
M  V30 3542 H 335.613 -2.75399 3.69697 0
M  V30 3543 H 339.157 -1.33973 6.84614 0
M  V30 3544 H 335.054 -2.27544 6.04065 0
M  V30 3545 H 335.822 -1.64415 8.01817 0
M  V30 3546 N 338.485 -1.33259 -0.841409 0
M  V30 3547 C 339.713 -1.27605 -1.62864 0
M  V30 3548 C 340.128 0.153507 -1.88175 0
M  V30 3549 O 339.485 1.09485 -1.46011 0
M  V30 3550 C 339.536 -2.04596 -2.98031 0
M  V30 3551 O 339.257 -3.41975 -2.73834 0
M  V30 3552 C 340.758 -2.06122 -3.92465 0
M  V30 3553 H 337.978 -0.439718 -0.506842 0
M  V30 3554 H 340.522 -1.75591 -1.04824 0
M  V30 3555 H 338.677 -1.60299 -3.5268 0
M  V30 3556 H 339.091 -3.81549 -3.59889 0
M  V30 3557 H 340.565 -2.64451 -4.84531 0
M  V30 3558 H 341.042 -1.05083 -4.26444 0
M  V30 3559 H 341.648 -2.50427 -3.43753 0
M  V30 3560 N 339.963 1.05934 -1.16686 0
M  V30 3561 C 341.203 1.80382 -0.961345 0
M  V30 3562 C 341.567 1.85331 0.501643 0
M  V30 3563 O 342.768 2.55795 0.825986 0
M  V30 3564 C 341.039 3.20777 -1.57596 0
M  V30 3565 S 342.598 4.11795 -1.51559 0
M  V30 3566 H 339.416 0.621332 -0.345641 0
M  V30 3567 H 342.018 1.27157 -1.48497 0
M  V30 3568 H 340.722 3.14773 -2.63337 0
M  V30 3569 H 340.253 3.79078 -1.05182 0
M  V30 3570 H 342.268 4.93485 -0.518374 0
M  V30 3571 N 341.441 0.965919 1.2453 0
M  V30 3572 C 342.687 0.62776 1.92839 0
M  V30 3573 C 343.02 -0.834694 1.75347 0
M  V30 3574 O 342.295 -1.60031 1.10546 0
M  V30 3575 C 342.578 1.00109 3.45905 0
M  V30 3576 C 342.431 2.52011 3.72573 0
M  V30 3577 C 343.75 0.53435 4.36844 0
M  V30 3578 H 340.869 0.229537 0.700344 0
M  V30 3579 H 343.511 1.2046 1.46933 0
M  V30 3580 H 341.661 0.510238 3.85135 0
M  V30 3581 H 343.333 3.08559 3.42912 0
M  V30 3582 H 341.576 2.95287 3.17786 0
M  V30 3583 H 342.247 2.73183 4.79661 0
M  V30 3584 H 344.723 0.955565 4.04979 0
M  V30 3585 H 343.599 0.824152 5.42678 0
M  V30 3586 H 343.86 -0.565589 4.38467 0
M  V30 3587 N 342.919 -1.39368 0.735821 0
M  V30 3588 C 344.165 -2.00794 0.284544 0
M  V30 3589 C 344.498 -1.58255 -1.12557 0
M  V30 3590 O 343.773 -0.811819 -1.76748 0
M  V30 3591 C 344.056 -3.58011 0.387337 0
M  V30 3592 C 343.909 -4.10566 1.83728 0
M  V30 3593 C 345.228 -4.395 -0.22975 0
M  V30 3594 H 342.347 -0.729501 0.104866 0
M  V30 3595 H 344.989 -1.65564 0.93213 0
M  V30 3596 H 343.139 -3.88154 -0.164006 0
M  V30 3597 H 344.811 -3.91139 2.44556 0
M  V30 3598 H 343.054 -3.64095 2.35833 0
M  V30 3599 H 343.725 -5.19702 1.86047 0
M  V30 3600 H 346.201 -4.15406 0.240257 0
M  V30 3601 H 345.077 -5.48752 -0.127485 0
M  V30 3602 H 345.338 -4.22062 -1.3159 0
M  V30 3603 N 344.397 -0.483516 -1.5 0
M  V30 3604 C 345.307 0.309172 -2.32554 0
M  V30 3605 C 346.323 0.984159 -1.43493 0
M  V30 3606 O 347.499 0.969399 -1.76535 0
M  V30 3607 C 344.564 1.36979 -3.18493 0
M  V30 3608 C 343.625 0.710095 -4.23387 0
M  V30 3609 C 342.858 1.72018 -5.05218 0
M  V30 3610 O 343.081 2.94813 -4.88305 0
M  V30 3611 O 342.015 1.28515 -5.8802 0
M  V30 3612 H 345.841 -0.366064 -3.01486 0
M  V30 3613 H 343.426 -0.24514 -1.47375 0
M  V30 3614 H 345.308 1.98385 -3.71781 0
M  V30 3615 H 343.983 2.02828 -2.52275 0
M  V30 3616 H 342.89 0.0567539 -3.74057 0
M  V30 3617 H 344.223 0.0943557 -4.9211 0
M  V30 3618 N 345.875 1.56104 -0.216619 0
M  V30 3619 C 346.823 2.21434 0.712036 0
M  V30 3620 C 347.817 1.19218 1.20348 0
M  V30 3621 O 349.023 1.3731 1.16387 0
M  V30 3622 H 345.398 0.70992 0.248026 0
M  V30 3623 H 347.369 2.98083 0.137558 0
M  V30 3624 C 346.118 2.90434 1.91163 0
M  V30 3625 H 345.441 3.68842 1.54258 0
M  V30 3626 H 346.881 3.39552 2.5393 0
M  V30 3627 C 345.34 1.92635 2.76394 0
M  V30 3628 O 345.87 1.44017 3.74996 0
M  V30 3629 N 344.076 1.60392 2.42328 0
M  V30 3630 H 343.623 2.00122 1.622 0
M  V30 3631 H 343.581 0.952159 2.99635 0
M  V30 3632 N 347.353 -0.0568162 1.57498 0
M  V30 3633 C 348.263 -1.08346 2.08083 0
M  V30 3634 C 349.279 -1.41439 1.01346 0
M  V30 3635 O 350.455 -1.51316 1.32912 0
M  V30 3636 C 347.52 -2.37352 2.52715 0
M  V30 3637 C 346.581 -2.11093 3.73816 0
M  V30 3638 C 345.814 -3.33949 4.1631 0
M  V30 3639 O 346.037 -4.43622 3.58547 0
M  V30 3640 O 344.971 -3.21279 5.08983 0
M  V30 3641 H 348.797 -0.683667 2.95905 0
M  V30 3642 H 346.382 -0.271965 1.46904 0
M  V30 3643 H 348.264 -3.13246 2.81877 0
M  V30 3644 H 346.939 -2.76681 1.68016 0
M  V30 3645 H 345.846 -1.32856 3.49714 0
M  V30 3646 H 347.179 -1.76637 4.59413 0
M  V30 3647 N 348.832 -1.54138 -0.328536 0
M  V30 3648 C 350.062 -1.75807 -1.08516 0
M  V30 3649 C 350.47 -0.50428 -1.82356 0
M  V30 3650 O 349.813 0.534451 -1.75754 0
M  V30 3651 C 349.875 -2.89423 -2.13248 0
M  V30 3652 C 349.539 -4.28504 -1.5885 0
M  V30 3653 C 350.536 -5.09536 -1.03289 0
M  V30 3654 C 348.221 -4.75034 -1.63243 0
M  V30 3655 C 350.215 -6.35206 -0.52845 0
M  V30 3656 C 347.902 -6.00672 -1.12411 0
M  V30 3657 C 348.9 -6.80592 -0.573062 0
M  V30 3658 O 348.588 -8.03867 -0.0723692 0
M  V30 3659 H 348.32 -0.590633 -0.328829 0
M  V30 3660 H 350.874 -2.01819 -0.381868 0
M  V30 3661 H 349.104 -2.5897 -2.87178 0
M  V30 3662 H 350.793 -2.98921 -2.74592 0
M  V30 3663 H 351.559 -4.74745 -0.99206 0
M  V30 3664 H 347.438 -4.12875 -2.05074 0
M  V30 3665 H 350.982 -6.97532 -0.0976774 0
M  V30 3666 H 346.879 -6.34955 -1.162 0
M  V30 3667 H 347.647 -8.18283 -0.188258 0
M  V30 3668 N 350.31 0.590341 -1.46126 0
M  V30 3669 C 351.558 1.34616 -1.50742 0
M  V30 3670 C 351.879 1.94363 -0.157486 0
M  V30 3671 O 351.149 1.78136 0.815136 0
M  V30 3672 H 349.729 0.499789 -0.555175 0
M  V30 3673 H 352.391 0.691953 -1.82203 0
M  V30 3674 H 351.487 2.15678 -2.25587 0
M  V30 3675 N 351.788 1.33704 0.83433 0
M  V30 3676 C 353.013 1.28615 1.62705 0
M  V30 3677 C 353.438 -0.139242 1.87584 0
M  V30 3678 O 352.796 -1.09734 1.4432 0
M  V30 3679 C 352.844 2.07139 2.95171 0
M  V30 3680 O 351.948 1.4331 3.86699 0
M  V30 3681 H 351.289 0.44226 0.49528 0
M  V30 3682 H 353.819 1.76335 1.03766 0
M  V30 3683 H 353.829 2.18073 3.44831 0
M  V30 3684 H 352.504 3.10779 2.76386 0
M  V30 3685 H 351.081 1.4105 3.45195 0
M  V30 3686 N 353.266 -1.05314 1.17247 0
M  V30 3687 C 354.515 -1.77685 0.954521 0
M  V30 3688 C 354.828 -1.88616 -0.518025 0
M  V30 3689 O 356.034 -2.57714 -0.854144 0
M  V30 3690 C 354.49 -3.19402 1.65863 0
M  V30 3691 C 354.098 -3.16605 3.16963 0
M  V30 3692 C 355.842 -3.96237 1.52303 0
M  V30 3693 C 353.749 -4.53103 3.80068 0
M  V30 3694 H 352.679 -0.666 0.353496 0
M  V30 3695 H 355.33 -1.1805 1.40486 0
M  V30 3696 H 353.712 -3.79355 1.13602 0
M  V30 3697 H 354.886 -2.66176 3.76148 0
M  V30 3698 H 353.201 -2.53268 3.30521 0
M  V30 3699 H 355.798 -4.97157 1.96822 0
M  V30 3700 H 356.141 -4.136 0.473401 0
M  V30 3701 H 356.674 -3.42829 2.01775 0
M  V30 3702 H 353.413 -4.40946 4.85023 0
M  V30 3703 H 352.933 -5.03686 3.2567 0
M  V30 3704 H 354.612 -5.22045 3.82202 0
M  V30 3705 N 354.744 -0.972509 -1.24016 0
M  V30 3706 C 355.692 -0.498562 -2.27194 0
M  V30 3707 C 356.686 0.440372 -1.63576 0
M  V30 3708 O 357.892 0.315133 -1.7722 0
M  V30 3709 H 354.267 -0.142775 -0.738322 0
M  V30 3710 H 356.238 -1.38065 -2.64539 0
M  V30 3711 C 354.987 0.191072 -3.47175 0
M  V30 3712 H 354.31 -0.522318 -3.96373 0
M  V30 3713 H 355.75 0.486445 -4.212 0
M  V30 3714 C 354.209 1.41967 -3.05527 0
M  V30 3715 O 354.739 2.51642 -3.13112 0
M  V30 3716 N 352.945 1.28746 -2.60524 0
M  V30 3717 H 352.492 0.395089 -2.54552 0
M  V30 3718 H 352.45 2.11061 -2.33025 0
M  V30 3719 N 356.222 1.38976 -0.743202 0
M  V30 3720 C 357.172 2.27843 -0.084513 0
M  V30 3721 C 358.156 1.44677 0.704094 0
M  V30 3722 O 359.348 1.67511 0.571755 0
M  V30 3723 C 356.477 3.33466 0.815781 0
M  V30 3724 C 355.563 4.24095 0.0208844 0
M  V30 3725 N 355.954 4.95609 -1.0102 0
M  V30 3726 C 354.252 4.45303 0.249293 0
M  V30 3727 C 354.953 5.62287 -1.49024 0
M  V30 3728 N 353.929 5.37571 -0.807377 0
M  V30 3729 H 357.731 2.80593 -0.87436 0
M  V30 3730 H 355.245 1.51755 -0.578283 0
M  V30 3731 H 357.242 3.96008 1.30321 0
M  V30 3732 H 355.902 2.82276 1.6047 0
M  V30 3733 H 356.913 4.98849 -1.39176 0
M  V30 3734 H 353.59 4.0504 1.01237 0
M  V30 3735 H 354.98 6.29519 -2.34853 0
M  V30 3736 N 357.7 0.491464 1.49741 0
M  V30 3737 C 358.928 -0.0535151 2.06831 0
M  V30 3738 C 359.343 -1.31683 1.35296 0
M  V30 3739 O 358.7 -1.77402 0.42836 0
M  V30 3740 C 358.751 -0.320835 3.60073 0
M  V30 3741 O 358.472 0.892394 4.28915 0
M  V30 3742 C 359.973 -0.910519 4.33848 0
M  V30 3743 H 357.193 0.0161909 0.670805 0
M  V30 3744 H 359.737 0.68609 1.92647 0
M  V30 3745 H 357.892 -1.0104 3.73991 0
M  V30 3746 H 358.306 0.649401 5.20464 0
M  V30 3747 H 359.78 -1.04721 5.41976 0
M  V30 3748 H 360.257 -1.90589 3.95692 0
M  V30 3749 H 360.863 -0.258712 4.24512 0
M  V30 3750 N 359.178 -1.55987 0.224894 0
M  V30 3751 C 360.408 -2.02489 -0.41007 0
M  V30 3752 C 360.816 -1.10391 -1.53657 0
M  V30 3753 O 360.159 -0.106458 -1.83391 0
M  V30 3754 C 360.221 -3.45319 -0.999757 0
M  V30 3755 C 359.885 -4.56999 -0.00827976 0
M  V30 3756 C 360.882 -5.13812 0.793314 0
M  V30 3757 C 358.567 -5.02176 0.111442 0
M  V30 3758 C 360.561 -6.14276 1.7013 0
M  V30 3759 C 358.248 -6.02477 1.02296 0
M  V30 3760 C 359.246 -6.58403 1.81643 0
M  V30 3761 O 358.934 -7.56751 2.71262 0
M  V30 3762 H 358.666 -0.667915 -0.104235 0
M  V30 3763 H 361.22 -2.0257 0.339782 0
M  V30 3764 H 359.45 -3.42318 -1.79876 0
M  V30 3765 H 361.139 -3.7545 -1.54248 0
M  V30 3766 H 361.905 -4.79756 0.711288 0
M  V30 3767 H 357.784 -4.58323 -0.49605 0
M  V30 3768 H 361.328 -6.57854 2.32107 0
M  V30 3769 H 357.225 -6.35954 1.10599 0
M  V30 3770 H 357.993 -7.74286 2.65375 0
M  V30 3771 N 360.656 0.0484629 -1.57525 0
M  V30 3772 C 361.606 1.06246 -2.01732 0
M  V30 3773 C 362.59 1.33155 -0.903245 0
M  V30 3774 O 363.782 1.33065 -1.16717 0
M  V30 3775 C 360.911 2.36943 -2.48421 0
M  V30 3776 C 359.997 2.13208 -3.6661 0
M  V30 3777 N 360.388 1.5947 -4.80003 0
M  V30 3778 C 358.686 2.43581 -3.7361 0
M  V30 3779 C 359.387 1.51092 -5.61735 0
M  V30 3780 N 358.363 1.9797 -5.0627 0
M  V30 3781 H 362.165 0.640675 -2.86832 0
M  V30 3782 H 359.679 0.255134 -1.60383 0
M  V30 3783 H 361.676 3.10374 -2.78341 0
M  V30 3784 H 360.336 2.79818 -1.64718 0
M  V30 3785 H 361.347 1.28008 -5.01831 0
M  V30 3786 H 358.024 2.89662 -3.00669 0
M  V30 3787 H 359.414 1.10199 -6.62801 0
M  V30 3788 N 362.134 1.5431 0.320358 0
M  V30 3789 C 363.064 1.86912 1.3995 0
M  V30 3790 C 364.045 0.726211 1.53819 0
M  V30 3791 O 365.23 0.980233 1.67646 0
M  V30 3792 C 362.36 2.09932 2.7667 0
M  V30 3793 C 361.314 3.25776 2.77586 0
M  V30 3794 C 360.64 3.34173 4.17412 0
M  V30 3795 C 361.94 4.6335 2.41048 0
M  V30 3796 H 363.634 2.77292 1.12914 0
M  V30 3797 H 361.18 1.33421 0.541738 0
M  V30 3798 H 363.133 2.31324 3.52232 0
M  V30 3799 H 361.857 1.16304 3.0519 0
M  V30 3800 H 360.516 3.04276 2.04479 0
M  V30 3801 H 360.164 2.38098 4.43078 0
M  V30 3802 H 359.864 4.12033 4.18931 0
M  V30 3803 H 361.388 3.57803 4.94782 0
M  V30 3804 H 362.802 4.84602 3.06324 0
M  V30 3805 H 361.199 5.43782 2.53813 0
M  V30 3806 H 362.269 4.65381 1.36193 0
M  V30 3807 N 363.613 -0.582584 1.46437 0
M  V30 3808 C 364.89 -1.34276 1.4223 0
M  V30 3809 C 365.27 -2.10835 0.10583 0
M  V30 3810 O 364.618 -2.09485 -0.912596 0
M  V30 3811 C 364.828 -2.26865 2.65204 0
M  V30 3812 C 366.176 -2.88691 3.11356 0
M  V30 3813 O 367.2 -2.37178 2.65753 0
M  V30 3814 O 366.059 -3.82255 3.90568 0
M  V30 3815 H 363.153 -0.603326 0.565621 0
M  V30 3816 H 365.699 -0.603591 1.58603 0
M  V30 3817 H 364.471 -1.69724 3.52576 0
M  V30 3818 H 364.094 -3.08122 2.5129 0
M  V30 3819 N 365.091 -1.34144 -0.827227 0
M  V30 3820 C 366.337 -1.26446 -1.58554 0
M  V30 3821 C 366.67 0.1664 -1.93486 0
M  V30 3822 O 365.945 1.1107 -1.59667 0
M  V30 3823 C 366.228 -2.15111 -2.8879 0
M  V30 3824 C 366.081 -3.66712 -2.60465 0
M  V30 3825 C 367.4 -2.03311 -3.90324 0
M  V30 3826 H 364.519 -0.46067 -0.575284 0
M  V30 3827 H 367.161 -1.64356 -0.953269 0
M  V30 3828 H 365.311 -1.8291 -3.42748 0
M  V30 3829 H 366.983 -4.09259 -2.1285 0
M  V30 3830 H 365.226 -3.88014 -1.93978 0
M  V30 3831 H 365.897 -4.24112 -3.53317 0
M  V30 3832 H 368.373 -2.31574 -3.45706 0
M  V30 3833 H 367.249 -2.67582 -4.79261 0
M  V30 3834 H 367.51 -1.00879 -4.30437 0
M  V30 3835 N 366.569 1.04691 -1.17803 0
M  V30 3836 C 367.815 1.78045 -0.970969 0
M  V30 3837 C 368.148 1.87686 0.498751 0
M  V30 3838 O 367.423 1.38035 1.37027 0
M  V30 3839 C 367.706 3.2166 -1.61884 0
M  V30 3840 C 367.559 3.20001 -3.161 0
M  V30 3841 C 368.878 4.1962 -1.3269 0
M  V30 3842 H 365.997 0.64633 -0.354155 0
M  V30 3843 H 368.639 1.22333 -1.45378 0
M  V30 3844 H 366.789 3.69232 -1.20831 0
M  V30 3845 H 368.461 2.80467 -3.66246 0
M  V30 3846 H 366.704 2.58203 -3.48588 0
M  V30 3847 H 367.375 4.21386 -3.56564 0
M  V30 3848 H 369.851 3.80567 -1.68249 0
M  V30 3849 H 368.727 5.18339 -1.80599 0
M  V30 3850 H 368.988 4.414 -0.248622 0
M  V30 3851 N 368.047 0.979072 1.23499 0
M  V30 3852 C 368.957 0.526431 2.28617 0
M  V30 3853 C 369.973 -0.418126 1.68901 0
M  V30 3854 O 371.149 -0.288372 1.99325 0
M  V30 3855 C 368.214 -0.165235 3.46306 0
M  V30 3856 C 367.275 0.82056 4.21385 0
M  V30 3857 C 366.508 0.161807 5.33455 0
M  V30 3858 O 366.731 -1.04742 5.60701 0
M  V30 3859 O 365.665 0.859708 5.95729 0
M  V30 3860 H 369.491 1.4006 2.69475 0
M  V30 3861 H 367.076 0.746643 1.29405 0
M  V30 3862 H 368.958 -0.553287 4.17752 0
M  V30 3863 H 367.633 -1.01419 3.07402 0
M  V30 3864 H 366.54 1.25929 3.52268 0
M  V30 3865 H 367.873 1.63828 4.64135 0
M  V30 3866 N 369.525 -1.3858 0.750561 0
M  V30 3867 C 370.941 -1.53759 0.427824 0
M  V30 3868 C 371.141 -1.71401 -1.05943 0
M  V30 3869 O 370.197 -1.72331 -1.84549 0
M  V30 3870 C 371.51 -2.74642 1.22443 0
M  V30 3871 C 373.058 -2.88489 1.2142 0
M  V30 3872 C 373.533 -4.12329 1.9937 0
M  V30 3873 N 375.024 -4.194 1.96616 0
M  V30 3874 C 375.759 -5.14209 2.53727 0
M  V30 3875 N 375.255 -6.14709 3.19539 0
M  V30 3876 N 377.048 -5.06537 2.43673 0
M  V30 3877 H 369.199 -1.25377 1.71447 0
M  V30 3878 H 371.462 -0.608844 0.726645 0
M  V30 3879 H 371.168 -2.68 2.27747 0
M  V30 3880 H 371.042 -3.67745 0.839273 0
M  V30 3881 H 373.429 -2.94614 0.169232 0
M  V30 3882 H 373.51 -1.96406 1.63885 0
M  V30 3883 H 373.154 -4.06966 3.03877 0
M  V30 3884 H 373.084 -5.03486 1.54302 0
M  V30 3885 H 375.575 -3.47421 1.48684 0
M  V30 3886 H 375.888 -6.8354 3.60545 0
M  V30 3887 H 374.233 -6.1505 3.23633 0
M  V30 3888 H 377.424 -4.26962 1.91889 0
M  V30 3889 H 377.597 -5.80245 2.88479 0
M  V30 3890 N 371.003 -0.499398 -1.49478 0
M  V30 3891 C 372.228 0.044722 -2.07352 0
M  V30 3892 C 372.653 1.30207 -1.35749 0
M  V30 3893 O 372.011 1.76516 -0.413732 0
M  V30 3894 C 372.059 0.283013 -3.59488 0
M  V30 3895 O 371.163 1.35804 -3.89398 0
M  V30 3896 H 370.504 -0.0255147 -0.66351 0
M  V30 3897 H 373.034 -0.698561 -1.92305 0
M  V30 3898 H 373.044 0.515007 -4.04737 0
M  V30 3899 H 371.719 -0.635636 -4.11014 0
M  V30 3900 H 370.296 1.11113 -3.55961 0
M  V30 3901 N 372.481 1.55866 -0.233164 0
M  V30 3902 C 373.892 1.847 0.272554 0
M  V30 3903 C 374.243 1.15477 1.58617 0
M  V30 3904 O 373.368 0.42841 2.12117 0
M  V30 3905 C 373.963 3.35071 0.501299 0
M  V30 3906 C 372.522 3.6418 0.951304 0
M  V30 3907 C 371.669 2.77292 0.0208209 0
M  V30 3908 H 374.62 1.52005 -0.456074 0
M  V30 3909 H 374.641 3.55906 1.34577 0
M  V30 3910 H 374.153 3.85424 -0.454936 0
M  V30 3911 H 372.254 3.19293 1.92049 0
M  V30 3912 H 372.367 4.72071 0.817675 0
M  V30 3913 H 370.731 2.49131 0.529723 0
M  V30 3914 H 371.514 3.30448 -0.93054 0
M  V30 3915 N 373.959 -0.0401083 1.57549 0
M  V30 3916 C 374.909 -1.05175 2.02292 0
M  V30 3917 C 375.893 -1.32674 0.910294 0
M  V30 3918 O 377.085 -1.32444 1.17421 0
M  V30 3919 C 374.214 -2.35622 2.49674 0
M  V30 3920 C 373.3 -2.11261 3.67736 0
M  V30 3921 N 373.691 -1.56923 4.80842 0
M  V30 3922 C 371.989 -2.41596 3.74897 0
M  V30 3923 C 372.69 -1.48111 5.62528 0
M  V30 3924 N 371.666 -1.95282 5.07312 0
M  V30 3925 H 375.468 -0.625455 2.87168 0
M  V30 3926 H 372.982 -0.246624 1.60516 0
M  V30 3927 H 374.979 -3.08893 2.79983 0
M  V30 3928 H 373.639 -2.7894 1.662 0
M  V30 3929 H 374.65 -1.25345 5.02503 0
M  V30 3930 H 371.327 -2.88064 3.02201 0
M  V30 3931 H 372.717 -1.06683 6.63377 0
M  V30 3932 N 375.437 -1.54477 -0.31217 0
M  V30 3933 C 376.853 -1.45442 -0.657185 0
M  V30 3934 C 377.053 -0.63653 -1.91182 0
M  V30 3935 O 376.109 -0.139815 -2.52113 0
M  V30 3936 C 377.422 -2.89287 -0.82058 0
M  V30 3937 C 378.97 -2.9926 -0.917188 0
M  V30 3938 C 379.445 -4.44279 -1.11267 0
M  V30 3939 N 380.936 -4.4794 -1.17914 0
M  V30 3940 C 381.671 -5.57318 -1.34848 0
M  V30 3941 N 381.167 -6.76642 -1.48752 0
M  V30 3942 N 382.96 -5.44986 -1.37647 0
M  V30 3943 H 375.111 -2.06129 0.512313 0
M  V30 3944 H 377.374 -0.933088 0.167485 0
M  V30 3945 H 377.08 -3.51687 0.0302604 0
M  V30 3946 H 376.954 -3.36061 -1.71298 0
M  V30 3947 H 379.341 -2.36981 -1.75852 0
M  V30 3948 H 379.422 -2.558 -0.00101257 0
M  V30 3949 H 379.066 -5.07149 -0.27614 0
M  V30 3950 H 378.996 -4.85359 -2.04289 0
M  V30 3951 H 381.487 -3.61969 -1.08567 0
M  V30 3952 H 381.8 -7.55758 -1.61397 0
M  V30 3953 H 380.145 -6.79529 -1.45828 0
M  V30 3954 H 383.336 -4.50715 -1.26388 0
M  V30 3955 H 383.509 -6.3028 -1.50501 0
M  V30 3956 N 376.915 0.57481 -1.46744 0
M  V30 3957 C 378.326 1.15695 -1.46532 0
M  V30 3958 C 378.677 1.95068 -0.210425 0
M  V30 3959 O 377.802 2.05241 0.685944 0
M  V30 3960 C 378.397 2.1048 -2.65487 0
M  V30 3961 C 376.956 2.64002 -2.68291 0
M  V30 3962 C 376.103 1.40026 -2.39349 0
M  V30 3963 H 379.054 0.362325 -1.54509 0
M  V30 3964 H 379.075 2.94074 -2.41455 0
M  V30 3965 H 378.587 1.52683 -3.56805 0
M  V30 3966 H 376.688 3.25646 -1.81067 0
M  V30 3967 H 376.801 3.06197 -3.68483 0
M  V30 3968 H 375.165 1.70106 -1.89568 0
M  V30 3969 H 375.948 0.840485 -3.32852 0
M  V30 3970 N 378.394 1.34581 0.820102 0
M  V30 3971 C 379.643 1.26437 1.57151 0
M  V30 3972 C 379.956 -0.163111 1.94919 0
M  V30 3973 O 381.162 -0.366722 2.69012 0
M  V30 3974 C 379.618 2.21658 2.83541 0
M  V30 3975 C 379.226 3.69679 2.53065 0
M  V30 3976 C 380.97 2.22428 3.61561 0
M  V30 3977 C 378.877 4.56761 3.75664 0
M  V30 3978 H 377.807 0.469707 0.589823 0
M  V30 3979 H 380.458 1.59763 0.902656 0
M  V30 3980 H 378.84 1.81287 3.52067 0
M  V30 3981 H 380.014 4.18605 1.92631 0
M  V30 3982 H 378.329 3.71384 1.88316 0
M  V30 3983 H 380.926 2.8471 4.52597 0
M  V30 3984 H 381.269 1.22434 3.97889 0
M  V30 3985 H 381.802 2.61259 2.99981 0
M  V30 3986 H 378.541 5.57702 3.44454 0
M  V30 3987 H 378.061 4.12568 4.35371 0
M  V30 3988 H 379.74 4.71509 4.43044 0
M  V30 3989 N 379.872 -1.04064 1.18357 0
M  V30 3990 C 380.802 -2.14001 0.934113 0
M  V30 3991 C 381.783 -1.69616 -0.128186 0
M  V30 3992 O 382.968 -1.94185 0.0244093 0
M  V30 3993 C 380.098 -3.44253 0.459066 0
M  V30 3994 C 379.052 -4.02261 1.46185 0
M  V30 3995 C 378.378 -5.27992 0.844322 0
M  V30 3996 C 379.678 -4.38432 2.83856 0
M  V30 3997 H 381.372 -2.35127 1.85352 0
M  V30 3998 H 378.918 -1.12998 0.892604 0
M  V30 3999 H 380.871 -4.20522 0.271907 0
M  V30 4000 H 379.595 -3.22813 -0.495912 0
M  V30 4001 H 378.254 -3.28074 1.63595 0
M  V30 4002 H 377.902 -5.02862 -0.117845 0
M  V30 4003 H 377.602 -5.67765 1.51384 0
M  V30 4004 H 379.126 -6.06938 0.667693 0
M  V30 4005 H 380.54 -5.05688 2.70098 0
M  V30 4006 H 378.937 -4.89254 3.47491 0
M  V30 4007 H 380.007 -3.4826 3.37406 0
M  V30 4008 N 381.35 -0.985608 -1.22978 0
M  V30 4009 C 382.282 -0.488154 -2.23941 0
M  V30 4010 C 383.295 0.41282 -1.57479 0
M  V30 4011 O 384.484 0.216121 -1.77187 0
M  V30 4012 C 381.584 0.312611 -3.37455 0
M  V30 4013 C 380.757 -0.582741 -4.33501 0
M  V30 4014 C 379.816 0.165064 -5.25941 0
M  V30 4015 O 378.842 -0.447077 -5.67442 0
M  V30 4016 N 380.044 1.44953 -5.62111 0
M  V30 4017 H 382.809 -1.3563 -2.67254 0
M  V30 4018 H 380.37 -0.859477 -1.37203 0
M  V30 4019 H 382.362 0.821357 -3.96277 0
M  V30 4020 H 380.932 1.0818 -2.93285 0
M  V30 4021 H 380.152 -1.27225 -3.73105 0
M  V30 4022 H 381.44 -1.19275 -4.94622 0
M  V30 4023 H 380.838 1.9683 -5.30353 0
M  V30 4024 H 379.395 1.90361 -6.23383 0
M  V30 4025 N 382.828 1.3818 -0.7579 0
M  V30 4026 C 383.791 2.28764 -0.141286 0
M  V30 4027 C 384.791 1.47388 0.642907 0
M  V30 4028 O 385.981 1.67781 0.468536 0
M  V30 4029 C 383.113 3.31184 0.808069 0
M  V30 4030 H 384.306 2.848 -0.939633 0
M  V30 4031 H 381.859 1.47212 -0.525191 0
M  V30 4032 H 382.594 2.80247 1.63193 0
M  V30 4033 H 382.379 3.91314 0.248104 0
M  V30 4034 H 383.869 3.98909 1.23536 0
M  V30 4035 N 384.306 0.507319 1.49211 0
M  V30 4036 C 385.554 -0.0348839 2.0207 0
M  V30 4037 C 385.875 -1.36898 1.38866 0
M  V30 4038 O 385.145 -1.88133 0.546151 0
M  V30 4039 H 383.725 -0.0158812 0.746831 0
M  V30 4040 H 386.387 0.665998 1.83168 0
M  V30 4041 H 385.483 -0.159917 3.1169 0
M  V30 4042 N 385.784 -1.5574 0.241426 0
M  V30 4043 C 386.714 -2.24133 -0.654722 0
M  V30 4044 C 387.695 -1.21974 -1.1856 0
M  V30 4045 O 388.88 -1.50612 -1.22595 0
M  V30 4046 C 386.01 -2.93659 -1.85423 0
M  V30 4047 C 384.964 -4.0246 -1.45636 0
M  V30 4048 C 384.29 -4.59383 -2.73626 0
M  V30 4049 C 385.59 -5.18468 -0.631506 0
M  V30 4050 H 387.284 -2.99281 -0.0844353 0
M  V30 4051 H 384.83 -1.43947 -0.0391707 0
M  V30 4052 H 386.783 -3.40203 -2.48676 0
M  V30 4053 H 385.507 -2.15991 -2.44981 0
M  V30 4054 H 384.166 -3.56676 -0.847202 0
M  V30 4055 H 383.814 -3.78422 -3.3137 0
M  V30 4056 H 383.514 -5.32826 -2.4773 0
M  V30 4057 H 385.038 -5.08658 -3.37786 0
M  V30 4058 H 386.452 -5.61272 -1.1682 0
M  V30 4059 H 384.849 -5.98266 -0.468831 0
M  V30 4060 H 385.919 -4.8358 0.357506 0
M  V30 4061 N 387.262 0.0317525 -1.57568 0
M  V30 4062 C 388.673 0.578692 -1.77505 0
M  V30 4063 C 389.024 1.75749 -0.872164 0
M  V30 4064 O 388.149 2.16298 -0.0663106 0
M  V30 4065 C 388.744 1.05658 -3.21904 0
M  V30 4066 C 387.303 1.54906 -3.43047 0
M  V30 4067 C 386.45 0.485939 -2.73009 0
M  V30 4068 H 389.401 -0.194475 -1.57504 0
M  V30 4069 H 389.422 1.92404 -3.28269 0
M  V30 4070 H 388.934 0.198422 -3.87592 0
M  V30 4071 H 387.035 2.42915 -2.82529 0
M  V30 4072 H 387.148 1.59841 -4.5165 0
M  V30 4073 H 385.512 0.940354 -2.36705 0
M  V30 4074 H 386.295 -0.362709 -3.41379 0
M  V30 4075 N 388.74 1.54641 0.303973 0
M  V30 4076 C 389.703 1.84646 1.35789 0
M  V30 4077 C 390.703 0.7192 1.4382 0
M  V30 4078 O 391.893 0.987491 1.43507 0
M  V30 4079 C 389.025 2.02407 2.74307 0
M  V30 4080 H 390.218 2.78829 1.10429 0
M  V30 4081 H 387.771 1.46658 0.540487 0
M  V30 4082 H 388.506 1.10502 3.04893 0
M  V30 4083 H 388.291 2.84453 2.69868 0
M  V30 4084 H 389.781 2.27002 3.50514 0
M  V30 4085 N 390.218 -0.567019 1.47046 0
M  V30 4086 C 391.166 -1.69593 1.59188 0
M  V30 4087 C 392.16 -1.63046 0.459609 0
M  V30 4088 O 393.366 -1.6835 0.637058 0
M  V30 4089 H 389.741 -0.560993 0.500791 0
M  V30 4090 H 391.712 -1.56488 2.54075 0
M  V30 4091 C 390.461 -3.07964 1.61411 0
M  V30 4092 H 389.784 -3.13679 2.47881 0
M  V30 4093 H 391.224 -3.86671 1.73958 0
M  V30 4094 C 389.683 -3.35123 0.34559 0
M  V30 4095 O 390.213 -3.97812 -0.557521 0
M  V30 4096 N 388.419 -2.89699 0.22864 0
M  V30 4097 H 387.966 -2.38863 0.964479 0
M  V30 4098 H 387.924 -3.08242 -0.619192 0
M  V30 4099 N 391.696 -1.35014 -0.812953 0
M  V30 4100 C 392.659 -1.27292 -1.90602 0
M  V30 4101 C 393.659 -0.185817 -1.59723 0
M  V30 4102 O 394.849 -0.439102 -1.68575 0
M  V30 4103 C 391.981 -0.967676 -3.26877 0
M  V30 4104 H 393.174 -2.24479 -1.9887 0
M  V30 4105 H 390.727 -1.19446 -1.00808 0
M  V30 4106 H 391.462 0.0005954 -3.243 0
M  V30 4107 H 391.247 -1.75412 -3.50675 0
M  V30 4108 H 392.737 -0.939085 -4.06904 0
M  V30 4109 N 393.175 1.03435 -1.18907 0
M  V30 4110 C 394.4 1.80919 -1.01406 0
M  V30 4111 C 394.825 1.83055 0.432721 0
M  V30 4112 O 394.183 1.25252 1.31079 0
M  V30 4113 C 394.231 3.24091 -1.58105 0
M  V30 4114 O 393.335 4.04434 -0.806669 0
M  V30 4115 H 392.676 0.558709 -0.358803 0
M  V30 4116 H 395.206 1.30223 -1.57807 0
M  V30 4117 H 395.216 3.74853 -1.61087 0
M  V30 4118 H 393.891 3.21851 -2.6341 0
M  V30 4119 H 392.468 3.63091 -0.849666 0
M  V30 4120 N 394.653 0.992116 1.22453 0
M  V30 4121 C 395.881 0.685944 1.95198 0
M  V30 4122 C 396.296 -0.749233 1.73297 0
M  V30 4123 O 395.653 -1.50549 1.03156 0
M  V30 4124 C 395.704 0.981395 3.47924 0
M  V30 4125 O 395.425 2.36018 3.6909 0
M  V30 4126 C 396.926 0.692815 4.37853 0
M  V30 4127 H 394.146 0.253821 0.621141 0
M  V30 4128 H 396.69 1.32668 1.55626 0
M  V30 4129 H 394.845 0.386481 3.85467 0
M  V30 4130 H 395.259 2.45884 4.63294 0
M  V30 4131 H 396.733 0.949818 5.43767 0
M  V30 4132 H 397.21 -0.373181 4.37612 0
M  V30 4133 H 397.816 1.26874 4.05935 0
M  V30 4134 N 396.131 -1.37776 0.765217 0
M  V30 4135 C 397.377 -2.00145 0.327072 0
M  V30 4136 C 397.71 -1.60607 -1.09175 0
M  V30 4137 O 396.985 -0.849127 -1.74986 0
M  V30 4138 C 397.268 -3.57109 0.46319 0
M  V30 4139 C 397.121 -4.06576 1.92395 0
M  V30 4140 C 398.44 -4.39888 -0.136473 0
M  V30 4141 H 395.559 -0.727113 0.120316 0
M  V30 4142 H 398.201 -1.63549 0.967039 0
M  V30 4143 H 396.351 -3.88414 -0.0816358 0
M  V30 4144 H 398.023 -3.85864 2.52798 0
M  V30 4145 H 396.266 -3.59011 2.43503 0
M  V30 4146 H 396.937 -5.15639 1.97028 0
M  V30 4147 H 399.413 -4.14803 0.328317 0
M  V30 4148 H 398.289 -5.48899 -0.0110582 0
M  V30 4149 H 398.55 -4.24758 -1.22608 0
M  V30 4150 N 397.609 -0.515225 -1.4894 0
M  V30 4151 C 398.855 0.0242508 -2.02785 0
M  V30 4152 C 399.188 1.35323 -1.39289 0
M  V30 4153 O 398.463 1.87041 -0.533469 0
M  V30 4154 C 398.746 0.16184 -3.59736 0
M  V30 4155 C 398.599 -1.19127 -4.33738 0
M  V30 4156 C 399.918 0.895719 -4.30888 0
M  V30 4157 H 397.037 0.00733914 -0.736963 0
M  V30 4158 H 399.679 -0.669395 -1.77818 0
M  V30 4159 H 397.829 0.752624 -3.8114 0
M  V30 4160 H 399.501 -1.82202 -4.23792 0
M  V30 4161 H 397.744 -1.77695 -3.95736 0
M  V30 4162 H 398.415 -1.04815 -5.41957 0
M  V30 4163 H 400.891 0.394528 -4.14225 0
M  V30 4164 H 399.767 0.960859 -5.40425 0
M  V30 4165 H 400.028 1.9427 -3.97129 0
M  V30 4166 N 399.087 1.5561 -0.249682 0
M  V30 4167 C 400.335 1.98618 0.373548 0
M  V30 4168 C 400.656 1.13919 1.58264 0
M  V30 4169 O 399.926 0.222637 1.94631 0
M  V30 4170 H 398.506 0.733571 0.141006 0
M  V30 4171 H 401.168 1.91748 -0.349117 0
M  V30 4172 H 400.264 3.04584 0.680796 0
M  V30 4173 N 400.565 -0.0233959 1.57583 0
M  V30 4174 C 401.813 -0.711654 1.89156 0
M  V30 4175 C 402.134 -1.75591 0.848096 0
M  V30 4176 O 401.404 -1.95547 -0.117566 0
M  V30 4177 H 399.984 -0.265835 0.698098 0
M  V30 4178 H 402.646 0.0119948 1.94896 0
M  V30 4179 H 401.742 -1.19766 2.88206 0
M  V30 4180 N 402.043 -1.548 -0.295768 0
M  V30 4181 C 403.32 -1.65014 -1.05023 0
M  V30 4182 C 403.7 -0.501805 -2.05049 0
M  V30 4183 O 403.048 0.500869 -2.22943 0
M  V30 4184 C 403.258 -3.03252 -1.72741 0
M  V30 4185 C 404.606 -3.60242 -2.24746 0
M  V30 4186 O 405.63 -3.05737 -1.82765 0
M  V30 4187 O 404.489 -4.55687 -3.01681 0
M  V30 4188 H 401.583 -0.669314 -0.485744 0
M  V30 4189 H 404.129 -1.67144 -0.293438 0
M  V30 4190 H 402.901 -3.7827 -1.00138 0
M  V30 4191 H 402.524 -3.04922 -2.55163 0
M  V30 4192 N 403.521 0.559213 -1.47345 0
M  V30 4193 C 404.767 1.31843 -1.54095 0
M  V30 4194 C 405.1 1.93149 -0.201726 0
M  V30 4195 O 404.375 1.77759 0.789428 0
M  V30 4196 C 404.658 2.43006 -2.65744 0
M  V30 4197 C 404.511 1.86581 -4.09277 0
M  V30 4198 C 405.83 3.44943 -2.73318 0
M  V30 4199 H 402.949 0.478012 -0.560957 0
M  V30 4200 H 405.591 0.625977 -1.79392 0
M  V30 4201 H 403.741 3.02072 -2.44305 0
M  V30 4202 H 405.413 1.31792 -4.42073 0
M  V30 4203 H 403.656 1.17268 -4.17649 0
M  V30 4204 H 404.327 2.66933 -4.83168 0
M  V30 4205 H 406.803 2.95793 -2.92653 0
M  V30 4206 H 405.679 4.20153 -3.53218 0
M  V30 4207 H 405.94 4.03665 -1.80296 0
M  V30 4208 N 404.999 1.35443 0.805782 0
M  V30 4209 C 405.909 1.30546 1.94923 0
M  V30 4210 C 406.925 0.210233 1.72725 0
M  V30 4211 O 408.101 0.43975 1.9654 0
M  V30 4212 C 405.166 1.07782 3.29521 0
M  V30 4213 C 404.227 2.26625 3.64609 0
M  V30 4214 C 403.46 2.04938 4.92784 0
M  V30 4215 O 403.683 1.01624 5.61274 0
M  V30 4216 O 402.617 2.9232 5.26149 0
M  V30 4217 H 406.443 2.26779 2.02002 0
M  V30 4218 H 404.028 1.15823 0.943682 0
M  V30 4219 H 405.91 0.969392 4.10098 0
M  V30 4220 H 404.585 0.146003 3.23371 0
M  V30 4221 H 403.492 2.43033 2.84404 0
M  V30 4222 H 404.825 3.18257 3.75464 0
M  V30 4223 N 406.477 -1.02803 1.19454 0
M  V30 4224 C 407.724 -1.76217 0.997693 0
M  V30 4225 C 408.052 -1.887 -0.47144 0
M  V30 4226 O 407.307 -1.4011 -1.3663 0
M  V30 4227 C 407.606 -3.18941 1.6128 0
M  V30 4228 C 407.272 -3.26463 3.11019 0
M  V30 4229 C 405.934 -3.28223 3.51885 0
M  V30 4230 C 408.286 -3.25542 4.07028 0
M  V30 4231 C 405.614 -3.26719 4.8731 0
M  V30 4232 C 407.966 -3.25579 5.42385 0
M  V30 4233 C 406.63 -3.25637 5.82681 0
M  V30 4234 H 405.9 -0.644823 0.365082 0
M  V30 4235 H 408.547 -1.20655 1.4871 0
M  V30 4236 H 406.852 -3.77587 1.04572 0
M  V30 4237 H 408.549 -3.74415 1.43577 0
M  V30 4238 H 405.139 -3.25822 2.78457 0
M  V30 4239 H 409.323 -3.23362 3.76498 0
M  V30 4240 H 404.579 -3.25089 5.1781 0
M  V30 4241 H 408.753 -3.23817 6.16535 0
M  V30 4242 H 406.38 -3.24226 6.87591 0
M  V30 4243 N 407.956 -0.998596 -1.21925 0
M  V30 4244 C 409.202 -0.678667 -1.91107 0
M  V30 4245 C 409.535 0.78791 -1.77498 0
M  V30 4246 O 408.81 1.57043 -1.1475 0
M  V30 4247 C 409.093 -1.09245 -3.43129 0
M  V30 4248 C 408.946 -2.61801 -3.6576 0
M  V30 4249 C 410.265 -0.649984 -4.35274 0
M  V30 4250 H 407.384 -0.248025 -0.694012 0
M  V30 4251 H 410.026 -1.24314 -1.43688 0
M  V30 4252 H 408.176 -0.612171 -3.83647 0
M  V30 4253 H 409.848 -3.17543 -3.34611 0
M  V30 4254 H 408.091 -3.03609 -3.09845 0
M  V30 4255 H 408.762 -2.85804 -4.7225 0
M  V30 4256 H 411.238 -1.0626 -4.02303 0
M  V30 4257 H 410.114 -0.967743 -5.40302 0
M  V30 4258 H 410.375 0.449139 -4.39813 0
M  V30 4259 N 409.434 1.37368 -0.772513 0
M  V30 4260 C 410.674 2.01512 -0.342361 0
M  V30 4261 C 411.038 1.59997 1.06136 0
M  V30 4262 O 412.239 2.16609 1.59167 0
M  V30 4263 C 410.51 3.54134 -0.482048 0
M  V30 4264 S 412.069 4.38585 -0.137272 0
M  V30 4265 H 408.887 0.698699 -0.131686 0
M  V30 4266 H 411.489 1.67552 -1.0073 0
M  V30 4267 H 410.193 3.81837 -1.50428 0
M  V30 4268 H 409.724 3.92894 0.199413 0
M  V30 4269 H 411.739 4.84594 1.06692 0
M  V30 4270 N 410.912 0.523116 1.48665 0
M  V30 4271 C 411.859 -0.243398 2.29513 0
M  V30 4272 C 412.829 -0.940139 1.36933 0
M  V30 4273 O 414.014 -0.942503 1.65896 0
M  V30 4274 C 411.154 -1.28855 3.20141 0
M  V30 4275 C 410.267 -0.60135 4.27794 0
M  V30 4276 C 409.402 -1.62884 5.05611 0
M  V30 4277 C 408.441 -0.924726 6.05075 0
M  V30 4278 N 407.578 -1.89744 6.75975 0
M  V30 4279 H 412.418 0.452234 2.94549 0
M  V30 4280 H 409.955 0.234858 1.45213 0
M  V30 4281 H 411.913 -1.90674 3.71079 0
M  V30 4282 H 410.543 -1.95266 2.57043 0
M  V30 4283 H 409.595 0.130623 3.80176 0
M  V30 4284 H 410.907 -0.0481585 4.98777 0
M  V30 4285 H 410.061 -2.32149 5.60528 0
M  V30 4286 H 408.8 -2.21592 4.34452 0
M  V30 4287 H 407.805 -0.217966 5.49368 0
M  V30 4288 H 409.03 -0.343851 6.78229 0
M  V30 4289 H 406.976 -2.47373 6.07571 0
M  V30 4290 H 406.893 -1.3955 7.43009 0
M  V30 4291 H 408.161 -2.58229 7.35485 0
M  V30 4292 N 412.39 -1.55475 0.257931 0
M  V30 4293 C 413.636 -1.99502 -0.364266 0
M  V30 4294 C 413.969 -1.146 -1.56782 0
M  V30 4295 O 413.244 -0.211968 -1.93342 0
M  V30 4296 C 413.527 -3.51917 -0.763333 0
M  V30 4297 C 413.38 -4.4758 0.446371 0
M  V30 4298 C 414.699 -4.09742 -1.60623 0
M  V30 4299 H 411.818 -0.725277 -0.130929 0
M  V30 4300 H 414.46 -1.8653 0.361446 0
M  V30 4301 H 412.61 -3.63101 -1.38166 0
M  V30 4302 H 414.282 -4.48362 1.08487 0
M  V30 4303 H 412.525 -4.19947 1.08753 0
M  V30 4304 H 413.196 -5.51862 0.123645 0
M  V30 4305 H 415.672 -4.01727 -1.08418 0
M  V30 4306 H 414.548 -5.16631 -1.85429 0
M  V30 4307 H 414.809 -3.58889 -2.58169 0
M  V30 4308 N 413.868 0.0150385 -1.57593 0
M  V30 4309 C 415.098 0.713359 -1.93894 0
M  V30 4310 C 415.506 1.68663 -0.857289 0
M  V30 4311 O 414.849 1.82876 0.173788 0
M  V30 4312 C 414.911 1.51348 -3.26089 0
M  V30 4313 C 414.575 0.703451 -4.51554 0
M  V30 4314 C 415.572 -0.00237924 -5.199 0
M  V30 4315 C 413.257 0.653854 -4.98026 0
M  V30 4316 C 415.251 -0.746955 -6.33008 0
M  V30 4317 C 412.938 -0.0944578 -6.11027 0
M  V30 4318 C 413.936 -0.793609 -6.78374 0
M  V30 4319 O 413.624 -1.52974 -7.89211 0
M  V30 4320 H 413.356 0.204637 -0.644282 0
M  V30 4321 H 415.91 -0.0276411 -2.05381 0
M  V30 4322 H 414.14 2.29862 -3.10967 0
M  V30 4323 H 415.829 2.09572 -3.47612 0
M  V30 4324 H 416.595 0.0268803 -4.84993 0
M  V30 4325 H 412.474 1.18756 -4.45441 0
M  V30 4326 H 416.018 -1.2932 -6.85509 0
M  V30 4327 H 411.915 -0.125591 -6.45378 0
M  V30 4328 H 412.683 -1.44488 -8.05646 0
M  V30 4329 N 415.346 1.54954 0.287554 0
M  V30 4330 C 416.571 1.79209 1.04397 0
M  V30 4331 C 416.996 0.556431 1.79682 0
M  V30 4332 O 416.354 -0.493518 1.74454 0
M  V30 4333 C 416.402 3.00739 1.98969 0
M  V30 4334 O 415.506 2.74805 3.075 0
M  V30 4335 H 414.847 0.592755 0.299227 0
M  V30 4336 H 417.377 2.02068 0.320886 0
M  V30 4337 H 417.387 3.29077 2.4119 0
M  V30 4338 H 416.062 3.90329 1.43582 0
M  V30 4339 H 414.639 2.57523 2.69697 0
M  V30 4340 N 416.824 -0.551391 1.4764 0
M  V30 4341 C 418.101 -1.31229 1.45046 0
M  V30 4342 C 418.481 -2.10563 0.150527 0
M  V30 4343 O 417.829 -2.11374 -0.867956 0
M  V30 4344 C 418.039 -2.21189 2.69956 0
M  V30 4345 C 419.387 -2.82021 3.1741 0
M  V30 4346 O 420.411 -2.31488 2.70724 0
M  V30 4347 O 419.27 -3.73885 3.98588 0
M  V30 4348 H 416.364 -0.591193 0.578291 0
M  V30 4349 H 418.91 -0.569813 1.59847 0
M  V30 4350 H 417.682 -1.62207 3.56096 0
M  V30 4351 H 417.305 -3.02722 2.57769 0
M  V30 4352 N 418.302 -1.35869 -0.798587 0
M  V30 4353 C 419.265 -1.29307 -1.89242 0
M  V30 4354 C 420.265 -0.202747 -1.59517 0
M  V30 4355 O 421.455 -0.456957 -1.681 0
M  V30 4356 C 418.587 -1.00229 -3.25833 0
M  V30 4357 H 419.78 -2.26576 -1.96478 0
M  V30 4358 H 417.333 -1.20509 -0.995358 0
M  V30 4359 H 418.068 -0.033801 -3.24282 0
M  V30 4360 H 417.853 -1.79121 -3.48795 0
M  V30 4361 H 419.343 -0.98219 -4.05885 0
M  V30 4362 N 419.78 1.02168 -1.19998 0
M  V30 4363 C 420.712 2.10705 -0.901994 0
M  V30 4364 C 421.725 1.6244 0.108216 0
M  V30 4365 O 422.914 1.78082 -0.12214 0
M  V30 4366 C 420.014 3.37291 -0.329834 0
M  V30 4367 C 419.187 4.14714 -1.39035 0
M  V30 4368 C 418.246 5.19606 -0.830432 0
M  V30 4369 O 417.272 5.48809 -1.50989 0
M  V30 4370 N 418.474 5.79366 0.362696 0
M  V30 4371 H 421.239 2.36856 -1.83628 0
M  V30 4372 H 418.8 1.18518 -1.10296 0
M  V30 4373 H 420.792 4.04657 0.0587633 0
M  V30 4374 H 419.362 3.0843 0.508891 0
M  V30 4375 H 418.582 3.42392 -1.9535 0
M  V30 4376 H 419.87 4.63226 -2.10474 0
M  V30 4377 H 419.268 5.57968 0.932081 0
M  V30 4378 H 417.825 6.48106 0.69299 0
M  V30 4379 N 421.258 1.00505 1.21394 0
M  V30 4380 C 422.669 0.721082 1.72213 0
M  V30 4381 C 423.02 -0.761263 1.80829 0
M  V30 4382 O 422.145 -1.59464 1.46288 0
M  V30 4383 C 422.74 1.30228 3.12772 0
M  V30 4384 C 421.299 1.06743 3.60947 0
M  V30 4385 C 420.446 1.41507 2.38477 0
M  V30 4386 H 423.397 1.17594 1.06571 0
M  V30 4387 H 423.418 0.686955 3.74247 0
M  V30 4388 H 422.93 2.38115 3.06468 0
M  V30 4389 H 421.031 0.00572162 3.726 0
M  V30 4390 H 421.144 1.73936 4.46411 0
M  V30 4391 H 419.508 0.833852 2.40664 0
M  V30 4392 H 420.291 2.50424 2.34824 0
M  V30 4393 N 422.737 -1.36956 0.779787 0
M  V30 4394 C 423.687 -2.27539 0.144892 0
M  V30 4395 C 424.671 -1.46493 -0.665488 0
M  V30 4396 O 425.863 -1.68968 -0.527141 0
M  V30 4397 C 422.992 -3.35512 -0.727082 0
M  V30 4398 C 422.078 -4.24001 0.0915642 0
M  V30 4399 N 422.469 -4.92757 1.14125 0
M  V30 4400 C 420.767 -4.45807 -0.131141 0
M  V30 4401 C 421.468 -5.58138 1.6388 0
M  V30 4402 N 420.444 -5.35241 0.94962 0
M  V30 4403 H 424.246 -2.78176 0.948446 0
M  V30 4404 H 421.76 -1.50169 0.618315 0
M  V30 4405 H 423.757 -3.99324 -1.19776 0
M  V30 4406 H 422.417 -2.86431 -1.52929 0
M  V30 4407 H 423.428 -4.94984 1.52353 0
M  V30 4408 H 420.105 -4.07582 -0.904621 0
M  V30 4409 H 421.495 -6.23071 2.51461 0
M  V30 4410 N 424.215 -0.530993 -1.48385 0
M  V30 4411 C 425.464 0.00474348 -2.01699 0
M  V30 4412 C 425.777 1.35227 -1.41325 0
M  V30 4413 O 426.983 1.97643 -1.86144 0
M  V30 4414 C 425.439 0.0588473 -3.59852 0
M  V30 4415 C 425.047 -1.28385 -4.2921 0
M  V30 4416 C 426.791 0.543358 -4.21008 0
M  V30 4417 C 424.698 -1.19028 -5.79298 0
M  V30 4418 H 423.628 0.00554317 -0.75398 0
M  V30 4419 H 426.279 -0.674924 -1.70637 0
M  V30 4420 H 424.661 0.803612 -3.8776 0
M  V30 4421 H 425.835 -2.04426 -4.12973 0
M  V30 4422 H 424.15 -1.70418 -3.7993 0
M  V30 4423 H 426.747 0.631351 -5.3096 0
M  V30 4424 H 427.09 1.54937 -3.86394 0
M  V30 4425 H 427.623 -0.145754 -3.97533 0
M  V30 4426 H 424.362 -2.17147 -6.18488 0
M  V30 4427 H 423.882 -0.471246 -5.97946 0
M  V30 4428 H 425.561 -0.881365 -6.40969 0
M  V30 4429 N 425.693 1.55336 -0.266172 0
M  V30 4430 C 426.625 2.19544 0.658247 0
M  V30 4431 C 427.638 1.17746 1.12427 0
M  V30 4432 O 428.827 1.44517 1.04772 0
M  V30 4433 C 425.927 2.80032 1.9088 0
M  V30 4434 C 425.1 4.07436 1.59106 0
M  V30 4435 C 424.159 4.52056 2.69317 0
M  V30 4436 O 423.185 5.18023 2.35883 0
M  V30 4437 N 424.387 4.21448 3.99201 0
M  V30 4438 H 427.152 2.99503 0.108754 0
M  V30 4439 H 424.713 1.61667 -0.0869059 0
M  V30 4440 H 426.705 3.06831 2.63888 0
M  V30 4441 H 425.275 2.04119 2.36758 0
M  V30 4442 H 424.495 3.88021 0.695243 0
M  V30 4443 H 425.783 4.90462 1.35367 0
M  V30 4444 H 425.181 3.68528 4.29189 0
M  V30 4445 H 423.738 4.53039 4.68614 0
M  V30 4446 N 427.171 -0.0066808 1.57599 0
M  V30 4447 C 428.417 -0.68835 1.91398 0
M  V30 4448 C 428.772 -1.7175 0.86716 0
M  V30 4449 O 428.065 -1.91215 -0.121475 0
M  V30 4450 C 428.259 -1.37939 3.29708 0
M  V30 4451 C 428.088 -0.418689 4.47747 0
M  V30 4452 C 426.858 -0.031526 5.0529 0
M  V30 4453 C 429.056 0.312301 5.13351 0
M  V30 4454 N 427.038 0.928088 6.06844 0
M  V30 4455 C 428.409 1.12682 6.09674 0
M  V30 4456 C 430.464 0.376853 4.96472 0
M  V30 4457 C 429.167 2 6.90936 0
M  V30 4458 C 431.193 1.23723 5.78314 0
M  V30 4459 C 430.555 2.03962 6.74225 0
M  V30 4460 H 426.654 -0.225292 0.748844 0
M  V30 4461 H 429.238 0.0520973 1.9463 0
M  V30 4462 H 427.409 -2.09017 3.27363 0
M  V30 4463 H 429.141 -2.01522 3.50957 0
M  V30 4464 H 425.896 -0.398485 4.71921 0
M  V30 4465 H 426.32 1.40307 6.62301 0
M  V30 4466 H 430.962 -0.22921 4.22178 0
M  V30 4467 H 428.68 2.61676 7.64559 0
M  V30 4468 H 432.266 1.291 5.67296 0
M  V30 4469 H 431.146 2.69461 7.36451 0
M  V30 4470 N 428.649 -1.55105 -0.279332 0
M  V30 4471 C 429.898 -1.74618 -1.00952 0
M  V30 4472 C 430.211 -0.551096 -1.87676 0
M  V30 4473 O 431.417 -0.628507 -2.64125 0
M  V30 4474 C 429.873 -3.09025 -1.84476 0
M  V30 4475 C 429.481 -4.36081 -1.0265 0
M  V30 4476 C 431.225 -3.37891 -2.56963 0
M  V30 4477 C 429.132 -5.6153 -1.85576 0
M  V30 4478 H 428.062 -0.650868 -0.38064 0
M  V30 4479 H 430.713 -1.81569 -0.265475 0
M  V30 4480 H 429.095 -2.96095 -2.62952 0
M  V30 4481 H 430.269 -4.59909 -0.286354 0
M  V30 4482 H 428.584 -4.14312 -0.416464 0
M  V30 4483 H 431.181 -4.28822 -3.19399 0
M  V30 4484 H 431.524 -2.57737 -3.26921 0
M  V30 4485 H 432.057 -3.5189 -1.85522 0
M  V30 4486 H 428.796 -6.44413 -1.2005 0
M  V30 4487 H 428.316 -5.41854 -2.57204 0
M  V30 4488 H 429.995 -5.99594 -2.43096 0
M  V30 4489 N 430.127 0.543554 -1.4793 0
M  V30 4490 C 431.074 1.64942 -1.6144 0
M  V30 4491 C 432.044 1.59692 -0.456903 0
M  V30 4492 O 433.229 1.78321 -0.678688 0
M  V30 4493 C 430.369 3.03238 -1.64744 0
M  V30 4494 C 429.482 3.18823 -2.91506 0
M  V30 4495 C 428.617 4.47599 -2.86057 0
M  V30 4496 C 427.656 4.56664 -4.07584 0
M  V30 4497 N 426.793 5.76811 -4.00292 0
M  V30 4498 H 431.633 1.52733 -2.55884 0
M  V30 4499 H 429.17 0.7438 -1.2691 0
M  V30 4500 H 431.128 3.83339 -1.64641 0
M  V30 4501 H 429.758 3.1425 -0.738017 0
M  V30 4502 H 428.81 2.32064 -3.01414 0
M  V30 4503 H 430.122 3.21384 -3.81463 0
M  V30 4504 H 429.276 5.35975 -2.84281 0
M  V30 4505 H 428.015 4.47538 -1.93807 0
M  V30 4506 H 427.02 3.66697 -4.09651 0
M  V30 4507 H 428.245 4.58474 -5.00978 0
M  V30 4508 H 426.191 5.77673 -3.10853 0
M  V30 4509 H 426.108 5.80808 -4.8394 0
M  V30 4510 H 427.376 6.67512 -4.02553 0
M  V30 4511 N 431.605 1.3629 0.791371 0
M  V30 4512 C 432.555 1.26988 1.89362 0
M  V30 4513 C 433.539 0.161795 1.60084 0
M  V30 4514 O 434.731 0.394426 1.72549 0
M  V30 4515 C 431.86 1.05944 3.26544 0
M  V30 4516 C 430.946 2.21211 3.61838 0
M  V30 4517 N 431.337 3.46518 3.68455 0
M  V30 4518 C 429.635 2.12933 3.91887 0
M  V30 4519 C 430.336 4.2241 3.99931 0
M  V30 4520 N 429.312 3.51329 4.14812 0
M  V30 4521 H 433.114 2.21908 1.92702 0
M  V30 4522 H 430.628 1.28982 0.986787 0
M  V30 4523 H 432.625 0.973666 4.05371 0
M  V30 4524 H 431.285 0.119223 3.24481 0
M  V30 4525 H 432.296 3.80677 3.51148 0
M  V30 4526 H 428.973 1.26855 3.97761 0
M  V30 4527 H 430.363 5.30767 4.1199 0
M  V30 4528 N 433.083 -1.0153 1.20538 0
M  V30 4529 C 434.329 -1.75408 1.01783 0
M  V30 4530 C 434.662 -1.88943 -0.448814 0
M  V30 4531 O 433.937 -1.4162 -1.33319 0
M  V30 4532 C 434.22 -3.17255 1.70356 0
M  V30 4533 C 434.073 -3.11508 3.24473 0
M  V30 4534 C 435.392 -4.15955 1.43769 0
M  V30 4535 H 432.511 -0.636713 0.371167 0
M  V30 4536 H 435.153 -1.18436 1.4857 0
M  V30 4537 H 433.303 -3.65898 1.30578 0
M  V30 4538 H 434.975 -2.70658 3.73553 0
M  V30 4539 H 433.218 -2.4887 3.55311 0
M  V30 4540 H 433.889 -4.11784 3.67611 0
M  V30 4541 H 436.365 -3.75973 1.7828 0
M  V30 4542 H 435.241 -5.13368 1.94279 0
M  V30 4543 H 435.502 -4.40586 0.365564 0
M  V30 4544 N 434.561 -1.01147 -1.20859 0
M  V30 4545 C 435.471 -0.58686 -2.27141 0
M  V30 4546 C 436.487 0.373198 -1.69951 0
M  V30 4547 O 437.663 0.235423 -2.00019 0
M  V30 4548 C 434.728 0.0733602 -3.46622 0
M  V30 4549 C 433.789 -0.931995 -4.19061 0
M  V30 4550 C 433.022 -0.303186 -5.32838 0
M  V30 4551 O 433.245 0.898395 -5.63281 0
M  V30 4552 O 432.179 -1.01735 -5.9324 0
M  V30 4553 H 436.005 -1.47155 -2.65667 0
M  V30 4554 H 433.59 -0.780689 -1.2738 0
M  V30 4555 H 435.472 0.442333 -4.19072 0
M  V30 4556 H 434.147 0.932329 -3.09983 0
M  V30 4557 H 433.054 -1.35224 -3.48805 0
M  V30 4558 H 434.387 -1.76076 -4.59628 0
M  V30 4559 N 436.039 1.36541 -0.78704 0
M  V30 4560 C 436.986 2.30082 -0.181901 0
M  V30 4561 C 437.956 1.5186 0.672896 0
M  V30 4562 O 439.141 1.80374 0.622072 0
M  V30 4563 C 436.281 3.3835 0.679197 0
M  V30 4564 C 435.394 4.31565 -0.193882 0
M  V30 4565 C 434.529 5.26915 0.673364 0
M  V30 4566 C 433.568 6.11769 -0.201315 0
M  V30 4567 N 432.705 6.99315 0.624777 0
M  V30 4568 H 437.545 2.81248 -0.985064 0
M  V30 4569 H 435.082 1.38437 -0.497342 0
M  V30 4570 H 437.04 3.99767 1.19341 0
M  V30 4571 H 435.67 2.8851 1.44781 0
M  V30 4572 H 434.722 3.71323 -0.826044 0
M  V30 4573 H 436.034 4.91191 -0.867937 0
M  V30 4574 H 435.188 5.9361 1.25348 0
M  V30 4575 H 433.927 4.67737 1.38105 0
M  V30 4576 H 432.932 5.44039 -0.793849 0
M  V30 4577 H 434.157 6.73022 -0.906568 0
M  V30 4578 H 432.103 6.42648 1.3168 0
M  V30 4579 H 432.02 7.56 0.00835237 0
M  V30 4580 H 433.288 7.70382 1.18879 0
M  V30 4581 N 437.518 0.538854 1.48102 0
M  V30 4582 C 438.466 -0.232325 2.31437 0
M  V30 4583 C 439.46 -0.927004 1.41785 0
M  V30 4584 O 440.666 -0.850378 1.58646 0
M  V30 4585 H 437.041 -0.0937916 0.746128 0
M  V30 4586 H 439.012 0.489986 2.9435 0
M  V30 4587 C 437.761 -1.26074 3.24038 0
M  V30 4588 H 437.084 -0.735609 3.92974 0
M  V30 4589 H 438.524 -1.77157 3.85216 0
M  V30 4590 C 436.983 -2.29902 2.46265 0
M  V30 4591 O 437.513 -3.36502 2.19384 0
M  V30 4592 N 435.719 -2.03348 2.07601 0
M  V30 4593 H 435.266 -1.16675 2.29662 0
M  V30 4594 H 435.224 -2.73038 1.55877 0
M  V30 4595 N 438.996 -1.55193 0.274407 0
M  V30 4596 C 440.244 -1.99187 -0.341902 0
M  V30 4597 C 440.565 -1.16422 -1.56431 0
M  V30 4598 O 439.835 -0.253573 -1.94252 0
M  V30 4599 H 438.415 -0.735721 -0.129317 0
M  V30 4600 H 441.077 -1.91168 0.379578 0
M  V30 4601 H 440.173 -3.05629 -0.632253 0
M  V30 4602 N 440.474 -0.00167713 -1.576 0
M  V30 4603 C 441.699 0.69739 -1.95323 0
M  V30 4604 C 442.124 1.6642 -0.876706 0
M  V30 4605 O 441.482 1.80548 0.165007 0
M  V30 4606 C 441.53 1.40403 -3.32144 0
M  V30 4607 O 440.634 2.5185 -3.26566 0
M  V30 4608 H 439.975 0.185373 -0.637599 0
M  V30 4609 H 442.505 -0.0553665 -2.04525 0
M  V30 4610 H 442.515 1.76707 -3.67748 0
M  V30 4611 H 441.19 0.695167 -4.10049 0
M  V30 4612 H 439.767 2.17861 -3.0264 0
M  V30 4613 N 441.952 1.55251 0.271103 0
M  V30 4614 C 442.899 1.88261 1.33516 0
M  V30 4615 C 443.869 0.734296 1.48988 0
M  V30 4616 O 445.054 0.985741 1.63364 0
M  V30 4617 C 442.194 2.16168 2.69008 0
M  V30 4618 C 441.307 3.43678 2.61743 0
M  V30 4619 C 440.442 3.61276 3.89427 0
M  V30 4620 C 439.481 4.82472 3.7668 0
M  V30 4621 N 438.618 4.96717 4.96202 0
M  V30 4622 H 443.458 2.79015 1.04665 0
M  V30 4623 H 440.995 1.38137 0.505618 0
M  V30 4624 H 442.953 2.30349 3.47844 0
M  V30 4625 H 441.583 1.28646 2.96057 0
M  V30 4626 H 440.635 3.37959 1.74607 0
M  V30 4627 H 441.947 4.3265 2.48224 0
M  V30 4628 H 441.101 3.75284 4.76704 0
M  V30 4629 H 439.84 2.70492 4.05814 0
M  V30 4630 H 438.845 4.68465 2.87786 0
M  V30 4631 H 440.07 5.74692 3.61809 0
M  V30 4632 H 438.016 4.08865 5.12997 0
M  V30 4633 H 437.933 5.79738 4.85222 0
M  V30 4634 H 439.201 5.15113 5.85046 0
M  V30 4635 N 443.43 -0.535701 1.48216 0
M  V30 4636 C 444.66 -1.3148 1.59363 0
M  V30 4637 C 445.068 -1.8753 0.250844 0
M  V30 4638 O 444.411 -1.66821 -0.769174 0
M  V30 4639 C 444.473 -2.50731 2.57632 0
M  V30 4640 C 444.137 -2.15811 4.02833 0
M  V30 4641 C 445.134 -1.71822 4.90686 0
M  V30 4642 C 442.819 -2.26509 4.48329 0
M  V30 4643 C 444.813 -1.3899 6.22062 0
M  V30 4644 C 442.5 -1.93289 5.79726 0
M  V30 4645 C 443.498 -1.49599 6.66415 0
M  V30 4646 O 443.186 -1.16812 7.95368 0
M  V30 4647 H 442.918 -0.406315 0.540263 0
M  V30 4648 H 445.472 -0.653569 1.94725 0
M  V30 4649 H 443.702 -3.19817 2.1738 0
M  V30 4650 H 445.391 -3.12797 2.58675 0
M  V30 4651 H 446.157 -1.63031 4.56778 0
M  V30 4652 H 442.036 -2.59471 3.81045 0
M  V30 4653 H 445.58 -1.04816 6.89681 0
M  V30 4654 H 441.477 -2.01718 6.13172 0
M  V30 4655 H 442.245 -1.30259 8.08069 0
M  V30 4656 N 444.908 -1.36708 -0.784132 0
M  V30 4657 C 446.156 -1.30972 -1.53918 0
M  V30 4658 C 446.477 0.109086 -1.94695 0
M  V30 4659 O 445.747 1.05048 -1.65353 0
M  V30 4660 H 444.327 -0.481819 -0.570841 0
M  V30 4661 H 446.989 -1.71063 -0.934002 0
M  V30 4662 H 446.085 -1.94061 -2.44431 0
M  V30 4663 N 446.386 1.0089 -1.21074 0
M  V30 4664 C 447.797 1.56056 -1.02486 0
M  V30 4665 C 448.148 1.91728 0.416506 0
M  V30 4666 O 447.273 1.73066 1.29912 0
M  V30 4667 C 447.868 2.83563 -1.85411 0
M  V30 4668 C 446.427 3.3523 -1.71166 0
M  V30 4669 C 445.574 2.0846 -1.82865 0
M  V30 4670 H 448.525 0.831818 -1.35154 0
M  V30 4671 H 448.546 3.55286 -1.36205 0
M  V30 4672 H 448.058 2.57569 -2.9031 0
M  V30 4673 H 446.159 3.66167 -0.689361 0
M  V30 4674 H 446.272 4.06913 -2.52901 0
M  V30 4675 H 444.636 2.21275 -1.26132 0
M  V30 4676 H 445.419 1.84883 -2.89263 0
M  V30 4677 N 447.864 1.01787 1.20321 0
M  V30 4678 C 449.141 0.622978 1.85414 0
M  V30 4679 C 449.521 -0.898887 1.91006 0
M  V30 4680 O 448.869 -1.79112 1.41884 0
M  V30 4681 C 449.079 1.27226 3.24984 0
M  V30 4682 C 450.427 1.3885 4.01255 0
M  V30 4683 O 451.451 1.22857 3.34342 0
M  V30 4684 O 450.31 1.64705 5.2109 0
M  V30 4685 H 447.404 0.215116 0.798533 0
M  V30 4686 H 449.95 1.11533 1.27901 0
M  V30 4687 H 448.722 2.31209 3.15687 0
M  V30 4688 H 448.345 0.767069 3.90131 0
M  V30 4689 N 449.342 -1.36122 0.79427 0
M  V30 4690 C 450.59 -1.98718 0.368177 0
M  V30 4691 C 450.911 -1.63345 -1.06506 0
M  V30 4692 O 450.181 -0.909825 -1.73491 0
M  V30 4693 H 448.761 -0.735038 0.133146 0
M  V30 4694 H 451.423 -1.66239 1.01739 0
M  V30 4695 H 450.519 -3.08633 0.463923 0
M  V30 4696 N 450.82 -0.546701 -1.47814 0
M  V30 4697 C 451.75 0.195317 -2.32682 0
M  V30 4698 C 452.731 0.918981 -1.43139 0
M  V30 4699 O 453.916 0.901501 -1.72008 0
M  V30 4700 C 451.046 1.23237 -3.247 0
M  V30 4701 C 450 0.625818 -4.234 0
M  V30 4702 C 449.326 1.76674 -5.04669 0
M  V30 4703 C 450.626 -0.413515 -5.2066 0
M  V30 4704 H 452.32 -0.513184 -2.94969 0
M  V30 4705 H 449.866 -0.248241 -1.41844 0
M  V30 4706 H 451.819 1.75955 -3.82907 0
M  V30 4707 H 450.543 1.97067 -2.60446 0
M  V30 4708 H 449.202 0.120023 -3.66403 0
M  V30 4709 H 448.85 2.49383 -4.36826 0
M  V30 4710 H 448.55 1.36673 -5.71484 0
M  V30 4711 H 450.074 2.29738 -5.65732 0
M  V30 4712 H 451.488 0.0272042 -5.73294 0
M  V30 4713 H 449.885 -0.731825 -5.95621 0
M  V30 4714 H 450.955 -1.31325 -4.66778 0
M  V30 4715 N 452.299 1.55045 -0.282633 0
M  V30 4716 C 453.71 1.85473 0.213655 0
M  V30 4717 C 454.061 1.20465 1.54863 0
M  V30 4718 O 453.186 0.495676 2.10647 0
M  V30 4719 C 453.781 3.36496 0.394445 0
M  V30 4720 C 452.34 3.67022 0.834961 0
M  V30 4721 C 451.487 2.77218 -0.0674081 0
M  V30 4722 H 454.438 1.50478 -0.504202 0
M  V30 4723 H 454.459 3.60007 1.23186 0
M  V30 4724 H 453.971 3.83782 -0.577326 0
M  V30 4725 H 452.072 3.25241 1.81794 0
M  V30 4726 H 452.185 4.74433 0.667075 0
M  V30 4727 H 450.549 2.5069 0.450196 0
M  V30 4728 H 451.332 3.2732 -1.0352 0
M  V30 4729 N 453.777 0.010035 1.57597 0
M  V30 4730 C 455.007 -0.682422 1.95004 0
M  V30 4731 C 455.415 -1.67278 0.884014 0
M  V30 4732 O 454.758 -1.83129 -0.144672 0
M  V30 4733 C 454.82 -1.46141 3.28456 0
M  V30 4734 C 454.484 -0.631523 4.52615 0
M  V30 4735 C 455.481 0.0850905 5.1983 0
M  V30 4736 C 453.166 -0.574539 4.99003 0
M  V30 4737 C 455.16 0.847566 6.3174 0
M  V30 4738 C 452.847 0.191655 6.10799 0
M  V30 4739 C 453.845 0.901432 6.77025 0
M  V30 4740 O 453.533 1.65511 7.86677 0
M  V30 4741 H 453.265 -0.194361 0.647456 0
M  V30 4742 H 455.819 0.060312 2.05311 0
M  V30 4743 H 454.049 -2.24885 3.14585 0
M  V30 4744 H 455.738 -2.04016 3.50902 0
M  V30 4745 H 456.504 0.0502812 4.84974 0
M  V30 4746 H 452.383 -1.11654 4.47274 0
M  V30 4747 H 455.927 1.4021 6.83364 0
M  V30 4748 H 451.824 0.228249 6.45096 0
M  V30 4749 H 452.592 1.57287 8.03245 0
M  V30 4750 N 455.255 -1.55392 -0.262866 0
M  V30 4751 C 456.185 -1.91978 -1.32917 0
M  V30 4752 C 457.166 -0.7828 -1.51017 0
M  V30 4753 O 458.351 -1.04178 -1.63892 0
M  V30 4754 C 455.481 -2.20055 -2.68687 0
M  V30 4755 C 454.435 -3.35854 -2.65304 0
M  V30 4756 C 453.761 -3.49435 -4.04721 0
M  V30 4757 C 455.061 -4.71977 -2.23685 0
M  V30 4758 H 456.755 -2.81292 -1.02544 0
M  V30 4759 H 454.301 -1.3534 -0.491846 0
M  V30 4760 H 456.254 -2.44237 -3.43404 0
M  V30 4761 H 454.978 -1.27551 -3.00663 0
M  V30 4762 H 453.637 -3.11655 -1.93045 0
M  V30 4763 H 453.285 -2.54379 -4.33936 0
M  V30 4764 H 452.985 -4.27297 -4.0335 0
M  V30 4765 H 454.509 -3.7592 -4.81161 0
M  V30 4766 H 455.923 -4.95637 -2.88127 0
M  V30 4767 H 454.32 -5.52828 -2.33456 0
M  V30 4768 H 455.39 -4.70115 -1.18827 0
M  V30 4769 N 456.733 0.527833 -1.48498 0
M  V30 4770 C 457.68 1.6322 -1.6318 0
M  V30 4771 C 458.65 1.59199 -0.473815 0
M  V30 4772 O 459.835 1.77591 -0.697563 0
M  V30 4773 C 456.975 3.01474 -1.67951 0
M  V30 4774 C 456.088 3.15713 -2.94871 0
M  V30 4775 C 455.223 4.44539 -2.90789 0
M  V30 4776 C 454.262 4.52315 -4.12404 0
M  V30 4777 N 453.399 5.72533 -4.06387 0
M  V30 4778 H 458.239 1.50011 -2.57489 0
M  V30 4779 H 455.776 0.730298 -1.27691 0
M  V30 4780 H 457.734 3.81572 -1.68698 0
M  V30 4781 H 456.364 3.1345 -0.771306 0
M  V30 4782 H 455.416 2.28854 -3.03859 0
M  V30 4783 H 456.728 3.1732 -3.8485 0
M  V30 4784 H 455.882 5.3293 -2.89949 0
M  V30 4785 H 454.621 4.45457 -1.98542 0
M  V30 4786 H 453.626 3.62331 -4.13517 0
M  V30 4787 H 454.851 4.53134 -5.05812 0
M  V30 4788 H 452.797 5.74344 -3.16962 0
M  V30 4789 H 452.714 5.75643 -4.90073 0
M  V30 4790 H 453.982 6.63204 -4.0961 0
M  V30 4791 N 458.211 1.37122 0.776871 0
M  V30 4792 C 459.457 1.32243 1.53752 0
M  V30 4793 C 459.79 -0.0944745 1.9397 0
M  V30 4794 O 459.065 -1.05068 1.6368 0
M  V30 4795 C 459.348 2.25681 2.80607 0
M  V30 4796 C 459.201 3.76127 2.46676 0
M  V30 4797 C 460.52 2.17657 3.82509 0
M  V30 4798 H 457.639 0.481704 0.557791 0
M  V30 4799 H 460.281 1.6778 0.891612 0
M  V30 4800 H 458.431 1.95505 3.35723 0
M  V30 4801 H 460.103 4.16877 1.97513 0
M  V30 4802 H 458.346 3.94946 1.79443 0
M  V30 4803 H 459.017 4.36933 3.37333 0
M  V30 4804 H 461.493 2.44245 3.36873 0
M  V30 4805 H 460.369 2.85185 4.69 0
M  V30 4806 H 460.63 1.16785 4.26396 0
M  V30 4807 N 459.689 -1.00246 1.21608 0
M  V30 4808 C 460.619 -2.10921 1.00172 0
M  V30 4809 C 461.6 -1.69938 -0.0741587 0
M  V30 4810 O 462.785 -1.94009 0.0861753 0
M  V30 4811 C 459.915 -3.42618 0.568355 0
M  V30 4812 C 458.869 -3.97407 1.58909 0
M  V30 4813 C 458.195 -5.25038 1.01187 0
M  V30 4814 C 459.495 -4.2918 2.97661 0
M  V30 4815 H 461.189 -2.29112 1.92739 0
M  V30 4816 H 458.735 -1.10101 0.928102 0
M  V30 4817 H 460.688 -4.19444 0.405555 0
M  V30 4818 H 459.412 -3.24227 -0.392961 0
M  V30 4819 H 458.071 -3.22703 1.73949 0
M  V30 4820 H 457.719 -5.02982 0.0421965 0
M  V30 4821 H 457.419 -5.62661 1.6937 0
M  V30 4822 H 458.943 -6.04507 0.860448 0
M  V30 4823 H 460.357 -4.96839 2.86049 0
M  V30 4824 H 458.754 -4.77952 3.6288 0
M  V30 4825 H 459.824 -3.3735 3.48315 0
M  V30 4826 N 461.167 -1.02423 -1.1978 0
M  V30 4827 C 462.114 -0.601023 -2.22837 0
M  V30 4828 C 463.084 0.382801 -1.61629 0
M  V30 4829 O 464.269 0.280514 -1.88727 0
M  V30 4830 C 461.409 0.0467755 -3.45068 0
M  V30 4831 C 460.522 -0.98253 -4.20678 0
M  V30 4832 C 459.657 -0.304982 -5.30324 0
M  V30 4833 C 458.696 -1.32052 -5.97686 0
M  V30 4834 N 457.833 -0.669105 -6.98904 0
M  V30 4835 H 462.673 -1.48444 -2.58396 0
M  V30 4836 H 460.21 -0.742936 -1.2696 0
M  V30 4837 H 462.168 0.439556 -4.14878 0
M  V30 4838 H 460.798 0.893796 -3.10179 0
M  V30 4839 H 459.85 -1.49341 -3.49859 0
M  V30 4840 H 461.162 -1.75455 -4.66923 0
M  V30 4841 H 460.316 0.142893 -6.06532 0
M  V30 4842 H 459.055 0.499283 -4.85138 0
M  V30 4843 H 458.06 -1.7787 -5.20233 0
M  V30 4844 H 459.285 -2.1262 -6.44957 0
M  V30 4845 H 457.231 0.115152 -6.55899 0
M  V30 4846 H 457.148 -1.37908 -7.43315 0
M  V30 4847 H 458.416 -0.245076 -7.79115 0
M  V30 4848 N 462.645 1.35699 -0.801477 0
M  V30 4849 C 463.608 2.28199 -0.213994 0
M  V30 4850 C 464.608 1.49359 0.595691 0
M  V30 4851 O 465.798 1.69186 0.414921 0
M  V30 4852 C 462.93 3.33587 0.702297 0
M  V30 4853 H 464.123 2.81666 -1.02976 0
M  V30 4854 H 461.676 1.45467 -0.571759 0
M  V30 4855 H 462.411 2.85297 1.54195 0
M  V30 4856 H 462.196 3.91906 0.123484 0
M  V30 4857 H 463.686 4.02638 1.10783 0
M  V30 4858 N 464.123 0.554532 1.47522 0
M  V30 4859 C 465.086 -0.184174 2.28459 0
M  V30 4860 C 466.086 -0.845195 1.36796 0
M  V30 4861 O 467.276 -0.701467 1.59452 0
M  V30 4862 C 464.408 -1.26903 3.16399 0
M  V30 4863 H 465.601 0.526751 2.95238 0
M  V30 4864 H 463.154 0.311375 1.53167 0
M  V30 4865 H 463.889 -2.01244 2.54306 0
M  V30 4866 H 463.674 -0.799883 3.83854 0
M  V30 4867 H 465.164 -1.78794 3.77389 0
M  V30 4868 N 465.601 -1.54893 0.290851 0
M  V30 4869 C 466.849 -1.99538 -0.320756 0
M  V30 4870 C 467.17 -1.18075 -1.55188 0
M  V30 4871 O 466.44 -0.274162 -1.93972 0
M  V30 4872 H 465.02 -0.737052 -0.121507 0
M  V30 4873 H 467.682 -1.90755 0.399832 0
M  V30 4874 H 466.778 -3.06282 -0.599802 0
M  V30 4875 N 467.08 -0.0183926 -1.57589 0
M  V30 4876 C 468.326 0.663543 -1.91638 0
M  V30 4877 C 468.659 1.72392 -0.894134 0
M  V30 4878 O 467.934 1.94316 0.0846449 0
M  V30 4879 C 468.217 1.28984 -3.36207 0
M  V30 4880 C 468.07 0.239761 -4.49161 0
M  V30 4881 C 469.389 2.2109 -3.80536 0
M  V30 4882 H 466.508 0.239746 -0.696915 0
M  V30 4883 H 469.15 -0.073456 -1.89858 0
M  V30 4884 H 467.3 1.91799 -3.37854 0
M  V30 4885 H 468.972 -0.390119 -4.59647 0
M  V30 4886 H 467.215 -0.435972 -4.31604 0
M  V30 4887 H 467.886 0.717383 -5.47319 0
M  V30 4888 H 470.362 1.68273 -3.80557 0
M  V30 4889 H 469.238 2.61869 -4.82406 0
M  V30 4890 H 469.499 3.09764 -3.15434 0
M  V30 4891 N 468.558 1.5553 0.254621 0
M  V30 4892 C 469.506 1.9048 1.33492 0
M  V30 4893 C 470.5 0.78304 1.50216 0
M  V30 4894 O 471.706 0.967582 1.51782 0
M  V30 4895 H 468.081 0.604846 0.44684 0
M  V30 4896 H 470.052 2.80688 1.01275 0
M  V30 4897 C 468.801 2.20928 2.68489 0
M  V30 4898 H 468.124 3.06742 2.56417 0
M  V30 4899 H 469.564 2.49291 3.42972 0
M  V30 4900 C 468.023 1.023 3.20993 0
M  V30 4901 O 468.553 0.267027 4.00811 0
M  V30 4902 N 466.759 0.815714 2.78917 0
M  V30 4903 H 466.306 1.43217 2.14119 0
M  V30 4904 H 466.264 0.0236532 3.14391 0
M  V30 4905 N 470.036 -0.519951 1.48776 0
M  V30 4906 C 471.264 -1.29971 1.60982 0
M  V30 4907 C 471.679 -1.86803 0.273885 0
M  V30 4908 O 471.036 -1.66904 -0.738193 0
M  V30 4909 C 471.087 -2.44346 2.66415 0
M  V30 4910 O 470.808 -1.89855 3.94825 0
M  V30 4911 C 472.309 -3.36014 2.89153 0
M  V30 4912 H 469.529 -0.394891 0.542496 0
M  V30 4913 H 472.073 -0.626214 1.94676 0
M  V30 4914 H 470.228 -3.07562 2.35552 0
M  V30 4915 H 470.642 -2.64798 4.5275 0
M  V30 4916 H 472.116 -4.12593 3.66703 0
M  V30 4917 H 472.593 -3.91859 1.98351 0
M  V30 4918 H 473.199 -2.78582 3.21359 0
M  V30 4919 N 471.514 -1.37532 -0.769588 0
M  V30 4920 C 472.742 -1.36059 -1.55871 0
M  V30 4921 C 473.157 0.053544 -1.88724 0
M  V30 4922 O 472.514 1.01591 -1.5161 0
M  V30 4923 C 472.565 -2.20107 -2.86767 0
M  V30 4924 O 472.286 -3.56009 -2.55321 0
M  V30 4925 C 473.787 -2.26636 -3.80987 0
M  V30 4926 H 471.007 -0.465967 -0.482821 0
M  V30 4927 H 473.551 -1.80901 -0.953686 0
M  V30 4928 H 471.706 -1.78768 -3.43687 0
M  V30 4929 H 472.12 -4.0009 -3.39158 0
M  V30 4930 H 473.594 -2.89763 -4.69831 0
M  V30 4931 H 474.071 -1.2754 -4.20274 0
M  V30 4932 H 474.677 -2.68296 -3.29996 0
M  V30 4933 N 472.992 0.995999 -1.22138 0
M  V30 4934 C 474.269 1.70834 -0.952642 0
M  V30 4935 C 474.649 2.04257 0.533119 0
M  V30 4936 O 473.997 1.72343 1.50034 0
M  V30 4937 C 474.207 2.96119 -1.84701 0
M  V30 4938 C 475.555 3.68962 -2.10124 0
M  V30 4939 O 476.579 3.0612 -1.82124 0
M  V30 4940 O 475.438 4.82017 -2.57531 0
M  V30 4941 H 472.532 0.745498 -0.357997 0
M  V30 4942 H 475.078 1.05262 -1.33109 0
M  V30 4943 H 473.85 2.67898 -2.85213 0
M  V30 4944 H 473.473 3.6943 -1.46995 0
M  V30 4945 N 474.47 1.03057 1.19235 0
M  V30 4946 C 475.417 0.612832 2.22515 0
M  V30 4947 C 476.387 -0.374224 1.61829 0
M  V30 4948 O 477.572 -0.270501 1.88873 0
M  V30 4949 C 474.712 -0.028475 3.45088 0
M  V30 4950 C 473.825 1.00483 4.20151 0
M  V30 4951 C 472.96 0.333102 5.30155 0
M  V30 4952 C 471.999 1.3522 5.96977 0
M  V30 4953 N 471.136 0.70616 6.9854 0
M  V30 4954 H 475.976 1.49812 2.57605 0
M  V30 4955 H 473.513 0.749658 1.26564 0
M  V30 4956 H 475.471 -0.417548 4.15105 0
M  V30 4957 H 474.101 -0.877334 3.10649 0
M  V30 4958 H 473.153 1.51194 3.49062 0
M  V30 4959 H 474.465 1.77929 4.65986 0
M  V30 4960 H 473.619 -0.110725 6.06599 0
M  V30 4961 H 472.358 -0.473547 4.85396 0
M  V30 4962 H 471.363 1.80627 5.19282 0
M  V30 4963 H 472.588 2.16037 6.4382 0
M  V30 4964 H 470.534 -0.0803667 6.55951 0
M  V30 4965 H 470.451 1.41848 7.42573 0
M  V30 4966 H 471.719 0.286391 7.78974 0
M  V30 4967 N 475.948 -1.35272 0.808662 0
M  V30 4968 C 476.858 -2.33546 0.222079 0
M  V30 4969 C 477.874 -1.6196 -0.636011 0
M  V30 4970 O 479.05 -1.93822 -0.547274 0
M  V30 4971 C 476.115 -3.41148 -0.61795 0
M  V30 4972 C 475.176 -4.28507 0.260875 0
M  V30 4973 C 474.409 -5.3097 -0.539156 0
M  V30 4974 O 474.632 -5.42123 -1.77367 0
M  V30 4975 O 473.566 -6.01858 0.0710526 0
M  V30 4976 H 477.392 -2.85515 1.03512 0
M  V30 4977 H 474.977 -1.38079 0.570495 0
M  V30 4978 H 476.859 -4.06889 -1.09634 0
M  V30 4979 H 475.534 -2.91447 -1.40855 0
M  V30 4980 H 474.441 -3.6574 0.786451 0
M  V30 4981 H 475.774 -4.81611 1.01547 0
M  V30 4982 N 477.426 -0.562348 -1.47226 0
M  V30 4983 C 478.675 -0.038041 -2.01664 0
M  V30 4984 C 478.988 1.32199 -1.44162 0
M  V30 4985 O 480.194 1.9365 -1.90294 0
M  V30 4986 C 478.65 -0.0174958 -3.59896 0
M  V30 4987 C 478.258 -1.3746 -4.2639 0
M  V30 4988 C 480.002 0.453934 -4.22066 0
M  V30 4989 C 477.909 -1.31289 -5.76643 0
M  V30 4990 H 476.839 -0.0104511 -0.753928 0
M  V30 4991 H 479.49 -0.710966 -1.69167 0
M  V30 4992 H 477.872 0.721182 -3.89378 0
M  V30 4993 H 479.046 -2.1314 -4.08544 0
M  V30 4994 H 477.361 -1.78438 -3.7623 0
M  V30 4995 H 479.958 0.518584 -5.32179 0
M  V30 4996 H 480.301 1.46706 -3.89594 0
M  V30 4997 H 480.834 -0.230044 -3.97134 0
M  V30 4998 H 477.573 -2.30217 -6.13743 0
M  V30 4999 H 477.093 -0.597973 -5.96812 0
M  V30 5000 H 478.772 -1.01713 -6.38955 0
M  V30 5001 N 478.904 1.54736 -0.299062 0
M  V30 5002 C 479.814 2.27127 0.587413 0
M  V30 5003 C 480.83 1.30575 1.15005 0
M  V30 5004 O 482.006 1.63554 1.17525 0
M  V30 5005 C 479.071 2.99645 1.74395 0
M  V30 5006 C 478.132 4.11731 1.21559 0
M  V30 5007 C 477.365 4.80781 2.317 0
M  V30 5008 O 477.588 4.4918 3.51558 0
M  V30 5009 O 476.522 5.68226 1.98501 0
M  V30 5010 H 480.348 3.037 0.000250109 0
M  V30 5011 H 477.933 1.49256 -0.0655919 0
M  V30 5012 H 479.815 3.45138 2.4178 0
M  V30 5013 H 478.49 2.25969 2.31775 0
M  V30 5014 H 477.397 3.70641 0.507514 0
M  V30 5015 H 478.73 4.87379 0.687233 0
M  V30 5016 N 480.382 0.0267497 1.57577 0
M  V30 5017 C 481.628 -0.653371 1.91987 0
M  V30 5018 C 481.961 -1.71915 0.903263 0
M  V30 5019 O 481.236 -1.94358 -0.0743387 0
M  V30 5020 C 481.519 -1.272 3.36886 0
M  V30 5021 C 481.372 -0.215938 4.49281 0
M  V30 5022 C 482.691 -2.19069 3.81703 0
M  V30 5023 H 479.81 -0.236047 0.698177 0
M  V30 5024 H 482.452 0.0835236 1.89816 0
M  V30 5025 H 480.602 -1.90005 3.38866 0
M  V30 5026 H 482.274 0.41449 4.59434 0
M  V30 5027 H 480.517 0.458855 4.31366 0
M  V30 5028 H 481.188 -0.688347 5.47691 0
M  V30 5029 H 483.664 -1.66253 3.81444 0
M  V30 5030 H 482.54 -2.59307 4.83788 0
M  V30 5031 H 482.801 -3.08087 3.17072 0
M  V30 5032 N 481.861 -1.55662 -0.24637 0
M  V30 5033 C 482.791 -1.93377 -1.30873 0
M  V30 5034 C 483.772 -0.798773 -1.50179 0
M  V30 5035 O 484.957 -1.0591 -1.62778 0
M  V30 5036 C 482.087 -2.22893 -2.66338 0
M  V30 5037 C 481.041 -3.38649 -2.61727 0
M  V30 5038 C 480.367 -3.53708 -4.00992 0
M  V30 5039 C 481.667 -4.74323 -2.18666 0
M  V30 5040 H 483.361 -2.82363 -0.995552 0
M  V30 5041 H 480.907 -1.35854 -0.477464 0
M  V30 5042 H 482.86 -2.47866 -3.40794 0
M  V30 5043 H 481.584 -1.30733 -2.99293 0
M  V30 5044 H 480.243 -3.13685 -1.89729 0
M  V30 5045 H 479.891 -2.58967 -4.31214 0
M  V30 5046 H 479.591 -4.31551 -3.98795 0
M  V30 5047 H 481.115 -3.81003 -4.77147 0
M  V30 5048 H 482.529 -4.98665 -2.82854 0
M  V30 5049 H 480.926 -5.55273 -2.27579 0
M  V30 5050 H 481.996 -4.71349 -1.13834 0
M  V30 5051 N 483.339 0.512053 -1.4905 0
M  V30 5052 C 484.569 1.28928 -1.61434 0
M  V30 5053 C 484.977 1.87107 -0.280647 0
M  V30 5054 O 484.32 1.68024 0.742537 0
M  V30 5055 C 484.382 2.466 -2.61588 0
M  V30 5056 C 484.046 2.09375 -4.06216 0
M  V30 5057 C 485.043 1.63994 -4.93358 0
M  V30 5058 C 482.728 2.19348 -4.51876 0
M  V30 5059 C 484.722 1.29076 -6.24194 0
M  V30 5060 C 482.409 1.84041 -5.82728 0
M  V30 5061 C 483.407 1.38978 -6.68711 0
M  V30 5062 O 483.095 1.04144 -7.97126 0
M  V30 5063 H 482.827 0.397668 -0.546659 0
M  V30 5064 H 485.381 0.622507 -1.9574 0
M  V30 5065 H 483.611 3.16318 -2.22441 0
M  V30 5066 H 485.3 3.08642 -2.63619 0
M  V30 5067 H 486.066 1.55744 -4.59313 0
M  V30 5068 H 481.945 2.53376 -3.85125 0
M  V30 5069 H 485.489 0.938303 -6.91261 0
M  V30 5070 H 481.386 1.91938 -6.16304 0
M  V30 5071 H 482.154 1.17387 -8.10039 0
M  V30 5072 N 484.817 1.37938 0.762283 0
M  V30 5073 C 486.066 1.32989 1.51647 0
M  V30 5074 C 486.379 -0.0802922 1.95435 0
M  V30 5075 O 487.585 -0.252295 2.70325 0
M  V30 5076 C 486.041 2.33485 2.73885 0
M  V30 5077 C 485.649 3.80079 2.37157 0
M  V30 5078 C 487.393 2.37563 3.51801 0
M  V30 5079 C 485.3 4.72283 3.55954 0
M  V30 5080 H 484.23 0.494301 0.56937 0
M  V30 5081 H 486.881 1.63448 0.834083 0
M  V30 5082 H 485.263 1.96056 3.44061 0
M  V30 5083 H 486.437 4.26398 1.74704 0
M  V30 5084 H 484.752 3.79037 1.72395 0
M  V30 5085 H 487.349 3.0365 4.40114 0
M  V30 5086 H 487.692 1.39199 3.92338 0
M  V30 5087 H 488.225 2.73747 2.8863 0
M  V30 5088 H 484.964 5.7181 3.2049 0
M  V30 5089 H 484.484 4.30663 4.1748 0
M  V30 5090 H 486.163 4.89876 4.22647 0
M  V30 5091 N 486.295 -0.989507 1.22664 0
M  V30 5092 C 487.711 -1.25395 0.987331 0
M  V30 5093 C 487.911 -1.9899 -0.317056 0
M  V30 5094 O 486.967 -2.30141 -1.03882 0
M  V30 5095 C 488.28 -2.06242 2.18826 0
M  V30 5096 C 489.828 -2.19413 2.23219 0
M  V30 5097 C 490.303 -3.03648 3.42873 0
M  V30 5098 N 491.794 -3.11234 3.43056 0
M  V30 5099 C 492.529 -3.7671 4.32293 0
M  V30 5100 N 492.025 -4.44085 5.31752 0
M  V30 5101 N 493.818 -3.73505 4.2006 0
M  V30 5102 H 485.969 -0.496212 2.06522 0
M  V30 5103 H 488.232 -0.281784 0.905153 0
M  V30 5104 H 487.938 -1.59531 3.13437 0
M  V30 5105 H 487.812 -3.06996 2.19165 0
M  V30 5106 H 490.199 -2.65336 1.29154 0
M  V30 5107 H 490.28 -1.18078 2.26917 0
M  V30 5108 H 489.924 -2.58424 4.37241 0
M  V30 5109 H 489.854 -4.05132 3.36416 0
M  V30 5110 H 492.345 -2.63287 2.71088 0
M  V30 5111 H 492.658 -4.91797 5.96117 0
M  V30 5112 H 491.003 -4.42822 5.35662 0
M  V30 5113 H 494.194 -3.20033 3.41609 0
M  V30 5114 H 494.367 -4.24253 4.8981 0
M  V30 5115 N 487.773 -1.03688 -1.18687 0
M  V30 5116 C 488.721 -0.618292 -2.24232 0
M  V30 5117 C 489.715 0.353045 -1.6568 0
M  V30 5118 O 490.921 0.220749 -1.78641 0
M  V30 5119 H 487.296 -0.181711 -0.729716 0
M  V30 5120 H 489.267 -1.51893 -2.56848 0
M  V30 5121 C 488.016 0.00677342 -3.47699 0
M  V30 5122 H 487.339 -0.731692 -3.93047 0
M  V30 5123 H 488.779 0.262492 -4.23187 0
M  V30 5124 C 487.238 1.25572 -3.12623 0
M  V30 5125 O 487.768 2.34691 -3.26011 0
M  V30 5126 N 485.974 1.14755 -2.66982 0
M  V30 5127 H 485.521 0.259601 -2.56289 0
M  V30 5128 H 485.479 1.98412 -2.43885 0
M  V30 5129 N 489.251 1.34841 -0.815825 0
M  V30 5130 C 490.497 1.98793 -0.401129 0
M  V30 5131 C 490.83 1.64548 1.03139 0
M  V30 5132 O 490.105 0.913487 1.71714 0
M  V30 5133 C 490.388 3.55143 -0.595409 0
M  V30 5134 C 490.241 3.99155 -2.07352 0
M  V30 5135 C 491.56 4.40092 -0.0268823 0
M  V30 5136 H 488.679 0.722146 -0.14722 0
M  V30 5137 H 491.321 1.59847 -1.02707 0
M  V30 5138 H 489.471 3.8845 -0.0625779 0
M  V30 5139 H 491.143 3.76216 -2.66945 0
M  V30 5140 H 489.386 3.49726 -2.56659 0
M  V30 5141 H 490.057 5.07971 -2.1603 0
M  V30 5142 H 492.533 4.13298 -0.482042 0
M  V30 5143 H 491.409 5.48562 -0.19267 0
M  V30 5144 H 491.67 4.29016 1.06759 0
M  V30 5145 N 490.729 0.570148 1.46925 0
M  V30 5146 C 491.957 0.0561966 2.06824 0
M  V30 5147 C 492.372 -1.24326 1.42086 0
M  V30 5148 O 491.729 -1.74882 0.521794 0
M  V30 5149 C 491.78 -0.129517 3.61268 0
M  V30 5150 O 491.501 1.1185 4.23581 0
M  V30 5151 C 493.002 -0.679266 4.38065 0
M  V30 5152 H 490.222 0.0517261 0.669003 0
M  V30 5153 H 492.766 0.787243 1.8874 0
M  V30 5154 H 490.921 -0.810739 3.78822 0
M  V30 5155 H 491.335 0.924375 5.1629 0
M  V30 5156 H 492.809 -0.758445 5.46765 0
M  V30 5157 H 493.286 -1.69346 4.05239 0
M  V30 5158 H 493.892 -0.0333237 4.25287 0
M  V30 5159 N 492.207 -1.54576 0.307264 0
M  V30 5160 C 493.454 -2.00263 -0.300167 0
M  V30 5161 C 493.782 -1.19561 -1.53413 0
M  V30 5162 O 493.037 -0.261487 -1.93945 0
M  V30 5163 C 493.336 -3.50572 -0.695253 0
M  V30 5164 C 493.002 -4.48771 0.437679 0
M  V30 5165 C 491.664 -4.7534 0.748681 0
M  V30 5166 C 494.016 -5.0721 1.19949 0
M  V30 5167 C 491.344 -5.5761 1.8245 0
M  V30 5168 C 493.696 -5.90651 2.26527 0
M  V30 5169 C 492.36 -6.15528 2.58227 0
M  V30 5170 H 491.63 -0.732814 -0.109839 0
M  V30 5171 H 494.277 -1.86664 0.427661 0
M  V30 5172 H 492.582 -3.61814 -1.50326 0
M  V30 5173 H 494.279 -3.83352 -1.17653 0
M  V30 5174 H 490.869 -4.282 0.185187 0
M  V30 5175 H 495.053 -4.86679 0.972474 0
M  V30 5176 H 490.309 -5.75121 2.07476 0
M  V30 5177 H 494.483 -6.34957 2.86011 0
M  V30 5178 H 492.11 -6.79066 3.4172 0
M  V30 5179 N 493.685 -0.035106 -1.57561 0
M  V30 5180 C 494.595 0.960295 -2.14046 0
M  V30 5181 C 495.611 1.3529 -1.0942 0
M  V30 5182 O 496.787 1.43309 -1.41508 0
M  V30 5183 C 493.852 2.22214 -2.66124 0
M  V30 5184 C 492.913 1.8894 -3.85487 0
M  V30 5185 C 492.146 3.09109 -4.35072 0
M  V30 5186 O 492.369 4.21963 -3.83802 0
M  V30 5187 O 491.303 2.91058 -5.26848 0
M  V30 5188 H 495.129 0.509983 -2.99387 0
M  V30 5189 H 492.714 0.185853 -1.48239 0
M  V30 5190 H 494.596 2.96279 -2.99661 0
M  V30 5191 H 493.271 2.66414 -1.83862 0
M  V30 5192 H 492.178 1.12241 -3.56865 0
M  V30 5193 H 493.511 1.49551 -4.6893 0
M  V30 5194 N 495.163 1.55791 0.238111 0
M  V30 5195 C 496.44 1.68798 0.98826 0
M  V30 5196 C 496.82 0.577562 2.03045 0
M  V30 5197 O 496.168 -0.41778 2.24648 0
M  V30 5198 C 496.378 3.09454 1.61367 0
M  V30 5199 C 497.726 3.68335 2.11221 0
M  V30 5200 O 498.75 3.1231 1.71292 0
M  V30 5201 O 497.609 4.6657 2.84561 0
M  V30 5202 H 494.703 0.686881 0.460568 0
M  V30 5203 H 497.249 1.68118 0.231202 0
M  V30 5204 H 496.021 3.81726 0.860295 0
M  V30 5205 H 495.644 3.14182 2.4367 0
M  V30 5206 N 496.642 -0.504142 1.49319 0
M  V30 5207 C 497.605 -1.5883 1.65244 0
M  V30 5208 C 498.605 -1.52009 0.524386 0
M  V30 5209 O 499.795 -1.55218 0.79077 0
M  V30 5210 C 496.927 -2.98481 1.64687 0
M  V30 5211 H 498.12 -1.4604 2.61939 0
M  V30 5212 H 495.673 -0.728144 1.38303 0
M  V30 5213 H 496.408 -3.16751 0.695644 0
M  V30 5214 H 496.193 -3.0484 2.46607 0
M  V30 5215 H 497.683 -3.77256 1.79075 0
M  V30 5216 N 498.12 -1.38341 -0.754957 0
M  V30 5217 C 499.368 -1.34208 -1.51105 0
M  V30 5218 C 499.689 0.0677634 -1.94882 0
M  V30 5219 O 498.959 1.01517 -1.67544 0
M  V30 5220 H 497.539 -0.493819 -0.560493 0
M  V30 5221 H 500.201 -1.73005 -0.897507 0
M  V30 5222 H 499.297 -1.99203 -2.4026 0
M  V30 5223 N 499.598 0.982988 -1.23187 0
M  V30 5224 C 500.508 2.10907 -1.02739 0
M  V30 5225 C 501.524 1.73979 0.0273188 0
M  V30 5226 O 502.7 2.00702 -0.16757 0
M  V30 5227 C 499.765 3.41142 -0.618304 0
M  V30 5228 C 498.826 3.92112 -1.74777 0
M  V30 5229 C 498.059 5.16131 -1.3581 0
M  V30 5230 O 498.282 5.6989 -0.241201 0
M  V30 5231 O 497.216 5.61103 -2.17824 0
M  V30 5232 H 501.042 2.31046 -1.97108 0
M  V30 5233 H 498.627 1.09284 -1.01869 0
M  V30 5234 H 500.509 4.19488 -0.400982 0
M  V30 5235 H 499.184 3.2234 0.296421 0
M  V30 5236 H 498.091 3.14895 -2.0197 0
M  V30 5237 H 499.424 4.15364 -2.64071 0
M  V30 5238 N 501.076 1.04316 1.18135 0
M  V30 5239 C 502.306 0.767003 1.91835 0
M  V30 5240 C 502.714 -0.68002 1.76557 0
M  V30 5241 O 502.057 -1.47548 1.09432 0
M  V30 5242 C 502.119 1.05674 3.43618 0
M  V30 5243 C 501.783 2.49818 3.82675 0
M  V30 5244 C 502.78 3.48003 3.86251 0
M  V30 5245 C 500.465 2.84596 4.13897 0
M  V30 5246 C 502.459 4.79016 4.20503 0
M  V30 5247 C 500.146 4.15813 4.4782 0
M  V30 5248 C 501.144 5.12834 4.51099 0
M  V30 5249 O 500.832 6.41699 4.84229 0
M  V30 5250 H 500.564 0.278948 0.615763 0
M  V30 5251 H 503.118 1.3946 1.50798 0
M  V30 5252 H 501.348 0.372029 3.84906 0
M  V30 5253 H 503.037 0.767994 3.98568 0
M  V30 5254 H 503.803 3.22475 3.62264 0
M  V30 5255 H 499.682 2.09748 4.1052 0
M  V30 5256 H 503.226 5.54739 4.22978 0
M  V30 5257 H 499.123 4.41109 4.71268 0
M  V30 5258 H 499.891 6.46387 5.02121 0
M  V30 5259 N 502.554 -1.34406 0.822964 0
M  V30 5260 C 503.782 -2.02508 0.424039 0
M  V30 5261 C 504.197 -1.61975 -0.970022 0
M  V30 5262 O 503.554 -0.825228 -1.62777 0
M  V30 5263 C 503.605 -3.57789 0.516657 0
M  V30 5264 O 503.326 -3.96853 1.85577 0
M  V30 5265 C 504.827 -4.43157 0.112637 0
M  V30 5266 H 502.047 -0.649063 0.170173 0
M  V30 5267 H 504.591 -1.7168 1.11113 0
M  V30 5268 H 502.746 -3.87207 -0.122353 0
M  V30 5269 H 503.16 -4.91538 1.83005 0
M  V30 5270 H 504.634 -5.51527 0.228526 0
M  V30 5271 H 505.111 -4.28939 -0.943837 0
M  V30 5272 H 505.717 -4.19067 0.725449 0
M  V30 5273 N 504.032 -0.577932 -1.46621 0
M  V30 5274 C 505.272 -0.0643097 -2.04299 0
M  V30 5275 C 505.636 1.26967 -1.44026 0
M  V30 5276 O 506.837 1.87224 -1.92875 0
M  V30 5277 C 505.108 0.00547588 -3.574 0
M  V30 5278 S 506.667 0.462216 -4.36359 0
M  V30 5279 H 503.485 -0.0351573 -0.71013 0
M  V30 5280 H 506.087 -0.76935 -1.79725 0
M  V30 5281 H 504.791 -0.969423 -3.98786 0
M  V30 5282 H 504.322 0.733435 -3.86503 0
M  V30 5283 H 506.337 1.71791 -4.65513 0
M  V30 5284 N 505.51 1.54411 -0.315457 0
M  V30 5285 C 506.44 2.27002 0.547039 0
M  V30 5286 C 507.421 1.27492 1.12605 0
M  V30 5287 O 508.606 1.5629 1.15269 0
M  V30 5288 C 505.736 3.02171 1.71201 0
M  V30 5289 C 504.69 4.0895 1.26268 0
M  V30 5290 C 504.016 4.71915 2.51396 0
M  V30 5291 C 505.316 5.20891 0.383419 0
M  V30 5292 H 507.01 2.99343 -0.0584517 0
M  V30 5293 H 504.556 1.4397 -0.0295527 0
M  V30 5294 H 506.509 3.51681 2.32161 0
M  V30 5295 H 505.233 2.27433 2.34397 0
M  V30 5296 H 503.892 3.60312 0.676062 0
M  V30 5297 H 503.54 3.93801 3.12937 0
M  V30 5298 H 503.24 5.44039 2.22026 0
M  V30 5299 H 504.764 5.24195 3.13133 0
M  V30 5300 H 506.178 5.66206 0.899082 0
M  V30 5301 H 504.575 5.99821 0.182857 0
M  V30 5302 H 505.645 4.81324 -0.587821 0
M  V30 5303 N 506.988 0.0434614 1.5754 0
M  V30 5304 C 507.951 -0.918696 2.09982 0
M  V30 5305 C 508.951 -1.24488 1.01781 0
M  V30 5306 O 510.141 -1.18284 1.27885 0
M  V30 5307 C 507.273 -2.23093 2.57764 0
M  V30 5308 H 508.466 -0.464229 2.96285 0
M  V30 5309 H 506.019 -0.204818 1.54952 0
M  V30 5310 H 506.754 -2.73137 1.74832 0
M  V30 5311 H 506.539 -2.00724 3.36827 0
M  V30 5312 H 508.029 -2.92028 2.98512 0
M  V30 5313 N 508.466 -1.55915 -0.229846 0
M  V30 5314 C 509.714 -1.7819 -0.953565 0
M  V30 5315 C 510.035 -0.610504 -1.85197 0
M  V30 5316 O 509.305 0.372988 -1.92316 0
M  V30 5317 H 507.885 -0.657208 -0.355087 0
M  V30 5318 H 510.547 -1.9337 -0.243693 0
M  V30 5319 H 509.643 -2.70011 -1.56527 0
M  V30 5320 N 509.944 0.496216 -1.49584 0
M  V30 5321 C 510.892 1.61805 -1.67098 0
M  V30 5322 C 511.886 1.60667 -0.536877 0
M  V30 5323 O 513.092 1.65118 -0.716654 0
M  V30 5324 H 509.467 0.53646 -0.526986 0
M  V30 5325 H 511.438 1.44187 -2.61252 0
M  V30 5326 C 510.187 2.99912 -1.75921 0
M  V30 5327 H 509.51 3.01496 -2.62565 0
M  V30 5328 H 510.95 3.77931 -1.92209 0
M  V30 5329 C 509.409 3.33092 -0.505088 0
M  V30 5330 O 509.939 4.00019 0.367085 0
M  V30 5331 N 508.145 2.88278 -0.366599 0
M  V30 5332 H 507.692 2.33989 -1.07735 0
M  V30 5333 H 507.65 3.10846 0.47142 0
M  V30 5334 N 511.423 1.38739 0.74761 0
M  V30 5335 C 512.648 1.38702 1.54197 0
M  V30 5336 C 513.073 -0.019664 1.8809 0
M  V30 5337 O 512.431 -1.00333 1.51006 0
M  V30 5338 C 512.479 2.25492 2.814 0
M  V30 5339 O 511.583 1.67613 3.76802 0
M  V30 5340 H 510.924 0.472863 0.466151 0
M  V30 5341 H 513.454 1.82577 0.923413 0
M  V30 5342 H 513.464 2.39561 3.30264 0
M  V30 5343 H 512.139 3.27727 2.56062 0
M  V30 5344 H 510.716 1.62718 3.35526 0
M  V30 5345 N 512.901 -0.976442 1.23707 0
M  V30 5346 C 514.15 -1.71254 1.06559 0
M  V30 5347 C 514.463 -1.91528 -0.397024 0
M  V30 5348 O 515.669 -2.62625 -0.688518 0
M  V30 5349 C 514.125 -3.08207 1.8584 0
M  V30 5350 C 513.733 -2.95806 3.36456 0
M  V30 5351 C 515.477 -3.85749 1.77194 0
M  V30 5352 C 513.384 -4.28015 4.08114 0
M  V30 5353 H 512.314 -0.642171 0.395136 0
M  V30 5354 H 514.965 -1.08877 1.4771 0
M  V30 5355 H 513.347 -3.71363 1.37498 0
M  V30 5356 H 514.521 -2.41716 3.92314 0
M  V30 5357 H 512.836 -2.31736 3.45959 0
M  V30 5358 H 515.433 -4.83633 2.28041 0
M  V30 5359 H 515.776 -4.09752 0.735477 0
M  V30 5360 H 516.309 -3.29303 2.23169 0
M  V30 5361 H 513.048 -4.09208 5.12083 0
M  V30 5362 H 512.568 -4.81955 3.57043 0
M  V30 5363 H 514.247 -4.96681 4.14629 0
M  V30 5364 N 514.379 -1.04941 -1.1758 0
M  V30 5365 C 515.627 -0.756492 -1.87408 0
M  V30 5366 C 515.948 0.718478 -1.81281 0
M  V30 5367 O 515.218 1.519 -1.23706 0
M  V30 5368 H 513.798 -0.276841 -0.693807 0
M  V30 5369 H 516.46 -1.32803 -1.42652 0
M  V30 5370 H 515.556 -1.06918 -2.93215 0
M  V30 5371 N 515.857 1.33968 -0.830081 0
M  V30 5372 C 517.106 1.97323 -0.417928 0
M  V30 5373 C 517.419 1.6652 1.02618 0
M  V30 5374 O 518.625 2.2342 1.54259 0
M  V30 5375 C 517.081 3.53099 -0.696359 0
M  V30 5376 C 516.689 3.92788 -2.15457 0
M  V30 5377 C 518.433 4.23049 -0.350724 0
M  V30 5378 C 516.34 5.41506 -2.37751 0
M  V30 5379 H 515.27 0.738409 -0.152541 0
M  V30 5380 H 517.921 1.52711 -1.01744 0
M  V30 5381 H 516.303 3.95991 -0.0265904 0
M  V30 5382 H 517.477 3.6098 -2.86408 0
M  V30 5383 H 515.792 3.35795 -2.46232 0
M  V30 5384 H 518.389 5.32403 -0.495036 0
M  V30 5385 H 518.732 4.10279 0.705476 0
M  V30 5386 H 519.265 3.85657 -0.975362 0
M  V30 5387 H 516.004 5.5927 -3.41903 0
M  V30 5388 H 515.524 5.74804 -1.7135 0
M  V30 5389 H 517.203 6.0828 -2.20465 0
M  V30 5390 N 517.335 0.585699 1.46312 0
M  V30 5391 C 518.56 0.0762461 2.0726 0
M  V30 5392 C 518.985 -1.22071 1.43109 0
M  V30 5393 O 518.343 -1.73804 0.515942 0
M  V30 5394 C 518.391 -0.0729404 3.60526 0
M  V30 5395 O 517.495 -1.1287 3.96654 0
M  V30 5396 H 516.836 0.0641558 0.660893 0
M  V30 5397 H 519.366 0.809492 1.87905 0
M  V30 5398 H 519.376 -0.278158 4.07051 0
M  V30 5399 H 518.051 0.874188 4.06609 0
M  V30 5400 H 516.628 -0.901703 3.61834 0
M  V30 5401 N 518.813 -1.54241 0.323641 0
M  V30 5402 C 520.06 -2.0057 -0.27891 0
M  V30 5403 C 520.388 -1.21181 -1.52136 0
M  V30 5404 O 519.643 -0.282043 -1.93657 0
M  V30 5405 C 519.942 -3.5129 -0.658031 0
M  V30 5406 C 519.608 -4.48281 0.485252 0
M  V30 5407 C 518.27 -4.74519 0.799055 0
M  V30 5408 C 520.622 -5.05909 1.25322 0
M  V30 5409 C 517.95 -5.55643 1.88354 0
M  V30 5410 C 520.302 -5.88215 2.32779 0
M  V30 5411 C 518.966 -6.12755 2.64741 0
M  V30 5412 H 518.236 -0.733938 -0.10206 0
M  V30 5413 H 520.883 -1.862 0.447435 0
M  V30 5414 H 519.188 -3.63388 -1.4648 0
M  V30 5415 H 520.885 -3.84578 -1.1358 0
M  V30 5416 H 517.475 -4.27979 0.230593 0
M  V30 5417 H 521.659 -4.8562 1.02404 0
M  V30 5418 H 516.915 -5.72888 2.13564 0
M  V30 5419 H 521.089 -6.31888 2.92729 0
M  V30 5420 H 518.716 -6.75404 3.48904 0
M  V30 5421 N 520.291 -0.0518155 -1.57515 0
M  V30 5422 C 521.241 0.932017 -2.0808 0
M  V30 5423 C 522.225 1.27141 -0.986098 0
M  V30 5424 O 523.417 1.25373 -1.24943 0
M  V30 5425 C 520.546 2.20665 -2.62986 0
M  V30 5426 C 519.632 1.89462 -3.79427 0
M  V30 5427 N 520.023 1.28621 -4.89173 0
M  V30 5428 C 518.321 2.19327 -3.88345 0
M  V30 5429 C 519.022 1.15062 -5.70207 0
M  V30 5430 N 517.998 1.65372 -5.17835 0
M  V30 5431 H 521.8 0.456964 -2.90326 0
M  V30 5432 H 519.314 0.152619 -1.61681 0
M  V30 5433 H 521.311 2.92044 -2.97516 0
M  V30 5434 H 519.971 2.68776 -1.8218 0
M  V30 5435 H 520.982 0.958341 -5.08956 0
M  V30 5436 H 517.659 2.69955 -3.18482 0
M  V30 5437 H 519.049 0.678243 -6.68468 0
M  V30 5438 N 521.769 1.56035 0.221574 0
M  V30 5439 C 522.994 1.83476 0.967026 0
M  V30 5440 C 523.419 0.632139 1.7716 0
M  V30 5441 O 522.777 -0.419082 1.7639 0
M  V30 5442 C 522.825 3.08907 1.86034 0
M  V30 5443 O 521.929 2.876 2.95567 0
M  V30 5444 H 521.27 0.604913 0.273817 0
M  V30 5445 H 523.8 2.03247 0.234893 0
M  V30 5446 H 523.81 3.3901 2.27016 0
M  V30 5447 H 522.485 3.96068 1.26898 0
M  V30 5448 H 521.062 2.6873 2.58532 0
M  V30 5449 N 523.247 -0.488276 1.49845 0
M  V30 5450 C 524.21 -1.57069 1.66919 0
M  V30 5451 C 525.21 -1.51445 0.540479 0
M  V30 5452 O 526.4 -1.5437 0.807188 0
M  V30 5453 C 523.532 -2.96718 1.67844 0
M  V30 5454 H 524.725 -1.43254 2.63474 0
M  V30 5455 H 522.278 -0.713435 1.39068 0
M  V30 5456 H 523.013 -3.15996 0.7292 0
M  V30 5457 H 522.798 -3.02208 2.49826 0
M  V30 5458 H 524.288 -3.75335 1.83066 0
M  V30 5459 N 524.725 -1.39134 -0.740242 0
M  V30 5460 C 525.971 -1.37278 -1.50088 0
M  V30 5461 C 526.326 0.0329967 -1.92372 0
M  V30 5462 O 525.619 0.998447 -1.63529 0
M  V30 5463 C 525.813 -2.27457 -2.75678 0
M  V30 5464 C 525.642 -3.76662 -2.45674 0
M  V30 5465 C 524.412 -4.45617 -2.38229 0
M  V30 5466 C 526.61 -4.6877 -2.11563 0
M  V30 5467 N 524.592 -5.80187 -2.00641 0
M  V30 5468 C 525.963 -5.91951 -1.84376 0
M  V30 5469 C 528.018 -4.56843 -1.97987 0
M  V30 5470 C 526.721 -7.04538 -1.4498 0
M  V30 5471 C 528.747 -5.69347 -1.59994 0
M  V30 5472 C 528.109 -6.91597 -1.33687 0
M  V30 5473 H 524.208 -0.557611 -0.548265 0
M  V30 5474 H 526.792 -1.74638 -0.860784 0
M  V30 5475 H 524.963 -1.92263 -3.37475 0
M  V30 5476 H 526.695 -2.16631 -3.41838 0
M  V30 5477 H 523.45 -3.98993 -2.5515 0
M  V30 5478 H 523.874 -6.51387 -1.84454 0
M  V30 5479 H 528.516 -3.62868 -2.16995 0
M  V30 5480 H 526.234 -7.98419 -1.24712 0
M  V30 5481 H 529.82 -5.62104 -1.50102 0
M  V30 5482 H 528.7 -7.77176 -1.04728 0
M  V30 5483 N 526.204 0.969867 -1.24223 0
M  V30 5484 C 527.134 2.08191 -1.05729 0
M  V30 5485 C 528.115 1.70075 0.0290765 0
M  V30 5486 O 529.3 1.93712 -0.137583 0
M  V30 5487 C 526.43 3.40991 -0.658995 0
M  V30 5488 C 525.384 3.93054 -1.69389 0
M  V30 5489 C 524.71 5.22171 -1.15072 0
M  V30 5490 C 526.01 4.21137 -3.08935 0
M  V30 5491 H 527.704 2.23921 -1.98746 0
M  V30 5492 H 525.25 1.07602 -0.956967 0
M  V30 5493 H 527.203 4.18221 -0.51662 0
M  V30 5494 H 525.927 3.25155 0.30686 0
M  V30 5495 H 524.586 3.17977 -1.82444 0
M  V30 5496 H 524.234 5.02694 -0.175539 0
M  V30 5497 H 523.934 5.57973 -1.84229 0
M  V30 5498 H 525.458 6.02013 -1.02042 0
M  V30 5499 H 526.872 4.8908 -2.99121 0
M  V30 5500 H 525.269 4.68163 -3.75425 0
M  V30 5501 H 526.339 3.27996 -3.57137 0
M  V30 5502 N 527.682 1.05563 1.17022 0
M  V30 5503 C 528.91 0.78845 1.91288 0
M  V30 5504 C 529.325 -0.656318 1.77025 0
M  V30 5505 O 528.682 -1.44869 1.10992 0
M  V30 5506 C 528.733 1.16444 3.42232 0
M  V30 5507 O 528.454 2.5525 3.5606 0
M  V30 5508 C 529.955 0.923937 4.33565 0
M  V30 5509 H 527.175 0.286389 0.606813 0
M  V30 5510 H 529.719 1.4073 1.48375 0
M  V30 5511 H 527.874 0.590266 3.82877 0
M  V30 5512 H 528.288 2.70097 4.49609 0
M  V30 5513 H 529.762 1.23672 5.37968 0
M  V30 5514 H 530.239 -0.140688 4.38975 0
M  V30 5515 H 530.845 1.48214 3.98639 0
M  V30 5516 N 529.16 -1.33526 0.837174 0
M  V30 5517 C 530.406 -1.9813 0.432704 0
M  V30 5518 C 530.739 -1.66168 -1.00508 0
M  V30 5519 O 530.014 -0.94069 -1.70239 0
M  V30 5520 C 530.297 -3.54151 0.651834 0
M  V30 5521 C 530.15 -3.95806 2.13676 0
M  V30 5522 C 531.469 -4.39993 0.0968937 0
M  V30 5523 H 528.588 -0.719713 0.15869 0
M  V30 5524 H 531.23 -1.58193 1.05237 0
M  V30 5525 H 529.38 -3.88301 0.124369 0
M  V30 5526 H 531.052 -3.71921 2.72896 0
M  V30 5527 H 529.295 -3.45599 2.62191 0
M  V30 5528 H 529.966 -5.0447 2.24084 0
M  V30 5529 H 532.442 -4.12479 0.547733 0
M  V30 5530 H 531.318 -5.48186 0.279917 0
M  V30 5531 H 531.579 -4.3066 -0.9992 0
M  V30 5532 N 530.638 -0.59345 -1.46 0
M  V30 5533 C 531.568 0.121192 -2.33185 0
M  V30 5534 C 532.549 0.872977 -1.4599 0
M  V30 5535 O 533.734 0.846321 -1.74789 0
M  V30 5536 C 530.864 1.12844 -3.28456 0
M  V30 5537 C 529.818 0.4908 -4.25177 0
M  V30 5538 C 529.144 1.60529 -5.10034 0
M  V30 5539 C 530.444 -0.578949 -5.19081 0
M  V30 5540 H 532.138 -0.606767 -2.93187 0
M  V30 5541 H 529.684 -0.293242 -1.40983 0
M  V30 5542 H 531.637 1.63684 -3.88311 0
M  V30 5543 H 530.361 1.88681 -2.66584 0
M  V30 5544 H 529.02 0.00339328 -3.666 0
M  V30 5545 H 528.668 2.35359 -4.44539 0
M  V30 5546 H 528.368 1.18422 -5.75543 0
M  V30 5547 H 529.892 2.11623 -5.72755 0
M  V30 5548 H 531.306 -0.155199 -5.7309 0
M  V30 5549 H 529.703 -0.920947 -5.92991 0
M  V30 5550 H 530.773 -1.46109 -4.62364 0
M  V30 5551 N 532.116 1.54067 -0.331816 0
M  V30 5552 C 533.527 1.86059 0.15454 0
M  V30 5553 C 533.878 1.25331 1.50952 0
M  V30 5554 O 533.003 0.562441 2.08963 0
M  V30 5555 C 533.598 3.37581 0.287192 0
M  V30 5556 C 532.157 3.69493 0.717773 0
M  V30 5557 C 531.304 2.76863 -0.155569 0
M  V30 5558 H 534.255 1.48797 -0.55182 0
M  V30 5559 H 534.276 3.63744 1.11671 0
M  V30 5560 H 533.788 3.81751 -0.699131 0
M  V30 5561 H 531.889 3.3086 1.71354 0
M  V30 5562 H 532.002 4.76315 0.5158 0
M  V30 5563 H 530.366 2.51995 0.370213 0
M  V30 5564 H 531.149 3.23861 -1.13881 0
M  V30 5565 N 533.594 0.0601682 1.57485 0
M  V30 5566 C 534.557 -0.896373 2.10945 0
M  V30 5567 C 535.557 -1.23402 1.03095 0
M  V30 5568 O 536.747 -1.16921 1.29132 0
M  V30 5569 C 533.879 -2.20346 2.60116 0
M  V30 5570 H 535.072 -0.432778 2.96761 0
M  V30 5571 H 532.625 -0.188372 1.55161 0
M  V30 5572 H 533.36 -2.71268 1.7772 0
M  V30 5573 H 533.145 -1.9714 3.38937 0
M  V30 5574 H 534.635 -2.88846 3.01592 0
M  V30 5575 N 535.072 -1.5615 -0.213296 0
M  V30 5576 C 536.483 -1.69645 -0.779582 0
M  V30 5577 C 536.834 -0.663615 -1.84636 0
M  V30 5578 O 535.959 0.183633 -2.15619 0
M  V30 5579 C 536.554 -3.07567 -1.42084 0
M  V30 5580 C 535.113 -3.22889 -1.93442 0
M  V30 5581 C 534.26 -2.65581 -0.797612 0
M  V30 5582 H 537.211 -1.58696 0.0114951 0
M  V30 5583 H 537.232 -3.03884 -2.28986 0
M  V30 5584 H 536.744 -3.82716 -0.644187 0
M  V30 5585 H 534.845 -2.52623 -2.73884 0
M  V30 5586 H 534.958 -4.30197 -2.10872 0
M  V30 5587 H 533.322 -2.24278 -1.20712 0
M  V30 5588 H 534.105 -3.43284 -0.033494 0
M  V30 5589 N 536.55 0.480323 -1.50102 0
M  V30 5590 C 537.798 1.23063 -1.60312 0
M  V30 5591 C 538.119 1.92659 -0.301226 0
M  V30 5592 O 537.389 1.83691 0.680753 0
M  V30 5593 H 535.969 0.457231 -0.590719 0
M  V30 5594 H 538.631 0.554893 -1.86834 0
M  V30 5595 H 537.727 1.9835 -2.40964 0
M  V30 5596 N 538.028 1.39524 0.732853 0
M  V30 5597 C 539.444 1.21176 1.03868 0
M  V30 5598 C 539.644 0.0748448 2.01361 0
M  V30 5599 O 538.7 -0.57281 2.45917 0
M  V30 5600 C 540.013 2.54667 1.59892 0
M  V30 5601 C 541.561 2.6153 1.71962 0
M  V30 5602 C 542.036 3.95248 2.31394 0
M  V30 5603 N 543.527 3.96899 2.38801 0
M  V30 5604 C 544.262 4.97138 2.85729 0
M  V30 5605 N 543.758 6.07775 3.32537 0
M  V30 5606 N 545.551 4.84516 2.84957 0
M  V30 5607 H 537.702 2.12225 0.086304 0
M  V30 5608 H 539.965 0.942614 0.100907 0
M  V30 5609 H 539.671 3.38423 0.95721 0
M  V30 5610 H 539.545 2.74538 2.58668 0
M  V30 5611 H 541.932 1.78156 2.35254 0
M  V30 5612 H 542.013 2.45507 0.718327 0
M  V30 5613 H 541.657 4.79054 1.68729 0
M  V30 5614 H 541.587 4.08593 3.32204 0
M  V30 5615 H 544.078 3.16998 2.05719 0
M  V30 5616 H 544.391 6.8017 3.66862 0
M  V30 5617 H 542.736 6.11366 3.30541 0
M  V30 5618 H 545.927 3.97185 2.47713 0
M  V30 5619 H 546.1 5.62783 3.21215 0
M  V30 5620 N 539.506 -0.963266 1.24736 0
M  V30 5621 C 540.416 -2.09246 1.06082 0
M  V30 5622 C 541.432 -1.74 0.000363101 0
M  V30 5623 O 542.608 -2.0041 0.199479 0
M  V30 5624 C 539.673 -3.40115 0.672498 0
M  V30 5625 C 538.734 -3.89282 1.80993 0
M  V30 5626 C 537.967 -5.13905 1.44004 0
M  V30 5627 O 538.19 -5.69434 0.331835 0
M  V30 5628 O 537.124 -5.57566 2.26723 0
M  V30 5629 H 540.95 -2.27881 2.00759 0
M  V30 5630 H 538.535 -1.07649 1.03595 0
M  V30 5631 H 540.417 -4.18797 0.467668 0
M  V30 5632 H 539.092 -3.22771 -0.245102 0
M  V30 5633 H 537.999 -3.11642 2.06955 0
M  V30 5634 H 539.332 -4.1111 2.70646 0
M  V30 5635 N 540.985 -1.06182 -1.16461 0
M  V30 5636 C 541.932 -0.671613 -2.20812 0
M  V30 5637 C 542.902 0.331186 -1.62765 0
M  V30 5638 O 544.087 0.22033 -1.89524 0
M  V30 5639 C 541.227 -0.063029 -3.45042 0
M  V30 5640 C 540.34 -1.11587 -4.1734 0
M  V30 5641 C 539.475 -0.473546 -5.29085 0
M  V30 5642 C 538.514 -1.51 -5.93182 0
M  V30 5643 N 537.651 -0.891118 -6.96422 0
M  V30 5644 H 542.491 -1.56589 -2.53542 0
M  V30 5645 H 540.028 -0.782951 -1.24532 0
M  V30 5646 H 541.986 0.307344 -4.16066 0
M  V30 5647 H 540.616 0.794663 -3.12866 0
M  V30 5648 H 539.668 -1.60396 -3.44931 0
M  V30 5649 H 540.98 -1.90221 -4.61104 0
M  V30 5650 H 540.134 -0.0501432 -6.06679 0
M  V30 5651 H 538.873 0.344687 -4.8648 0
M  V30 5652 H 537.878 -1.94331 -5.14311 0
M  V30 5653 H 539.103 -2.33031 -6.37866 0
M  V30 5654 H 537.049 -0.0935753 -6.55933 0
M  V30 5655 H 536.966 -1.61486 -7.38551 0
M  V30 5656 H 538.234 -0.492822 -7.77941 0
M  V30 5657 N 542.463 1.3308 -0.844243 0
M  V30 5658 C 543.373 2.32876 -0.283922 0
M  V30 5659 C 544.389 1.63589 0.592846 0
M  V30 5660 O 545.565 1.95205 0.495693 0
M  V30 5661 C 542.63 3.42667 0.527283 0
M  V30 5662 C 541.691 4.27664 -0.374394 0
M  V30 5663 C 540.924 5.32212 0.39819 0
M  V30 5664 O 541.147 5.46635 1.62932 0
M  V30 5665 O 540.081 6.01458 -0.2306 0
M  V30 5666 H 543.907 2.82671 -1.11045 0
M  V30 5667 H 541.492 1.36518 -0.606903 0
M  V30 5668 H 543.374 4.09652 0.988078 0
M  V30 5669 H 542.049 2.95079 1.33078 0
M  V30 5670 H 540.956 3.63526 -0.883144 0
M  V30 5671 H 542.289 4.78749 -1.1428 0
M  V30 5672 N 543.941 0.601185 1.45683 0
M  V30 5673 C 545.19 0.0914953 2.01492 0
M  V30 5674 C 545.503 -1.28331 1.47616 0
M  V30 5675 O 546.709 -1.88537 1.95362 0
M  V30 5676 C 545.165 0.11291 3.59723 0
M  V30 5677 C 544.773 1.48717 4.22596 0
M  V30 5678 C 546.517 -0.341871 4.23121 0
M  V30 5679 C 544.424 1.46531 5.7296 0
M  V30 5680 H 543.354 0.0304365 0.753385 0
M  V30 5681 H 546.005 0.755568 1.67223 0
M  V30 5682 H 544.387 -0.617692 3.91153 0
M  V30 5683 H 545.561 2.23897 4.02749 0
M  V30 5684 H 543.876 1.88351 3.71366 0
M  V30 5685 H 546.473 -0.377304 5.33367 0
M  V30 5686 H 546.816 -1.36325 3.93346 0
M  V30 5687 H 547.349 0.335256 3.96385 0
M  V30 5688 H 544.088 2.46408 6.07423 0
M  V30 5689 H 543.608 0.755997 5.95017 0
M  V30 5690 H 545.287 1.18618 6.36034 0
M  V30 5691 N 545.419 -1.53889 0.339982 0
M  V30 5692 C 546.647 -2.05271 -0.259114 0
M  V30 5693 C 547.062 -1.21517 -1.44496 0
M  V30 5694 O 546.419 -0.24966 -1.80784 0
M  V30 5695 C 546.47 -3.55092 -0.677634 0
M  V30 5696 O 546.191 -4.35667 0.461051 0
M  V30 5697 C 547.692 -4.22631 -1.33782 0
M  V30 5698 H 544.912 -0.669085 -0.0506566 0
M  V30 5699 H 547.456 -1.9852 0.490935 0
M  V30 5700 H 545.611 -3.62077 -1.37763 0
M  V30 5701 H 546.025 -5.24343 0.128144 0
M  V30 5702 H 547.499 -5.28861 -1.58145 0
M  V30 5703 H 547.976 -3.74758 -2.29027 0
M  V30 5704 H 548.582 -4.19829 -0.679957 0
M  V30 5705 N 546.897 -0.0685191 -1.57451 0
M  V30 5706 C 547.86 0.885173 -2.11417 0
M  V30 5707 C 548.86 1.22853 -1.03748 0
M  V30 5708 O 550.05 1.16235 -1.2975 0
M  V30 5709 C 547.182 2.18964 -2.61281 0
M  V30 5710 H 548.375 0.417034 -2.96986 0
M  V30 5711 H 545.928 0.18014 -1.55258 0
M  V30 5712 H 546.663 2.70321 -1.79156 0
M  V30 5713 H 546.448 1.9534 -3.39977 0
M  V30 5714 H 547.938 2.87242 -3.0312 0
M  V30 5715 N 548.375 1.56261 0.205012 0
M  V30 5716 C 549.6 1.84491 0.947512 0
M  V30 5717 C 550.025 0.650894 1.76479 0
M  V30 5718 O 549.383 -0.40035 1.76824 0
M  V30 5719 C 549.431 3.10863 1.82747 0
M  V30 5720 O 548.535 2.90719 2.925 0
M  V30 5721 H 547.876 0.607783 0.267386 0
M  V30 5722 H 550.406 2.03485 0.213323 0
M  V30 5723 H 550.416 3.41399 2.23407 0
M  V30 5724 H 549.091 3.97392 1.2269 0
M  V30 5725 H 547.668 2.71457 2.55667 0
M  V30 5726 N 549.853 -0.472356 1.50355 0
M  V30 5727 C 551.264 -1.05326 1.54154 0
M  V30 5728 C 551.615 -1.93155 0.344303 0
M  V30 5729 O 550.74 -2.09479 -0.542928 0
M  V30 5730 C 551.335 -1.91691 2.79356 0
M  V30 5731 C 549.894 -2.44892 2.8584 0
M  V30 5732 C 549.041 -1.23205 2.48426 0
M  V30 5733 H 551.992 -0.255027 1.56637 0
M  V30 5734 H 552.013 -2.76742 2.6114 0
M  V30 5735 H 551.525 -1.27741 3.66475 0
M  V30 5736 H 549.626 -3.12399 2.0307 0
M  V30 5737 H 549.739 -2.80086 3.88701 0
M  V30 5738 H 548.103 -1.56643 2.00836 0
M  V30 5739 H 548.886 -0.609194 3.37852 0
M  V30 5740 N 551.331 -1.39911 -0.725443 0
M  V30 5741 C 552.608 -1.28158 -1.47766 0
M  V30 5742 C 552.988 0.104545 -2.10841 0
M  V30 5743 O 552.336 1.11657 -1.99361 0
M  V30 5744 C 552.546 -2.41306 -2.52135 0
M  V30 5745 C 553.894 -2.81076 -3.18247 0
M  V30 5746 O 554.918 -2.40827 -2.62452 0
M  V30 5747 O 553.777 -3.50581 -4.19231 0
M  V30 5748 H 550.871 -0.502761 -0.656628 0
M  V30 5749 H 553.417 -1.51808 -0.758456 0
M  V30 5750 H 552.189 -3.33932 -2.03974 0
M  V30 5751 H 551.812 -2.19374 -3.31603 0
M  V30 5752 N 552.809 0.956637 -1.25245 0
M  V30 5753 C 554.039 1.7332 -1.12445 0
M  V30 5754 C 554.447 1.86392 0.324732 0
M  V30 5755 O 553.79 1.35967 1.23526 0
M  V30 5756 C 553.852 3.16603 -1.70303 0
M  V30 5757 C 553.516 3.26966 -3.19284 0
M  V30 5758 C 554.513 3.11434 -4.16299 0
M  V30 5759 C 552.198 3.50851 -3.59456 0
M  V30 5760 C 554.192 3.1963 -5.51467 0
M  V30 5761 C 551.879 3.58684 -4.94761 0
M  V30 5762 C 552.877 3.43087 -5.90576 0
M  V30 5763 O 552.565 3.50598 -7.2342 0
M  V30 5764 H 552.297 0.549981 -0.393061 0
M  V30 5765 H 554.851 1.20892 -1.66055 0
M  V30 5766 H 553.081 3.70385 -1.11138 0
M  V30 5767 H 554.77 3.76109 -1.52632 0
M  V30 5768 H 555.536 2.92853 -3.86604 0
M  V30 5769 H 551.415 3.62053 -2.85375 0
M  V30 5770 H 554.959 3.07373 -6.26233 0
M  V30 5771 H 550.856 3.76782 -5.24124 0
M  V30 5772 H 551.624 3.67242 -7.31489 0
M  V30 5773 N 554.287 1.06798 1.15896 0
M  V30 5774 C 555.217 0.704677 2.22613 0
M  V30 5775 C 556.198 -0.305252 1.67339 0
M  V30 5776 O 557.383 -0.179247 1.93371 0
M  V30 5777 C 554.513 0.0957325 3.47168 0
M  V30 5778 C 553.467 1.0322 4.15367 0
M  V30 5779 C 552.793 0.286293 5.33933 0
M  V30 5780 C 554.093 2.36341 4.65768 0
M  V30 5781 H 555.787 1.59688 2.53259 0
M  V30 5782 H 553.333 0.769257 1.21731 0
M  V30 5783 H 555.286 -0.170333 4.21056 0
M  V30 5784 H 554.01 -0.831516 3.15838 0
M  V30 5785 H 552.669 1.28309 3.43413 0
M  V30 5786 H 552.317 -0.644237 4.98857 0
M  V30 5787 H 552.017 0.910436 5.80504 0
M  V30 5788 H 553.541 0.0278938 6.10594 0
M  V30 5789 H 554.955 2.1561 5.31211 0
M  V30 5790 H 553.352 2.94299 5.2298 0
M  V30 5791 H 554.422 2.99047 3.81705 0
M  V30 5792 N 555.766 -1.3263 0.851289 0
M  V30 5793 C 556.676 -2.32722 0.296268 0
M  V30 5794 C 557.692 -1.63901 -0.584162 0
M  V30 5795 O 558.868 -1.95465 -0.485334 0
M  V30 5796 C 555.933 -3.42942 -0.509103 0
M  V30 5797 C 554.994 -4.2746 0.397069 0
M  V30 5798 C 554.227 -5.32416 -0.36996 0
M  V30 5799 O 554.45 -5.47491 -1.6003 0
M  V30 5800 O 553.384 -6.01327 0.262493 0
M  V30 5801 H 557.21 -2.82078 1.12543 0
M  V30 5802 H 554.795 -1.36194 0.614135 0
M  V30 5803 H 556.677 -4.1017 -0.96634 0
M  V30 5804 H 555.352 -2.95781 -1.31512 0
M  V30 5805 H 554.259 -3.63053 0.902411 0
M  V30 5806 H 555.592 -4.78136 1.16818 0
M  V30 5807 N 557.244 -0.608902 -1.45362 0
M  V30 5808 C 558.493 -0.10218 -2.01441 0
M  V30 5809 C 558.806 1.27546 -1.48295 0
M  V30 5810 O 560.012 1.87498 -1.96359 0
M  V30 5811 C 558.468 -0.131985 -3.59658 0
M  V30 5812 C 558.076 -1.50956 -4.21801 0
M  V30 5813 C 559.82 0.319427 -4.23296 0
M  V30 5814 C 557.727 -1.49568 -5.72174 0
M  V30 5815 H 556.657 -0.0344314 -0.753213 0
M  V30 5816 H 559.308 -0.764426 -1.6682 0
M  V30 5817 H 557.69 0.596939 -3.91475 0
M  V30 5818 H 558.864 -2.26029 -4.01556 0
M  V30 5819 H 557.179 -1.90318 -3.70362 0
M  V30 5820 H 559.776 0.349013 -5.3356 0
M  V30 5821 H 560.119 1.34237 -3.94064 0
M  V30 5822 H 560.652 -0.356273 -3.96201 0
M  V30 5823 H 557.391 -2.49626 -6.06108 0
M  V30 5824 H 556.911 -0.787542 -5.94607 0
M  V30 5825 H 558.59 -1.21989 -6.35396 0
M  V30 5826 N 558.722 1.53707 -0.348139 0
M  V30 5827 C 559.685 2.23812 0.494058 0
M  V30 5828 C 560.685 1.23989 1.02388 0
M  V30 5829 O 561.875 1.48395 0.912396 0
M  V30 5830 C 559.007 2.96133 1.68872 0
M  V30 5831 H 560.2 2.99663 -0.119141 0
M  V30 5832 H 557.753 1.55983 -0.0995539 0
M  V30 5833 H 558.488 2.24481 2.34049 0
M  V30 5834 H 558.273 3.69357 1.31596 0
M  V30 5835 H 559.763 3.49475 2.28597 0
M  V30 5836 N 560.2 0.0768682 1.57412 0
M  V30 5837 C 561.449 -0.590679 1.92857 0
M  V30 5838 C 561.762 -1.70461 0.959293 0
M  V30 5839 O 562.968 -2.43207 1.20675 0
M  V30 5840 C 561.424 -1.10204 3.42612 0
M  V30 5841 C 561.032 -0.0188447 4.47996 0
M  V30 5842 C 562.776 -1.74336 3.87049 0
M  V30 5843 C 560.683 -0.544536 5.88888 0
M  V30 5844 H 559.613 -0.224411 0.71983 0
M  V30 5845 H 562.264 0.149924 1.82887 0
M  V30 5846 H 560.646 -1.89577 3.47673 0
M  V30 5847 H 561.82 0.755936 4.54557 0
M  V30 5848 H 560.135 0.526555 4.13057 0
M  V30 5849 H 562.732 -2.14708 4.89699 0
M  V30 5850 H 563.075 -2.60537 3.24694 0
M  V30 5851 H 563.608 -1.01577 3.84613 0
M  V30 5852 H 560.347 0.280426 6.549 0
M  V30 5853 H 559.867 -1.28673 5.85836 0
M  V30 5854 H 561.546 -1.01933 6.3892 0
M  V30 5855 N 561.678 -1.56367 -0.196722 0
M  V30 5856 C 562.908 -1.84371 -0.932254 0
M  V30 5857 C 563.316 -0.657013 -1.77426 0
M  V30 5858 O 562.659 0.383576 -1.79651 0
M  V30 5859 C 562.721 -3.06454 -1.87952 0
M  V30 5860 C 562.385 -4.40425 -1.21962 0
M  V30 5861 C 563.382 -5.16457 -0.597343 0
M  V30 5862 C 561.067 -4.8716 -1.22396 0
M  V30 5863 C 563.061 -6.37399 0.0117913 0
M  V30 5864 C 560.748 -6.08038 -0.610995 0
M  V30 5865 C 561.746 -6.83 0.00580487 0
M  V30 5866 O 561.434 -8.01589 0.609173 0
M  V30 5867 H 561.166 -0.616377 -0.277589 0
M  V30 5868 H 563.72 -2.04329 -0.209452 0
M  V30 5869 H 561.95 -2.82377 -2.64197 0
M  V30 5870 H 563.639 -3.21118 -2.48271 0
M  V30 5871 H 564.405 -4.81445 -0.586142 0
M  V30 5872 H 560.284 -4.2877 -1.69345 0
M  V30 5873 H 563.828 -6.9585 0.493836 0
M  V30 5874 H 559.725 -6.42519 -0.619693 0
M  V30 5875 H 560.493 -8.16935 0.505919 0
M  V30 5876 N 563.156 0.464375 -1.50603 0
M  V30 5877 C 564.396 1.22573 -1.6357 0
M  V30 5878 C 564.76 1.89111 -0.331834 0
M  V30 5879 O 565.961 2.66679 -0.336999 0
M  V30 5880 C 564.232 2.23643 -2.7878 0
M  V30 5881 S 565.791 3.08628 -3.1192 0
M  V30 5882 H 562.609 0.416058 -0.576556 0
M  V30 5883 H 565.211 0.521637 -1.88412 0
M  V30 5884 H 563.915 1.73354 -3.7199 0
M  V30 5885 H 563.446 2.98672 -2.56044 0
M  V30 5886 H 565.461 4.24904 -2.56264 0
M  V30 5887 N 564.634 1.40294 0.718013 0
M  V30 5888 C 565.883 1.37746 1.4734 0
M  V30 5889 C 566.196 -0.0180754 1.95592 0
M  V30 5890 O 567.402 -0.166166 2.70991 0
M  V30 5891 C 565.858 2.4208 2.66318 0
M  V30 5892 C 565.466 3.87432 2.24945 0
M  V30 5893 C 567.21 2.48635 3.44065 0
M  V30 5894 C 565.117 4.83368 3.40748 0
M  V30 5895 H 564.047 0.512165 0.553356 0
M  V30 5896 H 566.698 1.66019 0.781661 0
M  V30 5897 H 565.08 2.06903 3.3765 0
M  V30 5898 H 566.254 4.3174 1.6105 0
M  V30 5899 H 564.569 3.8433 1.60249 0
M  V30 5900 H 567.166 3.17499 4.30231 0
M  V30 5901 H 567.509 1.51611 3.87711 0
M  V30 5902 H 568.042 2.82791 2.79775 0
M  V30 5903 H 564.781 5.81716 3.02136 0
M  V30 5904 H 564.301 4.43726 4.03568 0
M  V30 5905 H 565.98 5.03074 4.06848 0
M  V30 5906 N 566.112 -0.949982 1.2575 0
M  V30 5907 C 567.36 -1.6918 1.10555 0
M  V30 5908 C 567.681 -1.91773 -0.353298 0
M  V30 5909 O 566.951 -1.50814 -1.25027 0
M  V30 5910 H 565.531 -0.626952 0.406129 0
M  V30 5911 H 568.193 -1.1419 1.57945 0
M  V30 5912 H 567.289 -2.66915 1.61749 0
M  V30 5913 N 567.59 -1.07411 -1.15328 0
M  V30 5914 C 568.836 -0.798831 -1.86404 0
M  V30 5915 C 569.169 0.673433 -1.8215 0
M  V30 5916 O 568.444 1.49428 -1.24505 0
M  V30 5917 C 568.727 -1.30846 -3.35487 0
M  V30 5918 C 568.58 -2.84532 -3.4837 0
M  V30 5919 C 569.899 -0.925486 -4.30259 0
M  V30 5920 H 567.018 -0.291659 -0.676834 0
M  V30 5921 H 569.66 -1.332 -1.35491 0
M  V30 5922 H 567.81 -0.854916 -3.78977 0
M  V30 5923 H 569.482 -3.3818 -3.13739 0
M  V30 5924 H 567.725 -3.22699 -2.8991 0
M  V30 5925 H 568.396 -3.15259 -4.53118 0
M  V30 5926 H 570.872 -1.3163 -3.94731 0
M  V30 5927 H 569.748 -1.3094 -5.33053 0
M  V30 5928 H 570.009 0.168525 -4.41779 0
M  V30 5929 N 569.068 1.32177 -0.85831 0
M  V30 5930 C 570.315 1.97125 -0.463484 0
M  V30 5931 C 570.643 1.67907 0.981705 0
M  V30 5932 O 569.898 0.961717 1.70439 0
M  V30 5933 C 570.197 3.51372 -0.653658 0
M  V30 5934 C 569.863 4.00584 -2.06987 0
M  V30 5935 C 568.525 4.13733 -2.4572 0
M  V30 5936 C 570.877 4.26624 -2.99402 0
M  V30 5937 C 568.205 4.50268 -3.76132 0
M  V30 5938 C 570.557 4.64618 -4.29316 0
M  V30 5939 C 569.221 4.75975 -4.67979 0
M  V30 5940 H 568.491 0.72133 -0.169601 0
M  V30 5941 H 571.138 1.57517 -1.08907 0
M  V30 5942 H 569.443 3.91761 0.0551328 0
M  V30 5943 H 571.14 3.99655 -0.328163 0
M  V30 5944 H 567.73 3.90837 -1.75911 0
M  V30 5945 H 571.914 4.1597 -2.70708 0
M  V30 5946 H 567.17 4.57256 -4.05865 0
M  V30 5947 H 571.344 4.83722 -5.00985 0
M  V30 5948 H 568.971 5.04041 -5.69076 0
M  V30 5949 N 570.547 0.616602 1.45037 0
M  V30 5950 C 571.477 -0.0840787 2.33349 0
M  V30 5951 C 572.458 -0.849641 1.4736 0
M  V30 5952 O 573.643 -0.818407 1.76113 0
M  V30 5953 C 570.773 -1.07604 3.3021 0
M  V30 5954 C 569.727 -0.423096 4.25904 0
M  V30 5955 C 569.053 -1.52394 5.12523 0
M  V30 5956 C 570.353 0.661457 5.18095 0
M  V30 5957 H 572.047 0.653333 2.92185 0
M  V30 5958 H 569.593 0.315634 1.40498 0
M  V30 5959 H 571.546 -1.57485 3.90866 0
M  V30 5960 H 570.27 -1.84416 2.69552 0
M  V30 5961 H 568.929 0.05493 3.66559 0
M  V30 5962 H 568.577 -2.28257 4.48227 0
M  V30 5963 H 568.277 -1.09251 5.77354 0
M  V30 5964 H 569.801 -2.02485 5.76049 0
M  V30 5965 H 571.215 0.246353 5.7277 0
M  V30 5966 H 569.612 1.01517 5.91451 0
M  V30 5967 H 570.682 1.53446 4.59981 0
M  V30 5968 N 572.025 -1.5352 0.356285 0
M  V30 5969 C 573.274 -2.00298 -0.237373 0
M  V30 5970 C 573.587 -1.24784 -1.50627 0
M  V30 5971 O 574.793 -1.62103 -2.17795 0
M  V30 5972 C 573.249 -3.56771 -0.473545 0
M  V30 5973 C 572.857 -4.41154 0.780183 0
M  V30 5974 C 574.601 -4.1193 -1.02537 0
M  V30 5975 C 572.508 -5.89161 0.514108 0
M  V30 5976 H 571.438 -0.748307 -0.092478 0
M  V30 5977 H 574.089 -1.77283 0.473588 0
M  V30 5978 H 572.471 -3.75902 -1.24553 0
M  V30 5979 H 573.645 -4.33797 1.55425 0
M  V30 5980 H 571.96 -3.97052 1.25455 0
M  V30 5981 H 574.557 -5.20133 -1.2396 0
M  V30 5982 H 574.9 -3.65943 -1.98473 0
M  V30 5983 H 575.433 -3.96561 -0.313775 0
M  V30 5984 H 572.172 -6.39408 1.44355 0
M  V30 5985 H 571.692 -5.9939 -0.221632 0
M  V30 5986 H 573.371 -6.46857 0.136122 0
M  V30 5987 N 573.503 -0.0852151 -1.57369 0
M  V30 5988 C 574.466 0.8627 -2.12344 0
M  V30 5989 C 575.466 1.21746 -1.05046 0
M  V30 5990 O 576.656 1.14852 -1.30976 0
M  V30 5991 C 573.788 2.1618 -2.63589 0
M  V30 5992 H 574.981 0.385511 -2.97412 0
M  V30 5993 H 572.534 0.163663 -1.55441 0
M  V30 5994 H 573.269 2.68406 -1.82013 0
M  V30 5995 H 573.054 1.91723 -3.4203 0
M  V30 5996 H 574.544 2.84011 -3.06149 0
M  V30 5997 N 574.981 1.5647 0.188427 0
M  V30 5998 C 576.221 1.82803 0.914469 0
M  V30 5999 C 576.585 0.663681 1.80165 0
M  V30 6000 O 577.786 0.807059 2.56398 0
M  V30 6001 C 576.057 3.14187 1.70357 0
M  V30 6002 S 577.616 3.61947 2.48072 0
M  V30 6003 H 574.434 0.641497 0.306599 0
M  V30 6004 H 577.036 1.94694 0.177361 0
M  V30 6005 H 575.74 3.96937 1.04255 0
M  V30 6006 H 575.271 3.05192 2.48237 0
M  V30 6007 H 577.286 3.27913 3.72407 0
M  V30 6008 N 576.459 -0.456382 1.50847 0
M  V30 6009 C 577.392 -1.57177 1.65441 0
M  V30 6010 C 578.37 -1.54649 0.502224 0
M  V30 6011 O 579.554 -1.74057 0.723633 0
M  V30 6012 C 576.681 -2.95763 1.65052 0
M  V30 6013 C 575.727 -3.16389 2.86007 0
M  V30 6014 S 576.56 -2.94716 4.47105 0
M  V30 6015 C 577.716 -4.35617 4.49432 0
M  V30 6016 H 577.949 -1.44561 2.59787 0
M  V30 6017 H 575.482 -0.644758 1.40293 0
M  V30 6018 H 577.44 -3.75654 1.65512 0
M  V30 6019 H 576.101 -3.05756 0.719153 0
M  V30 6020 H 575.294 -4.17667 2.82081 0
M  V30 6021 H 574.896 -2.44293 2.8319 0
M  V30 6022 H 577.188 -5.28503 4.239 0
M  V30 6023 H 578.131 -4.44582 5.51137 0
M  V30 6024 H 578.539 -4.18382 3.78967 0
M  V30 6025 N 577.937 -1.40673 -0.710563 0
M  V30 6026 C 579.183 -1.39428 -1.47267 0
M  V30 6027 C 579.516 0.00182129 -1.942 0
M  V30 6028 O 578.791 0.971387 -1.68506 0
M  V30 6029 C 579.074 -2.38812 -2.6952 0
M  V30 6030 C 578.927 -3.87467 -2.28449 0
M  V30 6031 C 580.246 -2.3566 -3.71689 0
M  V30 6032 H 577.365 -0.507768 -0.534173 0
M  V30 6033 H 580.007 -1.71843 -0.810547 0
M  V30 6034 H 578.157 -2.113 -3.26013 0
M  V30 6035 H 579.829 -4.25825 -1.77399 0
M  V30 6036 H 578.072 -4.03058 -1.60395 0
M  V30 6037 H 578.743 -4.5253 -3.16103 0
M  V30 6038 H 581.219 -2.6004 -3.24836 0
M  V30 6039 H 580.095 -3.07237 -4.54859 0
M  V30 6040 H 580.356 -1.36996 -4.20339 0
M  V30 6041 N 579.415 0.9433 -1.26252 0
M  V30 6042 C 580.661 1.69175 -1.11837 0
M  V30 6043 C 580.994 1.91238 0.337891 0
M  V30 6044 O 580.269 1.49152 1.24836 0
M  V30 6045 C 580.552 3.06783 -1.88563 0
M  V30 6046 C 580.405 2.9206 -3.42083 0
M  V30 6047 C 581.724 4.06865 -1.67776 0
M  V30 6048 H 578.843 0.61399 -0.407658 0
M  V30 6049 H 581.485 1.09572 -1.55222 0
M  V30 6050 H 579.635 3.57663 -1.51689 0
M  V30 6051 H 581.307 2.48419 -3.88698 0
M  V30 6052 H 579.55 2.27731 -3.69217 0
M  V30 6053 H 580.221 3.89651 -3.90994 0
M  V30 6054 H 582.697 3.64939 -1.99897 0
M  V30 6055 H 581.573 5.01168 -2.23879 0
M  V30 6056 H 581.834 4.37705 -0.621816 0
M  V30 6057 N 580.893 1.08022 1.14757 0
M  V30 6058 C 582.121 0.828847 1.89572 0
M  V30 6059 C 582.536 -0.618621 1.78377 0
M  V30 6060 O 581.893 -1.42482 1.1404 0
M  V30 6061 C 581.944 1.23677 3.39685 0
M  V30 6062 O 581.665 2.62746 3.50566 0
M  V30 6063 C 583.166 1.01569 4.31507 0
M  V30 6064 H 580.386 0.299196 0.600602 0
M  V30 6065 H 582.93 1.43846 1.45357 0
M  V30 6066 H 581.085 0.671347 3.81539 0
M  V30 6067 H 581.499 2.79573 4.43778 0
M  V30 6068 H 582.973 1.35055 5.35223 0
M  V30 6069 H 583.45 -0.0475433 4.39174 0
M  V30 6070 H 584.056 1.56636 3.95405 0
M  V30 6071 N 582.371 -1.3172 0.865308 0
M  V30 6072 C 583.617 -1.97168 0.474633 0
M  V30 6073 C 583.95 -1.68263 -0.969604 0
M  V30 6074 O 583.225 -0.976588 -1.68205 0
M  V30 6075 C 583.508 -3.52689 0.726808 0
M  V30 6076 C 583.361 -3.91185 2.22024 0
M  V30 6077 C 584.68 -4.39689 0.190201 0
M  V30 6078 H 581.799 -0.716185 0.17392 0
M  V30 6079 H 584.441 -1.55925 1.08569 0
M  V30 6080 H 582.591 -3.8795 0.206705 0
M  V30 6081 H 584.263 -3.66049 2.80724 0
M  V30 6082 H 582.506 -3.3996 2.69462 0
M  V30 6083 H 583.177 -4.99604 2.34735 0
M  V30 6084 H 585.653 -4.11225 0.635103 0
M  V30 6085 H 584.529 -5.47469 0.396132 0
M  V30 6086 H 584.79 -4.32683 -0.907625 0
M  V30 6087 N 583.85 -0.624285 -1.44708 0
M  V30 6088 C 585.099 -0.123539 -2.01321 0
M  V30 6089 C 585.412 1.25966 -1.49639 0
M  V30 6090 O 586.618 1.85405 -1.98336 0
M  V30 6091 C 585.074 -0.170124 -3.59498 0
M  V30 6092 C 584.682 -1.55421 -4.20176 0
M  V30 6093 C 586.426 0.274513 -4.23611 0
M  V30 6094 C 584.332 -1.55628 -5.70556 0
M  V30 6095 H 583.263 -0.0424183 -0.752806 0
M  V30 6096 H 585.913 -0.782076 -1.65999 0
M  V30 6097 H 584.296 0.555385 -3.92086 0
M  V30 6098 H 585.47 -2.30276 -3.99136 0
M  V30 6099 H 583.784 -1.94235 -3.68323 0
M  V30 6100 H 586.382 0.292402 -5.339 0
M  V30 6101 H 586.725 1.3005 -3.95465 0
M  V30 6102 H 587.258 -0.398275 -3.95801 0
M  V30 6103 H 583.997 -2.56041 -6.03426 0
M  V30 6104 H 583.517 -0.850563 -5.93739 0
M  V30 6105 H 585.196 -1.28721 -6.34066 0
M  V30 6106 N 585.328 1.53329 -0.364422 0
M  V30 6107 C 586.258 2.28627 0.474543 0
M  V30 6108 C 587.239 1.31009 1.08492 0
M  V30 6109 O 588.424 1.59878 1.10239 0
M  V30 6110 C 585.554 3.07465 1.61501 0
M  V30 6111 C 584.508 4.1276 1.13194 0
M  V30 6112 C 583.834 4.79674 2.36255 0
M  V30 6113 C 585.134 5.21847 0.217507 0
M  V30 6114 H 586.828 2.99005 -0.153656 0
M  V30 6115 H 584.374 1.43803 -0.0753406 0
M  V30 6116 H 586.327 3.58889 2.20855 0
M  V30 6117 H 585.051 2.34775 2.27042 0
M  V30 6118 H 583.71 3.62281 0.56109 0
M  V30 6119 H 583.358 4.03557 3.00251 0
M  V30 6120 H 583.058 5.50827 2.04606 0
M  V30 6121 H 584.582 5.33892 2.96297 0
M  V30 6122 H 585.996 5.6878 0.718493 0
M  V30 6123 H 584.393 6.00099 -0.00806408 0
M  V30 6124 H 585.463 4.7921 -0.740653 0
M  V30 6125 N 586.806 0.0935595 1.57322 0
M  V30 6126 C 588.046 -0.573901 1.96178 0
M  V30 6127 C 588.41 -1.65445 0.97426 0
M  V30 6128 O 589.611 -2.37901 1.25126 0
M  V30 6129 C 587.882 -1.11612 3.39526 0
M  V30 6130 S 589.441 -1.79566 4.00377 0
M  V30 6131 H 586.259 -0.187315 0.685882 0
M  V30 6132 H 588.861 0.172597 1.94737 0
M  V30 6133 H 587.565 -0.31815 4.09165 0
M  V30 6134 H 587.096 -1.89848 3.4456 0
M  V30 6135 H 589.111 -3.07978 3.89056 0
M  V30 6136 N 588.284 -1.56567 -0.180126 0
M  V30 6137 C 589.7 -1.50488 -0.531559 0
M  V30 6138 C 589.9 -0.796267 -1.851 0
M  V30 6139 O 588.956 -0.352978 -2.50021 0
M  V30 6140 C 590.269 -2.95201 -0.572456 0
M  V30 6141 C 591.817 -3.05957 -0.660264 0
M  V30 6142 C 592.292 -4.5211 -0.732135 0
M  V30 6143 N 593.783 -4.56322 -0.795262 0
M  V30 6144 C 594.518 -5.66742 -0.871296 0
M  V30 6145 N 594.014 -6.86815 -0.908708 0
M  V30 6146 N 595.807 -5.54691 -0.909639 0
M  V30 6147 H 587.958 -2.01045 0.685165 0
M  V30 6148 H 590.221 -0.915536 0.245962 0
M  V30 6149 H 589.927 -3.50165 0.328208 0
M  V30 6150 H 589.801 -3.49369 -1.422 0
M  V30 6151 H 592.188 -2.51032 -1.55136 0
M  V30 6152 H 592.269 -2.54888 0.215783 0
M  V30 6153 H 591.913 -5.07664 0.154664 0
M  V30 6154 H 591.843 -5.00926 -1.6242 0
M  V30 6155 H 594.334 -3.69868 -0.77499 0
M  V30 6156 H 594.647 -7.66718 -0.967654 0
M  V30 6157 H 592.992 -6.89443 -0.877132 0
M  V30 6158 H 596.183 -4.59804 -0.877353 0
M  V30 6159 H 596.356 -6.40768 -0.965434 0
M  V30 6160 N 589.762 0.448376 -1.51087 0
M  V30 6161 C 590.695 1.56298 -1.66272 0
M  V30 6162 C 591.673 1.54381 -0.510419 0
M  V30 6163 O 592.857 1.73671 -0.732854 0
M  V30 6164 C 589.984 2.94883 -1.66618 0
M  V30 6165 C 589.03 3.14868 -2.87681 0
M  V30 6166 S 589.863 2.9234 -4.48662 0
M  V30 6167 C 591.019 4.33227 -4.51735 0
M  V30 6168 H 591.252 1.43182 -2.6055 0
M  V30 6169 H 588.785 0.637309 -1.40633 0
M  V30 6170 H 590.743 3.74771 -1.67502 0
M  V30 6171 H 589.404 3.05371 -0.735358 0
M  V30 6172 H 588.597 4.16166 -2.84292 0
M  V30 6173 H 588.199 2.42788 -2.84482 0
M  V30 6174 H 590.491 5.26247 -4.26697 0
M  V30 6175 H 591.434 4.41653 -5.53487 0
M  V30 6176 H 591.842 4.16367 -3.81181 0
M  V30 6177 N 591.24 1.41047 0.703093 0
M  V30 6178 C 592.187 1.42302 1.81711 0
M  V30 6179 C 593.157 0.278336 1.63751 0
M  V30 6180 O 594.342 0.478266 1.84709 0
M  V30 6181 C 591.482 1.30362 3.19531 0
M  V30 6182 C 590.595 2.54638 3.48975 0
M  V30 6183 C 589.73 2.35047 4.76368 0
M  V30 6184 C 588.769 3.54837 4.98756 0
M  V30 6185 N 587.906 3.34363 6.1737 0
M  V30 6186 H 592.746 2.37516 1.79973 0
M  V30 6187 H 590.283 1.1795 0.878983 0
M  V30 6188 H 592.241 1.21443 3.99134 0
M  V30 6189 H 590.871 0.387602 3.20464 0
M  V30 6190 H 589.923 2.74037 2.63833 0
M  V30 6191 H 591.235 3.43766 3.61423 0
M  V30 6192 H 590.389 2.23552 5.64012 0
M  V30 6193 H 589.128 1.43363 4.66153 0
M  V30 6194 H 588.133 3.66795 4.09563 0
M  V30 6195 H 589.358 4.47464 5.10835 0
M  V30 6196 H 587.304 2.45373 6.08382 0
M  V30 6197 H 587.221 4.17063 6.30551 0
M  V30 6198 H 588.489 3.26626 7.07768 0
M  V30 6199 N 592.718 -0.936591 1.26751 0
M  V30 6200 C 593.666 -2.0573 1.08527 0
M  V30 6201 C 594.66 -1.69397 0.0108784 0
M  V30 6202 O 595.866 -1.79215 0.167915 0
M  V30 6203 H 592.241 -0.673691 0.334133 0
M  V30 6204 H 594.212 -2.1825 2.03493 0
M  V30 6205 C 592.961 -3.39738 0.739845 0
M  V30 6206 H 592.284 -3.68174 1.55845 0
M  V30 6207 H 593.724 -4.18955 0.652149 0
M  V30 6208 C 592.183 -3.32292 -0.555288 0
M  V30 6209 O 592.713 -3.68794 -1.59229 0
M  V30 6210 N 590.919 -2.85394 -0.54762 0
M  V30 6211 H 590.466 -2.55886 0.296667 0
M  V30 6212 H 590.424 -2.80795 -1.41427 0
M  V30 6213 N 594.196 -1.08629 -1.14182 0
M  V30 6214 C 595.424 -0.838889 -1.8913 0
M  V30 6215 C 595.839 0.609153 -1.78703 0
M  V30 6216 O 595.196 1.41876 -1.14794 0
M  V30 6217 C 595.247 -1.25477 -3.39025 0
M  V30 6218 O 594.968 -2.64601 -3.49167 0
M  V30 6219 C 596.469 -1.03856 -4.30963 0
M  V30 6220 H 593.689 -0.302377 -0.599007 0
M  V30 6221 H 596.233 -1.44615 -1.44592 0
M  V30 6222 H 594.388 -0.691571 -3.81177 0
M  V30 6223 H 594.802 -2.81922 -4.42289 0
M  V30 6224 H 596.276 -1.37892 -5.345 0
M  V30 6225 H 596.753 0.0242522 -4.39193 0
M  V30 6226 H 597.359 -1.58731 -3.94569 0
M  V30 6227 N 595.674 1.31259 -0.872281 0
M  V30 6228 C 596.902 2.00795 -0.498907 0
M  V30 6229 C 597.317 1.65464 0.909238 0
M  V30 6230 O 596.674 0.885073 1.59602 0
M  V30 6231 C 596.725 3.55625 -0.649092 0
M  V30 6232 O 596.446 3.89692 -2.00179 0
M  V30 6233 C 597.947 4.42434 -0.277034 0
M  V30 6234 H 595.167 0.642299 -0.194145 0
M  V30 6235 H 597.711 1.67438 -1.17408 0
M  V30 6236 H 595.866 3.87394 -0.0214402 0
M  V30 6237 H 596.28 4.84407 -2.01122 0
M  V30 6238 H 597.754 5.50299 -0.433064 0
M  V30 6239 H 598.231 4.32146 0.783989 0
M  V30 6240 H 598.837 4.16086 -0.880483 0
M  V30 6241 N 597.152 0.631951 1.44375 0
M  V30 6242 C 598.099 -0.0724807 2.30686 0
M  V30 6243 C 599.069 -0.835975 1.43529 0
M  V30 6244 O 600.254 -0.816849 1.7243 0
M  V30 6245 C 597.394 -1.04753 3.28817 0
M  V30 6246 C 596.507 -0.282367 4.31076 0
M  V30 6247 C 595.642 -1.2493 5.163 0
M  V30 6248 C 594.681 -0.473349 6.10267 0
M  V30 6249 N 593.818 -1.39079 6.88187 0
M  V30 6250 H 598.658 0.669477 2.90383 0
M  V30 6251 H 596.195 0.341927 1.43071 0
M  V30 6252 H 598.153 -1.62623 3.842 0
M  V30 6253 H 596.783 -1.75661 2.70819 0
M  V30 6254 H 595.835 0.412268 3.78159 0
M  V30 6255 H 597.147 0.321955 4.9776 0
M  V30 6256 H 596.301 -1.89931 5.76204 0
M  V30 6257 H 595.04 -1.88755 4.49692 0
M  V30 6258 H 594.045 0.190142 5.49471 0
M  V30 6259 H 595.27 0.16019 6.78911 0
M  V30 6260 H 593.216 -2.01623 6.24247 0
M  V30 6261 H 593.133 -0.840513 7.51313 0
M  V30 6262 H 594.401 -2.02961 7.52613 0
M  V30 6263 N 598.631 -1.53133 0.372548 0
M  V30 6264 C 599.578 -2.25951 -0.470631 0
M  V30 6265 C 600.548 -1.26895 -1.07176 0
M  V30 6266 O 601.733 -1.55691 -1.10294 0
M  V30 6267 C 598.873 -3.05726 -1.6008 0
M  V30 6268 C 597.986 -4.19684 -1.02416 0
M  V30 6269 C 597.121 -4.86888 -2.124 0
M  V30 6270 C 596.16 -5.92866 -1.52238 0
M  V30 6271 N 595.297 -6.53732 -2.56084 0
M  V30 6272 H 600.137 -2.97587 0.156816 0
M  V30 6273 H 597.674 -1.4683 0.0891571 0
M  V30 6274 H 599.632 -3.50258 -2.26661 0
M  V30 6275 H 598.262 -2.36331 -2.1988 0
M  V30 6276 H 597.314 -3.79588 -0.248426 0
M  V30 6277 H 598.626 -4.95821 -0.544366 0
M  V30 6278 H 597.78 -5.34638 -2.86787 0
M  V30 6279 H 596.519 -4.10239 -2.63734 0
M  V30 6280 H 595.524 -5.4447 -0.763685 0
M  V30 6281 H 596.749 -6.71439 -1.0172 0
M  V30 6282 H 594.695 -5.79932 -3.06618 0
M  V30 6283 H 594.612 -7.25429 -2.12811 0
M  V30 6284 H 595.88 -7.0613 -3.30152 0
M  V30 6285 N 600.109 -0.101901 -1.5727 0
M  V30 6286 C 601.52 0.426173 -1.81771 0
M  V30 6287 C 601.871 1.67725 -1.01797 0
M  V30 6288 O 600.996 2.14958 -0.249386 0
M  V30 6289 C 601.591 0.779962 -3.297 0
M  V30 6290 C 600.15 1.25275 -3.54941 0
M  V30 6291 C 599.297 0.252814 -2.76145 0
M  V30 6292 H 602.248 -0.32726 -1.55289 0
M  V30 6293 H 602.269 1.63891 -3.43395 0
M  V30 6294 H 601.781 -0.130778 -3.8788 0
M  V30 6295 H 599.882 2.18097 -3.021 0
M  V30 6296 H 599.995 1.20988 -4.63572 0
M  V30 6297 H 598.359 0.736362 -2.43823 0
M  V30 6298 H 599.142 -0.650724 -3.37076 0
M  V30 6299 N 601.587 1.56661 0.17182 0
M  V30 6300 C 602.864 1.72838 0.915778 0
M  V30 6301 C 603.244 0.66316 2.00413 0
M  V30 6302 O 602.592 -0.322123 2.26218 0
M  V30 6303 C 602.802 3.16019 1.48097 0
M  V30 6304 C 604.15 3.76962 1.95408 0
M  V30 6305 O 605.174 3.19294 1.57892 0
M  V30 6306 O 604.033 4.78219 2.64516 0
M  V30 6307 H 601.127 0.705797 0.431021 0
M  V30 6308 H 603.673 1.68947 0.159689 0
M  V30 6309 H 602.445 3.85031 0.697618 0
M  V30 6310 H 602.068 3.24234 2.30126 0
M  V30 6311 N 603.065 -0.440357 1.51323 0
M  V30 6312 C 604.312 -1.19004 1.63842 0
M  V30 6313 C 604.64 -1.91266 0.35321 0
M  V30 6314 O 603.895 -1.84143 -0.662565 0
M  V30 6315 C 604.194 -2.2339 2.78984 0
M  V30 6316 C 603.86 -1.68162 4.18369 0
M  V30 6317 C 602.522 -1.52823 4.56288 0
M  V30 6318 C 604.874 -1.27524 5.05358 0
M  V30 6319 C 602.202 -0.953157 5.78906 0
M  V30 6320 C 604.554 -0.714474 6.28552 0
M  V30 6321 C 603.218 -0.547961 6.65247 0
M  V30 6322 H 602.488 -0.435468 0.59954 0
M  V30 6323 H 605.135 -0.481538 1.85347 0
M  V30 6324 H 603.44 -3.00267 2.51688 0
M  V30 6325 H 605.137 -2.81211 2.85869 0
M  V30 6326 H 601.727 -1.81077 3.8847 0
M  V30 6327 H 605.911 -1.38197 4.76671 0
M  V30 6328 H 601.167 -0.811882 6.05986 0
M  V30 6329 H 605.341 -0.391059 6.95301 0
M  V30 6330 H 602.968 -0.100222 7.60134 0
M  V30 6331 N 604.543 -1.41418 -0.695603 0
M  V30 6332 C 605.768 -1.44329 -1.48942 0
M  V30 6333 C 606.193 -0.0501579 -1.88033 0
M  V30 6334 O 605.551 0.946598 -1.54626 0
M  V30 6335 C 605.599 -2.3578 -2.72837 0
M  V30 6336 O 604.703 -1.81482 -3.70322 0
M  V30 6337 H 604.044 -0.489838 -0.44828 0
M  V30 6338 H 606.574 -1.85878 -0.855014 0
M  V30 6339 H 606.584 -2.51654 -3.21145 0
M  V30 6340 H 605.259 -3.37005 -2.43722 0
M  V30 6341 H 603.836 -1.75058 -3.29255 0
M  V30 6342 N 606.021 0.929856 -1.27246 0
M  V30 6343 C 607.246 1.71674 -1.16374 0
M  V30 6344 C 607.671 1.86064 0.276024 0
M  V30 6345 O 607.029 1.3591 1.19992 0
M  V30 6346 C 607.077 3.09526 -1.85003 0
M  V30 6347 O 606.181 3.96142 -1.14653 0
M  V30 6348 H 605.522 0.52629 -0.404863 0
M  V30 6349 H 608.052 1.16381 -1.68276 0
M  V30 6350 H 608.062 3.59852 -1.92276 0
M  V30 6351 H 606.737 2.98369 -2.89739 0
M  V30 6352 H 605.314 3.54584 -1.15433 0
M  V30 6353 N 607.499 1.09233 1.13605 0
M  V30 6354 C 608.431 0.687794 2.18637 0
M  V30 6355 C 609.444 -0.26936 1.60556 0
M  V30 6356 O 610.633 -0.0557162 1.78413 0
M  V30 6357 C 607.733 -0.00751901 3.38899 0
M  V30 6358 C 606.906 0.97067 4.26494 0
M  V30 6359 C 605.965 0.309129 5.25291 0
M  V30 6360 O 604.991 0.956149 5.61112 0
M  V30 6361 N 606.193 -0.937555 5.72879 0
M  V30 6362 H 608.958 1.59141 2.53957 0
M  V30 6363 H 606.519 0.979515 1.28907 0
M  V30 6364 H 608.511 -0.461238 4.02063 0
M  V30 6365 H 607.081 -0.813353 3.01833 0
M  V30 6366 H 606.301 1.603 3.60135 0
M  V30 6367 H 607.589 1.63323 4.81875 0
M  V30 6368 H 606.987 -1.48281 5.4592 0
M  V30 6369 H 605.544 -1.33463 6.3799 0
M  V30 6370 N 608.977 -1.30795 0.87923 0
M  V30 6371 C 610.388 -1.78535 0.546093 0
M  V30 6372 C 610.739 -1.72354 -0.937467 0
M  V30 6373 O 609.864 -1.2969 -1.73233 0
M  V30 6374 C 610.459 -3.24181 0.9845 0
M  V30 6375 C 609.018 -3.69779 0.702871 0
M  V30 6376 C 608.165 -2.51377 1.17068 0
M  V30 6377 H 611.116 -1.17746 1.06403 0
M  V30 6378 H 611.137 -3.79227 0.311045 0
M  V30 6379 H 610.649 -3.28647 2.06429 0
M  V30 6380 H 608.75 -3.70806 -0.365166 0
M  V30 6381 H 608.863 -4.61507 1.28639 0
M  V30 6382 H 607.227 -2.47768 0.590172 0
M  V30 6383 H 608.01 -2.58584 2.25808 0
M  V30 6384 N 610.455 -0.639598 -1.44038 0
M  V30 6385 C 611.418 0.0506628 -2.29144 0
M  V30 6386 C 612.418 0.764001 -1.41491 0
M  V30 6387 O 613.608 0.607309 -1.63271 0
M  V30 6388 C 610.74 1.0824 -3.2326 0
M  V30 6389 H 611.933 -0.697987 -2.91664 0
M  V30 6390 H 609.486 -0.400146 -1.51091 0
M  V30 6391 H 610.221 1.86075 -2.65606 0
M  V30 6392 H 610.006 0.574725 -3.87865 0
M  V30 6393 H 611.496 1.56487 -3.87171 0
M  V30 6394 N 611.933 1.52934 -0.380664 0
M  V30 6395 C 613.179 2.01765 0.20458 0
M  V30 6396 C 613.512 1.26696 1.47179 0
M  V30 6397 O 612.787 0.364936 1.91046 0
M  V30 6398 C 613.07 3.56869 0.481269 0
M  V30 6399 C 612.923 4.42617 -0.800629 0
M  V30 6400 C 614.242 4.2121 1.27554 0
M  V30 6401 H 611.361 0.733388 0.0728803 0
M  V30 6402 H 614.003 1.83068 -0.50853 0
M  V30 6403 H 612.153 3.72932 1.08875 0
M  V30 6404 H 613.825 4.38323 -1.43773 0
M  V30 6405 H 612.068 4.09977 -1.4178 0
M  V30 6406 H 612.739 5.49134 -0.561791 0
M  V30 6407 H 615.215 4.09072 0.761514 0
M  V30 6408 H 614.091 5.29732 1.43788 0
M  V30 6409 H 614.352 3.78269 2.28833 0
M  V30 6410 N 613.412 0.11024 1.57214 0
M  V30 6411 C 614.362 -0.854147 2.11396 0
M  V30 6412 C 615.346 -1.23394 1.03261 0
M  V30 6413 O 616.538 -1.20649 1.2951 0
M  V30 6414 C 613.667 -2.10752 2.70995 0
M  V30 6415 C 612.753 -1.75249 3.86198 0
M  V30 6416 N 613.144 -1.10377 4.9361 0
M  V30 6417 C 611.442 -2.04763 3.96217 0
M  V30 6418 C 612.143 -0.938199 5.74084 0
M  V30 6419 N 611.119 -1.46039 5.23616 0
M  V30 6420 H 614.921 -0.348897 2.91822 0
M  V30 6421 H 612.435 -0.0925071 1.62136 0
M  V30 6422 H 614.432 -2.80801 3.0815 0
M  V30 6423 H 613.092 -2.61829 1.9203 0
M  V30 6424 H 614.103 -0.768785 5.12162 0
M  V30 6425 H 610.78 -2.57948 3.28282 0
M  V30 6426 H 612.17 -0.429678 6.70525 0
M  V30 6427 N 614.89 -1.56749 -0.16351 0
M  V30 6428 C 615.837 -1.97011 -1.2023 0
M  V30 6429 C 616.807 -0.835186 -1.43575 0
M  V30 6430 O 617.992 -1.09594 -1.56185 0
M  V30 6431 C 615.132 -2.34186 -2.53478 0
M  V30 6432 C 614.245 -3.60893 -2.37446 0
M  V30 6433 C 613.38 -3.87245 -3.63614 0
M  V30 6434 C 612.419 -5.07274 -3.42548 0
M  V30 6435 N 611.556 -5.29719 -4.60806 0
M  V30 6436 H 616.396 -2.85562 -0.851958 0
M  V30 6437 H 613.933 -1.41292 -0.409257 0
M  V30 6438 H 615.891 -2.53764 -3.31149 0
M  V30 6439 H 614.521 -1.48736 -2.86492 0
M  V30 6440 H 613.573 -3.49185 -1.50911 0
M  V30 6441 H 614.885 -4.48722 -2.1783 0
M  V30 6442 H 614.039 -4.07232 -4.49719 0
M  V30 6443 H 612.778 -2.97806 -3.86216 0
M  V30 6444 H 611.783 -4.87177 -2.5483 0
M  V30 6445 H 613.008 -5.98251 -3.2136 0
M  V30 6446 H 610.954 -4.43233 -4.83612 0
M  V30 6447 H 610.871 -6.11786 -4.44132 0
M  V30 6448 H 612.139 -5.54192 -5.48171 0
M  V30 6449 N 616.368 0.432326 -1.51554 0
M  V30 6450 C 617.298 1.53242 -1.76179 0
M  V30 6451 C 618.279 1.58717 -0.611801 0
M  V30 6452 O 619.464 1.74364 -0.855033 0
M  V30 6453 C 616.594 2.91278 -1.89141 0
M  V30 6454 C 615.548 3.00663 -3.04608 0
M  V30 6455 C 614.874 4.40728 -3.02759 0
M  V30 6456 C 616.174 2.74281 -4.44485 0
M  V30 6457 H 617.868 1.32886 -2.68294 0
M  V30 6458 H 615.414 0.637841 -1.29103 0
M  V30 6459 H 617.367 3.68203 -2.04951 0
M  V30 6460 H 616.091 3.12877 -0.936785 0
M  V30 6461 H 614.75 2.26179 -2.88511 0
M  V30 6462 H 614.398 4.59301 -2.05065 0
M  V30 6463 H 614.098 4.47936 -3.80299 0
M  V30 6464 H 615.622 5.19619 -3.20669 0
M  V30 6465 H 617.036 3.40936 -4.60907 0
M  V30 6466 H 615.433 2.92893 -5.23769 0
M  V30 6467 H 616.503 1.69856 -4.54177 0
M  V30 6468 N 617.846 1.41785 0.688094 0
M  V30 6469 C 619.074 1.44915 1.47673 0
M  V30 6470 C 619.489 0.0565786 1.88715 0
M  V30 6471 O 618.846 -0.92579 1.57275 0
M  V30 6472 C 618.897 2.36452 2.73446 0
M  V30 6473 O 618.618 3.7029 2.34131 0
M  V30 6474 C 620.119 2.48463 3.67125 0
M  V30 6475 H 617.339 0.493324 0.454832 0
M  V30 6476 H 619.883 1.86153 0.846594 0
M  V30 6477 H 618.038 1.98502 3.3268 0
M  V30 6478 H 618.452 4.19183 3.15255 0
M  V30 6479 H 619.926 3.16662 4.52138 0
M  V30 6480 H 620.403 1.51826 4.12123 0
M  V30 6481 H 621.009 2.8708 3.13792 0
M  V30 6482 N 619.324 -0.923095 1.27737 0
M  V30 6483 C 620.271 -2.02432 1.1086 0
M  V30 6484 C 621.241 -1.66098 0.00835195 0
M  V30 6485 O 622.426 -1.90027 0.171542 0
M  V30 6486 C 619.566 -3.36476 0.766671 0
M  V30 6487 C 618.679 -3.85737 1.94501 0
M  V30 6488 C 617.814 -5.08249 1.54455 0
M  V30 6489 C 616.853 -5.49818 2.6901 0
M  V30 6490 N 615.99 -6.63524 2.29521 0
M  V30 6491 H 620.83 -2.16201 2.05089 0
M  V30 6492 H 618.367 -1.05909 1.02087 0
M  V30 6493 H 620.325 -4.13569 0.549223 0
M  V30 6494 H 618.955 -3.22502 -0.13867 0
M  V30 6495 H 618.007 -3.04883 2.27487 0
M  V30 6496 H 619.319 -4.12513 2.80419 0
M  V30 6497 H 618.473 -5.92857 1.28862 0
M  V30 6498 H 617.212 -4.83261 0.656534 0
M  V30 6499 H 616.217 -4.63757 2.95313 0
M  V30 6500 H 617.442 -5.76799 3.5844 0
M  V30 6501 H 615.388 -6.40185 1.43177 0
M  V30 6502 H 615.305 -6.89978 3.08977 0
M  V30 6503 H 616.573 -7.51461 2.07187 0
M  V30 6504 N 620.802 -1.09834 -1.13024 0
M  V30 6505 C 622.218 -0.828875 -1.36388 0
M  V30 6506 C 622.418 0.554756 -1.93713 0
M  V30 6507 O 621.474 1.30882 -2.15931 0
M  V30 6508 C 622.787 -1.92352 -2.3113 0
M  V30 6509 C 624.335 -1.95124 -2.44735 0
M  V30 6510 C 624.81 -3.03745 -3.42787 0
M  V30 6511 N 626.301 -3.03012 -3.5034 0
M  V30 6512 C 627.036 -3.83699 -4.26101 0
M  V30 6513 N 626.532 -4.74306 -5.04981 0
M  V30 6514 N 628.325 -3.71942 -4.21445 0
M  V30 6515 H 620.476 -1.99029 -0.74169 0
M  V30 6516 H 622.739 -0.864557 -0.388903 0
M  V30 6517 H 622.445 -2.91906 -1.96172 0
M  V30 6518 H 622.319 -1.80536 -3.3119 0
M  V30 6519 H 624.706 -0.962069 -2.78977 0
M  V30 6520 H 624.787 -2.11018 -1.44586 0
M  V30 6521 H 624.431 -4.02878 -3.09276 0
M  V30 6522 H 624.361 -2.85094 -4.42752 0
M  V30 6523 H 626.852 -2.37352 -2.94062 0
M  V30 6524 H 627.165 -5.32446 -5.60108 0
M  V30 6525 H 625.51 -4.78339 -5.04199 0
M  V30 6526 H 628.701 -3.00513 -3.589 0
M  V30 6527 H 628.874 -4.35062 -4.80235 0
M  V30 6528 N 622.28 1.30327 -0.886154 0
M  V30 6529 C 623.529 1.95373 -0.501243 0
M  V30 6530 C 623.842 1.70722 0.954634 0
M  V30 6531 O 625.048 2.29761 1.44644 0
M  V30 6532 C 623.504 3.49828 -0.845493 0
M  V30 6533 C 623.112 3.83296 -2.31922 0
M  V30 6534 C 624.856 4.2118 -0.529838 0
M  V30 6535 C 622.763 5.30935 -2.60504 0
M  V30 6536 H 621.693 0.731274 -0.183722 0
M  V30 6537 H 624.344 1.48258 -1.08129 0
M  V30 6538 H 622.726 3.95522 -0.19452 0
M  V30 6539 H 623.9 3.48508 -3.01461 0
M  V30 6540 H 622.215 3.2505 -2.60253 0
M  V30 6541 H 624.812 5.29825 -0.720401 0
M  V30 6542 H 625.155 4.12902 0.530828 0
M  V30 6543 H 625.688 3.81173 -1.13806 0
M  V30 6544 H 622.427 5.44265 -3.65316 0
M  V30 6545 H 621.947 5.67019 -1.95575 0
M  V30 6546 H 623.626 5.98381 -2.46066 0
M  V30 6547 N 623.758 0.647228 1.43697 0
M  V30 6548 C 625.169 0.238689 1.85168 0
M  V30 6549 C 625.52 -1.21345 1.54175 0
M  V30 6550 O 624.645 -1.92542 0.987743 0
M  V30 6551 C 625.24 0.426422 3.36106 0
M  V30 6552 C 623.799 0.0722541 3.76331 0
M  V30 6553 C 622.946 0.732153 2.6746 0
M  V30 6554 H 625.897 0.851309 1.33934 0
M  V30 6555 H 625.918 -0.32987 3.79067 0
M  V30 6556 H 625.43 1.48339 3.58632 0
M  V30 6557 H 623.531 -0.982355 3.59417 0
M  V30 6558 H 623.644 0.493541 4.76551 0
M  V30 6559 H 622.008 0.16594 2.54159 0
M  V30 6560 H 622.791 1.79204 2.92816 0
M  V30 6561 N 625.236 -1.5273 0.388769 0
M  V30 6562 C 626.166 -2.29353 -0.438111 0
M  V30 6563 C 627.147 -1.32719 -1.06394 0
M  V30 6564 O 628.332 -1.61612 -1.07681 0
M  V30 6565 C 625.462 -3.09995 -1.56589 0
M  V30 6566 C 624.416 -4.14509 -1.06613 0
M  V30 6567 C 623.742 -4.83372 -2.28594 0
M  V30 6568 C 625.042 -5.22127 -0.134459 0
M  V30 6569 H 626.736 -2.98723 0.201206 0
M  V30 6570 H 624.282 -1.43665 0.0982089 0
M  V30 6571 H 626.235 -3.62357 -2.15118 0
M  V30 6572 H 624.959 -2.38357 -2.23279 0
M  V30 6573 H 623.618 -3.63128 -0.503383 0
M  V30 6574 H 623.266 -4.08283 -2.93792 0
M  V30 6575 H 622.966 -5.54012 -1.95817 0
M  V30 6576 H 624.49 -5.38538 -2.87766 0
M  V30 6577 H 625.904 -5.69851 -0.627914 0
M  V30 6578 H 624.301 -6.00011 0.103534 0
M  V30 6579 H 625.371 -4.77971 0.816798 0
M  V30 6580 N 626.714 -0.118576 -1.57153 0
M  V30 6581 C 628.13 0.238014 -1.57815 0
M  V30 6582 C 628.33 1.66747 -1.13127 0
M  V30 6583 O 627.386 2.38867 -0.818462 0
M  V30 6584 C 628.699 0.00508207 -3.007 0
M  V30 6585 C 630.247 0.0710139 -3.12919 0
M  V30 6586 C 630.722 -0.13422 -4.57803 0
M  V30 6587 N 632.213 -0.0801755 -4.63131 0
M  V30 6588 C 632.948 -0.213885 -5.73001 0
M  V30 6589 N 632.444 -0.403742 -6.91623 0
M  V30 6590 N 634.237 -0.15349 -5.6189 0
M  V30 6591 H 626.388 -1.05226 -1.84503 0
M  V30 6592 H 628.651 -0.414318 -0.852669 0
M  V30 6593 H 628.357 -0.983125 -3.3768 0
M  V30 6594 H 628.231 0.73714 -3.69927 0
M  V30 6595 H 630.618 1.04975 -2.75798 0
M  V30 6596 H 630.699 -0.692918 -2.46236 0
M  V30 6597 H 630.343 -1.10992 -4.95624 0
M  V30 6598 H 630.273 0.649692 -5.22577 0
M  V30 6599 H 632.764 0.0630689 -3.77847 0
M  V30 6600 H 633.077 -0.496645 -7.71202 0
M  V30 6601 H 631.422 -0.43971 -6.93608 0
M  V30 6602 H 634.613 -0.00613174 -4.681 0
M  V30 6603 H 634.786 -0.261138 -6.47474 0
M  V30 6604 N 628.193 1.56834 0.155195 0
M  V30 6605 C 629.609 1.51315 0.50755 0
M  V30 6606 C 629.809 0.825614 1.83809 0
M  V30 6607 O 628.865 0.39271 2.49427 0
M  V30 6608 C 630.178 2.96074 0.52542 0
M  V30 6609 C 631.726 3.06968 0.611505 0
M  V30 6610 C 632.201 4.53218 0.660115 0
M  V30 6611 N 633.692 4.5753 0.722564 0
M  V30 6612 C 634.427 5.68056 0.781023 0
M  V30 6613 N 633.923 6.88173 0.799327 0
M  V30 6614 N 635.716 5.56068 0.821278 0
M  V30 6615 H 627.867 1.9993 -0.717063 0
M  V30 6616 H 630.13 0.911507 -0.260496 0
M  V30 6617 H 629.836 3.49599 -0.383875 0
M  V30 6618 H 629.71 3.51587 1.36624 0
M  V30 6619 H 632.097 2.53468 1.51122 0
M  V30 6620 H 632.178 2.54513 -0.256306 0
M  V30 6621 H 631.822 5.07354 -0.23541 0
M  V30 6622 H 631.752 5.03447 1.5443 0
M  V30 6623 H 634.243 3.71054 0.716049 0
M  V30 6624 H 634.556 7.6816 0.845553 0
M  V30 6625 H 632.901 6.90751 0.767337 0
M  V30 6626 H 636.092 4.61142 0.804091 0
M  V30 6627 H 636.265 6.42223 0.863372 0
M  V30 6628 N 629.671 -0.424282 1.51781 0
M  V30 6629 C 630.603 -1.53457 1.70246 0
M  V30 6630 C 631.616 -1.52004 0.582967 0
M  V30 6631 O 632.805 -1.56544 0.857683 0
M  V30 6632 C 629.905 -2.92368 1.71389 0
M  V30 6633 C 629.078 -3.1818 3.00133 0
M  V30 6634 C 628.137 -4.36884 2.9329 0
M  V30 6635 O 627.163 -4.34901 3.67219 0
M  V30 6636 N 628.365 -5.4117 2.10036 0
M  V30 6637 H 631.13 -1.38017 2.66029 0
M  V30 6638 H 628.691 -0.613394 1.4983 0
M  V30 6639 H 630.683 -3.6982 1.64362 0
M  V30 6640 H 629.253 -3.0134 0.831449 0
M  V30 6641 H 628.473 -2.28908 3.20928 0
M  V30 6642 H 629.761 -3.32261 3.85331 0
M  V30 6643 H 629.159 -5.45623 1.49373 0
M  V30 6644 H 627.716 -6.17425 2.08878 0
M  V30 6645 N 631.149 -1.42148 -0.680565 0
M  V30 6646 C 632.395 -1.42521 -1.44277 0
M  V30 6647 C 632.728 -0.0393718 -1.9416 0
M  V30 6648 O 632.003 0.935425 -1.70529 0
M  V30 6649 C 632.286 -2.44475 -2.64394 0
M  V30 6650 C 632.139 -3.92226 -2.20179 0
M  V30 6651 C 633.458 -2.43491 -3.66606 0
M  V30 6652 H 630.577 -0.518985 -0.523282 0
M  V30 6653 H 633.219 -1.73524 -0.773914 0
M  V30 6654 H 631.369 -2.18168 -3.21458 0
M  V30 6655 H 633.041 -4.29493 -1.68327 0
M  V30 6656 H 631.284 -4.0637 -1.5181 0
M  V30 6657 H 631.955 -4.59133 -3.06433 0
M  V30 6658 H 634.431 -2.66872 -3.19247 0
M  V30 6659 H 633.307 -3.16816 -4.4824 0
M  V30 6660 H 633.568 -1.45881 -4.17338 0
M  V30 6661 N 632.627 0.916307 -1.28225 0
M  V30 6662 C 633.855 1.69901 -1.18073 0
M  V30 6663 C 634.27 1.86988 0.260968 0
M  V30 6664 O 633.627 1.39505 1.17663 0
M  V30 6665 C 633.678 3.09254 -1.87201 0
M  V30 6666 O 633.399 2.92959 -3.2574 0
M  V30 6667 C 634.9 4.0362 -1.83319 0
M  V30 6668 H 632.12 0.531181 -0.409985 0
M  V30 6669 H 634.664 1.14703 -1.69303 0
M  V30 6670 H 632.819 3.61277 -1.39848 0
M  V30 6671 H 633.233 3.81139 -3.60324 0
M  V30 6672 H 634.707 4.98873 -2.36282 0
M  V30 6673 H 635.184 4.3176 -0.805007 0
M  V30 6674 H 635.79 3.57524 -2.3034 0
M  V30 6675 N 634.105 1.10431 1.1244 0
M  V30 6676 C 635.351 0.847972 1.84221 0
M  V30 6677 C 635.684 -0.624903 1.83871 0
M  V30 6678 O 634.959 -1.46074 1.28423 0
M  V30 6679 C 635.242 1.39695 3.319 0
M  V30 6680 C 635.095 2.93668 3.40704 0
M  V30 6681 C 636.414 1.03924 4.27654 0
M  V30 6682 H 633.533 0.309502 0.668863 0
M  V30 6683 H 636.175 1.36745 1.31912 0
M  V30 6684 H 634.325 0.955095 3.76577 0
M  V30 6685 H 635.997 3.46379 3.04662 0
M  V30 6686 H 634.24 3.30272 2.81252 0
M  V30 6687 H 634.911 3.27162 4.446 0
M  V30 6688 H 637.387 1.42049 3.91102 0
M  V30 6689 H 636.263 1.45027 5.29394 0
M  V30 6690 H 636.524 -0.051336 4.4207 0
M  V30 6691 N 635.583 -1.29855 0.893053 0
M  V30 6692 C 636.808 -2.00512 0.530066 0
M  V30 6693 C 637.233 -1.66446 -0.876199 0
M  V30 6694 O 636.591 -0.885446 -1.58207 0
M  V30 6695 C 636.639 -3.53308 0.721505 0
M  V30 6696 O 635.743 -4.11764 -0.228994 0
M  V30 6697 H 635.084 -0.630617 0.207891 0
M  V30 6698 H 637.614 -1.6551 1.20282 0
M  V30 6699 H 637.624 -4.03206 0.623599 0
M  V30 6700 H 636.299 -3.77439 1.74678 0
M  V30 6701 H 634.876 -3.72805 -0.0841034 0
M  V30 6702 N 637.061 -0.65484 -1.43351 0
M  V30 6703 C 638.024 0.0263562 -2.29185 0
M  V30 6704 C 639.024 0.748951 -1.42293 0
M  V30 6705 O 640.214 0.589957 -1.63906 0
M  V30 6706 C 637.346 1.04806 -3.2439 0
M  V30 6707 H 638.539 -0.728883 -2.90908 0
M  V30 6708 H 636.092 -0.416149 -1.50658 0
M  V30 6709 H 636.827 1.83247 -2.67565 0
M  V30 6710 H 636.612 0.533554 -3.88453 0
M  V30 6711 H 638.102 1.52372 -3.88809 0
M  V30 6712 N 638.539 1.52521 -0.396863 0
M  V30 6713 C 639.449 2.30403 0.44178 0
M  V30 6714 C 640.465 1.37625 1.06468 0
M  V30 6715 O 641.641 1.70697 1.06886 0
M  V30 6716 C 638.706 3.1013 1.54986 0
M  V30 6717 C 637.767 4.18628 0.951279 0
M  V30 6718 C 637 4.94543 2.00655 0
M  V30 6719 O 637.223 4.70629 3.22281 0
M  V30 6720 O 636.157 5.797 1.61962 0
M  V30 6721 H 639.983 3.03087 -0.192892 0
M  V30 6722 H 637.568 1.48537 -0.16038 0
M  V30 6723 H 639.45 3.59816 2.19341 0
M  V30 6724 H 638.125 2.40251 2.16935 0
M  V30 6725 H 637.032 3.73119 0.270773 0
M  V30 6726 H 638.365 4.90763 0.375887 0
M  V30 6727 N 640.017 0.126909 1.57088 0
M  V30 6728 C 641.242 -0.53997 2.00248 0
M  V30 6729 C 641.667 -1.58927 1.00618 0
M  V30 6730 O 641.025 -1.81288 -0.0210131 0
M  V30 6731 C 641.073 -1.13565 3.4225 0
M  V30 6732 O 640.177 -2.25103 3.45547 0
M  V30 6733 H 639.518 -0.13412 0.650314 0
M  V30 6734 H 642.048 0.217718 2.03438 0
M  V30 6735 H 642.058 -1.46925 3.80627 0
M  V30 6736 H 640.733 -0.367122 4.14277 0
M  V30 6737 H 639.31 -1.93123 3.18995 0
M  V30 6738 N 641.495 -1.56914 -0.146875 0
M  V30 6739 C 642.72 -1.87881 -0.878386 0
M  V30 6740 C 643.145 -0.715945 -1.73942 0
M  V30 6741 O 642.503 0.334447 -1.78189 0
M  V30 6742 C 642.551 -3.17431 -1.71084 0
M  V30 6743 O 641.655 -3.01374 -2.81509 0
M  V30 6744 H 640.996 -0.617289 -0.244644 0
M  V30 6745 H 643.526 -2.04136 -0.137654 0
M  V30 6746 H 643.536 -3.49455 -2.10582 0
M  V30 6747 H 642.211 -4.01671 -1.07856 0
M  V30 6748 H 640.788 -2.80758 -2.45416 0
M  V30 6749 N 642.974 0.416227 -1.52004 0
M  V30 6750 C 644.199 1.19029 -1.69843 0
M  V30 6751 C 644.624 1.83708 -0.404103 0
M  V30 6752 O 643.982 1.69711 0.637787 0
M  V30 6753 C 644.03 2.23439 -2.83032 0
M  V30 6754 O 643.134 3.29419 -2.48106 0
M  V30 6755 H 642.475 0.347785 -0.565634 0
M  V30 6756 H 645.005 0.488871 -1.98674 0
M  V30 6757 H 645.015 2.67884 -3.07737 0
M  V30 6758 H 643.69 1.75745 -3.76944 0
M  V30 6759 H 642.267 2.90303 -2.34048 0
M  V30 6760 N 644.452 1.42507 0.673017 0
M  V30 6761 C 645.677 1.4668 1.46627 0
M  V30 6762 C 646.102 0.080066 1.8793 0
M  V30 6763 O 645.46 -0.921879 1.56112 0
M  V30 6764 C 645.508 2.40091 2.69051 0
M  V30 6765 O 644.612 1.8735 3.67387 0
M  V30 6766 H 643.953 0.496908 0.44043 0
M  V30 6767 H 646.483 1.87215 0.825334 0
M  V30 6768 H 646.493 2.56731 3.17101 0
M  V30 6769 H 645.168 3.4084 2.3833 0
M  V30 6770 H 643.745 1.80274 3.26429 0
M  V30 6771 N 645.93 -0.909495 1.28709 0
M  V30 6772 C 646.863 -2.01388 1.07323 0
M  V30 6773 C 647.841 -1.62596 -0.0119757 0
M  V30 6774 O 649.025 -1.88003 0.136796 0
M  V30 6775 C 646.152 -3.32755 0.631797 0
M  V30 6776 C 645.198 -3.90532 1.71428 0
M  V30 6777 S 646.031 -4.20853 3.31124 0
M  V30 6778 C 647.187 -5.55276 2.88825 0
M  V30 6779 H 647.42 -2.19219 2.00824 0
M  V30 6780 H 644.953 -1.05489 1.12745 0
M  V30 6781 H 646.911 -4.08702 0.38381 0
M  V30 6782 H 645.572 -3.12818 -0.283451 0
M  V30 6783 H 644.765 -4.85385 1.35712 0
M  V30 6784 H 644.367 -3.21237 1.91528 0
M  V30 6785 H 646.659 -6.35341 2.3526 0
M  V30 6786 H 647.602 -5.95907 3.82492 0
M  V30 6787 H 648.01 -5.16666 2.27412 0
M  V30 6788 N 647.408 -1.11026 -1.11852 0
M  V30 6789 C 648.356 -0.759643 -2.19846 0
M  V30 6790 C 649.35 0.246964 -1.6759 0
M  V30 6791 O 650.556 0.106693 -1.79684 0
M  V30 6792 H 646.931 -0.22775 -0.716683 0
M  V30 6793 H 648.902 -1.6792 -2.46669 0
M  V30 6794 C 647.651 -0.214364 -3.47039 0
M  V30 6795 H 646.974 -0.980175 -3.87599 0
M  V30 6796 H 648.414 -0.00717047 -4.23999 0
M  V30 6797 C 646.873 1.05436 -3.19976 0
M  V30 6798 O 647.403 2.13483 -3.40276 0
M  V30 6799 N 645.609 0.975436 -2.7374 0
M  V30 6800 H 645.156 0.0960853 -2.57421 0
M  V30 6801 H 645.114 1.82501 -2.5601 0
M  V30 6802 N 648.886 1.2938 -0.899927 0
M  V30 6803 C 650.111 2.00228 -0.540692 0
M  V30 6804 C 650.536 1.66909 0.867359 0
M  V30 6805 O 649.894 0.893824 1.57735 0
M  V30 6806 C 649.942 3.52921 -0.740232 0
M  V30 6807 O 649.046 4.11879 0.207154 0
M  V30 6808 H 648.387 0.629505 -0.211233 0
M  V30 6809 H 650.917 1.6487 -1.21158 0
M  V30 6810 H 650.927 4.0287 -0.644973 0
M  V30 6811 H 649.602 3.76508 -1.76677 0
M  V30 6812 H 648.179 3.72845 0.0643315 0
M  V30 6813 N 650.364 0.662433 1.43002 0
M  V30 6814 C 651.312 -0.035345 2.32573 0
M  V30 6815 C 652.306 -0.803505 1.49131 0
M  V30 6816 O 653.512 -0.712865 1.65282 0
M  V30 6817 H 649.887 -0.0302194 0.751393 0
M  V30 6818 H 651.858 0.737686 2.89138 0
M  V30 6819 C 650.607 -0.981575 3.33557 0
M  V30 6820 H 649.93 -0.399914 3.97795 0
M  V30 6821 H 651.37 -1.43873 3.98844 0
M  V30 6822 C 649.829 -2.08204 2.64863 0
M  V30 6823 O 650.359 -3.16698 2.47113 0
M  V30 6824 N 648.565 -1.85022 2.24088 0
M  V30 6825 H 648.112 -0.967909 2.38724 0
M  V30 6826 H 648.07 -2.58845 1.78457 0
M  V30 6827 N 651.842 -1.52309 0.404946 0
M  V30 6828 C 653.07 -2.06185 -0.171818 0
M  V30 6829 C 653.485 -1.27536 -1.39212 0
M  V30 6830 O 652.842 -0.326112 -1.79563 0
M  V30 6831 C 652.893 -3.57647 -0.526417 0
M  V30 6832 O 652.614 -4.3332 0.645417 0
M  V30 6833 C 654.115 -4.27925 -1.15736 0
M  V30 6834 H 651.335 -0.670632 -0.0222328 0
M  V30 6835 H 653.879 -1.96259 0.574692 0
M  V30 6836 H 652.034 -3.67595 -1.22282 0
M  V30 6837 H 652.448 -5.23328 0.35042 0
M  V30 6838 H 653.922 -5.35093 -1.35572 0
M  V30 6839 H 654.399 -3.84134 -2.12926 0
M  V30 6840 H 655.005 -4.22335 -0.501281 0
M  V30 6841 N 653.32 -0.135238 -1.57019 0
M  V30 6842 C 654.731 0.387521 -1.82634 0
M  V30 6843 C 655.082 1.65528 -1.05332 0
M  V30 6844 O 654.207 2.14381 -0.294926 0
M  V30 6845 C 654.802 0.709852 -3.3128 0
M  V30 6846 C 653.361 1.17718 -3.57518 0
M  V30 6847 C 652.508 0.194183 -2.76619 0
M  V30 6848 H 655.459 -0.360126 -1.5456 0
M  V30 6849 H 655.48 1.5657 -3.46794 0
M  V30 6850 H 654.992 -0.213024 -3.87515 0
M  V30 6851 H 653.093 2.1164 -3.06658 0
M  V30 6852 H 653.206 1.11128 -4.66034 0
M  V30 6853 H 651.57 0.684478 -2.4533 0
M  V30 6854 H 652.353 -0.722076 -3.3562 0
M  V30 6855 N 654.798 1.5699 0.138552 0
M  V30 6856 C 655.728 2.01933 1.17241 0
M  V30 6857 C 656.709 0.90033 1.44319 0
M  V30 6858 O 657.894 1.16872 1.55095 0
M  V30 6859 C 655.024 2.40711 2.50351 0
M  V30 6860 C 653.978 3.55874 2.37776 0
M  V30 6861 C 653.304 3.80491 3.75674 0
M  V30 6862 C 654.604 4.8826 1.85472 0
M  V30 6863 H 656.298 2.88551 0.798672 0
M  V30 6864 H 653.844 1.3882 0.382743 0
M  V30 6865 H 655.797 2.70754 3.22909 0
M  V30 6866 H 654.521 1.5104 2.89576 0
M  V30 6867 H 653.18 3.2601 1.67669 0
M  V30 6868 H 652.828 2.88057 4.12349 0
M  V30 6869 H 652.528 4.57998 3.68119 0
M  V30 6870 H 654.052 4.12967 4.49767 0
M  V30 6871 H 655.466 5.16965 2.4783 0
M  V30 6872 H 653.863 5.69631 1.88787 0
M  V30 6873 H 654.933 4.78071 0.810935 0
M  V30 6874 N 656.276 -0.40816 1.52223 0
M  V30 6875 C 657.522 -1.15673 1.66576 0
M  V30 6876 C 657.855 -1.90141 0.394996 0
M  V30 6877 O 657.13 -1.84798 -0.606613 0
M  V30 6878 C 657.413 -2.15042 2.88841 0
M  V30 6879 C 657.266 -1.44465 4.25969 0
M  V30 6880 C 658.585 -3.15699 3.0663 0
M  V30 6881 H 655.704 -0.41916 0.606196 0
M  V30 6882 H 658.346 -0.442348 1.84779 0
M  V30 6883 H 656.496 -2.75964 2.73452 0
M  V30 6884 H 658.168 -0.866544 4.53088 0
M  V30 6885 H 656.411 -0.746612 4.27327 0
M  V30 6886 H 657.082 -2.16976 5.07568 0
M  V30 6887 H 659.558 -2.64854 3.20923 0
M  V30 6888 H 658.434 -3.82491 3.9369 0
M  V30 6889 H 658.695 -3.83481 2.19987 0
M  V30 6890 N 657.755 -1.42862 -0.66545 0
M  V30 6891 C 659.171 -1.25993 -0.979687 0
M  V30 6892 C 659.371 -0.170831 -2.00775 0
M  V30 6893 O 658.427 0.454827 -2.4837 0
M  V30 6894 C 659.74 -2.62005 -1.47559 0
M  V30 6895 C 661.288 -2.69437 -1.59288 0
M  V30 6896 C 661.763 -4.05838 -2.12272 0
M  V30 6897 N 663.254 -4.0784 -2.19592 0
M  V30 6898 C 663.989 -5.10205 -2.61684 0
M  V30 6899 N 663.485 -6.22949 -3.03161 0
M  V30 6900 N 665.278 -4.9756 -2.61516 0
M  V30 6901 H 657.429 -2.12395 0.0150493 0
M  V30 6902 H 659.692 -0.946355 -0.0558187 0
M  V30 6903 H 659.398 -3.42605 -0.794654 0
M  V30 6904 H 659.272 -2.86566 -2.45275 0
M  V30 6905 H 661.659 -1.89178 -2.26486 0
M  V30 6906 H 661.74 -2.48655 -0.600374 0
M  V30 6907 H 661.384 -4.86559 -1.4568 0
M  V30 6908 H 661.314 -4.23977 -3.12331 0
M  V30 6909 H 663.805 -3.26452 -1.90361 0
M  V30 6910 H 664.118 -6.96899 -3.33993 0
M  V30 6911 H 662.463 -6.2644 -3.00995 0
M  V30 6912 H 665.654 -4.08551 -2.28481 0
M  V30 6913 H 665.827 -5.77468 -2.93999 0
M  V30 6914 N 659.233 0.902656 -1.29189 0
M  V30 6915 C 660.482 1.6475 -1.16362 0
M  V30 6916 C 660.795 1.93517 0.284682 0
M  V30 6917 O 662.001 2.66192 0.534229 0
M  V30 6918 C 660.457 2.96848 -2.03493 0
M  V30 6919 C 660.065 2.75687 -3.5313 0
M  V30 6920 C 661.809 3.74762 -1.99383 0
M  V30 6921 C 659.716 4.03492 -4.32375 0
M  V30 6922 H 658.646 0.618041 -0.431904 0
M  V30 6923 H 661.297 1.0008 -1.53806 0
M  V30 6924 H 659.679 3.62715 -1.58916 0
M  V30 6925 H 660.853 2.18431 -4.05739 0
M  V30 6926 H 659.168 2.11171 -3.58881 0
M  V30 6927 H 661.765 4.69515 -2.5585 0
M  V30 6928 H 662.108 4.04767 -0.973123 0
M  V30 6929 H 662.641 3.15732 -2.41988 0
M  V30 6930 H 659.38 3.78656 -5.3507 0
M  V30 6931 H 658.9 4.60318 -3.84535 0
M  V30 6932 H 660.579 4.71662 -4.42881 0
M  V30 6933 N 660.711 1.11618 1.11262 0
M  V30 6934 C 661.939 0.888739 1.8684 0
M  V30 6935 C 662.354 -0.561558 1.80255 0
M  V30 6936 O 661.711 -1.38782 1.18515 0
M  V30 6937 C 661.762 1.34422 3.35579 0
M  V30 6938 O 661.483 2.73766 3.42029 0
M  V30 6939 C 662.984 1.15246 4.28058 0
M  V30 6940 H 660.204 0.318152 0.590779 0
M  V30 6941 H 662.748 1.48398 1.40707 0
M  V30 6942 H 660.903 0.79239 3.7921 0
M  V30 6943 H 661.317 2.9355 4.34659 0
M  V30 6944 H 662.791 1.52015 5.30656 0
M  V30 6945 H 663.268 0.0922007 4.39103 0
M  V30 6946 H 663.874 1.69136 3.90222 0
M  V30 6947 N 662.189 -1.289 0.906776 0
M  V30 6948 C 663.417 -1.99401 0.551969 0
M  V30 6949 C 663.832 -1.67816 -0.865048 0
M  V30 6950 O 663.189 -0.927078 -1.57199 0
M  V30 6951 C 663.24 -3.53779 0.743152 0
M  V30 6952 O 662.961 -3.84248 2.1044 0
M  V30 6953 C 664.462 -4.41543 0.39424 0
M  V30 6954 H 661.682 -0.636926 0.211106 0
M  V30 6955 H 664.226 -1.64266 1.21807 0
M  V30 6956 H 662.381 -3.87201 0.124143 0
M  V30 6957 H 662.795 -4.78904 2.13895 0
M  V30 6958 H 664.269 -5.48957 0.578814 0
M  V30 6959 H 664.746 -4.34073 -0.669137 0
M  V30 6960 H 665.352 -4.13605 0.990491 0
M  V30 6961 N 663.667 -0.670007 -1.42649 0
M  V30 6962 C 665.083 -0.33911 -1.55956 0
M  V30 6963 C 665.283 1.1558 -1.65056 0
M  V30 6964 O 664.339 1.94111 -1.61485 0
M  V30 6965 C 665.652 -1.06522 -2.812 0
M  V30 6966 C 667.2 -1.04708 -2.94966 0
M  V30 6967 C 667.675 -1.75442 -4.23065 0
M  V30 6968 N 669.166 -1.72286 -4.29967 0
M  V30 6969 C 669.901 -2.23877 -5.27889 0
M  V30 6970 N 669.397 -2.83829 -6.31991 0
M  V30 6971 N 671.19 -2.14279 -5.19654 0
M  V30 6972 H 663.341 -1.6399 -1.34986 0
M  V30 6973 H 665.604 -0.690603 -0.649439 0
M  V30 6974 H 665.31 -2.12033 -2.80597 0
M  V30 6975 H 665.184 -0.627398 -3.71946 0
M  V30 6976 H 667.571 -0.000315966 -2.951 0
M  V30 6977 H 667.652 -1.52374 -2.05465 0
M  V30 6978 H 667.296 -2.80084 -4.23693 0
M  V30 6979 H 667.226 -1.25229 -5.11493 0
M  V30 6980 H 669.717 -1.28554 -3.55362 0
M  V30 6981 H 670.03 -3.20827 -7.03057 0
M  V30 6982 H 668.375 -2.87896 -6.32567 0
M  V30 6983 H 671.566 -1.67135 -4.37245 0
M  V30 6984 H 671.739 -2.54792 -5.95806 0
M  V30 6985 N 665.145 1.52092 -0.413018 0
M  V30 6986 C 666.075 2.30021 0.401567 0
M  V30 6987 C 667.056 1.34395 1.04269 0
M  V30 6988 O 668.241 1.63304 1.05097 0
M  V30 6989 C 665.371 3.12447 1.51638 0
M  V30 6990 C 664.325 4.16153 1.00005 0
M  V30 6991 C 663.651 4.86948 2.20875 0
M  V30 6992 C 664.951 5.22275 0.0513757 0
M  V30 6993 H 666.645 2.98365 -0.248704 0
M  V30 6994 H 664.191 1.4349 -0.121052 0
M  V30 6995 H 666.144 3.65733 2.09326 0
M  V30 6996 H 664.868 2.41879 2.19458 0
M  V30 6997 H 663.527 3.63882 0.445549 0
M  V30 6998 H 663.175 4.12905 2.8726 0
M  V30 6999 H 662.875 5.57057 1.86978 0
M  V30 7000 H 664.399 5.43048 2.79162 0
M  V30 7001 H 665.813 5.70778 0.537176 0
M  V30 7002 H 664.21 5.9977 -0.198977 0
M  V30 7003 H 665.28 4.76611 -0.892736 0
M  V30 7004 N 666.623 0.143563 1.56945 0
M  V30 7005 C 667.848 -0.518701 2.00809 0
M  V30 7006 C 668.273 -1.5785 1.02298 0
M  V30 7007 O 667.631 -1.813 -0.0017839 0
M  V30 7008 C 667.679 -1.09929 3.43436 0
M  V30 7009 O 666.783 -2.21425 3.47915 0
M  V30 7010 H 666.124 -0.127215 0.6517 0
M  V30 7011 H 668.654 0.239283 2.03196 0
M  V30 7012 H 668.664 -1.4288 3.82164 0
M  V30 7013 H 667.339 -0.323162 4.14643 0
M  V30 7014 H 665.916 -1.89728 3.21026 0
M  V30 7015 N 668.101 -1.57061 -0.130224 0
M  V30 7016 C 669.326 -1.88802 -0.858409 0
M  V30 7017 C 669.751 -0.734353 -1.73173 0
M  V30 7018 O 669.109 0.315529 -1.78533 0
M  V30 7019 C 669.157 -3.19228 -1.67708 0
M  V30 7020 O 668.261 -3.04343 -2.78297 0
M  V30 7021 H 667.602 -0.619849 -0.238083 0
M  V30 7022 H 670.132 -2.04271 -0.115995 0
M  V30 7023 H 670.142 -3.51669 -2.06864 0
M  V30 7024 H 668.817 -4.02793 -1.0359 0
M  V30 7025 H 667.394 -2.83346 -2.42425 0
M  V30 7026 N 669.579 0.400081 -1.52437 0
M  V30 7027 C 670.807 1.16768 -1.70801 0
M  V30 7028 C 671.222 1.84036 -0.421462 0
M  V30 7029 O 670.579 1.72242 0.603228 0
M  V30 7030 C 670.63 2.22403 -2.8499 0
M  V30 7031 O 670.351 1.57879 -4.08663 0
M  V30 7032 C 671.852 3.11974 -3.1494 0
M  V30 7033 H 669.072 0.350533 -0.57216 0
M  V30 7034 H 671.616 0.469534 -1.99037 0
M  V30 7035 H 669.771 2.87871 -2.59247 0
M  V30 7036 H 670.185 2.27982 -4.7236 0
M  V30 7037 H 671.659 3.82148 -3.9833 0
M  V30 7038 H 672.136 3.74858 -2.28863 0
M  V30 7039 H 672.742 2.52165 -3.42481 0
M  V30 7040 N 671.057 1.43213 0.657864 0
M  V30 7041 C 672.02 1.47687 1.75275 0
M  V30 7042 C 673.02 0.362179 1.56668 0
M  V30 7043 O 674.21 0.623734 1.62651 0
M  V30 7044 C 671.342 1.32497 3.14098 0
M  V30 7045 H 672.535 2.4519 1.7269 0
M  V30 7046 H 670.088 1.2991 0.869087 0
M  V30 7047 H 670.823 0.359831 3.22298 0
M  V30 7048 H 670.608 2.13299 3.29008 0
M  V30 7049 H 672.098 1.38549 3.93946 0
M  V30 7050 N 672.536 -0.895792 1.29666 0
M  V30 7051 C 673.813 -1.62723 1.08538 0
M  V30 7052 C 674.193 -2.07848 -0.369119 0
M  V30 7053 O 673.541 -1.8372 -1.35864 0
M  V30 7054 C 673.751 -2.80505 2.07648 0
M  V30 7055 C 675.099 -3.51098 2.3878 0
M  V30 7056 O 676.123 -2.90679 2.05874 0
M  V30 7057 O 674.982 -4.60028 2.9502 0
M  V30 7058 H 672.076 -0.714692 0.416106 0
M  V30 7059 H 674.622 -0.943517 1.41053 0
M  V30 7060 H 673.394 -2.44386 3.05599 0
M  V30 7061 H 673.017 -3.5658 1.75887 0
M  V30 7062 N 674.014 -1.12206 -1.10668 0
M  V30 7063 C 675.242 -0.898635 -1.86366 0
M  V30 7064 C 675.657 0.551991 -1.80551 0
M  V30 7065 O 675.014 1.38152 -1.19249 0
M  V30 7066 C 675.065 -1.36199 -3.34861 0
M  V30 7067 O 674.786 -2.75576 -3.40573 0
M  V30 7068 C 676.287 -1.17515 -4.2744 0
M  V30 7069 H 673.507 -0.321281 -0.589084 0
M  V30 7070 H 676.051 -1.49142 -1.39918 0
M  V30 7071 H 674.206 -0.81249 -3.78784 0
M  V30 7072 H 674.62 -2.95851 -4.33096 0
M  V30 7073 H 676.094 -1.54827 -5.29842 0
M  V30 7074 H 676.571 -0.115486 -4.39048 0
M  V30 7075 H 677.177 -1.71203 -3.89319 0
M  V30 7076 N 675.492 1.28418 -0.913599 0
M  V30 7077 C 676.903 1.77024 -0.593237 0
M  V30 7078 C 677.254 1.74779 0.891441 0
M  V30 7079 O 676.379 1.34237 1.69733 0
M  V30 7080 C 676.974 3.21456 -1.07011 0
M  V30 7081 C 675.533 3.67786 -0.800664 0
M  V30 7082 C 674.68 2.48185 -1.23691 0
M  V30 7083 H 677.631 1.14883 -1.09487 0
M  V30 7084 H 677.652 3.78269 -0.411481 0
M  V30 7085 H 677.164 3.23058 -2.1507 0
M  V30 7086 H 675.265 3.71644 0.266725 0
M  V30 7087 H 675.378 4.57934 -1.4083 0
M  V30 7088 H 673.742 2.46116 -0.655655 0
M  V30 7089 H 674.525 2.52506 -2.32585 0
M  V30 7090 N 676.97 0.677563 1.42291 0
M  V30 7091 C 677.903 -0.0492638 2.28147 0
M  V30 7092 C 678.881 -0.805936 1.41221 0
M  V30 7093 O 680.065 -0.80049 1.70659 0
M  V30 7094 C 677.192 -1.07697 3.21122 0
M  V30 7095 C 676.238 -0.41556 4.24471 0
M  V30 7096 S 677.071 0.828876 5.29046 0
M  V30 7097 C 678.227 -0.197687 6.25588 0
M  V30 7098 H 678.46 0.678965 2.89443 0
M  V30 7099 H 675.993 0.467201 1.47162 0
M  V30 7100 H 677.951 -1.66482 3.75225 0
M  V30 7101 H 676.612 -1.77766 2.58956 0
M  V30 7102 H 675.805 -1.19112 4.89723 0
M  V30 7103 H 675.407 0.0987632 3.7387 0
M  V30 7104 H 677.699 -1.05656 6.69211 0
M  V30 7105 H 678.642 0.420437 7.06851 0
M  V30 7106 H 679.05 -0.544401 5.61869 0
M  V30 7107 N 678.448 -1.51871 0.421078 0
M  V30 7108 C 679.378 -2.30231 -0.389363 0
M  V30 7109 C 680.359 -1.34946 -1.03555 0
M  V30 7110 O 681.544 -1.63859 -1.04229 0
M  V30 7111 C 678.674 -3.13247 -1.49979 0
M  V30 7112 C 677.628 -4.16677 -0.977966 0
M  V30 7113 C 676.954 -4.88112 -2.1829 0
M  V30 7114 C 678.254 -5.22295 -0.0236775 0
M  V30 7115 H 679.948 -2.98229 0.264524 0
M  V30 7116 H 677.494 -1.43424 0.12866 0
M  V30 7117 H 679.447 -3.66838 -2.07383 0
M  V30 7118 H 678.171 -2.4304 -2.18173 0
M  V30 7119 H 676.83 -3.64114 -0.426245 0
M  V30 7120 H 676.478 -4.14423 -2.85066 0
M  V30 7121 H 676.178 -5.58041 -1.84021 0
M  V30 7122 H 677.702 -5.44521 -2.76278 0
M  V30 7123 H 679.116 -5.71055 -0.506899 0
M  V30 7124 H 677.513 -5.99656 0.230782 0
M  V30 7125 H 678.583 -4.76131 0.917999 0
M  V30 7126 N 679.926 -0.151884 -1.56866 0
M  V30 7127 C 680.889 0.771861 -2.15812 0
M  V30 7128 C 681.889 1.17181 -1.10115 0
M  V30 7129 O 683.079 1.09194 -1.35729 0
M  V30 7130 C 680.211 2.04806 -2.7252 0
M  V30 7131 H 681.404 0.259021 -2.98779 0
M  V30 7132 H 678.957 0.097588 -1.55995 0
M  V30 7133 H 679.692 2.60445 -1.93233 0
M  V30 7134 H 679.477 1.77044 -3.49854 0
M  V30 7135 H 680.967 2.70771 -3.1792 0
M  V30 7136 N 681.404 1.57128 0.121893 0
M  V30 7137 C 682.652 1.84335 0.828548 0
M  V30 7138 C 682.973 0.736632 1.80551 0
M  V30 7139 O 682.243 -0.23962 1.94429 0
M  V30 7140 H 680.823 0.680108 0.30897 0
M  V30 7141 H 683.485 1.9459 0.109906 0
M  V30 7142 H 682.581 2.80152 1.37554 0
M  V30 7143 N 682.882 -0.391992 1.52647 0
M  V30 7144 C 684.128 -1.139 1.67793 0
M  V30 7145 C 684.461 -1.89711 0.41514 0
M  V30 7146 O 683.736 -1.85431 -0.586979 0
M  V30 7147 C 684.019 -2.11966 2.91105 0
M  V30 7148 C 683.872 -1.39939 4.27478 0
M  V30 7149 C 685.191 -3.1243 3.09961 0
M  V30 7150 H 682.31 -0.412707 0.610608 0
M  V30 7151 H 684.952 -0.422725 1.85238 0
M  V30 7152 H 683.102 -2.73048 2.76364 0
M  V30 7153 H 684.774 -0.818439 4.53982 0
M  V30 7154 H 683.017 -0.701246 4.28095 0
M  V30 7155 H 683.688 -2.1158 5.09841 0
M  V30 7156 H 686.164 -2.61435 3.23714 0
M  V30 7157 H 685.04 -3.78294 3.97725 0
M  V30 7158 H 685.301 -3.81127 2.24042 0
M  V30 7159 N 684.36 -1.4356 -0.65026 0
M  V30 7160 C 685.585 -1.48995 -1.44275 0
M  V30 7161 C 686.01 -0.109954 -1.87778 0
M  V30 7162 O 685.368 0.896926 -1.57559 0
M  V30 7163 C 685.416 -2.44341 -2.65198 0
M  V30 7164 O 684.52 -1.93172 -3.6436 0
M  V30 7165 H 683.861 -0.503852 -0.432469 0
M  V30 7166 H 686.391 -1.88504 -0.795446 0
M  V30 7167 H 686.401 -2.61743 -3.12977 0
M  V30 7168 H 685.076 -3.44588 -2.32877 0
M  V30 7169 H 683.653 -1.85445 -3.23519 0
M  V30 7170 N 685.838 0.888903 -1.30139 0
M  V30 7171 C 686.748 2.02705 -1.18101 0
M  V30 7172 C 687.764 1.73702 -0.101809 0
M  V30 7173 O 688.94 1.98906 -0.315984 0
M  V30 7174 C 686.005 3.35616 -0.869651 0
M  V30 7175 C 685.066 3.78067 -2.03381 0
M  V30 7176 C 684.299 5.04635 -1.73721 0
M  V30 7177 O 684.522 5.66531 -0.663267 0
M  V30 7178 O 683.456 5.43399 -2.58845 0
M  V30 7179 H 687.282 2.15788 -2.13704 0
M  V30 7180 H 684.867 1.01426 -1.09695 0
M  V30 7181 H 686.749 4.15358 -0.711043 0
M  V30 7182 H 685.424 3.23651 0.0565002 0
M  V30 7183 H 684.331 2.99046 -2.24772 0
M  V30 7184 H 685.664 3.94631 -2.94155 0
M  V30 7185 N 687.317 1.12792 1.10072 0
M  V30 7186 C 688.547 0.907189 1.85617 0
M  V30 7187 C 688.955 -0.547181 1.81115 0
M  V30 7188 O 688.298 -1.39024 1.20075 0
M  V30 7189 C 688.36 1.30872 3.34832 0
M  V30 7190 C 688.024 2.77516 3.6309 0
M  V30 7191 C 689.021 3.75696 3.59373 0
M  V30 7192 C 686.706 3.14513 3.91646 0
M  V30 7193 C 688.7 5.08888 3.83812 0
M  V30 7194 C 686.387 4.47886 4.15742 0
M  V30 7195 C 687.385 5.44882 4.11816 0
M  V30 7196 O 687.073 6.7585 4.35295 0
M  V30 7197 H 686.805 0.323855 0.593375 0
M  V30 7198 H 689.359 1.50262 1.40038 0
M  V30 7199 H 687.589 0.656518 3.81086 0
M  V30 7200 H 689.278 1.06153 3.91773 0
M  V30 7201 H 690.044 3.48458 3.37345 0
M  V30 7202 H 685.923 2.39622 3.93831 0
M  V30 7203 H 689.467 5.84586 3.80663 0
M  V30 7204 H 685.364 4.74851 4.37249 0
M  V30 7205 H 686.132 6.81853 4.52791 0
M  V30 7206 N 688.795 -1.27931 0.920396 0
M  V30 7207 C 689.705 -2.30824 0.419212 0
M  V30 7208 C 690.721 -1.66767 -0.496461 0
M  V30 7209 O 691.897 -1.97763 -0.38104 0
M  V30 7210 C 688.962 -3.45158 -0.326601 0
M  V30 7211 C 688.023 -4.24754 0.623098 0
M  V30 7212 C 687.256 -5.33629 -0.0872172 0
M  V30 7213 O 687.479 -5.55204 -1.30784 0
M  V30 7214 O 686.413 -5.99091 0.580875 0
M  V30 7215 H 690.239 -2.75716 1.27337 0
M  V30 7216 H 687.824 -1.32747 0.685465 0
M  V30 7217 H 689.706 -4.14716 -0.747559 0
M  V30 7218 H 688.381 -3.02336 -1.15648 0
M  V30 7219 H 687.288 -3.57759 1.09359 0
M  V30 7220 H 688.621 -4.71272 1.41998 0
M  V30 7221 N 690.273 -0.685099 -1.4193 0
M  V30 7222 C 691.203 -0.0273506 -2.33484 0
M  V30 7223 C 692.184 0.778366 -1.51246 0
M  V30 7224 O 693.369 0.733449 -1.79817 0
M  V30 7225 C 690.499 0.917272 -3.34968 0
M  V30 7226 C 689.453 0.21941 -4.27437 0
M  V30 7227 C 688.779 1.27768 -5.1921 0
M  V30 7228 C 690.079 -0.907894 -5.14349 0
M  V30 7229 H 691.773 -0.791994 -2.88735 0
M  V30 7230 H 689.319 -0.382308 -1.38832 0
M  V30 7231 H 691.272 1.38657 -3.97935 0
M  V30 7232 H 689.996 1.71346 -2.78043 0
M  V30 7233 H 688.655 -0.229757 -3.65879 0
M  V30 7234 H 688.303 2.06612 -4.58607 0
M  V30 7235 H 688.003 0.815803 -5.81909 0
M  V30 7236 H 689.527 1.7477 -5.85054 0
M  V30 7237 H 690.941 -0.519348 -5.70943 0
M  V30 7238 H 689.338 -1.2962 -5.85934 0
M  V30 7239 H 690.408 -1.75218 -4.52136 0
M  V30 7240 N 691.751 1.51645 -0.429126 0
M  V30 7241 C 693.162 1.86665 0.0359003 0
M  V30 7242 C 693.513 1.34677 1.42676 0
M  V30 7243 O 692.638 0.694195 2.04963 0
M  V30 7244 C 693.233 3.38724 0.0719221 0
M  V30 7245 C 691.792 3.7331 0.481336 0
M  V30 7246 C 690.939 2.75313 -0.331329 0
M  V30 7247 H 693.89 1.44987 -0.645333 0
M  V30 7248 H 693.911 3.7011 0.883118 0
M  V30 7249 H 693.423 3.76532 -0.940495 0
M  V30 7250 H 691.524 3.41088 1.49966 0
M  V30 7251 H 691.637 4.78631 0.211837 0
M  V30 7252 H 690.001 2.53839 0.209204 0
M  V30 7253 H 690.784 3.15963 -1.34247 0
M  V30 7254 N 693.229 0.160201 1.56784 0
M  V30 7255 C 694.139 -0.787167 2.21 0
M  V30 7256 C 695.155 -1.26167 1.19825 0
M  V30 7257 O 696.331 -1.31611 1.52448 0
M  V30 7258 C 693.396 -2.00364 2.8294 0
M  V30 7259 C 692.457 -1.5771 3.99282 0
M  V30 7260 C 691.69 -2.73558 4.58259 0
M  V30 7261 O 691.913 -3.90129 4.16119 0
M  V30 7262 O 690.847 -2.48271 5.48311 0
M  V30 7263 H 694.673 -0.270462 3.02493 0
M  V30 7264 H 692.258 -0.0674666 1.49248 0
M  V30 7265 H 694.14 -2.71529 3.22257 0
M  V30 7266 H 692.815 -2.50961 2.04451 0
M  V30 7267 H 691.722 -0.835274 3.64656 0
M  V30 7268 H 693.055 -1.11815 4.79331 0
M  V30 7269 N 694.707 -1.5719 -0.113559 0
M  V30 7270 C 695.984 -1.76117 -0.850999 0
M  V30 7271 C 696.364 -0.737085 -1.97814 0
M  V30 7272 O 695.712 0.237942 -2.27258 0
M  V30 7273 C 695.922 -3.21298 -1.36266 0
M  V30 7274 C 697.27 -3.83955 -1.81283 0
M  V30 7275 O 698.294 -3.24934 -1.45933 0
M  V30 7276 O 697.153 -4.87707 -2.46585 0
M  V30 7277 H 694.247 -0.721308 -0.404529 0
M  V30 7278 H 696.793 -1.69423 -0.0968756 0
M  V30 7279 H 695.565 -3.87355 -0.554235 0
M  V30 7280 H 695.188 -3.32552 -2.17933 0
M  V30 7281 N 696.185 0.383891 -1.52853 0
M  V30 7282 C 697.596 0.961591 -1.60032 0
M  V30 7283 C 697.947 1.90819 -0.456333 0
M  V30 7284 O 697.072 2.12288 0.419873 0
M  V30 7285 C 697.667 1.75078 -2.90057 0
M  V30 7286 C 696.226 2.2781 -2.99632 0
M  V30 7287 C 695.373 1.08512 -2.55187 0
M  V30 7288 H 698.324 0.163269 -1.57858 0
M  V30 7289 H 698.345 2.61046 -2.7683 0
M  V30 7290 H 697.857 1.06157 -3.73299 0
M  V30 7291 H 695.958 3.00028 -2.20939 0
M  V30 7292 H 696.071 2.56947 -4.0437 0
M  V30 7293 H 694.435 1.44667 -2.09627 0
M  V30 7294 H 695.218 0.41118 -3.40829 0
M  V30 7295 N 697.663 1.43903 0.642637 0
M  V30 7296 C 698.61 1.49881 1.75512 0
M  V30 7297 C 699.58 0.347538 1.62423 0
M  V30 7298 O 700.765 0.556177 1.82514 0
M  V30 7299 C 697.905 1.43797 3.13714 0
M  V30 7300 C 697.018 2.6921 3.37861 0
M  V30 7301 C 696.153 2.5504 4.6597 0
M  V30 7302 C 695.192 3.75671 4.83257 0
M  V30 7303 N 694.329 3.60247 6.02633 0
M  V30 7304 H 699.169 2.44935 1.69737 0
M  V30 7305 H 696.706 1.21572 0.828165 0
M  V30 7306 H 698.664 1.38262 3.93624 0
M  V30 7307 H 697.294 0.523173 3.18532 0
M  V30 7308 H 696.346 2.8498 2.51973 0
M  V30 7309 H 697.658 3.58786 3.46517 0
M  V30 7310 H 696.812 2.47273 5.54023 0
M  V30 7311 H 695.551 1.63006 4.59653 0
M  V30 7312 H 694.556 3.83836 3.93637 0
M  V30 7313 H 695.781 4.68728 4.91397 0
M  V30 7314 H 693.727 2.70955 5.97427 0
M  V30 7315 H 693.644 4.43431 6.12295 0
M  V30 7316 H 694.912 3.56351 6.93278 0
M  V30 7317 N 699.141 -0.881989 1.30609 0
M  V30 7318 C 700.387 -1.63649 1.20791 0
M  V30 7319 C 700.742 -1.90966 -0.234437 0
M  V30 7320 O 700.035 -1.52163 -1.16434 0
M  V30 7321 C 700.229 -2.97999 1.97311 0
M  V30 7322 C 700.058 -2.83798 3.48839 0
M  V30 7323 C 698.828 -2.83622 4.18195 0
M  V30 7324 C 701.026 -2.59529 4.44015 0
M  V30 7325 N 699.008 -2.60344 5.55962 0
M  V30 7326 C 700.379 -2.45401 5.69366 0
M  V30 7327 C 702.434 -2.44777 4.33576 0
M  V30 7328 C 701.137 -2.18023 6.85462 0
M  V30 7329 C 703.163 -2.18785 5.49443 0
M  V30 7330 C 702.525 -2.05436 6.73777 0
M  V30 7331 H 698.624 -0.603687 0.497077 0
M  V30 7332 H 701.208 -1.03908 1.64655 0
M  V30 7333 H 699.379 -3.55767 1.55834 0
M  V30 7334 H 701.111 -3.6266 1.79611 0
M  V30 7335 H 697.866 -2.95562 3.70054 0
M  V30 7336 H 698.29 -2.51709 6.28468 0
M  V30 7337 H 702.932 -2.53831 3.38126 0
M  V30 7338 H 700.65 -2.07707 7.8095 0
M  V30 7339 H 704.236 -2.08188 5.43276 0
M  V30 7340 H 703.116 -1.85605 7.61919 0
M  V30 7341 N 700.619 -1.13374 -1.09472 0
M  V30 7342 C 701.529 -0.824029 -2.19652 0
M  V30 7343 C 702.545 0.19118 -1.72947 0
M  V30 7344 O 703.721 0.0223464 -2.01388 0
M  V30 7345 C 700.786 -0.294009 -3.45451 0
M  V30 7346 C 699.847 -1.3704 -4.0684 0
M  V30 7347 C 699.08 -0.86558 -5.26634 0
M  V30 7348 O 699.303 0.29702 -5.69626 0
M  V30 7349 O 698.237 -1.63968 -5.79136 0
M  V30 7350 H 702.063 -1.74454 -2.48595 0
M  V30 7351 H 699.648 -0.911155 -1.18399 0
M  V30 7352 H 701.53 -0.00381039 -4.214 0
M  V30 7353 H 700.205 0.598921 -3.18111 0
M  V30 7354 H 699.112 -1.71391 -3.3253 0
M  V30 7355 H 700.445 -2.23746 -4.38405 0
M  V30 7356 N 702.098 1.27442 -0.927168 0
M  V30 7357 C 703.345 1.94391 -0.567324 0
M  V30 7358 C 703.673 1.72875 0.891321 0
M  V30 7359 O 702.928 1.05071 1.65102 0
M  V30 7360 C 703.227 3.47413 -0.838994 0
M  V30 7361 C 702.893 3.89049 -2.2793 0
M  V30 7362 C 701.555 4.00127 -2.67305 0
M  V30 7363 C 703.907 4.10154 -3.21595 0
M  V30 7364 C 701.235 4.29697 -3.99471 0
M  V30 7365 C 703.587 4.41208 -4.53341 0
M  V30 7366 C 702.251 4.50499 -4.92551 0
M  V30 7367 H 701.521 0.711325 -0.207598 0
M  V30 7368 H 704.168 1.51523 -1.17103 0
M  V30 7369 H 702.473 3.91503 -0.152609 0
M  V30 7370 H 704.17 3.97354 -0.53955 0
M  V30 7371 H 700.76 3.80962 -1.96381 0
M  V30 7372 H 704.944 4.01036 -2.92377 0
M  V30 7373 H 700.2 4.35099 -4.29533 0
M  V30 7374 H 704.374 4.56486 -5.25922 0
M  V30 7375 H 702.001 4.73167 -5.94994 0
M  V30 7376 N 703.576 0.692616 1.41565 0
M  V30 7377 C 704.987 0.297478 1.84315 0
M  V30 7378 C 705.338 -1.16379 1.57957 0
M  V30 7379 O 704.463 -1.89303 1.0485 0
M  V30 7380 C 705.058 0.533136 3.34579 0
M  V30 7381 C 703.617 0.191944 3.7591 0
M  V30 7382 C 702.764 0.816873 2.64995 0
M  V30 7383 H 705.715 0.893488 1.31158 0
M  V30 7384 H 705.736 -0.209105 3.79925 0
M  V30 7385 H 705.248 1.59674 3.53731 0
M  V30 7386 H 703.349 -0.867512 3.6236 0
M  V30 7387 H 703.462 0.644902 4.7474 0
M  V30 7388 H 701.826 0.246715 2.53502 0
M  V30 7389 H 702.609 1.88429 2.86966 0
M  V30 7390 N 705.054 -1.51416 0.437162 0
M  V30 7391 C 706.47 -1.59349 0.0894459 0
M  V30 7392 C 706.67 -1.44809 -1.40116 0
M  V30 7393 O 705.726 -1.28924 -2.17106 0
M  V30 7394 C 707.039 -2.9446 0.609398 0
M  V30 7395 C 708.587 -3.07769 0.569824 0
M  V30 7396 C 709.062 -4.45404 1.06675 0
M  V30 7397 N 710.553 -4.51723 1.02473 0
M  V30 7398 C 711.288 -5.56544 1.3801 0
M  V30 7399 N 710.784 -6.68784 1.80831 0
M  V30 7400 N 712.577 -5.46901 1.29828 0
M  V30 7401 H 704.728 -1.59112 1.40703 0
M  V30 7402 H 706.991 -0.750031 0.579791 0
M  V30 7403 H 706.697 -3.1047 1.65231 0
M  V30 7404 H 706.571 -3.77184 0.0342236 0
M  V30 7405 H 708.958 -2.91428 -0.464107 0
M  V30 7406 H 709.039 -2.26885 1.1814 0
M  V30 7407 H 708.683 -4.62492 2.09914 0
M  V30 7408 H 708.613 -5.24827 0.431712 0
M  V30 7409 H 711.104 -3.71165 0.710258 0
M  V30 7410 H 711.417 -7.44787 2.06185 0
M  V30 7411 H 709.762 -6.69992 1.84757 0
M  V30 7412 H 712.953 -4.581 0.962397 0
M  V30 7413 H 713.126 -6.2848 1.57851 0
M  V30 7414 N 706.532 -0.168513 -1.56696 0
M  V30 7415 C 707.809 0.523367 -1.88468 0
M  V30 7416 C 708.189 1.81503 -1.07796 0
M  V30 7417 O 707.537 2.27859 -0.171045 0
M  V30 7418 C 707.747 0.767991 -3.40445 0
M  V30 7419 C 709.095 1.09924 -4.10124 0
M  V30 7420 O 710.119 0.856625 -3.45746 0
M  V30 7421 O 708.978 1.55681 -5.23856 0
M  V30 7422 H 706.072 0.269447 -0.781874 0
M  V30 7423 H 708.618 -0.206739 -1.68436 0
M  V30 7424 H 707.39 -0.145254 -3.9103 0
M  V30 7425 H 707.013 1.55151 -3.66079 0
M  V30 7426 N 708.01 1.57248 0.105221 0
M  V30 7427 C 708.957 2.01338 1.12835 0
M  V30 7428 C 709.927 0.887897 1.40377 0
M  V30 7429 O 711.112 1.15315 1.5201 0
M  V30 7430 C 708.252 2.43432 2.44611 0
M  V30 7431 C 707.365 3.69457 2.23888 0
M  V30 7432 C 706.5 4.00473 3.48991 0
M  V30 7433 C 705.539 5.19638 3.23485 0
M  V30 7434 N 704.676 5.46457 4.40828 0
M  V30 7435 H 709.516 2.88527 0.745386 0
M  V30 7436 H 707.053 1.42714 0.356535 0
M  V30 7437 H 709.011 2.65879 3.21503 0
M  V30 7438 H 707.641 1.59266 2.80774 0
M  V30 7439 H 706.693 3.54545 1.37847 0
M  V30 7440 H 708.005 4.56497 2.01026 0
M  V30 7441 H 707.159 4.23642 4.34295 0
M  V30 7442 H 705.898 3.11935 3.74897 0
M  V30 7443 H 704.903 4.96299 2.36574 0
M  V30 7444 H 706.128 6.09766 2.98935 0
M  V30 7445 H 704.074 4.60876 4.66829 0
M  V30 7446 H 703.991 6.27849 4.2112 0
M  V30 7447 H 705.259 5.74155 5.27225 0
M  V30 7448 N 709.488 -0.375779 1.53054 0
M  V30 7449 C 710.418 -1.46598 1.81745 0
M  V30 7450 C 711.399 -1.56337 0.670286 0
M  V30 7451 O 712.584 -1.71071 0.919158 0
M  V30 7452 C 709.714 -2.84058 1.99821 0
M  V30 7453 C 708.668 -2.8915 3.15557 0
M  V30 7454 C 707.994 -4.29187 3.18908 0
M  V30 7455 C 709.294 -2.57595 4.54359 0
M  V30 7456 H 710.988 -1.22837 2.73041 0
M  V30 7457 H 708.534 -0.589485 1.31381 0
M  V30 7458 H 710.487 -3.60342 2.18475 0
M  V30 7459 H 709.211 -3.09184 1.05226 0
M  V30 7460 H 707.87 -2.15316 2.96706 0
M  V30 7461 H 707.518 -4.51374 2.2197 0
M  V30 7462 H 707.218 -4.33512 3.96662 0
M  V30 7463 H 708.742 -5.07359 3.39734 0
M  V30 7464 H 710.156 -3.23595 4.73243 0
M  V30 7465 H 708.553 -2.73252 5.34279 0
M  V30 7466 H 709.623 -1.52882 4.60169 0
M  V30 7467 N 710.966 -1.44241 -0.634997 0
M  V30 7468 C 712.194 -1.50296 -1.42193 0
M  V30 7469 C 712.609 -0.12658 -1.88375 0
M  V30 7470 O 711.966 0.86678 -1.60603 0
M  V30 7471 C 712.017 -2.46437 -2.64482 0
M  V30 7472 O 711.738 -3.78724 -2.20226 0
M  V30 7473 C 713.239 -2.61918 -3.57651 0
M  V30 7474 H 710.459 -0.509865 -0.43621 0
M  V30 7475 H 713.003 -1.89167 -0.776921 0
M  V30 7476 H 711.158 -2.10712 -3.25083 0
M  V30 7477 H 711.572 -4.30595 -2.9948 0
M  V30 7478 H 713.046 -3.33225 -4.40074 0
M  V30 7479 H 713.523 -1.67017 -4.06204 0
M  V30 7480 H 714.129 -2.98528 -3.02921 0
M  V30 7481 N 712.444 0.87505 -1.31075 0
M  V30 7482 C 713.374 1.99775 -1.20881 0
M  V30 7483 C 714.355 1.69822 -0.0971612 0
M  V30 7484 O 715.54 1.92158 -0.280895 0
M  V30 7485 C 712.67 3.35163 -0.910118 0
M  V30 7486 C 711.624 3.79406 -1.98078 0
M  V30 7487 C 710.95 5.12197 -1.53488 0
M  V30 7488 C 712.25 3.97061 -3.39323 0
M  V30 7489 H 713.944 2.08562 -2.14808 0
M  V30 7490 H 711.49 1.00207 -1.03415 0
M  V30 7491 H 713.443 4.13237 -0.825423 0
M  V30 7492 H 712.167 3.26536 0.064822 0
M  V30 7493 H 710.826 3.03568 -2.05528 0
M  V30 7494 H 710.474 5.00007 -0.547941 0
M  V30 7495 H 710.174 5.4277 -2.2511 0
M  V30 7496 H 711.698 5.92785 -1.46417 0
M  V30 7497 H 713.112 4.65545 -3.34576 0
M  V30 7498 H 711.509 4.39025 -4.09118 0
M  V30 7499 H 712.579 3.00601 -3.80483 0
M  V30 7500 N 713.922 1.13953 1.08869 0
M  V30 7501 C 715.17 0.903023 1.80803 0
M  V30 7502 C 715.491 -0.572151 1.86417 0
M  V30 7503 O 714.761 -1.41589 1.35386 0
M  V30 7504 H 713.341 0.331099 0.669614 0
M  V30 7505 H 716.003 1.43719 1.31647 0
M  V30 7506 H 715.099 1.29881 2.83791 0
M  V30 7507 N 715.4 -1.26948 0.933913 0
M  V30 7508 C 716.347 -2.26635 0.436484 0
M  V30 7509 C 717.317 -1.58397 -0.499953 0
M  V30 7510 O 718.502 -1.86171 -0.417753 0
M  V30 7511 C 715.642 -3.43803 -0.298951 0
M  V30 7512 C 714.755 -4.26736 0.672316 0
M  V30 7513 C 713.89 -5.31134 -0.0835872 0
M  V30 7514 C 712.929 -6.05742 0.879979 0
M  V30 7515 N 712.066 -7.01926 0.156301 0
M  V30 7516 H 716.906 -2.68558 1.29154 0
M  V30 7517 H 714.443 -1.32052 0.648118 0
M  V30 7518 H 716.401 -4.10554 -0.741723 0
M  V30 7519 H 715.031 -3.02814 -1.1182 0
M  V30 7520 H 714.083 -3.59842 1.23361 0
M  V30 7521 H 715.395 -4.78502 1.40846 0
M  V30 7522 H 714.549 -6.03863 -0.585984 0
M  V30 7523 H 713.288 -4.80188 -0.852661 0
M  V30 7524 H 712.293 -5.31846 1.39357 0
M  V30 7525 H 713.518 -6.58777 1.64894 0
M  V30 7526 H 711.464 -6.53301 -0.594413 0
M  V30 7527 H 711.381 -7.51409 0.831906 0
M  V30 7528 H 712.649 -7.78821 -0.325239 0
M  V30 7529 N 716.879 -0.700114 -1.41195 0
M  V30 7530 C 718.29 -0.307249 -1.84154 0
M  V30 7531 C 718.641 1.15539 -1.58572 0
M  V30 7532 O 717.766 1.88744 -1.05852 0
M  V30 7533 C 718.361 -0.550872 -3.34292 0
M  V30 7534 C 716.92 -0.211877 -3.75803 0
M  V30 7535 C 716.067 -0.830915 -2.64558 0
M  V30 7536 H 719.018 -0.900431 -1.30683 0
M  V30 7537 H 719.039 0.188954 -3.80031 0
M  V30 7538 H 718.551 -1.61548 -3.5288 0
M  V30 7539 H 716.652 0.848283 -3.62815 0
M  V30 7540 H 716.765 -0.67007 -4.74391 0
M  V30 7541 H 715.129 -0.260155 -2.53368 0
M  V30 7542 H 715.912 -1.89948 -2.85963 0
M  V30 7543 N 718.357 1.51182 -0.445186 0
M  V30 7544 C 719.287 2.30821 0.352686 0
M  V30 7545 C 720.268 1.36576 1.01395 0
M  V30 7546 O 721.453 1.65497 1.01609 0
M  V30 7547 C 718.583 3.15593 1.44976 0
M  V30 7548 C 717.537 4.1818 0.911553 0
M  V30 7549 C 716.863 4.91523 2.10497 0
M  V30 7550 C 718.163 5.22266 -0.059418 0
M  V30 7551 H 719.857 2.97771 -0.311936 0
M  V30 7552 H 717.403 1.43201 -0.151461 0
M  V30 7553 H 719.356 3.70091 2.01521 0
M  V30 7554 H 718.08 2.4648 2.14278 0
M  V30 7555 H 716.739 3.64746 0.368264 0
M  V30 7556 H 716.387 4.18906 2.78437 0
M  V30 7557 H 716.087 5.60898 1.7512 0
M  V30 7558 H 717.611 5.48847 2.6758 0
M  V30 7559 H 719.025 5.71789 0.415985 0
M  V30 7560 H 717.422 5.99213 -0.326152 0
M  V30 7561 H 718.492 4.7461 -0.993631 0
M  V30 7562 N 719.835 0.176821 1.56605 0
M  V30 7563 C 721.083 -0.465793 1.96659 0
M  V30 7564 C 721.404 -1.63406 1.06412 0
M  V30 7565 O 720.674 -1.95457 0.131603 0
M  V30 7566 H 719.254 -0.175072 0.726195 0
M  V30 7567 H 721.916 0.25929 1.93168 0
M  V30 7568 H 721.012 -0.822138 3.01077 0
M  V30 7569 N 721.313 -1.57302 -0.09688 0
M  V30 7570 C 722.223 -2.05258 -1.13606 0
M  V30 7571 C 723.239 -0.977137 -1.43972 0
M  V30 7572 O 724.415 -1.29018 -1.54649 0
M  V30 7573 C 721.48 -2.46593 -2.43706 0
M  V30 7574 C 720.541 -3.68322 -2.20538 0
M  V30 7575 C 719.774 -4.07676 -3.44435 0
M  V30 7576 O 719.997 -3.47141 -4.52603 0
M  V30 7577 O 718.931 -5.00641 -3.34129 0
M  V30 7578 H 722.757 -2.94069 -0.758752 0
M  V30 7579 H 720.342 -1.46164 -0.309263 0
M  V30 7580 H 722.224 -2.73814 -3.20318 0
M  V30 7581 H 720.899 -1.6092 -2.80867 0
M  V30 7582 H 719.806 -3.4622 -1.41713 0
M  V30 7583 H 721.139 -4.54769 -1.88271 0
M  V30 7584 N 722.791 0.367657 -1.53252 0
M  V30 7585 C 724.039 1.10832 -1.68999 0
M  V30 7586 C 724.36 1.89894 -0.443306 0
M  V30 7587 O 723.63 1.88235 0.54262 0
M  V30 7588 H 722.21 0.412153 -0.623008 0
M  V30 7589 H 724.872 0.414775 -1.90435 0
M  V30 7590 H 723.968 1.7993 -2.55013 0
M  V30 7591 N 724.269 1.44576 0.627338 0
M  V30 7592 C 725.509 1.49083 1.39834 0
M  V30 7593 C 725.873 0.121643 1.91614 0
M  V30 7594 O 727.074 0.0413885 2.68768 0
M  V30 7595 C 725.345 2.52467 2.52973 0
M  V30 7596 S 726.904 2.7605 3.41089 0
M  V30 7597 H 723.722 0.527252 0.476997 0
M  V30 7598 H 726.324 1.81525 0.725872 0
M  V30 7599 H 725.028 3.50646 2.13249 0
M  V30 7600 H 724.559 2.2161 3.25042 0
M  V30 7601 H 726.574 2.07932 4.50531 0
M  V30 7602 N 725.747 -0.868086 1.31537 0
M  V30 7603 C 726.994 -1.62127 1.2133 0
M  V30 7604 C 727.322 -1.93158 -0.2281 0
M  V30 7605 O 726.577 -1.5632 -1.1774 0
M  V30 7606 C 726.876 -2.95889 2.0046 0
M  V30 7607 C 726.542 -2.84343 3.49943 0
M  V30 7608 C 725.204 -2.80901 3.90702 0
M  V30 7609 C 727.556 -2.71243 4.45058 0
M  V30 7610 C 724.884 -2.6222 5.24841 0
M  V30 7611 C 727.236 -2.54098 5.79325 0
M  V30 7612 C 725.9 -2.4904 6.19302 0
M  V30 7613 H 725.17 -0.593265 0.443979 0
M  V30 7614 H 727.817 -1.00803 1.62822 0
M  V30 7615 H 726.122 -3.61259 1.51655 0
M  V30 7616 H 727.819 -3.53161 1.89942 0
M  V30 7617 H 724.409 -2.8784 3.17563 0
M  V30 7618 H 728.593 -2.72956 4.14498 0
M  V30 7619 H 723.849 -2.56731 5.54887 0
M  V30 7620 H 728.023 -2.42938 6.52652 0
M  V30 7621 H 725.65 -2.34324 7.23185 0
M  V30 7622 N 727.225 -1.14528 -1.08264 0
M  V30 7623 C 728.473 -0.912599 -1.80322 0
M  V30 7624 C 728.794 0.562256 -1.86718 0
M  V30 7625 O 728.064 1.40869 -1.36135 0
M  V30 7626 H 726.644 -0.334645 -0.667849 0
M  V30 7627 H 729.306 -1.44415 -1.30883 0
M  V30 7628 H 728.402 -1.31384 -2.83098 0
M  V30 7629 N 728.703 1.26451 -0.940633 0
M  V30 7630 C 729.635 2.25556 -0.407104 0
M  V30 7631 C 730.648 1.55888 0.469324 0
M  V30 7632 O 731.837 1.76292 0.279858 0
M  V30 7633 C 728.937 3.36109 0.434064 0
M  V30 7634 C 728.11 4.3532 -0.426082 0
M  V30 7635 C 727.169 5.25004 0.354563 0
M  V30 7636 O 726.195 5.68684 -0.242219 0
M  V30 7637 N 727.397 5.5652 1.65123 0
M  V30 7638 H 730.162 2.7197 -1.25907 0
M  V30 7639 H 727.723 1.40212 -0.809456 0
M  V30 7640 H 729.715 3.93059 0.963684 0
M  V30 7641 H 728.285 2.89194 1.18683 0
M  V30 7642 H 727.505 3.77449 -1.13692 0
M  V30 7643 H 728.793 4.986 -1.01366 0
M  V30 7644 H 728.191 5.22912 2.15822 0
M  V30 7645 H 726.748 6.16115 2.12711 0
M  V30 7646 N 730.181 0.707592 1.40822 0
M  V30 7647 C 731.427 0.244031 2.01326 0
M  V30 7648 C 731.76 -1.15722 1.55955 0
M  V30 7649 O 731.035 -1.78347 0.776044 0
M  V30 7650 C 731.318 0.315128 3.58718 0
M  V30 7651 C 731.171 1.75419 4.14184 0
M  V30 7652 C 732.49 -0.318251 4.38948 0
M  V30 7653 H 729.609 0.0901471 0.731466 0
M  V30 7654 H 732.251 0.898584 1.67408 0
M  V30 7655 H 730.401 -0.242176 3.87744 0
M  V30 7656 H 732.073 2.36626 3.95987 0
M  V30 7657 H 730.316 2.28449 3.68773 0
M  V30 7658 H 730.987 1.75538 5.23345 0
M  V30 7659 H 733.463 0.156514 4.15806 0
M  V30 7660 H 732.339 -0.238019 5.48384 0
M  V30 7661 H 732.6 -1.40067 4.19325 0
M  V30 7662 N 731.66 -1.50943 0.453197 0
M  V30 7663 C 732.906 -2.02512 -0.108082 0
M  V30 7664 C 733.239 -1.33574 -1.40967 0
M  V30 7665 O 732.514 -0.455671 -1.89087 0
M  V30 7666 C 732.797 -3.58759 -0.310453 0
M  V30 7667 C 732.65 -4.38293 1.0109 0
M  V30 7668 C 733.969 -4.26816 -1.07313 0
M  V30 7669 H 731.088 -0.73603 -0.0378064 0
M  V30 7670 H 733.73 -1.80433 0.595295 0
M  V30 7671 H 731.88 -3.77702 -0.909582 0
M  V30 7672 H 733.552 -4.30964 1.64523 0
M  V30 7673 H 731.795 -4.02745 1.61179 0
M  V30 7674 H 732.466 -5.45828 0.82315 0
M  V30 7675 H 734.942 -4.1224 -0.565473 0
M  V30 7676 H 733.818 -5.35989 -1.1835 0
M  V30 7677 H 734.079 -3.88757 -2.10525 0
M  V30 7678 N 733.138 -0.185124 -1.56509 0
M  V30 7679 C 734.071 0.77877 -2.145 0
M  V30 7680 C 735.049 1.21649 -1.07891 0
M  V30 7681 O 736.233 1.30579 -1.35946 0
M  V30 7682 C 733.36 2.05048 -2.69579 0
M  V30 7683 C 732.406 1.75569 -3.88687 0
M  V30 7684 S 733.239 0.912642 -5.27666 0
M  V30 7685 C 734.395 2.19471 -5.8616 0
M  V30 7686 H 734.628 0.285751 -2.95924 0
M  V30 7687 H 732.161 0.0297417 -1.54371 0
M  V30 7688 H 734.119 2.78085 -3.01958 0
M  V30 7689 H 732.78 2.51462 -1.88216 0
M  V30 7690 H 731.973 2.69962 -4.25601 0
M  V30 7691 H 731.575 1.10619 -3.57267 0
M  V30 7692 H 733.867 3.14815 -5.99915 0
M  V30 7693 H 734.81 1.87005 -6.8296 0
M  V30 7694 H 735.218 2.31862 -5.14685 0
M  V30 7695 N 734.616 1.57351 0.0885366 0
M  V30 7696 C 735.579 2.01557 1.09121 0
M  V30 7697 C 736.579 0.910052 1.3257 0
M  V30 7698 O 737.769 1.17537 1.28572 0
M  V30 7699 C 734.901 2.38189 2.43883 0
M  V30 7700 H 736.094 2.91361 0.710562 0
M  V30 7701 H 733.647 1.52694 0.333779 0
M  V30 7702 H 734.382 1.5136 2.86811 0
M  V30 7703 H 734.167 3.18846 2.28209 0
M  V30 7704 H 735.657 2.73025 3.15986 0
M  V30 7705 N 736.094 -0.359525 1.53444 0
M  V30 7706 C 737.004 -1.46445 1.83278 0
M  V30 7707 C 738.02 -1.5833 0.721629 0
M  V30 7708 O 739.196 -1.7411 1.01231 0
M  V30 7709 C 736.261 -2.81638 2.02191 0
M  V30 7710 C 735.322 -2.7923 3.26082 0
M  V30 7711 C 734.555 -4.07974 3.44082 0
M  V30 7712 O 734.778 -5.04447 2.66251 0
M  V30 7713 O 733.712 -4.13417 4.37458 0
M  V30 7714 H 737.538 -1.24156 2.77162 0
M  V30 7715 H 735.123 -0.550201 1.389 0
M  V30 7716 H 737.005 -3.61732 2.16167 0
M  V30 7717 H 735.68 -3.03892 1.11496 0
M  V30 7718 H 734.587 -1.97813 3.17523 0
M  V30 7719 H 735.92 -2.6193 4.16718 0
M  V30 7720 N 737.572 -1.44907 -0.619662 0
M  V30 7721 C 738.535 -1.52282 -1.71297 0
M  V30 7722 C 739.535 -0.40359 -1.55653 0
M  V30 7723 O 740.725 -0.666638 -1.6094 0
M  V30 7724 C 737.857 -1.40778 -3.10474 0
M  V30 7725 H 739.05 -2.49683 -1.66128 0
M  V30 7726 H 736.603 -1.32168 -0.834339 0
M  V30 7727 H 737.338 -0.445156 -3.2123 0
M  V30 7728 H 737.123 -2.21947 -3.23237 0
M  V30 7729 H 738.613 -1.48946 -3.90135 0
M  V30 7730 N 739.05 0.861098 -1.31996 0
M  V30 7731 C 740.296 1.61721 -1.22369 0
M  V30 7732 C 740.629 1.93 0.215587 0
M  V30 7733 O 739.904 1.56789 1.15098 0
M  V30 7734 C 740.187 2.9417 -2.07691 0
M  V30 7735 C 740.04 2.69714 -3.59965 0
M  V30 7736 C 741.359 3.95372 -1.93312 0
M  V30 7737 H 738.478 0.586822 -0.44588 0
M  V30 7738 H 741.12 0.994788 -1.61876 0
M  V30 7739 H 739.27 3.47292 -1.74128 0
M  V30 7740 H 740.942 2.23196 -4.03709 0
M  V30 7741 H 739.185 2.03789 -3.82952 0
M  V30 7742 H 739.856 3.63996 -4.14983 0
M  V30 7743 H 742.332 3.51487 -2.22701 0
M  V30 7744 H 741.208 4.85916 -2.55298 0
M  V30 7745 H 741.469 4.32865 -0.898922 0
M  V30 7746 N 740.528 1.15101 1.07655 0
M  V30 7747 C 741.776 0.922149 1.79836 0
M  V30 7748 C 742.097 -0.552346 1.87014 0
M  V30 7749 O 741.367 -1.40145 1.3688 0
M  V30 7750 H 739.947 0.338182 0.666064 0
M  V30 7751 H 742.609 1.45107 1.30115 0
M  V30 7752 H 741.705 1.32883 2.82398 0
M  V30 7753 N 742.006 -1.2595 0.947325 0
M  V30 7754 C 743.255 -1.92759 0.593887 0
M  V30 7755 C 743.568 -1.75083 -0.872093 0
M  V30 7756 O 744.774 -2.36401 -1.33518 0
M  V30 7757 C 743.23 -3.45395 1.01144 0
M  V30 7758 C 742.838 -3.71795 2.49946 0
M  V30 7759 C 744.582 -4.18173 0.730185 0
M  V30 7760 C 742.489 -5.17901 2.85539 0
M  V30 7761 H 741.419 -0.721676 0.218403 0
M  V30 7762 H 744.07 -1.4293 1.15079 0
M  V30 7763 H 742.452 -3.94143 0.383007 0
M  V30 7764 H 743.626 -3.33728 3.17746 0
M  V30 7765 H 741.941 -3.12263 2.75465 0
M  V30 7766 H 744.538 -5.25784 0.972367 0
M  V30 7767 H 744.881 -4.14964 -0.333223 0
M  V30 7768 H 745.414 -3.75309 1.31862 0
M  V30 7769 H 742.153 -5.26216 3.90867 0
M  V30 7770 H 741.673 -5.57042 2.22406 0
M  V30 7771 H 743.352 -5.8596 2.74336 0
M  V30 7772 N 743.484 -0.715051 -1.40445 0
M  V30 7773 C 744.761 -0.181503 -1.94756 0
M  V30 7774 C 745.141 1.31268 -1.65324 0
M  V30 7775 O 744.489 2.0686 -0.970631 0
M  V30 7776 C 744.699 -0.493663 -3.45491 0
M  V30 7777 C 746.047 -0.432032 -4.22396 0
M  V30 7778 O 747.071 -0.429692 -3.53599 0
M  V30 7779 O 745.93 -0.409091 -5.44967 0
M  V30 7780 H 743.024 -0.0263989 -0.826579 0
M  V30 7781 H 745.57 -0.792546 -1.50056 0
M  V30 7782 H 744.342 -1.52713 -3.6027 0
M  V30 7783 H 743.965 0.14737 -3.97327 0
M  V30 7784 N 744.962 1.50701 -0.461195 0
M  V30 7785 C 745.909 2.2831 0.338094 0
M  V30 7786 C 746.879 1.32928 0.995957 0
M  V30 7787 O 748.064 1.61857 1.0103 0
M  V30 7788 C 745.204 3.14539 1.41983 0
M  V30 7789 C 744.317 4.24942 0.77773 0
M  V30 7790 C 743.452 4.98443 1.83652 0
M  V30 7791 C 742.491 6.00733 1.17413 0
M  V30 7792 N 741.628 6.6755 2.17533 0
M  V30 7793 H 746.468 2.96167 -0.330051 0
M  V30 7794 H 744.005 1.4606 -0.174611 0
M  V30 7795 H 745.963 3.62877 2.05855 0
M  V30 7796 H 744.593 2.48749 2.05727 0
M  V30 7797 H 743.645 3.80391 0.0266924 0
M  V30 7798 H 744.957 4.98151 0.254362 0
M  V30 7799 H 744.111 5.50449 2.55129 0
M  V30 7800 H 742.85 4.24917 2.39367 0
M  V30 7801 H 741.855 5.47997 0.444944 0
M  V30 7802 H 743.08 6.76227 0.624006 0
M  V30 7803 H 741.026 5.96823 2.72284 0
M  V30 7804 H 740.943 7.36603 1.70154 0
M  V30 7805 H 742.211 7.24178 2.88421 0
M  V30 7806 N 746.441 0.193421 1.56409 0
M  V30 7807 C 747.718 -0.493318 1.89277 0
M  V30 7808 C 748.098 -1.79765 1.10669 0
M  V30 7809 O 747.446 -2.27558 0.207274 0
M  V30 7810 C 747.656 -0.713732 3.41624 0
M  V30 7811 C 749.004 -1.03385 4.11821 0
M  V30 7812 O 750.028 -0.801511 3.47065 0
M  V30 7813 O 748.887 -1.47327 5.26267 0
M  V30 7814 H 745.981 -0.256973 0.786062 0
M  V30 7815 H 748.527 0.23351 1.68086 0
M  V30 7816 H 747.299 0.207446 3.9075 0
M  V30 7817 H 746.922 -1.49308 3.68501 0
M  V30 7818 N 747.919 -1.57396 -0.0801906 0
M  V30 7819 C 748.866 -2.03107 -1.09618 0
M  V30 7820 C 749.836 -0.910118 -1.38946 0
M  V30 7821 O 751.021 -1.17719 -1.50156 0
M  V30 7822 C 748.161 -2.47293 -2.40708 0
M  V30 7823 C 747.274 -3.72972 -2.17982 0
M  V30 7824 C 746.409 -4.05975 -3.42576 0
M  V30 7825 C 745.448 -5.24719 -3.15177 0
M  V30 7826 N 744.585 -5.53401 -4.32078 0
M  V30 7827 H 749.425 -2.89677 -0.69939 0
M  V30 7828 H 746.962 -1.43263 -0.333785 0
M  V30 7829 H 748.92 -2.7096 -3.17232 0
M  V30 7830 H 747.55 -1.63713 -2.78205 0
M  V30 7831 H 746.602 -3.56693 -1.32189 0
M  V30 7832 H 747.914 -4.59638 -1.93738 0
M  V30 7833 H 747.068 -4.30498 -4.275 0
M  V30 7834 H 745.807 -3.17859 -3.69887 0
M  V30 7835 H 744.812 -5 -2.28648 0
M  V30 7836 H 746.037 -6.14445 -2.89197 0
M  V30 7837 H 743.983 -4.68245 -4.59437 0
M  V30 7838 H 743.9 -6.34469 -4.11078 0
M  V30 7839 H 745.168 -5.8247 -5.18024 0
M  V30 7840 N 749.397 0.351382 -1.53633 0
M  V30 7841 C 750.808 0.927429 -1.62036 0
M  V30 7842 C 751.159 1.89809 -0.496706 0
M  V30 7843 O 750.284 2.1313 0.374749 0
M  V30 7844 C 750.879 1.68886 -2.93706 0
M  V30 7845 C 749.438 2.21404 -3.04397 0
M  V30 7846 C 748.585 1.03075 -2.57431 0
M  V30 7847 H 751.536 0.129748 -1.58169 0
M  V30 7848 H 751.557 2.55116 -2.82305 0
M  V30 7849 H 751.069 0.982149 -3.75467 0
M  V30 7850 H 749.17 2.95274 -2.27253 0
M  V30 7851 H 749.283 2.48312 -4.09729 0
M  V30 7852 H 747.647 1.40188 -2.12649 0
M  V30 7853 H 748.43 0.338793 -3.41624 0
M  V30 7854 N 750.875 1.45233 0.611969 0
M  V30 7855 C 751.822 1.5357 1.72293 0
M  V30 7856 C 752.792 0.381912 1.6165 0
M  V30 7857 O 753.977 0.594765 1.81293 0
M  V30 7858 C 751.117 1.50419 3.10593 0
M  V30 7859 C 750.23 2.76316 3.32074 0
M  V30 7860 C 749.365 2.64866 4.60456 0
M  V30 7861 C 748.404 3.85838 4.7518 0
M  V30 7862 N 747.541 3.72949 5.94856 0
M  V30 7863 H 752.381 2.4848 1.64504 0
M  V30 7864 H 749.918 1.23302 0.802191 0
M  V30 7865 H 751.876 1.4658 3.90602 0
M  V30 7866 H 750.506 0.590621 3.17351 0
M  V30 7867 H 749.558 2.90261 2.45872 0
M  V30 7868 H 750.87 3.66055 3.38829 0
M  V30 7869 H 750.024 2.58969 5.48653 0
M  V30 7870 H 748.763 1.72719 4.56092 0
M  V30 7871 H 747.768 3.92099 3.85407 0
M  V30 7872 H 748.993 4.79045 4.81344 0
M  V30 7873 H 746.939 2.83567 5.91545 0
M  V30 7874 H 746.856 4.56319 6.02751 0
M  V30 7875 H 748.124 3.70976 6.85563 0
M  V30 7876 N 752.353 -0.854086 1.3245 0
M  V30 7877 C 753.263 -1.99503 1.23434 0
M  V30 7878 C 754.279 -1.73371 0.147828 0
M  V30 7879 O 755.455 -1.97998 0.368609 0
M  V30 7880 C 752.52 -3.33192 0.958328 0
M  V30 7881 C 751.581 -3.72542 2.13333 0
M  V30 7882 C 750.814 -4.99852 1.8704 0
M  V30 7883 O 751.037 -5.64573 0.813239 0
M  V30 7884 O 749.971 -5.36345 2.73161 0
M  V30 7885 H 753.797 -2.10046 2.1935 0
M  V30 7886 H 751.382 -0.984823 1.12346 0
M  V30 7887 H 753.264 -4.13327 0.820918 0
M  V30 7888 H 751.939 -3.23687 0.0293299 0
M  V30 7889 H 750.846 -2.92981 2.32622 0
M  V30 7890 H 752.179 -3.86694 3.04514 0
M  V30 7891 N 753.831 -1.1567 -1.07043 0
M  V30 7892 C 754.794 -0.858906 -2.12498 0
M  V30 7893 C 755.794 0.142735 -1.60165 0
M  V30 7894 O 756.984 -0.0872678 -1.73981 0
M  V30 7895 C 754.116 -0.283021 -3.39723 0
M  V30 7896 H 755.309 -1.79368 -2.40348 0
M  V30 7897 H 752.862 -0.964608 -1.22984 0
M  V30 7898 H 753.597 0.659796 -3.17517 0
M  V30 7899 H 753.382 -1.00467 -3.7901 0
M  V30 7900 H 754.872 -0.0923543 -4.17498 0
M  V30 7901 N 755.309 1.25446 -0.953992 0
M  V30 7902 C 756.555 1.9343 -0.60933 0
M  V30 7903 C 756.888 1.74542 0.851388 0
M  V30 7904 O 756.163 1.09014 1.61078 0
M  V30 7905 C 756.446 3.46844 -0.968041 0
M  V30 7906 C 756.299 3.74961 -2.48444 0
M  V30 7907 C 757.618 4.37334 -0.492641 0
M  V30 7908 H 754.737 0.702502 -0.222844 0
M  V30 7909 H 757.379 1.48076 -1.19053 0
M  V30 7910 H 755.529 3.85604 -0.473465 0
M  V30 7911 H 757.201 3.45841 -3.05273 0
M  V30 7912 H 755.444 3.20589 -2.92241 0
M  V30 7913 H 756.115 4.82246 -2.68594 0
M  V30 7914 H 758.591 4.05873 -0.916878 0
M  V30 7915 H 757.467 5.43439 -0.772331 0
M  V30 7916 H 757.728 4.37908 0.607403 0
M  V30 7917 N 756.787 0.722489 1.40064 0
M  V30 7918 C 758.015 0.274838 2.05066 0
M  V30 7919 C 758.43 -1.08586 1.54449 0
M  V30 7920 O 757.787 -1.68375 0.704003 0
M  V30 7921 C 757.838 0.253673 3.60609 0
M  V30 7922 O 757.559 1.56064 4.0936 0
M  V30 7923 C 759.06 -0.211684 4.42794 0
M  V30 7924 H 756.28 0.12226 0.659768 0
M  V30 7925 H 758.824 0.982632 1.79345 0
M  V30 7926 H 756.979 -0.405137 3.85276 0
M  V30 7927 H 757.393 1.46576 5.03603 0
M  V30 7928 H 758.867 -0.175341 5.51721 0
M  V30 7929 H 759.344 -1.25493 4.2089 0
M  V30 7930 H 759.95 0.4171 4.2325 0
M  V30 7931 N 758.265 -1.50454 0.469181 0
M  V30 7932 C 759.511 -2.02615 -0.0865971 0
M  V30 7933 C 759.844 -1.35062 -1.39542 0
M  V30 7934 O 759.119 -0.475701 -1.88593 0
M  V30 7935 C 759.402 -3.59068 -0.272385 0
M  V30 7936 C 759.255 -4.37196 1.05733 0
M  V30 7937 C 760.574 -4.2793 -1.0278 0
M  V30 7938 H 757.693 -0.736389 -0.0299977 0
M  V30 7939 H 760.335 -1.79792 0.614399 0
M  V30 7940 H 758.485 -3.78646 -0.869471 0
M  V30 7941 H 760.157 -4.29195 1.69084 0
M  V30 7942 H 758.4 -4.01013 1.65442 0
M  V30 7943 H 759.071 -5.44924 0.880997 0
M  V30 7944 H 761.547 -4.12816 -0.521718 0
M  V30 7945 H 760.423 -5.37214 -1.12659 0
M  V30 7946 H 760.684 -3.90968 -2.0639 0
M  V30 7947 N 759.743 -0.201713 -1.56304 0
M  V30 7948 C 760.706 0.702811 -2.18159 0
M  V30 7949 C 761.706 1.13619 -1.13787 0
M  V30 7950 O 762.896 1.0482 -1.39134 0
M  V30 7951 C 760.028 1.96032 -2.78898 0
M  V30 7952 H 761.221 0.163836 -2.99452 0
M  V30 7953 H 758.774 0.04791 -1.56227 0
M  V30 7954 H 759.509 2.54165 -2.01421 0
M  V30 7955 H 759.294 1.65824 -3.55309 0
M  V30 7956 H 760.784 2.60519 -3.26373 0
M  V30 7957 N 761.222 1.57436 0.0718424 0
M  V30 7958 C 762.468 1.87525 0.772149 0
M  V30 7959 C 762.801 0.79399 1.77227 0
M  V30 7960 O 762.076 -0.195733 1.93513 0
M  V30 7961 C 762.359 3.28272 1.48018 0
M  V30 7962 C 762.212 4.47052 0.49647 0
M  V30 7963 C 763.531 3.67256 2.42509 0
M  V30 7964 H 760.65 0.682049 0.279245 0
M  V30 7965 H 763.292 1.89967 0.03534 0
M  V30 7966 H 761.442 3.26321 2.10824 0
M  V30 7967 H 763.114 4.61127 -0.126375 0
M  V30 7968 H 761.357 4.33392 -0.188205 0
M  V30 7969 H 762.028 5.42315 1.02949 0
M  V30 7970 H 764.504 3.70301 1.89781 0
M  V30 7971 H 763.38 4.66626 2.89053 0
M  V30 7972 H 763.641 2.97186 3.27312 0
M  V30 7973 N 762.7 -0.34323 1.53817 0
M  V30 7974 C 763.647 -1.42153 1.81827 0
M  V30 7975 C 764.617 -1.52251 0.663996 0
M  V30 7976 O 765.802 -1.67784 0.908461 0
M  V30 7977 C 762.942 -2.78799 2.03384 0
M  V30 7978 C 762.055 -2.7749 3.31094 0
M  V30 7979 C 761.19 -4.05856 3.42717 0
M  V30 7980 C 760.229 -3.98776 4.64375 0
M  V30 7981 N 759.366 -5.18833 4.73029 0
M  V30 7982 H 764.206 -1.17567 2.73829 0
M  V30 7983 H 761.743 -0.569506 1.35628 0
M  V30 7984 H 763.701 -3.58211 2.13872 0
M  V30 7985 H 762.331 -3.01736 1.14696 0
M  V30 7986 H 761.383 -1.90182 3.29446 0
M  V30 7987 H 762.695 -2.68137 4.206 0
M  V30 7988 H 761.849 -4.93691 3.52638 0
M  V30 7989 H 760.588 -4.1799 2.51267 0
M  V30 7990 H 759.593 -3.09325 4.5453 0
M  V30 7991 H 760.818 -3.88224 5.57189 0
M  V30 7992 H 758.764 -5.31511 3.84489 0
M  V30 7993 H 758.681 -5.11737 5.56472 0
M  V30 7994 H 759.949 -6.08439 4.87261 0
M  V30 7995 N 764.178 -1.45556 -0.604258 0
M  V30 7996 C 765.111 -1.48975 -1.72863 0
M  V30 7997 C 766.089 -0.345803 -1.5888 0
M  V30 7998 O 767.273 -0.546796 -1.80395 0
M  V30 7999 C 764.4 -1.34794 -3.10722 0
M  V30 8000 C 763.446 -2.53096 -3.43285 0
M  V30 8001 S 764.279 -4.15551 -3.37754 0
M  V30 8002 C 765.435 -4.03842 -4.78187 0
M  V30 8003 H 765.668 -2.44108 -1.69701 0
M  V30 8004 H 763.201 -1.33179 -0.781194 0
M  V30 8005 H 765.159 -1.273 -3.90263 0
M  V30 8006 H 763.82 -0.411254 -3.11396 0
M  V30 8007 H 763.013 -2.39109 -4.4367 0
M  V30 8008 H 762.615 -2.57469 -2.71267 0
M  V30 8009 H 764.907 -3.69191 -5.6807 0
M  V30 8010 H 765.85 -5.0415 -4.97231 0
M  V30 8011 H 766.258 -3.35443 -4.54025 0
M  V30 8012 N 765.656 0.84705 -1.32902 0
M  V30 8013 C 766.586 1.97166 -1.25091 0
M  V30 8014 C 767.567 1.69578 -0.133161 0
M  V30 8015 O 768.752 1.91519 -0.321591 0
M  V30 8016 C 765.882 3.33157 -0.981006 0
M  V30 8017 C 764.836 3.75119 -2.06082 0
M  V30 8018 C 764.162 5.08826 -1.64318 0
M  V30 8019 C 765.462 3.89774 -3.47669 0
M  V30 8020 H 767.156 2.03958 -2.19184 0
M  V30 8021 H 764.702 0.979907 -1.05517 0
M  V30 8022 H 766.655 4.11393 -0.912891 0
M  V30 8023 H 765.379 3.266 -0.00445559 0
M  V30 8024 H 764.038 2.9914 -2.11921 0
M  V30 8025 H 763.686 4.98732 -0.653876 0
M  V30 8026 H 763.386 5.37873 -2.36572 0
M  V30 8027 H 764.91 5.89546 -1.58958 0
M  V30 8028 H 766.324 4.58343 -3.44376 0
M  V30 8029 H 764.721 4.30248 -4.18338 0
M  V30 8030 H 765.791 2.92463 -3.86773 0
M  V30 8031 N 767.134 1.16236 1.06428 0
M  V30 8032 C 768.081 0.86769 2.13869 0
M  V30 8033 C 769.051 -0.183298 1.65086 0
M  V30 8034 O 770.236 -0.0488002 1.90738 0
M  V30 8035 C 767.376 0.373427 3.43074 0
M  V30 8036 C 766.489 1.48708 4.05598 0
M  V30 8037 C 765.624 0.947977 5.22673 0
M  V30 8038 C 764.663 2.03793 5.77178 0
M  V30 8039 N 763.8 1.51451 6.85571 0
M  V30 8040 H 768.64 1.78781 2.38414 0
M  V30 8041 H 766.177 0.891892 1.16977 0
M  V30 8042 H 768.135 0.0685035 4.17144 0
M  V30 8043 H 766.765 -0.509752 3.1875 0
M  V30 8044 H 765.817 1.908 3.29089 0
M  V30 8045 H 767.129 2.30964 4.42105 0
M  V30 8046 H 766.283 0.596154 6.03764 0
M  V30 8047 H 765.022 0.0947081 4.87608 0
M  V30 8048 H 764.027 2.39847 4.94726 0
M  V30 8049 H 765.252 2.89514 6.14295 0
M  V30 8050 H 763.198 0.683755 6.52427 0
M  V30 8051 H 763.115 2.27325 7.21013 0
M  V30 8052 H 764.383 1.19123 7.70344 0
M  V30 8053 N 768.612 -1.24939 0.960631 0
M  V30 8054 C 769.889 -1.88118 0.535807 0
M  V30 8055 C 770.269 -1.86605 -0.987009 0
M  V30 8056 O 769.617 -1.33375 -1.85536 0
M  V30 8057 C 769.827 -3.30565 1.11927 0
M  V30 8058 C 771.175 -4.07296 1.19981 0
M  V30 8059 O 772.199 -3.39709 1.07126 0
M  V30 8060 O 771.058 -5.28206 1.40218 0
M  V30 8061 H 768.152 -0.807698 0.177631 0
M  V30 8062 H 770.698 -1.32964 1.05445 0
M  V30 8063 H 769.47 -3.26128 2.16231 0
M  V30 8064 H 769.093 -3.93284 0.584245 0
M  V30 8065 N 770.09 -0.729906 -1.39679 0
M  V30 8066 C 771.367 -0.202149 -1.94553 0
M  V30 8067 C 771.747 1.29507 -1.66707 0
M  V30 8068 O 771.095 2.05819 -0.992517 0
M  V30 8069 C 771.305 -0.530279 -3.44948 0
M  V30 8070 C 772.653 -0.476808 -4.21914 0
M  V30 8071 O 773.677 -0.467171 -3.53123 0
M  V30 8072 O 772.536 -0.466869 -5.44502 0
M  V30 8073 H 769.63 -0.0351644 -0.826252 0
M  V30 8074 H 772.176 -0.808417 -1.49207 0
M  V30 8075 H 770.948 -1.56526 -3.5863 0
M  V30 8076 H 770.571 0.10522 -3.97461 0
M  V30 8077 N 771.568 1.50203 -0.477153 0
M  V30 8078 C 772.531 2.27194 0.302599 0
M  V30 8079 C 773.531 1.32221 0.915112 0
M  V30 8080 O 774.721 1.55593 0.783348 0
M  V30 8081 C 771.853 3.0938 1.43167 0
M  V30 8082 H 773.046 2.97575 -0.372678 0
M  V30 8083 H 770.599 1.54578 -0.231392 0
M  V30 8084 H 771.334 2.43509 2.14182 0
M  V30 8085 H 771.119 3.79181 0.998197 0
M  V30 8086 H 772.609 3.67592 1.98157 0
M  V30 8087 N 773.046 0.209999 1.56195 0
M  V30 8088 C 774.274 -0.429996 2.02382 0
M  V30 8089 C 774.689 -1.54159 1.08998 0
M  V30 8090 O 774.046 -1.82239 0.0974856 0
M  V30 8091 C 774.097 -0.972433 3.48175 0
M  V30 8092 O 773.818 0.0948231 4.37997 0
M  V30 8093 C 775.319 -1.68683 4.09952 0
M  V30 8094 H 772.539 -0.106475 0.662498 0
M  V30 8095 H 775.083 0.323072 2.01932 0
M  V30 8096 H 773.238 -1.67582 3.49278 0
M  V30 8097 H 773.652 -0.31113 5.23576 0
M  V30 8098 H 775.126 -2.01851 5.13771 0
M  V30 8099 H 775.603 -2.59587 3.54276 0
M  V30 8100 H 776.209 -1.02893 4.12666 0
M  V30 8101 N 774.524 -1.57472 -0.0634922 0
M  V30 8102 C 775.434 -2.07621 -1.09227 0
M  V30 8103 C 776.45 -1.00746 -1.41867 0
M  V30 8104 O 777.626 -1.32269 -1.51878 0
M  V30 8105 C 774.691 -2.51707 -2.38421 0
M  V30 8106 C 773.752 -3.72917 -2.12676 0
M  V30 8107 C 772.985 -4.14891 -3.3571 0
M  V30 8108 O 773.208 -3.56663 -4.45137 0
M  V30 8109 O 772.142 -5.07616 -3.23434 0
M  V30 8110 H 775.968 -2.95612 -0.696205 0
M  V30 8111 H 773.553 -1.46787 -0.27819 0
M  V30 8112 H 775.435 -2.80547 -3.14438 0
M  V30 8113 H 774.11 -1.66842 -2.77391 0
M  V30 8114 H 773.017 -3.49148 -1.34337 0
M  V30 8115 H 774.35 -4.5866 -1.78583 0
M  V30 8116 N 776.003 0.335068 -1.53997 0
M  V30 8117 C 776.95 1.41187 -1.82579 0
M  V30 8118 C 777.92 1.51897 -0.672061 0
M  V30 8119 O 779.105 1.673 -0.917346 0
M  V30 8120 C 776.245 2.77717 -2.0486 0
M  V30 8121 C 775.358 2.7573 -3.32561 0
M  V30 8122 C 774.493 4.04032 -3.44864 0
M  V30 8123 C 773.532 3.96308 -4.66483 0
M  V30 8124 N 772.669 5.16317 -4.75774 0
M  V30 8125 H 777.509 1.16113 -2.74448 0
M  V30 8126 H 775.046 0.562305 -1.35928 0
M  V30 8127 H 777.004 3.57071 -2.15768 0
M  V30 8128 H 775.634 3.01124 -1.16294 0
M  V30 8129 H 774.686 1.88432 -3.3045 0
M  V30 8130 H 775.998 2.65902 -4.22016 0
M  V30 8131 H 775.152 4.91814 -3.55251 0
M  V30 8132 H 773.891 4.16652 -2.53481 0
M  V30 8133 H 772.896 3.06911 -4.56164 0
M  V30 8134 H 774.121 3.85263 -5.5924 0
M  V30 8135 H 772.067 5.29464 -3.87303 0
M  V30 8136 H 771.984 5.08779 -5.59178 0
M  V30 8137 H 773.252 6.05846 -4.9048 0
M  V30 8138 N 777.481 1.45874 0.596531 0
M  V30 8139 C 778.758 1.40942 1.35627 0
M  V30 8140 C 779.138 0.0857066 2.10926 0
M  V30 8141 O 778.486 -0.932544 2.08605 0
M  V30 8142 C 778.696 2.63027 2.29386 0
M  V30 8143 C 780.044 3.08588 2.91649 0
M  V30 8144 O 781.068 2.63478 2.39704 0
M  V30 8145 O 779.927 3.86902 3.85965 0
M  V30 8146 H 777.021 0.559838 0.608696 0
M  V30 8147 H 779.567 1.5802 0.618698 0
M  V30 8148 H 778.339 3.5094 1.7308 0
M  V30 8149 H 777.962 2.48338 3.10506 0
M  V30 8150 N 778.959 -0.83999 1.33349 0
M  V30 8151 C 779.889 -1.965 1.26135 0
M  V30 8152 C 780.87 -1.69505 0.142152 0
M  V30 8153 O 782.055 -1.91346 0.331743 0
M  V30 8154 C 779.185 -3.32632 0.99866 0
M  V30 8155 C 778.139 -3.74021 2.08068 0
M  V30 8156 C 777.465 -5.07947 1.67014 0
M  V30 8157 C 778.765 -3.87925 3.49731 0
M  V30 8158 H 780.459 -2.02793 2.20262 0
M  V30 8159 H 778.005 -0.974297 1.06035 0
M  V30 8160 H 779.958 -4.10903 0.934696 0
M  V30 8161 H 778.682 -3.26593 0.0217759 0
M  V30 8162 H 777.341 -2.98012 2.13505 0
M  V30 8163 H 776.989 -4.98378 0.680316 0
M  V30 8164 H 776.689 -5.36611 2.39422 0
M  V30 8165 H 778.213 -5.88695 1.62082 0
M  V30 8166 H 779.627 -4.5651 3.46802 0
M  V30 8167 H 778.024 -4.28023 4.20614 0
M  V30 8168 H 779.094 -2.90407 3.88319 0
M  V30 8169 N 780.437 -1.16799 -1.0581 0
M  V30 8170 C 781.662 -0.977402 -1.82925 0
M  V30 8171 C 782.087 0.469514 -1.82146 0
M  V30 8172 O 781.445 1.33576 -1.22585 0
M  V30 8173 C 781.493 -1.51543 -3.27211 0
M  V30 8174 O 780.597 -0.725021 -4.05977 0
M  V30 8175 H 779.938 -0.347474 -0.565825 0
M  V30 8176 H 782.468 -1.55151 -1.33376 0
M  V30 8177 H 782.478 -1.53502 -3.78023 0
M  V30 8178 H 781.153 -2.56872 -3.27093 0
M  V30 8179 H 779.73 -0.77634 -3.64729 0
M  V30 8180 N 781.915 1.24427 -0.967243 0
M  V30 8181 C 783.192 1.87831 -0.545776 0
M  V30 8182 C 783.572 1.87126 0.977099 0
M  V30 8183 O 782.92 1.34357 1.84826 0
M  V30 8184 C 783.13 3.29967 -1.13679 0
M  V30 8185 C 784.478 4.06654 -1.22139 0
M  V30 8186 O 785.502 3.39136 -1.08926 0
M  V30 8187 O 784.361 5.27455 -1.43017 0
M  V30 8188 H 781.455 0.806745 -0.181912 0
M  V30 8189 H 784.001 1.32403 -1.06148 0
M  V30 8190 H 782.773 3.24977 -2.17958 0
M  V30 8191 H 782.396 3.92969 -0.605093 0
M  V30 8192 N 783.393 0.737304 1.3929 0
M  V30 8193 C 784.323 0.113988 2.33222 0
M  V30 8194 C 785.304 -0.721695 1.54031 0
M  V30 8195 O 786.489 -0.666206 1.82415 0
M  V30 8196 C 783.619 -0.792319 3.38141 0
M  V30 8197 C 782.573 -0.0606178 4.27957 0
M  V30 8198 C 781.899 -1.08409 5.23595 0
M  V30 8199 C 783.199 1.09817 5.10625 0
M  V30 8200 H 784.893 0.898611 2.85596 0
M  V30 8201 H 782.439 0.433571 1.37318 0
M  V30 8202 H 784.392 -1.23793 4.02807 0
M  V30 8203 H 783.116 -1.60908 2.84211 0
M  V30 8204 H 781.775 0.365393 3.64775 0
M  V30 8205 H 781.423 -1.89449 4.6596 0
M  V30 8206 H 781.123 -0.599269 5.84536 0
M  V30 8207 H 782.647 -1.52936 5.91137 0
M  V30 8208 H 784.061 0.730892 5.68622 0
M  V30 8209 H 782.458 1.51278 5.80719 0
M  V30 8210 H 783.528 1.91878 4.45321 0
M  V30 8211 N 784.871 -1.49948 0.485112 0
M  V30 8212 C 786.117 -2.02695 -0.0651022 0
M  V30 8213 C 786.45 -1.36534 -1.38102 0
M  V30 8214 O 785.725 -0.495677 -1.88078 0
M  V30 8215 C 786.008 -3.59337 -0.234285 0
M  V30 8216 C 785.861 -4.3605 1.10364 0
M  V30 8217 C 787.18 -4.28996 -0.982351 0
M  V30 8218 H 784.299 -0.736666 -0.0221856 0
M  V30 8219 H 786.941 -1.7913 0.633433 0
M  V30 8220 H 785.091 -3.79546 -0.829262 0
M  V30 8221 H 786.763 -4.27377 1.73627 0
M  V30 8222 H 785.006 -3.99236 1.69686 0
M  V30 8223 H 785.677 -5.43959 0.938743 0
M  V30 8224 H 788.153 -4.13346 -0.477904 0
M  V30 8225 H 787.029 -5.38379 -1.06955 0
M  V30 8226 H 787.29 -3.93135 -2.02231 0
M  V30 8227 N 786.349 -0.21828 -1.56081 0
M  V30 8228 C 787.574 0.422302 -2.03055 0
M  V30 8229 C 787.999 1.5279 -1.09713 0
M  V30 8230 O 787.357 1.81102 -0.0847187 0
M  V30 8231 C 787.405 0.934177 -3.48289 0
M  V30 8232 O 786.509 2.04574 -3.58083 0
M  V30 8233 H 785.85 0.0959764 -0.657027 0
M  V30 8234 H 788.38 -0.335958 -2.01823 0
M  V30 8235 H 788.39 1.24484 -3.88546 0
M  V30 8236 H 787.065 0.124963 -4.15712 0
M  V30 8237 H 785.642 1.74196 -3.29712 0
M  V30 8238 N 787.827 1.57504 0.0551401 0
M  V30 8239 C 788.737 2.08198 1.08124 0
M  V30 8240 C 789.753 1.01496 1.41331 0
M  V30 8241 O 790.929 1.33073 1.51174 0
M  V30 8242 C 787.994 2.52968 2.37083 0
M  V30 8243 C 787.055 3.7404 2.10696 0
M  V30 8244 C 786.288 4.16665 3.33505 0
M  V30 8245 O 786.511 3.59019 4.4324 0
M  V30 8246 O 785.445 5.09324 3.20737 0
M  V30 8247 H 789.271 2.95977 0.680518 0
M  V30 8248 H 786.856 1.46933 0.270401 0
M  V30 8249 H 788.738 2.82211 3.12946 0
M  V30 8250 H 787.413 1.6831 2.76502 0
M  V30 8251 H 786.32 3.49855 1.32484 0
M  V30 8252 H 787.653 4.59601 1.76148 0
M  V30 8253 N 789.305 -0.326896 1.54172 0
M  V30 8254 C 790.238 -1.42591 1.78166 0
M  V30 8255 C 791.216 -1.49837 0.631484 0
M  V30 8256 O 792.4 -1.67298 0.868544 0
M  V30 8257 C 789.527 -2.8071 1.89524 0
M  V30 8258 C 788.573 -2.91012 3.11792 0
M  V30 8259 S 789.406 -2.55763 4.70474 0
M  V30 8260 C 790.562 -3.9596 4.84733 0
M  V30 8261 H 790.795 -1.22024 2.71104 0
M  V30 8262 H 788.328 -0.523539 1.45253 0
M  V30 8263 H 790.286 -3.60276 1.96753 0
M  V30 8264 H 788.947 -2.98562 0.975696 0
M  V30 8265 H 788.14 -3.92258 3.16464 0
M  V30 8266 H 787.742 -2.19414 3.02876 0
M  V30 8267 H 790.034 -4.90676 4.67166 0
M  V30 8268 H 790.977 -3.96273 5.86833 0
M  V30 8269 H 791.385 -3.8476 4.13062 0
M  V30 8270 N 790.784 -1.46188 -0.588786 0
M  V30 8271 C 791.694 -1.58865 -1.72624 0
M  V30 8272 C 792.71 -0.472348 -1.67466 0
M  V30 8273 O 793.886 -0.735638 -1.87484 0
M  V30 8274 C 790.951 -1.56989 -3.0912 0
M  V30 8275 C 790.012 -2.79804 -3.25589 0
M  V30 8276 C 789.245 -2.78009 -4.55573 0
M  V30 8277 O 789.468 -1.86406 -5.39082 0
M  V30 8278 O 788.402 -3.6947 -4.75159 0
M  V30 8279 H 792.228 -2.55047 -1.64878 0
M  V30 8280 H 789.813 -1.28912 -0.755115 0
M  V30 8281 H 791.695 -1.58618 -3.90408 0
M  V30 8282 H 790.37 -0.639648 -3.17317 0
M  V30 8283 H 789.277 -2.83732 -2.43818 0
M  V30 8284 H 790.61 -3.72017 -3.22279 0
M  V30 8285 N 792.262 0.832906 -1.33792 0
M  V30 8286 C 793.195 1.94788 -1.18882 0
M  V30 8287 C 794.173 1.62389 -0.0828426 0
M  V30 8288 O 795.357 1.86886 -0.246175 0
M  V30 8289 C 792.484 3.28506 -0.824728 0
M  V30 8290 C 791.53 3.79872 -1.93905 0
M  V30 8291 S 792.363 4.00832 -3.55097 0
M  V30 8292 C 793.519 5.37492 -3.20708 0
M  V30 8293 H 793.752 2.07137 -2.13264 0
M  V30 8294 H 791.285 0.987362 -1.18704 0
M  V30 8295 H 793.243 4.05769 -0.621442 0
M  V30 8296 H 791.904 3.13939 0.100587 0
M  V30 8297 H 791.097 4.76647 -1.6378 0
M  V30 8298 H 790.699 3.09524 -2.09931 0
M  V30 8299 H 792.991 6.20544 -2.71903 0
M  V30 8300 H 793.934 5.72593 -4.16584 0
M  V30 8301 H 794.342 5.02529 -2.57148 0
M  V30 8302 N 793.74 1.17359 1.05189 0
M  V30 8303 C 794.673 0.833768 2.12423 0
M  V30 8304 C 795.651 -0.19945 1.61372 0
M  V30 8305 O 796.835 -0.080979 1.88326 0
M  V30 8306 C 793.962 0.243745 3.37822 0
M  V30 8307 C 793.008 1.25235 4.07699 0
M  V30 8308 S 793.841 2.80368 4.56239 0
M  V30 8309 C 794.997 2.22846 5.84885 0
M  V30 8310 H 795.23 1.74197 2.40921 0
M  V30 8311 H 792.763 0.998242 1.1779 0
M  V30 8312 H 794.721 -0.0901915 4.10401 0
M  V30 8313 H 793.382 -0.642396 3.07461 0
M  V30 8314 H 792.575 0.788168 4.97799 0
M  V30 8315 H 792.177 1.53194 3.41185 0
M  V30 8316 H 794.469 1.60403 6.58238 0
M  V30 8317 H 795.412 3.112 6.3605 0
M  V30 8318 H 795.82 1.66296 5.39449 0
M  V30 8319 N 795.218 -1.23913 0.973828 0
M  V30 8320 C 796.165 -2.25132 0.508366 0
M  V30 8321 C 797.135 -1.59908 -0.449307 0
M  V30 8322 O 798.32 -1.87405 -0.358313 0
M  V30 8323 C 795.46 -3.4458 -0.189422 0
M  V30 8324 C 794.573 -4.24381 0.807738 0
M  V30 8325 C 793.708 -5.31131 0.0854315 0
M  V30 8326 C 792.747 -6.02635 1.07225 0
M  V30 8327 N 791.884 -7.01073 0.379535 0
M  V30 8328 H 796.724 -2.64313 1.37632 0
M  V30 8329 H 794.261 -1.29924 0.689802 0
M  V30 8330 H 796.219 -4.12706 -0.610733 0
M  V30 8331 H 794.849 -3.06218 -1.02129 0
M  V30 8332 H 793.901 -3.55735 1.34747 0
M  V30 8333 H 795.213 -4.73778 1.55998 0
M  V30 8334 H 794.367 -6.05422 -0.393572 0
M  V30 8335 H 793.106 -4.82658 -0.699461 0
M  V30 8336 H 792.111 -5.27143 1.56207 0
M  V30 8337 H 793.336 -6.53197 1.85769 0
M  V30 8338 H 791.282 -6.54862 -0.386269 0
M  V30 8339 H 791.199 -7.48382 1.07054 0
M  V30 8340 H 792.467 -7.79462 -0.0772984 0
M  V30 8341 N 796.696 -0.74468 -1.38897 0
M  V30 8342 C 797.629 -0.0596441 -2.28122 0
M  V30 8343 C 798.607 0.73764 -1.44906 0
M  V30 8344 O 799.791 0.718155 -1.74284 0
M  V30 8345 C 796.918 0.922533 -3.25894 0
M  V30 8346 C 795.964 0.212566 -4.2597 0
M  V30 8347 S 796.797 -1.08035 -5.24489 0
M  V30 8348 C 797.953 -0.101014 -6.25818 0
M  V30 8349 H 798.186 -0.816289 -2.85874 0
M  V30 8350 H 795.719 -0.536882 -1.44765 0
M  V30 8351 H 797.677 1.4839 -3.82741 0
M  V30 8352 H 796.338 1.65209 -2.67142 0
M  V30 8353 H 795.531 0.956106 -4.94848 0
M  V30 8354 H 795.133 -0.277029 -3.72973 0
M  V30 8355 H 797.425 0.736072 -6.7349 0
M  V30 8356 H 798.368 -0.757206 -7.0404 0
M  V30 8357 H 798.776 0.275706 -5.63826 0
M  V30 8358 N 798.174 1.49689 -0.493057 0
M  V30 8359 C 799.423 2.01622 0.0560733 0
M  V30 8360 C 799.736 1.37838 1.3878 0
M  V30 8361 O 800.942 1.81054 2.02316 0
M  V30 8362 C 799.398 3.59586 0.150409 0
M  V30 8363 C 799.006 4.32338 -1.1742 0
M  V30 8364 C 800.75 4.19489 0.650327 0
M  V30 8365 C 798.657 5.8214 -1.04246 0
M  V30 8366 H 797.587 0.753594 0.0247297 0
M  V30 8367 H 800.238 1.723 -0.631279 0
M  V30 8368 H 798.62 3.8559 0.902035 0
M  V30 8369 H 799.794 4.18042 -1.9385 0
M  V30 8370 H 798.109 3.84144 -1.60694 0
M  V30 8371 H 800.706 5.29181 0.766272 0
M  V30 8372 H 801.049 3.82326 1.6472 0
M  V30 8373 H 801.582 3.97775 -0.0445371 0
M  V30 8374 H 798.321 6.23814 -2.01336 0
M  V30 8375 H 797.841 5.98952 -0.31892 0
M  V30 8376 H 799.52 6.43004 -0.717957 0
M  V30 8377 N 799.652 0.226554 1.55963 0
M  V30 8378 C 800.9 -0.402991 1.98041 0
M  V30 8379 C 801.221 -1.59938 1.11557 0
M  V30 8380 O 800.491 -1.9494 0.193719 0
M  V30 8381 H 799.071 -0.15188 0.731397 0
M  V30 8382 H 801.733 0.320613 1.92245 0
M  V30 8383 H 800.829 -0.725937 3.0354 0
M  V30 8384 N 801.13 -1.57531 -0.0467866 0
M  V30 8385 C 802.077 -2.05387 -1.05285 0
M  V30 8386 C 803.047 -0.939385 -1.36985 0
M  V30 8387 O 804.232 -1.20877 -1.47626 0
M  V30 8388 C 801.372 -2.52343 -2.35408 0
M  V30 8389 C 800.485 -3.77512 -2.10022 0
M  V30 8390 C 799.62 -4.1315 -3.33887 0
M  V30 8391 C 798.659 -5.31286 -3.03976 0
M  V30 8392 N 797.796 -5.62441 -4.20243 0
M  V30 8393 H 802.636 -2.91095 -0.637788 0
M  V30 8394 H 800.173 -1.43939 -0.303322 0
M  V30 8395 H 802.131 -2.77628 -3.11413 0
M  V30 8396 H 800.761 -1.69577 -2.7467 0
M  V30 8397 H 799.813 -3.59417 -1.24594 0
M  V30 8398 H 801.125 -4.63644 -1.83945 0
M  V30 8399 H 800.279 -4.39469 -4.18273 0
M  V30 8400 H 799.018 -3.25634 -3.63062 0
M  V30 8401 H 798.023 -5.04738 -2.17991 0
M  V30 8402 H 799.248 -6.20441 -2.76098 0
M  V30 8403 H 797.194 -4.77885 -4.49402 0
M  V30 8404 H 797.111 -6.43046 -3.97528 0
M  V30 8405 H 798.379 -5.93327 -5.05553 0
M  V30 8406 N 802.608 0.318715 -1.54344 0
M  V30 8407 C 803.558 1.39364 -1.80448 0
M  V30 8408 C 804.542 1.46708 -0.660728 0
M  V30 8409 O 805.734 1.51159 -0.920869 0
M  V30 8410 C 802.863 2.76144 -2.03959 0
M  V30 8411 C 801.949 2.73094 -3.24469 0
M  V30 8412 N 802.34 2.39663 -4.45416 0
M  V30 8413 C 800.638 3.04218 -3.2614 0
M  V30 8414 C 801.339 2.45469 -5.27371 0
M  V30 8415 N 800.315 2.82107 -4.64668 0
M  V30 8416 H 804.117 1.12453 -2.71535 0
M  V30 8417 H 801.631 0.527221 -1.53604 0
M  V30 8418 H 803.628 3.53627 -2.20802 0
M  V30 8419 H 802.288 3.03982 -1.14129 0
M  V30 8420 H 803.299 2.12424 -4.72331 0
M  V30 8421 H 799.976 3.37066 -2.4636 0
M  V30 8422 H 801.366 2.22571 -6.33965 0
M  V30 8423 N 804.086 1.46499 0.581025 0
M  V30 8424 C 805.033 1.5719 1.68997 0
M  V30 8425 C 806.003 0.416114 1.60803 0
M  V30 8426 O 807.188 0.633086 1.79991 0
M  V30 8427 C 804.328 1.56973 3.07333 0
M  V30 8428 C 803.441 2.83298 3.26139 0
M  V30 8429 C 802.576 2.74574 4.54734 0
M  V30 8430 C 801.615 3.9583 4.66889 0
M  V30 8431 N 800.752 3.85482 5.86811 0
M  V30 8432 H 805.592 2.51914 1.59196 0
M  V30 8433 H 803.129 1.24975 0.775857 0
M  V30 8434 H 805.087 1.54832 3.87405 0
M  V30 8435 H 803.717 0.657803 3.16027 0
M  V30 8436 H 802.769 2.95411 2.3966 0
M  V30 8437 H 804.081 3.7316 3.30988 0
M  V30 8438 H 803.235 2.70548 5.43036 0
M  V30 8439 H 801.974 1.82354 4.52325 0
M  V30 8440 H 800.979 4.00186 3.77003 0
M  V30 8441 H 802.204 4.89148 4.71075 0
M  V30 8442 H 800.15 2.96051 5.85397 0
M  V30 8443 H 800.067 4.69002 5.92936 0
M  V30 8444 H 801.335 3.85434 6.7754 0
M  V30 8445 N 805.565 -0.825799 1.34232 0
M  V30 8446 C 806.513 -1.95792 1.25572 0
M  V30 8447 C 807.507 -1.68695 0.154404 0
M  V30 8448 O 808.713 -1.77147 0.319196 0
M  V30 8449 H 805.088 -0.642949 0.390027 0
M  V30 8450 H 807.059 -2.00219 2.21258 0
M  V30 8451 C 805.808 -3.32245 1.02511 0
M  V30 8452 H 805.131 -3.53642 1.86487 0
M  V30 8453 H 806.571 -4.1192 1.00487 0
M  V30 8454 C 805.03 -3.35803 -0.27167 0
M  V30 8455 O 805.56 -3.80962 -1.274 0
M  V30 8456 N 803.766 -2.89008 -0.303778 0
M  V30 8457 H 803.313 -2.52451 0.512464 0
M  V30 8458 H 803.271 -2.9177 -1.17121 0
M  V30 8459 N 807.043 -1.17915 -1.04565 0
M  V30 8460 C 808.292 -0.965816 -1.77073 0
M  V30 8461 C 808.605 0.506005 -1.88942 0
M  V30 8462 O 809.811 0.837717 -2.58253 0
M  V30 8463 C 808.267 -1.67894 -3.18339 0
M  V30 8464 C 807.875 -3.18972 -3.1458 0
M  V30 8465 C 809.619 -1.54823 -3.9526 0
M  V30 8466 C 807.526 -3.82946 -4.50674 0
M  V30 8467 H 806.456 -0.357729 -0.663736 0
M  V30 8468 H 809.107 -1.41235 -1.17153 0
M  V30 8469 H 807.489 -1.16016 -3.78624 0
M  V30 8470 H 808.663 -3.77835 -2.63776 0
M  V30 8471 H 806.978 -3.32127 -2.51159 0
M  V30 8472 H 809.575 -1.99984 -4.95894 0
M  V30 8473 H 809.918 -0.499727 -4.1329 0
M  V30 8474 H 810.451 -2.03953 -3.41538 0
M  V30 8475 H 807.19 -4.8782 -4.37849 0
M  V30 8476 H 806.71 -3.2887 -5.01602 0
M  V30 8477 H 808.389 -3.85518 -5.196 0
M  V30 8478 N 808.521 1.23394 -0.980386 0
M  V30 8479 C 809.77 1.91116 -0.644785 0
M  V30 8480 C 810.083 1.77333 0.825367 0
M  V30 8481 O 811.289 2.39858 1.27203 0
M  V30 8482 C 809.745 3.42592 -1.10266 0
M  V30 8483 C 809.353 3.65037 -2.59715 0
M  V30 8484 C 811.097 4.1609 -0.8408 0
M  V30 8485 C 809.004 5.10148 -2.9917 0
M  V30 8486 H 807.934 0.715632 -0.23746 0
M  V30 8487 H 810.585 1.39829 -1.18828 0
M  V30 8488 H 808.967 3.92989 -0.487372 0
M  V30 8489 H 810.141 3.25186 -3.26482 0
M  V30 8490 H 808.456 3.04849 -2.83647 0
M  V30 8491 H 811.053 5.23021 -1.11143 0
M  V30 8492 H 811.396 4.15702 0.223085 0
M  V30 8493 H 811.929 3.71681 -1.41767 0
M  V30 8494 H 808.668 5.15668 -4.04682 0
M  V30 8495 H 808.188 5.50949 -2.37097 0
M  V30 8496 H 809.867 5.7848 -2.89775 0
M  V30 8497 N 809.999 0.752036 1.385 0
M  V30 8498 C 810.947 0.112634 2.32327 0
M  V30 8499 C 811.941 -0.707037 1.53939 0
M  V30 8500 O 813.147 -0.606309 1.69481 0
M  V30 8501 H 809.522 0.0176275 0.751793 0
M  V30 8502 H 811.493 0.920074 2.83861 0
M  V30 8503 C 810.242 -0.767458 3.39124 0
M  V30 8504 H 809.565 -0.146122 3.99533 0
M  V30 8505 H 811.005 -1.18216 4.07187 0
M  V30 8506 C 809.464 -1.90938 2.77568 0
M  V30 8507 O 809.994 -3.00342 2.66754 0
M  V30 8508 N 808.2 -1.70396 2.35401 0
M  V30 8509 H 807.747 -0.81413 2.44397 0
M  V30 8510 H 807.705 -2.46972 1.94557 0
M  V30 8511 N 811.477 -1.49425 0.500989 0
M  V30 8512 C 812.407 -2.31971 -0.266775 0
M  V30 8513 C 813.388 -1.40245 -0.962563 0
M  V30 8514 O 814.573 -1.69154 -0.953968 0
M  V30 8515 C 811.703 -3.20757 -1.33163 0
M  V30 8516 C 810.657 -4.21275 -0.75572 0
M  V30 8517 C 809.983 -4.98997 -1.92109 0
M  V30 8518 C 811.283 -5.21686 0.253213 0
M  V30 8519 H 812.977 -2.96408 0.422237 0
M  V30 8520 H 810.523 -1.4254 0.204505 0
M  V30 8521 H 812.476 -3.77315 -1.87646 0
M  V30 8522 H 811.2 -2.54263 -2.04983 0
M  V30 8523 H 809.859 -3.65861 -0.232637 0
M  V30 8524 H 809.507 -4.28951 -2.62698 0
M  V30 8525 H 809.207 -5.67011 -1.54182 0
M  V30 8526 H 810.731 -5.584 -2.47026 0
M  V30 8527 H 812.145 -5.72939 -0.203483 0
M  V30 8528 H 810.542 -5.9759 0.548322 0
M  V30 8529 H 811.612 -4.70596 1.16909 0
M  V30 8530 N 812.955 -0.234822 -1.55841 0
M  V30 8531 C 813.885 0.664217 -2.23854 0
M  V30 8532 C 814.866 1.19076 -1.2147 0
M  V30 8533 O 816.051 1.23232 -1.50091 0
M  V30 8534 C 813.181 1.86666 -2.9287 0
M  V30 8535 C 812.135 1.47341 -4.01839 0
M  V30 8536 C 811.461 2.75571 -4.58219 0
M  V30 8537 C 812.761 0.653479 -5.18196 0
M  V30 8538 H 814.455 0.0971213 -2.99242 0
M  V30 8539 H 812.001 0.0452724 -1.43929 0
M  V30 8540 H 813.954 2.50116 -3.39146 0
M  V30 8541 H 812.678 2.45894 -2.1495 0
M  V30 8542 H 811.337 0.862314 -3.56314 0
M  V30 8543 H 810.985 3.32971 -3.77014 0
M  V30 8544 H 810.685 2.49987 -5.31771 0
M  V30 8545 H 812.209 3.39939 -5.07221 0
M  V30 8546 H 813.623 1.19198 -5.60771 0
M  V30 8547 H 812.02 0.494188 -5.98062 0
M  V30 8548 H 813.09 -0.337004 -4.83728 0
M  V30 8549 N 814.433 1.57553 0.0384317 0
M  V30 8550 C 815.681 1.88468 0.729672 0
M  V30 8551 C 816.002 0.831302 1.76393 0
M  V30 8552 O 815.272 -0.13622 1.95426 0
M  V30 8553 H 813.852 0.695529 0.272485 0
M  V30 8554 H 816.514 1.94899 0.0066032 0
M  V30 8555 H 815.61 2.8705 1.22511 0
M  V30 8556 N 815.911 -0.310526 1.54511 0
M  V30 8557 C 816.874 -1.3657 1.84068 0
M  V30 8558 C 817.874 -1.44123 0.713097 0
M  V30 8559 O 819.064 -1.43924 0.981399 0
M  V30 8560 C 816.196 -2.75162 2.01243 0
M  V30 8561 H 817.389 -1.1161 2.78358 0
M  V30 8562 H 814.942 -0.546699 1.46427 0
M  V30 8563 H 815.677 -3.05359 1.09208 0
M  V30 8564 H 815.462 -2.71071 2.83307 0
M  V30 8565 H 816.952 -3.51473 2.25514 0
M  V30 8566 N 817.389 -1.46805 -0.573248 0
M  V30 8567 C 818.629 -1.5417 -1.34205 0
M  V30 8568 C 818.993 -0.192675 -1.91031 0
M  V30 8569 O 820.194 -0.141111 -2.68429 0
M  V30 8570 C 818.465 -2.61682 -2.43428 0
M  V30 8571 S 820.024 -2.88519 -3.30609 0
M  V30 8572 H 816.842 -0.544592 -0.4571 0
M  V30 8573 H 819.444 -1.84094 -0.658001 0
M  V30 8574 H 818.148 -3.58319 -2.00088 0
M  V30 8575 H 817.679 -2.33521 -3.16594 0
M  V30 8576 H 819.694 -2.2451 -4.42504 0
M  V30 8577 N 818.867 0.818669 -1.34668 0
M  V30 8578 C 820.095 1.60674 -1.30351 0
M  V30 8579 C 820.51 1.88408 0.121546 0
M  V30 8580 O 819.867 1.47849 1.06991 0
M  V30 8581 C 819.918 2.94516 -2.09625 0
M  V30 8582 O 819.639 2.6799 -3.46573 0
M  V30 8583 C 821.14 3.8891 -2.12754 0
M  V30 8584 H 818.36 0.499306 -0.448258 0
M  V30 8585 H 820.904 1.01828 -1.77345 0
M  V30 8586 H 819.059 3.49908 -1.66262 0
M  V30 8587 H 819.473 3.53361 -3.87603 0
M  V30 8588 H 820.947 4.79972 -2.72637 0
M  V30 8589 H 821.424 4.24599 -1.12306 0
M  V30 8590 H 822.03 3.39453 -2.56225 0
M  V30 8591 N 820.346 1.18468 1.03938 0
M  V30 8592 C 821.278 0.870615 2.12021 0
M  V30 8593 C 822.291 -0.132318 1.62261 0
M  V30 8594 O 823.48 0.0956901 1.78243 0
M  V30 8595 C 820.58 0.279727 3.37744 0
M  V30 8596 C 819.753 1.32863 4.16733 0
M  V30 8597 C 818.812 0.753204 5.20781 0
M  V30 8598 O 817.838 1.42825 5.5099 0
M  V30 8599 N 819.04 -0.448664 5.78764 0
M  V30 8600 H 821.805 1.80091 2.39556 0
M  V30 8601 H 819.366 1.08524 1.20142 0
M  V30 8602 H 821.358 -0.118829 4.04526 0
M  V30 8603 H 819.928 -0.554621 3.07641 0
M  V30 8604 H 819.148 1.90245 3.45254 0
M  V30 8605 H 820.436 2.03574 4.66299 0
M  V30 8606 H 819.834 -1.01481 5.56523 0
M  V30 8607 H 818.391 -0.789125 6.47005 0
M  V30 8608 N 821.824 -1.22873 0.986916 0
M  V30 8609 C 823.101 -1.86939 0.575589 0
M  V30 8610 C 823.481 -1.88656 -0.947205 0
M  V30 8611 O 822.829 -1.3728 -1.82665 0
M  V30 8612 C 823.039 -3.28117 1.18914 0
M  V30 8613 C 824.387 -4.04659 1.28593 0
M  V30 8614 O 825.411 -3.3736 1.14308 0
M  V30 8615 O 824.27 -5.25112 1.51391 0
M  V30 8616 H 821.364 -0.803748 0.194724 0
M  V30 8617 H 823.91 -1.30698 1.08241 0
M  V30 8618 H 822.682 -3.21468 2.231 0
M  V30 8619 H 822.305 -3.91956 0.667535 0
M  V30 8620 N 823.302 -0.75937 -1.38099 0
M  V30 8621 C 824.55 -0.317485 -1.99591 0
M  V30 8622 C 824.871 1.10628 -1.60581 0
M  V30 8623 O 824.141 1.7575 -0.865378 0
M  V30 8624 H 822.721 -0.114397 -0.738189 0
M  V30 8625 H 825.383 -0.974749 -1.68774 0
M  V30 8626 H 824.479 -0.385227 -3.09713 0
M  V30 8627 N 824.78 1.49157 -0.508906 0
M  V30 8628 C 826.191 1.86593 -0.0630975 0
M  V30 8629 C 826.542 1.42051 1.35337 0
M  V30 8630 O 825.667 0.801866 2.00995 0
M  V30 8631 C 826.262 3.38629 -0.107729 0
M  V30 8632 C 824.821 3.75336 0.282776 0
M  V30 8633 C 823.968 2.7317 -0.4768 0
M  V30 8634 H 826.919 1.41362 -0.72128 0
M  V30 8635 H 826.94 3.74271 0.685689 0
M  V30 8636 H 826.452 3.71017 -1.13876 0
M  V30 8637 H 824.553 3.48558 1.31675 0
M  V30 8638 H 824.666 4.79081 -0.0421728 0
M  V30 8639 H 823.03 2.54591 0.0743552 0
M  V30 8640 H 823.813 3.08403 -1.50807 0
M  V30 8641 N 826.258 0.243083 1.55714 0
M  V30 8642 C 827.188 -0.652336 2.24203 0
M  V30 8643 C 828.169 -1.1843 1.221 0
M  V30 8644 O 829.354 -1.22435 1.50743 0
M  V30 8645 C 826.484 -1.85111 2.93856 0
M  V30 8646 C 825.438 -1.45208 4.02615 0
M  V30 8647 C 824.764 -2.73137 4.59674 0
M  V30 8648 C 826.064 -0.625988 5.18535 0
M  V30 8649 H 827.758 -0.0812504 2.9929 0
M  V30 8650 H 825.304 -0.0376388 1.43951 0
M  V30 8651 H 827.257 -2.48314 3.40468 0
M  V30 8652 H 825.981 -2.44751 2.16251 0
M  V30 8653 H 824.64 -0.843406 3.56766 0
M  V30 8654 H 824.288 -3.30967 3.78774 0
M  V30 8655 H 823.988 -2.47163 5.33089 0
M  V30 8656 H 825.512 -3.37245 5.09017 0
M  V30 8657 H 826.926 -1.16223 5.61396 0
M  V30 8658 H 825.323 -0.462465 5.98315 0
M  V30 8659 H 826.393 0.362652 4.83542 0
M  V30 8660 N 827.736 -1.57571 -0.0300757 0
M  V30 8661 C 828.966 -1.93204 -0.731828 0
M  V30 8662 C 829.374 -0.841156 -1.69473 0
M  V30 8663 O 828.717 0.191231 -1.82702 0
M  V30 8664 C 828.779 -3.2463 -1.54453 0
M  V30 8665 C 828.443 -4.50862 -0.746507 0
M  V30 8666 C 829.44 -5.19879 -0.0472309 0
M  V30 8667 C 827.125 -4.9738 -0.701347 0
M  V30 8668 C 829.119 -6.33692 0.686518 0
M  V30 8669 C 826.806 -6.11089 0.036148 0
M  V30 8670 C 827.804 -6.791 0.728841 0
M  V30 8671 O 827.492 -7.90635 1.45436 0
M  V30 8672 H 827.224 -0.6423 -0.210775 0
M  V30 8673 H 829.778 -2.05398 0.00804194 0
M  V30 8674 H 828.008 -3.0876 -2.32818 0
M  V30 8675 H 829.697 -3.45597 -2.1288 0
M  V30 8676 H 830.463 -4.84945 -0.0731582 0
M  V30 8677 H 826.342 -4.44288 -1.23001 0
M  V30 8678 H 829.886 -6.86711 1.22773 0
M  V30 8679 H 825.783 -6.45468 0.064002 0
M  V30 8680 H 826.551 -8.06988 1.36794 0
M  V30 8681 N 829.214 0.302327 -1.54673 0
M  V30 8682 C 830.46 1.03924 -1.74149 0
M  V30 8683 C 830.793 1.86968 -0.525041 0
M  V30 8684 O 830.068 1.88538 0.477868 0
M  V30 8685 C 830.351 1.94633 -3.02969 0
M  V30 8686 C 830.204 1.14778 -4.34909 0
M  V30 8687 C 831.523 2.93826 -3.27649 0
M  V30 8688 H 828.642 0.376405 -0.633631 0
M  V30 8689 H 831.284 0.314007 -1.87387 0
M  V30 8690 H 829.434 2.56471 -2.91813 0
M  V30 8691 H 831.106 0.552363 -4.57981 0
M  V30 8692 H 829.349 0.450462 -4.31455 0
M  V30 8693 H 830.02 1.81495 -5.21309 0
M  V30 8694 H 832.496 2.42117 -3.38406 0
M  V30 8695 H 831.372 3.54462 -4.19104 0
M  V30 8696 H 831.633 3.67416 -2.45882 0
M  V30 8697 N 830.692 1.47107 0.565454 0
M  V30 8698 C 831.941 1.5257 1.31929 0
M  V30 8699 C 832.254 0.189092 1.94684 0
M  V30 8700 O 833.46 0.121657 2.71227 0
M  V30 8701 C 831.916 2.68914 2.39193 0
M  V30 8702 C 831.524 4.09069 1.82665 0
M  V30 8703 C 833.268 2.83663 3.1581 0
M  V30 8704 C 831.175 5.16726 2.87661 0
M  V30 8705 H 830.105 0.567869 0.496025 0
M  V30 8706 H 832.756 1.73361 0.60151 0
M  V30 8707 H 831.138 2.41486 3.13848 0
M  V30 8708 H 832.312 4.46364 1.14438 0
M  V30 8709 H 830.627 3.99135 1.1866 0
M  V30 8710 H 833.224 3.61261 3.94201 0
M  V30 8711 H 833.567 1.91804 3.69482 0
M  V30 8712 H 834.1 3.10821 2.48265 0
M  V30 8713 H 830.839 6.10433 2.38854 0
M  V30 8714 H 830.359 4.83957 3.54324 0
M  V30 8715 H 832.038 5.43319 3.51303 0
M  V30 8716 N 832.17 -0.811516 1.35101 0
M  V30 8717 C 833.416 -1.57068 1.28287 0
M  V30 8718 C 833.749 -1.93667 -0.143808 0
M  V30 8719 O 833.024 -1.60953 -1.09199 0
M  V30 8720 C 833.307 -2.86259 2.18466 0
M  V30 8721 C 833.16 -2.56168 3.69727 0
M  V30 8722 C 834.479 -3.87924 2.07852 0
M  V30 8723 H 831.598 -0.569869 0.467353 0
M  V30 8724 H 834.24 -0.934023 1.65457 0
M  V30 8725 H 832.39 -3.4059 1.86898 0
M  V30 8726 H 834.062 -2.08059 4.11715 0
M  V30 8727 H 832.305 -1.89436 3.90252 0
M  V30 8728 H 832.976 -3.48344 4.28206 0
M  V30 8729 H 835.452 -3.4298 2.35593 0
M  V30 8730 H 834.328 -4.76106 2.73157 0
M  V30 8731 H 834.589 -4.2923 1.05896 0
M  V30 8732 N 833.648 -1.19017 -1.03309 0
M  V30 8733 C 834.558 -0.939303 -2.14975 0
M  V30 8734 C 835.574 0.0992359 -1.73717 0
M  V30 8735 O 836.75 -0.0844362 -2.01223 0
M  V30 8736 C 833.815 -0.476712 -3.43407 0
M  V30 8737 C 832.876 -1.58413 -3.99003 0
M  V30 8738 C 832.109 -1.14352 -5.21305 0
M  V30 8739 O 832.332 -0.00534408 -5.704 0
M  V30 8740 O 831.266 -1.94436 -5.6963 0
M  V30 8741 H 835.092 -1.87386 -2.38998 0
M  V30 8742 H 832.677 -0.972635 -1.13403 0
M  V30 8743 H 834.559 -0.22718 -4.20787 0
M  V30 8744 H 833.234 0.429455 -3.20839 0
M  V30 8745 H 832.141 -1.88777 -3.22977 0
M  V30 8746 H 833.474 -2.4667 -4.25928 0
M  V30 8747 N 835.127 1.22348 -0.993418 0
M  V30 8748 C 836.357 1.94842 -0.687023 0
M  V30 8749 C 836.765 1.73594 0.752445 0
M  V30 8750 O 836.108 1.03238 1.51946 0
M  V30 8751 C 836.17 3.47694 -0.913754 0
M  V30 8752 C 835.834 3.92678 -2.33781 0
M  V30 8753 C 836.831 4.0031 -3.31734 0
M  V30 8754 C 834.516 4.25311 -2.67237 0
M  V30 8755 C 836.51 4.39951 -4.61218 0
M  V30 8756 C 834.197 4.64631 -3.9694 0
M  V30 8757 C 835.195 4.71919 -4.93742 0
M  V30 8758 O 834.883 5.10349 -6.21127 0
M  V30 8759 H 834.615 0.626771 -0.253247 0
M  V30 8760 H 837.169 1.56436 -1.33105 0
M  V30 8761 H 835.399 3.86115 -0.212552 0
M  V30 8762 H 837.088 4.01403 -0.602528 0
M  V30 8763 H 837.854 3.75288 -3.07219 0
M  V30 8764 H 833.733 4.18842 -1.92594 0
M  V30 8765 H 837.277 4.45555 -5.36774 0
M  V30 8766 H 833.174 4.89104 -4.21245 0
M  V30 8767 H 833.942 5.2842 -6.25072 0
M  V30 8768 N 836.605 0.766683 1.37694 0
M  V30 8769 C 837.568 0.155849 2.2867 0
M  V30 8770 C 838.568 -0.633509 1.47795 0
M  V30 8771 O 839.758 -0.457844 1.68076 0
M  V30 8772 C 836.89 -0.786965 3.31692 0
M  V30 8773 H 838.083 0.957748 2.84196 0
M  V30 8774 H 835.636 0.534554 1.46875 0
M  V30 8775 H 836.371 -1.61406 2.8128 0
M  V30 8776 H 836.156 -0.223182 3.91464 0
M  V30 8777 H 837.646 -1.20994 3.99688 0
M  V30 8778 N 838.083 -1.48885 0.516809 0
M  V30 8779 C 839.308 -2.0739 -0.0205201 0
M  V30 8780 C 839.733 -1.37259 -1.28614 0
M  V30 8781 O 839.091 -0.434304 -1.76021 0
M  V30 8782 C 839.139 -3.59793 -0.24104 0
M  V30 8783 O 838.243 -3.90957 -1.31251 0
M  V30 8784 H 837.584 -0.663167 0.0332564 0
M  V30 8785 H 840.114 -1.91477 0.720956 0
M  V30 8786 H 840.124 -4.0531 -0.467737 0
M  V30 8787 H 838.799 -4.10244 0.68356 0
M  V30 8788 H 837.376 -3.57234 -1.06951 0
M  V30 8789 N 839.561 -0.251338 -1.55583 0
M  V30 8790 C 840.508 0.646337 -2.21565 0
M  V30 8791 C 841.478 1.16796 -1.18102 0
M  V30 8792 O 842.663 1.22162 -1.46564 0
M  V30 8793 C 839.803 1.83557 -2.92234 0
M  V30 8794 C 838.916 1.35006 -4.10363 0
M  V30 8795 C 838.051 2.4992 -4.68736 0
M  V30 8796 C 837.09 1.98253 -5.79105 0
M  V30 8797 N 836.227 3.06551 -6.31642 0
M  V30 8798 H 841.067 0.0769881 -2.97901 0
M  V30 8799 H 838.604 0.026238 -1.47077 0
M  V30 8800 H 840.562 2.53425 -3.31408 0
M  V30 8801 H 839.192 2.37733 -2.18364 0
M  V30 8802 H 838.244 0.545274 -3.76472 0
M  V30 8803 H 839.556 0.931435 -4.90026 0
M  V30 8804 H 838.71 3.27823 -5.10507 0
M  V30 8805 H 837.449 2.95086 -3.88298 0
M  V30 8806 H 836.454 1.18822 -5.36807 0
M  V30 8807 H 837.679 1.54051 -6.61396 0
M  V30 8808 H 835.625 3.51143 -5.54107 0
M  V30 8809 H 835.542 2.69033 -7.06511 0
M  V30 8810 H 836.81 3.84499 -6.78071 0
M  V30 8811 N 841.039 1.57585 0.0217189 0
M  V30 8812 C 842.287 1.89231 0.709641 0
M  V30 8813 C 842.608 0.849964 1.75501 0
M  V30 8814 O 841.878 -0.115485 1.95559 0
M  V30 8815 H 840.458 0.69838 0.265092 0
M  V30 8816 H 843.12 1.94895 -0.0140688 0
M  V30 8817 H 842.216 2.88333 1.19459 0
M  V30 8818 N 842.517 -0.29412 1.54831 0
M  V30 8819 C 843.465 -1.38296 1.87021 0
M  V30 8820 C 844.459 -1.5216 0.744557 0
M  V30 8821 O 845.665 -1.54196 0.92864 0
M  V30 8822 H 842.04 -0.462088 0.593278 0
M  V30 8823 H 844.011 -1.08386 2.7802 0
M  V30 8824 C 842.76 -2.74024 2.14023 0
M  V30 8825 H 842.083 -2.6414 3.00117 0
M  V30 8826 H 843.523 -3.49205 2.40482 0
M  V30 8827 C 841.982 -3.23492 0.940982 0
M  V30 8828 O 842.512 -4.01361 0.164937 0
M  V30 8829 N 840.718 -2.80902 0.744467 0
M  V30 8830 H 840.265 -2.17694 1.37721 0
M  V30 8831 H 840.223 -3.14349 -0.0563652 0
M  V30 8832 N 843.995 -1.47404 -0.557645 0
M  V30 8833 C 844.925 -1.62736 -1.67449 0
M  V30 8834 C 845.906 -0.476824 -1.6328 0
M  V30 8835 O 847.091 -0.706108 -1.80908 0
M  V30 8836 C 844.221 -1.641 -3.06086 0
M  V30 8837 C 843.175 -2.78377 -3.25101 0
M  V30 8838 C 842.501 -2.64812 -4.6452 0
M  V30 8839 C 843.801 -4.19971 -3.10518 0
M  V30 8840 H 845.495 -2.56232 -1.54873 0
M  V30 8841 H 843.041 -1.23312 -0.743649 0
M  V30 8842 H 844.994 -1.73417 -3.84063 0
M  V30 8843 H 843.718 -0.671652 -3.19619 0
M  V30 8844 H 842.377 -2.6857 -2.49531 0
M  V30 8845 H 842.025 -1.65906 -4.74852 0
M  V30 8846 H 841.725 -3.41477 -4.78191 0
M  V30 8847 H 843.249 -2.76057 -5.44633 0
M  V30 8848 H 844.663 -4.30757 -3.78313 0
M  V30 8849 H 843.06 -4.97419 -3.35699 0
M  V30 8850 H 844.13 -4.38369 -2.0727 0
M  V30 8851 N 845.473 0.80434 -1.35529 0
M  V30 8852 C 846.889 1.10023 -1.15616 0
M  V30 8853 C 847.089 2.01478 0.0298535 0
M  V30 8854 O 846.145 2.42609 0.699778 0
M  V30 8855 C 847.458 1.72905 -2.46017 0
M  V30 8856 C 849.006 1.85315 -2.52245 0
M  V30 8857 C 849.481 2.51612 -3.82695 0
M  V30 8858 N 850.972 2.59095 -3.83958 0
M  V30 8859 C 851.707 3.11167 -4.81625 0
M  V30 8860 N 851.203 3.63659 -5.89681 0
M  V30 8861 N 852.996 3.09741 -4.6906 0
M  V30 8862 H 845.147 0.196428 -2.1149 0
M  V30 8863 H 847.41 0.149735 -0.9361 0
M  V30 8864 H 847.116 1.13171 -3.32994 0
M  V30 8865 H 846.99 2.72579 -2.6073 0
M  V30 8866 H 849.377 2.44191 -1.65695 0
M  V30 8867 H 849.458 0.844886 -2.41444 0
M  V30 8868 H 849.102 1.93385 -4.69643 0
M  V30 8869 H 849.032 3.5298 -3.90785 0
M  V30 8870 H 851.523 2.21908 -3.05884 0
M  V30 8871 H 851.836 4.01699 -6.60195 0
M  V30 8872 H 850.181 3.61852 -5.9337 0
M  V30 8873 H 853.372 2.68011 -3.83781 0
M  V30 8874 H 853.545 3.50016 -5.45338 0
M  V30 8875 N 846.951 1.19563 1.02676 0
M  V30 8876 C 847.861 0.950691 2.14474 0
M  V30 8877 C 848.877 -0.0900219 1.73767 0
M  V30 8878 O 850.053 0.0951063 2.01175 0
M  V30 8879 C 847.118 0.494917 3.43149 0
M  V30 8880 C 846.179 1.60527 3.98158 0
M  V30 8881 C 845.412 1.17115 5.20692 0
M  V30 8882 O 845.635 0.0355937 5.70389 0
M  V30 8883 O 844.569 1.97454 5.68591 0
M  V30 8884 H 848.395 1.88651 2.38001 0
M  V30 8885 H 845.98 0.978635 1.12885 0
M  V30 8886 H 847.862 0.249492 4.20661 0
M  V30 8887 H 846.537 -0.412434 3.21062 0
M  V30 8888 H 845.444 1.90487 3.21971 0
M  V30 8889 H 846.777 2.48925 4.24614 0
M  V30 8890 N 848.429 -1.21819 0.999893 0
M  V30 8891 C 849.659 -1.94475 0.697346 0
M  V30 8892 C 850.067 -1.73991 -0.743228 0
M  V30 8893 O 849.41 -1.04042 -1.51397 0
M  V30 8894 C 849.472 -3.47204 0.932181 0
M  V30 8895 C 849.136 -3.91432 2.3586 0
M  V30 8896 C 850.133 -3.98545 3.33853 0
M  V30 8897 C 847.818 -4.23888 2.69489 0
M  V30 8898 C 849.812 -4.37499 4.63545 0
M  V30 8899 C 847.499 -4.62519 3.99399 0
M  V30 8900 C 848.497 -4.69294 4.96238 0
M  V30 8901 O 848.185 -5.07048 6.23825 0
M  V30 8902 H 847.917 -0.625419 0.256567 0
M  V30 8903 H 850.471 -1.55728 1.33933 0
M  V30 8904 H 848.701 -3.85997 0.233025 0
M  V30 8905 H 850.39 -4.01078 0.623807 0
M  V30 8906 H 851.156 -3.73654 3.09205 0
M  V30 8907 H 847.035 -4.17815 1.94812 0
M  V30 8908 H 850.579 -4.42702 5.3913 0
M  V30 8909 H 846.476 -4.86864 4.23833 0
M  V30 8910 H 847.244 -5.25098 6.27865 0
M  V30 8911 N 849.908 -0.773975 -1.37286 0
M  V30 8912 C 850.838 -0.175782 -2.32837 0
M  V30 8913 C 851.819 0.680603 -1.5589 0
M  V30 8914 O 853.004 0.617607 -1.84117 0
M  V30 8915 C 850.134 0.702388 -3.40123 0
M  V30 8916 C 849.088 -0.0528687 -4.27967 0
M  V30 8917 C 848.414 0.944891 -5.26285 0
M  V30 8918 C 849.714 -1.23316 -5.07534 0
M  V30 8919 H 851.408 -0.974016 -2.83114 0
M  V30 8920 H 848.954 -0.469826 -1.3612 0
M  V30 8921 H 850.907 1.13069 -4.05947 0
M  V30 8922 H 849.631 1.53316 -2.88378 0
M  V30 8923 H 848.29 -0.461978 -3.63678 0
M  V30 8924 H 847.938 1.77028 -4.70819 0
M  V30 8925 H 847.638 0.444079 -5.8592 0
M  V30 8926 H 849.162 1.37209 -5.94984 0
M  V30 8927 H 850.576 -0.881395 -5.66484 0
M  V30 8928 H 848.973 -1.66621 -5.76504 0
M  V30 8929 H 850.043 -2.03617 -4.40077 0
M  V30 8930 N 851.386 1.48609 -0.524698 0
M  V30 8931 C 852.802 1.58557 -0.182199 0
M  V30 8932 C 853.002 1.52732 1.31435 0
M  V30 8933 O 852.058 1.41362 2.0922 0
M  V30 8934 C 853.371 2.90406 -0.78004 0
M  V30 8935 C 854.919 3.03924 -0.748293 0
M  V30 8936 C 855.394 4.38427 -1.32462 0
M  V30 8937 N 856.885 4.4498 -1.28635 0
M  V30 8938 C 857.62 5.47551 -1.70223 0
M  V30 8939 N 857.116 6.57103 -2.19515 0
M  V30 8940 N 858.909 5.38402 -1.61493 0
M  V30 8941 H 851.06 1.50638 -1.4974 0
M  V30 8942 H 853.323 0.714952 -0.622533 0
M  V30 8943 H 853.029 3.00308 -1.83052 0
M  V30 8944 H 852.903 3.76343 -0.254075 0
M  V30 8945 H 855.29 2.93638 0.293407 0
M  V30 8946 H 855.371 2.19611 -1.31167 0
M  V30 8947 H 855.015 4.49466 -2.36522 0
M  V30 8948 H 854.945 5.21418 -0.736967 0
M  V30 8949 H 857.436 3.66393 -0.92545 0
M  V30 8950 H 857.749 7.31499 -2.49257 0
M  V30 8951 H 856.094 6.58081 -2.23506 0
M  V30 8952 H 859.285 4.5171 -1.22785 0
M  V30 8953 H 859.458 6.18208 -1.94225 0
M  V30 8954 N 852.864 0.259585 1.55447 0
M  V30 8955 C 853.827 -0.621359 2.20617 0
M  V30 8956 C 854.827 -1.09317 1.17925 0
M  V30 8957 O 856.017 -0.995842 1.42929 0
M  V30 8958 C 853.149 -1.85546 2.85982 0
M  V30 8959 H 854.342 -0.0525833 2.99854 0
M  V30 8960 H 851.895 0.0101055 1.56297 0
M  V30 8961 H 852.63 -2.46515 2.10715 0
M  V30 8962 H 852.415 -1.52523 3.61219 0
M  V30 8963 H 853.905 -2.48227 3.35817 0
M  V30 8964 N 854.342 -1.57594 -0.0133615 0
M  V30 8965 C 855.758 -1.5527 -0.369255 0
M  V30 8966 C 855.958 -0.987751 -1.7563 0
M  V30 8967 O 855.014 -0.615683 -2.44879 0
M  V30 8968 C 856.327 -2.99602 -0.25672 0
M  V30 8969 C 857.875 -3.11227 -0.332647 0
M  V30 8970 C 858.35 -4.57321 -0.249387 0
M  V30 8971 N 859.841 -4.62177 -0.3077 0
M  V30 8972 C 860.576 -5.72781 -0.26641 0
M  V30 8973 N 860.072 -6.92575 -0.176494 0
M  V30 8974 N 861.865 -5.61204 -0.317295 0
M  V30 8975 H 854.016 -1.92662 0.894154 0
M  V30 8976 H 856.279 -0.884352 0.341505 0
M  V30 8977 H 855.985 -3.44723 0.697072 0
M  V30 8978 H 855.859 -3.6246 -1.04415 0
M  V30 8979 H 858.246 -2.66045 -1.27688 0
M  V30 8980 H 858.327 -2.51171 0.484412 0
M  V30 8981 H 857.971 -5.03174 0.691242 0
M  V30 8982 H 857.901 -5.15306 -1.08476 0
M  V30 8983 H 860.392 -3.75994 -0.379069 0
M  V30 8984 H 860.705 -7.72653 -0.150518 0
M  V30 8985 H 859.05 -6.94854 -0.142314 0
M  V30 8986 H 862.241 -4.66509 -0.385643 0
M  V30 8987 H 862.414 -6.47388 -0.28165 0
M  V30 8988 N 855.82 0.285905 -1.54985 0
M  V30 8989 C 857.236 0.632405 -1.46536 0
M  V30 8990 C 857.436 1.90074 -0.668888 0
M  V30 8991 O 856.492 2.51839 -0.182586 0
M  V30 8992 C 857.805 0.771361 -2.90638 0
M  V30 8993 C 859.353 0.866262 -3.00774 0
M  V30 8994 C 859.828 1.0371 -4.46103 0
M  V30 8995 N 861.319 1.10294 -4.49877 0
M  V30 8996 C 862.054 1.25369 -5.59527 0
M  V30 8997 N 861.55 1.37246 -6.7907 0
M  V30 8998 N 863.343 1.28377 -5.47244 0
M  V30 8999 H 855.494 -0.547226 -2.0523 0
M  V30 9000 H 857.757 -0.183298 -0.930111 0
M  V30 9001 H 857.463 -0.0899485 -3.51585 0
M  V30 9002 H 857.337 1.65569 -3.3892 0
M  V30 9003 H 859.724 1.71805 -2.39931 0
M  V30 9004 H 859.805 -0.0424049 -2.55765 0
M  V30 9005 H 859.449 0.190021 -5.07544 0
M  V30 9006 H 859.379 1.96022 -4.88757 0
M  V30 9007 H 861.87 1.02407 -3.6376 0
M  V30 9008 H 862.183 1.48546 -7.58389 0
M  V30 9009 H 860.528 1.34274 -6.81906 0
M  V30 9010 H 863.719 1.1872 -4.52795 0
M  V30 9011 H 863.892 1.39782 -6.32744 0
M  V30 9012 N 857.298 1.47698 0.54982 0
M  V30 9013 C 858.709 1.48474 1.13191 0
M  V30 9014 C 859.06 0.243504 1.94683 0
M  V30 9015 O 858.185 -0.651009 2.06375 0
M  V30 9016 C 858.78 2.69022 2.05944 0
M  V30 9017 C 857.339 2.72733 2.5941 0
M  V30 9018 C 856.486 2.41691 1.35944 0
M  V30 9019 H 859.437 1.55101 0.336048 0
M  V30 9020 H 859.458 2.46412 2.89934 0
M  V30 9021 H 858.97 3.59345 1.46605 0
M  V30 9022 H 857.071 1.86568 3.22526 0
M  V30 9023 H 857.184 3.73628 2.99899 0
M  V30 9024 H 855.548 1.92428 1.66864 0
M  V30 9025 H 856.331 3.34231 0.783869 0
M  V30 9026 N 858.776 -0.797141 1.35954 0
M  V30 9027 C 860.187 -1.37179 1.26644 0
M  V30 9028 C 860.538 -1.9596 -0.0971046 0
M  V30 9029 O 859.663 -1.91994 -0.998355 0
M  V30 9030 C 860.258 -2.49395 2.2932 0
M  V30 9031 C 858.817 -3.02697 2.23722 0
M  V30 9032 C 857.964 -1.75721 2.14517 0
M  V30 9033 H 860.915 -0.599407 1.46945 0
M  V30 9034 H 860.936 -3.28204 1.92515 0
M  V30 9035 H 860.448 -2.06584 3.2855 0
M  V30 9036 H 858.549 -3.49948 1.27934 0
M  V30 9037 H 858.662 -3.60036 3.16087 0
M  V30 9038 H 857.026 -1.97649 1.60646 0
M  V30 9039 H 857.809 -1.35049 3.15621 0
M  V30 9040 N 860.254 -1.20106 -1.0204 0
M  V30 9041 C 861.502 -1.0069 -1.75231 0
M  V30 9042 C 861.823 0.462491 -1.89436 0
M  V30 9043 O 861.093 1.33455 -1.4341 0
M  V30 9044 H 859.673 -0.369576 -0.649171 0
M  V30 9045 H 862.335 -1.51149 -1.23044 0
M  V30 9046 H 861.431 -1.46205 -2.75736 0
M  V30 9047 N 861.732 1.21287 -1.00634 0
M  V30 9048 C 862.665 2.22366 -0.512687 0
M  V30 9049 C 863.643 1.56692 0.434332 0
M  V30 9050 O 864.827 1.85094 0.35674 0
M  V30 9051 C 861.954 3.37738 0.255139 0
M  V30 9052 C 861 4.21673 -0.639883 0
M  V30 9053 S 861.833 4.92474 -2.10308 0
M  V30 9054 C 862.989 6.11275 -1.34512 0
M  V30 9055 H 863.222 2.63896 -1.36918 0
M  V30 9056 H 860.755 1.31176 -0.814387 0
M  V30 9057 H 862.713 4.04624 0.692067 0
M  V30 9058 H 861.374 2.94689 1.08707 0
M  V30 9059 H 860.567 5.03977 -0.0483821 0
M  V30 9060 H 860.169 3.59988 -1.01414 0
M  V30 9061 H 862.461 6.7466 -0.619721 0
M  V30 9062 H 863.404 6.74864 -2.14393 0
M  V30 9063 H 863.812 5.58026 -0.852506 0
M  V30 9064 N 863.21 0.781244 1.36873 0
M  V30 9065 C 864.12 0.174981 2.33947 0
M  V30 9066 C 865.136 -0.668512 1.60645 0
M  V30 9067 O 866.312 -0.586213 1.9268 0
M  V30 9068 C 863.377 -0.686557 3.39834 0
M  V30 9069 C 862.438 0.174489 4.28945 0
M  V30 9070 C 861.671 -0.646024 5.29776 0
M  V30 9071 O 861.894 -1.88254 5.38439 0
M  V30 9072 O 860.828 -0.0502214 6.01879 0
M  V30 9073 H 864.654 0.977382 2.87543 0
M  V30 9074 H 862.239 0.542559 1.392 0
M  V30 9075 H 864.121 -1.1781 4.04597 0
M  V30 9076 H 862.796 -1.46699 2.8855 0
M  V30 9077 H 861.703 0.712604 3.6725 0
M  V30 9078 H 863.036 0.918232 4.83559 0
M  V30 9079 N 864.689 -1.48329 0.532571 0
M  V30 9080 C 865.919 -2.066 0.00353785 0
M  V30 9081 C 866.327 -1.38913 -1.28451 0
M  V30 9082 O 865.67 -0.471385 -1.77549 0
M  V30 9083 C 865.732 -3.58342 -0.288324 0
M  V30 9084 C 865.396 -4.47917 0.906631 0
M  V30 9085 C 866.393 -4.87534 1.80572 0
M  V30 9086 C 864.078 -4.89783 1.11436 0
M  V30 9087 C 866.072 -5.6779 2.89642 0
M  V30 9088 C 863.759 -5.69809 2.20819 0
M  V30 9089 C 864.757 -6.08721 3.09755 0
M  V30 9090 O 864.445 -6.8714 4.17246 0
M  V30 9091 H 864.177 -0.675263 0.0315661 0
M  V30 9092 H 866.731 -1.91669 0.738375 0
M  V30 9093 H 864.961 -3.71395 -1.07717 0
M  V30 9094 H 866.65 -3.98726 -0.759752 0
M  V30 9095 H 867.416 -4.5581 1.65719 0
M  V30 9096 H 863.295 -4.58977 0.431382 0
M  V30 9097 H 866.839 -5.98082 3.59087 0
M  V30 9098 H 862.736 -6.00947 2.35655 0
M  V30 9099 H 863.504 -7.05498 4.14988 0
M  V30 9100 N 866.167 -0.267825 -1.55308 0
M  V30 9101 C 867.392 0.357487 -2.04296 0
M  V30 9102 C 867.817 1.49222 -1.14518 0
M  V30 9103 O 867.175 1.80741 -0.142292 0
M  V30 9104 C 867.223 0.822899 -3.51085 0
M  V30 9105 O 866.327 1.93078 -3.6441 0
M  V30 9106 H 865.668 0.075025 -0.659748 0
M  V30 9107 H 868.198 -0.399996 -2.00652 0
M  V30 9108 H 868.208 1.12059 -3.92309 0
M  V30 9109 H 866.883 -0.0073562 -4.15899 0
M  V30 9110 H 865.46 1.63618 -3.35087 0
M  V30 9111 N 867.645 1.57599 0.00500368 0
M  V30 9112 C 868.875 1.94344 0.700998 0
M  V30 9113 C 869.283 0.868011 1.68114 0
M  V30 9114 O 868.626 -0.16214 1.82983 0
M  V30 9115 C 868.688 3.27046 1.49268 0
M  V30 9116 C 868.352 4.51992 0.674684 0
M  V30 9117 C 869.349 5.19888 -0.0354833 0
M  V30 9118 C 867.034 4.98432 0.622129 0
M  V30 9119 C 869.028 6.3252 -0.787246 0
M  V30 9120 C 866.715 6.10954 -0.133362 0
M  V30 9121 C 867.713 6.77855 -0.836788 0
M  V30 9122 O 867.401 7.88221 -1.57996 0
M  V30 9123 H 867.133 0.645572 0.20053 0
M  V30 9124 H 869.687 2.0536 -0.040718 0
M  V30 9125 H 867.917 3.12424 2.27877 0
M  V30 9126 H 869.606 3.4894 2.07355 0
M  V30 9127 H 870.372 4.85 -0.00400159 0
M  V30 9128 H 866.251 4.46189 1.15917 0
M  V30 9129 H 869.795 6.84671 -1.33683 0
M  V30 9130 H 865.692 6.45285 -0.166682 0
M  V30 9131 H 866.46 8.0471 -1.49615 0
M  V30 9132 N 869.123 -0.277682 1.55134 0
M  V30 9133 C 870.4 -1.0309 1.66228 0
M  V30 9134 C 870.78 -2.0445 0.525701 0
M  V30 9135 O 870.128 -2.23512 -0.474816 0
M  V30 9136 C 870.338 -1.6919 3.05247 0
M  V30 9137 C 871.686 -2.20526 3.62841 0
M  V30 9138 O 872.71 -1.79185 3.07849 0
M  V30 9139 O 871.569 -2.96342 4.59177 0
M  V30 9140 H 868.663 -0.4779 0.674937 0
M  V30 9141 H 871.209 -0.273912 1.67475 0
M  V30 9142 H 869.981 -0.957163 3.79413 0
M  V30 9143 H 869.604 -2.51587 3.07879 0
M  V30 9144 N 870.601 -1.47988 -0.541979 0
M  V30 9145 C 871.85 -1.5465 -1.29485 0
M  V30 9146 C 872.163 -0.220041 -1.94358 0
M  V30 9147 O 873.369 -0.164792 -2.70999 0
M  V30 9148 C 871.825 -2.72685 -2.34885 0
M  V30 9149 C 871.433 -4.11923 -1.76134 0
M  V30 9150 C 873.177 -2.88651 -3.11257 0
M  V30 9151 C 871.084 -5.21237 -2.79404 0
M  V30 9152 H 870.014 -0.575688 -0.486928 0
M  V30 9153 H 872.665 -1.74296 -0.573853 0
M  V30 9154 H 871.047 -2.46448 -3.09966 0
M  V30 9155 H 872.221 -4.48128 -1.07322 0
M  V30 9156 H 870.536 -4.00972 -1.12295 0
M  V30 9157 H 873.133 -3.67487 -3.88404 0
M  V30 9158 H 873.476 -1.97658 -3.66384 0
M  V30 9159 H 874.009 -3.14731 -2.43288 0
M  V30 9160 H 870.748 -6.14156 -2.29113 0
M  V30 9161 H 870.268 -4.89533 -3.4658 0
M  V30 9162 H 871.947 -5.48839 -3.42615 0
M  V30 9163 N 872.079 0.78992 -1.36375 0
M  V30 9164 C 873.027 1.92394 -1.30719 0
M  V30 9165 C 874.021 1.68226 -0.199076 0
M  V30 9166 O 875.227 1.76239 -0.366051 0
M  V30 9167 H 871.602 0.632382 -0.406936 0
M  V30 9168 H 873.573 1.94282 -2.26488 0
M  V30 9169 C 872.322 3.2941 -1.11284 0
M  V30 9170 H 871.645 3.48573 -1.95798 0
M  V30 9171 H 873.085 4.09111 -1.11373 0
M  V30 9172 C 871.544 3.36405 0.182543 0
M  V30 9173 O 872.074 3.84206 1.17255 0
M  V30 9174 N 870.28 2.89712 0.227046 0
M  V30 9175 H 869.827 2.51004 -0.579217 0
M  V30 9176 H 869.785 2.94773 1.09344 0
M  V30 9177 N 873.557 1.20646 1.01402 0
M  V30 9178 C 874.973 0.961866 1.27359 0
M  V30 9179 C 875.173 -0.357083 1.98311 0
M  V30 9180 O 874.229 -1.08498 2.28001 0
M  V30 9181 C 875.542 2.14627 2.10609 0
M  V30 9182 C 877.09 2.18753 2.23866 0
M  V30 9183 C 877.565 3.36686 3.10494 0
M  V30 9184 N 879.056 3.36716 3.18083 0
M  V30 9185 C 879.791 4.24615 3.85343 0
M  V30 9186 N 879.287 5.22697 4.54708 0
M  V30 9187 N 881.08 4.12449 3.81893 0
M  V30 9188 H 873.231 2.05481 0.537721 0
M  V30 9189 H 875.494 0.899292 0.299963 0
M  V30 9190 H 875.2 3.10159 1.65814 0
M  V30 9191 H 875.074 2.12935 3.11349 0
M  V30 9192 H 877.461 1.23782 2.67885 0
M  V30 9193 H 877.542 2.24492 1.22626 0
M  V30 9194 H 877.186 4.31945 2.67181 0
M  V30 9195 H 877.116 3.28185 4.11828 0
M  V30 9196 H 879.607 2.65728 2.68695 0
M  V30 9197 H 879.92 5.86087 5.03708 0
M  V30 9198 H 878.265 5.26631 4.53525 0
M  V30 9199 H 881.456 3.35091 3.26851 0
M  V30 9200 H 881.629 4.81162 4.34035 0
M  V30 9201 N 875.035 -1.20752 1.01276 0
M  V30 9202 C 876.281 -1.90302 0.700924 0
M  V30 9203 C 876.614 -1.78406 -0.767142 0
M  V30 9204 O 875.889 -1.16575 -1.55694 0
M  V30 9205 C 876.172 -3.41831 1.13242 0
M  V30 9206 C 876.025 -3.6268 2.66051 0
M  V30 9207 C 877.344 -4.34486 0.700738 0
M  V30 9208 H 874.463 -0.69107 0.256107 0
M  V30 9209 H 877.105 -1.42227 1.25982 0
M  V30 9210 H 875.255 -3.82906 0.656902 0
M  V30 9211 H 876.927 -3.30882 3.21426 0
M  V30 9212 H 875.17 -3.06281 3.07204 0
M  V30 9213 H 875.841 -4.68882 2.91296 0
M  V30 9214 H 878.317 -4.01036 1.10948 0
M  V30 9215 H 877.193 -5.39136 1.03073 0
M  V30 9216 H 877.454 -4.40307 -0.39778 0
M  V30 9217 N 876.513 -0.788492 -1.36457 0
M  V30 9218 C 877.924 -0.423742 -1.81828 0
M  V30 9219 C 878.275 1.05221 -1.65599 0
M  V30 9220 O 877.4 1.8163 -1.17641 0
M  V30 9221 C 877.995 -0.762354 -3.30112 0
M  V30 9222 C 876.554 -0.450445 -3.73695 0
M  V30 9223 C 875.701 -0.997482 -2.58738 0
M  V30 9224 H 878.652 -0.981718 -1.24692 0
M  V30 9225 H 878.673 -0.0531136 -3.80463 0
M  V30 9226 H 878.185 -1.83662 -3.41891 0
M  V30 9227 H 876.286 0.615829 -3.67476 0
M  V30 9228 H 876.399 -0.970408 -4.69169 0
M  V30 9229 H 874.763 -0.420761 -2.51201 0
M  V30 9230 H 875.546 -2.07749 -2.73304 0
M  V30 9231 N 877.991 1.48044 -0.54043 0
M  V30 9232 C 878.901 2.33565 0.220163 0
M  V30 9233 C 879.917 1.47146 0.928659 0
M  V30 9234 O 881.093 1.80107 0.901295 0
M  V30 9235 C 878.158 3.2349 1.2472 0
M  V30 9236 C 877.219 4.25789 0.547938 0
M  V30 9237 C 876.452 5.11417 1.52605 0
M  V30 9238 O 876.675 4.99204 2.75956 0
M  V30 9239 O 875.609 5.92498 1.05972 0
M  V30 9240 H 879.435 2.99868 -0.480898 0
M  V30 9241 H 877.02 1.46332 -0.301226 0
M  V30 9242 H 878.902 3.79084 1.84047 0
M  V30 9243 H 877.577 2.59835 1.93048 0
M  V30 9244 H 876.484 3.74001 -0.0860941 0
M  V30 9245 H 877.817 4.92111 -0.0935896 0
M  V30 9246 N 879.47 0.276058 1.55163 0
M  V30 9247 C 880.38 -0.621066 2.2623 0
M  V30 9248 C 881.396 -1.16931 1.28853 0
M  V30 9249 O 882.572 -1.1994 1.61791 0
M  V30 9250 C 879.637 -1.78824 2.97023 0
M  V30 9251 C 878.698 -1.27657 4.09881 0
M  V30 9252 C 877.931 -2.38812 4.77289 0
M  V30 9253 O 878.154 -3.58188 4.43912 0
M  V30 9254 O 877.088 -2.06915 5.65217 0
M  V30 9255 H 880.914 -0.0453346 3.03666 0
M  V30 9256 H 878.499 0.0434275 1.49337 0
M  V30 9257 H 880.381 -2.46877 3.41511 0
M  V30 9258 H 879.056 -2.35104 2.22503 0
M  V30 9259 H 877.963 -0.56248 3.69847 0
M  V30 9260 H 879.296 -0.759509 4.86305 0
M  V30 9261 N 880.948 -1.576 0.00335426 0
M  V30 9262 C 881.88 -2.0549 -1.01521 0
M  V30 9263 C 882.893 -0.973441 -1.30491 0
M  V30 9264 O 884.082 -1.25017 -1.27409 0
M  V30 9265 C 881.182 -2.44272 -2.34914 0
M  V30 9266 C 880.355 -3.75191 -2.24835 0
M  V30 9267 C 879.414 -4.00804 -3.40944 0
M  V30 9268 O 878.44 -4.71423 -3.18981 0
M  V30 9269 N 879.642 -3.48961 -4.63904 0
M  V30 9270 H 882.407 -2.93493 -0.60678 0
M  V30 9271 H 879.968 -1.60851 -0.18396 0
M  V30 9272 H 881.96 -2.58518 -3.11369 0
M  V30 9273 H 880.53 -1.6177 -2.67487 0
M  V30 9274 H 879.75 -3.70989 -1.3327 0
M  V30 9275 H 881.038 -4.61013 -2.15277 0
M  V30 9276 H 880.436 -2.9178 -4.84645 0
M  V30 9277 H 878.993 -3.68531 -5.37613 0
M  V30 9278 N 882.426 0.269451 -1.5528 0
M  V30 9279 C 883.359 1.3588 -1.83336 0
M  V30 9280 C 884.337 1.4739 -0.68666 0
M  V30 9281 O 885.521 1.63959 -0.930037 0
M  V30 9282 C 882.648 2.73483 -1.99812 0
M  V30 9283 C 881.694 2.79239 -3.22378 0
M  V30 9284 S 882.527 2.38125 -4.79642 0
M  V30 9285 C 883.683 3.77697 -4.99095 0
M  V30 9286 H 883.916 1.11878 -2.75446 0
M  V30 9287 H 881.449 0.469268 -1.47096 0
M  V30 9288 H 883.407 3.52725 -2.09989 0
M  V30 9289 H 882.068 2.94735 -1.08583 0
M  V30 9290 H 881.261 3.80243 -3.30804 0
M  V30 9291 H 880.863 2.08022 -3.1081 0
M  V30 9292 H 883.155 4.72999 -4.85055 0
M  V30 9293 H 884.098 3.7422 -6.01136 0
M  V30 9294 H 884.506 3.69164 -4.27058 0
M  V30 9295 N 883.904 1.48273 0.534124 0
M  V30 9296 C 885.132 1.59734 1.31501 0
M  V30 9297 C 885.547 0.256047 1.87056 0
M  V30 9298 O 884.904 -0.754086 1.66192 0
M  V30 9299 C 884.955 2.64072 2.46877 0
M  V30 9300 O 884.676 3.92995 1.93613 0
M  V30 9301 C 886.177 2.85933 3.38758 0
M  V30 9302 H 883.397 0.538703 0.40005 0
M  V30 9303 H 885.941 1.9407 0.644762 0
M  V30 9304 H 884.096 2.32606 3.09795 0
M  V30 9305 H 884.51 4.50203 2.69106 0
M  V30 9306 H 885.984 3.62749 4.16073 0
M  V30 9307 H 886.461 1.94603 3.93734 0
M  V30 9308 H 887.067 3.18687 2.81636 0
M  V30 9309 N 885.382 -0.782676 1.36792 0
M  V30 9310 C 886.629 -1.54083 1.31395 0
M  V30 9311 C 886.957 -1.94217 -0.104797 0
M  V30 9312 O 886.212 -1.63491 -1.0756 0
M  V30 9313 C 886.511 -2.82542 2.18872 0
M  V30 9314 C 886.177 -2.61512 3.67317 0
M  V30 9315 C 884.839 -2.55486 4.07775 0
M  V30 9316 C 887.191 -2.42389 4.61407 0
M  V30 9317 C 884.519 -2.28311 5.40454 0
M  V30 9318 C 886.871 -2.1674 5.94312 0
M  V30 9319 C 885.535 -2.09151 6.33887 0
M  V30 9320 H 884.805 -0.563829 0.48081 0
M  V30 9321 H 887.452 -0.902436 1.68903 0
M  V30 9322 H 885.757 -3.50883 1.74323 0
M  V30 9323 H 887.454 -3.40367 2.12017 0
M  V30 9324 H 884.044 -2.67062 3.35225 0
M  V30 9325 H 888.228 -2.46043 4.31018 0
M  V30 9326 H 883.484 -2.20922 5.70091 0
M  V30 9327 H 887.658 -2.0094 6.6678 0
M  V30 9328 H 885.285 -1.87857 7.36623 0
M  V30 9329 N 886.86 -1.21182 -1.00761 0
M  V30 9330 C 887.807 -0.968741 -2.09485 0
M  V30 9331 C 888.777 0.104325 -1.65772 0
M  V30 9332 O 889.962 -0.0422587 -1.90753 0
M  V30 9333 C 887.102 -0.536686 -3.40901 0
M  V30 9334 C 886.215 -1.6789 -3.98041 0
M  V30 9335 C 885.35 -1.19627 -5.17555 0
M  V30 9336 C 884.389 -2.31099 -5.66798 0
M  V30 9337 N 883.526 -1.83988 -6.77564 0
M  V30 9338 H 888.366 -1.89952 -2.29613 0
M  V30 9339 H 885.903 -0.946688 -1.12589 0
M  V30 9340 H 887.861 -0.26745 -4.16342 0
M  V30 9341 H 886.491 0.357092 -3.20819 0
M  V30 9342 H 885.543 -2.06284 -3.19611 0
M  V30 9343 H 886.855 -2.51794 -4.30582 0
M  V30 9344 H 886.009 -0.883539 -6.00232 0
M  V30 9345 H 884.748 -0.327244 -4.86601 0
M  V30 9346 H 883.753 -2.63178 -4.82719 0
M  V30 9347 H 884.978 -3.18493 -5.99782 0
M  V30 9348 H 882.924 -0.994257 -6.48422 0
M  V30 9349 H 882.841 -2.61466 -7.09346 0
M  V30 9350 H 884.109 -1.55741 -7.63783 0
M  V30 9351 N 888.338 1.20213 -1.01915 0
M  V30 9352 C 889.615 1.85348 -0.62495 0
M  V30 9353 C 889.995 1.91101 0.896854 0
M  V30 9354 O 889.343 1.42075 1.78961 0
M  V30 9355 C 889.553 3.24849 -1.27571 0
M  V30 9356 C 890.901 4.01107 -1.39277 0
M  V30 9357 O 891.925 3.34211 -1.23212 0
M  V30 9358 O 890.784 5.20914 -1.6526 0
M  V30 9359 H 887.878 0.798303 -0.215965 0
M  V30 9360 H 890.424 1.27782 -1.11669 0
M  V30 9361 H 889.196 3.1544 -2.31545 0
M  V30 9362 H 888.819 3.90049 -0.77122 0
M  V30 9363 N 889.816 0.795718 1.36037 0
M  V30 9364 C 890.746 0.212803 2.32528 0
M  V30 9365 C 891.727 -0.655716 1.56953 0
M  V30 9366 O 892.912 -0.588238 1.85077 0
M  V30 9367 C 890.042 -0.648189 3.41198 0
M  V30 9368 C 888.996 0.120948 4.27829 0
M  V30 9369 C 888.322 -0.861044 5.27722 0
M  V30 9370 C 889.622 1.31375 5.05508 0
M  V30 9371 H 891.316 1.01893 2.81528 0
M  V30 9372 H 888.862 0.491422 1.35355 0
M  V30 9373 H 890.815 -1.06597 4.07695 0
M  V30 9374 H 889.539 -1.48709 2.9078 0
M  V30 9375 H 888.198 0.519777 3.62897 0
M  V30 9376 H 887.846 -1.69515 4.73575 0
M  V30 9377 H 887.546 -0.350808 5.86552 0
M  V30 9378 H 889.07 -1.27726 5.97092 0
M  V30 9379 H 890.484 0.971406 5.6501 0
M  V30 9380 H 888.881 1.75772 5.73781 0
M  V30 9381 H 889.951 2.10593 4.36782 0
M  V30 9382 N 891.294 -1.47756 0.548274 0
M  V30 9383 C 892.54 -2.02789 0.0209265 0
M  V30 9384 C 892.873 -1.42268 -1.32187 0
M  V30 9385 O 892.148 -0.575001 -1.85806 0
M  V30 9386 C 892.431 -3.60007 -0.0816674 0
M  V30 9387 C 892.284 -4.30977 1.28759 0
M  V30 9388 C 893.603 -4.32777 -0.799515 0
M  V30 9389 H 890.722 -0.736944 0.00907884 0
M  V30 9390 H 893.364 -1.76282 0.708839 0
M  V30 9391 H 891.514 -3.82722 -0.667537 0
M  V30 9392 H 893.186 -4.19629 1.91597 0
M  V30 9393 H 891.429 -3.9168 1.86466 0
M  V30 9394 H 892.1 -5.39488 1.16861 0
M  V30 9395 H 894.576 -4.15001 -0.30216 0
M  V30 9396 H 893.452 -5.42431 -0.840239 0
M  V30 9397 H 893.713 -4.01358 -1.85375 0
M  V30 9398 N 892.772 -0.284283 -1.55015 0
M  V30 9399 C 893.997 0.335799 -2.04664 0
M  V30 9400 C 894.422 1.47999 -1.16094 0
M  V30 9401 O 893.78 1.8058 -0.161454 0
M  V30 9402 C 893.828 0.785615 -3.51938 0
M  V30 9403 O 892.932 1.89202 -3.66437 0
M  V30 9404 H 892.273 0.0680233 -0.660506 0
M  V30 9405 H 894.803 -0.421255 -2.00216 0
M  V30 9406 H 894.813 1.07892 -3.93476 0
M  V30 9407 H 893.488 -0.0514675 -4.15868 0
M  V30 9408 H 892.065 1.60055 -3.36804 0
M  V30 9409 N 894.251 1.57596 -0.0117121 0
M  V30 9410 C 895.491 1.92932 0.675031 0
M  V30 9411 C 895.855 0.887004 1.70283 0
M  V30 9412 O 897.056 1.12599 2.4408 0
M  V30 9413 C 895.327 3.3327 1.29098 0
M  V30 9414 S 896.886 3.90509 2.00121 0
M  V30 9415 H 893.704 0.675226 0.22269 0
M  V30 9416 H 896.306 1.9537 -0.071208 0
M  V30 9417 H 895.01 4.0696 0.530262 0
M  V30 9418 H 894.541 3.34233 2.0749 0
M  V30 9419 H 896.556 3.72532 3.27771 0
M  V30 9420 N 895.729 -0.261212 1.5542 0
M  V30 9421 C 896.957 -1.00916 1.8062 0
M  V30 9422 C 897.372 -1.79494 0.585444 0
M  V30 9423 O 896.729 -1.76974 -0.445702 0
M  V30 9424 C 896.78 -1.95841 3.03856 0
M  V30 9425 O 896.501 -1.20445 4.21218 0
M  V30 9426 C 898.002 -2.82352 3.41749 0
M  V30 9427 H 895.222 -0.297596 0.601397 0
M  V30 9428 H 897.766 -0.288427 2.02456 0
M  V30 9429 H 895.921 -2.63361 2.84112 0
M  V30 9430 H 896.335 -1.84528 4.90968 0
M  V30 9431 H 897.809 -3.44733 4.31118 0
M  V30 9432 H 898.286 -3.5273 2.61683 0
M  V30 9433 H 898.892 -2.20306 3.63793 0
M  V30 9434 N 897.207 -1.48554 -0.526253 0
M  V30 9435 C 898.437 -1.60197 -1.30463 0
M  V30 9436 C 898.845 -0.26278 -1.87366 0
M  V30 9437 O 898.188 0.758537 -1.67308 0
M  V30 9438 C 898.25 -2.59223 -2.49085 0
M  V30 9439 C 897.914 -4.04199 -2.13241 0
M  V30 9440 C 898.911 -4.91771 -1.68694 0
M  V30 9441 C 896.596 -4.49762 -2.2365 0
M  V30 9442 C 898.59 -6.22934 -1.35026 0
M  V30 9443 C 896.277 -5.80945 -1.89594 0
M  V30 9444 C 897.275 -6.67354 -1.45353 0
M  V30 9445 O 896.963 -7.96096 -1.11745 0
M  V30 9446 H 896.695 -0.54284 -0.402866 0
M  V30 9447 H 899.249 -1.95137 -0.641157 0
M  V30 9448 H 897.479 -2.19412 -3.18426 0
M  V30 9449 H 899.168 -2.60661 -3.11144 0
M  V30 9450 H 899.934 -4.57806 -1.6012 0
M  V30 9451 H 895.813 -3.8269 -2.5704 0
M  V30 9452 H 899.357 -6.90334 -1.00422 0
M  V30 9453 H 895.254 -6.14444 -1.9781 0
M  V30 9454 H 896.022 -8.08882 -1.25111 0
M  V30 9455 N 898.685 0.775411 -1.37205 0
M  V30 9456 C 899.617 1.89761 -1.28544 0
M  V30 9457 C 900.63 1.61542 -0.201996 0
M  V30 9458 O 901.819 1.72528 -0.457848 0
M  V30 9459 C 898.919 3.24904 -0.963885 0
M  V30 9460 C 898.092 3.80796 -2.15205 0
M  V30 9461 C 897.151 4.94407 -1.80135 0
M  V30 9462 O 896.177 5.10185 -2.52388 0
M  V30 9463 N 897.379 5.75722 -0.743298 0
M  V30 9464 H 900.144 1.97708 -2.25237 0
M  V30 9465 H 897.705 0.954348 -1.30782 0
M  V30 9466 H 899.697 3.9842 -0.710182 0
M  V30 9467 H 898.267 3.12483 -0.085632 0
M  V30 9468 H 897.487 2.99101 -2.56773 0
M  V30 9469 H 898.775 4.1487 -2.94552 0
M  V30 9470 H 898.173 5.65518 -0.143655 0
M  V30 9471 H 896.73 6.4948 -0.549446 0
M  V30 9472 N 900.163 1.21714 1.00117 0
M  V30 9473 C 901.093 1.00397 2.10815 0
M  V30 9474 C 902.074 -0.0723502 1.69946 0
M  V30 9475 O 903.259 0.0882398 1.93999 0
M  V30 9476 C 900.389 0.572001 3.42557 0
M  V30 9477 C 899.343 1.59331 3.97237 0
M  V30 9478 C 898.669 1.01746 5.2493 0
M  V30 9479 C 899.969 2.98117 4.28863 0
M  V30 9480 H 901.663 1.92983 2.28906 0
M  V30 9481 H 899.209 0.929273 1.10002 0
M  V30 9482 H 901.162 0.410018 4.19401 0
M  V30 9483 H 899.886 -0.38951 3.24269 0
M  V30 9484 H 898.545 1.74293 3.22518 0
M  V30 9485 H 898.193 0.0475491 5.02978 0
M  V30 9486 H 897.893 1.69969 5.62481 0
M  V30 9487 H 899.417 0.866881 6.04415 0
M  V30 9488 H 900.831 2.86578 4.96534 0
M  V30 9489 H 899.228 3.63389 4.77565 0
M  V30 9490 H 900.298 3.48674 3.36979 0
M  V30 9491 N 901.641 -1.19671 1.02551 0
M  V30 9492 C 902.604 -2.20987 0.608055 0
M  V30 9493 C 903.604 -1.5745 -0.326534 0
M  V30 9494 O 904.794 -1.73827 -0.114003 0
M  V30 9495 C 901.926 -3.4072 -0.11074 0
M  V30 9496 H 903.119 -2.59434 1.50446 0
M  V30 9497 H 900.672 -1.3329 0.816307 0
M  V30 9498 H 901.407 -3.07787 -1.02165 0
M  V30 9499 H 901.192 -3.88069 0.560772 0
M  V30 9500 H 902.682 -4.15776 -0.389848 0
M  V30 9501 N 903.119 -0.802921 -1.35613 0
M  V30 9502 C 904.535 -0.486214 -1.52014 0
M  V30 9503 C 904.735 0.993219 -1.75321 0
M  V30 9504 O 903.791 1.77835 -1.79251 0
M  V30 9505 C 905.104 -1.32839 -2.69767 0
M  V30 9506 C 906.652 -1.32346 -2.83643 0
M  V30 9507 C 907.127 -2.14967 -4.04417 0
M  V30 9508 N 908.618 -2.12484 -4.11588 0
M  V30 9509 C 909.353 -2.73173 -5.04147 0
M  V30 9510 N 908.849 -3.42774 -6.02061 0
M  V30 9511 N 910.642 -2.62834 -4.96865 0
M  V30 9512 H 902.793 -1.76109 -1.18741 0
M  V30 9513 H 905.056 -0.74936 -0.580658 0
M  V30 9514 H 904.762 -2.37813 -2.5911 0
M  V30 9515 H 904.636 -0.979058 -3.64272 0
M  V30 9516 H 907.023 -0.281586 -2.93753 0
M  V30 9517 H 907.104 -1.71264 -1.90006 0
M  V30 9518 H 906.748 -3.19193 -3.95068 0
M  V30 9519 H 906.678 -1.73411 -4.97228 0
M  V30 9520 H 909.169 -1.61839 -3.41492 0
M  V30 9521 H 909.482 -3.86378 -6.69277 0
M  V30 9522 H 907.827 -3.46878 -6.02246 0
M  V30 9523 H 911.018 -2.08049 -4.19325 0
M  V30 9524 H 911.191 -3.10421 -5.68808 0
M  V30 9525 N 904.597 1.47463 -0.556102 0
M  V30 9526 C 905.845 2.02075 -0.0315712 0
M  V30 9527 C 906.166 1.43292 1.32259 0
M  V30 9528 O 905.436 0.60771 1.86236 0
M  V30 9529 H 904.016 0.74695 -0.0086816 0
M  V30 9530 H 906.678 1.80879 -0.725859 0
M  V30 9531 H 905.774 3.12047 0.0573538 0
M  V30 9532 N 906.075 0.2925 1.54862 0
M  V30 9533 C 907.008 -0.629155 2.19356 0
M  V30 9534 C 907.986 -1.13927 1.16014 0
M  V30 9535 O 909.17 -1.20904 1.44618 0
M  V30 9536 C 906.297 -1.8599 2.83064 0
M  V30 9537 C 905.343 -1.48376 3.99859 0
M  V30 9538 S 906.176 -0.546976 5.32699 0
M  V30 9539 C 907.332 -1.7857 5.99886 0
M  V30 9540 H 907.565 -0.0812166 2.97189 0
M  V30 9541 H 905.098 0.0766721 1.5421 0
M  V30 9542 H 907.056 -2.56623 3.20398 0
M  V30 9543 H 905.717 -2.37899 2.05092 0
M  V30 9544 H 904.91 -2.40002 4.43187 0
M  V30 9545 H 904.512 -0.857447 3.64038 0
M  V30 9546 H 906.804 -2.7274 6.20177 0
M  V30 9547 H 907.747 -1.39513 6.9422 0
M  V30 9548 H 908.155 -1.95856 5.29434 0
M  V30 9549 N 907.553 -1.57587 0.0200696 0
M  V30 9550 C 908.463 -2.13119 -0.980676 0
M  V30 9551 C 909.479 -1.08124 -1.36328 0
M  V30 9552 O 910.655 -1.40134 -1.44653 0
M  V30 9553 C 907.72 -2.63991 -2.24743 0
M  V30 9554 C 906.781 -3.83667 -1.9261 0
M  V30 9555 C 906.014 -4.32103 -3.13246 0
M  V30 9556 O 906.237 -3.79758 -4.25606 0
M  V30 9557 O 905.171 -5.24047 -2.96072 0
M  V30 9558 H 908.997 -2.98887 -0.538528 0
M  V30 9559 H 906.582 -1.48055 -0.19999 0
M  V30 9560 H 908.464 -2.9682 -2.99125 0
M  V30 9561 H 907.139 -1.81311 -2.68157 0
M  V30 9562 H 906.046 -3.55778 -1.15641 0
M  V30 9563 H 907.379 -4.67482 -1.54019 0
M  V30 9564 N 909.032 0.252966 -1.55557 0
M  V30 9565 C 910.262 0.998115 -1.8089 0
M  V30 9566 C 910.67 1.79679 -0.592623 0
M  V30 9567 O 910.013 1.78151 0.448093 0
M  V30 9568 C 910.075 1.98878 -2.99479 0
M  V30 9569 C 909.739 1.37761 -4.35742 0
M  V30 9570 C 910.736 0.783142 -5.13968 0
M  V30 9571 C 908.421 1.39879 -4.8243 0
M  V30 9572 C 910.415 0.218004 -6.37027 0
M  V30 9573 C 908.102 0.829801 -6.0544 0
M  V30 9574 C 909.1 0.240426 -6.82577 0
M  V30 9575 O 908.788 -0.319797 -8.03264 0
M  V30 9576 H 908.52 0.29963 -0.605969 0
M  V30 9577 H 911.074 0.282978 -2.03441 0
M  V30 9578 H 909.304 2.74206 -2.72669 0
M  V30 9579 H 910.993 2.59686 -3.11959 0
M  V30 9580 H 911.759 0.759326 -4.79019 0
M  V30 9581 H 907.638 1.84692 -4.22386 0
M  V30 9582 H 911.182 -0.242654 -6.97178 0
M  V30 9583 H 907.079 0.850924 -6.39867 0
M  V30 9584 H 907.847 -0.211078 -8.18228 0
M  V30 9585 N 910.51 1.48831 0.518367 0
M  V30 9586 C 911.44 1.67119 1.63075 0
M  V30 9587 C 912.421 0.519948 1.61958 0
M  V30 9588 O 913.606 0.753824 1.78972 0
M  V30 9589 C 910.736 1.72158 3.01627 0
M  V30 9590 C 909.69 2.86898 3.17606 0
M  V30 9591 C 909.016 2.77035 4.57335 0
M  V30 9592 C 910.316 4.28057 2.99274 0
M  V30 9593 H 912.01 2.60248 1.48025 0
M  V30 9594 H 909.556 1.2524 0.710694 0
M  V30 9595 H 911.509 1.83539 3.7933 0
M  V30 9596 H 910.233 0.756157 3.17726 0
M  V30 9597 H 908.892 2.75091 2.42323 0
M  V30 9598 H 908.54 1.78438 4.70286 0
M  V30 9599 H 908.24 3.54036 4.6897 0
M  V30 9600 H 909.764 2.904 5.37122 0
M  V30 9601 H 911.178 4.40636 3.6676 0
M  V30 9602 H 909.575 5.06145 3.22393 0
M  V30 9603 H 910.645 4.4371 1.95574 0
M  V30 9604 N 911.988 -0.768124 1.37614 0
M  V30 9605 C 912.951 -1.86314 1.3349 0
M  V30 9606 C 913.951 -1.59025 0.23823 0
M  V30 9607 O 915.141 -1.6704 0.494288 0
M  V30 9608 C 912.273 -3.23519 1.07462 0
M  V30 9609 H 913.466 -1.91382 2.30896 0
M  V30 9610 H 911.019 -0.968267 1.22696 0
M  V30 9611 H 911.754 -3.24127 0.106028 0
M  V30 9612 H 911.539 -3.44719 1.86846 0
M  V30 9613 H 913.029 -4.03597 1.07236 0
M  V30 9614 N 913.466 -1.22244 -0.994698 0
M  V30 9615 C 914.691 -1.07299 -1.77487 0
M  V30 9616 C 915.116 0.372302 -1.84379 0
M  V30 9617 O 914.474 1.2689 -1.29494 0
M  V30 9618 C 914.522 -1.68675 -3.18718 0
M  V30 9619 O 913.626 -0.939202 -4.01563 0
M  V30 9620 H 912.967 -0.376979 -0.546611 0
M  V30 9621 H 915.497 -1.62003 -1.24965 0
M  V30 9622 H 915.507 -1.73324 -3.69354 0
M  V30 9623 H 914.182 -2.73849 -3.13017 0
M  V30 9624 H 912.759 -0.968583 -3.60101 0
M  V30 9625 N 914.944 1.19125 -1.03184 0
M  V30 9626 C 915.876 2.21914 -0.573294 0
M  V30 9627 C 916.889 1.5894 0.352397 0
M  V30 9628 O 918.078 1.77883 0.148318 0
M  V30 9629 C 915.178 3.38403 0.18355 0
M  V30 9630 C 914.351 4.3096 -0.747817 0
M  V30 9631 C 913.41 5.26188 -0.0358489 0
M  V30 9632 O 912.436 5.65321 -0.663388 0
M  V30 9633 N 913.638 5.67235 1.23387 0
M  V30 9634 H 916.403 2.61881 -1.45734 0
M  V30 9635 H 913.964 1.33821 -0.911231 0
M  V30 9636 H 915.956 3.99124 0.669468 0
M  V30 9637 H 914.526 2.97201 0.969043 0
M  V30 9638 H 913.746 3.67976 -1.41377 0
M  V30 9639 H 915.034 4.89708 -1.38071 0
M  V30 9640 H 914.432 5.37481 1.76439 0
M  V30 9641 H 912.989 6.30196 1.66423 0
M  V30 9642 N 916.422 0.810101 1.35185 0
M  V30 9643 C 917.369 0.220927 2.2974 0
M  V30 9644 C 918.339 -0.647024 1.5298 0
M  V30 9645 O 919.524 -0.591367 1.81404 0
M  V30 9646 C 916.664 -0.62167 3.39454 0
M  V30 9647 C 915.777 0.267104 4.31173 0
M  V30 9648 C 914.912 -0.583833 5.27982 0
M  V30 9649 C 913.951 0.305123 6.11339 0
M  V30 9650 N 913.088 -0.505992 7.00274 0
M  V30 9651 H 917.928 1.03266 2.79536 0
M  V30 9652 H 915.465 0.520768 1.37573 0
M  V30 9653 H 917.423 -1.12539 4.01735 0
M  V30 9654 H 916.053 -1.39863 2.90926 0
M  V30 9655 H 915.105 0.88895 3.69867 0
M  V30 9656 H 916.417 0.951182 4.89647 0
M  V30 9657 H 915.571 -1.15254 5.95652 0
M  V30 9658 H 914.31 -1.30146 4.70014 0
M  V30 9659 H 913.315 0.886075 5.42613 0
M  V30 9660 H 914.54 1.02067 6.71386 0
M  V30 9661 H 912.486 -1.20753 6.4479 0
M  V30 9662 H 912.403 0.119966 7.55905 0
M  V30 9663 H 913.671 -1.05787 7.72288 0
M  V30 9664 N 917.9 -1.47166 0.563914 0
M  V30 9665 C 919.14 -2.04351 0.0448121 0
M  V30 9666 C 919.504 -1.42808 -1.28336 0
M  V30 9667 O 920.705 -1.91079 -1.89056 0
M  V30 9668 C 918.976 -3.57378 -0.0395795 0
M  V30 9669 S 920.535 -4.35898 -0.503833 0
M  V30 9670 H 917.353 -0.710433 0.0283795 0
M  V30 9671 H 919.955 -1.80451 0.752166 0
M  V30 9672 H 918.659 -3.99693 0.931326 0
M  V30 9673 H 918.19 -3.85785 -0.770282 0
M  V30 9674 H 920.205 -4.63852 -1.76225 0
M  V30 9675 N 919.378 -0.300708 -1.54705 0
M  V30 9676 C 920.627 0.309428 -1.99312 0
M  V30 9677 C 920.94 1.55027 -1.19272 0
M  V30 9678 O 922.146 2.23498 -1.54146 0
M  V30 9679 C 920.602 0.601856 -3.54832 0
M  V30 9680 C 920.21 -0.620636 -4.4368 0
M  V30 9681 C 921.954 1.1732 -4.07966 0
M  V30 9682 C 919.861 -0.301376 -5.90632 0
M  V30 9683 H 918.791 0.119395 -0.744487 0
M  V30 9684 H 921.442 -0.409368 -1.78875 0
M  V30 9685 H 919.824 1.38024 -3.71168 0
M  V30 9686 H 920.998 -1.39685 -4.39118 0
M  V30 9687 H 919.313 -1.1106 -4.01316 0
M  V30 9688 H 921.91 1.42631 -5.15326 0
M  V30 9689 H 922.253 2.11537 -3.5855 0
M  V30 9690 H 922.786 0.456534 -3.95172 0
M  V30 9691 H 919.525 -1.21209 -6.44196 0
M  V30 9692 H 919.045 0.437574 -5.98202 0
M  V30 9693 H 920.724 0.097164 -6.46927 0
M  V30 9694 N 920.856 1.57574 -0.0284266 0
M  V30 9695 C 921.806 2.06674 0.962804 0
M  V30 9696 C 922.79 0.967115 1.28591 0
M  V30 9697 O 923.982 1.23068 1.27214 0
M  V30 9698 C 921.111 2.59682 2.24545 0
M  V30 9699 C 920.197 3.76573 1.95073 0
M  V30 9700 N 920.588 4.8721 1.35869 0
M  V30 9701 C 918.886 3.85046 2.25068 0
M  V30 9702 C 919.587 5.68436 1.23514 0
M  V30 9703 N 918.563 5.15323 1.73041 0
M  V30 9704 H 922.365 2.89615 0.500013 0
M  V30 9705 H 919.879 1.61437 0.176604 0
M  V30 9706 H 921.876 2.93148 2.96428 0
M  V30 9707 H 920.536 1.7817 2.71451 0
M  V30 9708 H 921.547 5.07477 1.03379 0
M  V30 9709 H 918.224 3.14439 2.74653 0
M  V30 9710 H 919.614 6.67387 0.777403 0
M  V30 9711 N 922.334 -0.244713 1.55689 0
M  V30 9712 C 923.75 -0.593331 1.48161 0
M  V30 9713 C 923.95 -1.88234 0.719047 0
M  V30 9714 O 923.006 -2.51266 0.249292 0
M  V30 9715 C 924.319 -0.694032 2.92581 0
M  V30 9716 C 925.867 -0.786213 3.02965 0
M  V30 9717 C 926.342 -0.918457 4.48696 0
M  V30 9718 N 927.833 -0.983272 4.52643 0
M  V30 9719 C 928.568 -1.1049 5.62654 0
M  V30 9720 N 928.064 -1.19193 6.8247 0
M  V30 9721 N 929.857 -1.13823 5.50455 0
M  V30 9722 H 922.008 0.601446 2.03707 0
M  V30 9723 H 924.271 0.207894 0.924924 0
M  V30 9724 H 923.977 0.183133 3.51223 0
M  V30 9725 H 923.851 -1.56525 3.4319 0
M  V30 9726 H 926.238 -1.65383 2.44402 0
M  V30 9727 H 926.319 0.110202 2.55563 0
M  V30 9728 H 925.963 -0.0553881 5.0787 0
M  V30 9729 H 925.893 -1.82994 4.93782 0
M  V30 9730 H 928.384 -0.927269 3.66347 0
M  V30 9731 H 928.697 -1.28387 7.62061 0
M  V30 9732 H 927.042 -1.16147 6.85226 0
M  V30 9733 H 930.233 -1.06673 4.55783 0
M  V30 9734 H 930.406 -1.22957 6.36228 0
M  V30 9735 N 923.813 -1.49104 -0.510467 0
M  V30 9736 C 925.09 -1.48609 -1.27179 0
M  V30 9737 C 925.47 -0.208537 -2.10067 0
M  V30 9738 O 924.818 0.809335 -2.13687 0
M  V30 9739 C 925.028 -2.75953 -2.1366 0
M  V30 9740 C 926.376 -3.25067 -2.73161 0
M  V30 9741 O 927.4 -2.77005 -2.23934 0
M  V30 9742 O 926.259 -4.08747 -3.62751 0
M  V30 9743 H 923.353 -0.594374 -0.57502 0
M  V30 9744 H 925.899 -1.61358 -0.525515 0
M  V30 9745 H 924.671 -3.60434 -1.52325 0
M  V30 9746 H 924.294 -2.66019 -2.95499 0
M  V30 9747 N 925.291 0.760815 -1.38019 0
M  V30 9748 C 926.221 1.88811 -1.37377 0
M  V30 9749 C 927.202 1.68388 -0.240737 0
M  V30 9750 O 928.387 1.89086 -0.442739 0
M  V30 9751 C 925.517 3.26244 -1.1909 0
M  V30 9752 C 924.471 3.61254 -2.29521 0
M  V30 9753 C 923.797 4.97346 -1.96345 0
M  V30 9754 C 925.097 3.66874 -3.71753 0
M  V30 9755 H 926.791 1.89606 -2.31711 0
M  V30 9756 H 924.337 0.910818 -1.11535 0
M  V30 9757 H 926.29 4.04755 -1.17267 0
M  V30 9758 H 925.014 3.2591 -0.212152 0
M  V30 9759 H 923.673 2.85057 -2.30517 0
M  V30 9760 H 923.321 4.93564 -0.969728 0
M  V30 9761 H 923.021 5.21739 -2.703 0
M  V30 9762 H 924.545 5.78244 -1.96129 0
M  V30 9763 H 925.959 4.35514 -3.72828 0
M  V30 9764 H 924.356 4.02772 -4.44853 0
M  V30 9765 H 925.426 2.67273 -4.0459 0
M  V30 9766 N 926.769 1.22769 0.988202 0
M  V30 9767 C 927.732 1.00325 2.06076 0
M  V30 9768 C 928.732 -0.0320618 1.60768 0
M  V30 9769 O 929.922 0.206912 1.72967 0
M  V30 9770 C 927.054 0.516376 3.36966 0
M  V30 9771 H 928.247 1.95499 2.27421 0
M  V30 9772 H 925.8 1.04704 1.16047 0
M  V30 9773 H 926.535 -0.439498 3.21308 0
M  V30 9774 H 926.32 1.26337 3.71189 0
M  V30 9775 H 927.81 0.37974 4.1587 0
M  V30 9776 N 928.247 -1.18576 1.03814 0
M  V30 9777 C 929.21 -2.2033 0.63146 0
M  V30 9778 C 930.21 -1.57787 -0.309816 0
M  V30 9779 O 931.4 -1.73938 -0.0955598 0
M  V30 9780 C 928.532 -3.40818 -0.0745963 0
M  V30 9781 H 929.725 -2.57824 1.53189 0
M  V30 9782 H 927.278 -1.32416 0.830398 0
M  V30 9783 H 928.013 -3.08853 -0.988947 0
M  V30 9784 H 927.798 -3.87453 0.6019 0
M  V30 9785 H 929.288 -4.16166 -0.345727 0
M  V30 9786 N 929.725 -0.817259 -1.34754 0
M  V30 9787 C 931.141 -0.502309 -1.51489 0
M  V30 9788 C 931.341 0.974568 -1.76364 0
M  V30 9789 O 930.397 1.75924 -1.81127 0
M  V30 9790 C 931.71 -1.35693 -2.68343 0
M  V30 9791 C 933.258 -1.35347 -2.82224 0
M  V30 9792 C 933.733 -2.19244 -4.02114 0
M  V30 9793 N 935.224 -2.16837 -4.09311 0
M  V30 9794 C 935.959 -2.78505 -5.01221 0
M  V30 9795 N 935.455 -3.4914 -5.98392 0
M  V30 9796 N 937.248 -2.68089 -4.94049 0
M  V30 9797 H 929.399 -1.77359 -1.16866 0
M  V30 9798 H 931.662 -0.755476 -0.572678 0
M  V30 9799 H 931.368 -2.40548 -2.56573 0
M  V30 9800 H 931.242 -1.01764 -3.63213 0
M  V30 9801 H 933.629 -0.312727 -2.93438 0
M  V30 9802 H 933.71 -1.7327 -1.88179 0
M  V30 9803 H 933.354 -3.23365 -3.9166 0
M  V30 9804 H 933.284 -1.78675 -4.95361 0
M  V30 9805 H 935.775 -1.65452 -3.39756 0
M  V30 9806 H 936.088 -3.93455 -6.65141 0
M  V30 9807 H 934.433 -3.53246 -5.98533 0
M  V30 9808 H 937.624 -2.12485 -4.17094 0
M  V30 9809 H 937.797 -3.16436 -5.65484 0
M  V30 9810 N 931.203 1.46865 -0.571711 0
M  V30 9811 C 932.151 2.31897 0.180714 0
M  V30 9812 C 933.145 1.43815 0.895191 0
M  V30 9813 O 934.351 1.60501 0.814828 0
M  V30 9814 H 930.726 0.748032 0.077148 0
M  V30 9815 H 932.697 2.93185 -0.555432 0
M  V30 9816 C 931.446 3.26766 1.18824 0
M  V30 9817 H 930.769 3.94515 0.64789 0
M  V30 9818 H 932.209 3.89067 1.68532 0
M  V30 9819 C 930.668 2.51325 2.2436 0
M  V30 9820 O 931.198 2.26825 3.31532 0
M  V30 9821 N 929.404 2.12079 1.98673 0
M  V30 9822 H 928.951 2.32204 1.1153 0
M  V30 9823 H 928.909 1.61921 2.69498 0
M  V30 9824 N 932.681 0.308908 1.54543 0
M  V30 9825 C 933.927 -0.298478 2.00592 0
M  V30 9826 C 934.26 -1.52929 1.19692 0
M  V30 9827 O 933.535 -1.9254 0.27542 0
M  V30 9828 C 933.818 -0.647218 3.54236 0
M  V30 9829 C 933.671 0.593284 4.4587 0
M  V30 9830 C 934.99 -1.47064 4.14801 0
M  V30 9831 H 932.109 -0.107012 0.72919 0
M  V30 9832 H 934.751 0.422578 1.85241 0
M  V30 9833 H 932.901 -1.26153 3.67447 0
M  V30 9834 H 934.573 1.2317 4.44552 0
M  V30 9835 H 932.816 1.22501 4.16144 0
M  V30 9836 H 933.487 0.305018 5.51157 0
M  V30 9837 H 935.963 -0.951511 4.05075 0
M  V30 9838 H 934.839 -1.68343 5.22448 0
M  V30 9839 H 935.1 -2.4623 3.67183 0
M  V30 9840 N 934.159 -1.57557 0.0367827 0
M  V30 9841 C 935.089 -2.13712 -0.940719 0
M  V30 9842 C 936.07 -1.05515 -1.33419 0
M  V30 9843 O 937.255 -1.33385 -1.41146 0
M  V30 9844 C 934.385 -2.67043 -2.22048 0
M  V30 9845 C 933.339 -3.80096 -1.96752 0
M  V30 9846 C 932.665 -4.19886 -3.31059 0
M  V30 9847 C 933.965 -5.05848 -1.30058 0
M  V30 9848 H 935.659 -2.9564 -0.473033 0
M  V30 9849 H 933.205 -1.42214 -0.226089 0
M  V30 9850 H 935.158 -3.04964 -2.90818 0
M  V30 9851 H 933.882 -1.82287 -2.70996 0
M  V30 9852 H 932.541 -3.42625 -1.30398 0
M  V30 9853 H 932.189 -3.32101 -3.77781 0
M  V30 9854 H 931.889 -4.96073 -3.14937 0
M  V30 9855 H 933.413 -4.60395 -4.01084 0
M  V30 9856 H 934.827 -5.41306 -1.8884 0
M  V30 9857 H 933.224 -5.87084 -1.24309 0
M  V30 9858 H 934.294 -4.84122 -0.274591 0
M  V30 9859 N 935.637 0.236453 -1.55816 0
M  V30 9860 C 936.883 0.964439 -1.784 0
M  V30 9861 C 937.216 1.84573 -0.603868 0
M  V30 9862 O 936.491 1.90395 0.397473 0
M  V30 9863 C 936.774 1.81608 -3.10951 0
M  V30 9864 C 936.627 0.962283 -4.39386 0
M  V30 9865 C 937.946 2.79665 -3.39817 0
M  V30 9866 H 935.065 0.349192 -0.649026 0
M  V30 9867 H 937.707 0.234247 -1.8855 0
M  V30 9868 H 935.857 2.43864 -3.02428 0
M  V30 9869 H 937.529 0.35762 -4.59912 0
M  V30 9870 H 935.772 0.267062 -4.32977 0
M  V30 9871 H 936.443 1.59222 -5.28538 0
M  V30 9872 H 938.919 2.27546 -3.4837 0
M  V30 9873 H 937.795 3.36367 -4.33761 0
M  V30 9874 H 938.056 3.56657 -2.61244 0
M  V30 9875 N 937.115 1.49373 0.502552 0
M  V30 9876 C 938.343 1.62488 1.28084 0
M  V30 9877 C 938.758 0.295667 1.86471 0
M  V30 9878 O 938.115 -0.718664 1.67754 0
M  V30 9879 C 938.166 2.69249 2.4122 0
M  V30 9880 O 937.887 3.97014 1.85234 0
M  V30 9881 C 939.388 2.93054 3.32617 0
M  V30 9882 H 936.608 0.547068 0.388533 0
M  V30 9883 H 939.152 1.95394 0.603452 0
M  V30 9884 H 937.307 2.39125 3.04792 0
M  V30 9885 H 937.721 4.55809 2.59496 0
M  V30 9886 H 939.195 3.71493 4.08285 0
M  V30 9887 H 939.672 2.02911 3.89517 0
M  V30 9888 H 940.278 3.24589 2.74813 0
M  V30 9889 N 938.594 -0.753485 1.38421 0
M  V30 9890 C 939.504 -1.89797 1.37892 0
M  V30 9891 C 940.52 -1.71797 0.276023 0
M  V30 9892 O 941.696 -1.94718 0.514464 0
M  V30 9893 C 938.761 -3.25166 1.20284 0
M  V30 9894 C 937.822 -3.55691 2.4038 0
M  V30 9895 C 937.055 -4.84601 2.23602 0
M  V30 9896 O 937.278 -5.56985 1.22979 0
M  V30 9897 O 936.212 -5.14605 3.12194 0
M  V30 9898 H 940.038 -1.93197 2.34326 0
M  V30 9899 H 937.623 -0.898775 1.19342 0
M  V30 9900 H 939.505 -4.06099 1.12525 0
M  V30 9901 H 938.18 -3.22577 0.269352 0
M  V30 9902 H 937.087 -2.74919 2.53714 0
M  V30 9903 H 938.42 -3.6304 3.32359 0
M  V30 9904 N 940.072 -1.23292 -0.981677 0
M  V30 9905 C 941.02 -1.0104 -2.09508 0
M  V30 9906 C 942.014 0.0501977 -1.69326 0
M  V30 9907 O 943.22 -0.103197 -1.79704 0
M  V30 9908 H 939.595 -0.309629 -0.685298 0
M  V30 9909 H 941.566 -1.95493 -2.25444 0
M  V30 9910 C 940.315 -0.616885 -3.42184 0
M  V30 9911 H 939.638 -1.4247 -3.73554 0
M  V30 9912 H 941.078 -0.500688 -4.21033 0
M  V30 9913 C 939.537 0.674721 -3.30074 0
M  V30 9914 O 940.067 1.72421 -3.62814 0
M  V30 9915 N 938.273 0.650151 -2.83234 0
M  V30 9916 H 937.82 -0.204225 -2.56789 0
M  V30 9917 H 937.778 1.51458 -2.75514 0
M  V30 9918 N 941.55 1.18024 -1.04442 0
M  V30 9919 C 942.498 2.23834 -0.632557 0
M  V30 9920 C 943.492 1.65902 0.342488 0
M  V30 9921 O 944.698 1.78778 0.20937 0
M  V30 9922 H 941.073 0.728544 -0.186353 0
M  V30 9923 H 943.044 2.55876 -1.53526 0
M  V30 9924 C 941.793 3.47697 -0.0153661 0
M  V30 9925 H 941.116 3.92574 -0.756704 0
M  V30 9926 H 942.556 4.23345 0.235541 0
M  V30 9927 C 941.015 3.13416 1.23579 0
M  V30 9928 O 941.545 3.27499 2.3261 0
M  V30 9929 N 939.751 2.67708 1.13053 0
M  V30 9930 H 939.298 2.56449 0.243277 0
M  V30 9931 H 939.256 2.45143 1.96855 0
M  V30 9932 N 943.028 0.824394 1.34319 0
M  V30 9933 C 944.274 0.413779 1.98534 0
M  V30 9934 C 944.607 -1.02089 1.65201 0
M  V30 9935 O 943.882 -1.71129 0.924402 0
M  V30 9936 C 944.165 0.61801 3.54757 0
M  V30 9937 C 944.018 2.0989 3.97827 0
M  V30 9938 C 945.337 0.0549041 4.40066 0
M  V30 9939 H 942.456 0.151815 0.721194 0
M  V30 9940 H 945.098 1.03723 1.5919 0
M  V30 9941 H 943.248 0.0873107 3.88402 0
M  V30 9942 H 944.92 2.69335 3.74508 0
M  V30 9943 H 943.163 2.58881 3.48085 0
M  V30 9944 H 943.834 2.1926 5.06586 0
M  V30 9945 H 946.31 0.508348 4.12983 0
M  V30 9946 H 945.186 0.227595 5.48428 0
M  V30 9947 H 945.447 -1.04025 4.29687 0
M  V30 9948 N 944.506 -1.46559 0.579492 0
M  V30 9949 C 945.439 -2.27287 -0.203894 0
M  V30 9950 C 946.417 -1.3543 -0.899865 0
M  V30 9951 O 947.601 -1.64836 -0.914398 0
M  V30 9952 C 944.728 -3.13077 -1.2923 0
M  V30 9953 C 943.774 -4.20675 -0.702505 0
M  V30 9954 S 944.607 -5.3345 0.468136 0
M  V30 9955 C 945.763 -6.22806 -0.621544 0
M  V30 9956 H 945.996 -2.93382 0.481083 0
M  V30 9957 H 943.529 -1.49992 0.366311 0
M  V30 9958 H 945.487 -3.63069 -1.91548 0
M  V30 9959 H 944.148 -2.46302 -1.94921 0
M  V30 9960 H 943.341 -4.80516 -1.52053 0
M  V30 9961 H 942.943 -3.73678 -0.155046 0
M  V30 9962 H 945.235 -6.60503 -1.50803 0
M  V30 9963 H 946.178 -7.08075 -0.059961 0
M  V30 9964 H 946.586 -5.56882 -0.924242 0
M  V30 9965 N 945.984 -0.3171 -1.54377 0
M  V30 9966 C 946.931 0.551782 -2.24107 0
M  V30 9967 C 947.901 1.11681 -1.22949 0
M  V30 9968 O 949.086 1.15836 -1.51614 0
M  V30 9969 C 946.226 1.70997 -2.99756 0
M  V30 9970 C 945.339 1.17479 -4.15719 0
M  V30 9971 C 944.474 2.29815 -4.78914 0
M  V30 9972 C 943.513 1.73513 -5.86992 0
M  V30 9973 N 942.65 2.79485 -6.44075 0
M  V30 9974 H 947.49 -0.049431 -2.97959 0
M  V30 9975 H 945.027 -0.0361658 -1.47056 0
M  V30 9976 H 946.985 2.39141 -3.41859 0
M  V30 9977 H 945.615 2.28257 -2.28251 0
M  V30 9978 H 944.667 0.385109 -3.78446 0
M  V30 9979 H 945.979 0.72276 -4.93536 0
M  V30 9980 H 945.133 3.05875 -5.23952 0
M  V30 9981 H 943.872 2.78352 -4.00464 0
M  V30 9982 H 942.877 0.959475 -5.41363 0
M  V30 9983 H 944.102 1.2586 -6.67335 0
M  V30 9984 H 942.048 3.27325 -5.68502 0
M  V30 9985 H 941.965 2.38825 -7.17286 0
M  V30 9986 H 943.233 3.55394 -6.93769 0
M  V30 9987 N 947.462 1.57535 -0.0451378 0
M  V30 9988 C 948.711 1.91628 0.629415 0
M  V30 9989 C 949.024 0.924754 1.72359 0
M  V30 9990 O 950.23 1.15751 2.45589 0
M  V30 9991 C 948.686 3.40322 1.17084 0
M  V30 9992 C 948.294 4.47867 0.109101 0
M  V30 9993 C 950.038 3.83458 1.82099 0
M  V30 9994 C 947.945 5.87671 0.663072 0
M  V30 9995 H 946.875 0.715163 0.238868 0
M  V30 9996 H 949.526 1.83151 -0.113046 0
M  V30 9997 H 947.908 3.43783 1.96543 0
M  V30 9998 H 949.082 4.55988 -0.664201 0
M  V30 9999 H 947.397 4.14034 -0.443227 0
M  V30 10000 H 949.994 4.85273 2.2453 0
M  V30 10001 H 950.337 3.19379 2.67026 0
M  V30 10002 H 950.87 3.82488 1.09305 0
M  V30 10003 H 947.609 6.55332 -0.148423 0
M  V30 10004 H 947.129 5.83124 1.4045 0
M  V30 10005 H 948.808 6.36737 1.14785 0
M  V30 10006 N 948.94 -0.228186 1.55939 0
M  V30 10007 C 949.903 -1.26621 1.91049 0
M  V30 10008 C 950.903 -1.40141 0.788491 0
M  V30 10009 O 952.093 -1.3852 1.05631 0
M  V30 10010 C 949.225 -2.64108 2.15545 0
M  V30 10011 H 950.418 -0.966978 2.83883 0
M  V30 10012 H 947.971 -0.468313 1.49119 0
M  V30 10013 H 948.706 -2.99141 1.25241 0
M  V30 10014 H 948.491 -2.55673 2.97277 0
M  V30 10015 H 949.981 -3.39025 2.43827 0
M  V30 10016 N 950.418 -1.49637 -0.494624 0
M  V30 10017 C 951.695 -1.4995 -1.25596 0
M  V30 10018 C 952.075 -0.230805 -2.09834 0
M  V30 10019 O 951.423 0.786625 -2.14533 0
M  V30 10020 C 951.633 -2.78204 -2.10721 0
M  V30 10021 C 952.981 -3.27946 -2.69698 0
M  V30 10022 O 954.005 -2.79365 -2.20984 0
M  V30 10023 O 952.864 -4.12571 -3.58395 0
M  V30 10024 H 949.958 -0.60044 -0.568684 0
M  V30 10025 H 952.504 -1.61906 -0.508371 0
M  V30 10026 H 951.276 -3.62029 -1.48494 0
M  V30 10027 H 950.899 -2.69139 -2.92661 0
M  V30 10028 N 951.896 0.746133 -1.38819 0
M  V30 10029 C 953.143 1.50545 -1.35434 0
M  V30 10030 C 953.471 1.94427 0.0532669 0
M  V30 10031 O 952.726 1.66285 1.03188 0
M  V30 10032 C 953.025 2.76639 -2.26286 0
M  V30 10033 C 952.691 2.51682 -3.74122 0
M  V30 10034 C 951.353 2.44584 -4.14406 0
M  V30 10035 C 953.705 2.30071 -4.67672 0
M  V30 10036 C 951.033 2.13902 -5.46318 0
M  V30 10037 C 953.385 2.00907 -5.99849 0
M  V30 10038 C 952.049 1.92271 -6.39209 0
M  V30 10039 H 951.319 0.550883 -0.49559 0
M  V30 10040 H 953.966 0.857337 -1.71237 0
M  V30 10041 H 952.271 3.46138 -1.83564 0
M  V30 10042 H 953.968 3.34626 -2.20967 0
M  V30 10043 H 950.558 2.5808 -3.42188 0
M  V30 10044 H 954.742 2.34528 -4.3739 0
M  V30 10045 H 949.998 2.0573 -5.75748 0
M  V30 10046 H 954.172 1.83191 -6.71874 0
M  V30 10047 H 951.799 1.68261 -7.41345 0
M  V30 10048 N 953.375 1.23811 0.975125 0
M  V30 10049 C 954.623 1.07124 1.71373 0
M  V30 10050 C 954.944 -0.391864 1.91022 0
M  V30 10051 O 954.214 -1.28041 1.48265 0
M  V30 10052 H 952.794 0.393415 0.635007 0
M  V30 10053 H 955.456 1.55612 1.17349 0
M  V30 10054 H 954.552 1.56338 2.7012 0
M  V30 10055 N 954.853 -1.17469 1.05066 0
M  V30 10056 C 955.783 -2.23635 0.671552 0
M  V30 10057 C 956.764 -1.66867 -0.33006 0
M  V30 10058 O 957.949 -1.93084 -0.207933 0
M  V30 10059 C 955.079 -3.47272 0.0441845 0
M  V30 10060 C 954.033 -4.16854 0.97042 0
M  V30 10061 C 953.359 -5.34299 0.206998 0
M  V30 10062 C 954.659 -4.69225 2.29401 0
M  V30 10063 H 956.353 -2.55602 1.55911 0
M  V30 10064 H 953.899 -1.2286 0.751101 0
M  V30 10065 H 955.852 -4.20756 -0.23282 0
M  V30 10066 H 954.576 -3.14568 -0.878311 0
M  V30 10067 H 953.235 -3.4528 1.23197 0
M  V30 10068 H 952.883 -4.97846 -0.718222 0
M  V30 10069 H 952.583 -5.81792 0.82416 0
M  V30 10070 H 954.107 -6.10568 -0.0627525 0
M  V30 10071 H 955.521 -5.34353 2.077 0
M  V30 10072 H 953.918 -5.27291 2.86503 0
M  V30 10073 H 954.988 -3.86102 2.93348 0
M  V30 10074 N 956.331 -0.831506 -1.3388 0
M  V30 10075 C 957.294 -0.264773 -2.27666 0
M  V30 10076 C 958.294 0.562273 -1.50649 0
M  V30 10077 O 959.484 0.377131 -1.70069 0
M  V30 10078 C 956.616 0.627814 -3.35069 0
M  V30 10079 H 957.809 -1.09225 -2.79303 0
M  V30 10080 H 955.362 -0.604021 -1.44157 0
M  V30 10081 H 956.097 1.47802 -2.88661 0
M  V30 10082 H 955.882 0.0361552 -3.92083 0
M  V30 10083 H 957.372 1.01786 -4.05005 0
M  V30 10084 N 957.809 1.4625 -0.587256 0
M  V30 10085 C 959.225 1.57641 -0.249284 0
M  V30 10086 C 959.425 1.58169 1.24839 0
M  V30 10087 O 958.481 1.50109 2.03036 0
M  V30 10088 C 959.794 2.86837 -0.902509 0
M  V30 10089 C 961.342 3.00476 -0.876524 0
M  V30 10090 C 961.817 4.32414 -1.50938 0
M  V30 10091 N 963.308 4.39124 -1.47392 0
M  V30 10092 C 964.043 5.39838 -1.93293 0
M  V30 10093 N 963.539 6.47202 -2.47188 0
M  V30 10094 N 965.332 5.31068 -1.84183 0
M  V30 10095 H 957.483 1.44151 -1.55994 0
M  V30 10096 H 959.746 0.687905 -0.652297 0
M  V30 10097 H 959.452 2.92274 -1.95624 0
M  V30 10098 H 959.326 3.74927 -0.413466 0
M  V30 10099 H 961.713 2.94618 0.168601 0
M  V30 10100 H 961.794 2.1385 -1.40363 0
M  V30 10101 H 961.438 4.3903 -2.55372 0
M  V30 10102 H 961.368 5.17823 -0.957455 0
M  V30 10103 H 963.859 3.62138 -1.08002 0
M  V30 10104 H 964.172 7.20269 -2.80058 0
M  V30 10105 H 962.517 6.48009 -2.51216 0
M  V30 10106 H 965.708 4.46095 -1.41833 0
M  V30 10107 H 965.881 6.09414 -2.2027 0
M  V30 10108 N 959.287 0.325282 1.54207 0
M  V30 10109 C 960.564 -0.33113 1.92777 0
M  V30 10110 C 960.944 -1.69739 1.25506 0
M  V30 10111 O 960.292 -2.24983 0.399385 0
M  V30 10112 C 960.502 -0.421636 3.46444 0
M  V30 10113 C 961.85 -0.681111 4.19101 0
M  V30 10114 O 962.874 -0.504488 3.52609 0
M  V30 10115 O 961.733 -1.02196 5.3686 0
M  V30 10116 H 958.827 -0.18943 0.805013 0
M  V30 10117 H 961.373 0.375123 1.65502 0
M  V30 10118 H 960.145 0.537862 3.87586 0
M  V30 10119 H 959.768 -1.1754 3.79829 0
M  V30 10120 N 960.765 -1.57509 0.0534917 0
M  V30 10121 C 962.014 -1.91959 -0.619244 0
M  V30 10122 C 962.327 -0.933882 -1.71866 0
M  V30 10123 O 963.533 -1.17052 -2.44972 0
M  V30 10124 C 961.989 -3.40938 -1.15278 0
M  V30 10125 C 961.597 -4.47919 -0.085348 0
M  V30 10126 C 963.341 -3.84419 -1.80063 0
M  V30 10127 C 961.248 -5.88014 -0.631897 0
M  V30 10128 H 960.178 -0.71642 -0.235072 0
M  V30 10129 H 962.829 -1.83089 0.122758 0
M  V30 10130 H 961.211 -3.44821 -1.94717 0
M  V30 10131 H 962.385 -4.55629 0.688374 0
M  V30 10132 H 960.7 -4.13793 0.465178 0
M  V30 10133 H 963.297 -4.86457 -2.21954 0
M  V30 10134 H 963.64 -3.20791 -2.65328 0
M  V30 10135 H 964.173 -3.83062 -1.07275 0
M  V30 10136 H 960.912 -6.55244 0.183175 0
M  V30 10137 H 960.432 -5.83861 -1.37355 0
M  V30 10138 H 962.111 -6.37336 -1.11407 0
M  V30 10139 N 962.243 0.219913 -1.56058 0
M  V30 10140 C 963.191 1.29215 -1.93407 0
M  V30 10141 C 964.185 1.48434 -0.816307 0
M  V30 10142 O 965.391 1.49589 -1.00115 0
M  V30 10143 H 961.766 0.433256 -0.614649 0
M  V30 10144 H 963.737 0.949977 -2.82875 0
M  V30 10145 C 962.486 2.63501 -2.26854 0
M  V30 10146 H 961.809 2.4952 -3.12377 0
M  V30 10147 H 963.249 3.37334 -2.56869 0
M  V30 10148 C 961.708 3.18634 -1.09425 0
M  V30 10149 O 962.238 4.00117 -0.356243 0
M  V30 10150 N 960.444 2.7703 -0.877642 0
M  V30 10151 H 959.991 2.10875 -1.47951 0
M  V30 10152 H 959.949 3.1426 -0.0936792 0
M  V30 10153 N 963.721 1.49897 0.486681 0
M  V30 10154 C 964.669 1.68125 1.60738 0
M  V30 10155 C 965.663 0.547097 1.60322 0
M  V30 10156 O 966.869 0.727153 1.64659 0
M  V30 10157 H 963.244 0.530391 0.533094 0
M  V30 10158 H 965.215 2.62165 1.42521 0
M  V30 10159 C 963.964 1.77827 2.98786 0
M  V30 10160 H 963.287 2.6448 2.99818 0
M  V30 10161 H 964.727 1.94611 3.76699 0
M  V30 10162 C 963.186 0.526287 3.32764 0
M  V30 10163 O 963.716 -0.341607 4.00245 0
M  V30 10164 N 961.922 0.384947 2.88039 0
M  V30 10165 H 961.469 1.09222 2.33299 0
M  V30 10166 H 961.427 -0.451618 3.11139 0
M  V30 10167 N 965.199 -0.738761 1.39212 0
M  V30 10168 C 966.448 -1.49368 1.35543 0
M  V30 10169 C 966.761 -1.95543 -0.0471091 0
M  V30 10170 O 967.967 -2.70714 -0.206376 0
M  V30 10171 C 966.423 -2.69882 2.381 0
M  V30 10172 C 966.031 -2.30672 3.8405 0
M  V30 10173 C 967.775 -3.47718 2.435 0
M  V30 10174 C 965.682 -3.47886 4.78256 0
M  V30 10175 H 964.612 -0.560898 0.503894 0
M  V30 10176 H 967.263 -0.806221 1.6484 0
M  V30 10177 H 965.645 -3.40684 2.01867 0
M  V30 10178 H 966.819 -1.67441 4.29302 0
M  V30 10179 H 965.134 -1.65936 3.81909 0
M  V30 10180 H 967.731 -4.34897 3.11077 0
M  V30 10181 H 968.074 -3.89919 1.45838 0
M  V30 10182 H 968.607 -2.83942 2.78606 0
M  V30 10183 H 965.346 -3.10739 5.77167 0
M  V30 10184 H 964.866 -4.10111 4.37686 0
M  V30 10185 H 966.545 -4.14271 4.96979 0
M  V30 10186 N 966.677 -1.24326 -0.968545 0
M  V30 10187 C 967.954 -0.990459 -1.68669 0
M  V30 10188 C 968.334 0.487487 -2.05394 0
M  V30 10189 O 967.682 1.46158 -1.75642 0
M  V30 10190 C 967.892 -1.91251 -2.91931 0
M  V30 10191 C 969.24 -2.18291 -3.6419 0
M  V30 10192 O 970.264 -1.88897 -3.01987 0
M  V30 10193 O 969.123 -2.68204 -4.76161 0
M  V30 10194 H 966.217 -0.374515 -0.737338 0
M  V30 10195 H 968.763 -1.35421 -1.02271 0
M  V30 10196 H 967.535 -2.9111 -2.61478 0
M  V30 10197 H 967.158 -1.55188 -3.66064 0
M  V30 10198 N 968.156 1.1691 -1.05688 0
M  V30 10199 C 969.386 1.90927 -0.789339 0
M  V30 10200 C 969.794 1.77339 0.659369 0
M  V30 10201 O 969.137 1.11147 1.4626 0
M  V30 10202 C 969.199 3.42361 -1.09677 0
M  V30 10203 C 968.863 3.79733 -2.54267 0
M  V30 10204 C 969.86 3.82163 -3.52487 0
M  V30 10205 C 967.545 4.10547 -2.89406 0
M  V30 10206 C 969.539 4.14884 -4.8389 0
M  V30 10207 C 967.226 4.42936 -4.21011 0
M  V30 10208 C 968.224 4.45084 -5.18063 0
M  V30 10209 O 967.912 4.76707 -6.47307 0
M  V30 10210 H 967.644 0.612466 -0.286115 0
M  V30 10211 H 970.198 1.4916 -1.4121 0
M  V30 10212 H 968.428 3.84446 -0.416924 0
M  V30 10213 H 970.117 3.97645 -0.814456 0
M  V30 10214 H 970.883 3.58476 -3.26681 0
M  V30 10215 H 966.762 4.08044 -2.14525 0
M  V30 10216 H 970.306 4.16475 -5.59638 0
M  V30 10217 H 966.203 4.66088 -4.46579 0
M  V30 10218 H 966.971 4.94544 -6.52203 0
M  V30 10219 N 969.634 0.838594 1.33437 0
M  V30 10220 C 970.864 0.446995 2.01707 0
M  V30 10221 C 971.272 -0.956335 1.63251 0
M  V30 10222 O 970.615 -1.63289 0.841566 0
M  V30 10223 C 970.677 0.487707 3.56176 0
M  V30 10224 C 970.341 1.8471 4.18009 0
M  V30 10225 C 971.338 2.81028 4.374 0
M  V30 10226 C 969.023 2.13987 4.54439 0
M  V30 10227 C 971.017 4.04785 4.92369 0
M  V30 10228 C 968.704 3.38 5.09116 0
M  V30 10229 C 969.702 4.33216 5.28027 0
M  V30 10230 O 969.39 5.55036 5.81541 0
M  V30 10231 H 969.122 0.175799 0.652741 0
M  V30 10232 H 971.676 1.13265 1.71348 0
M  V30 10233 H 969.906 -0.254719 3.8586 0
M  V30 10234 H 971.595 0.113971 4.0574 0
M  V30 10235 H 972.361 2.5971 4.09604 0
M  V30 10236 H 968.24 1.40668 4.39014 0
M  V30 10237 H 971.784 4.79114 5.07046 0
M  V30 10238 H 967.681 3.59175 5.36343 0
M  V30 10239 H 968.449 5.56772 5.99956 0
M  V30 10240 N 971.112 -1.45937 0.595003 0
M  V30 10241 C 972.059 -2.30427 -0.131165 0
M  V30 10242 C 973.029 -1.41355 -0.872232 0
M  V30 10243 O 974.214 -1.70296 -0.860467 0
M  V30 10244 C 971.354 -3.26045 -1.13087 0
M  V30 10245 C 970.467 -4.30218 -0.391982 0
M  V30 10246 C 969.602 -5.12953 -1.3803 0
M  V30 10247 C 968.641 -6.08865 -0.628505 0
M  V30 10248 N 967.778 -6.84425 -1.56548 0
M  V30 10249 H 972.618 -2.91992 0.595359 0
M  V30 10250 H 970.155 -1.43895 0.305405 0
M  V30 10251 H 972.113 -3.79937 -1.72348 0
M  V30 10252 H 970.743 -2.66261 -1.82496 0
M  V30 10253 H 969.795 -3.79086 0.315895 0
M  V30 10254 H 971.107 -4.98418 0.195173 0
M  V30 10255 H 970.261 -5.71184 -2.04534 0
M  V30 10256 H 969 -4.44743 -2.00138 0
M  V30 10257 H 968.005 -5.49777 0.0502431 0
M  V30 10258 H 969.23 -6.79099 -0.012641 0
M  V30 10259 H 967.176 -6.18913 -2.17444 0
M  V30 10260 H 967.093 -7.48931 -1.03145 0
M  V30 10261 H 968.361 -7.47204 -2.22049 0
M  V30 10262 N 972.59 -0.333456 -1.54032 0
M  V30 10263 C 973.537 0.527981 -2.2468 0
M  V30 10264 C 974.507 1.10371 -1.24127 0
M  V30 10265 O 975.692 1.14221 -1.52834 0
M  V30 10266 C 972.832 1.67808 -3.01553 0
M  V30 10267 C 971.945 1.13064 -4.16942 0
M  V30 10268 C 971.08 2.24722 -4.81325 0
M  V30 10269 C 970.119 1.67277 -5.88799 0
M  V30 10270 N 969.256 2.72638 -6.47003 0
M  V30 10271 H 974.096 -0.0810308 -2.9789 0
M  V30 10272 H 971.633 -0.051761 -1.47009 0
M  V30 10273 H 973.591 2.35502 -3.44376 0
M  V30 10274 H 972.221 2.25823 -2.30659 0
M  V30 10275 H 971.273 0.344948 -3.78833 0
M  V30 10276 H 972.585 0.670373 -4.94275 0
M  V30 10277 H 971.739 3.00301 -5.27166 0
M  V30 10278 H 970.478 2.74089 -4.03394 0
M  V30 10279 H 969.483 0.902002 -5.4235 0
M  V30 10280 H 970.708 1.18775 -6.68632 0
M  V30 10281 H 968.654 3.21277 -5.71941 0
M  V30 10282 H 968.571 2.31204 -7.19778 0
M  V30 10283 H 969.839 3.48015 -6.97499 0
M  V30 10284 N 974.068 1.57479 -0.061844 0
M  V30 10285 C 975.296 1.97429 0.618837 0
M  V30 10286 C 975.711 0.939826 1.63746 0
M  V30 10287 O 975.068 -0.0747173 1.82347 0
M  V30 10288 C 975.119 3.3746 1.29628 0
M  V30 10289 O 974.84 4.36941 0.318431 0
M  V30 10290 C 976.341 3.92228 2.06572 0
M  V30 10291 H 973.561 0.649513 0.168444 0
M  V30 10292 H 976.105 2.04078 -0.131303 0
M  V30 10293 H 974.26 3.31928 1.99757 0
M  V30 10294 H 974.674 5.18313 0.803239 0
M  V30 10295 H 976.148 4.92458 2.49377 0
M  V30 10296 H 976.625 3.28231 2.91824 0
M  V30 10297 H 977.231 4.01131 1.4133 0
M  V30 10298 N 975.546 -0.211634 1.56173 0
M  V30 10299 C 976.774 -0.951184 1.83739 0
M  V30 10300 C 977.189 -1.7754 0.642252 0
M  V30 10301 O 976.546 -1.78302 -0.389174 0
M  V30 10302 C 976.597 -1.86075 3.09933 0
M  V30 10303 O 976.318 -1.06983 4.24837 0
M  V30 10304 C 977.819 -2.71337 3.50559 0
M  V30 10305 H 975.039 -0.278312 0.61056 0
M  V30 10306 H 977.583 -0.223871 2.03271 0
M  V30 10307 H 975.738 -2.54189 2.92347 0
M  V30 10308 H 976.152 -1.68815 4.9659 0
M  V30 10309 H 977.626 -3.30843 4.41868 0
M  V30 10310 H 978.103 -3.44226 2.72773 0
M  V30 10311 H 978.709 -2.0862 3.70618 0
M  V30 10312 N 977.024 -1.50153 -0.478725 0
M  V30 10313 C 977.972 -1.68975 -1.59844 0
M  V30 10314 C 978.966 -0.555591 -1.6003 0
M  V30 10315 O 980.172 -0.735875 -1.64271 0
M  V30 10316 H 976.547 -0.533211 -0.530274 0
M  V30 10317 H 978.518 -2.62917 -1.41128 0
M  V30 10318 C 977.267 -1.79409 -2.97838 0
M  V30 10319 H 976.59 -2.66066 -2.98411 0
M  V30 10320 H 978.03 -1.96606 -3.75662 0
M  V30 10321 C 976.489 -0.543927 -3.3248 0
M  V30 10322 O 977.019 0.320376 -4.0042 0
M  V30 10323 N 975.225 -0.400217 -2.87831 0
M  V30 10324 H 974.772 -1.10458 -2.32716 0
M  V30 10325 H 974.73 0.435111 -3.11375 0
M  V30 10326 N 978.502 0.731368 -1.39602 0
M  V30 10327 C 979.75 1.48805 -1.36753 0
M  V30 10328 C 980.071 1.94969 0.034676 0
M  V30 10329 O 979.341 1.69243 0.986591 0
M  V30 10330 H 977.921 0.55203 -0.503261 0
M  V30 10331 H 980.583 0.868013 -1.74504 0
M  V30 10332 H 979.679 2.36844 -2.03252 0
M  V30 10333 N 979.98 1.24838 0.961938 0
M  V30 10334 C 981.396 1.01502 1.23165 0
M  V30 10335 C 981.596 -0.272651 1.99647 0
M  V30 10336 O 980.652 -0.987297 2.32398 0
M  V30 10337 C 981.965 2.23366 2.01316 0
M  V30 10338 C 983.513 2.28051 2.14387 0
M  V30 10339 C 983.988 3.49552 2.95935 0
M  V30 10340 N 985.479 3.49904 3.03515 0
M  V30 10341 C 986.214 4.40577 3.66987 0
M  V30 10342 N 985.71 5.41512 4.3213 0
M  V30 10343 N 987.503 4.28275 3.64056 0
M  V30 10344 H 979.654 2.07576 0.450086 0
M  V30 10345 H 981.917 0.911205 0.261551 0
M  V30 10346 H 981.623 3.16913 1.5251 0
M  V30 10347 H 981.497 2.25949 3.02038 0
M  V30 10348 H 983.884 1.35032 2.62393 0
M  V30 10349 H 983.965 2.29491 1.12994 0
M  V30 10350 H 983.609 4.42889 2.4862 0
M  V30 10351 H 983.539 3.45357 3.97538 0
M  V30 10352 H 986.03 2.76885 2.57183 0
M  V30 10353 H 986.343 6.06924 4.78396 0
M  V30 10354 H 984.688 5.45393 4.3078 0
M  V30 10355 H 987.879 3.48653 3.12344 0
M  V30 10356 H 988.052 4.99138 4.13237 0
M  V30 10357 N 981.458 -1.16348 1.06306 0
M  V30 10358 C 982.388 -2.2291 0.695234 0
M  V30 10359 C 983.369 -1.67208 -0.312343 0
M  V30 10360 O 984.554 -1.93293 -0.187442 0
M  V30 10361 C 981.684 -3.47205 0.0810149 0
M  V30 10362 C 980.638 -4.15801 1.01458 0
M  V30 10363 C 979.964 -5.3405 0.263656 0
M  V30 10364 C 981.264 -4.66766 2.34365 0
M  V30 10365 H 982.958 -2.53934 1.58613 0
M  V30 10366 H 980.504 -1.22056 0.76409 0
M  V30 10367 H 982.457 -4.2098 -0.18818 0
M  V30 10368 H 981.181 -3.15482 -0.844897 0
M  V30 10369 H 979.84 -3.43954 1.26852 0
M  V30 10370 H 979.488 -4.9858 -0.665378 0
M  V30 10371 H 979.188 -5.80885 0.88582 0
M  V30 10372 H 980.712 -6.106 0.00200994 0
M  V30 10373 H 982.126 -5.3212 2.13356 0
M  V30 10374 H 980.523 -5.24223 2.9208 0
M  V30 10375 H 981.593 -3.82969 2.97426 0
M  V30 10376 N 982.937 -0.845659 -1.3299 0
M  V30 10377 C 984.348 -0.50048 -1.79867 0
M  V30 10378 C 984.699 0.981027 -1.69913 0
M  V30 10379 O 983.824 1.76477 -1.25239 0
M  V30 10380 C 984.419 -0.901679 -3.26581 0
M  V30 10381 C 982.978 -0.608536 -3.71448 0
M  V30 10382 C 982.125 -1.10632 -2.54275 0
M  V30 10383 H 985.076 -1.03372 -1.20416 0
M  V30 10384 H 985.097 -0.214433 -3.79895 0
M  V30 10385 H 984.609 -1.97998 -3.33794 0
M  V30 10386 H 982.71 0.459416 -3.69757 0
M  V30 10387 H 982.823 -1.16853 -4.64631 0
M  V30 10388 H 981.187 -0.526925 -2.4919 0
M  V30 10389 H 981.97 -2.19154 -2.64247 0
M  V30 10390 N 984.415 1.45619 -0.602734 0
M  V30 10391 C 985.661 2.02572 -0.0961759 0
M  V30 10392 C 985.994 1.47076 1.26815 0
M  V30 10393 O 985.269 0.643566 1.83544 0
M  V30 10394 C 985.552 3.60062 -0.0520032 0
M  V30 10395 C 985.405 4.25901 -1.44665 0
M  V30 10396 C 986.724 4.35446 0.638342 0
M  V30 10397 H 983.843 0.736099 -0.0364238 0
M  V30 10398 H 986.485 1.7353 -0.773776 0
M  V30 10399 H 984.635 3.84936 0.525032 0
M  V30 10400 H 986.307 4.12228 -2.0704 0
M  V30 10401 H 984.55 3.84489 -2.00874 0
M  V30 10402 H 985.221 5.34779 -1.36803 0
M  V30 10403 H 987.697 4.15837 0.147926 0
M  V30 10404 H 986.573 5.45176 0.63834 0
M  V30 10405 H 986.834 4.07962 1.70351 0
M  V30 10406 N 985.893 0.34162 1.53853 0
M  V30 10407 C 986.84 -0.516058 2.24957 0
M  V30 10408 C 987.81 -1.09711 1.2471 0
M  V30 10409 O 988.995 -1.13409 1.53438 0
M  V30 10410 C 986.135 -1.66207 3.02439 0
M  V30 10411 C 985.248 -1.10851 4.17536 0
M  V30 10412 C 984.383 -2.22167 4.82509 0
M  V30 10413 C 983.422 -1.64152 5.89678 0
M  V30 10414 N 982.559 -2.69203 6.4844 0
M  V30 10415 H 987.399 0.0968275 2.97843 0
M  V30 10416 H 984.936 0.0595565 1.46979 0
M  V30 10417 H 986.894 -2.33672 3.4562 0
M  V30 10418 H 985.524 -2.24597 2.31853 0
M  V30 10419 H 984.576 -0.324853 3.7901 0
M  V30 10420 H 985.888 -0.644151 4.94623 0
M  V30 10421 H 985.042 -2.97501 5.28751 0
M  V30 10422 H 983.781 -2.71946 4.04842 0
M  V30 10423 H 982.786 -0.873228 5.42821 0
M  V30 10424 H 984.011 -1.15228 6.69253 0
M  V30 10425 H 981.957 -3.1824 5.73637 0
M  V30 10426 H 981.874 -2.27383 7.20994 0
M  V30 10427 H 983.142 -3.44312 6.99335 0
M  V30 10428 N 987.371 -1.57444 0.0701946 0
M  V30 10429 C 988.617 -1.94528 -0.594177 0
M  V30 10430 C 988.972 -0.949898 -1.67316 0
M  V30 10431 O 988.265 0.0280668 -1.91579 0
M  V30 10432 C 988.459 -3.36044 -1.21694 0
M  V30 10433 C 988.288 -4.49256 -0.199806 0
M  V30 10434 C 987.058 -5.04843 0.214963 0
M  V30 10435 C 989.256 -5.11217 0.562312 0
M  V30 10436 N 987.238 -6.01595 1.22297 0
M  V30 10437 C 988.609 -6.03453 1.42284 0
M  V30 10438 C 990.664 -4.94043 0.618555 0
M  V30 10439 C 989.367 -6.80359 2.33461 0
M  V30 10440 C 991.393 -5.71591 1.51783 0
M  V30 10441 C 990.755 -6.63474 2.36604 0
M  V30 10442 H 986.854 -0.758941 -0.1885 0
M  V30 10443 H 989.438 -1.94145 0.146965 0
M  V30 10444 H 987.609 -3.37168 -1.92801 0
M  V30 10445 H 989.341 -3.60368 -1.84165 0
M  V30 10446 H 986.096 -4.73303 -0.167835 0
M  V30 10447 H 986.52 -6.5467 1.72443 0
M  V30 10448 H 991.162 -4.22794 -0.0230235 0
M  V30 10449 H 988.88 -7.50886 2.98656 0
M  V30 10450 H 992.466 -5.60324 1.56616 0
M  V30 10451 H 991.346 -7.22432 3.0506 0
M  V30 10452 N 988.849 0.203349 -1.56283 0
M  V30 10453 C 989.782 1.27982 -1.88934 0
M  V30 10454 C 990.76 1.44345 -0.748555 0
M  V30 10455 O 991.944 1.59867 -0.998741 0
M  V30 10456 C 989.071 2.64762 -2.11231 0
M  V30 10457 C 988.117 2.65315 -3.33932 0
M  V30 10458 S 988.95 2.17568 -4.8931 0
M  V30 10459 C 990.106 3.56189 -5.14665 0
M  V30 10460 H 990.339 1.00095 -2.79943 0
M  V30 10461 H 987.872 0.406458 -1.48954 0
M  V30 10462 H 989.83 3.43501 -2.2476 0
M  V30 10463 H 988.491 2.89864 -1.20986 0
M  V30 10464 H 987.684 3.6587 -3.46634 0
M  V30 10465 H 987.286 1.94652 -3.19353 0
M  V30 10466 H 989.578 4.52001 -5.0468 0
M  V30 10467 H 990.521 3.48387 -6.16467 0
M  V30 10468 H 990.929 3.50719 -4.42331 0
M  V30 10469 N 990.327 1.50405 0.470755 0
M  V30 10470 C 991.29 1.68741 1.5511 0
M  V30 10471 C 992.29 0.558116 1.50804 0
M  V30 10472 O 993.48 0.825149 1.53418 0
M  V30 10473 C 990.612 1.71295 2.94739 0
M  V30 10474 H 991.805 2.65127 1.40169 0
M  V30 10475 H 989.358 1.39891 0.697156 0
M  V30 10476 H 990.093 0.766029 3.15123 0
M  V30 10477 H 989.878 2.53336 2.99271 0
M  V30 10478 H 991.368 1.87434 3.73173 0
M  V30 10479 N 991.805 -0.723954 1.39988 0
M  V30 10480 C 993.216 -1.30273 1.33738 0
M  V30 10481 C 993.567 -1.96199 0.00690581 0
M  V30 10482 O 992.692 -1.97016 -0.895179 0
M  V30 10483 C 993.287 -2.36889 2.42217 0
M  V30 10484 C 991.846 -2.90412 2.39453 0
M  V30 10485 C 990.993 -1.64103 2.2353 0
M  V30 10486 H 993.944 -0.520672 1.49916 0
M  V30 10487 H 993.965 -3.17538 2.09642 0
M  V30 10488 H 993.477 -1.88878 3.39038 0
M  V30 10489 H 991.578 -3.42674 1.46304 0
M  V30 10490 H 991.691 -3.42775 3.34727 0
M  V30 10491 H 990.055 -1.88855 1.70897 0
M  V30 10492 H 990.838 -1.18128 3.22336 0
M  V30 10493 N 993.283 -1.25346 -0.955304 0
M  V30 10494 C 994.193 -1.07412 -2.08566 0
M  V30 10495 C 995.209 -0.0114424 -1.73996 0
M  V30 10496 O 996.385 -0.212236 -2.00279 0
M  V30 10497 C 993.45 -0.694141 -3.3968 0
M  V30 10498 C 992.511 -1.83468 -3.88121 0
M  V30 10499 C 991.744 -1.47274 -5.12978 0
M  V30 10500 O 991.967 -0.368086 -5.69211 0
M  V30 10501 O 990.901 -2.30269 -5.56111 0
M  V30 10502 H 994.727 -2.02206 -2.26598 0
M  V30 10503 H 992.312 -1.04279 -1.06988 0
M  V30 10504 H 994.194 -0.494325 -4.18491 0
M  V30 10505 H 992.869 0.224545 -3.2292 0
M  V30 10506 H 991.776 -2.08935 -3.10318 0
M  V30 10507 H 993.109 -2.73258 -4.09379 0
M  V30 10508 N 994.761 1.15782 -1.06922 0
M  V30 10509 C 995.724 2.18578 -0.689654 0
M  V30 10510 C 996.724 1.58553 0.267872 0
M  V30 10511 O 997.914 1.7413 0.0494097 0
M  V30 10512 C 995.046 3.40896 -0.0157919 0
M  V30 10513 H 996.239 2.53672 -1.59971 0
M  V30 10514 H 993.792 1.30168 -0.865214 0
M  V30 10515 H 994.527 3.11367 0.906712 0
M  V30 10516 H 994.312 3.85721 -0.704415 0
M  V30 10517 H 995.802 4.16937 0.235266 0
M  V30 10518 N 996.239 0.8527 1.3254 0
M  V30 10519 C 997.169 0.311234 2.31416 0
M  V30 10520 C 998.15 -0.588557 1.59593 0
M  V30 10521 O 999.335 -0.509211 1.87405 0
M  V30 10522 C 996.465 -0.502892 3.4364 0
M  V30 10523 C 995.419 0.302296 4.26931 0
M  V30 10524 C 994.745 -0.636445 5.30899 0
M  V30 10525 C 996.045 1.52697 4.99481 0
M  V30 10526 H 997.739 1.13742 2.76953 0
M  V30 10527 H 995.285 0.548389 1.33149 0
M  V30 10528 H 997.238 -0.892092 4.11849 0
M  V30 10529 H 995.962 -1.36242 2.96826 0
M  V30 10530 H 994.621 0.673226 3.60365 0
M  V30 10531 H 994.269 -1.49277 4.80339 0
M  V30 10532 H 993.969 -0.101716 5.87512 0
M  V30 10533 H 995.493 -1.02286 6.01972 0
M  V30 10534 H 996.907 1.21017 5.60382 0
M  V30 10535 H 995.304 1.9995 5.65809 0
M  V30 10536 H 996.374 2.28929 4.27457 0
M  V30 10537 N 997.718 -1.45297 0.610449 0
M  V30 10538 C 998.965 -2.02218 0.106759 0
M  V30 10539 C 999.293 -1.47849 -1.26376 0
M  V30 10540 O 998.548 -0.644402 -1.84786 0
M  V30 10541 C 998.847 -3.57394 0.0205329 0
M  V30 10542 C 998.513 -4.30928 1.32709 0
M  V30 10543 C 997.175 -4.50735 1.68498 0
M  V30 10544 C 999.527 -4.72936 2.19046 0
M  V30 10545 C 996.855 -5.09806 2.90371 0
M  V30 10546 C 999.207 -5.33355 3.40169 0
M  V30 10547 C 997.871 -5.51384 3.76207 0
M  V30 10548 H 997.141 -0.739969 0.039066 0
M  V30 10549 H 999.788 -1.74326 0.792638 0
M  V30 10550 H 998.093 -3.84581 -0.748623 0
M  V30 10551 H 999.79 -3.99144 -0.385386 0
M  V30 10552 H 996.38 -4.15827 1.03854 0
M  V30 10553 H 1000.56 -4.57365 1.92695 0
M  V30 10554 H 995.82 -5.21953 3.18395 0
M  V30 10555 H 999.994 -5.64859 4.07318 0
M  V30 10556 H 997.621 -5.96924 4.70729 0
M  V30 10557 N 999.196 -0.349774 -1.5367 0
M  V30 10558 C 1000.47 0.300419 -1.93279 0
M  V30 10559 C 1000.85 1.67721 -1.28191 0
M  V30 10560 O 1000.2 2.24319 -0.435127 0
M  V30 10561 C 1000.41 0.366466 -3.47071 0
M  V30 10562 C 1001.76 0.614349 -4.20132 0
M  V30 10563 O 1002.78 0.448327 -3.53367 0
M  V30 10564 O 1001.64 0.936421 -5.38417 0
M  V30 10565 H 998.736 0.176599 -0.807924 0
M  V30 10566 H 1001.28 -0.401405 -1.64884 0
M  V30 10567 H 1000.05 -0.599455 -3.86681 0
M  V30 10568 H 999.677 1.11482 -3.81651 0
M  V30 10569 N 1000.67 1.57404 -0.0785433 0
M  V30 10570 C 1002.09 1.57158 0.2781 0
M  V30 10571 C 1002.29 1.08847 1.69572 0
M  V30 10572 O 1001.35 0.757407 2.40873 0
M  V30 10573 C 1002.66 3.00589 0.0816067 0
M  V30 10574 C 1004.21 3.12637 0.150627 0
M  V30 10575 C 1004.68 4.57997 -0.0176685 0
M  V30 10576 N 1006.17 4.63185 0.0377145 0
M  V30 10577 C 1006.91 5.7336 -0.0679907 0
M  V30 10578 N 1006.4 6.92426 -0.227598 0
M  V30 10579 N 1008.2 5.62099 -0.0104424 0
M  V30 10580 H 1000.35 1.87121 -1.00496 0
M  V30 10581 H 1002.61 0.862937 -0.392484 0
M  V30 10582 H 1002.32 3.40072 -0.896869 0
M  V30 10583 H 1002.19 3.67931 0.831046 0
M  V30 10584 H 1004.58 2.73037 1.11959 0
M  V30 10585 H 1004.66 2.4792 -0.630028 0
M  V30 10586 H 1004.3 4.98288 -0.983431 0
M  V30 10587 H 1004.23 5.20754 0.782475 0
M  V30 10588 H 1006.72 3.77564 0.159208 0
M  V30 10589 H 1007.04 7.72217 -0.300217 0
M  V30 10590 H 1005.38 6.94502 -0.263049 0
M  V30 10591 H 1008.57 4.67964 0.112999 0
M  V30 10592 H 1008.75 6.47928 -0.0962747 0
M  V30 10593 N 1002.15 -0.195058 1.56388 0
M  V30 10594 C 1003.4 -0.9168 1.80894 0
M  V30 10595 C 1003.73 -1.82907 0.652592 0
M  V30 10596 O 1003.01 -1.91382 -0.346853 0
M  V30 10597 C 1003.29 -1.733 3.15657 0
M  V30 10598 C 1003.14 -0.845449 4.41783 0
M  V30 10599 C 1004.46 -2.70557 3.47112 0
M  V30 10600 H 1001.58 -0.331861 0.658056 0
M  V30 10601 H 1004.22 -0.184174 1.89105 0
M  V30 10602 H 1002.37 -2.3576 3.08787 0
M  V30 10603 H 1004.04 -0.235557 4.60698 0
M  V30 10604 H 1002.29 -0.152172 4.33533 0
M  V30 10605 H 1002.96 -1.45152 5.32574 0
M  V30 10606 H 1005.43 -2.1823 3.54281 0
M  V30 10607 H 1004.31 -3.24749 4.42526 0
M  V30 10608 H 1004.57 -3.49605 2.70608 0
M  V30 10609 N 1003.63 -1.50653 -0.462772 0
M  V30 10610 C 1004.86 -1.65586 -1.23551 0
M  V30 10611 C 1005.27 -0.342012 -1.86083 0
M  V30 10612 O 1004.61 0.686893 -1.70374 0
M  V30 10613 C 1004.67 -2.69555 -2.37867 0
M  V30 10614 C 1004.34 -4.1288 -1.95906 0
M  V30 10615 C 1005.33 -4.98483 -1.47685 0
M  V30 10616 C 1003.02 -4.58843 -2.04373 0
M  V30 10617 C 1005.01 -6.281 -1.08484 0
M  V30 10618 C 1002.7 -5.88464 -1.64783 0
M  V30 10619 C 1003.7 -6.72918 -1.16918 0
M  V30 10620 O 1003.39 -8.00119 -0.778798 0
M  V30 10621 H 1003.12 -0.559438 -0.37948 0
M  V30 10622 H 1005.67 -1.9768 -0.557816 0
M  V30 10623 H 1003.9 -2.3272 -3.08834 0
M  V30 10624 H 1005.59 -2.73624 -2.99808 0
M  V30 10625 H 1006.36 -4.64186 -1.40558 0
M  V30 10626 H 1002.24 -3.93247 -2.40577 0
M  V30 10627 H 1005.78 -6.93972 -0.710524 0
M  V30 10628 H 1001.68 -6.22281 -1.71571 0
M  V30 10629 H 1002.44 -8.1346 -0.906911 0
M  V30 10630 N 1005.11 0.71652 -1.4037 0
M  V30 10631 C 1006.34 1.50563 -1.4191 0
M  V30 10632 C 1006.75 1.88791 -0.0185456 0
M  V30 10633 O 1006.11 1.55378 0.957289 0
M  V30 10634 C 1006.16 2.78155 -2.30894 0
M  V30 10635 O 1005.88 2.41543 -3.65497 0
M  V30 10636 C 1007.38 3.72057 -2.41016 0
M  V30 10637 H 1004.6 0.464679 -0.48406 0
M  V30 10638 H 1007.15 0.883927 -1.8441 0
M  V30 10639 H 1005.3 3.36611 -1.91759 0
M  V30 10640 H 1005.71 3.23636 -4.12747 0
M  V30 10641 H 1007.19 4.58426 -3.07489 0
M  V30 10642 H 1007.67 4.15098 -1.43492 0
M  V30 10643 H 1008.27 3.19512 -2.80699 0
M  V30 10644 N 1006.59 1.25851 0.948643 0
M  V30 10645 C 1007.54 1.03437 2.03187 0
M  V30 10646 C 1008.52 -0.0307632 1.60871 0
M  V30 10647 O 1009.71 0.185296 1.76027 0
M  V30 10648 C 1006.84 0.661426 3.36868 0
M  V30 10649 C 1005.93 1.76363 3.8569 0
M  V30 10650 N 1006.32 2.9998 4.07241 0
M  V30 10651 C 1004.62 1.64552 4.14534 0
M  V30 10652 C 1005.32 3.71564 4.47566 0
M  V30 10653 N 1004.29 2.99214 4.53841 0
M  V30 10654 H 1008.1 1.97277 2.17851 0
M  V30 10655 H 1005.61 1.16258 1.13392 0
M  V30 10656 H 1007.61 0.482021 4.14104 0
M  V30 10657 H 1006.27 -0.269582 3.23579 0
M  V30 10658 H 1007.28 3.35963 3.94143 0
M  V30 10659 H 1003.95 0.783891 4.10075 0
M  V30 10660 H 1005.34 4.77702 4.72494 0
M  V30 10661 N 1008.06 -1.15214 1.07534 0
M  V30 10662 C 1009 -2.19634 0.655261 0
M  V30 10663 C 1010.01 -1.60139 -0.293165 0
M  V30 10664 O 1011.2 -1.78311 -0.0821957 0
M  V30 10665 C 1008.3 -3.38851 -0.0578281 0
M  V30 10666 C 1007.47 -4.27888 0.90725 0
M  V30 10667 C 1006.53 -5.25692 0.231115 0
M  V30 10668 O 1005.56 -5.62469 0.872746 0
M  V30 10669 N 1006.76 -5.71424 -1.0225 0
M  V30 10670 H 1009.52 -2.56292 1.55353 0
M  V30 10671 H 1007.08 -1.30347 0.960271 0
M  V30 10672 H 1009.08 -4.01334 -0.520874 0
M  V30 10673 H 1007.65 -3.00593 -0.858071 0
M  V30 10674 H 1006.87 -3.62475 1.54937 0
M  V30 10675 H 1008.15 -4.84246 1.56151 0
M  V30 10676 H 1007.55 -5.43659 -1.56369 0
M  V30 10677 H 1006.11 -6.35938 -1.42919 0
M  V30 10678 N 1009.54 -0.859717 -1.32086 0
M  V30 10679 C 1010.77 -0.478865 -2.01796 0
M  V30 10680 C 1011.19 0.918274 -1.64163 0
M  V30 10681 O 1010.55 1.60409 -0.844896 0
M  V30 10682 C 1010.6 -0.631356 -3.5503 0
M  V30 10683 O 1009.7 0.333712 -4.11048 0
M  V30 10684 H 1009.04 -0.191775 -0.635703 0
M  V30 10685 H 1011.57 -1.16031 -1.68517 0
M  V30 10686 H 1011.58 -0.520783 -4.04663 0
M  V30 10687 H 1010.26 -1.65015 -3.81763 0
M  V30 10688 H 1008.84 0.178953 -3.7247 0
M  V30 10689 N 1011.02 1.44971 -0.618145 0
M  V30 10690 C 1012.3 1.95539 -0.0489895 0
M  V30 10691 C 1012.68 1.5604 1.42179 0
M  V30 10692 O 1012.03 0.82809 2.12967 0
M  V30 10693 C 1012.24 3.48044 -0.258193 0
M  V30 10694 C 1013.58 4.24354 -0.144541 0
M  V30 10695 O 1014.61 3.55699 -0.18887 0
M  V30 10696 O 1013.47 5.46486 -0.038519 0
M  V30 10697 H 1010.56 0.826466 0.0297256 0
M  V30 10698 H 1013.11 1.55086 -0.688944 0
M  V30 10699 H 1011.88 3.69798 -1.27926 0
M  V30 10700 H 1011.5 3.95412 0.416522 0
M  V30 10701 N 1012.5 0.357919 1.53482 0
M  V30 10702 C 1013.74 -0.23451 2.0144 0
M  V30 10703 C 1014.08 -1.49044 1.24497 0
M  V30 10704 O 1013.35 -1.91566 0.336535 0
M  V30 10705 C 1013.64 -0.534193 3.56116 0
M  V30 10706 C 1013.49 0.734834 4.43757 0
M  V30 10707 C 1014.81 -1.33793 4.1927 0
M  V30 10708 H 1011.93 -0.0837595 0.732225 0
M  V30 10709 H 1014.57 0.481297 1.83803 0
M  V30 10710 H 1012.72 -1.144 3.71275 0
M  V30 10711 H 1014.39 1.37251 4.40409 0
M  V30 10712 H 1012.63 1.35678 4.12036 0
M  V30 10713 H 1013.3 0.48021 5.49907 0
M  V30 10714 H 1015.78 -0.822158 4.07897 0
M  V30 10715 H 1014.66 -1.51636 5.27539 0
M  V30 10716 H 1014.92 -2.34423 3.74831 0
M  V30 10717 N 1013.98 -1.5736 0.0868897 0
M  V30 10718 C 1015.22 -1.95147 -0.573512 0
M  V30 10719 C 1015.58 -0.967591 -1.66299 0
M  V30 10720 O 1014.87 0.00774571 -1.91598 0
M  V30 10721 C 1015.06 -3.37316 -1.18123 0
M  V30 10722 C 1014.89 -4.49443 -0.152145 0
M  V30 10723 C 1013.66 -5.04586 0.268496 0
M  V30 10724 C 1015.86 -5.10592 0.616502 0
M  V30 10725 N 1013.84 -6.00264 1.28671 0
M  V30 10726 C 1015.21 -6.0191 1.48677 0
M  V30 10727 C 1017.27 -4.93359 0.67092 0
M  V30 10728 C 1015.97 -6.77844 2.40664 0
M  V30 10729 C 1018 -5.69949 1.57837 0
M  V30 10730 C 1017.36 -6.60927 2.43628 0
M  V30 10731 H 1013.46 -0.760898 -0.180439 0
M  V30 10732 H 1016.04 -1.93978 0.167548 0
M  V30 10733 H 1014.21 -3.39194 -1.89214 0
M  V30 10734 H 1015.95 -3.62301 -1.80332 0
M  V30 10735 H 1012.7 -4.73454 -0.117625 0
M  V30 10736 H 1013.13 -6.52804 1.79377 0
M  V30 10737 H 1017.77 -4.22794 0.0218207 0
M  V30 10738 H 1015.49 -7.47677 3.06603 0
M  V30 10739 H 1019.07 -5.58631 1.6255 0
M  V30 10740 H 1017.95 -7.19156 3.12705 0
M  V30 10741 N 1015.45 0.186762 -1.56489 0
M  V30 10742 C 1016.68 0.925916 -1.85584 0
M  V30 10743 C 1017.1 1.75708 -0.671446 0
M  V30 10744 O 1016.46 1.7728 0.379687 0
M  V30 10745 C 1016.51 1.79107 -3.12975 0
M  V30 10746 O 1015.61 2.89088 -2.94112 0
M  V30 10747 H 1014.96 0.260275 -0.610863 0
M  V30 10748 H 1017.49 0.189561 -2.0372 0
M  V30 10749 H 1017.5 2.19408 -3.43983 0
M  V30 10750 H 1016.17 1.18044 -3.98796 0
M  V30 10751 H 1014.75 2.52482 -2.74422 0
M  V30 10752 N 1016.93 1.50896 0.454776 0
M  V30 10753 C 1018.18 1.62699 1.20562 0
M  V30 10754 C 1018.51 0.334943 1.91594 0
M  V30 10755 O 1017.76 -0.680106 1.83502 0
M  V30 10756 C 1018.06 2.76839 2.26042 0
M  V30 10757 C 1017.73 4.16745 1.72147 0
M  V30 10758 C 1016.39 4.54809 1.5717 0
M  V30 10759 C 1018.74 5.04118 1.32341 0
M  V30 10760 C 1016.07 5.7797 1.00835 0
M  V30 10761 C 1018.42 6.27842 0.774419 0
M  V30 10762 C 1017.09 6.64694 0.611415 0
M  V30 10763 H 1016.36 0.595358 0.441169 0
M  V30 10764 H 1019 1.84879 0.499202 0
M  V30 10765 H 1017.31 2.48812 3.02655 0
M  V30 10766 H 1019 2.83173 2.83926 0
M  V30 10767 H 1015.59 3.86725 1.84775 0
M  V30 10768 H 1019.78 4.75331 1.42739 0
M  V30 10769 H 1015.03 6.05183 0.869669 0
M  V30 10770 H 1019.21 6.94896 0.457389 0
M  V30 10771 H 1016.84 7.60004 0.172751 0
M  V30 10772 N 1018.41 -0.709066 1.40748 0
M  V30 10773 C 1019.66 -1.46611 1.39103 0
M  V30 10774 C 1019.98 -1.95 -0.00365366 0
M  V30 10775 O 1019.25 -1.70791 -0.959541 0
M  V30 10776 H 1017.83 -0.543954 0.511979 0
M  V30 10777 H 1020.49 -0.840141 1.75863 0
M  V30 10778 H 1019.59 -2.33581 2.06994 0
M  V30 10779 N 1019.89 -1.26353 -0.941956 0
M  V30 10780 C 1021.14 -1.12017 -1.69056 0
M  V30 10781 C 1021.47 0.335856 -1.91274 0
M  V30 10782 O 1020.74 1.24677 -1.49285 0
M  V30 10783 C 1021.03 -1.88889 -3.06583 0
M  V30 10784 C 1020.88 -3.42394 -2.91696 0
M  V30 10785 C 1022.2 -1.68209 -4.06686 0
M  V30 10786 H 1019.32 -0.408311 -0.613556 0
M  V30 10787 H 1021.96 -1.55339 -1.09407 0
M  V30 10788 H 1020.11 -1.5207 -3.57501 0
M  V30 10789 H 1021.78 -3.88962 -2.48005 0
M  V30 10790 H 1020.02 -3.69459 -2.27338 0
M  V30 10791 H 1020.7 -3.91408 -3.89235 0
M  V30 10792 H 1023.17 -2.00286 -3.64726 0
M  V30 10793 H 1022.05 -2.24412 -5.00929 0
M  V30 10794 H 1022.31 -0.626474 -4.37639 0
M  V30 10795 N 1021.37 1.14642 -1.08144 0
M  V30 10796 C 1022.3 2.21775 -0.730609 0
M  V30 10797 C 1023.28 1.67683 0.285702 0
M  V30 10798 O 1024.46 1.93567 0.156667 0
M  V30 10799 C 1021.59 3.47033 -0.136242 0
M  V30 10800 C 1020.55 4.14134 -1.0806 0
M  V30 10801 C 1019.87 5.33563 -0.348585 0
M  V30 10802 C 1021.17 4.62978 -2.41761 0
M  V30 10803 H 1022.87 2.51378 -1.62633 0
M  V30 10804 H 1020.41 1.20825 -0.783411 0
M  V30 10805 H 1022.37 4.21226 0.121182 0
M  V30 10806 H 1021.09 3.16786 0.7946 0
M  V30 10807 H 1019.75 3.41892 -1.32308 0
M  V30 10808 H 1019.4 4.99575 0.585974 0
M  V30 10809 H 1019.1 5.79402 -0.978122 0
M  V30 10810 H 1020.62 6.10519 -0.0991508 0
M  V30 10811 H 1022.04 5.28659 -2.21795 0
M  V30 10812 H 1020.43 5.1951 -3.00383 0
M  V30 10813 H 1021.5 3.78189 -3.03482 0
M  V30 10814 N 1022.85 0.866709 1.31628 0
M  V30 10815 C 1023.78 0.264788 2.26659 0
M  V30 10816 C 1024.76 -0.604181 1.50958 0
M  V30 10817 O 1025.94 -0.558324 1.80042 0
M  V30 10818 C 1023.07 -0.625373 3.32877 0
M  V30 10819 C 1022.11 0.171813 4.26154 0
M  V30 10820 S 1022.95 1.54818 5.12632 0
M  V30 10821 C 1024.1 0.66405 6.22367 0
M  V30 10822 H 1024.34 1.07036 2.77364 0
M  V30 10823 H 1021.87 0.665038 1.39343 0
M  V30 10824 H 1023.83 -1.13327 3.94547 0
M  V30 10825 H 1022.49 -1.40486 2.80932 0
M  V30 10826 H 1021.68 -0.506694 5.01447 0
M  V30 10827 H 1021.28 0.611704 3.68964 0
M  V30 10828 H 1023.57 -0.126717 6.77381 0
M  V30 10829 H 1024.52 1.388 6.94363 0
M  V30 10830 H 1024.93 0.233046 5.64019 0
M  V30 10831 N 1024.32 -1.44642 0.625825 0
M  V30 10832 C 1025.57 -2.02939 0.13689 0
M  V30 10833 C 1025.92 -1.48308 -1.22566 0
M  V30 10834 O 1025.22 -0.655458 -1.8004 0
M  V30 10835 C 1025.41 -3.57352 0.0584381 0
M  V30 10836 C 1025.24 -4.26963 1.41184 0
M  V30 10837 C 1024.01 -4.64153 1.99725 0
M  V30 10838 C 1026.21 -4.5775 2.34455 0
M  V30 10839 N 1024.19 -5.18706 3.28356 0
M  V30 10840 C 1025.56 -5.1333 3.47696 0
M  V30 10841 C 1027.62 -4.39699 2.336 0
M  V30 10842 C 1026.32 -5.5276 4.60271 0
M  V30 10843 C 1028.35 -4.80173 3.45235 0
M  V30 10844 C 1027.71 -5.35862 4.572 0
M  V30 10845 H 1023.81 -0.776343 0.0938879 0
M  V30 10846 H 1026.39 -1.76209 0.828162 0
M  V30 10847 H 1024.56 -3.83705 -0.6021 0
M  V30 10848 H 1026.29 -4.02314 -0.438835 0
M  V30 10849 H 1023.05 -4.48298 1.52728 0
M  V30 10850 H 1023.47 -5.50464 3.94105 0
M  V30 10851 H 1028.11 -3.95942 1.48289 0
M  V30 10852 H 1025.83 -5.95473 5.46294 0
M  V30 10853 H 1029.42 -4.67924 3.45743 0
M  V30 10854 H 1028.3 -5.66602 5.42154 0
M  V30 10855 N 1025.8 -0.366053 -1.5329 0
M  V30 10856 C 1026.71 0.488111 -2.29466 0
M  V30 10857 C 1027.73 1.09219 -1.35452 0
M  V30 10858 O 1028.9 1.10303 -1.68509 0
M  V30 10859 C 1025.97 1.61202 -3.06944 0
M  V30 10860 C 1025.03 1.03543 -4.16626 0
M  V30 10861 C 1024.26 2.10578 -4.904 0
M  V30 10862 O 1024.49 3.31697 -4.6404 0
M  V30 10863 O 1023.42 1.73609 -5.76319 0
M  V30 10864 H 1027.25 -0.131789 -3.03414 0
M  V30 10865 H 1024.83 -0.130421 -1.4883 0
M  V30 10866 H 1026.71 2.26546 -3.55324 0
M  V30 10867 H 1025.39 2.21732 -2.35832 0
M  V30 10868 H 1024.29 0.345892 -3.72498 0
M  V30 10869 H 1025.63 0.474687 -4.89906 0
M  V30 10870 N 1027.28 1.57312 -0.0952337 0
M  V30 10871 C 1028.53 1.93533 0.568131 0
M  V30 10872 C 1028.84 0.979121 1.6933 0
M  V30 10873 O 1030.05 1.23506 2.41782 0
M  V30 10874 C 1028.5 3.43875 1.06198 0
M  V30 10875 C 1028.11 4.47988 -0.0334397 0
M  V30 10876 C 1029.86 3.89057 1.69807 0
M  V30 10877 C 1027.76 5.89483 0.475774 0
M  V30 10878 H 1026.69 0.7224 0.215995 0
M  V30 10879 H 1029.34 1.82699 -0.171257 0
M  V30 10880 H 1027.73 3.49862 1.85506 0
M  V30 10881 H 1028.9 4.53644 -0.808934 0
M  V30 10882 H 1027.21 4.12415 -0.574725 0
M  V30 10883 H 1029.81 4.92171 2.08978 0
M  V30 10884 H 1030.15 3.27713 2.5673 0
M  V30 10885 H 1030.69 3.85772 0.970815 0
M  V30 10886 H 1027.43 6.54528 -0.356837 0
M  V30 10887 H 1026.95 5.87297 1.21827 0
M  V30 10888 H 1028.63 6.40066 0.944697 0
M  V30 10889 N 1028.76 -0.17846 1.56586 0
M  V30 10890 C 1030 -0.896235 1.81587 0
M  V30 10891 C 1030.33 -1.82553 0.671168 0
M  V30 10892 O 1029.59 -1.92688 -0.342046 0
M  V30 10893 C 1029.89 -1.73063 3.12704 0
M  V30 10894 C 1029.55 -0.950877 4.4076 0
M  V30 10895 C 1028.21 -0.735647 4.75544 0
M  V30 10896 C 1030.57 -0.403419 5.19636 0
M  V30 10897 C 1027.89 0.0382562 5.86688 0
M  V30 10898 C 1030.25 0.357359 6.3159 0
M  V30 10899 C 1028.91 0.583455 6.64945 0
M  V30 10900 H 1028.18 -0.327956 0.664474 0
M  V30 10901 H 1030.83 -0.161586 1.90817 0
M  V30 10902 H 1029.13 -2.53446 2.98785 0
M  V30 10903 H 1030.83 -2.28891 3.29257 0
M  V30 10904 H 1027.42 -1.12866 4.13472 0
M  V30 10905 H 1031.6 -0.557059 4.93164 0
M  V30 10906 H 1026.86 0.223237 6.10992 0
M  V30 10907 H 1031.03 0.788861 6.91918 0
M  V30 10908 H 1028.66 1.18502 7.50907 0
M  V30 10909 N 1030.24 -1.51135 -0.446768 0
M  V30 10910 C 1031.46 -1.67129 -1.21965 0
M  V30 10911 C 1031.88 -0.36467 -1.85245 0
M  V30 10912 O 1031.24 0.655908 -1.70306 0
M  V30 10913 C 1031.29 -2.78016 -2.31061 0
M  V30 10914 O 1031.01 -4.03615 -1.70371 0
M  V30 10915 C 1032.51 -3.05197 -3.21511 0
M  V30 10916 H 1029.73 -0.561111 -0.367961 0
M  V30 10917 H 1032.27 -1.97499 -0.530517 0
M  V30 10918 H 1030.43 -2.50272 -2.95707 0
M  V30 10919 H 1030.84 -4.65126 -2.424 0
M  V30 10920 H 1032.32 -3.8639 -3.94216 0
M  V30 10921 H 1032.79 -2.17228 -3.81718 0
M  V30 10922 H 1033.4 -3.34565 -2.62577 0
M  V30 10923 N 1031.71 0.701592 -1.41122 0
M  V30 10924 C 1032.64 1.82815 -1.45262 0
M  V30 10925 C 1033.62 1.67215 -0.311939 0
M  V30 10926 O 1034.81 1.87038 -0.522538 0
M  V30 10927 C 1031.94 3.20899 -1.32819 0
M  V30 10928 C 1030.89 3.51194 -2.44636 0
M  V30 10929 C 1030.22 4.8857 -2.17263 0
M  V30 10930 C 1031.52 3.50777 -3.86979 0
M  V30 10931 H 1033.21 1.79608 -2.39544 0
M  V30 10932 H 1030.76 0.862693 -1.15298 0
M  V30 10933 H 1032.71 3.99417 -1.34329 0
M  V30 10934 H 1031.44 3.24717 -0.350191 0
M  V30 10935 H 1030.1 2.75024 -2.42399 0
M  V30 10936 H 1029.74 4.89007 -1.17819 0
M  V30 10937 H 1029.44 5.09805 -2.92186 0
M  V30 10938 H 1030.97 5.69405 -2.20478 0
M  V30 10939 H 1032.38 4.19309 -3.90964 0
M  V30 10940 H 1030.78 3.83542 -4.61536 0
M  V30 10941 H 1031.85 2.49873 -4.15562 0
M  V30 10942 N 1033.19 1.2685 0.935242 0
M  V30 10943 C 1034.44 1.12522 1.67878 0
M  V30 10944 C 1034.76 -0.330894 1.92172 0
M  V30 10945 O 1034.03 -1.23259 1.52263 0
M  V30 10946 H 1032.61 0.413418 0.622169 0
M  V30 10947 H 1035.27 1.59267 1.12339 0
M  V30 10948 H 1034.37 1.64853 2.65009 0
M  V30 10949 N 1034.67 -1.14067 1.0875 0
M  V30 10950 C 1035.92 -1.84819 0.817698 0
M  V30 10951 C 1036.24 -1.83545 -0.658488 0
M  V30 10952 O 1035.51 -1.28633 -1.47751 0
M  V30 10953 H 1034.09 -0.68433 0.299502 0
M  V30 10954 H 1036.75 -1.38208 1.37421 0
M  V30 10955 H 1035.85 -2.89541 1.16501 0
M  V30 10956 N 1036.15 -0.873678 -1.31166 0
M  V30 10957 C 1037.37 -0.500242 -2.01277 0
M  V30 10958 C 1037.8 0.900811 -1.65127 0
M  V30 10959 O 1037.16 1.59504 -0.861862 0
M  V30 10960 C 1037.2 -0.668976 -3.5434 0
M  V30 10961 O 1036.31 0.290096 -4.11378 0
M  V30 10962 H 1035.65 -0.198507 -0.633633 0
M  V30 10963 H 1038.18 -1.17811 -1.67277 0
M  V30 10964 H 1038.19 -0.563673 -4.04088 0
M  V30 10965 H 1036.86 -1.69055 -3.79991 0
M  V30 10966 H 1035.44 0.139437 -3.72639 0
M  V30 10967 N 1037.63 1.44308 -0.633487 0
M  V30 10968 C 1039.04 1.85387 -0.221009 0
M  V30 10969 C 1039.39 1.5301 1.22811 0
M  V30 10970 O 1038.51 0.969325 1.93476 0
M  V30 10971 C 1039.11 3.36497 -0.394331 0
M  V30 10972 C 1037.67 3.76382 -0.0363405 0
M  V30 10973 C 1036.81 2.68146 -0.706598 0
M  V30 10974 H 1039.77 1.34741 -0.83849 0
M  V30 10975 H 1039.79 3.78735 0.366026 0
M  V30 10976 H 1039.3 3.60031 -1.44911 0
M  V30 10977 H 1037.4 3.58463 1.01661 0
M  V30 10978 H 1037.51 4.77 -0.448045 0
M  V30 10979 H 1035.88 2.54306 -0.14168 0
M  V30 10980 H 1036.66 2.94512 -1.76401 0
M  V30 10981 N 1039.1 0.374177 1.53094 0
M  V30 10982 C 1040.33 -0.213015 2.05499 0
M  V30 10983 C 1040.74 -1.42303 1.24686 0
M  V30 10984 O 1040.09 -1.81512 0.282702 0
M  V30 10985 C 1040.15 -0.662308 3.53346 0
M  V30 10986 C 1039.81 0.432183 4.54952 0
M  V30 10987 C 1040.81 1.2848 5.03775 0
M  V30 10988 C 1038.49 0.594887 4.98765 0
M  V30 10989 C 1040.49 2.28538 5.9502 0
M  V30 10990 C 1038.17 1.59882 5.89814 0
M  V30 10991 C 1039.17 2.4425 6.37833 0
M  V30 10992 O 1038.86 3.4293 7.27086 0
M  V30 10993 H 1038.59 -0.0393809 0.674852 0
M  V30 10994 H 1041.15 0.533423 1.98353 0
M  V30 10995 H 1039.38 -1.46049 3.5806 0
M  V30 10996 H 1041.07 -1.17347 3.88567 0
M  V30 10997 H 1041.83 1.17033 4.70668 0
M  V30 10998 H 1037.71 -0.0520401 4.60971 0
M  V30 10999 H 1041.25 2.94426 6.32423 0
M  V30 11000 H 1037.15 1.71373 6.22335 0
M  V30 11001 H 1037.92 3.3876 7.45107 0
M  V30 11002 N 1040.58 -1.57259 0.103575 0
M  V30 11003 C 1041.99 -1.81816 -0.424239 0
M  V30 11004 C 1042.34 -1.01976 -1.67617 0
M  V30 11005 O 1041.47 -0.251673 -2.14932 0
M  V30 11006 C 1042.06 -3.29783 -0.776453 0
M  V30 11007 C 1040.62 -3.55074 -1.24897 0
M  V30 11008 C 1039.77 -2.76172 -0.249875 0
M  V30 11009 H 1042.72 -1.55254 0.328913 0
M  V30 11010 H 1042.74 -3.43569 -1.63526 0
M  V30 11011 H 1042.25 -3.87865 0.134906 0
M  V30 11012 H 1040.36 -3.02332 -2.17775 0
M  V30 11013 H 1040.47 -4.637 -1.20495 0
M  V30 11014 H 1038.83 -2.43902 -0.733767 0
M  V30 11015 H 1039.62 -3.37007 0.65431 0
M  V30 11016 N 1042.06 0.170153 -1.56679 0
M  V30 11017 C 1043.31 0.884841 -1.817 0
M  V30 11018 C 1043.63 1.82731 -0.680763 0
M  V30 11019 O 1042.9 1.936 0.299294 0
M  V30 11020 H 1041.48 0.329738 -0.670285 0
M  V30 11021 H 1044.14 0.169691 -1.9416 0
M  V30 11022 H 1043.24 1.46104 -2.7579 0
M  V30 11023 N 1043.54 1.5137 0.438746 0
M  V30 11024 C 1044.79 1.63202 1.18524 0
M  V30 11025 C 1045.1 0.353408 1.92381 0
M  V30 11026 O 1046.31 0.351086 2.6922 0
M  V30 11027 C 1044.76 2.88218 2.15542 0
M  V30 11028 C 1044.37 4.23078 1.47339 0
M  V30 11029 C 1046.11 3.09407 2.90633 0
M  V30 11030 C 1044.02 5.39246 2.42833 0
M  V30 11031 H 1042.95 0.607864 0.446114 0
M  V30 11032 H 1045.6 1.77835 0.452421 0
M  V30 11033 H 1043.98 2.67216 2.92253 0
M  V30 11034 H 1045.16 4.54457 0.761964 0
M  V30 11035 H 1043.47 4.07755 0.844065 0
M  V30 11036 H 1046.07 3.9337 3.62165 0
M  V30 11037 H 1046.41 2.22428 3.51897 0
M  V30 11038 H 1046.95 3.30743 2.21029 0
M  V30 11039 H 1043.69 6.2848 1.8626 0
M  V30 11040 H 1043.21 5.12245 3.12034 0
M  V30 11041 H 1044.88 5.71137 3.03992 0
M  V30 11042 N 1045.02 -0.694098 1.41492 0
M  V30 11043 C 1046.43 -1.27407 1.36471 0
M  V30 11044 C 1046.78 -1.9614 0.0485209 0
M  V30 11045 O 1045.9 -1.98871 -0.853188 0
M  V30 11046 C 1046.5 -2.31698 2.47188 0
M  V30 11047 C 1045.06 -2.85268 2.45559 0
M  V30 11048 C 1044.2 -1.59325 2.2696 0
M  V30 11049 H 1047.16 -0.488756 1.50986 0
M  V30 11050 H 1047.18 -3.1302 2.1633 0
M  V30 11051 H 1046.69 -1.81644 3.42968 0
M  V30 11052 H 1044.79 -3.39494 1.5354 0
M  V30 11053 H 1044.9 -3.35598 3.41922 0
M  V30 11054 H 1043.27 -1.85188 1.74864 0
M  V30 11055 H 1044.05 -1.11265 3.24769 0
M  V30 11056 N 1046.49 -1.27344 -0.928501 0
M  V30 11057 C 1047.74 -1.13804 -1.67859 0
M  V30 11058 C 1048.07 0.31555 -1.91619 0
M  V30 11059 O 1047.35 1.23087 -1.50599 0
M  V30 11060 C 1047.63 -1.9213 -3.04562 0
M  V30 11061 C 1047.48 -3.45468 -2.88048 0
M  V30 11062 C 1048.8 -1.72513 -4.04879 0
M  V30 11063 H 1045.92 -0.414796 -0.609191 0
M  V30 11064 H 1048.56 -1.5649 -1.07753 0
M  V30 11065 H 1046.71 -1.55853 -3.55868 0
M  V30 11066 H 1048.39 -3.9157 -2.43865 0
M  V30 11067 H 1046.63 -3.71849 -2.23407 0
M  V30 11068 H 1047.3 -3.95515 -3.85061 0
M  V30 11069 H 1049.78 -2.04143 -3.62581 0
M  V30 11070 H 1048.65 -2.29713 -4.98521 0
M  V30 11071 H 1048.91 -0.672856 -4.3695 0
M  V30 11072 N 1047.97 1.13488 -1.09353 0
M  V30 11073 C 1048.88 2.2248 -0.744307 0
M  V30 11074 C 1049.9 1.72145 0.253404 0
M  V30 11075 O 1051.07 2.01176 0.0949339 0
M  V30 11076 C 1048.14 3.46286 -0.16928 0
M  V30 11077 C 1047.2 4.11516 -1.22284 0
M  V30 11078 C 1046.43 5.29412 -0.675161 0
M  V30 11079 O 1046.66 5.68185 0.502182 0
M  V30 11080 O 1045.59 5.8467 -1.42983 0
M  V30 11081 H 1049.42 2.54723 -1.65378 0
M  V30 11082 H 1047 1.21607 -0.867879 0
M  V30 11083 H 1048.88 4.2114 0.14811 0
M  V30 11084 H 1047.56 3.15745 0.713214 0
M  V30 11085 H 1046.47 3.38492 -1.59292 0
M  V30 11086 H 1047.8 4.46186 -2.07796 0
M  V30 11087 N 1049.45 0.880621 1.30701 0
M  V30 11088 C 1050.36 0.348034 2.32004 0
M  V30 11089 C 1051.38 -0.547508 1.65162 0
M  V30 11090 O 1052.55 -0.441673 1.96497 0
M  V30 11091 C 1049.62 -0.432585 3.43991 0
M  V30 11092 C 1048.68 0.492189 4.26469 0
M  V30 11093 C 1047.91 -0.25127 5.33108 0
M  V30 11094 O 1048.14 -1.47795 5.5092 0
M  V30 11095 O 1047.07 0.396376 6.00593 0
M  V30 11096 H 1050.9 1.18798 2.79501 0
M  V30 11097 H 1048.48 0.64432 1.34792 0
M  V30 11098 H 1050.36 -0.874733 4.12221 0
M  V30 11099 H 1049.04 -1.2489 2.98637 0
M  V30 11100 H 1047.94 0.983058 3.60953 0
M  V30 11101 H 1049.28 1.27439 4.75416 0
M  V30 11102 N 1050.93 -1.4397 0.641131 0
M  V30 11103 C 1051.86 -2.33458 -0.04446 0
M  V30 11104 C 1052.84 -1.48781 -0.824507 0
M  V30 11105 O 1054.03 -1.77477 -0.788397 0
M  V30 11106 C 1051.16 -3.31989 -1.01984 0
M  V30 11107 C 1050.11 -4.2656 -0.350745 0
M  V30 11108 C 1049.44 -5.15036 -1.43673 0
M  V30 11109 C 1050.74 -5.16897 0.749299 0
M  V30 11110 H 1052.43 -2.91034 0.702832 0
M  V30 11111 H 1049.98 -1.39942 0.339435 0
M  V30 11112 H 1051.93 -3.93483 -1.50828 0
M  V30 11113 H 1050.65 -2.72643 -1.79815 0
M  V30 11114 H 1049.31 -3.66413 0.117139 0
M  V30 11115 H 1048.96 -4.52037 -2.20617 0
M  V30 11116 H 1048.66 -5.79125 -0.994358 0
M  V30 11117 H 1050.18 -5.79403 -1.92678 0
M  V30 11118 H 1051.6 -5.7227 0.343534 0
M  V30 11119 H 1049.99 -5.89643 1.11541 0
M  V30 11120 H 1051.06 -4.5731 1.61232 0
M  V30 11121 N 1052.41 -0.382291 -1.52893 0
M  V30 11122 C 1053.65 0.202133 -2.01489 0
M  V30 11123 C 1053.98 1.47399 -1.26901 0
M  V30 11124 O 1053.24 1.92439 -0.355771 0
M  V30 11125 C 1053.54 0.523437 -3.53546 0
M  V30 11126 C 1053.2 -0.656042 -4.46102 0
M  V30 11127 C 1051.86 -0.979633 -4.71123 0
M  V30 11128 C 1054.22 -1.44545 -5.00756 0
M  V30 11129 C 1051.54 -2.0943 -5.48047 0
M  V30 11130 C 1053.9 -2.55066 -5.78899 0
M  V30 11131 C 1052.56 -2.87942 -6.02201 0
M  V30 11132 H 1051.83 0.0739659 -0.737299 0
M  V30 11133 H 1054.48 -0.518196 -1.84356 0
M  V30 11134 H 1052.78 1.325 -3.68715 0
M  V30 11135 H 1054.48 0.988148 -3.88634 0
M  V30 11136 H 1051.07 -0.393818 -4.26787 0
M  V30 11137 H 1055.25 -1.20869 -4.81357 0
M  V30 11138 H 1050.51 -2.3528 -5.64317 0
M  V30 11139 H 1054.68 -3.1664 -6.20252 0
M  V30 11140 H 1052.31 -3.74435 -6.61591 0
M  V30 11141 N 1053.89 1.57202 -0.111913 0
M  V30 11142 C 1054.83 2.14936 0.840908 0
M  V30 11143 C 1055.8 1.07242 1.2684 0
M  V30 11144 O 1056.99 1.35114 1.34718 0
M  V30 11145 C 1054.13 2.74743 2.0883 0
M  V30 11146 C 1053.24 3.96723 1.70982 0
M  V30 11147 C 1052.38 4.4464 2.90634 0
M  V30 11148 C 1051.41 5.59169 2.48992 0
M  V30 11149 N 1050.55 6.01862 3.61534 0
M  V30 11150 H 1055.39 2.96034 0.341735 0
M  V30 11151 H 1052.93 1.4626 0.156993 0
M  V30 11152 H 1054.89 3.07546 2.81907 0
M  V30 11153 H 1053.52 1.96346 2.56218 0
M  V30 11154 H 1052.57 3.70127 0.878072 0
M  V30 11155 H 1053.88 4.79795 1.36373 0
M  V30 11156 H 1053.03 4.79315 3.71944 0
M  V30 11157 H 1051.77 3.60503 3.28464 0
M  V30 11158 H 1050.78 5.24106 1.66113 0
M  V30 11159 H 1052 6.45067 2.12287 0
M  V30 11160 H 1049.95 5.20667 3.99051 0
M  V30 11161 H 1049.87 6.79772 3.30827 0
M  V30 11162 H 1051.13 6.41172 4.43305 0
M  V30 11163 N 1055.36 -0.161842 1.56767 0
M  V30 11164 C 1056.29 -1.20226 2.0017 0
M  V30 11165 C 1057.27 -1.4564 0.878807 0
M  V30 11166 O 1058.46 -1.56813 1.14557 0
M  V30 11167 C 1055.59 -2.53897 2.36968 0
M  V30 11168 C 1054.54 -2.43033 3.52305 0
M  V30 11169 C 1053.87 -3.81281 3.74872 0
M  V30 11170 C 1055.17 -1.927 4.85453 0
M  V30 11171 H 1056.86 -0.84142 2.87333 0
M  V30 11172 H 1054.41 -0.403309 1.38237 0
M  V30 11173 H 1056.36 -3.26893 2.6593 0
M  V30 11174 H 1055.09 -2.91787 1.46724 0
M  V30 11175 H 1053.75 -1.7249 3.23485 0
M  V30 11176 H 1053.39 -4.1658 2.81904 0
M  V30 11177 H 1053.09 -3.74877 4.52483 0
M  V30 11178 H 1054.62 -4.55848 4.06245 0
M  V30 11179 H 1056.03 -2.55477 5.13229 0
M  V30 11180 H 1054.43 -1.97222 5.66766 0
M  V30 11181 H 1055.5 -0.881816 4.76814 0
M  V30 11182 N 1056.84 -1.516 -0.430713 0
M  V30 11183 C 1057.77 -1.76342 -1.53054 0
M  V30 11184 C 1058.75 -0.61349 -1.58652 0
M  V30 11185 O 1059.94 -0.856888 -1.74273 0
M  V30 11186 C 1057.07 -1.8945 -2.91077 0
M  V30 11187 C 1056.02 -3.04928 -3.00339 0
M  V30 11188 C 1055.35 -3.03228 -4.40405 0
M  V30 11189 C 1056.65 -4.44777 -2.73808 0
M  V30 11190 H 1058.34 -2.68435 -1.326 0
M  V30 11191 H 1055.89 -1.29171 -0.636466 0
M  V30 11192 H 1057.84 -2.05343 -3.67984 0
M  V30 11193 H 1056.56 -0.940114 -3.12777 0
M  V30 11194 H 1055.22 -2.88751 -2.25872 0
M  V30 11195 H 1054.87 -2.05553 -4.59083 0
M  V30 11196 H 1054.57 -3.80776 -4.47531 0
M  V30 11197 H 1056.1 -3.21222 -5.19277 0
M  V30 11198 H 1057.51 -4.6127 -3.40445 0
M  V30 11199 H 1055.91 -5.2408 -2.92335 0
M  V30 11200 H 1056.98 -4.54358 -1.69372 0
M  V30 11201 N 1058.32 0.686584 -1.41858 0
M  V30 11202 C 1059.27 1.80038 -1.44413 0
M  V30 11203 C 1060.24 1.63415 -0.297427 0
M  V30 11204 O 1061.42 1.84138 -0.499789 0
M  V30 11205 C 1058.56 3.17988 -1.34082 0
M  V30 11206 C 1057.67 3.45979 -2.58693 0
M  V30 11207 C 1056.81 4.73592 -2.4059 0
M  V30 11208 C 1055.85 4.94581 -3.60633 0
M  V30 11209 N 1054.99 6.13426 -3.41545 0
M  V30 11210 H 1059.83 1.77189 -2.396 0
M  V30 11211 H 1057.36 0.865158 -1.18968 0
M  V30 11212 H 1059.32 3.97689 -1.26092 0
M  V30 11213 H 1057.95 3.1999 -0.424975 0
M  V30 11214 H 1057 2.60617 -2.77097 0
M  V30 11215 H 1058.31 3.57386 -3.47961 0
M  V30 11216 H 1057.47 5.61364 -2.30119 0
M  V30 11217 H 1056.21 4.64448 -1.48794 0
M  V30 11218 H 1055.21 4.05254 -3.71549 0
M  V30 11219 H 1056.44 5.05578 -4.53395 0
M  V30 11220 H 1054.38 6.05477 -2.52456 0
M  V30 11221 H 1054.3 6.25641 -4.24393 0
M  V30 11222 H 1055.57 7.03908 -3.34864 0
M  V30 11223 N 1059.8 1.27835 0.921735 0
M  V30 11224 C 1060.71 1.12904 2.05645 0
M  V30 11225 C 1061.72 0.0575704 1.73905 0
M  V30 11226 O 1062.9 0.265261 1.99645 0
M  V30 11227 C 1059.96 0.783957 3.3772 0
M  V30 11228 C 1059.03 1.93694 3.8312 0
M  V30 11229 C 1058.26 1.60823 5.08893 0
M  V30 11230 O 1058.48 0.518873 5.68035 0
M  V30 11231 O 1057.42 2.44932 5.49811 0
M  V30 11232 H 1061.24 2.08143 2.21157 0
M  V30 11233 H 1058.83 1.07078 1.04185 0
M  V30 11234 H 1060.71 0.605107 4.17033 0
M  V30 11235 H 1059.38 -0.138849 3.23402 0
M  V30 11236 H 1058.29 2.17089 3.04669 0
M  V30 11237 H 1059.62 2.84016 4.0199 0
M  V30 11238 N 1061.28 -1.12907 1.09954 0
M  V30 11239 C 1062.52 -1.83941 0.837255 0
M  V30 11240 C 1062.84 -1.84234 -0.638984 0
M  V30 11241 O 1062.11 -1.30193 -1.46378 0
M  V30 11242 H 1060.69 -0.681115 0.306743 0
M  V30 11243 H 1063.36 -1.36743 1.38879 0
M  V30 11244 H 1062.45 -2.88289 1.19565 0
M  V30 11245 N 1062.75 -0.88754 -1.30232 0
M  V30 11246 C 1063.7 -0.327649 -2.25633 0
M  V30 11247 C 1064.69 0.545362 -1.51376 0
M  V30 11248 O 1065.88 0.389366 -1.72664 0
M  V30 11249 C 1063.01 0.454546 -3.40277 0
M  V30 11250 C 1062.09 -0.432698 -4.21887 0
M  V30 11251 N 1062.49 -1.53434 -4.81966 0
M  V30 11252 C 1060.78 -0.228275 -4.45415 0
M  V30 11253 C 1061.48 -2.08292 -5.43129 0
M  V30 11254 N 1060.46 -1.37754 -5.25856 0
M  V30 11255 H 1064.26 -1.16937 -2.69635 0
M  V30 11256 H 1061.78 -0.737232 -1.44702 0
M  V30 11257 H 1063.77 0.87231 -4.07672 0
M  V30 11258 H 1062.43 1.29367 -2.97816 0
M  V30 11259 H 1063.44 -1.91717 -4.81108 0
M  V30 11260 H 1060.12 0.573475 -4.13543 0
M  V30 11261 H 1061.51 -3.00818 -6.00798 0
M  V30 11262 N 1064.23 1.43628 -0.648757 0
M  V30 11263 C 1065.65 1.56442 -0.315921 0
M  V30 11264 C 1065.85 1.63322 1.18018 0
M  V30 11265 O 1064.9 1.58585 1.96487 0
M  V30 11266 C 1066.22 2.82751 -1.02335 0
M  V30 11267 C 1067.77 2.96488 -1.00318 0
M  V30 11268 C 1068.24 4.25623 -1.69142 0
M  V30 11269 N 1069.73 4.32477 -1.65885 0
M  V30 11270 C 1070.47 5.31154 -2.16016 0
M  V30 11271 N 1069.96 6.36135 -2.74415 0
M  V30 11272 N 1071.76 5.22778 -2.06541 0
M  V30 11273 H 1063.91 1.37405 -1.61968 0
M  V30 11274 H 1066.17 0.65962 -0.680886 0
M  V30 11275 H 1065.88 2.83714 -2.07844 0
M  V30 11276 H 1065.75 3.72836 -0.572114 0
M  V30 11277 H 1068.14 2.95068 0.0434919 0
M  V30 11278 H 1068.22 2.07704 -1.49307 0
M  V30 11279 H 1067.86 4.27804 -2.73763 0
M  V30 11280 H 1067.79 5.13296 -1.17622 0
M  V30 11281 H 1070.28 3.57232 -1.23264 0
M  V30 11282 H 1070.6 7.07743 -3.10355 0
M  V30 11283 H 1068.94 6.36771 -2.78474 0
M  V30 11284 H 1072.13 4.39678 -1.60625 0
M  V30 11285 H 1072.3 5.99523 -2.45919 0
M  V30 11286 N 1065.71 0.390394 1.52688 0
M  V30 11287 C 1066.64 -0.48838 2.22913 0
M  V30 11288 C 1067.62 -1.06319 1.23025 0
M  V30 11289 O 1068.81 -1.11462 1.52015 0
M  V30 11290 C 1065.93 -1.67612 2.9432 0
M  V30 11291 C 1064.98 -1.22646 4.08485 0
M  V30 11292 S 1065.81 -0.207092 5.35099 0
M  V30 11293 C 1066.97 -1.40058 6.10028 0
M  V30 11294 H 1067.2 0.107949 2.97104 0
M  V30 11295 H 1064.73 0.174588 1.5341 0
M  V30 11296 H 1066.69 -2.35728 3.36069 0
M  V30 11297 H 1065.35 -2.24375 2.19806 0
M  V30 11298 H 1064.55 -2.11331 4.57554 0
M  V30 11299 H 1064.15 -0.624197 3.68754 0
M  V30 11300 H 1066.44 -2.32747 6.36266 0
M  V30 11301 H 1067.38 -0.950804 7.01687 0
M  V30 11302 H 1067.79 -1.61789 5.40818 0
M  V30 11303 N 1067.19 -1.57141 0.120249 0
M  V30 11304 C 1068.47 -1.8677 -0.581075 0
M  V30 11305 C 1068.85 -1.02163 -1.84732 0
M  V30 11306 O 1068.19 -0.100897 -2.28277 0
M  V30 11307 C 1068.4 -3.37923 -0.872316 0
M  V30 11308 C 1069.75 -4.0655 -1.22483 0
M  V30 11309 O 1070.78 -3.42948 -0.962539 0
M  V30 11310 O 1069.63 -5.18821 -1.71717 0
M  V30 11311 H 1066.73 -0.773219 -0.293362 0
M  V30 11312 H 1069.27 -1.68992 0.154846 0
M  V30 11313 H 1068.05 -3.91292 0.0249416 0
M  V30 11314 H 1067.67 -3.61135 -1.66335 0
M  V30 11315 N 1068.67 0.153526 -1.5685 0
M  V30 11316 C 1069.61 1.18973 -1.97773 0
M  V30 11317 C 1070.58 1.43041 -0.844311 0
M  V30 11318 O 1071.77 1.55484 -1.10586 0
M  V30 11319 C 1068.91 2.51981 -2.35795 0
M  V30 11320 C 1068.02 2.35143 -3.62397 0
M  V30 11321 C 1067.16 3.61141 -3.89552 0
M  V30 11322 C 1066.2 3.39311 -5.09445 0
M  V30 11323 N 1065.33 4.57423 -5.32643 0
M  V30 11324 H 1070.17 0.833758 -2.86099 0
M  V30 11325 H 1067.71 0.400252 -1.4155 0
M  V30 11326 H 1069.67 3.29527 -2.55867 0
M  V30 11327 H 1068.3 2.85539 -1.50557 0
M  V30 11328 H 1067.35 1.48684 -3.50139 0
M  V30 11329 H 1068.66 2.14969 -4.501 0
M  V30 11330 H 1067.82 4.47117 -4.10087 0
M  V30 11331 H 1066.55 3.84312 -3.00259 0
M  V30 11332 H 1065.56 2.51723 -4.8879 0
M  V30 11333 H 1066.78 3.17545 -6.00285 0
M  V30 11334 H 1064.73 4.8078 -4.46303 0
M  V30 11335 H 1064.65 4.40228 -6.14602 0
M  V30 11336 H 1065.92 5.44632 -5.57671 0
M  V30 11337 N 1070.14 1.51827 0.422667 0
M  V30 11338 C 1071.56 1.57533 1.00201 0
M  V30 11339 C 1071.91 0.407623 1.91919 0
M  V30 11340 O 1071.03 -0.473763 2.1115 0
M  V30 11341 C 1071.63 2.85508 1.82403 0
M  V30 11342 C 1070.19 2.93737 2.35362 0
M  V30 11343 C 1069.33 2.52343 1.14971 0
M  V30 11344 H 1072.28 1.57391 0.20339 0
M  V30 11345 H 1072.3 2.70097 2.68007 0
M  V30 11346 H 1071.82 3.70477 1.15623 0
M  V30 11347 H 1069.92 2.13231 3.05554 0
M  V30 11348 H 1070.03 3.977 2.67155 0
M  V30 11349 H 1068.39 2.05878 1.49955 0
M  V30 11350 H 1069.18 3.39672 0.497786 0
M  V30 11351 N 1071.62 -0.679052 1.4222 0
M  V30 11352 C 1072.59 -1.77448 1.45069 0
M  V30 11353 C 1073.59 -1.57189 0.338882 0
M  V30 11354 O 1074.78 -1.63559 0.599519 0
M  V30 11355 C 1071.91 -3.1603 1.27819 0
M  V30 11356 H 1073.1 -1.7631 2.426 0
M  V30 11357 H 1070.65 -0.888277 1.28605 0
M  V30 11358 H 1071.39 -3.22796 0.311946 0
M  V30 11359 H 1071.17 -3.32138 2.08391 0
M  V30 11360 H 1072.66 -3.9596 1.32686 0
M  V30 11361 N 1073.1 -1.28322 -0.914942 0
M  V30 11362 C 1074.05 -1.12003 -2.03858 0
M  V30 11363 C 1075.04 -0.0396287 -1.69354 0
M  V30 11364 O 1076.25 -0.198309 -1.78904 0
M  V30 11365 H 1072.62 -0.34552 -0.667922 0
M  V30 11366 H 1074.59 -2.07168 -2.14765 0
M  V30 11367 C 1073.34 -0.797402 -3.38433 0
M  V30 11368 H 1072.67 -1.62071 -3.65476 0
M  V30 11369 H 1074.11 -0.723165 -4.17787 0
M  V30 11370 C 1072.57 0.498807 -3.33187 0
M  V30 11371 O 1073.1 1.52946 -3.71444 0
M  V30 11372 N 1071.3 0.499101 -2.86282 0
M  V30 11373 H 1070.85 -0.340056 -2.55346 0
M  V30 11374 H 1070.81 1.36641 -2.83155 0
M  V30 11375 N 1074.58 1.12322 -1.10551 0
M  V30 11376 C 1075.82 1.85497 -0.858492 0
M  V30 11377 C 1076.18 1.8222 0.604966 0
M  V30 11378 O 1077.38 2.5075 0.968382 0
M  V30 11379 C 1075.65 3.29124 -1.39327 0
M  V30 11380 S 1077.21 4.19659 -1.28186 0
M  V30 11381 H 1074.03 0.639768 -0.31019 0
M  V30 11382 H 1076.63 1.35298 -1.41119 0
M  V30 11383 H 1075.34 3.29069 -2.45238 0
M  V30 11384 H 1074.87 3.84388 -0.837203 0
M  V30 11385 H 1076.88 4.95618 -0.240325 0
M  V30 11386 N 1076.06 0.894434 1.2976 0
M  V30 11387 C 1077.28 0.532916 1.99919 0
M  V30 11388 C 1077.7 -0.881022 1.66983 0
M  V30 11389 O 1077.06 -1.58076 0.912035 0
M  V30 11390 C 1077.11 0.70936 3.54472 0
M  V30 11391 O 1076.83 2.06764 3.86239 0
M  V30 11392 C 1078.33 0.352089 4.419 0
M  V30 11393 H 1075.55 0.205019 0.638912 0
M  V30 11394 H 1078.09 1.20233 1.65421 0
M  V30 11395 H 1076.25 0.0871901 3.87302 0
M  V30 11396 H 1076.66 2.09315 4.80924 0
M  V30 11397 H 1078.14 0.526405 5.49484 0
M  V30 11398 H 1078.61 -0.710527 4.33415 0
M  V30 11399 H 1079.22 0.950979 4.14532 0
M  V30 11400 N 1077.53 -1.43282 0.656365 0
M  V30 11401 C 1078.48 -2.32556 -0.0452037 0
M  V30 11402 C 1079.48 -1.48789 -0.80982 0
M  V30 11403 O 1080.68 -1.64979 -0.719865 0
M  V30 11404 H 1077.06 -0.751258 -0.0334043 0
M  V30 11405 H 1079.03 -2.89448 0.725423 0
M  V30 11406 C 1077.78 -3.33138 -0.995706 0
M  V30 11407 H 1077.1 -3.97622 -0.416774 0
M  V30 11408 H 1078.54 -3.98231 -1.45562 0
M  V30 11409 C 1077 -2.63978 -2.09325 0
M  V30 11410 O 1077.53 -2.45769 -3.17743 0
M  V30 11411 N 1075.74 -2.23301 -1.8597 0
M  V30 11412 H 1075.28 -2.38312 -0.97802 0
M  V30 11413 H 1075.24 -1.77358 -2.59599 0
M  V30 11414 N 1079.01 -0.398486 -1.52479 0
M  V30 11415 C 1079.92 0.439328 -2.3045 0
M  V30 11416 C 1080.94 1.06322 -1.37738 0
M  V30 11417 O 1082.12 1.06704 -1.7081 0
M  V30 11418 C 1079.18 1.54655 -3.10294 0
M  V30 11419 C 1078.24 0.946824 -4.18729 0
M  V30 11420 C 1077.47 2.00129 -4.94757 0
M  V30 11421 O 1077.7 3.2178 -4.70971 0
M  V30 11422 O 1076.63 1.61345 -5.79872 0
M  V30 11423 H 1080.46 -0.196118 -3.03066 0
M  V30 11424 H 1078.04 -0.161961 -1.4852 0
M  V30 11425 H 1079.92 2.18958 -3.60049 0
M  V30 11426 H 1078.6 2.1668 -2.40482 0
M  V30 11427 H 1077.51 0.266802 -3.73147 0
M  V30 11428 H 1078.84 0.370664 -4.90802 0
M  V30 11429 N 1080.49 1.57075 -0.12858 0
M  V30 11430 C 1081.42 2.18833 0.814519 0
M  V30 11431 C 1082.4 1.13114 1.2704 0
M  V30 11432 O 1083.59 1.41387 1.33129 0
M  V30 11433 C 1080.72 2.79535 2.06101 0
M  V30 11434 C 1079.67 3.9092 1.74257 0
M  V30 11435 C 1079 4.38473 3.06015 0
M  V30 11436 C 1080.3 5.1257 1.00345 0
M  V30 11437 H 1081.99 2.97895 0.299862 0
M  V30 11438 H 1079.54 1.4329 0.14279 0
M  V30 11439 H 1081.49 3.21401 2.72543 0
M  V30 11440 H 1080.21 1.97777 2.59907 0
M  V30 11441 H 1078.87 3.49645 1.102 0
M  V30 11442 H 1078.52 3.53561 3.57776 0
M  V30 11443 H 1078.22 5.13591 2.85479 0
M  V30 11444 H 1079.75 4.82997 3.7356 0
M  V30 11445 H 1081.16 5.51395 1.56959 0
M  V30 11446 H 1079.56 5.93333 0.898693 0
M  V30 11447 H 1080.63 4.84899 -0.0081335 0
M  V30 11448 N 1081.97 -0.145205 1.5693 0
M  V30 11449 C 1083.2 -0.871133 1.87336 0
M  V30 11450 C 1083.61 -1.7517 0.714992 0
M  V30 11451 O 1082.95 -1.80815 -0.324304 0
M  V30 11452 C 1083.01 -1.77775 3.12468 0
M  V30 11453 C 1082.68 -1.07416 4.44197 0
M  V30 11454 C 1083.67 -0.42722 5.18142 0
M  V30 11455 C 1081.36 -1.06313 4.9092 0
M  V30 11456 C 1083.35 0.221348 6.37016 0
M  V30 11457 C 1081.04 -0.410755 6.09718 0
M  V30 11458 C 1082.04 0.230357 6.82611 0
M  V30 11459 O 1081.73 0.872389 7.99152 0
M  V30 11460 H 1081.46 -0.257174 0.62517 0
M  V30 11461 H 1084.01 -0.142159 2.04907 0
M  V30 11462 H 1082.24 -2.54771 2.9091 0
M  V30 11463 H 1083.93 -2.37579 3.29107 0
M  V30 11464 H 1084.7 -0.427536 4.83112 0
M  V30 11465 H 1080.58 -1.55156 4.34105 0
M  V30 11466 H 1084.12 0.722349 6.9385 0
M  V30 11467 H 1080.02 -0.408112 6.44209 0
M  V30 11468 H 1080.78 0.774236 8.1483 0
M  V30 11469 N 1083.45 -1.52049 -0.414609 0
M  V30 11470 C 1084.38 -1.69712 -1.52555 0
M  V30 11471 C 1085.36 -0.544681 -1.53206 0
M  V30 11472 O 1086.54 -0.771358 -1.71995 0
M  V30 11473 C 1083.67 -1.73145 -2.91099 0
M  V30 11474 C 1082.72 -2.94624 -3.08382 0
M  V30 11475 S 1083.55 -4.55062 -2.82274 0
M  V30 11476 C 1084.7 -4.61274 -4.23057 0
M  V30 11477 H 1084.94 -2.63675 -1.37342 0
M  V30 11478 H 1082.47 -1.42018 -0.605824 0
M  V30 11479 H 1084.43 -1.75808 -3.70947 0
M  V30 11480 H 1083.09 -0.803198 -3.03657 0
M  V30 11481 H 1082.28 -2.93492 -4.0973 0
M  V30 11482 H 1081.88 -2.8982 -2.36391 0
M  V30 11483 H 1084.18 -4.38313 -5.16612 0
M  V30 11484 H 1085.12 -5.63188 -4.29214 0
M  V30 11485 H 1085.53 -3.90361 -4.07773 0
M  V30 11486 N 1084.93 0.6715 -1.42579 0
M  V30 11487 C 1085.86 1.79625 -1.40749 0
M  V30 11488 C 1086.84 1.6032 -0.271312 0
M  V30 11489 O 1088.02 1.82749 -0.46205 0
M  V30 11490 C 1085.15 3.16672 -1.20153 0
M  V30 11491 C 1084.19 3.54718 -2.36807 0
M  V30 11492 S 1085.03 3.56771 -3.99343 0
M  V30 11493 C 1086.18 4.96505 -3.81095 0
M  V30 11494 H 1086.42 1.80903 -2.35926 0
M  V30 11495 H 1083.95 0.842469 -1.2939 0
M  V30 11496 H 1085.91 3.95776 -1.08956 0
M  V30 11497 H 1084.57 3.12976 -0.265545 0
M  V30 11498 H 1083.76 4.54341 -2.18152 0
M  V30 11499 H 1083.36 2.82982 -2.44535 0
M  V30 11500 H 1085.65 5.84674 -3.4229 0
M  V30 11501 H 1086.6 5.20207 -4.80406 0
M  V30 11502 H 1087.01 4.69178 -3.13898 0
M  V30 11503 N 1086.4 1.28806 0.908124 0
M  V30 11504 C 1087.34 1.07538 2.01273 0
M  V30 11505 C 1088.31 -0.0102454 1.62597 0
M  V30 11506 O 1089.5 0.138797 1.87988 0
M  V30 11507 C 1086.63 0.635337 3.32688 0
M  V30 11508 C 1085.67 1.71843 3.90349 0
M  V30 11509 S 1086.5 3.31571 4.20501 0
M  V30 11510 C 1087.66 2.89416 5.54968 0
M  V30 11511 H 1087.89 2.01058 2.19005 0
M  V30 11512 H 1085.43 1.12857 1.05369 0
M  V30 11513 H 1087.38 0.388159 4.08661 0
M  V30 11514 H 1086.05 -0.280122 3.12848 0
M  V30 11515 H 1085.24 1.36228 4.8524 0
M  V30 11516 H 1084.84 1.91869 3.21033 0
M  V30 11517 H 1087.13 2.35936 6.35091 0
M  V30 11518 H 1088.08 3.83126 5.955 0
M  V30 11519 H 1088.48 2.27962 5.16424 0
M  V30 11520 N 1087.88 -1.11734 1.11145 0
M  V30 11521 C 1089.3 -1.35412 0.844736 0
M  V30 11522 C 1089.5 -1.94347 -0.532111 0
M  V30 11523 O 1088.55 -2.17443 -1.28353 0
M  V30 11524 C 1089.87 -2.28869 1.95037 0
M  V30 11525 C 1091.41 -2.42442 1.97967 0
M  V30 11526 C 1091.89 -3.39219 3.07725 0
M  V30 11527 N 1093.38 -3.4678 3.07079 0
M  V30 11528 C 1094.12 -4.21595 3.88646 0
M  V30 11529 N 1093.61 -4.99411 4.80167 0
M  V30 11530 N 1095.4 -4.17075 3.76835 0
M  V30 11531 H 1087.56 -0.718412 1.99881 0
M  V30 11532 H 1089.82 -0.378787 0.869037 0
M  V30 11533 H 1089.52 -1.92752 2.94176 0
M  V30 11534 H 1089.4 -3.2906 1.84389 0
M  V30 11535 H 1091.79 -2.77835 0.994561 0
M  V30 11536 H 1091.87 -1.42113 2.12691 0
M  V30 11537 H 1091.51 -3.04553 4.0646 0
M  V30 11538 H 1091.44 -4.39394 2.90242 0
M  V30 11539 H 1093.93 -2.91272 2.40767 0
M  V30 11540 H 1094.24 -5.53856 5.38946 0
M  V30 11541 H 1092.59 -4.98582 4.84191 0
M  V30 11542 H 1095.78 -3.55369 3.04681 0
M  V30 11543 H 1095.95 -4.75125 4.40637 0
M  V30 11544 N 1089.36 -0.901303 -1.29284 0
M  V30 11545 C 1090.64 -0.44747 -1.90413 0
M  V30 11546 C 1091.02 1.07298 -1.81797 0
M  V30 11547 O 1090.36 1.91555 -1.24574 0
M  V30 11548 C 1090.57 -0.963849 -3.35427 0
M  V30 11549 C 1091.92 -1.00851 -4.12449 0
M  V30 11550 O 1092.95 -0.91163 -3.44337 0
M  V30 11551 O 1091.81 -1.15426 -5.34171 0
M  V30 11552 H 1088.9 -0.13976 -0.815105 0
M  V30 11553 H 1091.45 -0.991274 -1.37738 0
M  V30 11554 H 1090.22 -2.00782 -3.3586 0
M  V30 11555 H 1089.84 -0.400149 -3.95581 0
M  V30 11556 N 1090.84 1.42931 -0.663954 0
M  V30 11557 C 1092.08 2.03557 -0.185479 0
M  V30 11558 C 1092.44 1.51309 1.18193 0
M  V30 11559 O 1093.64 2.03649 1.75444 0
M  V30 11560 C 1091.91 3.56802 -0.206705 0
M  V30 11561 S 1093.47 4.38333 0.202356 0
M  V30 11562 H 1090.29 0.706791 -0.0772523 0
M  V30 11563 H 1092.89 1.74841 -0.874688 0
M  V30 11564 H 1091.6 3.92328 -1.20445 0
M  V30 11565 H 1091.13 3.90175 0.502693 0
M  V30 11566 H 1093.14 4.7489 1.43853 0
M  V30 11567 N 1092.32 0.406567 1.52266 0
M  V30 11568 C 1093.56 -0.1627 2.02748 0
M  V30 11569 C 1093.92 -1.43022 1.28695 0
M  V30 11570 O 1093.21 -1.87715 0.383881 0
M  V30 11571 C 1093.4 -0.467124 3.54334 0
M  V30 11572 C 1093.23 0.76934 4.4307 0
M  V30 11573 C 1092 1.29377 4.88456 0
M  V30 11574 C 1094.2 1.64671 4.87225 0
M  V30 11575 N 1092.18 2.48599 5.61313 0
M  V30 11576 C 1093.55 2.68519 5.58836 0
M  V30 11577 C 1095.61 1.66477 4.69244 0
M  V30 11578 C 1094.31 3.74081 6.14374 0
M  V30 11579 C 1096.34 2.70956 5.25677 0
M  V30 11580 C 1095.7 3.73525 5.97209 0
M  V30 11581 H 1091.8 -0.0211706 0.781713 0
M  V30 11582 H 1094.38 0.560338 1.86463 0
M  V30 11583 H 1092.55 -1.15921 3.70698 0
M  V30 11584 H 1094.29 -1.02505 3.91503 0
M  V30 11585 H 1091.04 0.85219 4.6587 0
M  V30 11586 H 1091.46 3.0897 6.02384 0
M  V30 11587 H 1096.11 0.88519 4.1343 0
M  V30 11588 H 1093.82 4.52896 6.69261 0
M  V30 11589 H 1097.41 2.73258 5.13635 0
M  V30 11590 H 1096.29 4.53043 6.40095 0
M  V30 11591 N 1093.79 -1.57004 0.136909 0
M  V30 11592 C 1094.74 -2.12815 -0.818144 0
M  V30 11593 C 1095.73 -1.0534 -1.21623 0
M  V30 11594 O 1096.92 -1.31539 -1.18434 0
M  V30 11595 C 1094.05 -2.74533 -2.06122 0
M  V30 11596 C 1093.14 -3.89117 -1.68669 0
M  V30 11597 N 1093.53 -4.95412 -1.01983 0
M  V30 11598 C 1091.82 -3.99636 -1.98009 0
M  V30 11599 C 1092.53 -5.75594 -0.840624 0
M  V30 11600 N 1091.5 -5.26019 -1.37131 0
M  V30 11601 H 1095.3 -2.92372 -0.299315 0
M  V30 11602 H 1092.82 -1.6227 -0.0649741 0
M  V30 11603 H 1094.81 -3.12872 -2.7553 0
M  V30 11604 H 1093.47 -1.96446 -2.58532 0
M  V30 11605 H 1094.49 -5.13393 -0.681744 0
M  V30 11606 H 1091.16 -3.32613 -2.52339 0
M  V30 11607 H 1092.55 -6.71157 -0.315807 0
M  V30 11608 N 1095.27 0.136881 -1.57004 0
M  V30 11609 C 1096.24 1.15267 -1.98106 0
M  V30 11610 C 1097.24 1.35305 -0.868856 0
M  V30 11611 O 1098.43 1.32126 -1.13527 0
M  V30 11612 C 1095.56 2.51092 -2.30577 0
M  V30 11613 H 1096.75 0.799821 -2.89038 0
M  V30 11614 H 1094.3 0.380576 -1.51596 0
M  V30 11615 H 1095.04 2.9133 -1.42469 0
M  V30 11616 H 1094.82 2.37906 -3.11678 0
M  V30 11617 H 1096.31 3.24232 -2.63179 0
M  V30 11618 N 1096.75 1.52266 0.40654 0
M  V30 11619 C 1098 1.66699 1.15496 0
M  V30 11620 C 1098.33 0.397019 1.90098 0
M  V30 11621 O 1097.6 -0.604646 1.84863 0
M  V30 11622 C 1097.89 2.8907 2.14734 0
M  V30 11623 C 1097.74 4.26123 1.44012 0
M  V30 11624 C 1099.06 3.06966 3.15373 0
M  V30 11625 H 1096.18 0.606642 0.418515 0
M  V30 11626 H 1098.82 1.84826 0.440381 0
M  V30 11627 H 1096.97 2.73745 2.75673 0
M  V30 11628 H 1098.64 4.5318 0.861722 0
M  V30 11629 H 1096.89 4.27406 0.742064 0
M  V30 11630 H 1097.56 5.07799 2.16436 0
M  V30 11631 H 1100.03 3.21205 2.64512 0
M  V30 11632 H 1098.91 3.94097 3.82072 0
M  V30 11633 H 1099.17 2.20395 3.83247 0
M  V30 11634 N 1098.23 -0.663929 1.42933 0
M  V30 11635 C 1099.64 -1.24484 1.39143 0
M  V30 11636 C 1099.99 -1.95993 0.0901142 0
M  V30 11637 O 1099.12 -2.00636 -0.810812 0
M  V30 11638 C 1099.71 -2.26402 2.52047 0
M  V30 11639 C 1098.27 -2.79995 2.51555 0
M  V30 11640 C 1097.42 -1.54475 2.30289 0
M  V30 11641 H 1100.37 -0.456619 1.51989 0
M  V30 11642 H 1100.39 -3.08361 2.22921 0
M  V30 11643 H 1099.9 -1.74328 3.46744 0
M  V30 11644 H 1098 -3.36161 1.60707 0
M  V30 11645 H 1098.11 -3.2827 3.48964 0
M  V30 11646 H 1096.48 -1.81437 1.78753 0
M  V30 11647 H 1097.26 -1.04351 3.27056 0
M  V30 11648 N 1099.71 -1.29285 -0.901281 0
M  V30 11649 C 1100.93 -1.20169 -1.69039 0
M  V30 11650 C 1101.36 0.234509 -1.86632 0
M  V30 11651 O 1100.71 1.16935 -1.38549 0
M  V30 11652 C 1100.76 -1.91852 -3.05328 0
M  V30 11653 O 1099.87 -1.23448 -3.9349 0
M  V30 11654 H 1099.21 -0.416486 -0.517141 0
M  V30 11655 H 1101.74 -1.70826 -1.12603 0
M  V30 11656 H 1101.75 -2.00244 -3.5548 0
M  V30 11657 H 1100.42 -2.96313 -2.91841 0
M  V30 11658 H 1099 -1.23303 -3.51924 0
M  V30 11659 N 1101.18 1.11143 -1.11736 0
M  V30 11660 C 1102.12 2.1705 -0.736325 0
M  V30 11661 C 1103.13 1.61116 0.233528 0
M  V30 11662 O 1104.32 1.78493 0.0159602 0
M  V30 11663 C 1101.42 3.38832 -0.067974 0
M  V30 11664 C 1100.59 4.24226 -1.06543 0
M  V30 11665 C 1099.65 5.24472 -0.426063 0
M  V30 11666 O 1098.68 5.58843 -1.0809 0
M  V30 11667 N 1099.88 5.74825 0.809711 0
M  V30 11668 H 1102.64 2.50349 -1.64758 0
M  V30 11669 H 1100.2 1.26693 -1.00799 0
M  V30 11670 H 1102.2 4.02991 0.371563 0
M  V30 11671 H 1100.77 3.0357 0.745917 0
M  V30 11672 H 1099.99 3.56475 -1.68283 0
M  V30 11673 H 1101.27 4.78117 -1.74016 0
M  V30 11674 H 1100.67 5.49088 1.36084 0
M  V30 11675 H 1099.23 6.40804 1.19218 0
M  V30 11676 N 1102.66 0.908147 1.28804 0
M  V30 11677 C 1104.08 0.605474 1.47669 0
M  V30 11678 C 1104.28 -0.850759 1.82659 0
M  V30 11679 O 1103.33 -1.63029 1.92816 0
M  V30 11680 C 1104.65 1.53856 2.58358 0
M  V30 11681 C 1106.2 1.54467 2.7223 0
M  V30 11682 C 1106.67 2.46424 3.86056 0
M  V30 11683 N 1108.16 2.44519 3.93402 0
M  V30 11684 C 1108.9 3.12371 4.80845 0
M  V30 11685 N 1108.39 3.89533 5.72919 0
M  V30 11686 N 1110.19 3.01486 4.74407 0
M  V30 11687 H 1102.34 1.84988 1.04371 0
M  V30 11688 H 1104.6 0.793132 0.519274 0
M  V30 11689 H 1104.31 2.57651 2.39393 0
M  V30 11690 H 1104.18 1.26543 3.5534 0
M  V30 11691 H 1106.57 0.514127 2.90587 0
M  V30 11692 H 1106.65 1.85821 1.75796 0
M  V30 11693 H 1106.29 3.49577 3.68454 0
M  V30 11694 H 1106.22 2.12375 4.81876 0
M  V30 11695 H 1108.71 1.88464 3.27551 0
M  V30 11696 H 1109.03 4.3834 6.36457 0
M  V30 11697 H 1107.37 3.93639 5.72777 0
M  V30 11698 H 1110.56 2.40713 4.01466 0
M  V30 11699 H 1110.73 3.5464 5.42342 0
M  V30 11700 N 1104.14 -1.42577 0.671525 0
M  V30 11701 C 1105.55 -1.84736 0.270084 0
M  V30 11702 C 1105.9 -1.56212 -1.18711 0
M  V30 11703 O 1105.03 -1.02028 -1.90838 0
M  V30 11704 C 1105.62 -3.35334 0.483409 0
M  V30 11705 C 1104.18 -3.76154 0.136119 0
M  V30 11706 C 1103.33 -2.66179 0.777444 0
M  V30 11707 H 1106.28 -1.3247 0.873919 0
M  V30 11708 H 1106.3 -3.79573 -0.265483 0
M  V30 11709 H 1105.81 -3.56063 1.54405 0
M  V30 11710 H 1103.91 -3.61033 -0.921209 0
M  V30 11711 H 1104.03 -4.75645 0.574356 0
M  V30 11712 H 1102.39 -2.53841 0.209055 0
M  V30 11713 H 1103.17 -2.89732 1.84148 0
M  V30 11714 N 1105.62 -0.414636 -1.52048 0
M  V30 11715 C 1106.85 0.158686 -2.06291 0
M  V30 11716 C 1107.26 1.38397 -1.2842 0
M  V30 11717 O 1106.62 1.79351 -0.337539 0
M  V30 11718 C 1106.67 0.503634 -3.57975 0
M  V30 11719 O 1106.39 -0.672996 -4.329 0
M  V30 11720 C 1107.89 1.13009 -4.28653 0
M  V30 11721 H 1105.11 0.0179622 -0.67076 0
M  V30 11722 H 1107.66 -0.587177 -1.95889 0
M  V30 11723 H 1105.81 1.19939 -3.68366 0
M  V30 11724 H 1106.22 -0.383735 -5.23094 0
M  V30 11725 H 1107.7 1.32162 -5.35945 0
M  V30 11726 H 1108.18 2.10476 -3.85482 0
M  V30 11727 H 1108.78 0.474379 -4.22646 0
M  V30 11728 N 1107.1 1.56929 -0.145233 0
M  V30 11729 C 1108.34 1.96068 0.50632 0
M  V30 11730 C 1108.67 1.02999 1.64989 0
M  V30 11731 O 1107.93 0.0588581 1.95611 0
M  V30 11732 C 1108.23 3.41467 1.05522 0
M  V30 11733 C 1107.89 4.5089 0.0302827 0
M  V30 11734 C 1106.55 4.80542 -0.251475 0
M  V30 11735 C 1108.91 5.16917 -0.666783 0
M  V30 11736 C 1106.23 5.7353 -1.23614 0
M  V30 11737 C 1108.59 6.10965 -1.64025 0
M  V30 11738 C 1107.25 6.38998 -1.92973 0
M  V30 11739 H 1106.52 0.717464 0.185276 0
M  V30 11740 H 1109.17 1.90093 -0.23169 0
M  V30 11741 H 1107.47 3.44265 1.87053 0
M  V30 11742 H 1109.17 3.69077 1.5679 0
M  V30 11743 H 1105.76 4.2781 0.260069 0
M  V30 11744 H 1109.94 4.94142 -0.462297 0
M  V30 11745 H 1105.2 5.93543 -1.46687 0
M  V30 11746 H 1109.37 6.61204 -2.18591 0
M  V30 11747 H 1107 7.10855 -2.69423 0
M  V30 11748 N 1108.58 -0.128553 1.57075 0
M  V30 11749 C 1109.52 -1.15812 1.9964 0
M  V30 11750 C 1110.49 -1.41679 0.86696 0
M  V30 11751 O 1111.68 -1.53705 1.13046 0
M  V30 11752 C 1108.82 -2.48198 2.39774 0
M  V30 11753 C 1107.93 -2.29348 3.66092 0
M  V30 11754 C 1107.07 -3.54898 3.95248 0
M  V30 11755 C 1106.1 -3.31164 5.14779 0
M  V30 11756 N 1105.24 -4.48891 5.39853 0
M  V30 11757 H 1110.08 -0.788136 2.87389 0
M  V30 11758 H 1107.62 -0.377682 1.42169 0
M  V30 11759 H 1109.58 -3.25414 2.61077 0
M  V30 11760 H 1108.21 -2.83108 1.5508 0
M  V30 11761 H 1107.26 -1.43095 3.5246 0
M  V30 11762 H 1108.57 -2.07781 4.53463 0
M  V30 11763 H 1107.72 -4.40536 4.17148 0
M  V30 11764 H 1106.46 -3.79487 3.06335 0
M  V30 11765 H 1105.47 -2.43915 4.92733 0
M  V30 11766 H 1106.69 -3.07954 6.05261 0
M  V30 11767 H 1104.64 -4.73619 4.53895 0
M  V30 11768 H 1104.56 -4.30394 6.21528 0
M  V30 11769 H 1105.82 -5.35691 5.66265 0
M  V30 11770 N 1110.05 -1.5248 -0.398459 0
M  V30 11771 C 1110.99 -1.72826 -1.50545 0
M  V30 11772 C 1112 -0.608683 -1.50993 0
M  V30 11773 O 1113.19 -0.88413 -1.55066 0
M  V30 11774 C 1110.29 -1.76327 -2.89417 0
M  V30 11775 C 1109.46 -3.05491 -3.1304 0
M  V30 11776 C 1108.52 -3.00663 -4.31843 0
M  V30 11777 O 1107.55 -3.74548 -4.28605 0
M  V30 11778 N 1108.75 -2.19191 -5.37527 0
M  V30 11779 H 1111.51 -2.68333 -1.33482 0
M  V30 11780 H 1109.07 -1.5085 -0.587875 0
M  V30 11781 H 1111.07 -1.70616 -3.66977 0
M  V30 11782 H 1109.64 -0.882476 -2.99885 0
M  V30 11783 H 1108.86 -3.24767 -2.23428 0
M  V30 11784 H 1110.14 -3.90915 -3.25673 0
M  V30 11785 H 1109.54 -1.58613 -5.43009 0
M  V30 11786 H 1108.1 -2.19328 -6.1379 0
M  V30 11787 N 1111.53 0.65634 -1.43283 0
M  V30 11788 C 1112.46 1.78101 -1.51004 0
M  V30 11789 C 1113.44 1.66138 -0.36498 0
M  V30 11790 O 1114.63 1.85281 -0.581778 0
M  V30 11791 C 1111.76 3.16511 -1.42961 0
M  V30 11792 C 1110.71 3.43233 -2.55685 0
M  V30 11793 C 1110.04 4.81411 -2.32696 0
M  V30 11794 C 1111.34 3.38288 -3.97943 0
M  V30 11795 H 1113.03 1.71896 -2.45137 0
M  V30 11796 H 1110.58 0.825575 -1.17984 0
M  V30 11797 H 1112.53 3.94941 -1.46968 0
M  V30 11798 H 1111.25 3.23439 -0.45332 0
M  V30 11799 H 1109.91 2.67173 -2.51026 0
M  V30 11800 H 1109.56 4.85011 -1.33317 0
M  V30 11801 H 1109.26 5.00251 -3.08257 0
M  V30 11802 H 1110.79 5.62102 -2.38481 0
M  V30 11803 H 1112.2 4.06659 -4.04106 0
M  V30 11804 H 1110.6 3.68664 -4.73505 0
M  V30 11805 H 1111.67 2.36525 -4.23301 0
M  V30 11806 N 1113.01 1.29761 0.894412 0
M  V30 11807 C 1114.26 1.18214 1.64782 0
M  V30 11808 C 1114.59 -0.264635 1.92388 0
M  V30 11809 O 1113.86 -1.19051 1.53809 0
M  V30 11810 C 1114.15 2.00138 2.99361 0
M  V30 11811 C 1114 3.52984 2.78787 0
M  V30 11812 C 1115.32 1.83187 4.00163 0
M  V30 11813 H 1112.44 0.430802 0.597979 0
M  V30 11814 H 1115.08 1.59292 1.03566 0
M  V30 11815 H 1113.23 1.65233 3.51611 0
M  V30 11816 H 1114.9 3.97898 2.33398 0
M  V30 11817 H 1113.14 3.77642 2.13469 0
M  V30 11818 H 1113.82 4.05585 3.7444 0
M  V30 11819 H 1116.29 2.13684 3.57041 0
M  V30 11820 H 1115.17 2.42849 4.92255 0
M  V30 11821 H 1115.43 0.788469 4.35012 0
M  V30 11822 N 1114.49 -1.10549 1.12324 0
M  V30 11823 C 1115.4 -2.20428 0.803032 0
M  V30 11824 C 1116.41 -1.72756 -0.207674 0
M  V30 11825 O 1117.59 -2.01357 -0.0415623 0
M  V30 11826 C 1114.65 -3.45716 0.261032 0
M  V30 11827 C 1113.72 -4.08129 1.33152 0
M  V30 11828 C 1112.95 -5.27436 0.815288 0
M  V30 11829 O 1113.17 -5.69317 -0.351361 0
M  V30 11830 O 1112.11 -5.80674 1.58434 0
M  V30 11831 H 1115.93 -2.50249 1.72073 0
M  V30 11832 H 1113.52 -1.19263 0.899815 0
M  V30 11833 H 1115.4 -4.21384 -0.0364007 0
M  V30 11834 H 1114.07 -3.17525 -0.629249 0
M  V30 11835 H 1112.98 -3.3415 1.6821 0
M  V30 11836 H 1114.31 -4.4052 2.19552 0
M  V30 11837 N 1115.97 -0.914965 -1.28321 0
M  V30 11838 C 1117.24 -0.46764 -1.89928 0
M  V30 11839 C 1117.62 1.05364 -1.82925 0
M  V30 11840 O 1116.97 1.90223 -1.26599 0
M  V30 11841 C 1117.18 -0.999372 -3.34385 0
M  V30 11842 C 1118.53 -1.0522 -4.11356 0
M  V30 11843 O 1119.55 -0.9481 -3.4335 0
M  V30 11844 O 1118.41 -1.21085 -5.32917 0
M  V30 11845 H 1115.51 -0.148398 -0.813577 0
M  V30 11846 H 1118.05 -1.00583 -1.36679 0
M  V30 11847 H 1116.82 -2.04333 -3.33712 0
M  V30 11848 H 1116.45 -0.442083 -3.95135 0
M  V30 11849 N 1117.44 1.42219 -0.679077 0
M  V30 11850 C 1118.37 2.33493 -0.0174528 0
M  V30 11851 C 1119.35 1.50915 0.78477 0
M  V30 11852 O 1120.54 1.79504 0.741065 0
M  V30 11853 C 1117.67 3.34576 0.931463 0
M  V30 11854 C 1116.62 4.2734 0.237527 0
M  V30 11855 C 1115.95 5.18664 1.29967 0
M  V30 11856 C 1117.25 5.14729 -0.886082 0
M  V30 11857 H 1118.94 2.89068 -0.779748 0
M  V30 11858 H 1116.49 1.38993 -0.376419 0
M  V30 11859 H 1118.44 3.97343 1.40343 0
M  V30 11860 H 1117.17 2.77315 1.72523 0
M  V30 11861 H 1115.83 3.65973 -0.214245 0
M  V30 11862 H 1115.47 4.57727 2.08554 0
M  V30 11863 H 1115.17 5.81558 0.840463 0
M  V30 11864 H 1116.7 5.84308 1.77249 0
M  V30 11865 H 1118.11 5.71158 -0.495141 0
M  V30 11866 H 1116.51 5.86478 -1.27135 0
M  V30 11867 H 1117.58 4.52874 -1.733 0
M  V30 11868 N 1118.92 0.422693 1.51826 0
M  V30 11869 C 1120.2 -0.20786 1.94492 0
M  V30 11870 C 1120.58 -1.61414 1.36047 0
M  V30 11871 O 1119.93 -2.21987 0.541657 0
M  V30 11872 C 1120.14 -0.200457 3.48424 0
M  V30 11873 C 1121.48 -0.413199 4.22585 0
M  V30 11874 O 1122.51 -0.27922 3.55104 0
M  V30 11875 O 1121.37 -0.678469 5.42272 0
M  V30 11876 H 1118.46 -0.137851 0.81543 0
M  V30 11877 H 1121.01 0.479617 1.62781 0
M  V30 11878 H 1119.78 0.783263 3.83381 0
M  V30 11879 H 1119.4 -0.931464 3.86535 0
M  V30 11880 N 1120.4 -1.5685 0.153553 0
M  V30 11881 C 1121.82 -1.58306 -0.202801 0
M  V30 11882 C 1122.02 -1.16813 -1.64186 0
M  V30 11883 O 1121.07 -0.871468 -2.36985 0
M  V30 11884 C 1122.38 -3.00636 0.0619012 0
M  V30 11885 C 1123.93 -3.13 -0.00129219 0
M  V30 11886 C 1124.41 -4.57391 0.236164 0
M  V30 11887 N 1125.9 -4.62837 0.18332 0
M  V30 11888 C 1126.63 -5.72382 0.341471 0
M  V30 11889 N 1126.13 -6.90552 0.557704 0
M  V30 11890 N 1127.92 -5.61409 0.278615 0
M  V30 11891 H 1120.07 -1.82113 1.09309 0
M  V30 11892 H 1122.34 -0.843228 0.433209 0
M  V30 11893 H 1122.04 -3.35406 1.0581 0
M  V30 11894 H 1121.92 -3.71477 -0.654555 0
M  V30 11895 H 1124.3 -2.78068 -0.98805 0
M  V30 11896 H 1124.38 -2.44632 0.747596 0
M  V30 11897 H 1124.03 -4.93029 1.22005 0
M  V30 11898 H 1123.96 -5.23894 -0.533125 0
M  V30 11899 H 1126.45 -3.77894 0.0211138 0
M  V30 11900 H 1126.76 -7.69905 0.66831 0
M  V30 11901 H 1125.11 -6.92456 0.594105 0
M  V30 11902 H 1128.3 -4.6797 0.110401 0
M  V30 11903 H 1128.47 -6.46731 0.4053 0
M  V30 11904 N 1121.88 0.120221 -1.57141 0
M  V30 11905 C 1123.13 0.826791 -1.83976 0
M  V30 11906 C 1123.44 1.81102 -0.739014 0
M  V30 11907 O 1124.65 2.56368 -0.893736 0
M  V30 11908 C 1123.1 1.52108 -3.26176 0
M  V30 11909 C 1122.71 0.577902 -4.44257 0
M  V30 11910 C 1124.45 2.21286 -3.62261 0
M  V30 11911 C 1122.36 1.27535 -5.77485 0
M  V30 11912 H 1121.29 0.312508 -0.686189 0
M  V30 11913 H 1123.94 0.0795343 -1.83328 0
M  V30 11914 H 1122.32 2.31492 -3.2129 0
M  V30 11915 H 1123.5 -0.182629 -4.60438 0
M  V30 11916 H 1121.81 -0.00684348 -4.16399 0
M  V30 11917 H 1124.41 2.74154 -4.59068 0
M  V30 11918 H 1124.75 2.99029 -2.89634 0
M  V30 11919 H 1125.29 1.48791 -3.68925 0
M  V30 11920 H 1122.02 0.539237 -6.53278 0
M  V30 11921 H 1121.54 2.00792 -5.65192 0
M  V30 11922 H 1123.22 1.80888 -6.21199 0
M  V30 11923 N 1123.36 1.52689 0.390367 0
M  V30 11924 C 1124.29 1.80338 1.48325 0
M  V30 11925 C 1125.27 0.655338 1.56969 0
M  V30 11926 O 1126.45 0.902792 1.7194 0
M  V30 11927 C 1123.58 1.97101 2.85952 0
M  V30 11928 C 1122.54 3.12783 2.92148 0
M  V30 11929 C 1121.86 3.14798 4.32211 0
M  V30 11930 C 1123.16 4.5188 2.61919 0
M  V30 11931 H 1124.86 2.71857 1.25437 0
M  V30 11932 H 1122.4 1.30813 0.601995 0
M  V30 11933 H 1124.36 2.15027 3.62411 0
M  V30 11934 H 1123.08 1.02271 3.10174 0
M  V30 11935 H 1121.74 2.94638 2.18137 0
M  V30 11936 H 1121.39 2.17653 4.53471 0
M  V30 11937 H 1121.09 3.92507 4.37278 0
M  V30 11938 H 1122.61 3.34877 5.10578 0
M  V30 11939 H 1124.02 4.70134 3.28096 0
M  V30 11940 H 1122.42 5.31647 2.78337 0
M  V30 11941 H 1123.49 4.58689 1.57266 0
M  V30 11942 N 1124.83 -0.648732 1.43629 0
M  V30 11943 C 1126.06 -1.4362 1.48932 0
M  V30 11944 C 1126.48 -1.88487 0.108599 0
M  V30 11945 O 1125.83 -1.59768 -0.882066 0
M  V30 11946 C 1125.89 -2.66822 2.43903 0
M  V30 11947 O 1125.61 -2.2383 3.76606 0
M  V30 11948 C 1127.11 -3.60134 2.58493 0
M  V30 11949 H 1124.33 -0.441055 0.505679 0
M  V30 11950 H 1126.87 -0.794936 1.88417 0
M  V30 11951 H 1125.03 -3.27079 2.07601 0
M  V30 11952 H 1125.44 -3.03575 4.27718 0
M  V30 11953 H 1126.91 -4.43234 3.29011 0
M  V30 11954 H 1127.39 -4.07779 1.63134 0
M  V30 11955 H 1128 -3.05756 2.95624 0
M  V30 11956 N 1126.31 -1.30234 -0.887518 0
M  V30 11957 C 1127.24 -1.18969 -2.00919 0
M  V30 11958 C 1128.22 -0.080952 -1.69907 0
M  V30 11959 O 1129.41 -0.262546 -1.92417 0
M  V30 11960 C 1126.54 -0.878094 -3.36016 0
M  V30 11961 C 1125.49 -1.94449 -3.81279 0
M  V30 11962 C 1124.82 -1.48594 -5.13638 0
M  V30 11963 C 1126.12 -3.35519 -4.00281 0
M  V30 11964 H 1127.81 -2.12808 -2.10602 0
M  V30 11965 H 1125.36 -1.02454 -1.01189 0
M  V30 11966 H 1127.31 -0.785954 -4.14006 0
M  V30 11967 H 1126.04 0.0959779 -3.26459 0
M  V30 11968 H 1124.69 -2.02622 -3.05516 0
M  V30 11969 H 1124.34 -0.500204 -5.00507 0
M  V30 11970 H 1124.04 -2.19921 -5.44893 0
M  V30 11971 H 1125.57 -1.40754 -5.94156 0
M  V30 11972 H 1126.98 -3.30119 -4.68716 0
M  V30 11973 H 1125.38 -4.0491 -4.42909 0
M  V30 11974 H 1126.45 -3.77597 -3.04218 0
M  V30 11975 N 1127.79 1.09952 -1.12909 0
M  V30 11976 C 1129.02 1.8579 -0.910483 0
M  V30 11977 C 1129.43 1.80898 0.540484 0
M  V30 11978 O 1128.79 1.20126 1.3739 0
M  V30 11979 C 1128.84 3.33987 -1.38329 0
M  V30 11980 O 1128.56 3.38811 -2.77739 0
M  V30 11981 C 1130.06 4.26683 -1.20234 0
M  V30 11982 H 1127.28 0.587026 -0.325025 0
M  V30 11983 H 1129.83 1.38965 -1.5003 0
M  V30 11984 H 1127.98 3.78259 -0.836592 0
M  V30 11985 H 1128.4 4.31204 -2.98603 0
M  V30 11986 H 1129.87 5.28846 -1.58197 0
M  V30 11987 H 1130.35 4.38966 -0.14344 0
M  V30 11988 H 1130.95 3.88221 -1.73679 0
M  V30 11989 N 1129.27 0.921757 1.27833 0
M  V30 11990 C 1130.5 0.575202 1.98744 0
M  V30 11991 C 1130.91 -0.845405 1.68815 0
M  V30 11992 O 1130.27 -1.56106 0.94536 0
M  V30 11993 C 1130.32 0.784389 3.52888 0
M  V30 11994 O 1130.04 2.1491 3.81766 0
M  V30 11995 C 1131.54 0.445744 4.41053 0
M  V30 11996 H 1128.76 0.218525 0.634419 0
M  V30 11997 H 1131.31 1.23715 1.62834 0
M  V30 11998 H 1129.46 0.169323 3.8703 0
M  V30 11999 H 1129.87 2.19469 4.76375 0
M  V30 12000 H 1131.35 0.64284 5.48244 0
M  V30 12001 H 1131.83 -0.618433 4.34824 0
M  V30 12002 H 1132.43 1.03869 4.12421 0
M  V30 12003 N 1130.75 -1.41857 0.686609 0
M  V30 12004 C 1131.69 -2.326 0.0041351 0
M  V30 12005 C 1132.69 -1.50474 -0.778077 0
M  V30 12006 O 1133.89 -1.66468 -0.684709 0
M  V30 12007 H 1130.27 -0.751797 -0.0174615 0
M  V30 12008 H 1132.24 -2.87844 0.786656 0
M  V30 12009 C 1130.99 -3.35175 -0.924819 0
M  V30 12010 H 1130.31 -3.98416 -0.332339 0
M  V30 12011 H 1131.75 -4.01229 -1.37082 0
M  V30 12012 C 1130.21 -2.68359 -2.03679 0
M  V30 12013 O 1130.74 -2.52453 -3.12459 0
M  V30 12014 N 1128.95 -2.27196 -1.81192 0
M  V30 12015 H 1128.49 -2.40333 -0.92725 0
M  V30 12016 H 1128.45 -1.82824 -2.55778 0
M  V30 12017 N 1132.22 -0.430739 -1.51599 0
M  V30 12018 C 1133.13 0.390347 -2.3133 0
M  V30 12019 C 1134.15 1.03376 -1.39962 0
M  V30 12020 O 1135.33 1.03057 -1.73035 0
M  V30 12021 C 1132.39 1.48039 -3.13505 0
M  V30 12022 C 1131.45 0.857792 -4.20643 0
M  V30 12023 C 1130.69 1.89589 -4.9889 0
M  V30 12024 O 1130.91 3.11717 -4.77691 0
M  V30 12025 O 1129.84 1.49009 -5.83164 0
M  V30 12026 H 1133.67 -0.260358 -3.02582 0
M  V30 12027 H 1131.25 -0.193428 -1.48143 0
M  V30 12028 H 1133.14 2.11272 -3.64612 0
M  V30 12029 H 1131.81 2.1153 -2.45024 0
M  V30 12030 H 1130.72 0.187592 -3.73629 0
M  V30 12031 H 1132.05 0.266474 -4.91478 0
M  V30 12032 N 1133.7 1.56767 -0.161869 0
M  V30 12033 C 1134.61 2.21083 0.784814 0
M  V30 12034 C 1135.63 1.19959 1.26039 0
M  V30 12035 O 1136.8 1.52588 1.31449 0
M  V30 12036 C 1133.87 2.83153 2.00063 0
M  V30 12037 C 1132.93 3.9945 1.57285 0
M  V30 12038 C 1132.16 4.5855 2.7307 0
M  V30 12039 O 1132.39 4.16534 3.89686 0
M  V30 12040 O 1131.32 5.48575 2.47688 0
M  V30 12041 H 1135.15 3.02522 0.267243 0
M  V30 12042 H 1132.73 1.49255 0.0658783 0
M  V30 12043 H 1134.61 3.22546 2.71186 0
M  V30 12044 H 1133.29 2.04718 2.50744 0
M  V30 12045 H 1132.2 3.64745 0.831393 0
M  V30 12046 H 1133.53 4.7945 1.11304 0
M  V30 12047 N 1135.18 -0.111886 1.57202 0
M  V30 12048 C 1136.41 -0.8312 1.89142 0
M  V30 12049 C 1136.82 -1.73614 0.751987 0
M  V30 12050 O 1136.16 -1.81462 -0.285877 0
M  V30 12051 C 1136.22 -1.71107 3.16169 0
M  V30 12052 C 1135.89 -0.9797 4.46375 0
M  V30 12053 C 1136.88 -0.317219 5.18931 0
M  V30 12054 C 1134.57 -0.958764 4.93065 0
M  V30 12055 C 1136.56 0.356419 6.36403 0
M  V30 12056 C 1134.25 -0.281332 6.10452 0
M  V30 12057 C 1135.25 0.375098 6.81969 0
M  V30 12058 O 1134.94 1.0417 7.97122 0
M  V30 12059 H 1134.67 -0.243855 0.630484 0
M  V30 12060 H 1137.22 -0.0986634 2.05163 0
M  V30 12061 H 1135.45 -2.48543 2.96249 0
M  V30 12062 H 1137.14 -2.30544 3.34072 0
M  V30 12063 H 1137.91 -0.324965 4.8391 0
M  V30 12064 H 1133.79 -1.45913 4.37299 0
M  V30 12065 H 1137.33 0.869362 6.92162 0
M  V30 12066 H 1133.23 -0.271374 6.44929 0
M  V30 12067 H 1134 0.946899 8.13004 0
M  V30 12068 N 1136.66 -1.52894 -0.382264 0
M  V30 12069 C 1137.59 -1.81122 -1.47367 0
M  V30 12070 C 1138.57 -0.663653 -1.56619 0
M  V30 12071 O 1139.75 -0.911898 -1.71459 0
M  V30 12072 C 1136.88 -1.98615 -2.84902 0
M  V30 12073 C 1135.84 -3.14328 -2.90485 0
M  V30 12074 C 1135.16 -3.17086 -4.30535 0
M  V30 12075 C 1136.46 -4.53263 -2.59519 0
M  V30 12076 H 1138.16 -2.72518 -1.23993 0
M  V30 12077 H 1135.7 -1.3113 -0.595049 0
M  V30 12078 H 1137.66 -2.16946 -3.61265 0
M  V30 12079 H 1136.38 -1.03915 -3.09628 0
M  V30 12080 H 1135.04 -2.95791 -2.16572 0
M  V30 12081 H 1134.69 -2.20055 -4.52311 0
M  V30 12082 H 1134.39 -3.94821 -4.3519 0
M  V30 12083 H 1135.91 -3.3758 -5.08795 0
M  V30 12084 H 1137.33 -4.71867 -3.25598 0
M  V30 12085 H 1135.72 -5.33115 -2.75514 0
M  V30 12086 H 1136.79 -4.59516 -1.54831 0
M  V30 12087 N 1138.14 0.641106 -1.43971 0
M  V30 12088 C 1139.41 1.39897 -1.36704 0
M  V30 12089 C 1139.79 2.1109 -0.0208051 0
M  V30 12090 O 1139.14 2.05638 0.99625 0
M  V30 12091 C 1139.35 2.37366 -2.55849 0
M  V30 12092 C 1140.7 3.01 -2.99473 0
M  V30 12093 O 1141.72 2.47692 -2.55982 0
M  V30 12094 O 1140.58 3.9768 -3.74851 0
M  V30 12095 H 1137.68 0.625623 -0.540855 0
M  V30 12096 H 1140.22 0.666997 -1.56042 0
M  V30 12097 H 1139 1.8379 -3.45452 0
M  V30 12098 H 1138.62 3.17995 -2.38673 0
M  V30 12099 N 1139.62 1.30703 0.880598 0
M  V30 12100 C 1140.55 1.20033 2.00286 0
M  V30 12101 C 1141.53 0.0899614 1.69862 0
M  V30 12102 O 1142.71 0.272747 1.92275 0
M  V30 12103 C 1139.84 0.895902 3.35546 0
M  V30 12104 C 1138.8 1.96468 3.80242 0
M  V30 12105 C 1138.12 1.51316 5.12843 0
M  V30 12106 C 1139.42 3.37637 3.98496 0
M  V30 12107 H 1141.12 2.13922 2.0947 0
M  V30 12108 H 1138.66 1.02989 1.00644 0
M  V30 12109 H 1140.61 0.807899 4.13583 0
M  V30 12110 H 1139.34 -0.0786636 3.26505 0
M  V30 12111 H 1138 2.0424 3.04437 0
M  V30 12112 H 1137.65 0.52674 5.00234 0
M  V30 12113 H 1137.35 2.22807 5.43719 0
M  V30 12114 H 1138.87 1.43903 5.93401 0
M  V30 12115 H 1140.28 3.326 4.66959 0
M  V30 12116 H 1138.68 4.07253 4.40755 0
M  V30 12117 H 1139.75 3.79205 3.02211 0
M  V30 12118 N 1141.09 -1.09351 1.1349 0
M  V30 12119 C 1142.32 -1.85844 0.92069 0
M  V30 12120 C 1142.74 -1.80616 -0.525303 0
M  V30 12121 O 1142.1 -1.1842 -1.37282 0
M  V30 12122 C 1142.15 -3.31716 1.4141 0
M  V30 12123 O 1141.25 -4.08014 0.599838 0
M  V30 12124 H 1140.59 -0.576242 0.32991 0
M  V30 12125 H 1143.12 -1.38084 1.50976 0
M  V30 12126 H 1143.13 -3.82564 1.41805 0
M  V30 12127 H 1141.81 -3.34837 2.46692 0
M  V30 12128 H 1140.39 -3.66944 0.663816 0
M  V30 12129 N 1142.57 -0.928524 -1.27343 0
M  V30 12130 C 1143.5 -0.385563 -2.25934 0
M  V30 12131 C 1144.52 0.484178 -1.55433 0
M  V30 12132 O 1145.71 0.296668 -1.76017 0
M  V30 12133 C 1142.81 0.466116 -3.35679 0
M  V30 12134 C 1141.98 -0.384523 -4.35707 0
M  V30 12135 C 1141.04 0.404644 -5.24642 0
M  V30 12136 O 1140.06 -0.187943 -5.6889 0
M  V30 12137 N 1141.27 1.70426 -5.54919 0
M  V30 12138 H 1144.03 -1.23306 -2.73159 0
M  V30 12139 H 1141.59 -0.796039 -1.40978 0
M  V30 12140 H 1143.58 1.00115 -3.92121 0
M  V30 12141 H 1142.15 1.21437 -2.88048 0
M  V30 12142 H 1141.37 -1.10085 -3.78517 0
M  V30 12143 H 1142.66 -0.966033 -4.99545 0
M  V30 12144 H 1142.06 2.20802 -5.20829 0
M  V30 12145 H 1140.62 2.1858 -6.14057 0
M  V30 12146 N 1144.05 1.41491 -0.694123 0
M  V30 12147 C 1145.46 1.84283 -0.299439 0
M  V30 12148 C 1145.81 1.58081 1.16211 0
M  V30 12149 O 1144.94 1.05051 1.89191 0
M  V30 12150 C 1145.53 3.34522 -0.536696 0
M  V30 12151 C 1144.09 3.7589 -0.195944 0
M  V30 12152 C 1143.24 2.64908 -0.819692 0
M  V30 12153 H 1146.19 1.31063 -0.894884 0
M  V30 12154 H 1146.21 3.79947 0.205062 0
M  V30 12155 H 1145.72 3.53561 -1.6005 0
M  V30 12156 H 1143.82 3.62452 0.863655 0
M  V30 12157 H 1143.94 4.74671 -0.649954 0
M  V30 12158 H 1142.3 2.53476 -0.249412 0
M  V30 12159 H 1143.08 2.86765 -1.88734 0
M  V30 12160 N 1145.53 0.438773 1.51369 0
M  V30 12161 C 1146.46 -0.362467 2.3067 0
M  V30 12162 C 1147.44 -1.01973 1.36145 0
M  V30 12163 O 1148.62 -1.0231 1.65065 0
M  V30 12164 C 1145.75 -1.46313 3.14976 0
M  V30 12165 C 1144.71 -0.929272 4.1779 0
M  V30 12166 C 1144.03 -2.12579 4.90627 0
M  V30 12167 C 1145.33 0.0372782 5.22287 0
M  V30 12168 H 1147.03 0.29931 2.979 0
M  V30 12169 H 1144.57 0.14539 1.43264 0
M  V30 12170 H 1146.53 -2.03088 3.69233 0
M  V30 12171 H 1145.25 -2.15321 2.45569 0
M  V30 12172 H 1143.91 -0.383722 3.64586 0
M  V30 12173 H 1143.56 -2.8021 4.17722 0
M  V30 12174 H 1143.26 -1.77496 5.60151 0
M  V30 12175 H 1144.78 -2.69905 5.47708 0
M  V30 12176 H 1146.2 -0.44022 5.71607 0
M  V30 12177 H 1144.59 0.300748 5.99346 0
M  V30 12178 H 1145.66 0.973503 4.75027 0
M  V30 12179 N 1147.01 -1.56678 0.170181 0
M  V30 12180 C 1147.92 -2.21496 -0.773079 0
M  V30 12181 C 1148.93 -1.20626 -1.25401 0
M  V30 12182 O 1150.11 -1.53283 -1.30638 0
M  V30 12183 C 1147.17 -2.8421 -1.98558 0
M  V30 12184 C 1146.23 -4.00278 -1.55164 0
M  V30 12185 C 1145.47 -4.59992 -2.70634 0
M  V30 12186 O 1145.69 -4.18595 -3.87472 0
M  V30 12187 O 1144.62 -5.49881 -2.44775 0
M  V30 12188 H 1148.45 -3.02659 -0.251195 0
M  V30 12189 H 1146.03 -1.49288 -0.0579621 0
M  V30 12190 H 1147.92 -3.2398 -2.69472 0
M  V30 12191 H 1146.59 -2.06045 -2.49654 0
M  V30 12192 H 1145.5 -3.6518 -0.812038 0
M  V30 12193 H 1146.83 -4.80033 -1.0876 0
M  V30 12194 N 1148.48 0.103547 -1.57259 0
M  V30 12195 C 1149.42 1.15225 -1.98131 0
M  V30 12196 C 1150.43 1.36793 -0.882692 0
M  V30 12197 O 1151.62 1.35595 -1.16088 0
M  V30 12198 C 1148.72 2.50941 -2.27776 0
M  V30 12199 C 1147.89 2.49765 -3.59077 0
M  V30 12200 C 1146.95 3.67344 -3.76756 0
M  V30 12201 O 1145.98 3.50221 -4.48702 0
M  V30 12202 N 1147.18 4.86504 -3.16692 0
M  V30 12203 H 1149.94 0.804448 -2.88702 0
M  V30 12204 H 1147.5 0.292636 -1.59233 0
M  V30 12205 H 1149.5 3.28186 -2.36804 0
M  V30 12206 H 1148.07 2.77843 -1.43255 0
M  V30 12207 H 1147.29 1.58125 -3.61096 0
M  V30 12208 H 1148.57 2.4605 -4.4535 0
M  V30 12209 H 1147.97 5.03319 -2.58236 0
M  V30 12210 H 1146.53 5.61371 -3.31218 0
M  V30 12211 N 1149.96 1.53094 0.37415 0
M  V30 12212 C 1151.19 1.72508 1.13687 0
M  V30 12213 C 1151.6 0.449922 1.83773 0
M  V30 12214 O 1150.94 -0.586391 1.74089 0
M  V30 12215 C 1151 2.82965 2.21746 0
M  V30 12216 C 1150.67 4.23599 1.71501 0
M  V30 12217 C 1151.67 5.06245 1.1837 0
M  V30 12218 C 1149.35 4.69978 1.77273 0
M  V30 12219 C 1151.34 6.33357 0.71679 0
M  V30 12220 C 1149.03 5.9707 1.30194 0
M  V30 12221 C 1150.03 6.7859 0.774856 0
M  V30 12222 O 1149.72 8.03298 0.310981 0
M  V30 12223 H 1149.45 0.580611 0.346218 0
M  V30 12224 H 1152 2.00596 0.441614 0
M  V30 12225 H 1150.23 2.5033 2.9474 0
M  V30 12226 H 1151.92 2.90638 2.83345 0
M  V30 12227 H 1152.69 4.71591 1.13256 0
M  V30 12228 H 1148.57 4.06605 2.17241 0
M  V30 12229 H 1152.11 6.96934 0.30471 0
M  V30 12230 H 1148.01 6.31225 1.34999 0
M  V30 12231 H 1148.78 8.17364 0.431098 0
M  V30 12232 N 1151.44 -0.633461 1.44309 0
M  V30 12233 C 1152.66 -1.42527 1.50668 0
M  V30 12234 C 1153.09 -1.87637 0.131861 0
M  V30 12235 O 1152.45 -1.58595 -0.878477 0
M  V30 12236 C 1152.5 -2.62328 2.47419 0
M  V30 12237 O 1151.6 -3.62081 1.97411 0
M  V30 12238 H 1150.94 -0.426559 0.508864 0
M  V30 12239 H 1153.47 -0.773392 1.8942 0
M  V30 12240 H 1153.48 -3.09901 2.65378 0
M  V30 12241 H 1152.16 -2.2884 3.47283 0
M  V30 12242 H 1150.73 -3.21333 1.89208 0
M  V30 12243 N 1152.92 -1.31168 -0.873655 0
M  V30 12244 C 1154.33 -1.18584 -1.44203 0
M  V30 12245 C 1154.68 0.209114 -1.95082 0
M  V30 12246 O 1153.81 1.10662 -1.85965 0
M  V30 12247 C 1154.4 -2.14668 -2.62112 0
M  V30 12248 C 1152.96 -2.06029 -3.15006 0
M  V30 12249 C 1152.11 -2.04106 -1.87712 0
M  V30 12250 H 1155.06 -1.43273 -0.682536 0
M  V30 12251 H 1155.08 -1.73413 -3.38686 0
M  V30 12252 H 1154.59 -3.16186 -2.25051 0
M  V30 12253 H 1152.69 -1.07693 -3.56697 0
M  V30 12254 H 1152.8 -2.9496 -3.77539 0
M  V30 12255 H 1151.17 -1.49069 -2.0652 0
M  V30 12256 H 1151.95 -3.07373 -1.52894 0
M  V30 12257 N 1154.4 1.08748 -1.14068 0
M  V30 12258 C 1155.62 1.85353 -0.930532 0
M  V30 12259 C 1156.05 1.80892 0.515717 0
M  V30 12260 O 1155.4 1.19146 1.36652 0
M  V30 12261 C 1155.45 3.30962 -1.43167 0
M  V30 12262 O 1154.56 4.0769 -0.621468 0
M  V30 12263 H 1153.9 0.574485 -0.332962 0
M  V30 12264 H 1156.43 1.37282 -1.51707 0
M  V30 12265 H 1156.44 3.81807 -1.43832 0
M  V30 12266 H 1155.11 3.33524 -2.48464 0
M  V30 12267 H 1153.69 3.66587 -0.683267 0
M  V30 12268 N 1155.87 0.935264 1.26849 0
M  V30 12269 C 1157.1 0.595384 1.97835 0
M  V30 12270 C 1157.51 -0.832605 1.69895 0
M  V30 12271 O 1156.86 -1.56597 0.960371 0
M  V30 12272 C 1156.92 0.750567 3.51578 0
M  V30 12273 C 1156.58 2.15208 4.03156 0
M  V30 12274 C 1157.58 3.12699 4.15349 0
M  V30 12275 C 1155.26 2.47106 4.37314 0
M  V30 12276 C 1157.26 4.40193 4.60987 0
M  V30 12277 C 1154.94 3.74834 4.82641 0
M  V30 12278 C 1155.94 4.7119 4.94438 0
M  V30 12279 O 1155.63 5.96644 5.38768 0
M  V30 12280 H 1155.36 0.223734 0.637902 0
M  V30 12281 H 1157.92 1.25663 1.62475 0
M  V30 12282 H 1156.15 0.0322039 3.86687 0
M  V30 12283 H 1157.84 0.414625 4.03777 0
M  V30 12284 H 1158.6 2.89378 3.89211 0
M  V30 12285 H 1154.48 1.72846 4.2737 0
M  V30 12286 H 1158.02 5.15406 4.70109 0
M  V30 12287 H 1153.92 3.9797 5.08222 0
M  V30 12288 H 1154.69 5.99741 5.57003 0
M  V30 12289 N 1157.35 -1.41121 0.701616 0
M  V30 12290 C 1158.76 -1.84122 0.309208 0
M  V30 12291 C 1159.11 -1.58695 -1.15371 0
M  V30 12292 O 1158.24 -1.06053 -1.88631 0
M  V30 12293 C 1158.83 -3.34233 0.554429 0
M  V30 12294 C 1157.39 -3.7578 0.215876 0
M  V30 12295 C 1156.54 -2.6447 0.833729 0
M  V30 12296 H 1159.49 -1.30587 0.901822 0
M  V30 12297 H 1159.51 -3.8005 -0.18491 0
M  V30 12298 H 1159.02 -3.52707 1.61923 0
M  V30 12299 H 1157.13 -3.62905 -0.844421 0
M  V30 12300 H 1157.24 -4.74319 0.675118 0
M  V30 12301 H 1155.6 -2.5334 0.262851 0
M  V30 12302 H 1156.39 -2.85761 1.90252 0
M  V30 12303 N 1158.83 -0.446794 -1.51134 0
M  V30 12304 C 1160.11 0.176892 -1.94798 0
M  V30 12305 C 1160.49 1.59229 -1.38598 0
M  V30 12306 O 1159.84 2.21097 -0.576905 0
M  V30 12307 C 1160.05 0.145 -3.48699 0
M  V30 12308 C 1161.39 0.345917 -4.23189 0
M  V30 12309 O 1162.42 0.222691 -3.55503 0
M  V30 12310 O 1161.28 0.592112 -5.43283 0
M  V30 12311 H 1158.37 0.12486 -0.81752 0
M  V30 12312 H 1160.92 -0.505453 -1.61998 0
M  V30 12313 H 1159.69 -0.844156 -3.82086 0
M  V30 12314 H 1159.31 0.869851 -3.87968 0
M  V30 12315 N 1160.31 1.56586 -0.178487 0
M  V30 12316 C 1161.54 2.01475 0.470684 0
M  V30 12317 C 1161.95 1.0587 1.56323 0
M  V30 12318 O 1161.31 0.060749 1.82399 0
M  V30 12319 C 1161.36 3.46145 1.04238 0
M  V30 12320 O 1161.08 4.381 -0.0065582 0
M  V30 12321 C 1162.58 4.06471 1.76908 0
M  V30 12322 H 1159.8 0.660219 0.119801 0
M  V30 12323 H 1162.35 2.02542 -0.282322 0
M  V30 12324 H 1160.5 3.45831 1.74585 0
M  V30 12325 H 1160.91 5.22843 0.416554 0
M  V30 12326 H 1162.39 5.096 2.12161 0
M  V30 12327 H 1162.87 3.48974 2.66672 0
M  V30 12328 H 1163.47 4.10509 1.11186 0
M  V30 12329 N 1161.79 -0.095206 1.57312 0
M  V30 12330 C 1163.2 -0.449411 1.53142 0
M  V30 12331 C 1163.4 -1.80523 0.895187 0
M  V30 12332 O 1162.46 -2.47746 0.487649 0
M  V30 12333 C 1163.77 -0.412002 2.97864 0
M  V30 12334 C 1165.32 -0.493866 3.09079 0
M  V30 12335 C 1165.79 -0.486606 4.55408 0
M  V30 12336 N 1167.29 -0.547363 4.59955 0
M  V30 12337 C 1168.02 -0.563582 5.70624 0
M  V30 12338 N 1167.52 -0.536015 6.90723 0
M  V30 12339 N 1169.31 -0.608385 5.58798 0
M  V30 12340 H 1161.46 0.792869 1.97047 0
M  V30 12341 H 1163.72 0.295106 0.900898 0
M  V30 12342 H 1163.43 0.517064 3.47878 0
M  V30 12343 H 1163.3 -1.23102 3.56547 0
M  V30 12344 H 1165.69 -1.41335 2.59053 0
M  V30 12345 H 1165.77 0.353286 2.53349 0
M  V30 12346 H 1165.42 0.428935 5.06086 0
M  V30 12347 H 1165.35 -1.35097 5.08976 0
M  V30 12348 H 1167.84 -0.573867 3.73517 0
M  V30 12349 H 1168.15 -0.551671 7.70828 0
M  V30 12350 H 1166.49 -0.503064 6.93177 0
M  V30 12351 H 1169.69 -0.627451 4.63876 0
M  V30 12352 H 1169.86 -0.617556 6.45051 0
M  V30 12353 N 1163.26 -1.53291 -0.366026 0
M  V30 12354 C 1164.49 -1.73665 -1.13381 0
M  V30 12355 C 1164.91 -0.464284 -1.8228 0
M  V30 12356 O 1164.27 0.581645 -1.71717 0
M  V30 12357 C 1164.32 -2.90225 -2.14013 0
M  V30 12358 O 1163.42 -2.58803 -3.21084 0
M  V30 12359 H 1162.77 -0.576762 -0.329 0
M  V30 12360 H 1165.3 -2.00174 -0.423287 0
M  V30 12361 H 1165.31 -3.16378 -2.57622 0
M  V30 12362 H 1163.98 -3.82518 -1.63257 0
M  V30 12363 H 1162.56 -2.43466 -2.82451 0
M  V30 12364 N 1164.74 0.6258 -1.44643 0
M  V30 12365 C 1165.97 1.41726 -1.51422 0
M  V30 12366 C 1166.39 1.87565 -0.14181 0
M  V30 12367 O 1165.75 1.59059 0.870054 0
M  V30 12368 C 1165.8 2.61012 -2.48807 0
M  V30 12369 O 1164.9 3.61029 -1.99328 0
M  V30 12370 H 1164.24 0.423855 -0.511119 0
M  V30 12371 H 1166.77 0.763336 -1.89827 0
M  V30 12372 H 1166.78 3.08489 -2.67018 0
M  V30 12373 H 1165.46 2.26995 -3.48491 0
M  V30 12374 H 1164.04 3.20325 -1.90909 0
M  V30 12375 N 1166.22 1.31629 0.866686 0
M  V30 12376 C 1167.46 1.22806 1.63395 0
M  V30 12377 C 1167.82 -0.209785 1.9085 0
M  V30 12378 O 1169.03 -0.421562 2.65474 0
M  V30 12379 C 1167.3 2.05187 2.92631 0
M  V30 12380 S 1168.86 2.13261 3.83491 0
M  V30 12381 H 1165.67 0.437339 0.560585 0
M  V30 12382 H 1168.28 1.66333 1.02731 0
M  V30 12383 H 1166.98 3.08736 2.70389 0
M  V30 12384 H 1166.51 1.62393 3.58318 0
M  V30 12385 H 1168.53 1.27333 4.79584 0
M  V30 12386 N 1167.7 -1.08142 1.14644 0
M  V30 12387 C 1168.92 -1.84857 0.940349 0
M  V30 12388 C 1169.35 -1.81163 -0.506117 0
M  V30 12389 O 1168.71 -1.19869 -1.36019 0
M  V30 12390 C 1168.76 -3.30198 1.4492 0
M  V30 12391 O 1167.86 -4.07355 0.64308 0
M  V30 12392 H 1167.2 -0.572711 0.336003 0
M  V30 12393 H 1169.73 -1.36475 1.52432 0
M  V30 12394 H 1169.74 -3.81039 1.45854 0
M  V30 12395 H 1168.42 -3.32202 2.50229 0
M  V30 12396 H 1166.99 -3.66219 0.702698 0
M  V30 12397 N 1169.18 -0.941978 -1.26351 0
M  V30 12398 C 1170.4 -0.606231 -1.98342 0
M  V30 12399 C 1170.83 0.812014 -1.6967 0
M  V30 12400 O 1170.19 1.54712 -0.9452 0
M  V30 12401 C 1170.23 -0.855864 -3.50296 0
M  V30 12402 O 1169.34 0.0716251 -4.12338 0
M  V30 12403 H 1168.68 -0.231815 -0.62222 0
M  V30 12404 H 1171.21 -1.26513 -1.60797 0
M  V30 12405 H 1171.22 -0.777079 -4.00531 0
M  V30 12406 H 1169.89 -1.8896 -3.70496 0
M  V30 12407 H 1168.47 -0.0582866 -3.72854 0
M  V30 12408 N 1170.66 1.40747 -0.709091 0
M  V30 12409 C 1171.9 2.00606 -0.245324 0
M  V30 12410 C 1172.22 1.56489 1.16346 0
M  V30 12411 O 1171.49 0.801456 1.78755 0
M  V30 12412 H 1170.07 0.741833 -0.0877098 0
M  V30 12413 H 1172.74 1.72178 -0.913271 0
M  V30 12414 H 1171.83 3.10901 -0.273322 0
M  V30 12415 N 1172.13 0.454803 1.50895 0
M  V30 12416 C 1173.41 -0.166559 1.9489 0
M  V30 12417 C 1173.79 -1.58492 1.3944 0
M  V30 12418 O 1173.14 -2.20788 0.588622 0
M  V30 12419 C 1173.35 -0.126506 3.48771 0
M  V30 12420 C 1174.7 -0.32347 4.23366 0
M  V30 12421 O 1175.72 -0.203835 3.55616 0
M  V30 12422 O 1174.58 -0.563292 5.43589 0
M  V30 12423 H 1171.67 -0.120523 0.818171 0
M  V30 12424 H 1174.22 0.514037 1.61727 0
M  V30 12425 H 1172.99 0.864407 3.81633 0
M  V30 12426 H 1172.61 -0.849264 3.88424 0
M  V30 12427 N 1173.61 -1.56489 0.186789 0
M  V30 12428 C 1174.89 -1.89066 -0.501337 0
M  V30 12429 C 1175.27 -1.09906 -1.80233 0
M  V30 12430 O 1174.62 -0.197626 -2.27644 0
M  V30 12431 C 1174.83 -3.41318 -0.728207 0
M  V30 12432 C 1176.17 -4.11379 -1.0513 0
M  V30 12433 O 1177.2 -3.46722 -0.816216 0
M  V30 12434 O 1176.06 -5.25638 -1.49557 0
M  V30 12435 H 1173.15 -0.784966 -0.260303 0
M  V30 12436 H 1175.7 -1.68183 0.226382 0
M  V30 12437 H 1174.47 -3.90834 0.19088 0
M  V30 12438 H 1174.09 -3.67865 -1.50869 0
M  V30 12439 N 1175.09 0.086862 -1.5736 0
M  V30 12440 C 1176.31 0.806017 -1.91097 0
M  V30 12441 C 1176.74 1.71082 -0.78183 0
M  V30 12442 O 1176.1 1.79335 0.266175 0
M  V30 12443 C 1176.15 1.5884 -3.23732 0
M  V30 12444 O 1175.25 2.69798 -3.11902 0
M  V30 12445 H 1174.59 0.220899 -0.626179 0
M  V30 12446 H 1177.12 0.059619 -2.04513 0
M  V30 12447 H 1177.13 1.97088 -3.5724 0
M  V30 12448 H 1175.81 0.924426 -4.05496 0
M  V30 12449 H 1174.38 2.34519 -2.89923 0
M  V30 12450 N 1176.57 1.53483 0.357892 0
M  V30 12451 C 1177.81 1.70289 1.10134 0
M  V30 12452 C 1178.15 0.457296 1.88739 0
M  V30 12453 O 1177.42 -0.545527 1.86693 0
M  V30 12454 C 1177.7 2.95755 2.05429 0
M  V30 12455 C 1177.56 4.30489 1.30382 0
M  V30 12456 C 1178.88 3.16844 3.05447 0
M  V30 12457 H 1176 0.61965 0.399003 0
M  V30 12458 H 1178.64 1.86133 0.381357 0
M  V30 12459 H 1176.79 2.82377 2.66825 0
M  V30 12460 H 1178.46 4.55692 0.71711 0
M  V30 12461 H 1176.7 4.2955 0.605712 0
M  V30 12462 H 1177.37 5.14427 2.00171 0
M  V30 12463 H 1179.85 3.29458 2.54159 0
M  V30 12464 H 1178.73 4.06053 3.69341 0
M  V30 12465 H 1178.99 2.32476 3.76041 0
M  V30 12466 N 1178.05 -0.61812 1.44973 0
M  V30 12467 C 1179.29 -1.3774 1.48439 0
M  V30 12468 C 1179.62 -1.94117 0.121999 0
M  V30 12469 O 1178.88 -1.749 -0.877974 0
M  V30 12470 C 1179.17 -2.55143 2.50274 0
M  V30 12471 C 1178.84 -2.16976 3.95262 0
M  V30 12472 C 1177.5 -2.06281 4.34743 0
M  V30 12473 C 1179.85 -1.8703 4.86486 0
M  V30 12474 C 1177.18 -1.63846 5.63357 0
M  V30 12475 C 1179.53 -1.46085 6.15501 0
M  V30 12476 C 1178.2 -1.3394 6.53924 0
M  V30 12477 H 1177.47 -0.504026 0.543175 0
M  V30 12478 H 1180.12 -0.699685 1.7826 0
M  V30 12479 H 1178.42 -3.28205 2.13983 0
M  V30 12480 H 1180.12 -3.13373 2.50197 0
M  V30 12481 H 1176.71 -2.26223 3.64034 0
M  V30 12482 H 1180.89 -1.94196 4.56729 0
M  V30 12483 H 1176.15 -1.53058 5.91932 0
M  V30 12484 H 1180.32 -1.21956 6.85638 0
M  V30 12485 H 1177.95 -1.00832 7.53483 0
M  V30 12486 N 1179.52 -1.32087 -0.859693 0
M  V30 12487 C 1180.75 -1.25486 -1.6513 0
M  V30 12488 C 1181.17 0.175015 -1.87284 0
M  V30 12489 O 1180.53 1.12468 -1.42199 0
M  V30 12490 C 1180.58 -2.01469 -2.9907 0
M  V30 12491 O 1179.68 -1.35904 -3.89363 0
M  V30 12492 H 1179.02 -0.432728 -0.503629 0
M  V30 12493 H 1181.55 -1.74322 -1.07112 0
M  V30 12494 H 1181.56 -2.11452 -3.4893 0
M  V30 12495 H 1180.24 -3.05448 -2.82266 0
M  V30 12496 H 1178.82 -1.34437 -3.47823 0
M  V30 12497 N 1181 1.07532 -1.15215 0
M  V30 12498 C 1182.41 1.61567 -0.935568 0
M  V30 12499 C 1182.76 1.89085 0.523557 0
M  V30 12500 O 1181.89 1.65495 1.39429 0
M  V30 12501 C 1182.48 2.93531 -1.69189 0
M  V30 12502 C 1181.04 3.44316 -1.52063 0
M  V30 12503 C 1180.19 2.18404 -1.70866 0
M  V30 12504 H 1183.14 0.906431 -1.30267 0
M  V30 12505 H 1183.16 3.62377 -1.16031 0
M  V30 12506 H 1182.67 2.73471 -2.75381 0
M  V30 12507 H 1180.77 3.69462 -0.482567 0
M  V30 12508 H 1180.89 4.20478 -2.29642 0
M  V30 12509 H 1179.25 2.28012 -1.13502 0
M  V30 12510 H 1180.03 2.00841 -2.7842 0
M  V30 12511 N 1182.48 0.948665 1.2585 0
M  V30 12512 C 1183.76 0.517832 1.88621 0
M  V30 12513 C 1184.14 -1.00477 1.85654 0
M  V30 12514 O 1183.49 -1.868 1.31598 0
M  V30 12515 C 1183.7 1.08768 3.31618 0
M  V30 12516 C 1185.04 1.16089 4.08422 0
M  V30 12517 O 1186.07 1.0388 3.40716 0
M  V30 12518 O 1184.93 1.35172 5.29519 0
M  V30 12519 H 1182.02 0.169916 0.809356 0
M  V30 12520 H 1184.57 1.04171 1.33964 0
M  V30 12521 H 1183.34 2.13109 3.28177 0
M  V30 12522 H 1182.96 0.54669 3.93824 0
M  V30 12523 N 1183.96 -1.40369 0.716545 0
M  V30 12524 C 1185.37 -1.83783 0.328719 0
M  V30 12525 C 1185.72 -1.5991 -1.13681 0
M  V30 12526 O 1184.85 -1.08048 -1.87496 0
M  V30 12527 C 1185.44 -3.33626 0.589848 0
M  V30 12528 C 1184 -3.7553 0.25572 0
M  V30 12529 C 1183.15 -2.63571 0.861733 0
M  V30 12530 H 1186.1 -1.29623 0.915621 0
M  V30 12531 H 1186.12 -3.80225 -0.14459 0
M  V30 12532 H 1185.63 -3.5097 1.65655 0
M  V30 12533 H 1183.73 -3.63781 -0.805883 0
M  V30 12534 H 1183.84 -4.73577 0.725388 0
M  V30 12535 H 1182.21 -2.53047 0.289706 0
M  V30 12536 H 1182.99 -2.83727 1.93272 0
M  V30 12537 N 1185.44 -0.462799 -1.50652 0
M  V30 12538 C 1186.37 0.381469 -2.24989 0
M  V30 12539 C 1187.35 1.00328 -1.27957 0
M  V30 12540 O 1188.53 1.04082 -1.5716 0
M  V30 12541 C 1185.66 1.53378 -3.01981 0
M  V30 12542 C 1184.7 1.03017 -4.13872 0
M  V30 12543 S 1185.54 -0.048447 -5.35478 0
M  V30 12544 C 1186.69 1.10794 -6.16016 0
M  V30 12545 H 1186.93 -0.249578 -2.96251 0
M  V30 12546 H 1184.46 -0.247583 -1.52402 0
M  V30 12547 H 1186.42 2.19425 -3.46934 0
M  V30 12548 H 1185.08 2.13632 -2.30261 0
M  V30 12549 H 1184.27 1.8926 -4.67115 0
M  V30 12550 H 1183.87 0.447548 -3.71313 0
M  V30 12551 H 1186.17 2.02125 -6.46646 0
M  V30 12552 H 1187.11 0.614937 -7.05425 0
M  V30 12553 H 1187.52 1.35802 -5.47922 0
M  V30 12554 N 1186.91 1.56388 -0.195085 0
M  V30 12555 C 1188.33 1.8398 0.317513 0
M  V30 12556 C 1188.68 1.11575 1.61386 0
M  V30 12557 O 1187.8 0.376557 2.13099 0
M  V30 12558 C 1188.4 3.33749 0.582859 0
M  V30 12559 C 1186.96 3.61752 1.03983 0
M  V30 12560 C 1186.1 2.77159 0.088434 0
M  V30 12561 H 1189.05 1.53072 -0.418871 0
M  V30 12562 H 1189.07 3.52519 1.43216 0
M  V30 12563 H 1188.59 3.86419 -0.360813 0
M  V30 12564 H 1186.69 3.14515 1.99778 0
M  V30 12565 H 1186.8 4.69937 0.932549 0
M  V30 12566 H 1185.16 2.47765 0.590317 0
M  V30 12567 H 1185.95 3.32619 -0.849682 0
M  V30 12568 N 1188.39 -0.0785156 1.57404 0
M  V30 12569 C 1189.62 -0.790893 1.90862 0
M  V30 12570 C 1190.03 -1.7198 0.788644 0
M  V30 12571 O 1189.37 -1.82027 -0.247322 0
M  V30 12572 C 1189.44 -1.64362 3.19727 0
M  V30 12573 C 1189.1 -0.884796 4.48353 0
M  V30 12574 C 1190.1 -0.207074 5.19487 0
M  V30 12575 C 1187.78 -0.853962 4.94988 0
M  V30 12576 C 1189.78 0.491329 6.35504 0
M  V30 12577 C 1187.46 -0.151783 6.10911 0
M  V30 12578 C 1188.46 0.519669 6.8102 0
M  V30 12579 O 1188.15 1.21055 7.94733 0
M  V30 12580 H 1187.88 -0.230427 0.635515 0
M  V30 12581 H 1190.43 -0.0551231 2.05326 0
M  V30 12582 H 1188.66 -2.42203 3.01454 0
M  V30 12583 H 1190.35 -2.23406 3.38887 0
M  V30 12584 H 1191.12 -0.222247 4.84491 0
M  V30 12585 H 1187 -1.36605 4.40296 0
M  V30 12586 H 1190.54 1.01598 6.90162 0
M  V30 12587 H 1186.44 -0.134514 6.4536 0
M  V30 12588 H 1187.21 1.11914 8.10813 0
M  V30 12589 N 1189.87 -1.5367 -0.349747 0
M  V30 12590 C 1190.78 -1.84207 -1.45275 0
M  V30 12591 C 1191.8 -0.731695 -1.57868 0
M  V30 12592 O 1192.97 -1.02337 -1.73462 0
M  V30 12593 C 1190.04 -2.0398 -2.80345 0
M  V30 12594 C 1189.1 -3.27853 -2.77148 0
M  V30 12595 C 1188.33 -3.46673 -4.05775 0
M  V30 12596 O 1188.55 -2.69457 -5.02741 0
M  V30 12597 O 1187.49 -4.40082 -4.10623 0
M  V30 12598 H 1191.31 -2.77947 -1.22389 0
M  V30 12599 H 1188.9 -1.39247 -0.541345 0
M  V30 12600 H 1190.78 -2.18466 -3.60348 0
M  V30 12601 H 1189.46 -1.13429 -3.03176 0
M  V30 12602 H 1188.36 -3.18776 -1.95787 0
M  V30 12603 H 1189.7 -4.18377 -2.59271 0
M  V30 12604 N 1191.35 0.610423 -1.45298 0
M  V30 12605 C 1192.76 1.19234 -1.43667 0
M  V30 12606 C 1193.11 1.95523 -0.162794 0
M  V30 12607 O 1192.24 2.03507 0.735789 0
M  V30 12608 C 1192.83 2.16892 -2.60276 0
M  V30 12609 C 1191.39 2.70465 -2.61774 0
M  V30 12610 C 1190.54 1.45821 -2.35863 0
M  V30 12611 H 1193.49 0.399895 -1.53579 0
M  V30 12612 H 1193.51 2.99875 -2.34212 0
M  V30 12613 H 1193.02 1.61339 -3.52975 0
M  V30 12614 H 1191.12 3.29965 -1.73072 0
M  V30 12615 H 1191.23 3.15092 -3.60907 0
M  V30 12616 H 1189.6 1.74678 -1.85364 0
M  V30 12617 H 1190.38 0.921403 -3.30704 0
M  V30 12618 N 1192.83 1.32541 0.852676 0
M  V30 12619 C 1194.07 1.24532 1.62083 0
M  V30 12620 C 1194.43 -0.189531 1.91062 0
M  V30 12621 O 1195.63 -0.393382 2.65906 0
M  V30 12622 C 1193.9 2.0828 2.90438 0
M  V30 12623 S 1195.46 2.17317 3.81207 0
M  V30 12624 H 1192.28 0.443261 0.555915 0
M  V30 12625 H 1194.88 1.67413 1.00961 0
M  V30 12626 H 1193.59 3.11587 2.67099 0
M  V30 12627 H 1193.12 1.66184 3.56576 0
M  V30 12628 H 1195.13 1.32412 4.78207 0
M  V30 12629 N 1194.3 -1.0692 1.15784 0
M  V30 12630 C 1195.23 -2.16216 0.881649 0
M  V30 12631 C 1196.22 -1.69253 -0.16951 0
M  V30 12632 O 1197.4 -1.94186 -0.0229511 0
M  V30 12633 C 1194.53 -3.4527 0.374982 0
M  V30 12634 C 1193.48 -4.05706 1.36332 0
M  V30 12635 C 1192.81 -5.29894 0.715317 0
M  V30 12636 C 1194.11 -4.45224 2.7308 0
M  V30 12637 H 1195.8 -2.39577 1.79563 0
M  V30 12638 H 1193.35 -1.15141 0.864784 0
M  V30 12639 H 1195.3 -4.2106 0.169279 0
M  V30 12640 H 1194.03 -3.21508 -0.574485 0
M  V30 12641 H 1192.69 -3.31965 1.55546 0
M  V30 12642 H 1192.33 -5.02425 -0.240436 0
M  V30 12643 H 1192.03 -5.71287 1.37494 0
M  V30 12644 H 1193.56 -6.08386 0.519489 0
M  V30 12645 H 1194.97 -5.12124 2.57686 0
M  V30 12646 H 1193.37 -4.97583 3.35457 0
M  V30 12647 H 1194.44 -3.56384 3.28813 0
M  V30 12648 N 1195.78 -0.955326 -1.25345 0
M  V30 12649 C 1197.19 -0.651118 -1.74978 0
M  V30 12650 C 1197.54 0.833495 -1.77616 0
M  V30 12651 O 1196.67 1.65228 -1.39745 0
M  V30 12652 C 1197.26 -1.17521 -3.17764 0
M  V30 12653 C 1195.82 -0.921151 -3.64954 0
M  V30 12654 C 1194.97 -1.31784 -2.43984 0
M  V30 12655 H 1197.92 -1.13205 -1.11222 0
M  V30 12656 H 1197.94 -0.535625 -3.76711 0
M  V30 12657 H 1197.45 -2.25575 -3.15813 0
M  V30 12658 H 1195.56 0.144392 -3.7232 0
M  V30 12659 H 1195.67 -1.5581 -4.53056 0
M  V30 12660 H 1194.03 -0.736219 -2.43828 0
M  V30 12661 H 1194.82 -2.40761 -2.44723 0
M  V30 12662 N 1197.26 1.39987 -0.723979 0
M  V30 12663 C 1198.19 2.2917 -0.0373445 0
M  V30 12664 C 1199.21 1.46258 0.715015 0
M  V30 12665 O 1200.4 1.69455 0.561003 0
M  V30 12666 C 1197.5 3.2468 0.971384 0
M  V30 12667 C 1196.67 4.36485 0.282826 0
M  V30 12668 C 1195.73 5.12379 1.19811 0
M  V30 12669 O 1194.75 5.65127 0.67974 0
M  V30 12670 N 1195.96 5.22531 2.52866 0
M  V30 12671 H 1198.72 2.88738 -0.803131 0
M  V30 12672 H 1196.28 1.51448 -0.572292 0
M  V30 12673 H 1198.27 3.72326 1.58606 0
M  V30 12674 H 1196.84 2.6622 1.63846 0
M  V30 12675 H 1196.06 3.90859 -0.512167 0
M  V30 12676 H 1197.35 5.08427 -0.194793 0
M  V30 12677 H 1196.75 4.81174 2.97469 0
M  V30 12678 H 1195.31 5.73655 3.09457 0
M  V30 12679 N 1198.74 0.470782 1.50404 0
M  V30 12680 C 1199.97 -0.0818945 2.06438 0
M  V30 12681 C 1200.38 -1.34085 1.33483 0
M  V30 12682 O 1199.72 -1.79346 0.397565 0
M  V30 12683 C 1199.78 -0.436252 3.56843 0
M  V30 12684 C 1199.45 0.720641 4.51282 0
M  V30 12685 C 1200.44 1.60258 4.94584 0
M  V30 12686 C 1198.13 0.910879 4.93972 0
M  V30 12687 C 1200.12 2.65916 5.79282 0
M  V30 12688 C 1197.81 1.97069 5.78452 0
M  V30 12689 C 1198.81 2.84319 6.21008 0
M  V30 12690 O 1198.5 3.88476 7.03805 0
M  V30 12691 H 1198.23 0.00361688 0.67599 0
M  V30 12692 H 1200.78 0.658488 1.94559 0
M  V30 12693 H 1199.01 -1.22982 3.66623 0
M  V30 12694 H 1200.7 -0.923976 3.95244 0
M  V30 12695 H 1201.47 1.46729 4.62272 0
M  V30 12696 H 1197.35 0.241225 4.60368 0
M  V30 12697 H 1200.89 3.3405 6.12419 0
M  V30 12698 H 1196.79 2.10605 6.10177 0
M  V30 12699 H 1197.55 3.8546 7.22054 0
M  V30 12700 N 1200.22 -1.56282 0.203376 0
M  V30 12701 C 1201.63 -1.84146 -0.307752 0
M  V30 12702 C 1201.98 -1.12429 -1.60792 0
M  V30 12703 O 1201.1 -0.387852 -2.12896 0
M  V30 12704 C 1201.7 -3.34053 -0.565152 0
M  V30 12705 C 1200.26 -3.62298 -1.02063 0
M  V30 12706 C 1199.41 -2.77202 -0.0737343 0
M  V30 12707 H 1202.36 -1.52848 0.426983 0
M  V30 12708 H 1202.38 -3.53273 -1.41345 0
M  V30 12709 H 1201.89 -3.86222 0.381301 0
M  V30 12710 H 1199.99 -3.1557 -1.98107 0
M  V30 12711 H 1200.1 -4.70424 -0.907614 0
M  V30 12712 H 1198.47 -2.48074 -0.577169 0
M  V30 12713 H 1199.25 -3.32164 0.86731 0
M  V30 12714 N 1201.7 0.070167 -1.57444 0
M  V30 12715 C 1202.65 1.09016 -2.00249 0
M  V30 12716 C 1203.63 1.34387 -0.884809 0
M  V30 12717 O 1204.82 1.34661 -1.14872 0
M  V30 12718 C 1201.95 2.40344 -2.45132 0
M  V30 12719 C 1201.04 2.1824 -3.63637 0
M  V30 12720 N 1201.43 1.6607 -4.7776 0
M  V30 12721 C 1199.73 2.48706 -3.70218 0
M  V30 12722 C 1200.43 1.58819 -5.59599 0
M  V30 12723 N 1199.4 2.04928 -5.03493 0
M  V30 12724 H 1203.2 0.680143 -2.85922 0
M  V30 12725 H 1200.72 0.277212 -1.60017 0
M  V30 12726 H 1202.72 3.1418 -2.74037 0
M  V30 12727 H 1201.38 2.82061 -1.60846 0
M  V30 12728 H 1202.39 1.34911 -5.00019 0
M  V30 12729 H 1199.06 2.93778 -2.96649 0
M  V30 12730 H 1200.45 1.19323 -6.6122 0
M  V30 12731 N 1203.17 1.53854 0.341593 0
M  V30 12732 C 1204.42 1.7041 1.07905 0
M  V30 12733 C 1204.74 0.475039 1.89744 0
M  V30 12734 O 1205.94 0.521589 2.66443 0
M  V30 12735 C 1204.4 3.01342 1.96776 0
M  V30 12736 C 1204.01 4.31592 1.20135 0
M  V30 12737 C 1205.75 3.27264 2.70367 0
M  V30 12738 C 1203.66 5.53598 2.08047 0
M  V30 12739 H 1202.59 0.635005 0.406553 0
M  V30 12740 H 1205.24 1.80353 0.338409 0
M  V30 12741 H 1203.62 2.85261 2.74667 0
M  V30 12742 H 1204.79 4.58382 0.471404 0
M  V30 12743 H 1203.11 4.12298 0.583039 0
M  V30 12744 H 1205.71 4.15607 3.36415 0
M  V30 12745 H 1206.05 2.44357 3.37039 0
M  V30 12746 H 1206.58 3.4413 1.99548 0
M  V30 12747 H 1203.32 6.39053 1.45914 0
M  V30 12748 H 1202.84 5.31052 2.78825 0
M  V30 12749 H 1204.52 5.89314 2.67055 0
M  V30 12750 N 1204.65 -0.602709 1.4562 0
M  V30 12751 C 1205.6 -1.73425 1.55005 0
M  V30 12752 C 1206.59 -1.64118 0.419713 0
M  V30 12753 O 1207.8 -1.69853 0.595815 0
M  V30 12754 H 1204.17 -0.573038 0.486962 0
M  V30 12755 H 1206.15 -1.62637 2.50184 0
M  V30 12756 C 1204.89 -3.11808 1.53853 0
M  V30 12757 H 1204.22 -3.19631 2.40158 0
M  V30 12758 H 1205.66 -3.90798 1.64477 0
M  V30 12759 C 1204.12 -3.35866 0.263765 0
M  V30 12760 O 1204.65 -3.96334 -0.654364 0
M  V30 12761 N 1202.85 -2.90171 0.157927 0
M  V30 12762 H 1202.4 -2.41144 0.905944 0
M  V30 12763 H 1202.36 -3.06641 -0.694175 0
M  V30 12764 N 1206.13 -1.32992 -0.845635 0
M  V30 12765 C 1207.38 -1.2382 -1.59728 0
M  V30 12766 C 1207.7 0.197724 -1.93995 0
M  V30 12767 O 1206.97 1.12477 -1.60392 0
M  V30 12768 H 1205.55 -0.455296 -0.592212 0
M  V30 12769 H 1208.21 -1.66627 -1.01101 0
M  V30 12770 H 1207.31 -1.82717 -2.53023 0
M  V30 12771 N 1207.61 1.06304 -1.1635 0
M  V30 12772 C 1208.83 1.83338 -0.969639 0
M  V30 12773 C 1209.26 1.81945 0.477231 0
M  V30 12774 O 1208.62 1.22018 1.34094 0
M  V30 12775 C 1208.66 3.2785 -1.50155 0
M  V30 12776 O 1207.77 4.06281 -0.707805 0
M  V30 12777 H 1207.11 0.567293 -0.345072 0
M  V30 12778 H 1209.64 1.34033 -1.54584 0
M  V30 12779 H 1209.65 3.7867 -1.51898 0
M  V30 12780 H 1208.32 3.28179 -2.55483 0
M  V30 12781 H 1206.9 3.65055 -0.760872 0
M  V30 12782 N 1209.09 0.96196 1.24836 0
M  V30 12783 C 1210.33 0.621634 1.93038 0
M  V30 12784 C 1210.66 -0.840257 1.75081 0
M  V30 12785 O 1209.94 -1.60381 1.10038 0
M  V30 12786 C 1210.22 0.990107 3.46221 0
M  V30 12787 C 1210.08 2.50827 3.73371 0
M  V30 12788 C 1211.39 0.520478 4.37011 0
M  V30 12789 H 1208.51 0.227312 0.701069 0
M  V30 12790 H 1211.16 1.19993 1.47315 0
M  V30 12791 H 1209.31 0.498008 3.85295 0
M  V30 12792 H 1210.98 3.07469 3.4389 0
M  V30 12793 H 1209.22 2.94277 3.18722 0
M  V30 12794 H 1209.89 2.71659 4.80526 0
M  V30 12795 H 1212.37 0.942703 4.05281 0
M  V30 12796 H 1211.24 0.806918 5.42937 0
M  V30 12797 H 1211.5 -0.579507 4.38285 0
M  V30 12798 N 1210.56 -1.39601 0.731392 0
M  V30 12799 C 1211.51 -2.30628 0.0890606 0
M  V30 12800 C 1212.48 -1.49025 -0.73353 0
M  V30 12801 O 1213.67 -1.77722 -0.694234 0
M  V30 12802 C 1210.81 -3.35339 -0.814956 0
M  V30 12803 C 1209.92 -4.31995 0.0198606 0
M  V30 12804 C 1209.05 -5.23774 -0.885095 0
M  V30 12805 C 1208.09 -6.12083 -0.045311 0
M  V30 12806 N 1207.23 -6.9623 -0.906002 0
M  V30 12807 H 1212.07 -2.84988 0.870958 0
M  V30 12808 H 1209.61 -1.40329 0.441166 0
M  V30 12809 H 1211.56 -3.94634 -1.3535 0
M  V30 12810 H 1210.19 -2.82443 -1.56287 0
M  V30 12811 H 1209.25 -3.74349 0.675778 0
M  V30 12812 H 1210.56 -4.94289 0.669346 0
M  V30 12813 H 1209.71 -5.88078 -1.49161 0
M  V30 12814 H 1208.45 -4.61794 -1.56837 0
M  V30 12815 H 1207.46 -5.46795 0.574028 0
M  V30 12816 H 1208.68 -6.76128 0.634692 0
M  V30 12817 H 1206.63 -6.36821 -1.57463 0
M  V30 12818 H 1206.54 -7.55352 -0.312914 0
M  V30 12819 H 1207.81 -7.64967 -1.49819 0
M  V30 12820 N 1212.04 -0.478751 -1.50152 0
M  V30 12821 C 1213.27 0.0710485 -2.06778 0
M  V30 12822 C 1213.69 1.32826 -1.34174 0
M  V30 12823 O 1213.04 1.77758 -0.413304 0
M  V30 12824 C 1213.09 0.351351 -3.59789 0
M  V30 12825 O 1212.81 -0.855998 -4.29656 0
M  V30 12826 C 1214.32 0.947269 -4.33061 0
M  V30 12827 H 1211.54 -0.0105032 -0.670918 0
M  V30 12828 H 1214.08 -0.669732 -1.93222 0
M  V30 12829 H 1212.23 1.04207 -3.73121 0
M  V30 12830 H 1212.65 -0.605252 -5.20996 0
M  V30 12831 H 1214.12 1.09312 -5.41068 0
M  V30 12832 H 1214.6 1.93937 -3.94062 0
M  V30 12833 H 1215.21 0.294693 -4.24278 0
M  V30 12834 O 1213.56 1.57592 -0.35315 0
M  V30 12835 H 1214.25 1.92662 0.200218 0
M  V30 END ATOM
M  V30 BEGIN BOND
M  V30 END BOND
M  V30 END CTAB
M  END
$$$$
