drugbank_target|P46781 40S ribosomal protein S9 (DB11638)
 OpenBabel12092121093D

  0  0  0     0  0            999 V3000
M  V30 BEGIN CTAB
M  V30 COUNTS 3283 3308 0 0 0
M  V30 BEGIN ATOM
M  V30 1 H -0.908 1.98254 -0.117106 0
M  V30 2 N 0 1.576 0 0
M  V30 3 C 0.933 2.03868 1.02534 0
M  V30 4 C 1.911 0.928543 1.3348 0
M  V30 5 O 3.095 1.19667 1.45644 0
M  V30 6 C 0.222 2.43627 2.35294 0
M  V30 7 C -0.732 3.65373 2.2001 0
M  V30 8 S 0.101 5.13292 1.52614 0
M  V30 9 C 1.257 5.56322 2.86805 0
M  V30 10 H 1.49 2.90518 0.631377 0
M  V30 11 H -0.977 1.52953 0.210867 0
M  V30 12 H 0.981 2.67203 3.11629 0
M  V30 13 H -0.358 1.57376 2.7183 0
M  V30 14 H -1.165 3.90944 3.18086 0
M  V30 15 H -1.563 3.418 1.51819 0
M  V30 16 H 0.729 5.58782 3.83104 0
M  V30 17 H 1.672 6.56266 2.65933 0
M  V30 18 H 2.08 4.83886 2.90714 0
M  V30 19 N 1.4781 -0.272755 1.55222 0
M  V30 20 C 2.8891 -0.84378 1.66545 0
M  V30 21 C 3.2401 -1.87035 0.592641 0
M  V30 22 O 2.3651 -2.14761 -0.265818 0
M  V30 23 C 2.9601 -1.53723 3.01918 0
M  V30 24 C 1.5191 -2.05628 3.15268 0
M  V30 25 C 0.6661 -0.898424 2.62343 0
M  V30 26 H 3.6171 -0.0490998 1.58624 0
M  V30 27 H 3.6381 -2.40421 2.94921 0
M  V30 28 H 3.1501 -0.78983 3.79978 0
M  V30 29 H 1.2511 -2.83329 2.41983 0
M  V30 30 H 1.3641 -2.27142 4.21833 0
M  V30 31 H -0.2719 -1.29186 2.19506 0
M  V30 32 H 0.5111 -0.164528 3.42906 0
M  V30 33 N 2.9562 -1.48159 -0.537278 0
M  V30 34 C 4.2022 -1.56035 -1.29541 0
M  V30 35 C 4.5352 -0.230377 -1.92829 0
M  V30 36 O 3.8102 0.762952 -1.78911 0
M  V30 37 C 4.0932 -2.69323 -2.39034 0
M  V30 38 C 3.9462 -4.12002 -1.80485 0
M  V30 39 C 5.2652 -2.78408 -3.40847 0
M  V30 40 H 2.3842 -0.567992 -0.469632 0
M  V30 41 H 5.0262 -1.80302 -0.599277 0
M  V30 42 H 3.1762 -2.48763 -2.98412 0
M  V30 43 H 4.8482 -4.43981 -1.25215 0
M  V30 44 H 3.0912 -4.19344 -1.11055 0
M  V30 45 H 3.7622 -4.87077 -2.59731 0
M  V30 46 H 6.2382 -2.97012 -2.91416 0
M  V30 47 H 5.1142 -3.59416 -4.14863 0
M  V30 48 H 5.3752 -1.86269 -4.00944 0
M  V30 49 N 4.4343 0.785586 -1.36625 0
M  V30 50 C 5.3973 1.87999 -1.31107 0
M  V30 51 C 6.3973 1.59316 -0.217959 0
M  V30 52 O 7.5873 1.67656 -0.472977 0
M  V30 53 C 4.7193 3.24861 -1.03334 0
M  V30 54 H 5.9123 1.94307 -2.2844 0
M  V30 55 H 3.4653 0.983813 -1.21453 0
M  V30 56 H 4.2003 3.24235 -0.0647432 0
M  V30 57 H 3.9853 3.4707 -1.82441 0
M  V30 58 H 5.4753 4.04929 -1.02088 0
M  V30 59 N 5.9124 1.20967 1.01018 0
M  V30 60 C 7.3284 0.965905 1.27053 0
M  V30 61 C 7.5284 -0.350785 1.98423 0
M  V30 62 O 6.5844 -1.07773 2.28344 0
M  V30 63 C 7.8974 2.15294 2.09926 0
M  V30 64 C 9.4454 2.19463 2.23171 0
M  V30 65 C 9.9204 3.3767 3.09424 0
M  V30 66 N 11.4114 3.37724 3.17012 0
M  V30 67 C 12.1464 4.25837 3.83993 0
M  V30 68 N 11.6424 5.24138 4.53047 0
M  V30 69 N 13.4354 4.1366 3.80581 0
M  V30 70 H 5.5864 2.0565 0.531194 0
M  V30 71 H 7.8494 0.90024 0.297106 0
M  V30 72 H 7.5554 3.10684 1.64828 0
M  V30 73 H 7.4294 2.13923 3.10672 0
M  V30 74 H 9.8164 1.24632 2.6749 0
M  V30 75 H 9.8974 2.2488 1.21912 0
M  V30 76 H 9.5414 4.32791 2.65808 0
M  V30 77 H 9.4714 3.29491 4.10784 0
M  V30 78 H 11.9624 2.6658 2.6785 0
M  V30 79 H 12.2754 5.87684 5.01844 0
M  V30 80 H 10.6204 5.28068 4.5185 0
M  V30 81 H 13.8114 3.36127 3.25785 0
M  V30 82 H 13.9844 4.82538 4.32505 0
M  V30 83 N 7.3905 -1.2043 1.01659 0
M  V30 84 C 8.6155 -1.94318 0.724942 0
M  V30 85 C 9.0405 -1.74266 -0.708034 0
M  V30 86 O 8.3985 -1.03694 -1.48719 0
M  V30 87 C 8.4465 -3.44486 1.06591 0
M  V30 88 O 7.5505 -4.12017 0.177599 0
M  V30 89 H 6.8915 -0.60708 0.26898 0
M  V30 90 H 9.4215 -1.52861 1.35995 0
M  V30 91 H 9.4315 -3.95106 1.01762 0
M  V30 92 H 8.1065 -3.58404 2.10997 0
M  V30 93 H 6.6835 -3.71821 0.283421 0
M  V30 94 N 8.8686 -0.792821 -1.36206 0
M  V30 95 C 10.1146 -0.376415 -1.99887 0
M  V30 96 C 10.4696 1.04127 -1.61788 0
M  V30 97 O 9.7626 1.71004 -0.864193 0
M  V30 98 C 9.9566 -0.481501 -3.54142 0
M  V30 99 C 9.7856 -1.90786 -4.07223 0
M  V30 100 C 8.5556 -2.53322 -4.37214 0
M  V30 101 C 10.7536 -2.87048 -4.26741 0
M  V30 102 N 8.7356 -3.8751 -4.7614 0
M  V30 103 C 10.1066 -4.06077 -4.6851 0
M  V30 104 C 12.1616 -2.8406 -4.08918 0
M  V30 105 C 10.8646 -5.22532 -4.94321 0
M  V30 106 C 12.8906 -3.99705 -4.35878 0
M  V30 107 C 12.2526 -5.1748 -4.77906 0
M  V30 108 H 8.3516 -0.185226 -0.759747 0
M  V30 109 H 10.9356 -1.03114 -1.65153 0
M  V30 110 H 9.1066 0.143154 -3.88136 0
M  V30 111 H 10.8386 -0.0410128 -4.04679 0
M  V30 112 H 7.5936 -2.04777 -4.2704 0
M  V30 113 H 8.0176 -4.5656 -4.99882 0
M  V30 114 H 12.6596 -1.94165 -3.75579 0
M  V30 115 H 10.3776 -6.1301 -5.2654 0
M  V30 116 H 13.9636 -3.98758 -4.23655 0
M  V30 117 H 12.8436 -6.05478 -4.98363 0
M  V30 118 N 10.3467 1.47872 -0.545128 0
M  V30 119 C 11.5927 2.02793 -0.0166104 0
M  V30 120 C 11.9257 1.41987 1.32489 0
M  V30 121 O 11.2007 0.571045 1.85928 0
M  V30 122 C 11.4837 3.59989 0.0893294 0
M  V30 123 C 11.3367 4.3125 -1.27841 0
M  V30 124 C 12.6557 4.32606 0.808724 0
M  V30 125 H 9.7747 0.736962 -0.00751035 0
M  V30 126 H 12.4167 1.76433 -0.705085 0
M  V30 127 H 10.5667 3.82579 0.675681 0
M  V30 128 H 12.2387 4.20035 -1.90704 0
M  V30 129 H 10.4817 3.92076 -1.85632 0
M  V30 130 H 11.1527 5.39736 -1.15713 0
M  V30 131 H 13.6287 4.14936 0.310992 0
M  V30 132 H 12.5047 5.42251 0.851782 0
M  V30 133 H 12.7657 4.00963 1.86229 0
M  V30 134 N 11.8248 0.280983 1.55075 0
M  V30 135 C 13.0648 -0.335234 2.01632 0
M  V30 136 C 13.4288 -1.5261 1.16508 0
M  V30 137 O 14.6298 -2.21235 1.52672 0
M  V30 138 C 12.9008 -0.702172 3.50434 0
M  V30 139 S 14.4598 -1.30409 4.18974 0
M  V30 140 H 11.2778 -0.103967 0.703358 0
M  V30 141 H 13.8798 0.404187 1.91276 0
M  V30 142 H 12.5838 0.17333 4.10034 0
M  V30 143 H 12.1148 -1.4729 3.64786 0
M  V30 144 H 14.1298 -2.59253 4.23087 0
M  V30 145 N 13.3029 -1.57598 0.00835791 0
M  V30 146 C 14.7189 -1.55764 -0.347822 0
M  V30 147 C 14.9189 -1.01186 -1.74252 0
M  V30 148 O 13.9749 -0.649371 -2.44007 0
M  V30 149 C 15.2879 -2.99927 -0.215407 0
M  V30 150 C 16.8359 -3.11656 -0.289725 0
M  V30 151 C 17.3109 -4.57621 -0.18634 0
M  V30 152 N 18.8019 -4.62557 -0.243978 0
M  V30 153 C 19.5369 -5.73094 -0.18745 0
M  V30 154 N 19.0329 -6.92753 -0.0810331 0
M  V30 155 N 20.8259 -5.61588 -0.239925 0
M  V30 156 H 12.9769 -1.91411 0.92062 0
M  V30 157 H 15.2399 -0.879562 0.353659 0
M  V30 158 H 14.9459 -3.43729 0.744512 0
M  V30 159 H 14.8199 -3.63865 -0.994097 0
M  V30 160 H 17.2069 -2.67779 -1.24009 0
M  V30 161 H 17.2879 -2.5048 0.51898 0
M  V30 162 H 16.9319 -5.02174 0.760519 0
M  V30 163 H 16.8619 -5.16752 -1.01364 0
M  V30 164 H 19.3529 -3.76481 -0.327217 0
M  V30 165 H 19.6659 -7.72787 -0.0440241 0
M  V30 166 H 18.0109 -6.94984 -0.0465419 0
M  V30 167 H 21.2019 -4.66996 -0.321317 0
M  V30 168 H 21.3749 -6.47714 -0.192407 0
M  V30 169 N 14.781 0.264519 -1.55364 0
M  V30 170 C 15.728 1.32717 -1.88825 0
M  V30 171 C 16.698 1.48675 -0.740605 0
M  V30 172 O 17.883 1.62945 -0.992657 0
M  V30 173 C 15.023 2.68089 -2.17307 0
M  V30 174 C 14.136 2.60284 -3.44785 0
M  V30 175 C 13.271 3.87892 -3.62924 0
M  V30 176 C 12.31 3.74631 -4.84064 0
M  V30 177 N 11.447 4.94092 -4.98816 0
M  V30 178 H 16.287 1.03481 -2.79456 0
M  V30 179 H 13.824 0.499757 -1.3835 0
M  V30 180 H 15.782 3.46864 -2.31821 0
M  V30 181 H 14.412 2.95509 -1.299 0
M  V30 182 H 13.464 1.73173 -3.38697 0
M  V30 183 H 14.776 2.46388 -4.33698 0
M  V30 184 H 13.93 4.75109 -3.77302 0
M  V30 185 H 12.669 4.04664 -2.7221 0
M  V30 186 H 11.674 2.85797 -4.69681 0
M  V30 187 H 12.899 3.5937 -5.76221 0
M  V30 188 H 10.845 5.11259 -4.11036 0
M  V30 189 H 10.762 4.8276 -5.81789 0
M  V30 190 H 12.03 5.82857 -5.17588 0
M  V30 191 N 16.2591 1.48442 0.529413 0
M  V30 192 C 17.4871 1.60151 1.30994 0
M  V30 193 C 17.9021 0.261985 1.86973 0
M  V30 194 O 17.2591 -0.748805 1.66431 0
M  V30 195 C 17.3101 2.64854 2.46038 0
M  V30 196 O 17.0311 3.93608 1.92365 0
M  V30 197 C 18.5321 2.87007 3.37849 0
M  V30 198 H 15.7521 0.539971 0.398338 0
M  V30 199 H 18.2961 1.94273 0.638597 0
M  V30 200 H 16.4511 2.33589 3.09055 0
M  V30 201 H 16.8651 4.51055 2.67675 0
M  V30 202 H 18.3391 3.64068 4.14919 0
M  V30 203 H 18.8161 1.95852 3.93114 0
M  V30 204 H 19.4221 3.19579 2.80623 0
M  V30 205 N 17.7372 -0.778329 1.37039 0
M  V30 206 C 18.9672 -1.56507 1.34868 0
M  V30 207 C 19.3752 -1.89072 -0.0694802 0
M  V30 208 O 18.7182 -1.51434 -1.03987 0
M  V30 209 C 18.7802 -2.90641 2.11585 0
M  V30 210 C 18.4442 -2.80746 3.60598 0
M  V30 211 C 19.4412 -2.52226 4.54618 0
M  V30 212 C 17.1262 -2.98974 4.03633 0
M  V30 213 C 19.1202 -2.42054 5.89651 0
M  V30 214 C 16.8072 -2.88423 5.38754 0
M  V30 215 C 17.8052 -2.60002 6.31576 0
M  V30 216 O 17.4932 -2.49465 7.64214 0
M  V30 217 H 17.2252 -0.491723 0.463879 0
M  V30 218 H 19.7792 -0.973053 1.80889 0
M  V30 219 H 18.0092 -3.51936 1.60243 0
M  V30 220 H 19.6982 -3.51992 2.0213 0
M  V30 221 H 20.4642 -2.37835 4.22681 0
M  V30 222 H 16.3432 -3.20099 3.31749 0
M  V30 223 H 19.8872 -2.19791 6.62071 0
M  V30 224 H 15.7842 -3.0238 5.70295 0
M  V30 225 H 16.5522 -2.64864 7.74461 0
M  V30 226 N 19.2153 -1.21501 -1.00376 0
M  V30 227 C 20.4613 -1.03452 -1.74429 0
M  V30 228 C 20.7943 0.430764 -1.89362 0
M  V30 229 O 20.0693 1.31962 -1.42886 0
M  V30 230 C 20.3523 -1.73375 -3.15615 0
M  V30 231 C 20.2053 -3.27431 -3.08397 0
M  V30 232 C 21.5243 -1.47732 -4.14564 0
M  V30 233 H 18.6433 -0.377226 -0.633143 0
M  V30 234 H 21.2853 -1.49693 -1.17013 0
M  V30 235 H 19.4353 -1.34064 -3.64636 0
M  V30 236 H 21.1073 -3.76119 -2.67081 0
M  V30 237 H 19.3503 -3.5767 -2.45468 0
M  V30 238 H 20.0213 -3.71524 -4.08258 0
M  V30 239 H 22.4973 -1.8186 -3.74254 0
M  V30 240 H 21.3733 -1.99169 -5.11491 0
M  V30 241 H 21.6343 -0.407589 -4.40217 0
M  V30 242 N 20.6934 1.19889 -1.02296 0
M  V30 243 C 21.9214 1.9339 -0.735399 0
M  V30 244 C 22.3364 1.75148 0.704887 0
M  V30 245 O 21.6934 1.06954 1.47875 0
M  V30 246 C 21.7444 3.45313 -1.06962 0
M  V30 247 O 21.4654 3.62964 -2.45334 0
M  V30 248 C 22.9664 4.35948 -0.804021 0
M  V30 249 H 20.1864 0.61448 -0.269546 0
M  V30 250 H 22.7304 1.522 -1.36585 0
M  V30 251 H 20.8854 3.84359 -0.484455 0
M  V30 252 H 21.2994 4.56886 -2.57595 0
M  V30 253 H 22.7734 5.41174 -1.0879 0
M  V30 254 H 23.2504 4.3842 0.261691 0
M  V30 255 H 23.8564 4.02574 -1.37164 0
M  V30 256 N 22.1715 0.800033 1.35784 0
M  V30 257 C 23.5825 0.439142 1.81462 0
M  V30 258 C 23.9335 -1.03813 1.66485 0
M  V30 259 O 23.0585 -1.80626 1.19177 0
M  V30 260 C 23.6535 0.790314 3.29453 0
M  V30 261 C 22.2125 0.482111 3.733 0
M  V30 262 C 21.3595 1.01938 2.57883 0
M  V30 263 H 24.3105 0.992254 1.23855 0
M  V30 264 H 24.3315 0.0853677 3.80404 0
M  V30 265 H 23.8435 1.86554 3.40322 0
M  V30 266 H 21.9445 -0.584652 3.67984 0
M  V30 267 H 22.0575 1.01015 4.6833 0
M  V30 268 H 20.4215 0.442043 2.50835 0
M  V30 269 H 21.2045 2.10059 2.71533 0
M  V30 270 N 23.6496 -1.47581 0.552962 0
M  V30 271 C 25.0656 -1.5818 0.212424 0
M  V30 272 C 25.2656 -1.55213 -1.28496 0
M  V30 273 O 24.3216 -1.45329 -2.06484 0
M  V30 274 C 25.6346 -2.88865 0.835318 0
M  V30 275 C 27.1826 -3.0244 0.806156 0
M  V30 276 C 27.6576 -4.35819 1.40804 0
M  V30 277 N 29.1486 -4.42444 1.37103 0
M  V30 278 C 29.8836 -5.44202 1.80641 0
M  V30 279 N 29.3796 -6.52795 2.32015 0
M  V30 280 N 31.1726 -5.35222 1.71738 0
M  V30 281 H 23.3236 -1.47753 1.52587 0
M  V30 282 H 25.5866 -0.702941 0.636064 0
M  V30 283 H 25.2926 -2.9676 1.88749 0
M  V30 284 H 25.1666 -3.7579 0.325848 0
M  V30 285 H 27.5536 -2.94144 -0.237317 0
M  V30 286 H 27.6346 -2.17068 1.35334 0
M  V30 287 H 27.2786 -4.44871 2.45056 0
M  V30 288 H 27.2086 -5.19916 0.836338 0
M  V30 289 H 29.6996 -3.6456 0.995202 0
M  V30 290 H 30.0126 -7.26609 2.63171 0
M  V30 291 H 28.3576 -6.53696 2.36023 0
M  V30 292 H 31.5486 -4.49284 1.31382 0
M  V30 293 H 31.7216 -6.14389 2.05987 0
M  V30 294 N 25.1277 -0.289203 -1.54924 0
M  V30 295 C 26.5437 0.0645403 -1.59469 0
M  V30 296 C 26.7437 1.53419 -1.30632 0
M  V30 297 O 25.7997 2.2852 -1.074 0
M  V30 298 C 27.1127 -0.32278 -2.98963 0
M  V30 299 C 28.6607 -0.270564 -3.11828 0
M  V30 300 C 29.1357 -0.632532 -4.53611 0
M  V30 301 N 30.6267 -0.584617 -4.59496 0
M  V30 302 C 31.3617 -0.837314 -5.67254 0
M  V30 303 N 30.8577 -1.15536 -6.83098 0
M  V30 304 N 32.6507 -0.765166 -5.56868 0
M  V30 305 H 24.8017 -1.24714 -1.71931 0
M  V30 306 H 27.0647 -0.504809 -0.802416 0
M  V30 307 H 26.7707 -1.34541 -3.24948 0
M  V30 308 H 26.6447 0.32944 -3.75759 0
M  V30 309 H 29.0317 0.742805 -2.85598 0
M  V30 310 H 29.1127 -0.957242 -2.37214 0
M  V30 311 H 28.7567 -1.64365 -4.80569 0
M  V30 312 H 28.6867 0.07609 -5.26545 0
M  V30 313 H 31.1777 -0.349248 -3.76283 0
M  V30 314 H 31.4907 -1.33447 -7.61191 0
M  V30 315 H 29.8357 -1.19328 -6.84679 0
M  V30 316 H 33.0267 -0.516432 -4.65243 0
M  V30 317 H 33.1997 -0.965477 -6.40767 0
M  V30 318 N 26.6058 1.57591 -0.0167156 0
M  V30 319 C 28.0168 1.79201 0.523834 0
M  V30 320 C 28.3678 0.925796 1.72984 0
M  V30 321 O 27.4928 0.132792 2.15992 0
M  V30 322 C 28.0878 3.25 0.957091 0
M  V30 323 C 26.6468 3.47648 1.44283 0
M  V30 324 C 25.7938 2.74374 0.401757 0
M  V30 325 H 28.7448 1.56831 -0.242816 0
M  V30 326 H 28.7658 3.34031 1.82219 0
M  V30 327 H 28.2778 3.88019 0.0791415 0
M  V30 328 H 26.3788 2.89866 2.34113 0
M  V30 329 H 26.4918 4.56352 1.45877 0
M  V30 330 H 24.8558 2.39485 0.867121 0
M  V30 331 H 25.6388 3.40102 -0.467513 0
M  V30 332 N 28.0839 -0.256276 1.55502 0
M  V30 333 C 29.3309 -0.985619 1.76895 0
M  V30 334 C 29.6589 -1.85671 0.579355 0
M  V30 335 O 28.9139 -1.90744 -0.437651 0
M  V30 336 C 29.2129 -1.88432 3.03691 0
M  V30 337 C 28.8789 -1.16936 4.35473 0
M  V30 338 C 27.5409 -0.97173 4.71286 0
M  V30 339 C 29.8929 -0.661889 5.1698 0
M  V30 340 C 27.2209 -0.254179 5.86149 0
M  V30 341 C 29.5729 0.042149 6.32586 0
M  V30 342 C 28.2369 0.25134 6.67027 0
M  V30 343 H 27.5069 -0.360663 0.647304 0
M  V30 344 H 30.1539 -0.256483 1.89775 0
M  V30 345 H 28.4589 -2.68021 2.85783 0
M  V30 346 H 30.1559 -2.45015 3.1744 0
M  V30 347 H 26.7459 -1.33332 4.07333 0
M  V30 348 H 30.9299 -0.802145 4.89775 0
M  V30 349 H 26.1859 -0.0815408 6.11346 0
M  V30 350 H 30.3599 0.443049 6.94989 0
M  V30 351 H 27.9869 0.809314 7.5588 0
M  V30 352 N 29.562 -1.4872 -0.521534 0
M  V30 353 C 30.472 -1.66569 -1.65203 0
M  V30 354 C 31.488 -0.548197 -1.65139 0
M  V30 355 O 32.664 -0.820339 -1.83936 0
M  V30 356 C 29.729 -1.70917 -3.01642 0
M  V30 357 C 28.79 -2.94356 -3.12495 0
M  V30 358 C 28.023 -2.98487 -4.42426 0
M  V30 359 O 28.246 -2.10786 -5.30024 0
M  V30 360 O 27.18 -3.90746 -4.57822 0
M  V30 361 H 31.006 -2.62298 -1.5308 0
M  V30 362 H 28.591 -1.3222 -0.695565 0
M  V30 363 H 30.473 -1.7625 -3.82771 0
M  V30 364 H 29.148 -0.783633 -3.14071 0
M  V30 365 H 28.055 -2.94552 -2.3063 0
M  V30 366 H 29.388 -3.86322 -3.04986 0
M  V30 367 N 31.0401 0.771051 -1.3745 0
M  V30 368 C 31.9871 1.88435 -1.3327 0
M  V30 369 C 32.9571 1.64914 -0.198136 0
M  V30 370 O 34.1421 1.86821 -0.387606 0
M  V30 371 C 31.2821 3.25509 -1.14622 0
M  V30 372 C 30.3951 3.60979 -2.37314 0
M  V30 373 C 29.5301 4.87265 -2.11533 0
M  V30 374 C 28.5691 5.15469 -3.30088 0
M  V30 375 N 27.7061 6.32944 -3.03853 0
M  V30 376 H 32.5461 1.91344 -2.28455 0
M  V30 377 H 30.0831 0.935466 -1.13523 0
M  V30 378 H 32.0411 4.04582 -1.01831 0
M  V30 379 H 30.6711 3.21974 -0.230837 0
M  V30 380 H 29.7231 2.76885 -2.60842 0
M  V30 381 H 31.0351 3.77759 -3.25729 0
M  V30 382 H 30.1891 5.74244 -1.95777 0
M  V30 383 H 28.9281 4.7259 -1.20457 0
M  V30 384 H 27.9331 4.26966 -3.46382 0
M  V30 385 H 29.1581 5.32052 -4.22016 0
M  V30 386 H 27.1041 6.19625 -2.15407 0
M  V30 387 H 27.0211 6.50143 -3.85812 0
M  V30 388 H 28.2891 7.22857 -2.91716 0
M  V30 389 N 32.5182 1.22032 0.997298 0
M  V30 390 C 33.7432 1.06921 1.77715 0
M  V30 391 C 34.1682 -0.376226 1.84299 0
M  V30 392 O 33.5262 -1.27165 1.29223 0
M  V30 393 C 33.5742 1.67996 3.19076 0
M  V30 394 O 32.6782 0.930653 4.01762 0
M  V30 395 H 32.0192 0.375814 0.547412 0
M  V30 396 H 34.5492 1.61737 1.25309 0
M  V30 397 H 34.5592 1.72538 3.69723 0
M  V30 398 H 33.2342 2.73182 3.13599 0
M  V30 399 H 31.8112 0.960917 3.60307 0
M  V30 400 N 33.9963 -1.19345 1.0293 0
M  V30 401 C 35.4123 -1.41069 0.746446 0
M  V30 402 C 35.6123 -1.90078 -0.668776 0
M  V30 403 O 34.6683 -2.0778 -1.4347 0
M  V30 404 C 35.9813 -2.42141 1.78292 0
M  V30 405 C 37.5293 -2.55887 1.80252 0
M  V30 406 C 38.0043 -3.60214 2.8286 0
M  V30 407 N 39.4953 -3.67711 2.81679 0
M  V30 408 C 40.2303 -4.48128 3.57727 0
M  V30 409 N 39.7263 -5.32248 4.43491 0
M  V30 410 N 41.5193 -4.42782 3.46267 0
M  V30 411 H 33.6703 -0.858536 1.94275 0
M  V30 412 H 35.9333 -0.439541 0.839945 0
M  V30 413 H 35.6393 -2.13155 2.79746 0
M  V30 414 H 35.5133 -3.41323 1.60557 0
M  V30 415 H 37.9003 -2.84196 0.794757 0
M  V30 416 H 37.9813 -1.56858 2.02062 0
M  V30 417 H 37.6253 -3.32647 3.83807 0
M  V30 418 H 37.5553 -4.58895 2.58307 0
M  V30 419 H 40.0463 -3.07634 2.19476 0
M  V30 420 H 40.3593 -5.90729 4.98256 0
M  V30 421 H 38.7043 -5.31707 4.47564 0
M  V30 422 H 41.8953 -3.76107 2.78677 0
M  V30 423 H 42.0683 -5.05215 4.05785 0
M  V30 424 N 35.4744 -0.807222 -1.35358 0
M  V30 425 C 36.4044 -0.232509 -2.3234 0
M  V30 426 C 37.3854 0.642386 -1.57504 0
M  V30 427 O 38.5704 0.572526 -1.85569 0
M  V30 428 C 35.7004 0.619238 -3.41735 0
M  V30 429 C 34.6544 -0.157215 -4.27711 0
M  V30 430 C 33.9804 0.816273 -5.28433 0
M  V30 431 C 35.2804 -1.35656 -5.04376 0
M  V30 432 H 36.9744 -1.04276 -2.80654 0
M  V30 433 H 34.5204 -0.50288 -1.34934 0
M  V30 434 H 36.4734 1.03137 -4.08584 0
M  V30 435 H 35.1974 1.46239 -2.92031 0
M  V30 436 H 33.8564 -0.550525 -3.62443 0
M  V30 437 H 33.5044 1.65494 -4.74996 0
M  V30 438 H 33.2044 0.301067 -5.86828 0
M  V30 439 H 34.7284 1.22659 -5.98153 0
M  V30 440 H 36.1424 -1.01927 -5.64166 0
M  V30 441 H 34.5394 -1.8063 -5.7227 0
M  V30 442 H 35.6094 -2.14288 -4.34981 0
M  V30 443 N 36.9525 1.47285 -0.560781 0
M  V30 444 C 38.2295 1.9558 0.0277798 0
M  V30 445 C 38.6095 1.5034 1.48192 0
M  V30 446 O 37.9575 0.743882 2.16052 0
M  V30 447 C 38.1675 3.48789 -0.121418 0
M  V30 448 C 39.5155 4.24594 0.0220912 0
M  V30 449 O 40.5395 3.56166 -0.0491439 0
M  V30 450 O 39.3985 5.46217 0.175958 0
M  V30 451 H 36.4925 0.824663 0.0621342 0
M  V30 452 H 39.0385 1.5767 -0.627556 0
M  V30 453 H 37.8105 3.74533 -1.13316 0
M  V30 454 H 37.4335 3.93473 0.571366 0
M  V30 455 N 38.4306 0.297415 1.54768 0
M  V30 456 C 39.3626 -0.613881 2.20826 0
M  V30 457 C 40.3756 -1.10032 1.19987 0
M  V30 458 O 41.5646 -1.01839 1.46598 0
M  V30 459 C 38.6646 -1.852 2.83821 0
M  V30 460 C 37.8376 -1.50865 4.10559 0
M  V30 461 C 36.8966 -2.60154 4.57391 0
M  V30 462 O 35.9226 -2.25398 5.2267 0
M  V30 463 N 37.1246 -3.90629 4.29406 0
M  V30 464 H 39.8896 -0.048389 2.99661 0
M  V30 465 H 37.4506 0.11946 1.61459 0
M  V30 466 H 39.4426 -2.57652 3.12086 0
M  V30 467 H 38.0126 -2.32597 2.08847 0
M  V30 468 H 37.2326 -0.616925 3.89343 0
M  V30 469 H 38.5206 -1.25458 4.9309 0
M  V30 470 H 37.9186 -4.21677 3.77101 0
M  V30 471 H 36.4756 -4.59391 4.62388 0
M  V30 472 N 39.9087 -1.5758 0.0250728 0
M  V30 473 C 40.8187 -2.1343 -0.973905 0
M  V30 474 C 41.8347 -1.08556 -1.35984 0
M  V30 475 O 43.0107 -1.40592 -1.44207 0
M  V30 476 C 40.0757 -2.64703 -2.23904 0
M  V30 477 C 39.1367 -3.84276 -1.91391 0
M  V30 478 C 38.3697 -4.33095 -3.11873 0
M  V30 479 O 38.5927 -3.81107 -4.24398 0
M  V30 480 O 37.5267 -5.24984 -2.94406 0
M  V30 481 H 41.3527 -2.99057 -0.529036 0
M  V30 482 H 38.9377 -1.48118 -0.195288 0
M  V30 483 H 40.8197 -2.97769 -2.98181 0
M  V30 484 H 39.4947 -1.82161 -2.6758 0
M  V30 485 H 38.4017 -3.56143 -1.14511 0
M  V30 486 H 39.7347 -4.67968 -1.52534 0
M  V30 487 N 41.3868 0.248026 -1.55636 0
M  V30 488 C 42.3168 1.31079 -1.93237 0
M  V30 489 C 43.2978 1.50264 -0.797174 0
M  V30 490 O 44.4828 1.62891 -1.05737 0
M  V30 491 C 41.6128 2.66575 -2.22609 0
M  V30 492 C 40.5668 2.62087 -3.3837 0
M  V30 493 C 39.8928 4.01369 -3.53281 0
M  V30 494 C 41.1928 2.19171 -4.7409 0
M  V30 495 H 42.8868 0.998556 -2.82257 0
M  V30 496 H 40.4328 0.47891 -1.35803 0
M  V30 497 H 42.3858 3.41057 -2.47503 0
M  V30 498 H 41.1098 2.99432 -1.30414 0
M  V30 499 H 39.7688 1.90063 -3.13483 0
M  V30 500 H 39.4168 4.31489 -2.58508 0
M  V30 501 H 39.1168 3.99254 -4.31127 0
M  V30 502 H 40.6408 4.77552 -3.80495 0
M  V30 503 H 42.0548 2.83384 -4.98363 0
M  V30 504 H 40.4518 2.2817 -5.5503 0
M  V30 505 H 41.5218 1.14336 -4.71227 0
M  V30 506 N 42.8649 1.48995 0.513639 0
M  V30 507 C 43.8119 1.6473 1.61656 0
M  V30 508 C 44.7819 0.488984 1.58739 0
M  V30 509 O 45.9669 0.714478 1.76918 0
M  V30 510 C 43.1069 1.7082 2.99858 0
M  V30 511 C 42.2199 2.9787 3.12885 0
M  V30 512 C 41.3549 2.95017 4.41744 0
M  V30 513 C 40.3939 4.16702 4.48359 0
M  V30 514 N 39.5309 4.11832 5.68629 0
M  V30 515 H 44.3709 2.58909 1.47547 0
M  V30 516 H 41.9079 1.28382 0.71808 0
M  V30 517 H 43.8659 1.72331 3.79944 0
M  V30 518 H 42.4959 0.801181 3.12699 0
M  V30 519 H 41.5479 3.06029 2.25944 0
M  V30 520 H 42.8599 3.8786 3.13633 0
M  V30 521 H 42.0139 2.95021 5.30139 0
M  V30 522 H 40.7529 2.02784 4.43542 0
M  V30 523 H 39.7579 4.16955 3.58369 0
M  V30 524 H 40.9829 5.10113 4.48287 0
M  V30 525 H 38.9289 3.22428 5.71293 0
M  V30 526 H 38.8459 4.95543 5.7094 0
M  V30 527 H 40.1139 4.1592 6.59266 0
M  V30 528 N 44.343 -0.763751 1.37857 0
M  V30 529 C 45.273 -1.89103 1.36975 0
M  V30 530 C 46.254 -1.68439 0.237152 0
M  V30 531 O 47.439 -1.8918 0.438713 0
M  V30 532 C 44.569 -3.26496 1.18395 0
M  V30 533 C 43.523 -3.61741 2.28751 0
M  V30 534 C 42.849 -4.97762 1.95286 0
M  V30 535 C 44.149 -3.67665 3.70972 0
M  V30 536 H 45.843 -1.90099 2.31307 0
M  V30 537 H 43.389 -0.91319 1.11341 0
M  V30 538 H 45.342 -4.05003 1.16406 0
M  V30 539 H 44.066 -3.25955 0.205215 0
M  V30 540 H 42.725 -2.85547 2.29909 0
M  V30 541 H 42.373 -4.93769 0.959221 0
M  V30 542 H 42.073 -5.22313 2.69189 0
M  V30 543 H 43.597 -5.7866 1.94898 0
M  V30 544 H 45.011 -4.36307 3.719 0
M  V30 545 H 43.408 -4.03718 4.43995 0
M  V30 546 H 44.478 -2.68134 4.0402 0
M  V30 547 N 45.8211 -1.22559 -0.990812 0
M  V30 548 C 47.0701 -1.04553 -1.72486 0
M  V30 549 C 47.3831 0.419349 -1.91052 0
M  V30 550 O 48.5891 0.719121 -2.61803 0
M  V30 551 C 47.0451 -1.82231 -3.10355 0
M  V30 552 C 46.6531 -3.32981 -2.99713 0
M  V30 553 C 48.3971 -1.7268 -3.87791 0
M  V30 554 C 46.3041 -4.03091 -4.32748 0
M  V30 555 H 45.2341 -0.387614 -0.646739 0
M  V30 556 H 47.8851 -1.46429 -1.10593 0
M  V30 557 H 46.2671 -1.33155 -3.72942 0
M  V30 558 H 47.4411 -3.89466 -2.46278 0
M  V30 559 H 45.7561 -3.43231 -2.35758 0
M  V30 560 H 48.3531 -2.22381 -4.86262 0
M  V30 561 H 48.6961 -0.687607 -4.10582 0
M  V30 562 H 49.2291 -2.1931 -3.31885 0
M  V30 563 H 45.9681 -5.07273 -4.15156 0
M  V30 564 H 45.4881 -3.51394 -4.86089 0
M  V30 565 H 47.1671 -4.08804 -5.01486 0
M  V30 566 N 47.2992 1.18797 -1.03562 0
M  V30 567 C 48.5472 1.88278 -0.734569 0
M  V30 568 C 48.8682 1.8043 0.739586 0
M  V30 569 O 48.1382 1.21925 1.53333 0
M  V30 570 H 46.7182 0.696991 -0.268725 0
M  V30 571 H 49.3802 1.44192 -1.31129 0
M  V30 572 H 48.4762 2.94443 -1.03489 0
M  V30 573 N 48.7773 0.814389 1.34928 0
M  V30 574 C 49.6873 0.231978 2.3345 0
M  V30 575 C 50.7033 -0.629139 1.62228 0
M  V30 576 O 51.8793 -0.539052 1.94052 0
M  V30 577 C 48.9443 -0.603482 3.41407 0
M  V30 578 C 48.0053 0.279037 4.28392 0
M  V30 579 C 47.2383 -0.516643 5.31193 0
M  V30 580 O 47.4613 -1.75068 5.4287 0
M  V30 581 O 46.3953 0.0965652 6.01823 0
M  V30 582 H 50.2213 1.04721 2.85074 0
M  V30 583 H 47.8063 0.576343 1.37836 0
M  V30 584 H 49.6883 -1.07908 4.0735 0
M  V30 585 H 48.3633 -1.39618 2.92042 0
M  V30 586 H 47.2703 0.801948 3.65403 0
M  V30 587 H 48.6033 1.03588 4.81176 0
M  V30 588 N 50.2554 -1.46986 0.568584 0
M  V30 589 C 51.4854 -2.0653 0.0539173 0
M  V30 590 C 51.8934 -1.42004 -1.25026 0
M  V30 591 O 51.2364 -0.514541 -1.76347 0
M  V30 592 C 51.2984 -3.58938 -0.200854 0
M  V30 593 C 50.9624 -4.45572 1.01559 0
M  V30 594 C 51.9594 -4.82986 1.92407 0
M  V30 595 C 49.6444 -4.8692 1.23346 0
M  V30 596 C 51.6384 -5.60559 3.03402 0
M  V30 597 C 49.3254 -5.64255 2.34649 0
M  V30 598 C 50.3234 -6.00986 3.24507 0
M  V30 599 O 50.0114 -6.76761 4.33878 0
M  V30 600 H 49.7434 -0.674292 0.0480234 0
M  V30 601 H 52.2974 -1.89812 0.784896 0
M  V30 602 H 50.5274 -3.73911 -0.986279 0
M  V30 603 H 52.2164 -4.0046 -0.662294 0
M  V30 604 H 52.9824 -4.51633 1.76785 0
M  V30 605 H 48.8614 -4.57789 0.543178 0
M  V30 606 H 52.4054 -5.89147 3.73565 0
M  V30 607 H 48.3024 -5.95021 2.5024 0
M  V30 608 H 49.0704 -6.95168 4.32068 0
M  V30 609 N 51.7335 -0.305618 -1.54608 0
M  V30 610 C 52.9815 0.301701 -1.99835 0
M  V30 611 C 53.3025 1.54054 -1.19551 0
M  V30 612 O 52.5725 1.93702 -0.292658 0
M  V30 613 H 51.1525 0.114468 -0.738178 0
M  V30 614 H 53.8145 -0.418016 -1.90364 0
M  V30 615 H 52.9105 0.570548 -3.06841 0
M  V30 616 N 53.2116 1.57565 -0.0334293 0
M  V30 617 C 54.1416 2.13511 0.945265 0
M  V30 618 C 55.1226 1.05231 1.33643 0
M  V30 619 O 56.3076 1.33084 1.41429 0
M  V30 620 C 53.4376 2.6657 2.22616 0
M  V30 621 C 52.3916 3.79676 1.97561 0
M  V30 622 C 51.7176 4.1918 3.31952 0
M  V30 623 C 53.0176 5.0557 1.31135 0
M  V30 624 H 54.7116 2.95538 0.479325 0
M  V30 625 H 52.2576 1.42166 0.229115 0
M  V30 626 H 54.2106 3.04344 2.91466 0
M  V30 627 H 52.9346 1.8171 2.71384 0
M  V30 628 H 51.5936 3.42347 1.31127 0
M  V30 629 H 51.2416 3.31296 3.78487 0
M  V30 630 H 50.9416 4.95402 3.15992 0
M  V30 631 H 52.4656 4.59541 4.02063 0
M  V30 632 H 53.8796 5.40903 1.89992 0
M  V30 633 H 52.2766 5.86818 1.25559 0
M  V30 634 H 53.3466 4.84062 0.284894 0
M  V30 635 N 54.6897 -0.239769 1.55765 0
M  V30 636 C 56.1057 -0.588624 1.48349 0
M  V30 637 C 56.3057 -1.88005 0.72502 0
M  V30 638 O 55.3617 -2.51186 0.257269 0
M  V30 639 C 56.6747 -0.68474 2.928 0
M  V30 640 C 58.2227 -0.77659 3.03213 0
M  V30 641 C 58.6977 -0.904207 4.48986 0
M  V30 642 N 60.1887 -0.968896 4.52953 0
M  V30 643 C 60.9237 -1.08703 5.63002 0
M  V30 644 N 60.4197 -1.17026 6.82845 0
M  V30 645 N 62.2127 -1.12074 5.50814 0
M  V30 646 H 54.3637 0.607911 2.03515 0
M  V30 647 H 56.6267 0.21083 0.924259 0
M  V30 648 H 56.3327 0.194284 3.51163 0
M  V30 649 H 56.2067 -1.55435 3.43686 0
M  V30 650 H 58.5937 -1.64606 2.44926 0
M  V30 651 H 58.6747 0.118315 2.55526 0
M  V30 652 H 58.3187 -0.0392633 5.07885 0
M  V30 653 H 58.2487 -1.81426 4.9436 0
M  V30 654 H 60.7397 -0.915633 3.6664 0
M  V30 655 H 61.0527 -1.25966 7.62465 0
M  V30 656 H 59.3977 -1.13971 6.85591 0
M  V30 657 H 62.5887 -1.05226 4.5612 0
M  V30 658 H 62.7617 -1.20936 6.36615 0
M  V30 659 N 56.1678 -1.49265 -0.50573 0
M  V30 660 C 57.1158 -1.66065 -1.62866 0
M  V30 661 C 58.1098 -0.526636 -1.61006 0
M  V30 662 O 59.3158 -0.706126 -1.65571 0
M  V30 663 H 55.6908 -0.52356 -0.539805 0
M  V30 664 H 57.6618 -2.60329 -1.45848 0
M  V30 665 C 56.4108 -1.74008 -3.01026 0
M  V30 666 H 55.7338 -2.6064 -3.03161 0
M  V30 667 H 57.1738 -1.89798 -3.79147 0
M  V30 668 C 55.6328 -0.483868 -3.33407 0
M  V30 669 O 56.1628 0.392548 -3.99777 0
M  V30 670 N 54.3688 -0.348236 -2.88506 0
M  V30 671 H 53.9158 -1.06242 -2.34671 0
M  V30 672 H 53.8738 0.491204 -3.10539 0
M  V30 673 N 57.6459 0.756429 -1.3826 0
M  V30 674 C 58.5929 1.87011 -1.35261 0
M  V30 675 C 59.5629 1.64695 -0.215616 0
M  V30 676 O 60.7479 1.864 -0.407399 0
M  V30 677 C 57.8879 3.24275 -1.18068 0
M  V30 678 C 57.0009 3.58442 -2.41129 0
M  V30 679 C 56.1359 4.84994 -2.16689 0
M  V30 680 C 55.1749 5.11939 -3.35537 0
M  V30 681 N 54.3119 6.29685 -3.10549 0
M  V30 682 H 59.1519 1.8891 -2.30472 0
M  V30 683 H 56.6889 0.923373 -1.14509 0
M  V30 684 H 58.6469 4.03479 -1.06116 0
M  V30 685 H 57.2769 3.21711 -0.264973 0
M  V30 686 H 56.3289 2.74103 -2.63764 0
M  V30 687 H 57.6409 3.74283 -3.29717 0
M  V30 688 H 56.7949 5.72135 -2.01857 0
M  V30 689 H 55.5339 4.71286 -1.25462 0
M  V30 690 H 54.5389 4.23268 -3.50891 0
M  V30 691 H 55.7639 5.27546 -4.27635 0
M  V30 692 H 53.7099 6.17306 -2.21967 0
M  V30 693 H 53.6269 6.46014 -3.92686 0
M  V30 694 H 54.8949 7.19722 -2.99367 0
M  V30 695 N 59.124 1.23083 0.984299 0
M  V30 696 C 60.54 0.992637 1.24975 0
M  V30 697 C 60.74 -0.308618 1.99123 0
M  V30 698 O 59.796 -1.02905 2.30579 0
M  V30 699 C 61.109 2.19698 2.05312 0
M  V30 700 C 62.657 2.24147 2.18465 0
M  V30 701 C 63.132 3.44157 3.02192 0
M  V30 702 N 64.623 3.44372 3.09777 0
M  V30 703 C 65.358 4.33886 3.74874 0
M  V30 704 N 64.854 5.3363 4.41827 0
M  V30 705 N 66.647 4.21639 3.71721 0
M  V30 706 H 58.798 2.06731 0.487453 0
M  V30 707 H 61.061 0.906339 0.277944 0
M  V30 708 H 60.767 3.1411 1.58201 0
M  V30 709 H 60.641 2.20465 3.06064 0
M  V30 710 H 63.028 1.30277 2.64786 0
M  V30 711 H 63.109 2.27415 1.17115 0
M  V30 712 H 62.753 4.38332 2.56568 0
M  V30 713 H 62.683 3.3813 4.03702 0
M  V30 714 H 65.174 2.72201 2.62135 0
M  V30 715 H 65.487 5.98196 4.89266 0
M  V30 716 H 63.832 5.37534 4.40548 0
M  V30 717 H 67.023 3.42962 3.18582 0
M  V30 718 H 67.196 4.91604 4.22173 0
M  V30 719 N 60.6021 -1.18246 1.0419 0
M  V30 720 C 61.5121 -2.25574 0.644476 0
M  V30 721 C 62.5281 -1.70845 -0.329826 0
M  V30 722 O 63.7041 -2.00554 -0.184443 0
M  V30 723 C 60.7691 -3.46697 0.014877 0
M  V30 724 C 59.8301 -4.16554 1.03834 0
M  V30 725 C 59.0631 -5.31894 0.438692 0
M  V30 726 O 59.2861 -5.65385 -0.754752 0
M  V30 727 O 58.2201 -5.90459 1.168 0
M  V30 728 H 62.0461 -2.61836 1.53869 0
M  V30 729 H 59.6311 -1.25352 0.812854 0
M  V30 730 H 61.5131 -4.20062 -0.335538 0
M  V30 731 H 60.1881 -3.12255 -0.853138 0
M  V30 732 H 59.0951 -3.45251 1.44057 0
M  V30 733 H 60.4281 -4.54998 1.87716 0
M  V30 734 N 62.0802 -0.821533 -1.34494 0
M  V30 735 C 63.3262 -0.409552 -1.98622 0
M  V30 736 C 63.6592 1.0244 -1.64984 0
M  V30 737 O 62.9342 1.71325 -0.920758 0
M  V30 738 C 63.2172 -0.610458 -3.54888 0
M  V30 739 C 63.0702 -2.09043 -3.98273 0
M  V30 740 C 64.3892 -0.0455379 -4.40076 0
M  V30 741 H 61.5082 -0.15028 -0.721516 0
M  V30 742 H 64.1502 -1.03384 -1.59411 0
M  V30 743 H 62.3002 -0.079044 -3.8842 0
M  V30 744 H 63.9722 -2.68537 -3.75081 0
M  V30 745 H 62.2152 -2.58139 -3.48635 0
M  V30 746 H 62.8862 -2.18182 -5.07051 0
M  V30 747 H 65.3622 -0.499557 -4.1309 0
M  V30 748 H 64.2382 -0.215922 -5.48475 0
M  V30 749 H 64.4992 1.04939 -4.29465 0
M  V30 750 N 63.5583 1.46682 -0.576371 0
M  V30 751 C 64.8043 2.03287 -0.0679305 0
M  V30 752 C 65.1593 1.44063 1.27529 0
M  V30 753 O 64.4523 0.593973 1.82161 0
M  V30 754 C 64.6463 3.57345 0.062886 0
M  V30 755 C 64.4753 4.31509 -1.26611 0
M  V30 756 C 63.2453 4.70664 -1.83856 0
M  V30 757 C 65.4433 4.65444 -2.18783 0
M  V30 758 N 63.4253 5.29552 -3.10561 0
M  V30 759 C 64.7963 5.24835 -3.30072 0
M  V30 760 C 66.8513 4.47375 -2.18542 0
M  V30 761 C 65.5543 5.68063 -4.41244 0
M  V30 762 C 67.5803 4.91614 -3.28739 0
M  V30 763 C 66.9423 5.51071 -4.38748 0
M  V30 764 H 63.0413 0.779083 -0.0674836 0
M  V30 765 H 65.6253 1.78918 -0.767877 0
M  V30 766 H 63.7963 3.8144 0.731988 0
M  V30 767 H 65.5283 4.00592 0.575134 0
M  V30 768 H 62.2833 4.53224 -1.37424 0
M  V30 769 H 62.7073 5.63523 -3.75195 0
M  V30 770 H 67.3493 4.00747 -1.34765 0
M  V30 771 H 65.0673 6.13672 -5.25768 0
M  V30 772 H 68.6533 4.79389 -3.29662 0
M  V30 773 H 67.5333 5.84678 -5.22611 0
M  V30 774 N 65.0364 0.313813 1.54444 0
M  V30 775 C 66.4524 -0.0391619 1.59552 0
M  V30 776 C 66.6524 -1.51322 1.33056 0
M  V30 777 O 65.7084 -2.26782 1.11022 0
M  V30 778 C 67.0214 0.370302 2.98411 0
M  V30 779 C 68.5694 0.320139 3.11358 0
M  V30 780 C 69.0444 0.704617 4.52547 0
M  V30 781 N 70.5354 0.657645 4.58508 0
M  V30 782 C 71.2704 0.927453 5.6585 0
M  V30 783 N 70.7664 1.26389 6.81174 0
M  V30 784 N 72.5594 0.853662 5.5558 0
M  V30 785 H 64.7104 1.27433 1.69925 0
M  V30 786 H 66.9734 0.517511 0.794284 0
M  V30 787 H 66.6794 1.39694 3.22767 0
M  V30 788 H 66.5534 -0.269619 3.76235 0
M  V30 789 H 68.9404 -0.697275 2.86744 0
M  V30 790 H 69.0214 0.99486 2.35661 0
M  V30 791 H 68.6654 1.7199 4.77893 0
M  V30 792 H 68.5954 0.00768843 5.26599 0
M  V30 793 H 71.0864 0.409067 3.75679 0
M  V30 794 H 71.3994 1.4554 7.58972 0
M  V30 795 H 69.7444 1.30206 6.82694 0
M  V30 796 H 72.9354 0.590383 4.64362 0
M  V30 797 H 73.1084 1.0673 6.3915 0
M  V30 798 N 66.5145 -1.57545 0.0417849 0
M  V30 799 C 67.7605 -1.92601 -0.635021 0
M  V30 800 C 68.0935 -0.919627 -1.71045 0
M  V30 801 O 67.3685 0.0557892 -1.9442 0
M  V30 802 C 67.6515 -3.38085 -1.23979 0
M  V30 803 C 67.5045 -4.49467 -0.173057 0
M  V30 804 C 68.8235 -3.83776 -2.15416 0
M  V30 805 H 65.9425 -0.700397 -0.229374 0
M  V30 806 H 68.5845 -1.89728 0.101633 0
M  V30 807 H 66.7345 -3.40664 -1.86762 0
M  V30 808 H 68.4065 -4.59018 0.458312 0
M  V30 809 H 66.6495 -4.30909 0.499996 0
M  V30 810 H 67.3205 -5.48323 -0.636054 0
M  V30 811 H 69.7965 -3.83013 -1.62605 0
M  V30 812 H 68.6725 -4.8624 -2.54679 0
M  V30 813 H 68.9335 -3.19998 -3.05047 0
M  V30 814 N 67.9926 0.231505 -1.5589 0
M  V30 815 C 68.9396 1.28682 -1.91598 0
M  V30 816 C 69.9096 1.47071 -0.771974 0
M  V30 817 O 71.0946 1.60802 -1.027 0
M  V30 818 C 68.2346 2.6342 -2.22944 0
M  V30 819 C 67.3476 2.52912 -3.50228 0
M  V30 820 C 66.4826 3.80106 -3.7107 0
M  V30 821 C 65.5216 3.64279 -4.91902 0
M  V30 822 N 64.6586 4.834 -5.09184 0
M  V30 823 H 69.4986 0.975305 -2.81588 0
M  V30 824 H 67.0356 0.470299 -1.39379 0
M  V30 825 H 68.9936 3.41869 -2.39126 0
M  V30 826 H 67.6236 2.92687 -1.36139 0
M  V30 827 H 66.6756 1.6595 -3.42294 0
M  V30 828 H 67.9876 2.37133 -4.38827 0
M  V30 829 H 67.1416 4.66999 -3.87295 0
M  V30 830 H 65.8806 3.98799 -2.80733 0
M  V30 831 H 64.8856 2.7577 -4.75637 0
M  V30 832 H 66.1106 3.47067 -5.83714 0
M  V30 833 H 64.0566 5.02425 -4.21788 0
M  V30 834 H 63.9736 4.70311 -5.91898 0
M  V30 835 H 65.2416 5.71747 -5.29835 0
M  V30 836 N 69.4707 1.49531 0.497807 0
M  V30 837 C 70.7177 1.59179 1.25173 0
M  V30 838 C 71.0457 0.279932 1.92475 0
M  V30 839 O 70.3007 -0.732383 1.81479 0
M  V30 840 C 70.5997 2.70252 2.33878 0
M  V30 841 C 70.2657 4.11644 1.84012 0
M  V30 842 C 68.9277 4.50121 1.70132 0
M  V30 843 C 71.2797 5.00121 1.46725 0
M  V30 844 C 68.6077 5.74845 1.17348 0
M  V30 845 C 70.9597 6.25366 0.95392 0
M  V30 846 C 69.6237 6.6267 0.801538 0
M  V30 847 H 68.8937 0.582478 0.45804 0
M  V30 848 H 71.5407 1.83373 0.551948 0
M  V30 849 H 69.8457 2.40041 3.09657 0
M  V30 850 H 71.5427 2.74925 2.9192 0
M  V30 851 H 68.1327 3.81274 1.95775 0
M  V30 852 H 72.3167 4.71048 1.56294 0
M  V30 853 H 67.5727 6.02444 1.04264 0
M  V30 854 H 71.7467 6.93301 0.656225 0
M  V30 855 H 69.3737 7.59197 0.390351 0
M  V30 856 N 70.9488 -0.749086 1.3866 0
M  V30 857 C 72.1768 -1.53834 1.38358 0
M  V30 858 C 72.5918 -1.88783 -0.0255219 0
M  V30 859 O 71.9488 -1.53101 -0.993292 0
M  V30 860 C 71.9998 -2.83468 2.2434 0
M  V30 861 O 71.7208 -2.50008 3.5976 0
M  V30 862 C 73.2218 -3.7758 2.32267 0
M  V30 863 H 70.4418 -0.47585 0.473083 0
M  V30 864 H 72.9858 -0.926726 1.82297 0
M  V30 865 H 71.1408 -3.40995 1.83851 0
M  V30 866 H 71.5548 -3.33182 4.05081 0
M  V30 867 H 73.0288 -4.65478 2.96706 0
M  V30 868 H 73.5058 -4.18334 1.33765 0
M  V30 869 H 74.1118 -3.25976 2.73166 0
M  V30 870 N 72.4269 -1.23603 -0.977757 0
M  V30 871 C 73.3569 -1.04401 -2.0886 0
M  V30 872 C 74.3379 0.0399052 -1.70053 0
M  V30 873 O 75.5229 -0.125246 -1.93796 0
M  V30 874 C 72.6529 -0.637269 -3.41403 0
M  V30 875 C 71.6069 -1.66883 -3.94124 0
M  V30 876 C 70.9329 -1.11745 -5.22893 0
M  V30 877 C 72.2329 -3.06247 -4.23096 0
M  V30 878 H 73.9269 -1.97316 -2.25182 0
M  V30 879 H 71.4729 -0.950096 -1.08209 0
M  V30 880 H 73.4259 -0.48998 -4.18542 0
M  V30 881 H 72.1499 0.327557 -3.24953 0
M  V30 882 H 70.8089 -1.80416 -3.19133 0
M  V30 883 H 70.4569 -0.143527 -5.02795 0
M  V30 884 H 70.1569 -1.80672 -5.59134 0
M  V30 885 H 71.6809 -0.982067 -6.02651 0
M  V30 886 H 73.0949 -2.96001 -4.90975 0
M  V30 887 H 71.4919 -3.72436 -4.70544 0
M  V30 888 H 72.5619 -3.55041 -3.30263 0
M  V30 889 N 73.905 1.17692 -1.04816 0
M  V30 890 C 74.868 2.19787 -0.650117 0
M  V30 891 C 75.868 1.58044 0.296427 0
M  V30 892 O 77.058 1.74012 0.0808097 0
M  V30 893 C 74.19 3.40869 0.0456987 0
M  V30 894 H 75.383 2.56516 -1.5537 0
M  V30 895 H 72.936 1.31708 -0.841594 0
M  V30 896 H 73.671 3.09681 0.962726 0
M  V30 897 H 73.456 3.86928 -0.634727 0
M  V30 898 H 74.946 4.16445 0.310432 0
M  V30 899 N 75.3831 0.828654 1.34056 0
M  V30 900 C 76.3301 0.252567 2.29414 0
M  V30 901 C 77.3001 -0.62588 1.53857 0
M  V30 902 O 78.4851 -0.566312 1.82202 0
M  V30 903 C 75.6251 -0.574831 3.40279 0
M  V30 904 C 74.7381 0.326499 4.30764 0
M  V30 905 C 73.8731 -0.511016 5.28736 0
M  V30 906 C 72.9121 0.389342 6.1086 0
M  V30 907 N 72.0491 -0.409439 7.00905 0
M  V30 908 H 76.8891 1.07108 2.78086 0
M  V30 909 H 74.4261 0.539677 1.36843 0
M  V30 910 H 76.3841 -1.06992 4.03248 0
M  V30 911 H 75.0141 -1.35841 2.92826 0
M  V30 912 H 74.0661 0.939837 3.68607 0
M  V30 913 H 75.3781 1.01857 4.88289 0
M  V30 914 H 74.5321 -1.07035 5.97184 0
M  V30 915 H 73.2711 -1.23657 4.71763 0
M  V30 916 H 72.2761 0.960769 5.4134 0
M  V30 917 H 73.5011 1.1131 6.69916 0
M  V30 918 H 71.4471 -1.11856 6.46393 0
M  V30 919 H 71.3641 0.224126 7.55668 0
M  V30 920 H 72.6321 -0.951336 7.73673 0
M  V30 921 N 76.8612 -1.46375 0.584142 0
M  V30 922 C 78.1102 -2.01585 0.0679741 0
M  V30 923 C 78.4232 -1.46109 -1.30045 0
M  V30 924 O 79.6292 -1.93148 -1.90804 0
M  V30 925 C 78.0852 -3.5983 0.0709207 0
M  V30 926 C 77.6932 -4.24303 1.43775 0
M  V30 927 C 79.4372 -4.22693 -0.391228 0
M  V30 928 C 77.3442 -5.74631 1.39834 0
M  V30 929 H 76.2742 -0.753689 0.0216421 0
M  V30 930 H 78.9252 -1.68093 0.736001 0
M  V30 931 H 77.3072 -3.90405 -0.663299 0
M  V30 932 H 78.4812 -4.05335 2.19181 0
M  V30 933 H 76.7962 -3.73539 1.84004 0
M  V30 934 H 79.3932 -5.3289 -0.439524 0
M  V30 935 H 79.7362 -3.91728 -1.40906 0
M  V30 936 H 80.2692 -3.96749 0.288974 0
M  V30 937 H 77.0082 -6.10258 2.39303 0
M  V30 938 H 76.5282 -5.95858 0.686505 0
M  V30 939 H 78.2072 -6.37375 1.11187 0
M  V30 940 N 78.3393 -0.321999 -1.54275 0
M  V30 941 C 79.7553 0.0306999 -1.5957 0
M  V30 942 C 79.9553 1.50614 -1.33857 0
M  V30 943 O 79.0113 2.2619 -1.12223 0
M  V30 944 C 80.3243 -0.386122 -2.98211 0
M  V30 945 C 81.8723 -0.336647 -3.11184 0
M  V30 946 C 82.3473 -0.728607 -4.52167 0
M  V30 947 N 83.8383 -0.681952 -4.58152 0
M  V30 948 C 84.5733 -0.957449 -5.6535 0
M  V30 949 N 84.0693 -1.3 -6.80494 0
M  V30 950 N 85.8623 -0.883113 -5.55119 0
M  V30 951 H 78.0133 -1.28332 -1.69247 0
M  V30 952 H 80.2763 -0.521716 -0.791528 0
M  V30 953 H 79.9823 -1.41404 -3.22022 0
M  V30 954 H 79.8563 0.249662 -3.76373 0
M  V30 955 H 82.2433 0.682058 -2.8711 0
M  V30 956 H 82.3243 -1.00734 -2.3513 0
M  V30 957 H 81.9683 -1.74522 -4.76974 0
M  V30 958 H 81.8983 -0.0356152 -5.26588 0
M  V30 959 H 84.3893 -0.428985 -3.75457 0
M  V30 960 H 84.7023 -1.49563 -7.58189 0
M  V30 961 H 83.0473 -1.33824 -6.81994 0
M  V30 962 H 86.2383 -0.615001 -4.64042 0
M  V30 963 H 86.4113 -1.10118 -6.38575 0
M  V30 964 N 79.8174 1.5752 -0.0501392 0
M  V30 965 C 80.7644 2.1147 0.924603 0
M  V30 966 C 81.7344 1.02182 1.30951 0
M  V30 967 O 82.9194 1.29723 1.39916 0
M  V30 968 C 80.0594 2.66337 2.19451 0
M  V30 969 C 79.1724 3.89708 1.86418 0
M  V30 970 C 78.3074 4.32893 3.07859 0
M  V30 971 C 77.3464 5.48967 2.70742 0
M  V30 972 N 76.4834 5.87211 3.84874 0
M  V30 973 H 81.3234 2.94465 0.457639 0
M  V30 974 H 78.8604 1.45531 0.214266 0
M  V30 975 H 80.8184 2.96247 2.93758 0
M  V30 976 H 79.4484 1.86141 2.63726 0
M  V30 977 H 78.5004 3.66396 1.02264 0
M  V30 978 H 79.8124 4.74074 1.55096 0
M  V30 979 H 78.9664 4.6435 3.90466 0
M  V30 980 H 77.7054 3.47336 3.42358 0
M  V30 981 H 76.7104 5.17183 1.86551 0
M  V30 982 H 77.9354 6.3624 2.37436 0
M  V30 983 H 75.8814 5.04607 4.19175 0
M  V30 984 H 75.7984 6.66266 3.57247 0
M  V30 985 H 77.0664 6.23282 4.68123 0
M  V30 986 N 81.2955 -0.223234 1.56011 0
M  V30 987 C 82.2585 -1.26014 1.9145 0
M  V30 988 C 83.2585 -1.3989 0.792937 0
M  V30 989 O 84.4485 -1.38184 1.0607 0
M  V30 990 C 81.5805 -2.63422 2.16383 0
M  V30 991 H 82.7735 -0.95796 2.84189 0
M  V30 992 H 80.3265 -0.463576 1.49267 0
M  V30 993 H 81.0615 -2.98741 1.2619 0
M  V30 994 H 80.8465 -2.54728 2.98088 0
M  V30 995 H 82.3365 -3.38249 2.44903 0
M  V30 996 N 82.7736 -1.49793 -0.48987 0
M  V30 997 C 83.7366 -1.66752 -1.57246 0
M  V30 998 C 84.7366 -0.538867 -1.51502 0
M  V30 999 O 85.9266 -0.805545 -1.54456 0
M  V30 1000 C 83.0586 -1.67528 -2.96896 0
M  V30 1001 H 84.2516 -2.63321 -1.43534 0
M  V30 1002 H 81.8046 -1.38992 -0.714914 0
M  V30 1003 H 82.5396 -0.725837 -3.16073 0
M  V30 1004 H 82.3246 -2.49504 -3.02473 0
M  V30 1005 H 83.8146 -1.82667 -3.7553 0
M  V30 1006 N 84.2517 0.741722 -1.39055 0
M  V30 1007 C 85.6677 1.04638 -1.20512 0
M  V30 1008 C 85.8677 2.01405 -0.0620218 0
M  V30 1009 O 84.9237 2.45547 0.588457 0
M  V30 1010 C 86.2367 1.6151 -2.53643 0
M  V30 1011 C 87.7847 1.73623 -2.6043 0
M  V30 1012 C 88.2597 2.33906 -3.93767 0
M  V30 1013 N 89.7507 2.41323 -3.9537 0
M  V30 1014 C 90.4857 2.88888 -4.95309 0
M  V30 1015 N 89.9817 3.36401 -6.05645 0
M  V30 1016 N 91.7747 2.88037 -4.82692 0
M  V30 1017 H 83.9257 0.0998155 -2.12165 0
M  V30 1018 H 86.1887 0.106907 -0.941953 0
M  V30 1019 H 85.8947 0.978739 -3.37807 0
M  V30 1020 H 85.7687 2.60411 -2.72885 0
M  V30 1021 H 88.1557 2.36384 -1.76655 0
M  V30 1022 H 88.2367 0.733945 -2.45045 0
M  V30 1023 H 87.8807 1.71776 -4.7797 0
M  V30 1024 H 87.8107 3.34799 -4.06469 0
M  V30 1025 H 90.3017 2.07734 -3.15682 0
M  V30 1026 H 90.6147 3.71186 -6.77821 0
M  V30 1027 H 88.9597 3.34427 -6.09248 0
M  V30 1028 H 92.1507 2.50237 -3.95599 0
M  V30 1029 H 92.3237 3.24792 -5.60726 0
M  V30 1030 N 85.7298 1.2412 0.971189 0
M  V30 1031 C 86.6398 1.04747 2.09917 0
M  V30 1032 C 87.6558 -0.0107162 1.73997 0
M  V30 1033 O 88.8318 0.186714 2.00533 0
M  V30 1034 C 85.8968 0.650828 3.40537 0
M  V30 1035 C 84.9578 1.7851 3.90426 0
M  V30 1036 C 84.1908 1.40729 5.14812 0
M  V30 1037 O 84.4138 0.29557 5.69634 0
M  V30 1038 O 83.3478 2.23168 5.58999 0
M  V30 1039 H 87.1738 1.99304 2.29154 0
M  V30 1040 H 84.7588 1.02908 1.08307 0
M  V30 1041 H 86.6408 0.440992 4.19086 0
M  V30 1042 H 85.3158 -0.265649 3.22608 0
M  V30 1043 H 84.2228 2.04966 3.12953 0
M  V30 1044 H 85.5558 2.68023 4.12825 0
M  V30 1045 N 87.2079 -1.17134 1.05439 0
M  V30 1046 C 88.1379 -2.2342 0.678649 0
M  V30 1047 C 89.1189 -1.66971 -0.32476 0
M  V30 1048 O 90.3039 -1.93149 -0.201802 0
M  V30 1049 C 87.4339 -3.47256 0.0552099 0
M  V30 1050 C 86.3879 -4.16543 0.98365 0
M  V30 1051 C 85.7139 -5.34231 0.223961 0
M  V30 1052 C 87.0139 -4.68495 2.3089 0
M  V30 1053 H 88.7079 -2.55105 1.56722 0
M  V30 1054 H 86.2539 -1.2262 0.754998 0
M  V30 1055 H 88.2069 -4.20828 -0.21946 0
M  V30 1056 H 86.9309 -3.14846 -0.868319 0
M  V30 1057 H 85.5899 -3.44887 1.24293 0
M  V30 1058 H 85.2379 -4.98071 -0.702412 0
M  V30 1059 H 84.9379 -5.81527 0.842627 0
M  V30 1060 H 86.4619 -6.10585 -0.0433671 0
M  V30 1061 H 87.8759 -5.33691 2.09396 0
M  V30 1062 H 86.2729 -5.26379 2.88176 0
M  V30 1063 H 87.3429 -3.85169 2.94572 0
M  V30 1064 N 88.686 -0.835752 -1.33615 0
M  V30 1065 C 89.616 -0.281739 -2.31794 0
M  V30 1066 C 90.597 0.608833 -1.58831 0
M  V30 1067 O 91.782 0.533035 -1.86741 0
M  V30 1068 C 88.912 0.546612 -3.42971 0
M  V30 1069 C 87.866 -0.247904 -4.27281 0
M  V30 1070 C 87.192 0.704001 -5.30045 0
M  V30 1071 C 88.492 -1.46324 -5.01385 0
M  V30 1072 H 90.186 -1.10206 -2.78379 0
M  V30 1073 H 87.732 -0.531388 -1.33837 0
M  V30 1074 H 89.685 0.944467 -4.1068 0
M  V30 1075 H 88.409 1.40011 -2.95067 0
M  V30 1076 H 87.068 -0.627281 -3.61194 0
M  V30 1077 H 86.716 1.55381 -4.78399 0
M  V30 1078 H 86.416 0.176524 -5.87335 0
M  V30 1079 H 87.94 1.09944 -6.0062 0
M  V30 1080 H 89.354 -1.13871 -5.61877 0
M  V30 1081 H 87.751 -1.92728 -5.6831 0
M  V30 1082 H 88.821 -2.23467 -4.30338 0
M  V30 1083 N 90.1641 1.46063 -0.591896 0
M  V30 1084 C 91.3921 2.06717 -0.0868936 0
M  V30 1085 C 91.8071 1.43916 1.22203 0
M  V30 1086 O 91.1641 0.547698 1.74088 0
M  V30 1087 C 91.2151 3.6142 0.0758725 0
M  V30 1088 O 90.9361 4.21874 -1.18126 0
M  V30 1089 C 92.4371 4.39025 0.61416 0
M  V30 1090 H 89.6571 0.668162 -0.0616518 0
M  V30 1091 H 92.2011 1.8755 -0.815175 0
M  V30 1092 H 90.3561 3.79983 0.754413 0
M  V30 1093 H 90.7701 5.14861 -1.00092 0
M  V30 1094 H 92.2441 5.4783 0.677193 0
M  V30 1095 H 92.7211 4.07708 1.63312 0
M  V30 1096 H 93.3271 4.2529 -0.0298142 0
M  V30 1097 N 91.6422 0.330177 1.54103 0
M  V30 1098 C 92.5722 -0.525353 2.27513 0
M  V30 1099 C 93.5532 -1.11383 1.2856 0
M  V30 1100 O 94.7382 -1.13773 1.57383 0
M  V30 1101 C 91.8682 -1.6831 3.03791 0
M  V30 1102 C 90.8222 -1.2236 4.10137 0
M  V30 1103 C 90.1482 -2.46882 4.74293 0
M  V30 1104 C 91.4482 -0.333697 5.21233 0
M  V30 1105 H 93.1422 0.087013 2.99274 0
M  V30 1106 H 90.6882 0.0432893 1.43935 0
M  V30 1107 H 92.6412 -2.28795 3.5388 0
M  V30 1108 H 91.3652 -2.32216 2.29659 0
M  V30 1109 H 90.0242 -0.64165 3.60941 0
M  V30 1110 H 89.6722 -3.09165 3.96769 0
M  V30 1111 H 89.3722 -2.16825 5.46133 0
M  V30 1112 H 90.8962 -3.08117 5.27159 0
M  V30 1113 H 92.3102 -0.845013 5.67038 0
M  V30 1114 H 90.7072 -0.125612 5.99969 0
M  V30 1115 H 91.7772 0.633724 4.80741 0
M  V30 1116 N 93.1203 -1.57491 0.0584922 0
M  V30 1117 C 94.3973 -1.84346 -0.653918 0
M  V30 1118 C 94.7773 -0.948355 -1.88599 0
M  V30 1119 O 94.1253 -0.0112403 -2.28497 0
M  V30 1120 C 94.3353 -3.34239 -1.00425 0
M  V30 1121 C 95.6833 -4.01431 -1.38342 0
M  V30 1122 O 96.7073 -3.38907 -1.09637 0
M  V30 1123 O 95.5663 -5.11683 -1.91943 0
M  V30 1124 H 92.6603 -0.761112 -0.323478 0
M  V30 1125 H 95.2063 -1.6947 0.0884125 0
M  V30 1126 H 93.9783 -3.91089 -0.128625 0
M  V30 1127 H 93.6013 -3.54329 -1.80378 0
M  V30 1128 N 94.5984 0.214957 -1.56127 0
M  V30 1129 C 95.5084 1.28727 -1.96129 0
M  V30 1130 C 96.5244 1.50916 -0.866044 0
M  V30 1131 O 97.7004 1.63918 -1.17016 0
M  V30 1132 C 94.7654 2.61569 -2.27558 0
M  V30 1133 C 93.8264 2.47625 -3.50685 0
M  V30 1134 C 93.0594 3.74132 -3.80606 0
M  V30 1135 O 93.2824 4.77438 -3.12104 0
M  V30 1136 O 92.2164 3.70849 -4.74083 0
M  V30 1137 H 96.0424 0.977855 -2.87527 0
M  V30 1138 H 93.6274 0.418358 -1.43423 0
M  V30 1139 H 95.5094 3.40012 -2.48938 0
M  V30 1140 H 94.1844 2.92178 -1.39332 0
M  V30 1141 H 93.0914 1.67361 -3.34576 0
M  V30 1142 H 94.4244 2.21954 -4.39315 0
M  V30 1143 N 96.0765 1.50051 0.48192 0
M  V30 1144 C 97.0235 1.68122 1.58125 0
M  V30 1145 C 97.9935 0.522545 1.57666 0
M  V30 1146 O 99.1785 0.751844 1.75362 0
M  V30 1147 C 96.3185 1.77142 2.96167 0
M  V30 1148 C 95.4315 3.0444 3.06497 0
M  V30 1149 C 94.5665 3.04321 4.35387 0
M  V30 1150 C 93.6055 4.26118 4.3942 0
M  V30 1151 N 92.7425 4.238 5.59766 0
M  V30 1152 H 97.5825 2.6198 1.42022 0
M  V30 1153 H 95.1195 1.29877 0.690687 0
M  V30 1154 H 97.0775 1.80352 3.76203 0
M  V30 1155 H 95.7075 0.867329 3.1093 0
M  V30 1156 H 94.7595 3.10752 2.19402 0
M  V30 1157 H 96.0715 3.94426 3.05336 0
M  V30 1158 H 95.2255 3.062 5.23762 0
M  V30 1159 H 93.9645 2.12147 4.39141 0
M  V30 1160 H 92.9695 4.24463 3.49444 0
M  V30 1161 H 94.1945 5.19507 4.37366 0
M  V30 1162 H 92.1405 3.34474 5.64326 0
M  V30 1163 H 92.0575 5.07542 5.60301 0
M  V30 1164 H 93.3255 4.2981 6.50295 0
M  V30 1165 N 97.5546 -0.734337 1.39446 0
M  V30 1166 C 98.8316 -1.48579 1.27215 0
M  V30 1167 C 99.2116 -2.1077 -0.117968 0
M  V30 1168 O 98.5596 -1.98646 -1.12924 0
M  V30 1169 C 98.7696 -2.53667 2.39696 0
M  V30 1170 C 100.118 -3.20031 2.79044 0
M  V30 1171 O 101.142 -2.6398 2.39151 0
M  V30 1172 O 100.001 -4.21455 3.47905 0
M  V30 1173 H 97.0946 -0.659816 0.49857 0
M  V30 1174 H 99.6406 -0.768106 1.51322 0
M  V30 1175 H 98.4126 -2.06096 3.32626 0
M  V30 1176 H 98.0356 -3.32994 2.17258 0
M  V30 1177 N 99.0327 -1.24633 -0.964593 0
M  V30 1178 C 100.444 -1.08045 -1.5226 0
M  V30 1179 C 100.795 0.347116 -1.93105 0
M  V30 1180 O 99.9197 1.23588 -1.77637 0
M  V30 1181 C 100.515 -1.95514 -2.76695 0
M  V30 1182 C 99.0737 -1.8314 -3.28841 0
M  V30 1183 C 98.2207 -1.90262 -2.01732 0
M  V30 1184 H 101.172 -1.38064 -0.782553 0
M  V30 1185 H 101.193 -1.48925 -3.50145 0
M  V30 1186 H 100.705 -2.99407 -2.46936 0
M  V30 1187 H 98.8057 -0.82092 -3.63444 0
M  V30 1188 H 98.9187 -2.67406 -3.97531 0
M  V30 1189 H 97.2827 -1.34027 -2.16584 0
M  V30 1190 H 98.0657 -2.9574 -1.74334 0
M  V30 1191 N 100.511 1.16574 -1.06058 0
M  V30 1192 C 101.927 1.3904 -0.783585 0
M  V30 1193 C 102.127 1.91784 0.618145 0
M  V30 1194 O 101.183 2.11511 1.37911 0
M  V30 1195 C 102.496 2.37329 -1.84649 0
M  V30 1196 C 104.044 2.51018 -1.86973 0
M  V30 1197 C 104.519 3.52588 -2.92311 0
M  V30 1198 N 106.01 3.60113 -2.91329 0
M  V30 1199 C 106.745 4.38486 -3.69482 0
M  V30 1200 N 106.241 5.20302 -4.57447 0
M  V30 1201 N 108.034 4.33446 -3.57885 0
M  V30 1202 H 100.185 0.806725 -1.96483 0
M  V30 1203 H 102.448 0.417117 -0.851303 0
M  V30 1204 H 102.154 2.05663 -2.85299 0
M  V30 1205 H 102.028 3.36946 -1.6955 0
M  V30 1206 H 104.415 2.81989 -0.869827 0
M  V30 1207 H 104.496 1.51445 -2.0615 0
M  V30 1208 H 104.14 3.22354 -3.92492 0
M  V30 1209 H 104.07 4.51886 -2.70383 0
M  V30 1210 H 106.561 3.01707 -2.27555 0
M  V30 1211 H 106.874 5.77311 -5.13743 0
M  V30 1212 H 105.219 5.19653 -4.61503 0
M  V30 1213 H 108.41 3.68586 -2.88551 0
M  V30 1214 H 108.583 4.94279 -4.19037 0
M  V30 1215 N 101.989 0.842826 1.3317 0
M  V30 1216 C 103.405 0.531128 1.50503 0
M  V30 1217 C 103.605 -0.940734 1.78192 0
M  V30 1218 O 102.661 -1.72436 1.84451 0
M  V30 1219 C 103.974 1.40789 2.65705 0
M  V30 1220 C 105.522 1.40708 2.79589 0
M  V30 1221 C 105.997 2.26878 3.97857 0
M  V30 1222 N 107.488 2.24609 4.05099 0
M  V30 1223 C 108.223 2.88019 4.95815 0
M  V30 1224 N 107.719 3.60496 5.9162 0
M  V30 1225 N 109.512 2.77469 4.88843 0
M  V30 1226 H 101.663 1.79557 1.1346 0
M  V30 1227 H 103.926 0.766267 0.558156 0
M  V30 1228 H 103.632 2.454 2.51936 0
M  V30 1229 H 103.506 1.08677 3.61205 0
M  V30 1230 H 105.893 0.368668 2.92788 0
M  V30 1231 H 105.974 1.76829 1.84838 0
M  V30 1232 H 105.618 3.3078 3.85418 0
M  V30 1233 H 105.548 1.88096 4.91861 0
M  V30 1234 H 108.039 1.71906 3.36536 0
M  V30 1235 H 108.352 4.06076 6.57512 0
M  V30 1236 H 106.697 3.64604 5.91683 0
M  V30 1237 H 109.888 2.20406 4.12963 0
M  V30 1238 H 110.061 3.2717 5.59342 0
M  V30 1239 N 103.467 -1.45747 0.599634 0
M  V30 1240 C 104.397 -2.33235 -0.111306 0
M  V30 1241 C 105.378 -1.46359 -0.866781 0
M  V30 1242 O 106.563 -1.75146 -0.838904 0
M  V30 1243 C 103.693 -3.28932 -1.11451 0
M  V30 1244 C 102.647 -4.25381 -0.472772 0
M  V30 1245 C 101.973 -5.1071 -1.58365 0
M  V30 1246 C 103.273 -5.18831 0.600948 0
M  V30 1247 H 104.967 -2.92927 0.61919 0
M  V30 1248 H 102.513 -1.40857 0.299215 0
M  V30 1249 H 104.466 -3.89002 -1.62036 0
M  V30 1250 H 103.19 -2.67381 -1.8755 0
M  V30 1251 H 101.849 -3.66598 0.0121472 0
M  V30 1252 H 101.497 -4.45533 -2.33473 0
M  V30 1253 H 101.197 -5.7604 -1.15982 0
M  V30 1254 H 102.721 -5.73647 -2.09194 0
M  V30 1255 H 104.135 -5.73019 0.179491 0
M  V30 1256 H 102.532 -5.92595 0.946076 0
M  V30 1257 H 103.602 -4.6174 1.48068 0
M  V30 1258 N 104.945 -0.338344 -1.53925 0
M  V30 1259 C 106.192 0.259758 -2.00827 0
M  V30 1260 C 106.52 1.50973 -1.22628 0
M  V30 1261 O 105.775 1.93379 -0.300509 0
M  V30 1262 C 106.074 0.62448 -3.51902 0
M  V30 1263 C 105.74 -0.528006 -4.47798 0
M  V30 1264 C 104.402 -0.844298 -4.73735 0
M  V30 1265 C 106.754 -1.30143 -5.0469 0
M  V30 1266 C 104.082 -1.93648 -5.53821 0
M  V30 1267 C 106.434 -2.38382 -5.85967 0
M  V30 1268 C 105.098 -2.70576 -6.10201 0
M  V30 1269 H 104.368 0.0950523 -0.734878 0
M  V30 1270 H 107.015 -0.465182 -1.85764 0
M  V30 1271 H 105.32 1.43006 -3.64769 0
M  V30 1272 H 107.017 1.09905 -3.85645 0
M  V30 1273 H 103.607 -0.271421 -4.2774 0
M  V30 1274 H 107.791 -1.07033 -4.84621 0
M  V30 1275 H 103.047 -2.19021 -5.70824 0
M  V30 1276 H 107.221 -2.98746 -6.29066 0
M  V30 1277 H 104.848 -3.55333 -6.72044 0
M  V30 1278 N 106.423 1.57458 -0.0668435 0
M  V30 1279 C 107.333 2.15937 0.916975 0
M  V30 1280 C 108.349 1.12123 1.33058 0
M  V30 1281 O 109.525 1.44366 1.40429 0
M  V30 1282 C 106.59 2.70547 2.16807 0
M  V30 1283 C 105.651 3.89215 1.81135 0
M  V30 1284 C 104.884 4.41211 3.0028 0
M  V30 1285 O 105.107 3.92225 4.14144 0
M  V30 1286 O 104.041 5.32605 2.80384 0
M  V30 1287 H 107.867 3.00354 0.449561 0
M  V30 1288 H 105.452 1.48584 0.155949 0
M  V30 1289 H 107.334 3.0557 2.90181 0
M  V30 1290 H 106.009 1.89192 2.62656 0
M  V30 1291 H 104.916 3.59054 1.05028 0
M  V30 1292 H 106.249 4.71848 1.40073 0
M  V30 1293 N 107.901 -0.206675 1.56239 0
M  V30 1294 C 109.149 -0.927007 1.79586 0
M  V30 1295 C 109.47 -1.8427 0.637929 0
M  V30 1296 O 108.74 -1.92849 -0.344398 0
M  V30 1297 H 107.32 -0.345292 0.662407 0
M  V30 1298 H 109.982 -0.21496 1.93711 0
M  V30 1299 H 109.078 -1.52501 2.72305 0
M  V30 1300 N 109.379 -1.50304 -0.473955 0
M  V30 1301 C 110.327 -1.69482 -1.59307 0
M  V30 1302 C 111.321 -0.560669 -1.59853 0
M  V30 1303 O 112.527 -0.741087 -1.64036 0
M  V30 1304 H 108.902 -0.534892 -0.528578 0
M  V30 1305 H 110.873 -2.63364 -1.40293 0
M  V30 1306 C 109.622 -1.80354 -2.97267 0
M  V30 1307 H 108.945 -2.67012 -2.97564 0
M  V30 1308 H 110.385 -1.97798 -3.75036 0
M  V30 1309 C 108.844 -0.55448 -3.32306 0
M  V30 1310 O 109.374 0.307661 -4.0052 0
M  V30 1311 N 107.58 -0.409354 -2.87702 0
M  V30 1312 H 107.127 -1.11196 -2.32364 0
M  V30 1313 H 107.085 0.425223 -3.11511 0
M  V30 1314 N 110.857 0.726932 -1.39834 0
M  V30 1315 C 111.82 1.82269 -1.38962 0
M  V30 1316 C 112.82 1.58248 -0.285334 0
M  V30 1317 O 114.01 1.65499 -0.54366 0
M  V30 1318 C 111.142 3.20186 -1.17019 0
M  V30 1319 H 112.335 1.84443 -2.36476 0
M  V30 1320 H 109.888 0.931416 -1.25516 0
M  V30 1321 H 110.623 3.23669 -0.202204 0
M  V30 1322 H 110.408 3.3902 -1.96998 0
M  V30 1323 H 111.898 4.00235 -1.1917 0
M  V30 1324 N 112.336 1.25143 0.95797 0
M  V30 1325 C 113.266 1.07711 2.07173 0
M  V30 1326 C 114.247 -0.0128462 1.70095 0
M  V30 1327 O 115.432 0.156061 1.93572 0
M  V30 1328 C 112.562 0.691503 3.40346 0
M  V30 1329 C 111.516 1.73132 3.9142 0
M  V30 1330 C 110.842 1.20049 5.21049 0
M  V30 1331 C 112.142 3.1294 4.1817 0
M  V30 1332 H 113.836 2.00873 2.22014 0
M  V30 1333 H 111.382 0.967191 1.06684 0
M  V30 1334 H 113.335 0.556505 4.17709 0
M  V30 1335 H 112.059 -0.275819 3.25433 0
M  V30 1336 H 110.718 1.8547 3.16222 0
M  V30 1337 H 110.366 0.223499 5.02503 0
M  V30 1338 H 110.066 1.89545 5.56189 0
M  V30 1339 H 111.59 1.07782 6.01012 0
M  V30 1340 H 113.004 3.03775 4.86203 0
M  V30 1341 H 111.401 3.79875 4.64559 0
M  V30 1342 H 112.471 3.6025 3.24573 0
M  V30 1343 N 113.814 -1.1601 1.06675 0
M  V30 1344 C 114.744 -2.22688 0.702307 0
M  V30 1345 C 115.725 -1.67306 -0.307032 0
M  V30 1346 O 116.91 -1.93352 -0.181305 0
M  V30 1347 C 114.04 -3.47178 0.092038 0
M  V30 1348 C 112.994 -4.15477 1.02777 0
M  V30 1349 C 112.32 -5.33963 0.28061 0
M  V30 1350 C 113.62 -4.66019 2.35846 0
M  V30 1351 H 115.314 -2.53429 1.59419 0
M  V30 1352 H 112.86 -1.21813 0.767961 0
M  V30 1353 H 114.813 -4.21037 -0.174814 0
M  V30 1354 H 113.537 -3.15749 -0.834877 0
M  V30 1355 H 112.196 -3.43549 1.27944 0
M  V30 1356 H 111.844 -4.98788 -0.649545 0
M  V30 1357 H 111.544 -5.806 0.904258 0
M  V30 1358 H 113.068 -6.10596 0.021396 0
M  V30 1359 H 114.482 -5.3144 2.15045 0
M  V30 1360 H 112.879 -5.23293 2.93743 0
M  V30 1361 H 113.949 -3.82023 2.98641 0
M  V30 1362 N 115.292 -0.849877 -1.32721 0
M  V30 1363 C 116.708 -0.539102 -1.50219 0
M  V30 1364 C 116.908 0.931271 -1.78689 0
M  V30 1365 O 115.964 1.71455 -1.85363 0
M  V30 1366 C 117.277 -1.42196 -2.64954 0
M  V30 1367 C 118.825 -1.42189 -2.78839 0
M  V30 1368 C 119.3 -2.28985 -3.96648 0
M  V30 1369 N 120.791 -2.26754 -4.03902 0
M  V30 1370 C 121.526 -2.90644 -4.94281 0
M  V30 1371 N 121.022 -3.63629 -5.897 0
M  V30 1372 N 122.815 -2.80057 -4.87365 0
M  V30 1373 H 114.966 -1.80156 -1.12506 0
M  V30 1374 H 117.229 -0.769217 -0.554085 0
M  V30 1375 H 116.935 -2.46733 -2.50631 0
M  V30 1376 H 116.809 -1.10591 -3.60624 0
M  V30 1377 H 119.196 -0.38419 -2.92588 0
M  V30 1378 H 119.277 -1.77807 -1.83898 0
M  V30 1379 H 118.921 -3.32819 -3.83658 0
M  V30 1380 H 118.851 -1.90702 -4.90857 0
M  V30 1381 H 121.342 -1.73688 -3.3562 0
M  V30 1382 H 121.655 -4.09558 -6.55349 0
M  V30 1383 H 120 -3.67737 -5.89741 0
M  V30 1384 H 123.191 -2.22593 -4.11789 0
M  V30 1385 H 123.364 -3.30132 -5.57599 0
M  V30 1386 N 116.77 1.45427 -0.607355 0
M  V30 1387 C 118.186 1.57283 -0.270985 0
M  V30 1388 C 118.386 1.59875 1.22647 0
M  V30 1389 O 117.442 1.52893 2.00948 0
M  V30 1390 C 118.755 2.85566 -0.941952 0
M  V30 1391 C 120.303 2.9924 -0.917849 0
M  V30 1392 C 120.778 4.30293 -1.56882 0
M  V30 1393 N 122.269 4.37051 -1.5343 0
M  V30 1394 C 123.004 5.37123 -2.00715 0
M  V30 1395 N 122.5 6.43734 -2.56084 0
M  V30 1396 N 124.293 5.28479 -1.91484 0
M  V30 1397 H 116.444 1.41988 -1.57966 0
M  V30 1398 H 118.707 0.67885 -0.661715 0
M  V30 1399 H 118.413 2.8955 -1.99633 0
M  V30 1400 H 118.287 3.74322 -0.465096 0
M  V30 1401 H 120.674 2.94822 0.127984 0
M  V30 1402 H 120.755 2.11895 -1.43297 0
M  V30 1403 H 120.399 4.35469 -2.61398 0
M  V30 1404 H 120.329 5.16454 -1.02873 0
M  V30 1405 H 122.82 3.60615 -1.12982 0
M  V30 1406 H 123.133 7.16341 -2.89958 0
M  V30 1407 H 121.478 6.44485 -2.60122 0
M  V30 1408 H 124.669 4.44098 -1.47967 0
M  V30 1409 H 124.842 6.0632 -2.28648 0
M  V30 1410 N 118.248 0.346503 1.53744 0
M  V30 1411 C 119.178 -0.501193 2.28058 0
M  V30 1412 C 120.159 -1.10014 1.29734 0
M  V30 1413 O 121.344 -1.12097 1.58581 0
M  V30 1414 C 118.474 -1.65078 3.05559 0
M  V30 1415 C 117.428 -1.18003 4.11411 0
M  V30 1416 C 116.754 -2.41837 4.76884 0
M  V30 1417 C 118.054 -0.278394 5.21558 0
M  V30 1418 H 119.748 0.11875 2.99164 0
M  V30 1419 H 117.294 0.0585531 1.43881 0
M  V30 1420 H 119.247 -2.25028 3.56287 0
M  V30 1421 H 117.971 -2.29767 2.32109 0
M  V30 1422 H 116.63 -0.603331 3.61601 0
M  V30 1423 H 116.278 -3.0494 4.00026 0
M  V30 1424 H 115.978 -2.1102 5.48402 0
M  V30 1425 H 117.502 -3.02508 5.30397 0
M  V30 1426 H 118.916 -0.784823 5.67903 0
M  V30 1427 H 117.313 -0.0619707 6.00068 0
M  V30 1428 H 118.383 0.684677 4.80042 0
M  V30 1429 N 119.726 -1.57421 0.075193 0
M  V30 1430 C 120.972 -1.93905 -0.594025 0
M  V30 1431 C 121.305 -0.955701 -1.69056 0
M  V30 1432 O 120.58 0.0145373 -1.94495 0
M  V30 1433 C 120.863 -3.40638 -1.1678 0
M  V30 1434 C 120.716 -4.49733 -0.0776792 0
M  V30 1435 C 122.035 -3.88259 -2.07228 0
M  V30 1436 H 119.154 -0.705105 -0.214466 0
M  V30 1437 H 121.796 -1.8947 0.141854 0
M  V30 1438 H 119.946 -3.44549 -1.79494 0
M  V30 1439 H 121.618 -4.57942 0.555573 0
M  V30 1440 H 119.861 -4.29751 0.591286 0
M  V30 1441 H 120.532 -5.49549 -0.519603 0
M  V30 1442 H 123.008 -3.86376 -1.54445 0
M  V30 1443 H 121.884 -4.91533 -2.44308 0
M  V30 1444 H 122.145 -3.26396 -2.98191 0
M  V30 1445 N 121.204 0.198386 -1.56346 0
M  V30 1446 C 122.62 0.549085 -1.49857 0
M  V30 1447 C 122.82 1.86016 -0.774611 0
M  V30 1448 O 121.876 2.50416 -0.323776 0
M  V30 1449 C 123.189 0.606868 -2.94512 0
M  V30 1450 C 124.737 0.695925 -3.05165 0
M  V30 1451 C 125.212 0.784848 -4.51225 0
M  V30 1452 N 126.703 0.848463 -4.55363 0
M  V30 1453 C 127.438 0.937378 -5.65686 0
M  V30 1454 N 126.934 0.9888 -6.85707 0
M  V30 1455 N 128.727 0.974312 -5.53592 0
M  V30 1456 H 120.878 -0.661655 -2.01831 0
M  V30 1457 H 123.141 -0.235261 -0.918344 0
M  V30 1458 H 122.847 -0.28732 -3.50524 0
M  V30 1459 H 122.721 1.46268 -3.47686 0
M  V30 1460 H 125.108 1.58055 -2.49204 0
M  V30 1461 H 125.189 -0.186022 -2.55123 0
M  V30 1462 H 124.833 -0.0954072 -5.0781 0
M  V30 1463 H 124.763 1.68255 -4.98997 0
M  V30 1464 H 127.254 0.818103 -3.68938 0
M  V30 1465 H 127.567 1.05707 -7.65536 0
M  V30 1466 H 125.912 0.957534 -6.88372 0
M  V30 1467 H 129.103 0.930954 -4.58749 0
M  V30 1468 H 129.276 1.04015 -6.39597 0
M  V30 1469 N 122.682 1.50554 0.465978 0
M  V30 1470 C 123.931 1.61038 1.21448 0
M  V30 1471 C 124.244 0.31865 1.92987 0
M  V30 1472 O 125.45 0.302469 2.6981 0
M  V30 1473 C 123.906 2.84283 2.20706 0
M  V30 1474 C 123.514 4.20352 1.54946 0
M  V30 1475 C 125.258 3.04115 2.96166 0
M  V30 1476 C 123.165 5.34778 2.5252 0
M  V30 1477 H 122.095 0.599718 0.457005 0
M  V30 1478 H 124.746 1.7699 0.484424 0
M  V30 1479 H 123.128 2.61901 2.97025 0
M  V30 1480 H 124.302 4.53008 0.843811 0
M  V30 1481 H 122.617 4.06167 0.917475 0
M  V30 1482 H 125.214 3.86774 3.69202 0
M  V30 1483 H 125.557 2.16045 3.55852 0
M  V30 1484 H 126.09 3.26702 2.26959 0
M  V30 1485 H 122.829 6.25018 1.97566 0
M  V30 1486 H 122.349 5.06534 3.21222 0
M  V30 1487 H 124.028 5.65561 3.14245 0
M  V30 1488 N 124.16 -0.719506 1.40217 0
M  V30 1489 C 125.408 -1.47641 1.3801 0
M  V30 1490 C 125.729 -1.94992 -0.018145 0
M  V30 1491 O 124.999 -1.70073 -0.972207 0
M  V30 1492 H 123.579 -0.547744 0.507923 0
M  V30 1493 H 126.241 -0.853187 1.75233 0
M  V30 1494 H 125.337 -2.35112 2.05253 0
M  V30 1495 N 125.638 -1.25649 -0.95132 0
M  V30 1496 C 126.884 -1.10757 -1.69884 0
M  V30 1497 C 127.217 0.350061 -1.91019 0
M  V30 1498 O 126.492 1.25783 -1.48354 0
M  V30 1499 C 126.775 -1.86606 -3.07978 0
M  V30 1500 C 126.628 -3.40217 -2.94232 0
M  V30 1501 C 127.947 -1.65182 -4.07925 0
M  V30 1502 H 125.066 -0.40374 -0.616574 0
M  V30 1503 H 127.708 -1.54521 -1.10558 0
M  V30 1504 H 125.858 -1.49409 -3.58621 0
M  V30 1505 H 127.53 -3.87108 -2.50889 0
M  V30 1506 H 125.773 -3.67759 -2.30078 0
M  V30 1507 H 126.444 -3.88505 -3.92133 0
M  V30 1508 H 128.92 -1.9757 -3.66204 0
M  V30 1509 H 127.796 -2.20683 -5.02583 0
M  V30 1510 H 128.057 -0.593933 -4.38092 0
M  V30 1511 N 127.117 1.15442 -1.07289 0
M  V30 1512 C 128.047 2.22312 -0.714107 0
M  V30 1513 C 129.028 1.67467 0.298155 0
M  V30 1514 O 130.213 1.93445 0.171048 0
M  V30 1515 C 127.343 3.47124 -0.110448 0
M  V30 1516 C 126.297 4.14926 -1.04979 0
M  V30 1517 C 125.623 5.33807 -0.308924 0
M  V30 1518 C 126.923 4.64762 -2.38314 0
M  V30 1519 H 128.617 2.5258 -1.6076 0
M  V30 1520 H 126.163 1.21404 -0.77441 0
M  V30 1521 H 128.116 4.21124 0.152482 0
M  V30 1522 H 126.84 3.16187 0.81812 0
M  V30 1523 H 125.499 3.42866 -1.29764 0
M  V30 1524 H 125.147 4.99126 0.623084 0
M  V30 1525 H 124.847 5.80113 -0.935036 0
M  V30 1526 H 126.371 6.10576 -0.0537771 0
M  V30 1527 H 127.785 5.30292 -2.1786 0
M  V30 1528 H 126.182 5.21728 -2.96514 0
M  V30 1529 H 127.252 3.80434 -3.00663 0
M  V30 1530 N 128.595 0.856903 1.32268 0
M  V30 1531 C 129.872 0.382583 1.91822 0
M  V30 1532 C 130.252 -1.13407 1.78051 0
M  V30 1533 O 129.6 -1.95673 1.18001 0
M  V30 1534 C 129.81 0.849446 3.38505 0
M  V30 1535 C 131.158 0.867936 4.15634 0
M  V30 1536 O 132.182 0.794232 3.47232 0
M  V30 1537 O 131.041 0.972286 5.37781 0
M  V30 1538 H 128.135 0.112014 0.819379 0
M  V30 1539 H 130.681 0.943952 1.41024 0
M  V30 1540 H 129.453 1.89267 3.42482 0
M  V30 1541 H 129.076 0.265652 3.96712 0
M  V30 1542 N 130.073 -1.45103 0.615059 0
M  V30 1543 C 130.983 -2.34382 -0.101034 0
M  V30 1544 C 131.999 -1.51681 -0.852585 0
M  V30 1545 O 133.175 -1.8446 -0.808484 0
M  V30 1546 C 130.24 -3.29417 -1.08099 0
M  V30 1547 C 129.301 -4.28025 -0.330577 0
M  V30 1548 C 128.534 -5.1852 -1.26385 0
M  V30 1549 O 128.757 -5.12598 -2.50198 0
M  V30 1550 O 127.691 -5.97122 -0.756866 0
M  V30 1551 H 131.517 -2.97033 0.632855 0
M  V30 1552 H 129.102 -1.4461 0.375293 0
M  V30 1553 H 130.984 -3.87958 -1.6452 0
M  V30 1554 H 129.659 -2.69321 -1.79577 0
M  V30 1555 H 128.566 -3.73078 0.276283 0
M  V30 1556 H 129.899 -4.90997 0.343866 0
M  V30 1557 N 131.551 -0.354651 -1.53558 0
M  V30 1558 C 132.799 0.237972 -2.00694 0
M  V30 1559 C 133.12 1.50173 -1.24391 0
M  V30 1560 O 132.39 1.92673 -0.354135 0
M  V30 1561 H 130.97 0.0909256 -0.741446 0
M  V30 1562 H 133.632 -0.478368 -1.88938 0
M  V30 1563 H 132.728 0.47264 -3.085 0
M  V30 1564 N 133.029 1.57378 -0.0835403 0
M  V30 1565 C 133.976 2.13384 0.879539 0
M  V30 1566 C 134.946 1.04936 1.28754 0
M  V30 1567 O 136.131 1.32662 1.37133 0
M  V30 1568 C 133.271 2.70932 2.13752 0
M  V30 1569 C 132.384 3.93575 1.7811 0
M  V30 1570 C 131.519 4.39326 2.98607 0
M  V30 1571 C 130.558 5.54587 2.59037 0
M  V30 1572 N 129.695 5.95243 3.72331 0
M  V30 1573 H 134.535 2.9537 0.395076 0
M  V30 1574 H 132.072 1.45953 0.183349 0
M  V30 1575 H 134.03 3.02411 2.87408 0
M  V30 1576 H 132.66 1.91693 2.59718 0
M  V30 1577 H 131.712 3.68483 0.94469 0
M  V30 1578 H 133.024 4.77258 1.45005 0
M  V30 1579 H 132.178 4.72528 3.80529 0
M  V30 1580 H 130.917 3.5452 3.34913 0
M  V30 1581 H 129.922 5.21024 1.75539 0
M  V30 1582 H 131.147 6.41133 2.23887 0
M  V30 1583 H 129.093 5.13385 4.08378 0
M  V30 1584 H 129.01 6.73694 3.43034 0
M  V30 1585 H 130.278 6.33072 4.54797 0
M  V30 1586 N 134.507 -0.190092 1.56449 0
M  V30 1587 C 135.44 -1.26375 1.90012 0
M  V30 1588 C 136.418 -1.43705 0.760765 0
M  V30 1589 O 137.602 -1.59014 1.01226 0
M  V30 1590 C 134.729 -2.62962 2.13468 0
M  V30 1591 C 133.775 -2.62474 3.36169 0
M  V30 1592 S 134.608 -2.13412 4.91137 0
M  V30 1593 C 135.764 -3.51812 5.17667 0
M  V30 1594 H 135.997 -0.977181 2.80782 0
M  V30 1595 H 133.53 -0.393814 1.49293 0
M  V30 1596 H 135.488 -3.41583 2.27664 0
M  V30 1597 H 134.149 -2.88828 1.23439 0
M  V30 1598 H 133.342 -3.62918 3.49723 0
M  V30 1599 H 132.944 -1.91937 3.20992 0
M  V30 1600 H 135.236 -4.47706 5.08494 0
M  V30 1601 H 136.179 -3.43148 6.19399 0
M  V30 1602 H 136.587 -3.46956 4.45288 0
M  V30 1603 N 135.985 -1.50799 -0.457987 0
M  V30 1604 C 136.932 -1.70617 -1.5543 0
M  V30 1605 C 137.902 -0.547562 -1.56815 0
M  V30 1606 O 139.087 -0.779647 -1.74144 0
M  V30 1607 C 136.227 -1.81831 -2.93311 0
M  V30 1608 C 135.34 -3.09278 -3.01615 0
M  V30 1609 C 134.475 -3.11209 -4.30491 0
M  V30 1610 C 133.514 -4.33055 -4.32585 0
M  V30 1611 N 132.651 -4.32652 -5.52952 0
M  V30 1612 H 137.491 -2.64207 -1.37836 0
M  V30 1613 H 135.028 -1.30959 -0.669937 0
M  V30 1614 H 136.986 -1.86314 -3.73287 0
M  V30 1615 H 135.616 -0.916685 -3.0951 0
M  V30 1616 H 134.668 -3.14203 -2.1443 0
M  V30 1617 H 135.98 -3.99233 -2.99022 0
M  V30 1618 H 135.134 -3.14494 -5.18824 0
M  V30 1619 H 133.873 -2.19106 -4.35711 0
M  V30 1620 H 132.878 -4.29969 -3.42647 0
M  V30 1621 H 134.103 -5.264 -4.29046 0
M  V30 1622 H 132.049 -3.43409 -5.58933 0
M  V30 1623 H 131.966 -5.16392 -5.52155 0
M  V30 1624 H 133.234 -4.40101 -6.43375 0
M  V30 1625 N 137.463 0.71206 -1.40597 0
M  V30 1626 C 138.393 1.83889 -1.43899 0
M  V30 1627 C 139.374 1.67442 -0.299504 0
M  V30 1628 O 140.559 1.87421 -0.508624 0
M  V30 1629 C 137.689 3.21877 -1.30431 0
M  V30 1630 C 136.643 3.53002 -2.42019 0
M  V30 1631 C 135.969 4.90172 -2.13626 0
M  V30 1632 C 137.269 3.53643 -3.84362 0
M  V30 1633 H 138.963 1.81383 -2.38203 0
M  V30 1634 H 136.509 0.871237 -1.14654 0
M  V30 1635 H 138.462 4.00404 -1.31357 0
M  V30 1636 H 137.186 3.24968 -0.326049 0
M  V30 1637 H 135.845 2.76818 -2.40349 0
M  V30 1638 H 135.493 4.89869 -1.14182 0
M  V30 1639 H 135.193 5.11962 -2.88389 0
M  V30 1640 H 136.717 5.71028 -2.1624 0
M  V30 1641 H 138.131 4.22203 -3.87837 0
M  V30 1642 H 136.528 3.86961 -4.58673 0
M  V30 1643 H 137.598 2.52954 -4.13693 0
M  V30 1644 N 138.941 1.26152 0.944643 0
M  V30 1645 C 140.218 1.02247 1.66748 0
M  V30 1646 C 140.598 -0.448202 2.06287 0
M  V30 1647 O 139.946 -1.42779 1.78399 0
M  V30 1648 C 140.156 1.96788 2.88228 0
M  V30 1649 C 141.504 2.25201 3.59958 0
M  V30 1650 O 142.528 1.94626 2.98327 0
M  V30 1651 O 141.387 2.77242 4.70956 0
M  V30 1652 H 138.481 0.388517 0.730057 0
M  V30 1653 H 141.027 1.37348 0.99668 0
M  V30 1654 H 139.799 2.96047 2.55875 0
M  V30 1655 H 139.422 1.62145 3.63035 0
M  V30 1656 N 140.419 -1.14872 1.07899 0
M  V30 1657 C 141.649 -1.89386 0.825631 0
M  V30 1658 C 142.057 -1.78565 -0.625406 0
M  V30 1659 O 141.4 -1.13918 -1.44113 0
M  V30 1660 C 141.462 -3.40206 1.16191 0
M  V30 1661 C 141.126 -3.74812 2.61467 0
M  V30 1662 C 142.123 -3.75367 3.59716 0
M  V30 1663 C 139.808 -4.0495 2.97189 0
M  V30 1664 C 141.802 -4.05574 4.9172 0
M  V30 1665 C 139.489 -4.34821 4.29388 0
M  V30 1666 C 140.487 -4.35116 5.26463 0
M  V30 1667 O 140.175 -4.64267 6.56286 0
M  V30 1668 H 139.907 -0.606894 0.297751 0
M  V30 1669 H 142.461 -1.46438 1.44031 0
M  V30 1670 H 140.691 -3.8358 0.490214 0
M  V30 1671 H 142.38 -3.96018 0.890193 0
M  V30 1672 H 143.146 -3.52176 3.33462 0
M  V30 1673 H 139.025 -4.03876 2.22273 0
M  V30 1674 H 142.569 -4.05719 5.67484 0
M  V30 1675 H 138.466 -4.5748 4.55392 0
M  V30 1676 H 139.234 -4.82007 6.61522 0
M  V30 1677 N 141.898 -0.863906 -1.31812 0
M  V30 1678 C 143.147 -0.46801 -1.96195 0
M  V30 1679 C 143.46 0.983474 -1.69077 0
M  V30 1680 O 144.666 1.48523 -2.27273 0
M  V30 1681 C 143.122 -0.785995 -3.51212 0
M  V30 1682 C 142.73 -2.25383 -3.87178 0
M  V30 1683 C 144.474 -0.458274 -4.22019 0
M  V30 1684 C 142.381 -2.51455 -5.3528 0
M  V30 1685 H 141.311 -0.171283 -0.734287 0
M  V30 1686 H 143.962 -1.05597 -1.50072 0
M  V30 1687 H 142.344 -0.127359 -3.95795 0
M  V30 1688 H 143.518 -2.95502 -3.53575 0
M  V30 1689 H 141.833 -2.54698 -3.2942 0
M  V30 1690 H 144.43 -0.630369 -5.30971 0
M  V30 1691 H 144.773 0.600834 -4.11941 0
M  V30 1692 H 145.306 -1.07319 -3.8305 0
M  V30 1693 H 142.045 -3.56025 -5.50387 0
M  V30 1694 H 141.565 -1.85923 -5.70257 0
M  V30 1695 H 143.244 -2.35874 -6.02472 0
M  V30 1696 N 143.376 1.44774 -0.622745 0
M  V30 1697 C 144.306 2.33382 0.0741861 0
M  V30 1698 C 145.287 1.47719 0.843387 0
M  V30 1699 O 146.472 1.76458 0.810934 0
M  V30 1700 C 143.602 3.30663 1.06204 0
M  V30 1701 C 142.556 4.26079 0.405037 0
M  V30 1702 C 141.882 5.13165 1.5022 0
M  V30 1703 C 143.182 5.1781 -0.683414 0
M  V30 1704 H 144.876 2.91905 -0.665713 0
M  V30 1705 H 142.422 1.40363 -0.321587 0
M  V30 1706 H 144.375 3.9153 1.55827 0
M  V30 1707 H 143.099 2.70331 1.83272 0
M  V30 1708 H 141.758 3.66532 -0.0704683 0
M  V30 1709 H 141.406 4.49191 2.26355 0
M  V30 1710 H 141.106 5.77812 1.06803 0
M  V30 1711 H 142.63 5.76902 2.00041 0
M  V30 1712 H 144.044 5.72661 -0.270631 0
M  V30 1713 H 142.441 5.91015 -1.04023 0
M  V30 1714 H 143.511 4.59326 -1.55395 0
M  V30 1715 N 144.854 0.36279 1.53368 0
M  V30 1716 C 146.102 -0.227326 2.00817 0
M  V30 1717 C 146.423 -1.49511 1.25186 0
M  V30 1718 O 145.693 -1.92482 0.364348 0
M  V30 1719 H 144.273 -0.0869923 0.741917 0
M  V30 1720 H 146.935 0.488381 1.88682 0
M  V30 1721 H 146.031 -0.456273 3.08747 0
M  V30 1722 N 146.332 -1.57332 0.0918853 0
M  V30 1723 C 147.262 -2.16872 -0.865371 0
M  V30 1724 C 148.243 -1.10118 -1.29646 0
M  V30 1725 O 149.428 -1.38242 -1.36392 0
M  V30 1726 C 146.558 -2.74649 -2.12569 0
M  V30 1727 C 145.512 -3.86747 -1.83333 0
M  V30 1728 C 144.838 -4.31212 -3.16166 0
M  V30 1729 C 146.138 -5.10089 -1.1228 0
M  V30 1730 H 147.832 -2.97114 -0.369307 0
M  V30 1731 H 145.378 -1.42918 -0.176194 0
M  V30 1732 H 147.331 -3.14952 -2.7997 0
M  V30 1733 H 146.055 -1.91657 -2.64452 0
M  V30 1734 H 144.714 -3.46978 -1.18331 0
M  V30 1735 H 144.362 -3.45115 -3.6593 0
M  V30 1736 H 144.062 -5.06788 -2.97388 0
M  V30 1737 H 145.586 -4.74146 -3.84731 0
M  V30 1738 H 147 -5.47582 -1.69785 0
M  V30 1739 H 145.397 -5.91073 -1.03693 0
M  V30 1740 H 146.467 -4.84786 -0.105041 0
M  V30 1741 N 147.81 0.181792 -1.56548 0
M  V30 1742 C 148.757 1.22521 -1.95595 0
M  V30 1743 C 149.727 1.4454 -0.818373 0
M  V30 1744 O 150.912 1.57454 -1.07763 0
M  V30 1745 C 148.052 2.56193 -2.31212 0
M  V30 1746 C 147.165 2.41641 -3.58097 0
M  V30 1747 C 146.3 3.68108 -3.82975 0
M  V30 1748 C 145.339 3.48445 -5.03242 0
M  V30 1749 N 144.476 4.66956 -5.24306 0
M  V30 1750 H 149.316 0.885226 -2.84548 0
M  V30 1751 H 146.853 0.425718 -1.40805 0
M  V30 1752 H 148.811 3.34088 -2.49882 0
M  V30 1753 H 147.441 2.88208 -1.45382 0
M  V30 1754 H 146.493 1.54976 -3.474 0
M  V30 1755 H 147.805 2.23052 -4.46149 0
M  V30 1756 H 146.959 4.54441 -4.01956 0
M  V30 1757 H 145.698 3.89666 -2.93278 0
M  V30 1758 H 144.703 2.60499 -4.8417 0
M  V30 1759 H 145.928 3.2832 -5.9446 0
M  V30 1760 H 143.874 4.88752 -4.37559 0
M  V30 1761 H 143.791 4.51242 -6.06561 0
M  V30 1762 H 145.059 5.54602 -5.47756 0
M  V30 1763 N 149.288 1.51039 0.449983 0
M  V30 1764 C 150.537 1.62317 1.19733 0
M  V30 1765 C 150.85 0.339101 1.92638 0
M  V30 1766 O 152.056 0.331069 2.69474 0
M  V30 1767 C 150.512 2.86608 2.17678 0
M  V30 1768 C 150.12 4.21972 1.50479 0
M  V30 1769 C 151.864 3.07239 2.92924 0
M  V30 1770 C 149.771 5.37426 2.46834 0
M  V30 1771 H 148.701 0.604532 0.450619 0
M  V30 1772 H 151.352 1.77494 0.465625 0
M  V30 1773 H 149.734 2.65037 2.94231 0
M  V30 1774 H 150.908 4.53878 0.795716 0
M  V30 1775 H 149.223 4.07117 0.874344 0
M  V30 1776 H 151.82 3.90668 3.65079 0
M  V30 1777 H 152.163 2.19807 3.5354 0
M  V30 1778 H 152.696 3.29091 2.23481 0
M  V30 1779 H 149.435 6.27079 1.90926 0
M  V30 1780 H 148.955 5.09912 3.15832 0
M  V30 1781 H 150.634 5.68862 3.08228 0
M  V30 1782 N 150.766 -0.704594 1.40972 0
M  V30 1783 C 151.676 -1.84856 1.44448 0
M  V30 1784 C 152.692 -1.70726 0.335961 0
M  V30 1785 O 153.868 -1.92799 0.582276 0
M  V30 1786 C 150.933 -3.20758 1.31587 0
M  V30 1787 C 149.994 -3.47063 2.52677 0
M  V30 1788 C 149.227 -4.76481 2.4042 0
M  V30 1789 O 149.45 -5.52341 1.42391 0
M  V30 1790 O 148.384 -5.03367 3.30007 0
M  V30 1791 H 152.21 -1.8488 2.40942 0
M  V30 1792 H 149.795 -0.85647 1.22413 0
M  V30 1793 H 151.677 -4.01913 1.26665 0
M  V30 1794 H 150.352 -3.21438 0.382049 0
M  V30 1795 H 149.259 -2.65873 2.63177 0
M  V30 1796 H 150.592 -3.5119 3.44858 0
M  V30 1797 N 152.244 -1.26651 -0.937939 0
M  V30 1798 C 153.521 -1.0313 -1.66204 0
M  V30 1799 C 153.901 0.437256 -2.06522 0
M  V30 1800 O 153.249 1.41831 -1.79154 0
M  V30 1801 C 153.459 -1.98314 -2.87181 0
M  V30 1802 C 154.807 -2.27107 -3.58758 0
M  V30 1803 O 155.831 -1.96205 -2.97291 0
M  V30 1804 O 154.69 -2.79736 -4.69479 0
M  V30 1805 H 151.784 -0.392384 -0.727986 0
M  V30 1806 H 154.33 -1.37874 -0.989382 0
M  V30 1807 H 153.102 -2.97399 -2.54302 0
M  V30 1808 H 152.725 -1.64068 -3.6217 0
M  V30 1809 N 153.722 1.14298 -1.08507 0
M  V30 1810 C 154.969 1.85359 -0.815373 0
M  V30 1811 C 155.297 1.83001 0.658865 0
M  V30 1812 O 154.552 1.25655 1.50031 0
M  V30 1813 C 154.851 3.33547 -1.28379 0
M  V30 1814 C 154.517 3.56093 -2.76602 0
M  V30 1815 C 153.179 3.61955 -3.17084 0
M  V30 1816 C 155.531 3.64834 -3.72217 0
M  V30 1817 C 152.859 3.74082 -4.51973 0
M  V30 1818 C 155.211 3.78487 -5.06883 0
M  V30 1819 C 153.875 3.82598 -5.46969 0
M  V30 1820 H 153.145 0.678276 -0.298366 0
M  V30 1821 H 155.792 1.35002 -1.35819 0
M  V30 1822 H 154.097 3.86191 -0.660593 0
M  V30 1823 H 155.794 3.86959 -1.05186 0
M  V30 1824 H 152.384 3.52179 -2.4427 0
M  V30 1825 H 156.568 3.59595 -3.42061 0
M  V30 1826 H 151.824 3.75527 -4.82483 0
M  V30 1827 H 155.998 3.84193 -5.80834 0
M  V30 1828 H 153.625 3.91747 -6.51489 0
M  V30 1829 N 155.201 0.870884 1.31352 0
M  V30 1830 C 156.131 0.343096 2.30966 0
M  V30 1831 C 157.112 -0.566507 1.60389 0
M  V30 1832 O 158.297 -0.483336 1.88089 0
M  V30 1833 C 155.427 -0.455487 3.443 0
M  V30 1834 C 154.381 0.361103 4.26474 0
M  V30 1835 C 153.707 -0.563221 5.31725 0
M  V30 1836 C 155.007 1.59566 4.97329 0
M  V30 1837 H 156.701 1.17548 2.75359 0
M  V30 1838 H 154.247 0.566686 1.32381 0
M  V30 1839 H 156.2 -0.83525 4.13039 0
M  V30 1840 H 154.924 -1.32139 2.98675 0
M  V30 1841 H 153.583 0.722825 3.59403 0
M  V30 1842 H 153.231 -1.42643 4.82351 0
M  V30 1843 H 152.931 -0.0207409 5.87596 0
M  V30 1844 H 154.455 -0.939808 6.03324 0
M  V30 1845 H 155.869 1.28728 5.58661 0
M  V30 1846 H 154.266 2.07728 5.63 0
M  V30 1847 H 155.336 2.34798 4.24262 0
M  V30 1848 N 156.679 -1.44442 0.630414 0
M  V30 1849 C 157.589 -2.34476 -0.0761693 0
M  V30 1850 C 158.605 -1.52576 -0.836449 0
M  V30 1851 O 159.781 -1.85307 -0.788874 0
M  V30 1852 C 156.846 -3.30545 -1.04599 0
M  V30 1853 C 155.907 -4.28352 -0.28516 0
M  V30 1854 C 155.14 -5.19831 -1.20878 0
M  V30 1855 O 155.363 -5.15223 -2.44747 0
M  V30 1856 O 154.297 -5.97892 -0.693491 0
M  V30 1857 H 158.123 -2.96345 0.664324 0
M  V30 1858 H 155.708 -1.44203 0.39061 0
M  V30 1859 H 157.59 -3.89681 -1.60396 0
M  V30 1860 H 156.265 -2.7121 -1.76711 0
M  V30 1861 H 155.172 -3.72764 0.315837 0
M  V30 1862 H 156.505 -4.90605 0.395924 0
M  V30 1863 N 158.157 -0.370918 -1.53173 0
M  V30 1864 C 159.573 -0.0200818 -1.59587 0
M  V30 1865 C 159.773 1.46279 -1.38581 0
M  V30 1866 O 158.829 2.22506 -1.19363 0
M  V30 1867 C 160.142 -0.4808 -2.96831 0
M  V30 1868 C 161.69 -0.435477 -3.09956 0
M  V30 1869 C 162.165 -0.872092 -4.4962 0
M  V30 1870 N 163.656 -0.827364 -4.55751 0
M  V30 1871 C 164.391 -1.13683 -5.62018 0
M  V30 1872 N 163.887 -1.51584 -6.76014 0
M  V30 1873 N 165.68 -1.05927 -5.52029 0
M  V30 1874 H 157.831 -1.33652 -1.65079 0
M  V30 1875 H 160.094 -0.546634 -0.774529 0
M  V30 1876 H 159.8 -1.51577 -3.1736 0
M  V30 1877 H 159.674 0.129796 -3.76977 0
M  V30 1878 H 162.061 0.590371 -2.89134 0
M  V30 1879 H 162.142 -1.08164 -2.31806 0
M  V30 1880 H 161.786 -1.89608 -4.71181 0
M  V30 1881 H 161.716 -0.203127 -5.26208 0
M  V30 1882 H 164.207 -0.548216 -3.73902 0
M  V30 1883 H 164.52 -1.73609 -7.53047 0
M  V30 1884 H 162.865 -1.55454 -6.77391 0
M  V30 1885 H 166.056 -0.762321 -4.61851 0
M  V30 1886 H 166.229 -1.30378 -6.34749 0
M  V30 1887 N 159.635 1.57281 -0.100228 0
M  V30 1888 C 161.051 1.57527 0.256416 0
M  V30 1889 C 161.251 1.11173 1.68056 0
M  V30 1890 O 160.307 0.79053 2.39806 0
M  V30 1891 C 161.62 3.00673 0.0401747 0
M  V30 1892 C 163.168 3.12815 0.107528 0
M  V30 1893 C 163.643 4.57929 -0.0807834 0
M  V30 1894 N 165.134 4.63193 -0.0261207 0
M  V30 1895 C 165.869 5.73212 -0.146999 0
M  V30 1896 N 165.365 6.92047 -0.322999 0
M  V30 1897 N 167.158 5.62031 -0.0879044 0
M  V30 1898 H 159.309 1.85718 -1.03065 0
M  V30 1899 H 161.572 0.857446 -0.404339 0
M  V30 1900 H 161.278 3.38804 -0.943649 0
M  V30 1901 H 161.152 3.69042 0.780262 0
M  V30 1902 H 163.539 2.74554 1.08186 0
M  V30 1903 H 163.62 2.47028 -0.664134 0
M  V30 1904 H 163.264 4.96886 -1.05201 0
M  V30 1905 H 163.194 5.21783 0.710635 0
M  V30 1906 H 165.685 3.77748 0.107161 0
M  V30 1907 H 165.998 7.7173 -0.406608 0
M  V30 1908 H 164.343 6.94074 -0.358733 0
M  V30 1909 H 167.534 4.68075 0.048498 0
M  V30 1910 H 167.707 6.47734 -0.185557 0
M  V30 1911 N 161.113 -0.173488 1.56642 0
M  V30 1912 C 162.043 -1.2171 1.99271 0
M  V30 1913 C 163.024 -1.46289 0.867959 0
M  V30 1914 O 164.209 -1.5766 1.13388 0
M  V30 1915 C 161.339 -2.55651 2.35074 0
M  V30 1916 C 160.293 -2.45645 3.50489 0
M  V30 1917 C 159.619 -3.84056 3.72028 0
M  V30 1918 C 160.919 -1.96302 4.84007 0
M  V30 1919 H 162.613 -0.86275 2.867 0
M  V30 1920 H 160.159 -0.413571 1.37933 0
M  V30 1921 H 162.112 -3.2886 2.63494 0
M  V30 1922 H 160.836 -2.92869 1.44552 0
M  V30 1923 H 159.495 -1.7489 3.22194 0
M  V30 1924 H 159.143 -4.18664 2.788 0
M  V30 1925 H 158.843 -3.7823 4.49684 0
M  V30 1926 H 160.367 -4.58854 4.02846 0
M  V30 1927 H 161.781 -2.59284 5.11317 0
M  V30 1928 H 160.178 -2.01429 5.65284 0
M  V30 1929 H 161.248 -0.917226 4.76146 0
M  V30 1930 N 162.591 -1.51276 -0.441967 0
M  V30 1931 C 163.523 -1.68444 -1.55433 0
M  V30 1932 C 164.536 -0.565187 -1.52674 0
M  V30 1933 O 165.725 -0.839356 -1.57534 0
M  V30 1934 C 162.825 -1.67966 -2.94348 0
M  V30 1935 C 161.998 -2.964 -3.21661 0
M  V30 1936 C 161.057 -2.88171 -4.40277 0
M  V30 1937 O 160.083 -3.62119 -4.39157 0
M  V30 1938 N 161.285 -2.03706 -5.43584 0
M  V30 1939 H 164.05 -2.644 -1.41112 0
M  V30 1940 H 161.611 -1.49104 -0.630838 0
M  V30 1941 H 163.603 -1.60035 -3.71713 0
M  V30 1942 H 162.173 -0.796225 -3.0229 0
M  V30 1943 H 161.393 -3.18234 -2.32638 0
M  V30 1944 H 162.681 -3.81427 -3.36736 0
M  V30 1945 H 162.079 -1.42995 -5.47329 0
M  V30 1946 H 160.636 -2.01658 -6.1982 0
M  V30 1947 N 164.069 0.697108 -1.41344 0
M  V30 1948 C 165.297 1.48593 -1.43972 0
M  V30 1949 C 165.712 1.88747 -0.0445612 0
M  V30 1950 O 165.069 1.56682 0.935785 0
M  V30 1951 C 165.12 2.74946 -2.34706 0
M  V30 1952 O 164.841 2.36484 -3.68791 0
M  V30 1953 C 166.342 3.687 -2.46121 0
M  V30 1954 H 163.562 0.457964 -0.490418 0
M  V30 1955 H 166.106 0.858429 -1.8561 0
M  V30 1956 H 164.261 3.33937 -1.9638 0
M  V30 1957 H 164.675 3.17918 -4.17167 0
M  V30 1958 H 166.149 4.54145 -3.13777 0
M  V30 1959 H 166.626 4.13081 -1.49199 0
M  V30 1960 H 167.232 3.15613 -2.85076 0
M  V30 1961 N 165.547 1.27147 0.931209 0
M  V30 1962 C 166.479 1.05364 2.03546 0
M  V30 1963 C 167.492 0.0108438 1.62796 0
M  V30 1964 O 168.681 0.25202 1.76712 0
M  V30 1965 C 165.781 0.575566 3.33977 0
M  V30 1966 C 164.954 1.68985 4.03439 0
M  V30 1967 C 164.013 1.20813 5.12143 0
M  V30 1968 O 163.039 1.90712 5.363 0
M  V30 1969 N 164.241 0.0618851 5.80467 0
M  V30 1970 H 167.006 2.00454 2.22796 0
M  V30 1971 H 164.567 1.18666 1.10136 0
M  V30 1972 H 166.559 0.237264 4.04004 0
M  V30 1973 H 165.129 -0.282016 3.11325 0
M  V30 1974 H 164.349 2.19861 3.27192 0
M  V30 1975 H 165.637 2.4378 4.46597 0
M  V30 1976 H 165.035 -0.521621 5.6329 0
M  V30 1977 H 163.592 -0.217264 6.51438 0
M  V30 1978 N 167.025 -1.13721 1.09112 0
M  V30 1979 C 168.271 -1.85198 0.826414 0
M  V30 1980 C 168.604 -1.83129 -0.646319 0
M  V30 1981 O 167.879 -1.2671 -1.47563 0
M  V30 1982 C 168.162 -3.33507 1.35812 0
M  V30 1983 C 168.015 -3.44108 2.89672 0
M  V30 1984 C 169.334 -4.28838 0.989256 0
M  V30 1985 H 166.453 -0.67243 0.301675 0
M  V30 1986 H 169.095 -1.33499 1.35197 0
M  V30 1987 H 167.245 -3.77666 0.911082 0
M  V30 1988 H 168.917 -3.08684 3.428 0
M  V30 1989 H 167.16 -2.85087 3.26967 0
M  V30 1990 H 167.831 -4.48388 3.21951 0
M  V30 1991 H 170.307 -3.92734 1.37475 0
M  V30 1992 H 169.183 -5.31051 1.38838 0
M  V30 1993 H 169.444 -4.4198 -0.102924 0
M  V30 1994 N 168.503 -0.877838 -1.30888 0
M  V30 1995 C 169.75 -0.492696 -1.96415 0
M  V30 1996 C 170.078 0.956671 -1.69346 0
M  V30 1997 O 169.333 1.68993 -0.986913 0
M  V30 1998 C 169.632 -0.705748 -3.50363 0
M  V30 1999 C 169.298 -2.1291 -3.97467 0
M  V30 2000 C 167.96 -2.51834 -4.1004 0
M  V30 2001 C 170.312 -3.05702 -4.22132 0
M  V30 2002 C 167.64 -3.82775 -4.44635 0
M  V30 2003 C 169.992 -4.36166 -4.58194 0
M  V30 2004 C 168.656 -4.74993 -4.68975 0
M  V30 2005 H 167.926 -0.18029 -0.718733 0
M  V30 2006 H 170.573 -1.11233 -1.55883 0
M  V30 2007 H 168.878 -0.00303058 -3.918 0
M  V30 2008 H 170.575 -0.387456 -3.99124 0
M  V30 2009 H 167.165 -1.81694 -3.88182 0
M  V30 2010 H 171.349 -2.76853 -4.11906 0
M  V30 2011 H 166.605 -4.12609 -4.51181 0
M  V30 2012 H 170.779 -5.08111 -4.76231 0
M  V30 2013 H 168.406 -5.76495 -4.95537 0
M  V30 2014 N 169.982 1.44106 -0.638065 0
M  V30 2015 C 170.929 2.30715 0.062701 0
M  V30 2016 C 171.899 1.43882 0.829883 0
M  V30 2017 O 173.084 1.72775 0.809532 0
M  V30 2018 C 170.224 3.29258 1.03358 0
M  V30 2019 C 169.337 4.31192 0.26409 0
M  V30 2020 C 168.472 5.16825 1.22741 0
M  V30 2021 C 167.511 6.10462 0.447475 0
M  V30 2022 N 166.648 6.8877 1.36161 0
M  V30 2023 H 171.488 2.90096 -0.681781 0
M  V30 2024 H 169.025 1.42925 -0.347988 0
M  V30 2025 H 170.983 3.84886 1.60992 0
M  V30 2026 H 169.613 2.71562 1.74511 0
M  V30 2027 H 168.665 3.77981 -0.428295 0
M  V30 2028 H 169.977 4.97619 -0.343052 0
M  V30 2029 H 169.131 5.77004 1.87487 0
M  V30 2030 H 167.87 4.50488 1.86847 0
M  V30 2031 H 166.875 5.49386 -0.213433 0
M  V30 2032 H 168.1 6.78837 -0.188968 0
M  V30 2033 H 166.046 6.25096 1.98975 0
M  V30 2034 H 165.963 7.51663 0.808656 0
M  V30 2035 H 167.231 7.53467 1.99769 0
M  V30 2036 N 171.46 0.379036 1.52974 0
M  V30 2037 C 172.39 -0.452706 2.29069 0
M  V30 2038 C 173.371 -1.07237 1.32039 0
M  V30 2039 O 174.556 -1.08708 1.60923 0
M  V30 2040 C 171.686 -1.5856 3.08992 0
M  V30 2041 C 170.64 -1.0925 4.13822 0
M  V30 2042 C 169.966 -2.31668 4.81907 0
M  V30 2043 C 171.266 -0.167702 5.22031 0
M  V30 2044 H 172.96 0.182181 2.98845 0
M  V30 2045 H 170.506 0.0890592 1.43724 0
M  V30 2046 H 172.459 -2.1742 3.6098 0
M  V30 2047 H 171.183 -2.24792 2.36931 0
M  V30 2048 H 169.842 -0.526494 3.628 0
M  V30 2049 H 169.49 -2.96386 4.06404 0
M  V30 2050 H 169.19 -1.9934 5.52754 0
M  V30 2051 H 170.714 -2.91189 5.36695 0
M  V30 2052 H 172.128 -0.664186 5.6944 0
M  V30 2053 H 170.525 0.0653265 6.00064 0
M  V30 2054 H 171.595 0.786347 4.78482 0
M  V30 2055 N 172.938 -1.57226 0.108567 0
M  V30 2056 C 174.186 -1.94448 -0.550853 0
M  V30 2057 C 174.507 -0.992074 -1.67878 0
M  V30 2058 O 173.777 -0.0465 -1.95845 0
M  V30 2059 H 172.357 -0.717897 -0.206479 0
M  V30 2060 H 175.019 -1.94112 0.175062 0
M  V30 2061 H 174.115 -2.97218 -0.952259 0
M  V30 2062 N 174.416 0.165178 -1.56732 0
M  V30 2063 C 175.346 1.20651 -1.99914 0
M  V30 2064 C 176.327 1.45827 -0.875705 0
M  V30 2065 O 177.512 1.57057 -1.14223 0
M  V30 2066 C 174.642 2.54401 -2.36427 0
M  V30 2067 C 173.596 2.43782 -3.51787 0
M  V30 2068 C 172.922 3.82078 -3.7406 0
M  V30 2069 C 174.222 1.93732 -4.85041 0
M  V30 2070 H 175.916 0.847534 -2.87154 0
M  V30 2071 H 173.462 0.40625 -1.38151 0
M  V30 2072 H 175.415 3.27458 -2.65234 0
M  V30 2073 H 174.139 2.92098 -1.46103 0
M  V30 2074 H 172.798 1.73178 -3.23117 0
M  V30 2075 H 172.446 4.17179 -2.81017 0
M  V30 2076 H 172.146 3.7584 -4.51684 0
M  V30 2077 H 173.67 4.56712 -4.05274 0
M  V30 2078 H 175.084 2.56569 -5.12684 0
M  V30 2079 H 173.481 1.98428 -5.66345 0
M  V30 2080 H 174.551 0.891962 -4.76626 0
M  V30 2081 N 175.894 1.51508 0.433938 0
M  V30 2082 C 176.857 1.72473 1.50949 0
M  V30 2083 C 177.857 0.594725 1.49398 0
M  V30 2084 O 179.047 0.862315 1.5136 0
M  V30 2085 C 176.179 1.78431 2.90474 0
M  V30 2086 H 177.372 2.68467 1.33662 0
M  V30 2087 H 174.925 1.41549 0.662836 0
M  V30 2088 H 175.66 0.842645 3.13161 0
M  V30 2089 H 175.445 2.60558 2.93005 0
M  V30 2090 H 176.935 1.96479 3.68491 0
M  V30 2091 N 177.372 -0.689602 1.41712 0
M  V30 2092 C 178.319 -1.80345 1.44029 0
M  V30 2093 C 179.289 -1.63478 0.293948 0
M  V30 2094 O 180.474 -1.84244 0.495869 0
M  V30 2095 C 177.614 -3.18272 1.33405 0
M  V30 2096 C 176.727 -3.46529 2.57956 0
M  V30 2097 C 175.862 -4.74103 2.39582 0
M  V30 2098 C 174.901 -4.95347 3.5958 0
M  V30 2099 N 174.038 -6.14151 3.40239 0
M  V30 2100 H 178.878 -1.77698 2.39222 0
M  V30 2101 H 176.415 -0.867688 1.18784 0
M  V30 2102 H 178.373 -3.97956 1.25246 0
M  V30 2103 H 177.003 -3.2008 0.418164 0
M  V30 2104 H 176.055 -2.61207 2.76542 0
M  V30 2105 H 177.367 -3.58126 3.47199 0
M  V30 2106 H 176.521 -5.61853 2.28924 0
M  V30 2107 H 175.26 -4.64763 1.47805 0
M  V30 2108 H 174.265 -4.06044 3.70686 0
M  V30 2109 H 175.49 -5.06542 4.52318 0
M  V30 2110 H 173.436 -6.06013 2.51167 0
M  V30 2111 H 173.353 -6.26543 4.23061 0
M  V30 2112 H 174.621 -7.04619 3.33365 0
M  V30 2113 N 178.85 -1.27639 -0.924453 0
M  V30 2114 C 180.075 -1.17101 -1.71179 0
M  V30 2115 C 180.5 0.268134 -1.86179 0
M  V30 2116 O 179.858 1.19415 -1.36418 0
M  V30 2117 C 179.906 -1.86313 -3.08739 0
M  V30 2118 O 179.01 -1.16331 -3.95652 0
M  V30 2119 H 178.351 -0.407091 -0.524569 0
M  V30 2120 H 180.881 -1.68767 -1.15666 0
M  V30 2121 H 180.891 -1.938 -3.59034 0
M  V30 2122 H 179.566 -2.91001 -2.97138 0
M  V30 2123 H 178.143 -1.16935 -3.54091 0
M  V30 2124 N 180.328 1.1314 -1.09713 0
M  V30 2125 C 181.577 1.83838 -0.829851 0
M  V30 2126 C 181.89 1.84599 0.646728 0
M  V30 2127 O 183.096 2.51218 1.02965 0
M  V30 2128 C 181.552 3.30069 -1.43466 0
M  V30 2129 C 181.16 3.37688 -2.94399 0
M  V30 2130 C 182.904 4.05788 -1.24645 0
M  V30 2131 C 180.811 4.78209 -3.47952 0
M  V30 2132 H 179.741 0.68877 -0.306777 0
M  V30 2133 H 182.392 1.27448 -1.3202 0
M  V30 2134 H 180.774 3.8628 -0.871996 0
M  V30 2135 H 181.948 2.91456 -3.56918 0
M  V30 2136 H 180.263 2.75436 -3.12289 0
M  V30 2137 H 182.86 5.09535 -1.62107 0
M  V30 2138 H 183.203 4.15878 -0.187357 0
M  V30 2139 H 183.736 3.55915 -1.77678 0
M  V30 2140 H 180.475 4.73311 -4.53495 0
M  V30 2141 H 179.995 5.24924 -2.90198 0
M  V30 2142 H 181.674 5.47133 -3.45332 0
M  V30 2143 N 181.806 0.884767 1.30421 0
M  V30 2144 C 182.756 0.322846 2.25703 0
M  V30 2145 C 183.74 -0.548582 1.51259 0
M  V30 2146 O 184.932 -0.39304 1.72581 0
M  V30 2147 C 182.061 -0.461787 3.4018 0
M  V30 2148 C 181.147 0.423717 4.21978 0
M  V30 2149 N 181.538 1.52408 4.82292 0
M  V30 2150 C 179.836 0.218795 4.45463 0
M  V30 2151 C 180.537 2.07136 5.43571 0
M  V30 2152 N 179.513 1.36635 5.26148 0
M  V30 2153 H 183.315 1.16363 2.69883 0
M  V30 2154 H 180.829 0.73415 1.44859 0
M  V30 2155 H 182.826 -0.880985 4.07485 0
M  V30 2156 H 181.486 -1.30001 2.9754 0
M  V30 2157 H 182.497 1.90693 4.81515 0
M  V30 2158 H 179.174 -0.582275 4.1342 0
M  V30 2159 H 180.564 2.99538 6.01437 0
M  V30 2160 N 183.284 -1.43765 0.645699 0
M  V30 2161 C 184.234 -2.27884 -0.0726442 0
M  V30 2162 C 185.218 -1.39483 -0.802086 0
M  V30 2163 O 186.41 -1.63174 -0.685791 0
M  V30 2164 C 183.539 -3.27055 -1.04356 0
M  V30 2165 C 182.625 -4.22944 -0.312985 0
M  V30 2166 N 183.016 -5.01391 0.666386 0
M  V30 2167 C 181.314 -4.42528 -0.55546 0
M  V30 2168 C 182.015 -5.71217 1.09935 0
M  V30 2169 N 180.991 -5.41856 0.435137 0
M  V30 2170 H 184.793 -2.85949 0.678988 0
M  V30 2171 H 182.307 -1.55378 0.472368 0
M  V30 2172 H 184.304 -3.86089 -1.57292 0
M  V30 2173 H 182.964 -2.70551 -1.79534 0
M  V30 2174 H 183.975 -5.07252 1.04481 0
M  V30 2175 H 180.652 -3.97104 -1.28899 0
M  V30 2176 H 182.042 -6.44202 1.90929 0
M  V30 2177 N 184.763 -0.387143 -1.52771 0
M  V30 2178 C 185.726 0.436939 -2.24997 0
M  V30 2179 C 186.726 0.991991 -1.26555 0
M  V30 2180 O 187.916 0.874335 -1.50669 0
M  V30 2181 C 185.048 1.61281 -3.00335 0
M  V30 2182 H 186.241 -0.195365 -2.99263 0
M  V30 2183 H 183.794 -0.139218 -1.55679 0
M  V30 2184 H 184.529 2.2826 -2.30364 0
M  V30 2185 H 184.314 1.22154 -3.72587 0
M  V30 2186 H 185.804 2.19629 -3.5518 0
M  V30 2187 N 186.241 1.57166 -0.116904 0
M  V30 2188 C 187.657 1.5779 0.239693 0
M  V30 2189 C 187.857 1.1295 1.66867 0
M  V30 2190 O 186.913 0.81592 2.38954 0
M  V30 2191 C 188.226 3.00699 0.00828202 0
M  V30 2192 C 189.774 3.12912 0.0743438 0
M  V30 2193 C 190.249 4.57817 -0.129348 0
M  V30 2194 N 191.74 4.63139 -0.075247 0
M  V30 2195 C 192.475 5.73023 -0.207788 0
M  V30 2196 N 191.971 6.91665 -0.396382 0
M  V30 2197 N 193.764 5.61906 -0.14751 0
M  V30 2198 H 185.915 1.84615 -1.05029 0
M  V30 2199 H 188.178 0.85311 -0.41341 0
M  V30 2200 H 187.884 3.37784 -0.979531 0
M  V30 2201 H 187.758 3.69848 0.741077 0
M  V30 2202 H 190.145 2.75686 1.05268 0
M  V30 2203 H 190.226 2.4631 -0.690297 0
M  V30 2204 H 189.87 4.95742 -1.10465 0
M  V30 2205 H 189.8 5.22507 0.655253 0
M  V30 2206 H 192.291 3.7784 0.0670898 0
M  V30 2207 H 192.604 7.71255 -0.488437 0
M  V30 2208 H 190.949 6.93654 -0.432329 0
M  V30 2209 H 194.14 4.681 -0.00115036 0
M  V30 2210 H 194.313 6.47501 -0.254247 0
M  V30 2211 N 187.719 -0.156864 1.56817 0
M  V30 2212 C 188.965 -0.872416 1.83076 0
M  V30 2213 C 189.298 -1.81261 0.697001 0
M  V30 2214 O 188.573 -1.92171 -0.30008 0
M  V30 2215 C 188.856 -1.65551 3.19789 0
M  V30 2216 C 188.709 -0.737467 4.43713 0
M  V30 2217 C 190.028 -2.62012 3.53606 0
M  V30 2218 H 187.147 -0.315715 0.665953 0
M  V30 2219 H 189.789 -0.138004 1.89498 0
M  V30 2220 H 187.939 -2.28159 3.14445 0
M  V30 2221 H 189.611 -0.123143 4.61136 0
M  V30 2222 H 187.854 -0.0464067 4.33775 0
M  V30 2223 H 188.525 -1.32122 5.35955 0
M  V30 2224 H 191.001 -2.09525 3.59497 0
M  V30 2225 H 189.877 -3.13861 4.50314 0
M  V30 2226 H 190.138 -3.42902 2.79053 0
M  V30 2227 N 189.197 -1.51736 -0.425897 0
M  V30 2228 C 190.127 -1.76827 -1.52494 0
M  V30 2229 C 191.108 -0.618524 -1.58456 0
M  V30 2230 O 192.293 -0.862416 -1.74 0
M  V30 2231 C 189.423 -1.90374 -2.90474 0
M  V30 2232 C 188.377 -3.0588 -2.99369 0
M  V30 2233 C 187.703 -3.04625 -4.3944 0
M  V30 2234 C 189.003 -4.45644 -2.72394 0
M  V30 2235 H 190.697 -2.68855 -1.31748 0
M  V30 2236 H 188.243 -1.29372 -0.632362 0
M  V30 2237 H 190.196 -2.0651 -3.6733 0
M  V30 2238 H 188.92 -0.95004 -3.12477 0
M  V30 2239 H 187.579 -2.89467 -2.24954 0
M  V30 2240 H 187.227 -2.0701 -4.58428 0
M  V30 2241 H 186.927 -3.82195 -4.46319 0
M  V30 2242 H 188.451 -3.22869 -5.18255 0
M  V30 2243 H 189.865 -4.62348 -3.38979 0
M  V30 2244 H 188.262 -5.25006 -2.9067 0
M  V30 2245 H 189.332 -4.54893 -1.67929 0
M  V30 2246 N 190.675 0.682077 -1.42076 0
M  V30 2247 C 191.924 1.43786 -1.41451 0
M  V30 2248 C 192.237 1.95574 -0.0317074 0
M  V30 2249 O 193.443 2.71326 0.0971462 0
M  V30 2250 C 191.899 2.60071 -2.48779 0
M  V30 2251 C 191.507 2.15013 -3.93031 0
M  V30 2252 C 193.251 3.37626 -2.57311 0
M  V30 2253 C 191.158 3.28336 -4.91883 0
M  V30 2254 H 190.088 0.540143 -0.526082 0
M  V30 2255 H 192.739 0.739157 -1.67955 0
M  V30 2256 H 191.121 3.32275 -2.15429 0
M  V30 2257 H 192.295 1.5001 -4.35699 0
M  V30 2258 H 190.61 1.50416 -3.88284 0
M  V30 2259 H 193.207 4.22012 -3.28345 0
M  V30 2260 H 193.55 3.83727 -1.61429 0
M  V30 2261 H 194.083 2.72488 -2.89819 0
M  V30 2262 H 190.822 2.87234 -5.89217 0
M  V30 2263 H 190.342 3.92145 -4.53853 0
M  V30 2264 H 192.021 3.93913 -5.13265 0
M  V30 2265 N 192.153 1.28127 0.917671 0
M  V30 2266 C 193.569 1.05749 1.19538 0
M  V30 2267 C 193.769 -0.202633 2.00479 0
M  V30 2268 O 192.825 -0.905382 2.3571 0
M  V30 2269 C 194.138 2.30273 1.93378 0
M  V30 2270 C 195.686 2.35412 2.06277 0
M  V30 2271 C 196.161 3.59692 2.83524 0
M  V30 2272 N 197.652 3.60309 2.91087 0
M  V30 2273 C 198.387 4.53147 3.51348 0
M  V30 2274 N 197.883 5.563 4.12919 0
M  V30 2275 N 199.676 4.40751 3.48849 0
M  V30 2276 H 191.827 2.09024 0.377184 0
M  V30 2277 H 194.09 0.919798 0.22951 0
M  V30 2278 H 193.796 3.22055 1.41328 0
M  V30 2279 H 193.67 2.36378 2.93947 0
M  V30 2280 H 196.057 1.4413 2.57508 0
M  V30 2281 H 196.138 2.33304 1.04895 0
M  V30 2282 H 195.782 4.51316 2.32973 0
M  V30 2283 H 195.712 3.59054 3.85211 0
M  V30 2284 H 198.203 2.85714 2.47338 0
M  V30 2285 H 198.516 6.2329 4.56869 0
M  V30 2286 H 196.861 5.60131 4.11435 0
M  V30 2287 H 200.052 3.59367 2.99955 0
M  V30 2288 H 200.225 5.13291 3.9552 0
M  V30 2289 N 193.631 -1.12557 1.10312 0
M  V30 2290 C 194.563 -2.17971 0.708625 0
M  V30 2291 C 195.576 -1.60806 -0.254027 0
M  V30 2292 O 196.765 -1.78458 -0.0386891 0
M  V30 2293 C 193.865 -3.38891 0.0248198 0
M  V30 2294 C 193.038 -4.25548 1.01132 0
M  V30 2295 C 192.097 -5.24972 0.35924 0
M  V30 2296 O 191.123 -5.60174 1.00965 0
M  V30 2297 N 192.325 -5.73747 -0.882847 0
M  V30 2298 H 195.09 -2.52427 1.61557 0
M  V30 2299 H 192.651 -1.27967 0.991771 0
M  V30 2300 H 194.643 -4.02485 -0.422852 0
M  V30 2301 H 193.213 -3.02596 -0.784514 0
M  V30 2302 H 192.433 -3.58589 1.6373 0
M  V30 2303 H 193.721 -4.80294 1.67914 0
M  V30 2304 H 193.119 -5.4731 -1.43065 0
M  V30 2305 H 191.676 -6.39234 -1.27369 0
M  V30 2306 N 195.109 -0.891671 -1.2995 0
M  V30 2307 C 196.525 -0.58662 -1.48428 0
M  V30 2308 C 196.725 0.873951 -1.81561 0
M  V30 2309 O 195.781 1.65471 -1.90724 0
M  V30 2310 C 197.094 -1.50553 -2.60296 0
M  V30 2311 C 198.642 -1.50988 -2.74175 0
M  V30 2312 C 199.117 -2.41488 -3.89163 0
M  V30 2313 N 200.608 -2.39489 -3.96483 0
M  V30 2314 C 201.343 -3.06223 -4.84784 0
M  V30 2315 N 200.839 -3.82206 -5.77833 0
M  V30 2316 N 202.632 -2.95421 -4.78208 0
M  V30 2317 H 194.783 -1.83644 -1.06718 0
M  V30 2318 H 197.046 -0.786455 -0.529332 0
M  V30 2319 H 196.752 -2.54581 -2.42654 0
M  V30 2320 H 196.626 -1.22008 -3.56923 0
M  V30 2321 H 199.013 -0.47708 -2.91218 0
M  V30 2322 H 199.094 -1.83567 -1.78148 0
M  V30 2323 H 198.738 -3.44857 -3.72876 0
M  V30 2324 H 198.668 -2.06222 -4.84541 0
M  V30 2325 H 201.159 -1.84278 -3.29924 0
M  V30 2326 H 201.472 -4.302 -6.41988 0
M  V30 2327 H 199.817 -3.86313 -5.77743 0
M  V30 2328 H 203.008 -2.35581 -4.04499 0
M  V30 2329 H 203.181 -3.47704 -5.46814 0
M  V30 2330 N 196.587 1.43421 -0.653314 0
M  V30 2331 C 197.537 2.2792 0.060558 0
M  V30 2332 C 198.521 1.39906 0.794677 0
M  V30 2333 O 199.713 1.63536 0.677128 0
M  V30 2334 C 196.842 3.27603 1.0262 0
M  V30 2335 C 195.928 4.23104 0.290551 0
M  V30 2336 N 196.319 5.01031 -0.692967 0
M  V30 2337 C 194.617 4.42816 0.531984 0
M  V30 2338 C 195.318 5.70626 -1.12963 0
M  V30 2339 N 194.294 5.41617 -0.463867 0
M  V30 2340 H 198.096 2.85585 -0.694143 0
M  V30 2341 H 195.61 1.55126 -0.480602 0
M  V30 2342 H 197.607 3.86918 1.55242 0
M  V30 2343 H 196.267 2.71499 1.78096 0
M  V30 2344 H 197.278 5.0669 -1.07169 0
M  V30 2345 H 193.955 3.97782 1.26791 0
M  V30 2346 H 195.345 6.4318 -1.94343 0
M  V30 2347 N 198.065 0.39524 1.52563 0
M  V30 2348 C 199.314 -0.186321 2.00838 0
M  V30 2349 C 199.627 -1.47402 1.28577 0
M  V30 2350 O 200.833 -2.13599 1.67593 0
M  V30 2351 C 199.289 -0.382595 3.57861 0
M  V30 2352 C 198.897 0.892202 4.39026 0
M  V30 2353 C 200.641 -0.9202 4.14406 0
M  V30 2354 C 198.548 0.66388 5.87662 0
M  V30 2355 H 197.478 -0.0734041 0.750418 0
M  V30 2356 H 200.129 0.518552 1.76021 0
M  V30 2357 H 198.511 -1.14946 3.7895 0
M  V30 2358 H 199.685 1.66414 4.29701 0
M  V30 2359 H 198 1.35519 3.9373 0
M  V30 2360 H 200.597 -1.10683 5.23119 0
M  V30 2361 H 200.94 -1.89096 3.70875 0
M  V30 2362 H 201.473 -0.212751 3.97231 0
M  V30 2363 H 198.212 1.6058 6.35527 0
M  V30 2364 H 197.732 -0.0690193 5.9976 0
M  V30 2365 H 199.411 0.300699 6.46301 0
M  V30 2366 N 199.544 -1.57102 0.125237 0
M  V30 2367 C 200.96 -1.57915 -0.231322 0
M  V30 2368 C 201.16 -1.13833 -1.66266 0
M  V30 2369 O 200.216 -0.828581 -2.38518 0
M  V30 2370 C 201.529 -3.00699 0.00766489 0
M  V30 2371 C 203.077 -3.12947 -0.0577483 0
M  V30 2372 C 203.552 -4.57742 0.153626 0
M  V30 2373 N 205.043 -4.63092 0.0998073 0
M  V30 2374 C 205.778 -5.72905 0.238174 0
M  V30 2375 N 205.274 -6.91445 0.433057 0
M  V30 2376 N 207.067 -5.6182 0.177308 0
M  V30 2377 H 199.218 -1.84055 1.06007 0
M  V30 2378 H 201.481 -0.850905 0.417929 0
M  V30 2379 H 201.187 -3.3726 0.997431 0
M  V30 2380 H 201.061 -3.70236 -0.721452 0
M  V30 2381 H 203.448 -2.7624 -1.03804 0
M  V30 2382 H 203.529 -2.4594 0.70335 0
M  V30 2383 H 203.173 -4.95149 1.13092 0
M  V30 2384 H 203.103 -5.22848 -0.627534 0
M  V30 2385 H 205.594 -3.77871 -0.047051 0
M  V30 2386 H 205.907 -7.70985 0.529332 0
M  V30 2387 H 204.252 -6.93415 0.469109 0
M  V30 2388 H 207.443 -4.68093 0.0259748 0
M  V30 2389 H 207.616 -6.47357 0.288582 0
M  V30 2390 N 201.022 0.148545 -1.56898 0
M  V30 2391 C 202.268 0.862694 -1.83536 0
M  V30 2392 C 202.601 1.80889 -0.706604 0
M  V30 2393 O 201.876 1.92328 0.289885 0
M  V30 2394 C 202.159 1.63853 -3.20662 0
M  V30 2395 C 202.012 0.713925 -4.44098 0
M  V30 2396 C 203.331 2.60133 -3.54991 0
M  V30 2397 H 200.45 0.312179 -0.667618 0
M  V30 2398 H 203.092 0.127953 -1.89569 0
M  V30 2399 H 201.242 2.26489 -3.1565 0
M  V30 2400 H 202.914 0.098686 -4.61194 0
M  V30 2401 H 201.157 0.0234019 -4.33794 0
M  V30 2402 H 201.828 1.29278 -5.36648 0
M  V30 2403 H 204.304 2.07616 -3.60603 0
M  V30 2404 H 203.18 3.11468 -4.51972 0
M  V30 2405 H 203.441 3.41417 -2.80868 0
M  V30 2406 N 202.5 1.5196 0.417844 0
M  V30 2407 C 203.916 1.40569 0.755816 0
M  V30 2408 C 204.116 0.503316 1.95113 0
M  V30 2409 O 203.172 -0.0341925 2.52477 0
M  V30 2410 C 204.485 2.82947 1.01791 0
M  V30 2411 C 206.033 2.92231 1.12116 0
M  V30 2412 C 206.508 4.35559 1.41608 0
M  V30 2413 N 207.999 4.38753 1.48491 0
M  V30 2414 C 208.734 5.46705 1.7292 0
M  V30 2415 N 208.23 6.64788 1.95011 0
M  V30 2416 N 210.023 5.34209 1.74863 0
M  V30 2417 H 202.174 2.09168 -0.369098 0
M  V30 2418 H 204.437 0.942409 -0.102809 0
M  V30 2419 H 204.143 3.5106 0.212081 0
M  V30 2420 H 204.017 3.23462 1.94042 0
M  V30 2421 H 206.404 2.24304 1.9176 0
M  V30 2422 H 206.485 2.55185 0.177225 0
M  V30 2423 H 206.129 5.04042 0.624848 0
M  V30 2424 H 206.059 4.70133 2.37239 0
M  V30 2425 H 208.55 3.5363 1.33244 0
M  V30 2426 H 208.863 7.42845 2.13076 0
M  V30 2427 H 207.208 6.67869 1.92293 0
M  V30 2428 H 210.399 4.40937 1.57137 0
M  V30 2429 H 210.572 6.18415 1.93563 0
M  V30 2430 N 203.978 -0.674533 1.42435 0
M  V30 2431 C 204.925 -1.78807 1.45934 0
M  V30 2432 C 205.895 -1.63157 0.311271 0
M  V30 2433 O 207.08 -1.83707 0.515383 0
M  V30 2434 C 204.22 -3.16839 1.36773 0
M  V30 2435 C 203.333 -3.43774 2.61617 0
M  V30 2436 C 202.468 -4.71536 2.44597 0
M  V30 2437 C 201.507 -4.91505 3.64814 0
M  V30 2438 N 200.644 -6.10508 3.46734 0
M  V30 2439 H 205.484 -1.75151 2.41093 0
M  V30 2440 H 203.021 -0.85504 1.19697 0
M  V30 2441 H 204.979 -3.96606 1.29459 0
M  V30 2442 H 203.609 -3.19619 0.452089 0
M  V30 2443 H 202.661 -2.58259 2.79297 0
M  V30 2444 H 203.973 -3.54423 3.50978 0
M  V30 2445 H 203.127 -5.59393 2.3487 0
M  V30 2446 H 201.866 -4.6317 1.52726 0
M  V30 2447 H 200.871 -4.0209 3.74972 0
M  V30 2448 H 202.096 -5.01716 4.57665 0
M  V30 2449 H 200.042 -6.03315 2.5758 0
M  V30 2450 H 199.959 -6.2202 4.29682 0
M  V30 2451 H 201.227 -7.01044 3.40819 0
M  V30 2452 N 205.456 -1.28612 -0.910864 0
M  V30 2453 C 206.388 -1.08589 -2.01844 0
M  V30 2454 C 207.401 -0.0367419 -1.62759 0
M  V30 2455 O 208.59 -0.280101 -1.76289 0
M  V30 2456 C 205.69 -0.628626 -3.33019 0
M  V30 2457 C 204.863 -1.75382 -4.00699 0
M  V30 2458 C 203.922 -1.28945 -5.10156 0
M  V30 2459 O 202.948 -1.9922 -5.33198 0
M  V30 2460 N 204.15 -0.154224 -5.80295 0
M  V30 2461 H 206.915 -2.03973 -2.19579 0
M  V30 2462 H 204.476 -1.20403 -1.08234 0
M  V30 2463 H 206.468 -0.301508 -4.03575 0
M  V30 2464 H 205.038 0.232451 -3.11735 0
M  V30 2465 H 204.258 -2.25039 -3.23653 0
M  V30 2466 H 205.546 -2.50854 -4.42662 0
M  V30 2467 H 204.944 0.43194 -5.64049 0
M  V30 2468 H 203.501 0.113599 -6.51701 0
M  V30 2469 N 206.934 1.1197 -1.10907 0
M  V30 2470 C 208.18 1.8386 -0.855773 0
M  V30 2471 C 208.513 1.84134 0.617103 0
M  V30 2472 O 207.788 1.29041 1.45529 0
M  V30 2473 C 208.071 3.31305 -1.411 0
M  V30 2474 C 207.924 3.39456 -2.9511 0
M  V30 2475 C 209.243 4.2721 -1.05736 0
M  V30 2476 H 206.362 0.667545 -0.312334 0
M  V30 2477 H 209.004 1.31331 -1.37303 0
M  V30 2478 H 207.154 3.76169 -0.97105 0
M  V30 2479 H 208.826 3.03191 -3.47668 0
M  V30 2480 H 207.069 2.79849 -3.31462 0
M  V30 2481 H 207.74 4.43209 -3.29044 0
M  V30 2482 H 210.216 3.90497 -1.43706 0
M  V30 2483 H 209.092 5.28775 -1.47269 0
M  V30 2484 H 209.353 4.42088 0.0325958 0
M  V30 2485 N 208.412 0.89855 1.29475 0
M  V30 2486 C 209.658 0.524658 1.95896 0
M  V30 2487 C 209.991 -0.926468 1.70676 0
M  V30 2488 O 209.266 -1.65665 1.01908 0
M  V30 2489 C 209.549 0.81633 3.50725 0
M  V30 2490 C 209.402 2.31907 3.85408 0
M  V30 2491 C 210.721 0.302038 4.39062 0
M  V30 2492 H 207.84 0.19209 0.711527 0
M  V30 2493 H 210.482 1.12502 1.53112 0
M  V30 2494 H 208.632 0.305369 3.87298 0
M  V30 2495 H 210.304 2.89949 3.58786 0
M  V30 2496 H 208.547 2.78027 3.32992 0
M  V30 2497 H 209.218 2.47373 4.93468 0
M  V30 2498 H 211.694 0.739551 4.09475 0
M  V30 2499 H 210.57 0.535331 5.46283 0
M  V30 2500 H 210.831 -0.797216 4.34853 0
M  V30 2501 N 209.89 -1.43072 0.660911 0
M  V30 2502 C 210.838 -2.32569 -0.0378199 0
M  V30 2503 C 211.832 -1.49046 -0.805092 0
M  V30 2504 O 213.038 -1.65206 -0.714624 0
M  V30 2505 H 209.413 -0.75136 -0.031019 0
M  V30 2506 H 211.384 -2.89216 0.734609 0
M  V30 2507 C 210.133 -3.33453 -0.985124 0
M  V30 2508 H 209.456 -3.97752 -0.404147 0
M  V30 2509 H 210.896 -3.98691 -1.44297 0
M  V30 2510 C 209.355 -2.64642 -2.08486 0
M  V30 2511 O 209.885 -2.46776 -3.16961 0
M  V30 2512 N 208.091 -2.23891 -1.8526 0
M  V30 2513 H 207.638 -2.38621 -0.970449 0
M  V30 2514 H 207.596 -1.78181 -2.59034 0
M  V30 2515 N 211.368 -0.403325 -1.52352 0
M  V30 2516 C 212.617 0.175668 -2.00934 0
M  V30 2517 C 212.93 1.46718 -1.29356 0
M  V30 2518 O 214.136 2.12708 -1.68724 0
M  V30 2519 C 212.592 0.363612 -3.58058 0
M  V30 2520 C 212.2 -0.915472 -4.38547 0
M  V30 2521 C 213.944 0.89821 -4.14888 0
M  V30 2522 C 211.851 -0.695035 -5.87302 0
M  V30 2523 H 210.781 0.0694234 -0.750797 0
M  V30 2524 H 213.432 -0.527879 -1.75743 0
M  V30 2525 H 211.814 1.12935 -3.79555 0
M  V30 2526 H 212.988 -1.68691 -4.28812 0
M  V30 2527 H 211.303 -1.37606 -3.93006 0
M  V30 2528 H 213.9 1.07907 -5.23699 0
M  V30 2529 H 214.243 1.87126 -3.71873 0
M  V30 2530 H 214.776 0.191681 -3.97338 0
M  V30 2531 H 211.515 -1.63948 -6.34666 0
M  V30 2532 H 211.035 0.0372116 -5.99788 0
M  V30 2533 H 212.714 -0.33497 -6.46132 0
M  V30 2534 N 212.846 1.57033 -0.133567 0
M  V30 2535 C 214.257 1.82593 0.389464 0
M  V30 2536 C 214.608 1.05156 1.6564 0
M  V30 2537 O 213.733 0.292644 2.14412 0
M  V30 2538 C 214.328 3.31204 0.713377 0
M  V30 2539 C 212.887 3.57393 1.18098 0
M  V30 2540 C 212.034 2.76598 0.197126 0
M  V30 2541 H 214.985 1.54598 -0.358481 0
M  V30 2542 H 215.006 3.46627 1.56939 0
M  V30 2543 H 214.518 3.87537 -0.2089 0
M  V30 2544 H 212.619 3.06433 2.11966 0
M  V30 2545 H 212.732 4.65915 1.11624 0
M  V30 2546 H 211.096 2.45257 0.687088 0
M  V30 2547 H 211.879 3.35697 -0.718504 0
M  V30 2548 N 214.325 -0.140222 1.56975 0
M  V30 2549 C 215.55 -0.870414 1.88251 0
M  V30 2550 C 215.975 -1.73637 0.723312 0
M  V30 2551 O 215.333 -1.78329 -0.32689 0
M  V30 2552 C 215.381 -1.69737 3.18154 0
M  V30 2553 O 214.485 -2.80229 3.02565 0
M  V30 2554 H 213.826 -0.242025 0.61832 0
M  V30 2555 H 216.356 -0.128999 2.04193 0
M  V30 2556 H 216.366 -2.09099 3.50345 0
M  V30 2557 H 215.041 -1.06152 4.02125 0
M  V30 2558 H 213.618 -2.44224 2.81796 0
M  V30 2559 N 215.803 -1.52179 -0.40978 0
M  V30 2560 C 217.05 -1.66206 -1.15679 0
M  V30 2561 C 217.378 -0.391674 -1.90516 0
M  V30 2562 O 216.633 0.62533 -1.8544 0
M  V30 2563 C 216.932 -2.83428 -2.17723 0
M  V30 2564 C 216.598 -4.21672 -1.59699 0
M  V30 2565 C 215.26 -4.59274 -1.43599 0
M  V30 2566 C 217.612 -5.07825 -1.17317 0
M  V30 2567 C 214.94 -5.80709 -0.836328 0
M  V30 2568 C 217.292 -6.29864 -0.587691 0
M  V30 2569 C 215.956 -6.66216 -0.413818 0
M  V30 2570 H 215.226 -0.608192 -0.423301 0
M  V30 2571 H 217.873 -1.86279 -0.444097 0
M  V30 2572 H 216.178 -2.57687 -2.95135 0
M  V30 2573 H 217.875 -2.91477 -2.75394 0
M  V30 2574 H 214.465 -3.9204 -1.73213 0
M  V30 2575 H 218.649 -4.79359 -1.28565 0
M  V30 2576 H 213.905 -6.07498 -0.689626 0
M  V30 2577 H 218.079 -6.95948 -0.250894 0
M  V30 2578 H 215.706 -7.60182 0.0529471 0
M  V30 2579 N 217.281 0.66697 -1.42791 0
M  V30 2580 C 218.53 1.42278 -1.42968 0
M  V30 2581 C 218.843 1.9553 -0.0524489 0
M  V30 2582 O 220.049 2.71414 0.068363 0
M  V30 2583 C 218.505 2.57418 -2.51524 0
M  V30 2584 C 218.113 2.10832 -3.9529 0
M  V30 2585 C 219.857 3.34878 -2.60877 0
M  V30 2586 C 217.764 3.23101 -4.95338 0
M  V30 2587 H 216.694 0.534533 -0.531781 0
M  V30 2588 H 219.345 0.721302 -1.68729 0
M  V30 2589 H 217.727 3.29971 -2.18941 0
M  V30 2590 H 218.901 1.4538 -4.37266 0
M  V30 2591 H 217.216 1.46289 -3.89857 0
M  V30 2592 H 219.813 4.18505 -3.32802 0
M  V30 2593 H 220.156 3.81993 -1.6549 0
M  V30 2594 H 220.689 2.69398 -2.92693 0
M  V30 2595 H 217.428 2.80969 -5.9223 0
M  V30 2596 H 216.948 3.87309 -4.57987 0
M  V30 2597 H 218.627 3.88447 -5.17415 0
M  V30 2598 N 218.759 1.29093 0.90403 0
M  V30 2599 C 220.005 1.16986 1.65656 0
M  V30 2600 C 220.338 -0.278925 1.92186 0
M  V30 2601 O 219.613 -1.2019 1.5292 0
M  V30 2602 C 219.896 1.97908 3.0084 0
M  V30 2603 C 219.749 3.50903 2.81403 0
M  V30 2604 C 221.068 1.80208 4.01513 0
M  V30 2605 H 218.187 0.426346 0.601164 0
M  V30 2606 H 220.829 1.58518 1.04747 0
M  V30 2607 H 218.979 1.62616 3.52829 0
M  V30 2608 H 220.651 3.96153 2.36348 0
M  V30 2609 H 218.894 3.76045 2.1627 0
M  V30 2610 H 219.565 4.02791 3.77443 0
M  V30 2611 H 222.041 2.11025 3.58619 0
M  V30 2612 H 220.917 2.39184 4.94047 0
M  V30 2613 H 221.178 0.756119 4.35586 0
M  V30 2614 N 220.237 -1.11381 1.11499 0
M  V30 2615 C 221.653 -1.35143 0.849031 0
M  V30 2616 C 221.853 -1.94515 -0.525938 0
M  V30 2617 O 220.909 -2.1785 -1.27662 0
M  V30 2618 C 222.222 -2.28249 1.95762 0
M  V30 2619 C 223.77 -2.41812 1.98736 0
M  V30 2620 C 224.245 -3.3824 3.088 0
M  V30 2621 N 225.736 -3.45803 3.08179 0
M  V30 2622 C 226.471 -4.20358 3.89982 0
M  V30 2623 N 225.967 -4.97884 4.8175 0
M  V30 2624 N 227.76 -4.15877 3.78157 0
M  V30 2625 H 219.911 -0.712062 2.00109 0
M  V30 2626 H 222.174 -0.376025 0.870235 0
M  V30 2627 H 221.88 -1.91817 2.94787 0
M  V30 2628 H 221.754 -3.28473 1.85433 0
M  V30 2629 H 224.141 -2.77518 1.00338 0
M  V30 2630 H 224.222 -1.41437 2.13141 0
M  V30 2631 H 223.866 -3.03261 4.07425 0
M  V30 2632 H 223.796 -4.38471 2.91635 0
M  V30 2633 H 226.287 -2.90506 2.41691 0
M  V30 2634 H 226.6 -5.52142 5.40702 0
M  V30 2635 H 224.945 -4.97043 4.85771 0
M  V30 2636 H 228.136 -3.544 3.05808 0
M  V30 2637 H 228.309 -4.73723 4.42143 0
M  V30 2638 N 221.715 -0.905404 -1.28997 0
M  V30 2639 C 222.645 -0.404212 -2.29975 0
M  V30 2640 C 223.626 0.523784 -1.61835 0
M  V30 2641 O 224.811 0.433298 -1.89304 0
M  V30 2642 C 221.941 0.364042 -3.45387 0
M  V30 2643 C 220.895 -0.474048 -4.25367 0
M  V30 2644 C 220.221 0.422045 -5.33032 0
M  V30 2645 C 221.521 -1.72696 -4.92923 0
M  V30 2646 H 223.215 -1.24807 -2.72146 0
M  V30 2647 H 220.761 -0.601585 -1.30832 0
M  V30 2648 H 222.714 0.725447 -4.15109 0
M  V30 2649 H 221.438 1.24174 -3.02074 0
M  V30 2650 H 220.097 -0.81786 -3.57361 0
M  V30 2651 H 219.745 1.29804 -4.85963 0
M  V30 2652 H 219.445 -0.135057 -5.87445 0
M  V30 2653 H 220.969 0.779517 -6.05604 0
M  V30 2654 H 222.383 -1.43495 -5.55051 0
M  V30 2655 H 220.78 -2.22582 -5.57295 0
M  V30 2656 H 221.85 -2.45964 -4.17887 0
M  V30 2657 N 223.193 1.4272 -0.668489 0
M  V30 2658 C 224.47 1.95248 -0.117373 0
M  V30 2659 C 224.85 1.60919 1.36632 0
M  V30 2660 O 224.198 0.902095 2.09939 0
M  V30 2661 C 224.408 3.46927 -0.379806 0
M  V30 2662 C 225.756 4.23588 -0.292923 0
M  V30 2663 O 226.78 3.5482 -0.313204 0
M  V30 2664 O 225.639 5.46017 -0.229697 0
M  V30 2665 H 222.733 0.827 0.00079152 0
M  V30 2666 H 225.279 1.52581 -0.742783 0
M  V30 2667 H 224.051 3.65096 -1.40786 0
M  V30 2668 H 223.674 3.96627 0.277923 0
M  V30 2669 N 224.671 0.411399 1.52136 0
M  V30 2670 C 225.896 -0.165538 2.06738 0
M  V30 2671 C 226.321 -1.379 1.27926 0
M  V30 2672 O 225.679 -1.78628 0.310114 0
M  V30 2673 C 225.727 -0.492124 3.57226 0
M  V30 2674 O 224.831 -1.58276 3.80818 0
M  V30 2675 H 224.172 -0.0132132 0.663869 0
M  V30 2676 H 226.702 0.585253 1.96051 0
M  V30 2677 H 226.712 -0.750104 4.01045 0
M  V30 2678 H 225.387 0.394922 4.14021 0
M  V30 2679 H 223.964 -1.31677 3.48877 0
M  V30 2680 N 226.149 -1.5696 0.141893 0
M  V30 2681 C 227.081 -2.13619 -0.830627 0
M  V30 2682 C 228.094 -1.08439 -1.21428 0
M  V30 2683 O 229.283 -1.35734 -1.15925 0
M  V30 2684 C 226.383 -2.63978 -2.12529 0
M  V30 2685 C 225.556 -3.93504 -1.9098 0
M  V30 2686 C 224.615 -4.29225 -3.04388 0
M  V30 2687 O 223.641 -4.97641 -2.76302 0
M  V30 2688 N 224.843 -3.88393 -4.31429 0
M  V30 2689 H 227.608 -2.97691 -0.34641 0
M  V30 2690 H 225.169 -1.61846 -0.0418375 0
M  V30 2691 H 227.161 -2.84891 -2.87436 0
M  V30 2692 H 225.731 -1.84659 -2.52229 0
M  V30 2693 H 224.951 -3.81269 -1.00139 0
M  V30 2694 H 226.239 -4.78154 -1.73914 0
M  V30 2695 H 225.637 -3.33257 -4.57117 0
M  V30 2696 H 224.194 -4.14368 -5.03133 0
M  V30 2697 N 227.627 0.131896 -1.57047 0
M  V30 2698 C 228.574 1.16236 -1.99393 0
M  V30 2699 C 229.544 1.41863 -0.863943 0
M  V30 2700 O 230.729 1.53946 -1.12718 0
M  V30 2701 C 227.869 2.48708 -2.39245 0
M  V30 2702 C 226.982 2.30127 -3.65603 0
M  V30 2703 C 226.117 3.55738 -3.94492 0
M  V30 2704 C 225.156 3.32259 -5.14073 0
M  V30 2705 N 224.293 4.50039 -5.38896 0
M  V30 2706 H 229.133 0.794251 -2.87221 0
M  V30 2707 H 226.67 0.380707 -1.42088 0
M  V30 2708 H 228.628 3.25969 -2.60384 0
M  V30 2709 H 227.258 2.83437 -1.54478 0
M  V30 2710 H 226.31 1.43845 -3.52154 0
M  V30 2711 H 227.622 2.08746 -4.5302 0
M  V30 2712 H 226.776 4.41423 -4.1621 0
M  V30 2713 H 225.515 3.80138 -3.05526 0
M  V30 2714 H 224.52 2.44963 -4.92212 0
M  V30 2715 H 225.745 3.09242 -6.04604 0
M  V30 2716 H 223.691 4.74584 -4.52886 0
M  V30 2717 H 223.608 4.31716 -6.2061 0
M  V30 2718 H 224.876 5.36895 -5.65123 0
M  V30 2719 N 229.106 1.52395 0.401703 0
M  V30 2720 C 230.056 1.72649 1.48917 0
M  V30 2721 C 231.04 0.580436 1.50066 0
M  V30 2722 O 232.232 0.83779 1.55917 0
M  V30 2723 C 229.361 1.88729 2.86769 0
M  V30 2724 C 228.447 3.09228 2.90239 0
M  V30 2725 N 228.838 4.31805 2.63396 0
M  V30 2726 C 227.136 3.09214 3.21408 0
M  V30 2727 C 227.837 5.13326 2.73625 0
M  V30 2728 N 226.813 4.48735 3.06819 0
M  V30 2729 H 230.615 2.65058 1.26971 0
M  V30 2730 H 228.129 1.50528 0.609504 0
M  V30 2731 H 230.126 2.01358 3.65049 0
M  V30 2732 H 228.786 0.975252 3.09708 0
M  V30 2733 H 229.797 4.60154 2.37653 0
M  V30 2734 H 226.474 2.27774 3.49893 0
M  V30 2735 H 227.864 6.21003 2.56524 0
M  V30 2736 N 230.584 -0.659388 1.43143 0
M  V30 2737 C 231.833 -1.41518 1.43721 0
M  V30 2738 C 232.146 -1.95499 0.0628176 0
M  V30 2739 O 233.352 -2.71446 -0.0539683 0
M  V30 2740 C 231.808 -2.5608 2.52885 0
M  V30 2741 C 231.416 -2.08733 3.96402 0
M  V30 2742 C 233.16 -3.3349 2.62649 0
M  V30 2743 C 231.067 -3.20469 4.97045 0
M  V30 2744 H 229.997 -0.531705 0.534608 0
M  V30 2745 H 232.648 -0.712343 1.69109 0
M  V30 2746 H 231.03 -3.28805 2.20688 0
M  V30 2747 H 232.204 -1.43059 4.3803 0
M  V30 2748 H 230.519 -1.44219 3.90627 0
M  V30 2749 H 233.116 -4.16734 3.35017 0
M  V30 2750 H 233.459 -3.8111 1.67513 0
M  V30 2751 H 233.992 -2.67842 2.94118 0
M  V30 2752 H 230.731 -2.77824 5.93712 0
M  V30 2753 H 230.251 -3.84874 4.60034 0
M  V30 2754 H 231.93 -3.85698 5.19467 0
M  V30 2755 N 232.062 -1.29571 -0.897171 0
M  V30 2756 C 233.339 -1.08365 -1.62839 0
M  V30 2757 C 233.719 0.371331 -2.07808 0
M  V30 2758 O 233.067 1.3606 -1.83576 0
M  V30 2759 C 233.277 -2.0735 -2.80726 0
M  V30 2760 C 234.625 -2.38406 -3.51351 0
M  V30 2761 O 235.649 -2.05564 -2.90898 0
M  V30 2762 O 234.508 -2.9453 -4.60341 0
M  V30 2763 H 231.602 -0.415345 -0.715134 0
M  V30 2764 H 234.148 -1.40952 -0.945018 0
M  V30 2765 H 232.92 -3.05339 -2.44711 0
M  V30 2766 H 232.543 -1.75507 -3.56767 0
M  V30 2767 N 233.54 1.10788 -1.12088 0
M  V30 2768 C 234.787 1.82671 -0.873931 0
M  V30 2769 C 235.115 1.85004 0.600311 0
M  V30 2770 O 234.37 1.30365 1.45957 0
M  V30 2771 C 234.669 3.29294 -1.38926 0
M  V30 2772 C 234.335 3.47113 -2.87791 0
M  V30 2773 C 232.997 3.51684 -3.28439 0
M  V30 2774 C 235.349 3.52808 -3.83635 0
M  V30 2775 C 232.677 3.59513 -4.63646 0
M  V30 2776 C 235.029 3.62169 -5.18668 0
M  V30 2777 C 233.693 3.65003 -5.58864 0
M  V30 2778 H 232.963 0.668441 -0.319794 0
M  V30 2779 H 235.61 1.30613 -1.40045 0
M  V30 2780 H 233.915 3.83894 -0.783122 0
M  V30 2781 H 235.612 3.83416 -1.17443 0
M  V30 2782 H 232.202 3.4423 -2.5535 0
M  V30 2783 H 236.386 3.4853 -3.53328 0
M  V30 2784 H 231.642 3.59987 -4.94185 0
M  V30 2785 H 235.816 3.6552 -5.92763 0
M  V30 2786 H 233.443 3.70822 -6.63623 0
M  V30 2787 N 235.018 0.912232 1.28515 0
M  V30 2788 C 236.243 0.559774 1.99703 0
M  V30 2789 C 236.668 -0.851393 1.67729 0
M  V30 2790 O 236.026 -1.56875 0.908834 0
M  V30 2791 C 236.074 0.773874 3.52198 0
M  V30 2792 O 235.178 -0.167842 4.12058 0
M  V30 2793 H 234.519 0.21723 0.627461 0
M  V30 2794 H 237.049 1.22725 1.63706 0
M  V30 2795 H 237.059 0.683386 4.02236 0
M  V30 2796 H 235.734 1.80261 3.74805 0
M  V30 2797 H 234.311 -0.0287509 3.72889 0
M  V30 2798 N 236.496 -1.42363 0.676048 0
M  V30 2799 C 237.426 -2.33497 0.0124832 0
M  V30 2800 C 238.407 -1.50748 -0.787981 0
M  V30 2801 O 239.592 -1.79346 -0.744884 0
M  V30 2802 C 236.722 -3.34377 -0.938582 0
M  V30 2803 C 235.676 -4.27289 -0.246622 0
M  V30 2804 C 235.002 -5.18386 -1.31071 0
M  V30 2805 C 236.302 -5.14916 0.875125 0
M  V30 2806 H 237.996 -2.89233 0.773593 0
M  V30 2807 H 235.542 -1.39073 0.37346 0
M  V30 2808 H 237.495 -3.97044 -1.41188 0
M  V30 2809 H 236.219 -2.76947 -1.73113 0
M  V30 2810 H 234.878 -3.66018 0.206456 0
M  V30 2811 H 234.526 -4.57282 -2.09528 0
M  V30 2812 H 234.226 -5.81378 -0.852839 0
M  V30 2813 H 235.75 -5.83929 -1.78492 0
M  V30 2814 H 237.164 -5.71262 0.482983 0
M  V30 2815 H 235.561 -5.86747 1.25887 0
M  V30 2816 H 236.631 -4.53242 1.72335 0
M  V30 2817 N 237.974 -0.419461 -1.51915 0
M  V30 2818 C 239.39 -0.0708431 -1.59443 0
M  V30 2819 C 239.59 1.41796 -1.43164 0
M  V30 2820 O 238.646 2.18596 -1.26381 0
M  V30 2821 C 239.959 -0.574991 -2.95151 0
M  V30 2822 C 241.507 -0.533867 -3.08413 0
M  V30 2823 C 241.982 -1.01469 -4.46618 0
M  V30 2824 N 243.473 -0.971939 -4.52888 0
M  V30 2825 C 244.208 -1.31505 -5.58116 0
M  V30 2826 N 243.704 -1.73014 -6.70849 0
M  V30 2827 N 245.497 -1.23436 -5.48379 0
M  V30 2828 H 237.648 -1.38836 -1.60743 0
M  V30 2829 H 239.911 -0.570998 -0.756747 0
M  V30 2830 H 239.617 -1.61597 -3.12377 0
M  V30 2831 H 239.491 0.00979777 -3.77199 0
M  V30 2832 H 241.878 0.498086 -2.90866 0
M  V30 2833 H 241.959 -1.15484 -2.28248 0
M  V30 2834 H 241.603 -2.04502 -4.6491 0
M  V30 2835 H 241.533 -0.370433 -5.25295 0
M  V30 2836 H 244.024 -0.666893 -3.71969 0
M  V30 2837 H 244.337 -1.97479 -7.47143 0
M  V30 2838 H 242.682 -1.76926 -6.72103 0
M  V30 2839 H 245.873 -0.908869 -4.59192 0
M  V30 2840 H 246.046 -1.50506 -6.30279 0
M  V30 2841 N 239.452 1.56882 -0.150215 0
M  V30 2842 C 240.677 2.01027 0.510184 0
M  V30 2843 C 241.102 1.02966 1.57415 0
M  V30 2844 O 240.46 0.00590158 1.81299 0
M  V30 2845 C 240.508 3.43899 1.08472 0
M  V30 2846 O 239.612 3.4885 2.19948 0
M  V30 2847 H 238.953 0.652233 0.124451 0
M  V30 2848 H 241.483 2.03093 -0.247894 0
M  V30 2849 H 241.493 3.82766 1.41259 0
M  V30 2850 H 240.168 4.14776 0.305582 0
M  V30 2851 H 238.745 3.21827 1.88366 0
M  V30 2852 N 240.93 -0.123565 1.57115 0
M  V30 2853 C 242.341 -0.681198 1.73829 0
M  V30 2854 C 242.692 -1.80535 0.768214 0
M  V30 2855 O 241.817 -2.16317 -0.0599103 0
M  V30 2856 C 242.412 -1.24246 3.15196 0
M  V30 2857 C 240.971 -1.74643 3.33432 0
M  V30 2858 C 240.118 -0.644284 2.69711 0
M  V30 2859 H 243.069 0.102315 1.5837 0
M  V30 2860 H 243.09 -2.11216 3.16493 0
M  V30 2861 H 242.602 -0.424062 3.85776 0
M  V30 2862 H 240.703 -2.58974 2.67886 0
M  V30 2863 H 240.816 -1.85902 4.41562 0
M  V30 2864 H 239.18 -1.07676 2.3082 0
M  V30 2865 H 239.963 0.163058 3.42913 0
M  V30 2866 N 242.408 -1.52605 -0.393616 0
M  V30 2867 C 243.638 -1.71046 -1.15874 0
M  V30 2868 C 244.046 -0.426483 -1.84331 0
M  V30 2869 O 243.389 0.608513 -1.73329 0
M  V30 2870 C 243.451 -2.80118 -2.25332 0
M  V30 2871 C 243.115 -4.21381 -1.76881 0
M  V30 2872 C 244.112 -5.04697 -1.24808 0
M  V30 2873 C 241.797 -4.67683 -1.83244 0
M  V30 2874 C 243.791 -6.32393 -0.797387 0
M  V30 2875 C 241.478 -5.95364 -1.37787 0
M  V30 2876 C 242.476 -6.77549 -0.861208 0
M  V30 2877 O 242.164 -8.02837 -0.413252 0
M  V30 2878 H 241.896 -0.576155 -0.353583 0
M  V30 2879 H 244.45 -2.00018 -0.467123 0
M  V30 2880 H 242.68 -2.46557 -2.97904 0
M  V30 2881 H 244.369 -2.87006 -2.87023 0
M  V30 2882 H 245.135 -4.70111 -1.19252 0
M  V30 2883 H 241.014 -4.03805 -2.22401 0
M  V30 2884 H 244.558 -6.9649 -0.393437 0
M  V30 2885 H 240.455 -6.29455 -1.43026 0
M  V30 2886 H 241.223 -8.16749 -0.53515 0
M  V30 2887 N 243.887 0.651787 -1.4349 0
M  V30 2888 C 245.135 1.40888 -1.44897 0
M  V30 2889 C 245.456 1.94856 -0.0749086 0
M  V30 2890 O 244.726 1.74518 0.889956 0
M  V30 2891 H 243.306 0.522887 -0.533478 0
M  V30 2892 H 245.968 0.768609 -1.79104 0
M  V30 2893 H 245.064 2.25052 -2.16236 0
M  V30 2894 N 245.365 1.30045 0.890287 0
M  V30 2895 C 246.613 1.18327 1.63839 0
M  V30 2896 C 246.934 -0.263455 1.93212 0
M  V30 2897 O 246.204 -1.17856 1.56482 0
M  V30 2898 H 244.784 0.434933 0.607324 0
M  V30 2899 H 247.446 1.631 1.06698 0
M  V30 2900 H 246.542 1.74024 2.59079 0
M  V30 2901 N 246.843 -1.10192 1.12674 0
M  V30 2902 C 248.091 -1.81845 0.881861 0
M  V30 2903 C 248.412 -1.85737 -0.593867 0
M  V30 2904 O 247.682 -1.33724 -1.4316 0
M  V30 2905 H 246.262 -0.673432 0.323261 0
M  V30 2906 H 248.924 -1.33316 1.42172 0
M  V30 2907 H 248.02 -2.85288 1.2656 0
M  V30 2908 N 248.321 -0.919034 -1.28029 0
M  V30 2909 C 249.737 -0.617972 -1.4715 0
M  V30 2910 C 249.937 0.835242 -1.83374 0
M  V30 2911 O 248.993 1.61388 -1.94191 0
M  V30 2912 C 250.306 -1.56041 -2.57044 0
M  V30 2913 C 251.854 -1.56769 -2.7091 0
M  V30 2914 C 252.329 -2.49688 -3.83953 0
M  V30 2915 N 253.82 -2.47845 -3.91314 0
M  V30 2916 C 254.555 -3.16437 -4.78179 0
M  V30 2917 N 254.051 -3.94376 -5.69596 0
M  V30 2918 N 255.844 -3.05498 -4.71834 0
M  V30 2919 H 247.995 -1.85866 -1.02798 0
M  V30 2920 H 250.258 -0.797506 -0.512531 0
M  V30 2921 H 249.964 -2.59671 -2.372 0
M  V30 2922 H 249.838 -1.29551 -3.54255 0
M  V30 2923 H 252.225 -0.538745 -2.90141 0
M  V30 2924 H 252.306 -1.87305 -1.74214 0
M  V30 2925 H 251.95 -3.52688 -3.65477 0
M  V30 2926 H 251.88 -2.16453 -4.80058 0
M  V30 2927 H 254.371 -1.91234 -3.25941 0
M  V30 2928 H 254.684 -4.43721 -6.32718 0
M  V30 2929 H 253.029 -3.98481 -5.69419 0
M  V30 2930 H 256.22 -2.44108 -3.99411 0
M  V30 2931 H 256.393 -3.59225 -5.39316 0
M  V30 2932 N 249.799 1.42003 -0.683588 0
M  V30 2933 C 251.21 1.84501 -0.285736 0
M  V30 2934 C 251.561 1.57213 1.17382 0
M  V30 2935 O 250.686 1.03642 1.89966 0
M  V30 2936 C 251.281 3.34912 -0.511821 0
M  V30 2937 C 249.84 3.76025 -0.168005 0
M  V30 2938 C 248.987 2.6551 -0.799983 0
M  V30 2939 H 251.938 1.31724 -0.885119 0
M  V30 2940 H 251.959 3.79784 0.233292 0
M  V30 2941 H 251.471 3.54741 -1.57418 0
M  V30 2942 H 249.572 3.61801 0.890567 0
M  V30 2943 H 249.685 4.75141 -0.614661 0
M  V30 2944 H 248.049 2.53654 -0.230568 0
M  V30 2945 H 248.832 2.8816 -1.86597 0
M  V30 2946 N 251.277 0.427512 1.51691 0
M  V30 2947 C 252.525 -0.141948 2.01601 0
M  V30 2948 C 252.846 -1.44067 1.31414 0
M  V30 2949 O 252.116 -1.90763 0.445658 0
M  V30 2950 H 250.696 -0.0554468 0.744939 0
M  V30 2951 H 253.358 0.567968 1.86441 0
M  V30 2952 H 252.454 -0.324913 3.10404 0
M  V30 2953 N 252.755 -1.56801 0.158532 0
M  V30 2954 C 254.171 -1.5837 -0.197774 0
M  V30 2955 C 254.371 -1.17334 -1.63814 0
M  V30 2956 O 253.427 -0.878988 -2.36707 0
M  V30 2957 C 254.74 -3.00615 0.0714459 0
M  V30 2958 C 256.288 -3.12999 0.00864533 0
M  V30 2959 C 256.763 -4.57313 0.250685 0
M  V30 2960 N 258.254 -4.62777 0.198014 0
M  V30 2961 C 258.989 -5.72271 0.359642 0
M  V30 2962 N 258.485 -6.90371 0.579625 0
M  V30 2963 N 260.278 -5.61318 0.296438 0
M  V30 2964 H 252.429 -1.81765 1.09887 0
M  V30 2965 H 254.692 -0.841849 0.435884 0
M  V30 2966 H 254.398 -3.35068 1.06874 0
M  V30 2967 H 254.272 -3.71683 -0.642757 0
M  V30 2968 H 256.659 -2.7838 -0.979217 0
M  V30 2969 H 256.74 -2.44393 0.755359 0
M  V30 2970 H 256.384 -4.92639 1.2357 0
M  V30 2971 H 256.314 -5.24061 -0.516489 0
M  V30 2972 H 258.805 -3.77885 0.0331115 0
M  V30 2973 H 259.118 -7.69689 0.69275 0
M  V30 2974 H 257.463 -6.92264 0.616087 0
M  V30 2975 H 260.654 -4.67932 0.125258 0
M  V30 2976 H 260.827 -6.46599 0.425831 0
M  V30 2977 N 254.233 0.115231 -1.57178 0
M  V30 2978 C 255.479 0.82357 -1.85325 0
M  V30 2979 C 255.812 1.79349 -0.744814 0
M  V30 2980 O 255.087 1.92899 0.249024 0
M  V30 2981 C 255.37 1.57014 -3.24066 0
M  V30 2982 C 255.223 0.619565 -4.45513 0
M  V30 2983 C 256.542 2.52545 -3.60429 0
M  V30 2984 H 253.661 0.297948 -0.674089 0
M  V30 2985 H 256.303 0.0877138 -1.89797 0
M  V30 2986 H 254.453 2.19742 -3.20383 0
M  V30 2987 H 256.125 0.000837639 -4.613 0
M  V30 2988 H 254.368 -0.0686174 -4.33746 0
M  V30 2989 H 255.039 1.17866 -5.3927 0
M  V30 2990 H 257.515 1.9992 -3.64926 0
M  V30 2991 H 256.391 3.01811 -4.58477 0
M  V30 2992 H 256.652 3.35383 -2.88047 0
M  V30 2993 N 255.711 1.52812 0.385517 0
M  V30 2994 C 256.658 1.77838 1.47113 0
M  V30 2995 C 257.628 0.621757 1.54024 0
M  V30 2996 O 258.813 0.861846 1.70226 0
M  V30 2997 C 255.953 1.95618 2.84302 0
M  V30 2998 C 255.066 3.23316 2.86515 0
M  V30 2999 C 254.201 3.31394 4.15152 0
M  V30 3000 C 253.24 4.53201 4.1143 0
M  V30 3001 N 252.377 4.58542 5.3168 0
M  V30 3002 H 257.217 2.70482 1.25073 0
M  V30 3003 H 254.754 1.34006 0.606692 0
M  V30 3004 H 256.712 2.03912 3.63972 0
M  V30 3005 H 255.342 1.06331 3.04784 0
M  V30 3006 H 254.394 3.24076 1.99195 0
M  V30 3007 H 255.706 4.13045 2.79634 0
M  V30 3008 H 254.86 3.3889 5.03228 0
M  V30 3009 H 253.599 2.39645 4.24761 0
M  V30 3010 H 252.604 4.45827 3.21742 0
M  V30 3011 H 253.829 5.46271 4.03442 0
M  V30 3012 H 251.775 3.69686 5.41912 0
M  V30 3013 H 251.692 5.42148 5.26889 0
M  V30 3014 H 252.96 4.70296 6.21644 0
M  V30 3015 N 257.189 -0.644168 1.43834 0
M  V30 3016 C 258.605 -0.960875 1.27434 0
M  V30 3017 C 258.805 -2.00499 0.200618 0
M  V30 3018 O 257.861 -2.49018 -0.417906 0
M  V30 3019 C 259.174 -1.43653 2.64167 0
M  V30 3020 C 260.722 -1.55271 2.71772 0
M  V30 3021 C 261.197 -2.06224 4.08944 0
M  V30 3022 N 262.688 -2.13513 4.11055 0
M  V30 3023 C 263.423 -2.54081 5.14033 0
M  V30 3024 N 262.919 -2.9388 6.27381 0
M  V30 3025 N 264.712 -2.54101 5.01387 0
M  V30 3026 H 256.863 0.0465779 2.12349 0
M  V30 3027 H 259.126 -0.0417638 0.94708 0
M  V30 3028 H 258.832 -0.743706 3.43747 0
M  V30 3029 H 258.706 -2.40993 2.90176 0
M  V30 3030 H 261.093 -2.23653 1.92519 0
M  V30 3031 H 261.174 -0.563395 2.49519 0
M  V30 3032 H 260.818 -1.38441 4.88668 0
M  V30 3033 H 260.748 -3.06003 4.28567 0
M  V30 3034 H 263.239 -1.85493 3.29242 0
M  V30 3035 H 263.552 -3.2361 7.01781 0
M  V30 3036 H 261.897 -2.91663 6.30839 0
M  V30 3037 H 265.088 -2.22391 4.11898 0
M  V30 3038 H 265.261 -2.85394 5.81768 0
M  V30 3039 N 258.668 -1.30515 -0.883378 0
M  V30 3040 C 259.615 -1.17032 -1.98927 0
M  V30 3041 C 260.585 -0.0594241 -1.65994 0
M  V30 3042 O 261.77 -0.229895 -1.8941 0
M  V30 3043 C 258.91 -0.869777 -3.33959 0
M  V30 3044 C 258.023 -2.06271 -3.79574 0
M  V30 3045 C 257.158 -1.70011 -5.03259 0
M  V30 3046 C 256.197 -2.8579 -5.41286 0
M  V30 3047 N 255.334 -2.49816 -6.56153 0
M  V30 3048 H 260.174 -2.1164 -2.09792 0
M  V30 3049 H 257.711 -1.05296 -1.02719 0
M  V30 3050 H 259.669 -0.676138 -4.11685 0
M  V30 3051 H 258.299 0.0394332 -3.22776 0
M  V30 3052 H 257.351 -2.36755 -2.97744 0
M  V30 3053 H 258.663 -2.92971 -4.03694 0
M  V30 3054 H 257.817 -1.47032 -5.88614 0
M  V30 3055 H 256.556 -0.804829 -4.81013 0
M  V30 3056 H 255.561 -3.09434 -4.54456 0
M  V30 3057 H 256.786 -3.76008 -5.65504 0
M  V30 3058 H 254.732 -1.62795 -6.35479 0
M  V30 3059 H 254.649 -3.30048 -6.8015 0
M  V30 3060 H 255.917 -2.30197 -7.44735 0
M  V30 3061 N 260.146 1.09593 -1.13257 0
M  V30 3062 C 261.094 2.18271 -0.803783 0
M  V30 3063 C 262.088 1.68054 0.213148 0
M  V30 3064 O 263.294 1.79862 0.0704699 0
M  V30 3065 H 259.669 0.711949 -0.242143 0
M  V30 3066 H 261.64 2.43235 -1.72856 0
M  V30 3067 C 260.389 3.46536 -0.28424 0
M  V30 3068 H 259.712 3.85545 -1.05807 0
M  V30 3069 H 261.152 4.23899 -0.0925945 0
M  V30 3070 C 259.611 3.22036 0.989684 0
M  V30 3071 O 260.141 3.44509 2.06584 0
M  V30 3072 N 258.347 2.7565 0.920086 0
M  V30 3073 H 257.894 2.57562 0.0442019 0
M  V30 3074 H 257.852 2.59635 1.77306 0
M  V30 3075 N 261.624 0.925811 1.2754 0
M  V30 3076 C 262.587 0.428129 2.25166 0
M  V30 3077 C 263.587 -0.452261 1.54309 0
M  V30 3078 O 264.777 -0.253608 1.72344 0
M  V30 3079 C 261.909 -0.384749 3.38722 0
M  V30 3080 H 263.102 1.29066 2.70706 0
M  V30 3081 H 260.655 0.706323 1.3943 0
M  V30 3082 H 261.39 -1.26618 2.98561 0
M  V30 3083 H 261.175 0.246454 3.91325 0
M  V30 3084 H 262.665 -0.723389 4.11287 0
M  V30 3085 N 263.102 -1.41638 0.69111 0
M  V30 3086 C 264.049 -2.30789 0.0229705 0
M  V30 3087 C 265.019 -1.46863 -0.775911 0
M  V30 3088 O 266.204 -1.75661 -0.74485 0
M  V30 3089 C 263.344 -3.32868 -0.910666 0
M  V30 3090 C 262.457 -4.31875 -0.103874 0
M  V30 3091 C 261.592 -5.21024 -1.03475 0
M  V30 3092 C 260.631 -6.11702 -0.220598 0
M  V30 3093 N 259.768 -6.93349 -1.10504 0
M  V30 3094 H 264.608 -2.87366 0.788978 0
M  V30 3095 H 262.145 -1.41535 0.400794 0
M  V30 3096 H 264.103 -3.90596 -1.46597 0
M  V30 3097 H 262.733 -2.77851 -1.64312 0
M  V30 3098 H 261.785 -3.76131 0.568285 0
M  V30 3099 H 263.097 -4.96003 0.527504 0
M  V30 3100 H 262.251 -5.83565 -1.65943 0
M  V30 3101 H 260.99 -4.57112 -1.69999 0
M  V30 3102 H 259.995 -5.48215 0.417187 0
M  V30 3103 H 261.22 -6.77668 0.440784 0
M  V30 3104 H 259.166 -6.3205 -1.75638 0
M  V30 3105 H 259.083 -7.54146 -0.529125 0
M  V30 3106 H 260.351 -7.60362 -1.71667 0
M  V30 3107 N 264.58 -0.43555 -1.51462 0
M  V30 3108 C 265.527 0.376797 -2.27703 0
M  V30 3109 C 266.497 1.01838 -1.31219 0
M  V30 3110 O 267.682 1.03762 -1.60119 0
M  V30 3111 C 264.822 1.47301 -3.12084 0
M  V30 3112 C 263.935 0.849744 -4.2356 0
M  V30 3113 C 263.07 1.92086 -4.95254 0
M  V30 3114 C 262.109 1.27593 -5.98654 0
M  V30 3115 N 261.246 2.28833 -6.63762 0
M  V30 3116 H 266.086 -0.279734 -2.96684 0
M  V30 3117 H 263.623 -0.149795 -1.46335 0
M  V30 3118 H 265.581 2.11984 -3.59331 0
M  V30 3119 H 264.211 2.0992 -2.45221 0
M  V30 3120 H 263.263 0.0912529 -3.80291 0
M  V30 3121 H 264.575 0.338878 -4.97648 0
M  V30 3122 H 263.729 2.64435 -5.46039 0
M  V30 3123 H 262.468 2.46545 -4.20793 0
M  V30 3124 H 261.473 0.537893 -5.47162 0
M  V30 3125 H 262.698 0.738693 -6.7507 0
M  V30 3126 H 260.644 2.82375 -5.92115 0
M  V30 3127 H 260.561 1.82632 -7.33608 0
M  V30 3128 H 261.829 3.00671 -7.19178 0
M  V30 3129 N 266.058 1.56714 -0.166846 0
M  V30 3130 C 267.306 1.96358 0.478305 0
M  V30 3131 C 267.627 1.0537 1.6408 0
M  V30 3132 O 266.897 0.119154 1.95537 0
M  V30 3133 H 265.477 0.725065 0.179692 0
M  V30 3134 H 268.139 1.93329 -0.246985 0
M  V30 3135 H 267.235 3.00547 0.841292 0
M  V30 3136 N 267.536 -0.106894 1.57237 0
M  V30 3137 C 268.468 -1.15646 1.97885 0
M  V30 3138 C 269.481 -1.36981 0.879779 0
M  V30 3139 O 270.67 -1.35841 1.15799 0
M  V30 3140 C 267.77 -2.51425 2.27241 0
M  V30 3141 C 266.943 -2.50529 3.58545 0
M  V30 3142 C 266.002 -3.68145 3.75973 0
M  V30 3143 O 265.028 -3.51176 4.47956 0
M  V30 3144 N 266.23 -4.87177 3.15656 0
M  V30 3145 H 268.995 -0.81059 2.8853 0
M  V30 3146 H 266.556 -0.296024 1.59171 0
M  V30 3147 H 268.548 -3.28689 2.36105 0
M  V30 3148 H 267.118 -2.78147 1.42663 0
M  V30 3149 H 266.338 -1.58894 3.60758 0
M  V30 3150 H 267.626 -2.46997 4.44826 0
M  V30 3151 H 267.024 -5.03868 2.57165 0
M  V30 3152 H 265.581 -5.62075 3.30023 0
M  V30 3153 N 269.014 -1.53014 -0.377408 0
M  V30 3154 C 270.262 -1.6829 -1.11906 0
M  V30 3155 C 270.583 -0.431206 -1.90173 0
M  V30 3156 O 269.853 0.554595 -1.87886 0
M  V30 3157 H 268.433 -0.620371 -0.416112 0
M  V30 3158 H 271.095 -1.90167 -0.426893 0
M  V30 3159 H 270.191 -2.53862 -1.8155 0
M  V30 3160 N 270.492 0.636531 -1.44174 0
M  V30 3161 C 271.74 1.39343 -1.46383 0
M  V30 3162 C 272.061 1.94766 -0.0955715 0
M  V30 3163 O 271.331 1.75452 0.871395 0
M  V30 3164 H 269.911 0.517199 -0.538994 0
M  V30 3165 H 272.573 0.74957 -1.7991 0
M  V30 3166 H 271.669 2.22746 -2.18611 0
M  V30 3167 N 271.97 1.30982 0.876444 0
M  V30 3168 C 272.933 1.18054 1.96459 0
M  V30 3169 C 273.933 0.109399 1.60427 0
M  V30 3170 O 275.123 0.358173 1.70478 0
M  V30 3171 C 272.255 0.810616 3.31122 0
M  V30 3172 H 273.448 2.14735 2.09354 0
M  V30 3173 H 271.001 1.145 1.06392 0
M  V30 3174 H 271.736 -0.155322 3.23928 0
M  V30 3175 H 271.521 1.58481 3.58645 0
M  V30 3176 H 273.011 0.743876 4.10921 0
M  V30 3177 N 273.449 -1.08991 1.13837 0
M  V30 3178 C 274.697 -1.80899 0.901098 0
M  V30 3179 C 275.018 -1.86356 -0.574134 0
M  V30 3180 O 274.288 -1.35235 -1.41733 0
M  V30 3181 H 272.868 -0.669966 0.330386 0
M  V30 3182 H 275.53 -1.318 1.43578 0
M  V30 3183 H 274.626 -2.83929 1.29578 0
M  V30 3184 N 274.927 -0.932562 -1.27047 0
M  V30 3185 C 275.89 -0.440064 -2.24936 0
M  V30 3186 C 276.89 0.444071 -1.54547 0
M  V30 3187 O 278.08 0.244465 -1.72476 0
M  V30 3188 C 275.212 0.36678 -3.38921 0
M  V30 3189 H 276.405 -1.305 -2.70018 0
M  V30 3190 H 273.958 -0.713707 -1.39054 0
M  V30 3191 H 274.693 1.25033 -2.99228 0
M  V30 3192 H 274.478 -0.267204 -3.91188 0
M  V30 3193 H 275.968 0.701567 -4.11665 0
M  V30 3194 N 276.405 1.4127 -0.698611 0
M  V30 3195 C 277.653 2.00782 -0.230409 0
M  V30 3196 C 277.974 1.5562 1.17505 0
M  V30 3197 O 277.244 0.78815 1.79346 0
M  V30 3198 H 275.824 0.742464 -0.0821944 0
M  V30 3199 H 278.486 1.72852 -0.90045 0
M  V30 3200 H 277.582 3.11095 -0.25021 0
M  V30 3201 N 277.883 0.443576 1.51229 0
M  V30 3202 C 279.16 -0.181038 1.9476 0
M  V30 3203 C 279.54 -1.59523 1.38259 0
M  V30 3204 O 278.888 -2.2122 0.572198 0
M  V30 3205 C 279.098 -0.152422 3.48667 0
M  V30 3206 C 280.446 -0.354923 4.23114 0
M  V30 3207 O 281.47 -0.230257 3.55455 0
M  V30 3208 O 280.329 -0.603674 5.43156 0
M  V30 3209 H 277.423 -0.1266 0.817252 0
M  V30 3210 H 279.969 0.502004 1.62105 0
M  V30 3211 H 278.741 0.836022 3.82265 0
M  V30 3212 H 278.364 -0.878107 3.87782 0
M  V30 3213 N 279.361 -1.56624 0.175154 0
M  V30 3214 C 280.638 -1.88688 -0.515373 0
M  V30 3215 C 281.018 -1.08564 -1.81044 0
M  V30 3216 O 280.366 -0.180703 -2.27784 0
M  V30 3217 C 280.576 -3.40768 -0.753552 0
M  V30 3218 C 281.924 -4.10587 -1.08184 0
M  V30 3219 O 282.948 -3.46106 -0.841961 0
M  V30 3220 O 281.807 -5.24512 -1.53459 0
M  V30 3221 H 278.901 -0.78301 -0.26613 0
M  V30 3222 H 281.447 -1.68347 0.213877 0
M  V30 3223 H 280.219 -3.90965 0.161829 0
M  V30 3224 H 279.842 -3.66733 -1.53598 0
M  V30 3225 N 280.839 0.0985539 -1.57292 0
M  V30 3226 C 281.749 1.13824 -2.05137 0
M  V30 3227 C 282.765 1.44076 -0.975604 0
M  V30 3228 O 283.941 1.54786 -1.28853 0
M  V30 3229 C 281.006 2.43969 -2.46333 0
M  V30 3230 C 280.067 2.2093 -3.68087 0
M  V30 3231 C 279.3 3.44869 -4.0731 0
M  V30 3232 O 279.523 4.52972 -3.46659 0
M  V30 3233 O 278.457 3.34661 -5.00285 0
M  V30 3234 H 282.283 0.761881 -2.93988 0
M  V30 3235 H 279.868 0.310818 -1.46131 0
M  V30 3236 H 281.75 3.20609 -2.73473 0
M  V30 3237 H 280.425 2.81038 -1.60621 0
M  V30 3238 H 279.332 1.42081 -3.46069 0
M  V30 3239 H 280.665 1.88755 -4.54568 0
M  V30 3240 N 282.317 1.53212 0.369288 0
M  V30 3241 C 283.227 1.82342 1.47609 0
M  V30 3242 C 284.243 0.711532 1.58787 0
M  V30 3243 O 285.419 1.0012 1.74751 0
M  V30 3244 C 282.484 2.00393 2.8292 0
M  V30 3245 C 281.545 3.24297 2.81301 0
M  V30 3246 C 280.778 3.41478 4.10157 0
M  V30 3247 O 281.001 2.63033 5.06132 0
M  V30 3248 O 279.935 4.34817 4.16194 0
M  V30 3249 H 283.761 2.76366 1.25918 0
M  V30 3250 H 281.346 1.38547 0.559034 0
M  V30 3251 H 283.228 2.13859 3.63101 0
M  V30 3252 H 281.903 1.09559 3.04596 0
M  V30 3253 H 280.81 3.16257 1.99831 0
M  V30 3254 H 282.143 4.15041 2.64578 0
M  V30 3255 N 283.795 -0.628877 1.44509 0
M  V30 3256 C 284.705 -1.7694 1.54044 0
M  V30 3257 C 285.721 -1.68705 0.425987 0
M  V30 3258 O 286.897 -1.89442 0.683656 0
M  V30 3259 C 283.962 -3.13332 1.48405 0
M  V30 3260 C 283.023 -3.33181 2.70719 0
M  V30 3261 C 282.256 -4.63067 2.6534 0
M  V30 3262 O 282.479 -5.44017 1.71469 0
M  V30 3263 O 281.413 -4.85167 3.56226 0
M  V30 3264 H 285.239 -1.71848 2.50403 0
M  V30 3265 H 282.824 -0.790378 1.26781 0
M  V30 3266 H 284.706 -3.94634 1.47791 0
M  V30 3267 H 283.381 -3.1896 0.551898 0
M  V30 3268 H 282.288 -2.51549 2.769 0
M  V30 3269 H 283.621 -3.32416 3.62988 0
M  V30 3270 N 285.273 -1.31445 -0.869486 0
M  V30 3271 C 286.55 -1.11795 -1.60503 0
M  V30 3272 C 286.93 0.327168 -2.08549 0
M  V30 3273 O 286.278 1.32135 -1.8642 0
M  V30 3274 C 286.488 -2.13258 -2.76265 0
M  V30 3275 C 287.836 -2.45805 -3.46215 0
M  V30 3276 O 288.86 -2.11688 -2.86473 0
M  V30 3277 O 287.719 -3.04228 -4.5399 0
M  V30 3278 H 284.813 -0.430421 -0.706163 0
M  V30 3279 H 287.359 -1.42925 -0.914907 0
M  V30 3280 H 286.131 -3.10461 -2.3818 0
M  V30 3281 H 285.754 -1.83035 -3.52964 0
M  V30 3282 O 286.79 1.00619 -1.26325 0
M  V30 3283 H 287.481 1.62637 -1.05209 0
M  V30 END ATOM
M  V30 BEGIN BOND
M  V30 END BOND
M  V30 END CTAB
M  END
$$$$
