drugbank_target|P61421 V-type proton ATPase subunit d 1 (DB01133)
 OpenBabel12092121233D

  0  0  0     0  0            999 V3000
M  V30 BEGIN CTAB
M  V30 COUNTS 5626 5692 0 0 0
M  V30 BEGIN ATOM
M  V30 1 H -0.908 1.98254 -0.117106 0
M  V30 2 N 0 1.576 0 0
M  V30 3 C 0.933 2.03868 1.02534 0
M  V30 4 C 1.911 0.928543 1.3348 0
M  V30 5 O 3.095 1.19667 1.45644 0
M  V30 6 C 0.222 2.43627 2.35294 0
M  V30 7 C -0.732 3.65373 2.2001 0
M  V30 8 S 0.101 5.13292 1.52614 0
M  V30 9 C 1.257 5.56322 2.86805 0
M  V30 10 H 1.49 2.90518 0.631377 0
M  V30 11 H -0.977 1.52953 0.210867 0
M  V30 12 H 0.981 2.67203 3.11629 0
M  V30 13 H -0.358 1.57376 2.7183 0
M  V30 14 H -1.165 3.90944 3.18086 0
M  V30 15 H -1.563 3.418 1.51819 0
M  V30 16 H 0.729 5.58782 3.83104 0
M  V30 17 H 1.672 6.56266 2.65933 0
M  V30 18 H 2.08 4.83886 2.90714 0
M  V30 19 N 1.4781 -0.272755 1.55222 0
M  V30 20 C 2.7031 -1.02683 1.80197 0
M  V30 21 C 3.1281 -1.79142 0.573551 0
M  V30 22 O 2.4861 -1.74917 -0.476849 0
M  V30 23 C 2.5341 -1.9609 3.02624 0
M  V30 24 O 1.6381 -3.04863 2.77727 0
M  V30 25 H 0.9791 -0.293557 0.595584 0
M  V30 26 H 3.5091 -0.30159 2.02365 0
M  V30 27 H 3.5191 -2.38039 3.31363 0
M  V30 28 H 2.1941 -1.39851 3.91682 0
M  V30 29 H 0.7711 -2.67228 2.60084 0
M  V30 30 N 2.9562 -1.48159 -0.537278 0
M  V30 31 C 4.2032 -1.55804 -1.29349 0
M  V30 32 C 4.5312 -0.228802 -1.9315 0
M  V30 33 O 3.7862 0.780242 -1.79473 0
M  V30 34 C 4.0852 -2.63956 -2.40961 0
M  V30 35 C 3.7512 -4.0662 -1.94861 0
M  V30 36 C 2.4132 -4.45452 -1.82006 0
M  V30 37 C 4.7652 -4.96055 -1.59933 0
M  V30 38 C 2.0932 -5.71531 -1.32547 0
M  V30 39 C 4.4452 -6.22617 -1.11939 0
M  V30 40 C 3.1092 -6.60312 -0.976951 0
M  V30 41 H 2.3792 -0.570129 -0.473322 0
M  V30 42 H 5.0262 -1.81845 -0.600372 0
M  V30 43 H 3.3312 -2.31747 -3.15912 0
M  V30 44 H 5.0282 -2.67089 -2.99107 0
M  V30 45 H 1.6182 -3.75949 -2.05815 0
M  V30 46 H 5.8022 -4.66738 -1.68728 0
M  V30 47 H 1.0582 -5.99468 -1.202 0
M  V30 48 H 5.2322 -6.91318 -0.839811 0
M  V30 49 H 2.8592 -7.57895 -0.591501 0
M  V30 50 N 4.4343 0.785586 -1.36625 0
M  V30 51 C 5.6813 1.54362 -1.31067 0
M  V30 52 C 6.0093 1.94195 0.10893 0
M  V30 53 O 5.2643 1.63262 1.07908 0
M  V30 54 C 5.5633 2.83007 -2.1827 0
M  V30 55 C 5.2293 2.62294 -3.6676 0
M  V30 56 C 3.8913 2.56353 -4.0723 0
M  V30 57 C 6.2433 2.43371 -4.6089 0
M  V30 58 C 3.5713 2.29461 -5.39967 0
M  V30 59 C 5.9233 2.18005 -5.93849 0
M  V30 60 C 4.5873 2.105 -6.3344 0
M  V30 61 H 3.8573 0.564851 -0.479609 0
M  V30 62 H 6.5043 0.906028 -1.68711 0
M  V30 63 H 4.8093 3.51253 -1.73576 0
M  V30 64 H 6.5063 3.40817 -2.11292 0
M  V30 65 H 3.0963 2.67774 -3.34656 0
M  V30 66 H 7.2803 2.46959 -4.30494 0
M  V30 67 H 2.5363 2.22135 -5.69619 0
M  V30 68 H 6.7103 2.02359 -6.66351 0
M  V30 69 H 4.3373 1.89425 -7.36222 0
M  V30 70 N 5.9124 1.20967 1.01018 0
M  V30 71 C 7.3234 1.02319 1.56165 0
M  V30 72 C 7.6744 -0.418546 1.91684 0
M  V30 73 O 6.7994 -1.30096 1.72928 0
M  V30 74 C 7.3944 1.85109 2.8376 0
M  V30 75 C 5.9534 1.70809 3.35412 0
M  V30 76 C 5.1004 1.82643 2.08655 0
M  V30 77 H 8.0514 1.35065 0.833255 0
M  V30 78 H 8.0724 1.35827 3.55431 0
M  V30 79 H 7.5844 2.90035 2.57878 0
M  V30 80 H 5.6854 0.685464 3.66241 0
M  V30 81 H 5.7984 2.52467 4.07182 0
M  V30 82 H 4.1624 1.25896 2.21409 0
M  V30 83 H 4.9454 2.89066 1.85191 0
M  V30 84 N 7.3905 -1.2043 1.01659 0
M  V30 85 C 8.3005 -2.2689 0.596484 0
M  V30 86 C 9.3165 -1.70107 -0.36599 0
M  V30 87 O 10.4925 -2.00117 -0.226942 0
M  V30 88 C 7.5575 -3.4665 -0.0586659 0
M  V30 89 C 6.6185 -4.18662 0.949751 0
M  V30 90 C 5.8515 -5.32705 0.32577 0
M  V30 91 O 6.0745 -5.63656 -0.874509 0
M  V30 92 O 5.0085 -5.92803 1.04249 0
M  V30 93 H 8.8345 -2.65041 1.4828 0
M  V30 94 H 6.4195 -1.27048 0.786082 0
M  V30 95 H 8.3015 -4.19256 -0.424564 0
M  V30 96 H 6.9765 -3.10375 -0.91918 0
M  V30 97 H 5.8835 -3.48229 1.36702 0
M  V30 98 H 7.2165 -4.58878 1.78023 0
M  V30 99 N 8.8686 -0.792821 -1.36206 0
M  V30 100 C 9.7986 -0.207853 -2.32573 0
M  V30 101 C 10.7796 0.659055 -1.56813 0
M  V30 102 O 11.9646 0.592176 -1.84951 0
M  V30 103 C 9.0946 0.655449 -3.41059 0
M  V30 104 C 8.0486 -0.111842 -4.27854 0
M  V30 105 C 7.3746 0.872274 -5.27537 0
M  V30 106 C 8.6746 -1.30299 -5.05786 0
M  V30 107 H 10.3686 -1.01294 -2.81744 0
M  V30 108 H 7.9146 -0.48854 -1.3546 0
M  V30 109 H 9.8676 1.07464 -4.07467 0
M  V30 110 H 8.5916 1.49328 -2.90463 0
M  V30 111 H 7.2506 -0.512053 -3.63006 0
M  V30 112 H 6.8986 1.70523 -4.73214 0
M  V30 113 H 6.5986 0.363291 -5.86476 0
M  V30 114 H 8.1226 1.28996 -5.96818 0
M  V30 115 H 9.5366 -0.959379 -5.65216 0
M  V30 116 H 7.9336 -1.7455 -5.74154 0
M  V30 117 H 9.0036 -2.09663 -4.37229 0
M  V30 118 N 10.3467 1.47872 -0.545128 0
M  V30 119 C 11.5767 2.06589 -0.0210534 0
M  V30 120 C 11.9847 1.39997 1.27269 0
M  V30 121 O 11.3277 0.486421 1.77143 0
M  V30 122 C 11.3897 3.58574 0.257933 0
M  V30 123 C 11.0537 4.47132 -0.944573 0
M  V30 124 C 12.0507 4.85986 -1.84699 0
M  V30 125 C 9.7357 4.88821 -1.15584 0
M  V30 126 C 11.7297 5.65314 -2.94446 0
M  V30 127 C 9.4167 5.67916 -2.25642 0
M  V30 128 C 10.4147 6.06073 -3.14905 0
M  V30 129 O 10.1027 6.83578 -4.23057 0
M  V30 130 H 9.8347 0.674971 -0.0372899 0
M  V30 131 H 12.3887 1.91037 -0.754599 0
M  V30 132 H 10.6187 3.72295 1.04564 0
M  V30 133 H 12.3077 3.99356 0.72592 0
M  V30 134 H 13.0737 4.54388 -1.69577 0
M  V30 135 H 8.9527 4.58595 -0.470279 0
M  V30 136 H 12.4967 5.95016 -3.64145 0
M  V30 137 H 8.3937 5.98927 -2.40742 0
M  V30 138 H 9.1617 7.01954 -4.20954 0
M  V30 139 N 11.8248 0.280983 1.55075 0
M  V30 140 C 13.0718 -0.334115 1.99725 0
M  V30 141 C 13.3998 -1.5542 1.1694 0
M  V30 142 O 12.6548 -1.94361 0.228531 0
M  V30 143 C 12.9538 -0.754656 3.49342 0
M  V30 144 C 12.6198 0.361445 4.49449 0
M  V30 145 C 11.2818 0.667893 4.76542 0
M  V30 146 C 13.6338 1.11322 5.09173 0
M  V30 147 C 10.9618 1.7296 5.60626 0
M  V30 148 C 13.3138 2.1647 5.9441 0
M  V30 149 C 11.9778 2.47742 6.19822 0
M  V30 150 H 11.2478 -0.122261 0.730844 0
M  V30 151 H 13.8948 0.395917 1.87363 0
M  V30 152 H 12.1998 -1.56446 3.5921 0
M  V30 153 H 13.8968 -1.24142 3.813 0
M  V30 154 H 10.4868 0.112481 4.28452 0
M  V30 155 H 14.6708 0.88973 4.8826 0
M  V30 156 H 9.9268 1.97684 5.78559 0
M  V30 157 H 14.1008 2.75193 6.3972 0
M  V30 158 H 11.7278 3.30145 6.84769 0
M  V30 159 N 13.3029 -1.57598 0.00835791 0
M  V30 160 C 14.2509 -2.10078 -0.998508 0
M  V30 161 C 15.2449 -1.02262 -1.35051 0
M  V30 162 O 16.4509 -1.20719 -1.33518 0
M  V30 163 H 12.8259 -0.670903 -0.339696 0
M  V30 164 H 14.7969 -2.93648 -0.530398 0
M  V30 165 C 13.5459 -2.62615 -2.27879 0
M  V30 166 H 12.8689 -3.45213 -2.01662 0
M  V30 167 H 14.3089 -3.03004 -2.96588 0
M  V30 168 C 12.7679 -1.54407 -2.99433 0
M  V30 169 O 13.2979 -0.931812 -3.90743 0
M  V30 170 N 11.5039 -1.2695 -2.61404 0
M  V30 171 H 11.0509 -1.76924 -1.87232 0
M  V30 172 H 11.0089 -0.547704 -3.09593 0
M  V30 173 N 14.781 0.264519 -1.55364 0
M  V30 174 C 16.027 0.99646 -1.76631 0
M  V30 175 C 16.36 1.85632 -0.570478 0
M  V30 176 O 15.635 1.89647 0.43175 0
M  V30 177 C 15.918 1.87187 -3.07625 0
M  V30 178 C 15.771 1.04138 -4.37579 0
M  V30 179 C 17.09 2.85749 -3.34717 0
M  V30 180 H 14.209 0.360841 -0.642622 0
M  V30 181 H 16.851 0.268218 -1.88097 0
M  V30 182 H 15.001 2.49279 -2.9798 0
M  V30 183 H 16.673 0.440517 -4.59192 0
M  V30 184 H 14.916 0.345115 -4.32425 0
M  V30 185 H 15.587 1.68729 -5.2558 0
M  V30 186 H 18.063 2.33793 -3.4421 0
M  V30 187 H 16.939 3.44136 -4.27623 0
M  V30 188 H 17.2 3.61311 -2.54768 0
M  V30 189 N 16.2591 1.48442 0.529413 0
M  V30 190 C 17.5361 1.46978 1.29062 0
M  V30 191 C 17.9161 0.181769 2.10316 0
M  V30 192 O 17.2641 -0.836481 2.12639 0
M  V30 193 C 17.4741 2.7321 2.17157 0
M  V30 194 C 18.8221 3.21562 2.77278 0
M  V30 195 O 19.8461 2.74131 2.27444 0
M  V30 196 O 18.7051 4.04094 3.67927 0
M  V30 197 H 15.7991 0.587003 0.582543 0
M  V30 198 H 18.3451 1.60676 0.546021 0
M  V30 199 H 17.1171 3.58465 1.56903 0
M  V30 200 H 16.7401 2.62235 2.98862 0
M  V30 201 N 17.7372 -0.778329 1.37039 0
M  V30 202 C 18.6852 -1.91278 1.32345 0
M  V30 203 C 19.6792 -1.68051 0.213331 0
M  V30 204 O 20.8852 -1.75922 0.38098 0
M  V30 205 H 17.2602 -0.628909 0.412283 0
M  V30 206 H 19.2312 -1.92355 2.28127 0
M  V30 207 C 17.9802 -3.28455 1.14073 0
M  V30 208 H 17.3032 -3.46901 1.98746 0
M  V30 209 H 18.7432 -4.08152 1.14837 0
M  V30 210 C 17.2022 -3.36548 -0.154015 0
M  V30 211 O 17.7322 -3.85186 -1.13993 0
M  V30 212 N 15.9382 -2.89894 -0.202475 0
M  V30 213 H 15.4852 -2.50504 0.600476 0
M  V30 214 H 15.4432 -2.9569 -1.06841 0
M  V30 215 N 19.2153 -1.21501 -1.00376 0
M  V30 216 C 20.4633 -1.03095 -1.73827 0
M  V30 217 C 20.7843 0.436341 -1.90055 0
M  V30 218 O 20.0543 1.31466 -1.45236 0
M  V30 219 H 18.6343 -0.378487 -0.644016 0
M  V30 220 H 21.2963 -1.52831 -1.20949 0
M  V30 221 H 20.3923 -1.49991 -2.73695 0
M  V30 222 N 20.6934 1.19889 -1.02296 0
M  V30 223 C 21.9234 1.93109 -0.734332 0
M  V30 224 C 22.3314 1.75377 0.709889 0
M  V30 225 O 21.6744 1.06912 1.49384 0
M  V30 226 C 21.7364 3.45362 -0.99827 0
M  V30 227 C 21.4004 3.8686 -2.43287 0
M  V30 228 C 22.3974 3.92102 -3.41397 0
M  V30 229 C 20.0824 4.18668 -2.77529 0
M  V30 230 C 22.0764 4.28573 -4.71809 0
M  V30 231 C 19.7634 4.54813 -4.08153 0
M  V30 232 C 20.7614 4.59739 -5.05103 0
M  V30 233 O 20.4494 4.95051 -6.33388 0
M  V30 234 H 20.1814 0.620409 -0.268456 0
M  V30 235 H 22.7354 1.53144 -1.3688 0
M  V30 236 H 20.9654 3.85482 -0.306645 0
M  V30 237 H 22.6544 3.99814 -0.700234 0
M  V30 238 H 23.4204 3.67685 -3.1628 0
M  V30 239 H 19.2994 4.14021 -2.0275 0
M  V30 240 H 22.8434 4.32333 -5.4748 0
M  V30 241 H 18.7404 4.78687 -4.33047 0
M  V30 242 H 19.5084 5.1302 -6.37772 0
M  V30 243 N 22.1715 0.800033 1.35784 0
M  V30 244 C 23.1015 0.220184 2.3246 0
M  V30 245 C 24.0825 -0.65073 1.57161 0
M  V30 246 O 25.2675 -0.582359 1.85263 0
M  V30 247 C 22.3975 -0.637353 3.41402 0
M  V30 248 C 21.3515 0.134531 4.27789 0
M  V30 249 C 20.6775 -0.844285 5.27992 0
M  V30 250 C 21.9775 1.32979 5.05088 0
M  V30 251 H 23.6715 1.02787 2.81203 0
M  V30 252 H 21.2175 0.495717 1.35199 0
M  V30 253 H 23.1705 -1.05302 4.08031 0
M  V30 254 H 21.8945 -1.47785 2.91251 0
M  V30 255 H 20.5535 0.531296 3.6273 0
M  V30 256 H 20.2015 -1.68011 4.74111 0
M  V30 257 H 19.9015 -0.332184 5.8666 0
M  V30 258 H 21.4255 -1.2583 5.97494 0
M  V30 259 H 22.8395 0.98934 5.64699 0
M  V30 260 H 21.2365 1.77593 5.7322 0
M  V30 261 H 22.3065 2.11978 4.36111 0
M  V30 262 N 23.6496 -1.47581 0.552962 0
M  V30 263 C 24.5596 -2.33743 -0.200353 0
M  V30 264 C 25.5756 -1.47928 -0.916151 0
M  V30 265 O 26.7516 -1.80865 -0.885993 0
M  V30 266 C 23.8166 -3.24536 -1.21973 0
M  V30 267 C 22.8776 -4.26238 -0.511819 0
M  V30 268 C 22.1106 -5.12693 -1.48263 0
M  V30 269 O 22.3336 -5.01525 -2.71714 0
M  V30 270 O 21.2676 -5.93375 -1.00945 0
M  V30 271 H 25.0936 -2.9945 0.506304 0
M  V30 272 H 22.6786 -1.46071 0.313622 0
M  V30 273 H 24.5606 -3.80631 -1.80827 0
M  V30 274 H 23.2356 -2.61462 -1.90839 0
M  V30 275 H 22.1426 -3.73914 0.117799 0
M  V30 276 H 23.4756 -4.92014 0.135308 0
M  V30 277 N 25.1277 -0.289203 -1.54924 0
M  V30 278 C 26.3757 0.322879 -1.99504 0
M  V30 279 C 26.6967 1.55313 -1.1791 0
M  V30 280 O 25.9667 1.94001 -0.272097 0
M  V30 281 H 24.5467 0.122291 -0.736922 0
M  V30 282 H 27.2087 -0.397802 -1.90797 0
M  V30 283 H 26.3047 0.603061 -3.06218 0
M  V30 284 N 26.6058 1.57591 -0.0167156 0
M  V30 285 C 27.5358 2.12496 0.967858 0
M  V30 286 C 28.5168 1.03807 1.34752 0
M  V30 287 O 29.7018 1.31577 1.42833 0
M  V30 288 C 26.8318 2.64194 2.25431 0
M  V30 289 C 25.7858 3.77559 2.01576 0
M  V30 290 C 25.1118 4.15636 3.36379 0
M  V30 291 C 26.4118 5.04151 1.36489 0
M  V30 292 H 28.1058 2.95013 0.510643 0
M  V30 293 H 25.6518 1.41915 0.244181 0
M  V30 294 H 27.6048 3.01236 2.94678 0
M  V30 295 H 26.3288 1.78821 2.73296 0
M  V30 296 H 24.9878 3.40937 1.34751 0
M  V30 297 H 24.6358 3.27263 3.81979 0
M  V30 298 H 24.3358 4.92022 3.21229 0
M  V30 299 H 25.8598 4.5525 4.06915 0
M  V30 300 H 27.2738 5.38857 1.95718 0
M  V30 301 H 25.6708 5.85453 1.31776 0
M  V30 302 H 26.7408 4.83733 0.336219 0
M  V30 303 N 28.0839 -0.256276 1.55502 0
M  V30 304 C 29.3299 -0.987079 1.77157 0
M  V30 305 C 29.6629 -1.85327 0.580315 0
M  V30 306 O 28.9379 -1.89874 -0.421686 0
M  V30 307 C 29.2209 -1.85553 3.08613 0
M  V30 308 C 29.0739 -1.01816 4.38125 0
M  V30 309 C 30.3929 -2.8397 3.36228 0
M  V30 310 H 27.5119 -0.357428 0.644526 0
M  V30 311 H 30.1539 -0.258239 1.88237 0
M  V30 312 H 28.3039 -2.47695 2.99298 0
M  V30 313 H 29.9759 -0.416159 4.59419 0
M  V30 314 H 28.2189 -0.322178 4.32602 0
M  V30 315 H 28.8899 -1.65939 5.26468 0
M  V30 316 H 31.3659 -2.31964 3.45445 0
M  V30 317 H 30.2419 -3.41864 4.29442 0
M  V30 318 H 30.5029 -3.59955 2.56681 0
M  V30 319 N 29.562 -1.4872 -0.521534 0
M  V30 320 C 30.978 -1.35028 -0.850855 0
M  V30 321 C 31.178 -0.367712 -1.98116 0
M  V30 322 O 30.234 0.208037 -2.51642 0
M  V30 323 C 31.547 -2.75263 -1.21041 0
M  V30 324 C 33.095 -2.83813 -1.31981 0
M  V30 325 C 33.57 -4.24769 -1.71276 0
M  V30 326 N 35.061 -4.27482 -1.78363 0
M  V30 327 C 35.796 -5.33494 -2.1017 0
M  V30 328 N 35.292 -6.49775 -2.40343 0
M  V30 329 N 37.085 -5.20894 -2.11248 0
M  V30 330 H 29.236 -2.11214 0.22413 0
M  V30 331 H 31.499 -0.947252 0.0376439 0
M  V30 332 H 31.205 -3.48765 -0.453415 0
M  V30 333 H 31.079 -3.09327 -2.15863 0
M  V30 334 H 33.466 -2.10561 -2.06756 0
M  V30 335 H 33.547 -2.53358 -0.352596 0
M  V30 336 H 33.191 -4.9854 -0.970588 0
M  V30 337 H 33.121 -4.52673 -2.69062 0
M  V30 338 H 35.612 -3.43611 -1.57288 0
M  V30 339 H 35.925 -7.26402 -2.63743 0
M  V30 340 H 34.27 -6.53035 -2.37844 0
M  V30 341 H 37.461 -4.29065 -1.87139 0
M  V30 342 H 37.634 -6.03612 -2.35704 0
M  V30 343 N 31.0401 0.771051 -1.3745 0
M  V30 344 C 32.2881 1.52661 -1.32435 0
M  V30 345 C 32.6091 1.9479 0.0905024 0
M  V30 346 O 31.8791 1.66348 1.03466 0
M  V30 347 H 30.4591 0.566218 -0.487244 0
M  V30 348 H 33.1211 0.917636 -1.71946 0
M  V30 349 H 32.2171 2.42568 -1.96385 0
M  V30 350 N 32.5182 1.22032 0.997298 0
M  V30 351 C 33.4482 1.01065 2.10495 0
M  V30 352 C 34.4292 -0.0669542 1.69968 0
M  V30 353 O 35.6142 0.0943987 1.9397 0
M  V30 354 C 32.7442 0.582874 3.42374 0
M  V30 355 C 31.6982 1.60592 3.96729 0
M  V30 356 C 31.0242 1.03412 5.24605 0
M  V30 357 C 32.3242 2.99478 4.27914 0
M  V30 358 H 34.0182 1.93708 2.28292 0
M  V30 359 H 31.5642 0.932761 1.09707 0
M  V30 360 H 33.5172 0.423332 4.19268 0
M  V30 361 H 32.2412 -0.379213 3.24391 0
M  V30 362 H 30.9002 1.75316 3.21963 0
M  V30 363 H 30.5482 0.063518 5.0296 0
M  V30 364 H 30.2482 1.71754 5.61938 0
M  V30 365 H 31.7722 0.886066 6.04137 0
M  V30 366 H 33.1862 2.88153 4.95622 0
M  V30 367 H 31.5832 3.64903 4.76409 0
M  V30 368 H 32.6532 3.49742 3.3587 0
M  V30 369 N 33.9963 -1.19345 1.0293 0
M  V30 370 C 34.9433 -2.2258 0.610464 0
M  V30 371 C 35.9133 -1.6179 -0.375946 0
M  V30 372 O 37.0983 -1.88844 -0.272511 0
M  V30 373 C 34.2383 -3.45085 -0.0321473 0
M  V30 374 C 33.3513 -4.20258 1.00035 0
M  V30 375 C 32.4863 -5.3019 0.32746 0
M  V30 376 C 31.5253 -5.97121 1.34584 0
M  V30 377 N 30.6623 -6.98615 0.698726 0
M  V30 378 H 35.5023 -2.57764 1.49538 0
M  V30 379 H 33.0393 -1.26644 0.748311 0
M  V30 380 H 34.9973 -4.15061 -0.421966 0
M  V30 381 H 33.6273 -3.10555 -0.88064 0
M  V30 382 H 32.6793 -3.49223 1.50823 0
M  V30 383 H 33.9913 -4.66175 1.77433 0
M  V30 384 H 33.1453 -6.06587 -0.11718 0
M  V30 385 H 31.8843 -4.85345 -0.478713 0
M  V30 386 H 30.8893 -5.19474 1.80074 0
M  V30 387 H 32.1143 -6.4405 2.15352 0
M  V30 388 H 30.0603 -6.55942 -0.0873471 0
M  V30 389 H 29.9773 -7.42724 1.41058 0
M  V30 390 H 31.2453 -7.79004 0.278102 0
M  V30 391 N 35.4744 -0.807222 -1.35358 0
M  V30 392 C 36.4374 -0.223665 -2.28106 0
M  V30 393 C 37.4374 0.589354 -1.4961 0
M  V30 394 O 38.6274 0.407745 -1.69361 0
M  V30 395 C 35.7594 0.688149 -3.33882 0
M  V30 396 H 36.9524 -1.04169 -2.81227 0
M  V30 397 H 34.5054 -0.577921 -1.45223 0
M  V30 398 H 35.2404 1.52984 -2.85948 0
M  V30 399 H 35.0254 0.10687 -3.91954 0
M  V30 400 H 36.5154 1.09075 -4.03104 0
M  V30 401 N 36.9525 1.47285 -0.560781 0
M  V30 402 C 38.2005 2.02064 -0.0379868 0
M  V30 403 C 38.5215 1.43711 1.31803 0
M  V30 404 O 37.7915 0.61362 1.86042 0
M  V30 405 H 36.3715 0.746918 -0.0110531 0
M  V30 406 H 39.0335 1.80648 -0.731598 0
M  V30 407 H 38.1295 3.12064 0.0474463 0
M  V30 408 N 38.4306 0.297415 1.54768 0
M  V30 409 C 39.6766 -0.313376 2.00364 0
M  V30 410 C 40.0096 -1.53815 1.18553 0
M  V30 411 O 39.2846 -1.92739 0.261103 0
M  V30 412 C 39.5676 -0.673525 3.53745 0
M  V30 413 C 39.4206 0.560133 4.46299 0
M  V30 414 C 40.7396 -1.50143 4.13697 0
M  V30 415 H 37.8586 -0.112428 0.728374 0
M  V30 416 H 40.5006 0.4088 1.8555 0
M  V30 417 H 38.6506 -1.28881 3.665 0
M  V30 418 H 40.3226 1.19863 4.45455 0
M  V30 419 H 38.5656 1.19405 4.17043 0
M  V30 420 H 39.2366 0.26405 5.51368 0
M  V30 421 H 41.7126 -0.981588 4.04356 0
M  V30 422 H 40.5886 -1.72221 5.21182 0
M  V30 423 H 40.8496 -2.48952 3.65343 0
M  V30 424 N 39.9087 -1.5758 0.0250728 0
M  V30 425 C 40.8387 -2.13007 -0.956575 0
M  V30 426 C 41.8197 -1.0452 -1.342 0
M  V30 427 O 43.0047 -1.32332 -1.42133 0
M  V30 428 C 40.1347 -2.65386 -2.24026 0
M  V30 429 C 39.0887 -3.78623 -1.99571 0
M  V30 430 C 38.4147 -4.17414 -3.3417 0
M  V30 431 C 39.7147 -5.04867 -1.33814 0
M  V30 432 H 41.4087 -2.9528 -0.494991 0
M  V30 433 H 38.9547 -1.42042 -0.236651 0
M  V30 434 H 40.9077 -3.02794 -2.93076 0
M  V30 435 H 39.6317 -1.80268 -2.72343 0
M  V30 436 H 38.2907 -3.41646 -1.32941 0
M  V30 437 H 37.9387 -3.29284 -3.80238 0
M  V30 438 H 37.6387 -4.93719 -3.18615 0
M  V30 439 H 39.1627 -4.57402 -4.04495 0
M  V30 440 H 40.5767 -5.39888 -1.92857 0
M  V30 441 H 38.9737 -5.86144 -1.28669 0
M  V30 442 H 40.0437 -4.83904 -0.310561 0
M  V30 443 N 41.3868 0.248026 -1.55636 0
M  V30 444 C 42.6118 0.998028 -1.81808 0
M  V30 445 C 43.0368 1.78207 -0.601979 0
M  V30 446 O 42.3948 1.75653 0.448961 0
M  V30 447 C 42.4428 1.9125 -3.05705 0
M  V30 448 O 41.5468 3.00406 -2.82542 0
M  V30 449 H 40.8878 0.284045 -0.600179 0
M  V30 450 H 43.4178 0.269357 -2.02819 0
M  V30 451 H 43.4278 2.32737 -3.35108 0
M  V30 452 H 42.1028 1.33602 -3.93857 0
M  V30 453 H 40.6798 2.63056 -2.64303 0
M  V30 454 N 42.8649 1.48995 0.513639 0
M  V30 455 C 43.7969 1.60836 1.63293 0
M  V30 456 C 44.8099 0.491701 1.55197 0
M  V30 457 O 45.9989 0.763238 1.6136 0
M  V30 458 C 43.0989 1.53731 3.02027 0
M  V30 459 C 42.2719 2.80715 3.35437 0
M  V30 460 C 41.3309 2.66837 4.53525 0
M  V30 461 O 40.3569 3.40753 4.55934 0
M  V30 462 N 41.5589 1.77539 5.52684 0
M  V30 463 H 44.3239 2.57366 1.53566 0
M  V30 464 H 41.8849 1.45925 0.701259 0
M  V30 465 H 43.8769 1.42118 3.78926 0
M  V30 466 H 42.4469 0.651092 3.05744 0
M  V30 467 H 41.6669 3.06772 2.47557 0
M  V30 468 H 42.9549 3.64927 3.54551 0
M  V30 469 H 42.3529 1.16719 5.53528 0
M  V30 470 H 40.9099 1.71856 6.28736 0
M  V30 471 N 44.343 -0.763751 1.37857 0
M  V30 472 C 45.306 -1.85889 1.34081 0
M  V30 473 C 46.306 -1.58949 0.243277 0
M  V30 474 O 47.496 -1.66882 0.499589 0
M  V30 475 C 44.628 -3.23176 1.08489 0
M  V30 476 H 45.821 -1.90648 2.31502 0
M  V30 477 H 43.374 -0.964367 1.23003 0
M  V30 478 H 44.109 -3.24091 0.116318 0
M  V30 479 H 43.894 -3.44124 1.8794 0
M  V30 480 H 45.384 -4.03254 1.08517 0
M  V30 481 N 45.8211 -1.22559 -0.990812 0
M  V30 482 C 47.0981 -0.959875 -1.70428 0
M  V30 483 C 47.4781 0.524455 -2.04481 0
M  V30 484 O 46.8261 1.49302 -1.72977 0
M  V30 485 C 47.0361 -1.85955 -2.95333 0
M  V30 486 C 48.3841 -2.11687 -3.68068 0
M  V30 487 O 49.4081 -1.8342 -3.05345 0
M  V30 488 O 48.2671 -2.59572 -4.80921 0
M  V30 489 H 45.3611 -0.361154 -0.743974 0
M  V30 490 H 47.9071 -1.33554 -1.04697 0
M  V30 491 H 46.6791 -2.86346 -2.66687 0
M  V30 492 H 46.3021 -1.4856 -3.68803 0
M  V30 493 N 47.2992 1.18797 -1.03562 0
M  V30 494 C 48.5292 1.92319 -0.754773 0
M  V30 495 C 48.9372 1.7612 0.691248 0
M  V30 496 O 48.2802 1.08491 1.48241 0
M  V30 497 C 48.3422 3.44284 -1.03484 0
M  V30 498 C 48.0062 3.84258 -2.47376 0
M  V30 499 C 49.0032 3.88459 -3.45537 0
M  V30 500 C 46.6882 4.15701 -2.81954 0
M  V30 501 C 48.6822 4.23545 -4.76328 0
M  V30 502 C 46.3692 4.50458 -4.12954 0
M  V30 503 C 47.3672 4.54356 -5.09951 0
M  V30 504 O 47.0552 4.88305 -6.38603 0
M  V30 505 H 46.7872 0.617527 -0.275021 0
M  V30 506 H 49.3412 1.51683 -1.38497 0
M  V30 507 H 47.5712 3.85135 -0.347513 0
M  V30 508 H 49.2602 3.99049 -0.7426 0
M  V30 509 H 50.0262 3.6431 -3.20162 0
M  V30 510 H 45.9052 4.11847 -2.0713 0
M  V30 511 H 49.4492 4.26502 -5.52035 0
M  V30 512 H 45.3462 4.74067 -4.38099 0
M  V30 513 H 46.1142 5.06227 -6.43177 0
M  V30 514 N 48.7773 0.814389 1.34928 0
M  V30 515 C 49.7073 0.244827 2.32213 0
M  V30 516 C 50.6883 -0.634024 1.57842 0
M  V30 517 O 51.8733 -0.562676 1.8587 0
M  V30 518 C 49.0033 -0.601106 3.42058 0
M  V30 519 C 47.9573 0.179896 4.27622 0
M  V30 520 C 47.2833 -0.788237 5.28858 0
M  V30 521 C 48.5833 1.38329 5.03649 0
M  V30 522 H 50.2773 1.05763 2.80097 0
M  V30 523 H 47.8233 0.510029 1.34665 0
M  V30 524 H 49.7763 -1.00968 4.09125 0
M  V30 525 H 48.5003 -1.44688 2.92802 0
M  V30 526 H 47.1593 0.569739 3.62146 0
M  V30 527 H 46.8073 -1.62973 4.75866 0
M  V30 528 H 46.5073 -0.269942 5.8698 0
M  V30 529 H 48.0313 -1.19485 5.98795 0
M  V30 530 H 49.4453 1.04918 5.63618 0
M  V30 531 H 47.8423 1.83662 5.71304 0
M  V30 532 H 48.9123 2.16592 4.33839 0
M  V30 533 N 50.2554 -1.46986 0.568584 0
M  V30 534 C 51.2034 -2.31858 -0.185649 0
M  V30 535 C 52.1974 -1.43624 -0.898249 0
M  V30 536 O 53.4034 -1.60327 -0.818242 0
M  V30 537 H 49.7784 -0.747866 -0.0787399 0
M  V30 538 H 51.7494 -2.93303 0.549191 0
M  V30 539 C 50.4984 -3.26513 -1.19519 0
M  V30 540 H 49.8214 -3.94377 -0.656285 0
M  V30 541 H 51.2614 -3.88707 -1.6936 0
M  V30 542 C 49.7204 -2.50847 -2.24894 0
M  V30 543 O 50.2504 -2.26119 -3.32014 0
M  V30 544 N 48.4564 -2.11656 -1.99124 0
M  V30 545 H 48.0034 -2.31966 -1.12024 0
M  V30 546 H 47.9614 -1.61347 -2.69842 0
M  V30 547 N 51.7335 -0.305618 -1.54608 0
M  V30 548 C 52.6635 0.561482 -2.26649 0
M  V30 549 C 53.6445 1.13415 -1.26772 0
M  V30 550 O 54.8295 1.16262 -1.55553 0
M  V30 551 C 51.9595 1.73122 -3.01075 0
M  V30 552 C 50.9135 1.2887 -4.08138 0
M  V30 553 C 50.2395 2.54396 -4.70305 0
M  V30 554 C 51.5395 0.416578 -5.20636 0
M  V30 555 H 53.2335 -0.0393902 -2.99374 0
M  V30 556 H 50.7795 -0.020385 -1.43986 0
M  V30 557 H 52.7325 2.34396 -3.50195 0
M  V30 558 H 51.4565 2.3584 -2.25936 0
M  V30 559 H 50.1155 0.698991 -3.59875 0
M  V30 560 H 49.7635 3.15439 -3.918 0
M  V30 561 H 49.4635 2.25486 -5.42614 0
M  V30 562 H 50.9875 3.16464 -5.2219 0
M  V30 563 H 52.4015 0.935116 -5.65622 0
M  V30 564 H 50.7985 0.221046 -5.99693 0
M  V30 565 H 51.8685 -0.557162 -4.81688 0
M  V30 566 N 53.2116 1.57565 -0.0334293 0
M  V30 567 C 54.4576 1.92262 0.645226 0
M  V30 568 C 54.7906 0.910543 1.71531 0
M  V30 569 O 54.0656 -0.066099 1.94388 0
M  V30 570 C 54.3486 3.37422 1.2577 0
M  V30 571 C 54.2016 4.49369 0.196891 0
M  V30 572 C 55.5206 3.82628 2.17449 0
M  V30 573 H 52.6396 0.699171 0.233085 0
M  V30 574 H 55.2816 1.89779 -0.0915694 0
M  V30 575 H 53.4316 3.39669 1.88566 0
M  V30 576 H 55.1036 4.59254 -0.433962 0
M  V30 577 H 53.3466 4.31168 -0.477137 0
M  V30 578 H 54.0176 5.47978 0.665124 0
M  V30 579 H 56.4936 3.82145 1.64634 0
M  V30 580 H 55.3696 4.84883 2.57254 0
M  V30 581 H 55.6306 3.18376 3.0674 0
M  V30 582 N 54.6897 -0.239769 1.55765 0
M  V30 583 C 55.6217 -1.32001 1.87372 0
M  V30 584 C 56.6347 -1.43944 0.760522 0
M  V30 585 O 57.8237 -1.45167 1.0387 0
M  V30 586 C 54.9237 -2.69779 2.05115 0
M  V30 587 C 54.0967 -2.80014 3.36022 0
M  V30 588 C 53.1557 -3.98684 3.4342 0
M  V30 589 O 52.1817 -3.87877 4.16582 0
M  V30 590 N 53.3837 -5.12176 2.73232 0
M  V30 591 H 56.1487 -1.0522 2.80622 0
M  V30 592 H 53.7097 -0.429857 1.56089 0
M  V30 593 H 55.7017 -3.47517 2.07399 0
M  V30 594 H 54.2717 -2.89237 1.18577 0
M  V30 595 H 53.4917 -1.88896 3.45994 0
M  V30 596 H 54.7797 -2.83808 4.22292 0
M  V30 597 H 54.1777 -5.2385 2.13536 0
M  V30 598 H 52.7347 -5.88022 2.81199 0
M  V30 599 N 56.1678 -1.49265 -0.50573 0
M  V30 600 C 57.4078 -1.60128 -1.27038 0
M  V30 601 C 57.7718 -0.279557 -1.89954 0
M  V30 602 O 58.9728 -0.263329 -2.67507 0
M  V30 603 C 57.2438 -2.72507 -2.31246 0
M  V30 604 S 58.8028 -3.0329 -3.17113 0
M  V30 605 H 55.6208 -0.564863 -0.4318 0
M  V30 606 H 58.2228 -1.86902 -0.573397 0
M  V30 607 H 56.9268 -3.67068 -1.83546 0
M  V30 608 H 56.4578 -2.4771 -3.05619 0
M  V30 609 H 58.4728 -2.44448 -4.31809 0
M  V30 610 N 57.6459 0.756429 -1.3826 0
M  V30 611 C 58.5559 1.9009 -1.37488 0
M  V30 612 C 59.5719 1.71855 -0.272366 0
M  V30 613 O 60.7479 1.94827 -0.510318 0
M  V30 614 C 57.8129 3.25421 -1.19592 0
M  V30 615 C 56.8739 3.56202 -2.39622 0
M  V30 616 C 56.1069 4.85075 -2.2257 0
M  V30 617 O 56.3299 5.57246 -1.21793 0
M  V30 618 O 55.2639 5.15269 -3.11098 0
M  V30 619 H 59.0899 1.93695 -2.33914 0
M  V30 620 H 56.6749 0.901313 -1.1915 0
M  V30 621 H 58.5569 4.06337 -1.11661 0
M  V30 622 H 57.2319 3.22634 -0.262486 0
M  V30 623 H 56.1389 2.75458 -2.53128 0
M  V30 624 H 57.4719 3.63747 -3.31586 0
M  V30 625 N 59.124 1.23083 0.984299 0
M  V30 626 C 60.352 1.08714 1.76037 0
M  V30 627 C 60.767 -0.361691 1.85303 0
M  V30 628 O 60.124 -1.25034 1.32939 0
M  V30 629 C 60.175 1.70206 3.18923 0
M  V30 630 O 59.896 3.09423 3.10144 0
M  V30 631 C 61.397 1.61227 4.12941 0
M  V30 632 H 58.617 0.380664 0.552572 0
M  V30 633 H 61.161 1.62853 1.23689 0
M  V30 634 H 59.316 1.20109 3.6831 0
M  V30 635 H 59.73 3.39188 4.00065 0
M  V30 636 H 61.204 2.08962 5.10919 0
M  V30 637 H 61.681 0.570375 4.35481 0
M  V30 638 H 62.287 2.10671 3.69456 0
M  V30 639 N 60.6021 -1.18246 1.0419 0
M  V30 640 C 61.5321 -2.24127 0.654914 0
M  V30 641 C 62.5131 -1.66617 -0.342451 0
M  V30 642 O 63.6981 -1.92924 -0.222277 0
M  V30 643 C 60.8281 -3.47295 0.0183757 0
M  V30 644 C 59.7821 -4.17563 0.939414 0
M  V30 645 C 59.1081 -5.34438 0.167286 0
M  V30 646 C 60.4081 -4.70917 2.25908 0
M  V30 647 H 62.1021 -2.56753 1.54007 0
M  V30 648 H 59.6481 -1.23414 0.74195 0
M  V30 649 H 61.6011 -4.20572 -0.264082 0
M  V30 650 H 60.3251 -3.13907 -0.901664 0
M  V30 651 H 58.9841 -3.46186 1.20628 0
M  V30 652 H 58.6321 -4.97298 -0.7552 0
M  V30 653 H 58.3321 -5.82388 0.780901 0
M  V30 654 H 59.8561 -6.10504 -0.108125 0
M  V30 655 H 61.2701 -5.35882 2.03724 0
M  V30 656 H 59.6671 -5.29406 2.82577 0
M  V30 657 H 60.7371 -3.88272 2.9047 0
M  V30 658 N 62.0802 -0.821533 -1.34494 0
M  V30 659 C 62.9902 -0.244355 -2.33324 0
M  V30 660 C 64.0062 0.620527 -1.62559 0
M  V30 661 O 65.1822 0.528754 -1.94335 0
M  V30 662 C 62.2472 0.585368 -3.41723 0
M  V30 663 C 61.3082 -0.301752 -4.28238 0
M  V30 664 C 60.5412 0.488466 -5.3146 0
M  V30 665 O 60.7642 1.72186 -5.4379 0
M  V30 666 O 59.6982 -0.12848 -6.01763 0
M  V30 667 H 63.5242 -1.06231 -2.84515 0
M  V30 668 H 61.1092 -0.583645 -1.37528 0
M  V30 669 H 62.9912 1.05747 -4.07916 0
M  V30 670 H 61.6662 1.38068 -2.92778 0
M  V30 671 H 60.5732 -0.821315 -3.64973 0
M  V30 672 H 61.9062 -1.06138 -4.8062 0
M  V30 673 N 63.5583 1.46682 -0.576371 0
M  V30 674 C 64.8353 1.95599 0.00703437 0
M  V30 675 C 65.2153 1.51904 1.46589 0
M  V30 676 O 64.5633 0.766755 2.15251 0
M  V30 677 C 64.7733 3.4864 -0.158404 0
M  V30 678 C 66.1213 4.24594 -0.0229439 0
M  V30 679 O 67.1453 3.56094 -0.0869173 0
M  V30 680 O 66.0043 5.46373 0.118015 0
M  V30 681 H 63.0983 0.825275 0.053384 0
M  V30 682 H 65.6443 1.56996 -0.644244 0
M  V30 683 H 64.4163 3.7331 -1.17282 0
M  V30 684 H 64.0393 3.94057 0.5296 0
M  V30 685 N 65.0364 0.313813 1.54444 0
M  V30 686 C 65.9664 -0.549454 2.26943 0
M  V30 687 C 66.9474 -1.12741 1.27372 0
M  V30 688 O 68.1324 -1.15436 1.56167 0
M  V30 689 C 65.2624 -1.71523 3.01989 0
M  V30 690 C 64.2164 -1.26703 4.08816 0
M  V30 691 C 63.5424 -2.51898 4.71647 0
M  V30 692 C 64.8424 -0.388962 5.2085 0
M  V30 693 H 66.5364 0.0552661 2.99349 0
M  V30 694 H 64.0824 0.0280207 1.43973 0
M  V30 695 H 66.0354 -2.32535 3.51433 0
M  V30 696 H 64.7594 -2.34639 2.27183 0
M  V30 697 H 63.4184 -0.679896 3.6024 0
M  V30 698 H 63.0664 -3.13356 3.93468 0
M  V30 699 H 62.7664 -2.22605 5.43802 0
M  V30 700 H 64.2904 -3.1369 5.23861 0
M  V30 701 H 65.7044 -0.905107 5.6611 0
M  V30 702 H 64.1014 -0.18924 5.99802 0
M  V30 703 H 65.1714 0.582699 4.81386 0
M  V30 704 N 66.5145 -1.57545 0.0417849 0
M  V30 705 C 67.4615 -2.10977 -0.935805 0
M  V30 706 C 68.4315 -1.01486 -1.31491 0
M  V30 707 O 69.6165 -1.2898 -1.40602 0
M  V30 708 C 66.7565 -2.65169 -2.2086 0
M  V30 709 C 65.8695 -3.88714 -1.88482 0
M  V30 710 C 65.0045 -4.31254 -3.1015 0
M  V30 711 C 64.0435 -5.47524 -2.7365 0
M  V30 712 N 63.1805 -5.85162 -3.87982 0
M  V30 713 H 68.0205 -2.94218 -0.473249 0
M  V30 714 H 65.5575 -1.45415 -0.221981 0
M  V30 715 H 67.5155 -2.94685 -2.95325 0
M  V30 716 H 66.1455 -1.8474 -2.64709 0
M  V30 717 H 65.1975 -3.65849 -1.04205 0
M  V30 718 H 66.5095 -4.73245 -1.57608 0
M  V30 719 H 65.6635 -4.62273 -3.92923 0
M  V30 720 H 64.4025 -3.45516 -3.44195 0
M  V30 721 H 63.4075 -5.16187 -1.89291 0
M  V30 722 H 64.6325 -6.34971 -2.40807 0
M  V30 723 H 62.5785 -5.02377 -4.21846 0
M  V30 724 H 62.4955 -6.64362 -3.60775 0
M  V30 725 H 63.7635 -6.20791 -4.71422 0
M  V30 726 N 67.9926 0.231505 -1.5589 0
M  V30 727 C 68.9226 1.29022 -1.94617 0
M  V30 728 C 69.9036 1.4941 -0.813067 0
M  V30 729 O 71.0886 1.6176 -1.07459 0
M  V30 730 C 68.2186 2.64199 -2.25424 0
M  V30 731 C 67.1726 2.58484 -3.41131 0
M  V30 732 C 66.4986 3.97599 -3.57518 0
M  V30 733 C 67.7986 2.1413 -4.76388 0
M  V30 734 H 69.4926 0.968563 -2.83301 0
M  V30 735 H 67.0386 0.464479 -1.36303 0
M  V30 736 H 68.9916 3.38413 -2.51107 0
M  V30 737 H 67.7156 2.98032 -1.33583 0
M  V30 738 H 66.3746 1.86727 -3.15481 0
M  V30 739 H 66.0226 4.28723 -2.6307 0
M  V30 740 H 65.7226 3.94659 -4.35337 0
M  V30 741 H 67.2466 4.7349 -3.85538 0
M  V30 742 H 68.6606 2.78083 -5.01341 0
M  V30 743 H 67.0576 2.2227 -5.57419 0
M  V30 744 H 68.1276 1.09331 -4.72414 0
M  V30 745 N 69.4707 1.49531 0.497807 0
M  V30 746 C 70.4207 1.62829 1.59596 0
M  V30 747 C 71.4047 0.483824 1.53453 0
M  V30 748 O 72.5967 0.736937 1.60929 0
M  V30 749 C 69.7257 1.7011 2.98191 0
M  V30 750 C 68.8117 2.90144 3.09317 0
M  V30 751 N 69.2027 4.1418 2.90324 0
M  V30 752 C 67.5007 2.88148 3.40422 0
M  V30 753 C 68.2017 4.94886 3.05717 0
M  V30 754 N 67.1777 4.28314 3.34736 0
M  V30 755 H 70.9797 2.56446 1.4357 0
M  V30 756 H 68.4937 1.46347 0.704001 0
M  V30 757 H 70.4907 1.77735 3.77115 0
M  V30 758 H 69.1507 0.776315 3.15283 0
M  V30 759 H 70.1617 4.44109 2.66436 0
M  V30 760 H 66.8387 2.05061 3.63671 0
M  V30 761 H 68.2287 6.03432 2.95499 0
M  V30 762 N 70.9488 -0.749086 1.3866 0
M  V30 763 C 71.8788 -1.8764 1.38973 0
M  V30 764 C 72.8598 -1.68178 0.255004 0
M  V30 765 O 74.0448 -1.88704 0.458754 0
M  V30 766 C 71.1748 -3.25222 1.21851 0
M  V30 767 C 70.1288 -3.59295 2.32575 0
M  V30 768 C 69.4548 -4.95663 2.00555 0
M  V30 769 C 70.7548 -3.63709 3.7485 0
M  V30 770 H 72.4488 -1.87635 2.3331 0
M  V30 771 H 69.9948 -0.901329 1.12303 0
M  V30 772 H 71.9478 -4.03746 1.20695 0
M  V30 773 H 70.6718 -3.25719 0.239775 0
M  V30 774 H 69.3308 -2.83093 2.32925 0
M  V30 775 H 68.9788 -4.92724 1.01154 0
M  V30 776 H 68.6788 -5.19429 2.74714 0
M  V30 777 H 70.2028 -5.7656 2.01024 0
M  V30 778 H 71.6168 -4.32338 3.76506 0
M  V30 779 H 70.0138 -3.98986 4.48252 0
M  V30 780 H 71.0838 -2.63834 4.06841 0
M  V30 781 N 72.4269 -1.23603 -0.977757 0
M  V30 782 C 73.3589 -0.977369 -2.07317 0
M  V30 783 C 74.3719 0.0495845 -1.62724 0
M  V30 784 O 75.5609 -0.186261 -1.77526 0
M  V30 785 C 72.6609 -0.451216 -3.35883 0
M  V30 786 C 71.8339 -1.53896 -4.09432 0
M  V30 787 C 70.8929 -1.01721 -5.16274 0
M  V30 788 O 69.9189 -1.70676 -5.43009 0
M  V30 789 N 71.1209 0.153594 -5.80297 0
M  V30 790 H 73.8859 -1.92047 -2.30082 0
M  V30 791 H 71.4469 -1.14497 -1.14465 0
M  V30 792 H 73.4389 -0.0871574 -4.04606 0
M  V30 793 H 72.0089 0.397368 -3.10064 0
M  V30 794 H 71.2289 -2.07566 -3.35127 0
M  V30 795 H 72.5169 -2.27037 -4.55337 0
M  V30 796 H 71.9149 0.730323 -5.60966 0
M  V30 797 H 70.4719 0.458892 -6.50183 0
M  V30 798 N 73.905 1.17692 -1.04816 0
M  V30 799 C 75.13 1.92327 -0.776207 0
M  V30 800 C 75.555 1.76082 0.661581 0
M  V30 801 O 74.913 1.076 1.45917 0
M  V30 802 C 74.961 3.41539 -1.15687 0
M  V30 803 O 74.065 4.11402 -0.286775 0
M  V30 804 H 73.406 0.599735 -0.284981 0
M  V30 805 H 75.936 1.49201 -1.4 0
M  V30 806 H 75.946 3.92269 -1.12202 0
M  V30 807 H 74.621 3.52684 -2.20425 0
M  V30 808 H 73.198 3.70939 -0.381903 0
M  V30 809 N 75.3831 0.828654 1.34056 0
M  V30 810 C 76.6111 0.43262 2.02326 0
M  V30 811 C 77.0261 -0.963147 1.62385 0
M  V30 812 O 76.3831 -1.62425 0.832121 0
M  V30 813 C 76.4341 0.53182 3.57567 0
M  V30 814 O 76.1551 1.87258 3.96063 0
M  V30 815 C 77.6561 0.131422 4.43105 0
M  V30 816 H 74.8761 0.172923 0.648335 0
M  V30 817 H 77.4201 1.1184 1.71208 0
M  V30 818 H 75.5751 -0.105938 3.87255 0
M  V30 819 H 75.9891 1.85087 4.90758 0
M  V30 820 H 77.4631 0.251904 5.51425 0
M  V30 821 H 77.9401 -0.925645 4.29335 0
M  V30 822 H 78.5461 0.743207 4.18756 0
M  V30 823 N 76.8612 -1.46375 0.584142 0
M  V30 824 C 78.1382 -1.956 0.0033388 0
M  V30 825 C 78.5182 -1.52679 -1.45782 0
M  V30 826 O 77.8662 -0.77816 -2.14842 0
M  V30 827 C 78.0762 -3.48551 0.176891 0
M  V30 828 C 79.4242 -4.24576 0.0454609 0
M  V30 829 O 80.4482 -3.56043 0.105801 0
M  V30 830 O 79.3072 -5.46427 -0.0890376 0
M  V30 831 H 76.4012 -0.825547 -0.0490066 0
M  V30 832 H 78.9472 -1.56652 0.65256 0
M  V30 833 H 77.7192 -3.72683 1.1926 0
M  V30 834 H 77.3422 -3.94332 -0.508695 0
M  V30 835 N 78.3393 -0.321999 -1.54275 0
M  V30 836 C 79.5693 0.282642 -2.04658 0
M  V30 837 C 79.9773 1.46453 -1.19784 0
M  V30 838 O 79.3203 1.82367 -0.220932 0
M  V30 839 C 79.3823 0.781857 -3.50895 0
M  V30 840 C 79.0463 -0.277517 -4.56157 0
M  V30 841 C 80.0433 -1.11307 -5.07845 0
M  V30 842 C 77.7283 -0.425256 -5.00497 0
M  V30 843 C 79.7223 -2.08211 -6.02434 0
M  V30 844 C 77.4093 -1.39771 -5.94901 0
M  V30 845 C 78.4073 -2.2246 -6.45756 0
M  V30 846 O 78.0953 -3.18054 -7.38307 0
M  V30 847 H 77.8273 0.0622636 -0.673126 0
M  V30 848 H 80.3813 -0.465792 -2.00049 0
M  V30 849 H 78.6113 1.58118 -3.52896 0
M  V30 850 H 80.3003 1.30467 -3.84361 0
M  V30 851 H 81.0663 -1.00991 -4.74369 0
M  V30 852 H 76.9453 0.20847 -4.60528 0
M  V30 853 H 80.4893 -2.72791 -6.42052 0
M  V30 854 H 76.3863 -1.50152 -6.27794 0
M  V30 855 H 77.1543 -3.13275 -7.56175 0
M  V30 856 N 79.8174 1.5752 -0.0501392 0
M  V30 857 C 81.0654 1.9227 0.622642 0
M  V30 858 C 81.3864 0.929083 1.71444 0
M  V30 859 O 80.6564 -0.0262186 1.95882 0
M  V30 860 H 79.2364 0.709739 0.232981 0
M  V30 861 H 81.8984 1.94628 -0.102898 0
M  V30 862 H 80.9944 2.93479 1.06191 0
M  V30 863 N 81.2955 -0.223234 1.56011 0
M  V30 864 C 82.2435 -1.29627 1.93131 0
M  V30 865 C 83.2375 -1.48608 0.813146 0
M  V30 866 O 84.4435 -1.49802 0.997966 0
M  V30 867 H 80.8185 -0.434563 0.613726 0
M  V30 868 H 82.7895 -0.955995 2.82672 0
M  V30 869 C 81.5385 -2.63983 2.26292 0
M  V30 870 H 80.8615 -2.50185 3.11846 0
M  V30 871 H 82.3015 -3.3788 2.56151 0
M  V30 872 C 80.7605 -3.18866 1.08747 0
M  V30 873 O 81.2905 -4.00192 0.347727 0
M  V30 874 N 79.4965 -2.77217 0.871743 0
M  V30 875 H 79.0435 -2.1119 1.47501 0
M  V30 876 H 79.0015 -3.1428 0.0869905 0
M  V30 877 N 82.7736 -1.49793 -0.48987 0
M  V30 878 C 84.0206 -1.59841 -1.24327 0
M  V30 879 C 84.3486 -0.290135 -1.92324 0
M  V30 880 O 83.6036 0.722749 -1.81865 0
M  V30 881 C 83.9026 -2.71488 -2.32441 0
M  V30 882 C 83.5686 -4.12614 -1.81826 0
M  V30 883 C 82.2306 -4.51017 -1.67742 0
M  V30 884 C 84.5826 -5.00892 -1.4407 0
M  V30 885 C 81.9106 -5.75459 -1.14297 0
M  V30 886 C 84.2626 -6.25863 -0.920742 0
M  V30 887 C 82.9266 -6.63086 -0.766383 0
M  V30 888 H 82.1966 -0.584899 -0.454944 0
M  V30 889 H 84.8436 -1.83663 -0.542215 0
M  V30 890 H 83.1486 -2.4168 -3.0838 0
M  V30 891 H 84.8456 -2.76469 -2.90458 0
M  V30 892 H 81.4356 -3.82307 -1.93751 0
M  V30 893 H 85.6196 -4.7187 -1.53794 0
M  V30 894 H 80.8756 -6.02989 -1.01068 0
M  V30 895 H 85.0496 -6.9364 -0.619448 0
M  V30 896 H 82.6766 -7.59393 -0.350083 0
M  V30 897 N 84.2517 0.741722 -1.39055 0
M  V30 898 C 85.1817 1.869 -1.39966 0
M  V30 899 C 86.1627 1.6804 -0.26392 0
M  V30 900 O 87.3477 1.88458 -0.468755 0
M  V30 901 C 84.4777 3.24572 -1.23574 0
M  V30 902 C 83.4317 3.58056 -2.34477 0
M  V30 903 C 82.7577 4.94593 -2.0318 0
M  V30 904 C 84.0577 3.61716 -3.76774 0
M  V30 905 H 85.7517 1.86395 -2.34302 0
M  V30 906 H 83.2977 0.895361 -1.1278 0
M  V30 907 H 85.2507 4.031 -1.22834 0
M  V30 908 H 83.9747 3.25587 -0.257045 0
M  V30 909 H 82.6337 2.81854 -2.34423 0
M  V30 910 H 82.2817 4.92181 -1.03765 0
M  V30 911 H 81.9817 5.17964 -2.77465 0
M  V30 912 H 83.5057 5.75486 -2.04079 0
M  V30 913 H 84.9197 4.30335 -3.78794 0
M  V30 914 H 83.3167 3.96603 -4.50362 0
M  V30 915 H 84.3867 2.61672 -4.08235 0
M  V30 916 N 85.7298 1.2412 0.971189 0
M  V30 917 C 86.6928 1.03156 2.04674 0
M  V30 918 C 87.6928 -0.00990322 1.60797 0
M  V30 919 O 88.8828 0.230729 1.72665 0
M  V30 920 C 86.0148 0.562765 3.36223 0
M  V30 921 H 87.2078 1.98614 2.24705 0
M  V30 922 H 84.7608 1.06293 1.14593 0
M  V30 923 H 85.4958 -0.395176 3.21883 0
M  V30 924 H 85.2808 1.31441 3.69413 0
M  V30 925 H 86.7708 0.437015 4.15307 0
M  V30 926 N 87.2079 -1.17134 1.05439 0
M  V30 927 C 88.1559 -2.23289 0.651511 0
M  V30 928 C 89.1499 -1.66186 -0.328411 0
M  V30 929 O 90.3559 -1.78949 -0.194206 0
M  V30 930 H 86.7309 -0.726938 0.192523 0
M  V30 931 H 88.7019 -2.54565 1.55689 0
M  V30 932 C 87.4509 -3.47671 0.0448436 0
M  V30 933 H 86.7739 -3.91918 0.78996 0
M  V30 934 H 88.2139 -4.2353 -0.19964 0
M  V30 935 C 86.6729 -3.14453 -1.20918 0
M  V30 936 O 87.2029 -3.29459 -2.29825 0
M  V30 937 N 85.4089 -2.68657 -1.10779 0
M  V30 938 H 84.9559 -2.56646 -0.221526 0
M  V30 939 H 84.9139 -2.46804 -1.9477 0
M  V30 940 N 88.686 -0.835752 -1.33615 0
M  V30 941 C 89.596 -0.269088 -2.33052 0
M  V30 942 C 90.612 0.603251 -1.63208 0
M  V30 943 O 91.788 0.508112 -1.94885 0
M  V30 944 C 88.853 0.549091 -3.42324 0
M  V30 945 C 87.914 -0.347156 -4.27894 0
M  V30 946 C 87.147 0.43207 -5.31948 0
M  V30 947 O 87.37 1.66409 -5.45586 0
M  V30 948 O 86.304 -0.192298 -6.01593 0
M  V30 949 H 90.13 -1.09243 -2.83372 0
M  V30 950 H 87.715 -0.598198 -1.36901 0
M  V30 951 H 89.597 1.01414 -4.09015 0
M  V30 952 H 88.272 1.34955 -2.94226 0
M  V30 953 H 87.179 -0.859979 -3.64081 0
M  V30 954 H 88.512 -1.1123 -4.79467 0
M  V30 955 N 90.1641 1.46063 -0.591896 0
M  V30 956 C 91.1271 2.28854 0.125973 0
M  V30 957 C 92.1271 1.38903 0.810107 0
M  V30 958 O 93.3171 1.61186 0.66066 0
M  V30 959 C 90.4491 3.19526 1.1881 0
M  V30 960 H 91.6421 2.93802 -0.601717 0
M  V30 961 H 89.1951 1.52325 -0.350254 0
M  V30 962 H 89.9301 2.59345 1.94707 0
M  V30 963 H 89.7151 3.85766 0.701936 0
M  V30 964 H 91.2051 3.81817 1.69132 0
M  V30 965 N 91.6422 0.330177 1.54103 0
M  V30 966 C 92.8672 -0.274893 2.0557 0
M  V30 967 C 93.2922 -1.44487 1.20437 0
M  V30 968 O 92.6502 -1.80021 0.214991 0
M  V30 969 C 92.6982 -0.68079 3.54115 0
M  V30 970 O 91.8022 -1.7824 3.71893 0
M  V30 971 H 91.1432 -0.0483849 0.662235 0
M  V30 972 H 93.6732 0.480508 1.98878 0
M  V30 973 H 93.6832 -0.961635 3.96505 0
M  V30 974 H 92.3582 0.174903 4.15532 0
M  V30 975 H 90.9352 -1.49985 3.41407 0
M  V30 976 N 93.1203 -1.57491 0.0584922 0
M  V30 977 C 94.5313 -1.80526 -0.476138 0
M  V30 978 C 94.8823 -0.971334 -1.70469 0
M  V30 979 O 94.0073 -0.190012 -2.15564 0
M  V30 980 C 94.6023 -3.27424 -0.870587 0
M  V30 981 C 93.1613 -3.51351 -1.35015 0
M  V30 982 C 92.3083 -2.75343 -0.32887 0
M  V30 983 H 95.2593 -1.56133 0.284312 0
M  V30 984 H 95.2803 -3.38745 -1.73299 0
M  V30 985 H 94.7923 -3.88093 0.0237627 0
M  V30 986 H 92.8933 -2.95971 -2.26345 0
M  V30 987 H 93.0063 -4.60059 -1.33726 0
M  V30 988 H 91.3703 -2.417 -0.803321 0
M  V30 989 H 92.1533 -3.38743 0.557521 0
M  V30 990 N 94.5984 0.214957 -1.56127 0
M  V30 991 C 95.5284 1.2695 -1.95974 0
M  V30 992 C 96.5094 1.48539 -0.828868 0
M  V30 993 O 97.6944 1.60611 -1.09168 0
M  V30 994 C 94.8244 2.61794 -2.28214 0
M  V30 995 C 93.7784 2.54851 -3.43853 0
M  V30 996 C 93.1044 3.93785 -3.61715 0
M  V30 997 C 94.4044 2.09065 -4.78632 0
M  V30 998 H 96.0984 0.93846 -2.84312 0
M  V30 999 H 93.6444 0.449996 -1.36788 0
M  V30 1000 H 95.5974 3.35731 -2.54682 0
M  V30 1001 H 94.3214 2.96599 -1.36736 0
M  V30 1002 H 92.9804 1.8337 -3.17444 0
M  V30 1003 H 92.6284 4.25908 -2.67602 0
M  V30 1004 H 92.3284 3.90019 -4.39498 0
M  V30 1005 H 93.8524 4.69374 -3.90539 0
M  V30 1006 H 95.2664 2.7275 -5.04262 0
M  V30 1007 H 93.6634 2.16346 -5.59745 0
M  V30 1008 H 94.7334 1.04315 -4.73547 0
M  V30 1009 N 96.0765 1.50051 0.48192 0
M  V30 1010 C 97.3045 1.64237 1.25832 0
M  V30 1011 C 97.7195 0.321336 1.86045 0
M  V30 1012 O 97.0765 -0.695478 1.68729 0
M  V30 1013 C 97.1275 2.72548 2.37487 0
M  V30 1014 O 96.8485 3.99529 1.79745 0
M  V30 1015 C 98.3495 2.9761 3.28547 0
M  V30 1016 H 95.5695 0.55237 0.380957 0
M  V30 1017 H 98.1135 1.96207 0.576467 0
M  V30 1018 H 96.2685 2.43303 3.01467 0
M  V30 1019 H 96.6825 4.59342 2.5319 0
M  V30 1020 H 98.1565 3.77084 4.03127 0
M  V30 1021 H 98.6335 2.0826 3.86684 0
M  V30 1022 H 99.2395 3.28345 2.70314 0
M  V30 1023 N 97.5546 -0.734337 1.39446 0
M  V30 1024 C 98.8006 -1.49613 1.36908 0
M  V30 1025 C 99.1336 -1.94169 -0.0347829 0
M  V30 1026 O 98.4086 -1.66833 -0.999847 0
M  V30 1027 C 98.6916 -2.73534 2.34203 0
M  V30 1028 C 98.5446 -2.34993 3.83534 0
M  V30 1029 C 99.8636 -3.75635 2.29317 0
M  V30 1030 H 96.9826 -0.542714 0.498629 0
M  V30 1031 H 99.6246 -0.839597 1.70443 0
M  V30 1032 H 97.7746 -3.29553 2.05736 0
M  V30 1033 H 99.4466 -1.84601 4.22753 0
M  V30 1034 H 97.6896 -1.67213 4.00278 0
M  V30 1035 H 98.3606 -3.23738 4.47099 0
M  V30 1036 H 100.837 -3.29203 2.54489 0
M  V30 1037 H 99.7126 -4.60008 2.99472 0
M  V30 1038 H 99.9736 -4.22603 1.29842 0
M  V30 1039 N 99.0327 -1.24633 -0.964593 0
M  V30 1040 C 100.258 -1.11596 -1.74818 0
M  V30 1041 C 100.683 0.32723 -1.85232 0
M  V30 1042 O 100.041 1.23695 -1.32549 0
M  V30 1043 C 100.089 -1.76397 -3.1451 0
M  V30 1044 O 99.1927 -1.03685 -3.99153 0
M  V30 1045 H 98.5337 -0.390196 -0.537255 0
M  V30 1046 H 101.064 -1.65002 -1.20977 0
M  V30 1047 H 101.074 -1.8228 -3.65018 0
M  V30 1048 H 99.7487 -2.81401 -3.06246 0
M  V30 1049 H 98.3257 -1.05611 -3.57632 0
M  V30 1050 N 100.511 1.16574 -1.06058 0
M  V30 1051 C 101.757 1.87324 -0.777022 0
M  V30 1052 C 102.09 1.81351 0.694645 0
M  V30 1053 O 101.365 1.22753 1.50871 0
M  V30 1054 C 101.648 3.36991 -1.26922 0
M  V30 1055 C 101.501 3.51667 -2.80447 0
M  V30 1056 C 102.82 4.3131 -0.87521 0
M  V30 1057 H 99.9388 0.680191 -0.28374 0
M  V30 1058 H 102.581 1.37036 -1.3161 0
M  V30 1059 H 100.731 3.79949 -0.81063 0
M  V30 1060 H 102.403 3.17664 -3.34495 0
M  V30 1061 H 100.646 2.93656 -3.19294 0
M  V30 1062 H 101.317 4.56766 -3.0995 0
M  V30 1063 H 103.793 3.9624 -1.27014 0
M  V30 1064 H 102.669 5.34545 -1.2471 0
M  V30 1065 H 102.93 4.41552 0.220071 0
M  V30 1066 N 101.989 0.842826 1.3317 0
M  V30 1067 C 103.238 0.436738 1.96915 0
M  V30 1068 C 103.551 -1.01025 1.67491 0
M  V30 1069 O 104.757 -1.5212 2.24881 0
M  V30 1070 C 103.213 0.730021 3.52418 0
M  V30 1071 C 102.821 2.19195 3.90714 0
M  V30 1072 C 104.565 0.391076 4.22695 0
M  V30 1073 C 102.472 2.42907 5.39212 0
M  V30 1074 H 101.402 0.15958 0.736919 0
M  V30 1075 H 104.053 1.03196 1.51733 0
M  V30 1076 H 102.435 0.0643755 3.95948 0
M  V30 1077 H 103.609 2.8984 3.58231 0
M  V30 1078 H 101.924 2.49425 3.33431 0
M  V30 1079 H 104.521 0.545817 5.31907 0
M  V30 1080 H 104.864 -0.666294 4.10933 0
M  V30 1081 H 105.397 1.01212 3.84709 0
M  V30 1082 H 102.136 3.47224 5.55982 0
M  V30 1083 H 101.656 1.76827 5.73142 0
M  V30 1084 H 103.335 2.2626 6.06148 0
M  V30 1085 N 103.467 -1.45747 0.599634 0
M  V30 1086 C 104.744 -1.95585 0.0240846 0
M  V30 1087 C 105.124 -1.54217 -1.44154 0
M  V30 1088 O 104.472 -0.800903 -2.14004 0
M  V30 1089 C 104.682 -3.48344 0.21385 0
M  V30 1090 C 106.03 -4.24504 0.0904902 0
M  V30 1091 O 107.054 -3.55911 0.143558 0
M  V30 1092 O 105.913 -5.46491 -0.0310766 0
M  V30 1093 H 103.007 -0.82602 -0.0402478 0
M  V30 1094 H 105.553 -1.55951 0.669139 0
M  V30 1095 H 104.325 -3.71397 1.23206 0
M  V30 1096 H 103.948 -3.9485 -0.466842 0
M  V30 1097 N 104.945 -0.338344 -1.53925 0
M  V30 1098 C 106.222 0.314774 -1.93051 0
M  V30 1099 C 106.602 1.68669 -1.26941 0
M  V30 1100 O 105.95 2.24636 -0.418445 0
M  V30 1101 C 106.16 0.392249 -3.46789 0
M  V30 1102 C 107.508 0.645554 -4.19664 0
M  V30 1103 O 108.532 0.474575 -3.53024 0
M  V30 1104 O 107.391 0.976408 -5.37707 0
M  V30 1105 H 104.485 0.182598 -0.80659 0
M  V30 1106 H 107.031 -0.389141 -1.65178 0
M  V30 1107 H 105.803 -0.570702 -3.87116 0
M  V30 1108 H 105.426 1.14316 -3.80812 0
M  V30 1109 N 106.423 1.57458 -0.0668435 0
M  V30 1110 C 107.839 1.56947 0.289772 0
M  V30 1111 C 108.039 1.07584 1.70376 0
M  V30 1112 O 107.095 0.739486 2.41429 0
M  V30 1113 C 108.408 3.0052 0.103943 0
M  V30 1114 C 109.956 3.12517 0.173857 0
M  V30 1115 C 110.431 4.57997 0.0163682 0
M  V30 1116 N 111.922 4.63144 0.0721352 0
M  V30 1117 C 112.657 5.73394 -0.0253794 0
M  V30 1118 N 112.153 6.92576 -0.176133 0
M  V30 1119 N 113.946 5.62091 0.0313305 0
M  V30 1120 H 106.097 1.87863 -0.991027 0
M  V30 1121 H 108.36 0.86583 -0.38606 0
M  V30 1122 H 108.066 3.40729 -0.871572 0
M  V30 1123 H 107.94 3.67304 0.858366 0
M  V30 1124 H 110.327 2.72197 1.13985 0
M  V30 1125 H 110.408 2.48381 -0.611586 0
M  V30 1126 H 110.052 4.99005 -0.946374 0
M  V30 1127 H 109.982 5.20158 0.821153 0
M  V30 1128 H 112.473 3.77436 0.187263 0
M  V30 1129 H 112.786 7.72418 -0.242821 0
M  V30 1130 H 111.131 6.94678 -0.211429 0
M  V30 1131 H 114.322 4.67867 0.147773 0
M  V30 1132 H 114.495 6.47982 -0.048121 0
M  V30 1133 N 107.901 -0.206675 1.56239 0
M  V30 1134 C 108.831 -1.25909 1.96645 0
M  V30 1135 C 109.812 -1.48097 0.836734 0
M  V30 1136 O 110.997 -1.6003 1.10019 0
M  V30 1137 C 108.127 -2.6058 2.29599 0
M  V30 1138 C 107.081 -2.53024 3.452 0
M  V30 1139 C 106.407 -3.91861 3.63798 0
M  V30 1140 C 107.707 -2.06524 4.79734 0
M  V30 1141 H 109.401 -0.923369 2.84806 0
M  V30 1142 H 106.947 -0.442735 1.37025 0
M  V30 1143 H 108.9 -3.34375 2.56459 0
M  V30 1144 H 107.624 -2.95869 1.38307 0
M  V30 1145 H 106.283 -1.81684 3.18412 0
M  V30 1146 H 105.931 -4.24483 2.69857 0
M  V30 1147 H 105.631 -3.87683 4.4156 0
M  V30 1148 H 107.155 -4.67296 3.93022 0
M  V30 1149 H 108.569 -2.70072 5.05702 0
M  V30 1150 H 106.966 -2.13374 5.60885 0
M  V30 1151 H 108.036 -1.01802 4.74093 0
M  V30 1152 N 109.379 -1.50304 -0.473955 0
M  V30 1153 C 110.326 -1.68959 -1.57231 0
M  V30 1154 C 111.296 -0.530899 -1.57387 0
M  V30 1155 O 112.481 -0.761133 -1.74961 0
M  V30 1156 C 109.621 -1.7871 -2.95223 0
M  V30 1157 C 108.734 -3.06061 -3.04878 0
M  V30 1158 C 107.869 -3.06626 -4.33767 0
M  V30 1159 C 106.908 -4.28443 -4.37154 0
M  V30 1160 N 106.045 -4.26763 -5.5751 0
M  V30 1161 H 110.885 -2.6273 -1.40631 0
M  V30 1162 H 108.422 -1.30241 -0.683789 0
M  V30 1163 H 110.38 -1.82344 -3.75242 0
M  V30 1164 H 109.01 -0.883806 -3.10465 0
M  V30 1165 H 108.062 -3.11911 -2.17751 0
M  V30 1166 H 109.374 -3.96039 -3.0324 0
M  V30 1167 H 108.528 -3.08973 -5.22131 0
M  V30 1168 H 107.267 -2.14473 -4.3801 0
M  V30 1169 H 106.272 -4.2631 -3.47188 0
M  V30 1170 H 107.497 -5.2182 -4.34605 0
M  V30 1171 H 105.443 -3.37462 -5.62544 0
M  V30 1172 H 105.36 -5.10507 -5.57601 0
M  V30 1173 H 106.628 -4.33253 -6.48006 0
M  V30 1174 N 110.857 0.726932 -1.39834 0
M  V30 1175 C 111.767 1.87131 -1.41489 0
M  V30 1176 C 112.783 1.71239 -0.308757 0
M  V30 1177 O 113.959 1.93701 -0.551529 0
M  V30 1178 C 111.024 3.22811 -1.26468 0
M  V30 1179 C 110.085 3.51039 -2.47124 0
M  V30 1180 C 109.318 4.80245 -2.3281 0
M  V30 1181 O 109.541 5.54537 -1.33585 0
M  V30 1182 O 108.475 5.08554 -3.21957 0
M  V30 1183 H 112.301 1.8869 -2.3797 0
M  V30 1184 H 109.886 0.875837 -1.21035 0
M  V30 1185 H 111.768 4.03877 -1.20255 0
M  V30 1186 H 110.443 3.22005 -0.330862 0
M  V30 1187 H 109.35 2.70027 -2.58914 0
M  V30 1188 H 110.683 3.56632 -3.39227 0
M  V30 1189 N 112.336 1.25143 0.95797 0
M  V30 1190 C 113.283 1.05235 2.05412 0
M  V30 1191 C 114.253 -0.0374561 1.66058 0
M  V30 1192 O 115.438 0.119073 1.90428 0
M  V30 1193 C 112.578 0.673589 3.38462 0
M  V30 1194 C 111.691 1.8379 3.90954 0
M  V30 1195 C 110.826 1.40381 5.12315 0
M  V30 1196 C 109.865 2.53746 5.57027 0
M  V30 1197 N 109.002 2.11136 6.69601 0
M  V30 1198 H 113.842 1.99048 2.21774 0
M  V30 1199 H 111.379 0.991277 1.08683 0
M  V30 1200 H 113.337 0.434964 4.14926 0
M  V30 1201 H 111.967 -0.227554 3.21997 0
M  V30 1202 H 111.019 2.18992 3.11041 0
M  V30 1203 H 112.331 2.68937 4.20089 0
M  V30 1204 H 111.485 1.12464 5.96185 0
M  V30 1205 H 110.224 0.523015 4.84887 0
M  V30 1206 H 109.229 2.82412 4.71724 0
M  V30 1207 H 110.454 3.42398 5.86464 0
M  V30 1208 H 108.4 1.25468 6.4389 0
M  V30 1209 H 108.317 2.89832 6.98236 0
M  V30 1210 H 109.585 1.86385 7.56889 0
M  V30 1211 N 113.814 -1.1601 1.06675 0
M  V30 1212 C 114.747 -2.1947 0.625168 0
M  V30 1213 C 115.725 -1.58699 -0.354041 0
M  V30 1214 O 116.909 -1.86669 -0.262098 0
M  V30 1215 C 114.036 -3.38598 -0.0829593 0
M  V30 1216 C 113.082 -4.1787 0.853611 0
M  V30 1217 S 113.915 -4.81135 2.35094 0
M  V30 1218 C 115.071 -6.03639 1.65441 0
M  V30 1219 H 115.304 -2.56587 1.50168 0
M  V30 1220 H 112.837 -1.26862 0.880078 0
M  V30 1221 H 114.795 -4.07621 -0.485288 0
M  V30 1222 H 113.456 -2.99839 -0.935716 0
M  V30 1223 H 112.649 -5.03078 0.304755 0
M  V30 1224 H 112.251 -3.54361 1.196 0
M  V30 1225 H 114.543 -6.70632 0.962201 0
M  V30 1226 H 115.486 -6.63081 2.48454 0
M  V30 1227 H 115.894 -5.52965 1.13534 0
M  V30 1228 N 115.292 -0.849877 -1.32721 0
M  V30 1229 C 116.538 -0.451591 -1.97708 0
M  V30 1230 C 116.871 0.989175 -1.6712 0
M  V30 1231 O 116.146 1.69334 -0.956891 0
M  V30 1232 C 116.429 -0.685598 -3.53513 0
M  V30 1233 C 116.282 -2.17444 -3.93749 0
M  V30 1234 C 117.601 -0.138874 -4.39881 0
M  V30 1235 H 114.72 -0.16555 -0.718166 0
M  V30 1236 H 117.362 -1.06742 -1.57182 0
M  V30 1237 H 115.512 -0.161416 -3.88165 0
M  V30 1238 H 117.184 -2.76433 -3.693 0
M  V30 1239 H 115.427 -2.65476 -3.43081 0
M  V30 1240 H 116.098 -2.28888 -5.02309 0
M  V30 1241 H 118.574 -0.587068 -4.11938 0
M  V30 1242 H 117.45 -0.332213 -5.47894 0
M  V30 1243 H 117.711 0.95806 -4.31594 0
M  V30 1244 N 116.77 1.45427 -0.607355 0
M  V30 1245 C 118.016 2.0254 -0.102607 0
M  V30 1246 C 118.349 1.47478 1.26348 0
M  V30 1247 O 117.624 0.64939 1.83339 0
M  V30 1248 C 117.907 3.60044 -0.0634347 0
M  V30 1249 C 117.76 4.2544 -1.46017 0
M  V30 1250 C 119.079 4.35646 0.624514 0
M  V30 1251 H 116.198 0.73598 -0.0387607 0
M  V30 1252 H 118.84 1.73284 -0.779282 0
M  V30 1253 H 116.99 3.85101 0.512808 0
M  V30 1254 H 118.662 4.11569 -2.08347 0
M  V30 1255 H 116.905 3.83849 -2.02094 0
M  V30 1256 H 117.576 5.34342 -1.385 0
M  V30 1257 H 120.052 4.15882 0.134723 0
M  V30 1258 H 118.928 5.45376 0.621028 0
M  V30 1259 H 119.189 4.08501 1.69055 0
M  V30 1260 N 118.248 0.346503 1.53744 0
M  V30 1261 C 119.158 -0.517293 2.28826 0
M  V30 1262 C 120.174 -1.10935 1.3405 0
M  V30 1263 O 121.35 -1.1244 1.6709 0
M  V30 1264 C 118.415 -1.65098 3.04866 0
M  V30 1265 C 117.476 -1.0884 4.15274 0
M  V30 1266 C 116.709 -2.16806 4.87679 0
M  V30 1267 O 116.932 -3.3758 4.59778 0
M  V30 1268 O 115.866 -1.80934 5.74061 0
M  V30 1269 H 119.692 0.0931396 3.03557 0
M  V30 1270 H 117.277 0.111458 1.48984 0
M  V30 1271 H 119.159 -2.31053 3.5241 0
M  V30 1272 H 117.834 -2.24717 2.32989 0
M  V30 1273 H 116.741 -0.3933 3.72027 0
M  V30 1274 H 118.074 -0.537036 4.89261 0
M  V30 1275 N 119.726 -1.57421 0.075193 0
M  V30 1276 C 120.973 -1.93618 -0.593146 0
M  V30 1277 C 121.301 -0.955484 -1.69413 0
M  V30 1278 O 120.556 0.0283251 -1.9568 0
M  V30 1279 C 120.855 -3.36428 -1.20626 0
M  V30 1280 C 120.521 -4.50307 -0.231078 0
M  V30 1281 C 119.183 -4.81186 0.0371936 0
M  V30 1282 C 121.535 -5.19374 0.435888 0
M  V30 1283 C 118.863 -5.78466 0.979461 0
M  V30 1284 C 121.215 -6.17665 1.3665 0
M  V30 1285 C 119.879 -6.46958 1.6432 0
M  V30 1286 H 119.149 -0.708499 -0.217047 0
M  V30 1287 H 121.796 -1.90937 0.146793 0
M  V30 1288 H 120.101 -3.35592 -2.02201 0
M  V30 1289 H 121.798 -3.61727 -1.73073 0
M  V30 1290 H 118.388 -4.26227 -0.450357 0
M  V30 1291 H 122.572 -4.95711 0.241748 0
M  V30 1292 H 117.828 -5.99487 1.20106 0
M  V30 1293 H 122.002 -6.70284 1.88924 0
M  V30 1294 H 119.629 -7.2215 2.37494 0
M  V30 1295 N 121.204 0.198386 -1.56346 0
M  V30 1296 C 122.62 0.549085 -1.49857 0
M  V30 1297 C 122.82 1.86016 -0.774611 0
M  V30 1298 O 121.876 2.50416 -0.323776 0
M  V30 1299 C 123.189 0.606868 -2.94512 0
M  V30 1300 C 124.737 0.695925 -3.05165 0
M  V30 1301 C 125.212 0.784848 -4.51225 0
M  V30 1302 N 126.703 0.848463 -4.55363 0
M  V30 1303 C 127.438 0.937378 -5.65686 0
M  V30 1304 N 126.934 0.9888 -6.85707 0
M  V30 1305 N 128.727 0.974312 -5.53592 0
M  V30 1306 H 120.878 -0.661655 -2.01831 0
M  V30 1307 H 123.141 -0.235261 -0.918344 0
M  V30 1308 H 122.847 -0.28732 -3.50524 0
M  V30 1309 H 122.721 1.46268 -3.47686 0
M  V30 1310 H 125.108 1.58055 -2.49204 0
M  V30 1311 H 125.189 -0.186022 -2.55123 0
M  V30 1312 H 124.833 -0.0954072 -5.0781 0
M  V30 1313 H 124.763 1.68255 -4.98997 0
M  V30 1314 H 127.254 0.818103 -3.68938 0
M  V30 1315 H 127.567 1.05707 -7.65536 0
M  V30 1316 H 125.912 0.957534 -6.88372 0
M  V30 1317 H 129.103 0.930954 -4.58749 0
M  V30 1318 H 129.276 1.04015 -6.39597 0
M  V30 1319 N 122.682 1.50554 0.465978 0
M  V30 1320 C 123.632 1.66177 1.56106 0
M  V30 1321 C 124.616 0.516265 1.52393 0
M  V30 1322 O 125.808 0.770906 1.5933 0
M  V30 1323 C 122.937 1.76396 2.94515 0
M  V30 1324 C 122.023 2.9664 3.03093 0
M  V30 1325 N 122.414 4.20245 2.81474 0
M  V30 1326 C 120.712 2.95304 3.34233 0
M  V30 1327 C 121.413 5.01259 2.95151 0
M  V30 1328 N 120.389 4.35318 3.25576 0
M  V30 1329 H 124.191 2.59434 1.38099 0
M  V30 1330 H 121.705 1.47808 0.6728 0
M  V30 1331 H 123.702 1.85694 3.73261 0
M  V30 1332 H 122.362 0.843017 3.13565 0
M  V30 1333 H 123.373 4.4966 2.56956 0
M  V30 1334 H 120.05 2.12729 3.59239 0
M  V30 1335 H 121.44 6.09564 2.82632 0
M  V30 1336 N 124.16 -0.719506 1.40217 0
M  V30 1337 C 125.093 -1.84298 1.34571 0
M  V30 1338 C 126.071 -1.61149 0.216741 0
M  V30 1339 O 127.255 -1.84212 0.399756 0
M  V30 1340 C 124.382 -3.20568 1.09335 0
M  V30 1341 C 123.428 -3.62551 2.24631 0
M  V30 1342 S 124.261 -3.7012 3.87004 0
M  V30 1343 C 125.417 -5.09154 3.64024 0
M  V30 1344 H 125.65 -1.88807 2.2965 0
M  V30 1345 H 123.183 -0.885901 1.26456 0
M  V30 1346 H 125.141 -3.99246 0.954602 0
M  V30 1347 H 123.802 -3.13696 0.159164 0
M  V30 1348 H 122.995 -4.61483 2.02606 0
M  V30 1349 H 122.597 -2.91119 2.34789 0
M  V30 1350 H 124.889 -5.95955 3.22248 0
M  V30 1351 H 125.832 -5.36213 4.62473 0
M  V30 1352 H 126.24 -4.79562 2.97793 0
M  V30 1353 N 125.638 -1.25649 -0.95132 0
M  V30 1354 C 127.054 -1.02542 -1.223 0
M  V30 1355 C 127.254 0.255715 -1.99871 0
M  V30 1356 O 126.31 0.967558 -2.33226 0
M  V30 1357 C 127.623 -2.25065 -1.99415 0
M  V30 1358 C 129.171 -2.29861 -2.12446 0
M  V30 1359 C 129.646 -3.52048 -2.92961 0
M  V30 1360 N 131.137 -3.52465 -3.00538 0
M  V30 1361 C 131.872 -4.43672 -3.63239 0
M  V30 1362 N 131.368 -5.45157 -4.27523 0
M  V30 1363 N 133.161 -4.31346 -3.60412 0
M  V30 1364 H 125.312 -2.07951 -0.432471 0
M  V30 1365 H 127.575 -0.91339 -0.253816 0
M  V30 1366 H 127.281 -3.18194 -1.49817 0
M  V30 1367 H 127.155 -2.28502 -3.00111 0
M  V30 1368 H 129.542 -1.37252 -2.61239 0
M  V30 1369 H 129.623 -2.3044 -1.11044 0
M  V30 1370 H 129.267 -4.44981 -2.44856 0
M  V30 1371 H 129.197 -3.48715 -3.94596 0
M  V30 1372 H 131.688 -2.79056 -2.54826 0
M  V30 1373 H 132.001 -6.10958 -4.73234 0
M  V30 1374 H 130.346 -5.49025 -4.26141 0
M  V30 1375 H 133.537 -3.51288 -3.09377 0
M  V30 1376 H 133.71 -5.02624 -4.0899 0
M  V30 1377 N 127.117 1.15442 -1.07289 0
M  V30 1378 C 128.065 2.22225 -0.686952 0
M  V30 1379 C 129.059 1.66688 0.30193 0
M  V30 1380 O 130.265 1.79236 0.165712 0
M  V30 1381 H 126.64 0.723783 -0.204064 0
M  V30 1382 H 128.611 2.52056 -1.5972 0
M  V30 1383 C 127.36 3.47556 -0.100149 0
M  V30 1384 H 126.683 3.90612 -0.852211 0
M  V30 1385 H 128.123 4.23794 0.132235 0
M  V30 1386 C 126.582 3.16337 1.159 0
M  V30 1387 O 127.112 3.33074 2.24555 0
M  V30 1388 N 125.318 2.70385 1.06491 0
M  V30 1389 H 124.865 2.56966 0.180668 0
M  V30 1390 H 124.823 2.49871 1.90819 0
M  V30 1391 N 128.595 0.856903 1.32268 0
M  V30 1392 C 129.545 0.274899 2.26337 0
M  V30 1393 C 130.529 -0.580543 1.50062 0
M  V30 1394 O 131.721 -0.429559 1.71708 0
M  V30 1395 C 128.85 -0.533841 3.39124 0
M  V30 1396 C 127.936 0.334114 4.22782 0
M  V30 1397 N 128.327 1.42143 4.85416 0
M  V30 1398 C 126.625 0.124256 4.45827 0
M  V30 1399 C 127.326 1.95559 5.47843 0
M  V30 1400 N 126.302 1.25444 5.28928 0
M  V30 1401 H 130.104 1.10612 2.72291 0
M  V30 1402 H 127.618 0.703258 1.46383 0
M  V30 1403 H 129.615 -0.96722 4.05525 0
M  V30 1404 H 128.275 -1.36283 2.94715 0
M  V30 1405 H 129.286 1.80436 4.85451 0
M  V30 1406 H 125.963 -0.669837 4.12092 0
M  V30 1407 H 127.353 2.86714 6.07655 0
M  V30 1408 N 130.073 -1.45103 0.615059 0
M  V30 1409 C 131.036 -2.29025 -0.0895485 0
M  V30 1410 C 132.036 -1.40174 -0.787906 0
M  V30 1411 O 133.226 -1.62217 -0.634933 0
M  V30 1412 C 130.358 -3.21376 -1.13711 0
M  V30 1413 H 131.551 -2.92807 0.648382 0
M  V30 1414 H 129.104 -1.51749 0.374444 0
M  V30 1415 H 129.839 -2.6241 -1.90556 0
M  V30 1416 H 129.624 -3.86834 -0.640475 0
M  V30 1417 H 131.114 -3.84459 -1.63036 0
M  V30 1418 N 131.551 -0.354651 -1.53558 0
M  V30 1419 C 132.781 0.239167 -2.05211 0
M  V30 1420 C 133.189 1.43879 -1.22863 0
M  V30 1421 O 132.532 1.81857 -0.259565 0
M  V30 1422 C 132.594 0.707251 -3.52474 0
M  V30 1423 C 132.258 -0.374212 -4.55465 0
M  V30 1424 C 133.255 -1.22054 -5.0537 0
M  V30 1425 C 130.94 -0.531323 -4.99482 0
M  V30 1426 C 132.934 -2.20942 -5.97882 0
M  V30 1427 C 130.621 -1.52358 -5.91802 0
M  V30 1428 C 131.619 -2.36108 -6.40892 0
M  V30 1429 O 131.307 -3.33643 -7.31394 0
M  V30 1430 H 131.039 0.0479716 -0.674296 0
M  V30 1431 H 133.593 -0.508121 -1.99016 0
M  V30 1432 H 131.823 1.50596 -3.56171 0
M  V30 1433 H 133.512 1.22285 -3.87042 0
M  V30 1434 H 134.278 -1.1103 -4.7212 0
M  V30 1435 H 130.157 0.110738 -4.60867 0
M  V30 1436 H 133.701 -2.86348 -6.36121 0
M  V30 1437 H 129.598 -1.63434 -6.24467 0
M  V30 1438 H 130.366 -3.29244 -7.4936 0
M  V30 1439 N 133.029 1.57378 -0.0835403 0
M  V30 1440 C 133.939 2.16897 0.894021 0
M  V30 1441 C 134.955 1.13528 1.31861 0
M  V30 1442 O 136.131 1.45848 1.3889 0
M  V30 1443 C 133.196 2.72831 2.13925 0
M  V30 1444 C 132.257 3.91115 1.76997 0
M  V30 1445 C 131.49 4.44371 2.95584 0
M  V30 1446 O 131.713 3.96596 4.09961 0
M  V30 1447 O 130.647 5.35549 2.74719 0
M  V30 1448 H 134.473 3.00814 0.417679 0
M  V30 1449 H 132.058 1.48741 0.140181 0
M  V30 1450 H 133.94 3.0863 2.86924 0
M  V30 1451 H 132.615 1.91967 2.60635 0
M  V30 1452 H 131.522 3.60148 1.01214 0
M  V30 1453 H 132.855 4.73307 1.3506 0
M  V30 1454 N 134.507 -0.190092 1.56449 0
M  V30 1455 C 135.918 -0.754312 1.70784 0
M  V30 1456 C 136.269 -1.83631 0.690951 0
M  V30 1457 O 135.394 -2.15868 -0.151604 0
M  V30 1458 C 135.989 -1.37503 3.09642 0
M  V30 1459 C 134.548 -1.88628 3.25725 0
M  V30 1460 C 133.695 -0.758098 2.66736 0
M  V30 1461 H 136.646 0.0350524 1.58661 0
M  V30 1462 H 136.667 -2.2445 3.0725 0
M  V30 1463 H 136.179 -0.587302 3.83631 0
M  V30 1464 H 134.28 -2.70103 2.56661 0
M  V30 1465 H 134.393 -2.04462 4.3328 0
M  V30 1466 H 132.757 -1.17369 2.26046 0
M  V30 1467 H 133.54 0.0174705 3.43296 0
M  V30 1468 N 135.985 -1.50799 -0.457987 0
M  V30 1469 C 136.915 -1.73553 -1.5621 0
M  V30 1470 C 137.896 -0.584774 -1.59732 0
M  V30 1471 O 139.081 -0.825314 -1.7579 0
M  V30 1472 C 136.211 -1.84169 -2.94447 0
M  V30 1473 C 135.165 -2.99461 -3.0579 0
M  V30 1474 C 134.491 -2.95235 -4.45803 0
M  V30 1475 C 135.791 -4.39766 -2.81786 0
M  V30 1476 H 137.485 -2.66 -1.37421 0
M  V30 1477 H 135.031 -1.28002 -0.659662 0
M  V30 1478 H 136.984 -1.98672 -3.71628 0
M  V30 1479 H 135.708 -0.883545 -3.14422 0
M  V30 1480 H 134.367 -2.8463 -2.31044 0
M  V30 1481 H 134.015 -1.97239 -4.62715 0
M  V30 1482 H 133.715 -3.72642 -4.54326 0
M  V30 1483 H 135.239 -3.11803 -5.24987 0
M  V30 1484 H 136.653 -4.55054 -3.4871 0
M  V30 1485 H 135.05 -5.18722 -3.0174 0
M  V30 1486 H 136.12 -4.51229 -1.7754 0
M  V30 1487 N 137.463 0.71206 -1.40597 0
M  V30 1488 C 138.426 1.80785 -1.40888 0
M  V30 1489 C 139.426 1.57937 -0.302103 0
M  V30 1490 O 140.616 1.64913 -0.561182 0
M  V30 1491 C 137.748 3.18927 -1.20409 0
M  V30 1492 H 138.941 1.81924 -2.38419 0
M  V30 1493 H 136.494 0.91805 -1.26497 0
M  V30 1494 H 137.229 3.23436 -0.236522 0
M  V30 1495 H 137.014 3.36911 -2.00582 0
M  V30 1496 H 138.504 3.98949 -1.23408 0
M  V30 1497 N 138.941 1.26152 0.944643 0
M  V30 1498 C 140.166 1.14363 1.7302 0
M  V30 1499 C 140.591 -0.29772 1.85729 0
M  V30 1500 O 139.949 -1.2157 1.34501 0
M  V30 1501 C 139.997 1.81378 3.11664 0
M  V30 1502 O 139.101 1.10022 3.97453 0
M  V30 1503 H 138.442 0.398694 0.53098 0
M  V30 1504 H 140.972 1.66906 1.18337 0
M  V30 1505 H 140.982 1.88064 3.62072 0
M  V30 1506 H 139.657 2.86237 3.0173 0
M  V30 1507 H 138.234 1.11287 3.55907 0
M  V30 1508 N 140.419 -1.14872 1.07899 0
M  V30 1509 C 141.666 -1.85789 0.805532 0
M  V30 1510 C 141.994 -1.82649 -0.668561 0
M  V30 1511 O 141.249 -1.24858 -1.50695 0
M  V30 1512 C 141.548 -3.34223 1.26609 0
M  V30 1513 C 141.214 -3.57555 2.74709 0
M  V30 1514 C 139.876 -3.63631 3.1516 0
M  V30 1515 C 142.228 -3.66803 3.70277 0
M  V30 1516 C 139.556 -3.76473 4.49983 0
M  V30 1517 C 141.908 -3.8117 5.04869 0
M  V30 1518 C 140.572 -3.85494 5.44932 0
M  V30 1519 H 139.842 -0.679849 0.294765 0
M  V30 1520 H 142.489 -1.3572 1.35101 0
M  V30 1521 H 140.794 -3.86536 0.640103 0
M  V30 1522 H 142.491 -3.87511 1.03132 0
M  V30 1523 H 139.081 -3.5347 2.42398 0
M  V30 1524 H 143.265 -3.61404 3.40149 0
M  V30 1525 H 138.521 -3.7808 4.80484 0
M  V30 1526 H 142.695 -3.87268 5.78789 0
M  V30 1527 H 140.322 -3.95197 6.49403 0
M  V30 1528 N 141.898 -0.863906 -1.31812 0
M  V30 1529 C 142.828 -0.330843 -2.31144 0
M  V30 1530 C 143.809 0.575005 -1.60087 0
M  V30 1531 O 144.994 0.493304 -1.8783 0
M  V30 1532 C 142.124 0.47374 -3.44054 0
M  V30 1533 C 141.078 -0.338481 -4.26659 0
M  V30 1534 C 140.404 0.591412 -5.31419 0
M  V30 1535 C 141.704 -1.56926 -4.98168 0
M  V30 1536 H 143.398 -1.16086 -2.75979 0
M  V30 1537 H 140.944 -0.559657 -1.32679 0
M  V30 1538 H 142.897 0.857143 -4.12591 0
M  V30 1539 H 141.621 1.33721 -2.9797 0
M  V30 1540 H 140.28 -0.703754 -3.59782 0
M  V30 1541 H 139.928 1.45199 -4.81587 0
M  V30 1542 H 139.628 0.0519022 -5.87577 0
M  V30 1543 H 141.152 0.97179 -6.02817 0
M  V30 1544 H 142.566 -1.25764 -5.59336 0
M  V30 1545 H 140.963 -2.04739 -5.64094 0
M  V30 1546 H 142.033 -2.32544 -4.25501 0
M  V30 1547 N 143.376 1.44774 -0.622745 0
M  V30 1548 C 144.653 1.95522 -0.0551974 0
M  V30 1549 C 145.033 1.5649 1.41683 0
M  V30 1550 O 144.381 0.834848 2.12703 0
M  V30 1551 C 144.591 3.4796 -0.269242 0
M  V30 1552 C 145.939 4.24306 -0.158014 0
M  V30 1553 O 146.963 3.55637 -0.200162 0
M  V30 1554 O 145.822 5.46471 -0.0558693 0
M  V30 1555 H 142.916 0.826556 0.0271015 0
M  V30 1556 H 145.462 1.54866 -0.693864 0
M  V30 1557 H 144.234 3.6939 -1.29099 0
M  V30 1558 H 143.857 3.95543 0.403966 0
M  V30 1559 N 144.854 0.36279 1.53368 0
M  V30 1560 C 146.101 -0.227776 2.01215 0
M  V30 1561 C 146.429 -1.49003 1.25014 0
M  V30 1562 O 145.684 -1.92876 0.331236 0
M  V30 1563 C 145.983 -0.568417 3.52851 0
M  V30 1564 C 145.649 0.59918 4.46901 0
M  V30 1565 C 144.311 0.919559 4.72332 0
M  V30 1566 C 146.663 1.38156 5.02556 0
M  V30 1567 C 143.991 2.02434 5.5067 0
M  V30 1568 C 146.343 2.47674 5.821 0
M  V30 1569 C 145.007 2.8025 6.05819 0
M  V30 1570 H 144.277 -0.083349 0.736297 0
M  V30 1571 H 146.924 0.494677 1.85001 0
M  V30 1572 H 145.229 -1.37185 3.66998 0
M  V30 1573 H 146.926 -1.03756 3.87344 0
M  V30 1574 H 143.516 0.339437 4.27254 0
M  V30 1575 H 147.7 1.14729 4.82857 0
M  V30 1576 H 142.956 2.28075 5.67267 0
M  V30 1577 H 147.13 3.08716 6.24234 0
M  V30 1578 H 144.757 3.65979 6.66306 0
M  V30 1579 N 146.332 -1.57332 0.0918853 0
M  V30 1580 C 147.581 -1.93412 -0.572249 0
M  V30 1581 C 147.894 -0.975515 -1.69538 0
M  V30 1582 O 149.1 -1.22991 -2.42045 0
M  V30 1583 C 147.556 -3.43648 -1.0693 0
M  V30 1584 C 147.164 -4.47994 0.0239049 0
M  V30 1585 C 148.908 -3.88695 -1.70635 0
M  V30 1586 C 146.815 -5.89381 -0.488319 0
M  V30 1587 H 145.745 -0.721939 -0.217532 0
M  V30 1588 H 148.396 -1.82735 0.167369 0
M  V30 1589 H 146.778 -3.49466 -1.8625 0
M  V30 1590 H 147.952 -4.53815 0.799277 0
M  V30 1591 H 146.267 -4.12536 0.565946 0
M  V30 1592 H 148.864 -4.91725 -2.10025 0
M  V30 1593 H 149.207 -3.27166 -2.57426 0
M  V30 1594 H 149.74 -3.85564 -0.979023 0
M  V30 1595 H 146.479 -6.54602 0.342906 0
M  V30 1596 H 145.999 -5.87037 -1.23077 0
M  V30 1597 H 147.678 -6.39863 -0.958317 0
M  V30 1598 N 147.81 0.181792 -1.56548 0
M  V30 1599 C 149.038 0.915947 -1.85521 0
M  V30 1600 C 149.453 1.76282 -0.676016 0
M  V30 1601 O 148.81 1.79012 0.355077 0
M  V30 1602 C 148.861 1.80126 -3.13427 0
M  V30 1603 O 148.582 0.988562 -4.26801 0
M  V30 1604 C 150.083 2.64597 -3.55673 0
M  V30 1605 H 147.303 0.26661 -0.61576 0
M  V30 1606 H 149.847 0.185039 -2.03661 0
M  V30 1607 H 148.002 2.48563 -2.97145 0
M  V30 1608 H 148.416 1.59308 -4.99721 0
M  V30 1609 H 149.89 3.2235 -4.48101 0
M  V30 1610 H 150.367 3.38958 -2.79292 0
M  V30 1611 H 150.973 2.0151 -3.74532 0
M  V30 1612 N 149.288 1.51039 0.449983 0
M  V30 1613 C 150.518 1.66627 1.22143 0
M  V30 1614 C 150.926 0.357776 1.85786 0
M  V30 1615 O 150.269 -0.672424 1.70951 0
M  V30 1616 C 150.331 2.71562 2.35573 0
M  V30 1617 C 149.995 4.14526 1.92399 0
M  V30 1618 C 150.992 4.99717 1.43453 0
M  V30 1619 C 148.677 4.60559 2.00475 0
M  V30 1620 C 150.671 6.28998 1.03155 0
M  V30 1621 C 148.358 5.8984 1.59788 0
M  V30 1622 C 149.356 6.73886 1.11208 0
M  V30 1623 O 149.044 8.0075 0.710935 0
M  V30 1624 H 148.776 0.562635 0.374724 0
M  V30 1625 H 151.33 1.98146 0.541036 0
M  V30 1626 H 149.56 2.3533 3.06849 0
M  V30 1627 H 151.249 2.76156 2.97478 0
M  V30 1628 H 152.015 4.65361 1.36618 0
M  V30 1629 H 147.894 3.95273 2.37235 0
M  V30 1630 H 151.438 6.9455 0.651663 0
M  V30 1631 H 147.335 6.23713 1.66289 0
M  V30 1632 H 148.103 8.142 0.837913 0
M  V30 1633 N 150.766 -0.704594 1.40972 0
M  V30 1634 C 151.991 -1.49858 1.43378 0
M  V30 1635 C 152.416 -1.88061 0.038184 0
M  V30 1636 O 151.774 -1.5402 -0.956425 0
M  V30 1637 C 151.822 -2.74333 2.34038 0
M  V30 1638 O 150.926 -3.7147 1.7912 0
M  V30 1639 H 150.267 -0.45139 0.486974 0
M  V30 1640 H 152.797 -0.866832 1.8533 0
M  V30 1641 H 152.807 -3.22741 2.49604 0
M  V30 1642 H 151.482 -2.45863 3.35446 0
M  V30 1643 H 150.059 -3.30363 1.72958 0
M  V30 1644 N 152.244 -1.26651 -0.937939 0
M  V30 1645 C 153.474 -1.15006 -1.71631 0
M  V30 1646 C 153.882 0.297026 -1.86854 0
M  V30 1647 O 153.225 1.21493 -1.37786 0
M  V30 1648 C 153.287 -1.74984 -3.14039 0
M  V30 1649 C 152.951 -3.24103 -3.2219 0
M  V30 1650 C 153.948 -4.20877 -3.05219 0
M  V30 1651 C 151.633 -3.64625 -3.45476 0
M  V30 1652 C 153.627 -5.56151 -3.11408 0
M  V30 1653 C 151.314 -5.00032 -3.513 0
M  V30 1654 C 152.312 -5.95604 -3.34282 0
M  V30 1655 O 152 -7.28545 -3.3982 0
M  V30 1656 H 151.732 -0.401183 -0.544085 0
M  V30 1657 H 154.286 -1.67832 -1.18413 0
M  V30 1658 H 152.516 -1.16624 -3.68695 0
M  V30 1659 H 154.205 -1.58199 -3.73802 0
M  V30 1660 H 154.971 -3.90908 -2.87081 0
M  V30 1661 H 150.85 -2.90718 -3.57777 0
M  V30 1662 H 154.394 -6.30727 -2.98043 0
M  V30 1663 H 150.291 -5.29659 -3.68959 0
M  V30 1664 H 151.059 -7.3686 -3.56343 0
M  V30 1665 N 153.722 1.14298 -1.08507 0
M  V30 1666 C 154.655 2.18447 -0.660004 0
M  V30 1667 C 155.633 1.59242 0.328749 0
M  V30 1668 O 156.817 1.87062 0.232367 0
M  V30 1669 C 153.944 3.38688 0.0290807 0
M  V30 1670 C 152.99 4.1646 -0.919982 0
M  V30 1671 S 153.823 4.77334 -2.42718 0
M  V30 1672 C 154.979 6.00931 -1.75024 0
M  V30 1673 H 155.212 2.54166 -1.54231 0
M  V30 1674 H 152.745 1.25446 -0.900149 0
M  V30 1675 H 154.703 4.08342 0.420378 0
M  V30 1676 H 153.364 3.01289 0.887895 0
M  V30 1677 H 152.557 5.02529 -0.384751 0
M  V30 1678 H 152.159 3.52414 -1.25223 0
M  V30 1679 H 154.451 6.69017 -1.06877 0
M  V30 1680 H 155.394 6.59044 -2.58971 0
M  V30 1681 H 155.802 5.51089 -1.22317 0
M  V30 1682 N 155.201 0.870884 1.31352 0
M  V30 1683 C 156.45 0.478408 1.95944 0
M  V30 1684 C 156.763 -0.974493 1.69597 0
M  V30 1685 O 157.969 -1.47316 2.28058 0
M  V30 1686 C 156.425 0.804609 3.50791 0
M  V30 1687 C 156.033 2.27433 3.85977 0
M  V30 1688 C 157.777 0.480648 4.2177 0
M  V30 1689 C 155.684 2.5429 5.33939 0
M  V30 1690 H 154.614 0.175175 0.733369 0
M  V30 1691 H 157.265 1.06391 1.4951 0
M  V30 1692 H 155.647 0.148347 3.95722 0
M  V30 1693 H 156.821 2.97373 3.52002 0
M  V30 1694 H 155.136 2.56442 3.28065 0
M  V30 1695 H 157.733 0.658519 5.30629 0
M  V30 1696 H 158.076 -0.578979 4.12254 0
M  V30 1697 H 158.609 1.09349 3.82476 0
M  V30 1698 H 155.348 3.58939 5.48491 0
M  V30 1699 H 154.868 1.88945 5.69263 0
M  V30 1700 H 156.547 2.39066 6.01212 0
M  V30 1701 N 156.679 -1.44442 0.630414 0
M  V30 1702 C 157.956 -1.9549 0.0655657 0
M  V30 1703 C 158.336 -1.5724 -1.40851 0
M  V30 1704 O 157.684 -0.846116 -2.12257 0
M  V30 1705 C 157.894 -3.47812 0.287691 0
M  V30 1706 C 159.242 -4.24216 0.180513 0
M  V30 1707 O 160.266 -3.55526 0.219019 0
M  V30 1708 O 159.125 -5.46434 0.0848493 0
M  V30 1709 H 156.219 -0.826688 -0.0227177 0
M  V30 1710 H 158.765 -1.54496 0.702068 0
M  V30 1711 H 157.537 -3.687 1.31056 0
M  V30 1712 H 157.16 -3.95751 -0.382984 0
M  V30 1713 N 158.157 -0.370918 -1.53173 0
M  V30 1714 C 159.105 0.488101 -2.27421 0
M  V30 1715 C 160.099 1.07884 -1.30604 0
M  V30 1716 O 161.305 1.02143 -1.48212 0
M  V30 1717 H 157.68 0.176134 -0.731082 0
M  V30 1718 H 159.651 -0.159815 -2.97972 0
M  V30 1719 C 158.4 1.61306 -3.08019 0
M  V30 1720 H 157.723 1.1678 -3.82364 0
M  V30 1721 H 159.163 2.18872 -3.63141 0
M  V30 1722 C 157.622 2.55848 -2.19188 0
M  V30 1723 O 158.152 3.58799 -1.80626 0
M  V30 1724 N 156.358 2.2516 -1.83715 0
M  V30 1725 H 155.905 1.41476 -2.15273 0
M  V30 1726 H 155.863 2.8867 -1.24567 0
M  V30 1727 N 159.635 1.57281 -0.100228 0
M  V30 1728 C 160.881 1.94826 0.563101 0
M  V30 1729 C 161.214 0.982475 1.67514 0
M  V30 1730 O 160.489 0.0164069 1.94493 0
M  V30 1731 C 160.772 3.42453 1.11346 0
M  V30 1732 C 160.625 4.498 0.00612081 0
M  V30 1733 C 161.944 3.91506 2.01024 0
M  V30 1734 H 159.063 0.708428 0.203221 0
M  V30 1735 H 161.705 1.8922 -0.171979 0
M  V30 1736 H 159.855 3.47361 1.7399 0
M  V30 1737 H 161.527 4.57 -0.628357 0
M  V30 1738 H 159.77 4.28756 -0.659581 0
M  V30 1739 H 160.441 5.50306 0.432109 0
M  V30 1740 H 162.917 3.88784 1.48278 0
M  V30 1741 H 161.793 4.95358 2.36457 0
M  V30 1742 H 162.054 3.31099 2.92961 0
M  V30 1743 N 161.113 -0.173488 1.56642 0
M  V30 1744 C 162.362 -0.888758 1.81063 0
M  V30 1745 C 162.675 -1.83506 0.67712 0
M  V30 1746 O 163.881 -2.59254 0.806206 0
M  V30 1747 C 162.337 -1.63091 3.20826 0
M  V30 1748 C 161.945 -0.728357 4.4204 0
M  V30 1749 C 163.689 -2.33454 3.54541 0
M  V30 1750 C 161.596 -1.47062 5.72823 0
M  V30 1751 H 160.526 -0.335618 0.675186 0
M  V30 1752 H 163.177 -0.141712 1.82952 0
M  V30 1753 H 161.559 -2.42263 3.13248 0
M  V30 1754 H 162.733 0.0262449 4.60793 0
M  V30 1755 H 161.048 -0.134492 4.16183 0
M  V30 1756 H 163.645 -2.89578 4.49498 0
M  V30 1757 H 163.988 -3.08687 2.79317 0
M  V30 1758 H 164.521 -1.61227 3.63663 0
M  V30 1759 H 161.26 -0.760658 6.51072 0
M  V30 1760 H 160.78 -2.1986 5.58052 0
M  V30 1761 H 162.459 -2.01868 6.14702 0
M  V30 1762 N 162.591 -1.51276 -0.441967 0
M  V30 1763 C 163.521 -1.752 -1.54361 0
M  V30 1764 C 164.502 -0.601682 -1.59103 0
M  V30 1765 O 165.687 -0.843913 -1.74905 0
M  V30 1766 C 162.817 -1.87282 -2.92477 0
M  V30 1767 C 161.771 -3.02687 -3.02596 0
M  V30 1768 C 161.097 -2.99947 -4.42647 0
M  V30 1769 C 162.397 -4.4273 -2.77106 0
M  V30 1770 H 164.091 -2.67442 -1.34592 0
M  V30 1771 H 161.637 -1.28694 -0.646048 0
M  V30 1772 H 163.59 -2.02602 -3.695 0
M  V30 1773 H 162.314 -0.916844 -3.13467 0
M  V30 1774 H 160.973 -2.87065 -2.28012 0
M  V30 1775 H 160.621 -2.02136 -4.60597 0
M  V30 1776 H 160.321 -3.77439 -4.50348 0
M  V30 1777 H 161.845 -3.17354 -5.2165 0
M  V30 1778 H 163.259 -4.58727 -3.43864 0
M  V30 1779 H 161.656 -5.21893 -2.96222 0
M  V30 1780 H 162.726 -4.53087 -1.72744 0
M  V30 1781 N 164.069 0.697108 -1.41344 0
M  V30 1782 C 164.999 1.82353 -1.45841 0
M  V30 1783 C 165.98 1.67115 -0.317247 0
M  V30 1784 O 167.165 1.86871 -0.528474 0
M  V30 1785 C 164.295 3.20476 -1.33838 0
M  V30 1786 C 163.249 3.50415 -2.4575 0
M  V30 1787 C 162.575 4.87878 -2.18813 0
M  V30 1788 C 163.875 3.49546 -3.88091 0
M  V30 1789 H 165.569 1.78846 -2.40113 0
M  V30 1790 H 163.115 0.859028 -1.15571 0
M  V30 1791 H 165.068 3.98988 -1.35596 0
M  V30 1792 H 163.792 3.24604 -0.360498 0
M  V30 1793 H 162.451 2.74253 -2.43271 0
M  V30 1794 H 162.099 4.8863 -1.19371 0
M  V30 1795 H 161.799 5.08875 -2.93803 0
M  V30 1796 H 163.323 5.68702 -2.22284 0
M  V30 1797 H 164.737 4.18066 -3.92293 0
M  V30 1798 H 163.134 3.82075 -4.62751 0
M  V30 1799 H 164.204 2.48552 -4.16353 0
M  V30 1800 N 165.547 1.27147 0.931209 0
M  V30 1801 C 166.796 1.12664 1.67302 0
M  V30 1802 C 167.109 -0.327718 1.92835 0
M  V30 1803 O 168.315 -0.593392 2.64936 0
M  V30 1804 C 166.771 1.9683 3.01307 0
M  V30 1805 C 166.379 3.46901 2.83485 0
M  V30 1806 C 168.123 1.90985 3.79111 0
M  V30 1807 C 166.03 4.23279 4.13024 0
M  V30 1808 H 164.96 0.41803 0.627509 0
M  V30 1809 H 167.611 1.51539 1.03481 0
M  V30 1810 H 165.993 1.50797 3.66164 0
M  V30 1811 H 167.167 4.00773 2.27415 0
M  V30 1812 H 165.482 3.54088 2.19113 0
M  V30 1813 H 168.079 2.45328 4.75098 0
M  V30 1814 H 168.422 0.882718 4.06834 0
M  V30 1815 H 168.955 2.34895 3.21044 0
M  V30 1816 H 165.694 5.26503 3.90481 0
M  V30 1817 H 165.214 3.74186 4.6877 0
M  V30 1818 H 166.893 4.32265 4.81411 0
M  V30 1819 N 167.025 -1.13721 1.09112 0
M  V30 1820 C 168.253 -1.88773 0.846899 0
M  V30 1821 C 168.668 -1.7896 -0.601572 0
M  V30 1822 O 168.025 -1.15394 -1.41388 0
M  V30 1823 C 168.076 -3.3849 1.26913 0
M  V30 1824 O 167.797 -3.48043 2.66079 0
M  V30 1825 C 169.298 -4.30518 1.05682 0
M  V30 1826 H 166.518 -0.59772 0.304914 0
M  V30 1827 H 169.062 -1.43977 1.45227 0
M  V30 1828 H 167.217 -3.80881 0.707723 0
M  V30 1829 H 167.631 -4.4109 2.83795 0
M  V30 1830 H 169.105 -5.3391 1.40156 0
M  V30 1831 H 169.582 -4.392 -0.00563416 0
M  V30 1832 H 170.188 -3.93893 1.60402 0
M  V30 1833 N 168.503 -0.877838 -1.30888 0
M  V30 1834 C 169.751 -0.491723 -1.96027 0
M  V30 1835 C 170.072 0.960827 -1.69685 0
M  V30 1836 O 169.342 1.67462 -1.01654 0
M  V30 1837 H 167.922 -0.17885 -0.725273 0
M  V30 1838 H 170.584 -1.11935 -1.59551 0
M  V30 1839 H 169.68 -0.656016 -3.05128 0
M  V30 1840 N 169.982 1.44106 -0.638065 0
M  V30 1841 C 171.21 2.06336 -0.152615 0
M  V30 1842 C 171.625 1.47731 1.17563 0
M  V30 1843 O 170.982 0.602806 1.72257 0
M  V30 1844 C 171.033 3.61479 -0.0391491 0
M  V30 1845 O 170.754 4.17903 -1.31487 0
M  V30 1846 C 172.255 4.40757 0.474176 0
M  V30 1847 H 169.475 0.665862 -0.0828776 0
M  V30 1848 H 172.019 1.84862 -0.87443 0
M  V30 1849 H 170.174 3.82191 0.633142 0
M  V30 1850 H 170.588 5.11416 -1.16421 0
M  V30 1851 H 172.062 5.49707 0.502562 0
M  V30 1852 H 172.539 4.12697 1.50258 0
M  V30 1853 H 173.145 4.24979 -0.165102 0
M  V30 1854 N 171.46 0.379036 1.52974 0
M  V30 1855 C 172.39 -0.452706 2.29069 0
M  V30 1856 C 173.371 -1.07237 1.32039 0
M  V30 1857 O 174.556 -1.08708 1.60923 0
M  V30 1858 C 171.686 -1.5856 3.08992 0
M  V30 1859 C 170.64 -1.0925 4.13822 0
M  V30 1860 C 169.966 -2.31668 4.81907 0
M  V30 1861 C 171.266 -0.167702 5.22031 0
M  V30 1862 H 172.96 0.182181 2.98845 0
M  V30 1863 H 170.506 0.0890592 1.43724 0
M  V30 1864 H 172.459 -2.1742 3.6098 0
M  V30 1865 H 171.183 -2.24792 2.36931 0
M  V30 1866 H 169.842 -0.526494 3.628 0
M  V30 1867 H 169.49 -2.96386 4.06404 0
M  V30 1868 H 169.19 -1.9934 5.52754 0
M  V30 1869 H 170.714 -2.91189 5.36695 0
M  V30 1870 H 172.128 -0.664186 5.6944 0
M  V30 1871 H 170.525 0.0653265 6.00064 0
M  V30 1872 H 171.595 0.786347 4.78482 0
M  V30 1873 N 172.938 -1.57226 0.108567 0
M  V30 1874 C 173.888 -2.11305 -0.856396 0
M  V30 1875 C 174.872 -1.03129 -1.23504 0
M  V30 1876 O 176.064 -1.29381 -1.20787 0
M  V30 1877 C 173.193 -2.70771 -2.11041 0
M  V30 1878 C 172.279 -3.86011 -1.7566 0
M  V30 1879 N 172.67 -4.93492 -1.10902 0
M  V30 1880 C 170.968 -3.95999 -2.05185 0
M  V30 1881 C 171.669 -5.73984 -0.944308 0
M  V30 1882 N 170.645 -5.2346 -1.46596 0
M  V30 1883 H 174.447 -2.91784 -0.352002 0
M  V30 1884 H 171.961 -1.62126 -0.0942324 0
M  V30 1885 H 173.958 -3.07851 -2.81128 0
M  V30 1886 H 172.618 -1.91751 -2.62034 0
M  V30 1887 H 173.629 -5.1208 -0.774235 0
M  V30 1888 H 170.306 -3.28007 -2.58298 0
M  V30 1889 H 171.696 -6.70479 -0.436813 0
M  V30 1890 N 174.416 0.165178 -1.56732 0
M  V30 1891 C 175.348 1.22911 -1.93457 0
M  V30 1892 C 176.361 1.40152 -0.828333 0
M  V30 1893 O 177.55 1.40046 -1.10677 0
M  V30 1894 C 174.65 2.59686 -2.17753 0
M  V30 1895 C 173.823 2.63663 -3.48999 0
M  V30 1896 C 172.882 3.81845 -3.62051 0
M  V30 1897 O 171.908 3.67559 -4.34613 0
M  V30 1898 N 173.11 4.98557 -2.97357 0
M  V30 1899 H 175.875 0.917118 -2.85323 0
M  V30 1900 H 173.436 0.354895 -1.57962 0
M  V30 1901 H 175.428 3.37225 -2.23743 0
M  V30 1902 H 173.998 2.83251 -1.32242 0
M  V30 1903 H 173.218 1.72173 -3.54612 0
M  V30 1904 H 174.506 2.63336 -4.35352 0
M  V30 1905 H 173.904 5.13065 -2.38287 0
M  V30 1906 H 172.461 5.73936 -3.08934 0
M  V30 1907 N 175.894 1.51508 0.433938 0
M  V30 1908 C 177.31 1.39759 0.770682 0
M  V30 1909 C 177.51 0.482594 1.95636 0
M  V30 1910 O 176.566 -0.0609691 2.52426 0
M  V30 1911 C 177.879 2.81851 1.04787 0
M  V30 1912 C 179.427 2.91025 1.1521 0
M  V30 1913 C 179.902 4.34032 1.46219 0
M  V30 1914 N 181.393 4.37154 1.53136 0
M  V30 1915 C 182.128 5.4484 1.78709 0
M  V30 1916 N 181.624 6.62682 2.02051 0
M  V30 1917 N 183.417 5.32324 1.80519 0
M  V30 1918 H 175.568 2.09548 -0.346892 0
M  V30 1919 H 177.831 0.943446 -0.0928074 0
M  V30 1920 H 177.537 3.50815 0.249304 0
M  V30 1921 H 177.411 3.21386 1.97461 0
M  V30 1922 H 179.798 2.22257 1.94128 0
M  V30 1923 H 179.879 2.54983 0.204281 0
M  V30 1924 H 179.523 5.03351 0.678274 0
M  V30 1925 H 179.453 4.6759 2.42212 0
M  V30 1926 H 181.944 3.52197 1.36987 0
M  V30 1927 H 182.257 7.40543 2.20943 0
M  V30 1928 H 180.602 6.65791 1.99366 0
M  V30 1929 H 183.793 4.39246 1.61805 0
M  V30 1930 H 183.966 6.16328 2.00111 0
M  V30 1931 N 177.372 -0.689602 1.41712 0
M  V30 1932 C 178.597 -1.48329 1.44959 0
M  V30 1933 C 179.022 -1.8801 0.0581283 0
M  V30 1934 O 178.38 -1.55026 -0.940035 0
M  V30 1935 C 178.428 -2.71835 2.36935 0
M  V30 1936 O 177.532 -3.69549 1.8305 0
M  V30 1937 H 176.873 -0.446199 0.491734 0
M  V30 1938 H 179.403 -0.847127 1.86239 0
M  V30 1939 H 179.413 -3.20076 2.53013 0
M  V30 1940 H 178.088 -2.42291 3.38035 0
M  V30 1941 H 176.665 -3.2851 1.76452 0
M  V30 1942 N 178.85 -1.27639 -0.924453 0
M  V30 1943 C 180.099 -1.13549 -1.66702 0
M  V30 1944 C 180.412 0.317487 -1.93006 0
M  V30 1945 O 181.618 0.579333 -2.65247 0
M  V30 1946 C 180.074 -1.98426 -3.00259 0
M  V30 1947 C 179.682 -3.484 -2.81641 0
M  V30 1948 C 181.426 -1.92993 -3.78092 0
M  V30 1949 C 179.333 -4.25464 -4.10773 0
M  V30 1950 H 178.263 -0.421351 -0.625283 0
M  V30 1951 H 180.914 -1.52085 -1.02676 0
M  V30 1952 H 179.296 -1.52736 -3.6536 0
M  V30 1953 H 180.47 -4.01973 -2.25287 0
M  V30 1954 H 178.785 -3.55245 -2.17232 0
M  V30 1955 H 181.382 -2.47844 -4.7379 0
M  V30 1956 H 181.725 -0.904281 -4.0636 0
M  V30 1957 H 182.258 -2.36595 -3.19793 0
M  V30 1958 H 178.997 -5.28566 -3.87683 0
M  V30 1959 H 178.517 -3.76667 -4.66779 0
M  V30 1960 H 180.196 -4.34812 -4.79111 0
M  V30 1961 N 180.328 1.1314 -1.09713 0
M  V30 1962 C 181.291 2.16831 -0.742751 0
M  V30 1963 C 182.291 1.59159 0.229129 0
M  V30 1964 O 183.481 1.74199 0.00693237 0
M  V30 1965 C 180.613 3.40756 -0.0989168 0
M  V30 1966 H 181.806 2.49695 -1.66109 0
M  V30 1967 H 179.359 1.2802 -0.896699 0
M  V30 1968 H 180.094 3.13485 0.830514 0
M  V30 1969 H 179.879 3.83888 -0.798265 0
M  V30 1970 H 181.369 4.17386 0.133524 0
M  V30 1971 N 181.806 0.884767 1.30421 0
M  V30 1972 C 182.716 0.355398 2.31892 0
M  V30 1973 C 183.732 -0.542261 1.65335 0
M  V30 1974 O 184.908 -0.435432 1.96637 0
M  V30 1975 C 181.973 -0.421661 3.44126 0
M  V30 1976 C 181.034 0.505727 4.26311 0
M  V30 1977 C 180.267 -0.234343 5.33185 0
M  V30 1978 O 180.49 -1.46045 5.51386 0
M  V30 1979 O 179.424 0.415443 6.00465 0
M  V30 1980 H 183.25 1.19685 2.79122 0
M  V30 1981 H 180.835 0.648596 1.34587 0
M  V30 1982 H 182.717 -0.861641 4.12497 0
M  V30 1983 H 181.392 -1.23942 2.99032 0
M  V30 1984 H 180.299 0.994513 3.60639 0
M  V30 1985 H 181.632 1.28948 4.75009 0
M  V30 1986 N 183.284 -1.43765 0.645699 0
M  V30 1987 C 184.214 -2.33471 -0.0370477 0
M  V30 1988 C 185.195 -1.49042 -0.819779 0
M  V30 1989 O 186.38 -1.77726 -0.782758 0
M  V30 1990 C 183.51 -3.32311 -1.0093 0
M  V30 1991 C 182.464 -4.2667 -0.337201 0
M  V30 1992 C 181.79 -5.1549 -1.42037 0
M  V30 1993 C 183.09 -5.16657 0.765706 0
M  V30 1994 H 184.784 -2.90809 0.712069 0
M  V30 1995 H 182.33 -1.39834 0.343876 0
M  V30 1996 H 184.283 -3.9396 -1.49578 0
M  V30 1997 H 183.007 -2.73213 -1.78948 0
M  V30 1998 H 181.666 -3.66374 0.128771 0
M  V30 1999 H 181.314 -4.52735 -2.1918 0
M  V30 2000 H 181.014 -5.79438 -0.975966 0
M  V30 2001 H 182.538 -5.80012 -1.90838 0
M  V30 2002 H 183.952 -5.72158 0.361702 0
M  V30 2003 H 182.349 -5.89286 1.13413 0
M  V30 2004 H 183.419 -4.56796 1.62683 0
M  V30 2005 N 184.763 -0.387143 -1.52771 0
M  V30 2006 C 186.009 0.196025 -2.0185 0
M  V30 2007 C 186.342 1.46641 -1.27319 0
M  V30 2008 O 185.617 1.90889 -0.373032 0
M  V30 2009 C 185.9 0.466136 -3.5707 0
M  V30 2010 C 185.753 -0.819385 -4.42274 0
M  V30 2011 C 187.072 1.25768 -4.21747 0
M  V30 2012 H 184.191 0.0697708 -0.73369 0
M  V30 2013 H 186.833 -0.516286 -1.82851 0
M  V30 2014 H 184.983 1.07293 -3.7339 0
M  V30 2015 H 186.655 -1.4563 -4.37709 0
M  V30 2016 H 184.898 -1.43517 -4.09372 0
M  V30 2017 H 185.569 -0.585065 -5.48891 0
M  V30 2018 H 188.045 0.744167 -4.09391 0
M  V30 2019 H 186.921 1.41541 -5.30337 0
M  V30 2020 H 187.182 2.27228 -3.79236 0
M  V30 2021 N 186.241 1.57166 -0.116904 0
M  V30 2022 C 187.652 1.82169 0.408809 0
M  V30 2023 C 188.003 1.03393 1.66746 0
M  V30 2024 O 187.128 0.269886 2.1471 0
M  V30 2025 C 187.723 3.30429 0.748466 0
M  V30 2026 C 186.282 3.5612 1.21882 0
M  V30 2027 C 185.429 2.76374 0.226452 0
M  V30 2028 H 188.38 1.5497 -0.342063 0
M  V30 2029 H 188.401 3.44943 1.60607 0
M  V30 2030 H 187.913 3.87737 -0.167784 0
M  V30 2031 H 186.014 3.04168 2.15204 0
M  V30 2032 H 186.127 4.64705 1.16559 0
M  V30 2033 H 184.491 2.44515 0.713063 0
M  V30 2034 H 185.274 3.3644 -0.682859 0
M  V30 2035 N 187.719 -0.156864 1.56817 0
M  V30 2036 C 188.666 -1.19394 1.97519 0
M  V30 2037 C 189.636 -1.4322 0.841265 0
M  V30 2038 O 190.821 -1.55719 1.10255 0
M  V30 2039 C 187.961 -2.52483 2.35258 0
M  V30 2040 C 187.074 -2.35914 3.61896 0
M  V30 2041 C 186.209 -3.61969 3.88782 0
M  V30 2042 C 185.248 -3.40395 5.08722 0
M  V30 2043 N 184.385 -4.58556 5.31668 0
M  V30 2044 H 189.225 -0.839845 2.85921 0
M  V30 2045 H 186.762 -0.403264 1.41464 0
M  V30 2046 H 188.72 -3.30071 2.55165 0
M  V30 2047 H 187.35 -2.85859 1.49949 0
M  V30 2048 H 186.402 -1.49429 3.49821 0
M  V30 2049 H 187.714 -2.15926 4.49641 0
M  V30 2050 H 186.868 -4.47989 4.09135 0
M  V30 2051 H 185.607 -3.84951 2.9944 0
M  V30 2052 H 184.612 -2.52763 4.88253 0
M  V30 2053 H 185.837 -3.18822 5.99608 0
M  V30 2054 H 183.783 -4.81729 4.45279 0
M  V30 2055 H 183.7 -4.41535 6.13664 0
M  V30 2056 H 184.968 -5.45817 5.5651 0
M  V30 2057 N 189.197 -1.51736 -0.425897 0
M  V30 2058 C 190.437 -1.66636 -1.18371 0
M  V30 2059 C 190.801 -0.379854 -1.88205 0
M  V30 2060 O 192.002 -0.404758 -2.65735 0
M  V30 2061 C 190.273 -2.84382 -2.16476 0
M  V30 2062 S 191.832 -3.19673 -3.0059 0
M  V30 2063 H 188.65 -0.586957 -0.40125 0
M  V30 2064 H 191.252 -1.89679 -0.473518 0
M  V30 2065 H 189.956 -3.76281 -1.63831 0
M  V30 2066 H 189.487 -2.63562 -2.92059 0
M  V30 2067 H 191.502 -2.66994 -4.18245 0
M  V30 2068 N 190.675 0.682077 -1.42076 0
M  V30 2069 C 191.625 1.78823 -1.41444 0
M  V30 2070 C 192.609 1.58323 -0.28681 0
M  V30 2071 O 193.801 1.68926 -0.528498 0
M  V30 2072 C 190.93 3.17232 -1.3122 0
M  V30 2073 C 190.016 3.4338 -2.489 0
M  V30 2074 N 190.407 3.40152 -3.7434 0
M  V30 2075 C 188.705 3.73986 -2.43003 0
M  V30 2076 C 189.406 3.65581 -4.52466 0
M  V30 2077 N 188.382 3.85989 -3.8277 0
M  V30 2078 H 192.184 1.7471 -2.36334 0
M  V30 2079 H 189.698 0.882622 -1.36321 0
M  V30 2080 H 191.695 3.96489 -1.2885 0
M  V30 2081 H 190.355 3.22547 -0.373263 0
M  V30 2082 H 191.366 3.20221 -4.07037 0
M  V30 2083 H 188.043 3.86591 -1.57651 0
M  V30 2084 H 189.433 3.69108 -5.61435 0
M  V30 2085 N 192.153 1.28127 0.917671 0
M  V30 2086 C 193.564 1.13622 1.48145 0
M  V30 2087 C 193.915 -0.275207 1.9426 0
M  V30 2088 O 193.04 -1.1691 1.82102 0
M  V30 2089 C 193.635 2.05648 2.69248 0
M  V30 2090 C 192.194 1.95219 3.21818 0
M  V30 2091 C 191.341 1.97618 1.94532 0
M  V30 2092 H 194.292 1.40874 0.730772 0
M  V30 2093 H 194.313 1.61818 3.44377 0
M  V30 2094 H 193.825 3.08365 2.35653 0
M  V30 2095 H 191.926 0.955244 3.60147 0
M  V30 2096 H 192.039 2.81976 3.87333 0
M  V30 2097 H 190.403 1.41973 2.11461 0
M  V30 2098 H 191.186 3.02007 1.63238 0
M  V30 2099 N 193.631 -1.12557 1.10312 0
M  V30 2100 C 194.561 -2.20341 0.772798 0
M  V30 2101 C 195.542 -1.68198 -0.25365 0
M  V30 2102 O 196.727 -1.93831 -0.119699 0
M  V30 2103 C 193.857 -3.46709 0.202443 0
M  V30 2104 C 192.811 -4.11996 1.15943 0
M  V30 2105 C 192.137 -5.328 0.450345 0
M  V30 2106 C 193.437 -4.5828 2.50552 0
M  V30 2107 H 195.131 -2.48229 1.674 0
M  V30 2108 H 192.677 -1.19308 0.806326 0
M  V30 2109 H 194.63 -4.2138 -0.0407752 0
M  V30 2110 H 193.354 -3.18245 -0.734001 0
M  V30 2111 H 192.013 -3.39305 1.38808 0
M  V30 2112 H 191.661 -5.00602 -0.490531 0
M  V30 2113 H 191.361 -5.7743 1.08851 0
M  V30 2114 H 192.885 -6.10219 0.215642 0
M  V30 2115 H 194.299 -5.2433 2.31843 0
M  V30 2116 H 192.696 -5.13683 3.10242 0
M  V30 2117 H 193.766 -3.72329 3.10643 0
M  V30 2118 N 195.109 -0.891671 -1.2995 0
M  V30 2119 C 196.357 -0.512486 -1.95494 0
M  V30 2120 C 196.678 0.942776 -1.70695 0
M  V30 2121 O 195.948 1.66374 -1.03424 0
M  V30 2122 H 194.528 -0.186533 -0.723336 0
M  V30 2123 H 197.19 -1.13621 -1.58355 0
M  V30 2124 H 196.286 -0.688342 -3.04415 0
M  V30 2125 N 196.587 1.43421 -0.653314 0
M  V30 2126 C 197.812 2.06678 -0.172846 0
M  V30 2127 C 198.237 1.48648 1.15262 0
M  V30 2128 O 197.595 0.596457 1.71208 0
M  V30 2129 C 197.643 3.60474 -0.0953184 0
M  V30 2130 O 196.747 4.01487 0.942442 0
M  V30 2131 H 196.088 0.657181 -0.0949155 0
M  V30 2132 H 198.618 1.83925 -0.896265 0
M  V30 2133 H 198.628 4.07905 0.0879728 0
M  V30 2134 H 197.303 4.02088 -1.06291 0
M  V30 2135 H 195.88 3.65646 0.731932 0
M  V30 2136 N 198.065 0.39524 1.52563 0
M  V30 2137 C 199.312 -0.185044 2.01653 0
M  V30 2138 C 199.64 -1.46317 1.28146 0
M  V30 2139 O 198.895 -1.9213 0.372074 0
M  V30 2140 C 199.194 -0.493444 3.53977 0
M  V30 2141 C 198.86 0.69384 4.4553 0
M  V30 2142 C 197.522 1.01954 4.70275 0
M  V30 2143 C 199.874 1.48785 4.99512 0
M  V30 2144 C 197.202 2.14069 5.46252 0
M  V30 2145 C 199.554 2.59965 5.76716 0
M  V30 2146 C 198.218 2.93037 5.99738 0
M  V30 2147 H 197.488 -0.0677123 0.7379 0
M  V30 2148 H 200.135 0.533807 1.8391 0
M  V30 2149 H 198.44 -1.29369 3.69825 0
M  V30 2150 H 200.137 -0.955163 3.89458 0
M  V30 2151 H 196.727 0.429987 4.26438 0
M  V30 2152 H 200.911 1.24946 4.80315 0
M  V30 2153 H 196.167 2.40056 5.62302 0
M  V30 2154 H 200.341 3.21887 6.17545 0
M  V30 2155 H 197.968 3.8003 6.58393 0
M  V30 2156 N 199.544 -1.57102 0.125237 0
M  V30 2157 C 200.454 -2.19191 -0.8362 0
M  V30 2158 C 201.47 -1.16985 -1.28805 0
M  V30 2159 O 202.646 -1.49479 -1.34974 0
M  V30 2160 C 199.711 -2.78407 -2.06617 0
M  V30 2161 C 198.772 -3.9567 -1.66565 0
M  V30 2162 C 198.005 -4.52052 -2.83698 0
M  V30 2163 O 198.228 -4.07326 -3.99302 0
M  V30 2164 O 197.162 -5.42645 -2.60423 0
M  V30 2165 H 200.988 -3.01816 -0.337776 0
M  V30 2166 H 198.573 -1.4906 -0.100695 0
M  V30 2167 H 200.455 -3.16129 -2.7864 0
M  V30 2168 H 199.13 -1.9881 -2.55453 0
M  V30 2169 H 198.037 -3.62705 -0.916296 0
M  V30 2170 H 199.37 -4.76722 -1.22464 0
M  V30 2171 N 201.022 0.148545 -1.56898 0
M  V30 2172 C 201.954 1.20852 -1.9475 0
M  V30 2173 C 202.967 1.39265 -0.843152 0
M  V30 2174 O 204.156 1.38864 -1.12156 0
M  V30 2175 C 201.256 2.57362 -2.20495 0
M  V30 2176 C 200.429 2.59947 -3.51776 0
M  V30 2177 C 199.488 3.77984 -3.6608 0
M  V30 2178 O 198.514 3.62929 -4.38487 0
M  V30 2179 N 199.716 4.95375 -3.02629 0
M  V30 2180 H 202.481 0.886804 -2.86279 0
M  V30 2181 H 200.042 0.338121 -1.5833 0
M  V30 2182 H 202.034 3.34833 -2.27307 0
M  V30 2183 H 200.604 2.81832 -1.35238 0
M  V30 2184 H 199.824 1.68403 -3.56419 0
M  V30 2185 H 201.112 2.58704 -4.38121 0
M  V30 2186 H 200.51 5.10509 -2.43715 0
M  V30 2187 H 199.067 5.70627 -3.15004 0
M  V30 2188 N 202.5 1.5196 0.417844 0
M  V30 2189 C 203.433 1.69387 1.52916 0
M  V30 2190 C 204.411 0.541419 1.53321 0
M  V30 2191 O 205.595 0.767695 1.72159 0
M  V30 2192 C 202.722 1.72525 2.91467 0
M  V30 2193 C 201.768 2.93967 3.09008 0
M  V30 2194 S 202.601 4.54461 2.83242 0
M  V30 2195 C 203.757 4.60372 4.24038 0
M  V30 2196 H 203.99 2.63382 1.37903 0
M  V30 2197 H 201.523 1.41889 0.608845 0
M  V30 2198 H 203.481 1.75018 3.7132 0
M  V30 2199 H 202.142 0.796733 3.03827 0
M  V30 2200 H 201.335 2.92619 4.10353 0
M  V30 2201 H 200.937 2.89316 2.37007 0
M  V30 2202 H 203.229 4.37213 5.17544 0
M  V30 2203 H 204.172 5.62273 4.30412 0
M  V30 2204 H 204.58 3.89492 4.08602 0
M  V30 2205 N 203.978 -0.674533 1.42435 0
M  V30 2206 C 204.888 -1.81751 1.48337 0
M  V30 2207 C 205.904 -1.69975 0.372099 0
M  V30 2208 O 207.08 -1.91521 0.62304 0
M  V30 2209 C 204.145 -3.17895 1.38361 0
M  V30 2210 C 203.206 -3.41625 2.59982 0
M  V30 2211 C 202.439 -4.71274 2.50473 0
M  V30 2212 O 202.662 -5.49197 1.54075 0
M  V30 2213 O 201.596 -4.96254 3.4061 0
M  V30 2214 H 205.422 -1.79728 2.44809 0
M  V30 2215 H 203.007 -0.830312 1.24202 0
M  V30 2216 H 204.889 -3.99136 1.35161 0
M  V30 2217 H 203.564 -3.20555 0.450144 0
M  V30 2218 H 202.471 -2.60231 2.68757 0
M  V30 2219 H 203.804 -3.43796 3.52229 0
M  V30 2220 N 205.456 -1.28612 -0.910864 0
M  V30 2221 C 206.419 -1.12803 -1.9952 0
M  V30 2222 C 207.419 -0.0668264 -1.60661 0
M  V30 2223 O 208.609 -0.312847 -1.71368 0
M  V30 2224 C 205.741 -0.72254 -3.33155 0
M  V30 2225 H 206.934 -2.09109 -2.14973 0
M  V30 2226 H 204.487 -1.11639 -1.09391 0
M  V30 2227 H 205.222 0.241152 -3.23402 0
M  V30 2228 H 205.007 -1.48916 -3.62721 0
M  V30 2229 H 206.497 -0.634666 -4.12749 0
M  V30 2230 N 206.934 1.1197 -1.10907 0
M  V30 2231 C 208.18 1.8386 -0.855773 0
M  V30 2232 C 208.513 1.84134 0.617103 0
M  V30 2233 O 207.788 1.29041 1.45529 0
M  V30 2234 C 208.071 3.31305 -1.411 0
M  V30 2235 C 207.924 3.39456 -2.9511 0
M  V30 2236 C 209.243 4.2721 -1.05736 0
M  V30 2237 H 206.362 0.667545 -0.312334 0
M  V30 2238 H 209.004 1.31331 -1.37303 0
M  V30 2239 H 207.154 3.76169 -0.97105 0
M  V30 2240 H 208.826 3.03191 -3.47668 0
M  V30 2241 H 207.069 2.79849 -3.31462 0
M  V30 2242 H 207.74 4.43209 -3.29044 0
M  V30 2243 H 210.216 3.90497 -1.43706 0
M  V30 2244 H 209.092 5.28775 -1.47269 0
M  V30 2245 H 209.353 4.42088 0.0325958 0
M  V30 2246 N 208.412 0.89855 1.29475 0
M  V30 2247 C 209.36 0.365253 2.29714 0
M  V30 2248 C 210.354 -0.534993 1.6073 0
M  V30 2249 O 211.56 -0.417921 1.75081 0
M  V30 2250 H 207.935 0.0994853 0.74539 0
M  V30 2251 H 209.906 1.22406 2.72138 0
M  V30 2252 C 208.655 -0.393159 3.4547 0
M  V30 2253 H 207.978 0.290332 3.98744 0
M  V30 2254 H 209.418 -0.731189 4.17648 0
M  V30 2255 C 207.877 -1.59539 2.9673 0
M  V30 2256 O 208.407 -2.69469 2.97908 0
M  V30 2257 N 206.613 -1.43716 2.52575 0
M  V30 2258 H 206.16 -0.542828 2.51816 0
M  V30 2259 H 206.118 -2.24288 2.20323 0
M  V30 2260 N 209.89 -1.43072 0.660911 0
M  V30 2261 C 211.139 -2.00942 0.174735 0
M  V30 2262 C 211.452 -1.52797 -1.22117 0
M  V30 2263 O 212.658 -2.02991 -1.80297 0
M  V30 2264 C 211.114 -3.58948 0.261559 0
M  V30 2265 C 210.722 -4.16085 1.66064 0
M  V30 2266 C 212.466 -4.24173 -0.166617 0
M  V30 2267 C 210.373 -5.6641 1.70098 0
M  V30 2268 H 209.303 -0.751483 0.0615631 0
M  V30 2269 H 211.954 -1.63955 0.824069 0
M  V30 2270 H 210.336 -3.93372 -0.455421 0
M  V30 2271 H 211.51 -3.93147 2.40359 0
M  V30 2272 H 209.825 -3.6326 2.03546 0
M  V30 2273 H 212.422 -5.34471 -0.156433 0
M  V30 2274 H 212.765 -3.98647 -1.19943 0
M  V30 2275 H 213.298 -3.94659 0.498875 0
M  V30 2276 H 210.037 -5.96715 2.71315 0
M  V30 2277 H 209.557 -5.91382 1.00139 0
M  V30 2278 H 211.236 -6.30585 1.44816 0
M  V30 2279 N 211.368 -0.403325 -1.52352 0
M  V30 2280 C 212.331 0.413051 -2.25447 0
M  V30 2281 C 213.331 0.978513 -1.276 0
M  V30 2282 O 214.521 0.858305 -1.51587 0
M  V30 2283 C 211.653 1.58087 -3.02029 0
M  V30 2284 H 212.846 -0.227094 -2.99039 0
M  V30 2285 H 210.399 -0.155722 -1.55522 0
M  V30 2286 H 211.134 2.25804 -2.32772 0
M  V30 2287 H 210.919 1.18195 -3.73861 0
M  V30 2288 H 212.409 2.1585 -3.57489 0
M  V30 2289 N 212.846 1.57033 -0.133567 0
M  V30 2290 C 213.778 2.13176 0.841944 0
M  V30 2291 C 214.791 1.07794 1.22001 0
M  V30 2292 O 215.98 1.35117 1.16643 0
M  V30 2293 C 213.08 2.62847 2.13926 0
M  V30 2294 C 212.253 3.92486 1.93064 0
M  V30 2295 C 211.312 4.27605 3.0666 0
M  V30 2296 O 210.338 4.96168 2.78937 0
M  V30 2297 N 211.54 3.861 4.33483 0
M  V30 2298 H 214.305 2.97503 0.362192 0
M  V30 2299 H 211.866 1.61821 0.05042 0
M  V30 2300 H 213.858 2.83363 2.88942 0
M  V30 2301 H 212.428 1.83319 2.53205 0
M  V30 2302 H 211.648 3.80732 1.02159 0
M  V30 2303 H 212.936 4.77225 1.76447 0
M  V30 2304 H 212.334 3.30828 4.58878 0
M  V30 2305 H 210.891 4.11694 5.05323 0
M  V30 2306 N 214.325 -0.140222 1.56975 0
M  V30 2307 C 215.553 -0.866437 1.87884 0
M  V30 2308 C 215.968 -1.74428 0.722517 0
M  V30 2309 O 215.325 -1.79891 -0.30749 0
M  V30 2310 C 215.376 -1.71753 3.18093 0
M  V30 2311 O 215.097 -0.875056 4.29272 0
M  V30 2312 C 216.598 -2.55074 3.62563 0
M  V30 2313 H 213.818 -0.25019 0.622612 0
M  V30 2314 H 216.362 -0.130977 2.0408 0
M  V30 2315 H 214.517 -2.40598 3.03631 0
M  V30 2316 H 214.931 -1.46002 5.03769 0
M  V30 2317 H 216.405 -3.10356 4.5649 0
M  V30 2318 H 216.882 -3.31434 2.88181 0
M  V30 2319 H 217.488 -1.91509 3.79743 0
M  V30 2320 N 215.803 -1.52179 -0.40978 0
M  V30 2321 C 217.214 -1.58377 -0.988615 0
M  V30 2322 C 217.565 -0.423879 -1.91566 0
M  V30 2323 O 216.69 0.455844 -2.11544 0
M  V30 2324 C 217.285 -2.87044 -1.79976 0
M  V30 2325 C 215.844 -2.95722 -2.32863 0
M  V30 2326 C 214.991 -2.53309 -1.12828 0
M  V30 2327 H 217.942 -1.57558 -0.190039 0
M  V30 2328 H 217.963 -2.7236 -2.65707 0
M  V30 2329 H 217.475 -3.71444 -1.12478 0
M  V30 2330 H 215.576 -2.15814 -3.03735 0
M  V30 2331 H 215.689 -3.99951 -2.63773 0
M  V30 2332 H 214.053 -2.07142 -1.48204 0
M  V30 2333 H 214.836 -3.40082 -0.46897 0
M  V30 2334 N 217.281 0.66697 -1.42791 0
M  V30 2335 C 218.244 1.76211 -1.46568 0
M  V30 2336 C 219.244 1.56896 -0.352196 0
M  V30 2337 O 220.434 1.63044 -0.613364 0
M  V30 2338 C 217.566 3.14935 -1.30494 0
M  V30 2339 H 218.759 1.74247 -2.44086 0
M  V30 2340 H 216.312 0.877342 -1.29354 0
M  V30 2341 H 217.047 3.2252 -0.339301 0
M  V30 2342 H 216.832 3.30359 -2.11199 0
M  V30 2343 H 218.322 3.94821 -1.36038 0
M  V30 2344 N 218.759 1.29093 0.90403 0
M  V30 2345 C 219.669 1.15727 2.0407 0
M  V30 2346 C 220.685 0.0815308 1.73809 0
M  V30 2347 O 221.861 0.292749 1.99261 0
M  V30 2348 C 218.926 0.830424 3.36608 0
M  V30 2349 C 217.987 1.98955 3.80415 0
M  V30 2350 C 217.22 1.6782 5.06628 0
M  V30 2351 O 217.443 0.597105 5.67266 0
M  V30 2352 O 216.377 2.52486 5.46383 0
M  V30 2353 H 220.203 2.11171 2.18267 0
M  V30 2354 H 217.788 1.08504 1.027 0
M  V30 2355 H 219.67 0.662521 4.16159 0
M  V30 2356 H 218.345 -0.0942678 3.23563 0
M  V30 2357 H 217.252 2.21267 3.01648 0
M  V30 2358 H 218.585 2.89529 3.98037 0
M  V30 2359 N 220.237 -1.11381 1.11499 0
M  V30 2360 C 221.167 -2.19509 0.796125 0
M  V30 2361 C 222.148 -1.68458 -0.235796 0
M  V30 2362 O 223.333 -1.93947 -0.0991344 0
M  V30 2363 C 220.463 -3.46475 0.239205 0
M  V30 2364 C 219.417 -4.10744 1.20307 0
M  V30 2365 C 218.743 -5.32293 0.50683 0
M  V30 2366 C 220.043 -4.55597 2.55399 0
M  V30 2367 H 221.737 -2.46439 1.70024 0
M  V30 2368 H 219.283 -1.18446 0.818935 0
M  V30 2369 H 221.236 -4.214 0.00392006 0
M  V30 2370 H 219.96 -3.19006 -0.700206 0
M  V30 2371 H 218.619 -3.37813 1.42399 0
M  V30 2372 H 218.267 -5.01095 -0.437408 0
M  V30 2373 H 217.967 -5.76243 1.1497 0
M  V30 2374 H 219.491 -6.09956 0.280351 0
M  V30 2375 H 220.905 -5.21841 2.37391 0
M  V30 2376 H 219.302 -5.10363 3.15673 0
M  V30 2377 H 220.372 -3.69013 3.14575 0
M  V30 2378 N 221.715 -0.905404 -1.28997 0
M  V30 2379 C 222.945 -0.549049 -1.99171 0
M  V30 2380 C 223.353 0.87203 -1.67906 0
M  V30 2381 O 222.696 1.58796 -0.923561 0
M  V30 2382 C 222.758 -0.668306 -3.53234 0
M  V30 2383 C 222.422 -2.0574 -4.08069 0
M  V30 2384 C 223.419 -3.0292 -4.22534 0
M  V30 2385 C 221.104 -2.36833 -4.42962 0
M  V30 2386 C 223.098 -4.29314 -4.71135 0
M  V30 2387 C 220.785 -3.63467 -4.91258 0
M  V30 2388 C 221.783 -4.59522 -5.053 0
M  V30 2389 O 221.471 -5.83907 -5.52546 0
M  V30 2390 H 221.203 -0.208784 -0.64295 0
M  V30 2391 H 223.757 -1.21836 -1.65363 0
M  V30 2392 H 221.987 0.0580547 -3.86656 0
M  V30 2393 H 223.676 -0.320273 -4.04634 0
M  V30 2394 H 224.442 -2.80216 -3.95859 0
M  V30 2395 H 220.321 -1.62824 -4.31288 0
M  V30 2396 H 223.865 -5.04293 -4.8201 0
M  V30 2397 H 219.762 -3.86 -5.17372 0
M  V30 2398 H 220.53 -5.86578 -5.70849 0
M  V30 2399 N 223.193 1.4272 -0.668489 0
M  V30 2400 C 224.141 2.32586 0.0254857 0
M  V30 2401 C 225.135 1.49471 0.797176 0
M  V30 2402 O 226.341 1.65583 0.705853 0
M  V30 2403 H 222.716 0.751514 0.0270339 0
M  V30 2404 H 224.687 2.88823 -0.749936 0
M  V30 2405 C 223.436 3.3397 0.967427 0
M  V30 2406 H 222.759 3.97961 0.383048 0
M  V30 2407 H 224.199 3.9945 1.42181 0
M  V30 2408 C 222.658 2.65744 2.0708 0
M  V30 2409 O 223.188 2.48454 3.15648 0
M  V30 2410 N 221.394 2.2487 1.8407 0
M  V30 2411 H 220.941 2.39132 0.95778 0
M  V30 2412 H 220.899 1.79552 2.58086 0
M  V30 2413 N 224.671 0.411399 1.52136 0
M  V30 2414 C 225.634 -0.401089 2.25663 0
M  V30 2415 C 226.634 -0.971732 1.28117 0
M  V30 2416 O 227.824 -0.850254 1.52041 0
M  V30 2417 C 224.956 -1.56483 3.02863 0
M  V30 2418 H 226.149 0.24295 2.98914 0
M  V30 2419 H 223.702 0.163968 1.55438 0
M  V30 2420 H 224.437 -2.24567 2.33967 0
M  V30 2421 H 224.222 -1.16211 3.74483 0
M  V30 2422 H 225.712 -2.13951 3.58629 0
M  V30 2423 N 226.149 -1.5696 0.141893 0
M  V30 2424 C 227.398 -1.95135 -0.510427 0
M  V30 2425 C 227.711 -1.02896 -1.66348 0
M  V30 2426 O 228.917 -1.30629 -2.38009 0
M  V30 2427 C 227.373 -3.46876 -0.959427 0
M  V30 2428 C 226.981 -4.47691 0.166419 0
M  V30 2429 C 228.725 -3.93927 -1.58183 0
M  V30 2430 C 226.632 -5.90636 -0.300565 0
M  V30 2431 H 225.562 -0.728494 -0.194454 0
M  V30 2432 H 228.213 -1.8211 0.22542 0
M  V30 2433 H 226.595 -3.55215 -1.75038 0
M  V30 2434 H 227.769 -4.51043 0.94325 0
M  V30 2435 H 226.084 -4.10527 0.696905 0
M  V30 2436 H 228.681 -4.98158 -1.94275 0
M  V30 2437 H 229.024 -3.3519 -2.46888 0
M  V30 2438 H 229.557 -3.88484 -0.855863 0
M  V30 2439 H 226.296 -6.5318 0.550989 0
M  V30 2440 H 225.816 -5.90655 -1.04338 0
M  V30 2441 H 227.495 -6.42588 -0.754265 0
M  V30 2442 N 227.627 0.131896 -1.57047 0
M  V30 2443 C 228.557 1.16384 -2.02428 0
M  V30 2444 C 229.538 1.43936 -0.90644 0
M  V30 2445 O 230.723 1.54599 -1.17528 0
M  V30 2446 C 227.853 2.49328 -2.4177 0
M  V30 2447 C 226.807 2.36266 -3.56879 0
M  V30 2448 C 226.133 3.74057 -3.8208 0
M  V30 2449 C 227.433 1.834 -4.89042 0
M  V30 2450 H 229.127 0.786433 -2.88887 0
M  V30 2451 H 226.673 0.376855 -1.38981 0
M  V30 2452 H 228.626 3.21759 -2.7212 0
M  V30 2453 H 227.35 2.88934 -1.52266 0
M  V30 2454 H 226.009 1.66286 -3.26718 0
M  V30 2455 H 225.657 4.11125 -2.89803 0
M  V30 2456 H 225.357 3.66174 -4.59554 0
M  V30 2457 H 226.881 4.48012 -4.1487 0
M  V30 2458 H 228.295 2.45636 -5.18011 0
M  V30 2459 H 226.692 1.8637 -5.70426 0
M  V30 2460 H 227.762 0.790662 -4.7841 0
M  V30 2461 N 229.106 1.52395 0.401703 0
M  V30 2462 C 230.352 1.67065 1.14966 0
M  V30 2463 C 230.685 0.403052 1.89971 0
M  V30 2464 O 229.96 -0.598774 1.85054 0
M  V30 2465 C 230.243 2.8975 2.13815 0
M  V30 2466 C 230.096 4.26578 1.42658 0
M  V30 2467 C 231.415 3.07965 3.14397 0
M  V30 2468 H 228.534 0.607968 0.416587 0
M  V30 2469 H 231.176 1.84965 0.434511 0
M  V30 2470 H 229.326 2.74619 2.74803 0
M  V30 2471 H 230.998 4.53451 0.847329 0
M  V30 2472 H 229.241 4.27639 0.72849 0
M  V30 2473 H 229.912 5.08483 2.14823 0
M  V30 2474 H 232.388 3.22043 2.63491 0
M  V30 2475 H 231.264 3.95308 3.80819 0
M  V30 2476 H 231.525 2.21611 3.82545 0
M  V30 2477 N 230.584 -0.659388 1.43143 0
M  V30 2478 C 231.861 -1.41627 1.34912 0
M  V30 2479 C 232.241 -2.11099 -0.00607785 0
M  V30 2480 O 231.589 -2.04353 -1.02236 0
M  V30 2481 C 231.799 -2.40604 2.52805 0
M  V30 2482 C 233.147 -3.04789 2.95616 0
M  V30 2483 O 234.171 -2.50932 2.52807 0
M  V30 2484 O 233.03 -4.02421 3.69756 0
M  V30 2485 H 230.124 -0.63246 0.532844 0
M  V30 2486 H 232.67 -0.686814 1.5518 0
M  V30 2487 H 231.442 -1.88174 3.43083 0
M  V30 2488 H 231.065 -3.21009 2.34604 0
M  V30 2489 N 232.062 -1.29571 -0.897171 0
M  V30 2490 C 233.29 -1.20583 -1.68129 0
M  V30 2491 C 233.705 0.233181 -1.87354 0
M  V30 2492 O 233.062 1.15579 -1.41236 0
M  V30 2493 C 233.113 -1.91772 -3.06441 0
M  V30 2494 O 232.834 -3.30053 -2.88091 0
M  V30 2495 C 234.335 -1.89291 -4.00854 0
M  V30 2496 H 231.555 -0.417826 -0.525036 0
M  V30 2497 H 234.099 -1.70987 -1.12177 0
M  V30 2498 H 232.254 -1.45196 -3.59161 0
M  V30 2499 H 232.668 -3.65942 -3.75748 0
M  V30 2500 H 234.142 -2.43662 -4.95311 0
M  V30 2501 H 234.619 -0.869014 -4.30517 0
M  V30 2502 H 235.225 -2.35622 -3.54066 0
M  V30 2503 N 233.54 1.10788 -1.12088 0
M  V30 2504 C 234.951 1.64181 -0.88891 0
M  V30 2505 C 235.302 1.87508 0.577498 0
M  V30 2506 O 234.427 1.61434 1.44112 0
M  V30 2507 C 235.022 2.98257 -1.60712 0
M  V30 2508 C 233.581 3.4853 -1.42139 0
M  V30 2509 C 232.728 2.23208 -1.6454 0
M  V30 2510 H 235.679 0.943368 -1.27618 0
M  V30 2511 H 235.7 3.65552 -1.05604 0
M  V30 2512 H 235.212 2.81246 -2.67436 0
M  V30 2513 H 233.313 3.70692 -0.376552 0
M  V30 2514 H 233.426 4.26882 -2.17505 0
M  V30 2515 H 231.79 2.31169 -1.06925 0
M  V30 2516 H 232.573 2.08733 -2.72554 0
M  V30 2517 N 235.018 0.912232 1.28515 0
M  V30 2518 C 235.948 0.416403 2.29757 0
M  V30 2519 C 236.929 -0.515194 1.6211 0
M  V30 2520 O 238.114 -0.423253 1.89532 0
M  V30 2521 C 235.244 -0.34572 3.45575 0
M  V30 2522 C 234.198 0.496599 4.25109 0
M  V30 2523 C 233.524 -0.393771 5.33248 0
M  V30 2524 C 234.824 1.75307 4.92001 0
M  V30 2525 H 236.518 1.26249 2.7148 0
M  V30 2526 H 234.064 0.608515 1.30511 0
M  V30 2527 H 236.017 -0.703422 4.15488 0
M  V30 2528 H 234.741 -1.2257 3.02728 0
M  V30 2529 H 233.4 0.8368 3.56922 0
M  V30 2530 H 233.048 -1.27225 4.86644 0
M  V30 2531 H 232.748 0.166209 5.87365 0
M  V30 2532 H 234.272 -0.747389 6.06009 0
M  V30 2533 H 235.686 1.46437 5.54283 0
M  V30 2534 H 234.083 2.25534 5.56106 0
M  V30 2535 H 235.153 2.48176 4.16577 0
M  V30 2536 N 236.496 -1.42363 0.676048 0
M  V30 2537 C 237.459 -2.29199 0.00766941 0
M  V30 2538 C 238.459 -1.43389 -0.727745 0
M  V30 2539 O 239.649 -1.64764 -0.56556 0
M  V30 2540 C 236.781 -3.2591 -0.999785 0
M  V30 2541 H 237.974 -2.89794 0.771988 0
M  V30 2542 H 235.527 -1.50024 0.438468 0
M  V30 2543 H 236.262 -2.70256 -1.79255 0
M  V30 2544 H 236.047 -3.89202 -0.475829 0
M  V30 2545 H 237.537 -3.91028 -1.46583 0
M  V30 2546 N 237.974 -0.419461 -1.51915 0
M  V30 2547 C 238.937 0.389116 -2.25873 0
M  V30 2548 C 239.937 0.964924 -1.28631 0
M  V30 2549 O 241.127 0.842179 -1.52489 0
M  V30 2550 C 238.259 1.54874 -3.03689 0
M  V30 2551 H 239.452 -0.258799 -2.98781 0
M  V30 2552 H 237.005 -0.172209 -1.55348 0
M  V30 2553 H 237.74 2.23323 -2.35154 0
M  V30 2554 H 237.525 1.14223 -3.75094 0
M  V30 2555 H 239.015 2.12046 -3.59759 0
M  V30 2556 N 239.452 1.56882 -0.150215 0
M  V30 2557 C 240.699 1.96228 0.500093 0
M  V30 2558 C 241.027 1.03522 1.64661 0
M  V30 2559 O 240.282 0.0650683 1.95592 0
M  V30 2560 C 240.581 3.41801 1.04437 0
M  V30 2561 C 240.247 4.50897 0.0159671 0
M  V30 2562 C 238.909 4.8046 -0.266731 0
M  V30 2563 C 241.261 5.16703 -0.683192 0
M  V30 2564 C 238.589 5.73135 -1.25434 0
M  V30 2565 C 240.941 6.10441 -1.65964 0
M  V30 2566 C 239.605 6.38382 -1.95 0
M  V30 2567 H 238.875 0.718048 0.182997 0
M  V30 2568 H 241.522 1.90019 -0.237724 0
M  V30 2569 H 239.827 3.44857 1.85959 0
M  V30 2570 H 241.524 3.69573 1.55618 0
M  V30 2571 H 238.114 4.27891 0.246485 0
M  V30 2572 H 242.298 4.93993 -0.477983 0
M  V30 2573 H 237.554 5.93074 -1.48571 0
M  V30 2574 H 241.728 6.60507 -2.20689 0
M  V30 2575 H 239.355 7.09996 -2.71679 0
M  V30 2576 N 240.93 -0.123565 1.57115 0
M  V30 2577 C 242.177 -0.832153 1.84612 0
M  V30 2578 C 242.505 -1.80093 0.734627 0
M  V30 2579 O 241.76 -1.93766 -0.27442 0
M  V30 2580 C 242.059 -1.62016 3.18568 0
M  V30 2581 C 241.725 -0.796084 4.43817 0
M  V30 2582 C 240.387 -0.568816 4.77826 0
M  V30 2583 C 242.739 -0.221364 5.2073 0
M  V30 2584 C 240.067 0.243499 5.86194 0
M  V30 2585 C 242.419 0.578117 6.29953 0
M  V30 2586 C 241.083 0.815744 6.62497 0
M  V30 2587 H 240.353 -0.304507 0.675542 0
M  V30 2588 H 243 -0.0947248 1.91266 0
M  V30 2589 H 241.305 -2.42837 3.0747 0
M  V30 2590 H 243.002 -2.17231 3.37064 0
M  V30 2591 H 239.592 -0.983307 4.17168 0
M  V30 2592 H 243.776 -0.384173 4.94811 0
M  V30 2593 H 239.032 0.436871 6.09837 0
M  V30 2594 H 243.206 1.03046 6.88734 0
M  V30 2595 H 240.833 1.44701 7.46301 0
M  V30 2596 N 242.408 -1.52605 -0.393616 0
M  V30 2597 C 243.34 -1.73303 -1.49995 0
M  V30 2598 C 244.353 -0.613473 -1.50799 0
M  V30 2599 O 245.542 -0.889049 -1.54784 0
M  V30 2600 C 242.642 -1.77245 -2.88855 0
M  V30 2601 C 241.815 -3.06483 -3.12069 0
M  V30 2602 C 240.874 -3.02033 -4.30886 0
M  V30 2603 O 239.9 -3.75907 -4.27414 0
M  V30 2604 N 241.102 -2.20897 -5.36828 0
M  V30 2605 H 243.867 -2.68756 -1.32629 0
M  V30 2606 H 241.428 -1.51036 -0.583083 0
M  V30 2607 H 243.42 -1.7178 -3.66434 0
M  V30 2608 H 241.99 -0.891993 -2.99603 0
M  V30 2609 H 241.21 -3.25474 -2.22396 0
M  V30 2610 H 242.498 -3.91947 -3.2443 0
M  V30 2611 H 241.896 -1.60336 -5.42502 0
M  V30 2612 H 240.453 -2.21275 -6.13091 0
M  V30 2613 N 243.887 0.651787 -1.4349 0
M  V30 2614 C 245.164 1.40909 -1.35661 0
M  V30 2615 C 245.544 2.11099 -0.00511733 0
M  V30 2616 O 244.892 2.04892 1.0115 0
M  V30 2617 C 245.102 2.3926 -2.54078 0
M  V30 2618 C 246.45 3.03217 -2.97228 0
M  V30 2619 O 247.474 2.49588 -2.54135 0
M  V30 2620 O 246.333 4.00455 -3.71885 0
M  V30 2621 H 243.427 0.629625 -0.536191 0
M  V30 2622 H 245.973 0.678575 -1.55542 0
M  V30 2623 H 244.745 1.86352 -3.44076 0
M  V30 2624 H 244.368 3.1976 -2.36303 0
M  V30 2625 N 245.365 1.30045 0.890287 0
M  V30 2626 C 246.605 1.19839 1.65584 0
M  V30 2627 C 246.969 -0.244175 1.90441 0
M  V30 2628 O 248.17 -0.469378 2.6467 0
M  V30 2629 C 246.441 1.99876 2.96284 0
M  V30 2630 S 248 2.06309 3.87275 0
M  V30 2631 H 244.818 0.427157 0.568382 0
M  V30 2632 H 247.42 1.64453 1.05715 0
M  V30 2633 H 246.124 3.03809 2.75913 0
M  V30 2634 H 245.655 1.55903 3.61189 0
M  V30 2635 H 247.67 1.18661 4.81803 0
M  V30 2636 N 246.843 -1.10192 1.12674 0
M  V30 2637 C 248.092 -1.81573 0.8783 0
M  V30 2638 C 248.405 -1.86249 -0.597557 0
M  V30 2639 O 249.611 -2.5386 -0.962681 0
M  V30 2640 C 248.067 -3.26149 1.52167 0
M  V30 2641 C 247.675 -3.29763 3.03249 0
M  V30 2642 C 249.419 -4.0234 1.3536 0
M  V30 2643 C 247.326 -4.68815 3.60508 0
M  V30 2644 H 246.256 -0.680394 0.324931 0
M  V30 2645 H 248.907 -1.23902 1.35353 0
M  V30 2646 H 247.289 -3.83832 0.974104 0
M  V30 2647 H 248.463 -2.8189 3.6452 0
M  V30 2648 H 246.778 -2.67059 3.19481 0
M  V30 2649 H 249.375 -5.05058 1.75559 0
M  V30 2650 H 249.718 -4.15235 0.297554 0
M  V30 2651 H 250.251 -3.51079 1.87052 0
M  V30 2652 H 246.99 -4.61121 4.65884 0
M  V30 2653 H 246.51 -5.17045 3.04014 0
M  V30 2654 H 248.189 -5.37785 3.59717 0
M  V30 2655 N 248.321 -0.919034 -1.28029 0
M  V30 2656 C 249.546 -0.570357 -1.99403 0
M  V30 2657 C 249.971 0.842486 -1.68178 0
M  V30 2658 O 249.329 1.56391 -0.917141 0
M  V30 2659 C 249.377 -0.792541 -3.51783 0
M  V30 2660 O 248.481 0.145988 -4.12142 0
M  V30 2661 H 247.822 -0.220555 -0.6263 0
M  V30 2662 H 250.352 -1.23592 -1.63053 0
M  V30 2663 H 250.362 -0.704708 -4.01868 0
M  V30 2664 H 249.037 -1.82247 -3.73844 0
M  V30 2665 H 247.614 0.00897528 -3.72899 0
M  V30 2666 N 249.799 1.42003 -0.683588 0
M  V30 2667 C 250.709 2.34597 -0.0109075 0
M  V30 2668 C 251.725 1.55576 0.779245 0
M  V30 2669 O 252.901 1.88107 0.719555 0
M  V30 2670 C 249.966 3.34199 0.922588 0
M  V30 2671 C 249.027 4.29115 0.125984 0
M  V30 2672 C 248.26 5.23959 1.01502 0
M  V30 2673 O 248.483 5.23952 2.25456 0
M  V30 2674 O 247.417 6.00053 0.47111 0
M  V30 2675 H 251.243 2.93675 -0.773853 0
M  V30 2676 H 248.828 1.42654 -0.443861 0
M  V30 2677 H 250.71 3.95365 1.45823 0
M  V30 2678 H 249.385 2.77582 1.66523 0
M  V30 2679 H 248.292 3.71335 -0.453969 0
M  V30 2680 H 249.625 4.88798 -0.577736 0
M  V30 2681 N 251.277 0.427512 1.51691 0
M  V30 2682 C 252.209 -0.424521 2.25234 0
M  V30 2683 C 253.222 -0.994671 1.2888 0
M  V30 2684 O 254.411 -0.890483 1.54702 0
M  V30 2685 C 251.511 -1.60479 2.98496 0
M  V30 2686 C 250.684 -1.15527 4.21868 0
M  V30 2687 C 249.743 -2.20454 4.77793 0
M  V30 2688 O 248.769 -1.8029 5.39893 0
M  V30 2689 N 249.971 -3.52831 4.60967 0
M  V30 2690 H 252.736 0.205749 2.98993 0
M  V30 2691 H 250.297 0.255867 1.59865 0
M  V30 2692 H 252.289 -2.30276 3.32799 0
M  V30 2693 H 250.859 -2.14061 2.27809 0
M  V30 2694 H 250.079 -0.284736 3.9317 0
M  V30 2695 H 251.367 -0.832173 5.01949 0
M  V30 2696 H 250.765 -3.88201 4.11481 0
M  V30 2697 H 249.322 -4.18551 4.99658 0
M  V30 2698 N 252.755 -1.56801 0.158532 0
M  V30 2699 C 254.032 -1.88131 -0.535357 0
M  V30 2700 C 254.412 -1.06638 -1.82186 0
M  V30 2701 O 253.76 -0.156533 -2.27963 0
M  V30 2702 C 253.97 -3.39949 -0.789653 0
M  V30 2703 C 255.318 -4.09416 -1.12533 0
M  V30 2704 O 256.342 -3.45194 -0.878622 0
M  V30 2705 O 255.201 -5.22855 -1.59014 0
M  V30 2706 H 252.295 -0.780143 -0.27442 0
M  V30 2707 H 254.841 -1.68564 0.19601 0
M  V30 2708 H 253.613 -3.91115 0.120353 0
M  V30 2709 H 253.236 -3.65084 -1.57479 0
M  V30 2710 N 254.233 0.115231 -1.57178 0
M  V30 2711 C 255.163 1.1423 -2.03651 0
M  V30 2712 C 256.144 1.42967 -0.921655 0
M  V30 2713 O 257.329 1.53343 -1.19162 0
M  V30 2714 C 254.459 2.4675 -2.44401 0
M  V30 2715 C 253.413 2.32467 -3.59365 0
M  V30 2716 C 252.739 3.69984 -3.86026 0
M  V30 2717 C 254.039 1.78203 -4.90959 0
M  V30 2718 H 255.733 0.755749 -2.89705 0
M  V30 2719 H 253.279 0.362093 -1.39373 0
M  V30 2720 H 255.232 3.18854 -2.75517 0
M  V30 2721 H 253.956 2.87302 -1.55322 0
M  V30 2722 H 252.615 1.62811 -3.28463 0
M  V30 2723 H 252.263 4.08028 -2.94147 0
M  V30 2724 H 251.963 3.61279 -4.63412 0
M  V30 2725 H 253.487 4.43587 -4.19599 0
M  V30 2726 H 254.901 2.40128 -5.20587 0
M  V30 2727 H 253.298 1.8031 -5.72371 0
M  V30 2728 H 254.368 0.739876 -4.79222 0
M  V30 2729 N 255.711 1.52812 0.385517 0
M  V30 2730 C 256.988 1.5861 1.14465 0
M  V30 2731 C 257.368 0.381402 2.07626 0
M  V30 2732 O 256.716 -0.629999 2.19643 0
M  V30 2733 C 256.926 2.92664 1.90128 0
M  V30 2734 C 258.274 3.46526 2.45367 0
M  V30 2735 O 259.298 2.94562 2.0028 0
M  V30 2736 O 258.157 4.37323 3.27736 0
M  V30 2737 H 255.251 0.639855 0.523941 0
M  V30 2738 H 257.797 1.65149 0.390389 0
M  V30 2739 H 256.569 3.71788 1.22022 0
M  V30 2740 H 256.192 2.89527 2.72507 0
M  V30 2741 N 257.189 -0.644168 1.43834 0
M  V30 2742 C 258.099 -1.78563 1.52159 0
M  V30 2743 C 259.115 -1.69147 0.408069 0
M  V30 2744 O 260.291 -1.90156 0.663524 0
M  V30 2745 C 257.356 -3.14888 1.45073 0
M  V30 2746 C 256.417 -3.36034 2.6717 0
M  V30 2747 C 255.65 -4.65855 2.60413 0
M  V30 2748 O 255.873 -5.45805 1.65689 0
M  V30 2749 O 254.807 -4.88918 3.5106 0
M  V30 2750 H 258.633 -1.74494 2.48567 0
M  V30 2751 H 256.218 -0.80378 1.25935 0
M  V30 2752 H 258.1 -3.96179 1.43597 0
M  V30 2753 H 256.775 -3.19528 0.518037 0
M  V30 2754 H 255.682 -2.54472 2.74217 0
M  V30 2755 H 257.015 -3.36247 3.59442 0
M  V30 2756 N 258.668 -1.30515 -0.883378 0
M  V30 2757 C 259.601 -1.11359 -1.99184 0
M  V30 2758 C 260.579 -0.0207858 -1.62587 0
M  V30 2759 O 261.763 -0.174646 -1.87689 0
M  V30 2760 C 258.89 -0.69871 -3.31415 0
M  V30 2761 C 257.936 -1.79261 -3.86998 0
M  V30 2762 S 258.769 -3.39536 -4.14096 0
M  V30 2763 C 259.925 -2.99954 -5.49344 0
M  V30 2764 H 260.158 -2.052 -2.15128 0
M  V30 2765 H 257.691 -1.14847 -1.03196 0
M  V30 2766 H 259.649 -0.466075 -4.07846 0
M  V30 2767 H 258.31 0.220368 -3.13326 0
M  V30 2768 H 257.503 -1.45464 -4.82552 0
M  V30 2769 H 257.105 -1.97961 -3.17313 0
M  V30 2770 H 259.397 -2.48013 -6.30473 0
M  V30 2771 H 260.34 -3.9442 -5.8808 0
M  V30 2772 H 260.748 -2.37775 -5.1198 0
M  V30 2773 N 260.146 1.09593 -1.13257 0
M  V30 2774 C 261.094 2.18271 -0.803783 0
M  V30 2775 C 262.088 1.68054 0.213148 0
M  V30 2776 O 263.294 1.79862 0.0704699 0
M  V30 2777 H 259.669 0.711949 -0.242143 0
M  V30 2778 H 261.64 2.43235 -1.72856 0
M  V30 2779 C 260.389 3.46536 -0.28424 0
M  V30 2780 H 259.712 3.85545 -1.05807 0
M  V30 2781 H 261.152 4.23899 -0.0925945 0
M  V30 2782 C 259.611 3.22036 0.989684 0
M  V30 2783 O 260.141 3.44509 2.06584 0
M  V30 2784 N 258.347 2.7565 0.920086 0
M  V30 2785 H 257.894 2.57562 0.0442019 0
M  V30 2786 H 257.852 2.59635 1.77306 0
M  V30 2787 N 261.624 0.925811 1.2754 0
M  V30 2788 C 262.873 0.561084 1.93739 0
M  V30 2789 C 263.186 -0.901685 1.73577 0
M  V30 2790 O 264.392 -1.37511 2.34101 0
M  V30 2791 C 262.848 0.952668 3.47062 0
M  V30 2792 C 262.456 2.43599 3.75983 0
M  V30 2793 C 264.2 0.659103 4.19352 0
M  V30 2794 C 262.107 2.76707 5.22673 0
M  V30 2795 H 261.037 0.206122 0.725279 0
M  V30 2796 H 263.688 1.12637 1.44863 0
M  V30 2797 H 262.07 0.316053 3.94737 0
M  V30 2798 H 263.244 3.12035 3.39073 0
M  V30 2799 H 261.559 2.70125 3.16893 0
M  V30 2800 H 264.156 0.882985 5.27359 0
M  V30 2801 H 264.499 -0.403607 4.14339 0
M  V30 2802 H 265.032 1.25473 3.77494 0
M  V30 2803 H 261.771 3.8188 5.32774 0
M  V30 2804 H 261.291 2.12919 5.60737 0
M  V30 2805 H 262.97 2.6435 5.90532 0
M  V30 2806 N 263.102 -1.41638 0.69111 0
M  V30 2807 C 264.012 -2.34588 0.0233487 0
M  V30 2808 C 265.028 -1.55987 -0.770984 0
M  V30 2809 O 266.204 -1.88486 -0.709569 0
M  V30 2810 C 263.269 -3.34684 -0.904851 0
M  V30 2811 C 262.33 -4.29176 -0.103225 0
M  V30 2812 C 261.563 -5.2449 -0.987216 0
M  V30 2813 O 261.786 -5.2514 -2.22674 0
M  V30 2814 O 260.72 -6.00295 -0.439281 0
M  V30 2815 H 264.546 -2.93261 0.789416 0
M  V30 2816 H 262.131 -1.42417 0.45142 0
M  V30 2817 H 264.013 -3.96133 -1.43724 0
M  V30 2818 H 262.688 -2.78461 -1.65049 0
M  V30 2819 H 261.595 -3.71089 0.473655 0
M  V30 2820 H 262.928 -4.88484 0.60365 0
M  V30 2821 N 264.58 -0.43555 -1.51462 0
M  V30 2822 C 265.829 0.133007 -2.01261 0
M  V30 2823 C 266.142 1.43942 -1.32439 0
M  V30 2824 O 267.348 2.09081 -1.73198 0
M  V30 2825 C 265.804 0.287581 -3.58749 0
M  V30 2826 C 265.412 -1.00829 -4.36506 0
M  V30 2827 C 267.156 0.810004 -4.167 0
M  V30 2828 C 265.063 -0.819454 -5.85695 0
M  V30 2829 H 263.993 0.0534822 -0.752101 0
M  V30 2830 H 266.644 -0.565038 -1.74584 0
M  V30 2831 H 265.026 1.04859 -3.81865 0
M  V30 2832 H 266.2 -1.77749 -4.25138 0
M  V30 2833 H 264.515 -1.45911 -3.89999 0
M  V30 2834 H 267.112 0.967743 -5.2587 0
M  V30 2835 H 267.455 1.79196 -3.75758 0
M  V30 2836 H 267.988 0.107357 -3.97655 0
M  V30 2837 H 264.727 -1.77374 -6.31046 0
M  V30 2838 H 264.247 -0.0900208 -5.99732 0
M  V30 2839 H 265.926 -0.471949 -6.45276 0
M  V30 2840 N 266.058 1.56714 -0.166846 0
M  V30 2841 C 267.307 1.95922 0.479318 0
M  V30 2842 C 267.62 1.05529 1.6469 0
M  V30 2843 O 268.826 1.34399 2.35901 0
M  V30 2844 C 267.282 3.48359 0.90412 0
M  V30 2845 C 266.89 4.47369 -0.237621 0
M  V30 2846 C 268.634 3.96394 1.51896 0
M  V30 2847 C 266.541 5.91039 0.206561 0
M  V30 2848 H 265.471 0.731495 0.18284 0
M  V30 2849 H 268.122 1.81728 -0.254363 0
M  V30 2850 H 266.504 3.57955 1.69365 0
M  V30 2851 H 267.678 4.49485 -1.01489 0
M  V30 2852 H 265.993 4.09366 -0.762128 0
M  V30 2853 H 268.59 5.01186 1.86325 0
M  V30 2854 H 268.933 3.39075 2.41524 0
M  V30 2855 H 269.466 3.89796 0.79395 0
M  V30 2856 H 266.205 6.52221 -0.654834 0
M  V30 2857 H 265.725 5.9224 0.949282 0
M  V30 2858 H 267.404 6.43707 0.651939 0
M  V30 2859 N 267.536 -0.106894 1.57237 0
M  V30 2860 C 268.952 -0.46078 1.52804 0
M  V30 2861 C 269.152 -1.81184 0.881746 0
M  V30 2862 O 268.208 -2.48102 0.469224 0
M  V30 2863 C 269.521 -0.434127 2.9755 0
M  V30 2864 C 271.069 -0.516821 3.08704 0
M  V30 2865 C 271.544 -0.520436 4.55033 0
M  V30 2866 N 273.035 -0.58153 4.59535 0
M  V30 2867 C 273.77 -0.605973 5.70189 0
M  V30 2868 N 273.266 -0.587331 6.90306 0
M  V30 2869 N 275.059 -0.649895 5.5833 0
M  V30 2870 H 267.21 0.778203 1.9763 0
M  V30 2871 H 269.473 0.288403 0.903066 0
M  V30 2872 H 269.179 0.491197 3.48253 0
M  V30 2873 H 269.053 -1.25748 3.55622 0
M  V30 2874 H 271.44 -1.43256 2.57995 0
M  V30 2875 H 271.521 0.334449 2.53604 0
M  V30 2876 H 271.165 0.391313 5.0639 0
M  V30 2877 H 271.095 -1.38876 5.07958 0
M  V30 2878 H 273.586 -0.60161 3.73081 0
M  V30 2879 H 273.899 -0.60894 7.70397 0
M  V30 2880 H 272.244 -0.554564 6.92784 0
M  V30 2881 H 275.435 -0.661907 4.63397 0
M  V30 2882 H 275.608 -0.665476 6.44574 0
M  V30 2883 N 269.014 -1.53014 -0.377408 0
M  V30 2884 C 269.962 -1.7927 -1.48206 0
M  V30 2885 C 270.956 -0.661195 -1.55963 0
M  V30 2886 O 272.162 -0.843908 -1.58991 0
M  V30 2887 H 268.537 -0.567425 -0.493491 0
M  V30 2888 H 270.508 -2.71753 -1.2326 0
M  V30 2889 C 269.257 -1.98894 -2.85196 0
M  V30 2890 H 268.58 -2.85395 -2.79981 0
M  V30 2891 H 270.02 -2.21249 -3.61698 0
M  V30 2892 C 268.479 -0.764691 -3.28107 0
M  V30 2893 O 269.009 0.0523226 -4.01666 0
M  V30 2894 N 267.215 -0.591493 -2.84517 0
M  V30 2895 H 266.762 -1.25749 -2.24822 0
M  V30 2896 H 266.72 0.226253 -3.13585 0
M  V30 2897 N 270.492 0.636531 -1.44174 0
M  V30 2898 C 271.72 1.42353 -1.50144 0
M  V30 2899 C 272.135 1.88389 -0.124575 0
M  V30 2900 O 271.492 1.6051 0.868489 0
M  V30 2901 C 271.543 2.64744 -2.46156 0
M  V30 2902 O 271.264 2.20629 -3.7849 0
M  V30 2903 C 272.765 3.57929 -2.61537 0
M  V30 2904 H 269.985 0.436752 -0.5094 0
M  V30 2905 H 272.529 0.778933 -1.89084 0
M  V30 2906 H 270.684 3.25307 -2.10366 0
M  V30 2907 H 271.098 2.99938 -4.30276 0
M  V30 2908 H 272.572 4.40428 -3.32757 0
M  V30 2909 H 273.049 4.06382 -1.66585 0
M  V30 2910 H 273.655 3.03238 -2.98206 0
M  V30 2911 N 271.97 1.30982 0.876444 0
M  V30 2912 C 272.9 1.20668 1.99903 0
M  V30 2913 C 273.881 0.095354 1.69833 0
M  V30 2914 O 275.066 0.27885 1.92188 0
M  V30 2915 C 272.196 0.90655 3.3526 0
M  V30 2916 C 271.15 1.97675 3.79617 0
M  V30 2917 C 270.476 1.52943 5.1236 0
M  V30 2918 C 271.776 3.389 3.97422 0
M  V30 2919 H 273.47 2.14586 2.0879 0
M  V30 2920 H 271.016 1.03308 1.00317 0
M  V30 2921 H 272.969 0.821025 4.13324 0
M  V30 2922 H 271.693 -0.0682969 3.26529 0
M  V30 2923 H 270.352 2.05205 3.03787 0
M  V30 2924 H 270 0.54262 5.00065 0
M  V30 2925 H 269.7 2.24532 5.43009 0
M  V30 2926 H 271.224 1.45786 5.92941 0
M  V30 2927 H 272.638 3.34081 4.659 0
M  V30 2928 H 271.035 4.0865 4.3946 0
M  V30 2929 H 272.105 3.80163 3.01006 0
M  V30 2930 N 273.449 -1.08991 1.13837 0
M  V30 2931 C 274.679 -1.84743 0.924859 0
M  V30 2932 C 275.087 -1.81629 -0.529874 0
M  V30 2933 O 274.43 -1.21397 -1.37872 0
M  V30 2934 C 274.492 -3.33568 1.34061 0
M  V30 2935 C 274.156 -3.60425 2.80968 0
M  V30 2936 C 275.153 -3.55771 3.79108 0
M  V30 2937 C 272.838 -3.88627 3.18236 0
M  V30 2938 C 274.832 -3.78939 5.12527 0
M  V30 2939 C 272.519 -4.11449 4.51833 0
M  V30 2940 C 273.517 -4.06598 5.48787 0
M  V30 2941 O 273.205 -4.28826 6.79973 0
M  V30 2942 H 272.937 -0.590258 0.329502 0
M  V30 2943 H 275.491 -1.38598 1.51591 0
M  V30 2944 H 273.721 -3.80442 0.692853 0
M  V30 2945 H 275.41 -3.90743 1.09886 0
M  V30 2946 H 276.176 -3.34005 3.51661 0
M  V30 2947 H 272.055 -3.91526 2.43369 0
M  V30 2948 H 275.599 -3.75068 5.88192 0
M  V30 2949 H 271.496 -4.32698 4.79002 0
M  V30 2950 H 272.264 -4.46264 6.86142 0
M  V30 2951 N 274.927 -0.932562 -1.27047 0
M  V30 2952 C 275.874 -0.434072 -2.26681 0
M  V30 2953 C 276.844 0.501639 -1.58344 0
M  V30 2954 O 278.029 0.419734 -1.86126 0
M  V30 2955 C 275.169 0.30261 -3.43771 0
M  V30 2956 C 274.282 -0.667774 -4.26808 0
M  V30 2957 C 273.417 0.0892393 -5.31125 0
M  V30 2958 C 272.456 -0.873532 -6.05835 0
M  V30 2959 N 271.593 -0.148832 -7.01942 0
M  V30 2960 H 276.433 -1.28868 -2.68695 0
M  V30 2961 H 273.97 -0.646713 -1.32121 0
M  V30 2962 H 275.928 0.746092 -4.10474 0
M  V30 2963 H 274.558 1.12142 -3.02695 0
M  V30 2964 H 273.61 -1.22978 -3.59973 0
M  V30 2965 H 274.922 -1.40337 -4.78651 0
M  V30 2966 H 274.076 0.592409 -6.03801 0
M  V30 2967 H 272.815 0.85777 -4.80097 0
M  V30 2968 H 271.82 -1.38791 -5.31994 0
M  V30 2969 H 273.045 -1.64193 -6.58952 0
M  V30 2970 H 270.991 0.601365 -6.53238 0
M  V30 2971 H 270.908 -0.82391 -7.51497 0
M  V30 2972 H 272.176 0.333527 -7.78786 0
M  V30 2973 N 276.405 1.4127 -0.698611 0
M  V30 2974 C 277.368 2.29158 -0.044132 0
M  V30 2975 C 278.368 1.44529 0.704841 0
M  V30 2976 O 279.558 1.65643 0.539276 0
M  V30 2977 C 276.69 3.27459 0.947809 0
M  V30 2978 H 277.883 2.88529 -0.817994 0
M  V30 2979 H 275.436 1.49307 -0.46228 0
M  V30 2980 H 276.171 2.73073 1.74933 0
M  V30 2981 H 275.956 3.8991 0.41385 0
M  V30 2982 H 277.446 3.93311 1.40344 0
M  V30 2983 N 277.883 0.443576 1.51229 0
M  V30 2984 C 279.113 -0.119117 2.06256 0
M  V30 2985 C 279.521 -1.36471 1.31043 0
M  V30 2986 O 278.864 -1.80034 0.365151 0
M  V30 2987 C 278.926 -0.500546 3.55998 0
M  V30 2988 C 278.59 0.639125 4.52509 0
M  V30 2989 C 279.587 1.51311 4.97394 0
M  V30 2990 C 277.272 0.821632 4.95535 0
M  V30 2991 C 279.266 2.55425 5.83984 0
M  V30 2992 C 276.953 1.86603 5.81913 0
M  V30 2993 C 277.951 2.73072 6.26036 0
M  V30 2994 O 277.639 3.75718 7.10698 0
M  V30 2995 H 277.371 -0.00857665 0.675946 0
M  V30 2996 H 279.925 0.623288 1.95715 0
M  V30 2997 H 278.155 -1.29575 3.64345 0
M  V30 2998 H 279.844 -0.995116 3.93513 0
M  V30 2999 H 280.61 1.38367 4.64844 0
M  V30 3000 H 276.489 0.158149 4.60729 0
M  V30 3001 H 280.033 3.22949 6.18344 0
M  V30 3002 H 275.93 1.99564 6.13876 0
M  V30 3003 H 276.698 3.72374 7.2889 0
M  V30 3004 N 279.361 -1.56624 0.175154 0
M  V30 3005 C 280.291 -2.21155 -0.749195 0
M  V30 3006 C 281.272 -1.16836 -1.23626 0
M  V30 3007 O 282.457 -1.45277 -1.28873 0
M  V30 3008 C 279.587 -2.8553 -1.97711 0
M  V30 3009 C 278.541 -3.95921 -1.62575 0
M  V30 3010 C 277.867 -4.47365 -2.92864 0
M  V30 3011 C 279.167 -5.15323 -0.850838 0
M  V30 3012 H 280.861 -2.98653 -0.211295 0
M  V30 3013 H 278.407 -1.43651 -0.100188 0
M  V30 3014 H 280.36 -3.2935 -2.62881 0
M  V30 3015 H 279.084 -2.05406 -2.53921 0
M  V30 3016 H 277.743 -3.52762 -0.997719 0
M  V30 3017 H 277.391 -3.64027 -3.47122 0
M  V30 3018 H 277.091 -5.21839 -2.70106 0
M  V30 3019 H 278.615 -4.93873 -3.59056 0
M  V30 3020 H 280.029 -5.55812 -1.40521 0
M  V30 3021 H 278.426 -5.95739 -0.722154 0
M  V30 3022 H 279.496 -4.84661 0.152082 0
M  V30 3023 N 280.839 0.0985539 -1.57292 0
M  V30 3024 C 281.749 1.13824 -2.05137 0
M  V30 3025 C 282.765 1.44076 -0.975604 0
M  V30 3026 O 283.941 1.54786 -1.28853 0
M  V30 3027 C 281.006 2.43969 -2.46333 0
M  V30 3028 C 280.067 2.2093 -3.68087 0
M  V30 3029 C 279.3 3.44869 -4.0731 0
M  V30 3030 O 279.523 4.52972 -3.46659 0
M  V30 3031 O 278.457 3.34661 -5.00285 0
M  V30 3032 H 282.283 0.761881 -2.93988 0
M  V30 3033 H 279.868 0.310818 -1.46131 0
M  V30 3034 H 281.75 3.20609 -2.73473 0
M  V30 3035 H 280.425 2.81038 -1.60621 0
M  V30 3036 H 279.332 1.42081 -3.46069 0
M  V30 3037 H 280.665 1.88755 -4.54568 0
M  V30 3038 N 282.317 1.53212 0.369288 0
M  V30 3039 C 283.542 1.73423 1.1375 0
M  V30 3040 C 283.967 0.460404 1.82378 0
M  V30 3041 O 283.325 -0.585298 1.71592 0
M  V30 3042 C 283.373 2.89769 2.1463 0
M  V30 3043 O 282.477 2.58119 3.21634 0
M  V30 3044 H 281.818 0.576061 0.330227 0
M  V30 3045 H 284.348 2.00083 0.427547 0
M  V30 3046 H 284.358 3.15829 2.58294 0
M  V30 3047 H 283.033 3.8217 1.64071 0
M  V30 3048 H 281.61 2.42864 2.82969 0
M  V30 3049 N 283.795 -0.628877 1.44509 0
M  V30 3050 C 285.042 -1.38839 1.47411 0
M  V30 3051 C 285.37 -1.94202 0.10757 0
M  V30 3052 O 284.625 -1.74243 -0.890947 0
M  V30 3053 C 284.924 -2.56995 2.48371 0
M  V30 3054 C 284.59 -2.19908 3.93639 0
M  V30 3055 C 283.252 -2.09506 4.33198 0
M  V30 3056 C 285.604 -1.9064 4.85083 0
M  V30 3057 C 282.932 -1.68028 5.62124 0
M  V30 3058 C 285.284 -1.50655 6.14399 0
M  V30 3059 C 283.948 -1.38796 6.5291 0
M  V30 3060 H 283.218 -0.508048 0.539414 0
M  V30 3061 H 285.865 -0.712913 1.77735 0
M  V30 3062 H 284.17 -3.29786 2.11538 0
M  V30 3063 H 285.867 -3.15223 2.47861 0
M  V30 3064 H 282.457 -2.28922 3.62343 0
M  V30 3065 H 286.641 -1.97585 4.55273 0
M  V30 3066 H 281.897 -1.57452 5.90778 0
M  V30 3067 H 286.071 -1.27048 6.84713 0
M  V30 3068 H 283.698 -1.06429 7.52713 0
M  V30 3069 N 285.273 -1.31445 -0.869486 0
M  V30 3070 C 286.503 -1.23942 -1.65294 0
M  V30 3071 C 286.911 0.197561 -1.88166 0
M  V30 3072 O 286.254 1.14019 -1.44033 0
M  V30 3073 C 286.316 -1.91385 -3.04322 0
M  V30 3074 C 285.98 -3.40726 -3.04557 0
M  V30 3075 C 286.977 -4.36464 -2.82481 0
M  V30 3076 C 284.662 -3.82425 -3.25663 0
M  V30 3077 C 286.656 -5.71876 -2.8149 0
M  V30 3078 C 284.343 -5.1795 -3.243 0
M  V30 3079 C 285.341 -6.12486 -3.02241 0
M  V30 3080 O 285.029 -7.45534 -3.00724 0
M  V30 3081 H 284.761 -0.429459 -0.522054 0
M  V30 3082 H 287.315 -1.73873 -1.0935 0
M  V30 3083 H 285.545 -1.36004 -3.61994 0
M  V30 3084 H 287.234 -1.77791 -3.64891 0
M  V30 3085 H 288 -4.05576 -2.65956 0
M  V30 3086 H 283.879 -3.09274 -3.41863 0
M  V30 3087 H 287.423 -6.45638 -2.64191 0
M  V30 3088 H 283.32 -5.48473 -3.40365 0
M  V30 3089 H 284.088 -7.54713 -3.16782 0
M  V30 3090 N 286.751 1.08385 -1.14413 0
M  V30 3091 C 287.698 2.15311 -0.831265 0
M  V30 3092 C 288.668 1.64751 0.211292 0
M  V30 3093 O 289.853 1.90627 0.0811674 0
M  V30 3094 C 286.993 3.43658 -0.315143 0
M  V30 3095 C 286.106 4.08064 -1.41802 0
M  V30 3096 C 285.241 5.24207 -0.859126 0
M  V30 3097 C 284.28 5.80554 -1.93967 0
M  V30 3098 N 283.417 6.88042 -1.39793 0
M  V30 3099 H 288.257 2.41415 -1.74708 0
M  V30 3100 H 285.794 1.18474 -0.871909 0
M  V30 3101 H 287.752 4.172 0.00230884 0
M  V30 3102 H 286.382 3.17839 0.56378 0
M  V30 3103 H 285.434 3.3228 -1.85187 0
M  V30 3104 H 286.746 4.45962 -2.23427 0
M  V30 3105 H 285.9 6.04689 -0.49359 0
M  V30 3106 H 284.639 4.87699 -0.011932 0
M  V30 3107 H 283.644 4.98725 -2.31415 0
M  V30 3108 H 284.869 6.19121 -2.79046 0
M  V30 3109 H 282.815 6.53493 -0.572919 0
M  V30 3110 H 282.732 7.24767 -2.15054 0
M  V30 3111 H 284 7.72255 -1.0603 0
M  V30 3112 N 288.23 0.939286 1.26551 0
M  V30 3113 C 289.477 0.585847 1.9384 0
M  V30 3114 C 289.805 -0.874784 1.73718 0
M  V30 3115 O 289.06 -1.64092 1.06642 0
M  V30 3116 C 289.359 0.872106 3.46596 0
M  V30 3117 C 289.025 2.31632 3.86856 0
M  V30 3118 C 287.687 2.71111 3.97558 0
M  V30 3119 C 290.039 3.25494 4.07066 0
M  V30 3120 C 287.367 4.03553 4.25866 0
M  V30 3121 C 289.719 4.57531 4.36862 0
M  V30 3122 C 288.383 4.96828 4.45778 0
M  V30 3123 H 287.653 0.214377 0.709312 0
M  V30 3124 H 290.3 1.18544 1.50398 0
M  V30 3125 H 288.605 0.18996 3.91339 0
M  V30 3126 H 290.302 0.577442 3.96821 0
M  V30 3127 H 286.892 2.00008 3.79071 0
M  V30 3128 H 291.076 2.9619 3.98227 0
M  V30 3129 H 286.332 4.33665 4.30981 0
M  V30 3130 H 290.506 5.30254 4.51446 0
M  V30 3131 H 288.133 5.99482 4.67468 0
M  V30 3132 N 289.708 -1.40897 0.706093 0
M  V30 3133 C 290.948 -2.02916 0.245827 0
M  V30 3134 C 291.312 -1.54751 -1.13649 0
M  V30 3135 O 292.513 -2.08768 -1.69321 0
M  V30 3136 C 290.784 -3.56031 0.312537 0
M  V30 3137 S 292.343 -4.38741 -0.0721388 0
M  V30 3138 H 289.161 -0.704186 0.0982007 0
M  V30 3139 H 291.763 -1.72168 0.926207 0
M  V30 3140 H 290.467 -3.88579 1.32039 0
M  V30 3141 H 289.998 -3.91495 -0.386641 0
M  V30 3142 H 292.013 -4.78952 -1.29692 0
M  V30 3143 N 291.186 -0.45159 -1.50991 0
M  V30 3144 C 292.414 0.108334 -2.06616 0
M  V30 3145 C 292.829 1.35224 -1.31757 0
M  V30 3146 O 292.186 1.78475 -0.381174 0
M  V30 3147 C 292.237 0.41619 -3.59096 0
M  V30 3148 O 291.958 -0.778361 -4.3113 0
M  V30 3149 C 293.459 1.02523 -4.31282 0
M  V30 3150 H 290.679 0.00159995 -0.670998 0
M  V30 3151 H 293.223 -0.634771 -1.94399 0
M  V30 3152 H 291.378 1.10921 -3.71181 0
M  V30 3153 H 291.792 -0.511181 -5.22003 0
M  V30 3154 H 293.266 1.19053 -5.39009 0
M  V30 3155 H 293.743 2.01013 -3.905 0
M  V30 3156 H 294.349 0.371173 -4.23677 0
M  V30 3157 N 292.664 1.56529 -0.183458 0
M  V30 3158 C 293.594 2.21549 0.737456 0
M  V30 3159 C 294.575 1.17489 1.23005 0
M  V30 3160 O 295.76 1.45959 1.281 0
M  V30 3161 C 292.89 2.86575 1.96194 0
M  V30 3162 C 291.844 3.96778 1.60473 0
M  V30 3163 C 291.17 4.48911 2.90487 0
M  V30 3164 C 292.47 5.15767 0.823497 0
M  V30 3165 H 294.164 2.98761 0.195453 0
M  V30 3166 H 291.71 1.43702 0.0925686 0
M  V30 3167 H 293.663 3.30739 2.61131 0
M  V30 3168 H 292.387 2.06749 2.52828 0
M  V30 3169 H 291.046 3.53286 0.978997 0
M  V30 3170 H 290.694 3.65862 3.45186 0
M  V30 3171 H 290.394 5.23265 2.67335 0
M  V30 3172 H 291.918 4.95771 3.56432 0
M  V30 3173 H 293.332 5.56549 1.37571 0
M  V30 3174 H 291.729 5.96114 0.690551 0
M  V30 3175 H 292.799 4.84574 -0.177782 0
M  V30 3176 N 294.142 -0.090211 1.57342 0
M  V30 3177 C 295.072 -1.10976 2.05443 0
M  V30 3178 C 296.053 -1.41482 0.944284 0
M  V30 3179 O 297.238 -1.51428 1.21586 0
M  V30 3180 C 294.368 -2.42831 2.48295 0
M  V30 3181 C 293.322 -2.26721 3.63018 0
M  V30 3182 C 292.648 -3.63796 3.91863 0
M  V30 3183 C 293.948 -1.7037 4.93732 0
M  V30 3184 H 295.642 -0.709564 2.9087 0
M  V30 3185 H 293.188 -0.339874 1.39932 0
M  V30 3186 H 295.141 -3.14431 2.80555 0
M  V30 3187 H 293.865 -2.84795 1.59873 0
M  V30 3188 H 292.524 -1.57565 3.31012 0
M  V30 3189 H 292.172 -4.03297 3.00601 0
M  V30 3190 H 291.872 -3.53861 4.69101 0
M  V30 3191 H 293.396 -4.36855 4.26603 0
M  V30 3192 H 294.81 -2.31816 5.24342 0
M  V30 3193 H 293.207 -1.71181 5.75167 0
M  V30 3194 H 294.277 -0.663542 4.80339 0
M  V30 3195 N 295.62 -1.53406 -0.361157 0
M  V30 3196 C 296.868 -1.69467 -1.10115 0
M  V30 3197 C 297.189 -0.451352 -1.89705 0
M  V30 3198 O 296.459 0.534636 -1.88463 0
M  V30 3199 H 295.039 -0.624749 -0.409508 0
M  V30 3200 H 297.701 -1.90609 -0.406699 0
M  V30 3201 H 296.797 -2.55774 -1.78847 0
M  V30 3202 N 297.098 0.621204 -1.44841 0
M  V30 3203 C 298.346 1.37783 -1.47852 0
M  V30 3204 C 298.667 1.94653 -0.116224 0
M  V30 3205 O 297.937 1.76367 0.852737 0
M  V30 3206 H 296.517 0.511453 -0.544449 0
M  V30 3207 H 299.179 0.730446 -1.80694 0
M  V30 3208 H 298.275 2.20414 -2.20961 0
M  V30 3209 N 298.576 1.31904 0.862503 0
M  V30 3210 C 299.804 1.24998 1.64873 0
M  V30 3211 C 300.219 -0.183425 1.87907 0
M  V30 3212 O 299.576 -1.11794 1.44251 0
M  V30 3213 C 299.627 1.99829 3.01248 0
M  V30 3214 O 299.348 3.37575 2.79239 0
M  V30 3215 C 300.849 1.99852 3.95694 0
M  V30 3216 H 298.069 0.431599 0.513773 0
M  V30 3217 H 300.613 1.73901 1.07604 0
M  V30 3218 H 298.768 1.54668 3.55185 0
M  V30 3219 H 299.182 3.75776 3.65914 0
M  V30 3220 H 300.656 2.56709 4.88676 0
M  V30 3221 H 301.133 0.982852 4.28062 0
M  V30 3222 H 301.739 2.44926 3.47694 0
M  V30 3223 N 300.054 -1.07777 1.14986 0
M  V30 3224 C 301.282 -1.84018 0.945773 0
M  V30 3225 C 301.697 -1.81897 -0.505863 0
M  V30 3226 O 301.054 -1.22726 -1.35072 0
M  V30 3227 C 301.105 -3.31287 1.44677 0
M  V30 3228 O 300.826 -3.33449 2.84154 0
M  V30 3229 C 302.327 -4.24311 1.28355 0
M  V30 3230 H 299.547 -0.580716 0.336169 0
M  V30 3231 H 302.091 -1.36077 1.52654 0
M  V30 3232 H 300.246 -3.76594 0.908625 0
M  V30 3233 H 300.66 -4.25427 3.06777 0
M  V30 3234 H 302.134 -5.2573 1.68261 0
M  V30 3235 H 302.611 -4.38612 0.227184 0
M  V30 3236 H 303.217 -3.84836 1.81056 0
M  V30 3237 N 301.532 -0.945985 -1.26051 0
M  V30 3238 C 302.495 -0.463897 -2.24456 0
M  V30 3239 C 303.495 0.427655 -1.55009 0
M  V30 3240 O 304.685 0.226157 -1.72726 0
M  V30 3241 C 301.817 0.330812 -3.39291 0
M  V30 3242 H 303.01 -1.33357 -2.68619 0
M  V30 3243 H 300.563 -0.728416 -1.38289 0
M  V30 3244 H 301.298 1.21852 -3.00537 0
M  V30 3245 H 301.083 -0.308679 -3.90883 0
M  V30 3246 H 302.573 0.657865 -4.12386 0
M  V30 3247 N 303.011 1.40521 -0.713556 0
M  V30 3248 C 304.288 1.94775 -0.17943 0
M  V30 3249 C 304.668 1.65184 1.31444 0
M  V30 3250 O 304.016 0.968429 2.06963 0
M  V30 3251 C 304.226 3.45543 -0.489986 0
M  V30 3252 C 305.574 4.22442 -0.427536 0
M  V30 3253 O 306.598 3.53644 -0.425929 0
M  V30 3254 O 305.457 5.4501 -0.403292 0
M  V30 3255 H 302.551 0.826606 -0.0255192 0
M  V30 3256 H 305.097 1.5014 -0.790949 0
M  V30 3257 H 303.869 3.60432 -1.5233 0
M  V30 3258 H 303.492 3.97311 0.151598 0
M  V30 3259 N 304.489 0.459591 1.5075 0
M  V30 3260 C 305.452 -0.329093 2.26825 0
M  V30 3261 C 306.452 -0.930481 1.31144 0
M  V30 3262 O 307.642 -0.801453 1.54669 0
M  V30 3263 C 304.774 -1.46768 3.07688 0
M  V30 3264 H 305.967 0.337924 2.9799 0
M  V30 3265 H 303.52 0.213336 1.54837 0
M  V30 3266 H 304.255 -2.17009 2.40993 0
M  V30 3267 H 304.04 -1.04238 3.77991 0
M  V30 3268 H 305.53 -2.02433 3.65254 0
M  V30 3269 N 305.967 -1.56429 0.191757 0
M  V30 3270 C 306.9 -2.14829 -0.76967 0
M  V30 3271 C 307.878 -1.08405 -1.2119 0
M  V30 3272 O 309.062 -1.36498 -1.30002 0
M  V30 3273 C 306.189 -2.70446 -2.03903 0
M  V30 3274 C 305.235 -3.89428 -1.7392 0
M  V30 3275 S 306.068 -5.28048 -0.890265 0
M  V30 3276 C 307.224 -5.87085 -2.16984 0
M  V30 3277 H 307.457 -2.96042 -0.273204 0
M  V30 3278 H 304.99 -1.54383 -0.0231975 0
M  V30 3279 H 306.948 -3.03134 -2.76803 0
M  V30 3280 H 305.609 -1.89281 -2.50662 0
M  V30 3281 H 304.802 -4.26742 -2.68155 0
M  V30 3282 H 304.404 -3.57732 -1.09103 0
M  V30 3283 H 306.696 -6.01244 -3.12269 0
M  V30 3284 H 307.639 -6.83747 -1.84108 0
M  V30 3285 H 308.047 -5.15663 -2.29678 0
M  V30 3286 N 307.445 0.0818655 -1.57387 0
M  V30 3287 C 308.685 0.788375 -1.88584 0
M  V30 3288 C 309.049 1.75248 -0.784351 0
M  V30 3289 O 310.25 2.50334 -0.979105 0
M  V30 3290 C 308.521 1.48654 -3.25018 0
M  V30 3291 S 310.08 2.22951 -3.7794 0
M  V30 3292 H 306.898 0.262383 -0.660815 0
M  V30 3293 H 309.5 0.0448995 -1.95448 0
M  V30 3294 H 308.204 0.770919 -4.03094 0
M  V30 3295 H 307.735 2.26965 -3.21326 0
M  V30 3296 H 309.75 3.49309 -3.52417 0
M  V30 3297 N 308.923 1.53595 0.353017 0
M  V30 3298 C 310.334 1.61937 0.929153 0
M  V30 3299 C 310.685 0.494686 1.89861 0
M  V30 3300 O 309.81 -0.377017 2.1309 0
M  V30 3301 C 310.405 2.93526 1.69199 0
M  V30 3302 C 308.964 3.04161 2.21727 0
M  V30 3303 C 308.111 2.57322 1.03348 0
M  V30 3304 H 311.062 1.58155 0.131431 0
M  V30 3305 H 311.083 2.82034 2.55416 0
M  V30 3306 H 310.595 3.75362 0.986144 0
M  V30 3307 H 308.696 2.26938 2.95516 0
M  V30 3308 H 308.809 4.09465 2.48748 0
M  V30 3309 H 307.173 2.12499 1.40414 0
M  V30 3310 H 307.956 3.41588 0.342428 0
M  V30 3311 N 310.401 -0.613514 1.45168 0
M  V30 3312 C 311.65 -1.36874 1.4815 0
M  V30 3313 C 311.963 -1.952 0.124982 0
M  V30 3314 O 313.169 -2.71481 0.0324176 0
M  V30 3315 C 311.625 -2.47905 2.60904 0
M  V30 3316 C 311.233 -1.96016 4.02842 0
M  V30 3317 C 312.977 -3.24965 2.73126 0
M  V30 3318 C 310.884 -3.04494 5.06988 0
M  V30 3319 H 309.814 -0.514428 0.551253 0
M  V30 3320 H 312.465 -0.658182 1.7129 0
M  V30 3321 H 310.847 -3.21618 2.31037 0
M  V30 3322 H 312.021 -1.29051 4.4236 0
M  V30 3323 H 310.336 -1.31719 3.95018 0
M  V30 3324 H 312.933 -4.05865 3.48106 0
M  V30 3325 H 313.276 -3.75588 1.79553 0
M  V30 3326 H 313.809 -2.5835 3.0249 0
M  V30 3327 H 310.548 -2.58795 6.0225 0
M  V30 3328 H 310.068 -3.70044 4.72046 0
M  V30 3329 H 311.747 -3.68976 5.31475 0
M  V30 3330 N 311.879 -1.3236 -0.855495 0
M  V30 3331 C 312.809 -1.23833 -1.97958 0
M  V30 3332 C 313.79 -0.122361 -1.69659 0
M  V30 3333 O 314.975 -0.30939 -1.9172 0
M  V30 3334 C 312.105 -0.959772 -3.33775 0
M  V30 3335 C 311.059 -2.03689 -3.76424 0
M  V30 3336 C 310.385 -1.61075 -5.09862 0
M  V30 3337 C 311.685 -3.4518 -3.9198 0
M  V30 3338 H 313.379 -2.1788 -2.0535 0
M  V30 3339 H 310.925 -1.04891 -0.986605 0
M  V30 3340 H 312.878 -0.886678 -4.11966 0
M  V30 3341 H 311.602 0.0163404 -3.26596 0
M  V30 3342 H 310.261 -2.10012 -3.00484 0
M  V30 3343 H 309.909 -0.622107 -4.99138 0
M  V30 3344 H 309.609 -2.33143 -5.39368 0
M  V30 3345 H 311.133 -1.55201 -5.90546 0
M  V30 3346 H 312.547 -3.4145 -4.60526 0
M  V30 3347 H 310.944 -4.1559 -4.32903 0
M  V30 3348 H 312.014 -3.84903 -2.94919 0
M  V30 3349 N 313.357 1.07166 -1.15556 0
M  V30 3350 C 314.267 2.17947 -0.868116 0
M  V30 3351 C 315.283 1.73297 0.156297 0
M  V30 3352 O 316.459 2.01392 -0.0182327 0
M  V30 3353 C 313.524 3.44789 -0.36355 0
M  V30 3354 C 312.585 4.03996 -1.45209 0
M  V30 3355 C 311.818 5.24783 -0.971508 0
M  V30 3356 O 312.041 5.70109 0.182194 0
M  V30 3357 O 310.975 5.75715 -1.75603 0
M  V30 3358 H 314.801 2.4503 -1.79427 0
M  V30 3359 H 312.386 1.16539 -0.934824 0
M  V30 3360 H 314.268 4.21307 -0.0887113 0
M  V30 3361 H 312.943 3.19253 0.534708 0
M  V30 3362 H 311.85 3.29009 -1.78056 0
M  V30 3363 H 313.183 4.33808 -2.32533 0
M  V30 3364 N 314.835 0.952656 1.25548 0
M  V30 3365 C 316.082 0.606373 1.93208 0
M  V30 3366 C 316.41 -0.85631 1.74636 0
M  V30 3367 O 315.665 -1.62951 1.08376 0
M  V30 3368 C 315.964 0.908818 3.45652 0
M  V30 3369 C 315.63 2.35722 3.84378 0
M  V30 3370 C 314.292 2.75312 3.9466 0
M  V30 3371 C 316.644 3.29793 4.03591 0
M  V30 3372 C 313.972 4.08047 4.21562 0
M  V30 3373 C 316.324 4.62138 4.31985 0
M  V30 3374 C 314.988 5.01528 4.40484 0
M  V30 3375 H 314.258 0.221888 0.706998 0
M  V30 3376 H 316.905 1.20132 1.49133 0
M  V30 3377 H 315.21 0.231456 3.91116 0
M  V30 3378 H 316.907 0.619498 3.96186 0
M  V30 3379 H 313.497 2.04017 3.76928 0
M  V30 3380 H 317.681 3.00397 3.95064 0
M  V30 3381 H 312.937 4.38212 4.26357 0
M  V30 3382 H 317.111 5.35012 4.45797 0
M  V30 3383 H 314.738 6.04406 4.61083 0
M  V30 3384 N 316.313 -1.40141 0.720998 0
M  V30 3385 C 317.223 -2.34486 0.0731031 0
M  V30 3386 C 318.239 -1.57587 -0.737723 0
M  V30 3387 O 319.415 -1.89949 -0.669429 0
M  V30 3388 C 316.48 -3.36528 -0.833656 0
M  V30 3389 C 315.541 -4.29298 -0.0121673 0
M  V30 3390 C 314.774 -5.26466 -0.875742 0
M  V30 3391 O 314.997 -5.29745 -2.11485 0
M  V30 3392 O 313.931 -6.01092 -0.31185 0
M  V30 3393 H 317.757 -2.9152 0.851444 0
M  V30 3394 H 315.342 -1.41427 0.481527 0
M  V30 3395 H 317.224 -3.99093 -1.35289 0
M  V30 3396 H 315.899 -2.81899 -1.59105 0
M  V30 3397 H 314.806 -3.70001 0.552262 0
M  V30 3398 H 316.139 -4.87094 0.707129 0
M  V30 3399 N 317.792 -0.46758 -1.50504 0
M  V30 3400 C 318.755 0.317059 -2.26996 0
M  V30 3401 C 319.755 0.923513 -1.31635 0
M  V30 3402 O 320.945 0.793239 -1.55091 0
M  V30 3403 C 318.077 1.45134 -3.08462 0
M  V30 3404 H 319.27 -0.353723 -2.97807 0
M  V30 3405 H 316.823 -0.221545 -1.54722 0
M  V30 3406 H 317.558 2.15728 -2.4214 0
M  V30 3407 H 317.343 1.02232 -3.78538 0
M  V30 3408 H 318.833 2.00493 -3.66323 0
M  V30 3409 N 319.27 1.56325 -0.20005 0
M  V30 3410 C 320.547 1.89484 0.48529 0
M  V30 3411 C 320.927 1.1143 1.79294 0
M  V30 3412 O 320.275 0.216919 2.27468 0
M  V30 3413 C 320.485 3.41923 0.699243 0
M  V30 3414 C 321.833 4.12256 1.01638 0
M  V30 3415 O 322.857 3.47402 0.786792 0
M  V30 3416 O 321.716 5.26887 1.45095 0
M  V30 3417 H 318.81 0.787144 0.253639 0
M  V30 3418 H 321.356 1.67985 -0.240633 0
M  V30 3419 H 320.128 3.90658 -0.224008 0
M  V30 3420 H 319.751 3.69131 1.47744 0
M  V30 3421 N 320.748 -0.0735177 1.57428 0
M  V30 3422 C 322.164 -0.428264 1.53747 0
M  V30 3423 C 322.364 -1.79272 0.91998 0
M  V30 3424 O 321.42 -2.47051 0.521745 0
M  V30 3425 C 322.733 -0.370914 2.98404 0
M  V30 3426 C 324.281 -0.451224 3.0973 0
M  V30 3427 C 324.756 -0.4238 4.56035 0
M  V30 3428 N 326.247 -0.483925 4.60665 0
M  V30 3429 C 326.982 -0.484891 5.71346 0
M  V30 3430 N 326.478 -0.440775 6.91396 0
M  V30 3431 N 328.271 -0.531319 5.59583 0
M  V30 3432 H 320.422 0.819949 1.95935 0
M  V30 3433 H 322.685 0.307493 0.896745 0
M  V30 3434 H 322.391 0.564956 3.47133 0
M  V30 3435 H 322.265 -1.18176 3.5821 0
M  V30 3436 H 324.652 -1.37752 2.60976 0
M  V30 3437 H 324.733 0.388167 2.52838 0
M  V30 3438 H 324.377 0.498638 5.05446 0
M  V30 3439 H 324.307 -1.2807 5.10789 0
M  V30 3440 H 326.798 -0.522338 3.74273 0
M  V30 3441 H 327.111 -0.44539 7.71515 0
M  V30 3442 H 325.456 -0.40749 6.93804 0
M  V30 3443 H 328.647 -0.563464 4.64696 0
M  V30 3444 H 328.82 -0.528603 6.4584 0
M  V30 3445 N 322.226 -1.5378 -0.344866 0
M  V30 3446 C 323.642 -1.44015 -0.687888 0
M  V30 3447 C 323.842 -0.595834 -1.92489 0
M  V30 3448 O 322.898 -0.0863064 -2.52352 0
M  V30 3449 C 324.211 -2.87481 -0.881758 0
M  V30 3450 C 325.759 -2.97247 -0.980459 0
M  V30 3451 C 326.234 -4.41819 -1.20665 0
M  V30 3452 N 327.725 -4.45339 -1.27389 0
M  V30 3453 C 328.46 -5.54333 -1.46639 0
M  V30 3454 N 327.956 -6.73335 -1.63071 0
M  V30 3455 N 329.749 -5.41944 -1.49176 0
M  V30 3456 H 321.9 -2.07169 0.468475 0
M  V30 3457 H 324.163 -0.93643 0.147655 0
M  V30 3458 H 323.869 -3.51672 -0.0443444 0
M  V30 3459 H 323.743 -3.32352 -1.78388 0
M  V30 3460 H 326.13 -2.33197 -1.8084 0
M  V30 3461 H 326.211 -2.5574 -0.0552713 0
M  V30 3462 H 325.855 -5.06449 -0.383652 0
M  V30 3463 H 325.785 -4.80917 -2.14539 0
M  V30 3464 H 328.276 -3.59585 -1.1622 0
M  V30 3465 H 328.589 -7.52165 -1.77391 0
M  V30 3466 H 326.934 -6.76282 -1.60209 0
M  V30 3467 H 330.125 -4.47932 -1.3592 0
M  V30 3468 H 330.298 -6.26946 -1.63837 0
M  V30 3469 N 323.704 0.605807 -1.45491 0
M  V30 3470 C 324.667 1.69836 -1.5391 0
M  V30 3471 C 325.667 1.55261 -0.418424 0
M  V30 3472 O 326.857 1.60296 -0.681965 0
M  V30 3473 C 323.989 3.09117 -1.43734 0
M  V30 3474 H 325.182 1.63738 -2.51257 0
M  V30 3475 H 322.735 0.821689 -1.32959 0
M  V30 3476 H 323.47 3.20791 -0.475788 0
M  V30 3477 H 323.255 3.21104 -2.25021 0
M  V30 3478 H 324.745 3.88696 -1.52661 0
M  V30 3479 N 325.182 1.32811 0.848464 0
M  V30 3480 C 326.429 1.23724 1.60308 0
M  V30 3481 C 326.757 -0.1994 1.93475 0
M  V30 3482 O 326.012 -1.15406 1.5805 0
M  V30 3483 C 326.311 2.04831 2.92881 0
M  V30 3484 C 325.977 3.54125 2.79117 0
M  V30 3485 C 324.639 3.94829 2.7507 0
M  V30 3486 C 326.991 4.49036 2.64606 0
M  V30 3487 C 324.319 5.28675 2.544 0
M  V30 3488 C 326.671 5.83033 2.4547 0
M  V30 3489 C 325.335 6.22931 2.39819 0
M  V30 3490 H 324.605 0.452737 0.586609 0
M  V30 3491 H 327.252 1.64301 0.983743 0
M  V30 3492 H 325.557 1.57001 3.58968 0
M  V30 3493 H 327.254 1.95164 3.50303 0
M  V30 3494 H 323.844 3.21801 2.83094 0
M  V30 3495 H 328.028 4.18505 2.66772 0
M  V30 3496 H 323.284 5.58637 2.48465 0
M  V30 3497 H 327.458 6.56186 2.33222 0
M  V30 3498 H 325.085 7.26584 2.23562 0
M  V30 3499 N 326.66 -1.06551 1.16123 0
M  V30 3500 C 327.909 -1.78687 0.935622 0
M  V30 3501 C 328.222 -1.88056 -0.538001 0
M  V30 3502 O 329.428 -2.56794 -0.88143 0
M  V30 3503 C 327.884 -3.21143 1.62466 0
M  V30 3504 C 327.492 -3.19949 3.13587 0
M  V30 3505 C 329.236 -3.9783 1.48092 0
M  V30 3506 C 327.143 -4.57108 3.75241 0
M  V30 3507 H 326.073 -0.669712 0.346412 0
M  V30 3508 H 328.724 -1.19534 1.39226 0
M  V30 3509 H 327.106 -3.80539 1.09572 0
M  V30 3510 H 328.28 -2.70151 3.73303 0
M  V30 3511 H 326.595 -2.5676 3.27816 0
M  V30 3512 H 329.192 -4.99217 1.91538 0
M  V30 3513 H 329.535 -4.14078 0.429507 0
M  V30 3514 H 330.068 -3.4495 1.98127 0
M  V30 3515 H 326.807 -4.46065 4.80319 0
M  V30 3516 H 326.327 -5.07111 3.20309 0
M  V30 3517 H 328.006 -5.26069 3.76644 0
M  V30 3518 N 328.138 -0.959301 -1.25041 0
M  V30 3519 C 329.387 -0.612254 -1.92183 0
M  V30 3520 C 329.7 0.855347 -1.75907 0
M  V30 3521 O 330.906 1.31256 -2.37664 0
M  V30 3522 C 329.362 -1.04435 -3.44414 0
M  V30 3523 C 328.97 -2.53482 -3.69393 0
M  V30 3524 C 330.714 -0.770055 -4.17457 0
M  V30 3525 C 328.621 -2.90468 -5.15153 0
M  V30 3526 H 327.551 -0.225279 -0.719559 0
M  V30 3527 H 330.202 -1.16438 -1.41825 0
M  V30 3528 H 328.584 -0.4206 -3.9376 0
M  V30 3529 H 329.758 -3.20916 -3.30681 0
M  V30 3530 H 328.073 -2.78432 -3.0962 0
M  V30 3531 H 330.67 -1.02249 -5.24832 0
M  V30 3532 H 331.013 0.293611 -4.15263 0
M  V30 3533 H 331.546 -1.35437 -3.74034 0
M  V30 3534 H 328.285 -3.95871 -5.22462 0
M  V30 3535 H 327.805 -2.27711 -5.54894 0
M  V30 3536 H 329.484 -2.79914 -5.83315 0
M  V30 3537 N 329.616 1.39756 -0.72842 0
M  V30 3538 C 330.844 2.04948 -0.283528 0
M  V30 3539 C 331.259 1.54908 1.0793 0
M  V30 3540 O 330.616 0.711135 1.68075 0
M  V30 3541 C 330.667 3.60498 -0.268957 0
M  V30 3542 O 330.388 4.08695 -1.57798 0
M  V30 3543 C 331.889 4.4288 0.192912 0
M  V30 3544 H 329.109 0.659243 -0.125056 0
M  V30 3545 H 331.653 1.78927 -0.990226 0
M  V30 3546 H 329.808 3.85444 0.388801 0
M  V30 3547 H 330.222 5.02977 -1.48709 0
M  V30 3548 H 331.696 5.51791 0.151952 0
M  V30 3549 H 332.173 4.21418 1.23708 0
M  V30 3550 H 332.779 4.23069 -0.435039 0
M  V30 3551 N 331.094 0.475555 1.50254 0
M  V30 3552 C 332.343 -0.0795996 2.01543 0
M  V30 3553 C 332.656 -1.4038 1.36209 0
M  V30 3554 O 333.862 -2.04415 1.7868 0
M  V30 3555 C 332.318 -0.192363 3.59386 0
M  V30 3556 C 331.926 1.12367 4.33679 0
M  V30 3557 C 333.67 -0.699238 4.18701 0
M  V30 3558 C 331.577 0.974453 5.83317 0
M  V30 3559 H 330.507 -0.0335228 0.753254 0
M  V30 3560 H 333.158 0.611128 1.73025 0
M  V30 3561 H 331.54 -0.946974 3.84511 0
M  V30 3562 H 332.714 1.88958 4.20276 0
M  V30 3563 H 331.029 1.562 3.85993 0
M  V30 3564 H 333.626 -0.827978 5.28251 0
M  V30 3565 H 333.969 -1.69171 3.80377 0
M  V30 3566 H 334.502 -0.00188807 3.978 0
M  V30 3567 H 331.241 1.94042 6.26121 0
M  V30 3568 H 330.761 0.248998 5.99283 0
M  V30 3569 H 332.44 0.642867 6.43798 0
M  V30 3570 N 332.573 -1.56217 0.208337 0
M  V30 3571 C 333.521 -2.21053 -0.723769 0
M  V30 3572 C 334.515 -1.18578 -1.20978 0
M  V30 3573 O 335.721 -1.36691 -1.17114 0
M  V30 3574 H 332.096 -0.708595 -0.251788 0
M  V30 3575 H 334.067 -2.98006 -0.153365 0
M  V30 3576 C 332.816 -2.89417 -1.927 0
M  V30 3577 H 332.139 -3.68019 -1.56212 0
M  V30 3578 H 333.579 -3.38201 -2.55727 0
M  V30 3579 C 332.038 -1.91166 -2.77411 0
M  V30 3580 O 332.568 -1.42026 -3.75754 0
M  V30 3581 N 330.774 -1.59105 -2.43175 0
M  V30 3582 H 330.321 -1.99259 -1.63259 0
M  V30 3583 H 330.279 -0.936255 -3.00136 0
M  V30 3584 N 334.051 0.0651679 -1.57465 0
M  V30 3585 C 335.276 0.779605 -1.9219 0
M  V30 3586 C 335.701 1.69988 -0.805333 0
M  V30 3587 O 335.059 1.79685 0.241435 0
M  V30 3588 C 335.107 1.54364 -3.2589 0
M  V30 3589 O 334.211 2.65474 -3.1559 0
M  V30 3590 H 333.552 0.212249 -0.629163 0
M  V30 3591 H 336.082 0.0314294 -2.04576 0
M  V30 3592 H 336.092 1.92146 -3.59922 0
M  V30 3593 H 334.767 0.868457 -4.06732 0
M  V30 3594 H 333.344 2.30501 -2.93128 0
M  V30 3595 N 335.529 1.53961 0.336706 0
M  V30 3596 C 336.776 1.71536 1.07618 0
M  V30 3597 C 337.104 0.482125 1.8843 0
M  V30 3598 O 336.359 -0.536142 1.88213 0
M  V30 3599 C 336.658 2.93493 2.03953 0
M  V30 3600 C 336.324 4.28811 1.39399 0
M  V30 3601 C 334.986 4.65602 1.21523 0
M  V30 3602 C 337.338 5.12844 0.929541 0
M  V30 3603 C 334.666 5.84037 0.558312 0
M  V30 3604 C 337.018 6.31951 0.286505 0
M  V30 3605 C 335.682 6.67432 0.0954869 0
M  V30 3606 H 334.952 0.627696 0.393801 0
M  V30 3607 H 337.599 1.88186 0.354715 0
M  V30 3608 H 335.904 2.71475 2.82504 0
M  V30 3609 H 337.601 3.04285 2.61174 0
M  V30 3610 H 334.191 3.99858 1.54311 0
M  V30 3611 H 338.375 4.84947 1.05548 0
M  V30 3612 H 333.631 6.10097 0.398995 0
M  V30 3613 H 337.805 6.96352 -0.0814376 0
M  V30 3614 H 335.432 7.59063 -0.415579 0
M  V30 3615 N 337.007 -0.598083 1.45811 0
M  V30 3616 C 338.255 -1.35413 1.50026 0
M  V30 3617 C 338.576 -1.94444 0.147177 0
M  V30 3618 O 337.846 -1.77701 -0.824571 0
M  V30 3619 H 336.426 -0.502727 0.552517 0
M  V30 3620 H 339.088 -0.701606 1.81834 0
M  V30 3621 H 338.184 -2.16871 2.2444 0
M  V30 3622 N 338.485 -1.33259 -0.841409 0
M  V30 3623 C 339.713 -1.27605 -1.62864 0
M  V30 3624 C 340.128 0.153507 -1.88175 0
M  V30 3625 O 339.485 1.09485 -1.46011 0
M  V30 3626 C 339.536 -2.04596 -2.98031 0
M  V30 3627 O 339.257 -3.41975 -2.73834 0
M  V30 3628 C 340.758 -2.06122 -3.92465 0
M  V30 3629 H 337.978 -0.439718 -0.506842 0
M  V30 3630 H 340.522 -1.75591 -1.04824 0
M  V30 3631 H 338.677 -1.60299 -3.5268 0
M  V30 3632 H 339.091 -3.81549 -3.59889 0
M  V30 3633 H 340.565 -2.64451 -4.84531 0
M  V30 3634 H 341.042 -1.05083 -4.26444 0
M  V30 3635 H 341.648 -2.50427 -3.43753 0
M  V30 3636 N 339.963 1.05934 -1.16686 0
M  V30 3637 C 340.873 2.17014 -0.891183 0
M  V30 3638 C 341.889 1.73453 0.137907 0
M  V30 3639 O 343.065 2.01361 -0.039592 0
M  V30 3640 C 340.13 3.44384 -0.400099 0
M  V30 3641 C 339.191 4.02433 -1.49486 0
M  V30 3642 C 338.424 5.23723 -1.02711 0
M  V30 3643 O 338.647 5.7027 0.121716 0
M  V30 3644 O 337.581 5.7382 -1.81699 0
M  V30 3645 H 341.407 2.43113 -1.82015 0
M  V30 3646 H 338.992 1.15541 -0.947132 0
M  V30 3647 H 340.874 4.21189 -0.133392 0
M  V30 3648 H 339.549 3.19802 0.500817 0
M  V30 3649 H 338.456 3.27102 -1.81535 0
M  V30 3650 H 339.789 4.31317 -2.37121 0
M  V30 3651 N 341.441 0.965919 1.2453 0
M  V30 3652 C 342.371 0.513476 2.27784 0
M  V30 3653 C 343.352 -0.445974 1.6415 0
M  V30 3654 O 344.537 -0.342485 1.91156 0
M  V30 3655 C 341.667 -0.198839 3.4673 0
M  V30 3656 C 340.621 0.676456 4.2262 0
M  V30 3657 C 339.947 -0.167248 5.34438 0
M  V30 3658 C 341.247 1.96017 4.84123 0
M  V30 3659 H 342.941 1.3765 2.65881 0
M  V30 3660 H 340.487 0.663321 1.27813 0
M  V30 3661 H 342.44 -0.526567 4.18097 0
M  V30 3662 H 341.164 -1.0962 3.07654 0
M  V30 3663 H 339.823 0.98743 3.53052 0
M  V30 3664 H 339.471 -1.0647 4.91603 0
M  V30 3665 H 339.171 0.415181 5.86131 0
M  V30 3666 H 340.695 -0.489688 6.08633 0
M  V30 3667 H 342.109 1.69814 5.47573 0
M  V30 3668 H 340.506 2.48918 5.4604 0
M  V30 3669 H 341.576 2.65622 4.05676 0
M  V30 3670 N 342.919 -1.39368 0.735821 0
M  V30 3671 C 344.144 -2.05319 0.293052 0
M  V30 3672 C 344.569 -1.55115 -1.064 0
M  V30 3673 O 343.927 -0.695261 -1.67439 0
M  V30 3674 C 343.975 -3.59305 0.305323 0
M  V30 3675 O 343.079 -4.06299 -0.706761 0
M  V30 3676 H 342.42 -0.650529 0.13307 0
M  V30 3677 H 344.95 -1.78386 1.00197 0
M  V30 3678 H 344.96 -4.07724 0.149997 0
M  V30 3679 H 343.635 -3.95207 1.29553 0
M  V30 3680 H 342.212 -3.69292 -0.517504 0
M  V30 3681 N 344.397 -0.483516 -1.5 0
M  V30 3682 C 345.344 0.304164 -2.28787 0
M  V30 3683 C 346.314 0.976114 -1.34392 0
M  V30 3684 O 347.499 0.986156 -1.63339 0
M  V30 3685 C 344.639 1.37298 -3.16612 0
M  V30 3686 C 343.752 0.714561 -4.26049 0
M  V30 3687 C 342.887 1.76232 -5.01114 0
M  V30 3688 C 341.926 1.08483 -6.0241 0
M  V30 3689 N 341.063 2.076 -6.70706 0
M  V30 3690 H 345.903 -0.373981 -2.95644 0
M  V30 3691 H 343.44 -0.196275 -1.45785 0
M  V30 3692 H 345.398 2.00445 -3.65893 0
M  V30 3693 H 344.028 2.02012 -2.51776 0
M  V30 3694 H 343.08 -0.0297798 -3.80388 0
M  V30 3695 H 344.392 0.180383 -4.98474 0
M  V30 3696 H 343.546 2.46929 -5.54176 0
M  V30 3697 H 342.285 2.33033 -4.28424 0
M  V30 3698 H 341.29 0.363545 -5.48597 0
M  V30 3699 H 342.515 0.523551 -6.77079 0
M  V30 3700 H 340.461 2.63394 -6.00799 0
M  V30 3701 H 340.378 1.59201 -7.39047 0
M  V30 3702 H 341.646 2.77639 -7.2838 0
M  V30 3703 N 345.875 1.56104 -0.216619 0
M  V30 3704 C 346.785 2.23694 0.706982 0
M  V30 3705 C 347.801 1.24295 1.21765 0
M  V30 3706 O 348.977 1.57094 1.2603 0
M  V30 3707 C 346.042 2.8998 1.90033 0
M  V30 3708 C 345.103 4.04708 1.43213 0
M  V30 3709 C 344.336 4.67824 2.56859 0
M  V30 3710 O 344.559 4.29913 3.74874 0
M  V30 3711 O 343.493 5.56905 2.28343 0
M  V30 3712 H 347.319 3.03272 0.161235 0
M  V30 3713 H 344.904 1.49394 0.0136177 0
M  V30 3714 H 346.786 3.31837 2.59735 0
M  V30 3715 H 345.461 2.13365 2.43428 0
M  V30 3716 H 344.368 3.6743 0.70327 0
M  V30 3717 H 345.701 4.83051 0.944615 0
M  V30 3718 N 347.353 -0.0568162 1.57498 0
M  V30 3719 C 348.63 -0.786954 1.79071 0
M  V30 3720 C 349.01 -1.95028 0.80792 0
M  V30 3721 O 348.358 -2.27968 -0.155858 0
M  V30 3722 C 348.568 -1.24594 3.26002 0
M  V30 3723 C 349.916 -1.67323 3.90241 0
M  V30 3724 O 350.94 -1.34124 3.29984 0
M  V30 3725 O 349.799 -2.28842 4.9628 0
M  V30 3726 H 346.893 -0.378262 0.735423 0
M  V30 3727 H 349.439 -0.035734 1.69662 0
M  V30 3728 H 348.211 -0.41423 3.89101 0
M  V30 3729 H 347.834 -2.05803 3.40192 0
M  V30 3730 N 348.832 -1.54138 -0.328536 0
M  V30 3731 C 350.248 -1.44736 -0.672574 0
M  V30 3732 C 350.448 -0.616217 -1.91846 0
M  V30 3733 O 349.504 -0.113067 -2.52247 0
M  V30 3734 C 350.817 -2.884 -0.851217 0
M  V30 3735 C 352.365 -2.98271 -0.948877 0
M  V30 3736 C 352.84 -4.43074 -1.15973 0
M  V30 3737 N 354.331 -4.46665 -1.22658 0
M  V30 3738 C 355.066 -5.55857 -1.40751 0
M  V30 3739 N 354.562 -6.75026 -1.5592 0
M  V30 3740 N 356.355 -5.43495 -1.4342 0
M  V30 3741 H 348.506 -2.06661 0.490421 0
M  V30 3742 H 350.769 -0.934812 0.157579 0
M  V30 3743 H 350.475 -3.51699 -0.00704236 0
M  V30 3744 H 350.349 -3.34225 -1.74853 0
M  V30 3745 H 352.736 -2.35102 -1.78356 0
M  V30 3746 H 352.817 -2.55785 -0.0281435 0
M  V30 3747 H 352.461 -5.06827 -0.329915 0
M  V30 3748 H 352.391 -4.83165 -2.09426 0
M  V30 3749 H 354.882 -3.60797 -1.124 0
M  V30 3750 H 355.195 -7.54004 -1.69404 0
M  V30 3751 H 353.54 -6.77944 -1.53027 0
M  V30 3752 H 356.731 -4.49349 -1.31162 0
M  V30 3753 H 356.904 -6.28649 -1.57178 0
M  V30 3754 N 350.31 0.590341 -1.46126 0
M  V30 3755 C 351.273 1.68194 -1.55703 0
M  V30 3756 C 352.273 1.54808 -0.434868 0
M  V30 3757 O 353.463 1.59564 -0.698928 0
M  V30 3758 C 350.595 3.07575 -1.47005 0
M  V30 3759 H 351.788 1.61064 -2.52979 0
M  V30 3760 H 349.341 0.807541 -1.33823 0
M  V30 3761 H 350.076 3.20268 -0.509785 0
M  V30 3762 H 349.861 3.187 -2.28414 0
M  V30 3763 H 351.351 3.87055 -1.56776 0
M  V30 3764 N 351.788 1.33704 0.83433 0
M  V30 3765 C 352.735 1.24335 1.94447 0
M  V30 3766 C 353.705 0.120991 1.65659 0
M  V30 3767 O 354.89 0.300035 1.88426 0
M  V30 3768 C 352.03 0.993124 3.30501 0
M  V30 3769 C 351.143 2.20217 3.71657 0
M  V30 3770 C 350.278 1.88572 4.96602 0
M  V30 3771 C 349.317 3.05683 5.30306 0
M  V30 3772 N 348.454 2.73997 6.46429 0
M  V30 3773 H 353.294 2.1928 2.01792 0
M  V30 3774 H 350.831 1.09035 0.987404 0
M  V30 3775 H 352.789 0.828467 4.08892 0
M  V30 3776 H 351.419 0.0803902 3.227 0
M  V30 3777 H 350.471 2.47642 2.88752 0
M  V30 3778 H 351.783 3.07752 3.92543 0
M  V30 3779 H 350.937 1.68776 5.82752 0
M  V30 3780 H 349.676 0.982799 4.77695 0
M  V30 3781 H 348.681 3.26088 4.42659 0
M  V30 3782 H 349.906 3.96737 5.51159 0
M  V30 3783 H 347.852 1.86268 6.28999 0
M  V30 3784 H 347.769 3.55064 6.67432 0
M  V30 3785 H 349.037 2.57679 7.35678 0
M  V30 3786 N 353.266 -1.05314 1.17247 0
M  V30 3787 C 354.196 -2.1498 0.911362 0
M  V30 3788 C 355.177 -1.69471 -0.146169 0
M  V30 3789 O 356.362 -1.942 0.003812 0
M  V30 3790 C 353.492 -3.4472 0.422528 0
M  V30 3791 C 352.446 -4.03789 1.4191 0
M  V30 3792 C 351.772 -5.28858 0.788274 0
M  V30 3793 C 353.072 -4.41418 2.7919 0
M  V30 3794 H 354.766 -2.3708 1.82848 0
M  V30 3795 H 352.312 -1.13938 0.880569 0
M  V30 3796 H 354.265 -4.20787 0.227289 0
M  V30 3797 H 352.989 -3.22269 -0.530123 0
M  V30 3798 H 351.648 -3.2979 1.60106 0
M  V30 3799 H 351.296 -5.02709 -0.171173 0
M  V30 3800 H 350.996 -5.69338 1.45353 0
M  V30 3801 H 352.52 -6.07612 0.603282 0
M  V30 3802 H 353.934 -5.08524 2.64719 0
M  V30 3803 H 352.331 -4.92913 3.42282 0
M  V30 3804 H 353.401 -3.51819 3.33693 0
M  V30 3805 N 354.744 -0.972509 -1.24016 0
M  V30 3806 C 355.991 -0.637034 -1.92219 0
M  V30 3807 C 356.319 0.828418 -1.75976 0
M  V30 3808 O 355.574 1.61206 -1.10955 0
M  V30 3809 C 355.873 -0.963694 -3.44162 0
M  V30 3810 C 355.539 -2.41807 -3.80579 0
M  V30 3811 C 354.201 -2.81556 -3.9023 0
M  V30 3812 C 356.553 -3.36172 -3.98293 0
M  V30 3813 C 353.881 -4.14702 -4.15017 0
M  V30 3814 C 356.233 -4.68952 -4.24578 0
M  V30 3815 C 354.897 -5.08472 -4.32449 0
M  V30 3816 H 354.167 -0.233107 -0.703379 0
M  V30 3817 H 356.814 -1.2249 -1.47202 0
M  V30 3818 H 355.119 -0.29365 -3.90698 0
M  V30 3819 H 356.816 -0.682449 -3.9515 0
M  V30 3820 H 353.406 -2.09988 -3.73635 0
M  V30 3821 H 357.59 -3.06644 -3.90234 0
M  V30 3822 H 352.846 -4.4494 -4.19331 0
M  V30 3823 H 357.02 -5.42037 -4.37229 0
M  V30 3824 H 354.647 -6.11665 -4.51409 0
M  V30 3825 N 356.222 1.38976 -0.743202 0
M  V30 3826 C 357.633 1.83123 -0.363732 0
M  V30 3827 C 357.984 1.6205 1.10609 0
M  V30 3828 O 357.109 1.11606 1.854 0
M  V30 3829 C 357.704 3.32439 -0.653408 0
M  V30 3830 C 356.263 3.74974 -0.327338 0
M  V30 3831 C 355.41 2.61878 -0.911875 0
M  V30 3832 H 358.361 1.27852 -0.940191 0
M  V30 3833 H 358.382 3.80432 0.0720031 0
M  V30 3834 H 357.894 3.47745 -1.72323 0
M  V30 3835 H 355.995 3.65252 0.736314 0
M  V30 3836 H 356.108 4.72106 -0.815631 0
M  V30 3837 H 354.472 2.52448 -0.337944 0
M  V30 3838 H 355.255 2.79987 -1.98651 0
M  V30 3839 N 357.7 0.491464 1.49741 0
M  V30 3840 C 358.65 -0.311086 2.25868 0
M  V30 3841 C 359.634 -0.943857 1.30308 0
M  V30 3842 O 360.826 -0.853035 1.55088 0
M  V30 3843 C 357.955 -1.38059 3.14316 0
M  V30 3844 C 357.041 -0.754541 4.17334 0
M  V30 3845 N 357.432 0.137216 5.05614 0
M  V30 3846 C 355.73 -1.01621 4.34269 0
M  V30 3847 C 356.431 0.494614 5.79593 0
M  V30 3848 N 355.407 -0.135169 5.43432 0
M  V30 3849 H 359.209 0.37555 2.91491 0
M  V30 3850 H 356.723 0.306917 1.59473 0
M  V30 3851 H 358.72 -1.96891 3.67477 0
M  V30 3852 H 357.38 -2.06901 2.50244 0
M  V30 3853 H 358.391 0.50741 5.15408 0
M  V30 3854 H 355.068 -1.69808 3.81407 0
M  V30 3855 H 356.458 1.2236 6.60665 0
M  V30 3856 N 359.178 -1.55987 0.224894 0
M  V30 3857 C 360.418 -2.00293 -0.407706 0
M  V30 3858 C 360.782 -1.1093 -1.56711 0
M  V30 3859 O 361.983 -1.44597 -2.26595 0
M  V30 3860 C 360.254 -3.47675 -0.82805 0
M  V30 3861 S 361.813 -4.14 -1.45429 0
M  V30 3862 H 358.631 -0.699152 -0.129256 0
M  V30 3863 H 361.233 -1.92609 0.334967 0
M  V30 3864 H 359.937 -4.10392 0.0253964 0
M  V30 3865 H 359.468 -3.59239 -1.60345 0
M  V30 3866 H 361.483 -4.13465 -2.74337 0
M  V30 3867 N 360.656 0.0484629 -1.57525 0
M  V30 3868 C 361.904 0.741657 -1.88 0
M  V30 3869 C 362.225 1.76918 -0.820054 0
M  V30 3870 O 361.495 1.95335 0.148661 0
M  V30 3871 H 360.075 0.276908 -0.69378 0
M  V30 3872 H 362.737 0.019013 -1.94891 0
M  V30 3873 H 361.833 1.24336 -2.86264 0
M  V30 3874 N 362.134 1.5431 0.320358 0
M  V30 3875 C 363.55 1.45091 0.664889 0
M  V30 3876 C 363.75 0.626382 1.91517 0
M  V30 3877 O 362.806 0.126443 2.52183 0
M  V30 3878 C 364.119 2.88848 0.83591 0
M  V30 3879 C 365.667 2.9877 0.933046 0
M  V30 3880 C 366.142 4.43683 1.13621 0
M  V30 3881 N 367.633 4.47309 1.20287 0
M  V30 3882 C 368.368 5.56595 1.37801 0
M  V30 3883 N 367.864 6.75844 1.52338 0
M  V30 3884 N 369.657 5.44248 1.40535 0
M  V30 3885 H 361.808 2.06398 -0.501374 0
M  V30 3886 H 364.071 0.933963 -0.162534 0
M  V30 3887 H 363.777 3.51698 -0.0116092 0
M  V30 3888 H 363.651 3.35148 1.73078 0
M  V30 3889 H 366.038 2.36045 1.77107 0
M  V30 3890 H 366.119 2.55796 0.0145782 0
M  V30 3891 H 365.763 5.06995 0.303032 0
M  V30 3892 H 365.693 4.84269 2.0686 0
M  V30 3893 H 368.184 3.61388 1.10485 0
M  V30 3894 H 368.497 7.54892 1.65403 0
M  V30 3895 H 366.842 6.78746 1.4943 0
M  V30 3896 H 370.033 4.50038 1.28777 0
M  V30 3897 H 370.206 6.29473 1.53842 0
M  V30 3898 N 363.613 -0.582584 1.46437 0
M  V30 3899 C 364.543 -1.70187 1.59871 0
M  V30 3900 C 365.524 -1.64066 0.449042 0
M  V30 3901 O 366.709 -1.82081 0.6753 0
M  V30 3902 C 363.839 -3.08827 1.58881 0
M  V30 3903 C 362.793 -3.29779 2.72819 0
M  V30 3904 C 362.119 -4.68947 2.5689 0
M  V30 3905 C 363.419 -3.17601 4.1464 0
M  V30 3906 H 365.113 -1.592 2.53566 0
M  V30 3907 H 362.659 -0.764472 1.22032 0
M  V30 3908 H 364.612 -3.86951 1.66873 0
M  V30 3909 H 363.336 -3.20713 0.617306 0
M  V30 3910 H 361.995 -2.54054 2.64296 0
M  V30 3911 H 361.643 -4.77599 1.57823 0
M  V30 3912 H 361.343 -4.83919 3.33312 0
M  V30 3913 H 362.867 -5.4924 2.66773 0
M  V30 3914 H 364.281 -3.8557 4.24274 0
M  V30 3915 H 362.678 -3.44094 4.9165 0
M  V30 3916 H 363.748 -2.14681 4.34788 0
M  V30 3917 N 365.091 -1.34144 -0.827227 0
M  V30 3918 C 366.321 -1.29138 -1.61267 0
M  V30 3919 C 366.729 0.137597 -1.88699 0
M  V30 3920 O 366.072 1.09379 -1.47587 0
M  V30 3921 C 366.134 -2.0097 -2.9808 0
M  V30 3922 C 365.798 -3.50242 -2.93563 0
M  V30 3923 C 366.795 -4.4523 -2.68452 0
M  V30 3924 C 364.48 -3.92592 -3.13331 0
M  V30 3925 C 366.474 -5.80542 -2.63154 0
M  V30 3926 C 364.161 -5.28005 -3.07658 0
M  V30 3927 C 365.159 -6.21792 -2.82602 0
M  V30 3928 O 364.847 -7.54723 -2.76853 0
M  V30 3929 H 364.579 -0.445851 -0.508127 0
M  V30 3930 H 367.133 -1.77263 -1.03763 0
M  V30 3931 H 365.363 -1.47451 -3.57484 0
M  V30 3932 H 367.052 -1.89309 -3.5905 0
M  V30 3933 H 367.818 -4.13832 -2.52919 0
M  V30 3934 H 363.697 -3.19994 -3.31851 0
M  V30 3935 H 367.241 -6.53717 -2.43516 0
M  V30 3936 H 363.138 -5.59023 -3.22743 0
M  V30 3937 H 363.906 -7.64409 -2.92611 0
M  V30 3938 N 366.569 1.04691 -1.17803 0
M  V30 3939 C 367.98 1.59238 -0.974689 0
M  V30 3940 C 368.331 1.90306 0.477292 0
M  V30 3941 O 367.456 1.68846 1.35352 0
M  V30 3942 C 368.051 2.89318 -1.76296 0
M  V30 3943 C 366.61 3.40506 -1.60414 0
M  V30 3944 C 365.757 2.14172 -1.76141 0
M  V30 3945 H 368.708 0.874395 -1.32439 0
M  V30 3946 H 368.729 3.5944 -1.24833 0
M  V30 3947 H 368.241 2.66675 -2.81968 0
M  V30 3948 H 366.342 3.68175 -0.572519 0
M  V30 3949 H 366.455 4.14753 -2.39827 0
M  V30 3950 H 364.819 2.25176 -1.19028 0
M  V30 3951 H 365.602 1.93992 -2.83235 0
M  V30 3952 N 368.047 0.979072 1.23499 0
M  V30 3953 C 368.957 0.526431 2.28617 0
M  V30 3954 C 369.973 -0.418126 1.68901 0
M  V30 3955 O 371.149 -0.288372 1.99325 0
M  V30 3956 C 368.214 -0.165235 3.46306 0
M  V30 3957 C 367.275 0.82056 4.21385 0
M  V30 3958 C 366.508 0.161807 5.33455 0
M  V30 3959 O 366.731 -1.04742 5.60701 0
M  V30 3960 O 365.665 0.859708 5.95729 0
M  V30 3961 H 369.491 1.4006 2.69475 0
M  V30 3962 H 367.076 0.746643 1.29405 0
M  V30 3963 H 368.958 -0.553287 4.17752 0
M  V30 3964 H 367.633 -1.01419 3.07402 0
M  V30 3965 H 366.54 1.25929 3.52268 0
M  V30 3966 H 367.873 1.63828 4.64135 0
M  V30 3967 N 369.525 -1.3858 0.750561 0
M  V30 3968 C 370.773 -1.99789 0.30477 0
M  V30 3969 C 371.094 -1.59874 -1.11649 0
M  V30 3970 O 370.364 -0.85417 -1.76297 0
M  V30 3971 H 368.944 -0.738902 0.109694 0
M  V30 3972 H 371.606 -1.69391 0.963983 0
M  V30 3973 H 370.702 -3.09952 0.365499 0
M  V30 3974 N 371.003 -0.499398 -1.49478 0
M  V30 3975 C 371.933 0.269244 -2.31943 0
M  V30 3976 C 372.914 0.964054 -1.40143 0
M  V30 3977 O 374.099 0.955767 -1.69052 0
M  V30 3978 C 371.229 1.33504 -3.20615 0
M  V30 3979 C 370.183 0.760202 -4.21195 0
M  V30 3980 C 369.509 1.9264 -4.98792 0
M  V30 3981 C 370.809 -0.247661 -5.21712 0
M  V30 3982 H 372.503 -0.419082 -2.96452 0
M  V30 3983 H 370.049 -0.202988 -1.42562 0
M  V30 3984 H 372.002 1.88048 -3.77115 0
M  V30 3985 H 370.726 2.05253 -2.54045 0
M  V30 3986 H 369.385 0.23653 -3.65836 0
M  V30 3987 H 369.033 2.63154 -4.28671 0
M  V30 3988 H 368.733 1.54785 -5.66847 0
M  V30 3989 H 370.257 2.4762 -5.58137 0
M  V30 3990 H 371.671 0.209579 -5.72917 0
M  V30 3991 H 370.068 -0.541962 -5.97648 0
M  V30 3992 H 371.138 -1.16409 -4.7072 0
M  V30 3993 N 372.481 1.55866 -0.233164 0
M  V30 3994 C 373.444 2.1953 0.658715 0
M  V30 3995 C 374.444 1.16053 1.11303 0
M  V30 3996 O 375.634 1.41218 1.01996 0
M  V30 3997 C 372.766 2.82791 1.90373 0
M  V30 3998 H 373.959 2.99721 0.10347 0
M  V30 3999 H 371.512 1.56291 0.0164245 0
M  V30 4000 H 372.247 2.06501 2.50056 0
M  V30 4001 H 372.032 3.58578 1.58632 0
M  V30 4002 H 373.522 3.31556 2.53891 0
M  V30 4003 N 373.959 -0.0401083 1.57549 0
M  V30 4004 C 374.891 -1.07149 2.02612 0
M  V30 4005 C 375.904 -1.33126 0.937085 0
M  V30 4006 O 377.093 -1.30808 1.21456 0
M  V30 4007 C 374.193 -2.41561 2.37701 0
M  V30 4008 C 373.366 -2.35096 3.68848 0
M  V30 4009 C 372.425 -3.51867 3.91249 0
M  V30 4010 O 371.451 -3.3186 4.62447 0
M  V30 4011 N 372.653 -4.73351 3.36035 0
M  V30 4012 H 375.418 -0.687485 2.91708 0
M  V30 4013 H 372.979 -0.228248 1.60283 0
M  V30 4014 H 374.971 -3.18379 2.49833 0
M  V30 4015 H 373.541 -2.71846 1.54332 0
M  V30 4016 H 372.761 -1.4345 3.67173 0
M  V30 4017 H 374.049 -2.27908 4.54901 0
M  V30 4018 H 373.447 -4.92507 2.78304 0
M  V30 4019 H 372.004 -5.47572 3.53565 0
M  V30 4020 N 375.437 -1.54477 -0.31217 0
M  V30 4021 C 376.367 -1.87652 -1.38957 0
M  V30 4022 C 377.348 -0.734358 -1.53431 0
M  V30 4023 O 378.533 -0.98911 -1.67123 0
M  V30 4024 C 375.663 -2.11396 -2.75552 0
M  V30 4025 C 374.617 -3.27243 -2.75855 0
M  V30 4026 C 373.943 -3.36382 -4.15633 0
M  V30 4027 C 375.243 -4.64622 -2.38587 0
M  V30 4028 H 376.937 -2.77887 -1.11442 0
M  V30 4029 H 374.483 -1.33707 -0.534655 0
M  V30 4030 H 376.436 -2.33189 -3.51 0
M  V30 4031 H 375.16 -1.17921 -3.04569 0
M  V30 4032 H 373.819 -3.05356 -2.02863 0
M  V30 4033 H 373.467 -2.40445 -4.41809 0
M  V30 4034 H 373.167 -4.14249 -4.1674 0
M  V30 4035 H 374.691 -3.60422 -4.92877 0
M  V30 4036 H 376.105 -4.86219 -3.03749 0
M  V30 4037 H 374.502 -5.45121 -2.50925 0
M  V30 4038 H 375.572 -4.66097 -1.33723 0
M  V30 4039 N 376.915 0.57481 -1.46744 0
M  V30 4040 C 377.878 1.66533 -1.57478 0
M  V30 4041 C 378.878 1.54338 -0.451263 0
M  V30 4042 O 380.068 1.58814 -0.715813 0
M  V30 4043 C 377.2 3.05999 -1.50259 0
M  V30 4044 H 378.393 1.58372 -2.54673 0
M  V30 4045 H 375.946 0.793301 -1.34672 0
M  V30 4046 H 376.681 3.19709 -0.543725 0
M  V30 4047 H 376.466 3.16259 -2.31781 0
M  V30 4048 H 377.956 3.8537 -1.60872 0
M  V30 4049 N 378.394 1.34581 0.820102 0
M  V30 4050 C 379.81 1.14325 1.11364 0
M  V30 4051 C 380.01 -0.0533648 2.01429 0
M  V30 4052 O 379.066 -0.728044 2.41776 0
M  V30 4053 C 380.379 2.43983 1.75764 0
M  V30 4054 C 381.927 2.50065 1.88246 0
M  V30 4055 C 382.402 3.79732 2.56061 0
M  V30 4056 N 383.893 3.80908 2.63558 0
M  V30 4057 C 384.628 4.77961 3.16766 0
M  V30 4058 N 384.124 5.85397 3.70517 0
M  V30 4059 N 385.917 4.65413 3.15194 0
M  V30 4060 H 378.068 2.11246 0.221096 0
M  V30 4061 H 380.331 0.934289 0.160649 0
M  V30 4062 H 380.037 3.31651 1.1705 0
M  V30 4063 H 379.911 2.57531 2.75604 0
M  V30 4064 H 382.298 1.62834 2.46108 0
M  V30 4065 H 382.379 2.40442 0.873006 0
M  V30 4066 H 382.023 4.67354 1.98853 0
M  V30 4067 H 381.953 3.86639 3.57516 0
M  V30 4068 H 384.444 3.03274 2.25463 0
M  V30 4069 H 384.757 6.55463 4.09376 0
M  V30 4070 H 383.102 5.89107 3.68752 0
M  V30 4071 H 386.293 3.80627 2.72471 0
M  V30 4072 H 386.466 5.41216 3.56356 0
M  V30 4073 N 379.872 -1.04064 1.18357 0
M  V30 4074 C 380.835 -2.10243 0.912707 0
M  V30 4075 C 381.835 -1.60477 -0.101928 0
M  V30 4076 O 383.025 -1.73703 0.131517 0
M  V30 4077 C 380.157 -3.38893 0.369387 0
M  V30 4078 H 381.35 -2.35706 1.85426 0
M  V30 4079 H 378.903 -1.20489 0.995594 0
M  V30 4080 H 379.638 -3.19094 -0.578776 0
M  V30 4081 H 379.423 -3.76331 1.1008 0
M  V30 4082 H 380.913 -4.17128 0.198575 0
M  V30 4083 N 381.35 -0.985608 -1.22978 0
M  V30 4084 C 382.627 -0.573599 -1.87001 0
M  V30 4085 C 383.007 0.949213 -1.88555 0
M  V30 4086 O 382.355 1.82811 -1.37086 0
M  V30 4087 C 382.565 -1.18564 -3.28243 0
M  V30 4088 C 383.913 -1.28163 -4.04796 0
M  V30 4089 O 384.937 -1.13949 -3.37482 0
M  V30 4090 O 383.796 -1.50832 -5.25273 0
M  V30 4091 H 380.89 -0.193868 -0.803955 0
M  V30 4092 H 383.436 -1.08102 -1.30813 0
M  V30 4093 H 382.208 -2.22758 -3.21706 0
M  V30 4094 H 381.831 -0.663363 -3.92027 0
M  V30 4095 N 382.828 1.3818 -0.7579 0
M  V30 4096 C 384.105 1.94106 -0.241306 0
M  V30 4097 C 384.485 1.69282 1.26122 0
M  V30 4098 O 383.833 1.03378 2.03777 0
M  V30 4099 C 384.043 3.43809 -0.59967 0
M  V30 4100 C 385.391 4.20868 -0.561717 0
M  V30 4101 O 386.415 3.5211 -0.538222 0
M  V30 4102 O 385.274 5.43451 -0.576478 0
M  V30 4103 H 382.368 0.825376 -0.0518042 0
M  V30 4104 H 384.914 1.47548 -0.838315 0
M  V30 4105 H 383.686 3.55403 -1.6372 0
M  V30 4106 H 383.309 3.97592 0.0251197 0
M  V30 4107 N 384.306 0.507319 1.49211 0
M  V30 4108 C 385.536 -0.0315292 2.06576 0
M  V30 4109 C 385.944 -1.30791 1.36713 0
M  V30 4110 O 385.287 -1.78324 0.441181 0
M  V30 4111 C 385.349 -0.349104 3.57801 0
M  V30 4112 C 385.013 0.830475 4.49391 0
M  V30 4113 C 386.01 1.72271 4.90529 0
M  V30 4114 C 383.695 1.03107 4.91604 0
M  V30 4115 C 385.689 2.79964 5.72625 0
M  V30 4116 C 383.376 2.11116 5.73475 0
M  V30 4117 C 384.374 2.99379 6.1389 0
M  V30 4118 O 384.062 4.05523 6.94123 0
M  V30 4119 H 383.794 0.0201002 0.675701 0
M  V30 4120 H 386.348 0.705737 1.92895 0
M  V30 4121 H 384.578 -1.14005 3.69513 0
M  V30 4122 H 386.267 -0.827319 3.97379 0
M  V30 4123 H 387.033 1.57958 4.58557 0
M  V30 4124 H 382.912 0.353417 4.59643 0
M  V30 4125 H 386.456 3.48884 6.04091 0
M  V30 4126 H 382.353 2.25421 6.0486 0
M  V30 4127 H 383.121 4.02953 7.1244 0
M  V30 4128 N 385.784 -1.5574 0.241426 0
M  V30 4129 C 386.694 -2.2479 -0.671305 0
M  V30 4130 C 387.71 -1.26217 -1.19772 0
M  V30 4131 O 388.886 -1.59079 -1.23514 0
M  V30 4132 C 385.951 -2.92966 -1.85396 0
M  V30 4133 C 385.012 -4.06935 -1.36756 0
M  V30 4134 C 384.245 -4.71851 -2.49384 0
M  V30 4135 O 384.468 -4.35823 -3.67987 0
M  V30 4136 O 383.402 -5.60467 -2.19454 0
M  V30 4137 H 387.228 -3.0349 -0.112966 0
M  V30 4138 H 384.813 -1.49397 0.0101513 0
M  V30 4139 H 386.695 -3.35927 -2.54423 0
M  V30 4140 H 385.37 -2.17211 -2.40002 0
M  V30 4141 H 384.277 -3.68503 -0.644726 0
M  V30 4142 H 385.61 -4.84492 -0.867647 0
M  V30 4143 N 387.262 0.0317525 -1.57568 0
M  V30 4144 C 388.194 1.06073 -2.03178 0
M  V30 4145 C 389.207 1.32627 -0.944132 0
M  V30 4146 O 390.396 1.30162 -1.22148 0
M  V30 4147 C 387.496 2.40297 -2.38978 0
M  V30 4148 C 386.669 2.33137 -3.70089 0
M  V30 4149 C 385.728 3.49787 -3.9311 0
M  V30 4150 O 384.754 3.29403 -4.64201 0
M  V30 4151 N 385.956 4.71562 -3.38541 0
M  V30 4152 H 388.721 0.672006 -2.92069 0
M  V30 4153 H 386.282 0.219745 -1.60402 0
M  V30 4154 H 388.274 3.1705 -2.51518 0
M  V30 4155 H 386.844 2.71024 -1.55771 0
M  V30 4156 H 386.064 1.415 -3.67928 0
M  V30 4157 H 387.352 2.25493 -4.56104 0
M  V30 4158 H 386.75 4.91024 -2.80912 0
M  V30 4159 H 385.307 5.45689 -3.56464 0
M  V30 4160 N 388.74 1.54641 0.303973 0
M  V30 4161 C 389.986 1.74038 1.04109 0
M  V30 4162 C 390.319 0.523051 1.87024 0
M  V30 4163 O 389.594 -0.479874 1.88487 0
M  V30 4164 C 389.877 3.02761 1.94955 0
M  V30 4165 C 389.73 4.34787 1.1524 0
M  V30 4166 C 391.049 3.27336 2.94175 0
M  V30 4167 H 388.168 0.63323 0.377079 0
M  V30 4168 H 390.81 1.87354 0.316001 0
M  V30 4169 H 388.96 2.9154 2.56782 0
M  V30 4170 H 390.632 4.57922 0.557236 0
M  V30 4171 H 388.875 4.31407 0.455053 0
M  V30 4172 H 389.546 5.21116 1.8205 0
M  V30 4173 H 392.022 3.38148 2.42477 0
M  V30 4174 H 390.898 4.18726 3.54908 0
M  V30 4175 H 391.159 2.45491 3.67677 0
M  V30 4176 N 390.218 -0.567019 1.47046 0
M  V30 4177 C 391.165 -1.67489 1.58796 0
M  V30 4178 C 392.135 -1.60399 0.43144 0
M  V30 4179 O 393.32 -1.79378 0.650233 0
M  V30 4180 C 390.46 -3.05821 1.59899 0
M  V30 4181 C 389.573 -3.2342 2.86397 0
M  V30 4182 C 388.708 -4.52093 2.789 0
M  V30 4183 C 387.747 -4.6309 4.00267 0
M  V30 4184 N 386.884 -5.83106 3.91064 0
M  V30 4185 H 391.724 -1.56785 2.53422 0
M  V30 4186 H 389.261 -0.763896 1.2571 0
M  V30 4187 H 391.219 -3.8591 1.58522 0
M  V30 4188 H 389.849 -3.15384 0.687929 0
M  V30 4189 H 388.901 -2.3683 2.97684 0
M  V30 4190 H 390.213 -3.27412 3.76301 0
M  V30 4191 H 389.367 -5.4043 2.75718 0
M  V30 4192 H 388.106 -4.50565 1.86662 0
M  V30 4193 H 387.111 -3.73168 4.03765 0
M  V30 4194 H 388.336 -4.66386 4.93621 0
M  V30 4195 H 386.282 -5.82546 3.01623 0
M  V30 4196 H 386.199 -5.88434 4.74638 0
M  V30 4197 H 387.467 -6.73831 3.91882 0
M  V30 4198 N 391.696 -1.35014 -0.812953 0
M  V30 4199 C 392.644 -1.27435 -1.94585 0
M  V30 4200 C 393.638 -0.170494 -1.6854 0
M  V30 4201 O 394.844 -0.336085 -1.76835 0
M  V30 4202 H 391.219 -0.396144 -0.639198 0
M  V30 4203 H 393.19 -2.23158 -1.98098 0
M  V30 4204 C 391.939 -1.05677 -3.31252 0
M  V30 4205 H 391.262 -1.89853 -3.51846 0
M  V30 4206 H 392.702 -1.04413 -4.10943 0
M  V30 4207 C 391.161 0.239615 -3.36047 0
M  V30 4208 O 391.691 1.23759 -3.8216 0
M  V30 4209 N 389.897 0.276186 -2.89285 0
M  V30 4210 H 389.444 -0.53653 -2.51951 0
M  V30 4211 H 389.402 1.14332 -2.92875 0
M  V30 4212 N 393.175 1.03435 -1.18907 0
M  V30 4213 C 394.421 1.77005 -0.989798 0
M  V30 4214 C 394.754 1.88205 0.478816 0
M  V30 4215 O 394.029 1.39481 1.35556 0
M  V30 4216 C 394.312 3.19925 -1.65287 0
M  V30 4217 C 394.165 3.1663 -3.19477 0
M  V30 4218 C 395.484 4.18189 -1.37134 0
M  V30 4219 H 392.603 0.642538 -0.360991 0
M  V30 4220 H 395.245 1.20784 -1.46667 0
M  V30 4221 H 393.395 3.67929 -1.24741 0
M  V30 4222 H 395.067 2.76567 -3.692 0
M  V30 4223 H 393.31 2.54491 -3.51307 0
M  V30 4224 H 393.981 4.1758 -3.61013 0
M  V30 4225 H 396.457 3.78761 -1.72276 0
M  V30 4226 H 395.333 5.16394 -1.86087 0
M  V30 4227 H 395.594 4.41112 -0.295424 0
M  V30 4228 N 394.653 0.992116 1.22453 0
M  V30 4229 C 395.616 0.546883 2.2258 0
M  V30 4230 C 396.616 -0.369829 1.56489 0
M  V30 4231 O 397.806 -0.161896 1.73446 0
M  V30 4232 C 394.938 -0.204659 3.40285 0
M  V30 4233 H 396.131 1.43234 2.63484 0
M  V30 4234 H 393.684 0.779239 1.3549 0
M  V30 4235 H 394.419 -1.10614 3.04853 0
M  V30 4236 H 394.204 0.45354 3.89468 0
M  V30 4237 H 395.694 -0.504358 4.14543 0
M  V30 4238 N 396.131 -1.37776 0.765217 0
M  V30 4239 C 397.408 -1.93975 0.251596 0
M  V30 4240 C 397.788 -1.69949 -1.25222 0
M  V30 4241 O 397.136 -1.04457 -2.03226 0
M  V30 4242 C 397.346 -3.43487 0.617895 0
M  V30 4243 C 398.694 -4.20564 0.584029 0
M  V30 4244 O 399.718 -3.5182 0.556888 0
M  V30 4245 O 398.577 -5.43138 0.605291 0
M  V30 4246 H 395.671 -0.82509 0.0561806 0
M  V30 4247 H 398.217 -1.47101 0.846128 0
M  V30 4248 H 396.989 -3.5453 1.65602 0
M  V30 4249 H 396.612 -3.976 -0.00403411 0
M  V30 4250 N 397.609 -0.515225 -1.4894 0
M  V30 4251 C 398.839 0.0205735 -2.0659 0
M  V30 4252 C 399.247 1.30064 -1.37405 0
M  V30 4253 O 398.59 1.78087 -0.450632 0
M  V30 4254 C 398.652 0.330124 -3.57981 0
M  V30 4255 C 398.316 -0.854295 -4.48944 0
M  V30 4256 C 399.313 -1.7487 -4.89609 0
M  V30 4257 C 396.998 -1.05712 -4.9105 0
M  V30 4258 C 398.992 -2.82996 -5.71132 0
M  V30 4259 C 396.679 -2.14154 -5.72347 0
M  V30 4260 C 397.677 -3.0263 -6.12294 0
M  V30 4261 O 397.365 -4.09198 -6.91962 0
M  V30 4262 H 397.097 -0.0236833 -0.675585 0
M  V30 4263 H 399.651 -0.715956 -1.92518 0
M  V30 4264 H 397.881 1.12044 -3.70112 0
M  V30 4265 H 399.57 0.806233 -3.97812 0
M  V30 4266 H 400.336 -1.60388 -4.57712 0
M  V30 4267 H 396.215 -0.377788 -4.59449 0
M  V30 4268 H 399.759 -3.52083 -6.02232 0
M  V30 4269 H 395.656 -2.28626 -6.03656 0
M  V30 4270 H 396.424 -4.06726 -7.10293 0
M  V30 4271 N 399.087 1.5561 -0.249682 0
M  V30 4272 C 400.317 2.03116 0.377803 0
M  V30 4273 C 400.725 1.12822 1.51881 0
M  V30 4274 O 400.068 0.13562 1.83199 0
M  V30 4275 C 400.13 3.46866 0.944693 0
M  V30 4276 C 399.794 4.56955 -0.0644259 0
M  V30 4277 C 400.791 5.12485 -0.874957 0
M  V30 4278 C 398.476 5.01936 -0.19132 0
M  V30 4279 C 400.47 6.11491 -1.79881 0
M  V30 4280 C 398.157 6.00773 -1.11868 0
M  V30 4281 C 399.155 6.5543 -1.92095 0
M  V30 4282 O 398.843 7.5234 -2.83267 0
M  V30 4283 H 398.575 0.669489 0.0935961 0
M  V30 4284 H 401.129 2.02004 -0.371966 0
M  V30 4285 H 399.359 3.45136 1.74407 0
M  V30 4286 H 401.048 3.77856 1.48255 0
M  V30 4287 H 401.814 4.78564 -0.787523 0
M  V30 4288 H 397.693 4.59055 0.423072 0
M  V30 4289 H 401.237 6.54078 -2.42543 0
M  V30 4290 H 397.134 6.34114 -1.20703 0
M  V30 4291 H 397.902 7.69966 -2.7766 0
M  V30 4292 N 400.565 -0.0233959 1.57583 0
M  V30 4293 C 401.976 -0.56927 1.77809 0
M  V30 4294 C 402.327 -1.75284 0.881472 0
M  V30 4295 O 401.452 -2.1626 0.0777805 0
M  V30 4296 C 402.047 -1.03949 3.22459 0
M  V30 4297 C 400.606 -1.53084 3.43864 0
M  V30 4298 C 399.753 -0.471454 2.73263 0
M  V30 4299 H 402.704 0.202825 1.57399 0
M  V30 4300 H 402.725 -1.90661 3.29285 0
M  V30 4301 H 402.237 -0.177865 3.87692 0
M  V30 4302 H 400.338 -2.41414 2.83814 0
M  V30 4303 H 400.451 -1.57443 4.52491 0
M  V30 4304 H 398.815 -0.927788 2.37201 0
M  V30 4305 H 399.598 0.380808 3.41181 0
M  V30 4306 N 402.043 -1.548 -0.295768 0
M  V30 4307 C 402.953 -1.89177 -1.38742 0
M  V30 4308 C 403.969 -0.786481 -1.55211 0
M  V30 4309 O 405.145 -1.08344 -1.69775 0
M  V30 4310 C 402.21 -2.13663 -2.73036 0
M  V30 4311 C 401.271 -3.37349 -2.65508 0
M  V30 4312 C 400.504 -3.60658 -3.93398 0
M  V30 4313 O 400.727 -2.86882 -4.93006 0
M  V30 4314 O 399.661 -4.54179 -3.94975 0
M  V30 4315 H 403.487 -2.82059 -1.12589 0
M  V30 4316 H 401.072 -1.41056 -0.492295 0
M  V30 4317 H 402.954 -2.3094 -3.52484 0
M  V30 4318 H 401.629 -1.23967 -2.99022 0
M  V30 4319 H 400.536 -3.25431 -1.84514 0
M  V30 4320 H 401.869 -4.27192 -2.44474 0
M  V30 4321 N 403.521 0.559213 -1.47345 0
M  V30 4322 C 404.751 1.33999 -1.57251 0
M  V30 4323 C 405.159 1.87905 -0.220978 0
M  V30 4324 O 404.502 1.65577 0.795617 0
M  V30 4325 C 404.564 2.54798 -2.53611 0
M  V30 4326 C 404.228 2.22192 -3.99349 0
M  V30 4327 C 405.225 1.79607 -4.87891 0
M  V30 4328 C 402.91 2.33613 -4.44669 0
M  V30 4329 C 404.904 1.48868 -6.19772 0
M  V30 4330 C 402.591 2.02487 -5.76578 0
M  V30 4331 C 403.589 1.60183 -6.63951 0
M  V30 4332 O 403.277 1.29451 -7.93409 0
M  V30 4333 H 403.009 0.414858 -0.533731 0
M  V30 4334 H 405.563 0.684465 -1.9366 0
M  V30 4335 H 403.793 3.23235 -2.12265 0
M  V30 4336 H 405.482 3.16873 -2.53666 0
M  V30 4337 H 406.248 1.70278 -4.54126 0
M  V30 4338 H 402.127 2.65501 -3.76869 0
M  V30 4339 H 405.671 1.15775 -6.87926 0
M  V30 4340 H 401.568 2.11448 -6.09885 0
M  V30 4341 H 402.336 1.43098 -8.05894 0
M  V30 4342 N 404.999 1.35443 0.805782 0
M  V30 4343 C 405.946 1.28431 1.91766 0
M  V30 4344 C 406.916 0.156102 1.65365 0
M  V30 4345 O 408.101 0.339936 1.87747 0
M  V30 4346 C 405.241 1.06301 3.2832 0
M  V30 4347 C 404.354 2.2805 3.66902 0
M  V30 4348 C 403.489 1.99064 4.92491 0
M  V30 4349 C 402.528 3.16863 5.23703 0
M  V30 4350 N 401.665 2.87647 6.40471 0
M  V30 4351 H 406.505 2.23511 1.97096 0
M  V30 4352 H 404.042 1.11105 0.964054 0
M  V30 4353 H 406 0.915012 4.07042 0
M  V30 4354 H 404.63 0.148822 3.22457 0
M  V30 4355 H 403.682 2.53711 2.83434 0
M  V30 4356 H 404.994 3.1601 3.85927 0
M  V30 4357 H 404.148 1.81099 5.7904 0
M  V30 4358 H 402.887 1.0839 4.75503 0
M  V30 4359 H 401.892 3.35404 4.35642 0
M  V30 4360 H 403.117 4.08339 5.4262 0
M  V30 4361 H 401.063 1.99568 6.24907 0
M  V30 4362 H 400.98 3.69141 6.59751 0
M  V30 4363 H 402.248 2.73226 7.30047 0
M  V30 4364 N 406.477 -1.02803 1.19454 0
M  V30 4365 C 407.407 -2.12999 0.956758 0
M  V30 4366 C 408.388 -1.69743 -0.110188 0
M  V30 4367 O 409.573 -1.94148 0.0450038 0
M  V30 4368 C 406.703 -3.43746 0.495553 0
M  V30 4369 C 405.657 -4.00688 1.50443 0
M  V30 4370 C 404.983 -5.27067 0.900275 0
M  V30 4371 C 406.283 -4.35397 2.8849 0
M  V30 4372 H 407.977 -2.33148 1.87836 0
M  V30 4373 H 405.523 -1.12045 0.904539 0
M  V30 4374 H 407.476 -4.2021 0.316493 0
M  V30 4375 H 406.2 -3.23321 -0.461646 0
M  V30 4376 H 404.859 -3.2632 1.67065 0
M  V30 4377 H 404.507 -5.02959 -0.064503 0
M  V30 4378 H 404.207 -5.66127 1.57397 0
M  V30 4379 H 405.731 -6.06196 0.73203 0
M  V30 4380 H 407.145 -5.02795 2.75446 0
M  V30 4381 H 405.542 -4.85541 3.52661 0
M  V30 4382 H 406.612 -3.44662 3.41081 0
M  V30 4383 N 407.956 -0.998596 -1.21925 0
M  V30 4384 C 408.886 -0.573688 -2.26343 0
M  V30 4385 C 409.867 0.402296 -1.65274 0
M  V30 4386 O 411.052 0.291683 -1.91997 0
M  V30 4387 C 408.182 0.106839 -3.47136 0
M  V30 4388 C 407.136 -0.788269 -4.20678 0
M  V30 4389 C 406.462 0.0254927 -5.34694 0
M  V30 4390 C 407.762 -2.08784 -4.78755 0
M  V30 4391 H 409.456 -1.44651 -2.62138 0
M  V30 4392 H 407.002 -0.696975 -1.26009 0
M  V30 4393 H 408.955 0.415531 -4.19346 0
M  V30 4394 H 407.679 1.01424 -3.10452 0
M  V30 4395 H 406.338 -1.08069 -3.50309 0
M  V30 4396 H 405.986 0.933989 -4.94253 0
M  V30 4397 H 405.686 -0.570437 -5.84825 0
M  V30 4398 H 407.21 0.328147 -6.09718 0
M  V30 4399 H 408.624 -1.84272 -5.42878 0
M  V30 4400 H 407.021 -2.63307 -5.39249 0
M  V30 4401 H 408.091 -2.76284 -3.98491 0
M  V30 4402 N 409.434 1.37368 -0.772513 0
M  V30 4403 C 410.681 1.99673 -0.337182 0
M  V30 4404 C 411.009 1.61324 1.0865 0
M  V30 4405 O 410.264 0.851377 1.7621 0
M  V30 4406 C 410.563 3.54817 -0.428876 0
M  V30 4407 C 410.229 4.12936 -1.81092 0
M  V30 4408 C 408.891 4.28523 -2.1891 0
M  V30 4409 C 411.243 4.44801 -2.71664 0
M  V30 4410 C 408.571 4.73277 -3.46735 0
M  V30 4411 C 410.923 4.90981 -3.98899 0
M  V30 4412 C 409.587 5.04773 -4.36761 0
M  V30 4413 H 408.857 0.730656 -0.123384 0
M  V30 4414 H 411.504 1.64124 -0.986686 0
M  V30 4415 H 409.809 3.90618 0.304167 0
M  V30 4416 H 411.506 4.00933 -0.0733334 0
M  V30 4417 H 408.096 4.01233 -1.50699 0
M  V30 4418 H 412.28 4.32344 -2.43706 0
M  V30 4419 H 407.536 4.82142 -3.75964 0
M  V30 4420 H 411.71 5.14603 -4.69208 0
M  V30 4421 H 409.337 5.39211 -5.35868 0
M  V30 4422 N 410.912 0.523116 1.48665 0
M  V30 4423 C 411.822 -0.247406 2.33292 0
M  V30 4424 C 412.838 -0.945769 1.46052 0
M  V30 4425 O 414.014 -0.922253 1.79043 0
M  V30 4426 C 411.079 -1.28487 3.22012 0
M  V30 4427 C 410.14 -0.597592 4.2512 0
M  V30 4428 C 409.373 -1.58563 5.09601 0
M  V30 4429 O 409.596 -2.81763 4.95949 0
M  V30 4430 O 408.53 -1.12879 5.91221 0
M  V30 4431 H 412.356 0.445869 3.00409 0
M  V30 4432 H 409.941 0.284128 1.46673 0
M  V30 4433 H 411.823 -1.88459 3.7691 0
M  V30 4434 H 410.498 -1.96068 2.57564 0
M  V30 4435 H 409.405 0.0424407 3.74076 0
M  V30 4436 H 410.738 0.0361517 4.92187 0
M  V30 4437 N 412.39 -1.55475 0.257931 0
M  V30 4438 C 413.638 -1.98813 -0.363009 0
M  V30 4439 C 413.959 -1.14757 -1.57657 0
M  V30 4440 O 413.229 -0.232956 -1.9451 0
M  V30 4441 H 411.809 -0.734308 -0.137113 0
M  V30 4442 H 414.471 -1.9156 0.359281 0
M  V30 4443 H 413.567 -3.04941 -0.664634 0
M  V30 4444 N 413.868 0.0150385 -1.57593 0
M  V30 4445 C 414.831 0.995996 -2.06428 0
M  V30 4446 C 415.831 1.2818 -0.970903 0
M  V30 4447 O 417.021 1.22949 -1.23406 0
M  V30 4448 C 414.153 2.32506 -2.49307 0
M  V30 4449 H 415.346 0.573873 -2.94358 0
M  V30 4450 H 412.899 0.262186 -1.54085 0
M  V30 4451 H 413.634 2.79438 -1.64575 0
M  V30 4452 H 413.419 2.13087 -3.29145 0
M  V30 4453 H 414.909 3.02906 -2.87468 0
M  V30 4454 N 415.346 1.54954 0.287554 0
M  V30 4455 C 416.594 1.74528 1.01904 0
M  V30 4456 C 416.915 0.541349 1.87335 0
M  V30 4457 O 416.185 -0.444108 1.908 0
M  V30 4458 H 414.765 0.643576 0.379235 0
M  V30 4459 H 417.427 1.92333 0.315294 0
M  V30 4460 H 416.523 2.64015 1.6644 0
M  V30 4461 N 416.824 -0.551391 1.4764 0
M  V30 4462 C 418.049 -1.33837 1.58437 0
M  V30 4463 C 418.474 -1.866 0.237063 0
M  V30 4464 O 417.832 -1.6328 -0.787994 0
M  V30 4465 C 417.88 -2.48014 2.61766 0
M  V30 4466 O 416.984 -3.50419 2.1744 0
M  V30 4467 H 416.325 -0.397299 0.532024 0
M  V30 4468 H 418.855 -0.665759 1.93465 0
M  V30 4469 H 418.865 -2.94503 2.82369 0
M  V30 4470 H 417.54 -2.08969 3.5959 0
M  V30 4471 H 416.117 -3.10196 2.06961 0
M  V30 4472 N 418.302 -1.35869 -0.798587 0
M  V30 4473 C 419.25 -1.29491 -1.93222 0
M  V30 4474 C 420.244 -0.18836 -1.6835 0
M  V30 4475 O 421.45 -0.354822 -1.76468 0
M  V30 4476 H 417.825 -0.402901 -0.63496 0
M  V30 4477 H 419.796 -2.25247 -1.9572 0
M  V30 4478 C 418.545 -1.09184 -3.30112 0
M  V30 4479 H 417.868 -1.93574 -3.49813 0
M  V30 4480 H 419.308 -1.08766 -4.09812 0
M  V30 4481 C 417.767 0.203959 -3.36282 0
M  V30 4482 O 418.297 1.19699 -3.83451 0
M  V30 4483 N 416.503 0.245488 -2.89561 0
M  V30 4484 H 416.05 -0.563223 -2.51367 0
M  V30 4485 H 416.008 1.11219 -2.94071 0
M  V30 4486 N 419.78 1.02168 -1.19998 0
M  V30 4487 C 421.191 1.57135 -1.00825 0
M  V30 4488 C 421.542 1.91276 0.436818 0
M  V30 4489 O 420.667 1.71679 1.3174 0
M  V30 4490 C 421.262 2.85514 -1.82393 0
M  V30 4491 C 419.821 3.37027 -1.67601 0
M  V30 4492 C 418.968 2.10388 -1.80644 0
M  V30 4493 H 421.919 0.846106 -1.34264 0
M  V30 4494 H 421.94 3.56711 -1.32429 0
M  V30 4495 H 421.452 2.60634 -2.87561 0
M  V30 4496 H 419.553 3.66878 -0.650485 0
M  V30 4497 H 419.666 4.09572 -2.4857 0
M  V30 4498 H 418.03 2.22601 -1.23778 0
M  V30 4499 H 418.813 1.8794 -2.87286 0
M  V30 4500 N 421.258 1.00505 1.21394 0
M  V30 4501 C 422.506 0.686415 1.90086 0
M  V30 4502 C 422.827 -0.785264 1.7849 0
M  V30 4503 O 422.097 -1.56387 1.17983 0
M  V30 4504 H 420.677 0.2509 0.703604 0
M  V30 4505 H 423.339 1.27417 1.47482 0
M  V30 4506 H 422.435 0.959621 2.96981 0
M  V30 4507 N 422.737 -1.36956 0.779787 0
M  V30 4508 C 424.014 -1.93697 0.272156 0
M  V30 4509 C 424.394 -1.71267 -1.23413 0
M  V30 4510 O 423.742 -1.06607 -2.02107 0
M  V30 4511 C 423.952 -3.42812 0.654291 0
M  V30 4512 C 425.3 -4.19921 0.628602 0
M  V30 4513 O 426.324 -3.51209 0.594172 0
M  V30 4514 O 425.183 -5.42465 0.662864 0
M  V30 4515 H 422.277 -0.824447 0.0649286 0
M  V30 4516 H 424.823 -1.46196 0.861682 0
M  V30 4517 H 423.595 -3.52754 1.69353 0
M  V30 4518 H 423.218 -3.97582 0.0381369 0
M  V30 4519 N 424.215 -0.530993 -1.48385 0
M  V30 4520 C 425.162 0.231223 -2.29639 0
M  V30 4521 C 426.132 0.932864 -1.37429 0
M  V30 4522 O 427.317 0.933692 -1.66394 0
M  V30 4523 C 424.457 1.27155 -3.2082 0
M  V30 4524 C 423.57 0.578655 -4.28107 0
M  V30 4525 C 422.705 1.602 -5.06467 0
M  V30 4526 C 421.744 0.892625 -6.05556 0
M  V30 4527 N 420.881 1.86157 -6.76971 0
M  V30 4528 H 425.721 -0.467848 -2.94305 0
M  V30 4529 H 423.258 -0.242556 -1.45086 0
M  V30 4530 H 425.216 1.88703 -3.72085 0
M  V30 4531 H 423.846 1.939 -2.58075 0
M  V30 4532 H 422.898 -0.150782 -3.80101 0
M  V30 4533 H 424.21 0.0217065 -4.98795 0
M  V30 4534 H 423.364 2.29173 -5.61751 0
M  V30 4535 H 422.103 2.19285 -4.35621 0
M  V30 4536 H 421.108 0.188829 -5.49476 0
M  V30 4537 H 422.333 0.307878 -6.78402 0
M  V30 4538 H 420.279 2.44147 -6.08875 0
M  V30 4539 H 420.196 1.35608 -7.43738 0
M  V30 4540 H 421.464 2.54325 -7.36844 0
M  V30 4541 N 425.693 1.55336 -0.266172 0
M  V30 4542 C 426.921 2.03801 0.356756 0
M  V30 4543 C 427.336 1.14485 1.50129 0
M  V30 4544 O 426.693 0.163121 1.8177 0
M  V30 4545 C 426.744 3.51455 0.846281 0
M  V30 4546 O 426.465 4.37371 -0.252663 0
M  V30 4547 C 427.966 4.15767 1.53794 0
M  V30 4548 H 425.186 0.665906 0.0825218 0
M  V30 4549 H 427.73 2.00636 -0.39566 0
M  V30 4550 H 425.885 3.55092 1.54881 0
M  V30 4551 H 426.299 5.24358 0.122173 0
M  V30 4552 H 427.773 5.20714 1.83198 0
M  V30 4553 H 428.25 3.63404 2.46646 0
M  V30 4554 H 428.856 4.16107 0.879488 0
M  V30 4555 N 427.171 -0.0066808 1.57599 0
M  V30 4556 C 428.101 -0.999296 2.11036 0
M  V30 4557 C 429.082 -1.36278 1.01795 0
M  V30 4558 O 430.267 -1.4477 1.29442 0
M  V30 4559 C 427.397 -2.29328 2.60818 0
M  V30 4560 C 426.351 -2.07159 3.74525 0
M  V30 4561 C 425.677 -3.42512 4.10596 0
M  V30 4562 C 426.977 -1.43959 5.02069 0
M  V30 4563 H 428.671 -0.554382 2.94223 0
M  V30 4564 H 426.217 -0.265221 1.41536 0
M  V30 4565 H 428.17 -2.99117 2.96828 0
M  V30 4566 H 426.894 -2.7592 1.74745 0
M  V30 4567 H 425.553 -1.39797 3.38899 0
M  V30 4568 H 425.201 -3.86795 3.21556 0
M  V30 4569 H 424.901 -3.28498 4.87199 0
M  V30 4570 H 426.425 -4.13628 4.4916 0
M  V30 4571 H 427.839 -2.03696 5.35893 0
M  V30 4572 H 426.236 -1.40452 5.83432 0
M  V30 4573 H 427.306 -0.407992 4.83181 0
M  V30 4574 N 428.649 -1.55105 -0.279332 0
M  V30 4575 C 429.559 -1.90638 -1.36727 0
M  V30 4576 C 430.575 -0.802899 -1.54368 0
M  V30 4577 O 431.751 -1.10138 -1.68616 0
M  V30 4578 C 428.816 -2.16547 -2.70755 0
M  V30 4579 C 427.877 -3.40146 -2.61915 0
M  V30 4580 C 427.11 -3.6481 -3.8955 0
M  V30 4581 O 427.333 -2.92095 -4.89935 0
M  V30 4582 O 426.267 -4.58343 -3.90135 0
M  V30 4583 H 430.093 -2.83237 -1.09591 0
M  V30 4584 H 427.678 -1.4157 -0.477306 0
M  V30 4585 H 429.56 -2.34665 -3.50014 0
M  V30 4586 H 428.235 -1.27131 -2.9769 0
M  V30 4587 H 427.142 -3.2737 -1.81052 0
M  V30 4588 H 428.475 -4.29761 -2.3993 0
M  V30 4589 N 430.127 0.543554 -1.4793 0
M  V30 4590 C 431.404 1.30458 -1.4574 0
M  V30 4591 C 431.784 2.1048 -0.161692 0
M  V30 4592 O 431.132 2.11831 0.856734 0
M  V30 4593 C 431.342 2.19754 -2.71126 0
M  V30 4594 C 432.69 2.80334 -3.18901 0
M  V30 4595 O 433.714 2.30049 -2.71948 0
M  V30 4596 O 432.573 3.71766 -4.00565 0
M  V30 4597 H 429.667 0.588117 -0.581418 0
M  V30 4598 H 432.213 0.561328 -1.60147 0
M  V30 4599 H 430.985 1.60316 -3.56952 0
M  V30 4600 H 430.608 3.01351 -2.59371 0
M  V30 4601 N 431.605 1.3629 0.791371 0
M  V30 4602 C 433.021 1.16661 1.08914 0
M  V30 4603 C 433.221 -0.0106266 2.01497 0
M  V30 4604 O 432.277 -0.676596 2.43266 0
M  V30 4605 C 433.59 2.47656 1.70549 0
M  V30 4606 C 435.138 2.54002 1.82899 0
M  V30 4607 C 435.613 3.85078 2.47949 0
M  V30 4608 N 437.104 3.86413 2.5542 0
M  V30 4609 C 437.839 4.84572 3.06557 0
M  V30 4610 N 437.335 5.93124 3.58016 0
M  V30 4611 N 439.128 4.71994 3.05251 0
M  V30 4612 H 431.279 2.11668 0.176238 0
M  V30 4613 H 433.542 0.937486 0.140796 0
M  V30 4614 H 433.248 3.34059 1.09989 0
M  V30 4615 H 433.122 2.63319 2.70079 0
M  V30 4616 H 435.509 1.68018 2.42598 0
M  V30 4617 H 435.59 2.42239 0.821808 0
M  V30 4618 H 435.234 4.71467 1.88895 0
M  V30 4619 H 435.164 3.94135 3.49235 0
M  V30 4620 H 437.655 3.07988 2.18979 0
M  V30 4621 H 437.968 6.63999 3.95381 0
M  V30 4622 H 436.313 5.96796 3.56173 0
M  V30 4623 H 439.504 3.86321 2.64336 0
M  V30 4624 H 439.677 5.48653 3.44796 0
M  V30 4625 N 433.083 -1.0153 1.20538 0
M  V30 4626 C 434.33 -1.75149 1.01633 0
M  V30 4627 C 434.658 -1.89189 -0.451399 0
M  V30 4628 O 433.913 -1.41551 -1.35136 0
M  V30 4629 C 434.212 -3.17213 1.64654 0
M  V30 4630 C 433.878 -3.23146 3.14464 0
M  V30 4631 C 432.54 -3.24472 3.55347 0
M  V30 4632 C 434.892 -3.21207 4.10458 0
M  V30 4633 C 432.22 -3.21532 4.90748 0
M  V30 4634 C 434.572 -3.19808 5.45807 0
M  V30 4635 C 433.236 -3.19439 5.86102 0
M  V30 4636 H 432.506 -0.640914 0.3719 0
M  V30 4637 H 435.153 -1.19071 1.49981 0
M  V30 4638 H 433.458 -3.76457 1.08571 0
M  V30 4639 H 435.155 -3.72871 1.4754 0
M  V30 4640 H 431.745 -3.2285 2.81897 0
M  V30 4641 H 435.929 -3.19351 3.79906 0
M  V30 4642 H 431.185 -3.19578 5.21229 0
M  V30 4643 H 435.359 -3.1726 6.19935 0
M  V30 4644 H 432.986 -3.16915 6.90991 0
M  V30 4645 N 434.561 -1.01147 -1.20859 0
M  V30 4646 C 435.808 -0.697865 -1.90095 0
M  V30 4647 C 436.136 0.772014 -1.78522 0
M  V30 4648 O 435.391 1.57595 -1.16027 0
M  V30 4649 C 435.69 -1.0727 -3.40922 0
M  V30 4650 C 435.356 -2.53792 -3.72693 0
M  V30 4651 C 434.018 -2.93829 -3.81075 0
M  V30 4652 C 436.37 -3.48674 -3.87397 0
M  V30 4653 C 433.698 -4.27696 -4.01613 0
M  V30 4654 C 436.05 -4.82223 -4.09444 0
M  V30 4655 C 434.714 -5.21973 -4.16054 0
M  V30 4656 H 433.984 -0.255367 -0.695607 0
M  V30 4657 H 436.631 -1.27111 -1.43231 0
M  V30 4658 H 434.936 -0.417799 -3.89566 0
M  V30 4659 H 436.633 -0.807818 -3.92779 0
M  V30 4660 H 433.223 -2.21768 -3.66765 0
M  V30 4661 H 437.407 -3.18904 -3.80281 0
M  V30 4662 H 432.663 -4.58055 -4.04964 0
M  V30 4663 H 436.837 -5.55672 -4.19763 0
M  V30 4664 H 434.464 -6.25717 -4.31721 0
M  V30 4665 N 436.039 1.36541 -0.78704 0
M  V30 4666 C 436.949 2.3387 -0.184896 0
M  V30 4667 C 437.965 1.60927 0.661697 0
M  V30 4668 O 439.141 1.92927 0.57804 0
M  V30 4669 C 436.206 3.40122 0.672145 0
M  V30 4670 C 435.267 4.28867 -0.19267 0
M  V30 4671 C 434.5 5.30045 0.623561 0
M  V30 4672 O 434.723 5.39232 1.8597 0
M  V30 4673 O 433.657 6.01895 0.0247068 0
M  V30 4674 H 437.483 2.87126 -0.989562 0
M  V30 4675 H 435.068 1.38969 -0.548455 0
M  V30 4676 H 436.95 4.05093 1.16094 0
M  V30 4677 H 435.625 2.89169 1.45474 0
M  V30 4678 H 434.532 3.66945 -0.728166 0
M  V30 4679 H 435.865 4.83165 -0.938722 0
M  V30 4680 N 437.518 0.538854 1.48102 0
M  V30 4681 C 438.468 -0.23907 2.26743 0
M  V30 4682 C 439.452 -0.901923 1.33245 0
M  V30 4683 O 440.644 -0.803263 1.57723 0
M  V30 4684 C 437.773 -1.2799 3.18549 0
M  V30 4685 C 436.859 -0.621388 4.19523 0
M  V30 4686 N 437.25 0.298004 5.04921 0
M  V30 4687 C 435.548 -0.877533 4.37282 0
M  V30 4688 C 436.249 0.678757 5.77726 0
M  V30 4689 N 435.225 0.0377881 5.43587 0
M  V30 4690 H 439.027 0.468096 2.90148 0
M  V30 4691 H 436.541 0.357497 1.58416 0
M  V30 4692 H 438.538 -1.851 3.73555 0
M  V30 4693 H 437.198 -1.98835 2.567 0
M  V30 4694 H 438.209 0.671126 5.13533 0
M  V30 4695 H 434.886 -1.57588 3.86616 0
M  V30 4696 H 436.276 1.43316 6.56437 0
M  V30 4697 N 438.996 -1.55193 0.274407 0
M  V30 4698 C 439.906 -2.26164 -0.623473 0
M  V30 4699 C 440.922 -1.28729 -1.17068 0
M  V30 4700 O 442.098 -1.61663 -1.20112 0
M  V30 4701 C 439.163 -2.96833 -1.7914 0
M  V30 4702 C 438.224 -4.09745 -1.28093 0
M  V30 4703 C 437.457 -4.77034 -2.3932 0
M  V30 4704 O 437.68 -4.4353 -3.5866 0
M  V30 4705 O 436.614 -5.64996 -2.07516 0
M  V30 4706 H 440.44 -3.03661 -0.0485661 0
M  V30 4707 H 438.025 -1.49341 0.0418382 0
M  V30 4708 H 439.907 -3.41248 -2.4724 0
M  V30 4709 H 438.582 -2.22253 -2.35341 0
M  V30 4710 H 437.489 -3.69787 -0.566416 0
M  V30 4711 H 438.822 -4.86224 -0.764683 0
M  V30 4712 N 440.474 -0.00167713 -1.576 0
M  V30 4713 C 441.72 0.683832 -1.90923 0
M  V30 4714 C 442.053 1.7333 -0.875799 0
M  V30 4715 O 441.328 1.94215 0.10525 0
M  V30 4716 C 441.611 1.32543 -3.3482 0
M  V30 4717 C 441.464 0.287387 -4.48881 0
M  V30 4718 C 442.783 2.25114 -3.78169 0
M  V30 4719 H 439.902 0.247125 -0.694333 0
M  V30 4720 H 442.544 -0.0533149 -1.89925 0
M  V30 4721 H 440.694 1.95372 -3.35801 0
M  V30 4722 H 442.366 -0.341346 -4.60035 0
M  V30 4723 H 440.609 -0.39017 -4.32042 0
M  V30 4724 H 441.28 0.775393 -5.46527 0
M  V30 4725 H 443.756 1.723 -3.7875 0
M  V30 4726 H 442.632 2.66971 -4.79602 0
M  V30 4727 H 442.893 3.13092 -3.12131 0
M  V30 4728 N 441.952 1.55251 0.271103 0
M  V30 4729 C 442.899 1.88261 1.33516 0
M  V30 4730 C 443.869 0.734296 1.48988 0
M  V30 4731 O 445.054 0.985741 1.63364 0
M  V30 4732 C 442.194 2.16168 2.69008 0
M  V30 4733 C 441.307 3.43678 2.61743 0
M  V30 4734 C 440.442 3.61276 3.89427 0
M  V30 4735 C 439.481 4.82472 3.7668 0
M  V30 4736 N 438.618 4.96717 4.96202 0
M  V30 4737 H 443.458 2.79015 1.04665 0
M  V30 4738 H 440.995 1.38137 0.505618 0
M  V30 4739 H 442.953 2.30349 3.47844 0
M  V30 4740 H 441.583 1.28646 2.96057 0
M  V30 4741 H 440.635 3.37959 1.74607 0
M  V30 4742 H 441.947 4.3265 2.48224 0
M  V30 4743 H 441.101 3.75284 4.76704 0
M  V30 4744 H 439.84 2.70492 4.05814 0
M  V30 4745 H 438.845 4.68465 2.87786 0
M  V30 4746 H 440.07 5.74692 3.61809 0
M  V30 4747 H 438.016 4.08865 5.12997 0
M  V30 4748 H 437.933 5.79738 4.85222 0
M  V30 4749 H 439.201 5.15113 5.85046 0
M  V30 4750 N 443.43 -0.535701 1.48216 0
M  V30 4751 C 444.36 -1.65014 1.65204 0
M  V30 4752 C 445.341 -1.62554 0.501011 0
M  V30 4753 O 446.526 -1.7984 0.732886 0
M  V30 4754 C 443.656 -3.03616 1.68626 0
M  V30 4755 C 442.61 -3.20932 2.83172 0
M  V30 4756 C 441.936 -4.60537 2.71679 0
M  V30 4757 C 443.236 -3.04249 4.24535 0
M  V30 4758 H 444.93 -1.51053 2.58502 0
M  V30 4759 H 442.476 -0.725262 1.24402 0
M  V30 4760 H 444.429 -3.81446 1.79099 0
M  V30 4761 H 443.153 -3.18587 0.719026 0
M  V30 4762 H 441.812 -2.45517 2.72244 0
M  V30 4763 H 441.46 -4.72336 1.72937 0
M  V30 4764 H 441.16 -4.73069 3.48538 0
M  V30 4765 H 442.684 -5.40475 2.84112 0
M  V30 4766 H 444.098 -3.71877 4.36326 0
M  V30 4767 H 442.495 -3.28278 5.02348 0
M  V30 4768 H 443.565 -2.00739 4.41397 0
M  V30 4769 N 444.908 -1.36708 -0.784132 0
M  V30 4770 C 445.856 -1.31533 -1.91838 0
M  V30 4771 C 446.85 -0.206205 -1.6814 0
M  V30 4772 O 448.056 -0.373519 -1.76082 0
M  V30 4773 H 444.431 -0.409613 -0.630651 0
M  V30 4774 H 446.402 -2.2731 -1.9332 0
M  V30 4775 C 445.151 -1.12679 -3.28936 0
M  V30 4776 H 444.474 -1.97274 -3.4774 0
M  V30 4777 H 445.914 -1.13106 -4.08636 0
M  V30 4778 C 444.373 0.168281 -3.36479 0
M  V30 4779 O 444.903 1.15625 -3.84699 0
M  V30 4780 N 443.109 0.214762 -2.89805 0
M  V30 4781 H 442.656 -0.589852 -2.50756 0
M  V30 4782 H 442.614 1.08094 -2.95234 0
M  V30 4783 N 446.386 1.0089 -1.21074 0
M  V30 4784 C 447.333 2.09588 -0.966512 0
M  V30 4785 C 448.303 1.65761 0.106089 0
M  V30 4786 O 449.488 1.90758 -0.0402287 0
M  V30 4787 C 446.628 3.40958 -0.533058 0
M  V30 4788 C 445.741 3.9822 -1.67467 0
M  V30 4789 C 444.876 5.17682 -1.19076 0
M  V30 4790 C 443.915 5.67043 -2.30496 0
M  V30 4791 N 443.052 6.77759 -1.83267 0
M  V30 4792 H 447.892 2.29815 -1.89708 0
M  V30 4793 H 445.429 1.12689 -0.945489 0
M  V30 4794 H 447.387 4.1637 -0.263019 0
M  V30 4795 H 446.017 3.20781 0.360505 0
M  V30 4796 H 445.069 3.1983 -2.05944 0
M  V30 4797 H 446.381 4.3085 -2.51336 0
M  V30 4798 H 445.535 6.00326 -0.877151 0
M  V30 4799 H 444.274 4.86635 -0.322066 0
M  V30 4800 H 443.279 4.82999 -2.62664 0
M  V30 4801 H 444.504 6.00121 -3.17855 0
M  V30 4802 H 442.45 6.48527 -0.987356 0
M  V30 4803 H 442.367 7.09624 -2.60711 0
M  V30 4804 H 443.635 7.63949 -1.54928 0
M  V30 4805 N 447.864 1.01787 1.20321 0
M  V30 4806 C 448.794 0.609625 2.25401 0
M  V30 4807 C 449.775 -0.375951 1.65893 0
M  V30 4808 O 450.96 -0.261101 1.92437 0
M  V30 4809 C 448.09 -0.0515995 3.47262 0
M  V30 4810 C 447.044 0.855095 4.19371 0
M  V30 4811 C 446.37 0.0595757 5.34667 0
M  V30 4812 C 447.67 2.16374 4.75373 0
M  V30 4813 H 449.364 1.48803 2.59804 0
M  V30 4814 H 446.91 0.716934 1.24884 0
M  V30 4815 H 448.863 -0.348764 4.19954 0
M  V30 4816 H 447.587 -0.964726 3.12027 0
M  V30 4817 H 446.246 1.13628 3.48546 0
M  V30 4818 H 445.894 -0.85524 4.95676 0
M  V30 4819 H 445.594 0.663406 5.83843 0
M  V30 4820 H 447.118 -0.231105 6.10162 0
M  V30 4821 H 448.532 1.92885 5.39878 0
M  V30 4822 H 446.929 2.71853 5.34991 0
M  V30 4823 H 447.999 2.82589 3.94045 0
M  V30 4824 N 449.342 -1.36122 0.79427 0
M  V30 4825 C 450.305 -2.28309 0.201889 0
M  V30 4826 C 451.305 -1.49041 -0.603603 0
M  V30 4827 O 452.495 -1.68964 -0.423888 0
M  V30 4828 C 449.627 -3.3321 -0.719978 0
M  V30 4829 H 450.82 -2.82208 1.01481 0
M  V30 4830 H 448.373 -1.45768 0.564037 0
M  V30 4831 H 449.108 -2.84475 -1.55706 0
M  V30 4832 H 448.893 -3.91835 -0.144266 0
M  V30 4833 H 450.383 -4.02044 -1.12916 0
M  V30 4834 N 450.82 -0.546701 -1.47814 0
M  V30 4835 C 452.067 -0.0187407 -2.02491 0
M  V30 4836 C 452.395 1.32685 -1.42215 0
M  V30 4837 O 451.65 1.87413 -0.563454 0
M  V30 4838 C 451.949 0.134869 -3.57145 0
M  V30 4839 C 451.615 -1.13849 -4.3629 0
M  V30 4840 C 450.277 -1.48743 -4.57634 0
M  V30 4841 C 452.629 -1.98277 -4.82012 0
M  V30 4842 C 449.957 -2.67932 -5.21948 0
M  V30 4843 C 452.309 -3.16659 -5.4764 0
M  V30 4844 C 450.973 -3.51879 -5.67219 0
M  V30 4845 H 450.243 -0.0068577 -0.740968 0
M  V30 4846 H 452.89 -0.716097 -1.77607 0
M  V30 4847 H 451.195 0.915118 -3.80963 0
M  V30 4848 H 452.892 0.558556 -3.97091 0
M  V30 4849 H 449.482 -0.856767 -4.19949 0
M  V30 4850 H 453.666 -1.72628 -4.6531 0
M  V30 4851 H 448.922 -2.95401 -5.35302 0
M  V30 4852 H 453.096 -3.82374 -5.82033 0
M  V30 4853 H 450.723 -4.44331 -6.16825 0
M  V30 4854 N 452.299 1.55045 -0.282633 0
M  V30 4855 C 453.229 2.2579 0.595066 0
M  V30 4856 C 454.21 1.25074 1.15284 0
M  V30 4857 O 455.395 1.5381 1.18559 0
M  V30 4858 C 452.525 2.98472 1.77572 0
M  V30 4859 C 451.479 4.0618 1.34914 0
M  V30 4860 C 450.805 4.66477 2.6135 0
M  V30 4861 C 452.105 5.1996 0.493821 0
M  V30 4862 H 453.799 2.994 0.00505653 0
M  V30 4863 H 451.345 1.44 0.000992001 0
M  V30 4864 H 453.298 3.46677 2.39568 0
M  V30 4865 H 452.022 2.2241 2.39168 0
M  V30 4866 H 450.681 3.58797 0.752338 0
M  V30 4867 H 450.329 3.87074 3.2122 0
M  V30 4868 H 450.029 5.39207 2.33516 0
M  V30 4869 H 451.553 5.17435 3.24181 0
M  V30 4870 H 452.967 5.64172 1.01898 0
M  V30 4871 H 451.364 5.99299 0.310047 0
M  V30 4872 H 452.434 4.82462 -0.485593 0
M  V30 4873 N 453.777 0.010035 1.57597 0
M  V30 4874 C 454.725 -0.996272 2.10184 0
M  V30 4875 C 455.719 -1.34942 1.02406 0
M  V30 4876 O 456.925 -1.33389 1.20861 0
M  V30 4877 H 453.3 -0.338982 0.671264 0
M  V30 4878 H 455.271 -0.527272 2.93705 0
M  V30 4879 C 454.02 -2.27599 2.62857 0
M  V30 4880 H 453.343 -2.01295 3.45428 0
M  V30 4881 H 454.783 -2.96265 3.0332 0
M  V30 4882 C 453.242 -2.99269 1.54725 0
M  V30 4883 O 453.772 -3.90644 0.93597 0
M  V30 4884 N 451.978 -2.61269 1.27228 0
M  V30 4885 H 451.525 -1.87043 1.77123 0
M  V30 4886 H 451.483 -3.09534 0.550999 0
M  V30 4887 N 455.255 -1.55392 -0.262866 0
M  V30 4888 C 456.187 -1.85392 -1.34768 0
M  V30 4889 C 457.2 -0.739069 -1.45057 0
M  V30 4890 O 458.389 -1.01703 -1.46693 0
M  V30 4891 C 455.489 -2.01088 -2.72795 0
M  V30 4892 C 454.662 -3.31828 -2.84972 0
M  V30 4893 C 453.721 -3.37464 -4.03738 0
M  V30 4894 O 452.747 -4.10778 -3.94018 0
M  V30 4895 N 453.949 -2.65599 -5.16176 0
M  V30 4896 H 456.714 -2.79029 -1.09375 0
M  V30 4897 H 454.275 -1.55434 -0.452981 0
M  V30 4898 H 456.267 -2.02217 -3.50557 0
M  V30 4899 H 454.837 -1.1427 -2.90966 0
M  V30 4900 H 454.057 -3.43152 -1.94012 0
M  V30 4901 H 455.345 -4.18032 -2.90045 0
M  V30 4902 H 454.743 -2.05736 -5.26962 0
M  V30 4903 H 453.3 -2.72439 -5.92132 0
M  V30 4904 N 456.733 0.527833 -1.48498 0
M  V30 4905 C 457.98 1.28354 -1.56625 0
M  V30 4906 C 458.308 1.93 -0.241096 0
M  V30 4907 O 457.563 1.79967 0.768798 0
M  V30 4908 C 457.862 2.39275 -2.65485 0
M  V30 4909 C 457.528 1.92268 -4.07853 0
M  V30 4910 C 456.19 1.79166 -4.46602 0
M  V30 4911 C 458.542 1.56771 -4.97064 0
M  V30 4912 C 455.87 1.28905 -5.72364 0
M  V30 4913 C 458.222 1.07972 -6.23318 0
M  V30 4914 C 456.886 0.934887 -6.60921 0
M  V30 4915 H 456.156 0.469682 -0.573131 0
M  V30 4916 H 458.803 0.588781 -1.82224 0
M  V30 4917 H 457.108 3.1443 -2.33754 0
M  V30 4918 H 458.805 2.974 -2.68988 0
M  V30 4919 H 455.395 2.03417 -3.77252 0
M  V30 4920 H 459.579 1.65753 -4.67803 0
M  V30 4921 H 454.835 1.16381 -6.00221 0
M  V30 4922 H 459.009 0.795775 -6.91838 0
M  V30 4923 H 456.636 0.543231 -7.58257 0
M  V30 4924 N 458.211 1.37122 0.776871 0
M  V30 4925 C 459.161 1.28989 1.88005 0
M  V30 4926 C 460.145 0.178765 1.59904 0
M  V30 4927 O 461.337 0.412705 1.72121 0
M  V30 4928 C 458.466 1.09402 3.25402 0
M  V30 4929 C 457.552 2.25036 3.59471 0
M  V30 4930 N 457.943 3.50407 3.64759 0
M  V30 4931 C 456.241 2.17078 3.89607 0
M  V30 4932 C 456.942 4.26628 3.95428 0
M  V30 4933 N 455.918 3.55709 4.11062 0
M  V30 4934 H 459.72 2.2394 1.90337 0
M  V30 4935 H 457.234 1.30021 0.973052 0
M  V30 4936 H 459.231 1.01661 4.04315 0
M  V30 4937 H 457.891 0.153632 3.24336 0
M  V30 4938 H 458.902 3.8438 3.47091 0
M  V30 4939 H 455.579 1.31067 3.96393 0
M  V30 4940 H 456.969 5.35107 4.06338 0
M  V30 4941 N 459.689 -1.00246 1.21608 0
M  V30 4942 C 460.936 -1.74061 1.03485 0
M  V30 4943 C 461.264 -1.89658 -0.431308 0
M  V30 4944 O 460.519 -1.42976 -1.33627 0
M  V30 4945 C 460.818 -3.15448 1.68009 0
M  V30 4946 C 460.484 -3.19792 3.17874 0
M  V30 4947 C 459.146 -3.20685 3.58768 0
M  V30 4948 C 461.498 -3.16835 4.13842 0
M  V30 4949 C 458.826 -3.16309 4.94131 0
M  V30 4950 C 461.178 -3.14001 5.49169 0
M  V30 4951 C 459.842 -3.13204 5.89457 0
M  V30 4952 H 459.112 -0.636934 0.378677 0
M  V30 4953 H 461.759 -1.17473 1.51236 0
M  V30 4954 H 460.064 -3.75284 1.12557 0
M  V30 4955 H 461.761 -3.71285 1.51487 0
M  V30 4956 H 458.351 -3.19842 2.85305 0
M  V30 4957 H 462.535 -3.15303 3.83272 0
M  V30 4958 H 457.791 -3.14032 5.24589 0
M  V30 4959 H 461.965 -3.10667 6.23265 0
M  V30 4960 H 459.592 -3.09568 6.94314 0
M  V30 4961 N 461.167 -1.02423 -1.1978 0
M  V30 4962 C 462.415 -0.716569 -1.8897 0
M  V30 4963 C 462.736 0.756769 -1.79716 0
M  V30 4964 O 462.006 1.5449 -1.20456 0
M  V30 4965 H 460.586 -0.262062 -0.699523 0
M  V30 4966 H 463.248 -1.29747 -1.45436 0
M  V30 4967 H 462.344 -1.00675 -2.95417 0
M  V30 4968 N 462.645 1.35699 -0.801477 0
M  V30 4969 C 463.891 1.99208 -0.380022 0
M  V30 4970 C 464.224 1.63445 1.04878 0
M  V30 4971 O 463.499 0.895223 1.72673 0
M  V30 4972 C 463.782 3.55755 -0.557708 0
M  V30 4973 C 463.635 4.01332 -2.03107 0
M  V30 4974 C 464.954 4.40096 0.0197968 0
M  V30 4975 H 462.073 0.723667 -0.139552 0
M  V30 4976 H 464.715 1.60928 -1.01006 0
M  V30 4977 H 462.865 3.88494 -0.0213741 0
M  V30 4978 H 464.537 3.79026 -2.62939 0
M  V30 4979 H 462.78 3.52429 -2.52936 0
M  V30 4980 H 463.451 5.10234 -2.1063 0
M  V30 4981 H 465.927 4.13786 -0.438179 0
M  V30 4982 H 464.803 5.48735 -0.134477 0
M  V30 4983 H 465.064 4.2786 1.11303 0
M  V30 4984 N 464.123 0.554532 1.47522 0
M  V30 4985 C 465.37 0.029479 2.02479 0
M  V30 4986 C 465.698 -1.31929 1.42916 0
M  V30 4987 O 464.953 -1.87112 0.573385 0
M  V30 4988 C 465.252 -0.115927 3.57212 0
M  V30 4989 C 464.918 1.16161 4.3568 0
M  V30 4990 C 463.58 1.51168 4.56839 0
M  V30 4991 C 465.932 2.0083 4.80954 0
M  V30 4992 C 463.26 2.70696 5.2052 0
M  V30 4993 C 465.612 3.19559 5.45953 0
M  V30 4994 C 464.276 3.54882 5.65345 0
M  V30 4995 H 463.546 0.0107871 0.740921 0
M  V30 4996 H 466.193 0.725506 1.77225 0
M  V30 4997 H 464.498 -0.894902 3.81443 0
M  V30 4998 H 466.195 -0.53749 3.97381 0
M  V30 4999 H 462.785 0.879026 4.19489 0
M  V30 5000 H 466.969 1.75093 4.64388 0
M  V30 5001 H 462.225 2.98236 5.33728 0
M  V30 5002 H 466.399 3.85456 5.79997 0
M  V30 5003 H 464.026 4.47596 6.1446 0
M  V30 5004 N 465.601 -1.54893 0.290851 0
M  V30 5005 C 466.831 -2.04047 -0.323818 0
M  V30 5006 C 467.239 -1.16809 -1.48837 0
M  V30 5007 O 466.582 -0.184145 -1.82775 0
M  V30 5008 C 466.644 -3.49248 -0.852395 0
M  V30 5009 C 466.308 -4.56623 0.185557 0
M  V30 5010 C 467.305 -5.09985 1.01053 0
M  V30 5011 C 464.99 -5.01252 0.324332 0
M  V30 5012 C 466.984 -6.06507 1.96031 0
M  V30 5013 C 464.671 -5.97596 1.27757 0
M  V30 5014 C 465.669 -6.50107 2.09405 0
M  V30 5015 O 465.357 -7.44565 3.03114 0
M  V30 5016 H 465.089 -0.671735 -0.0758129 0
M  V30 5017 H 467.643 -2.00947 0.425393 0
M  V30 5018 H 465.873 -3.49639 -1.65195 0
M  V30 5019 H 467.562 -3.81654 -1.38185 0
M  V30 5020 H 468.328 -4.76307 0.914129 0
M  V30 5021 H 464.207 -4.60015 -0.301213 0
M  V30 5022 H 467.751 -6.47418 2.598 0
M  V30 5023 H 463.648 -6.30691 1.37473 0
M  V30 5024 H 464.416 -7.62334 2.97976 0
M  V30 5025 N 467.08 -0.0183926 -1.57589 0
M  V30 5026 C 468.043 0.951986 -2.08494 0
M  V30 5027 C 469.043 1.26092 -0.997874 0
M  V30 5028 O 470.233 1.20304 -1.25987 0
M  V30 5029 C 467.365 2.27165 -2.54182 0
M  V30 5030 H 468.558 0.511307 -2.95509 0
M  V30 5031 H 466.111 0.229444 -1.54607 0
M  V30 5032 H 466.846 2.75884 -1.70465 0
M  V30 5033 H 466.631 2.06057 -3.33591 0
M  V30 5034 H 468.121 2.9674 -2.93828 0
M  V30 5035 N 468.558 1.5553 0.254621 0
M  V30 5036 C 469.805 1.77 0.983736 0
M  V30 5037 C 470.133 0.58133 1.85609 0
M  V30 5038 O 469.388 -0.435621 1.9079 0
M  V30 5039 C 469.687 3.03891 1.88109 0
M  V30 5040 C 469.353 4.35597 1.16472 0
M  V30 5041 C 468.015 4.7139 0.966714 0
M  V30 5042 C 470.367 5.1705 0.656387 0
M  V30 5043 C 467.695 5.86176 0.247942 0
M  V30 5044 C 470.047 6.32581 -0.0488807 0
M  V30 5045 C 468.711 6.67 -0.258438 0
M  V30 5046 H 467.981 0.647688 0.359974 0
M  V30 5047 H 470.628 1.89802 0.254463 0
M  V30 5048 H 468.933 2.86068 2.67717 0
M  V30 5049 H 470.63 3.17701 2.44677 0
M  V30 5050 H 467.22 4.07475 1.32899 0
M  V30 5051 H 471.404 4.8986 0.796933 0
M  V30 5052 H 466.66 6.11354 0.075035 0
M  V30 5053 H 470.834 6.94942 -0.450444 0
M  V30 5054 H 468.461 7.55793 -0.817358 0
M  V30 5055 N 470.036 -0.519951 1.48776 0
M  V30 5056 C 471.282 -1.27711 1.57536 0
M  V30 5057 C 471.615 -1.92547 0.252866 0
M  V30 5058 O 470.89 -1.7979 -0.742021 0
M  V30 5059 C 471.173 -2.35875 2.72094 0
M  V30 5060 C 471.026 -1.75664 4.1408 0
M  V30 5061 C 472.345 -3.37575 2.82367 0
M  V30 5062 H 469.464 -0.462971 0.573434 0
M  V30 5063 H 472.106 -0.578194 1.80989 0
M  V30 5064 H 470.256 -2.95488 2.52228 0
M  V30 5065 H 471.928 -1.20025 4.45412 0
M  V30 5066 H 470.171 -1.06154 4.20611 0
M  V30 5067 H 470.842 -2.54029 4.90075 0
M  V30 5068 H 473.318 -2.87929 3.00393 0
M  V30 5069 H 472.194 -4.1064 3.64233 0
M  V30 5070 H 472.455 -3.98743 1.90936 0
M  V30 5071 N 471.514 -1.37532 -0.769588 0
M  V30 5072 C 472.461 -1.3347 -1.88293 0
M  V30 5073 C 473.431 -0.199891 -1.64893 0
M  V30 5074 O 474.616 -0.389594 -1.8678 0
M  V30 5075 C 471.756 -1.14968 -3.25387 0
M  V30 5076 C 470.869 -2.37698 -3.60727 0
M  V30 5077 C 470.004 -2.12051 -4.8704 0
M  V30 5078 C 469.043 -3.30636 -5.15117 0
M  V30 5079 N 468.18 -3.04527 -6.3262 0
M  V30 5080 H 473.02 -2.28658 -1.911 0
M  V30 5081 H 470.557 -1.13622 -0.934257 0
M  V30 5082 H 472.515 -1.02261 -4.04473 0
M  V30 5083 H 471.145 -0.234263 -3.21949 0
M  V30 5084 H 470.197 -2.61137 -2.76608 0
M  V30 5085 H 471.509 -3.26131 -3.77413 0
M  V30 5086 H 470.663 -1.96388 -5.74035 0
M  V30 5087 H 469.402 -1.20959 -4.72462 0
M  V30 5088 H 468.407 -3.46836 -4.26597 0
M  V30 5089 H 469.632 -4.22582 -5.31603 0
M  V30 5090 H 467.578 -2.16067 -6.19396 0
M  V30 5091 H 467.495 -3.86503 -6.49732 0
M  V30 5092 H 468.763 -2.92485 -7.22546 0
M  V30 5093 N 472.992 0.995999 -1.22138 0
M  V30 5094 C 473.922 2.10387 -1.01289 0
M  V30 5095 C 474.903 1.69975 0.0651454 0
M  V30 5096 O 476.088 1.9396 -0.0964628 0
M  V30 5097 C 473.218 3.42312 -0.586517 0
M  V30 5098 C 472.172 3.96558 -1.61014 0
M  V30 5099 C 471.498 5.24494 -1.0397 0
M  V30 5100 C 472.798 4.27595 -2.99933 0
M  V30 5101 H 474.492 2.28086 -1.93951 0
M  V30 5102 H 472.038 1.09607 -0.933928 0
M  V30 5103 H 473.991 4.19223 -0.427793 0
M  V30 5104 H 472.715 3.24431 0.375761 0
M  V30 5105 H 471.374 3.21776 -1.75658 0
M  V30 5106 H 471.022 5.02953 -0.0688703 0
M  V30 5107 H 470.722 5.61755 -1.72352 0
M  V30 5108 H 472.246 6.04042 -0.892494 0
M  V30 5109 H 473.66 4.95315 -2.8868 0
M  V30 5110 H 472.057 4.76021 -3.6541 0
M  V30 5111 H 473.127 3.35498 -3.50099 0
M  V30 5112 N 474.47 1.03057 1.19235 0
M  V30 5113 C 475.417 0.612832 2.22515 0
M  V30 5114 C 476.387 -0.374224 1.61829 0
M  V30 5115 O 477.572 -0.270501 1.88873 0
M  V30 5116 C 474.712 -0.028475 3.45088 0
M  V30 5117 C 473.825 1.00483 4.20151 0
M  V30 5118 C 472.96 0.333102 5.30155 0
M  V30 5119 C 471.999 1.3522 5.96977 0
M  V30 5120 N 471.136 0.70616 6.9854 0
M  V30 5121 H 475.976 1.49812 2.57605 0
M  V30 5122 H 473.513 0.749658 1.26564 0
M  V30 5123 H 475.471 -0.417548 4.15105 0
M  V30 5124 H 474.101 -0.877334 3.10649 0
M  V30 5125 H 473.153 1.51194 3.49062 0
M  V30 5126 H 474.465 1.77929 4.65986 0
M  V30 5127 H 473.619 -0.110725 6.06599 0
M  V30 5128 H 472.358 -0.473547 4.85396 0
M  V30 5129 H 471.363 1.80627 5.19282 0
M  V30 5130 H 472.588 2.16037 6.4382 0
M  V30 5131 H 470.534 -0.0803667 6.55951 0
M  V30 5132 H 470.451 1.41848 7.42573 0
M  V30 5133 H 471.719 0.286391 7.78974 0
M  V30 5134 N 475.948 -1.35272 0.808662 0
M  V30 5135 C 476.858 -2.33546 0.222079 0
M  V30 5136 C 477.874 -1.6196 -0.636011 0
M  V30 5137 O 479.05 -1.93822 -0.547274 0
M  V30 5138 C 476.115 -3.41148 -0.61795 0
M  V30 5139 C 475.176 -4.28507 0.260875 0
M  V30 5140 C 474.409 -5.3097 -0.539156 0
M  V30 5141 O 474.632 -5.42123 -1.77367 0
M  V30 5142 O 473.566 -6.01858 0.0710526 0
M  V30 5143 H 477.392 -2.85515 1.03512 0
M  V30 5144 H 474.977 -1.38079 0.570495 0
M  V30 5145 H 476.859 -4.06889 -1.09634 0
M  V30 5146 H 475.534 -2.91447 -1.40855 0
M  V30 5147 H 474.441 -3.6574 0.786451 0
M  V30 5148 H 475.774 -4.81611 1.01547 0
M  V30 5149 N 477.426 -0.562348 -1.47226 0
M  V30 5150 C 478.358 0.220011 -2.28142 0
M  V30 5151 C 479.371 0.874596 -1.37312 0
M  V30 5152 O 480.56 0.747583 -1.62091 0
M  V30 5153 C 477.66 1.32953 -3.11732 0
M  V30 5154 C 476.833 0.770759 -4.30556 0
M  V30 5155 C 475.892 1.76541 -4.95701 0
M  V30 5156 O 474.918 1.3095 -5.53932 0
M  V30 5157 N 476.12 3.09896 -4.90861 0
M  V30 5158 H 478.885 -0.474107 -2.95926 0
M  V30 5159 H 476.446 -0.398761 -1.56912 0
M  V30 5160 H 478.438 1.99378 -3.5218 0
M  V30 5161 H 477.008 1.92681 -2.46156 0
M  V30 5162 H 476.228 -0.0704056 -3.94137 0
M  V30 5163 H 477.516 0.376872 -5.07402 0
M  V30 5164 H 476.914 3.49577 -4.44761 0
M  V30 5165 H 475.471 3.71865 -5.35313 0
M  V30 5166 N 478.904 1.54736 -0.299062 0
M  V30 5167 C 479.814 2.27127 0.587413 0
M  V30 5168 C 480.83 1.30575 1.15005 0
M  V30 5169 O 482.006 1.63554 1.17525 0
M  V30 5170 C 479.071 2.99645 1.74395 0
M  V30 5171 C 478.132 4.11731 1.21559 0
M  V30 5172 C 477.365 4.80781 2.317 0
M  V30 5173 O 477.588 4.4918 3.51558 0
M  V30 5174 O 476.522 5.68226 1.98501 0
M  V30 5175 H 480.348 3.037 0.000250109 0
M  V30 5176 H 477.933 1.49256 -0.0655919 0
M  V30 5177 H 479.815 3.45138 2.4178 0
M  V30 5178 H 478.49 2.25969 2.31775 0
M  V30 5179 H 477.397 3.70641 0.507514 0
M  V30 5180 H 478.73 4.87379 0.687233 0
M  V30 5181 N 480.382 0.0267497 1.57577 0
M  V30 5182 C 481.622 -0.65659 1.93567 0
M  V30 5183 C 481.986 -1.69429 0.903213 0
M  V30 5184 O 483.187 -2.42994 1.14923 0
M  V30 5185 C 481.458 -1.25912 3.34486 0
M  V30 5186 S 483.017 -1.96386 3.924 0
M  V30 5187 H 479.835 -0.216237 0.67732 0
M  V30 5188 H 482.437 0.0898475 1.95293 0
M  V30 5189 H 481.141 -0.491405 4.07447 0
M  V30 5190 H 480.672 -2.04291 3.36198 0
M  V30 5191 H 482.687 -3.24202 3.75643 0
M  V30 5192 N 481.861 -1.55662 -0.24637 0
M  V30 5193 C 483.277 -1.48098 -0.594907 0
M  V30 5194 C 483.477 -0.717044 -1.8831 0
M  V30 5195 O 482.533 -0.246618 -2.51293 0
M  V30 5196 C 483.846 -2.92507 -0.697146 0
M  V30 5197 C 485.394 -3.02881 -0.789436 0
M  V30 5198 C 485.869 -4.48598 -0.923232 0
M  V30 5199 N 487.36 -4.52538 -0.988088 0
M  V30 5200 C 488.095 -5.62536 -1.11089 0
M  V30 5201 N 487.591 -6.82342 -1.19919 0
M  V30 5202 N 489.384 -5.50334 -1.14408 0
M  V30 5203 H 481.535 -2.0377 0.599278 0
M  V30 5204 H 483.798 -0.925145 0.20691 0
M  V30 5205 H 483.504 -3.51242 0.179396 0
M  V30 5206 H 483.378 -3.43024 -1.5689 0
M  V30 5207 H 485.765 -2.44226 -1.65643 0
M  V30 5208 H 485.846 -2.55574 0.107482 0
M  V30 5209 H 485.49 -5.07864 -0.0607927 0
M  V30 5210 H 485.42 -4.93587 -1.8352 0
M  V30 5211 H 487.911 -3.66248 -0.931167 0
M  V30 5212 H 488.224 -7.61924 -1.29197 0
M  V30 5213 H 486.569 -6.85102 -1.16876 0
M  V30 5214 H 489.76 -4.5567 -1.07158 0
M  V30 5215 H 489.933 -6.36096 -1.23634 0
M  V30 5216 N 483.339 0.512053 -1.4905 0
M  V30 5217 C 484.287 1.63568 -1.65373 0
M  V30 5218 C 485.281 1.61228 -0.519806 0
M  V30 5219 O 486.487 1.65869 -0.699101 0
M  V30 5220 H 482.862 0.542019 -0.521267 0
M  V30 5221 H 484.833 1.4695 -2.59708 0
M  V30 5222 C 483.582 3.01761 -1.7273 0
M  V30 5223 H 482.905 3.04263 -2.59353 0
M  V30 5224 H 484.345 3.79948 -1.8819 0
M  V30 5225 C 482.804 3.33609 -0.46973 0
M  V30 5226 O 483.334 3.99607 0.409492 0
M  V30 5227 N 481.54 2.88651 -0.336003 0
M  V30 5228 H 481.087 2.35119 -1.05247 0
M  V30 5229 H 481.045 3.10328 0.504363 0
M  V30 5230 N 484.817 1.37938 0.762283 0
M  V30 5231 C 486.066 1.32989 1.51647 0
M  V30 5232 C 486.379 -0.0802922 1.95435 0
M  V30 5233 O 487.585 -0.252295 2.70325 0
M  V30 5234 C 486.041 2.33485 2.73885 0
M  V30 5235 C 485.649 3.80079 2.37157 0
M  V30 5236 C 487.393 2.37563 3.51801 0
M  V30 5237 C 485.3 4.72283 3.55954 0
M  V30 5238 H 484.23 0.494301 0.56937 0
M  V30 5239 H 486.881 1.63448 0.834083 0
M  V30 5240 H 485.263 1.96056 3.44061 0
M  V30 5241 H 486.437 4.26398 1.74704 0
M  V30 5242 H 484.752 3.79037 1.72395 0
M  V30 5243 H 487.349 3.0365 4.40114 0
M  V30 5244 H 487.692 1.39199 3.92338 0
M  V30 5245 H 488.225 2.73747 2.8863 0
M  V30 5246 H 484.964 5.7181 3.2049 0
M  V30 5247 H 484.484 4.30663 4.1748 0
M  V30 5248 H 486.163 4.89876 4.22647 0
M  V30 5249 N 486.295 -0.989507 1.22664 0
M  V30 5250 C 487.541 -1.7321 1.05481 0
M  V30 5251 C 487.874 -1.89852 -0.408635 0
M  V30 5252 O 487.149 -1.44416 -1.30285 0
M  V30 5253 C 487.432 -3.1357 1.77047 0
M  V30 5254 C 487.285 -3.04555 3.31008 0
M  V30 5255 C 488.604 -4.12812 1.5256 0
M  V30 5256 H 485.723 -0.628697 0.384589 0
M  V30 5257 H 488.365 -1.15258 1.51049 0
M  V30 5258 H 486.515 -3.63046 1.3831 0
M  V30 5259 H 488.187 -2.62674 3.7921 0
M  V30 5260 H 486.43 -2.41278 3.6051 0
M  V30 5261 H 487.101 -4.03894 3.76263 0
M  V30 5262 H 489.577 -3.72106 1.86215 0
M  V30 5263 H 488.453 -5.09132 2.05124 0
M  V30 5264 H 488.714 -4.39711 0.458936 0
M  V30 5265 N 487.773 -1.03688 -1.18687 0
M  V30 5266 C 489.019 -0.74888 -1.89112 0
M  V30 5267 C 489.374 0.715345 -1.78607 0
M  V30 5268 O 488.667 1.51498 -1.17299 0
M  V30 5269 C 488.861 -1.14477 -3.3857 0
M  V30 5270 C 488.69 -2.64594 -3.63621 0
M  V30 5271 C 487.46 -3.31685 -3.812 0
M  V30 5272 C 489.658 -3.62811 -3.64517 0
M  V30 5273 N 487.64 -4.70822 -3.93955 0
M  V30 5274 C 489.011 -4.87603 -3.8294 0
M  V30 5275 C 491.066 -3.56495 -3.47585 0
M  V30 5276 C 489.769 -6.0684 -3.86184 0
M  V30 5277 C 491.795 -4.75155 -3.52111 0
M  V30 5278 C 491.157 -5.98765 -3.71026 0
M  V30 5279 H 487.256 -0.32603 -0.710794 0
M  V30 5280 H 489.84 -1.3258 -1.42586 0
M  V30 5281 H 488.011 -0.595974 -3.838 0
M  V30 5282 H 489.743 -0.808187 -3.96548 0
M  V30 5283 H 486.498 -2.82091 -3.80423 0
M  V30 5284 H 486.922 -5.43122 -4.04163 0
M  V30 5285 H 491.564 -2.61907 -3.31911 0
M  V30 5286 H 489.282 -7.01788 -4.00648 0
M  V30 5287 H 492.868 -4.71905 -3.40289 0
M  V30 5288 H 491.748 -6.89047 -3.74412 0
M  V30 5289 N 489.251 1.34841 -0.815825 0
M  V30 5290 C 490.5 1.97755 -0.396976 0
M  V30 5291 C 490.813 1.65422 1.04379 0
M  V30 5292 O 492.019 2.21771 1.5662 0
M  V30 5293 C 490.475 3.53818 -0.658869 0
M  V30 5294 C 490.083 3.95051 -2.11278 0
M  V30 5295 C 491.827 4.23397 -0.305834 0
M  V30 5296 C 489.734 5.43997 -2.31994 0
M  V30 5297 H 488.664 0.739985 -0.1447 0
M  V30 5298 H 491.315 1.53781 -1.00118 0
M  V30 5299 H 489.697 3.95997 0.0154112 0
M  V30 5300 H 490.871 3.63998 -2.82564 0
M  V30 5301 H 489.186 3.38388 -2.42657 0
M  V30 5302 H 491.783 5.32899 -0.43854 0
M  V30 5303 H 492.126 4.09508 0.748952 0
M  V30 5304 H 492.659 3.8667 -0.934403 0
M  V30 5305 H 489.398 5.62865 -3.35952 0
M  V30 5306 H 488.918 5.76589 -1.65244 0
M  V30 5307 H 490.597 6.10584 -2.14001 0
M  V30 5308 N 490.729 0.570148 1.46925 0
M  V30 5309 C 491.692 -0.159933 2.28641 0
M  V30 5310 C 492.692 -0.830638 1.37685 0
M  V30 5311 O 493.882 -0.684516 1.60187 0
M  V30 5312 C 491.014 -1.2354 3.17727 0
M  V30 5313 H 492.207 0.558035 2.94662 0
M  V30 5314 H 489.76 0.327603 1.52828 0
M  V30 5315 H 490.495 -1.98535 2.56426 0
M  V30 5316 H 490.28 -0.759125 3.84681 0
M  V30 5317 H 491.77 -1.74782 3.79264 0
M  V30 5318 N 492.207 -1.54576 0.307264 0
M  V30 5319 C 493.117 -2.27435 -0.57536 0
M  V30 5320 C 494.133 -1.31183 -1.14311 0
M  V30 5321 O 495.309 -1.64175 -1.16656 0
M  V30 5322 C 492.374 -3.00566 -1.72803 0
M  V30 5323 C 491.435 -4.12369 -1.19373 0
M  V30 5324 C 490.668 -4.82003 -2.29147 0
M  V30 5325 O 490.891 -4.51038 -3.49171 0
M  V30 5326 O 489.825 -5.69271 -1.95485 0
M  V30 5327 H 493.651 -3.03696 0.0158558 0
M  V30 5328 H 491.236 -1.49219 0.0735064 0
M  V30 5329 H 493.118 -3.46416 -2.39946 0
M  V30 5330 H 491.793 -2.27195 -2.30574 0
M  V30 5331 H 490.7 -3.70905 -0.487851 0
M  V30 5332 H 492.033 -4.87736 -0.661376 0
M  V30 5333 N 493.685 -0.035106 -1.57561 0
M  V30 5334 C 494.925 0.646316 -1.93913 0
M  V30 5335 C 495.289 1.68947 -0.912185 0
M  V30 5336 O 496.49 2.42381 -1.1621 0
M  V30 5337 C 494.761 1.24136 -3.35149 0
M  V30 5338 S 496.32 1.94302 -3.93436 0
M  V30 5339 H 493.138 0.212642 -0.678457 0
M  V30 5340 H 495.74 -0.100203 -1.95243 0
M  V30 5341 H 494.444 0.46979 -4.07702 0
M  V30 5342 H 493.975 2.02505 -3.37276 0
M  V30 5343 H 495.99 3.22205 -3.77357 0
M  V30 5344 N 495.163 1.55791 0.238111 0
M  V30 5345 C 496.412 1.77234 0.962868 0
M  V30 5346 C 496.725 0.600661 1.86149 0
M  V30 5347 O 497.931 0.698315 2.62366 0
M  V30 5348 C 496.387 3.13808 1.76218 0
M  V30 5349 C 495.995 4.3865 0.910518 0
M  V30 5350 C 497.739 3.44585 2.47914 0
M  V30 5351 C 495.646 5.66252 1.70623 0
M  V30 5352 H 494.576 0.660731 0.36325 0
M  V30 5353 H 497.227 1.8221 0.217242 0
M  V30 5354 H 495.609 3.02963 2.55009 0
M  V30 5355 H 496.783 4.60507 0.164316 0
M  V30 5356 H 495.098 4.15271 0.30647 0
M  V30 5357 H 497.695 4.3714 3.07917 0
M  V30 5358 H 498.038 2.66314 3.19973 0
M  V30 5359 H 498.571 3.56685 1.76127 0
M  V30 5360 H 495.31 6.47369 1.02923 0
M  V30 5361 H 494.83 5.48483 2.42748 0
M  V30 5362 H 496.509 6.05829 2.27114 0
M  V30 5363 N 496.642 -0.504142 1.49319 0
M  V30 5364 C 497.605 -1.5883 1.65244 0
M  V30 5365 C 498.605 -1.52009 0.524386 0
M  V30 5366 O 499.795 -1.55218 0.79077 0
M  V30 5367 C 496.927 -2.98481 1.64687 0
M  V30 5368 H 498.12 -1.4604 2.61939 0
M  V30 5369 H 495.673 -0.728144 1.38303 0
M  V30 5370 H 496.408 -3.16751 0.695644 0
M  V30 5371 H 496.193 -3.0484 2.46607 0
M  V30 5372 H 497.683 -3.77256 1.79075 0
M  V30 5373 N 498.12 -1.38341 -0.754957 0
M  V30 5374 C 499.052 -1.31347 -1.87831 0
M  V30 5375 C 500.065 -0.225955 -1.61224 0
M  V30 5376 O 501.254 -0.48341 -1.7183 0
M  V30 5377 C 498.354 -1.01201 -3.23437 0
M  V30 5378 C 497.527 -2.20834 -3.77559 0
M  V30 5379 C 496.586 -1.87454 -4.91678 0
M  V30 5380 O 495.612 -2.59934 -5.06382 0
M  V30 5381 N 496.814 -0.828682 -5.74555 0
M  V30 5382 H 499.579 -2.28147 -1.94342 0
M  V30 5383 H 497.14 -1.32184 -0.934828 0
M  V30 5384 H 499.132 -0.769249 -3.97322 0
M  V30 5385 H 497.702 -0.132011 -3.12321 0
M  V30 5386 H 496.922 -2.61184 -2.95256 0
M  V30 5387 H 498.21 -3.00678 -4.10451 0
M  V30 5388 H 497.608 -0.227591 -5.65242 0
M  V30 5389 H 496.165 -0.645802 -6.48593 0
M  V30 5390 N 499.598 0.982988 -1.23187 0
M  V30 5391 C 501.014 1.2487 -0.993967 0
M  V30 5392 C 501.214 1.99155 0.306498 0
M  V30 5393 O 500.27 2.30688 1.0266 0
M  V30 5394 C 501.583 2.05078 -2.19917 0
M  V30 5395 C 503.131 2.18227 -2.2438 0
M  V30 5396 C 503.606 3.01825 -3.44479 0
M  V30 5397 N 505.097 3.09411 -3.44702 0
M  V30 5398 C 505.832 3.74412 -4.34285 0
M  V30 5399 N 505.328 4.41259 -5.341 0
M  V30 5400 N 507.121 3.71273 -4.22035 0
M  V30 5401 H 499.272 0.485253 -2.06783 0
M  V30 5402 H 501.535 0.276979 -0.906635 0
M  V30 5403 H 501.241 1.57867 -3.14279 0
M  V30 5404 H 501.115 3.05829 -2.2079 0
M  V30 5405 H 503.502 2.64648 -1.30559 0
M  V30 5406 H 503.583 1.16873 -2.2754 0
M  V30 5407 H 503.227 2.56102 -4.38605 0
M  V30 5408 H 503.157 4.03342 -3.38559 0
M  V30 5409 H 505.648 2.61845 -2.7248 0
M  V30 5410 H 505.961 4.88629 -5.98717 0
M  V30 5411 H 504.306 4.39975 -5.38002 0
M  V30 5412 H 507.497 3.18217 -3.43301 0
M  V30 5413 H 507.67 4.21649 -4.92053 0
M  V30 5414 N 501.076 1.04316 1.18135 0
M  V30 5415 C 502.026 0.606731 2.19779 0
M  V30 5416 C 503.01 -0.352144 1.56999 0
M  V30 5417 O 504.202 -0.170795 1.76174 0
M  V30 5418 C 501.331 -0.0262443 3.4329 0
M  V30 5419 C 500.417 0.955928 4.13186 0
M  V30 5420 N 500.808 2.12395 4.59045 0
M  V30 5421 C 499.106 0.782473 4.39082 0
M  V30 5422 C 499.807 2.74458 5.12882 0
M  V30 5423 N 498.783 2.02316 5.04548 0
M  V30 5424 H 502.585 1.49679 2.5293 0
M  V30 5425 H 500.099 0.912088 1.34368 0
M  V30 5426 H 502.096 -0.356617 4.15372 0
M  V30 5427 H 500.756 -0.911811 3.11635 0
M  V30 5428 H 501.767 2.50272 4.53414 0
M  V30 5429 H 498.444 -0.0527906 4.17467 0
M  V30 5430 H 499.834 3.73459 5.5855 0
M  V30 5431 N 502.554 -1.34406 0.822964 0
M  V30 5432 C 503.97 -1.51275 0.508727 0
M  V30 5433 C 504.17 -1.76776 -0.967083 0
M  V30 5434 O 503.226 -1.81871 -1.75155 0
M  V30 5435 C 504.539 -2.67765 1.36829 0
M  V30 5436 C 506.087 -2.81647 1.36542 0
M  V30 5437 C 506.562 -4.01181 2.20947 0
M  V30 5438 N 508.053 -4.08388 2.18571 0
M  V30 5439 C 508.788 -5.00036 2.80627 0
M  V30 5440 N 508.284 -5.96906 3.51674 0
M  V30 5441 N 510.077 -4.92908 2.70181 0
M  V30 5442 H 502.228 -1.16113 1.77852 0
M  V30 5443 H 504.491 -0.56947 0.757897 0
M  V30 5444 H 504.197 -2.55551 2.41633 0
M  V30 5445 H 504.071 -3.62779 1.03303 0
M  V30 5446 H 506.458 -2.93303 0.325163 0
M  V30 5447 H 506.539 -1.87443 1.74066 0
M  V30 5448 H 506.183 -3.90286 3.25022 0
M  V30 5449 H 506.113 -4.94599 1.80774 0
M  V30 5450 H 508.604 -3.39051 1.66891 0
M  V30 5451 H 508.917 -6.63468 3.96271 0
M  V30 5452 H 507.262 -5.9703 3.5578 0
M  V30 5453 H 510.453 -4.1619 2.14251 0
M  V30 5454 H 510.626 -5.64137 3.18831 0
M  V30 5455 N 504.032 -0.577932 -1.46621 0
M  V30 5456 C 504.995 0.147805 -2.28723 0
M  V30 5457 C 505.995 0.823325 -1.38123 0
M  V30 5458 O 507.185 0.676011 -1.60548 0
M  V30 5459 C 504.317 1.21853 -3.18378 0
M  V30 5460 H 505.51 -0.573654 -2.94362 0
M  V30 5461 H 503.063 -0.335703 -1.52652 0
M  V30 5462 H 503.798 1.97173 -2.57475 0
M  V30 5463 H 503.583 0.738714 -3.85078 0
M  V30 5464 H 505.073 1.72768 -3.80186 0
M  V30 5465 N 505.51 1.54411 -0.315457 0
M  V30 5466 C 506.457 2.24048 0.554166 0
M  V30 5467 C 507.427 1.2283 1.11812 0
M  V30 5468 O 508.612 1.51491 1.15997 0
M  V30 5469 C 505.752 2.99574 1.71316 0
M  V30 5470 C 504.865 4.15594 1.17922 0
M  V30 5471 C 504 4.78669 2.30324 0
M  V30 5472 C 503.039 5.86807 1.74137 0
M  V30 5473 N 502.176 6.43777 2.8017 0
M  V30 5474 H 507.016 2.97964 -0.0462602 0
M  V30 5475 H 504.553 1.47059 -0.0346009 0
M  V30 5476 H 506.511 3.41604 2.39505 0
M  V30 5477 H 505.141 2.28008 2.285 0
M  V30 5478 H 504.193 3.78404 0.389136 0
M  V30 5479 H 505.505 4.93459 0.728012 0
M  V30 5480 H 504.659 5.23626 3.06433 0
M  V30 5481 H 503.398 4.00168 2.78778 0
M  V30 5482 H 502.403 5.41261 0.965236 0
M  V30 5483 H 503.628 6.67201 1.2657 0
M  V30 5484 H 501.574 5.68153 3.2793 0
M  V30 5485 H 501.491 7.17031 2.39588 0
M  V30 5486 H 502.759 6.9339 3.56132 0
M  V30 5487 N 506.988 0.0434614 1.5754 0
M  V30 5488 C 508.237 -0.631454 1.91561 0
M  V30 5489 C 508.55 -1.72457 0.92292 0
M  V30 5490 O 509.756 -2.45712 1.15489 0
M  V30 5491 C 508.212 -1.17447 3.40197 0
M  V30 5492 C 507.82 -0.113867 4.47855 0
M  V30 5493 C 509.564 -1.82507 3.83264 0
M  V30 5494 C 507.471 -0.669326 5.876 0
M  V30 5495 H 506.401 -0.239629 0.714908 0
M  V30 5496 H 509.052 0.111097 1.83163 0
M  V30 5497 H 507.434 -1.96909 3.43574 0
M  V30 5498 H 508.608 0.659348 4.56058 0
M  V30 5499 H 506.923 0.438821 4.14081 0
M  V30 5500 H 509.52 -2.25047 4.85034 0
M  V30 5501 H 509.863 -2.67365 3.19095 0
M  V30 5502 H 510.396 -1.09712 3.82372 0
M  V30 5503 H 507.135 0.141449 6.55347 0
M  V30 5504 H 506.655 -1.4107 5.82974 0
M  V30 5505 H 508.334 -1.15463 6.36614 0
M  V30 5506 N 508.466 -1.55915 -0.229846 0
M  V30 5507 C 509.743 -1.6932 -0.979295 0
M  V30 5508 C 510.123 -0.588321 -2.02736 0
M  V30 5509 O 509.471 0.40586 -2.24867 0
M  V30 5510 C 509.681 -3.10305 -1.59724 0
M  V30 5511 C 511.029 -3.6945 -2.09264 0
M  V30 5512 O 512.053 -3.13214 -1.69633 0
M  V30 5513 O 510.912 -4.68072 -2.82082 0
M  V30 5514 H 508.006 -0.689314 -0.456919 0
M  V30 5515 H 510.552 -1.68238 -0.222283 0
M  V30 5516 H 509.324 -3.82177 -0.840039 0
M  V30 5517 H 508.947 -3.1547 -2.42001 0
M  V30 5518 N 509.944 0.496216 -1.49584 0
M  V30 5519 C 510.892 1.61805 -1.67098 0
M  V30 5520 C 511.886 1.60667 -0.536877 0
M  V30 5521 O 513.092 1.65118 -0.716654 0
M  V30 5522 H 509.467 0.53646 -0.526986 0
M  V30 5523 H 511.438 1.44187 -2.61252 0
M  V30 5524 C 510.187 2.99912 -1.75921 0
M  V30 5525 H 509.51 3.01496 -2.62565 0
M  V30 5526 H 510.95 3.77931 -1.92209 0
M  V30 5527 C 509.409 3.33092 -0.505088 0
M  V30 5528 O 509.939 4.00019 0.367085 0
M  V30 5529 N 508.145 2.88278 -0.366599 0
M  V30 5530 H 507.692 2.33989 -1.07735 0
M  V30 5531 H 507.65 3.10846 0.47142 0
M  V30 5532 N 511.423 1.38739 0.74761 0
M  V30 5533 C 512.653 1.3832 1.53464 0
M  V30 5534 C 513.061 -0.0273464 1.8918 0
M  V30 5535 O 512.404 -1.00588 1.53713 0
M  V30 5536 C 512.466 2.18007 2.85855 0
M  V30 5537 C 512.13 3.66762 2.72644 0
M  V30 5538 C 513.127 4.60124 2.42037 0
M  V30 5539 C 510.812 4.10193 2.89909 0
M  V30 5540 C 512.806 5.94897 2.28859 0
M  V30 5541 C 510.493 5.45045 2.7635 0
M  V30 5542 C 511.491 6.37211 2.45869 0
M  V30 5543 O 511.179 7.69581 2.3238 0
M  V30 5544 H 510.911 0.474718 0.481268 0
M  V30 5545 H 513.465 1.83012 0.932518 0
M  V30 5546 H 511.695 1.68043 3.48279 0
M  V30 5547 H 513.384 2.09921 3.47402 0
M  V30 5548 H 514.15 4.27874 2.28361 0
M  V30 5549 H 510.029 3.38797 3.1263 0
M  V30 5550 H 513.573 6.66802 2.04989 0
M  V30 5551 H 509.47 5.76889 2.89601 0
M  V30 5552 H 510.238 7.80169 2.47546 0
M  V30 5553 N 512.901 -0.976442 1.23707 0
M  V30 5554 C 514.15 -1.71254 1.06559 0
M  V30 5555 C 514.463 -1.91528 -0.397024 0
M  V30 5556 O 515.669 -2.62625 -0.688518 0
M  V30 5557 C 514.125 -3.08207 1.8584 0
M  V30 5558 C 513.733 -2.95806 3.36456 0
M  V30 5559 C 515.477 -3.85749 1.77194 0
M  V30 5560 C 513.384 -4.28015 4.08114 0
M  V30 5561 H 512.314 -0.642171 0.395136 0
M  V30 5562 H 514.965 -1.08877 1.4771 0
M  V30 5563 H 513.347 -3.71363 1.37498 0
M  V30 5564 H 514.521 -2.41716 3.92314 0
M  V30 5565 H 512.836 -2.31736 3.45959 0
M  V30 5566 H 515.433 -4.83633 2.28041 0
M  V30 5567 H 515.776 -4.09752 0.735477 0
M  V30 5568 H 516.309 -3.29303 2.23169 0
M  V30 5569 H 513.048 -4.09208 5.12083 0
M  V30 5570 H 512.568 -4.81955 3.57043 0
M  V30 5571 H 514.247 -4.96681 4.14629 0
M  V30 5572 N 514.379 -1.04941 -1.1758 0
M  V30 5573 C 515.79 -0.784501 -1.69418 0
M  V30 5574 C 516.141 0.693625 -1.8353 0
M  V30 5575 O 515.266 1.53925 -1.52106 0
M  V30 5576 C 515.861 -1.41746 -3.07723 0
M  V30 5577 C 514.42 -1.20066 -3.56737 0
M  V30 5578 C 513.567 -1.5026 -2.33061 0
M  V30 5579 H 516.518 -1.21469 -1.02133 0
M  V30 5580 H 516.539 -0.825381 -3.7144 0
M  V30 5581 H 516.051 -2.49325 -2.9742 0
M  V30 5582 H 514.152 -0.144006 -3.72322 0
M  V30 5583 H 514.265 -1.90384 -4.39648 0
M  V30 5584 H 512.629 -0.922598 -2.37403 0
M  V30 5585 H 513.412 -2.58967 -2.25368 0
M  V30 5586 N 515.857 1.33968 -0.830081 0
M  V30 5587 C 517.106 1.97323 -0.417928 0
M  V30 5588 C 517.419 1.6652 1.02618 0
M  V30 5589 O 518.625 2.2342 1.54259 0
M  V30 5590 C 517.081 3.53099 -0.696359 0
M  V30 5591 C 516.689 3.92788 -2.15457 0
M  V30 5592 C 518.433 4.23049 -0.350724 0
M  V30 5593 C 516.34 5.41506 -2.37751 0
M  V30 5594 H 515.27 0.738409 -0.152541 0
M  V30 5595 H 517.921 1.52711 -1.01744 0
M  V30 5596 H 516.303 3.95991 -0.0265904 0
M  V30 5597 H 517.477 3.6098 -2.86408 0
M  V30 5598 H 515.792 3.35795 -2.46232 0
M  V30 5599 H 518.389 5.32403 -0.495036 0
M  V30 5600 H 518.732 4.10279 0.705476 0
M  V30 5601 H 519.265 3.85657 -0.975362 0
M  V30 5602 H 516.004 5.5927 -3.41903 0
M  V30 5603 H 515.524 5.74804 -1.7135 0
M  V30 5604 H 517.203 6.0828 -2.20465 0
M  V30 5605 N 517.335 0.585699 1.46312 0
M  V30 5606 C 518.582 0.0724211 2.0237 0
M  V30 5607 C 518.91 -1.28868 1.45683 0
M  V30 5608 O 518.165 -1.85853 0.612945 0
M  V30 5609 C 518.464 -0.0401312 3.57377 0
M  V30 5610 C 518.13 1.25376 4.33119 0
M  V30 5611 C 516.792 1.60824 4.5353 0
M  V30 5612 C 519.144 2.10987 4.76586 0
M  V30 5613 C 516.472 2.81676 5.14661 0
M  V30 5614 C 518.824 3.31068 5.39052 0
M  V30 5615 C 517.488 3.66794 5.5769 0
M  V30 5616 H 516.758 0.0265007 0.740526 0
M  V30 5617 H 519.405 0.762935 1.75646 0
M  V30 5618 H 517.71 -0.813791 3.83255 0
M  V30 5619 H 519.407 -0.453078 3.98432 0
M  V30 5620 H 515.997 0.967808 4.1753 0
M  V30 5621 H 520.181 1.84904 4.60569 0
M  V30 5622 H 515.437 3.0949 5.27282 0
M  V30 5623 H 519.611 3.97672 5.71691 0
M  V30 5624 H 517.238 4.60529 6.04828 0
M  V30 5625 O 518.852 -1.54637 0.465785 0
M  V30 5626 H 519.543 -1.93604 -0.0608748 0
M  V30 END ATOM
M  V30 BEGIN BOND
M  V30 END BOND
M  V30 END CTAB
M  END
$$$$
