drugbank_target|P23246 Splicing factor, proline- and glutamine-rich (DB09130; DB11638)
 OpenBabel12092121053D

  0  0  0     0  0            999 V3000
M  V30 BEGIN CTAB
M  V30 COUNTS 10534 10703 0 0 0
M  V30 BEGIN ATOM
M  V30 1 H -0.908 1.98254 -0.117106 0
M  V30 2 N 0 1.576 0 0
M  V30 3 C 0.933 2.03868 1.02534 0
M  V30 4 C 1.911 0.928543 1.3348 0
M  V30 5 O 3.095 1.19667 1.45644 0
M  V30 6 C 0.222 2.43627 2.35294 0
M  V30 7 C -0.732 3.65373 2.2001 0
M  V30 8 S 0.101 5.13292 1.52614 0
M  V30 9 C 1.257 5.56322 2.86805 0
M  V30 10 H 1.49 2.90518 0.631377 0
M  V30 11 H -0.977 1.52953 0.210867 0
M  V30 12 H 0.981 2.67203 3.11629 0
M  V30 13 H -0.358 1.57376 2.7183 0
M  V30 14 H -1.165 3.90944 3.18086 0
M  V30 15 H -1.563 3.418 1.51819 0
M  V30 16 H 0.729 5.58782 3.83104 0
M  V30 17 H 1.672 6.56266 2.65933 0
M  V30 18 H 2.08 4.83886 2.90714 0
M  V30 19 N 1.4781 -0.272755 1.55222 0
M  V30 20 C 2.7031 -1.02683 1.80197 0
M  V30 21 C 3.1281 -1.79142 0.573551 0
M  V30 22 O 2.4861 -1.74917 -0.476849 0
M  V30 23 C 2.5341 -1.9609 3.02624 0
M  V30 24 O 1.6381 -3.04863 2.77727 0
M  V30 25 H 0.9791 -0.293557 0.595584 0
M  V30 26 H 3.5091 -0.30159 2.02365 0
M  V30 27 H 3.5191 -2.38039 3.31363 0
M  V30 28 H 2.1941 -1.39851 3.91682 0
M  V30 29 H 0.7711 -2.67228 2.60084 0
M  V30 30 N 2.9562 -1.48159 -0.537278 0
M  V30 31 C 4.3722 -1.34118 -0.865129 0
M  V30 32 C 4.5722 -0.346678 -1.98495 0
M  V30 33 O 3.6282 0.234715 -2.51407 0
M  V30 34 C 4.9412 -2.73963 -1.23954 0
M  V30 35 C 6.4892 -2.82397 -1.34984 0
M  V30 36 C 6.9642 -4.22928 -1.75772 0
M  V30 37 N 8.4552 -4.25566 -1.82887 0
M  V30 38 C 9.1902 -5.31235 -2.15817 0
M  V30 39 N 8.6862 -6.47189 -2.47222 0
M  V30 40 N 10.4792 -5.18624 -2.16761 0
M  V30 41 H 2.6302 -2.1144 0.201715 0
M  V30 42 H 4.8932 -0.947598 0.0275949 0
M  V30 43 H 4.5992 -3.48264 -0.490381 0
M  V30 44 H 4.4732 -3.0702 -2.19132 0
M  V30 45 H 6.8602 -2.08356 -2.08978 0
M  V30 46 H 6.9412 -2.5297 -0.379448 0
M  V30 47 H 6.5852 -4.97482 -1.02341 0
M  V30 48 H 6.5152 -4.49794 -2.73848 0
M  V30 49 H 9.0062 -3.41924 -1.60924 0
M  V30 50 H 9.3192 -7.23564 -2.71433 0
M  V30 51 H 7.6642 -6.50476 -2.44757 0
M  V30 52 H 10.8552 -4.27056 -1.91679 0
M  V30 53 H 11.0282 -6.01078 -2.42093 0
M  V30 54 N 4.4343 0.785586 -1.36625 0
M  V30 55 C 5.7113 1.53198 -1.21613 0
M  V30 56 C 6.0913 2.10187 0.196113 0
M  V30 57 O 5.4393 1.94318 1.20219 0
M  V30 58 C 5.6493 2.62388 -2.30116 0
M  V30 59 C 6.9973 3.30167 -2.66974 0
M  V30 60 O 8.0213 2.72674 -2.29188 0
M  V30 61 O 6.8803 4.34077 -3.32023 0
M  V30 62 H 3.9743 0.677865 -0.473738 0
M  V30 63 H 6.5203 0.823739 -1.48367 0
M  V30 64 H 5.2923 2.18299 -3.24748 0
M  V30 65 H 4.9153 3.40827 -2.0475 0
M  V30 66 N 5.9124 1.20967 1.01018 0
M  V30 67 C 7.3284 0.965905 1.27053 0
M  V30 68 C 7.5284 -0.350785 1.98423 0
M  V30 69 O 6.5844 -1.07773 2.28344 0
M  V30 70 C 7.8974 2.15294 2.09926 0
M  V30 71 C 9.4454 2.19463 2.23171 0
M  V30 72 C 9.9204 3.3767 3.09424 0
M  V30 73 N 11.4114 3.37724 3.17012 0
M  V30 74 C 12.1464 4.25837 3.83993 0
M  V30 75 N 11.6424 5.24138 4.53047 0
M  V30 76 N 13.4354 4.1366 3.80581 0
M  V30 77 H 5.5864 2.0565 0.531194 0
M  V30 78 H 7.8494 0.90024 0.297106 0
M  V30 79 H 7.5554 3.10684 1.64828 0
M  V30 80 H 7.4294 2.13923 3.10672 0
M  V30 81 H 9.8164 1.24632 2.6749 0
M  V30 82 H 9.8974 2.2488 1.21912 0
M  V30 83 H 9.5414 4.32791 2.65808 0
M  V30 84 H 9.4714 3.29491 4.10784 0
M  V30 85 H 11.9624 2.6658 2.6785 0
M  V30 86 H 12.2754 5.87684 5.01844 0
M  V30 87 H 10.6204 5.28068 4.5185 0
M  V30 88 H 13.8114 3.36127 3.25785 0
M  V30 89 H 13.9844 4.82538 4.32505 0
M  V30 90 N 7.3905 -1.2043 1.01659 0
M  V30 91 C 8.6375 -1.89797 0.705917 0
M  V30 92 C 8.9655 -1.78848 -0.764439 0
M  V30 93 O 8.2205 -1.16694 -1.57102 0
M  V30 94 C 8.5195 -3.40464 1.08714 0
M  V30 95 C 8.1855 -3.71614 2.5537 0
M  V30 96 C 6.8475 -3.79826 2.95441 0
M  V30 97 C 9.1995 -3.85915 3.50313 0
M  V30 98 C 6.5275 -3.99797 4.29394 0
M  V30 99 C 8.8795 -4.07396 4.83954 0
M  V30 100 C 7.5435 -4.13837 5.23732 0
M  V30 101 H 6.8135 -0.694518 0.258313 0
M  V30 102 H 9.4605 -1.42691 1.27717 0
M  V30 103 H 7.7655 -3.89385 0.434309 0
M  V30 104 H 9.4625 -3.92433 0.824461 0
M  V30 105 H 6.0525 -3.65822 2.23321 0
M  V30 106 H 10.2365 -3.78926 3.20513 0
M  V30 107 H 5.4925 -4.03018 4.59768 0
M  V30 108 H 9.6665 -4.17404 5.57447 0
M  V30 109 H 7.2935 -4.29064 6.27541 0
M  V30 110 N 8.8686 -0.792821 -1.36206 0
M  V30 111 C 10.2846 -0.474903 -1.52371 0
M  V30 112 C 10.4846 1.00622 -1.74578 0
M  V30 113 O 9.5406 1.79162 -1.77924 0
M  V30 114 C 10.8536 -1.3083 -2.70747 0
M  V30 115 C 12.4016 -1.30234 -2.84619 0
M  V30 116 C 12.8766 -2.11956 -4.06004 0
M  V30 117 N 14.3676 -2.09419 -4.13156 0
M  V30 118 C 15.1026 -2.69419 -5.06163 0
M  V30 119 N 14.5986 -3.3829 -6.04592 0
M  V30 120 N 16.3916 -2.59134 -4.98804 0
M  V30 121 H 8.5426 -1.75222 -1.20046 0
M  V30 122 H 10.8056 -0.745024 -0.586211 0
M  V30 123 H 10.5116 -2.35881 -2.6087 0
M  V30 124 H 10.3856 -0.95196 -3.6499 0
M  V30 125 H 12.7726 -0.259748 -2.93955 0
M  V30 126 H 12.8536 -1.69847 -1.91274 0
M  V30 127 H 12.4976 -3.16248 -3.97429 0
M  V30 128 H 12.4276 -1.69711 -4.98503 0
M  V30 129 H 14.9186 -1.59297 -3.42685 0
M  V30 130 H 15.2316 -3.81394 -6.7213 0
M  V30 131 H 13.5766 -3.42393 -6.04807 0
M  V30 132 H 16.7676 -2.04927 -4.20859 0
M  V30 133 H 16.9406 -3.06185 -5.711 0
M  V30 134 N 10.3467 1.47872 -0.545128 0
M  V30 135 C 11.5717 2.07391 -0.0190611 0
M  V30 136 C 11.9967 1.39688 1.25971 0
M  V30 137 O 11.3547 0.467816 1.7516 0
M  V30 138 C 11.4027 3.60188 0.172335 0
M  V30 139 O 10.5067 3.9339 1.23766 0
M  V30 140 H 9.8477 0.662411 -0.0459059 0
M  V30 141 H 12.3777 1.90066 -0.757365 0
M  V30 142 H 12.3877 4.06129 0.390305 0
M  V30 143 H 11.0627 4.08865 -0.761725 0
M  V30 144 H 9.6397 3.5921 1.00114 0
M  V30 145 N 11.8248 0.280983 1.55075 0
M  V30 146 C 13.2408 -0.0729964 1.59433 0
M  V30 147 C 13.4408 -1.5411 1.29817 0
M  V30 148 O 12.4968 -2.29086 1.06187 0
M  V30 149 C 13.8098 0.306921 2.9913 0
M  V30 150 C 15.3578 0.254023 3.11968 0
M  V30 151 C 15.8328 0.608467 4.5394 0
M  V30 152 N 17.3238 0.560241 4.59799 0
M  V30 153 C 18.0588 0.80722 5.6769 0
M  V30 154 N 17.5548 1.11912 6.83701 0
M  V30 155 N 19.3478 0.735623 5.57266 0
M  V30 156 H 11.4988 1.238 1.7259 0
M  V30 157 H 13.7618 0.500547 0.805082 0
M  V30 158 H 13.4678 1.32816 3.25657 0
M  V30 159 H 13.3418 -0.349363 3.75579 0
M  V30 160 H 15.7288 -0.75794 2.852 0
M  V30 161 H 15.8098 0.944649 2.37718 0
M  V30 162 H 15.4538 1.61814 4.81434 0
M  V30 163 H 15.3838 -0.104013 5.26497 0
M  V30 164 H 17.8748 0.329288 3.76463 0
M  V30 165 H 18.1878 1.29409 7.61888 0
M  V30 166 H 16.5328 1.15695 6.85303 0
M  V30 167 H 19.7238 0.491752 4.6551 0
M  V30 168 H 19.8968 0.931482 6.4127 0
M  V30 169 N 13.3029 -1.57598 0.00835791 0
M  V30 170 C 14.5509 -1.90551 -0.6734 0
M  V30 171 C 14.8719 -0.883301 -1.73847 0
M  V30 172 O 14.1419 0.0781442 -1.95744 0
M  V30 173 H 12.7219 -0.703312 -0.251717 0
M  V30 174 H 15.3839 -1.94833 0.0512592 0
M  V30 175 H 14.4799 -2.9056 -1.13935 0
M  V30 176 N 14.781 0.264519 -1.55364 0
M  V30 177 C 16.029 0.993021 -1.76021 0
M  V30 178 C 16.35 1.86511 -0.569099 0
M  V30 179 O 15.62 1.91438 0.415735 0
M  V30 180 H 14.2 0.369639 -0.649135 0
M  V30 181 H 16.862 0.286707 -1.9278 0
M  V30 182 H 15.958 1.62502 -2.66457 0
M  V30 183 N 16.2591 1.48442 0.529413 0
M  V30 184 C 17.5071 1.56179 1.28267 0
M  V30 185 C 17.8281 0.237721 1.93546 0
M  V30 186 O 17.0981 -0.740779 1.81354 0
M  V30 187 H 15.6781 0.575367 0.476405 0
M  V30 188 H 18.3401 1.84909 0.61602 0
M  V30 189 H 17.4361 2.34312 2.06165 0
M  V30 190 N 17.7372 -0.778329 1.37039 0
M  V30 191 C 18.9852 -1.53361 1.31623 0
M  V30 192 C 19.3062 -1.94739 -0.100831 0
M  V30 193 O 18.5762 -1.65797 -1.04347 0
M  V30 194 H 17.1562 -0.568794 0.484234 0
M  V30 195 H 19.8182 -0.926742 1.71457 0
M  V30 196 H 18.9142 -2.43606 1.95096 0
M  V30 197 N 19.2153 -1.21501 -1.00376 0
M  V30 198 C 20.4633 -1.03095 -1.73827 0
M  V30 199 C 20.7843 0.436341 -1.90055 0
M  V30 200 O 20.0543 1.31466 -1.45236 0
M  V30 201 H 18.6343 -0.378487 -0.644016 0
M  V30 202 H 21.2963 -1.52831 -1.20949 0
M  V30 203 H 20.3923 -1.49991 -2.73695 0
M  V30 204 N 20.6934 1.19889 -1.02296 0
M  V30 205 C 21.9414 1.89046 -0.714558 0
M  V30 206 C 22.2624 1.79636 0.758681 0
M  V30 207 O 21.5324 1.20292 1.54618 0
M  V30 208 H 20.1124 0.699802 -0.261317 0
M  V30 209 H 22.7744 1.45574 -1.29592 0
M  V30 210 H 21.8704 2.95524 -1.0036 0
M  V30 211 N 22.1715 0.800033 1.35784 0
M  V30 212 C 23.4185 0.377342 1.98953 0
M  V30 213 C 23.7465 -1.05378 1.6348 0
M  V30 214 O 23.0015 -1.74459 0.886707 0
M  V30 215 C 23.3005 0.500276 3.53881 0
M  V30 216 C 22.9665 1.89375 4.09204 0
M  V30 217 C 21.6285 2.27499 4.24025 0
M  V30 218 C 23.9805 2.8057 4.39238 0
M  V30 219 C 21.3085 3.562 4.66195 0
M  V30 220 C 23.6605 4.0871 4.82844 0
M  V30 221 C 22.3245 4.46843 4.95871 0
M  V30 222 H 21.5945 0.138079 0.728021 0
M  V30 223 H 24.2415 1.01955 1.62103 0
M  V30 224 H 22.5465 -0.225405 3.91151 0
M  V30 225 H 24.2435 0.154097 4.00704 0
M  V30 226 H 20.8335 1.58753 3.98115 0
M  V30 227 H 25.0175 2.52367 4.27346 0
M  V30 228 H 20.2735 3.85602 4.74469 0
M  V30 229 H 24.4475 4.79481 5.05046 0
M  V30 230 H 22.0745 5.46623 5.28306 0
M  V30 231 N 23.6496 -1.47581 0.552962 0
M  V30 232 C 24.5996 -2.26961 -0.217423 0
M  V30 233 C 25.5836 -1.34099 -0.889168 0
M  V30 234 O 26.7756 -1.58483 -0.788176 0
M  V30 235 C 23.9046 -3.19756 -1.24944 0
M  V30 236 C 22.9906 -4.20097 -0.581327 0
M  V30 237 N 23.3816 -5.04614 0.346171 0
M  V30 238 C 21.6796 -4.38099 -0.835767 0
M  V30 239 C 22.3806 -5.77052 0.733854 0
M  V30 240 N 21.3566 -5.43526 0.0896567 0
M  V30 241 H 25.1586 -2.89688 0.495761 0
M  V30 242 H 22.6726 -1.58068 0.372597 0
M  V30 243 H 24.6696 -3.75305 -1.81527 0
M  V30 244 H 23.3296 -2.58585 -1.96376 0
M  V30 245 H 24.3406 -5.12869 0.720098 0
M  V30 246 H 21.0176 -3.88102 -1.53892 0
M  V30 247 H 22.4076 -6.5504 1.49574 0
M  V30 248 N 25.1277 -0.289203 -1.54924 0
M  V30 249 C 26.5437 0.0645403 -1.59469 0
M  V30 250 C 26.7437 1.53419 -1.30632 0
M  V30 251 O 25.7997 2.2852 -1.074 0
M  V30 252 C 27.1127 -0.32278 -2.98963 0
M  V30 253 C 28.6607 -0.270564 -3.11828 0
M  V30 254 C 29.1357 -0.632532 -4.53611 0
M  V30 255 N 30.6267 -0.584617 -4.59496 0
M  V30 256 C 31.3617 -0.837314 -5.67254 0
M  V30 257 N 30.8577 -1.15536 -6.83098 0
M  V30 258 N 32.6507 -0.765166 -5.56868 0
M  V30 259 H 24.8017 -1.24714 -1.71931 0
M  V30 260 H 27.0647 -0.504809 -0.802416 0
M  V30 261 H 26.7707 -1.34541 -3.24948 0
M  V30 262 H 26.6447 0.32944 -3.75759 0
M  V30 263 H 29.0317 0.742805 -2.85598 0
M  V30 264 H 29.1127 -0.957242 -2.37214 0
M  V30 265 H 28.7567 -1.64365 -4.80569 0
M  V30 266 H 28.6867 0.07609 -5.26545 0
M  V30 267 H 31.1777 -0.349248 -3.76283 0
M  V30 268 H 31.4907 -1.33447 -7.61191 0
M  V30 269 H 29.8357 -1.19328 -6.84679 0
M  V30 270 H 33.0267 -0.516432 -4.65243 0
M  V30 271 H 33.1997 -0.965477 -6.40767 0
M  V30 272 N 26.6058 1.57591 -0.0167156 0
M  V30 273 C 28.0218 1.55946 0.339557 0
M  V30 274 C 28.2218 1.02109 1.73713 0
M  V30 275 O 27.2778 0.662303 2.43659 0
M  V30 276 C 28.5908 3.00037 0.199499 0
M  V30 277 C 30.1388 3.11805 0.273193 0
M  V30 278 C 30.6138 4.57713 0.162068 0
M  V30 279 N 32.1048 4.6268 0.219444 0
M  V30 280 C 32.8398 5.73185 0.157054 0
M  V30 281 N 32.3358 6.92786 0.0442936 0
M  V30 282 N 34.1288 5.61707 0.21014 0
M  V30 283 H 26.2798 1.90921 -0.930758 0
M  V30 284 H 28.5428 0.877674 -0.358319 0
M  V30 285 H 28.2488 3.4333 -0.76273 0
M  V30 286 H 28.1228 3.64387 0.974786 0
M  V30 287 H 30.5098 2.68433 1.22587 0
M  V30 288 H 30.5908 2.50201 -0.532256 0
M  V30 289 H 30.2348 5.01763 -0.78714 0
M  V30 290 H 30.1648 5.17283 0.986222 0
M  V30 291 H 32.6558 3.76649 0.307246 0
M  V30 292 H 32.9688 7.728 0.00304069 0
M  V30 293 H 31.3138 6.94999 0.00968457 0
M  V30 294 H 34.5048 4.6716 0.296546 0
M  V30 295 H 34.6778 6.47807 0.158054 0
M  V30 296 N 28.0839 -0.256276 1.55502 0
M  V30 297 C 29.3319 -0.983672 1.76545 0
M  V30 298 C 29.6529 -1.86206 0.578982 0
M  V30 299 O 28.9229 -1.91656 -0.405577 0
M  V30 300 H 27.5029 -0.366191 0.651086 0
M  V30 301 H 30.1649 -0.276479 1.92929 0
M  V30 302 H 29.2609 -1.61087 2.67315 0
M  V30 303 N 29.562 -1.4872 -0.521534 0
M  V30 304 C 30.81 -1.56857 -1.27437 0
M  V30 305 C 31.131 -0.247982 -1.93417 0
M  V30 306 O 30.401 0.731151 -1.81744 0
M  V30 307 H 28.981 -0.577885 -0.473347 0
M  V30 308 H 31.643 -1.85233 -0.606205 0
M  V30 309 H 30.739 -2.35402 -2.0492 0
M  V30 310 N 31.0401 0.771051 -1.3745 0
M  V30 311 C 32.2881 1.52661 -1.32435 0
M  V30 312 C 32.6091 1.9479 0.0905024 0
M  V30 313 O 31.8791 1.66348 1.03466 0
M  V30 314 H 30.4591 0.566218 -0.487244 0
M  V30 315 H 33.1211 0.917636 -1.71946 0
M  V30 316 H 32.2171 2.42568 -1.96385 0
M  V30 317 N 32.5182 1.22032 0.997298 0
M  V30 318 C 33.7662 1.04016 1.73278 0
M  V30 319 C 34.0872 -0.426255 1.90284 0
M  V30 320 O 33.3572 -1.30694 1.45931 0
M  V30 321 H 31.9372 0.381897 0.642 0
M  V30 322 H 34.5992 1.5347 1.20137 0
M  V30 323 H 33.6952 1.51441 2.72896 0
M  V30 324 N 33.9963 -1.19345 1.0293 0
M  V30 325 C 35.2443 -1.88665 0.724574 0
M  V30 326 C 35.5653 -1.80036 -0.749144 0
M  V30 327 O 34.8353 -1.2111 -1.53978 0
M  V30 328 H 33.4153 -0.698406 0.265025 0
M  V30 329 H 36.0773 -1.44885 1.30362 0
M  V30 330 H 35.1733 -2.94987 1.01926 0
M  V30 331 N 35.4744 -0.807222 -1.35358 0
M  V30 332 C 36.8904 -0.491038 -1.51858 0
M  V30 333 C 37.0904 0.987648 -1.75635 0
M  V30 334 O 36.1464 1.77265 -1.79815 0
M  V30 335 C 37.4594 -1.33695 -2.69344 0
M  V30 336 C 39.0074 -1.33246 -2.83222 0
M  V30 337 C 39.4824 -2.1625 -4.03733 0
M  V30 338 N 40.9734 -2.1379 -4.10911 0
M  V30 339 C 41.7084 -2.74772 -5.03277 0
M  V30 340 N 41.2044 -3.44684 -6.0097 0
M  V30 341 N 42.9974 -2.6441 -4.96028 0
M  V30 342 H 35.1484 -1.76485 -1.18181 0
M  V30 343 H 37.4114 -0.751199 -0.578276 0
M  V30 344 H 37.1174 -2.38634 -2.58354 0
M  V30 345 H 36.9914 -0.990618 -3.6396 0
M  V30 346 H 39.3784 -0.290911 -2.93663 0
M  V30 347 H 39.4594 -1.71866 -1.89461 0
M  V30 348 H 39.1034 -3.20445 -3.94052 0
M  V30 349 H 39.0334 -1.74989 -4.96675 0
M  V30 350 H 41.5244 -1.62923 -3.40976 0
M  V30 351 H 41.8374 -3.88501 -6.68047 0
M  V30 352 H 40.1824 -3.48788 -6.01142 0
M  V30 353 H 43.3734 -2.0938 -4.18662 0
M  V30 354 H 43.5464 -3.12225 -5.6782 0
M  V30 355 N 36.9525 1.47285 -0.560781 0
M  V30 356 C 38.2005 2.02064 -0.0379868 0
M  V30 357 C 38.5215 1.43711 1.31803 0
M  V30 358 O 37.7915 0.61362 1.86042 0
M  V30 359 H 36.3715 0.746918 -0.0110531 0
M  V30 360 H 39.0335 1.80648 -0.731598 0
M  V30 361 H 38.1295 3.12064 0.0474463 0
M  V30 362 N 38.4306 0.297415 1.54768 0
M  V30 363 C 39.6786 -0.312295 1.99673 0
M  V30 364 C 39.9996 -1.54686 1.18732 0
M  V30 365 O 39.2696 -1.93854 0.282382 0
M  V30 366 H 37.8496 -0.118381 0.73756 0
M  V30 367 H 40.5116 0.407915 1.90583 0
M  V30 368 H 39.6076 -0.586813 3.06534 0
M  V30 369 N 39.9087 -1.5758 0.0250728 0
M  V30 370 C 40.8387 -2.13007 -0.956575 0
M  V30 371 C 41.8197 -1.0452 -1.342 0
M  V30 372 O 43.0047 -1.32332 -1.42133 0
M  V30 373 C 40.1347 -2.65386 -2.24026 0
M  V30 374 C 39.0887 -3.78623 -1.99571 0
M  V30 375 C 38.4147 -4.17414 -3.3417 0
M  V30 376 C 39.7147 -5.04867 -1.33814 0
M  V30 377 H 41.4087 -2.9528 -0.494991 0
M  V30 378 H 38.9547 -1.42042 -0.236651 0
M  V30 379 H 40.9077 -3.02794 -2.93076 0
M  V30 380 H 39.6317 -1.80268 -2.72343 0
M  V30 381 H 38.2907 -3.41646 -1.32941 0
M  V30 382 H 37.9387 -3.29284 -3.80238 0
M  V30 383 H 37.6387 -4.93719 -3.18615 0
M  V30 384 H 39.1627 -4.57402 -4.04495 0
M  V30 385 H 40.5767 -5.39888 -1.92857 0
M  V30 386 H 38.9737 -5.86144 -1.28669 0
M  V30 387 H 40.0437 -4.83904 -0.310561 0
M  V30 388 N 41.3868 0.248026 -1.55636 0
M  V30 389 C 42.3368 1.30994 -1.86614 0
M  V30 390 C 43.3208 1.43543 -0.726918 0
M  V30 391 O 44.5128 1.46804 -0.988818 0
M  V30 392 C 41.6418 2.6656 -2.16335 0
M  V30 393 C 40.7278 2.58019 -3.36581 0
M  V30 394 N 41.1188 2.1911 -4.55878 0
M  V30 395 C 39.4168 2.89035 -3.39669 0
M  V30 396 C 40.1178 2.21174 -5.38012 0
M  V30 397 N 39.0938 2.60632 -4.77045 0
M  V30 398 H 42.8958 0.999583 -2.76379 0
M  V30 399 H 40.4098 0.456652 -1.55848 0
M  V30 400 H 42.4068 3.43194 -2.36692 0
M  V30 401 H 41.0668 2.98463 -1.27867 0
M  V30 402 H 42.0778 1.90672 -4.81523 0
M  V30 403 H 38.7548 3.25485 -2.61469 0
M  V30 404 H 40.1448 1.9344 -6.43452 0
M  V30 405 N 42.8649 1.48995 0.513639 0
M  V30 406 C 44.1419 1.48338 1.27495 0
M  V30 407 C 44.5219 0.204065 2.10111 0
M  V30 408 O 43.8699 -0.813881 2.13514 0
M  V30 409 C 44.0799 2.75498 2.14247 0
M  V30 410 C 45.4279 3.24484 2.73852 0
M  V30 411 O 46.4519 2.76528 2.24523 0
M  V30 412 O 45.3109 4.07974 3.6362 0
M  V30 413 H 42.4049 0.593149 0.576284 0
M  V30 414 H 44.9509 1.61246 0.528948 0
M  V30 415 H 43.7229 3.60109 1.53092 0
M  V30 416 H 43.3459 2.6539 2.96064 0
M  V30 417 N 44.343 -0.763751 1.37857 0
M  V30 418 C 45.59 -1.52257 1.33506 0
M  V30 419 C 45.918 -1.94343 -0.078022 0
M  V30 420 O 45.173 -1.64958 -1.05297 0
M  V30 421 C 45.472 -2.79499 2.22745 0
M  V30 422 C 45.138 -2.56426 3.70886 0
M  V30 423 C 43.8 -2.49842 4.11257 0
M  V30 424 C 46.152 -2.36008 4.64704 0
M  V30 425 C 43.48 -2.20841 5.43549 0
M  V30 426 C 45.832 -2.0853 5.97242 0
M  V30 427 C 44.496 -2.00396 6.36709 0
M  V30 428 H 43.766 -0.557149 0.488534 0
M  V30 429 H 46.413 -0.879073 1.70131 0
M  V30 430 H 44.718 -3.48447 1.79142 0
M  V30 431 H 46.415 -3.37413 2.16688 0
M  V30 432 H 43.005 -2.62416 3.38874 0
M  V30 433 H 47.189 -2.40079 4.34368 0
M  V30 434 H 42.445 -2.13045 5.73081 0
M  V30 435 H 46.619 -1.91732 6.69486 0
M  V30 436 H 44.246 -1.77688 7.39142 0
M  V30 437 N 45.8211 -1.22559 -0.990812 0
M  V30 438 C 47.2371 -0.985996 -1.255 0
M  V30 439 C 47.4371 0.319173 -1.98956 0
M  V30 440 O 46.4931 1.04127 -2.3003 0
M  V30 441 C 47.8061 -2.18607 -2.06474 0
M  V30 442 C 49.3541 -2.22985 -2.19651 0
M  V30 443 C 49.8291 -3.4255 -3.04012 0
M  V30 444 N 51.3201 -3.42725 -3.11599 0
M  V30 445 C 52.0551 -4.31892 -3.7717 0
M  V30 446 N 51.5511 -5.31279 -4.44651 0
M  V30 447 N 53.3441 -4.19662 -3.73952 0
M  V30 448 H 45.4951 -2.06469 -0.49841 0
M  V30 449 H 47.7581 -0.904853 -0.282747 0
M  V30 450 H 47.4641 -3.13267 -1.59865 0
M  V30 451 H 47.3381 -2.18838 -3.07229 0
M  V30 452 H 49.7251 -1.28871 -2.65474 0
M  V30 453 H 49.8061 -2.26791 -1.18319 0
M  V30 454 H 49.4501 -4.36965 -2.58889 0
M  V30 455 H 49.3801 -3.35984 -4.0549 0
M  V30 456 H 51.8711 -2.70807 -2.63575 0
M  V30 457 H 52.1841 -5.95593 -4.92431 0
M  V30 458 H 50.5291 -5.3519 -4.43392 0
M  V30 459 H 53.7201 -3.41268 -3.20396 0
M  V30 460 H 53.8931 -4.89358 -4.24774 0
M  V30 461 N 47.2992 1.18797 -1.03562 0
M  V30 462 C 48.5242 1.9314 -0.755764 0
M  V30 463 C 48.9492 1.7537 0.68022 0
M  V30 464 O 48.3072 1.06046 1.47051 0
M  V30 465 C 48.3552 3.42747 -1.12058 0
M  V30 466 O 47.4592 4.11683 -0.243124 0
M  V30 467 H 46.8002 0.602724 -0.278604 0
M  V30 468 H 49.3302 1.50678 -1.3841 0
M  V30 469 H 49.3402 3.93437 -1.08035 0
M  V30 470 H 48.0152 3.55002 -2.16672 0
M  V30 471 H 46.5922 3.71323 -0.342539 0
M  V30 472 N 48.7773 0.814389 1.34928 0
M  V30 473 C 50.1883 0.458364 1.80986 0
M  V30 474 C 50.5393 -1.02042 1.67577 0
M  V30 475 O 49.6643 -1.79352 1.21086 0
M  V30 476 C 50.2593 0.825212 3.28597 0
M  V30 477 C 48.8183 0.521677 3.72767 0
M  V30 478 C 47.9653 1.04668 2.56788 0
M  V30 479 H 50.9163 1.00533 1.22795 0
M  V30 480 H 50.9373 0.12571 3.80292 0
M  V30 481 H 50.4493 1.90154 3.38324 0
M  V30 482 H 48.5503 -0.545589 3.68584 0
M  V30 483 H 48.6633 1.05977 4.67232 0
M  V30 484 H 47.0273 0.468622 2.50352 0
M  V30 485 H 47.8103 2.12927 2.6929 0
M  V30 486 N 50.2554 -1.46986 0.568584 0
M  V30 487 C 51.6664 -1.86188 0.138219 0
M  V30 488 C 52.0174 -1.47388 -1.29504 0
M  V30 489 O 51.1424 -0.88219 -1.97602 0
M  V30 490 C 51.7374 -3.3792 0.244065 0
M  V30 491 C 50.2964 -3.76171 -0.131335 0
M  V30 492 C 49.4434 -2.71027 0.586465 0
M  V30 493 H 52.3944 -1.38342 0.777645 0
M  V30 494 H 52.4154 -3.76729 -0.534351 0
M  V30 495 H 51.9274 -3.66128 1.28731 0
M  V30 496 H 50.0284 -3.5358 -1.17526 0
M  V30 497 H 50.1414 -4.78523 0.235146 0
M  V30 498 H 48.5054 -2.54684 0.0282722 0
M  V30 499 H 49.2884 -3.02077 1.63109 0
M  V30 500 N 51.7335 -0.305618 -1.54608 0
M  V30 501 C 53.1445 0.186098 -1.8577 0
M  V30 502 C 53.4955 1.53058 -1.22751 0
M  V30 503 O 52.6205 2.09888 -0.526893 0
M  V30 504 C 53.2155 0.344449 -3.37044 0
M  V30 505 C 51.7745 0.780384 -3.68221 0
M  V30 506 C 50.9215 -0.108554 -2.77087 0
M  V30 507 H 53.8725 -0.526485 -1.49712 0
M  V30 508 H 53.8935 1.17828 -3.61796 0
M  V30 509 H 53.4055 -0.634235 -3.82883 0
M  V30 510 H 51.5065 1.76945 -3.27904 0
M  V30 511 H 51.6195 0.596572 -4.75371 0
M  V30 512 H 49.9835 0.412931 -2.5133 0
M  V30 513 H 50.7665 -1.08368 -3.25747 0
M  V30 514 N 53.2116 1.57565 -0.0334293 0
M  V30 515 C 54.4596 1.91598 0.642999 0
M  V30 516 C 54.7806 0.910847 1.7242 0
M  V30 517 O 54.0506 -0.0469931 1.95844 0
M  V30 518 H 52.6306 0.707228 0.240496 0
M  V30 519 H 55.2926 1.94726 -0.0822488 0
M  V30 520 H 54.3886 2.92336 1.09298 0
M  V30 521 N 54.6897 -0.239769 1.55765 0
M  V30 522 C 55.6227 -1.32356 1.85895 0
M  V30 523 C 56.6007 -1.46053 0.714662 0
M  V30 524 O 57.7847 -1.62154 0.961157 0
M  V30 525 C 54.9117 -2.6962 2.04994 0
M  V30 526 C 53.9577 -2.73036 3.27648 0
M  V30 527 S 54.7907 -2.28929 4.84099 0
M  V30 528 C 55.9467 -3.68103 5.06212 0
M  V30 529 H 56.1797 -1.06601 2.77531 0
M  V30 530 H 53.7127 -0.441112 1.47965 0
M  V30 531 H 55.6707 -3.48653 2.16682 0
M  V30 532 H 54.3317 -2.92609 1.14188 0
M  V30 533 H 53.5247 -3.7386 3.38 0
M  V30 534 H 53.1267 -2.02052 3.14723 0
M  V30 535 H 55.4187 -4.63656 4.93993 0
M  V30 536 H 56.3617 -3.6268 6.08168 0
M  V30 537 H 56.7697 -3.60947 4.34025 0
M  V30 538 N 56.1678 -1.49265 -0.50573 0
M  V30 539 C 57.4158 -1.582 -1.25766 0
M  V30 540 C 57.7368 -0.268482 -1.93143 0
M  V30 541 O 57.0068 0.711833 -1.8251 0
M  V30 542 H 55.5868 -0.582873 -0.467191 0
M  V30 543 H 58.2488 -1.85865 -0.586525 0
M  V30 544 H 57.3448 -2.37563 -2.02412 0
M  V30 545 N 57.6459 0.756429 -1.3826 0
M  V30 546 C 58.5759 1.88374 -1.37976 0
M  V30 547 C 59.5569 1.68311 -0.246082 0
M  V30 548 O 60.7419 1.88944 -0.44874 0
M  V30 549 C 57.8719 3.25864 -1.20125 0
M  V30 550 C 56.8259 3.60523 -2.30666 0
M  V30 551 C 56.1519 4.9672 -1.97923 0
M  V30 552 C 57.4519 3.65692 -3.72916 0
M  V30 553 H 59.1459 1.88869 -2.32312 0
M  V30 554 H 56.6919 0.907272 -1.11824 0
M  V30 555 H 58.6449 4.0438 -1.18552 0
M  V30 556 H 57.3689 3.25841 -0.222498 0
M  V30 557 H 56.0279 2.84324 -2.3142 0
M  V30 558 H 55.6759 4.93253 -0.985393 0
M  V30 559 H 55.3759 5.20878 -2.71955 0
M  V30 560 H 56.8999 5.77618 -1.97964 0
M  V30 561 H 58.3139 4.34328 -3.74208 0
M  V30 562 H 56.7109 4.01358 -4.4613 0
M  V30 563 H 57.7809 2.65987 -4.05436 0
M  V30 564 N 59.124 1.23083 0.984299 0
M  V30 565 C 60.072 1.00593 2.09723 0
M  V30 566 C 61.066 -0.0538014 1.69315 0
M  V30 567 O 62.272 0.0993719 1.79725 0
M  V30 568 H 58.647 0.30817 0.685956 0
M  V30 569 H 60.618 1.95012 2.2586 0
M  V30 570 C 59.367 0.609601 3.42314 0
M  V30 571 H 58.69 1.41675 3.73856 0
M  V30 572 H 60.13 0.491726 4.21139 0
M  V30 573 C 58.589 -0.681745 3.2993 0
M  V30 574 O 59.119 -1.73192 3.62446 0
M  V30 575 N 57.325 -0.656178 2.83095 0
M  V30 576 H 56.872 0.198759 2.56832 0
M  V30 577 H 56.83 -1.52044 2.75191 0
M  V30 578 N 60.6021 -1.18246 1.0419 0
M  V30 579 C 61.5341 -2.2142 0.592088 0
M  V30 580 C 62.5471 -1.59233 -0.338909 0
M  V30 581 O 63.7361 -1.78002 -0.133231 0
M  V30 582 C 60.8361 -3.38546 -0.154854 0
M  V30 583 C 60.0091 -4.3031 0.784328 0
M  V30 584 C 59.0681 -5.26138 0.0804583 0
M  V30 585 O 58.0941 -5.64738 0.711292 0
M  V30 586 N 59.2961 -5.68261 -1.18574 0
M  V30 587 H 62.0611 -2.60636 1.47949 0
M  V30 588 H 59.6221 -1.33044 0.922544 0
M  V30 589 H 61.6141 -3.99678 -0.635606 0
M  V30 590 H 60.1841 -2.98012 -0.943811 0
M  V30 591 H 59.4041 -3.66764 1.44491 0
M  V30 592 H 60.6921 -4.8852 1.42218 0
M  V30 593 H 60.0901 -5.38957 -1.71876 0
M  V30 594 H 58.6471 -6.31584 -1.61074 0
M  V30 595 N 62.0802 -0.821533 -1.34494 0
M  V30 596 C 63.0282 -0.230702 -2.31453 0
M  V30 597 C 64.0222 0.627793 -1.57338 0
M  V30 598 O 65.2282 0.519288 -1.72347 0
M  V30 599 H 61.6032 -0.0558577 -0.749923 0
M  V30 600 H 63.5742 -1.06332 -2.78812 0
M  V30 601 C 62.3232 0.59391 -3.4259 0
M  V30 602 H 61.6462 -0.0573588 -3.99759 0
M  V30 603 H 63.0862 0.973446 -4.12674 0
M  V30 604 C 61.5452 1.76568 -2.86924 0
M  V30 605 O 62.0752 2.8638 -2.81691 0
M  V30 606 N 60.2812 1.58198 -2.43766 0
M  V30 607 H 59.8282 0.68872 -2.48222 0
M  V30 608 H 59.7862 2.36752 -2.06871 0
M  V30 609 N 63.5583 1.46682 -0.576371 0
M  V30 610 C 64.9743 1.57822 -0.237562 0
M  V30 611 C 65.1743 1.57237 1.26011 0
M  V30 612 O 64.2303 1.48596 2.04146 0
M  V30 613 C 65.5433 2.87499 -0.881168 0
M  V30 614 C 67.0913 3.01119 -0.85417 0
M  V30 615 C 67.5663 4.33524 -1.4772 0
M  V30 616 N 69.0573 4.40207 -1.44125 0
M  V30 617 C 69.7923 5.4126 -1.89276 0
M  V30 618 N 69.2883 6.49021 -2.42371 0
M  V30 619 N 71.0813 5.32422 -1.80231 0
M  V30 620 H 63.2323 1.45306 -1.54919 0
M  V30 621 H 65.4953 0.692733 -0.647167 0
M  V30 622 H 65.2013 2.9372 -1.93447 0
M  V30 623 H 65.0753 3.75224 -0.385592 0
M  V30 624 H 67.4623 2.94485 0.190491 0
M  V30 625 H 67.5433 2.14887 -1.3877 0
M  V30 626 H 67.1873 4.40916 -2.52103 0
M  V30 627 H 67.1173 5.1852 -0.918947 0
M  V30 628 H 69.6083 3.62931 -1.05307 0
M  V30 629 H 69.9213 7.2233 -2.74698 0
M  V30 630 H 68.2663 6.49858 -2.46393 0
M  V30 631 H 71.4573 4.47137 -1.38514 0
M  V30 632 H 71.6303 6.11034 -2.15735 0
M  V30 633 N 65.0364 0.313813 1.54444 0
M  V30 634 C 66.2844 -0.291099 1.99993 0
M  V30 635 C 66.6054 -1.53418 1.20366 0
M  V30 636 O 65.8754 -1.93544 0.302927 0
M  V30 637 H 64.4554 -0.110552 0.738774 0
M  V30 638 H 67.1174 0.428106 1.9014 0
M  V30 639 H 66.2134 -0.554268 3.07139 0
M  V30 640 N 66.5145 -1.57545 0.0417849 0
M  V30 641 C 67.9255 -1.80011 -0.495259 0
M  V30 642 C 68.2765 -0.953199 -1.71489 0
M  V30 643 O 67.4015 -0.167138 -2.15754 0
M  V30 644 C 67.9965 -3.26482 -0.905265 0
M  V30 645 C 66.5555 -3.499 -1.38734 0
M  V30 646 C 65.7025 -2.74979 -0.358056 0
M  V30 647 H 68.6535 -1.56425 0.267736 0
M  V30 648 H 68.6745 -3.36887 -1.76882 0
M  V30 649 H 68.1865 -3.88096 -0.017401 0
M  V30 650 H 66.2875 -2.93553 -2.29471 0
M  V30 651 H 66.4005 -4.58615 -1.38598 0
M  V30 652 H 64.7645 -2.40834 -0.828912 0
M  V30 653 H 65.5475 -3.39315 0.521561 0
M  V30 654 N 67.9926 0.231505 -1.5589 0
M  V30 655 C 68.9256 1.31369 -1.86595 0
M  V30 656 C 69.9036 1.45671 -0.722397 0
M  V30 657 O 71.0876 1.61642 -0.969743 0
M  V30 658 C 68.2146 2.68529 -2.06421 0
M  V30 659 C 67.2606 2.71295 -3.29092 0
M  V30 660 S 68.0936 2.26358 -4.85306 0
M  V30 661 C 69.2496 3.65414 -5.08157 0
M  V30 662 H 69.4826 1.05128 -2.78092 0
M  V30 663 H 67.0156 0.433259 -1.48197 0
M  V30 664 H 68.9736 3.47499 -2.18528 0
M  V30 665 H 67.6346 2.91999 -1.15738 0
M  V30 666 H 66.8276 3.72063 -3.39978 0
M  V30 667 H 66.4296 2.0038 -3.15791 0
M  V30 668 H 68.7216 4.6103 -4.96445 0
M  V30 669 H 69.6646 3.5945 -6.10083 0
M  V30 670 H 70.0726 3.5864 -4.35933 0
M  V30 671 N 69.4707 1.49531 0.497807 0
M  V30 672 C 70.7187 1.58865 1.24926 0
M  V30 673 C 71.0397 0.278721 1.92998 0
M  V30 674 O 70.3097 -0.702144 1.82885 0
M  V30 675 H 68.8897 0.585343 0.464094 0
M  V30 676 H 71.5517 1.86174 0.57666 0
M  V30 677 H 70.6477 2.38633 2.01149 0
M  V30 678 N 70.9488 -0.749086 1.3866 0
M  V30 679 C 72.3598 -1.32664 1.31366 0
M  V30 680 C 72.7108 -1.96179 -0.028484 0
M  V30 681 O 71.8358 -1.9537 -0.93057 0
M  V30 682 C 72.4308 -2.41219 2.37905 0
M  V30 683 C 70.9898 -2.94684 2.34176 0
M  V30 684 C 70.1368 -1.68108 2.20533 0
M  V30 685 H 73.0878 -0.547628 1.48952 0
M  V30 686 H 73.1088 -3.21268 2.0388 0
M  V30 687 H 72.6208 -1.94962 3.35576 0
M  V30 688 H 70.7218 -3.45258 1.401 0
M  V30 689 H 70.8348 -3.48757 3.2849 0
M  V30 690 H 69.1988 -1.91907 1.67463 0
M  V30 691 H 69.9818 -1.23923 3.20153 0
M  V30 692 N 72.4269 -1.23603 -0.977757 0
M  V30 693 C 73.6749 -1.06759 -1.71601 0
M  V30 694 C 73.9959 0.395929 -1.90938 0
M  V30 695 O 73.2659 1.28356 -1.47992 0
M  V30 696 H 71.8459 -0.392062 -0.635843 0
M  V30 697 H 74.5079 -1.55362 -1.1768 0
M  V30 698 H 73.6039 -1.55763 -2.70452 0
M  V30 699 N 73.905 1.17692 -1.04816 0
M  V30 700 C 75.316 1.69501 -0.782698 0
M  V30 701 C 75.667 1.83456 0.695577 0
M  V30 702 O 74.792 1.51942 1.54086 0
M  V30 703 C 75.387 3.07874 -1.41419 0
M  V30 704 C 73.946 3.56864 -1.19686 0
M  V30 705 C 73.093 2.3322 -1.50012 0
M  V30 706 H 76.044 1.02262 -1.2136 0
M  V30 707 H 76.065 3.71528 -0.821428 0
M  V30 708 H 75.577 2.97685 -2.49009 0
M  V30 709 H 73.678 3.72337 -0.140043 0
M  V30 710 H 73.791 4.39851 -1.89916 0
M  V30 711 H 72.155 2.37501 -0.920071 0
M  V30 712 H 72.938 2.25644 -2.58727 0
M  V30 713 N 75.3831 0.828654 1.34056 0
M  V30 714 C 76.6311 0.41863 1.97717 0
M  V30 715 C 76.9521 -1.02314 1.66002 0
M  V30 716 O 76.2221 -1.71119 0.953683 0
M  V30 717 H 74.8021 0.151809 0.731412 0
M  V30 718 H 77.4641 1.05936 1.63596 0
M  V30 719 H 76.5601 0.542318 3.07352 0
M  V30 720 N 76.8612 -1.46375 0.584142 0
M  V30 721 C 77.7932 -2.28443 -0.186119 0
M  V30 722 C 78.8062 -1.38596 -0.854115 0
M  V30 723 O 79.9952 -1.63183 -0.723438 0
M  V30 724 C 77.0952 -3.13671 -1.28311 0
M  V30 725 C 76.2682 -4.31652 -0.706758 0
M  V30 726 C 75.3272 -4.98267 -1.69163 0
M  V30 727 O 74.3532 -5.55815 -1.22712 0
M  V30 728 N 75.5552 -4.95408 -3.02575 0
M  V30 729 H 78.3202 -2.9519 0.517986 0
M  V30 730 H 75.8812 -1.56303 0.42201 0
M  V30 731 H 77.8732 -3.55101 -1.94128 0
M  V30 732 H 76.4432 -2.48989 -1.89005 0
M  V30 733 H 75.6632 -3.93989 0.128908 0
M  V30 734 H 76.9512 -5.07906 -0.301506 0
M  V30 735 H 76.3492 -4.49902 -3.42936 0
M  V30 736 H 74.9062 -5.40774 -3.63877 0
M  V30 737 N 78.3393 -0.321999 -1.54275 0
M  V30 738 C 79.5643 0.285791 -2.05422 0
M  V30 739 C 79.9893 1.45124 -1.19669 0
M  V30 740 O 79.3473 1.80132 -0.205441 0
M  V30 741 C 79.3953 0.69956 -3.53749 0
M  V30 742 O 78.4993 1.8021 -3.70942 0
M  V30 743 H 77.8403 0.0518962 -0.661969 0
M  V30 744 H 80.3703 -0.469954 -1.9913 0
M  V30 745 H 80.3803 0.982649 -3.9599 0
M  V30 746 H 79.0553 -0.152864 -4.15619 0
M  V30 747 H 77.6323 1.51794 -3.40607 0
M  V30 748 N 79.8174 1.5752 -0.0501392 0
M  V30 749 C 81.0654 1.9227 0.622642 0
M  V30 750 C 81.3864 0.929083 1.71444 0
M  V30 751 O 80.6564 -0.0262186 1.95882 0
M  V30 752 H 79.2364 0.709739 0.232981 0
M  V30 753 H 81.8984 1.94628 -0.102898 0
M  V30 754 H 80.9944 2.93479 1.06191 0
M  V30 755 N 81.2955 -0.223234 1.56011 0
M  V30 756 C 82.7065 -0.790368 1.69145 0
M  V30 757 C 83.0575 -1.85055 0.651845 0
M  V30 758 O 82.1825 -2.15498 -0.197359 0
M  V30 759 C 82.7775 -1.4404 3.06656 0
M  V30 760 C 81.3365 -1.95494 3.2165 0
M  V30 761 C 80.4835 -0.814506 2.65068 0
M  V30 762 H 83.4345 0.00139011 1.587 0
M  V30 763 H 83.4555 -2.30916 3.0242 0
M  V30 764 H 82.9675 -0.668543 3.82298 0
M  V30 765 H 81.0685 -2.75487 2.50874 0
M  V30 766 H 81.1815 -2.13607 4.28846 0
M  V30 767 H 79.5455 -1.22137 2.23505 0
M  V30 768 H 80.3285 -0.0553515 3.43255 0
M  V30 769 N 82.7736 -1.49793 -0.48987 0
M  V30 770 C 83.7206 -1.67281 -1.59014 0
M  V30 771 C 84.6906 -0.514177 -1.57941 0
M  V30 772 O 85.8756 -0.742533 -1.75759 0
M  V30 773 C 83.0156 -1.75569 -2.97102 0
M  V30 774 C 82.1286 -3.0281 -3.08107 0
M  V30 775 C 81.2636 -3.02008 -4.36995 0
M  V30 776 C 80.3026 -4.23782 -4.41673 0
M  V30 777 N 79.4396 -4.20826 -5.62005 0
M  V30 778 H 84.2796 -2.61224 -1.43409 0
M  V30 779 H 81.8166 -1.29508 -0.697565 0
M  V30 780 H 83.7746 -1.78354 -3.77155 0
M  V30 781 H 82.4046 -0.850827 -3.11385 0
M  V30 782 H 81.4566 -3.09584 -2.21047 0
M  V30 783 H 82.7686 -3.92801 -3.07423 0
M  V30 784 H 81.9226 -3.03418 -5.25378 0
M  V30 785 H 80.6616 -2.09815 -4.4026 0
M  V30 786 H 79.6666 -4.22604 -3.5169 0
M  V30 787 H 80.8916 -5.17181 -4.40115 0
M  V30 788 H 78.8376 -3.31476 -5.66091 0
M  V30 789 H 78.7546 -5.04564 -5.62984 0
M  V30 790 H 80.0226 -4.26355 -6.52565 0
M  V30 791 N 84.2517 0.741722 -1.39055 0
M  V30 792 C 85.6627 1.31966 -1.32068 0
M  V30 793 C 86.0137 1.96192 0.0180797 0
M  V30 794 O 85.1387 1.95861 0.920196 0
M  V30 795 C 85.7337 2.39954 -2.39181 0
M  V30 796 C 84.2927 2.93438 -2.35735 0
M  V30 797 C 83.4397 1.66936 -2.21422 0
M  V30 798 H 86.3907 0.539721 -1.4924 0
M  V30 799 H 86.4117 3.20182 -2.05581 0
M  V30 800 H 85.9237 1.9318 -3.36605 0
M  V30 801 H 84.0247 3.4451 -1.41929 0
M  V30 802 H 84.1377 3.4701 -3.30335 0
M  V30 803 H 82.5017 1.91016 -1.68478 0
M  V30 804 H 83.2847 1.22224 -3.20806 0
M  V30 805 N 85.7298 1.2412 0.971189 0
M  V30 806 C 87.1408 1.07236 1.52831 0
M  V30 807 C 87.4918 -0.357352 1.92918 0
M  V30 808 O 86.6168 -1.24528 1.76979 0
M  V30 809 C 87.2118 1.94043 2.77728 0
M  V30 810 C 85.7708 1.81394 3.29808 0
M  V30 811 C 84.9178 1.89189 2.02738 0
M  V30 812 H 87.8688 1.37648 0.789864 0
M  V30 813 H 87.8898 1.47066 3.5093 0
M  V30 814 H 87.4018 2.98093 2.4852 0
M  V30 815 H 85.5028 0.801634 3.63874 0
M  V30 816 H 85.6158 2.65294 3.98944 0
M  V30 817 H 83.9798 1.32877 2.17292 0
M  V30 818 H 84.7628 2.94812 1.759 0
M  V30 819 N 87.2079 -1.17134 1.05439 0
M  V30 820 C 88.4569 -1.86791 0.761049 0
M  V30 821 C 88.7699 -1.82072 -0.714795 0
M  V30 822 O 89.9759 -2.47223 -1.12218 0
M  V30 823 C 88.4319 -3.35166 1.31117 0
M  V30 824 C 88.0399 -3.48381 2.81664 0
M  V30 825 C 89.7839 -4.10134 1.09499 0
M  V30 826 C 87.6909 -4.90793 3.29964 0
M  V30 827 H 86.6209 -0.699681 0.281002 0
M  V30 828 H 89.2719 -1.3226 1.27199 0
M  V30 829 H 87.6539 -3.8925 0.72803 0
M  V30 830 H 88.8279 -3.04502 3.45855 0
M  V30 831 H 87.1429 -2.86836 3.01851 0
M  V30 832 H 89.7399 -5.152 1.43084 0
M  V30 833 H 90.0829 -4.16287 0.0328772 0
M  V30 834 H 90.6159 -3.62264 1.64346 0
M  V30 835 H 87.3549 -4.89816 4.35616 0
M  V30 836 H 86.8749 -5.35333 2.70516 0
M  V30 837 H 88.5539 -5.59573 3.24787 0
M  V30 838 N 88.686 -0.835752 -1.33615 0
M  V30 839 C 90.097 -0.487099 -1.80234 0
M  V30 840 C 90.448 0.993627 -1.69179 0
M  V30 841 O 89.573 1.77403 -1.23924 0
M  V30 842 C 90.168 -0.877385 -3.27242 0
M  V30 843 C 88.727 -0.580915 -3.7189 0
M  V30 844 C 87.874 -1.0874 -2.5509 0
M  V30 845 H 90.825 -1.02474 -1.2118 0
M  V30 846 H 90.846 -0.186195 -3.80044 0
M  V30 847 H 90.358 -1.95512 -3.35256 0
M  V30 848 H 88.459 0.486881 -3.69405 0
M  V30 849 H 88.572 -1.13396 -4.65487 0
M  V30 850 H 86.936 -0.508392 -2.49575 0
M  V30 851 H 87.719 -2.17184 -2.65868 0
M  V30 852 N 90.1641 1.46063 -0.591896 0
M  V30 853 C 91.5751 1.85944 -0.167822 0
M  V30 854 C 91.9261 1.49429 1.27143 0
M  V30 855 O 91.0511 0.913515 1.96173 0
M  V30 856 C 91.6461 3.37489 -0.297794 0
M  V30 857 C 90.2051 3.76332 0.0714732 0
M  V30 858 C 89.3521 2.7006 -0.629509 0
M  V30 859 H 92.3031 1.37087 -0.799555 0
M  V30 860 H 92.3241 3.77532 0.474349 0
M  V30 861 H 91.8361 3.64034 -1.3454 0
M  V30 862 H 89.9371 3.55405 1.11886 0
M  V30 863 H 90.0501 4.78088 -0.311245 0
M  V30 864 H 88.4141 2.54607 -0.0687867 0
M  V30 865 H 89.1971 2.99444 -1.67894 0
M  V30 866 N 91.6422 0.330177 1.54103 0
M  V30 867 C 93.0532 -0.15652 1.86043 0
M  V30 868 C 93.4042 -1.51086 1.2517 0
M  V30 869 O 92.5292 -2.09023 0.560217 0
M  V30 870 C 93.1242 -0.290784 3.3755 0
M  V30 871 C 91.6832 -0.721705 3.69416 0
M  V30 872 C 90.8302 0.152622 2.7688 0
M  V30 873 H 93.7812 0.550237 1.48856 0
M  V30 874 H 93.8022 -1.12058 3.63625 0
M  V30 875 H 93.3142 0.695068 3.81825 0
M  V30 876 H 91.4152 -1.71706 3.30678 0
M  V30 877 H 91.5282 -0.520869 4.7626 0
M  V30 878 H 89.8922 -0.372894 2.51956 0
M  V30 879 H 90.6752 1.13536 3.23982 0
M  V30 880 N 93.1203 -1.57491 0.0584922 0
M  V30 881 C 94.5313 -1.80526 -0.476138 0
M  V30 882 C 94.8823 -0.971334 -1.70469 0
M  V30 883 O 94.0073 -0.190012 -2.15564 0
M  V30 884 C 94.6023 -3.27424 -0.870587 0
M  V30 885 C 93.1613 -3.51351 -1.35015 0
M  V30 886 C 92.3083 -2.75343 -0.32887 0
M  V30 887 H 95.2593 -1.56133 0.284312 0
M  V30 888 H 95.2803 -3.38745 -1.73299 0
M  V30 889 H 94.7923 -3.88093 0.0237627 0
M  V30 890 H 92.8933 -2.95971 -2.26345 0
M  V30 891 H 93.0063 -4.60059 -1.33726 0
M  V30 892 H 91.3703 -2.417 -0.803321 0
M  V30 893 H 92.1533 -3.38743 0.557521 0
M  V30 894 N 94.5984 0.214957 -1.56127 0
M  V30 895 C 96.0094 0.781386 -1.69562 0
M  V30 896 C 96.3604 1.84707 -0.66165 0
M  V30 897 O 95.4854 2.156 0.185927 0
M  V30 898 C 96.0804 1.42411 -3.07416 0
M  V30 899 C 94.6394 1.93786 -3.22683 0
M  V30 900 C 93.7864 0.800438 -2.65496 0
M  V30 901 H 96.7374 -0.00980633 -1.58697 0
M  V30 902 H 96.7584 2.29309 -3.0364 0
M  V30 903 H 96.2704 0.64826 -3.82648 0
M  V30 904 H 94.3714 2.74152 -2.52332 0
M  V30 905 H 94.4844 2.1133 -4.29973 0
M  V30 906 H 92.8484 1.2095 -2.2415 0
M  V30 907 H 93.6314 0.0371471 -3.4328 0
M  V30 908 N 96.0765 1.50051 0.48192 0
M  V30 909 C 97.0265 1.64512 1.5786 0
M  V30 910 C 98.0105 0.500073 1.52932 0
M  V30 911 O 99.2025 0.753964 1.60139 0
M  V30 912 C 96.3315 1.73263 2.9637 0
M  V30 913 C 95.4175 2.93409 3.06222 0
M  V30 914 N 95.8085 4.17236 2.85915 0
M  V30 915 C 94.1065 2.91742 3.37346 0
M  V30 916 C 94.8075 4.981 3.00451 0
M  V30 917 N 93.7835 4.3184 3.30174 0
M  V30 918 H 97.5855 2.57955 1.40842 0
M  V30 919 H 95.0995 1.47086 0.688439 0
M  V30 920 H 97.0965 1.81724 3.75209 0
M  V30 921 H 95.7565 0.809711 3.14442 0
M  V30 922 H 96.7675 4.46909 2.6171 0
M  V30 923 H 93.4445 2.08907 3.61475 0
M  V30 924 H 94.8345 6.06532 2.89082 0
M  V30 925 N 97.5546 -0.734337 1.39446 0
M  V30 926 C 98.4866 -1.85861 1.34121 0
M  V30 927 C 99.4996 -1.60871 0.249864 0
M  V30 928 O 100.689 -1.71093 0.508865 0
M  V30 929 C 97.7886 -3.21899 1.05991 0
M  V30 930 C 96.9616 -3.74239 2.26415 0
M  V30 931 C 96.0206 -4.88841 1.94733 0
M  V30 932 O 95.0466 -5.02468 2.67422 0
M  V30 933 N 96.2486 -5.73261 0.913884 0
M  V30 934 H 99.0136 -1.90934 2.31007 0
M  V30 935 H 96.5746 -0.915102 1.33557 0
M  V30 936 H 98.5666 -3.96136 0.828147 0
M  V30 937 H 97.1366 -3.12091 0.178361 0
M  V30 938 H 96.3566 -2.91347 2.65539 0
M  V30 939 H 97.6446 -4.05942 3.06738 0
M  V30 940 H 97.0426 -5.64842 0.311476 0
M  V30 941 H 95.5996 -6.47563 0.742015 0
M  V30 942 N 99.0327 -1.24633 -0.964593 0
M  V30 943 C 99.9647 -0.999302 -2.06268 0
M  V30 944 C 100.978 0.0323226 -1.62768 0
M  V30 945 O 102.167 -0.205079 -1.77318 0
M  V30 946 C 99.2667 -0.486816 -3.35385 0
M  V30 947 C 98.4397 -1.5823 -4.07777 0
M  V30 948 C 97.4987 -1.07191 -5.15166 0
M  V30 949 O 96.5247 -1.76426 -5.41168 0
M  V30 950 N 97.7267 0.0920373 -5.80427 0
M  V30 951 H 100.492 -1.94477 -2.28033 0
M  V30 952 H 98.0527 -1.15704 -1.13244 0
M  V30 953 H 100.045 -0.130066 -4.04491 0
M  V30 954 H 98.6147 0.364459 -3.10468 0
M  V30 955 H 97.8347 -2.11109 -3.32906 0
M  V30 956 H 99.1227 -2.31854 -4.52903 0
M  V30 957 H 98.5207 0.670784 -5.61709 0
M  V30 958 H 97.0777 0.389905 -6.50633 0
M  V30 959 N 100.511 1.16574 -1.06058 0
M  V30 960 C 101.443 2.2045 -0.627239 0
M  V30 961 C 102.456 1.59752 0.313534 0
M  V30 962 O 103.645 1.78192 0.104896 0
M  V30 963 C 100.745 3.3875 0.100974 0
M  V30 964 C 99.9178 4.29008 -0.852687 0
M  V30 965 C 98.9768 5.25944 -0.164152 0
M  V30 966 O 98.0028 5.63535 -0.801047 0
M  V30 967 N 99.2048 5.70075 1.09518 0
M  V30 968 H 101.97 2.58249 -1.52077 0
M  V30 969 H 99.5308 1.3156 -0.943594 0
M  V30 970 H 101.523 4.00638 0.57194 0
M  V30 971 H 100.093 2.99476 0.89628 0
M  V30 972 H 99.3128 3.64419 -1.50308 0
M  V30 973 H 100.601 4.86195 -1.49972 0
M  V30 974 H 99.9988 5.41624 1.6328 0
M  V30 975 H 98.5558 6.34067 1.51006 0
M  V30 976 N 101.989 0.842826 1.3317 0
M  V30 977 C 102.921 0.236245 2.27979 0
M  V30 978 C 103.934 -0.585282 1.51915 0
M  V30 979 O 105.123 -0.411705 1.73687 0
M  V30 980 C 102.223 -0.685717 3.3189 0
M  V30 981 C 101.396 0.0973448 4.37292 0
M  V30 982 C 100.455 -0.748565 5.20848 0
M  V30 983 O 99.4809 -0.186339 5.68895 0
M  V30 984 N 100.683 -2.06527 5.42519 0
M  V30 985 H 103.448 1.05088 2.80672 0
M  V30 986 H 101.009 0.701667 1.45905 0
M  V30 987 H 103.001 -1.25669 3.84694 0
M  V30 988 H 101.571 -1.40105 2.79445 0
M  V30 989 H 100.791 0.849706 3.84933 0
M  V30 990 H 102.079 0.635643 5.04814 0
M  V30 991 H 101.477 -2.54554 5.05192 0
M  V30 992 H 100.034 -2.58464 5.98364 0
M  V30 993 N 103.467 -1.45747 0.599634 0
M  V30 994 C 104.399 -2.28628 -0.161879 0
M  V30 995 C 105.412 -1.39494 -0.839367 0
M  V30 996 O 106.601 -1.63941 -0.706089 0
M  V30 997 C 103.701 -3.15014 -1.24976 0
M  V30 998 C 102.874 -4.32378 -0.660935 0
M  V30 999 C 101.933 -5.00033 -1.63869 0
M  V30 1000 O 100.959 -5.57085 -1.1681 0
M  V30 1001 N 102.161 -4.98589 -2.97303 0
M  V30 1002 H 104.926 -2.94624 0.549265 0
M  V30 1003 H 102.487 -1.55847 0.438565 0
M  V30 1004 H 104.479 -3.5714 -1.9035 0
M  V30 1005 H 103.049 -2.5098 -1.86354 0
M  V30 1006 H 102.269 -3.9383 0.170688 0
M  V30 1007 H 103.557 -5.08197 -0.247619 0
M  V30 1008 H 102.955 -4.53514 -3.38145 0
M  V30 1009 H 101.512 -5.44603 -3.58121 0
M  V30 1010 N 104.945 -0.338344 -1.53925 0
M  V30 1011 C 106.356 0.146651 -1.86123 0
M  V30 1012 C 106.707 1.5042 -1.2597 0
M  V30 1013 O 105.832 2.08723 -0.571294 0
M  V30 1014 C 106.427 0.272879 -3.37699 0
M  V30 1015 C 104.986 0.702103 -3.69794 0
M  V30 1016 C 104.133 -0.167304 -2.76795 0
M  V30 1017 H 107.084 -0.558123 -1.48562 0
M  V30 1018 H 107.105 1.10128 -3.64214 0
M  V30 1019 H 106.617 -0.715307 -3.81451 0
M  V30 1020 H 104.718 1.6995 -3.31584 0
M  V30 1021 H 104.831 0.495604 -4.7653 0
M  V30 1022 H 103.195 0.359527 -2.5215 0
M  V30 1023 H 103.978 -1.15253 -3.23375 0
M  V30 1024 N 106.423 1.57458 -0.0668435 0
M  V30 1025 C 107.834 1.80776 0.466558 0
M  V30 1026 C 108.185 0.980361 1.69951 0
M  V30 1027 O 107.31 0.201441 2.1546 0
M  V30 1028 C 107.905 3.27881 0.85321 0
M  V30 1029 C 106.464 3.52062 1.3315 0
M  V30 1030 C 105.611 2.75513 0.314264 0
M  V30 1031 H 108.562 1.5598 -0.292588 0
M  V30 1032 H 108.583 3.39659 1.715 0
M  V30 1033 H 108.095 3.88075 -0.0443439 0
M  V30 1034 H 106.196 2.97167 2.24772 0
M  V30 1035 H 106.309 4.60762 1.31285 0
M  V30 1036 H 104.673 2.42123 0.790492 0
M  V30 1037 H 105.456 3.38442 -0.575477 0
M  V30 1038 N 107.901 -0.206675 1.56239 0
M  V30 1039 C 109.312 -0.772383 1.69974 0
M  V30 1040 C 109.663 -1.84353 0.671436 0
M  V30 1041 O 108.788 -2.15695 -0.174491 0
M  V30 1042 C 109.383 -1.40779 3.08167 0
M  V30 1043 C 107.942 -1.92072 3.23706 0
M  V30 1044 C 107.089 -0.786347 2.65917 0
M  V30 1045 H 110.04 0.0182223 1.5869 0
M  V30 1046 H 110.061 -2.27696 3.04852 0
M  V30 1047 H 109.573 -0.627958 3.82986 0
M  V30 1048 H 107.674 -2.7281 2.53782 0
M  V30 1049 H 107.787 -2.09046 4.31087 0
M  V30 1050 H 106.151 -1.1976 2.24788 0
M  V30 1051 H 106.934 -0.0189416 3.43295 0
M  V30 1052 N 109.379 -1.50304 -0.473955 0
M  V30 1053 C 110.311 -1.65109 -1.58971 0
M  V30 1054 C 111.324 -0.532676 -1.53839 0
M  V30 1055 O 112.513 -0.805751 -1.59279 0
M  V30 1056 C 109.613 -1.61684 -2.97845 0
M  V30 1057 C 108.786 -2.8951 -3.27876 0
M  V30 1058 C 107.845 -2.78768 -4.4629 0
M  V30 1059 O 106.871 -3.52722 -4.46739 0
M  V30 1060 N 108.073 -1.9213 -5.47783 0
M  V30 1061 H 110.838 -2.61347 -1.46689 0
M  V30 1062 H 108.399 -1.47732 -0.662324 0
M  V30 1063 H 110.391 -1.52114 -3.75024 0
M  V30 1064 H 108.961 -0.731925 -3.03911 0
M  V30 1065 H 108.181 -3.13228 -2.39336 0
M  V30 1066 H 109.469 -3.74199 -3.4475 0
M  V30 1067 H 108.867 -1.31353 -5.50239 0
M  V30 1068 H 107.424 -1.88466 -6.23958 0
M  V30 1069 N 110.857 0.726932 -1.39834 0
M  V30 1070 C 111.789 1.85147 -1.35104 0
M  V30 1071 C 112.802 1.60736 -0.258392 0
M  V30 1072 O 113.991 1.70821 -0.517931 0
M  V30 1073 C 111.091 3.21332 -1.07697 0
M  V30 1074 C 110.264 3.73033 -2.28396 0
M  V30 1075 C 109.323 4.87802 -1.97322 0
M  V30 1076 O 108.349 5.01043 -2.70083 0
M  V30 1077 N 109.551 5.72768 -0.944273 0
M  V30 1078 H 112.316 1.89706 -2.32017 0
M  V30 1079 H 109.877 0.908006 -1.3404 0
M  V30 1080 H 111.869 3.95691 -0.849144 0
M  V30 1081 H 110.439 3.11992 -0.194909 0
M  V30 1082 H 109.659 2.89934 -2.6708 0
M  V30 1083 H 110.947 4.0431 -3.08887 0
M  V30 1084 H 110.345 5.64669 -0.341427 0
M  V30 1085 H 108.902 6.4716 -0.776346 0
M  V30 1086 N 112.336 1.25143 0.95797 0
M  V30 1087 C 113.747 1.08851 1.51685 0
M  V30 1088 C 114.098 -0.33687 1.93286 0
M  V30 1089 O 113.223 -1.22644 1.7829 0
M  V30 1090 C 113.818 1.96978 2.75654 0
M  V30 1091 C 112.377 1.84881 3.27866 0
M  V30 1092 C 111.524 1.91329 2.0072 0
M  V30 1093 H 114.475 1.38478 0.77522 0
M  V30 1094 H 114.496 1.5078 3.4935 0
M  V30 1095 H 114.008 3.00712 2.45345 0
M  V30 1096 H 112.109 0.840182 3.63004 0
M  V30 1097 H 112.222 2.6951 3.96107 0
M  V30 1098 H 110.586 1.35174 2.15871 0
M  V30 1099 H 111.369 2.96661 1.72764 0
M  V30 1100 N 113.814 -1.1601 1.06675 0
M  V30 1101 C 115.225 -1.68235 0.809565 0
M  V30 1102 C 115.576 -1.8454 -0.666303 0
M  V30 1103 O 114.701 -1.54374 -1.5165 0
M  V30 1104 C 115.296 -3.05585 1.46299 0
M  V30 1105 C 113.855 -3.54915 1.25349 0
M  V30 1106 C 113.002 -2.30804 1.53703 0
M  V30 1107 H 115.953 -1.00318 1.22971 0
M  V30 1108 H 115.974 -3.70174 0.880431 0
M  V30 1109 H 115.486 -2.93686 2.53713 0
M  V30 1110 H 113.587 -3.72067 0.199261 0
M  V30 1111 H 113.7 -4.36774 1.9689 0
M  V30 1112 H 112.064 -2.36007 0.957739 0
M  V30 1113 H 112.847 -2.21499 2.62284 0
M  V30 1114 N 115.292 -0.849877 -1.32721 0
M  V30 1115 C 116.703 -0.506188 -1.79707 0
M  V30 1116 C 117.054 0.975627 -1.70223 0
M  V30 1117 O 116.179 1.76078 -1.25799 0
M  V30 1118 C 116.774 -0.912044 -3.26293 0
M  V30 1119 C 115.333 -0.620326 -3.71253 0
M  V30 1120 C 114.48 -1.11439 -2.53922 0
M  V30 1121 H 117.431 -1.03754 -1.20087 0
M  V30 1122 H 117.452 -0.226493 -3.79825 0
M  V30 1123 H 116.964 -1.99057 -3.33164 0
M  V30 1124 H 115.065 0.447674 -3.69901 0
M  V30 1125 H 115.178 -1.18327 -4.64258 0
M  V30 1126 H 113.542 -0.534834 -2.49021 0
M  V30 1127 H 114.325 -2.19992 -2.6355 0
M  V30 1128 N 116.77 1.45427 -0.607355 0
M  V30 1129 C 117.702 2.2871 0.149752 0
M  V30 1130 C 118.715 1.39937 0.831958 0
M  V30 1131 O 119.904 1.64313 0.697385 0
M  V30 1132 C 117.004 3.15673 1.23304 0
M  V30 1133 C 116.177 4.32722 0.637996 0
M  V30 1134 C 115.236 5.00895 1.61215 0
M  V30 1135 O 114.262 5.57697 1.13854 0
M  V30 1136 N 115.464 5.00159 2.94655 0
M  V30 1137 H 118.229 2.94328 -0.564882 0
M  V30 1138 H 115.79 1.55612 -0.446823 0
M  V30 1139 H 117.782 3.58144 1.88454 0
M  V30 1140 H 116.352 2.51965 1.8502 0
M  V30 1141 H 115.572 3.93734 -0.191572 0
M  V30 1142 H 116.86 5.08321 0.220665 0
M  V30 1143 H 116.258 4.553 3.35735 0
M  V30 1144 H 114.815 5.46495 3.55228 0
M  V30 1145 N 118.248 0.346503 1.53744 0
M  V30 1146 C 119.18 -0.543316 2.22667 0
M  V30 1147 C 120.193 -1.06159 1.23427 0
M  V30 1148 O 121.382 -0.971235 1.49764 0
M  V30 1149 C 118.482 -1.76076 2.89569 0
M  V30 1150 C 117.655 -1.37727 4.15151 0
M  V30 1151 C 116.714 -2.45471 4.65436 0
M  V30 1152 O 115.74 -2.08655 5.29577 0
M  V30 1153 N 116.942 -3.7677 4.41616 0
M  V30 1154 H 119.707 0.0469703 2.99663 0
M  V30 1155 H 117.268 0.170766 1.60997 0
M  V30 1156 H 119.26 -2.47593 3.20125 0
M  V30 1157 H 117.83 -2.25835 2.16142 0
M  V30 1158 H 117.05 -0.492746 3.91108 0
M  V30 1159 H 118.338 -1.09708 4.96832 0
M  V30 1160 H 117.736 -4.09467 3.90325 0
M  V30 1161 H 116.293 -4.44448 4.7677 0
M  V30 1162 N 119.726 -1.57421 0.075193 0
M  V30 1163 C 121.137 -1.81021 -0.456964 0
M  V30 1164 C 121.488 -0.98936 -1.69429 0
M  V30 1165 O 120.613 -0.212865 -2.15351 0
M  V30 1166 C 121.208 -3.28329 -0.83581 0
M  V30 1167 C 119.767 -3.52764 -1.31281 0
M  V30 1168 C 118.914 -2.75676 -0.299648 0
M  V30 1169 H 121.865 -1.55822 0.300856 0
M  V30 1170 H 121.886 -3.40564 -1.69696 0
M  V30 1171 H 121.398 -3.88046 0.0649238 0
M  V30 1172 H 119.499 -2.98355 -2.23193 0
M  V30 1173 H 119.612 -4.61451 -1.28839 0
M  V30 1174 H 117.976 -2.42538 -0.777641 0
M  V30 1175 H 118.759 -3.38132 0.593417 0
M  V30 1176 N 121.204 0.198386 -1.56346 0
M  V30 1177 C 122.615 0.763358 -1.70381 0
M  V30 1178 C 122.966 1.83995 -0.681203 0
M  V30 1179 O 122.091 2.15785 0.16305 0
M  V30 1180 C 122.686 1.39143 -3.08909 0
M  V30 1181 C 121.245 1.90352 -3.2472 0
M  V30 1182 C 120.392 0.772233 -2.6633 0
M  V30 1183 H 123.343 -0.0266377 -1.58678 0
M  V30 1184 H 123.364 2.26076 -3.06055 0
M  V30 1185 H 122.876 0.607638 -3.83314 0
M  V30 1186 H 120.977 2.71461 -2.55225 0
M  V30 1187 H 121.09 2.06757 -4.3219 0
M  V30 1188 H 119.454 1.18566 -2.2542 0
M  V30 1189 H 120.237 0.00073556 -3.433 0
M  V30 1190 N 122.682 1.50554 0.465978 0
M  V30 1191 C 124.093 1.54599 1.04671 0
M  V30 1192 C 124.444 0.352488 1.93008 0
M  V30 1193 O 123.569 -0.534044 2.09707 0
M  V30 1194 C 124.164 2.80166 1.90505 0
M  V30 1195 C 122.723 2.86876 2.43678 0
M  V30 1196 C 121.87 2.48947 1.22151 0
M  V30 1197 H 124.821 1.56744 0.248384 0
M  V30 1198 H 124.842 2.62311 2.75633 0
M  V30 1199 H 124.354 3.67013 1.26186 0
M  V30 1200 H 122.455 2.04393 3.11536 0
M  V30 1201 H 122.568 3.89885 2.78436 0
M  V30 1202 H 120.932 2.01498 1.5579 0
M  V30 1203 H 121.715 3.38107 0.594866 0
M  V30 1204 N 124.16 -0.719506 1.40217 0
M  V30 1205 C 125.11 -1.8251 1.36653 0
M  V30 1206 C 126.094 -1.59028 0.244732 0
M  V30 1207 O 127.286 -1.70268 0.483524 0
M  V30 1208 C 124.415 -3.20599 1.22763 0
M  V30 1209 C 123.501 -3.49858 2.39708 0
M  V30 1210 N 123.892 -3.49957 3.6519 0
M  V30 1211 C 122.19 -3.80297 2.33002 0
M  V30 1212 C 122.891 -3.77449 4.42614 0
M  V30 1213 N 121.867 -3.96002 3.72402 0
M  V30 1214 H 125.669 -1.80914 2.31619 0
M  V30 1215 H 123.183 -0.918455 1.33933 0
M  V30 1216 H 125.18 -3.99766 1.18292 0
M  V30 1217 H 123.84 -3.23424 0.287614 0
M  V30 1218 H 124.851 -3.309 3.98404 0
M  V30 1219 H 121.528 -3.90635 1.47346 0
M  V30 1220 H 122.918 -3.83863 5.51451 0
M  V30 1221 N 125.638 -1.25649 -0.95132 0
M  V30 1222 C 126.57 -1.02112 -2.05197 0
M  V30 1223 C 127.583 0.0150571 -1.62793 0
M  V30 1224 O 128.772 -0.223874 -1.77091 0
M  V30 1225 C 125.872 -0.522361 -3.3485 0
M  V30 1226 C 125.045 -1.62546 -4.06076 0
M  V30 1227 C 124.104 -1.12649 -5.14001 0
M  V30 1228 O 123.13 -1.82156 -5.39266 0
M  V30 1229 N 124.332 0.03047 -5.80492 0
M  V30 1230 H 127.097 -1.96885 -2.25957 0
M  V30 1231 H 124.658 -1.16899 -1.1201 0
M  V30 1232 H 126.65 -0.172961 -4.0433 0
M  V30 1233 H 125.22 0.33151 -3.10837 0
M  V30 1234 H 124.44 -2.14628 -3.30649 0
M  V30 1235 H 125.728 -2.36644 -4.50419 0
M  V30 1236 H 125.126 0.611169 -5.62389 0
M  V30 1237 H 123.683 0.320875 -6.5101 0
M  V30 1238 N 127.117 1.15442 -1.07289 0
M  V30 1239 C 128.528 1.67803 -0.818475 0
M  V30 1240 C 128.879 1.8489 0.656507 0
M  V30 1241 O 128.004 1.55176 1.50829 0
M  V30 1242 C 128.599 3.04805 -1.47917 0
M  V30 1243 C 127.158 3.54245 -1.27229 0
M  V30 1244 C 126.305 2.29986 -1.54925 0
M  V30 1245 H 129.256 0.996646 -1.23502 0
M  V30 1246 H 129.277 3.69702 -0.90005 0
M  V30 1247 H 128.789 2.92336 -2.55267 0
M  V30 1248 H 126.89 3.71956 -0.21899 0
M  V30 1249 H 127.003 4.35723 -1.99203 0
M  V30 1250 H 125.367 2.35496 -0.970242 0
M  V30 1251 H 126.15 2.20105 -2.63455 0
M  V30 1252 N 128.595 0.856903 1.32268 0
M  V30 1253 C 130.006 0.515711 1.79436 0
M  V30 1254 C 130.357 -0.966586 1.70738 0
M  V30 1255 O 129.482 -1.75409 1.26731 0
M  V30 1256 C 130.077 0.929335 3.25805 0
M  V30 1257 C 128.636 0.640006 3.70919 0
M  V30 1258 C 127.783 1.12784 2.53328 0
M  V30 1259 H 130.734 1.04389 1.19535 0
M  V30 1260 H 130.755 0.246633 3.797 0
M  V30 1261 H 130.267 2.00821 3.32103 0
M  V30 1262 H 128.368 -0.428051 3.70133 0
M  V30 1263 H 128.481 1.20788 4.63624 0
M  V30 1264 H 126.845 0.548033 2.48734 0
M  V30 1265 H 127.628 2.21387 2.62379 0
M  V30 1266 N 130.073 -1.45103 0.615059 0
M  V30 1267 C 131.484 -1.85654 0.197383 0
M  V30 1268 C 131.835 -1.51433 -1.24749 0
M  V30 1269 O 130.96 -0.944608 -1.94695 0
M  V30 1270 C 131.555 -3.36972 0.351448 0
M  V30 1271 C 130.114 -3.76398 -0.011593 0
M  V30 1272 C 129.261 -2.69024 0.672394 0
M  V30 1273 H 132.212 -1.35797 0.821263 0
M  V30 1274 H 132.233 -3.78239 -0.414227 0
M  V30 1275 H 131.745 -3.61847 1.40314 0
M  V30 1276 H 129.846 -3.5714 -1.06217 0
M  V30 1277 H 129.959 -4.77532 0.387265 0
M  V30 1278 H 128.323 -2.54465 0.109284 0
M  V30 1279 H 129.106 -2.96735 1.72636 0
M  V30 1280 N 131.551 -0.354651 -1.53558 0
M  V30 1281 C 132.501 0.513179 -2.2215 0
M  V30 1282 C 133.485 1.05734 -1.21281 0
M  V30 1283 O 134.677 0.989202 -1.46778 0
M  V30 1284 C 131.806 1.65798 -3.00609 0
M  V30 1285 C 130.892 1.12722 -4.08845 0
M  V30 1286 N 131.283 0.318563 -5.04796 0
M  V30 1287 C 129.581 1.40307 -4.23356 0
M  V30 1288 C 130.282 0.0292224 -5.81693 0
M  V30 1289 N 129.258 0.623891 -5.40008 0
M  V30 1290 H 133.06 -0.111586 -2.93688 0
M  V30 1291 H 130.574 -0.162091 -1.61589 0
M  V30 1292 H 132.571 2.29176 -3.48258 0
M  V30 1293 H 131.231 2.28591 -2.306 0
M  V30 1294 H 132.242 -0.0413091 -5.17884 0
M  V30 1295 H 128.919 2.03458 -3.6457 0
M  V30 1296 H 130.309 -0.623808 -6.68998 0
M  V30 1297 N 133.029 1.57378 -0.0835403 0
M  V30 1298 C 134.44 1.81261 0.447358 0
M  V30 1299 C 134.791 0.998331 1.68902 0
M  V30 1300 O 133.916 0.224282 2.15235 0
M  V30 1301 C 134.511 3.28767 0.818386 0
M  V30 1302 C 133.07 3.53455 1.29409 0
M  V30 1303 C 132.217 2.75831 0.285024 0
M  V30 1304 H 135.168 1.5566 -0.309115 0
M  V30 1305 H 135.189 3.41459 1.67887 0
M  V30 1306 H 134.701 3.88006 -0.0855019 0
M  V30 1307 H 132.802 2.99534 2.21608 0
M  V30 1308 H 132.915 4.62128 1.2639 0
M  V30 1309 H 131.279 2.42947 0.764767 0
M  V30 1310 H 132.062 3.37813 -0.611341 0
M  V30 1311 N 134.507 -0.190092 1.56449 0
M  V30 1312 C 135.439 -1.25973 1.91477 0
M  V30 1313 C 136.452 -1.41452 0.805931 0
M  V30 1314 O 137.641 -1.41789 1.08435 0
M  V30 1315 C 134.741 -2.63117 2.13594 0
M  V30 1316 C 133.914 -2.69182 3.4476 0
M  V30 1317 C 132.973 -3.87557 3.5593 0
M  V30 1318 O 131.999 -3.74427 4.28711 0
M  V30 1319 N 133.201 -5.03224 2.89388 0
M  V30 1320 H 135.966 -0.962394 2.83828 0
M  V30 1321 H 133.527 -0.379981 1.57378 0
M  V30 1322 H 135.519 -3.40742 2.1835 0
M  V30 1323 H 134.089 -2.85319 1.27719 0
M  V30 1324 H 133.309 -1.77793 3.51828 0
M  V30 1325 H 134.597 -2.70229 4.31107 0
M  V30 1326 H 133.995 -5.16791 2.30094 0
M  V30 1327 H 132.552 -5.78778 2.99764 0
M  V30 1328 N 135.985 -1.50799 -0.457987 0
M  V30 1329 C 137.396 -1.55152 -1.0385 0
M  V30 1330 C 137.747 -0.362719 -1.92818 0
M  V30 1331 O 136.872 0.522915 -2.09987 0
M  V30 1332 C 137.467 -2.81173 -1.89017 0
M  V30 1333 C 136.026 -2.88164 -2.42154 0
M  V30 1334 C 135.173 -2.49591 -1.20829 0
M  V30 1335 H 138.124 -1.56874 -0.240068 0
M  V30 1336 H 138.145 -2.63769 -2.74238 0
M  V30 1337 H 137.657 -3.67677 -1.24238 0
M  V30 1338 H 135.758 -2.06042 -3.10447 0
M  V30 1339 H 135.871 -3.91356 -2.76364 0
M  V30 1340 H 134.235 -2.02322 -1.54719 0
M  V30 1341 H 135.018 -3.38418 -0.576927 0
M  V30 1342 N 137.463 0.71206 -1.40597 0
M  V30 1343 C 138.413 1.81783 -1.37619 0
M  V30 1344 C 139.397 1.58896 -0.253162 0
M  V30 1345 O 140.589 1.70009 -0.492547 0
M  V30 1346 C 137.718 3.19944 -1.24462 0
M  V30 1347 C 136.804 3.48582 -2.4156 0
M  V30 1348 N 137.195 3.48016 -3.67041 0
M  V30 1349 C 135.493 3.79056 -2.35016 0
M  V30 1350 C 136.194 3.75096 -4.44609 0
M  V30 1351 N 135.17 3.94022 -3.74497 0
M  V30 1352 H 138.972 1.79683 -2.32575 0
M  V30 1353 H 136.486 0.91134 -1.34419 0
M  V30 1354 H 138.483 3.99133 -1.20411 0
M  V30 1355 H 137.143 3.23267 -0.304762 0
M  V30 1356 H 138.154 3.28782 -4.00153 0
M  V30 1357 H 134.831 3.89848 -1.49415 0
M  V30 1358 H 136.221 3.80934 -5.53479 0
M  V30 1359 N 138.941 1.26152 0.944643 0
M  V30 1360 C 139.873 1.03199 2.04652 0
M  V30 1361 C 140.886 -0.00642356 1.62799 0
M  V30 1362 O 142.075 0.233263 1.76969 0
M  V30 1363 C 139.175 0.540111 3.34568 0
M  V30 1364 C 138.348 1.64697 4.05208 0
M  V30 1365 C 137.407 1.15374 5.13396 0
M  V30 1366 O 136.433 1.85013 5.38293 0
M  V30 1367 N 137.635 0.00031529 5.805 0
M  V30 1368 H 140.4 1.9808 2.2491 0
M  V30 1369 H 137.961 1.17491 1.11389 0
M  V30 1370 H 139.953 0.194401 4.04233 0
M  V30 1371 H 138.523 -0.315021 3.11009 0
M  V30 1372 H 137.743 2.16379 3.29506 0
M  V30 1373 H 139.031 2.3903 4.49157 0
M  V30 1374 H 138.429 -0.581336 5.62705 0
M  V30 1375 H 136.986 -0.286346 6.51171 0
M  V30 1376 N 140.419 -1.14872 1.07899 0
M  V30 1377 C 141.351 -2.19425 0.662231 0
M  V30 1378 C 142.364 -1.60231 -0.288079 0
M  V30 1379 O 143.553 -1.78336 -0.076534 0
M  V30 1380 C 140.653 -3.38867 -0.0470695 0
M  V30 1381 C 139.826 -4.27597 0.920831 0
M  V30 1382 C 138.885 -5.25616 0.247805 0
M  V30 1383 O 137.911 -5.62189 0.890599 0
M  V30 1384 N 139.113 -5.71746 -1.00435 0
M  V30 1385 H 141.878 -2.55797 1.56166 0
M  V30 1386 H 139.439 -1.30042 0.964404 0
M  V30 1387 H 141.431 -4.01497 -0.50813 0
M  V30 1388 H 140.001 -3.00864 -0.848523 0
M  V30 1389 H 139.221 -3.61982 1.56087 0
M  V30 1390 H 140.509 -4.83748 1.57688 0
M  V30 1391 H 139.907 -5.44153 -1.54642 0
M  V30 1392 H 138.464 -6.36389 -1.40899 0
M  V30 1393 N 141.898 -0.863906 -1.31812 0
M  V30 1394 C 142.83 -0.272485 -2.27575 0
M  V30 1395 C 143.843 0.56104 -1.52827 0
M  V30 1396 O 145.032 0.384021 -1.7432 0
M  V30 1397 C 142.132 0.63283 -3.32939 0
M  V30 1398 C 141.305 -0.166902 -4.37081 0
M  V30 1399 C 140.364 0.665608 -5.21973 0
M  V30 1400 O 139.39 0.0958091 -5.69119 0
M  V30 1401 N 140.592 1.9787 -5.45736 0
M  V30 1402 H 143.357 -1.0954 -2.78964 0
M  V30 1403 H 140.918 -0.724791 -1.4477 0
M  V30 1404 H 142.91 1.19532 -3.86645 0
M  V30 1405 H 141.48 1.35642 -2.81638 0
M  V30 1406 H 140.7 -0.910838 -3.83533 0
M  V30 1407 H 141.988 -0.715874 -5.03739 0
M  V30 1408 H 141.386 2.46484 -5.09178 0
M  V30 1409 H 139.943 2.48911 -6.024 0
M  V30 1410 N 143.376 1.44774 -0.622745 0
M  V30 1411 C 144.308 2.28856 0.125485 0
M  V30 1412 C 145.321 1.40811 0.817069 0
M  V30 1413 O 146.51 1.65044 0.679918 0
M  V30 1414 C 143.61 3.16963 1.19949 0
M  V30 1415 C 142.783 4.33374 0.592064 0
M  V30 1416 C 141.842 5.02577 1.55893 0
M  V30 1417 O 140.868 5.58873 1.07933 0
M  V30 1418 N 142.07 5.03256 2.89334 0
M  V30 1419 H 144.835 2.93713 -0.596068 0
M  V30 1420 H 142.396 1.55129 -0.463303 0
M  V30 1421 H 144.388 3.60123 1.84644 0
M  V30 1422 H 142.958 2.53913 1.82337 0
M  V30 1423 H 142.178 3.93509 -0.233322 0
M  V30 1424 H 143.466 5.08527 0.166738 0
M  V30 1425 H 142.864 4.58836 3.30887 0
M  V30 1426 H 141.421 5.50232 3.49412 0
M  V30 1427 N 144.854 0.36279 1.53368 0
M  V30 1428 C 146.265 -0.117022 1.86333 0
M  V30 1429 C 146.616 -1.48397 1.28347 0
M  V30 1430 O 145.741 -2.07787 0.604428 0
M  V30 1431 C 146.336 -0.21912 3.38091 0
M  V30 1432 C 144.895 -0.643184 3.70864 0
M  V30 1433 C 144.042 0.211318 2.76494 0
M  V30 1434 H 146.993 0.581687 1.47655 0
M  V30 1435 H 147.014 -1.04319 3.6592 0
M  V30 1436 H 146.526 0.775902 3.80265 0
M  V30 1437 H 144.627 -1.64654 3.34245 0
M  V30 1438 H 144.74 -0.41973 4.77258 0
M  V30 1439 H 143.104 -0.319367 2.5269 0
M  V30 1440 H 143.887 1.20383 3.21501 0
M  V30 1441 N 146.332 -1.57332 0.0918853 0
M  V30 1442 C 147.743 -1.81496 -0.437739 0
M  V30 1443 C 148.094 -1.00727 -1.6837 0
M  V30 1444 O 147.219 -0.235694 -2.15113 0
M  V30 1445 C 147.814 -3.29197 -0.800939 0
M  V30 1446 C 146.373 -3.54136 -1.27532 0
M  V30 1447 C 145.52 -2.75979 -0.270392 0
M  V30 1448 H 148.471 -1.55494 0.317366 0
M  V30 1449 H 148.492 -3.42344 -1.66074 0
M  V30 1450 H 148.004 -3.87955 0.106078 0
M  V30 1451 H 146.105 -3.00705 -2.20016 0
M  V30 1452 H 146.218 -4.62792 -1.23938 0
M  V30 1453 H 144.582 -2.43349 -0.751872 0
M  V30 1454 H 145.365 -3.37484 0.629248 0
M  V30 1455 N 147.81 0.181792 -1.56548 0
M  V30 1456 C 149.221 0.745244 -1.71181 0
M  V30 1457 C 149.572 1.83262 -0.70068 0
M  V30 1458 O 148.697 2.15946 0.140154 0
M  V30 1459 C 149.292 1.35859 -3.10367 0
M  V30 1460 C 147.851 1.86898 -3.2672 0
M  V30 1461 C 146.998 0.743942 -2.67134 0
M  V30 1462 H 149.949 -0.0434661 -1.5864 0
M  V30 1463 H 149.97 2.22817 -3.08436 0
M  V30 1464 H 149.482 0.566948 -3.83937 0
M  V30 1465 H 147.583 2.68738 -2.5809 0
M  V30 1466 H 147.696 2.02162 -4.34359 0
M  V30 1467 H 146.06 1.16169 -2.26665 0
M  V30 1468 H 146.843 -0.035676 -3.43281 0
M  V30 1469 N 149.288 1.51039 0.449983 0
M  V30 1470 C 150.699 1.557 1.03026 0
M  V30 1471 C 151.05 0.372939 1.92623 0
M  V30 1472 O 150.175 -0.511771 2.10261 0
M  V30 1473 C 150.77 2.82171 1.87523 0
M  V30 1474 C 149.329 2.89444 2.40622 0
M  V30 1475 C 148.476 2.50228 1.19504 0
M  V30 1476 H 151.427 1.56999 0.231745 0
M  V30 1477 H 151.448 2.65219 2.72835 0
M  V30 1478 H 150.96 3.68331 1.22286 0
M  V30 1479 H 149.061 2.07685 3.0935 0
M  V30 1480 H 149.174 3.92816 2.74285 0
M  V30 1481 H 147.538 2.03139 1.53644 0
M  V30 1482 H 148.321 3.38719 0.558972 0
M  V30 1483 N 150.766 -0.704594 1.40972 0
M  V30 1484 C 152.177 -1.28418 1.3552 0
M  V30 1485 C 152.528 -1.96171 0.0339434 0
M  V30 1486 O 151.653 -1.98231 -0.867944 0
M  V30 1487 C 152.248 -2.33528 2.45459 0
M  V30 1488 C 150.807 -2.87085 2.43433 0
M  V30 1489 C 149.954 -1.61007 2.2577 0
M  V30 1490 H 152.905 -0.499963 1.50619 0
M  V30 1491 H 152.926 -3.14619 2.13998 0
M  V30 1492 H 152.438 -1.84187 3.41609 0
M  V30 1493 H 150.539 -3.40626 1.51013 0
M  V30 1494 H 150.652 -3.3813 3.39419 0
M  V30 1495 H 149.016 -1.86482 1.73483 0
M  V30 1496 H 149.799 -1.13675 3.23933 0
M  V30 1497 N 152.244 -1.26651 -0.937939 0
M  V30 1498 C 153.176 -1.04283 -2.04102 0
M  V30 1499 C 154.189 -0.00221014 -1.628 0
M  V30 1500 O 155.378 -0.242645 -1.76843 0
M  V30 1501 C 152.478 -0.557846 -3.34277 0
M  V30 1502 C 151.651 -1.66843 -4.04329 0
M  V30 1503 C 150.71 -1.18095 -5.12777 0
M  V30 1504 O 149.736 -1.87865 -5.37304 0
M  V30 1505 N 150.938 -0.0311006 -5.80492 0
M  V30 1506 H 153.703 -1.9927 -2.23856 0
M  V30 1507 H 151.264 -1.1808 -1.10764 0
M  V30 1508 H 153.256 -0.215836 -4.04124 0
M  V30 1509 H 151.826 0.298523 -3.11171 0
M  V30 1510 H 151.046 -2.18123 -3.28353 0
M  V30 1511 H 152.334 -2.41408 -4.47883 0
M  V30 1512 H 151.732 0.551486 -5.63005 0
M  V30 1513 H 150.289 0.251809 -6.51313 0
M  V30 1514 N 153.722 1.14298 -1.08507 0
M  V30 1515 C 154.999 1.81544 -0.728088 0
M  V30 1516 C 155.379 1.95838 0.78808 0
M  V30 1517 O 154.727 1.51904 1.70697 0
M  V30 1518 C 154.937 3.17169 -1.45619 0
M  V30 1519 C 156.285 3.9265 -1.61591 0
M  V30 1520 O 157.309 3.26762 -1.41793 0
M  V30 1521 O 156.168 5.10807 -1.94263 0
M  V30 1522 H 153.262 0.78491 -0.260471 0
M  V30 1523 H 155.808 1.21307 -1.18671 0
M  V30 1524 H 154.58 3.01934 -2.489 0
M  V30 1525 H 154.203 3.851 -0.989124 0
M  V30 1526 N 155.201 0.870884 1.31352 0
M  V30 1527 C 156.426 0.495957 2.01383 0
M  V30 1528 C 156.851 -0.904324 1.64935 0
M  V30 1529 O 156.209 -1.59687 0.858466 0
M  V30 1530 C 156.257 0.661433 3.54482 0
M  V30 1531 O 155.361 -0.298851 4.11316 0
M  V30 1532 H 154.702 0.197158 0.634054 0
M  V30 1533 H 157.232 1.17455 1.67527 0
M  V30 1534 H 157.242 0.555072 4.04207 0
M  V30 1535 H 155.917 1.68246 3.8035 0
M  V30 1536 H 154.494 -0.147368 3.72609 0
M  V30 1537 N 156.679 -1.44442 0.630414 0
M  V30 1538 C 157.904 -2.06927 0.139944 0
M  V30 1539 C 158.329 -1.46795 -1.17613 0
M  V30 1540 O 157.687 -0.569144 -1.72135 0
M  V30 1541 C 157.735 -3.6058 0.0379581 0
M  V30 1542 O 156.839 -3.99937 -1.0062 0
M  V30 1543 H 156.18 -0.658608 0.0844483 0
M  V30 1544 H 158.71 -1.85327 0.866891 0
M  V30 1545 H 158.72 -4.07714 -0.152856 0
M  V30 1546 H 157.395 -4.03728 0.998809 0
M  V30 1547 H 155.972 -3.64436 -0.79001 0
M  V30 1548 N 158.157 -0.370918 -1.53173 0
M  V30 1549 C 159.104 0.473035 -2.259 0
M  V30 1550 C 160.074 1.07311 -1.26781 0
M  V30 1551 O 161.259 1.1046 -1.55574 0
M  V30 1552 C 158.399 1.60405 -3.05556 0
M  V30 1553 C 157.512 1.02863 -4.19575 0
M  V30 1554 C 156.647 2.12918 -4.86661 0
M  V30 1555 C 155.686 1.52869 -5.92704 0
M  V30 1556 N 154.823 2.56779 -6.53459 0
M  V30 1557 H 159.663 -0.153649 -2.97604 0
M  V30 1558 H 157.2 -0.0875946 -1.46839 0
M  V30 1559 H 159.158 2.27034 -3.50016 0
M  V30 1560 H 157.788 2.20131 -2.36097 0
M  V30 1561 H 156.84 0.252465 -3.79561 0
M  V30 1562 H 158.152 0.549642 -4.95762 0
M  V30 1563 H 157.306 2.87356 -5.34333 0
M  V30 1564 H 156.045 2.6417 -4.09958 0
M  V30 1565 H 155.05 0.769479 -5.44389 0
M  V30 1566 H 156.275 1.02435 -6.7133 0
M  V30 1567 H 154.221 3.07235 -5.79606 0
M  V30 1568 H 154.138 2.13583 -7.25202 0
M  V30 1569 H 155.406 3.30903 -7.05779 0
M  V30 1570 N 159.635 1.57281 -0.100228 0
M  V30 1571 C 161.046 1.81725 0.428107 0
M  V30 1572 C 161.397 1.01619 1.67833 0
M  V30 1573 O 160.522 0.247098 2.14985 0
M  V30 1574 C 161.117 3.29617 0.78347 0
M  V30 1575 C 159.676 3.54808 1.25653 0
M  V30 1576 C 158.823 2.76118 0.255752 0
M  V30 1577 H 161.774 1.55324 -0.325608 0
M  V30 1578 H 161.795 3.4322 1.64256 0
M  V30 1579 H 161.307 3.87893 -0.12665 0
M  V30 1580 H 159.408 3.01868 2.18418 0
M  V30 1581 H 159.521 4.63443 1.21482 0
M  V30 1582 H 157.885 2.43745 0.738956 0
M  V30 1583 H 158.668 3.37145 -0.647136 0
M  V30 1584 N 161.113 -0.173488 1.56642 0
M  V30 1585 C 162.359 -0.891784 1.8214 0
M  V30 1586 C 162.692 -1.8199 0.677736 0
M  V30 1587 O 161.967 -1.91842 -0.320446 0
M  V30 1588 C 162.25 -1.68933 3.18015 0
M  V30 1589 C 162.103 -0.784487 4.42906 0
M  V30 1590 C 163.422 -2.65748 3.50808 0
M  V30 1591 H 160.541 -0.322761 0.662567 0
M  V30 1592 H 163.183 -0.158095 1.89341 0
M  V30 1593 H 161.333 -2.31482 3.12007 0
M  V30 1594 H 163.005 -0.172046 4.60979 0
M  V30 1595 H 161.248 -0.0924117 4.33702 0
M  V30 1596 H 161.919 -1.37799 5.34524 0
M  V30 1597 H 164.395 -2.13327 3.57255 0
M  V30 1598 H 163.271 -3.18619 4.4696 0
M  V30 1599 H 163.532 -3.45842 2.75401 0
M  V30 1600 N 162.591 -1.51276 -0.441967 0
M  V30 1601 C 163.837 -1.63958 -1.19355 0
M  V30 1602 C 164.17 -0.352543 -1.90973 0
M  V30 1603 O 163.445 0.647627 -1.83401 0
M  V30 1604 C 163.728 -2.83979 -2.21422 0
M  V30 1605 C 163.581 -4.22646 -1.53918 0
M  V30 1606 C 164.9 -2.99521 -3.22451 0
M  V30 1607 H 162.019 -0.596709 -0.432559 0
M  V30 1608 H 164.661 -1.83748 -0.483398 0
M  V30 1609 H 162.811 -2.67237 -2.81987 0
M  V30 1610 H 164.483 -4.51045 -0.967256 0
M  V30 1611 H 162.726 -4.25558 -0.841615 0
M  V30 1612 H 163.397 -5.02609 -2.28229 0
M  V30 1613 H 165.873 -3.14944 -2.71937 0
M  V30 1614 H 164.749 -3.85072 -3.91166 0
M  V30 1615 H 165.01 -2.11391 -3.88287 0
M  V30 1616 N 164.069 0.697108 -1.41344 0
M  V30 1617 C 165.032 1.79281 -1.42797 0
M  V30 1618 C 166.032 1.57607 -0.318837 0
M  V30 1619 O 167.222 1.64309 -0.578642 0
M  V30 1620 C 164.354 3.17632 -1.23785 0
M  V30 1621 H 165.547 1.79385 -2.40335 0
M  V30 1622 H 163.1 0.904582 -1.27464 0
M  V30 1623 H 163.835 3.23167 -0.270814 0
M  V30 1624 H 163.62 3.34765 -2.04144 0
M  V30 1625 H 165.11 3.97617 -1.27633 0
M  V30 1626 N 165.547 1.27147 0.931209 0
M  V30 1627 C 166.479 1.05364 2.03546 0
M  V30 1628 C 167.492 0.0108438 1.62796 0
M  V30 1629 O 168.681 0.25202 1.76712 0
M  V30 1630 C 165.781 0.575566 3.33977 0
M  V30 1631 C 164.954 1.68985 4.03439 0
M  V30 1632 C 164.013 1.20813 5.12143 0
M  V30 1633 O 163.039 1.90712 5.363 0
M  V30 1634 N 164.241 0.0618851 5.80467 0
M  V30 1635 H 167.006 2.00454 2.22796 0
M  V30 1636 H 164.567 1.18666 1.10136 0
M  V30 1637 H 166.559 0.237264 4.04004 0
M  V30 1638 H 165.129 -0.282016 3.11325 0
M  V30 1639 H 164.349 2.19861 3.27192 0
M  V30 1640 H 165.637 2.4378 4.46597 0
M  V30 1641 H 165.035 -0.521621 5.6329 0
M  V30 1642 H 163.592 -0.217264 6.51438 0
M  V30 1643 N 167.025 -1.13721 1.09112 0
M  V30 1644 C 168.273 -1.84559 0.823562 0
M  V30 1645 C 168.594 -1.83754 -0.652658 0
M  V30 1646 O 167.864 -1.29102 -1.47342 0
M  V30 1647 H 166.444 -0.683376 0.301673 0
M  V30 1648 H 169.106 -1.37771 1.37859 0
M  V30 1649 H 168.202 -2.8917 1.17419 0
M  V30 1650 N 168.503 -0.877838 -1.30888 0
M  V30 1651 C 169.914 -0.544193 -1.78593 0
M  V30 1652 C 170.265 0.939301 -1.72254 0
M  V30 1653 O 169.39 1.7337 -1.29505 0
M  V30 1654 C 169.985 -0.98105 -3.24285 0
M  V30 1655 C 168.544 -0.698935 -3.69854 0
M  V30 1656 C 167.691 -1.168 -2.51502 0
M  V30 1657 H 170.642 -1.06278 -1.17859 0
M  V30 1658 H 170.663 -0.307009 -3.79259 0
M  V30 1659 H 170.175 -2.06079 -3.28866 0
M  V30 1660 H 168.276 0.369112 -3.70767 0
M  V30 1661 H 168.389 -1.28148 -4.61644 0
M  V30 1662 H 166.753 -0.587535 -2.47831 0
M  V30 1663 H 167.536 -2.25533 -2.58824 0
M  V30 1664 N 169.982 1.44106 -0.638065 0
M  V30 1665 C 171.23 2.01579 -0.145043 0
M  V30 1666 C 171.551 1.50496 1.24 0
M  V30 1667 O 170.821 0.711374 1.82527 0
M  V30 1668 H 169.401 0.745282 -0.05063 0
M  V30 1669 H 172.063 1.76516 -0.826327 0
M  V30 1670 H 171.159 3.11877 -0.118039 0
M  V30 1671 N 171.46 0.379036 1.52974 0
M  V30 1672 C 172.871 -0.0972525 1.86447 0
M  V30 1673 C 173.222 -1.47027 1.29914 0
M  V30 1674 O 172.347 -2.07135 0.626433 0
M  V30 1675 C 172.942 -0.183248 3.38304 0
M  V30 1676 C 171.501 -0.603812 3.71525 0
M  V30 1677 C 170.648 0.240632 2.76254 0
M  V30 1678 H 173.599 0.597316 1.4703 0
M  V30 1679 H 173.62 -1.00432 3.67006 0
M  V30 1680 H 173.132 0.816191 3.79421 0
M  V30 1681 H 171.233 -1.61099 3.35973 0
M  V30 1682 H 171.346 -0.369086 4.77676 0
M  V30 1683 H 169.71 -0.292548 2.53014 0
M  V30 1684 H 170.493 1.23786 3.20206 0
M  V30 1685 N 172.938 -1.57226 0.108567 0
M  V30 1686 C 173.901 -2.13602 -0.831082 0
M  V30 1687 C 174.901 -1.06841 -1.20173 0
M  V30 1688 O 176.091 -1.32666 -1.12895 0
M  V30 1689 C 173.223 -2.66769 -2.12243 0
M  V30 1690 H 174.416 -2.97951 -0.341317 0
M  V30 1691 H 171.969 -1.55667 -0.14057 0
M  V30 1692 H 172.704 -1.85977 -2.65675 0
M  V30 1693 H 172.489 -3.44839 -1.86625 0
M  V30 1694 H 173.979 -3.10332 -2.79435 0
M  V30 1695 N 174.416 0.165178 -1.56732 0
M  V30 1696 C 175.827 0.727046 -1.71962 0
M  V30 1697 C 176.178 1.82508 -0.720078 0
M  V30 1698 O 175.303 2.16082 0.117242 0
M  V30 1699 C 175.898 1.32559 -3.11791 0
M  V30 1700 C 174.457 1.83422 -3.28684 0
M  V30 1701 C 173.604 0.715567 -2.67908 0
M  V30 1702 H 176.555 -0.0602896 -1.58585 0
M  V30 1703 H 176.576 2.19533 -3.10782 0
M  V30 1704 H 176.088 0.526195 -3.84516 0
M  V30 1705 H 174.189 2.65986 -2.60926 0
M  V30 1706 H 174.302 1.97543 -4.36478 0
M  V30 1707 H 172.666 1.13758 -2.27884 0
M  V30 1708 H 173.449 -0.0720836 -3.43224 0
M  V30 1709 N 175.894 1.51508 0.433938 0
M  V30 1710 C 177.142 1.6402 1.18075 0
M  V30 1711 C 177.463 0.360328 1.91642 0
M  V30 1712 O 176.733 -0.623945 1.85698 0
M  V30 1713 H 175.313 0.6045 0.43885 0
M  V30 1714 H 177.975 1.88452 0.497178 0
M  V30 1715 H 177.071 2.46949 1.90847 0
M  V30 1716 N 177.372 -0.689602 1.41712 0
M  V30 1717 C 178.618 -1.45181 1.41599 0
M  V30 1718 C 178.951 -1.94181 0.0270081 0
M  V30 1719 O 178.226 -1.6993 -0.946265 0
M  V30 1720 C 178.509 -2.65945 2.42787 0
M  V30 1721 C 178.362 -2.22672 3.90816 0
M  V30 1722 C 179.681 -3.68149 2.41151 0
M  V30 1723 H 176.8 -0.526576 0.515642 0
M  V30 1724 H 179.442 -0.784947 1.73028 0
M  V30 1725 H 177.592 -3.2284 2.16116 0
M  V30 1726 H 179.264 -1.71058 4.28412 0
M  V30 1727 H 177.507 -1.54394 4.05395 0
M  V30 1728 H 178.178 -3.0935 4.57172 0
M  V30 1729 H 180.654 -3.2094 2.64834 0
M  V30 1730 H 179.53 -4.50248 3.13955 0
M  V30 1731 H 179.791 -4.18259 1.43221 0
M  V30 1732 N 178.85 -1.27639 -0.924453 0
M  V30 1733 C 180.098 -1.13941 -1.66918 0
M  V30 1734 C 180.419 0.314589 -1.92446 0
M  V30 1735 O 179.689 1.21964 -1.53303 0
M  V30 1736 H 178.269 -0.418678 -0.618642 0
M  V30 1737 H 180.931 -1.60213 -1.10985 0
M  V30 1738 H 180.027 -1.67094 -2.63602 0
M  V30 1739 N 180.328 1.1314 -1.09713 0
M  V30 1740 C 181.553 1.88862 -0.857081 0
M  V30 1741 C 181.978 1.78729 0.586304 0
M  V30 1742 O 181.336 1.13692 1.41222 0
M  V30 1743 C 181.384 3.36325 -1.30069 0
M  V30 1744 O 180.488 4.09815 -0.461007 0
M  V30 1745 H 179.829 0.587108 -0.310162 0
M  V30 1746 H 182.359 1.43129 -1.46203 0
M  V30 1747 H 182.369 3.87157 -1.28738 0
M  V30 1748 H 181.044 3.43017 -2.35185 0
M  V30 1749 H 179.621 3.68986 -0.538888 0
M  V30 1750 N 181.806 0.884767 1.30421 0
M  V30 1751 C 182.769 0.356277 2.26414 0
M  V30 1752 C 183.769 -0.501124 1.52792 0
M  V30 1753 O 184.959 -0.30831 1.7145 0
M  V30 1754 C 182.091 -0.492316 3.37326 0
M  V30 1755 H 183.284 1.20389 2.74675 0
M  V30 1756 H 180.837 0.661607 1.41607 0
M  V30 1757 H 181.572 -1.36052 2.94381 0
M  V30 1758 H 181.357 0.121832 3.91911 0
M  V30 1759 H 182.847 -0.853871 4.08777 0
M  V30 1760 N 183.284 -1.43765 0.645699 0
M  V30 1761 C 184.695 -1.85193 0.236719 0
M  V30 1762 C 185.046 -1.54045 -1.21509 0
M  V30 1763 O 184.171 -0.985694 -1.92647 0
M  V30 1764 C 184.766 -3.36151 0.422845 0
M  V30 1765 C 183.325 -3.76338 0.0682492 0
M  V30 1766 C 182.472 -2.67538 0.729306 0
M  V30 1767 H 185.423 -1.34025 0.849883 0
M  V30 1768 H 185.444 -3.79032 -0.333904 0
M  V30 1769 H 184.956 -3.5879 1.47958 0
M  V30 1770 H 183.057 -3.59312 -0.986179 0
M  V30 1771 H 183.17 -4.76603 0.488469 0
M  V30 1772 H 181.534 -2.54176 0.163235 0
M  V30 1773 H 182.317 -2.93006 1.78892 0
M  V30 1774 N 184.763 -0.387143 -1.52771 0
M  V30 1775 C 186.174 0.0873634 -1.86495 0
M  V30 1776 C 186.525 1.46336 -1.30691 0
M  V30 1777 O 185.65 2.068 -0.637409 0
M  V30 1778 C 186.245 0.165305 -3.38396 0
M  V30 1779 C 184.804 0.584101 -3.7184 0
M  V30 1780 C 183.951 -0.255279 -2.76122 0
M  V30 1781 H 186.902 -0.605104 -1.46711 0
M  V30 1782 H 186.923 0.984848 -3.67534 0
M  V30 1783 H 186.435 -0.836301 -3.78982 0
M  V30 1784 H 184.536 1.59315 -3.36823 0
M  V30 1785 H 184.649 0.343749 -4.77865 0
M  V30 1786 H 183.013 0.279126 -2.53166 0
M  V30 1787 H 183.796 -1.25482 -3.19545 0
M  V30 1788 N 186.241 1.57166 -0.116904 0
M  V30 1789 C 187.204 2.14039 0.819742 0
M  V30 1790 C 188.204 1.07477 1.19605 0
M  V30 1791 O 189.394 1.33263 1.1219 0
M  V30 1792 C 186.526 2.67891 2.10826 0
M  V30 1793 H 187.719 2.98128 0.325511 0
M  V30 1794 H 185.272 1.55739 0.132312 0
M  V30 1795 H 186.007 1.87384 2.64685 0
M  V30 1796 H 185.792 3.45823 1.84793 0
M  V30 1797 H 187.282 3.11809 2.77785 0
M  V30 1798 N 187.719 -0.156864 1.56817 0
M  V30 1799 C 188.944 -0.890331 1.87318 0
M  V30 1800 C 189.369 -1.74394 0.704855 0
M  V30 1801 O 188.727 -1.77972 -0.345786 0
M  V30 1802 C 188.775 -1.73102 3.16336 0
M  V30 1803 O 187.879 -2.83422 2.99576 0
M  V30 1804 H 187.22 -0.24857 0.615718 0
M  V30 1805 H 189.75 -0.150649 2.04045 0
M  V30 1806 H 189.76 -2.12803 3.48107 0
M  V30 1807 H 188.435 -1.10412 4.00976 0
M  V30 1808 H 187.012 -2.47199 2.7919 0
M  V30 1809 N 189.197 -1.51736 -0.425897 0
M  V30 1810 C 190.422 -1.69082 -1.20108 0
M  V30 1811 C 190.847 -0.392398 -1.83962 0
M  V30 1812 O 190.205 0.64858 -1.69302 0
M  V30 1813 C 190.253 -2.81604 -2.25237 0
M  V30 1814 O 189.357 -2.46004 -3.30992 0
M  V30 1815 H 188.698 -0.563408 -0.35138 0
M  V30 1816 H 191.228 -1.98358 -0.501512 0
M  V30 1817 H 191.238 -3.06025 -2.69838 0
M  V30 1818 H 189.913 -3.75817 -1.78142 0
M  V30 1819 H 188.49 -2.32195 -2.91787 0
M  V30 1820 N 190.675 0.682077 -1.42076 0
M  V30 1821 C 191.9 1.47558 -1.45744 0
M  V30 1822 C 192.325 1.87977 -0.0680981 0
M  V30 1823 O 191.683 1.55522 0.9318 0
M  V30 1824 C 191.731 2.70575 -2.38373 0
M  V30 1825 O 190.835 3.68573 -1.85007 0
M  V30 1826 H 190.176 0.443585 -0.494093 0
M  V30 1827 H 192.706 0.837238 -1.86686 0
M  V30 1828 H 192.716 3.18729 -2.54707 0
M  V30 1829 H 191.391 2.40495 -3.39315 0
M  V30 1830 H 189.968 3.2757 -1.78192 0
M  V30 1831 N 192.153 1.28127 0.917671 0
M  V30 1832 C 193.116 1.11744 2.00115 0
M  V30 1833 C 194.116 0.0583052 1.60694 0
M  V30 1834 O 195.306 0.303755 1.71531 0
M  V30 1835 C 192.438 0.704862 3.33533 0
M  V30 1836 H 193.631 2.07966 2.16079 0
M  V30 1837 H 191.184 1.11058 1.09981 0
M  V30 1838 H 191.919 -0.258299 3.2327 0
M  V30 1839 H 191.704 1.4699 3.63505 0
M  V30 1840 H 193.194 0.612768 4.1308 0
M  V30 1841 N 193.631 -1.12557 1.10312 0
M  V30 1842 C 195.042 -1.65574 0.862678 0
M  V30 1843 C 195.393 -1.86566 -0.607256 0
M  V30 1844 O 194.518 -1.59121 -1.46662 0
M  V30 1845 C 195.113 -3.00776 1.55947 0
M  V30 1846 C 193.672 -3.50748 1.36576 0
M  V30 1847 C 192.819 -2.25797 1.60968 0
M  V30 1848 H 195.77 -0.963552 1.26101 0
M  V30 1849 H 195.791 -3.67185 0.997753 0
M  V30 1850 H 195.303 -2.85465 2.62928 0
M  V30 1851 H 193.404 -3.71245 0.317531 0
M  V30 1852 H 193.517 -4.30289 2.10686 0
M  V30 1853 H 191.881 -2.32841 1.03234 0
M  V30 1854 H 192.664 -2.13043 2.69198 0
M  V30 1855 N 195.109 -0.891671 -1.2995 0
M  V30 1856 C 196.52 -0.563104 -1.78006 0
M  V30 1857 C 196.871 0.920978 -1.73241 0
M  V30 1858 O 195.996 1.71987 -1.31337 0
M  V30 1859 C 196.591 -1.01539 -3.23226 0
M  V30 1860 C 195.15 -0.738124 -3.69092 0
M  V30 1861 C 194.297 -1.19461 -2.50249 0
M  V30 1862 H 197.248 -1.07522 -1.16725 0
M  V30 1863 H 197.269 -0.347217 -3.78912 0
M  V30 1864 H 196.781 -2.09555 -3.26662 0
M  V30 1865 H 194.882 0.329766 -3.71138 0
M  V30 1866 H 194.995 -1.33037 -4.60259 0
M  V30 1867 H 193.359 -0.613787 -2.47194 0
M  V30 1868 H 194.142 -2.28265 -2.56417 0
M  V30 1869 N 196.587 1.43421 -0.653314 0
M  V30 1870 C 197.55 2.29182 0.0287951 0
M  V30 1871 C 198.55 1.42213 0.750465 0
M  V30 1872 O 199.74 1.63843 0.591701 0
M  V30 1873 C 196.872 3.24278 1.05151 0
M  V30 1874 H 198.065 2.90985 -0.725786 0
M  V30 1875 H 195.618 1.50702 -0.414545 0
M  V30 1876 H 196.353 2.6737 1.83532 0
M  V30 1877 H 196.138 3.88396 0.537687 0
M  V30 1878 H 197.628 3.88647 1.52786 0
M  V30 1879 N 198.065 0.39524 1.52563 0
M  V30 1880 C 199.293 -0.184943 2.06072 0
M  V30 1881 C 199.708 -1.40021 1.26647 0
M  V30 1882 O 199.065 -1.79767 0.314672 0
M  V30 1883 C 199.116 -0.549179 3.57304 0
M  V30 1884 O 198.837 0.617813 4.33722 0
M  V30 1885 C 200.338 -1.18459 4.2718 0
M  V30 1886 H 197.558 -0.0265025 0.670476 0
M  V30 1887 H 200.102 0.562184 1.96621 0
M  V30 1888 H 198.257 -1.2462 3.66809 0
M  V30 1889 H 198.671 0.317091 5.23541 0
M  V30 1890 H 200.145 -1.38976 5.34219 0
M  V30 1891 H 200.622 -2.15368 3.82771 0
M  V30 1892 H 201.228 -0.528163 4.22008 0
M  V30 1893 N 199.544 -1.57102 0.125237 0
M  V30 1894 C 200.955 -1.82384 -0.399142 0
M  V30 1895 C 201.306 -1.04276 -1.66195 0
M  V30 1896 O 200.431 -0.281269 -2.14564 0
M  V30 1897 C 201.026 -3.30821 -0.730932 0
M  V30 1898 C 199.585 -3.56762 -1.19992 0
M  V30 1899 C 198.732 -2.7649 -0.211792 0
M  V30 1900 H 201.683 -1.54786 0.350277 0
M  V30 1901 H 201.704 -3.4579 -1.58775 0
M  V30 1902 H 201.216 -3.87643 0.188345 0
M  V30 1903 H 199.317 -3.05305 -2.13588 0
M  V30 1904 H 199.43 -4.65317 -1.14093 0
M  V30 1905 H 197.794 -2.4489 -0.700085 0
M  V30 1906 H 198.577 -3.36073 0.700691 0
M  V30 1907 N 201.022 0.148545 -1.56898 0
M  V30 1908 C 202.433 0.708766 -1.72723 0
M  V30 1909 C 202.784 1.81734 -0.739395 0
M  V30 1910 O 201.909 2.16194 0.0943169 0
M  V30 1911 C 202.504 1.29245 -3.13179 0
M  V30 1912 C 201.063 1.79925 -3.30611 0
M  V30 1913 C 200.21 0.687111 -2.68652 0
M  V30 1914 H 203.161 -0.0771063 -1.58513 0
M  V30 1915 H 203.182 2.16224 -3.13093 0
M  V30 1916 H 202.694 0.485382 -3.85053 0
M  V30 1917 H 200.795 2.63203 -2.63732 0
M  V30 1918 H 200.908 1.92903 -4.38549 0
M  V30 1919 H 199.272 1.11335 -2.29078 0
M  V30 1920 H 200.055 -0.108483 -3.43129 0
M  V30 1921 N 202.5 1.5196 0.417844 0
M  V30 1922 C 203.728 1.69426 1.18753 0
M  V30 1923 C 204.143 0.399955 1.84515 0
M  V30 1924 O 203.5 -0.623288 1.71527 0
M  V30 1925 C 203.551 2.82375 2.25714 0
M  V30 1926 O 203.272 4.06793 1.62638 0
M  V30 1927 C 204.773 3.11277 3.15628 0
M  V30 1928 H 201.993 0.568031 0.357186 0
M  V30 1929 H 204.537 1.98475 0.49273 0
M  V30 1930 H 202.692 2.5587 2.90877 0
M  V30 1931 H 203.106 4.69667 2.3348 0
M  V30 1932 H 204.58 3.93843 3.86771 0
M  V30 1933 H 205.057 2.24473 3.77503 0
M  V30 1934 H 205.663 3.39515 2.56144 0
M  V30 1935 N 203.978 -0.674533 1.42435 0
M  V30 1936 C 205.203 -1.46784 1.46524 0
M  V30 1937 C 205.628 -1.87938 0.078066 0
M  V30 1938 O 204.986 -1.56014 -0.92354 0
M  V30 1939 C 205.034 -2.69307 2.39805 0
M  V30 1940 O 204.138 -3.67587 1.86959 0
M  V30 1941 H 203.479 -0.440959 0.496439 0
M  V30 1942 H 206.009 -0.827326 1.87127 0
M  V30 1943 H 206.019 -3.17374 2.56393 0
M  V30 1944 H 204.694 -2.38692 3.40586 0
M  V30 1945 H 203.271 -3.2662 1.79927 0
M  V30 1946 N 205.456 -1.28612 -0.910864 0
M  V30 1947 C 206.704 -1.15705 -1.65701 0
M  V30 1948 C 207.025 0.29416 -1.92769 0
M  V30 1949 O 206.295 1.20331 -1.54588 0
M  V30 1950 H 204.875 -0.425216 -0.614167 0
M  V30 1951 H 207.537 -1.61381 -1.0928 0
M  V30 1952 H 206.633 -1.6988 -2.61815 0
M  V30 1953 N 206.934 1.1197 -1.10907 0
M  V30 1954 C 207.897 2.16031 -0.765707 0
M  V30 1955 C 208.897 1.59393 0.212235 0
M  V30 1956 O 210.087 1.74196 -0.0115441 0
M  V30 1957 C 207.219 3.40632 -0.135053 0
M  V30 1958 H 208.412 2.47919 -1.68748 0
M  V30 1959 H 205.965 1.27061 -0.910226 0
M  V30 1960 H 206.7 3.14348 0.797218 0
M  V30 1961 H 206.485 3.8302 -0.838937 0
M  V30 1962 H 207.975 4.17505 0.0892469 0
M  V30 1963 N 208.412 0.89855 1.29475 0
M  V30 1964 C 209.823 0.572537 1.77705 0
M  V30 1965 C 210.174 -0.911778 1.73727 0
M  V30 1966 O 209.299 -1.71288 1.32247 0
M  V30 1967 C 209.894 1.03252 3.22683 0
M  V30 1968 C 208.453 0.757687 3.68695 0
M  V30 1969 C 207.6 1.20787 2.49612 0
M  V30 1970 H 210.551 1.08139 1.16153 0
M  V30 1971 H 210.572 0.367307 3.78723 0
M  V30 1972 H 210.084 2.11285 3.25546 0
M  V30 1973 H 208.185 -0.310079 3.71308 0
M  V30 1974 H 208.298 1.35476 4.59547 0
M  V30 1975 H 206.662 0.626888 2.46865 0
M  V30 1976 H 207.445 2.29622 2.55203 0
M  V30 1977 N 209.89 -1.43072 0.660911 0
M  V30 1978 C 211.301 -1.84932 0.256348 0
M  V30 1979 C 211.652 -1.55325 -1.19868 0
M  V30 1980 O 210.777 -1.00607 -1.91591 0
M  V30 1981 C 211.372 -3.35684 0.458475 0
M  V30 1982 C 209.931 -3.76245 0.108161 0
M  V30 1983 C 209.078 -2.66749 0.757641 0
M  V30 1984 H 212.029 -1.33116 0.864051 0
M  V30 1985 H 212.05 -3.79365 -0.293683 0
M  V30 1986 H 211.562 -3.572 1.51755 0
M  V30 1987 H 209.663 -3.60338 -0.948014 0
M  V30 1988 H 209.776 -4.76058 0.538992 0
M  V30 1989 H 208.14 -2.53989 0.190185 0
M  V30 1990 H 208.923 -2.91092 1.81989 0
M  V30 1991 N 211.368 -0.403325 -1.52352 0
M  V30 1992 C 212.616 0.174003 -2.0135 0
M  V30 1993 C 212.937 1.46139 -1.29106 0
M  V30 1994 O 212.207 1.91448 -0.415253 0
M  V30 1995 H 210.787 0.0672911 -0.743963 0
M  V30 1996 H 213.449 -0.538235 -1.87321 0
M  V30 1997 H 212.545 0.374254 -3.09848 0
M  V30 1998 N 212.846 1.57033 -0.133567 0
M  V30 1999 C 214.071 2.00475 0.531477 0
M  V30 2000 C 214.496 1.01291 1.58499 0
M  V30 2001 O 213.854 -0.0133279 1.81295 0
M  V30 2002 C 213.902 3.42729 1.12113 0
M  V30 2003 O 213.006 3.46498 2.23636 0
M  V30 2004 H 212.347 0.650876 0.131362 0
M  V30 2005 H 214.877 2.03344 -0.22634 0
M  V30 2006 H 214.887 3.81246 1.4531 0
M  V30 2007 H 213.562 4.14428 0.349557 0
M  V30 2008 H 212.139 3.19811 1.91769 0
M  V30 2009 N 214.325 -0.140222 1.56975 0
M  V30 2010 C 215.573 -0.850005 1.83356 0
M  V30 2011 C 215.894 -1.81399 0.71551 0
M  V30 2012 O 215.164 -1.94136 -0.262294 0
M  V30 2013 H 213.744 -0.316886 0.676456 0
M  V30 2014 H 216.406 -0.132608 1.94448 0
M  V30 2015 H 215.502 -1.40814 2.78528 0
M  V30 2016 N 215.803 -1.52179 -0.40978 0
M  V30 2017 C 217.214 -1.58377 -0.988615 0
M  V30 2018 C 217.565 -0.423879 -1.91566 0
M  V30 2019 O 216.69 0.455844 -2.11544 0
M  V30 2020 C 217.285 -2.87044 -1.79976 0
M  V30 2021 C 215.844 -2.95722 -2.32863 0
M  V30 2022 C 214.991 -2.53309 -1.12828 0
M  V30 2023 H 217.942 -1.57558 -0.190039 0
M  V30 2024 H 217.963 -2.7236 -2.65707 0
M  V30 2025 H 217.475 -3.71444 -1.12478 0
M  V30 2026 H 215.576 -2.15814 -3.03735 0
M  V30 2027 H 215.689 -3.99951 -2.63773 0
M  V30 2028 H 214.053 -2.07142 -1.48204 0
M  V30 2029 H 214.836 -3.40082 -0.46897 0
M  V30 2030 N 217.281 0.66697 -1.42791 0
M  V30 2031 C 218.529 1.42417 -1.43394 0
M  V30 2032 C 218.85 1.94925 -0.0542373 0
M  V30 2033 O 218.12 1.73564 0.908415 0
M  V30 2034 H 216.7 0.528515 -0.527902 0
M  V30 2035 H 219.362 0.787562 -1.78279 0
M  V30 2036 H 218.458 2.27333 -2.13837 0
M  V30 2037 N 218.759 1.29093 0.90403 0
M  V30 2038 C 220.17 1.15186 1.46932 0
M  V30 2039 C 220.521 -0.254587 1.94541 0
M  V30 2040 O 219.646 -1.14972 1.83332 0
M  V30 2041 C 220.241 2.08492 2.67051 0
M  V30 2042 C 218.8 1.98621 3.19729 0
M  V30 2043 C 217.947 1.9967 1.92425 0
M  V30 2044 H 220.898 1.41641 0.715789 0
M  V30 2045 H 220.919 1.65461 3.42641 0
M  V30 2046 H 220.431 3.10847 2.3237 0
M  V30 2047 H 218.532 0.993389 3.59114 0
M  V30 2048 H 218.645 2.86068 3.8432 0
M  V30 2049 H 217.009 1.44208 2.09943 0
M  V30 2050 H 217.792 3.03721 1.60026 0
M  V30 2051 N 220.237 -1.11381 1.11499 0
M  V30 2052 C 221.465 -1.86934 0.88675 0
M  V30 2053 C 221.88 -1.80195 -0.563476 0
M  V30 2054 O 221.237 -1.18367 -1.38908 0
M  V30 2055 C 221.288 -3.35722 1.34064 0
M  V30 2056 O 221.009 -3.4232 2.73401 0
M  V30 2057 C 222.51 -4.2818 1.14791 0
M  V30 2058 H 219.73 -0.591117 0.317523 0
M  V30 2059 H 222.274 -1.40865 1.48248 0
M  V30 2060 H 220.429 -3.79294 0.788355 0
M  V30 2061 H 220.843 -4.34971 2.93087 0
M  V30 2062 H 222.317 -5.30817 1.5145 0
M  V30 2063 H 222.794 -4.39113 0.0875279 0
M  V30 2064 H 223.4 -3.90402 1.68721 0
M  V30 2065 N 221.715 -0.905404 -1.28997 0
M  V30 2066 C 223.126 -0.581953 -1.77398 0
M  V30 2067 C 223.477 0.902552 -1.74208 0
M  V30 2068 O 222.602 1.70584 -1.33154 0
M  V30 2069 C 223.197 -1.04961 -3.22131 0
M  V30 2070 C 221.756 -0.777229 -3.68288 0
M  V30 2071 C 220.903 -1.22109 -2.48967 0
M  V30 2072 H 223.854 -1.08754 -1.15578 0
M  V30 2073 H 223.875 -0.387387 -3.78523 0
M  V30 2074 H 223.387 -2.13008 -3.24421 0
M  V30 2075 H 221.488 0.290383 -3.71467 0
M  V30 2076 H 221.601 -1.37911 -4.58822 0
M  V30 2077 H 219.965 -0.639971 -2.46529 0
M  V30 2078 H 220.748 -2.30972 -2.53982 0
M  V30 2079 N 223.193 1.4272 -0.668489 0
M  V30 2080 C 224.421 2.05966 -0.196348 0
M  V30 2081 C 224.836 1.50191 1.14403 0
M  V30 2082 O 224.193 0.639208 1.7094 0
M  V30 2083 C 224.244 3.61314 -0.115815 0
M  V30 2084 O 223.965 4.1502 -1.40322 0
M  V30 2085 C 225.466 4.41663 0.380579 0
M  V30 2086 H 222.686 0.663954 -0.0969829 0
M  V30 2087 H 225.23 1.82966 -0.913446 0
M  V30 2088 H 223.385 3.83448 0.551931 0
M  V30 2089 H 223.799 5.08832 -1.27243 0
M  V30 2090 H 225.273 5.5065 0.385848 0
M  V30 2091 H 225.75 4.15792 1.41471 0
M  V30 2092 H 226.356 4.24534 -0.255209 0
M  V30 2093 N 224.671 0.411399 1.52136 0
M  V30 2094 C 226.082 -0.0576826 1.86611 0
M  V30 2095 C 226.433 -1.44238 1.33003 0
M  V30 2096 O 225.558 -2.05759 0.670228 0
M  V30 2097 C 226.153 -0.111448 3.38617 0
M  V30 2098 C 224.712 -0.52487 3.72723 0
M  V30 2099 C 223.859 0.299176 2.75681 0
M  V30 2100 H 226.81 0.628368 1.4573 0
M  V30 2101 H 226.831 -0.926252 3.69054 0
M  V30 2102 H 226.343 0.896488 3.77604 0
M  V30 2103 H 224.444 -1.53936 3.39315 0
M  V30 2104 H 224.557 -0.267681 4.78352 0
M  V30 2105 H 222.921 -0.238814 2.53578 0
M  V30 2106 H 223.704 1.3055 3.17508 0
M  V30 2107 N 226.149 -1.5696 0.141893 0
M  V30 2108 C 227.56 -1.82797 -0.379776 0
M  V30 2109 C 227.911 -1.06033 -1.6508 0
M  V30 2110 O 227.036 -0.304011 -2.14254 0
M  V30 2111 C 227.631 -3.31578 -0.695802 0
M  V30 2112 C 226.19 -3.58014 -1.16201 0
M  V30 2113 C 225.337 -2.76699 -0.182455 0
M  V30 2114 H 228.288 -1.54406 0.366675 0
M  V30 2115 H 228.309 -3.47454 -1.55099 0
M  V30 2116 H 227.821 -3.87421 0.229449 0
M  V30 2117 H 225.922 -3.07553 -2.10338 0
M  V30 2118 H 226.035 -4.66501 -1.09151 0
M  V30 2119 H 224.399 -2.45618 -0.674072 0
M  V30 2120 H 225.182 -3.35311 0.736297 0
M  V30 2121 N 227.627 0.131896 -1.57047 0
M  V30 2122 C 229.038 0.690407 -1.73465 0
M  V30 2123 C 229.389 1.8094 -0.758629 0
M  V30 2124 O 228.514 2.16282 0.0713813 0
M  V30 2125 C 229.109 1.25916 -3.14532 0
M  V30 2126 C 227.668 1.76409 -3.32501 0
M  V30 2127 C 226.815 0.658579 -2.69366 0
M  V30 2128 H 229.766 -0.0939144 -1.58422 0
M  V30 2129 H 229.787 2.12892 -3.15369 0
M  V30 2130 H 229.299 0.444515 -3.85546 0
M  V30 2131 H 227.4 2.60391 -2.66509 0
M  V30 2132 H 227.513 1.88241 -4.4057 0
M  V30 2133 H 225.877 1.08899 -2.30246 0
M  V30 2134 H 226.66 -0.14487 -3.42994 0
M  V30 2135 N 229.106 1.52395 0.401703 0
M  V30 2136 C 230.069 1.75636 1.47257 0
M  V30 2137 C 231.069 0.62628 1.48103 0
M  V30 2138 O 232.259 0.894227 1.49497 0
M  V30 2139 C 229.391 1.84553 2.86624 0
M  V30 2140 H 230.584 2.71241 1.27938 0
M  V30 2141 H 228.137 1.42923 0.632662 0
M  V30 2142 H 228.872 0.908882 3.11303 0
M  V30 2143 H 228.657 2.66715 2.87412 0
M  V30 2144 H 230.147 2.04251 3.64241 0
M  V30 2145 N 230.584 -0.659388 1.43143 0
M  V30 2146 C 231.83 -1.42145 1.44647 0
M  V30 2147 C 232.163 -1.9408 0.0681907 0
M  V30 2148 O 231.438 -1.71899 -0.910007 0
M  V30 2149 C 231.721 -2.60735 2.48373 0
M  V30 2150 C 231.574 -2.14332 3.95451 0
M  V30 2151 C 232.893 -3.62951 2.48906 0
M  V30 2152 H 230.012 -0.51552 0.526696 0
M  V30 2153 H 232.654 -0.748069 1.74654 0
M  V30 2154 H 230.804 -3.18184 2.22916 0
M  V30 2155 H 232.476 -1.61932 4.31944 0
M  V30 2156 H 230.719 -1.4576 4.08578 0
M  V30 2157 H 231.39 -2.99583 4.63631 0
M  V30 2158 H 233.866 -3.1525 2.71582 0
M  V30 2159 H 232.742 -4.43487 3.23435 0
M  V30 2160 H 233.003 -4.15126 1.52061 0
M  V30 2161 N 232.062 -1.29571 -0.897171 0
M  V30 2162 C 233.29 -1.20583 -1.68129 0
M  V30 2163 C 233.705 0.233181 -1.87354 0
M  V30 2164 O 233.062 1.15579 -1.41236 0
M  V30 2165 C 233.113 -1.91772 -3.06441 0
M  V30 2166 O 232.834 -3.30053 -2.88091 0
M  V30 2167 C 234.335 -1.89291 -4.00854 0
M  V30 2168 H 231.555 -0.417826 -0.525036 0
M  V30 2169 H 234.099 -1.70987 -1.12177 0
M  V30 2170 H 232.254 -1.45196 -3.59161 0
M  V30 2171 H 232.668 -3.65942 -3.75748 0
M  V30 2172 H 234.142 -2.43662 -4.95311 0
M  V30 2173 H 234.619 -0.869014 -4.30517 0
M  V30 2174 H 235.225 -2.35622 -3.54066 0
M  V30 2175 N 233.54 1.10788 -1.12088 0
M  V30 2176 C 234.765 1.87002 -0.896949 0
M  V30 2177 C 235.19 1.79933 0.548261 0
M  V30 2178 O 234.548 1.16662 1.38779 0
M  V30 2179 C 234.596 3.3349 -1.37174 0
M  V30 2180 O 233.7 4.08745 -0.547831 0
M  V30 2181 H 233.041 0.580397 -0.322545 0
M  V30 2182 H 235.571 1.39996 -1.49206 0
M  V30 2183 H 235.581 3.84339 -1.36922 0
M  V30 2184 H 234.256 3.37951 -2.42408 0
M  V30 2185 H 232.833 3.6776 -0.617034 0
M  V30 2186 N 235.018 0.912232 1.28515 0
M  V30 2187 C 235.981 0.404223 2.25607 0
M  V30 2188 C 236.981 -0.468602 1.53821 0
M  V30 2189 O 238.171 -0.271873 1.72065 0
M  V30 2190 C 235.303 -0.420653 3.38295 0
M  V30 2191 H 236.496 1.26188 2.7206 0
M  V30 2192 H 234.049 0.691495 1.40171 0
M  V30 2193 H 234.784 -1.29777 2.97201 0
M  V30 2194 H 234.569 0.204935 3.91564 0
M  V30 2195 H 236.059 -0.766971 4.10496 0
M  V30 2196 N 236.496 -1.42363 0.676048 0
M  V30 2197 C 237.907 -1.84649 0.275948 0
M  V30 2198 C 238.258 -1.56588 -1.18214 0
M  V30 2199 O 237.383 -1.02634 -1.90513 0
M  V30 2200 C 237.978 -3.35178 0.494053 0
M  V30 2201 C 236.537 -3.76109 0.148061 0
M  V30 2202 C 235.684 -2.65931 0.785891 0
M  V30 2203 H 238.635 -1.32192 0.878121 0
M  V30 2204 H 238.656 -3.79655 -0.25343 0
M  V30 2205 H 238.168 -3.55571 1.55535 0
M  V30 2206 H 236.269 -3.61323 -0.909742 0
M  V30 2207 H 236.382 -4.7546 0.589454 0
M  V30 2208 H 234.746 -2.53773 0.217113 0
M  V30 2209 H 235.529 -2.89146 1.85067 0
M  V30 2210 N 237.974 -0.419461 -1.51915 0
M  V30 2211 C 239.385 0.0477853 -1.86639 0
M  V30 2212 C 239.736 1.43531 -1.33766 0
M  V30 2213 O 238.861 2.05401 -0.68113 0
M  V30 2214 C 239.456 0.0934885 -3.38671 0
M  V30 2215 C 238.015 0.505097 -3.72996 0
M  V30 2216 C 237.162 -0.313792 -2.75519 0
M  V30 2217 H 240.113 -0.636088 -1.45395 0
M  V30 2218 H 240.134 0.906667 -3.6954 0
M  V30 2219 H 239.646 -0.916501 -3.77123 0
M  V30 2220 H 237.747 1.52135 -3.40126 0
M  V30 2221 H 237.86 0.242309 -4.78487 0
M  V30 2222 H 236.224 0.225363 -2.53701 0
M  V30 2223 H 237.007 -1.32232 -3.16812 0
M  V30 2224 N 239.452 1.56882 -0.150215 0
M  V30 2225 C 240.7 1.9584 0.499105 0
M  V30 2226 C 241.021 1.03623 1.65188 0
M  V30 2227 O 240.291 0.0984084 1.95653 0
M  V30 2228 H 238.871 0.723119 0.187373 0
M  V30 2229 H 241.533 1.9358 -0.226466 0
M  V30 2230 H 240.629 2.99638 0.873122 0
M  V30 2231 N 240.93 -0.123565 1.57115 0
M  V30 2232 C 241.893 -1.13583 1.99076 0
M  V30 2233 C 242.893 -1.34564 0.880296 0
M  V30 2234 O 244.083 -1.31158 1.14644 0
M  V30 2235 C 241.215 -2.49128 2.32698 0
M  V30 2236 H 242.408 -0.775287 2.89706 0
M  V30 2237 H 239.961 -0.36771 1.51913 0
M  V30 2238 H 240.696 -2.90111 1.44934 0
M  V30 2239 H 240.481 -2.35255 3.13684 0
M  V30 2240 H 241.971 -3.2199 2.65918 0
M  V30 2241 N 242.408 -1.52605 -0.393616 0
M  V30 2242 C 243.819 -1.59417 -0.971761 0
M  V30 2243 C 244.17 -0.444173 -1.91106 0
M  V30 2244 O 243.295 0.433382 -2.12016 0
M  V30 2245 C 243.89 -2.88936 -1.76921 0
M  V30 2246 C 242.449 -2.98175 -2.29714 0
M  V30 2247 C 241.596 -2.54491 -1.10135 0
M  V30 2248 H 244.547 -1.57751 -0.173317 0
M  V30 2249 H 244.568 -2.75163 -2.62804 0
M  V30 2250 H 244.08 -3.72616 -1.08532 0
M  V30 2251 H 242.181 -2.19024 -3.01429 0
M  V30 2252 H 242.294 -4.02726 -2.59517 0
M  V30 2253 H 240.658 -2.08702 -1.45999 0
M  V30 2254 H 241.441 -3.4056 -0.432874 0
M  V30 2255 N 243.887 0.651787 -1.4349 0
M  V30 2256 C 245.298 1.233 -1.40193 0
M  V30 2257 C 245.649 1.9591 -0.106727 0
M  V30 2258 O 244.774 2.01316 0.793773 0
M  V30 2259 C 245.369 2.24257 -2.53957 0
M  V30 2260 C 243.928 2.77852 -2.5392 0
M  V30 2261 C 243.075 1.52517 -2.3159 0
M  V30 2262 H 246.026 0.443717 -1.52371 0
M  V30 2263 H 246.047 3.0646 -2.25528 0
M  V30 2264 H 245.559 1.71382 -3.4821 0
M  V30 2265 H 243.66 3.34786 -1.63551 0
M  V30 2266 H 243.773 3.25299 -3.51735 0
M  V30 2267 H 242.137 1.79915 -1.80285 0
M  V30 2268 H 242.92 1.01574 -3.27929 0
M  V30 2269 N 245.365 1.30045 0.890287 0
M  V30 2270 C 246.776 1.16738 1.45702 0
M  V30 2271 C 247.127 -0.233939 1.948 0
M  V30 2272 O 246.252 -1.13021 1.84541 0
M  V30 2273 C 246.847 2.11313 2.64825 0
M  V30 2274 C 245.406 2.02001 3.17604 0
M  V30 2275 C 244.553 2.01699 1.90296 0
M  V30 2276 H 247.504 1.42392 0.700726 0
M  V30 2277 H 247.525 1.69086 3.40867 0
M  V30 2278 H 247.037 3.13294 2.2906 0
M  V30 2279 H 245.138 1.03142 3.5804 0
M  V30 2280 H 245.251 2.90128 3.81264 0
M  V30 2281 H 243.615 1.46427 2.08402 0
M  V30 2282 H 244.398 3.05402 1.56795 0
M  V30 2283 N 246.843 -1.10192 1.12674 0
M  V30 2284 C 248.071 -1.85983 0.906527 0
M  V30 2285 C 248.486 -1.80783 -0.544333 0
M  V30 2286 O 247.843 -1.19834 -1.37645 0
M  V30 2287 C 247.894 -3.34281 1.37618 0
M  V30 2288 O 247.615 -3.39401 2.77017 0
M  V30 2289 C 249.116 -4.26938 1.19325 0
M  V30 2290 H 246.336 -0.587716 0.323775 0
M  V30 2291 H 248.88 -1.39284 1.49734 0
M  V30 2292 H 247.035 -3.78436 0.828539 0
M  V30 2293 H 247.449 -4.31838 2.97684 0
M  V30 2294 H 248.923 -5.29181 1.57071 0
M  V30 2295 H 249.4 -4.38995 0.134097 0
M  V30 2296 H 250.006 -3.8859 1.72852 0
M  V30 2297 N 248.321 -0.919034 -1.28029 0
M  V30 2298 C 249.732 -0.600735 -1.76771 0
M  V30 2299 C 250.083 0.884024 -1.75156 0
M  V30 2300 O 249.208 1.69163 -1.34956 0
M  V30 2301 C 249.803 -1.08372 -3.21 0
M  V30 2302 C 248.362 -0.816248 -3.67443 0
M  V30 2303 C 247.509 -1.24742 -2.47658 0
M  V30 2304 H 250.46 -1.09974 -1.14418 0
M  V30 2305 H 250.481 -0.427512 -3.78091 0
M  V30 2306 H 249.993 -2.16437 -3.22144 0
M  V30 2307 H 248.094 0.250968 -3.71754 0
M  V30 2308 H 248.207 -1.4277 -4.57333 0
M  V30 2309 H 246.571 -0.666083 -2.45836 0
M  V30 2310 H 247.354 -2.33653 -2.51518 0
M  V30 2311 N 249.799 1.42003 -0.683588 0
M  V30 2312 C 251.21 1.84501 -0.285736 0
M  V30 2313 C 251.561 1.57213 1.17382 0
M  V30 2314 O 250.686 1.03642 1.89966 0
M  V30 2315 C 251.281 3.34912 -0.511821 0
M  V30 2316 C 249.84 3.76025 -0.168005 0
M  V30 2317 C 248.987 2.6551 -0.799983 0
M  V30 2318 H 251.938 1.31724 -0.885119 0
M  V30 2319 H 251.959 3.79784 0.233292 0
M  V30 2320 H 251.471 3.54741 -1.57418 0
M  V30 2321 H 249.572 3.61801 0.890567 0
M  V30 2322 H 249.685 4.75141 -0.614661 0
M  V30 2323 H 248.049 2.53654 -0.230568 0
M  V30 2324 H 248.832 2.8816 -1.86597 0
M  V30 2325 N 251.277 0.427512 1.51691 0
M  V30 2326 C 252.502 -0.143601 2.06902 0
M  V30 2327 C 252.927 -1.36536 1.29382 0
M  V30 2328 O 252.285 -1.78289 0.329043 0
M  V30 2329 C 252.333 -0.454207 3.57728 0
M  V30 2330 O 251.437 -1.54228 3.82475 0
M  V30 2331 H 250.778 -0.00617128 0.663971 0
M  V30 2332 H 253.308 0.606014 1.95419 0
M  V30 2333 H 253.318 -0.707525 4.01818 0
M  V30 2334 H 251.993 0.438812 4.13579 0
M  V30 2335 H 250.57 -1.2797 3.50254 0
M  V30 2336 N 252.755 -1.56801 0.158532 0
M  V30 2337 C 253.98 -2.01295 -0.499516 0
M  V30 2338 C 254.405 -1.03799 -1.56867 0
M  V30 2339 O 253.763 -0.0155162 -1.81293 0
M  V30 2340 C 253.811 -3.44469 -1.06647 0
M  V30 2341 O 252.915 -3.50012 -2.18095 0
M  V30 2342 H 252.256 -0.652884 -0.12099 0
M  V30 2343 H 254.786 -2.02958 0.258661 0
M  V30 2344 H 254.796 -3.8351 -1.39227 0
M  V30 2345 H 253.471 -4.14932 -0.283581 0
M  V30 2346 H 252.048 -3.22822 -1.86656 0
M  V30 2347 N 254.233 0.115231 -1.57178 0
M  V30 2348 C 255.481 0.820727 -1.84685 0
M  V30 2349 C 255.802 1.80237 -0.744279 0
M  V30 2350 O 255.072 1.94529 0.231375 0
M  V30 2351 H 253.652 0.306084 -0.681411 0
M  V30 2352 H 256.314 0.101656 -1.94635 0
M  V30 2353 H 255.41 1.36366 -2.80733 0
M  V30 2354 N 255.711 1.52812 0.385517 0
M  V30 2355 C 256.957 1.68275 1.13188 0
M  V30 2356 C 257.29 0.423179 1.89533 0
M  V30 2357 O 256.565 -0.579113 1.85679 0
M  V30 2358 C 256.848 2.92001 2.1073 0
M  V30 2359 C 256.701 4.28067 1.38125 0
M  V30 2360 C 258.02 3.11283 3.11113 0
M  V30 2361 H 255.139 0.612352 0.410115 0
M  V30 2362 H 257.781 1.85415 0.414869 0
M  V30 2363 H 255.931 2.77519 2.71874 0
M  V30 2364 H 257.603 4.54324 0.799187 0
M  V30 2365 H 255.846 4.28388 0.683092 0
M  V30 2366 H 256.517 5.10733 2.09417 0
M  V30 2367 H 258.993 3.2482 2.6006 0
M  V30 2368 H 257.869 3.99325 3.76605 0
M  V30 2369 H 258.13 2.25656 3.80173 0
M  V30 2370 N 257.189 -0.644168 1.43834 0
M  V30 2371 C 258.6 -1.22554 1.40845 0
M  V30 2372 C 258.951 -1.9585 0.117115 0
M  V30 2373 O 258.076 -2.01734 -0.783086 0
M  V30 2374 C 258.671 -2.22907 2.55143 0
M  V30 2375 C 257.23 -2.76501 2.5539 0
M  V30 2376 C 256.377 -1.51287 2.32396 0
M  V30 2377 H 259.328 -0.43563 1.52604 0
M  V30 2378 H 259.349 -3.05259 2.2715 0
M  V30 2379 H 258.861 -1.69533 3.49114 0
M  V30 2380 H 256.962 -3.33914 1.65324 0
M  V30 2381 H 257.075 -3.23429 3.53455 0
M  V30 2382 H 255.439 -1.78957 1.81236 0
M  V30 2383 H 256.222 -0.998336 3.28463 0
M  V30 2384 N 258.668 -1.30515 -0.883378 0
M  V30 2385 C 259.896 -1.22359 -1.66841 0
M  V30 2386 C 260.311 0.213296 -1.87591 0
M  V30 2387 O 259.668 1.14075 -1.42454 0
M  V30 2388 C 259.719 -1.95011 -3.04389 0
M  V30 2389 O 259.44 -3.3309 -2.84575 0
M  V30 2390 C 260.941 -1.93532 -3.98824 0
M  V30 2391 H 258.161 -0.423371 -0.520575 0
M  V30 2392 H 260.705 -1.72167 -1.10357 0
M  V30 2393 H 258.86 -1.48997 -3.57601 0
M  V30 2394 H 259.274 -3.69907 -3.71846 0
M  V30 2395 H 260.748 -2.48902 -4.92699 0
M  V30 2396 H 261.225 -0.914627 -4.29571 0
M  V30 2397 H 261.831 -2.39364 -3.51547 0
M  V30 2398 N 260.146 1.09593 -1.13257 0
M  V30 2399 C 261.374 1.855 -0.916378 0
M  V30 2400 C 261.789 1.81069 0.534738 0
M  V30 2401 O 261.146 1.20562 1.37007 0
M  V30 2402 C 261.197 3.33546 -1.39388 0
M  V30 2403 O 260.918 3.37927 -2.78813 0
M  V30 2404 C 262.419 4.26299 -1.21588 0
M  V30 2405 H 259.639 0.585991 -0.326887 0
M  V30 2406 H 262.183 1.38488 -1.5047 0
M  V30 2407 H 260.338 3.77992 -0.848597 0
M  V30 2408 H 260.752 4.30254 -2.9997 0
M  V30 2409 H 262.226 5.28341 -1.59876 0
M  V30 2410 H 262.703 4.38918 -0.157376 0
M  V30 2411 H 263.309 3.87668 -1.7491 0
M  V30 2412 N 261.624 0.925811 1.2754 0
M  V30 2413 C 263.035 0.610102 1.7645 0
M  V30 2414 C 263.386 -0.874723 1.75622 0
M  V30 2415 O 262.511 -1.68444 1.35851 0
M  V30 2416 C 263.106 1.10073 3.20421 0
M  V30 2417 C 261.665 0.835723 3.67005 0
M  V30 2418 C 260.812 1.26054 2.46993 0
M  V30 2419 H 263.763 1.10579 1.13833 0
M  V30 2420 H 263.784 0.447557 3.77859 0
M  V30 2421 H 263.296 2.18143 3.20991 0
M  V30 2422 H 261.397 -0.231249 3.71882 0
M  V30 2423 H 261.51 1.45193 4.56569 0
M  V30 2424 H 259.874 0.679111 2.45479 0
M  V30 2425 H 260.657 2.34984 2.50275 0
M  V30 2426 N 263.102 -1.41638 0.69111 0
M  V30 2427 C 264.513 -1.84346 0.295517 0
M  V30 2428 C 264.864 -1.57833 -1.16547 0
M  V30 2429 O 263.989 -1.04648 -1.89414 0
M  V30 2430 C 264.584 -3.34636 0.529575 0
M  V30 2431 C 263.143 -3.7593 0.187944 0
M  V30 2432 C 262.29 -2.65082 0.814052 0
M  V30 2433 H 265.241 -1.31253 0.892092 0
M  V30 2434 H 265.262 -3.79903 -0.213148 0
M  V30 2435 H 264.774 -3.53901 1.59297 0
M  V30 2436 H 262.875 -3.62268 -0.871367 0
M  V30 2437 H 262.988 -4.74808 0.63985 0
M  V30 2438 H 261.352 -2.53528 0.244017 0
M  V30 2439 H 262.135 -2.87167 1.88123 0
M  V30 2440 N 264.58 -0.43555 -1.51462 0
M  V30 2441 C 265.512 0.41257 -2.25456 0
M  V30 2442 C 266.525 0.987822 -1.29406 0
M  V30 2443 O 267.714 0.882266 -1.55172 0
M  V30 2444 C 264.814 1.58894 -2.99342 0
M  V30 2445 C 263.987 1.13288 -4.22474 0
M  V30 2446 C 263.046 2.17917 -4.78956 0
M  V30 2447 O 262.072 1.77425 -5.40841 0
M  V30 2448 N 263.274 3.50382 -4.62832 0
M  V30 2449 H 266.039 -0.221603 -2.9888 0
M  V30 2450 H 263.6 -0.264342 -1.59727 0
M  V30 2451 H 265.592 2.28508 -3.34015 0
M  V30 2452 H 264.162 2.12849 -2.28941 0
M  V30 2453 H 263.382 0.263881 -3.93316 0
M  V30 2454 H 264.67 0.805542 -5.02383 0
M  V30 2455 H 264.068 3.86013 -4.13534 0
M  V30 2456 H 262.625 4.15895 -5.01871 0
M  V30 2457 N 266.058 1.56714 -0.166846 0
M  V30 2458 C 267.021 2.16539 0.751232 0
M  V30 2459 C 268.021 1.11228 1.16125 0
M  V30 2460 O 269.211 1.36765 1.07894 0
M  V30 2461 C 266.343 2.74462 2.02196 0
M  V30 2462 H 267.536 2.99013 0.230499 0
M  V30 2463 H 265.089 1.56081 0.0826982 0
M  V30 2464 H 265.824 1.95709 2.58589 0
M  V30 2465 H 265.609 3.51527 1.73698 0
M  V30 2466 H 267.099 3.20489 2.67725 0
M  V30 2467 N 267.536 -0.106894 1.57237 0
M  V30 2468 C 268.784 -0.810921 1.85117 0
M  V30 2469 C 269.105 -1.7984 0.753827 0
M  V30 2470 O 268.375 -1.94649 -0.221056 0
M  V30 2471 H 266.955 -0.302466 0.683025 0
M  V30 2472 H 269.617 -0.0913324 1.94686 0
M  V30 2473 H 268.713 -1.34875 2.81452 0
M  V30 2474 N 269.014 -1.53014 -0.377408 0
M  V30 2475 C 270.262 -1.6829 -1.11906 0
M  V30 2476 C 270.583 -0.431206 -1.90173 0
M  V30 2477 O 269.853 0.554595 -1.87886 0
M  V30 2478 H 268.433 -0.620371 -0.416112 0
M  V30 2479 H 271.095 -1.90167 -0.426893 0
M  V30 2480 H 270.191 -2.53862 -1.8155 0
M  V30 2481 N 270.492 0.636531 -1.44174 0
M  V30 2482 C 271.903 1.21806 -1.41493 0
M  V30 2483 C 272.254 1.95785 -0.1275 0
M  V30 2484 O 271.379 2.02147 0.772376 0
M  V30 2485 C 271.974 2.21551 -2.56321 0
M  V30 2486 C 270.533 2.75143 -2.56853 0
M  V30 2487 C 269.68 1.50052 -2.33195 0
M  V30 2488 H 272.631 0.427531 -1.52833 0
M  V30 2489 H 272.652 3.0405 -2.28765 0
M  V30 2490 H 272.164 1.67679 -3.50008 0
M  V30 2491 H 270.265 3.33033 -1.67093 0
M  V30 2492 H 270.378 3.2155 -3.55165 0
M  V30 2493 H 268.742 1.77993 -1.82183 0
M  V30 2494 H 269.525 0.980903 -3.28988 0
M  V30 2495 N 271.97 1.30982 0.876444 0
M  V30 2496 C 273.381 1.18277 1.44456 0
M  V30 2497 C 273.732 -0.213265 1.95037 0
M  V30 2498 O 272.857 -1.11057 1.85729 0
M  V30 2499 C 273.452 2.1411 2.62569 0
M  V30 2500 C 272.011 2.05358 3.15444 0
M  V30 2501 C 271.158 2.03706 1.88146 0
M  V30 2502 H 274.109 1.43127 0.685584 0
M  V30 2503 H 274.13 1.72692 3.39054 0
M  V30 2504 H 273.642 3.15706 2.25724 0
M  V30 2505 H 271.743 1.06934 3.56926 0
M  V30 2506 H 271.856 2.94156 3.78166 0
M  V30 2507 H 270.22 1.48629 2.06837 0
M  V30 2508 H 271.003 3.07047 1.53547 0
M  V30 2509 N 273.449 -1.08991 1.13837 0
M  V30 2510 C 274.86 -1.62746 0.914917 0
M  V30 2511 C 275.211 -1.88403 -0.547594 0
M  V30 2512 O 274.336 -1.63706 -1.41525 0
M  V30 2513 C 274.931 -2.95662 1.65437 0
M  V30 2514 C 273.49 -3.46225 1.47666 0
M  V30 2515 C 272.637 -2.20562 1.6807 0
M  V30 2516 H 275.588 -0.922946 1.29102 0
M  V30 2517 H 275.609 -3.63825 1.11407 0
M  V30 2518 H 275.121 -2.76956 2.71877 0
M  V30 2519 H 273.222 -3.70046 0.435478 0
M  V30 2520 H 273.335 -4.23368 2.24268 0
M  V30 2521 H 271.699 -2.29439 1.10589 0
M  V30 2522 H 272.482 -2.0437 2.7584 0
M  V30 2523 N 274.927 -0.932562 -1.27047 0
M  V30 2524 C 276.338 -0.619451 -1.76124 0
M  V30 2525 C 276.689 0.865397 -1.76083 0
M  V30 2526 O 275.814 1.67722 -1.36742 0
M  V30 2527 C 276.409 -1.11771 -3.19832 0
M  V30 2528 C 274.968 -0.855174 -3.66557 0
M  V30 2529 C 274.115 -1.27362 -2.46321 0
M  V30 2530 H 277.066 -1.11181 -1.13245 0
M  V30 2531 H 277.087 -0.46759 -3.77616 0
M  V30 2532 H 276.599 -2.19842 -3.1983 0
M  V30 2533 H 274.7 0.211524 -3.71999 0
M  V30 2534 H 274.813 -1.47613 -4.55793 0
M  V30 2535 H 273.177 -0.692119 -2.45116 0
M  V30 2536 H 273.96 -2.36307 -2.49025 0
M  V30 2537 N 276.405 1.4127 -0.698611 0
M  V30 2538 C 277.816 1.84187 -0.305289 0
M  V30 2539 C 278.167 1.58449 1.15708 0
M  V30 2540 O 277.292 1.05651 1.88856 0
M  V30 2541 C 277.887 3.3435 -0.547314 0
M  V30 2542 C 276.446 3.75826 -0.207878 0
M  V30 2543 C 275.593 2.64647 -0.828099 0
M  V30 2544 H 278.544 1.30778 -0.89904 0
M  V30 2545 H 278.565 3.8001 0.192998 0
M  V30 2546 H 278.077 3.53051 -1.61172 0
M  V30 2547 H 276.178 3.62725 0.852143 0
M  V30 2548 H 276.291 4.74462 -0.665021 0
M  V30 2549 H 274.655 2.53395 -0.257458 0
M  V30 2550 H 275.438 2.86165 -1.89643 0
M  V30 2551 N 277.883 0.443576 1.51229 0
M  V30 2552 C 278.846 -0.353132 2.26463 0
M  V30 2553 C 279.846 -0.944338 1.3015 0
M  V30 2554 O 281.036 -0.817813 1.5381 0
M  V30 2555 C 278.168 -1.50023 3.06114 0
M  V30 2556 H 279.361 0.3063 2.98332 0
M  V30 2557 H 276.914 0.196902 1.55055 0
M  V30 2558 H 277.649 -2.19553 2.38677 0
M  V30 2559 H 277.434 -1.08241 3.76864 0
M  V30 2560 H 278.924 -2.06296 3.63087 0
M  V30 2561 N 279.361 -1.56624 0.175154 0
M  V30 2562 C 280.324 -2.16934 -0.739738 0
M  V30 2563 C 281.324 -1.11842 -1.15533 0
M  V30 2564 O 282.514 -1.37335 -1.07167 0
M  V30 2565 C 279.646 -2.75531 -2.00738 0
M  V30 2566 H 280.839 -2.99131 -0.214639 0
M  V30 2567 H 278.392 -1.56123 -0.0744197 0
M  V30 2568 H 279.127 -1.97078 -2.57548 0
M  V30 2569 H 278.912 -3.52444 -1.71831 0
M  V30 2570 H 280.402 -3.21904 -2.66021 0
M  V30 2571 N 280.839 0.0985539 -1.57292 0
M  V30 2572 C 282.085 0.803867 -1.86188 0
M  V30 2573 C 282.418 1.78549 -0.763794 0
M  V30 2574 O 281.693 1.93153 0.22855 0
M  V30 2575 C 281.976 1.53568 -3.25713 0
M  V30 2576 C 281.829 0.572277 -4.46145 0
M  V30 2577 C 283.148 2.48708 -3.63087 0
M  V30 2578 H 280.267 0.290781 -0.677211 0
M  V30 2579 H 282.909 0.0675783 -1.8988 0
M  V30 2580 H 281.059 2.16332 -3.22696 0
M  V30 2581 H 282.731 -0.0480894 -4.61275 0
M  V30 2582 H 280.974 -0.114618 -4.33649 0
M  V30 2583 H 281.645 1.12139 -5.40489 0
M  V30 2584 H 284.121 1.96039 -3.67026 0
M  V30 2585 H 282.997 2.96932 -4.61652 0
M  V30 2586 H 283.258 3.32309 -2.91588 0
M  V30 2587 N 282.317 1.53212 0.369288 0
M  V30 2588 C 283.728 1.60943 0.946276 0
M  V30 2589 C 284.079 0.47452 1.90375 0
M  V30 2590 O 283.204 -0.399597 2.12679 0
M  V30 2591 C 283.799 2.91715 1.72302 0
M  V30 2592 C 282.358 3.01792 2.24941 0
M  V30 2593 C 281.505 2.56211 1.06072 0
M  V30 2594 H 284.456 1.58007 0.148198 0
M  V30 2595 H 284.477 2.79309 2.58393 0
M  V30 2596 H 283.989 3.74295 1.0259 0
M  V30 2597 H 282.09 2.23791 2.97906 0
M  V30 2598 H 282.203 4.06803 2.53077 0
M  V30 2599 H 280.567 2.10998 1.4266 0
M  V30 2600 H 281.35 3.41206 0.378639 0
M  V30 2601 N 283.795 -0.628877 1.44509 0
M  V30 2602 C 285.043 -1.38565 1.4712 0
M  V30 2603 C 285.364 -1.94712 0.105899 0
M  V30 2604 O 284.634 -1.75912 -0.862079 0
M  V30 2605 H 283.214 -0.514333 0.541729 0
M  V30 2606 H 285.876 -0.740018 1.80305 0
M  V30 2607 H 284.972 -2.21583 2.19789 0
M  V30 2608 N 285.273 -1.31445 -0.869486 0
M  V30 2609 C 286.684 -1.19042 -1.43826 0
M  V30 2610 C 287.035 0.202919 -1.95148 0
M  V30 2611 O 286.16 1.10071 -1.86315 0
M  V30 2612 C 286.755 -2.15499 -2.6143 0
M  V30 2613 C 285.314 -2.07028 -3.14351 0
M  V30 2614 C 284.461 -2.04701 -1.87063 0
M  V30 2615 H 287.412 -1.43489 -0.677984 0
M  V30 2616 H 287.433 -1.74488 -3.38134 0
M  V30 2617 H 286.945 -3.16899 -2.24046 0
M  V30 2618 H 285.046 -1.08825 -3.56354 0
M  V30 2619 H 285.159 -2.96157 -3.766 0
M  V30 2620 H 283.523 -1.49724 -2.06046 0
M  V30 2621 H 284.306 -3.07857 -1.51917 0
M  V30 2622 N 286.751 1.08385 -1.14413 0
M  V30 2623 C 287.999 1.80419 -0.910679 0
M  V30 2624 C 288.32 1.86658 0.564243 0
M  V30 2625 O 287.59 1.35985 1.41014 0
M  V30 2626 H 286.17 0.668204 -0.333934 0
M  V30 2627 H 288.832 1.31037 -1.44275 0
M  V30 2628 H 287.928 2.83238 -1.31082 0
M  V30 2629 N 288.23 0.939286 1.26551 0
M  V30 2630 C 289.641 0.628782 1.75793 0
M  V30 2631 C 289.992 -0.856046 1.7654 0
M  V30 2632 O 289.117 -1.66994 1.3763 0
M  V30 2633 C 289.712 1.13465 3.19235 0
M  V30 2634 C 288.271 0.874601 3.66098 0
M  V30 2635 C 287.418 1.28667 2.45642 0
M  V30 2636 H 290.369 1.1178 1.12654 0
M  V30 2637 H 290.39 0.487609 3.77363 0
M  V30 2638 H 289.902 2.21535 3.1866 0
M  V30 2639 H 288.003 -0.191793 3.72106 0
M  V30 2640 H 288.116 1.50028 4.55004 0
M  V30 2641 H 286.48 0.705109 2.44745 0
M  V30 2642 H 287.263 2.37625 2.47769 0
M  V30 2643 N 289.708 -1.40897 0.706093 0
M  V30 2644 C 290.956 -2.00657 0.241054 0
M  V30 2645 C 291.277 -1.56241 -1.16678 0
M  V30 2646 O 290.547 -0.79765 -1.78926 0
M  V30 2647 H 289.127 -0.742018 0.0861308 0
M  V30 2648 H 291.789 -1.72372 0.909604 0
M  V30 2649 H 290.885 -3.10958 0.266705 0
M  V30 2650 N 291.186 -0.45159 -1.50991 0
M  V30 2651 C 292.597 0.00818571 -1.86698 0
M  V30 2652 C 292.948 1.40661 -1.3678 0
M  V30 2653 O 292.073 2.0391 -0.724546 0
M  V30 2654 C 292.668 0.0216303 -3.38793 0
M  V30 2655 C 291.227 0.425865 -3.73983 0
M  V30 2656 C 290.374 -0.372163 -2.74791 0
M  V30 2657 H 293.325 -0.666785 -1.44013 0
M  V30 2658 H 293.346 0.828078 -3.7138 0
M  V30 2659 H 292.858 -0.996288 -3.75094 0
M  V30 2660 H 290.959 1.44886 -3.43277 0
M  V30 2661 H 291.072 0.140761 -4.78893 0
M  V30 2662 H 289.436 0.171498 -2.54122 0
M  V30 2663 H 290.219 -1.38922 -3.13935 0
M  V30 2664 N 292.664 1.56529 -0.183458 0
M  V30 2665 C 293.611 2.18546 0.742055 0
M  V30 2666 C 294.581 1.12912 1.2182 0
M  V30 2667 O 295.766 1.41115 1.28418 0
M  V30 2668 C 292.906 2.83977 1.96089 0
M  V30 2669 C 292.019 4.04105 1.52719 0
M  V30 2670 C 291.154 4.57427 2.70063 0
M  V30 2671 C 290.193 5.69938 2.23243 0
M  V30 2672 N 289.33 6.17717 3.33722 0
M  V30 2673 H 294.17 2.97284 0.206432 0
M  V30 2674 H 291.707 1.46823 0.0901571 0
M  V30 2675 H 293.665 3.20077 2.67594 0
M  V30 2676 H 292.295 2.07822 2.47002 0
M  V30 2677 H 291.347 3.73745 0.708436 0
M  V30 2678 H 292.659 4.85513 1.1436 0
M  V30 2679 H 291.813 4.95772 3.49708 0
M  V30 2680 H 290.552 3.75101 3.11689 0
M  V30 2681 H 289.557 5.31133 1.42048 0
M  V30 2682 H 290.782 6.54073 1.82661 0
M  V30 2683 H 288.728 5.38317 3.74902 0
M  V30 2684 H 288.645 6.94146 2.99495 0
M  V30 2685 H 289.913 6.60713 4.13616 0
M  V30 2686 N 294.142 -0.090211 1.57342 0
M  V30 2687 C 295.074 -1.13541 1.99101 0
M  V30 2688 C 296.087 -1.3604 0.894258 0
M  V30 2689 O 297.276 -1.34606 1.17233 0
M  V30 2690 C 294.376 -2.49001 2.29895 0
M  V30 2691 C 293.549 -2.46712 3.61182 0
M  V30 2692 C 292.608 -3.64136 3.79857 0
M  V30 2693 O 291.634 -3.46405 4.51655 0
M  V30 2694 N 292.836 -4.83802 3.20806 0
M  V30 2695 H 295.601 -0.779942 2.89373 0
M  V30 2696 H 293.162 -0.279125 1.59476 0
M  V30 2697 H 295.154 -3.26166 2.39578 0
M  V30 2698 H 293.724 -2.76619 1.45605 0
M  V30 2699 H 292.944 -1.55058 3.62423 0
M  V30 2700 H 294.232 -2.42265 4.4742 0
M  V30 2701 H 293.63 -5.01112 2.62494 0
M  V30 2702 H 292.187 -5.58543 3.35966 0
M  V30 2703 N 295.62 -1.53406 -0.361157 0
M  V30 2704 C 296.868 -1.69467 -1.10115 0
M  V30 2705 C 297.189 -0.451352 -1.89705 0
M  V30 2706 O 296.459 0.534636 -1.88463 0
M  V30 2707 H 295.039 -0.624749 -0.409508 0
M  V30 2708 H 297.701 -1.90609 -0.406699 0
M  V30 2709 H 296.797 -2.55774 -1.78847 0
M  V30 2710 N 297.098 0.621204 -1.44841 0
M  V30 2711 C 298.509 1.20298 -1.42777 0
M  V30 2712 C 298.86 1.95639 -0.148259 0
M  V30 2713 O 297.985 2.02955 0.750892 0
M  V30 2714 C 298.58 2.1882 -2.58657 0
M  V30 2715 C 297.139 2.72403 -2.59756 0
M  V30 2716 C 296.286 1.4757 -2.34773 0
M  V30 2717 H 299.237 0.411297 -1.53278 0
M  V30 2718 H 299.258 3.01607 -2.31977 0
M  V30 2719 H 298.77 1.63957 -3.51766 0
M  V30 2720 H 296.871 3.31242 -1.70615 0
M  V30 2721 H 296.984 3.17765 -3.58556 0
M  V30 2722 H 295.348 1.76051 -1.8406 0
M  V30 2723 H 296.131 0.945954 -3.3001 0
M  V30 2724 N 298.576 1.31904 0.862503 0
M  V30 2725 C 299.824 1.21776 1.61292 0
M  V30 2726 C 300.145 -0.222413 1.93727 0
M  V30 2727 O 299.415 -1.1451 1.58947 0
M  V30 2728 H 297.995 0.447717 0.597962 0
M  V30 2729 H 300.657 1.65326 1.03215 0
M  V30 2730 H 299.753 1.7948 2.5533 0
M  V30 2731 N 300.054 -1.07777 1.14986 0
M  V30 2732 C 301.465 -1.61766 0.932127 0
M  V30 2733 C 301.816 -1.88974 -0.527581 0
M  V30 2734 O 300.941 -1.65198 -1.39781 0
M  V30 2735 C 301.536 -2.93891 1.68563 0
M  V30 2736 C 300.095 -3.44639 1.5133 0
M  V30 2737 C 299.242 -2.18767 1.704 0
M  V30 2738 H 302.193 -0.909201 1.30074 0
M  V30 2739 H 302.214 -3.62623 1.15259 0
M  V30 2740 H 301.726 -2.74057 2.74799 0
M  V30 2741 H 299.827 -3.69564 0.474702 0
M  V30 2742 H 299.94 -4.20966 2.28746 0
M  V30 2743 H 298.304 -2.28253 1.13016 0
M  V30 2744 H 299.087 -2.01433 2.77992 0
M  V30 2745 N 301.532 -0.945985 -1.26051 0
M  V30 2746 C 302.78 -0.594941 -1.93145 0
M  V30 2747 C 303.101 0.86953 -1.7454 0
M  V30 2748 O 302.371 1.61838 -1.10387 0
M  V30 2749 H 300.951 -0.217044 -0.714773 0
M  V30 2750 H 303.613 -1.20235 -1.53393 0
M  V30 2751 H 302.709 -0.816835 -3.01221 0
M  V30 2752 N 303.011 1.40521 -0.713556 0
M  V30 2753 C 304.259 2.00527 -0.251692 0
M  V30 2754 C 304.58 1.56857 1.15848 0
M  V30 2755 O 303.85 0.807127 1.785 0
M  V30 2756 H 302.43 0.741551 -0.0900646 0
M  V30 2757 H 305.092 1.71887 -0.918733 0
M  V30 2758 H 304.188 3.10813 -0.283192 0
M  V30 2759 N 304.489 0.459591 1.5075 0
M  V30 2760 C 305.9 0.00171547 1.867 0
M  V30 2761 C 306.251 -1.39934 1.37525 0
M  V30 2762 O 305.376 -2.03523 0.735349 0
M  V30 2763 C 305.971 -0.00366298 3.388 0
M  V30 2764 C 304.53 -0.406026 3.74204 0
M  V30 2765 C 303.677 0.38673 2.7459 0
M  V30 2766 H 306.628 0.674413 1.43657 0
M  V30 2767 H 306.649 -0.808371 3.71814 0
M  V30 2768 H 306.161 1.01617 3.74561 0
M  V30 2769 H 304.262 -1.43063 3.4404 0
M  V30 2770 H 304.375 -0.115362 4.78961 0
M  V30 2771 H 302.739 -0.158019 2.54209 0
M  V30 2772 H 303.522 1.40585 3.13194 0
M  V30 2773 N 305.967 -1.56429 0.191757 0
M  V30 2774 C 306.914 -2.18936 -0.730454 0
M  V30 2775 C 307.884 -1.13557 -1.21219 0
M  V30 2776 O 309.069 -1.41794 -1.27668 0
M  V30 2777 C 306.209 -2.85013 -1.9458 0
M  V30 2778 C 305.322 -4.04909 -1.50574 0
M  V30 2779 C 304.457 -4.58853 -2.67634 0
M  V30 2780 C 303.496 -5.71114 -2.20217 0
M  V30 2781 N 302.633 -6.19478 -3.30442 0
M  V30 2782 H 307.473 -2.97389 -0.190664 0
M  V30 2783 H 305.01 -1.46869 -0.0823694 0
M  V30 2784 H 306.968 -3.21492 -2.65893 0
M  V30 2785 H 305.598 -2.09129 -2.45896 0
M  V30 2786 H 304.65 -3.74115 -0.688605 0
M  V30 2787 H 305.962 -4.86113 -1.11784 0
M  V30 2788 H 305.116 -4.97619 -3.47074 0
M  V30 2789 H 303.855 -3.76749 -3.09696 0
M  V30 2790 H 302.86 -5.31879 -1.3923 0
M  V30 2791 H 304.085 -6.55033 -1.79189 0
M  V30 2792 H 302.031 -5.40297 -3.72041 0
M  V30 2793 H 301.948 -6.95725 -2.9581 0
M  V30 2794 H 303.216 -6.62898 -4.10106 0
M  V30 2795 N 307.445 0.0818655 -1.57387 0
M  V30 2796 C 308.693 0.781368 -1.86384 0
M  V30 2797 C 309.014 1.78618 -0.782342 0
M  V30 2798 O 308.284 1.94976 0.190061 0
M  V30 2799 H 306.864 0.291562 -0.687751 0
M  V30 2800 H 309.526 0.060348 -1.94807 0
M  V30 2801 H 308.622 1.3038 -2.83562 0
M  V30 2802 N 308.923 1.53595 0.353017 0
M  V30 2803 C 310.171 1.70049 1.09215 0
M  V30 2804 C 310.492 0.461406 1.89463 0
M  V30 2805 O 309.762 -0.524633 1.88744 0
M  V30 2806 H 308.342 0.626912 0.40619 0
M  V30 2807 H 311.004 1.90822 0.396585 0
M  V30 2808 H 310.1 2.56718 1.77488 0
M  V30 2809 N 310.401 -0.613514 1.45168 0
M  V30 2810 C 311.348 -1.72456 1.53387 0
M  V30 2811 C 312.318 -1.6169 0.380191 0
M  V30 2812 O 313.503 -1.81356 0.592836 0
M  V30 2813 C 310.643 -3.10753 1.50088 0
M  V30 2814 C 309.756 -3.32368 2.75963 0
M  V30 2815 C 308.891 -4.60737 2.64376 0
M  V30 2816 C 307.93 -4.7559 3.85332 0
M  V30 2817 N 307.067 -5.95253 3.72315 0
M  V30 2818 H 311.907 -1.64768 2.48305 0
M  V30 2819 H 309.444 -0.803503 1.23216 0
M  V30 2820 H 311.402 -3.90758 1.46164 0
M  V30 2821 H 310.032 -3.17413 0.587243 0
M  V30 2822 H 309.084 -2.4618 2.89999 0
M  V30 2823 H 310.396 -3.39218 3.65695 0
M  V30 2824 H 309.55 -5.48928 2.58385 0
M  V30 2825 H 308.289 -4.56275 1.72233 0
M  V30 2826 H 307.294 -3.85824 3.91688 0
M  V30 2827 H 308.519 -4.81854 4.78533 0
M  V30 2828 H 306.465 -5.91847 2.82937 0
M  V30 2829 H 306.382 -6.03236 4.55677 0
M  V30 2830 H 307.65 -6.85958 3.70246 0
M  V30 2831 N 311.879 -1.3236 -0.855495 0
M  V30 2832 C 312.812 -1.15559 -1.96777 0
M  V30 2833 C 313.79 -0.0552681 -1.62506 0
M  V30 2834 O 314.974 -0.214419 -1.87277 0
M  V30 2835 C 312.101 -0.768851 -3.29858 0
M  V30 2836 C 311.147 -1.87429 -3.83109 0
M  V30 2837 S 311.98 -3.48243 -4.06801 0
M  V30 2838 C 313.136 -3.11539 -5.42858 0
M  V30 2839 H 313.369 -2.09717 -2.10727 0
M  V30 2840 H 310.902 -1.17011 -1.00737 0
M  V30 2841 H 312.86 -0.55248 -4.06765 0
M  V30 2842 H 311.521 0.153857 -3.13723 0
M  V30 2843 H 310.714 -1.55667 -4.79358 0
M  V30 2844 H 310.316 -2.04647 -3.13042 0
M  V30 2845 H 312.608 -2.61331 -6.2507 0
M  V30 2846 H 313.551 -4.06806 -5.79582 0
M  V30 2847 H 313.959 -2.48582 -5.06821 0
M  V30 2848 N 313.357 1.07166 -1.15556 0
M  V30 2849 C 314.768 1.6127 -0.940693 0
M  V30 2850 C 315.119 1.89251 0.517551 0
M  V30 2851 O 314.244 1.65937 1.38903 0
M  V30 2852 C 314.839 2.92993 -1.7012 0
M  V30 2853 C 313.398 3.43832 -1.53156 0
M  V30 2854 C 312.545 2.1786 -1.71558 0
M  V30 2855 H 315.496 0.90229 -1.30554 0
M  V30 2856 H 315.517 3.62007 -1.17181 0
M  V30 2857 H 315.029 2.72596 -2.76248 0
M  V30 2858 H 313.13 3.69307 -0.494294 0
M  V30 2859 H 313.243 4.19747 -2.30975 0
M  V30 2860 H 311.607 2.2765 -1.14225 0
M  V30 2861 H 312.39 1.99956 -2.79056 0
M  V30 2862 N 314.835 0.952656 1.25548 0
M  V30 2863 C 316.083 0.605176 1.92826 0
M  V30 2864 C 316.404 -0.860261 1.74999 0
M  V30 2865 O 315.674 -1.6125 1.11244 0
M  V30 2866 H 314.254 0.220832 0.713612 0
M  V30 2867 H 316.916 1.21047 1.52754 0
M  V30 2868 H 316.012 0.832798 3.00784 0
M  V30 2869 N 316.313 -1.40141 0.720998 0
M  V30 2870 C 317.561 -2.0039 0.262323 0
M  V30 2871 C 317.882 -1.57469 -1.15015 0
M  V30 2872 O 317.152 -0.816582 -1.78069 0
M  V30 2873 H 315.732 -0.741063 0.093996 0
M  V30 2874 H 318.394 -1.71398 0.927835 0
M  V30 2875 H 317.49 -3.10658 0.299671 0
M  V30 2876 N 317.792 -0.46758 -1.50504 0
M  V30 2877 C 319.203 -0.0116166 -1.86696 0
M  V30 2878 C 319.554 1.39202 -1.38265 0
M  V30 2879 O 318.679 2.0313 -0.746132 0
M  V30 2880 C 319.274 -0.0143044 -3.38797 0
M  V30 2881 C 317.833 0.386175 -3.74414 0
M  V30 2882 C 316.98 -0.401287 -2.74381 0
M  V30 2883 H 319.931 -0.682022 -1.43297 0
M  V30 2884 H 319.952 0.788641 -3.72237 0
M  V30 2885 H 319.464 -1.03602 -3.74016 0
M  V30 2886 H 317.565 1.41237 -3.44794 0
M  V30 2887 H 317.678 0.0899596 -4.79016 0
M  V30 2888 H 316.042 0.144536 -2.5429 0
M  V30 2889 H 316.825 -1.42244 -3.12444 0
M  V30 2890 N 319.27 1.56325 -0.20005 0
M  V30 2891 C 320.217 2.1932 0.718833 0
M  V30 2892 C 321.187 1.14198 1.20615 0
M  V30 2893 O 322.372 1.42469 1.26914 0
M  V30 2894 C 319.512 2.86041 1.93066 0
M  V30 2895 C 318.625 4.05702 1.48425 0
M  V30 2896 C 317.76 4.60266 2.65196 0
M  V30 2897 C 316.799 5.72273 2.17185 0
M  V30 2898 N 315.936 6.21221 3.27152 0
M  V30 2899 H 320.776 2.97486 0.17489 0
M  V30 2900 H 318.313 1.46911 0.0745794 0
M  V30 2901 H 320.271 3.22897 2.64184 0
M  V30 2902 H 318.901 2.1043 2.44783 0
M  V30 2903 H 317.953 3.74475 0.668755 0
M  V30 2904 H 319.265 4.86699 1.09204 0
M  V30 2905 H 318.419 4.99453 3.4443 0
M  V30 2906 H 317.158 3.78386 3.07693 0
M  V30 2907 H 316.163 5.3261 1.36407 0
M  V30 2908 H 317.388 6.55974 1.75713 0
M  V30 2909 H 315.334 5.42263 3.69171 0
M  V30 2910 H 315.251 6.97284 2.92116 0
M  V30 2911 H 316.519 6.65063 4.06585 0
M  V30 2912 N 320.748 -0.0735177 1.57428 0
M  V30 2913 C 322.159 -0.625551 1.75908 0
M  V30 2914 C 322.51 -1.78 0.825261 0
M  V30 2915 O 321.635 -2.16398 0.00893964 0
M  V30 2916 C 322.23 -1.14155 3.18989 0
M  V30 2917 C 320.789 -1.63946 3.38819 0
M  V30 2918 C 319.936 -0.558151 2.71625 0
M  V30 2919 H 322.887 0.152647 1.57964 0
M  V30 2920 H 322.908 -2.0104 3.23053 0
M  V30 2921 H 322.42 -0.301116 3.8693 0
M  V30 2922 H 320.521 -2.50321 2.7599 0
M  V30 2923 H 320.634 -1.71759 4.47253 0
M  V30 2924 H 318.998 -1.00278 2.34129 0
M  V30 2925 H 319.781 0.272071 3.4222 0
M  V30 2926 N 322.226 -1.5378 -0.344866 0
M  V30 2927 C 323.474 -1.70625 -1.08311 0
M  V30 2928 C 323.795 -0.471447 -1.89215 0
M  V30 2929 O 323.065 0.514616 -1.8902 0
M  V30 2930 H 321.645 -0.629058 -0.402859 0
M  V30 2931 H 324.307 -1.9103 -0.386459 0
M  V30 2932 H 323.403 -2.57656 -1.76124 0
M  V30 2933 N 323.704 0.605807 -1.45491 0
M  V30 2934 C 324.952 1.36207 -1.49305 0
M  V30 2935 C 325.273 1.94519 -0.136863 0
M  V30 2936 O 324.543 1.77261 0.833983 0
M  V30 2937 H 323.123 0.50565 -0.549843 0
M  V30 2938 H 325.785 0.711239 -1.81459 0
M  V30 2939 H 324.881 2.18058 -2.23287 0
M  V30 2940 N 325.182 1.32811 0.848464 0
M  V30 2941 C 326.43 1.23479 1.59991 0
M  V30 2942 C 326.751 -0.201853 1.93952 0
M  V30 2943 O 326.021 -1.12818 1.60153 0
M  V30 2944 H 324.601 0.454034 0.593179 0
M  V30 2945 H 327.263 1.66412 1.01455 0
M  V30 2946 H 326.359 1.82178 2.53412 0
M  V30 2947 N 326.66 -1.06551 1.16123 0
M  V30 2948 C 328.071 -1.60768 0.949232 0
M  V30 2949 C 328.422 -1.89523 -0.507508 0
M  V30 2950 O 327.547 -1.66671 -1.38021 0
M  V30 2951 C 328.142 -2.92086 1.71671 0
M  V30 2952 C 326.701 -3.43015 1.54977 0
M  V30 2953 C 325.848 -2.16947 1.72711 0
M  V30 2954 H 328.799 -0.895354 1.31031 0
M  V30 2955 H 328.82 -3.6138 1.19099 0
M  V30 2956 H 328.332 -2.71127 2.7769 0
M  V30 2957 H 326.433 -3.69039 0.513873 0
M  V30 2958 H 326.546 -4.18516 2.33198 0
M  V30 2959 H 324.91 -2.27041 1.15431 0
M  V30 2960 H 325.693 -1.98473 2.80113 0
M  V30 2961 N 328.138 -0.959301 -1.25041 0
M  V30 2962 C 329.386 -0.615393 -1.92503 0
M  V30 2963 C 329.707 0.850969 -1.75452 0
M  V30 2964 O 328.977 1.60658 -1.12098 0
M  V30 2965 H 327.557 -0.224613 -0.712431 0
M  V30 2966 H 330.219 -1.21855 -1.5211 0
M  V30 2967 H 329.315 -0.848738 -3.00338 0
M  V30 2968 N 329.616 1.39756 -0.72842 0
M  V30 2969 C 330.546 2.33289 -0.0991354 0
M  V30 2970 C 331.527 1.53568 0.731489 0
M  V30 2971 O 332.712 1.81987 0.677807 0
M  V30 2972 C 329.842 3.3763 0.813834 0
M  V30 2973 C 328.796 4.2791 0.0878663 0
M  V30 2974 C 328.122 5.22894 1.11741 0
M  V30 2975 C 329.422 5.11314 -1.06563 0
M  V30 2976 H 331.116 2.86163 -0.880408 0
M  V30 2977 H 328.662 1.37591 -0.424819 0
M  V30 2978 H 330.615 4.0201 1.26355 0
M  V30 2979 H 329.339 2.83181 1.62715 0
M  V30 2980 H 327.998 3.65 -0.342159 0
M  V30 2981 H 327.646 4.64744 1.92412 0
M  V30 2982 H 327.346 5.84143 0.636477 0
M  V30 2983 H 328.87 5.90151 1.56697 0
M  V30 2984 H 330.284 5.69076 -0.694671 0
M  V30 2985 H 328.681 5.81671 -1.47577 0
M  V30 2986 H 329.751 4.46534 -1.89038 0
M  V30 2987 N 331.094 0.475555 1.50254 0
M  V30 2988 C 332.319 -0.0777042 2.07254 0
M  V30 2989 C 332.744 -1.3235 1.3366 0
M  V30 2990 O 332.102 -1.77152 0.385597 0
M  V30 2991 C 332.15 -0.340169 3.58992 0
M  V30 2992 O 331.254 -1.41982 3.87188 0
M  V30 2993 H 330.595 0.0149556 0.663832 0
M  V30 2994 H 333.125 0.667878 1.93392 0
M  V30 2995 H 333.135 -0.579332 4.03866 0
M  V30 2996 H 331.81 0.570167 4.11973 0
M  V30 2997 H 330.387 -1.16762 3.54148 0
M  V30 2998 N 332.573 -1.56217 0.208337 0
M  V30 2999 C 333.801 -2.02337 -0.43215 0
M  V30 3000 C 334.216 -1.08834 -1.54275 0
M  V30 3001 O 333.573 -0.0955462 -1.8225 0
M  V30 3002 C 333.624 -3.48072 -0.976138 0
M  V30 3003 O 333.345 -4.38007 0.0901621 0
M  V30 3004 C 334.846 -4.09773 -1.69119 0
M  V30 3005 H 332.066 -0.662385 -0.10718 0
M  V30 3006 H 334.61 -2.01966 0.320923 0
M  V30 3007 H 332.765 -3.49099 -1.67954 0
M  V30 3008 H 333.179 -5.23543 -0.316701 0
M  V30 3009 H 334.653 -5.13556 -2.02397 0
M  V30 3010 H 335.13 -3.53999 -2.59964 0
M  V30 3011 H 335.736 -4.12556 -1.03332 0
M  V30 3012 N 334.051 0.0651679 -1.57465 0
M  V30 3013 C 335.462 0.616213 -1.76238 0
M  V30 3014 C 335.813 1.7756 -0.834689 0
M  V30 3015 O 334.938 2.1639 -0.0204156 0
M  V30 3016 C 335.533 1.12462 -3.1959 0
M  V30 3017 C 334.092 1.62147 -3.39684 0
M  V30 3018 C 333.239 0.543739 -2.71917 0
M  V30 3019 H 336.19 -0.161022 -1.57881 0
M  V30 3020 H 336.211 1.99324 -3.24114 0
M  V30 3021 H 335.723 0.280592 -3.87084 0
M  V30 3022 H 333.824 2.48854 -2.77313 0
M  V30 3023 H 333.937 1.69385 -4.48158 0
M  V30 3024 H 332.301 0.990352 -2.34657 0
M  V30 3025 H 333.084 -0.290216 -3.42071 0
M  V30 3026 N 335.529 1.53961 0.336706 0
M  V30 3027 C 336.777 1.71197 1.07405 0
M  V30 3028 C 337.098 0.481475 1.88962 0
M  V30 3029 O 336.368 -0.504585 1.8929 0
M  V30 3030 H 334.948 0.631185 0.399517 0
M  V30 3031 H 337.61 1.91232 0.376323 0
M  V30 3032 H 336.706 2.58587 1.74755 0
M  V30 3033 N 337.007 -0.598083 1.45811 0
M  V30 3034 C 338.255 -1.35413 1.50026 0
M  V30 3035 C 338.576 -1.94444 0.147177 0
M  V30 3036 O 337.846 -1.77701 -0.824571 0
M  V30 3037 H 336.426 -0.502727 0.552517 0
M  V30 3038 H 339.088 -0.701606 1.81834 0
M  V30 3039 H 338.184 -2.16871 2.2444 0
M  V30 3040 N 338.485 -1.33259 -0.841409 0
M  V30 3041 C 339.435 -1.19872 -1.93945 0
M  V30 3042 C 340.419 -0.102269 -1.60575 0
M  V30 3043 O 341.611 -0.330114 -1.73894 0
M  V30 3044 C 338.74 -0.937517 -3.30251 0
M  V30 3045 C 337.826 -2.07629 -3.69799 0
M  V30 3046 N 338.217 -3.32604 -3.81062 0
M  V30 3047 C 336.515 -1.98242 -3.9952 0
M  V30 3048 C 337.216 -4.07275 -4.15333 0
M  V30 3049 N 336.192 -3.35691 -4.27566 0
M  V30 3050 H 339.994 -2.14604 -2.00805 0
M  V30 3051 H 337.508 -1.2523 -1.03398 0
M  V30 3052 H 339.505 -0.822545 -4.08705 0
M  V30 3053 H 338.165 0.00128798 -3.247 0
M  V30 3054 H 339.176 -3.67382 -3.65035 0
M  V30 3055 H 335.853 -1.12005 -4.02195 0
M  V30 3056 H 337.243 -5.1511 -4.31406 0
M  V30 3057 N 339.963 1.05934 -1.16686 0
M  V30 3058 C 341.374 1.60263 -0.957745 0
M  V30 3059 C 341.725 1.89789 0.49745 0
M  V30 3060 O 340.85 1.67401 1.37135 0
M  V30 3061 C 341.445 2.91172 -1.73218 0
M  V30 3062 C 340.004 3.42188 -1.56794 0
M  V30 3063 C 339.151 2.16028 -1.73859 0
M  V30 3064 H 342.102 0.888392 -1.31504 0
M  V30 3065 H 342.123 3.60744 -1.21014 0
M  V30 3066 H 341.635 2.6965 -2.79124 0
M  V30 3067 H 339.736 3.68762 -0.533437 0
M  V30 3068 H 339.849 4.17273 -2.35414 0
M  V30 3069 H 338.213 2.26426 -1.16633 0
M  V30 3070 H 338.996 1.96985 -2.81161 0
M  V30 3071 N 341.441 0.965919 1.2453 0
M  V30 3072 C 342.388 0.49402 2.25451 0
M  V30 3073 C 343.358 -0.45948 1.59618 0
M  V30 3074 O 344.543 -0.370238 1.87173 0
M  V30 3075 C 341.683 -0.211359 3.44452 0
M  V30 3076 C 340.796 0.7807 4.24887 0
M  V30 3077 C 339.931 0.0516105 5.31175 0
M  V30 3078 C 338.97 1.03385 6.03306 0
M  V30 3079 N 338.107 0.334887 7.01301 0
M  V30 3080 H 342.947 1.35946 2.65184 0
M  V30 3081 H 340.484 0.681515 1.3036 0
M  V30 3082 H 342.442 -0.637 4.12308 0
M  V30 3083 H 341.072 -1.04077 3.05562 0
M  V30 3084 H 340.124 1.32479 3.56586 0
M  V30 3085 H 341.436 1.52978 4.74762 0
M  V30 3086 H 340.59 -0.432114 6.05159 0
M  V30 3087 H 339.329 -0.730179 4.82203 0
M  V30 3088 H 338.334 1.52847 5.28127 0
M  V30 3089 H 339.559 1.81606 6.54367 0
M  V30 3090 H 337.505 -0.427959 6.54603 0
M  V30 3091 H 337.422 1.02287 7.49048 0
M  V30 3092 H 338.69 -0.126928 7.79397 0
M  V30 3093 N 342.919 -1.39368 0.735821 0
M  V30 3094 C 344.33 -1.83313 0.354015 0
M  V30 3095 C 344.681 -1.61461 -1.11466 0
M  V30 3096 O 343.806 -1.10621 -1.85989 0
M  V30 3097 C 344.401 -3.32781 0.635769 0
M  V30 3098 C 342.96 -3.75142 0.307448 0
M  V30 3099 C 342.107 -2.62358 0.897974 0
M  V30 3100 H 345.058 -1.28349 0.933398 0
M  V30 3101 H 345.079 -3.80388 -0.0921773 0
M  V30 3102 H 344.591 -3.48654 1.70476 0
M  V30 3103 H 342.692 -3.64857 -0.755674 0
M  V30 3104 H 342.805 -4.72532 0.790583 0
M  V30 3105 H 341.169 -2.52624 0.324551 0
M  V30 3106 H 341.952 -2.81036 1.97164 0
M  V30 3107 N 344.397 -0.483516 -1.5 0
M  V30 3108 C 345.808 -0.0314176 -1.86674 0
M  V30 3109 C 346.159 1.37728 -1.39733 0
M  V30 3110 O 345.284 2.02327 -0.767635 0
M  V30 3111 C 345.879 -0.0502376 -3.38763 0
M  V30 3112 C 344.438 0.346442 -3.74802 0
M  V30 3113 C 343.585 -0.430366 -2.7394 0
M  V30 3114 H 346.536 -0.697182 -1.42566 0
M  V30 3115 H 346.557 0.749116 -3.73053 0
M  V30 3116 H 346.069 -1.07563 -3.72897 0
M  V30 3117 H 344.17 1.37572 -3.46273 0
M  V30 3118 H 344.283 0.0391486 -4.79084 0
M  V30 3119 H 342.647 0.117557 -2.54429 0
M  V30 3120 H 343.43 -1.4555 -3.10918 0
M  V30 3121 N 345.875 1.56104 -0.216619 0
M  V30 3122 C 346.825 2.16703 0.708798 0
M  V30 3123 C 347.809 1.11392 1.16106 0
M  V30 3124 O 349.001 1.37395 1.11587 0
M  V30 3125 C 346.13 2.84666 1.91886 0
M  V30 3126 C 345.216 3.97195 1.48651 0
M  V30 3127 N 345.607 4.99959 0.766434 0
M  V30 3128 C 343.905 4.09193 1.77418 0
M  V30 3129 C 344.606 5.79126 0.546659 0
M  V30 3130 N 343.582 5.32315 1.10188 0
M  V30 3131 H 347.384 2.93516 0.150162 0
M  V30 3132 H 344.898 1.6239 -0.0176768 0
M  V30 3133 H 346.895 3.26486 2.59253 0
M  V30 3134 H 345.555 2.09347 2.48202 0
M  V30 3135 H 346.566 5.16197 0.419634 0
M  V30 3136 H 343.243 3.45021 2.35088 0
M  V30 3137 H 344.633 6.71895 -0.026103 0
M  V30 3138 N 347.353 -0.0568162 1.57498 0
M  V30 3139 C 348.769 -0.411933 1.54192 0
M  V30 3140 C 348.969 -1.78287 0.938942 0
M  V30 3141 O 348.025 -2.46483 0.547919 0
M  V30 3142 C 349.338 -0.339244 2.9878 0
M  V30 3143 C 350.886 -0.418348 3.10192 0
M  V30 3144 C 351.361 -0.375407 4.56459 0
M  V30 3145 N 352.852 -0.435038 4.61153 0
M  V30 3146 C 353.587 -0.424265 5.71828 0
M  V30 3147 N 353.083 -0.367418 6.91825 0
M  V30 3148 N 354.876 -0.471938 5.60115 0
M  V30 3149 H 347.027 0.840684 1.95055 0
M  V30 3150 H 349.29 0.316987 0.893433 0
M  V30 3151 H 348.996 0.601742 3.46514 0
M  V30 3152 H 348.87 -1.14371 3.59443 0
M  V30 3153 H 351.257 -1.34976 2.62422 0
M  V30 3154 H 351.338 0.414962 2.52412 0
M  V30 3155 H 350.982 0.552219 5.04889 0
M  V30 3156 H 350.912 -1.22645 5.12119 0
M  V30 3157 H 353.403 -0.482612 3.74806 0
M  V30 3158 H 353.716 -0.363535 7.71944 0
M  V30 3159 H 352.061 -0.333879 6.94198 0
M  V30 3160 H 355.252 -0.514145 4.65268 0
M  V30 3161 H 355.425 -0.460073 6.46365 0
M  V30 3162 N 348.832 -1.54138 -0.328536 0
M  V30 3163 C 350.08 -1.71765 -1.06496 0
M  V30 3164 C 350.401 -0.49149 -1.88704 0
M  V30 3165 O 349.671 0.494539 -1.89555 0
M  V30 3166 H 348.251 -0.633295 -0.396164 0
M  V30 3167 H 350.913 -1.91429 -0.366176 0
M  V30 3168 H 350.009 -2.5951 -1.73381 0
M  V30 3169 N 350.31 0.590341 -1.46126 0
M  V30 3170 C 351.558 1.34616 -1.50742 0
M  V30 3171 C 351.879 1.94363 -0.157486 0
M  V30 3172 O 351.149 1.78136 0.815136 0
M  V30 3173 H 349.729 0.499789 -0.555175 0
M  V30 3174 H 352.391 0.691953 -1.82203 0
M  V30 3175 H 351.487 2.15678 -2.25587 0
M  V30 3176 N 351.788 1.33704 0.83433 0
M  V30 3177 C 353.036 1.25169 1.58673 0
M  V30 3178 C 353.357 -0.18127 1.94156 0
M  V30 3179 O 352.627 -1.11113 1.6134 0
M  V30 3180 H 351.207 0.4603 0.58833 0
M  V30 3181 H 353.869 1.67478 0.996847 0
M  V30 3182 H 352.965 1.84856 2.51465 0
M  V30 3183 N 353.266 -1.05314 1.17247 0
M  V30 3184 C 354.176 -2.16538 0.90268 0
M  V30 3185 C 355.192 -1.73523 -0.128707 0
M  V30 3186 O 356.368 -2.01337 0.0502701 0
M  V30 3187 C 353.433 -3.44167 0.418356 0
M  V30 3188 C 352.494 -4.01635 1.51618 0
M  V30 3189 C 351.727 -5.23171 1.05487 0
M  V30 3190 O 351.95 -5.70327 -0.0914715 0
M  V30 3191 O 350.884 -5.72848 1.8474 0
M  V30 3192 H 354.71 -2.42145 1.83302 0
M  V30 3193 H 352.295 -1.15037 0.953246 0
M  V30 3194 H 354.177 -4.21112 0.155726 0
M  V30 3195 H 352.852 -3.20063 -0.48385 0
M  V30 3196 H 351.759 -3.26135 1.83268 0
M  V30 3197 H 353.092 -4.30053 2.39405 0
M  V30 3198 N 354.744 -0.972509 -1.24016 0
M  V30 3199 C 356.155 -0.67517 -1.74064 0
M  V30 3200 C 356.506 0.808939 -1.78747 0
M  V30 3201 O 355.631 1.63286 -1.42009 0
M  V30 3202 C 356.226 -1.21889 -3.16115 0
M  V30 3203 C 354.785 -0.971358 -3.6365 0
M  V30 3204 C 353.932 -1.35134 -2.42145 0
M  V30 3205 H 356.883 -1.14727 -1.09651 0
M  V30 3206 H 356.904 -0.587489 -3.75937 0
M  V30 3207 H 356.416 -2.29906 -3.12674 0
M  V30 3208 H 354.517 0.0930686 -3.72484 0
M  V30 3209 H 354.63 -1.62039 -4.50866 0
M  V30 3210 H 352.994 -0.769751 -2.4279 0
M  V30 3211 H 353.777 -2.4411 -2.41381 0
M  V30 3212 N 356.222 1.38976 -0.743202 0
M  V30 3213 C 357.638 1.53984 -0.419664 0
M  V30 3214 C 357.838 1.70837 1.0685 0
M  V30 3215 O 356.894 1.7135 1.8546 0
M  V30 3216 C 358.207 2.75287 -1.20985 0
M  V30 3217 C 359.755 2.89129 -1.19889 0
M  V30 3218 C 360.23 4.13381 -1.97181 0
M  V30 3219 N 361.721 4.20437 -1.94389 0
M  V30 3220 C 362.456 5.15547 -2.50996 0
M  V30 3221 N 361.952 6.16395 -3.16274 0
M  V30 3222 N 363.745 5.07822 -2.40984 0
M  V30 3223 H 355.896 1.26285 -1.7078 0
M  V30 3224 H 358.159 0.612689 -0.723406 0
M  V30 3225 H 357.865 2.69204 -2.26323 0
M  V30 3226 H 357.739 3.68184 -0.819759 0
M  V30 3227 H 360.126 2.947 -0.153606 0
M  V30 3228 H 360.207 1.97272 -1.62841 0
M  V30 3229 H 359.851 4.08572 -3.01714 0
M  V30 3230 H 359.781 5.04298 -1.51629 0
M  V30 3231 H 362.272 3.48205 -1.46839 0
M  V30 3232 H 362.585 6.85443 -3.56915 0
M  V30 3233 H 360.93 6.16758 -3.20367 0
M  V30 3234 H 364.121 4.27973 -1.89622 0
M  V30 3235 H 364.294 5.81767 -2.85397 0
M  V30 3236 N 357.7 0.491464 1.49741 0
M  V30 3237 C 358.948 -0.0563141 2.02022 0
M  V30 3238 C 359.269 -1.38363 1.37407 0
M  V30 3239 O 358.539 -1.88702 0.526166 0
M  V30 3240 H 357.119 -0.0238014 0.746621 0
M  V30 3241 H 359.781 0.646533 1.83864 0
M  V30 3242 H 358.877 -0.192967 3.11503 0
M  V30 3243 N 359.178 -1.55987 0.224894 0
M  V30 3244 C 360.426 -1.97998 -0.405099 0
M  V30 3245 C 360.747 -1.11387 -1.60056 0
M  V30 3246 O 360.017 -0.191645 -1.9496 0
M  V30 3247 H 358.597 -0.731235 -0.152658 0
M  V30 3248 H 361.259 -1.92279 0.318567 0
M  V30 3249 H 360.355 -3.03463 -0.729167 0
M  V30 3250 N 360.656 0.0484629 -1.57525 0
M  V30 3251 C 362.072 0.40375 -1.54409 0
M  V30 3252 C 362.272 1.77786 -0.948384 0
M  V30 3253 O 361.328 2.46189 -0.560983 0
M  V30 3254 C 362.641 0.323394 -2.98956 0
M  V30 3255 C 364.189 0.401892 -3.10409 0
M  V30 3256 C 364.664 0.351195 -4.56652 0
M  V30 3257 N 366.155 0.410576 -4.61377 0
M  V30 3258 C 366.89 0.393933 -5.72045 0
M  V30 3259 N 366.386 0.330724 -6.9201 0
M  V30 3260 N 368.179 0.442227 -5.60358 0
M  V30 3261 H 360.33 -0.851016 -1.94606 0
M  V30 3262 H 362.593 -0.321721 -0.89174 0
M  V30 3263 H 362.299 -0.62011 -3.4619 0
M  V30 3264 H 362.173 1.12463 -3.60044 0
M  V30 3265 H 364.56 1.33582 -2.63134 0
M  V30 3266 H 364.641 -0.428342 -2.52188 0
M  V30 3267 H 364.285 -0.578987 -5.04589 0
M  V30 3268 H 364.215 1.19928 -5.12762 0
M  V30 3269 H 366.706 0.462729 -3.75056 0
M  V30 3270 H 367.019 0.322592 -7.72126 0
M  V30 3271 H 365.364 0.29706 -6.94365 0
M  V30 3272 H 368.555 0.489464 -4.65534 0
M  V30 3273 H 368.728 0.425788 -6.466 0
M  V30 3274 N 362.134 1.5431 0.320358 0
M  V30 3275 C 363.066 1.80262 1.41556 0
M  V30 3276 C 364.079 0.684723 1.477 0
M  V30 3277 O 365.268 0.961886 1.50366 0
M  V30 3278 C 362.368 1.90825 2.8007 0
M  V30 3279 C 361.541 3.21023 2.97091 0
M  V30 3280 C 360.6 3.22247 4.15985 0
M  V30 3281 O 359.626 3.95871 4.08992 0
M  V30 3282 N 360.828 2.46258 5.25678 0
M  V30 3283 H 363.593 2.74778 1.19655 0
M  V30 3284 H 361.154 1.53646 0.510358 0
M  V30 3285 H 363.146 1.89067 3.57821 0
M  V30 3286 H 361.716 1.03392 2.95006 0
M  V30 3287 H 360.936 3.35715 2.06614 0
M  V30 3288 H 362.224 4.0698 3.05361 0
M  V30 3289 H 361.622 1.86037 5.34235 0
M  V30 3290 H 360.179 2.50275 6.01835 0
M  V30 3291 N 363.613 -0.582584 1.46437 0
M  V30 3292 C 364.563 -1.68654 1.53426 0
M  V30 3293 C 365.547 -1.55971 0.395194 0
M  V30 3294 O 366.739 -1.64884 0.643612 0
M  V30 3295 C 363.868 -3.07439 1.52762 0
M  V30 3296 C 362.954 -3.25418 2.71963 0
M  V30 3297 N 363.345 -3.13556 3.96883 0
M  V30 3298 C 361.643 -3.56357 2.68189 0
M  V30 3299 C 362.344 -3.33543 4.76575 0
M  V30 3300 N 361.32 -3.58704 4.08451 0
M  V30 3301 H 365.122 -1.58014 2.47808 0
M  V30 3302 H 362.636 -0.786617 1.42078 0
M  V30 3303 H 364.633 -3.86671 1.55857 0
M  V30 3304 H 363.293 -3.1921 0.594573 0
M  V30 3305 H 364.304 -2.9142 4.28129 0
M  V30 3306 H 360.981 -3.74812 1.83908 0
M  V30 3307 H 362.371 -3.29555 5.85528 0
M  V30 3308 N 365.091 -1.34144 -0.827227 0
M  V30 3309 C 366.041 -1.21923 -1.92663 0
M  V30 3310 C 367.025 -0.119294 -1.60457 0
M  V30 3311 O 368.217 -0.348539 -1.73534 0
M  V30 3312 C 365.346 -0.972492 -3.29238 0
M  V30 3313 C 364.432 -2.1154 -3.67576 0
M  V30 3314 N 364.823 -3.36627 -3.77512 0
M  V30 3315 C 363.121 -2.02468 -3.97395 0
M  V30 3316 C 363.822 -4.11658 -4.1099 0
M  V30 3317 N 362.798 -3.40207 -4.23981 0
M  V30 3318 H 366.6 -2.16721 -1.98517 0
M  V30 3319 H 364.114 -1.2632 -1.02064 0
M  V30 3320 H 366.111 -0.865847 -4.0781 0
M  V30 3321 H 364.771 -0.0331509 -3.24683 0
M  V30 3322 H 365.782 -3.71234 -3.61118 0
M  V30 3323 H 362.459 -1.16265 -4.00985 0
M  V30 3324 H 363.849 -5.19657 -4.25918 0
M  V30 3325 N 366.569 1.04691 -1.17803 0
M  V30 3326 C 367.98 1.59238 -0.974689 0
M  V30 3327 C 368.331 1.90306 0.477292 0
M  V30 3328 O 367.456 1.68846 1.35352 0
M  V30 3329 C 368.051 2.89318 -1.76296 0
M  V30 3330 C 366.61 3.40506 -1.60414 0
M  V30 3331 C 365.757 2.14172 -1.76141 0
M  V30 3332 H 368.708 0.874395 -1.32439 0
M  V30 3333 H 368.729 3.5944 -1.24833 0
M  V30 3334 H 368.241 2.66675 -2.81968 0
M  V30 3335 H 366.342 3.68175 -0.572519 0
M  V30 3336 H 366.455 4.14753 -2.39827 0
M  V30 3337 H 364.819 2.25176 -1.19028 0
M  V30 3338 H 365.602 1.93992 -2.83235 0
M  V30 3339 N 368.047 0.979072 1.23499 0
M  V30 3340 C 369.458 0.684391 1.73704 0
M  V30 3341 C 369.809 -0.799448 1.79174 0
M  V30 3342 O 368.934 -1.62531 1.42873 0
M  V30 3343 C 369.529 1.23564 3.15464 0
M  V30 3344 C 368.088 0.99063 3.6313 0
M  V30 3345 C 367.235 1.36416 2.41425 0
M  V30 3346 H 370.186 1.15307 1.09041 0
M  V30 3347 H 370.207 0.607417 3.7562 0
M  V30 3348 H 369.719 2.31561 3.1145 0
M  V30 3349 H 367.82 -0.0733136 3.72528 0
M  V30 3350 H 367.933 1.64427 4.5 0
M  V30 3351 H 366.297 0.782616 2.42378 0
M  V30 3352 H 367.08 2.45387 2.40083 0
M  V30 3353 N 369.525 -1.3858 0.750561 0
M  V30 3354 C 370.755 -2.04175 0.31564 0
M  V30 3355 C 371.163 -1.56726 -1.05989 0
M  V30 3356 O 370.506 -0.734225 -1.68389 0
M  V30 3357 C 370.568 -3.58585 0.256389 0
M  V30 3358 C 370.232 -4.29077 1.57296 0
M  V30 3359 C 371.229 -4.54656 2.52159 0
M  V30 3360 C 368.914 -4.67324 1.84156 0
M  V30 3361 C 370.908 -5.17512 3.72103 0
M  V30 3362 C 368.595 -5.29905 3.04374 0
M  V30 3363 C 369.593 -5.54933 3.98168 0
M  V30 3364 O 369.281 -6.16212 5.16273 0
M  V30 3365 H 369.013 -0.662742 0.133226 0
M  V30 3366 H 371.567 -1.78313 1.01948 0
M  V30 3367 H 369.797 -3.83406 -0.503677 0
M  V30 3368 H 371.486 -4.05628 -0.148612 0
M  V30 3369 H 372.252 -4.25539 2.32683 0
M  V30 3370 H 368.131 -4.47191 1.11988 0
M  V30 3371 H 371.675 -5.36963 4.45327 0
M  V30 3372 H 367.572 -5.58444 3.23745 0
M  V30 3373 H 368.34 -6.34701 5.16815 0
M  V30 3374 N 371.003 -0.499398 -1.49478 0
M  V30 3375 C 371.953 0.299103 -2.2603 0
M  V30 3376 C 372.937 0.936934 -1.30807 0
M  V30 3377 O 374.129 0.844798 -1.55538 0
M  V30 3378 C 371.258 1.36391 -3.15044 0
M  V30 3379 C 370.344 0.732398 -4.17728 0
M  V30 3380 N 370.735 -0.164028 -5.05534 0
M  V30 3381 C 369.033 0.993162 -4.34801 0
M  V30 3382 C 369.734 -0.525345 -5.79323 0
M  V30 3383 N 368.71 0.106348 -5.43496 0
M  V30 3384 H 372.512 -0.391003 -2.91287 0
M  V30 3385 H 370.026 -0.31537 -1.59308 0
M  V30 3386 H 372.023 1.94939 -3.68516 0
M  V30 3387 H 370.683 2.05571 -2.51338 0
M  V30 3388 H 371.694 -0.534736 -5.15132 0
M  V30 3389 H 368.371 1.67783 -3.82302 0
M  V30 3390 H 369.761 -1.25862 -6.60006 0
M  V30 3391 N 372.481 1.55866 -0.233164 0
M  V30 3392 C 373.413 2.18099 0.704668 0
M  V30 3393 C 374.426 1.15334 1.14899 0
M  V30 3394 O 375.615 1.42262 1.07814 0
M  V30 3395 C 372.715 2.7592 1.96777 0
M  V30 3396 C 371.888 4.03969 1.67713 0
M  V30 3397 C 370.947 4.46242 2.78845 0
M  V30 3398 O 369.973 5.12903 2.46818 0
M  V30 3399 N 371.175 4.12886 4.08051 0
M  V30 3400 H 373.94 2.99205 0.172258 0
M  V30 3401 H 371.501 1.61815 -0.0525945 0
M  V30 3402 H 373.493 3.01165 2.70337 0
M  V30 3403 H 372.063 1.99051 2.41034 0
M  V30 3404 H 371.283 3.86459 0.777391 0
M  V30 3405 H 372.571 4.8748 1.4574 0
M  V30 3406 H 371.969 3.59342 4.3691 0
M  V30 3407 H 370.526 4.42997 4.78118 0
M  V30 3408 N 373.959 -0.0401083 1.57549 0
M  V30 3409 C 374.891 -1.07149 2.02612 0
M  V30 3410 C 375.904 -1.33126 0.937085 0
M  V30 3411 O 377.093 -1.30808 1.21456 0
M  V30 3412 C 374.193 -2.41561 2.37701 0
M  V30 3413 C 373.366 -2.35096 3.68848 0
M  V30 3414 C 372.425 -3.51867 3.91249 0
M  V30 3415 O 371.451 -3.3186 4.62447 0
M  V30 3416 N 372.653 -4.73351 3.36035 0
M  V30 3417 H 375.418 -0.687485 2.91708 0
M  V30 3418 H 372.979 -0.228248 1.60283 0
M  V30 3419 H 374.971 -3.18379 2.49833 0
M  V30 3420 H 373.541 -2.71846 1.54332 0
M  V30 3421 H 372.761 -1.4345 3.67173 0
M  V30 3422 H 374.049 -2.27908 4.54901 0
M  V30 3423 H 373.447 -4.92507 2.78304 0
M  V30 3424 H 372.004 -5.47572 3.53565 0
M  V30 3425 N 375.437 -1.54477 -0.31217 0
M  V30 3426 C 376.387 -1.81037 -1.38598 0
M  V30 3427 C 377.371 -0.666941 -1.46426 0
M  V30 3428 O 378.563 -0.927269 -1.50767 0
M  V30 3429 C 375.692 -2.05127 -2.75277 0
M  V30 3430 C 374.778 -3.25624 -2.71716 0
M  V30 3431 N 375.169 -4.46428 -2.37773 0
M  V30 3432 C 373.467 -3.27427 -3.02833 0
M  V30 3433 C 374.168 -5.28406 -2.43232 0
M  V30 3434 N 373.144 -4.6586 -2.80135 0
M  V30 3435 H 376.946 -2.7201 -1.11301 0
M  V30 3436 H 374.46 -1.53826 -0.520705 0
M  V30 3437 H 376.457 -2.22299 -3.52688 0
M  V30 3438 H 375.117 -1.15416 -3.03495 0
M  V30 3439 H 376.128 -4.73227 -2.1042 0
M  V30 3440 H 372.805 -2.47786 -3.36018 0
M  V30 3441 H 374.195 -6.34903 -2.19882 0
M  V30 3442 N 376.915 0.57481 -1.46744 0
M  V30 3443 C 377.865 1.67838 -1.54319 0
M  V30 3444 C 378.849 1.55759 -0.40346 0
M  V30 3445 O 380.041 1.6454 -0.652347 0
M  V30 3446 C 377.17 3.06624 -1.5439 0
M  V30 3447 C 376.256 3.23971 -2.73685 0
M  V30 3448 N 376.647 3.11447 -3.9854 0
M  V30 3449 C 374.945 3.5493 -2.70075 0
M  V30 3450 C 375.646 3.31011 -4.78337 0
M  V30 3451 N 374.622 3.56533 -4.10348 0
M  V30 3452 H 378.424 1.56698 -2.48642 0
M  V30 3453 H 375.938 0.779071 -1.42493 0
M  V30 3454 H 377.935 3.85839 -1.57905 0
M  V30 3455 H 376.595 3.1889 -0.611493 0
M  V30 3456 H 377.606 2.89145 -4.29669 0
M  V30 3457 H 374.283 3.73832 -1.85893 0
M  V30 3458 H 375.673 3.26445 -5.87268 0
M  V30 3459 N 378.394 1.34581 0.820102 0
M  V30 3460 C 379.326 1.22236 1.93884 0
M  V30 3461 C 380.339 0.148776 1.62119 0
M  V30 3462 O 381.528 0.400877 1.7394 0
M  V30 3463 C 378.628 0.856542 3.27897 0
M  V30 3464 C 377.801 2.02569 3.87666 0
M  V30 3465 C 376.86 1.63782 5.00062 0
M  V30 3466 O 375.886 2.35477 5.18208 0
M  V30 3467 N 377.088 0.553611 5.77854 0
M  V30 3468 H 379.853 2.18615 2.05006 0
M  V30 3469 H 377.414 1.27573 0.99683 0
M  V30 3470 H 379.406 0.578806 4.0054 0
M  V30 3471 H 377.976 -0.0171518 3.12595 0
M  V30 3472 H 377.196 2.468 3.07382 0
M  V30 3473 H 378.484 2.80752 4.24329 0
M  V30 3474 H 377.882 -0.0423528 5.65684 0
M  V30 3475 H 376.439 0.335614 6.50935 0
M  V30 3476 N 379.872 -1.04064 1.18357 0
M  V30 3477 C 381.12 -1.76915 0.977013 0
M  V30 3478 C 381.441 -1.88624 -0.494577 0
M  V30 3479 O 380.711 -1.41125 -1.3587 0
M  V30 3480 H 379.291 -0.65535 0.358504 0
M  V30 3481 H 381.953 -1.25592 1.49039 0
M  V30 3482 H 381.049 -2.78178 1.41504 0
M  V30 3483 N 381.35 -0.985608 -1.22978 0
M  V30 3484 C 382.761 -0.693593 -1.73338 0
M  V30 3485 C 383.112 0.789935 -1.79595 0
M  V30 3486 O 382.237 1.61771 -1.43733 0
M  V30 3487 C 382.832 -1.25235 -3.14804 0
M  V30 3488 C 381.391 -1.00987 -3.626 0
M  V30 3489 C 380.538 -1.37695 -2.40698 0
M  V30 3490 H 383.489 -1.15884 -1.08428 0
M  V30 3491 H 383.51 -0.627329 -3.75293 0
M  V30 3492 H 383.022 -2.33209 -3.10218 0
M  V30 3493 H 381.123 0.0535565 -3.72562 0
M  V30 3494 H 381.236 -1.66812 -4.49122 0
M  V30 3495 H 379.6 -0.795459 -2.4196 0
M  V30 3496 H 380.383 -2.46657 -2.38779 0
M  V30 3497 N 382.828 1.3818 -0.7579 0
M  V30 3498 C 384.239 1.82726 -0.383134 0
M  V30 3499 C 384.59 1.63214 1.08884 0
M  V30 3500 O 383.715 1.13566 1.84205 0
M  V30 3501 C 384.31 3.31728 -0.688631 0
M  V30 3502 C 382.869 3.74606 -0.367091 0
M  V30 3503 C 382.016 2.60896 -0.939599 0
M  V30 3504 H 384.967 1.26847 -0.953699 0
M  V30 3505 H 384.988 3.80487 0.0316492 0
M  V30 3506 H 384.5 3.45898 -1.76001 0
M  V30 3507 H 382.601 3.66013 0.697532 0
M  V30 3508 H 382.714 4.71215 -0.865658 0
M  V30 3509 H 381.078 2.52075 -0.3647 0
M  V30 3510 H 381.861 2.77864 -2.0161 0
M  V30 3511 N 384.306 0.507319 1.49211 0
M  V30 3512 C 385.717 0.0611118 1.866 0
M  V30 3513 C 386.068 -1.35488 1.41907 0
M  V30 3514 O 385.193 -2.0108 0.799726 0
M  V30 3515 C 385.788 0.104125 3.3864 0
M  V30 3516 C 384.347 -0.28677 3.75306 0
M  V30 3517 C 383.494 0.473893 2.73221 0
M  V30 3518 H 386.445 0.719775 1.41439 0
M  V30 3519 H 386.466 -0.689672 3.74198 0
M  V30 3520 H 385.978 1.13482 3.71138 0
M  V30 3521 H 384.079 -1.32046 3.48417 0
M  V30 3522 H 384.192 0.0370745 4.79086 0
M  V30 3523 H 382.556 -0.0770644 2.54583 0
M  V30 3524 H 383.339 1.50478 3.08563 0
M  V30 3525 N 385.784 -1.5574 0.241426 0
M  V30 3526 C 387.032 -1.98417 -0.384075 0
M  V30 3527 C 387.353 -1.13078 -1.58866 0
M  V30 3528 O 386.623 -0.212312 -1.94746 0
M  V30 3529 H 385.203 -0.732813 -0.144894 0
M  V30 3530 H 387.865 -1.9193 0.338943 0
M  V30 3531 H 386.961 -3.04219 -0.696939 0
M  V30 3532 N 387.262 0.0317525 -1.57568 0
M  V30 3533 C 388.51 0.721676 -1.88776 0
M  V30 3534 C 388.831 1.76039 -0.838772 0
M  V30 3535 O 388.101 1.95482 0.127935 0
M  V30 3536 H 386.681 0.269534 -0.696678 0
M  V30 3537 H 389.343 -0.00165879 -1.949 0
M  V30 3538 H 388.439 1.21293 -2.87566 0
M  V30 3539 N 388.74 1.54641 0.303973 0
M  V30 3540 C 390.151 1.64811 0.877163 0
M  V30 3541 C 390.502 0.554838 1.88191 0
M  V30 3542 O 389.627 -0.309033 2.14182 0
M  V30 3543 C 390.222 2.9876 1.59775 0
M  V30 3544 C 388.781 3.11061 2.11938 0
M  V30 3545 C 387.928 2.60479 0.951097 0
M  V30 3546 H 390.879 1.58493 0.0810486 0
M  V30 3547 H 390.9 2.90017 2.46314 0
M  V30 3548 H 390.412 3.7831 0.866226 0
M  V30 3549 H 388.513 2.36225 2.88146 0
M  V30 3550 H 388.626 4.17171 2.35595 0
M  V30 3551 H 386.99 2.16859 1.33583 0
M  V30 3552 H 387.773 3.42504 0.233581 0
M  V30 3553 N 390.218 -0.567019 1.47046 0
M  V30 3554 C 391.466 -1.322 1.52864 0
M  V30 3555 C 391.787 -1.94088 0.188388 0
M  V30 3556 O 391.057 -1.7941 -0.786693 0
M  V30 3557 H 389.637 -0.490894 0.563056 0
M  V30 3558 H 392.299 -0.662879 1.83281 0
M  V30 3559 H 391.395 -2.12062 2.2899 0
M  V30 3560 N 391.696 -1.35014 -0.812953 0
M  V30 3561 C 392.944 -1.27678 -1.56661 0
M  V30 3562 C 393.265 0.150359 -1.94419 0
M  V30 3563 O 392.535 1.08532 -1.63088 0
M  V30 3564 H 391.115 -0.469602 -0.580933 0
M  V30 3565 H 393.777 -1.69043 -0.970076 0
M  V30 3566 H 392.873 -1.88833 -2.48492 0
M  V30 3567 N 393.175 1.03435 -1.18907 0
M  V30 3568 C 394.591 1.28973 -0.940111 0
M  V30 3569 C 394.791 1.97676 0.390691 0
M  V30 3570 O 393.847 2.26127 1.12352 0
M  V30 3571 C 395.16 2.14221 -2.11021 0
M  V30 3572 C 396.708 2.27547 -2.14922 0
M  V30 3573 C 397.183 3.16164 -3.31367 0
M  V30 3574 N 398.674 3.23752 -3.31269 0
M  V30 3575 C 399.409 3.92495 -4.18014 0
M  V30 3576 N 398.905 4.63515 -5.14904 0
M  V30 3577 N 400.698 3.88838 -4.05908 0
M  V30 3578 H 392.849 0.57252 -2.04538 0
M  V30 3579 H 395.112 0.315184 -0.894071 0
M  V30 3580 H 394.818 1.71054 -3.073 0
M  V30 3581 H 394.692 3.14919 -2.0762 0
M  V30 3582 H 397.079 2.69947 -1.19217 0
M  V30 3583 H 397.16 1.26418 -2.22378 0
M  V30 3584 H 396.804 2.74474 -4.27348 0
M  V30 3585 H 396.734 4.17339 -3.21148 0
M  V30 3586 H 399.225 2.73167 -2.61129 0
M  V30 3587 H 399.538 5.13583 -5.77453 0
M  V30 3588 H 397.883 4.62398 -5.18857 0
M  V30 3589 H 401.074 3.32491 -3.29495 0
M  V30 3590 H 401.247 4.4214 -4.73726 0
M  V30 3591 N 394.653 0.992116 1.22453 0
M  V30 3592 C 395.878 0.685644 1.95739 0
M  V30 3593 C 396.303 -0.743 1.72804 0
M  V30 3594 O 395.661 -1.50778 1.00676 0
M  V30 3595 C 395.709 0.996293 3.46564 0
M  V30 3596 O 394.813 0.0945512 4.12292 0
M  V30 3597 H 394.154 0.256694 0.612376 0
M  V30 3598 H 396.684 1.32888 1.5557 0
M  V30 3599 H 396.694 0.93781 3.97076 0
M  V30 3600 H 395.369 2.03733 3.62582 0
M  V30 3601 H 393.946 0.208451 3.72317 0
M  V30 3602 N 396.131 -1.37776 0.765217 0
M  V30 3603 C 397.041 -2.34135 0.147666 0
M  V30 3604 C 398.057 -1.59854 -0.687215 0
M  V30 3605 O 399.233 -1.91983 -0.608659 0
M  V30 3606 C 396.298 -3.3901 -0.72617 0
M  V30 3607 C 395.359 -4.2912 0.124417 0
M  V30 3608 C 394.592 -5.28986 -0.707807 0
M  V30 3609 O 394.815 -5.36205 -1.94525 0
M  V30 3610 O 393.749 -6.01779 -0.12046 0
M  V30 3611 H 397.575 -2.88664 0.943758 0
M  V30 3612 H 395.16 -1.39824 0.526277 0
M  V30 3613 H 397.042 -4.03195 -1.22524 0
M  V30 3614 H 395.717 -2.86819 -1.50056 0
M  V30 3615 H 394.624 -3.68057 0.669696 0
M  V30 3616 H 395.957 -4.84598 0.861736 0
M  V30 3617 N 397.609 -0.515225 -1.4894 0
M  V30 3618 C 398.519 0.259774 -2.33157 0
M  V30 3619 C 399.535 0.953501 -1.45548 0
M  V30 3620 O 400.711 0.931735 -1.78552 0
M  V30 3621 C 397.776 1.30193 -3.21326 0
M  V30 3622 C 396.837 0.620129 -4.24797 0
M  V30 3623 C 396.07 1.61263 -5.08753 0
M  V30 3624 O 396.293 2.84389 -4.94448 0
M  V30 3625 O 395.227 1.16013 -5.90614 0
M  V30 3626 H 399.053 -0.429932 -3.00641 0
M  V30 3627 H 396.638 -0.276346 -1.46822 0
M  V30 3628 H 398.52 1.90455 -3.75905 0
M  V30 3629 H 397.195 1.97431 -2.56521 0
M  V30 3630 H 396.102 -0.0226019 -3.74093 0
M  V30 3631 H 397.435 -0.0100493 -4.92199 0
M  V30 3632 N 399.087 1.5561 -0.249682 0
M  V30 3633 C 400.034 2.21496 0.648694 0
M  V30 3634 C 401.004 1.17977 1.16921 0
M  V30 3635 O 402.189 1.46434 1.22318 0
M  V30 3636 C 399.329 2.92039 1.83868 0
M  V30 3637 C 398.442 4.10219 1.35442 0
M  V30 3638 C 397.577 4.6847 2.50419 0
M  V30 3639 C 396.616 5.78893 1.98869 0
M  V30 3640 N 395.753 6.31315 3.07223 0
M  V30 3641 H 400.593 2.97892 0.0801582 0
M  V30 3642 H 398.13 1.47074 0.0278031 0
M  V30 3643 H 400.088 3.31138 2.53778 0
M  V30 3644 H 398.718 2.18111 2.37965 0
M  V30 3645 H 397.77 3.76413 0.54928 0
M  V30 3646 H 399.082 4.89927 0.936649 0
M  V30 3647 H 398.236 5.10158 3.28366 0
M  V30 3648 H 396.975 3.87984 2.95499 0
M  V30 3649 H 395.98 5.3668 1.19393 0
M  V30 3650 H 397.205 6.61232 1.54755 0
M  V30 3651 H 395.151 5.53733 3.51732 0
M  V30 3652 H 395.068 7.06224 2.69784 0
M  V30 3653 H 396.336 6.77662 3.8522 0
M  V30 3654 N 400.565 -0.0233959 1.57583 0
M  V30 3655 C 401.814 -0.712133 1.8871 0
M  V30 3656 C 402.127 -1.76217 0.848944 0
M  V30 3657 O 403.333 -2.50389 1.04964 0
M  V30 3658 C 401.789 -1.3177 3.3491 0
M  V30 3659 C 401.397 -0.303715 4.46969 0
M  V30 3660 C 403.141 -1.98598 3.75179 0
M  V30 3661 C 401.048 -0.917945 5.84233 0
M  V30 3662 H 399.978 -0.269735 0.704101 0
M  V30 3663 H 402.629 0.0333114 1.8347 0
M  V30 3664 H 401.011 -2.11304 3.34913 0
M  V30 3665 H 402.185 0.465325 4.58445 0
M  V30 3666 H 400.5 0.2628 4.1557 0
M  V30 3667 H 403.097 -2.45416 4.75053 0
M  V30 3668 H 403.44 -2.80659 3.07468 0
M  V30 3669 H 403.973 -1.25831 3.77374 0
M  V30 3670 H 400.712 -0.136633 6.55358 0
M  V30 3671 H 400.232 -1.65669 5.76467 0
M  V30 3672 H 401.911 -1.4236 6.31144 0
M  V30 3673 N 402.043 -1.548 -0.295768 0
M  V30 3674 C 403.268 -1.78653 -1.05346 0
M  V30 3675 C 403.693 -0.546894 -1.79974 0
M  V30 3676 O 403.051 0.502763 -1.7419 0
M  V30 3677 C 403.099 -2.99679 -2.00561 0
M  V30 3678 O 402.203 -2.7317 -3.08953 0
M  V30 3679 H 401.544 -0.59116 -0.302367 0
M  V30 3680 H 404.074 -2.01895 -0.331598 0
M  V30 3681 H 404.084 -3.27793 -2.42932 0
M  V30 3682 H 402.759 -3.89562 -1.4565 0
M  V30 3683 H 401.336 -2.56089 -2.71059 0
M  V30 3684 N 403.521 0.559213 -1.47345 0
M  V30 3685 C 404.798 1.31997 -1.44348 0
M  V30 3686 C 405.178 2.1064 -0.139358 0
M  V30 3687 O 404.526 2.1091 0.879153 0
M  V30 3688 C 404.736 2.22618 -2.68779 0
M  V30 3689 C 406.084 2.83701 -3.1591 0
M  V30 3690 O 407.108 2.32921 -2.69493 0
M  V30 3691 O 405.967 3.75993 -3.966 0
M  V30 3692 H 403.061 0.594251 -0.575147 0
M  V30 3693 H 405.607 0.578282 -1.59543 0
M  V30 3694 H 404.379 1.64093 -3.55231 0
M  V30 3695 H 404.002 3.04085 -2.5616 0
M  V30 3696 N 404.999 1.35443 0.805782 0
M  V30 3697 C 406.224 1.32037 1.59941 0
M  V30 3698 C 406.649 -0.0994215 1.87837 0
M  V30 3699 O 406.007 -1.06648 1.46615 0
M  V30 3700 C 406.055 2.13354 2.90711 0
M  V30 3701 O 405.159 1.5148 3.83572 0
M  V30 3702 H 404.5 0.452666 0.485787 0
M  V30 3703 H 407.03 1.78496 1.00002 0
M  V30 3704 H 407.04 2.25338 3.40128 0
M  V30 3705 H 405.715 3.16572 2.69732 0
M  V30 3706 H 404.292 1.4834 3.42125 0
M  V30 3707 N 406.477 -1.02803 1.19454 0
M  V30 3708 C 407.387 -2.14575 0.948408 0
M  V30 3709 C 408.403 -1.73757 -0.091871 0
M  V30 3710 O 409.579 -2.01185 0.0929654 0
M  V30 3711 C 406.644 -3.43202 0.491265 0
M  V30 3712 C 405.705 -3.98328 1.60103 0
M  V30 3713 C 404.938 -5.20816 1.16561 0
M  V30 3714 O 405.161 -5.70392 0.0295238 0
M  V30 3715 O 404.095 -5.68801 1.96849 0
M  V30 3716 H 407.921 -2.38202 1.88397 0
M  V30 3717 H 405.506 -1.12989 0.977433 0
M  V30 3718 H 407.388 -4.20687 0.245015 0
M  V30 3719 H 406.063 -3.21018 -0.415851 0
M  V30 3720 H 404.97 -3.22174 1.90144 0
M  V30 3721 H 406.303 -4.24879 2.48473 0
M  V30 3722 N 407.956 -0.998596 -1.21925 0
M  V30 3723 C 409.204 -0.676325 -1.90448 0
M  V30 3724 C 409.525 0.794719 -1.78071 0
M  V30 3725 O 408.795 1.5701 -1.17152 0
M  V30 3726 H 407.375 -0.247165 -0.704925 0
M  V30 3727 H 410.037 -1.26633 -1.48156 0
M  V30 3728 H 409.133 -0.943858 -2.97486 0
M  V30 3729 N 409.434 1.37368 -0.772513 0
M  V30 3730 C 410.681 1.99673 -0.337182 0
M  V30 3731 C 411.009 1.61324 1.0865 0
M  V30 3732 O 410.264 0.851377 1.7621 0
M  V30 3733 C 410.563 3.54817 -0.428876 0
M  V30 3734 C 410.229 4.12936 -1.81092 0
M  V30 3735 C 408.891 4.28523 -2.1891 0
M  V30 3736 C 411.243 4.44801 -2.71664 0
M  V30 3737 C 408.571 4.73277 -3.46735 0
M  V30 3738 C 410.923 4.90981 -3.98899 0
M  V30 3739 C 409.587 5.04773 -4.36761 0
M  V30 3740 H 408.857 0.730656 -0.123384 0
M  V30 3741 H 411.504 1.64124 -0.986686 0
M  V30 3742 H 409.809 3.90618 0.304167 0
M  V30 3743 H 411.506 4.00933 -0.0733334 0
M  V30 3744 H 408.096 4.01233 -1.50699 0
M  V30 3745 H 412.28 4.32344 -2.43706 0
M  V30 3746 H 407.536 4.82142 -3.75964 0
M  V30 3747 H 411.71 5.14603 -4.69208 0
M  V30 3748 H 409.337 5.39211 -5.35868 0
M  V30 3749 N 410.912 0.523116 1.48665 0
M  V30 3750 C 411.859 -0.243398 2.29513 0
M  V30 3751 C 412.829 -0.940139 1.36933 0
M  V30 3752 O 414.014 -0.942503 1.65896 0
M  V30 3753 C 411.154 -1.28855 3.20141 0
M  V30 3754 C 410.267 -0.60135 4.27794 0
M  V30 3755 C 409.402 -1.62884 5.05611 0
M  V30 3756 C 408.441 -0.924726 6.05075 0
M  V30 3757 N 407.578 -1.89744 6.75975 0
M  V30 3758 H 412.418 0.452234 2.94549 0
M  V30 3759 H 409.955 0.234858 1.45213 0
M  V30 3760 H 411.913 -1.90674 3.71079 0
M  V30 3761 H 410.543 -1.95266 2.57043 0
M  V30 3762 H 409.595 0.130623 3.80176 0
M  V30 3763 H 410.907 -0.0481585 4.98777 0
M  V30 3764 H 410.061 -2.32149 5.60528 0
M  V30 3765 H 408.8 -2.21592 4.34452 0
M  V30 3766 H 407.805 -0.217966 5.49368 0
M  V30 3767 H 409.03 -0.343851 6.78229 0
M  V30 3768 H 406.976 -2.47373 6.07571 0
M  V30 3769 H 406.893 -1.3955 7.43009 0
M  V30 3770 H 408.161 -2.58229 7.35485 0
M  V30 3771 N 412.39 -1.55475 0.257931 0
M  V30 3772 C 413.353 -2.20551 -0.623706 0
M  V30 3773 C 414.353 -1.17809 -1.09443 0
M  V30 3774 O 415.543 -1.42823 -0.997362 0
M  V30 3775 C 412.675 -2.85784 -1.8585 0
M  V30 3776 H 413.868 -2.99848 -0.0557743 0
M  V30 3777 H 411.421 -1.56298 0.0084422 0
M  V30 3778 H 412.156 -2.10453 -2.46739 0
M  V30 3779 H 411.941 -3.61057 -1.52907 0
M  V30 3780 H 413.431 -3.35553 -2.48584 0
M  V30 3781 N 413.868 0.0150385 -1.57593 0
M  V30 3782 C 414.816 1.02958 -2.08572 0
M  V30 3783 C 415.81 1.36554 -1.00246 0
M  V30 3784 O 417.016 1.35295 -1.18724 0
M  V30 3785 H 413.391 0.349619 -0.665786 0
M  V30 3786 H 415.362 0.573932 -2.92829 0
M  V30 3787 C 414.111 2.31752 -2.59203 0
M  V30 3788 H 413.434 2.06765 -3.42182 0
M  V30 3789 H 414.874 3.01053 -2.98568 0
M  V30 3790 C 413.333 3.01692 -1.49945 0
M  V30 3791 O 413.863 3.92083 -0.873704 0
M  V30 3792 N 412.069 2.6326 -1.23056 0
M  V30 3793 H 411.616 1.89838 -1.74125 0
M  V30 3794 H 411.574 3.10372 -0.501685 0
M  V30 3795 N 415.346 1.54954 0.287554 0
M  V30 3796 C 416.276 1.89839 1.35954 0
M  V30 3797 C 417.257 0.758675 1.52244 0
M  V30 3798 O 418.442 1.01557 1.65529 0
M  V30 3799 C 415.572 2.15753 2.72154 0
M  V30 3800 C 414.526 3.3159 2.70614 0
M  V30 3801 C 413.852 3.42952 4.10229 0
M  V30 3802 C 415.152 4.68359 2.31165 0
M  V30 3803 H 416.846 2.79625 1.07007 0
M  V30 3804 H 414.392 1.3454 0.513316 0
M  V30 3805 H 416.345 2.38743 3.47246 0
M  V30 3806 H 415.069 1.22752 3.02654 0
M  V30 3807 H 413.728 3.08545 1.97979 0
M  V30 3808 H 413.376 2.47443 4.37928 0
M  V30 3809 H 413.076 4.20826 4.10097 0
M  V30 3810 H 414.6 3.68218 4.87081 0
M  V30 3811 H 416.014 4.9099 2.95976 0
M  V30 3812 H 414.411 5.49044 2.42221 0
M  V30 3813 H 415.481 4.68165 1.26291 0
M  V30 3814 N 416.824 -0.551391 1.4764 0
M  V30 3815 C 418.049 -1.33837 1.58437 0
M  V30 3816 C 418.474 -1.866 0.237063 0
M  V30 3817 O 417.832 -1.6328 -0.787994 0
M  V30 3818 C 417.88 -2.48014 2.61766 0
M  V30 3819 O 416.984 -3.50419 2.1744 0
M  V30 3820 H 416.325 -0.397299 0.532024 0
M  V30 3821 H 418.855 -0.665759 1.93465 0
M  V30 3822 H 418.865 -2.94503 2.82369 0
M  V30 3823 H 417.54 -2.08969 3.5959 0
M  V30 3824 H 416.117 -3.10196 2.06961 0
M  V30 3825 N 418.302 -1.35869 -0.798587 0
M  V30 3826 C 419.232 -1.32118 -1.92528 0
M  V30 3827 C 420.213 -0.194209 -1.68988 0
M  V30 3828 O 421.398 -0.390426 -1.90235 0
M  V30 3829 C 418.528 -1.10047 -3.29404 0
M  V30 3830 C 417.482 -2.19471 -3.67446 0
M  V30 3831 C 416.808 -1.82555 -5.02571 0
M  V30 3832 C 418.108 -3.61495 -3.76987 0
M  V30 3833 H 419.802 -2.26394 -1.95924 0
M  V30 3834 H 417.348 -1.08981 -0.94123 0
M  V30 3835 H 419.301 -1.06061 -4.07835 0
M  V30 3836 H 418.025 -0.122195 -3.26371 0
M  V30 3837 H 416.684 -2.22568 -2.91306 0
M  V30 3838 H 416.332 -0.833249 -4.9605 0
M  V30 3839 H 416.032 -2.5581 -5.28995 0
M  V30 3840 H 417.556 -1.80108 -5.83432 0
M  V30 3841 H 418.97 -3.60676 -4.4563 0
M  V30 3842 H 417.367 -4.33577 -4.14887 0
M  V30 3843 H 418.437 -3.97065 -2.78329 0
M  V30 3844 N 419.78 1.02168 -1.19998 0
M  V30 3845 C 420.71 2.12488 -0.96804 0
M  V30 3846 C 421.691 1.69799 0.101185 0
M  V30 3847 O 422.876 1.94121 -0.0552993 0
M  V30 3848 C 420.006 3.43479 -0.513776 0
M  V30 3849 C 418.96 3.99884 -1.52566 0
M  V30 3850 C 418.286 5.26582 -0.928214 0
M  V30 3851 C 419.586 4.33861 -2.90795 0
M  V30 3852 H 421.28 2.32149 -1.89069 0
M  V30 3853 H 418.826 1.11564 -0.910468 0
M  V30 3854 H 420.779 4.20036 -0.338774 0
M  V30 3855 H 419.503 3.23561 0.444493 0
M  V30 3856 H 418.162 3.25429 -1.68794 0
M  V30 3857 H 417.81 5.02986 0.0378289 0
M  V30 3858 H 417.51 5.65284 -1.60397 0
M  V30 3859 H 419.034 6.05799 -0.764167 0
M  V30 3860 H 420.448 5.01327 -2.78109 0
M  V30 3861 H 418.845 4.83664 -3.55231 0
M  V30 3862 H 419.915 3.42848 -3.42904 0
M  V30 3863 N 421.258 1.00505 1.21394 0
M  V30 3864 C 422.674 0.717873 1.42544 0
M  V30 3865 C 422.874 -0.706936 1.88692 0
M  V30 3866 O 421.93 -1.47627 2.04847 0
M  V30 3867 C 423.243 1.73377 2.45684 0
M  V30 3868 C 424.791 1.75059 2.59467 0
M  V30 3869 C 425.266 2.75545 3.6584 0
M  V30 3870 N 426.757 2.74213 3.73311 0
M  V30 3871 C 427.492 3.48626 4.55245 0
M  V30 3872 N 426.988 4.32678 5.41075 0
M  V30 3873 N 428.781 3.37276 4.49668 0
M  V30 3874 H 420.932 1.92506 0.897503 0
M  V30 3875 H 423.195 0.830919 0.456375 0
M  V30 3876 H 422.901 2.75395 2.18748 0
M  V30 3877 H 422.775 1.53647 3.44489 0
M  V30 3878 H 425.162 0.737337 2.8574 0
M  V30 3879 H 425.243 1.98861 1.60897 0
M  V30 3880 H 424.887 3.77028 3.40313 0
M  V30 3881 H 424.817 2.49009 4.64007 0
M  V30 3882 H 427.308 2.13234 3.11993 0
M  V30 3883 H 427.621 4.86253 6.00648 0
M  V30 3884 H 425.966 4.3676 5.40616 0
M  V30 3885 H 429.157 2.71043 3.81646 0
M  V30 3886 H 429.33 3.95524 5.13288 0
M  V30 3887 N 422.737 -1.36956 0.779787 0
M  V30 3888 C 424.153 -1.52817 0.460342 0
M  V30 3889 C 424.353 -1.7361 -1.02283 0
M  V30 3890 O 423.409 -1.76207 -1.80852 0
M  V30 3891 C 424.722 -2.71983 1.28241 0
M  V30 3892 C 426.27 -2.85849 1.27512 0
M  V30 3893 C 426.745 -4.08008 2.08072 0
M  V30 3894 N 428.236 -4.15135 2.05467 0
M  V30 3895 C 428.971 -5.08711 2.64577 0
M  V30 3896 N 428.467 -6.07792 3.32506 0
M  V30 3897 N 430.26 -5.01254 2.54363 0
M  V30 3898 H 422.411 -1.21713 1.74068 0
M  V30 3899 H 424.674 -0.593294 0.739396 0
M  V30 3900 H 424.38 -2.63109 2.33381 0
M  V30 3901 H 424.254 -3.65882 0.917088 0
M  V30 3902 H 426.641 -2.94189 0.231686 0
M  V30 3903 H 426.722 -1.92886 1.68014 0
M  V30 3904 H 426.366 -4.00429 3.12441 0
M  V30 3905 H 426.296 -5.001 1.64947 0
M  V30 3906 H 428.787 -3.44189 1.5602 0
M  V30 3907 H 429.1 -6.75739 3.74963 0
M  V30 3908 H 427.445 -6.08047 3.36606 0
M  V30 3909 H 430.636 -4.22795 2.00902 0
M  V30 3910 H 430.809 -5.73995 3.00722 0
M  V30 3911 N 424.215 -0.530993 -1.48385 0
M  V30 3912 C 425.626 -0.0907905 -1.86479 0
M  V30 3913 C 425.977 1.33213 -1.44044 0
M  V30 3914 O 425.102 1.99783 -0.831615 0
M  V30 3915 C 425.697 -0.157987 -3.38431 0
M  V30 3916 C 424.256 0.227026 -3.75715 0
M  V30 3917 C 423.403 -0.5173 -2.72432 0
M  V30 3918 H 426.354 -0.742186 -1.40276 0
M  V30 3919 H 426.375 0.630053 -3.75247 0
M  V30 3920 H 425.887 -1.19372 -3.69286 0
M  V30 3921 H 423.988 1.26486 -3.50474 0
M  V30 3922 H 424.101 -0.113288 -4.78966 0
M  V30 3923 H 422.465 0.0365527 -2.54674 0
M  V30 3924 H 423.248 -1.55368 -3.0613 0
M  V30 3925 N 425.693 1.55336 -0.266172 0
M  V30 3926 C 426.941 1.99003 0.35246 0
M  V30 3927 C 427.262 1.15591 1.57047 0
M  V30 3928 O 426.532 0.243268 1.94384 0
M  V30 3929 H 425.112 0.735025 0.133217 0
M  V30 3930 H 427.774 1.91367 -0.369434 0
M  V30 3931 H 426.87 3.05289 0.648453 0
M  V30 3932 N 427.171 -0.0066808 1.57599 0
M  V30 3933 C 428.081 -1.01671 2.11424 0
M  V30 3934 C 429.097 -1.38143 1.05795 0
M  V30 3935 O 430.273 -1.47011 1.37658 0
M  V30 3936 C 427.338 -2.29192 2.60139 0
M  V30 3937 C 426.399 -1.99094 3.80342 0
M  V30 3938 C 425.632 -3.20535 4.26724 0
M  V30 3939 O 425.855 -4.3199 3.72479 0
M  V30 3940 O 424.789 -3.04924 5.18946 0
M  V30 3941 H 428.615 -0.589181 2.9793 0
M  V30 3942 H 426.2 -0.225091 1.47695 0
M  V30 3943 H 428.082 -3.0412 2.917 0
M  V30 3944 H 426.757 -2.71195 1.76733 0
M  V30 3945 H 425.664 -1.21663 3.53764 0
M  V30 3946 H 426.997 -1.61931 4.648 0
M  V30 3947 N 428.649 -1.55105 -0.279332 0
M  V30 3948 C 429.596 -1.8755 -1.34513 0
M  V30 3949 C 430.566 -0.726384 -1.49375 0
M  V30 3950 O 431.751 -0.977063 -1.63884 0
M  V30 3951 C 428.891 -2.14738 -2.70151 0
M  V30 3952 C 428.004 -3.42285 -2.63562 0
M  V30 3953 C 427.139 -3.59206 -3.91337 0
M  V30 3954 C 426.178 -4.80467 -3.79233 0
M  V30 3955 N 425.315 -4.94079 -4.98829 0
M  V30 3956 H 430.155 -2.78456 -1.06143 0
M  V30 3957 H 427.692 -1.37867 -0.512936 0
M  V30 3958 H 429.65 -2.28501 -3.49061 0
M  V30 3959 H 428.28 -1.27075 -2.96735 0
M  V30 3960 H 427.332 -3.37029 -1.76397 0
M  V30 3961 H 428.644 -4.31328 -2.50515 0
M  V30 3962 H 427.798 -3.72751 -4.78687 0
M  V30 3963 H 426.537 -2.68337 -4.07243 0
M  V30 3964 H 425.542 -4.66932 -2.90266 0
M  V30 3965 H 426.767 -5.72765 -3.64852 0
M  V30 3966 H 424.713 -4.06139 -5.15158 0
M  V30 3967 H 424.63 -5.77156 -4.8829 0
M  V30 3968 H 425.898 -5.12003 -5.8777 0
M  V30 3969 N 430.127 0.543554 -1.4793 0
M  V30 3970 C 431.355 1.32516 -1.58894 0
M  V30 3971 C 431.77 1.87215 -0.244131 0
M  V30 3972 O 431.127 1.65709 0.764652 0
M  V30 3973 C 431.178 2.48554 -2.62494 0
M  V30 3974 O 430.899 1.96112 -3.91755 0
M  V30 3975 C 432.4 3.40572 -2.8377 0
M  V30 3976 H 429.62 0.403472 -0.536145 0
M  V30 3977 H 432.164 0.657106 -1.93655 0
M  V30 3978 H 430.319 3.1127 -2.30629 0
M  V30 3979 H 430.733 2.71967 -4.4848 0
M  V30 3980 H 432.207 4.18375 -3.60093 0
M  V30 3981 H 432.684 3.94965 -1.92092 0
M  V30 3982 H 433.29 2.8366 -3.16887 0
M  V30 3983 N 431.605 1.3629 0.791371 0
M  V30 3984 C 432.835 1.33368 1.57786 0
M  V30 3985 C 433.243 -0.0875188 1.88997 0
M  V30 3986 O 432.586 -1.05427 1.50435 0
M  V30 3987 C 432.648 2.08802 2.92646 0
M  V30 3988 C 432.312 3.57903 2.84174 0
M  V30 3989 C 433.309 4.52191 2.56553 0
M  V30 3990 C 430.994 4.00762 3.02812 0
M  V30 3991 C 432.988 5.87315 2.47669 0
M  V30 3992 C 430.675 5.35977 2.93551 0
M  V30 3993 C 431.673 6.29066 2.66017 0
M  V30 3994 O 431.361 7.61798 2.56746 0
M  V30 3995 H 431.093 0.459166 0.496128 0
M  V30 3996 H 433.647 1.79952 0.990269 0
M  V30 3997 H 431.877 1.56878 3.53449 0
M  V30 3998 H 433.566 1.98762 3.53904 0
M  V30 3999 H 434.332 4.20393 2.41858 0
M  V30 4000 H 430.211 3.2868 3.2325 0
M  V30 4001 H 433.755 6.59943 2.26099 0
M  V30 4002 H 429.652 5.67384 3.07808 0
M  V30 4003 H 430.42 7.71898 2.72242 0
M  V30 4004 N 433.083 -1.0153 1.20538 0
M  V30 4005 C 434.311 -1.78746 1.04199 0
M  V30 4006 C 434.726 -1.84323 -0.408733 0
M  V30 4007 O 434.083 -1.29714 -1.28377 0
M  V30 4008 C 434.134 -3.23152 1.62035 0
M  V30 4009 O 433.855 -3.17918 3.0143 0
M  V30 4010 C 435.356 -4.16911 1.50666 0
M  V30 4011 H 432.576 -0.56208 0.366479 0
M  V30 4012 H 435.12 -1.27794 1.59653 0
M  V30 4013 H 433.275 -3.71248 1.10697 0
M  V30 4014 H 433.689 -4.08567 3.28897 0
M  V30 4015 H 435.163 -5.16072 1.95892 0
M  V30 4016 H 435.64 -4.36791 0.459363 0
M  V30 4017 H 436.246 -3.74698 2.01201 0
M  V30 4018 N 434.561 -1.01147 -1.20859 0
M  V30 4019 C 435.493 -0.535546 -2.22855 0
M  V30 4020 C 436.506 0.379323 -1.58319 0
M  V30 4021 O 437.695 0.178489 -1.77605 0
M  V30 4022 C 434.795 0.240962 -3.38042 0
M  V30 4023 C 433.968 -0.674562 -4.32167 0
M  V30 4024 C 433.027 0.053467 -5.26173 0
M  V30 4025 O 432.053 -0.567339 -5.66366 0
M  V30 4026 N 433.255 1.32997 -5.65059 0
M  V30 4027 H 436.02 -1.41268 -2.64317 0
M  V30 4028 H 433.581 -0.888386 -1.35349 0
M  V30 4029 H 435.573 0.737115 -3.97931 0
M  V30 4030 H 434.143 1.01935 -2.95513 0
M  V30 4031 H 433.363 -1.35111 -3.70322 0
M  V30 4032 H 434.651 -1.2974 -4.91981 0
M  V30 4033 H 434.049 1.85536 -5.34409 0
M  V30 4034 H 432.606 1.77095 -6.2728 0
M  V30 4035 N 436.039 1.36541 -0.78704 0
M  V30 4036 C 437.455 1.52571 -0.46844 0
M  V30 4037 C 437.655 1.7415 1.01361 0
M  V30 4038 O 436.711 1.77163 1.79915 0
M  V30 4039 C 438.024 2.71299 -1.29682 0
M  V30 4040 C 439.572 2.85169 -1.29027 0
M  V30 4041 C 440.047 4.06898 -2.10233 0
M  V30 4042 N 441.538 4.1404 -2.07666 0
M  V30 4043 C 442.273 5.07301 -2.67271 0
M  V30 4044 N 441.769 6.06021 -3.35724 0
M  V30 4045 N 443.562 4.99898 -2.57018 0
M  V30 4046 H 435.713 1.20788 -1.74711 0
M  V30 4047 H 437.976 0.589364 -0.742532 0
M  V30 4048 H 437.682 2.61868 -2.34773 0
M  V30 4049 H 437.556 3.6539 -0.936479 0
M  V30 4050 H 439.943 2.94062 -0.247284 0
M  V30 4051 H 440.024 1.91992 -1.69035 0
M  V30 4052 H 439.668 3.98766 -3.1456 0
M  V30 4053 H 439.598 4.99218 -1.67597 0
M  V30 4054 H 442.089 3.43357 -1.57843 0
M  V30 4055 H 442.402 6.73741 -3.78541 0
M  V30 4056 H 440.747 6.06253 -3.39826 0
M  V30 4057 H 443.938 4.21724 -2.03142 0
M  V30 4058 H 444.111 5.72392 -3.03761 0
M  V30 4059 N 437.518 0.538854 1.48102 0
M  V30 4060 C 438.758 0.0101209 2.04397 0
M  V30 4061 C 439.122 -1.30741 1.40609 0
M  V30 4062 O 440.323 -1.92272 1.87843 0
M  V30 4063 C 438.594 -0.100232 3.57259 0
M  V30 4064 S 440.153 -0.577746 4.3498 0
M  V30 4065 H 436.971 0.0163171 0.710813 0
M  V30 4066 H 439.573 0.721429 1.81702 0
M  V30 4067 H 438.277 0.863351 4.01216 0
M  V30 4068 H 437.808 -0.835651 3.84422 0
M  V30 4069 H 439.823 -1.84073 4.60794 0
M  V30 4070 N 438.996 -1.55193 0.274407 0
M  V30 4071 C 440.412 -1.59401 -0.0797543 0
M  V30 4072 C 440.612 -1.29162 -1.54659 0
M  V30 4073 O 439.668 -1.05215 -2.29534 0
M  V30 4074 C 440.981 -2.99257 0.294238 0
M  V30 4075 C 442.529 -3.12072 0.240796 0
M  V30 4076 C 443.004 -4.54194 0.589218 0
M  V30 4077 N 444.495 -4.60033 0.540744 0
M  V30 4078 C 445.23 -5.68027 0.783147 0
M  V30 4079 N 444.726 -6.8417 1.09013 0
M  V30 4080 N 446.519 -5.57572 0.711993 0
M  V30 4081 H 438.67 -1.73113 1.23067 0
M  V30 4082 H 440.933 -0.807197 0.497129 0
M  V30 4083 H 440.639 -3.26217 1.31435 0
M  V30 4084 H 440.513 -3.75427 -0.365281 0
M  V30 4085 H 442.9 -2.84877 -0.770024 0
M  V30 4086 H 442.981 -2.38117 0.934563 0
M  V30 4087 H 442.625 -4.82115 1.59772 0
M  V30 4088 H 442.555 -5.26448 -0.126331 0
M  V30 4089 H 445.046 -3.76599 0.313327 0
M  V30 4090 H 445.359 -7.6243 1.26178 0
M  V30 4091 H 443.704 -6.85787 1.12789 0
M  V30 4092 H 446.895 -4.65714 0.472014 0
M  V30 4093 H 447.068 -6.41659 0.90429 0
M  V30 4094 N 440.474 -0.00167713 -1.576 0
M  V30 4095 C 441.404 0.988091 -2.11563 0
M  V30 4096 C 442.385 1.35736 -1.02517 0
M  V30 4097 O 443.57 1.44082 -1.30208 0
M  V30 4098 C 440.7 2.27941 -2.62031 0
M  V30 4099 C 439.654 2.0517 -3.75619 0
M  V30 4100 C 438.98 3.4033 -4.12407 0
M  V30 4101 C 440.28 1.41294 -5.02825 0
M  V30 4102 H 441.974 0.538771 -2.94513 0
M  V30 4103 H 439.52 0.257712 -1.41675 0
M  V30 4104 H 441.473 2.97539 -2.9841 0
M  V30 4105 H 440.197 2.74989 -1.76205 0
M  V30 4106 H 438.856 1.37998 -3.39635 0
M  V30 4107 H 438.504 3.85085 -3.23603 0
M  V30 4108 H 438.204 3.25909 -4.88935 0
M  V30 4109 H 439.728 4.1124 -4.51347 0
M  V30 4110 H 441.142 2.00851 -5.36965 0
M  V30 4111 H 439.539 1.37356 -5.84169 0
M  V30 4112 H 440.609 0.382362 -4.8339 0
M  V30 4113 N 441.952 1.55251 0.271103 0
M  V30 4114 C 443.199 1.75946 1.00245 0
M  V30 4115 C 443.527 0.561611 1.86215 0
M  V30 4116 O 442.782 -0.455832 1.90317 0
M  V30 4117 C 443.081 3.01879 1.91321 0
M  V30 4118 C 442.747 4.34337 1.21086 0
M  V30 4119 C 441.409 4.70338 1.01666 0
M  V30 4120 C 443.761 5.16325 0.71119 0
M  V30 4121 C 441.089 5.8588 0.310099 0
M  V30 4122 C 443.441 6.32597 0.0182157 0
M  V30 4123 C 442.105 6.67236 -0.18768 0
M  V30 4124 H 441.375 0.643833 0.366824 0
M  V30 4125 H 444.022 1.89521 0.27458 0
M  V30 4126 H 442.327 2.83212 2.70736 0
M  V30 4127 H 444.024 3.15088 2.48033 0
M  V30 4128 H 440.614 4.06043 1.37213 0
M  V30 4129 H 444.798 4.88987 0.848844 0
M  V30 4130 H 440.054 6.1124 0.139873 0
M  V30 4131 H 444.228 6.9538 -0.376711 0
M  V30 4132 H 441.855 7.56618 -0.73715 0
M  V30 4133 N 443.43 -0.535701 1.48216 0
M  V30 4134 C 444.676 -1.29375 1.56173 0
M  V30 4135 C 445.009 -1.92804 0.232429 0
M  V30 4136 O 444.284 -1.78992 -0.761048 0
M  V30 4137 C 444.567 -2.38747 2.69577 0
M  V30 4138 C 444.42 -1.80046 4.12193 0
M  V30 4139 C 445.739 -3.40551 2.78771 0
M  V30 4140 H 442.858 -0.469027 0.568491 0
M  V30 4141 H 445.5 -0.597358 1.80365 0
M  V30 4142 H 443.65 -2.98147 2.4908 0
M  V30 4143 H 445.322 -1.24742 4.44114 0
M  V30 4144 H 443.565 -1.10609 4.19462 0
M  V30 4145 H 444.236 -2.59212 4.87353 0
M  V30 4146 H 446.712 -2.91099 2.97322 0
M  V30 4147 H 445.588 -4.1448 3.59857 0
M  V30 4148 H 445.849 -4.00746 1.86696 0
M  V30 4149 N 444.908 -1.36708 -0.784132 0
M  V30 4150 C 446.156 -1.30972 -1.53918 0
M  V30 4151 C 446.477 0.109086 -1.94695 0
M  V30 4152 O 445.747 1.05048 -1.65353 0
M  V30 4153 H 444.327 -0.481819 -0.570841 0
M  V30 4154 H 446.989 -1.71063 -0.934002 0
M  V30 4155 H 446.085 -1.94061 -2.44431 0
M  V30 4156 N 446.386 1.0089 -1.21074 0
M  V30 4157 C 447.334 2.11707 -0.963476 0
M  V30 4158 C 448.328 1.69172 0.0879032 0
M  V30 4159 O 449.534 1.79889 -0.0631415 0
M  V30 4160 H 445.909 0.692026 -0.294287 0
M  V30 4161 H 447.88 2.29743 -1.90422 0
M  V30 4162 C 446.629 3.43473 -0.540509 0
M  V30 4163 H 445.952 3.76634 -1.34114 0
M  V30 4164 H 447.392 4.22044 -0.406777 0
M  V30 4165 C 445.851 3.2849 0.748079 0
M  V30 4166 O 446.381 3.58883 1.8046 0
M  V30 4167 N 444.587 2.81715 0.713081 0
M  V30 4168 H 444.134 2.5718 -0.146973 0
M  V30 4169 H 444.092 2.72071 1.57558 0
M  V30 4170 N 447.864 1.01787 1.20321 0
M  V30 4171 C 448.794 0.609625 2.25401 0
M  V30 4172 C 449.775 -0.375951 1.65893 0
M  V30 4173 O 450.96 -0.261101 1.92437 0
M  V30 4174 C 448.09 -0.0515995 3.47262 0
M  V30 4175 C 447.044 0.855095 4.19371 0
M  V30 4176 C 446.37 0.0595757 5.34667 0
M  V30 4177 C 447.67 2.16374 4.75373 0
M  V30 4178 H 449.364 1.48803 2.59804 0
M  V30 4179 H 446.91 0.716934 1.24884 0
M  V30 4180 H 448.863 -0.348764 4.19954 0
M  V30 4181 H 447.587 -0.964726 3.12027 0
M  V30 4182 H 446.246 1.13628 3.48546 0
M  V30 4183 H 445.894 -0.85524 4.95676 0
M  V30 4184 H 445.594 0.663406 5.83843 0
M  V30 4185 H 447.118 -0.231105 6.10162 0
M  V30 4186 H 448.532 1.92885 5.39878 0
M  V30 4187 H 446.929 2.71853 5.34991 0
M  V30 4188 H 447.999 2.82589 3.94045 0
M  V30 4189 N 449.342 -1.36122 0.79427 0
M  V30 4190 C 450.753 -1.81646 0.431446 0
M  V30 4191 C 451.104 -1.66043 -1.04518 0
M  V30 4192 O 450.229 -1.1841 -1.8113 0
M  V30 4193 C 450.824 -3.29785 0.776341 0
M  V30 4194 C 449.383 -3.73501 0.466282 0
M  V30 4195 C 448.53 -2.58313 1.00844 0
M  V30 4196 H 451.481 -1.24274 0.986995 0
M  V30 4197 H 451.502 -3.80437 0.0692413 0
M  V30 4198 H 451.014 -3.4111 1.8511 0
M  V30 4199 H 449.115 -3.67733 -0.600245 0
M  V30 4200 H 449.228 -4.68754 0.990288 0
M  V30 4201 H 447.592 -2.5102 0.431406 0
M  V30 4202 H 448.375 -2.72421 2.08906 0
M  V30 4203 N 450.82 -0.546701 -1.47814 0
M  V30 4204 C 451.783 0.196287 -2.28358 0
M  V30 4205 C 452.783 0.852437 -1.36346 0
M  V30 4206 O 453.973 0.709913 -1.59078 0
M  V30 4207 C 451.105 1.28579 -3.15722 0
M  V30 4208 H 452.298 -0.511086 -2.95513 0
M  V30 4209 H 449.851 -0.303248 -1.5333 0
M  V30 4210 H 450.586 2.0259 -2.53235 0
M  V30 4211 H 450.371 0.820229 -3.83425 0
M  V30 4212 H 451.861 1.80793 -3.76435 0
M  V30 4213 N 452.299 1.55045 -0.282633 0
M  V30 4214 C 453.576 1.9179 0.384166 0
M  V30 4215 C 453.956 1.20778 1.73136 0
M  V30 4216 O 453.304 0.33719 2.25998 0
M  V30 4217 C 453.514 3.45149 0.517014 0
M  V30 4218 C 454.862 4.17064 0.796427 0
M  V30 4219 O 455.886 3.51084 0.601535 0
M  V30 4220 O 454.745 5.33837 1.16962 0
M  V30 4221 H 451.839 0.799483 0.211558 0
M  V30 4222 H 454.385 1.66474 -0.32934 0
M  V30 4223 H 453.157 3.88922 -0.430772 0
M  V30 4224 H 452.78 3.76443 1.2797 0
M  V30 4225 N 453.777 0.010035 1.57597 0
M  V30 4226 C 455.026 -0.671945 1.90178 0
M  V30 4227 C 455.339 -1.74376 0.886131 0
M  V30 4228 O 456.545 -2.48107 1.10252 0
M  V30 4229 C 455.001 -1.24636 3.3763 0
M  V30 4230 C 454.609 -0.208838 4.47513 0
M  V30 4231 C 456.353 -1.90595 3.79307 0
M  V30 4232 C 454.26 -0.793814 5.86048 0
M  V30 4233 H 453.19 -0.25474 0.709665 0
M  V30 4234 H 455.841 0.0722206 1.83358 0
M  V30 4235 H 454.223 -2.04152 3.3932 0
M  V30 4236 H 455.397 0.562463 4.57354 0
M  V30 4237 H 453.712 0.350889 4.14919 0
M  V30 4238 H 456.309 -2.35284 4.80151 0
M  V30 4239 H 456.652 -2.74074 3.13352 0
M  V30 4240 H 457.185 -1.17798 3.79958 0
M  V30 4241 H 453.924 0.00240855 6.555 0
M  V30 4242 H 453.444 -1.53404 5.79851 0
M  V30 4243 H 455.123 -1.2894 6.34022 0
M  V30 4244 N 455.255 -1.55392 -0.262866 0
M  V30 4245 C 456.483 -1.80513 -1.01108 0
M  V30 4246 C 456.898 -0.583533 -1.79556 0
M  V30 4247 O 456.255 0.447585 -1.76926 0
M  V30 4248 C 456.306 -3.03648 -1.96164 0
M  V30 4249 O 456.027 -4.2109 -1.20893 0
M  V30 4250 C 457.528 -3.41448 -2.82715 0
M  V30 4251 H 454.748 -0.601079 -0.298236 0
M  V30 4252 H 457.292 -2.02425 -0.290582 0
M  V30 4253 H 455.447 -2.83832 -2.63663 0
M  V30 4254 H 455.861 -4.90771 -1.85051 0
M  V30 4255 H 457.335 -4.30751 -3.45192 0
M  V30 4256 H 457.812 -2.61308 -3.53008 0
M  V30 4257 H 458.418 -3.63559 -2.20693 0
M  V30 4258 N 456.733 0.527833 -1.48498 0
M  V30 4259 C 457.643 1.65907 -1.65867 0
M  V30 4260 C 458.659 1.6537 -0.541192 0
M  V30 4261 O 459.835 1.84282 -0.812534 0
M  V30 4262 C 456.9 3.02364 -1.69637 0
M  V30 4263 C 455.961 3.1374 -2.93028 0
M  V30 4264 C 455.194 4.43688 -2.96609 0
M  V30 4265 O 455.417 5.30913 -2.08538 0
M  V30 4266 O 454.351 4.59475 -3.88802 0
M  V30 4267 H 458.177 1.5419 -2.61647 0
M  V30 4268 H 455.762 0.701163 -1.31924 0
M  V30 4269 H 457.644 3.83515 -1.74625 0
M  V30 4270 H 456.319 3.14401 -0.770312 0
M  V30 4271 H 455.226 2.31877 -2.93571 0
M  V30 4272 H 456.559 3.06621 -3.85026 0
M  V30 4273 N 458.211 1.37122 0.776871 0
M  V30 4274 C 459.488 1.22586 1.52421 0
M  V30 4275 C 459.868 -0.182726 2.10308 0
M  V30 4276 O 459.216 -1.18979 1.9508 0
M  V30 4277 C 459.426 2.31782 2.60918 0
M  V30 4278 C 460.774 2.69071 3.2846 0
M  V30 4279 O 461.798 2.3092 2.71209 0
M  V30 4280 O 460.657 3.3478 4.31954 0
M  V30 4281 H 457.751 0.478045 0.674835 0
M  V30 4282 H 460.297 1.48888 0.814275 0
M  V30 4283 H 459.069 3.26131 2.16227 0
M  V30 4284 H 458.692 2.06916 3.39517 0
M  V30 4285 N 459.689 -1.00246 1.21608 0
M  V30 4286 C 460.599 -2.12515 0.993709 0
M  V30 4287 C 461.615 -1.73913 -0.0549939 0
M  V30 4288 O 462.791 -2.00943 0.135619 0
M  V30 4289 C 459.856 -3.42083 0.563953 0
M  V30 4290 C 458.917 -3.94843 1.68516 0
M  V30 4291 C 458.15 -5.18226 1.27582 0
M  V30 4292 O 458.373 -5.70201 0.150506 0
M  V30 4293 O 457.307 -5.64497 2.0887 0
M  V30 4294 H 461.133 -2.34152 1.93407 0
M  V30 4295 H 458.718 -1.10891 1.00118 0
M  V30 4296 H 460.6 -4.20073 0.334194 0
M  V30 4297 H 459.275 -3.21828 -0.347665 0
M  V30 4298 H 458.182 -3.18068 1.96935 0
M  V30 4299 H 459.515 -4.19512 2.5743 0
M  V30 4300 N 461.167 -1.02423 -1.1978 0
M  V30 4301 C 462.414 -0.717988 -1.89344 0
M  V30 4302 C 462.742 0.753036 -1.79331 0
M  V30 4303 O 461.997 1.56355 -1.17692 0
M  V30 4304 C 462.296 -1.1088 -3.39765 0
M  V30 4305 C 461.962 -2.57731 -3.6998 0
M  V30 4306 C 460.624 -2.97854 -3.77937 0
M  V30 4307 C 462.976 -3.52763 -3.83677 0
M  V30 4308 C 460.304 -4.31931 -3.97054 0
M  V30 4309 C 462.656 -4.86538 -4.04306 0
M  V30 4310 C 461.32 -5.26356 -4.10494 0
M  V30 4311 H 460.59 -0.26273 -0.692859 0
M  V30 4312 H 463.237 -1.28623 -1.41875 0
M  V30 4313 H 461.542 -0.459094 -3.89101 0
M  V30 4314 H 463.239 -0.849432 -3.919 0
M  V30 4315 H 459.829 -2.25646 -3.64393 0
M  V30 4316 H 464.013 -3.2292 -3.76877 0
M  V30 4317 H 459.269 -4.62324 -4.00083 0
M  V30 4318 H 463.443 -5.60093 -4.13846 0
M  V30 4319 H 461.07 -6.3026 -4.2506 0
M  V30 4320 N 462.645 1.35699 -0.801477 0
M  V30 4321 C 463.592 2.29876 -0.206294 0
M  V30 4322 C 464.562 1.52565 0.656752 0
M  V30 4323 O 465.747 1.81024 0.602906 0
M  V30 4324 C 462.887 3.39052 0.643272 0
M  V30 4325 C 462 4.31335 -0.239644 0
M  V30 4326 C 461.135 5.27599 0.61744 0
M  V30 4327 C 460.174 6.11521 -0.26619 0
M  V30 4328 N 459.311 6.99938 0.550571 0
M  V30 4329 H 464.151 2.80187 -1.01484 0
M  V30 4330 H 461.688 1.37902 -0.511997 0
M  V30 4331 H 463.646 4.0101 1.15094 0
M  V30 4332 H 462.276 2.9003 1.41713 0
M  V30 4333 H 461.328 3.70426 -0.865381 0
M  V30 4334 H 462.64 4.90243 -0.919985 0
M  V30 4335 H 461.794 5.94906 1.19045 0
M  V30 4336 H 460.533 4.69176 1.33137 0
M  V30 4337 H 459.538 5.43166 -0.851507 0
M  V30 4338 H 460.763 6.72022 -0.9779 0
M  V30 4339 H 458.709 6.44008 1.24856 0
M  V30 4340 H 458.626 7.55966 -0.071832 0
M  V30 4341 H 459.894 7.71599 1.10702 0
M  V30 4342 N 464.123 0.554532 1.47522 0
M  V30 4343 C 465.539 0.214107 1.58157 0
M  V30 4344 C 465.739 -1.28331 1.55349 0
M  V30 4345 O 464.795 -2.06329 1.45549 0
M  V30 4346 C 466.108 0.838391 2.88776 0
M  V30 4347 C 467.656 0.809374 3.02354 0
M  V30 4348 C 468.131 1.41268 4.35669 0
M  V30 4349 N 469.622 1.37574 4.42298 0
M  V30 4350 C 470.357 1.8122 5.4401 0
M  V30 4351 N 469.853 2.3271 6.52547 0
M  V30 4352 N 471.646 1.72307 5.35039 0
M  V30 4353 H 463.797 1.52744 1.4759 0
M  V30 4354 H 466.06 0.636812 0.702264 0
M  V30 4355 H 465.766 1.89065 2.96559 0
M  V30 4356 H 465.64 0.329847 3.75755 0
M  V30 4357 H 468.027 -0.234187 2.94169 0
M  V30 4358 H 468.108 1.35565 2.16924 0
M  V30 4359 H 467.752 2.45529 4.4461 0
M  V30 4360 H 467.682 0.841871 5.19827 0
M  V30 4361 H 470.173 0.999081 3.64454 0
M  V30 4362 H 470.486 2.63944 7.26329 0
M  V30 4363 H 468.831 2.36719 6.53444 0
M  V30 4364 H 472.022 1.3186 4.49144 0
M  V30 4365 H 472.195 2.06641 6.14169 0
M  V30 4366 N 465.601 -1.54893 0.290851 0
M  V30 4367 C 466.531 -2.26103 -0.583084 0
M  V30 4368 C 467.512 -1.25684 -1.14619 0
M  V30 4369 O 468.697 -1.54436 -1.17741 0
M  V30 4370 C 465.827 -2.99409 -1.75987 0
M  V30 4371 C 464.781 -4.0689 -1.32758 0
M  V30 4372 C 464.107 -4.67856 -2.58872 0
M  V30 4373 C 465.407 -5.20215 -0.46624 0
M  V30 4374 H 467.101 -2.99398 0.0108214 0
M  V30 4375 H 464.647 -1.43998 0.00664468 0
M  V30 4376 H 466.6 -3.47943 -2.37727 0
M  V30 4377 H 465.324 -2.23675 -2.37985 0
M  V30 4378 H 463.983 -3.59191 -0.733299 0
M  V30 4379 H 463.631 -3.88772 -3.19163 0
M  V30 4380 H 463.331 -5.40438 -2.30653 0
M  V30 4381 H 464.855 -5.19147 -3.21433 0
M  V30 4382 H 466.269 -5.64704 -0.989047 0
M  V30 4383 H 464.666 -5.99455 -0.27826 0
M  V30 4384 H 465.736 -4.82198 0.511173 0
M  V30 4385 N 467.08 -0.0183926 -1.57589 0
M  V30 4386 C 468.327 0.662562 -1.91354 0
M  V30 4387 C 468.655 1.72747 -0.893788 0
M  V30 4388 O 467.91 1.9545 0.0988509 0
M  V30 4389 C 468.209 1.32676 -3.31861 0
M  V30 4390 C 467.875 0.393267 -4.49182 0
M  V30 4391 C 466.537 0.136302 -4.81007 0
M  V30 4392 C 468.889 -0.248366 -5.20608 0
M  V30 4393 C 466.217 -0.770282 -5.81621 0
M  V30 4394 C 468.569 -1.14294 -6.22189 0
M  V30 4395 C 467.233 -1.4089 -6.52462 0
M  V30 4396 H 466.503 0.242448 -0.700214 0
M  V30 4397 H 469.15 -0.0778629 -1.91342 0
M  V30 4398 H 467.455 2.14168 -3.28084 0
M  V30 4399 H 469.152 1.86001 -3.55253 0
M  V30 4400 H 465.742 0.603723 -4.24327 0
M  V30 4401 H 469.926 -0.062883 -4.9626 0
M  V30 4402 H 465.182 -0.984154 -6.03427 0
M  V30 4403 H 469.356 -1.64637 -6.76659 0
M  V30 4404 H 466.983 -2.11306 -7.30242 0
M  V30 4405 N 468.558 1.5553 0.254621 0
M  V30 4406 C 469.521 1.88872 1.29846 0
M  V30 4407 C 470.521 0.764591 1.41459 0
M  V30 4408 O 471.711 1.03265 1.40293 0
M  V30 4409 C 468.843 2.11032 2.67728 0
M  V30 4410 H 470.036 2.82201 1.01502 0
M  V30 4411 H 467.589 1.48303 0.493556 0
M  V30 4412 H 468.324 1.20146 3.01223 0
M  V30 4413 H 468.109 2.92895 2.60682 0
M  V30 4414 H 469.599 2.38038 3.43115 0
M  V30 4415 N 470.036 -0.519951 1.48776 0
M  V30 4416 C 470.983 -1.62352 1.64044 0
M  V30 4417 C 471.953 -1.58945 0.482251 0
M  V30 4418 O 473.138 -1.77219 0.706971 0
M  V30 4419 C 470.278 -3.00579 1.69547 0
M  V30 4420 C 469.391 -3.14145 2.96541 0
M  V30 4421 C 468.526 -4.42991 2.93142 0
M  V30 4422 C 467.565 -4.50122 4.14797 0
M  V30 4423 N 466.702 -5.7037 4.09418 0
M  V30 4424 H 471.542 -1.48643 2.58281 0
M  V30 4425 H 469.079 -0.723516 1.28077 0
M  V30 4426 H 471.037 -3.80671 1.70719 0
M  V30 4427 H 469.667 -3.13036 0.787918 0
M  V30 4428 H 468.719 -2.27239 3.05068 0
M  V30 4429 H 470.031 -3.15275 3.86527 0
M  V30 4430 H 469.185 -5.31385 2.92772 0
M  V30 4431 H 467.924 -4.44398 2.00902 0
M  V30 4432 H 466.929 -3.60133 4.15433 0
M  V30 4433 H 468.154 -4.50445 5.08208 0
M  V30 4434 H 466.1 -5.72655 3.20004 0
M  V30 4435 H 466.017 -5.73036 4.93119 0
M  V30 4436 H 467.285 -6.61023 4.13121 0
M  V30 4437 N 471.514 -1.37532 -0.769588 0
M  V30 4438 C 472.744 -1.35861 -1.55645 0
M  V30 4439 C 473.152 0.0574398 -1.89113 0
M  V30 4440 O 472.495 1.03021 -1.52093 0
M  V30 4441 C 472.557 -2.13431 -2.89288 0
M  V30 4442 C 472.221 -3.62378 -2.78444 0
M  V30 4443 C 473.218 -4.56215 -2.49326 0
M  V30 4444 C 470.903 -4.05529 -2.96398 0
M  V30 4445 C 472.897 -5.91181 -2.38294 0
M  V30 4446 C 470.584 -5.40579 -2.84987 0
M  V30 4447 C 471.582 -6.33218 -2.55975 0
M  V30 4448 O 471.27 -7.65787 -2.44594 0
M  V30 4449 H 471.002 -0.467001 -0.48876 0
M  V30 4450 H 473.556 -1.81505 -0.961515 0
M  V30 4451 H 471.786 -1.62481 -3.50909 0
M  V30 4452 H 473.475 -2.04368 -3.50697 0
M  V30 4453 H 474.241 -4.24187 -2.35139 0
M  V30 4454 H 470.12 -3.33781 -3.1798 0
M  V30 4455 H 473.664 -6.63457 -2.15571 0
M  V30 4456 H 469.561 -5.72209 -2.98743 0
M  V30 4457 H 470.329 -7.76132 -2.59927 0
M  V30 4458 N 472.992 0.995999 -1.22138 0
M  V30 4459 C 474.24 1.73167 -1.042 0
M  V30 4460 C 474.561 1.90329 0.42423 0
M  V30 4461 O 473.831 1.4607 1.30539 0
M  V30 4462 H 472.411 0.641593 -0.38258 0
M  V30 4463 H 475.073 1.19974 -1.53598 0
M  V30 4464 H 474.169 2.72734 -1.51731 0
M  V30 4465 N 474.47 1.03057 1.19235 0
M  V30 4466 C 475.38 0.622922 2.26179 0
M  V30 4467 C 476.396 -0.346113 1.70523 0
M  V30 4468 O 477.572 -0.203572 2.00369 0
M  V30 4469 C 474.637 -0.0182063 3.46695 0
M  V30 4470 C 473.698 0.998546 4.17526 0
M  V30 4471 C 472.931 0.387917 5.32288 0
M  V30 4472 O 473.154 -0.808668 5.64639 0
M  V30 4473 O 472.088 1.1116 5.91546 0
M  V30 4474 H 475.914 1.51363 2.63292 0
M  V30 4475 H 473.499 0.800856 1.26122 0
M  V30 4476 H 475.381 -0.375606 4.19723 0
M  V30 4477 H 474.056 -0.882895 3.11427 0
M  V30 4478 H 472.963 1.40756 3.4661 0
M  V30 4479 H 474.296 1.83366 4.56769 0
M  V30 4480 N 475.948 -1.35272 0.808662 0
M  V30 4481 C 477.359 -1.81179 0.450688 0
M  V30 4482 C 477.71 -1.67143 -1.02751 0
M  V30 4483 O 476.835 -1.20325 -1.79864 0
M  V30 4484 C 477.43 -3.28943 0.811275 0
M  V30 4485 C 475.989 -3.72985 0.505871 0
M  V30 4486 C 475.136 -2.57229 1.03578 0
M  V30 4487 H 478.087 -1.2322 1.00012 0
M  V30 4488 H 478.108 -3.80342 0.109588 0
M  V30 4489 H 477.62 -3.39127 1.88718 0
M  V30 4490 H 475.721 -3.68349 -0.561209 0
M  V30 4491 H 475.834 -4.67677 1.03995 0
M  V30 4492 H 474.198 -2.50548 0.458005 0
M  V30 4493 H 474.981 -2.7019 2.11784 0
M  V30 4494 N 477.426 -0.562348 -1.47226 0
M  V30 4495 C 478.674 -0.0401371 -2.0206 0
M  V30 4496 C 478.995 1.3165 -1.43852 0
M  V30 4497 O 478.265 1.85976 -0.615599 0
M  V30 4498 H 476.845 -0.0118479 -0.746906 0
M  V30 4499 H 479.507 -0.73352 -1.8057 0
M  V30 4500 H 478.603 0.0441254 -3.12069 0
M  V30 4501 N 478.904 1.54736 -0.299062 0
M  V30 4502 C 479.814 2.27127 0.587413 0
M  V30 4503 C 480.83 1.30575 1.15005 0
M  V30 4504 O 482.006 1.63554 1.17525 0
M  V30 4505 C 479.071 2.99645 1.74395 0
M  V30 4506 C 478.132 4.11731 1.21559 0
M  V30 4507 C 477.365 4.80781 2.317 0
M  V30 4508 O 477.588 4.4918 3.51558 0
M  V30 4509 O 476.522 5.68226 1.98501 0
M  V30 4510 H 480.348 3.037 0.000250109 0
M  V30 4511 H 477.933 1.49256 -0.0655919 0
M  V30 4512 H 479.815 3.45138 2.4178 0
M  V30 4513 H 478.49 2.25969 2.31775 0
M  V30 4514 H 477.397 3.70641 0.507514 0
M  V30 4515 H 478.73 4.87379 0.687233 0
M  V30 4516 N 480.382 0.0267497 1.57577 0
M  V30 4517 C 481.628 -0.653371 1.91987 0
M  V30 4518 C 481.961 -1.71915 0.903263 0
M  V30 4519 O 481.236 -1.94358 -0.0743387 0
M  V30 4520 C 481.519 -1.272 3.36886 0
M  V30 4521 C 481.372 -0.215938 4.49281 0
M  V30 4522 C 482.691 -2.19069 3.81703 0
M  V30 4523 H 479.81 -0.236047 0.698177 0
M  V30 4524 H 482.452 0.0835236 1.89816 0
M  V30 4525 H 480.602 -1.90005 3.38866 0
M  V30 4526 H 482.274 0.41449 4.59434 0
M  V30 4527 H 480.517 0.458855 4.31366 0
M  V30 4528 H 481.188 -0.688347 5.47691 0
M  V30 4529 H 483.664 -1.66253 3.81444 0
M  V30 4530 H 482.54 -2.59307 4.83788 0
M  V30 4531 H 482.801 -3.08087 3.17072 0
M  V30 4532 N 481.861 -1.55662 -0.24637 0
M  V30 4533 C 483.108 -1.77519 -0.974335 0
M  V30 4534 C 483.436 -0.591165 -1.85298 0
M  V30 4535 O 482.691 0.425497 -1.91018 0
M  V30 4536 C 482.99 -3.04885 -1.86494 0
M  V30 4537 C 482.656 -4.36209 -1.14161 0
M  V30 4538 C 481.318 -4.71896 -0.941701 0
M  V30 4539 C 483.67 -5.17391 -0.628957 0
M  V30 4540 C 480.998 -5.86299 -0.216852 0
M  V30 4541 C 483.35 -6.32546 0.0824273 0
M  V30 4542 C 482.014 -6.66853 0.293807 0
M  V30 4543 H 481.284 -0.649588 -0.356535 0
M  V30 4544 H 483.931 -1.89934 -0.244394 0
M  V30 4545 H 482.236 -2.87484 -2.66196 0
M  V30 4546 H 483.933 -3.18994 -2.42989 0
M  V30 4547 H 480.523 -4.08174 -1.30736 0
M  V30 4548 H 484.707 -4.90276 -0.770943 0
M  V30 4549 H 479.963 -6.11385 -0.0426124 0
M  V30 4550 H 484.137 -6.94693 0.487292 0
M  V30 4551 H 481.764 -7.55349 0.857428 0
M  V30 4552 N 483.339 0.512053 -1.4905 0
M  V30 4553 C 484.588 1.26343 -1.57227 0
M  V30 4554 C 484.901 1.93876 -0.259155 0
M  V30 4555 O 486.107 2.70612 -0.219358 0
M  V30 4556 C 484.563 2.29343 -2.77362 0
M  V30 4557 C 484.171 1.67799 -4.15388 0
M  V30 4558 C 485.915 3.05378 -2.94864 0
M  V30 4559 C 483.822 2.68845 -5.2676 0
M  V30 4560 H 482.752 0.475231 -0.585382 0
M  V30 4561 H 485.403 0.53862 -1.75417 0
M  V30 4562 H 483.785 3.04938 -2.52643 0
M  V30 4563 H 484.959 0.982715 -4.50199 0
M  V30 4564 H 483.274 1.04194 -4.03153 0
M  V30 4565 H 485.871 3.80921 -3.75238 0
M  V30 4566 H 486.214 3.62327 -2.05 0
M  V30 4567 H 486.747 2.36898 -3.19569 0
M  V30 4568 H 483.486 2.16692 -6.18647 0
M  V30 4569 H 483.006 3.36647 -4.96416 0
M  V30 4570 H 484.685 3.31487 -5.5563 0
M  V30 4571 N 484.817 1.37938 0.762283 0
M  V30 4572 C 485.765 1.34569 1.89721 0
M  V30 4573 C 486.759 0.232929 1.67791 0
M  V30 4574 O 487.965 0.401485 1.75465 0
M  V30 4575 H 484.34 0.419594 0.624055 0
M  V30 4576 H 486.311 2.30357 1.8968 0
M  V30 4577 C 485.06 1.17898 3.27101 0
M  V30 4578 H 484.383 2.02781 3.44558 0
M  V30 4579 H 485.823 1.19593 4.06784 0
M  V30 4580 C 484.282 -0.114728 3.36705 0
M  V30 4581 O 484.812 -1.0949 3.8649 0
M  V30 4582 N 483.018 -0.16863 2.9011 0
M  V30 4583 H 482.565 0.62967 2.49786 0
M  V30 4584 H 482.523 -1.03383 2.96916 0
M  V30 4585 N 486.295 -0.989507 1.22664 0
M  V30 4586 C 487.242 -2.08024 0.999733 0
M  V30 4587 C 488.212 -1.65909 -0.0797047 0
M  V30 4588 O 489.397 -1.90669 0.0705715 0
M  V30 4589 C 486.537 -3.40067 0.587234 0
M  V30 4590 C 485.65 -3.95505 1.73781 0
M  V30 4591 C 484.785 -5.15722 1.27297 0
M  V30 4592 C 483.824 -5.63305 2.39488 0
M  V30 4593 N 482.961 -6.74758 1.94026 0
M  V30 4594 H 487.801 -2.26768 1.9334 0
M  V30 4595 H 485.338 -1.11171 0.963297 0
M  V30 4596 H 487.296 -4.15899 0.329227 0
M  V30 4597 H 485.926 -3.21314 -0.309426 0
M  V30 4598 H 484.978 -3.16513 2.11006 0
M  V30 4599 H 486.29 -4.26797 2.58158 0
M  V30 4600 H 485.444 -5.98854 0.972546 0
M  V30 4601 H 484.183 -4.86061 0.399445 0
M  V30 4602 H 483.188 -4.78759 2.70315 0
M  V30 4603 H 484.413 -5.94988 3.27362 0
M  V30 4604 H 482.359 -6.46874 1.09041 0
M  V30 4605 H 482.276 -7.05386 2.71968 0
M  V30 4606 H 483.544 -7.61387 1.67062 0
M  V30 4607 N 487.773 -1.03688 -1.18687 0
M  V30 4608 C 489.021 -0.736572 -1.88199 0
M  V30 4609 C 489.342 0.737665 -1.80509 0
M  V30 4610 O 488.612 1.53204 -1.22088 0
M  V30 4611 H 487.192 -0.269466 -0.696704 0
M  V30 4612 H 489.854 -1.31282 -1.44052 0
M  V30 4613 H 488.95 -1.03802 -2.94332 0
M  V30 4614 N 489.251 1.34841 -0.815825 0
M  V30 4615 C 490.198 2.29644 -0.230664 0
M  V30 4616 C 491.168 1.53253 0.640533 0
M  V30 4617 O 492.353 1.81653 0.583672 0
M  V30 4618 C 489.493 3.39715 0.607275 0
M  V30 4619 C 488.606 4.31056 -0.28538 0
M  V30 4620 C 487.741 5.28225 0.561446 0
M  V30 4621 C 486.78 6.11204 -0.331035 0
M  V30 4622 N 485.917 7.00483 0.476302 0
M  V30 4623 H 490.757 2.79095 -1.0445 0
M  V30 4624 H 488.294 1.37351 -0.526595 0
M  V30 4625 H 490.252 4.02208 1.10835 0
M  V30 4626 H 488.882 2.91517 1.38629 0
M  V30 4627 H 487.934 3.69487 -0.904621 0
M  V30 4628 H 489.246 4.89239 -0.97193 0
M  V30 4629 H 488.4 5.96135 1.12728 0
M  V30 4630 H 487.139 4.70562 1.28153 0
M  V30 4631 H 486.144 5.42232 -0.909069 0
M  V30 4632 H 487.369 6.70947 -1.04912 0
M  V30 4633 H 485.315 6.45296 1.18019 0
M  V30 4634 H 485.232 7.55847 -0.152008 0
M  V30 4635 H 486.5 7.7273 1.02512 0
M  V30 4636 N 490.729 0.570148 1.46925 0
M  V30 4637 C 491.977 0.0508523 2.02036 0
M  V30 4638 C 492.298 -1.30885 1.44548 0
M  V30 4639 O 491.568 -1.85647 0.625453 0
M  V30 4640 H 490.148 0.0158088 0.746833 0
M  V30 4641 H 492.81 0.743086 1.80178 0
M  V30 4642 H 491.906 -0.027575 3.12088 0
M  V30 4643 N 492.207 -1.54576 0.307264 0
M  V30 4644 C 493.454 -2.00263 -0.300167 0
M  V30 4645 C 493.782 -1.19561 -1.53413 0
M  V30 4646 O 493.037 -0.261487 -1.93945 0
M  V30 4647 C 493.336 -3.50572 -0.695253 0
M  V30 4648 C 493.002 -4.48771 0.437679 0
M  V30 4649 C 491.664 -4.7534 0.748681 0
M  V30 4650 C 494.016 -5.0721 1.19949 0
M  V30 4651 C 491.344 -5.5761 1.8245 0
M  V30 4652 C 493.696 -5.90651 2.26527 0
M  V30 4653 C 492.36 -6.15528 2.58227 0
M  V30 4654 H 491.63 -0.732814 -0.109839 0
M  V30 4655 H 494.277 -1.86664 0.427661 0
M  V30 4656 H 492.582 -3.61814 -1.50326 0
M  V30 4657 H 494.279 -3.83352 -1.17653 0
M  V30 4658 H 490.869 -4.282 0.185187 0
M  V30 4659 H 495.053 -4.86679 0.972474 0
M  V30 4660 H 490.309 -5.75121 2.07476 0
M  V30 4661 H 494.483 -6.34957 2.86011 0
M  V30 4662 H 492.11 -6.79066 3.4172 0
M  V30 4663 N 493.685 -0.035106 -1.57561 0
M  V30 4664 C 494.933 0.64096 -1.91667 0
M  V30 4665 C 495.254 1.72323 -0.912681 0
M  V30 4666 O 494.524 1.95849 0.0449089 0
M  V30 4667 H 493.104 0.239743 -0.707483 0
M  V30 4668 H 495.766 -0.084321 -1.94718 0
M  V30 4669 H 494.862 1.08987 -2.92452 0
M  V30 4670 N 495.163 1.55791 0.238111 0
M  V30 4671 C 496.41 1.78033 0.964907 0
M  V30 4672 C 496.738 0.600984 1.84982 0
M  V30 4673 O 495.993 -0.41536 1.91241 0
M  V30 4674 C 496.292 3.05869 1.84875 0
M  V30 4675 C 495.958 4.36808 1.11846 0
M  V30 4676 C 494.62 4.72388 0.916662 0
M  V30 4677 C 496.972 5.17717 0.60151 0
M  V30 4678 C 494.3 5.86406 0.185756 0
M  V30 4679 C 496.652 6.32494 -0.115972 0
M  V30 4680 C 495.316 6.66688 -0.329168 0
M  V30 4681 H 494.586 0.651469 0.353085 0
M  V30 4682 H 497.233 1.90061 0.234318 0
M  V30 4683 H 495.538 2.88891 2.64668 0
M  V30 4684 H 497.235 3.20278 2.41294 0
M  V30 4685 H 493.825 4.08862 1.28569 0
M  V30 4686 H 498.009 4.90678 0.744932 0
M  V30 4687 H 493.265 6.11399 0.0101886 0
M  V30 4688 H 497.439 6.94425 -0.524127 0
M  V30 4689 H 495.066 7.54884 -0.897474 0
M  V30 4690 N 496.642 -0.504142 1.49319 0
M  V30 4691 C 497.891 -1.25507 1.57895 0
M  V30 4692 C 498.204 -1.93735 0.269433 0
M  V30 4693 O 499.41 -2.70492 0.233706 0
M  V30 4694 C 497.866 -2.27869 2.78574 0
M  V30 4695 C 497.474 -1.65594 4.16272 0
M  V30 4696 C 499.218 -3.0381 2.96479 0
M  V30 4697 C 497.125 -2.66048 5.28178 0
M  V30 4698 H 496.055 -0.47212 0.587894 0
M  V30 4699 H 498.706 -0.52931 1.757 0
M  V30 4700 H 497.088 -3.03594 2.54257 0
M  V30 4701 H 498.262 -0.958826 4.50714 0
M  V30 4702 H 496.577 -1.02055 4.037 0
M  V30 4703 H 499.174 -3.78925 3.77253 0
M  V30 4704 H 499.517 -3.61235 2.06918 0
M  V30 4705 H 500.05 -2.352 3.20821 0
M  V30 4706 H 496.789 -2.13408 6.19788 0
M  V30 4707 H 496.309 -3.34009 4.98195 0
M  V30 4708 H 497.988 -3.28536 5.57381 0
M  V30 4709 N 498.12 -1.38341 -0.754957 0
M  V30 4710 C 499.067 -1.3546 -1.86867 0
M  V30 4711 C 500.037 -0.217369 -1.64672 0
M  V30 4712 O 501.222 -0.409383 -1.86356 0
M  V30 4713 C 498.362 -1.18413 -3.24149 0
M  V30 4714 C 497.475 -2.41511 -3.58185 0
M  V30 4715 C 496.61 -2.17205 -4.84763 0
M  V30 4716 C 495.649 -3.36081 -5.11582 0
M  V30 4717 N 494.786 -3.11219 -6.29354 0
M  V30 4718 H 499.626 -2.30672 -1.88664 0
M  V30 4719 H 497.163 -1.14607 -0.922154 0
M  V30 4720 H 499.121 -1.06545 -4.03366 0
M  V30 4721 H 497.751 -0.268397 -3.21682 0
M  V30 4722 H 496.803 -2.64056 -2.73822 0
M  V30 4723 H 498.115 -3.30115 -3.73932 0
M  V30 4724 H 497.269 -2.02465 -5.7192 0
M  V30 4725 H 496.008 -1.25964 -4.71152 0
M  V30 4726 H 495.013 -3.51341 -4.22894 0
M  V30 4727 H 496.238 -4.28196 -5.27091 0
M  V30 4728 H 494.184 -2.22624 -6.17069 0
M  V30 4729 H 494.101 -3.93373 -6.45596 0
M  V30 4730 H 495.369 -3.00132 -7.19403 0
M  V30 4731 N 499.598 0.982988 -1.23187 0
M  V30 4732 C 500.528 2.09301 -1.03515 0
M  V30 4733 C 501.509 1.70035 0.0471136 0
M  V30 4734 O 502.694 1.93847 -0.117029 0
M  V30 4735 C 499.824 3.4167 -0.622791 0
M  V30 4736 C 498.778 3.94828 -1.65211 0
M  V30 4737 C 498.104 5.23362 -1.09527 0
M  V30 4738 C 499.404 4.2439 -3.04451 0
M  V30 4739 H 501.098 2.26016 -1.96359 0
M  V30 4740 H 498.644 1.08611 -0.945501 0
M  V30 4741 H 500.597 4.18746 -0.472233 0
M  V30 4742 H 499.321 3.24811 0.341329 0
M  V30 4743 H 497.98 3.19895 -1.79061 0
M  V30 4744 H 497.628 5.02852 -0.122211 0
M  V30 4745 H 497.328 5.59895 -1.783 0
M  V30 4746 H 498.852 6.03062 -0.956511 0
M  V30 4747 H 500.266 4.92225 -2.93917 0
M  V30 4748 H 498.663 4.72118 -3.70438 0
M  V30 4749 H 499.733 3.31765 -3.53638 0
M  V30 4750 N 501.076 1.04316 1.18135 0
M  V30 4751 C 501.986 0.646876 2.25505 0
M  V30 4752 C 503.002 -0.328008 1.7088 0
M  V30 4753 O 504.178 -0.182309 2.00573 0
M  V30 4754 C 501.243 0.0185664 3.46695 0
M  V30 4755 C 500.304 1.04277 4.16443 0
M  V30 4756 C 499.537 0.444352 5.31847 0
M  V30 4757 O 499.76 -0.748735 5.65465 0
M  V30 4758 O 498.694 1.17428 5.90334 0
M  V30 4759 H 502.52 1.54147 2.61672 0
M  V30 4760 H 500.105 0.814188 1.25265 0
M  V30 4761 H 501.987 -0.331068 4.20097 0
M  V30 4762 H 500.662 -0.849814 3.12346 0
M  V30 4763 H 499.569 1.44425 3.45098 0
M  V30 4764 H 500.902 1.882 4.54798 0
M  V30 4765 N 502.554 -1.34406 0.822964 0
M  V30 4766 C 503.779 -2.0304 0.423034 0
M  V30 4767 C 504.204 -1.61568 -0.963196 0
M  V30 4768 O 503.562 -0.800339 -1.62678 0
M  V30 4769 C 503.61 -3.56636 0.53321 0
M  V30 4770 O 502.714 -4.09971 -0.446939 0
M  V30 4771 H 502.055 -0.64075 0.174171 0
M  V30 4772 H 504.585 -1.71653 1.11339 0
M  V30 4773 H 504.595 -4.05945 0.408991 0
M  V30 4774 H 503.27 -3.86168 1.54425 0
M  V30 4775 H 501.847 -3.71835 -0.281601 0
M  V30 4776 N 504.032 -0.577932 -1.46621 0
M  V30 4777 C 505.448 -0.239242 -1.57797 0
M  V30 4778 C 505.648 1.25843 -1.57371 0
M  V30 4779 O 504.704 2.03988 -1.48813 0
M  V30 4780 C 506.017 -0.884227 -2.87405 0
M  V30 4781 C 507.565 -0.857373 -3.01028 0
M  V30 4782 C 508.04 -1.48181 -4.33366 0
M  V30 4783 N 509.531 -1.44593 -4.40053 0
M  V30 4784 C 510.266 -1.89852 -5.41058 0
M  V30 4785 N 509.762 -2.43062 -6.48762 0
M  V30 4786 N 511.555 -1.80797 -5.3223 0
M  V30 4787 H 503.706 -1.55073 -1.45142 0
M  V30 4788 H 505.969 -0.647903 -0.692044 0
M  V30 4789 H 505.675 -1.93759 -2.93514 0
M  V30 4790 H 505.549 -0.389585 -3.75183 0
M  V30 4791 H 507.936 0.187357 -2.94505 0
M  V30 4792 H 508.017 -1.38999 -2.14739 0
M  V30 4793 H 507.661 -2.52572 -4.40647 0
M  V30 4794 H 507.591 -0.924464 -5.18422 0
M  V30 4795 H 510.082 -1.05694 -3.62819 0
M  V30 4796 H 510.395 -2.75466 -7.22038 0
M  V30 4797 H 508.74 -2.47085 -6.49595 0
M  V30 4798 H 511.931 -1.38989 -4.46989 0
M  V30 4799 H 512.104 -2.16385 -6.10804 0
M  V30 4800 N 505.51 1.54411 -0.315457 0
M  V30 4801 C 506.473 2.22713 0.54142 0
M  V30 4802 C 507.473 1.2179 1.04995 0
M  V30 4803 O 508.663 1.46426 0.943667 0
M  V30 4804 C 505.795 2.92485 1.75116 0
M  V30 4805 H 506.988 2.99849 -0.0555508 0
M  V30 4806 H 504.541 1.56159 -0.0664453 0
M  V30 4807 H 505.276 2.19466 2.38758 0
M  V30 4808 H 505.061 3.66483 1.39401 0
M  V30 4809 H 506.551 3.44548 2.35959 0
M  V30 4810 N 506.988 0.0434614 1.5754 0
M  V30 4811 C 507.918 -0.931651 2.14109 0
M  V30 4812 C 508.899 -1.32971 1.06079 0
M  V30 4813 O 510.084 -1.40579 1.33982 0
M  V30 4814 C 507.214 -2.20914 2.67982 0
M  V30 4815 C 506.168 -1.95139 3.80926 0
M  V30 4816 C 505.494 -3.29276 4.21285 0
M  V30 4817 C 506.794 -1.27913 5.06395 0
M  V30 4818 H 508.488 -0.460497 2.95837 0
M  V30 4819 H 506.034 -0.220058 1.42309 0
M  V30 4820 H 507.987 -2.89522 3.06194 0
M  V30 4821 H 506.711 -2.70221 1.83434 0
M  V30 4822 H 505.37 -1.28945 3.43175 0
M  V30 4823 H 505.018 -3.76369 3.33699 0
M  V30 4824 H 504.718 -3.12831 4.97404 0
M  V30 4825 H 506.242 -3.99129 4.62091 0
M  V30 4826 H 507.656 -1.86544 5.42102 0
M  V30 4827 H 506.053 -1.2182 5.87605 0
M  V30 4828 H 507.123 -0.254066 4.84234 0
M  V30 4829 N 508.466 -1.55915 -0.229846 0
M  V30 4830 C 509.429 -1.90914 -1.26824 0
M  V30 4831 C 510.429 -0.786999 -1.40225 0
M  V30 4832 O 511.619 -1.05484 -1.38632 0
M  V30 4833 C 508.751 -2.15264 -2.64337 0
M  V30 4834 H 509.944 -2.8378 -0.969998 0
M  V30 4835 H 507.497 -1.49069 -0.4699 0
M  V30 4836 H 508.232 -1.24923 -2.99274 0
M  V30 4837 H 508.017 -2.97005 -2.55989 0
M  V30 4838 H 509.507 -2.43467 -3.39284 0
M  V30 4839 N 509.944 0.496216 -1.49584 0
M  V30 4840 C 510.854 1.62352 -1.69349 0
M  V30 4841 C 511.87 1.64184 -0.576147 0
M  V30 4842 O 513.046 1.82517 -0.85144 0
M  V30 4843 C 510.111 2.98698 -1.76013 0
M  V30 4844 C 509.172 3.07454 -2.99617 0
M  V30 4845 C 508.405 4.37296 -3.05953 0
M  V30 4846 O 508.628 5.2637 -2.19752 0
M  V30 4847 O 507.562 4.51124 -3.9846 0
M  V30 4848 H 511.388 1.48606 -2.64859 0
M  V30 4849 H 508.973 0.673022 -1.33382 0
M  V30 4850 H 510.855 3.79725 -1.82721 0
M  V30 4851 H 509.53 3.12696 -0.836828 0
M  V30 4852 H 508.437 2.25597 -2.98424 0
M  V30 4853 H 509.77 2.98385 -3.91443 0
M  V30 4854 N 511.423 1.38739 0.74761 0
M  V30 4855 C 512.672 1.3459 1.50228 0
M  V30 4856 C 512.985 -0.0595592 1.95509 0
M  V30 4857 O 514.191 -0.22361 2.70578 0
M  V30 4858 C 512.647 2.36377 2.71393 0
M  V30 4859 C 512.255 3.82573 2.33113 0
M  V30 4860 C 513.999 2.41281 3.49262 0
M  V30 4861 C 511.906 4.76032 3.50924 0
M  V30 4862 H 510.836 0.500312 0.564096 0
M  V30 4863 H 513.487 1.64324 0.8167 0
M  V30 4864 H 511.869 1.99694 3.41962 0
M  V30 4865 H 513.043 4.28227 1.70171 0
M  V30 4866 H 511.358 3.80844 1.68365 0
M  V30 4867 H 513.955 3.08301 4.36869 0
M  V30 4868 H 514.298 1.43353 3.9084 0
M  V30 4869 H 514.831 2.76793 2.85711 0
M  V30 4870 H 511.57 5.75177 3.14408 0
M  V30 4871 H 511.09 4.35066 4.12889 0
M  V30 4872 H 512.769 4.94331 4.17427 0
M  V30 4873 N 512.901 -0.976442 1.23707 0
M  V30 4874 C 513.864 -2.0511 1.02287 0
M  V30 4875 C 514.864 -1.60791 -0.0167195 0
M  V30 4876 O 516.054 -1.72761 0.223408 0
M  V30 4877 C 513.186 -3.36458 0.548507 0
M  V30 4878 H 514.379 -2.25545 1.9766 0
M  V30 4879 H 511.932 -1.15042 1.05806 0
M  V30 4880 H 512.667 -3.21713 -0.408818 0
M  V30 4881 H 512.452 -3.69967 1.29874 0
M  V30 4882 H 513.942 -4.15489 0.419406 0
M  V30 4883 N 514.379 -1.04941 -1.1758 0
M  V30 4884 C 515.326 -0.648155 -2.21512 0
M  V30 4885 C 516.296 0.348431 -1.62404 0
M  V30 4886 O 517.481 0.240419 -1.89279 0
M  V30 4887 C 514.621 -0.0264291 -3.4509 0
M  V30 4888 C 513.734 -1.07154 -4.185 0
M  V30 4889 C 512.869 -0.417403 -5.29558 0
M  V30 4890 C 511.908 -1.447 -5.94751 0
M  V30 4891 N 511.045 -0.817203 -6.97328 0
M  V30 4892 H 515.885 -1.53891 -2.55189 0
M  V30 4893 H 513.422 -0.769699 -1.25356 0
M  V30 4894 H 515.38 0.351456 -4.15717 0
M  V30 4895 H 514.01 0.827802 -3.12005 0
M  V30 4896 H 513.062 -1.56728 -3.46613 0
M  V30 4897 H 514.374 -1.8532 -4.63096 0
M  V30 4898 H 513.528 0.0142061 -6.06698 0
M  V30 4899 H 512.267 0.396265 -4.86087 0
M  V30 4900 H 511.272 -1.88865 -5.16343 0
M  V30 4901 H 512.497 -2.26252 -6.40302 0
M  V30 4902 H 510.443 -0.0239995 -6.55996 0
M  V30 4903 H 510.36 -1.53644 -7.40223 0
M  V30 4904 H 511.628 -0.410283 -7.7842 0
M  V30 4905 N 515.857 1.33968 -0.830081 0
M  V30 4906 C 516.82 2.27694 -0.26235 0
M  V30 4907 C 517.82 1.50589 0.563876 0
M  V30 4908 O 519.01 1.70028 0.378941 0
M  V30 4909 C 516.142 3.35002 0.63138 0
M  V30 4910 H 517.335 2.79419 -1.08928 0
M  V30 4911 H 514.888 1.44221 -0.602486 0
M  V30 4912 H 515.623 2.88504 1.48109 0
M  V30 4913 H 515.408 3.92079 0.0403276 0
M  V30 4914 H 516.898 4.04897 1.02217 0
M  V30 4915 N 517.335 0.585699 1.46312 0
M  V30 4916 C 518.245 -0.148236 2.34131 0
M  V30 4917 C 519.261 -0.882972 1.49932 0
M  V30 4918 O 520.437 -0.845484 1.82794 0
M  V30 4919 C 517.502 -1.14714 3.27172 0
M  V30 4920 C 516.563 -0.416746 4.27272 0
M  V30 4921 C 515.796 -1.36806 5.15868 0
M  V30 4922 O 516.019 -2.60475 5.07454 0
M  V30 4923 O 514.953 -0.877018 5.95476 0
M  V30 4924 H 518.779 0.572882 2.98248 0
M  V30 4925 H 516.364 0.346082 1.45336 0
M  V30 4926 H 518.246 -1.72303 3.84564 0
M  V30 4927 H 516.921 -1.84967 2.65648 0
M  V30 4928 H 515.828 0.201061 3.73559 0
M  V30 4929 H 517.161 0.244872 4.9159 0
M  V30 4930 N 518.813 -1.54241 0.323641 0
M  V30 4931 C 519.743 -2.27289 -0.534993 0
M  V30 4932 C 520.724 -1.28087 -1.11927 0
M  V30 4933 O 521.909 -1.56899 -1.14439 0
M  V30 4934 C 519.039 -3.03075 -1.69596 0
M  V30 4935 C 517.993 -4.09614 -1.24098 0
M  V30 4936 C 517.319 -4.73242 -2.4889 0
M  V30 4937 C 518.619 -5.21087 -0.355789 0
M  V30 4938 H 520.313 -2.99308 0.0743257 0
M  V30 4939 H 517.859 -1.43952 0.0371874 0
M  V30 4940 H 519.812 -3.52907 -2.30293 0
M  V30 4941 H 518.536 -2.28673 -2.33187 0
M  V30 4942 H 517.195 -3.60666 -0.656945 0
M  V30 4943 H 516.843 -3.95455 -3.10845 0
M  V30 4944 H 516.543 -5.45209 -2.19138 0
M  V30 4945 H 518.067 -5.25848 -3.10348 0
M  V30 4946 H 519.481 -5.66675 -0.869042 0
M  V30 4947 H 517.878 -5.9991 -0.151045 0
M  V30 4948 H 518.948 -4.81005 0.613339 0
M  V30 4949 N 520.291 -0.0518155 -1.57515 0
M  V30 4950 C 521.568 0.661727 -1.84067 0
M  V30 4951 C 521.948 1.88999 -0.940351 0
M  V30 4952 O 521.296 2.285 -0.00155404 0
M  V30 4953 C 521.506 1.01841 -3.3381 0
M  V30 4954 C 522.854 1.40043 -4.00841 0
M  V30 4955 O 523.878 1.11073 -3.38439 0
M  V30 4956 O 522.737 1.94111 -5.10865 0
M  V30 4957 H 519.831 0.326702 -0.759733 0
M  V30 4958 H 522.377 -0.0812277 -1.69505 0
M  V30 4959 H 521.149 0.145202 -3.91031 0
M  V30 4960 H 520.772 1.81879 -3.53562 0
M  V30 4961 N 521.769 1.56035 0.221574 0
M  V30 4962 C 523.046 1.69837 0.970301 0
M  V30 4963 C 523.426 0.599065 2.02421 0
M  V30 4964 O 522.774 -0.393929 2.25079 0
M  V30 4965 C 522.984 3.11148 1.58076 0
M  V30 4966 C 524.332 3.70555 2.07302 0
M  V30 4967 O 525.356 3.14109 1.6797 0
M  V30 4968 O 524.215 4.69562 2.79596 0
M  V30 4969 H 521.309 0.691727 0.453257 0
M  V30 4970 H 523.855 1.68353 0.213358 0
M  V30 4971 H 522.627 3.82617 0.819759 0
M  V30 4972 H 522.25 3.16749 2.40324 0
M  V30 4973 N 523.247 -0.488276 1.49845 0
M  V30 4974 C 524.475 -1.26527 1.63702 0
M  V30 4975 C 524.89 -1.8618 0.313447 0
M  V30 4976 O 524.247 -1.68432 -0.702624 0
M  V30 4977 C 524.298 -2.3864 2.71538 0
M  V30 4978 O 524.019 -1.81437 3.98763 0
M  V30 4979 C 525.52 -3.29805 2.96215 0
M  V30 4980 H 522.74 -0.383295 0.55075 0
M  V30 4981 H 525.284 -0.584779 1.95961 0
M  V30 4982 H 523.439 -3.02496 2.42023 0
M  V30 4983 H 523.853 -2.55135 4.58265 0
M  V30 4984 H 525.327 -4.04722 3.75372 0
M  V30 4985 H 525.804 -3.87563 2.06619 0
M  V30 4986 H 526.41 -2.71703 3.27196 0
M  V30 4987 N 524.725 -1.39134 -0.740242 0
M  V30 4988 C 526.136 -1.32208 -1.31825 0
M  V30 4989 C 526.487 0.0159919 -1.96193 0
M  V30 4990 O 525.612 0.918111 -1.95958 0
M  V30 4991 C 526.207 -2.39436 -2.39699 0
M  V30 4992 C 524.766 -2.36048 -2.93187 0
M  V30 4993 C 523.913 -2.21599 -1.66701 0
M  V30 4994 H 526.864 -1.49298 -0.538133 0
M  V30 4995 H 526.885 -2.05922 -3.19963 0
M  V30 4996 H 526.397 -3.36811 -1.92821 0
M  V30 4997 H 524.498 -1.42295 -3.44359 0
M  V30 4998 H 524.611 -3.30704 -3.46658 0
M  V30 4999 H 522.975 -1.68681 -1.90837 0
M  V30 5000 H 523.758 -3.20936 -1.21882 0
M  V30 5001 N 526.204 0.969867 -1.24223 0
M  V30 5002 C 527.137 2.06279 -0.975926 0
M  V30 5003 C 528.115 1.62353 0.0895385 0
M  V30 5004 O 529.299 1.88442 -0.0469418 0
M  V30 5005 C 526.426 3.35391 -0.472315 0
M  V30 5006 C 525.472 3.98266 -1.526 0
M  V30 5007 S 526.305 4.36172 -3.10667 0
M  V30 5008 C 527.461 5.68423 -2.62003 0
M  V30 5009 H 527.694 2.28551 -1.90137 0
M  V30 5010 H 525.227 1.10748 -1.07584 0
M  V30 5011 H 527.185 4.10068 -0.188376 0
M  V30 5012 H 525.846 3.1111 0.432378 0
M  V30 5013 H 525.039 4.91307 -1.12399 0
M  V30 5014 H 524.641 3.30009 -1.75983 0
M  V30 5015 H 526.933 6.45842 -2.0468 0
M  V30 5016 H 527.876 6.13478 -3.53625 0
M  V30 5017 H 528.284 5.26928 -2.02502 0
M  V30 5018 N 527.682 1.05563 1.17022 0
M  V30 5019 C 529.098 0.777684 1.39371 0
M  V30 5020 C 529.298 -0.626269 1.91521 0
M  V30 5021 O 528.354 -1.38806 2.10924 0
M  V30 5022 C 529.667 1.83642 2.3811 0
M  V30 5023 C 531.215 1.85907 2.51809 0
M  V30 5024 C 531.69 2.90813 3.53824 0
M  V30 5025 N 533.181 2.898 3.61345 0
M  V30 5026 C 533.916 3.6762 4.40049 0
M  V30 5027 N 533.412 4.55237 5.22237 0
M  V30 5028 N 535.205 3.56044 4.34959 0
M  V30 5029 H 527.356 1.9614 0.815047 0
M  V30 5030 H 529.619 0.849527 0.420722 0
M  V30 5031 H 529.325 2.84425 2.06871 0
M  V30 5032 H 529.199 1.6812 3.37662 0
M  V30 5033 H 531.586 0.857865 2.82356 0
M  V30 5034 H 531.667 2.05506 1.52318 0
M  V30 5035 H 531.311 3.91122 3.24015 0
M  V30 5036 H 531.241 2.68465 4.53028 0
M  V30 5037 H 533.732 2.26274 3.02669 0
M  V30 5038 H 534.045 5.11291 5.79484 0
M  V30 5039 H 532.39 4.59296 5.21605 0
M  V30 5040 H 535.581 2.86986 3.69806 0
M  V30 5041 H 535.754 4.16938 4.96051 0
M  V30 5042 N 529.16 -1.33526 0.837174 0
M  V30 5043 C 530.408 -1.97446 0.431211 0
M  V30 5044 C 530.729 -1.6665 -1.01255 0
M  V30 5045 O 529.999 -0.964559 -1.70508 0
M  V30 5046 H 528.579 -0.73043 0.156463 0
M  V30 5047 H 531.241 -1.62918 1.06976 0
M  V30 5048 H 530.337 -3.07001 0.561877 0
M  V30 5049 N 530.638 -0.59345 -1.46 0
M  V30 5050 C 532.054 -0.255965 -1.57534 0
M  V30 5051 C 532.254 1.24167 -1.58697 0
M  V30 5052 O 531.31 2.02398 -1.50968 0
M  V30 5053 C 532.623 -0.91466 -2.86451 0
M  V30 5054 C 534.171 -0.889253 -3.00102 0
M  V30 5055 C 534.646 -1.52769 -4.3177 0
M  V30 5056 N 536.137 -1.49253 -4.38495 0
M  V30 5057 C 536.872 -1.9558 -5.39014 0
M  V30 5058 N 536.368 -2.49929 -6.46148 0
M  V30 5059 N 538.161 -1.86432 -5.30282 0
M  V30 5060 H 530.312 -1.56604 -1.43489 0
M  V30 5061 H 532.575 -0.655207 -0.685133 0
M  V30 5062 H 532.281 -1.96861 -2.91442 0
M  V30 5063 H 532.155 -0.429356 -3.74748 0
M  V30 5064 H 534.542 0.156111 -2.94687 0
M  V30 5065 H 534.623 -1.41268 -2.13253 0
M  V30 5066 H 534.267 -2.57231 -4.37944 0
M  V30 5067 H 534.197 -0.979398 -5.17412 0
M  V30 5068 H 536.688 -1.09536 -3.61677 0
M  V30 5069 H 537.001 -2.83109 -7.19075 0
M  V30 5070 H 535.346 -2.53961 -6.46938 0
M  V30 5071 H 538.537 -1.43722 -4.4549 0
M  V30 5072 H 538.71 -2.22852 -6.08474 0
M  V30 5073 N 532.116 1.54067 -0.331816 0
M  V30 5074 C 533.048 2.22139 0.564538 0
M  V30 5075 C 534.061 1.22408 1.07332 0
M  V30 5076 O 535.25 1.4883 0.985481 0
M  V30 5077 C 532.35 2.87876 1.78831 0
M  V30 5078 C 531.523 4.13817 1.41682 0
M  V30 5079 C 530.582 4.63072 2.49901 0
M  V30 5080 O 529.608 5.27562 2.13699 0
M  V30 5081 N 530.81 4.38001 3.80967 0
M  V30 5082 H 533.575 2.99694 -0.0183736 0
M  V30 5083 H 531.136 1.61153 -0.155396 0
M  V30 5084 H 533.128 3.17747 2.50637 0
M  V30 5085 H 531.698 2.13977 2.27887 0
M  V30 5086 H 530.918 3.9062 0.530044 0
M  V30 5087 H 532.206 4.95762 1.14443 0
M  V30 5088 H 531.604 3.864 4.13173 0
M  V30 5089 H 530.161 4.72507 4.48977 0
M  V30 5090 N 533.594 0.0601682 1.57485 0
M  V30 5091 C 534.524 -0.90889 2.15085 0
M  V30 5092 C 535.505 -1.31838 1.07484 0
M  V30 5093 O 536.69 -1.3915 1.35466 0
M  V30 5094 C 533.82 -2.18059 2.7031 0
M  V30 5095 C 532.774 -1.91088 3.82974 0
M  V30 5096 C 532.1 -3.24789 4.24754 0
M  V30 5097 C 533.4 -1.22535 5.07723 0
M  V30 5098 H 535.094 -0.429093 2.96309 0
M  V30 5099 H 532.64 -0.204952 1.42534 0
M  V30 5100 H 534.593 -2.86258 3.09248 0
M  V30 5101 H 533.317 -2.6826 1.8629 0
M  V30 5102 H 531.976 -1.25297 3.44523 0
M  V30 5103 H 531.624 -3.72809 3.37672 0
M  V30 5104 H 531.324 -3.07538 5.00694 0
M  V30 5105 H 532.848 -3.94205 4.66299 0
M  V30 5106 H 534.262 -1.80783 5.4405 0
M  V30 5107 H 532.659 -1.1558 5.88864 0
M  V30 5108 H 533.729 -0.202692 4.84476 0
M  V30 5109 N 535.072 -1.5615 -0.213296 0
M  V30 5110 C 536.488 -1.49327 -0.56336 0
M  V30 5111 C 536.688 -0.756826 -1.86747 0
M  V30 5112 O 535.744 -0.299866 -2.50713 0
M  V30 5113 C 537.057 -2.9392 -0.634944 0
M  V30 5114 C 538.605 -3.04487 -0.725013 0
M  V30 5115 C 539.08 -4.50456 -0.82787 0
M  V30 5116 N 540.571 -4.54533 -0.891876 0
M  V30 5117 C 541.306 -5.64766 -0.991315 0
M  V30 5118 N 540.802 -6.84733 -1.05419 0
M  V30 5119 N 542.595 -5.52637 -1.02709 0
M  V30 5120 H 534.746 -2.02453 0.642366 0
M  V30 5121 H 537.009 -0.920548 0.226487 0
M  V30 5122 H 536.715 -3.50783 0.253859 0
M  V30 5123 H 536.589 -3.46274 -1.49579 0
M  V30 5124 H 538.976 -2.47685 -1.60425 0
M  V30 5125 H 539.057 -2.55289 0.161669 0
M  V30 5126 H 538.701 -5.07878 0.0469464 0
M  V30 5127 H 538.631 -4.97369 -1.73009 0
M  V30 5128 H 541.122 -3.68141 -0.85327 0
M  V30 5129 H 541.435 -7.64493 -1.13007 0
M  V30 5130 H 539.78 -6.87427 -1.02318 0
M  V30 5131 H 542.971 -4.5784 -0.974687 0
M  V30 5132 H 543.144 -6.38576 -1.10113 0
M  V30 5133 N 536.55 0.480323 -1.50102 0
M  V30 5134 C 537.796 1.23489 -1.60867 0
M  V30 5135 C 538.129 1.91809 -0.303827 0
M  V30 5136 O 537.404 1.81694 0.694092 0
M  V30 5137 C 537.687 2.28578 -2.78252 0
M  V30 5138 C 537.54 1.64624 -4.18592 0
M  V30 5139 C 538.859 3.2997 -2.91218 0
M  V30 5140 H 535.978 0.447605 -0.585507 0
M  V30 5141 H 538.62 0.530005 -1.82458 0
M  V30 5142 H 536.77 2.88697 -2.59974 0
M  V30 5143 H 538.442 1.08173 -4.48438 0
M  V30 5144 H 536.685 0.949645 -4.23278 0
M  V30 5145 H 537.356 2.40946 -4.96638 0
M  V30 5146 H 539.832 2.79864 -3.07921 0
M  V30 5147 H 538.708 4.00839 -3.74993 0
M  V30 5148 H 538.969 3.93541 -2.0144 0
M  V30 5149 N 538.028 1.39524 0.732853 0
M  V30 5150 C 539.444 1.21176 1.03868 0
M  V30 5151 C 539.644 0.0748448 2.01361 0
M  V30 5152 O 538.7 -0.57281 2.45917 0
M  V30 5153 C 540.013 2.54667 1.59892 0
M  V30 5154 C 541.561 2.6153 1.71962 0
M  V30 5155 C 542.036 3.95248 2.31394 0
M  V30 5156 N 543.527 3.96899 2.38801 0
M  V30 5157 C 544.262 4.97138 2.85729 0
M  V30 5158 N 543.758 6.07775 3.32537 0
M  V30 5159 N 545.551 4.84516 2.84957 0
M  V30 5160 H 537.702 2.12225 0.086304 0
M  V30 5161 H 539.965 0.942614 0.100907 0
M  V30 5162 H 539.671 3.38423 0.95721 0
M  V30 5163 H 539.545 2.74538 2.58668 0
M  V30 5164 H 541.932 1.78156 2.35254 0
M  V30 5165 H 542.013 2.45507 0.718327 0
M  V30 5166 H 541.657 4.79054 1.68729 0
M  V30 5167 H 541.587 4.08593 3.32204 0
M  V30 5168 H 544.078 3.16998 2.05719 0
M  V30 5169 H 544.391 6.8017 3.66862 0
M  V30 5170 H 542.736 6.11366 3.30541 0
M  V30 5171 H 545.927 3.97185 2.47713 0
M  V30 5172 H 546.1 5.62783 3.21215 0
M  V30 5173 N 539.506 -0.963266 1.24736 0
M  V30 5174 C 540.753 -1.7068 1.0897 0
M  V30 5175 C 541.081 -1.90934 -0.370751 0
M  V30 5176 O 540.336 -1.47155 -1.29011 0
M  V30 5177 C 540.635 -3.09944 1.7796 0
M  V30 5178 C 540.301 -3.09518 3.27887 0
M  V30 5179 C 538.963 -3.09109 3.68789 0
M  V30 5180 C 541.315 -3.03509 4.23712 0
M  V30 5181 C 538.643 -3.00429 5.03944 0
M  V30 5182 C 540.995 -2.96371 5.5888 0
M  V30 5183 C 539.659 -2.94293 5.99123 0
M  V30 5184 H 538.929 -0.624564 0.398749 0
M  V30 5185 H 541.576 -1.12603 1.54896 0
M  V30 5186 H 539.881 -3.71513 1.2444 0
M  V30 5187 H 541.578 -3.66278 1.63222 0
M  V30 5188 H 538.168 -3.10603 2.95337 0
M  V30 5189 H 542.352 -3.0295 3.93109 0
M  V30 5190 H 537.608 -2.97183 5.34314 0
M  V30 5191 H 541.782 -2.90681 6.32833 0
M  V30 5192 H 539.409 -2.87322 7.03811 0
M  V30 5193 N 540.985 -1.06182 -1.16461 0
M  V30 5194 C 541.948 -0.675723 -2.19013 0
M  V30 5195 C 542.948 0.277963 -1.58379 0
M  V30 5196 O 544.138 0.0604962 -1.74095 0
M  V30 5197 C 541.27 0.00591459 -3.40899 0
M  V30 5198 H 542.463 -1.58353 -2.54685 0
M  V30 5199 H 540.016 -0.856908 -1.30716 0
M  V30 5200 H 540.751 0.92652 -3.10783 0
M  V30 5201 H 540.536 -0.67984 -3.86161 0
M  V30 5202 H 542.026 0.26181 -4.16778 0
M  V30 5203 N 542.463 1.3308 -0.844243 0
M  V30 5204 C 543.691 2.01808 -0.456203 0
M  V30 5205 C 544.106 1.63498 0.944131 0
M  V30 5206 O 543.463 0.85102 1.61443 0
M  V30 5207 C 543.514 3.56922 -0.573513 0
M  V30 5208 O 543.235 3.93851 -1.91868 0
M  V30 5209 C 544.736 4.42922 -0.183125 0
M  V30 5210 H 541.956 0.646273 -0.180477 0
M  V30 5211 H 544.5 1.69891 -1.1383 0
M  V30 5212 H 542.655 3.87352 0.0607367 0
M  V30 5213 H 543.069 4.88564 -1.90802 0
M  V30 5214 H 544.543 5.51093 -0.316241 0
M  V30 5215 H 545.02 4.30386 0.875477 0
M  V30 5216 H 545.626 4.1786 -0.792027 0
M  V30 5217 N 543.941 0.601185 1.45683 0
M  V30 5218 C 544.891 -0.142686 2.27553 0
M  V30 5219 C 545.875 -0.844598 1.3695 0
M  V30 5220 O 547.067 -0.735644 1.60988 0
M  V30 5221 C 544.196 -1.14364 3.23691 0
M  V30 5222 C 543.282 -0.442894 4.21781 0
M  V30 5223 N 543.673 0.51189 5.03203 0
M  V30 5224 C 541.971 -0.691277 4.4061 0
M  V30 5225 C 542.672 0.92318 5.74328 0
M  V30 5226 N 541.648 0.268308 5.42937 0
M  V30 5227 H 545.45 0.590736 2.87902 0
M  V30 5228 H 542.964 0.424365 1.56757 0
M  V30 5229 H 544.961 -1.6909 3.8107 0
M  V30 5230 H 543.621 -1.87768 2.64902 0
M  V30 5231 H 544.632 0.888329 5.10225 0
M  V30 5232 H 541.309 -1.41049 3.92952 0
M  V30 5233 H 542.699 1.71029 6.49768 0
M  V30 5234 N 545.419 -1.53889 0.339982 0
M  V30 5235 C 546.382 -2.23547 -0.50592 0
M  V30 5236 C 547.382 -1.23445 -1.03044 0
M  V30 5237 O 548.572 -1.47909 -0.920253 0
M  V30 5238 C 545.704 -2.95234 -1.7044 0
M  V30 5239 H 546.897 -2.99722 0.103247 0
M  V30 5240 H 544.45 -1.56033 0.0912804 0
M  V30 5241 H 545.185 -2.23236 -2.35236 0
M  V30 5242 H 544.97 -3.68654 -1.33553 0
M  V30 5243 H 546.46 -3.48258 -2.30447 0
M  V30 5244 N 546.897 -0.0685191 -1.57451 0
M  V30 5245 C 547.86 0.885173 -2.11417 0
M  V30 5246 C 548.86 1.22853 -1.03748 0
M  V30 5247 O 550.05 1.16235 -1.2975 0
M  V30 5248 C 547.182 2.18964 -2.61281 0
M  V30 5249 H 548.375 0.417034 -2.96986 0
M  V30 5250 H 545.928 0.18014 -1.55258 0
M  V30 5251 H 546.663 2.70321 -1.79156 0
M  V30 5252 H 546.448 1.9534 -3.39977 0
M  V30 5253 H 547.938 2.87242 -3.0312 0
M  V30 5254 N 548.375 1.56261 0.205012 0
M  V30 5255 C 549.338 1.92908 1.23771 0
M  V30 5256 C 550.338 0.809208 1.38955 0
M  V30 5257 O 551.528 1.07676 1.36936 0
M  V30 5258 C 548.66 2.19442 2.60879 0
M  V30 5259 H 549.853 2.85287 0.924728 0
M  V30 5260 H 547.406 1.49798 0.446125 0
M  V30 5261 H 548.141 1.29668 2.97248 0
M  V30 5262 H 547.926 3.0104 2.51232 0
M  V30 5263 H 549.416 2.48833 3.35368 0
M  V30 5264 N 549.853 -0.472356 1.50355 0
M  V30 5265 C 550.783 -1.57859 1.72055 0
M  V30 5266 C 551.764 -1.60283 0.569505 0
M  V30 5267 O 552.949 -1.7657 0.808503 0
M  V30 5268 C 550.079 -2.96191 1.81351 0
M  V30 5269 C 549.033 -3.08633 2.96529 0
M  V30 5270 C 548.359 -4.486 2.90968 0
M  V30 5271 C 549.659 -2.85969 4.37057 0
M  V30 5272 H 551.353 -1.39953 2.64676 0
M  V30 5273 H 548.899 -0.671846 1.27367 0
M  V30 5274 H 550.852 -3.73507 1.95117 0
M  V30 5275 H 549.576 -3.15251 0.853502 0
M  V30 5276 H 548.235 -2.33749 2.82413 0
M  V30 5277 H 547.883 -4.64577 1.92815 0
M  V30 5278 H 547.583 -4.57861 3.68289 0
M  V30 5279 H 549.107 -5.27938 3.0678 0
M  V30 5280 H 550.521 -3.53036 4.51706 0
M  V30 5281 H 548.918 -3.06677 5.15819 0
M  V30 5282 H 549.988 -1.81838 4.49514 0
M  V30 5283 N 551.331 -1.39911 -0.725443 0
M  V30 5284 C 552.556 -1.41137 -1.5197 0
M  V30 5285 C 552.981 -0.010262 -1.88097 0
M  V30 5286 O 552.339 0.979184 -1.52583 0
M  V30 5287 C 552.387 -2.2994 -2.77777 0
M  V30 5288 O 551.491 -1.73586 -3.74088 0
M  V30 5289 H 550.832 -0.480219 -0.458569 0
M  V30 5290 H 553.362 -1.84023 -0.894249 0
M  V30 5291 H 553.372 -2.44785 -3.26411 0
M  V30 5292 H 552.047 -3.31759 -2.50816 0
M  V30 5293 H 550.624 -1.68035 -3.32894 0
M  V30 5294 N 552.809 0.956637 -1.25245 0
M  V30 5295 C 554.055 1.70352 -1.10036 0
M  V30 5296 C 554.388 1.90869 0.358156 0
M  V30 5297 O 553.663 1.47819 1.26411 0
M  V30 5298 C 553.946 3.08766 -1.85298 0
M  V30 5299 C 553.799 2.95672 -3.38966 0
M  V30 5300 C 555.118 4.08622 -1.63451 0
M  V30 5301 H 552.237 0.618279 -0.401123 0
M  V30 5302 H 554.879 1.11212 -1.54051 0
M  V30 5303 H 553.029 3.59252 -1.47887 0
M  V30 5304 H 554.701 2.52527 -3.86041 0
M  V30 5305 H 552.944 2.31634 -3.6678 0
M  V30 5306 H 553.615 3.93776 -3.86839 0
M  V30 5307 H 556.091 3.67038 -1.96015 0
M  V30 5308 H 554.967 5.03514 -2.18551 0
M  V30 5309 H 555.228 4.3834 -0.575357 0
M  V30 5310 N 554.287 1.06798 1.15896 0
M  V30 5311 C 555.703 0.792423 1.38538 0
M  V30 5312 C 555.903 -0.60592 1.92174 0
M  V30 5313 O 554.959 -1.36561 2.12385 0
M  V30 5314 C 556.272 1.86157 2.36149 0
M  V30 5315 C 557.82 1.88567 2.49823 0
M  V30 5316 C 558.295 2.9455 3.5072 0
M  V30 5317 N 559.786 2.93616 3.58251 0
M  V30 5318 C 560.521 3.72267 4.36125 0
M  V30 5319 N 560.017 4.60751 5.17379 0
M  V30 5320 N 561.81 3.60637 4.31158 0
M  V30 5321 H 553.961 1.96993 0.794198 0
M  V30 5322 H 556.224 0.853942 0.411688 0
M  V30 5323 H 555.93 2.86603 2.03843 0
M  V30 5324 H 555.804 1.71692 3.3586 0
M  V30 5325 H 558.191 0.887765 2.8143 0
M  V30 5326 H 558.272 2.0711 1.5013 0
M  V30 5327 H 557.916 3.94537 3.19849 0
M  V30 5328 H 557.846 2.73255 4.50155 0
M  V30 5329 H 560.337 2.29472 3.00252 0
M  V30 5330 H 560.65 5.17408 5.74028 0
M  V30 5331 H 558.995 4.64803 5.16704 0
M  V30 5332 H 562.186 2.90892 3.66742 0
M  V30 5333 H 562.359 4.22176 4.91601 0
M  V30 5334 N 555.766 -1.3263 0.851289 0
M  V30 5335 C 556.714 -2.30882 0.282202 0
M  V30 5336 C 557.708 -1.58697 -0.592589 0
M  V30 5337 O 558.914 -1.73461 -0.480768 0
M  V30 5338 H 555.289 -0.748492 0.0725487 0
M  V30 5339 H 557.26 -2.76374 1.12516 0
M  V30 5340 C 556.009 -3.43828 -0.517449 0
M  V30 5341 H 555.332 -3.99532 0.146392 0
M  V30 5342 H 556.772 -4.1474 -0.88128 0
M  V30 5343 C 555.231 -2.90786 -1.70133 0
M  V30 5344 O 555.761 -2.88 -2.80034 0
M  V30 5345 N 553.967 -2.4723 -1.52728 0
M  V30 5346 H 553.514 -2.49695 -0.633257 0
M  V30 5347 H 553.472 -2.12094 -2.32085 0
M  V30 5348 N 557.244 -0.608902 -1.45362 0
M  V30 5349 C 558.174 0.0964526 -2.33301 0
M  V30 5350 C 559.155 0.857444 -1.46908 0
M  V30 5351 O 560.34 0.827735 -1.75676 0
M  V30 5352 C 557.47 1.09354 -3.29635 0
M  V30 5353 C 556.424 0.445676 -4.25673 0
M  V30 5354 C 555.75 1.5511 -5.11708 0
M  V30 5355 C 557.05 -0.633972 -5.18438 0
M  V30 5356 H 558.744 -0.637829 -2.92527 0
M  V30 5357 H 556.29 -0.308178 -1.40664 0
M  V30 5358 H 558.243 1.59556 -3.90025 0
M  V30 5359 H 556.967 1.85843 -2.6857 0
M  V30 5360 H 555.626 -0.0354897 -3.66583 0
M  V30 5361 H 555.274 2.30631 -4.4701 0
M  V30 5362 H 554.974 1.12311 -5.76767 0
M  V30 5363 H 556.498 2.05537 -5.74967 0
M  V30 5364 H 557.912 -0.215974 -5.72893 0
M  V30 5365 H 556.309 -0.983789 -5.91981 0
M  V30 5366 H 557.379 -1.51005 -4.60788 0
M  V30 5367 N 558.722 1.53707 -0.348139 0
M  V30 5368 C 559.947 2.05877 0.250883 0
M  V30 5369 C 560.372 1.22115 1.43072 0
M  V30 5370 O 559.73 0.235986 1.79758 0
M  V30 5371 C 559.778 3.54886 0.639416 0
M  V30 5372 O 558.882 3.73948 1.73888 0
M  V30 5373 H 558.223 0.662754 0.040653 0
M  V30 5374 H 560.753 1.98303 -0.503685 0
M  V30 5375 H 560.763 3.97601 0.915295 0
M  V30 5376 H 559.438 4.153 -0.223386 0
M  V30 5377 H 558.015 3.43134 1.45991 0
M  V30 5378 N 560.2 0.0768682 1.57412 0
M  V30 5379 C 561.611 -0.455037 1.8107 0
M  V30 5380 C 561.962 -1.69323 0.991162 0
M  V30 5381 O 561.087 -2.15328 0.215156 0
M  V30 5382 C 561.682 -0.832316 3.28417 0
M  V30 5383 C 560.241 -1.30906 3.52903 0
M  V30 5384 C 559.388 -0.296714 2.75708 0
M  V30 5385 H 562.339 0.302514 1.5579 0
M  V30 5386 H 562.36 -1.69333 3.40744 0
M  V30 5387 H 561.872 0.0690532 3.88039 0
M  V30 5388 H 559.973 -2.22875 2.98592 0
M  V30 5389 H 560.086 -1.28348 4.61588 0
M  V30 5390 H 558.45 -0.775059 2.42621 0
M  V30 5391 H 559.233 0.597015 3.38069 0
M  V30 5392 N 561.678 -1.56367 -0.196722 0
M  V30 5393 C 562.908 -1.84371 -0.932254 0
M  V30 5394 C 563.316 -0.657013 -1.77426 0
M  V30 5395 O 562.659 0.383576 -1.79651 0
M  V30 5396 C 562.721 -3.06454 -1.87952 0
M  V30 5397 C 562.385 -4.40425 -1.21962 0
M  V30 5398 C 563.382 -5.16457 -0.597343 0
M  V30 5399 C 561.067 -4.8716 -1.22396 0
M  V30 5400 C 563.061 -6.37399 0.0117913 0
M  V30 5401 C 560.748 -6.08038 -0.610995 0
M  V30 5402 C 561.746 -6.83 0.00580487 0
M  V30 5403 O 561.434 -8.01589 0.609173 0
M  V30 5404 H 561.166 -0.616377 -0.277589 0
M  V30 5405 H 563.72 -2.04329 -0.209452 0
M  V30 5406 H 561.95 -2.82377 -2.64197 0
M  V30 5407 H 563.639 -3.21118 -2.48271 0
M  V30 5408 H 564.405 -4.81445 -0.586142 0
M  V30 5409 H 560.284 -4.2877 -1.69345 0
M  V30 5410 H 563.828 -6.9585 0.493836 0
M  V30 5411 H 559.725 -6.42519 -0.619693 0
M  V30 5412 H 560.493 -8.16935 0.505919 0
M  V30 5413 N 563.156 0.464375 -1.50603 0
M  V30 5414 C 564.402 1.21776 -1.62168 0
M  V30 5415 C 564.735 1.91476 -0.324154 0
M  V30 5416 O 564.01 1.8242 0.674782 0
M  V30 5417 C 564.293 2.25614 -2.80661 0
M  V30 5418 C 564.146 1.60175 -4.20314 0
M  V30 5419 C 565.465 3.26862 -2.94702 0
M  V30 5420 H 562.584 0.44137 -0.590222 0
M  V30 5421 H 565.226 0.510623 -1.8301 0
M  V30 5422 H 563.376 2.85923 -2.63021 0
M  V30 5423 H 565.048 1.03411 -4.4956 0
M  V30 5424 H 563.291 0.904697 -4.24261 0
M  V30 5425 H 563.962 2.35665 -4.99165 0
M  V30 5426 H 566.438 2.76582 -3.10872 0
M  V30 5427 H 565.314 3.96839 -3.79223 0
M  V30 5428 H 565.575 3.91382 -2.05603 0
M  V30 5429 N 564.634 1.40294 0.718013 0
M  V30 5430 C 565.859 1.41941 1.5122 0
M  V30 5431 C 566.284 0.0202371 1.88089 0
M  V30 5432 O 565.642 -0.971078 1.53101 0
M  V30 5433 C 565.69 2.3141 2.76554 0
M  V30 5434 O 564.794 1.75567 3.73162 0
M  V30 5435 H 564.135 0.482644 0.456016 0
M  V30 5436 H 566.665 1.84494 0.884478 0
M  V30 5437 H 566.675 2.46513 3.25108 0
M  V30 5438 H 565.35 3.33085 2.49053 0
M  V30 5439 H 563.927 1.69798 3.31999 0
M  V30 5440 N 566.112 -0.949982 1.2575 0
M  V30 5441 C 567.06 -2.06869 1.06339 0
M  V30 5442 C 568.054 -1.69399 -0.00708901 0
M  V30 5443 O 569.26 -1.79383 0.148897 0
M  V30 5444 H 565.635 -0.677197 0.326969 0
M  V30 5445 H 567.606 -2.20396 2.01167 0
M  V30 5446 C 566.355 -3.40503 0.703769 0
M  V30 5447 H 565.678 -3.69807 1.51931 0
M  V30 5448 H 567.118 -4.19623 0.607677 0
M  V30 5449 C 565.577 -3.31685 -0.5905 0
M  V30 5450 O 566.107 -3.67085 -1.63131 0
M  V30 5451 N 564.313 -2.84797 -0.577859 0
M  V30 5452 H 563.86 -2.56186 0.26951 0
M  V30 5453 H 563.818 -2.79279 -1.44398 0
M  V30 5454 N 567.59 -1.07411 -1.15328 0
M  V30 5455 C 568.5 -0.706438 -2.23711 0
M  V30 5456 C 569.516 0.282586 -1.7169 0
M  V30 5457 O 570.692 0.129066 -2.00986 0
M  V30 5458 C 567.757 -0.11048 -3.46524 0
M  V30 5459 C 566.818 -1.15282 -4.13532 0
M  V30 5460 C 566.051 -0.585205 -5.30482 0
M  V30 5461 O 566.274 0.598549 -5.67251 0
M  V30 5462 O 565.208 -1.33039 -5.87013 0
M  V30 5463 H 569.034 -1.61031 -2.57493 0
M  V30 5464 H 566.619 -0.847113 -1.23062 0
M  V30 5465 H 568.501 0.21957 -4.20828 0
M  V30 5466 H 567.176 0.766703 -3.14489 0
M  V30 5467 H 566.083 -1.53523 -3.41147 0
M  V30 5468 H 567.416 -2.00192 -4.49649 0
M  V30 5469 N 569.068 1.32177 -0.85831 0
M  V30 5470 C 569.998 2.31282 -0.321041 0
M  V30 5471 C 570.979 1.59841 0.581786 0
M  V30 5472 O 572.164 1.87619 0.501262 0
M  V30 5473 C 569.294 3.4385 0.48832 0
M  V30 5474 C 568.248 4.26799 -0.320391 0
M  V30 5475 C 567.574 5.31164 0.613934 0
M  V30 5476 C 568.874 4.98829 -1.54813 0
M  V30 5477 H 570.568 2.76469 -1.14915 0
M  V30 5478 H 568.114 1.32916 -0.554028 0
M  V30 5479 H 570.067 4.12224 0.874626 0
M  V30 5480 H 568.791 2.97401 1.34983 0
M  V30 5481 H 567.45 3.60077 -0.688497 0
M  V30 5482 H 567.098 4.80967 1.47239 0
M  V30 5483 H 566.798 5.8755 0.0768097 0
M  V30 5484 H 568.322 6.024 0.997336 0
M  V30 5485 H 569.736 5.59864 -1.23392 0
M  V30 5486 H 568.133 5.64957 -2.02346 0
M  V30 5487 H 569.203 4.26483 -2.30739 0
M  V30 5488 N 570.547 0.616602 1.45037 0
M  V30 5489 C 571.477 -0.0840787 2.33349 0
M  V30 5490 C 572.458 -0.849641 1.4736 0
M  V30 5491 O 573.643 -0.818407 1.76113 0
M  V30 5492 C 570.773 -1.07604 3.3021 0
M  V30 5493 C 569.727 -0.423096 4.25904 0
M  V30 5494 C 569.053 -1.52394 5.12523 0
M  V30 5495 C 570.353 0.661457 5.18095 0
M  V30 5496 H 572.047 0.653333 2.92185 0
M  V30 5497 H 569.593 0.315634 1.40498 0
M  V30 5498 H 571.546 -1.57485 3.90866 0
M  V30 5499 H 570.27 -1.84416 2.69552 0
M  V30 5500 H 568.929 0.05493 3.66559 0
M  V30 5501 H 568.577 -2.28257 4.48227 0
M  V30 5502 H 568.277 -1.09251 5.77354 0
M  V30 5503 H 569.801 -2.02485 5.76049 0
M  V30 5504 H 571.215 0.246353 5.7277 0
M  V30 5505 H 569.612 1.01517 5.91451 0
M  V30 5506 H 570.682 1.53446 4.59981 0
M  V30 5507 N 572.025 -1.5352 0.356285 0
M  V30 5508 C 572.935 -2.29151 -0.502712 0
M  V30 5509 C 573.951 -1.34753 -1.1008 0
M  V30 5510 O 575.127 -1.67803 -1.11374 0
M  V30 5511 C 572.192 -3.05911 -1.63154 0
M  V30 5512 C 571.253 -4.15958 -1.06194 0
M  V30 5513 C 570.486 -4.8905 -2.13696 0
M  V30 5514 O 570.709 -4.61919 -3.34645 0
M  V30 5515 O 569.643 -5.75202 -1.77275 0
M  V30 5516 H 573.469 -3.03492 0.112466 0
M  V30 5517 H 571.054 -1.4891 0.120942 0
M  V30 5518 H 572.936 -3.53874 -2.28804 0
M  V30 5519 H 571.611 -2.34415 -2.23229 0
M  V30 5520 H 570.518 -3.7227 -0.369603 0
M  V30 5521 H 571.851 -4.89593 -0.505872 0
M  V30 5522 N 573.503 -0.0852151 -1.57369 0
M  V30 5523 C 574.413 0.891712 -2.16992 0
M  V30 5524 C 575.429 1.3174 -1.13669 0
M  V30 5525 O 576.605 1.38735 -1.45995 0
M  V30 5526 C 573.67 2.13635 -2.73059 0
M  V30 5527 C 572.731 1.7658 -3.91303 0
M  V30 5528 C 571.964 2.95111 -4.44686 0
M  V30 5529 O 572.187 4.09539 -3.97032 0
M  V30 5530 O 571.121 2.74149 -5.35841 0
M  V30 5531 H 574.947 0.414477 -3.00858 0
M  V30 5532 H 572.532 0.138598 -1.48756 0
M  V30 5533 H 574.414 2.86595 -3.08935 0
M  V30 5534 H 573.089 2.6043 -1.92244 0
M  V30 5535 H 571.996 1.00831 -3.60255 0
M  V30 5536 H 573.329 1.34557 -4.7345 0
M  V30 5537 N 574.981 1.5647 0.188427 0
M  V30 5538 C 575.944 1.9421 1.21718 0
M  V30 5539 C 576.944 0.823901 1.38089 0
M  V30 5540 O 578.134 1.09122 1.35787 0
M  V30 5541 C 575.266 2.22197 2.58537 0
M  V30 5542 H 576.459 2.86252 0.894418 0
M  V30 5543 H 574.012 1.50263 0.430211 0
M  V30 5544 H 574.747 1.32814 2.95856 0
M  V30 5545 H 574.532 3.03688 2.48025 0
M  V30 5546 H 576.022 2.52376 3.3271 0
M  V30 5547 N 576.459 -0.456382 1.50847 0
M  V30 5548 C 577.706 -1.20736 1.62571 0
M  V30 5549 C 578.034 -1.9163 0.332904 0
M  V30 5550 O 577.289 -1.8343 -0.682058 0
M  V30 5551 C 577.588 -2.26336 2.76599 0
M  V30 5552 C 577.254 -1.7259 4.16562 0
M  V30 5553 C 575.916 -1.57654 4.54641 0
M  V30 5554 C 578.268 -1.32877 5.03977 0
M  V30 5555 C 575.596 -1.0145 5.77862 0
M  V30 5556 C 577.948 -0.7811 6.27759 0
M  V30 5557 C 576.612 -0.618488 6.64628 0
M  V30 5558 H 575.882 -0.441803 0.594888 0
M  V30 5559 H 578.529 -0.501169 1.84826 0
M  V30 5560 H 576.834 -3.0292 2.48489 0
M  V30 5561 H 578.531 -2.84227 2.82871 0
M  V30 5562 H 575.121 -1.85187 3.86528 0
M  V30 5563 H 579.305 -1.43245 4.75179 0
M  V30 5564 H 574.561 -0.876109 6.0509 0
M  V30 5565 H 578.735 -0.464783 6.94847 0
M  V30 5566 H 576.362 -0.180838 7.59985 0
M  V30 5567 N 577.937 -1.40673 -0.710563 0
M  V30 5568 C 579.162 -1.42741 -1.50465 0
M  V30 5569 C 579.587 -0.0302116 -1.88076 0
M  V30 5570 O 578.945 0.962945 -1.53613 0
M  V30 5571 C 578.993 -2.32873 -2.75322 0
M  V30 5572 O 578.097 -1.77544 -3.72226 0
M  V30 5573 H 577.438 -0.485056 -0.45345 0
M  V30 5574 H 579.968 -1.84961 -0.874681 0
M  V30 5575 H 579.978 -2.48233 -3.23797 0
M  V30 5576 H 578.653 -3.34401 -2.47283 0
M  V30 5577 H 577.23 -1.71556 -3.31093 0
M  V30 5578 N 579.415 0.9433 -1.26252 0
M  V30 5579 C 580.347 2.04542 -1.03417 0
M  V30 5580 C 581.36 1.62799 0.0046911 0
M  V30 5581 O 582.549 1.76944 -0.235146 0
M  V30 5582 C 579.649 3.34511 -0.543671 0
M  V30 5583 C 578.822 4.05033 -1.65128 0
M  V30 5584 C 577.881 5.13273 -1.1592 0
M  V30 5585 O 576.907 5.38095 -1.85586 0
M  V30 5586 N 578.109 5.805 -0.00649279 0
M  V30 5587 H 580.874 2.24699 -1.98319 0
M  V30 5588 H 578.435 1.11264 -1.1761 0
M  V30 5589 H 580.427 4.04212 -0.198703 0
M  V30 5590 H 578.997 3.11042 0.311711 0
M  V30 5591 H 578.217 3.29275 -2.16729 0
M  V30 5592 H 579.505 4.48903 -2.39508 0
M  V30 5593 H 578.903 5.62767 0.575347 0
M  V30 5594 H 577.46 6.51201 0.279416 0
M  V30 5595 N 580.893 1.08022 1.14757 0
M  V30 5596 C 582.14 0.807509 1.85703 0
M  V30 5597 C 582.468 -0.666617 1.8272 0
M  V30 5598 O 581.723 -1.50562 1.25018 0
M  V30 5599 C 582.022 1.26964 3.34088 0
M  V30 5600 C 581.688 2.7509 3.57262 0
M  V30 5601 C 580.35 3.15547 3.63296 0
M  V30 5602 C 582.702 3.70667 3.66409 0
M  V30 5603 C 580.03 4.50384 3.75994 0
M  V30 5604 C 582.382 5.05274 3.80632 0
M  V30 5605 C 581.046 5.45342 3.84913 0
M  V30 5606 H 580.316 0.295488 0.679535 0
M  V30 5607 H 582.963 1.35245 1.35577 0
M  V30 5608 H 581.268 0.644216 3.86467 0
M  V30 5609 H 582.965 1.03544 3.87401 0
M  V30 5610 H 579.555 2.42775 3.53212 0
M  V30 5611 H 583.739 3.40533 3.61041 0
M  V30 5612 H 578.995 4.80886 3.77569 0
M  V30 5613 H 583.169 5.79201 3.86652 0
M  V30 5614 H 580.796 6.49823 3.94505 0
M  V30 5615 N 582.371 -1.3172 0.865308 0
M  V30 5616 C 583.619 -1.96487 0.472995 0
M  V30 5617 C 583.94 -1.68761 -0.976975 0
M  V30 5618 O 583.21 -1.00051 -1.68424 0
M  V30 5619 H 581.79 -0.726947 0.171922 0
M  V30 5620 H 584.452 -1.60612 1.10407 0
M  V30 5621 H 583.548 -3.0574 0.62687 0
M  V30 5622 N 583.85 -0.624285 -1.44708 0
M  V30 5623 C 585.26 -0.2092 -1.85524 0
M  V30 5624 C 585.611 1.23783 -1.52225 0
M  V30 5625 O 584.736 1.94089 -0.956986 0
M  V30 5626 C 585.332 -0.372897 -3.36742 0
M  V30 5627 C 583.891 -0.012374 -3.76398 0
M  V30 5628 C 583.038 -0.68951 -2.68591 0
M  V30 5629 H 585.989 -0.829894 -1.35272 0
M  V30 5630 H 586.01 0.390134 -3.78495 0
M  V30 5631 H 585.522 -1.42615 -3.60947 0
M  V30 5632 H 583.623 1.03941 -3.57809 0
M  V30 5633 H 583.736 -0.417663 -4.77276 0
M  V30 5634 H 582.1 -0.125484 -2.54391 0
M  V30 5635 H 582.883 -1.74522 -2.9563 0
M  V30 5636 N 585.328 1.53329 -0.364422 0
M  V30 5637 C 586.577 2.00421 0.226747 0
M  V30 5638 C 586.89 1.25581 1.49963 0
M  V30 5639 O 588.096 1.63256 2.16933 0
M  V30 5640 C 586.552 3.57017 0.454618 0
M  V30 5641 C 586.16 4.40734 -0.803568 0
M  V30 5642 C 587.904 4.12468 1.00351 0
M  V30 5643 C 585.811 5.8888 -0.545345 0
M  V30 5644 H 584.741 0.748787 0.0885082 0
M  V30 5645 H 587.392 1.7703 -0.482983 0
M  V30 5646 H 585.774 3.76558 1.22558 0
M  V30 5647 H 586.948 4.32967 -1.57723 0
M  V30 5648 H 585.263 3.96381 -1.27559 0
M  V30 5649 H 587.86 5.20783 1.212 0
M  V30 5650 H 588.203 3.6699 1.9653 0
M  V30 5651 H 588.736 3.96721 0.29274 0
M  V30 5652 H 585.475 6.38633 -1.47743 0
M  V30 5653 H 584.995 5.99499 0.189842 0
M  V30 5654 H 586.674 6.46776 -0.170425 0
M  V30 5655 N 586.806 0.0935595 1.57322 0
M  V30 5656 C 587.716 -0.880192 2.17462 0
M  V30 5657 C 588.732 -1.31135 1.14366 0
M  V30 5658 O 589.908 -1.37958 1.46729 0
M  V30 5659 C 586.973 -2.12184 2.74188 0
M  V30 5660 C 586.034 -1.74503 3.92234 0
M  V30 5661 C 585.267 -2.92748 4.46245 0
M  V30 5662 O 585.49 -4.07427 3.99198 0
M  V30 5663 O 584.424 -2.71303 5.37288 0
M  V30 5664 H 588.25 -0.398516 3.01074 0
M  V30 5665 H 585.835 -0.130707 1.48827 0
M  V30 5666 H 587.717 -2.84953 3.10451 0
M  V30 5667 H 586.392 -2.59407 1.93623 0
M  V30 5668 H 585.299 -0.989186 3.60785 0
M  V30 5669 H 586.632 -1.32044 4.74157 0
M  V30 5670 N 588.284 -1.56567 -0.180126 0
M  V30 5671 C 589.7 -1.50488 -0.531559 0
M  V30 5672 C 589.9 -0.796267 -1.851 0
M  V30 5673 O 588.956 -0.352978 -2.50021 0
M  V30 5674 C 590.269 -2.95201 -0.572456 0
M  V30 5675 C 591.817 -3.05957 -0.660264 0
M  V30 5676 C 592.292 -4.5211 -0.732135 0
M  V30 5677 N 593.783 -4.56322 -0.795262 0
M  V30 5678 C 594.518 -5.66742 -0.871296 0
M  V30 5679 N 594.014 -6.86815 -0.908708 0
M  V30 5680 N 595.807 -5.54691 -0.909639 0
M  V30 5681 H 587.958 -2.01045 0.685165 0
M  V30 5682 H 590.221 -0.915536 0.245962 0
M  V30 5683 H 589.927 -3.50165 0.328208 0
M  V30 5684 H 589.801 -3.49369 -1.422 0
M  V30 5685 H 592.188 -2.51032 -1.55136 0
M  V30 5686 H 592.269 -2.54888 0.215783 0
M  V30 5687 H 591.913 -5.07664 0.154664 0
M  V30 5688 H 591.843 -5.00926 -1.6242 0
M  V30 5689 H 594.334 -3.69868 -0.77499 0
M  V30 5690 H 594.647 -7.66718 -0.967654 0
M  V30 5691 H 592.992 -6.89443 -0.877132 0
M  V30 5692 H 596.183 -4.59804 -0.877353 0
M  V30 5693 H 596.356 -6.40768 -0.965434 0
M  V30 5694 N 589.762 0.448376 -1.51087 0
M  V30 5695 C 590.725 1.52588 -1.71025 0
M  V30 5696 C 591.725 1.49958 -0.580442 0
M  V30 5697 O 592.915 1.52176 -0.847833 0
M  V30 5698 C 590.047 2.92163 -1.75652 0
M  V30 5699 H 591.24 1.36218 -2.67179 0
M  V30 5700 H 588.793 0.676313 -1.4091 0
M  V30 5701 H 589.528 3.13951 -0.812724 0
M  V30 5702 H 589.313 2.95478 -2.57751 0
M  V30 5703 H 590.803 3.70349 -1.92953 0
M  V30 5704 N 591.24 1.41047 0.703093 0
M  V30 5705 C 592.486 1.40207 1.46526 0
M  V30 5706 C 592.819 0.00847763 1.94198 0
M  V30 5707 O 592.094 -0.962437 1.69019 0
M  V30 5708 C 592.377 2.40238 2.6825 0
M  V30 5709 C 592.23 3.88674 2.26391 0
M  V30 5710 C 593.549 2.37627 3.70434 0
M  V30 5711 H 590.668 0.510594 0.531472 0
M  V30 5712 H 593.31 1.72271 0.801422 0
M  V30 5713 H 591.46 2.13026 3.24888 0
M  V30 5714 H 593.132 4.2676 1.75138 0
M  V30 5715 H 591.375 4.03903 1.58255 0
M  V30 5716 H 592.046 4.542 3.13698 0
M  V30 5717 H 594.522 2.61759 3.23452 0
M  V30 5718 H 593.398 3.09645 4.53223 0
M  V30 5719 H 593.659 1.39223 4.19606 0
M  V30 5720 N 592.718 -0.936591 1.26751 0
M  V30 5721 C 593.964 -1.6858 1.12733 0
M  V30 5722 C 594.297 -1.91414 -0.327745 0
M  V30 5723 O 593.572 -1.49812 -1.24043 0
M  V30 5724 C 593.855 -3.05779 1.90187 0
M  V30 5725 C 593.708 -2.90242 3.43627 0
M  V30 5726 C 595.027 -4.0597 1.69931 0
M  V30 5727 H 592.146 -0.61182 0.410908 0
M  V30 5728 H 594.788 -1.08747 1.55801 0
M  V30 5729 H 592.938 -3.56853 1.53584 0
M  V30 5730 H 594.61 -2.46354 3.9001 0
M  V30 5731 H 592.853 -2.2577 3.70419 0
M  V30 5732 H 593.524 -3.87572 3.93055 0
M  V30 5733 H 596 -3.63874 2.0183 0
M  V30 5734 H 594.876 -4.99974 2.26534 0
M  V30 5735 H 595.137 -4.37369 0.64502 0
M  V30 5736 N 594.196 -1.08629 -1.14182 0
M  V30 5737 C 595.445 -0.812271 -1.84621 0
M  V30 5738 C 595.758 0.664313 -1.83973 0
M  V30 5739 O 596.964 1.05357 -2.50224 0
M  V30 5740 C 595.42 -1.4031 -3.31423 0
M  V30 5741 C 595.028 -2.91164 -3.40481 0
M  V30 5742 C 596.772 -1.20767 -4.06959 0
M  V30 5743 C 594.679 -3.43373 -4.81507 0
M  V30 5744 H 593.609 -0.30019 -0.691666 0
M  V30 5745 H 596.26 -1.30798 -1.28701 0
M  V30 5746 H 594.642 -0.835096 -3.87094 0
M  V30 5747 H 595.816 -3.5412 -2.94848 0
M  V30 5748 H 594.131 -3.09646 -2.78403 0
M  V30 5749 H 596.728 -1.57237 -5.11058 0
M  V30 5750 H 597.071 -0.147664 -4.16038 0
M  V30 5751 H 597.604 -1.74274 -3.57594 0
M  V30 5752 H 594.343 -4.48958 -4.77616 0
M  V30 5753 H 593.863 -2.85176 -5.27669 0
M  V30 5754 H 595.542 -3.40095 -5.50404 0
M  V30 5755 N 595.674 1.31259 -0.872281 0
M  V30 5756 C 596.92 1.96913 -0.485083 0
M  V30 5757 C 597.253 1.68774 0.960667 0
M  V30 5758 O 596.528 0.985495 1.67685 0
M  V30 5759 C 596.811 3.52299 -0.745502 0
M  V30 5760 C 596.664 3.90002 -2.24095 0
M  V30 5761 C 597.983 4.39582 -0.213516 0
M  V30 5762 H 595.102 0.715252 -0.177716 0
M  V30 5763 H 597.744 1.55347 -1.09395 0
M  V30 5764 H 595.894 3.87835 -0.227276 0
M  V30 5765 H 597.566 3.64555 -2.82661 0
M  V30 5766 H 595.809 3.38526 -2.71261 0
M  V30 5767 H 596.48 4.98352 -2.37381 0
M  V30 5768 H 598.956 4.10882 -0.656902 0
M  V30 5769 H 597.832 5.47251 -0.42516 0
M  V30 5770 H 598.093 4.33158 0.884666 0
M  V30 5771 N 597.152 0.631951 1.44375 0
M  V30 5772 C 598.429 0.067646 1.95483 0
M  V30 5773 C 598.809 -1.40683 1.57389 0
M  V30 5774 O 598.157 -2.12167 0.848375 0
M  V30 5775 C 598.367 0.291392 3.47781 0
M  V30 5776 C 599.715 0.185028 4.24197 0
M  V30 5777 O 600.739 0.222803 3.55503 0
M  V30 5778 O 599.598 0.0906642 5.46425 0
M  V30 5779 H 596.692 -0.0218379 0.826712 0
M  V30 5780 H 599.238 0.703711 1.54421 0
M  V30 5781 H 598.01 1.31449 3.68561 0
M  V30 5782 H 597.633 -0.378772 3.95792 0
M  V30 5783 N 598.631 -1.53133 0.372548 0
M  V30 5784 C 599.908 -1.93704 -0.271693 0
M  V30 5785 C 600.288 -1.30667 -1.65799 0
M  V30 5786 O 599.636 -0.46838 -2.23648 0
M  V30 5787 C 599.846 -3.47576 -0.314903 0
M  V30 5788 C 601.194 -4.20998 -0.551912 0
M  V30 5789 O 602.218 -3.53994 -0.39582 0
M  V30 5790 O 601.077 -5.39748 -0.85639 0
M  V30 5791 H 598.171 -0.810457 -0.164586 0
M  V30 5792 H 600.717 -1.6427 0.425838 0
M  V30 5793 H 599.489 -3.85749 0.656792 0
M  V30 5794 H 599.112 -3.83264 -1.05804 0
M  V30 5795 N 600.109 -0.101901 -1.5727 0
M  V30 5796 C 601.525 0.254739 -1.57554 0
M  V30 5797 C 601.725 1.67937 -1.11352 0
M  V30 5798 O 600.781 2.39722 -0.793081 0
M  V30 5799 C 602.094 0.036975 -3.00677 0
M  V30 5800 C 603.642 0.104199 -3.12827 0
M  V30 5801 C 604.117 -0.0856565 -4.5792 0
M  V30 5802 N 605.608 -0.0310498 -4.6319 0
M  V30 5803 C 606.343 -0.153099 -5.73196 0
M  V30 5804 N 605.839 -0.330364 -6.92012 0
M  V30 5805 N 607.632 -0.0938854 -5.62022 0
M  V30 5806 H 599.783 -1.03263 -1.85609 0
M  V30 5807 H 602.046 -0.405251 -0.857016 0
M  V30 5808 H 601.752 -0.947254 -3.38703 0
M  V30 5809 H 601.626 0.776335 -3.69124 0
M  V30 5810 H 604.013 1.07894 -2.74669 0
M  V30 5811 H 604.094 -0.666762 -2.46957 0
M  V30 5812 H 603.738 -1.05729 -4.96773 0
M  V30 5813 H 603.668 0.705082 -5.21858 0
M  V30 5814 H 606.159 0.103141 -3.77759 0
M  V30 5815 H 606.472 -0.41482 -7.71686 0
M  V30 5816 H 604.817 -0.366119 -6.94035 0
M  V30 5817 H 608.008 0.0435168 -4.6808 0
M  V30 5818 H 608.181 -0.19245 -6.47714 0
M  V30 5819 N 601.587 1.56661 0.17182 0
M  V30 5820 C 602.835 1.81606 0.886774 0
M  V30 5821 C 603.156 0.678818 1.82803 0
M  V30 5822 O 602.426 -0.301354 1.93568 0
M  V30 5823 H 601.006 0.669934 0.330451 0
M  V30 5824 H 603.668 1.94142 0.171757 0
M  V30 5825 H 602.764 2.75634 1.46398 0
M  V30 5826 N 603.065 -0.440357 1.51323 0
M  V30 5827 C 604.481 -0.7766 1.39431 0
M  V30 5828 C 604.681 -1.95838 0.474296 0
M  V30 5829 O 603.737 -2.52398 -0.0716692 0
M  V30 5830 C 605.05 -1.05981 2.81405 0
M  V30 5831 C 606.598 -1.16442 2.90534 0
M  V30 5832 C 607.073 -1.48058 4.33408 0
M  V30 5833 N 608.564 -1.54988 4.36501 0
M  V30 5834 C 609.299 -1.81017 5.44078 0
M  V30 5835 N 608.795 -2.04858 6.61819 0
M  V30 5836 N 610.588 -1.82774 5.31554 0
M  V30 5837 H 602.739 0.338006 2.09693 0
M  V30 5838 H 605.002 0.0888072 0.943831 0
M  V30 5839 H 604.708 -0.264173 3.50706 0
M  V30 5840 H 604.582 -1.98822 3.20546 0
M  V30 5841 H 606.969 -1.95068 2.21432 0
M  V30 5842 H 607.05 -0.215088 2.54894 0
M  V30 5843 H 606.694 -0.699605 5.03059 0
M  V30 5844 H 606.624 -2.44192 4.66559 0
M  V30 5845 H 609.115 -1.38479 3.51613 0
M  V30 5846 H 609.428 -2.2408 7.396 0
M  V30 5847 H 607.773 -2.02187 6.6494 0
M  V30 5848 H 610.964 -1.63665 4.38556 0
M  V30 5849 H 611.137 -2.02722 6.15474 0
M  V30 5850 N 604.543 -1.41418 -0.695603 0
M  V30 5851 C 605.768 -1.44329 -1.48942 0
M  V30 5852 C 606.193 -0.0501579 -1.88033 0
M  V30 5853 O 605.551 0.946598 -1.54626 0
M  V30 5854 C 605.599 -2.3578 -2.72837 0
M  V30 5855 O 604.703 -1.81482 -3.70322 0
M  V30 5856 H 604.044 -0.489838 -0.44828 0
M  V30 5857 H 606.574 -1.85878 -0.855014 0
M  V30 5858 H 606.584 -2.51654 -3.21145 0
M  V30 5859 H 605.259 -3.37005 -2.43722 0
M  V30 5860 H 603.836 -1.75058 -3.29255 0
M  V30 5861 N 606.021 0.929856 -1.27246 0
M  V30 5862 C 607.249 1.71144 -1.16265 0
M  V30 5863 C 607.664 1.867 0.280786 0
M  V30 5864 O 607.021 1.38249 1.19136 0
M  V30 5865 C 607.072 3.11222 -1.83911 0
M  V30 5866 O 606.793 2.96398 -3.22614 0
M  V30 5867 C 608.294 4.05541 -1.79028 0
M  V30 5868 H 605.514 0.535499 -0.404328 0
M  V30 5869 H 608.058 1.16492 -1.68077 0
M  V30 5870 H 606.213 3.6274 -1.36009 0
M  V30 5871 H 606.627 3.8494 -3.56261 0
M  V30 5872 H 608.101 5.01351 -2.30978 0
M  V30 5873 H 608.578 4.32589 -0.759168 0
M  V30 5874 H 609.184 3.59947 -2.26535 0
M  V30 5875 N 607.499 1.09233 1.13605 0
M  V30 5876 C 608.747 0.825525 1.84471 0
M  V30 5877 C 609.068 -0.650702 1.83823 0
M  V30 5878 O 608.338 -1.47204 1.29259 0
M  V30 5879 H 606.918 0.3024 0.683054 0
M  V30 5880 H 609.58 1.38006 1.37624 0
M  V30 5881 H 608.676 1.17727 2.89045 0
M  V30 5882 N 608.977 -1.30795 0.87923 0
M  V30 5883 C 609.924 -2.28282 0.339968 0
M  V30 5884 C 610.894 -1.56134 -0.566685 0
M  V30 5885 O 612.079 -1.84231 -0.496338 0
M  V30 5886 C 609.219 -3.42225 -0.444501 0
M  V30 5887 C 608.332 -4.29204 0.490717 0
M  V30 5888 C 607.467 -5.30302 -0.308784 0
M  V30 5889 C 606.506 -6.08929 0.622272 0
M  V30 5890 N 605.643 -7.01957 -0.14155 0
M  V30 5891 H 610.483 -2.73794 1.17647 0
M  V30 5892 H 608.02 -1.34682 0.591527 0
M  V30 5893 H 609.978 -4.07038 -0.915186 0
M  V30 5894 H 608.608 -2.97799 -1.24562 0
M  V30 5895 H 607.66 -3.6475 1.07988 0
M  V30 5896 H 608.972 -4.84045 1.20425 0
M  V30 5897 H 608.126 -6.00835 -0.841575 0
M  V30 5898 H 606.865 -4.7614 -1.05556 0
M  V30 5899 H 605.87 -5.37278 1.16674 0
M  V30 5900 H 607.095 -6.65178 1.36804 0
M  V30 5901 H 605.041 -6.50192 -0.870966 0
M  V30 5902 H 604.958 -7.54261 0.51246 0
M  V30 5903 H 606.226 -7.76741 -0.655271 0
M  V30 5904 N 610.455 -0.639598 -1.44038 0
M  V30 5905 C 611.703 -0.147188 -2.01563 0
M  V30 5906 C 612.024 1.2384 -1.50628 0
M  V30 5907 O 611.294 1.82452 -0.713316 0
M  V30 5908 H 609.874 -0.0514231 -0.745228 0
M  V30 5909 H 612.536 -0.828205 -1.76428 0
M  V30 5910 H 611.632 -0.121358 -3.11864 0
M  V30 5911 N 611.933 1.52934 -0.380664 0
M  V30 5912 C 613.182 2.00651 0.205477 0
M  V30 5913 C 613.495 1.27164 1.48623 0
M  V30 5914 O 614.701 1.65547 2.15189 0
M  V30 5915 C 613.157 3.57479 0.416726 0
M  V30 5916 C 612.765 4.39857 -0.850268 0
M  V30 5917 C 614.509 4.13509 0.959702 0
M  V30 5918 C 612.416 5.88269 -0.607773 0
M  V30 5919 H 611.346 0.749684 0.0805614 0
M  V30 5920 H 613.997 1.76508 -0.501732 0
M  V30 5921 H 612.379 3.77836 1.18557 0
M  V30 5922 H 613.553 4.31269 -1.62307 0
M  V30 5923 H 611.868 3.95005 -1.31756 0
M  V30 5924 H 614.465 5.22039 1.15669 0
M  V30 5925 H 614.808 3.69054 1.92626 0
M  V30 5926 H 615.341 3.9701 0.250645 0
M  V30 5927 H 612.08 6.3703 -1.54509 0
M  V30 5928 H 611.6 5.99667 0.126247 0
M  V30 5929 H 613.279 6.46558 -0.239014 0
M  V30 5930 N 613.412 0.11024 1.57214 0
M  V30 5931 C 614.658 -0.550684 1.9518 0
M  V30 5932 C 614.991 -1.66885 0.993122 0
M  V30 5933 O 614.266 -1.94479 0.0287907 0
M  V30 5934 C 614.549 -1.09163 3.43155 0
M  V30 5935 C 614.402 0.0225198 4.49794 0
M  V30 5936 C 615.721 -1.98527 3.92778 0
M  V30 5937 H 612.84 -0.198706 0.709708 0
M  V30 5938 H 615.482 0.184024 1.89107 0
M  V30 5939 H 613.632 -1.71775 3.48462 0
M  V30 5940 H 615.304 0.657443 4.56591 0
M  V30 5941 H 613.547 0.686868 4.28328 0
M  V30 5942 H 614.218 -0.39706 5.5057 0
M  V30 5943 H 616.694 -1.458 3.8972 0
M  V30 5944 H 615.57 -2.33298 4.96853 0
M  V30 5945 H 615.831 -2.90846 3.32958 0
M  V30 5946 N 614.89 -1.56749 -0.16351 0
M  V30 5947 C 615.8 -2.00255 -1.2221 0
M  V30 5948 C 616.816 -0.915194 -1.47987 0
M  V30 5949 O 617.992 -1.22342 -1.59982 0
M  V30 5950 C 615.057 -2.36035 -2.53946 0
M  V30 5951 C 614.118 -3.58637 -2.35962 0
M  V30 5952 C 613.351 -3.92701 -3.61416 0
M  V30 5953 O 613.574 -3.27632 -4.66919 0
M  V30 5954 O 612.508 -4.86019 -3.55062 0
M  V30 5955 H 616.334 -2.90586 -0.882794 0
M  V30 5956 H 613.919 -1.44721 -0.370978 0
M  V30 5957 H 615.801 -2.59982 -3.31643 0
M  V30 5958 H 614.476 -1.48863 -2.8744 0
M  V30 5959 H 613.383 -3.39898 -1.5627 0
M  V30 5960 H 614.716 -4.46374 -2.0739 0
M  V30 5961 N 616.368 0.432326 -1.51554 0
M  V30 5962 C 617.615 1.18134 -1.64471 0
M  V30 5963 C 617.943 1.91076 -0.363349 0
M  V30 5964 O 617.198 1.84492 0.65279 0
M  V30 5965 C 617.497 2.21907 -2.80164 0
M  V30 5966 C 617.163 1.65941 -4.19255 0
M  V30 5967 C 615.825 1.50401 -4.57092 0
M  V30 5968 C 618.177 1.24843 -5.06027 0
M  V30 5969 C 615.505 0.922443 -5.79403 0
M  V30 5970 C 617.857 0.68113 -6.28922 0
M  V30 5971 C 616.521 0.512673 -6.65528 0
M  V30 5972 H 615.791 0.432283 -0.601841 0
M  V30 5973 H 618.438 0.471701 -1.856 0
M  V30 5974 H 616.743 2.98928 -2.53277 0
M  V30 5975 H 618.44 2.79691 -2.87357 0
M  V30 5976 H 615.03 1.79014 -3.89425 0
M  V30 5977 H 619.214 1.35667 -4.77397 0
M  V30 5978 H 614.47 0.779733 -6.06408 0
M  V30 5979 H 618.644 0.35418 -6.95499 0
M  V30 5980 H 616.271 0.0599084 -7.60176 0
M  V30 5981 N 617.846 1.41785 0.688094 0
M  V30 5982 C 618.809 1.43936 1.78368 0
M  V30 5983 C 619.809 0.328866 1.57401 0
M  V30 5984 O 620.999 0.589093 1.63937 0
M  V30 5985 C 618.131 1.25804 3.16838 0
M  V30 5986 H 619.324 2.41472 1.77852 0
M  V30 5987 H 616.877 1.28037 0.896448 0
M  V30 5988 H 617.612 0.291386 3.22988 0
M  V30 5989 H 617.397 2.06272 3.33458 0
M  V30 5990 H 618.887 1.30162 3.96797 0
M  V30 5991 N 619.324 -0.923095 1.27737 0
M  V30 5992 C 620.549 -1.71054 1.17283 0
M  V30 5993 C 620.974 -1.86208 -0.266153 0
M  V30 5994 O 620.332 -1.36545 -1.1927 0
M  V30 5995 C 620.38 -3.0854 1.86642 0
M  V30 5996 O 619.484 -3.95528 1.16752 0
M  V30 5997 H 618.825 -0.524136 0.407649 0
M  V30 5998 H 621.355 -1.15487 1.6889 0
M  V30 5999 H 621.365 -3.58828 1.94182 0
M  V30 6000 H 620.04 -2.96828 2.91317 0
M  V30 6001 H 618.617 -3.53967 1.17312 0
M  V30 6002 N 620.802 -1.09834 -1.13024 0
M  V30 6003 C 621.749 -0.741522 -2.18564 0
M  V30 6004 C 622.719 0.279236 -1.63736 0
M  V30 6005 O 623.904 0.159923 -1.90129 0
M  V30 6006 C 621.044 -0.17277 -3.44667 0
M  V30 6007 C 620.157 -1.24808 -4.13578 0
M  V30 6008 C 619.292 -0.641631 -5.27311 0
M  V30 6009 C 618.331 -1.69795 -5.88078 0
M  V30 6010 N 617.468 -1.11223 -6.93234 0
M  V30 6011 H 622.308 -1.64576 -2.48432 0
M  V30 6012 H 619.845 -0.822174 -1.21978 0
M  V30 6013 H 621.803 0.17482 -4.16834 0
M  V30 6014 H 620.433 0.694725 -3.15235 0
M  V30 6015 H 619.485 -1.71288 -3.39653 0
M  V30 6016 H 620.797 -2.04795 -4.54819 0
M  V30 6017 H 619.951 -0.243128 -6.06213 0
M  V30 6018 H 618.69 0.189742 -4.87331 0
M  V30 6019 H 617.695 -2.10595 -5.07868 0
M  V30 6020 H 618.92 -2.53206 -6.3013 0
M  V30 6021 H 616.866 -0.302208 -6.55304 0
M  V30 6022 H 616.783 -1.84901 -7.3304 0
M  V30 6023 H 618.051 -0.740068 -7.75979 0
M  V30 6024 N 622.28 1.30327 -0.886154 0
M  V30 6025 C 623.691 1.78243 -0.555554 0
M  V30 6026 C 624.042 1.72849 0.928314 0
M  V30 6027 O 623.167 1.30607 1.72542 0
M  V30 6028 C 623.762 3.23654 -1.00168 0
M  V30 6029 C 622.321 3.69401 -0.722471 0
M  V30 6030 C 621.468 2.50753 -1.18399 0
M  V30 6031 H 624.419 1.1718 -1.07026 0
M  V30 6032 H 624.44 3.79056 -0.331152 0
M  V30 6033 H 623.952 3.27548 -2.08169 0
M  V30 6034 H 622.053 3.70995 0.345496 0
M  V30 6035 H 622.166 4.60818 -1.31085 0
M  V30 6036 H 620.53 2.47452 -0.603303 0
M  V30 6037 H 621.313 2.57383 -2.27176 0
M  V30 6038 N 623.758 0.647228 1.43697 0
M  V30 6039 C 624.721 -0.0385101 2.29168 0
M  V30 6040 C 625.721 -0.756487 1.41894 0
M  V30 6041 O 626.911 -0.598641 1.63591 0
M  V30 6042 C 624.043 -1.06524 3.23829 0
M  V30 6043 H 625.236 0.713445 2.9129 0
M  V30 6044 H 622.789 0.408153 1.50877 0
M  V30 6045 H 623.524 -1.84664 2.66589 0
M  V30 6046 H 623.309 -0.554147 3.88164 0
M  V30 6047 H 624.799 -1.54432 3.87996 0
M  V30 6048 N 625.236 -1.5273 0.388769 0
M  V30 6049 C 626.199 -2.25043 -0.434544 0
M  V30 6050 C 627.199 -1.26661 -0.990644 0
M  V30 6051 O 628.389 -1.50762 -0.872731 0
M  V30 6052 C 625.521 -3.00507 -1.60961 0
M  V30 6053 H 626.714 -2.99242 0.198549 0
M  V30 6054 H 624.267 -1.55664 0.140875 0
M  V30 6055 H 625.002 -2.30607 -2.28015 0
M  V30 6056 H 624.787 -3.72716 -1.21757 0
M  V30 6057 H 626.277 -3.55413 -2.19251 0
M  V30 6058 N 626.714 -0.118576 -1.57153 0
M  V30 6059 C 628.13 0.238014 -1.57815 0
M  V30 6060 C 628.33 1.66747 -1.13127 0
M  V30 6061 O 627.386 2.38867 -0.818462 0
M  V30 6062 C 628.699 0.00508207 -3.007 0
M  V30 6063 C 630.247 0.0710139 -3.12919 0
M  V30 6064 C 630.722 -0.13422 -4.57803 0
M  V30 6065 N 632.213 -0.0801755 -4.63131 0
M  V30 6066 C 632.948 -0.213885 -5.73001 0
M  V30 6067 N 632.444 -0.403742 -6.91623 0
M  V30 6068 N 634.237 -0.15349 -5.6189 0
M  V30 6069 H 626.388 -1.05226 -1.84503 0
M  V30 6070 H 628.651 -0.414318 -0.852669 0
M  V30 6071 H 628.357 -0.983125 -3.3768 0
M  V30 6072 H 628.231 0.73714 -3.69927 0
M  V30 6073 H 630.618 1.04975 -2.75798 0
M  V30 6074 H 630.699 -0.692918 -2.46236 0
M  V30 6075 H 630.343 -1.10992 -4.95624 0
M  V30 6076 H 630.273 0.649692 -5.22577 0
M  V30 6077 H 632.764 0.0630689 -3.77847 0
M  V30 6078 H 633.077 -0.496645 -7.71202 0
M  V30 6079 H 631.422 -0.43971 -6.93608 0
M  V30 6080 H 634.613 -0.00613174 -4.681 0
M  V30 6081 H 634.786 -0.261138 -6.47474 0
M  V30 6082 N 628.193 1.56834 0.155195 0
M  V30 6083 C 629.14 1.97646 1.19184 0
M  V30 6084 C 630.11 0.842788 1.4313 0
M  V30 6085 O 631.295 1.1042 1.55602 0
M  V30 6086 C 628.435 2.35527 2.52232 0
M  V30 6087 C 627.548 3.62147 2.35529 0
M  V30 6088 C 626.683 3.89167 3.61555 0
M  V30 6089 C 625.722 5.09084 3.39853 0
M  V30 6090 N 624.859 5.32156 4.5799 0
M  V30 6091 H 629.699 2.8601 0.836802 0
M  V30 6092 H 627.236 1.41507 0.401758 0
M  V30 6093 H 629.194 2.55516 3.29799 0
M  V30 6094 H 627.824 1.50253 2.85699 0
M  V30 6095 H 626.876 3.4998 1.49057 0
M  V30 6096 H 628.188 4.49871 2.15448 0
M  V30 6097 H 627.342 4.09611 4.47553 0
M  V30 6098 H 626.081 2.9985 3.84632 0
M  V30 6099 H 625.086 4.88522 2.52243 0
M  V30 6100 H 626.311 5.99947 3.18183 0
M  V30 6101 H 624.257 4.45791 4.81255 0
M  V30 6102 H 624.174 6.14133 4.40882 0
M  V30 6103 H 625.442 5.57091 5.45225 0
M  V30 6104 N 629.671 -0.424282 1.51781 0
M  V30 6105 C 630.634 -1.49848 1.73431 0
M  V30 6106 C 631.634 -1.49016 0.604225 0
M  V30 6107 O 632.824 -1.50808 0.871935 0
M  V30 6108 C 629.956 -2.89332 1.80277 0
M  V30 6109 H 631.149 -1.3195 2.69312 0
M  V30 6110 H 628.702 -0.653809 1.41968 0
M  V30 6111 H 629.437 -3.12618 0.862568 0
M  V30 6112 H 629.222 -2.9134 2.62419 0
M  V30 6113 H 630.712 -3.67233 1.98821 0
M  V30 6114 N 631.149 -1.42148 -0.680565 0
M  V30 6115 C 632.396 -1.4231 -1.44063 0
M  V30 6116 C 632.724 -0.037488 -1.94464 0
M  V30 6117 O 631.979 0.953184 -1.70918 0
M  V30 6118 C 632.278 -2.38945 -2.65782 0
M  V30 6119 C 631.944 -3.85455 -2.33956 0
M  V30 6120 C 630.606 -4.25364 -2.24987 0
M  V30 6121 C 632.958 -4.77895 -2.08004 0
M  V30 6122 C 630.286 -5.55701 -1.88184 0
M  V30 6123 C 632.638 -6.08568 -1.72706 0
M  V30 6124 C 631.302 -6.47482 -1.62244 0
M  V30 6125 H 630.572 -0.520748 -0.527164 0
M  V30 6126 H 633.219 -1.7505 -0.776524 0
M  V30 6127 H 631.524 -1.99511 -3.37198 0
M  V30 6128 H 633.221 -2.36336 -3.23954 0
M  V30 6129 H 629.811 -3.53855 -2.41836 0
M  V30 6130 H 633.995 -4.47854 -2.1387 0
M  V30 6131 H 629.251 -5.84718 -1.78648 0
M  V30 6132 H 633.425 -6.79688 -1.5165 0
M  V30 6133 H 631.052 -7.48387 -1.33496 0
M  V30 6134 N 632.627 0.916307 -1.28225 0
M  V30 6135 C 633.537 2.05165 -1.13775 0
M  V30 6136 C 634.553 1.73879 -0.0649418 0
M  V30 6137 O 635.729 1.99531 -0.273722 0
M  V30 6138 C 632.794 3.37385 -0.798267 0
M  V30 6139 C 631.855 3.82296 -1.95316 0
M  V30 6140 C 631.088 5.08206 -1.62978 0
M  V30 6141 O 631.311 5.6781 -0.542948 0
M  V30 6142 O 630.245 5.48768 -2.47261 0
M  V30 6143 H 634.071 2.20273 -2.09078 0
M  V30 6144 H 631.656 1.0373 -1.07519 0
M  V30 6145 H 633.538 4.16773 -0.62278 0
M  V30 6146 H 632.213 3.23458 0.125139 0
M  V30 6147 H 631.12 3.03746 -2.18378 0
M  V30 6148 H 632.453 4.00782 -2.85718 0
M  V30 6149 N 634.105 1.10431 1.1244 0
M  V30 6150 C 635.521 0.836096 1.35947 0
M  V30 6151 C 635.721 -0.544475 1.94004 0
M  V30 6152 O 634.777 -1.29735 2.16622 0
M  V30 6153 C 636.09 1.93575 2.30107 0
M  V30 6154 C 637.638 1.9642 2.43697 0
M  V30 6155 C 638.113 3.05559 3.41171 0
M  V30 6156 N 639.604 3.04865 3.48728 0
M  V30 6157 C 640.339 3.85954 4.24061 0
M  V30 6158 N 639.835 4.76977 5.02458 0
M  V30 6159 N 641.628 3.74172 4.19466 0
M  V30 6160 H 633.779 1.9942 0.731124 0
M  V30 6161 H 636.042 0.866607 0.384312 0
M  V30 6162 H 635.748 2.92943 1.94621 0
M  V30 6163 H 635.622 1.8229 3.30227 0
M  V30 6164 H 638.009 0.97685 2.78463 0
M  V30 6165 H 638.09 2.11782 1.43465 0
M  V30 6166 H 637.734 4.04513 3.07135 0
M  V30 6167 H 637.664 2.87438 4.41234 0
M  V30 6168 H 640.155 2.38908 2.92799 0
M  V30 6169 H 640.468 5.35409 5.57277 0
M  V30 6170 H 638.813 4.81006 5.01655 0
M  V30 6171 H 642.004 3.02412 3.57302 0
M  V30 6172 H 642.177 4.37602 4.77921 0
M  V30 6173 N 635.583 -1.29855 0.893053 0
M  V30 6174 C 636.823 -1.97612 0.522399 0
M  V30 6175 C 637.187 -1.68903 -0.913 0
M  V30 6176 O 638.388 -2.30059 -1.39019 0
M  V30 6177 C 636.659 -3.48356 0.79893 0
M  V30 6178 S 638.218 -4.35568 0.531588 0
M  V30 6179 H 635.036 -0.684005 0.194058 0
M  V30 6180 H 637.638 -1.57803 1.15406 0
M  V30 6181 H 636.342 -3.66743 1.84196 0
M  V30 6182 H 635.873 -3.93094 0.155133 0
M  V30 6183 H 637.888 -4.92232 -0.626295 0
M  V30 6184 N 637.061 -0.65484 -1.43351 0
M  V30 6185 C 638.286 -0.175046 -2.0666 0
M  V30 6186 C 638.711 1.15104 -1.4877 0
M  V30 6187 O 638.069 1.71144 -0.598279 0
M  V30 6188 C 638.117 -0.0991544 -3.60464 0
M  V30 6189 O 637.221 0.938169 -4.01587 0
M  V30 6190 H 636.562 -0.0956148 -0.65708 0
M  V30 6191 H 639.092 -0.898222 -1.83829 0
M  V30 6192 H 639.102 0.083632 -4.07914 0
M  V30 6193 H 637.777 -1.06719 -4.01975 0
M  V30 6194 H 636.354 0.72804 -3.65724 0
M  V30 6195 N 638.539 1.52521 -0.396863 0
M  V30 6196 C 639.449 2.30403 0.44178 0
M  V30 6197 C 640.465 1.37625 1.06468 0
M  V30 6198 O 641.641 1.70697 1.06886 0
M  V30 6199 C 638.706 3.1013 1.54986 0
M  V30 6200 C 637.767 4.18628 0.951279 0
M  V30 6201 C 637 4.94543 2.00655 0
M  V30 6202 O 637.223 4.70629 3.22281 0
M  V30 6203 O 636.157 5.797 1.61962 0
M  V30 6204 H 639.983 3.03087 -0.192892 0
M  V30 6205 H 637.568 1.48537 -0.16038 0
M  V30 6206 H 639.45 3.59816 2.19341 0
M  V30 6207 H 638.125 2.40251 2.16935 0
M  V30 6208 H 637.032 3.73119 0.270773 0
M  V30 6209 H 638.365 4.90763 0.375887 0
M  V30 6210 N 640.017 0.126909 1.57088 0
M  V30 6211 C 641.265 -0.528123 1.95078 0
M  V30 6212 C 641.586 -1.66708 1.0116 0
M  V30 6213 O 640.856 -1.95777 0.0693527 0
M  V30 6214 H 639.436 -0.198087 0.720257 0
M  V30 6215 H 642.098 0.197703 1.93895 0
M  V30 6216 H 641.194 -0.917507 2.98309 0
M  V30 6217 N 641.495 -1.56914 -0.146875 0
M  V30 6218 C 642.741 -1.83628 -0.860741 0
M  V30 6219 C 643.074 -0.708528 -1.80813 0
M  V30 6220 O 642.349 0.287838 -1.92358 0
M  V30 6221 C 642.632 -3.20836 -1.63511 0
M  V30 6222 C 642.485 -4.44174 -0.709199 0
M  V30 6223 C 643.804 -3.55268 -2.59756 0
M  V30 6224 H 640.923 -0.667949 -0.311468 0
M  V30 6225 H 643.565 -1.89582 -0.125936 0
M  V30 6226 H 641.715 -3.15891 -2.26153 0
M  V30 6227 H 643.387 -4.61205 -0.0937781 0
M  V30 6228 H 641.63 -4.33796 -0.0187856 0
M  V30 6229 H 642.301 -5.36785 -1.28707 0
M  V30 6230 H 644.777 -3.60824 -2.07232 0
M  V30 6231 H 643.653 -4.52303 -3.10987 0
M  V30 6232 H 643.914 -2.81231 -3.41118 0
M  V30 6233 N 642.974 0.416227 -1.52004 0
M  V30 6234 C 644.221 1.16383 -1.65714 0
M  V30 6235 C 644.549 1.9068 -0.383594 0
M  V30 6236 O 643.804 1.85174 0.633185 0
M  V30 6237 C 644.103 2.18923 -2.82502 0
M  V30 6238 C 643.769 1.61485 -4.20991 0
M  V30 6239 C 642.431 1.45545 -4.58661 0
M  V30 6240 C 644.783 1.19468 -5.07323 0
M  V30 6241 C 642.111 0.860937 -5.80349 0
M  V30 6242 C 644.463 0.614386 -6.29609 0
M  V30 6243 C 643.127 0.442056 -6.66035 0
M  V30 6244 H 642.397 0.425875 -0.606392 0
M  V30 6245 H 645.044 0.45199 -1.8609 0
M  V30 6246 H 643.349 2.96225 -2.56433 0
M  V30 6247 H 645.046 2.76628 -2.90307 0
M  V30 6248 H 641.636 1.74873 -3.91302 0
M  V30 6249 H 645.82 1.30596 -4.78809 0
M  V30 6250 H 641.076 0.715372 -6.072 0
M  V30 6251 H 645.25 0.280393 -6.95835 0
M  V30 6252 H 642.877 -0.0207218 -7.60197 0
M  V30 6253 N 644.452 1.42507 0.673017 0
M  V30 6254 C 645.382 1.48916 1.79851 0
M  V30 6255 C 646.363 0.345566 1.66553 0
M  V30 6256 O 647.548 0.560116 1.85947 0
M  V30 6257 C 644.678 1.39258 3.18158 0
M  V30 6258 C 643.632 2.51662 3.46194 0
M  V30 6259 C 642.958 2.27062 4.84094 0
M  V30 6260 C 644.258 3.93968 3.42909 0
M  V30 6261 H 645.952 2.43114 1.74745 0
M  V30 6262 H 643.498 1.17013 0.839288 0
M  V30 6263 H 645.451 1.42349 3.96629 0
M  V30 6264 H 644.175 0.415542 3.23946 0
M  V30 6265 H 642.834 2.47891 2.70084 0
M  V30 6266 H 642.482 1.27648 4.86534 0
M  V30 6267 H 642.182 3.02398 5.03815 0
M  V30 6268 H 643.706 2.31905 5.64847 0
M  V30 6269 H 645.12 3.99332 4.11347 0
M  V30 6270 H 643.517 4.6917 3.74165 0
M  V30 6271 H 644.587 4.20512 2.41449 0
M  V30 6272 N 645.93 -0.909495 1.28709 0
M  V30 6273 C 646.86 -2.0291 1.15542 0
M  V30 6274 C 647.841 -1.7002 0.0521017 0
M  V30 6275 O 649.026 -1.92835 0.229849 0
M  V30 6276 C 646.156 -3.37458 0.820935 0
M  V30 6277 C 645.11 -3.84524 1.87949 0
M  V30 6278 C 644.436 -5.16086 1.39854 0
M  V30 6279 C 645.736 -4.05918 3.28676 0
M  V30 6280 H 647.43 -2.14183 2.09203 0
M  V30 6281 H 644.976 -1.02913 1.00722 0
M  V30 6282 H 646.929 -4.1528 0.715571 0
M  V30 6283 H 645.653 -3.26249 -0.151374 0
M  V30 6284 H 644.312 -3.08911 1.97408 0
M  V30 6285 H 643.96 -5.01284 0.41518 0
M  V30 6286 H 643.66 -5.48547 2.1064 0
M  V30 6287 H 645.184 -5.96459 1.30649 0
M  V30 6288 H 646.598 -4.74252 3.22115 0
M  V30 6289 H 644.995 -4.49717 3.97334 0
M  V30 6290 H 646.065 -3.10583 3.72379 0
M  V30 6291 N 647.408 -1.11026 -1.11852 0
M  V30 6292 C 648.636 -0.878818 -1.87308 0
M  V30 6293 C 649.051 0.57111 -1.79955 0
M  V30 6294 O 648.408 1.39409 -1.17777 0
M  V30 6295 C 648.459 -1.3264 -3.36287 0
M  V30 6296 O 648.18 -2.71948 -3.43476 0
M  V30 6297 C 649.681 -1.12974 -4.28663 0
M  V30 6298 H 646.901 -0.315015 -0.592458 0
M  V30 6299 H 649.445 -1.47649 -1.41492 0
M  V30 6300 H 647.6 -0.772269 -3.79625 0
M  V30 6301 H 648.014 -2.91241 -4.3621 0
M  V30 6302 H 649.488 -1.49198 -5.31454 0
M  V30 6303 H 649.965 -0.0689127 -4.39146 0
M  V30 6304 H 650.571 -1.67064 -3.91113 0
M  V30 6305 N 648.886 1.2938 -0.899927 0
M  V30 6306 C 650.114 1.99691 -0.541386 0
M  V30 6307 C 650.529 1.67355 0.873936 0
M  V30 6308 O 649.886 0.918728 1.57688 0
M  V30 6309 C 649.937 3.54168 -0.72438 0
M  V30 6310 O 649.658 3.85359 -2.08399 0
M  V30 6311 C 651.159 4.41746 -0.370819 0
M  V30 6312 H 648.379 0.638037 -0.207726 0
M  V30 6313 H 650.923 1.6491 -1.20934 0
M  V30 6314 H 649.078 3.87261 -0.103607 0
M  V30 6315 H 649.492 4.80032 -2.11352 0
M  V30 6316 H 650.966 5.49256 -0.549693 0
M  V30 6317 H 651.443 4.33712 0.692148 0
M  V30 6318 H 652.049 4.14125 -0.968543 0
M  V30 6319 N 650.364 0.662433 1.43002 0
M  V30 6320 C 651.592 0.187615 2.06048 0
M  V30 6321 C 652.007 -1.15039 1.49705 0
M  V30 6322 O 651.364 -1.71209 0.631956 0
M  V30 6323 C 651.415 0.100498 3.6136 0
M  V30 6324 O 651.136 1.38562 4.15611 0
M  V30 6325 C 652.637 -0.399298 4.41498 0
M  V30 6326 H 649.857 0.0941675 0.664359 0
M  V30 6327 H 652.401 0.905681 1.83351 0
M  V30 6328 H 650.556 -0.568181 3.83211 0
M  V30 6329 H 650.97 1.25084 5.09366 0
M  V30 6330 H 652.444 -0.409187 5.50481 0
M  V30 6331 H 652.921 -1.43232 4.15188 0
M  V30 6332 H 653.527 0.23721 4.24638 0
M  V30 6333 N 651.842 -1.52309 0.404946 0
M  V30 6334 C 653.253 -1.86585 -0.0655926 0
M  V30 6335 C 653.604 -1.3239 -1.44801 0
M  V30 6336 O 652.729 -0.6615 -2.06042 0
M  V30 6337 C 653.324 -3.38566 -0.125801 0
M  V30 6338 C 651.883 -3.72497 -0.540666 0
M  V30 6339 C 651.03 -2.75806 0.287487 0
M  V30 6340 H 653.981 -1.45995 0.622185 0
M  V30 6341 H 654.002 -3.68658 -0.941888 0
M  V30 6342 H 653.514 -3.77981 0.880473 0
M  V30 6343 H 651.615 -3.38659 -1.55373 0
M  V30 6344 H 651.728 -4.78234 -0.287956 0
M  V30 6345 H 650.092 -2.53474 -0.249561 0
M  V30 6346 H 650.875 -3.18059 1.29203 0
M  V30 6347 N 653.32 -0.135238 -1.57019 0
M  V30 6348 C 654.736 0.221262 -1.58059 0
M  V30 6349 C 654.936 1.65538 -1.14889 0
M  V30 6350 O 653.992 2.37985 -0.843751 0
M  V30 6351 C 655.305 -0.0268114 -3.00688 0
M  V30 6352 C 656.853 0.0378206 -3.12977 0
M  V30 6353 C 657.328 -0.182769 -4.57635 0
M  V30 6354 N 658.819 -0.129292 -4.6302 0
M  V30 6355 C 659.554 -0.274648 -5.72742 0
M  V30 6356 N 659.05 -0.477075 -6.91155 0
M  V30 6357 N 660.843 -0.213077 -5.61696 0
M  V30 6358 H 652.994 -1.07177 -1.83376 0
M  V30 6359 H 655.257 -0.423338 -0.848227 0
M  V30 6360 H 654.963 -1.01889 -3.36618 0
M  V30 6361 H 654.837 0.697863 -3.70688 0
M  V30 6362 H 657.224 1.02043 -2.76896 0
M  V30 6363 H 657.305 -0.718996 -2.45487 0
M  V30 6364 H 656.949 -1.16243 -4.94419 0
M  V30 6365 H 656.879 0.59423 -5.23237 0
M  V30 6366 H 659.37 0.0229896 -3.77893 0
M  V30 6367 H 659.683 -0.578413 -7.70632 0
M  V30 6368 H 658.028 -0.513252 -6.93102 0
M  V30 6369 H 661.219 -0.0557796 -4.68067 0
M  V30 6370 H 661.392 -0.329796 -6.4716 0
M  V30 6371 N 654.798 1.5699 0.138552 0
M  V30 6372 C 656.209 1.73171 0.697754 0
M  V30 6373 C 656.56 0.750952 1.8126 0
M  V30 6374 O 655.685 -0.080549 2.1625 0
M  V30 6375 C 656.28 3.13996 1.27248 0
M  V30 6376 C 654.839 3.3175 1.77816 0
M  V30 6377 C 653.986 2.69084 0.669991 0
M  V30 6378 H 656.937 1.5846 -0.0871979 0
M  V30 6379 H 656.958 3.14463 2.14227 0
M  V30 6380 H 656.47 3.85354 0.460855 0
M  V30 6381 H 654.571 2.65403 2.61519 0
M  V30 6382 H 654.684 4.39768 1.90107 0
M  V30 6383 H 653.048 2.29782 1.09874 0
M  V30 6384 H 653.831 3.43053 -0.130329 0
M  V30 6385 N 656.276 -0.40816 1.52223 0
M  V30 6386 C 657.522 -1.15673 1.66576 0
M  V30 6387 C 657.855 -1.90141 0.394996 0
M  V30 6388 O 657.13 -1.84798 -0.606613 0
M  V30 6389 C 657.413 -2.15042 2.88841 0
M  V30 6390 C 657.266 -1.44465 4.25969 0
M  V30 6391 C 658.585 -3.15699 3.0663 0
M  V30 6392 H 655.704 -0.41916 0.606196 0
M  V30 6393 H 658.346 -0.442348 1.84779 0
M  V30 6394 H 656.496 -2.75964 2.73452 0
M  V30 6395 H 658.168 -0.866544 4.53088 0
M  V30 6396 H 656.411 -0.746612 4.27327 0
M  V30 6397 H 657.082 -2.16976 5.07568 0
M  V30 6398 H 659.558 -2.64854 3.20923 0
M  V30 6399 H 658.434 -3.82491 3.9369 0
M  V30 6400 H 658.695 -3.83481 2.19987 0
M  V30 6401 N 657.755 -1.42862 -0.66545 0
M  V30 6402 C 659.004 -1.43119 -1.42126 0
M  V30 6403 C 659.317 -0.0545297 -1.95524 0
M  V30 6404 O 660.523 0.0654747 -2.71421 0
M  V30 6405 C 658.979 -2.51797 -2.5715 0
M  V30 6406 C 658.587 -3.95514 -2.10411 0
M  V30 6407 C 660.331 -2.61233 -3.346 0
M  V30 6408 C 658.238 -4.95682 -3.22573 0
M  V30 6409 H 657.168 -0.532349 -0.533966 0
M  V30 6410 H 659.819 -1.68806 -0.719506 0
M  V30 6411 H 658.201 -2.19292 -3.29738 0
M  V30 6412 H 659.375 -4.3742 -1.44915 0
M  V30 6413 H 657.69 -3.90012 -1.45874 0
M  V30 6414 H 660.287 -3.33248 -4.18151 0
M  V30 6415 H 660.63 -1.65896 -3.81817 0
M  V30 6416 H 661.163 -2.9298 -2.69087 0
M  V30 6417 H 657.902 -5.92529 -2.80338 0
M  V30 6418 H 657.422 -4.58399 -3.86821 0
M  V30 6419 H 659.101 -5.17828 -3.87896 0
M  V30 6420 N 659.233 0.902656 -1.29189 0
M  V30 6421 C 660.479 1.65532 -1.17163 0
M  V30 6422 C 660.812 1.92216 0.276879 0
M  V30 6423 O 660.087 1.53048 1.20027 0
M  V30 6424 C 660.37 3.00629 -1.98228 0
M  V30 6425 C 660.223 2.81029 -3.51202 0
M  V30 6426 C 661.542 4.01321 -1.80635 0
M  V30 6427 H 658.661 0.60071 -0.426985 0
M  V30 6428 H 661.303 1.04578 -1.5863 0
M  V30 6429 H 659.453 3.52656 -1.62991 0
M  V30 6430 H 661.125 2.35927 -3.96404 0
M  V30 6431 H 659.368 2.1587 -3.76275 0
M  V30 6432 H 660.039 3.77014 -4.03192 0
M  V30 6433 H 662.515 3.58394 -2.11406 0
M  V30 6434 H 661.391 4.93792 -2.3971 0
M  V30 6435 H 661.652 4.35505 -0.760754 0
M  V30 6436 N 660.711 1.11618 1.11262 0
M  V30 6437 C 661.621 0.78898 2.20935 0
M  V30 6438 C 662.637 -0.21867 1.7262 0
M  V30 6439 O 663.813 -0.0543826 2.01327 0
M  V30 6440 C 660.878 0.239014 3.45875 0
M  V30 6441 C 659.939 1.3055 4.08968 0
M  V30 6442 C 659.172 0.781687 5.27944 0
M  V30 6443 O 659.395 -0.387605 5.69082 0
M  V30 6444 O 658.329 1.54734 5.81671 0
M  V30 6445 H 662.155 1.70477 2.51339 0
M  V30 6446 H 659.74 0.892203 1.19834 0
M  V30 6447 H 661.622 -0.0632312 4.21353 0
M  V30 6448 H 660.297 -0.649454 3.17118 0
M  V30 6449 H 659.204 1.66079 3.35214 0
M  V30 6450 H 660.537 2.16743 4.41909 0
M  V30 6451 N 662.189 -1.289 0.906776 0
M  V30 6452 C 663.6 -1.77336 0.58384 0
M  V30 6453 C 663.951 -1.74304 -0.900697 0
M  V30 6454 O 663.076 -1.33335 -1.70443 0
M  V30 6455 C 663.671 -3.22019 1.05304 0
M  V30 6456 C 662.23 -3.68205 0.781148 0
M  V30 6457 C 661.377 -2.48837 1.22373 0
M  V30 6458 H 664.328 -1.15462 1.08877 0
M  V30 6459 H 664.349 -3.78481 0.391414 0
M  V30 6460 H 663.861 -3.24194 2.13353 0
M  V30 6461 H 661.962 -3.71497 -0.28643 0
M  V30 6462 H 662.075 -4.58675 1.384 0
M  V30 6463 H 660.439 -2.46461 0.642594 0
M  V30 6464 H 661.222 -2.53736 2.31242 0
M  V30 6465 N 663.667 -0.670007 -1.42649 0
M  V30 6466 C 664.597 -0.00258501 -2.335 0
M  V30 6467 C 665.578 0.794364 -1.50412 0
M  V30 6468 O 666.763 0.75248 -1.79029 0
M  V30 6469 C 663.893 0.952748 -3.33976 0
M  V30 6470 C 662.847 0.264733 -4.2718 0
M  V30 6471 C 662.173 1.33267 -5.17826 0
M  V30 6472 C 663.473 -0.853289 -5.15283 0
M  V30 6473 H 665.167 -0.761326 -2.89559 0
M  V30 6474 H 662.713 -0.367561 -1.3923 0
M  V30 6475 H 664.666 1.4287 -3.96442 0
M  V30 6476 H 663.39 1.74285 -2.7621 0
M  V30 6477 H 662.049 -0.190938 -3.66102 0
M  V30 6478 H 661.697 2.11464 -4.5639 0
M  V30 6479 H 661.397 0.877476 -5.81011 0
M  V30 6480 H 662.921 1.80965 -5.83167 0
M  V30 6481 H 664.335 -0.458763 -5.71462 0
M  V30 6482 H 662.732 -1.23398 -5.87276 0
M  V30 6483 H 663.802 -1.70412 -4.53969 0
M  V30 6484 N 665.145 1.52092 -0.413018 0
M  V30 6485 C 666.055 2.30858 0.417318 0
M  V30 6486 C 667.071 1.38746 1.05003 0
M  V30 6487 O 668.247 1.71821 1.05069 0
M  V30 6488 C 665.312 3.11756 1.51687 0
M  V30 6489 C 664.373 4.19613 0.906825 0
M  V30 6490 C 663.606 4.96644 1.95399 0
M  V30 6491 O 663.829 4.7402 3.17271 0
M  V30 6492 O 662.763 5.81385 1.55805 0
M  V30 6493 H 666.589 3.02865 -0.225028 0
M  V30 6494 H 664.174 1.48358 -0.176126 0
M  V30 6495 H 666.056 3.62122 2.15512 0
M  V30 6496 H 664.731 2.42539 2.14375 0
M  V30 6497 H 663.638 3.73385 0.231183 0
M  V30 6498 H 664.971 4.91134 0.323814 0
M  V30 6499 N 666.623 0.143563 1.56945 0
M  V30 6500 C 667.555 -0.828353 2.13708 0
M  V30 6501 C 668.568 -1.21313 1.08568 0
M  V30 6502 O 669.757 -1.1578 1.35857 0
M  V30 6503 C 666.857 -2.12248 2.64204 0
M  V30 6504 C 666.03 -1.90561 3.93707 0
M  V30 6505 C 665.089 -3.03931 4.29549 0
M  V30 6506 O 664.115 -2.75772 4.97934 0
M  V30 6507 N 665.317 -4.31016 3.88852 0
M  V30 6508 H 668.082 -0.343242 2.97728 0
M  V30 6509 H 665.643 -0.0401152 1.6185 0
M  V30 6510 H 667.635 -2.87132 2.85197 0
M  V30 6511 H 666.205 -2.52033 1.84928 0
M  V30 6512 H 665.425 -0.997327 3.81375 0
M  V30 6513 H 666.713 -1.73405 4.78339 0
M  V30 6514 H 666.111 -4.56762 3.33743 0
M  V30 6515 H 664.668 -5.02691 4.14903 0
M  V30 6516 N 668.101 -1.57061 -0.130224 0
M  V30 6517 C 669.031 -2.02552 -1.16168 0
M  V30 6518 C 670.012 -0.907971 -1.4384 0
M  V30 6519 O 671.197 -1.17693 -1.54473 0
M  V30 6520 C 668.327 -2.42035 -2.49071 0
M  V30 6521 C 667.281 -3.5713 -2.35886 0
M  V30 6522 C 666.607 -3.82478 -3.7365 0
M  V30 6523 C 667.907 -4.89236 -1.8288 0
M  V30 6524 H 669.601 -2.8897 -0.783359 0
M  V30 6525 H 667.147 -1.39021 -0.375376 0
M  V30 6526 H 669.1 -2.72462 -3.21469 0
M  V30 6527 H 667.824 -1.52573 -2.88771 0
M  V30 6528 H 666.483 -3.26895 -1.65938 0
M  V30 6529 H 666.131 -2.9024 -4.10816 0
M  V30 6530 H 665.831 -4.59944 -3.65685 0
M  V30 6531 H 667.355 -4.15347 -4.47571 0
M  V30 6532 H 668.769 -5.18272 -2.45085 0
M  V30 6533 H 667.166 -5.70624 -1.85763 0
M  V30 6534 H 668.236 -4.78494 -0.785571 0
M  V30 6535 N 669.579 0.400081 -1.52437 0
M  V30 6536 C 670.856 1.15973 -1.57511 0
M  V30 6537 C 671.236 2.0798 -0.361572 0
M  V30 6538 O 670.584 2.19032 0.650929 0
M  V30 6539 C 670.794 1.92912 -2.90837 0
M  V30 6540 C 672.142 2.48662 -3.44169 0
M  V30 6541 O 673.166 2.03081 -2.92637 0
M  V30 6542 O 672.025 3.31894 -4.34176 0
M  V30 6543 H 669.119 0.530023 -0.634827 0
M  V30 6544 H 671.665 0.40613 -1.64769 0
M  V30 6545 H 670.437 1.25564 -3.70607 0
M  V30 6546 H 670.06 2.75257 -2.86913 0
M  V30 6547 N 671.057 1.43213 0.657864 0
M  V30 6548 C 672.334 1.35063 1.41483 0
M  V30 6549 C 672.714 -0.0038314 2.111 0
M  V30 6550 O 672.062 -1.02018 2.04462 0
M  V30 6551 C 672.272 2.53061 2.40335 0
M  V30 6552 C 673.62 2.9594 3.04474 0
M  V30 6553 O 674.644 2.53074 2.50663 0
M  V30 6554 O 673.503 3.70184 4.02027 0
M  V30 6555 H 670.597 0.533517 0.631893 0
M  V30 6556 H 673.143 1.55253 0.685162 0
M  V30 6557 H 671.915 3.43283 1.87809 0
M  V30 6558 H 671.538 2.34945 3.20759 0
M  V30 6559 N 672.536 -0.895792 1.29666 0
M  V30 6560 C 673.446 -2.03329 1.17024 0
M  V30 6561 C 674.462 -1.73753 0.0925962 0
M  V30 6562 O 675.638 -1.99071 0.305431 0
M  V30 6563 C 672.703 -3.36072 0.851841 0
M  V30 6564 C 671.764 -3.7914 2.01373 0
M  V30 6565 C 670.997 -5.05549 1.71043 0
M  V30 6566 O 671.22 -5.66874 0.633213 0
M  V30 6567 O 670.154 -5.44764 2.5596 0
M  V30 6568 H 673.98 -2.16918 2.12556 0
M  V30 6569 H 671.565 -1.02007 1.09156 0
M  V30 6570 H 673.447 -4.15729 0.689006 0
M  V30 6571 H 672.122 -3.23616 -0.0736634 0
M  V30 6572 H 671.029 -3.00233 2.23183 0
M  V30 6573 H 672.362 -3.96186 2.92058 0
M  V30 6574 N 674.014 -1.12206 -1.10668 0
M  V30 6575 C 675.291 -0.787382 -1.79052 0
M  V30 6576 C 675.671 0.723267 -1.98323 0
M  V30 6577 O 675.019 1.6561 -1.57434 0
M  V30 6578 C 675.229 -1.55968 -3.1221 0
M  V30 6579 C 676.577 -1.74413 -3.87125 0
M  V30 6580 O 677.601 -1.5246 -3.21923 0
M  V30 6581 O 676.46 -2.10952 -5.04144 0
M  V30 6582 H 673.554 -0.286137 -0.775922 0
M  V30 6583 H 676.1 -1.22595 -1.1734 0
M  V30 6584 H 674.872 -2.58692 -2.93588 0
M  V30 6585 H 674.495 -1.1152 -3.8164 0
M  V30 6586 N 675.492 1.28418 -0.913599 0
M  V30 6587 C 676.74 1.94596 -0.545594 0
M  V30 6588 C 677.061 1.7227 0.913668 0
M  V30 6589 O 676.331 1.06233 1.64595 0
M  V30 6590 H 674.911 0.720065 -0.198783 0
M  V30 6591 H 677.573 1.56404 -1.16292 0
M  V30 6592 H 676.669 3.03202 -0.739911 0
M  V30 6593 N 676.97 0.677563 1.42291 0
M  V30 6594 C 677.9 0.014968 2.33495 0
M  V30 6595 C 678.881 -0.786376 1.50831 0
M  V30 6596 O 680.066 -0.742975 1.79426 0
M  V30 6597 C 677.196 -0.935023 3.34477 0
M  V30 6598 C 676.15 -0.242074 4.27315 0
M  V30 6599 C 675.476 -1.30519 5.18526 0
M  V30 6600 C 676.776 0.880604 5.14823 0
M  V30 6601 H 678.47 0.776671 2.89151 0
M  V30 6602 H 676.016 0.37494 1.39033 0
M  V30 6603 H 677.969 -1.40766 3.97194 0
M  V30 6604 H 676.693 -1.72818 2.77131 0
M  V30 6605 H 675.352 0.210351 3.65996 0
M  V30 6606 H 675 -2.09041 4.57505 0
M  V30 6607 H 674.7 -0.846652 5.81468 0
M  V30 6608 H 676.224 -1.7787 5.84119 0
M  V30 6609 H 677.638 0.489062 5.7121 0
M  V30 6610 H 676.035 1.26511 5.86613 0
M  V30 6611 H 677.105 1.72818 4.53059 0
M  V30 6612 N 678.448 -1.51871 0.421078 0
M  V30 6613 C 679.859 -1.86644 -0.0457991 0
M  V30 6614 C 680.21 -1.33919 -1.43388 0
M  V30 6615 O 679.335 -0.683316 -2.05328 0
M  V30 6616 C 679.93 -3.38681 -0.0898844 0
M  V30 6617 C 678.489 -3.73049 -0.501127 0
M  V30 6618 C 677.636 -2.75485 0.316723 0
M  V30 6619 H 680.587 -1.45327 0.637635 0
M  V30 6620 H 680.608 -3.69636 -0.902734 0
M  V30 6621 H 680.12 -3.77025 0.920513 0
M  V30 6622 H 678.221 -3.40288 -1.51773 0
M  V30 6623 H 678.334 -4.78512 -0.237217 0
M  V30 6624 H 676.698 -2.53725 -0.222663 0
M  V30 6625 H 677.481 -3.16671 1.32569 0
M  V30 6626 N 679.926 -0.151884 -1.56866 0
M  V30 6627 C 680.836 0.798876 -2.20579 0
M  V30 6628 C 681.852 1.268 -1.19154 0
M  V30 6629 O 683.028 1.32418 -1.51748 0
M  V30 6630 C 680.093 2.01861 -2.81874 0
M  V30 6631 C 679.154 1.59825 -3.9844 0
M  V30 6632 C 678.387 2.75984 -4.56802 0
M  V30 6633 O 678.61 3.92331 -4.14044 0
M  V30 6634 O 677.544 2.51175 -5.46987 0
M  V30 6635 H 681.37 0.2865 -3.02346 0
M  V30 6636 H 678.955 0.0753806 -1.4921 0
M  V30 6637 H 680.837 2.73235 -3.20813 0
M  V30 6638 H 679.512 2.52042 -2.03117 0
M  V30 6639 H 678.419 0.854601 -3.64208 0
M  V30 6640 H 679.752 1.14355 -4.78731 0
M  V30 6641 N 681.404 1.57128 0.121893 0
M  V30 6642 C 682.351 2.0013 1.14964 0
M  V30 6643 C 683.321 0.872959 1.4131 0
M  V30 6644 O 684.506 1.13696 1.53225 0
M  V30 6645 C 681.646 2.40824 2.4718 0
M  V30 6646 C 680.759 3.67061 2.27794 0
M  V30 6647 C 679.894 3.96749 3.53219 0
M  V30 6648 C 678.933 5.16178 3.28978 0
M  V30 6649 N 678.07 5.41751 4.46599 0
M  V30 6650 H 682.91 2.8772 0.775947 0
M  V30 6651 H 680.447 1.42328 0.371652 0
M  V30 6652 H 682.405 2.62454 3.24305 0
M  V30 6653 H 681.035 1.56279 2.82448 0
M  V30 6654 H 680.087 3.53063 1.416 0
M  V30 6655 H 681.399 4.5434 2.05857 0
M  V30 6656 H 680.553 4.19012 4.38764 0
M  V30 6657 H 679.292 3.07941 3.78185 0
M  V30 6658 H 678.297 4.93762 2.41824 0
M  V30 6659 H 679.522 6.06561 3.05386 0
M  V30 6660 H 677.468 4.55899 4.71691 0
M  V30 6661 H 677.385 6.23347 4.27756 0
M  V30 6662 H 678.653 5.68531 5.33285 0
M  V30 6663 N 682.882 -0.391992 1.52647 0
M  V30 6664 C 683.812 -1.48517 1.8018 0
M  V30 6665 C 684.793 -1.57039 0.653667 0
M  V30 6666 O 685.978 -1.72036 0.900962 0
M  V30 6667 C 683.108 -2.86161 1.96797 0
M  V30 6668 C 682.062 -2.92481 3.12472 0
M  V30 6669 C 681.388 -4.32546 3.14338 0
M  V30 6670 C 682.688 -2.624 4.51601 0
M  V30 6671 H 684.382 -1.25726 2.71723 0
M  V30 6672 H 681.928 -0.603387 1.30749 0
M  V30 6673 H 683.881 -3.62639 2.14641 0
M  V30 6674 H 682.605 -3.10283 1.01941 0
M  V30 6675 H 681.264 -2.18451 2.94406 0
M  V30 6676 H 680.912 -4.53703 2.1717 0
M  V30 6677 H 680.612 -4.37695 3.92042 0
M  V30 6678 H 682.136 -5.10934 3.34333 0
M  V30 6679 H 683.55 -3.28596 4.69785 0
M  V30 6680 H 681.947 -2.78903 5.3135 0
M  V30 6681 H 683.017 -1.57754 4.58521 0
M  V30 6682 N 684.36 -1.4356 -0.65026 0
M  V30 6683 C 685.323 -1.48615 -1.74489 0
M  V30 6684 C 686.323 -0.370483 -1.56474 0
M  V30 6685 O 687.513 -0.632351 -1.62317 0
M  V30 6686 C 684.645 -1.34161 -3.13391 0
M  V30 6687 H 685.838 -2.46103 -1.71387 0
M  V30 6688 H 683.391 -1.30369 -0.862186 0
M  V30 6689 H 684.126 -0.376918 -3.22102 0
M  V30 6690 H 683.911 -2.1504 -3.27872 0
M  V30 6691 H 685.401 -1.40637 -3.93206 0
M  V30 6692 N 685.838 0.888903 -1.30139 0
M  V30 6693 C 686.77 1.99972 -1.11999 0
M  V30 6694 C 687.783 1.62673 -0.0643619 0
M  V30 6695 O 688.972 1.75788 -0.309983 0
M  V30 6696 C 686.072 3.31904 -0.685059 0
M  V30 6697 C 685.245 3.97665 -1.82158 0
M  V30 6698 C 684.304 5.07894 -1.37585 0
M  V30 6699 O 683.33 5.2974 -2.08241 0
M  V30 6700 N 684.532 5.7995 -0.252697 0
M  V30 6701 H 687.297 2.16085 -2.07671 0
M  V30 6702 H 684.858 1.06175 -1.22223 0
M  V30 6703 H 686.85 4.03005 -0.369964 0
M  V30 6704 H 685.42 3.12084 0.179507 0
M  V30 6705 H 684.64 3.19787 -2.305 0
M  V30 6706 H 685.928 4.3834 -2.58332 0
M  V30 6707 H 685.326 5.647 0.336141 0
M  V30 6708 H 683.883 6.518 0.00296813 0
M  V30 6709 N 687.317 1.12792 1.10072 0
M  V30 6710 C 688.264 0.79921 2.16521 0
M  V30 6711 C 689.234 -0.235726 1.64419 0
M  V30 6712 O 690.419 -0.109457 1.90486 0
M  V30 6713 C 687.559 0.264091 3.44088 0
M  V30 6714 C 686.672 1.35729 4.10124 0
M  V30 6715 C 685.807 0.781212 5.25424 0
M  V30 6716 C 684.846 1.85327 5.8337 0
M  V30 6717 N 683.983 1.29564 6.90042 0
M  V30 6718 H 688.823 1.71105 2.43981 0
M  V30 6719 H 686.36 0.854225 1.19756 0
M  V30 6720 H 688.318 -0.0642423 4.17151 0
M  V30 6721 H 686.948 -0.610901 3.16967 0
M  V30 6722 H 686 1.80234 3.34993 0
M  V30 6723 H 687.312 2.16782 4.4923 0
M  V30 6724 H 686.466 0.403769 6.05355 0
M  V30 6725 H 685.205 -0.0604686 4.87663 0
M  V30 6726 H 684.21 2.23986 5.02106 0
M  V30 6727 H 685.435 2.69824 6.23195 0
M  V30 6728 H 683.381 0.475844 6.54272 0
M  V30 6729 H 683.298 2.04271 7.2788 0
M  V30 6730 H 684.566 0.945545 7.73744 0
M  V30 6731 N 688.795 -1.27931 0.920396 0
M  V30 6732 C 689.743 -2.29061 0.404191 0
M  V30 6733 C 690.737 -1.61615 -0.507634 0
M  V30 6734 O 691.943 -1.75765 -0.388144 0
M  V30 6735 H 688.318 -0.743594 0.112123 0
M  V30 6736 H 690.289 -2.70021 1.27008 0
M  V30 6737 C 689.038 -3.46088 -0.334466 0
M  V30 6738 H 688.361 -3.98194 0.35797 0
M  V30 6739 H 689.801 -4.18829 -0.660196 0
M  V30 6740 C 688.26 -2.99396 -1.54479 0
M  V30 6741 O 688.79 -3.02439 -2.64374 0
M  V30 6742 N 686.996 -2.54978 -1.39408 0
M  V30 6743 H 686.543 -2.52701 -0.500009 0
M  V30 6744 H 686.501 -2.24098 -2.20516 0
M  V30 6745 N 690.273 -0.685099 -1.4193 0
M  V30 6746 C 691.684 -0.287699 -1.8447 0
M  V30 6747 C 692.035 1.17215 -1.57338 0
M  V30 6748 O 691.16 1.89856 -1.03845 0
M  V30 6749 C 691.755 -0.515385 -3.34857 0
M  V30 6750 C 690.314 -0.172006 -3.76007 0
M  V30 6751 C 689.461 -0.802808 -2.65425 0
M  V30 6752 H 692.412 -0.88652 -1.3163 0
M  V30 6753 H 692.433 0.229251 -3.79809 0
M  V30 6754 H 691.945 -1.57796 -3.54573 0
M  V30 6755 H 690.046 0.886716 -3.61895 0
M  V30 6756 H 690.159 -0.619717 -4.75075 0
M  V30 6757 H 688.523 -0.233267 -2.5363 0
M  V30 6758 H 689.306 -1.86904 -2.87961 0
M  V30 6759 N 691.751 1.51645 -0.429126 0
M  V30 6760 C 692.684 2.24083 0.431492 0
M  V30 6761 C 693.662 1.25691 1.03153 0
M  V30 6762 O 694.846 1.54802 1.07557 0
M  V30 6763 C 691.973 2.9849 1.60067 0
M  V30 6764 C 691.019 4.11474 1.12211 0
M  V30 6765 S 691.852 5.35453 0.0708449 0
M  V30 6766 C 693.008 6.13395 1.24488 0
M  V30 6767 H 693.241 2.96733 -0.183525 0
M  V30 6768 H 690.774 1.52916 -0.213574 0
M  V30 6769 H 692.732 3.4196 2.27099 0
M  V30 6770 H 691.393 2.25445 2.18708 0
M  V30 6771 H 690.586 4.62784 1.99618 0
M  V30 6772 H 690.188 3.70223 0.530149 0
M  V30 6773 H 692.48 6.41984 2.16479 0
M  V30 6774 H 693.423 7.0388 0.771921 0
M  V30 6775 H 693.831 5.44761 1.47973 0
M  V30 6776 N 693.229 0.160201 1.56784 0
M  V30 6777 C 694.459 -0.493449 2.00621 0
M  V30 6778 C 694.867 -1.5809 1.03943 0
M  V30 6779 O 694.21 -1.83675 0.0305343 0
M  V30 6780 C 694.272 -1.14169 3.4089 0
M  V30 6781 C 693.936 -0.197243 4.56574 0
M  V30 6782 C 694.933 0.580174 5.16653 0
M  V30 6783 C 692.618 -0.0963038 5.02208 0
M  V30 6784 C 694.612 1.44584 6.20785 0
M  V30 6785 C 692.299 0.772959 6.06192 0
M  V30 6786 C 693.297 1.54263 6.65351 0
M  V30 6787 O 692.985 2.39738 7.67321 0
M  V30 6788 H 692.717 -0.131764 0.663034 0
M  V30 6789 H 695.271 0.255728 2.03802 0
M  V30 6790 H 693.501 -1.93877 3.34587 0
M  V30 6791 H 695.19 -1.69641 3.6875 0
M  V30 6792 H 695.956 0.5123 4.82287 0
M  V30 6793 H 691.835 -0.685143 4.5588 0
M  V30 6794 H 695.379 2.04706 6.66889 0
M  V30 6795 H 691.276 0.842077 6.39984 0
M  V30 6796 H 692.044 2.33131 7.84597 0
M  V30 6797 N 694.707 -1.5719 -0.113559 0
M  V30 6798 C 695.639 -1.97393 -1.16484 0
M  V30 6799 C 696.652 -0.873964 -1.37352 0
M  V30 6800 O 697.841 -1.15222 -1.36331 0
M  V30 6801 C 694.941 -2.26174 -2.52386 0
M  V30 6802 C 694.114 -3.57479 -2.52046 0
M  V30 6803 C 693.173 -3.74409 -3.69735 0
M  V30 6804 O 692.199 -4.46463 -3.53071 0
M  V30 6805 N 693.401 -3.13588 -4.88511 0
M  V30 6806 H 696.166 -2.88184 -0.822814 0
M  V30 6807 H 693.727 -1.59044 -0.302769 0
M  V30 6808 H 695.719 -2.3471 -3.29687 0
M  V30 6809 H 694.289 -1.41483 -2.7875 0
M  V30 6810 H 693.509 -3.60081 -1.60421 0
M  V30 6811 H 694.797 -4.43775 -2.48881 0
M  V30 6812 H 694.195 -2.55026 -5.04953 0
M  V30 6813 H 692.752 -3.27637 -5.63469 0
M  V30 6814 N 696.185 0.383891 -1.52853 0
M  V30 6815 C 697.132 1.46924 -1.77995 0
M  V30 6816 C 698.102 1.53958 -0.623396 0
M  V30 6817 O 699.287 1.70134 -0.863657 0
M  V30 6818 C 696.427 2.84093 -1.95921 0
M  V30 6819 C 695.54 2.86171 -3.23621 0
M  V30 6820 C 694.675 4.14799 -3.31836 0
M  V30 6821 C 693.714 4.10948 -4.53639 0
M  V30 6822 N 692.851 5.31192 -4.59107 0
M  V30 6823 H 697.691 1.24786 -2.70615 0
M  V30 6824 H 695.228 0.605265 -1.34071 0
M  V30 6825 H 697.186 3.63755 -2.04299 0
M  V30 6826 H 695.816 3.04671 -1.06656 0
M  V30 6827 H 694.868 1.9885 -3.24288 0
M  V30 6828 H 696.18 2.79194 -4.13343 0
M  V30 6829 H 695.334 5.02867 -3.39425 0
M  V30 6830 H 694.073 4.24505 -2.40097 0
M  V30 6831 H 693.078 3.21268 -4.46169 0
M  V30 6832 H 694.303 4.0286 -5.467 0
M  V30 6833 H 692.249 5.41518 -3.70262 0
M  V30 6834 H 692.166 5.26311 -5.42708 0
M  V30 6835 H 693.434 6.21143 -4.70958 0
M  V30 6836 N 697.663 1.43903 0.642637 0
M  V30 6837 C 698.573 1.52349 1.78401 0
M  V30 6838 C 699.589 0.409869 1.69104 0
M  V30 6839 O 700.765 0.665548 1.90085 0
M  V30 6840 C 697.83 1.45408 3.14734 0
M  V30 6841 C 696.891 2.67528 3.35749 0
M  V30 6842 C 696.124 2.60909 4.65577 0
M  V30 6843 O 696.347 1.6627 5.45628 0
M  V30 6844 O 695.281 3.5158 4.88544 0
M  V30 6845 H 699.107 2.48752 1.7423 0
M  V30 6846 H 696.692 1.26021 0.802439 0
M  V30 6847 H 698.574 1.44019 3.96026 0
M  V30 6848 H 697.249 0.521437 3.19473 0
M  V30 6849 H 696.156 2.74487 2.5418 0
M  V30 6850 H 697.489 3.598 3.35864 0
M  V30 6851 N 699.141 -0.881989 1.30609 0
M  V30 6852 C 700.557 -1.16576 1.09005 0
M  V30 6853 C 700.757 -2.00961 -0.14727 0
M  V30 6854 O 699.813 -2.38117 -0.840036 0
M  V30 6855 C 701.126 -1.86954 2.35518 0
M  V30 6856 C 702.674 -1.99706 2.41011 0
M  V30 6857 C 703.149 -2.73497 3.67374 0
M  V30 6858 N 704.64 -2.8104 3.68199 0
M  V30 6859 C 705.375 -3.38718 4.62664 0
M  V30 6860 N 704.871 -3.97421 5.67475 0
M  V30 6861 N 706.664 -3.36561 4.50203 0
M  V30 6862 H 698.815 -0.319398 2.09985 0
M  V30 6863 H 701.078 -0.204058 0.925778 0
M  V30 6864 H 700.784 -1.32393 3.2583 0
M  V30 6865 H 700.658 -2.87317 2.44395 0
M  V30 6866 H 703.045 -2.53436 1.51176 0
M  V30 6867 H 703.126 -0.984218 2.36108 0
M  V30 6868 H 702.77 -2.20438 4.57569 0
M  V30 6869 H 702.7 -3.75163 3.6954 0
M  V30 6870 H 705.191 -2.39365 2.92426 0
M  V30 6871 H 705.504 -4.39507 6.35652 0
M  V30 6872 H 703.849 -3.95832 5.71264 0
M  V30 6873 H 707.04 -2.8993 3.67503 0
M  V30 6874 H 707.213 -3.81215 5.24003 0
M  V30 6875 N 700.619 -1.13374 -1.09472 0
M  V30 6876 C 701.529 -0.824029 -2.19652 0
M  V30 6877 C 702.545 0.19118 -1.72947 0
M  V30 6878 O 703.721 0.0223464 -2.01388 0
M  V30 6879 C 700.786 -0.294009 -3.45451 0
M  V30 6880 C 699.847 -1.3704 -4.0684 0
M  V30 6881 C 699.08 -0.86558 -5.26634 0
M  V30 6882 O 699.303 0.29702 -5.69626 0
M  V30 6883 O 698.237 -1.63968 -5.79136 0
M  V30 6884 H 702.063 -1.74454 -2.48595 0
M  V30 6885 H 699.648 -0.911155 -1.18399 0
M  V30 6886 H 701.53 -0.00381039 -4.214 0
M  V30 6887 H 700.205 0.598921 -3.18111 0
M  V30 6888 H 699.112 -1.71391 -3.3253 0
M  V30 6889 H 700.445 -2.23746 -4.38405 0
M  V30 6890 N 702.098 1.27442 -0.927168 0
M  V30 6891 C 703.326 1.98498 -0.583622 0
M  V30 6892 C 703.741 1.69171 0.838241 0
M  V30 6893 O 703.098 0.951969 1.55704 0
M  V30 6894 C 703.149 3.52552 -0.799341 0
M  V30 6895 O 702.87 3.80851 -2.16527 0
M  V30 6896 C 704.371 4.4086 -0.464436 0
M  V30 6897 H 701.591 0.633487 -0.221213 0
M  V30 6898 H 704.135 1.62308 -1.24404 0
M  V30 6899 H 702.29 3.86955 -0.185728 0
M  V30 6900 H 702.704 4.75441 -2.21487 0
M  V30 6901 H 704.178 5.47967 -0.666075 0
M  V30 6902 H 704.655 4.35082 0.599995 0
M  V30 6903 H 705.261 4.11977 -1.05617 0
M  V30 6904 N 703.576 0.692616 1.41565 0
M  V30 6905 C 704.987 0.297478 1.84315 0
M  V30 6906 C 705.338 -1.16379 1.57957 0
M  V30 6907 O 704.463 -1.89303 1.0485 0
M  V30 6908 C 705.058 0.533136 3.34579 0
M  V30 6909 C 703.617 0.191944 3.7591 0
M  V30 6910 C 702.764 0.816873 2.64995 0
M  V30 6911 H 705.715 0.893488 1.31158 0
M  V30 6912 H 705.736 -0.209105 3.79925 0
M  V30 6913 H 705.248 1.59674 3.53731 0
M  V30 6914 H 703.349 -0.867512 3.6236 0
M  V30 6915 H 703.462 0.644902 4.7474 0
M  V30 6916 H 701.826 0.246715 2.53502 0
M  V30 6917 H 702.609 1.88429 2.86966 0
M  V30 6918 N 705.054 -1.51416 0.437162 0
M  V30 6919 C 706.465 -1.86682 -0.0260005 0
M  V30 6920 C 706.816 -1.35432 -1.4196 0
M  V30 6921 O 705.941 -0.705055 -2.04592 0
M  V30 6922 C 706.536 -3.38757 -0.0539577 0
M  V30 6923 C 705.095 -3.7356 -0.461532 0
M  V30 6924 C 704.242 -2.75134 0.345924 0
M  V30 6925 H 707.193 -1.44642 0.653013 0
M  V30 6926 H 707.214 -3.70573 -0.863478 0
M  V30 6927 H 706.726 -3.76028 0.96045 0
M  V30 6928 H 704.827 -3.41878 -1.48155 0
M  V30 6929 H 704.94 -4.78737 -0.186451 0
M  V30 6930 H 703.304 -2.53947 -0.195739 0
M  V30 6931 H 704.087 -3.15247 1.35921 0
M  V30 6932 N 706.532 -0.168513 -1.56696 0
M  V30 6933 C 707.948 0.187686 -1.58493 0
M  V30 6934 C 708.148 1.63063 -1.18375 0
M  V30 6935 O 707.204 2.36142 -0.894042 0
M  V30 6936 C 708.517 -0.0905858 -3.00564 0
M  V30 6937 C 710.065 -0.028575 -3.12987 0
M  V30 6938 C 710.54 -0.279799 -4.57145 0
M  V30 6939 N 712.031 -0.227476 -4.62641 0
M  V30 6940 C 712.766 -0.396073 -5.7203 0
M  V30 6941 N 712.262 -0.623572 -6.89988 0
M  V30 6942 N 714.055 -0.332173 -5.61118 0
M  V30 6943 H 706.206 -1.11042 -1.81062 0
M  V30 6944 H 708.469 -0.441235 -0.839056 0
M  V30 6945 H 708.175 -1.09006 -3.34381 0
M  V30 6946 H 708.049 0.619078 -3.72085 0
M  V30 6947 H 710.436 0.961471 -2.78998 0
M  V30 6948 H 710.517 -0.770905 -2.43907 0
M  V30 6949 H 710.161 -1.26704 -4.91842 0
M  V30 6950 H 710.091 0.48311 -5.24379 0
M  V30 6951 H 712.582 -0.0571723 -3.77857 0
M  V30 6952 H 712.895 -0.741745 -7.69232 0
M  V30 6953 H 711.24 -0.660153 -6.91858 0
M  V30 6954 H 714.431 -0.155051 -4.67843 0
M  V30 6955 H 714.604 -0.466994 -6.46315 0
M  V30 6956 N 708.01 1.57248 0.105221 0
M  V30 6957 C 709.257 1.8557 0.810552 0
M  V30 6958 C 709.585 0.755595 1.79223 0
M  V30 6959 O 708.84 -0.251788 1.94073 0
M  V30 6960 C 709.139 3.20437 1.58287 0
M  V30 6961 C 708.805 4.44716 0.744235 0
M  V30 6962 C 707.467 4.78458 0.513013 0
M  V30 6963 C 709.819 5.20953 0.160578 0
M  V30 6964 C 707.147 5.8587 -0.311894 0
M  V30 6965 C 709.499 6.29235 -0.651596 0
M  V30 6966 C 708.163 6.615 -0.893005 0
M  V30 6967 H 707.433 0.67905 0.296602 0
M  V30 6968 H 710.08 1.91363 0.0723968 0
M  V30 6969 H 708.385 3.10283 2.39232 0
M  V30 6970 H 710.082 3.39576 2.13282 0
M  V30 6971 H 706.672 4.18287 0.934555 0
M  V30 6972 H 710.856 4.95226 0.3264 0
M  V30 6973 H 706.112 6.09286 -0.508012 0
M  V30 6974 H 710.286 6.87484 -1.11077 0
M  V30 6975 H 707.913 7.44562 -1.53401 0
M  V30 6976 N 709.488 -0.375779 1.53054 0
M  V30 6977 C 710.451 -1.44254 1.7811 0
M  V30 6978 C 711.451 -1.47018 0.651328 0
M  V30 6979 O 712.641 -1.47957 0.919472 0
M  V30 6980 C 709.773 -2.8345 1.89391 0
M  V30 6981 H 710.966 -1.23316 2.73374 0
M  V30 6982 H 708.519 -0.608312 1.43977 0
M  V30 6983 H 709.254 -3.09716 0.961589 0
M  V30 6984 H 709.039 -2.82844 2.71555 0
M  V30 6985 H 710.529 -3.60722 2.10404 0
M  V30 6986 N 710.966 -1.44241 -0.634997 0
M  V30 6987 C 711.898 -1.46793 -1.76024 0
M  V30 6988 C 712.911 -0.361781 -1.58729 0
M  V30 6989 O 714.1 -0.627297 -1.67114 0
M  V30 6990 C 711.2 -1.28248 -3.13697 0
M  V30 6991 C 710.373 -2.52038 -3.57485 0
M  V30 6992 C 709.432 -2.2845 -4.74022 0
M  V30 6993 O 708.458 -3.01915 -4.82531 0
M  V30 6994 N 709.66 -1.31264 -5.65464 0
M  V30 6995 H 712.425 -2.43797 -1.74307 0
M  V30 6996 H 709.986 -1.39631 -0.819438 0
M  V30 6997 H 711.978 -1.10321 -3.89373 0
M  V30 6998 H 710.548 -0.39623 -3.10079 0
M  V30 6999 H 709.768 -2.85268 -2.72059 0
M  V30 7000 H 711.056 -3.34382 -3.83492 0
M  V30 7001 H 710.454 -0.705817 -5.6128 0
M  V30 7002 H 709.011 -1.19316 -6.40786 0
M  V30 7003 N 712.444 0.87505 -1.31075 0
M  V30 7004 C 713.394 1.96933 -1.14898 0
M  V30 7005 C 714.378 1.60783 -0.0613703 0
M  V30 7006 O 715.57 1.74678 -0.285751 0
M  V30 7007 C 712.699 3.3253 -0.853166 0
M  V30 7008 C 711.785 3.74963 -1.98151 0
M  V30 7009 N 712.176 3.89403 -3.22799 0
M  V30 7010 C 710.474 4.04436 -1.8801 0
M  V30 7011 C 711.175 4.25563 -3.96574 0
M  V30 7012 N 710.151 4.3597 -3.24701 0
M  V30 7013 H 713.953 2.06201 -2.09424 0
M  V30 7014 H 711.467 1.06551 -1.22558 0
M  V30 7015 H 713.464 4.10666 -0.718266 0
M  V30 7016 H 712.124 3.24592 0.0839218 0
M  V30 7017 H 713.135 3.74266 -3.57974 0
M  V30 7018 H 709.812 4.04915 -1.01733 0
M  V30 7019 H 711.202 4.44375 -5.03965 0
M  V30 7020 N 713.922 1.13953 1.08869 0
M  V30 7021 C 715.17 0.903023 1.80803 0
M  V30 7022 C 715.491 -0.572151 1.86417 0
M  V30 7023 O 714.761 -1.41589 1.35386 0
M  V30 7024 H 713.341 0.331099 0.669614 0
M  V30 7025 H 716.003 1.43719 1.31647 0
M  V30 7026 H 715.099 1.29881 2.83791 0
M  V30 7027 N 715.4 -1.26948 0.933913 0
M  V30 7028 C 716.628 -1.98186 0.59414 0
M  V30 7029 C 717.043 -1.69614 -0.829257 0
M  V30 7030 O 716.4 -0.960213 -1.55197 0
M  V30 7031 C 716.451 -3.52123 0.818026 0
M  V30 7032 O 716.172 -3.79698 2.18543 0
M  V30 7033 C 717.673 -4.40608 0.48781 0
M  V30 7034 H 714.893 -0.632305 0.224569 0
M  V30 7035 H 717.437 -1.61646 1.25263 0
M  V30 7036 H 715.592 -3.86851 0.206246 0
M  V30 7037 H 716.006 -4.7426 2.24005 0
M  V30 7038 H 717.48 -5.47606 0.695126 0
M  V30 7039 H 717.957 -4.35394 -0.576913 0
M  V30 7040 H 718.563 -4.11411 1.078 0
M  V30 7041 N 716.879 -0.700114 -1.41195 0
M  V30 7042 C 718.126 -0.233006 -2.01155 0
M  V30 7043 C 718.454 1.16883 -1.55462 0
M  V30 7044 O 717.709 1.80395 -0.758695 0
M  V30 7045 C 718.008 -0.243986 -3.56566 0
M  V30 7046 C 717.674 -1.59397 -4.21786 0
M  V30 7047 C 716.336 -1.96355 -4.39316 0
M  V30 7048 C 718.688 -2.48192 -4.58312 0
M  V30 7049 C 716.016 -3.21683 -4.9065 0
M  V30 7050 C 718.368 -3.72857 -5.11039 0
M  V30 7051 C 717.032 -4.09951 -5.26779 0
M  V30 7052 H 716.302 -0.085263 -0.736078 0
M  V30 7053 H 718.949 -0.9001 -1.69028 0
M  V30 7054 H 717.254 0.506663 -3.8851 0
M  V30 7055 H 718.951 0.135031 -4.00773 0
M  V30 7056 H 715.541 -1.29654 -4.08519 0
M  V30 7057 H 719.725 -2.20918 -4.4442 0
M  V30 7058 H 714.981 -3.50412 -5.01021 0
M  V30 7059 H 719.155 -4.41844 -5.38282 0
M  V30 7060 H 716.782 -5.07136 -5.66319 0
M  V30 7061 N 718.357 1.51182 -0.445186 0
M  V30 7062 C 719.267 2.31692 0.368255 0
M  V30 7063 C 720.283 1.40942 1.02036 0
M  V30 7064 O 721.459 1.74011 1.01401 0
M  V30 7065 C 718.524 3.14903 1.45041 0
M  V30 7066 C 717.585 4.21442 0.817615 0
M  V30 7067 C 716.818 5.00677 1.8482 0
M  V30 7068 O 717.041 4.80644 3.07145 0
M  V30 7069 O 715.975 5.84559 1.43438 0
M  V30 7070 H 719.801 3.0232 -0.289219 0
M  V30 7071 H 717.386 1.47951 -0.207555 0
M  V30 7072 H 719.268 3.66612 2.07783 0
M  V30 7073 H 717.943 2.47031 2.09182 0
M  V30 7074 H 716.85 3.73791 0.151931 0
M  V30 7075 H 718.183 4.9171 0.219564 0
M  V30 7076 N 719.835 0.176821 1.56605 0
M  V30 7077 C 721.065 -0.472142 2.01133 0
M  V30 7078 C 721.473 -1.56979 1.05614 0
M  V30 7079 O 720.816 -1.83632 0.0500137 0
M  V30 7080 C 720.878 -1.10547 3.42081 0
M  V30 7081 C 720.542 -0.148806 4.56758 0
M  V30 7082 C 721.539 0.634939 5.16008 0
M  V30 7083 C 719.224 -0.0430325 5.02282 0
M  V30 7084 C 721.218 1.5116 6.19217 0
M  V30 7085 C 718.905 0.83721 6.05338 0
M  V30 7086 C 719.903 1.61311 6.63677 0
M  V30 7087 O 719.591 2.47863 7.64735 0
M  V30 7088 H 719.323 -0.124725 0.664394 0
M  V30 7089 H 721.877 0.277329 2.03519 0
M  V30 7090 H 720.107 -1.90318 3.36625 0
M  V30 7091 H 721.796 -1.6572 3.70529 0
M  V30 7092 H 722.562 0.563424 4.81716 0
M  V30 7093 H 718.441 -0.636753 4.56581 0
M  V30 7094 H 721.985 2.11767 6.64681 0
M  V30 7095 H 717.882 0.909908 6.39055 0
M  V30 7096 H 718.65 2.4144 7.8208 0
M  V30 7097 N 721.313 -1.57302 -0.09688 0
M  V30 7098 C 722.223 -2.05258 -1.13606 0
M  V30 7099 C 723.239 -0.977137 -1.43972 0
M  V30 7100 O 724.415 -1.29018 -1.54649 0
M  V30 7101 C 721.48 -2.46593 -2.43706 0
M  V30 7102 C 720.541 -3.68322 -2.20538 0
M  V30 7103 C 719.774 -4.07676 -3.44435 0
M  V30 7104 O 719.997 -3.47141 -4.52603 0
M  V30 7105 O 718.931 -5.00641 -3.34129 0
M  V30 7106 H 722.757 -2.94069 -0.758752 0
M  V30 7107 H 720.342 -1.46164 -0.309263 0
M  V30 7108 H 722.224 -2.73814 -3.20318 0
M  V30 7109 H 720.899 -1.6092 -2.80867 0
M  V30 7110 H 719.806 -3.4622 -1.41713 0
M  V30 7111 H 721.139 -4.54769 -1.88271 0
M  V30 7112 N 722.791 0.367657 -1.53252 0
M  V30 7113 C 724.021 1.12955 -1.72988 0
M  V30 7114 C 724.429 1.8358 -0.457708 0
M  V30 7115 O 723.772 1.74336 0.579006 0
M  V30 7116 C 723.834 2.20545 -2.83902 0
M  V30 7117 C 723.498 1.69704 -4.24323 0
M  V30 7118 C 724.495 1.16223 -5.06743 0
M  V30 7119 C 722.18 1.7528 -4.70725 0
M  V30 7120 C 724.174 0.689935 -6.33655 0
M  V30 7121 C 721.861 1.27662 -5.97617 0
M  V30 7122 C 722.859 0.746083 -6.78913 0
M  V30 7123 O 722.547 0.276925 -8.03423 0
M  V30 7124 H 722.279 0.343753 -0.582074 0
M  V30 7125 H 724.833 0.433106 -2.00782 0
M  V30 7126 H 723.063 2.93676 -2.51577 0
M  V30 7127 H 724.752 2.82111 -2.91836 0
M  V30 7128 H 725.518 1.11256 -4.72067 0
M  V30 7129 H 721.397 2.15515 -4.07522 0
M  V30 7130 H 724.941 0.275164 -6.97057 0
M  V30 7131 H 720.838 1.32322 -6.31792 0
M  V30 7132 H 721.606 0.396445 -8.17539 0
M  V30 7133 N 724.269 1.44576 0.627338 0
M  V30 7134 C 725.494 1.51271 1.41887 0
M  V30 7135 C 725.919 0.139814 1.8758 0
M  V30 7136 O 725.277 -0.871746 1.58966 0
M  V30 7137 C 725.325 2.48529 2.61277 0
M  V30 7138 O 724.429 1.98944 3.61241 0
M  V30 7139 H 723.77 0.510668 0.424399 0
M  V30 7140 H 726.3 1.89746 0.765356 0
M  V30 7141 H 726.31 2.66689 3.08773 0
M  V30 7142 H 724.985 3.48249 2.27366 0
M  V30 7143 H 723.562 1.90568 3.20528 0
M  V30 7144 N 725.747 -0.868086 1.31537 0
M  V30 7145 C 726.679 -1.98165 1.15166 0
M  V30 7146 C 727.692 -1.6255 0.0902335 0
M  V30 7147 O 728.881 -1.75272 0.33791 0
M  V30 7148 C 725.981 -3.30772 0.737776 0
M  V30 7149 C 725.154 -3.94716 1.88462 0
M  V30 7150 C 724.213 -5.05641 1.45648 0
M  V30 7151 O 723.239 -5.2636 2.16642 0
M  V30 7152 N 724.441 -5.79474 0.34493 0
M  V30 7153 H 727.206 -2.12754 2.11083 0
M  V30 7154 H 724.767 -1.04217 1.23897 0
M  V30 7155 H 726.759 -4.02366 0.434032 0
M  V30 7156 H 725.329 -3.1233 -0.129834 0
M  V30 7157 H 724.549 -3.16079 2.35558 0
M  V30 7158 H 725.837 -4.34175 2.65273 0
M  V30 7159 H 725.235 -5.65164 -0.246259 0
M  V30 7160 H 723.792 -6.51722 0.100728 0
M  V30 7161 N 727.225 -1.14528 -1.08264 0
M  V30 7162 C 728.641 -0.885976 -1.3275 0
M  V30 7163 C 728.841 0.472096 -1.95892 0
M  V30 7164 O 727.897 1.21606 -2.21288 0
M  V30 7165 C 729.21 -2.01982 -2.22764 0
M  V30 7166 C 730.758 -2.05329 -2.36239 0
M  V30 7167 C 731.233 -3.1801 -3.29596 0
M  V30 7168 N 732.724 -3.17598 -3.37173 0
M  V30 7169 C 733.459 -4.01426 -4.09444 0
M  V30 7170 N 732.955 -4.95297 -4.8441 0
M  V30 7171 N 734.748 -3.89482 -4.0529 0
M  V30 7172 H 726.899 -2.01996 -0.656607 0
M  V30 7173 H 729.162 -0.880274 -0.351884 0
M  V30 7174 H 728.868 -2.99964 -1.83615 0
M  V30 7175 H 728.742 -1.94421 -3.23234 0
M  V30 7176 H 731.129 -1.07953 -2.74646 0
M  V30 7177 H 731.21 -2.1696 -1.35506 0
M  V30 7178 H 730.854 -4.15633 -2.9191 0
M  V30 7179 H 730.784 -3.03616 -4.30261 0
M  V30 7180 H 733.275 -2.4961 -2.83731 0
M  V30 7181 H 733.588 -5.55723 -5.37021 0
M  V30 7182 H 731.933 -4.99293 -4.83457 0
M  V30 7183 H 735.124 -3.15465 -3.45832 0
M  V30 7184 H 735.297 -4.55039 -4.6135 0
M  V30 7185 N 728.703 1.26451 -0.940633 0
M  V30 7186 C 729.949 1.94401 -0.598303 0
M  V30 7187 C 730.304 1.72449 0.853178 0
M  V30 7188 O 729.597 1.0506 1.60228 0
M  V30 7189 C 729.791 3.46503 -0.875794 0
M  V30 7190 C 729.62 3.83247 -2.3527 0
M  V30 7191 C 728.39 4.06032 -3.00776 0
M  V30 7192 C 730.588 3.91841 -3.33114 0
M  V30 7193 N 728.57 4.29656 -4.38485 0
M  V30 7194 C 729.941 4.19991 -4.56078 0
M  V30 7195 C 731.996 3.74466 -3.28146 0
M  V30 7196 C 730.699 4.32574 -5.74693 0
M  V30 7197 C 732.725 3.88281 -4.46085 0
M  V30 7198 C 732.087 4.16829 -5.67831 0
M  V30 7199 H 728.186 0.734168 -0.269297 0
M  V30 7200 H 730.77 1.52541 -1.20992 0
M  V30 7201 H 728.941 3.87292 -0.293223 0
M  V30 7202 H 730.673 4.01664 -0.494788 0
M  V30 7203 H 727.428 4.01369 -2.51396 0
M  V30 7204 H 727.852 4.45501 -5.09762 0
M  V30 7205 H 732.494 3.51424 -2.35077 0
M  V30 7206 H 730.212 4.54438 -6.68215 0
M  V30 7207 H 733.798 3.76241 -4.43773 0
M  V30 7208 H 732.678 4.27284 -6.5757 0
M  V30 7209 N 730.181 0.707592 1.40822 0
M  V30 7210 C 731.128 0.0499029 2.30746 0
M  V30 7211 C 732.098 -0.758718 1.47759 0
M  V30 7212 O 733.283 -0.724299 1.76518 0
M  V30 7213 C 730.423 -0.871756 3.33908 0
M  V30 7214 C 729.536 -0.0534655 4.31967 0
M  V30 7215 C 728.671 -0.973869 5.22197 0
M  V30 7216 C 727.71 -0.149194 6.11918 0
M  V30 7217 N 726.847 -1.02404 6.94592 0
M  V30 7218 H 731.687 0.822461 2.86426 0
M  V30 7219 H 729.224 0.417285 1.41057 0
M  V30 7220 H 731.182 -1.42028 3.9228 0
M  V30 7221 H 729.812 -1.61058 2.7975 0
M  V30 7222 H 728.864 0.612142 3.75442 0
M  V30 7223 H 730.176 0.585354 4.95353 0
M  V30 7224 H 729.33 -1.59121 5.85462 0
M  V30 7225 H 728.069 -1.64652 4.59065 0
M  V30 7226 H 727.074 0.481137 5.47691 0
M  V30 7227 H 728.299 0.519841 6.77107 0
M  V30 7228 H 726.245 -1.6825 6.34057 0
M  V30 7229 H 726.162 -0.441076 7.54712 0
M  V30 7230 H 727.43 -1.62782 7.62314 0
M  V30 7231 N 731.66 -1.50943 0.453197 0
M  V30 7232 C 732.885 -2.07116 -0.108463 0
M  V30 7233 C 733.31 -1.31681 -1.3432 0
M  V30 7234 O 732.668 -0.359256 -1.77705 0
M  V30 7235 C 732.716 -3.58447 -0.393424 0
M  V30 7236 O 731.82 -3.85038 -1.47714 0
M  V30 7237 H 731.161 -0.66398 0.0050993 0
M  V30 7238 H 733.691 -1.94362 0.639095 0
M  V30 7239 H 733.701 -4.02961 -0.639222 0
M  V30 7240 H 732.376 -4.12774 0.508946 0
M  V30 7241 H 730.953 -3.52376 -1.22006 0
M  V30 7242 N 733.138 -0.185124 -1.56509 0
M  V30 7243 C 734.068 0.735098 -2.21627 0
M  V30 7244 C 735.049 1.2288 -1.1762 0
M  V30 7245 O 736.234 1.27945 -1.46095 0
M  V30 7246 C 733.364 1.95889 -2.86783 0
M  V30 7247 C 732.318 1.6005 -3.96948 0
M  V30 7248 C 731.644 2.90009 -4.4922 0
M  V30 7249 C 732.944 0.818008 -5.15855 0
M  V30 7250 H 734.638 0.192274 -2.98782 0
M  V30 7251 H 732.184 0.0910393 -1.43712 0
M  V30 7252 H 734.137 2.60779 -3.31017 0
M  V30 7253 H 732.861 2.52608 -2.07018 0
M  V30 7254 H 731.52 0.975237 -3.5339 0
M  V30 7255 H 731.168 3.44797 -3.6623 0
M  V30 7256 H 730.868 2.66778 -5.23549 0
M  V30 7257 H 732.392 3.55904 -4.9615 0
M  V30 7258 H 733.806 1.36979 -5.56695 0
M  V30 7259 H 732.203 0.684207 -5.96187 0
M  V30 7260 H 733.273 -0.182939 -4.84555 0
M  V30 7261 N 734.616 1.57351 0.0885366 0
M  V30 7262 C 735.893 1.77449 0.822873 0
M  V30 7263 C 736.273 0.768463 1.96616 0
M  V30 7264 O 735.621 -0.201757 2.27608 0
M  V30 7265 C 735.831 3.23425 1.31137 0
M  V30 7266 C 737.179 3.86791 1.75152 0
M  V30 7267 O 738.203 3.27215 1.40745 0
M  V30 7268 O 737.062 4.91568 2.38794 0
M  V30 7269 H 734.156 0.727653 0.393002 0
M  V30 7270 H 736.702 1.69556 0.0699095 0
M  V30 7271 H 735.474 3.88188 0.49254 0
M  V30 7272 H 735.097 3.35977 2.12615 0
M  V30 7273 N 736.094 -0.359525 1.53444 0
M  V30 7274 C 737.004 -1.46445 1.83278 0
M  V30 7275 C 738.02 -1.5833 0.721629 0
M  V30 7276 O 739.196 -1.7411 1.01231 0
M  V30 7277 C 736.261 -2.81638 2.02191 0
M  V30 7278 C 735.322 -2.7923 3.26082 0
M  V30 7279 C 734.555 -4.07974 3.44082 0
M  V30 7280 O 734.778 -5.04447 2.66251 0
M  V30 7281 O 733.712 -4.13417 4.37458 0
M  V30 7282 H 737.538 -1.24156 2.77162 0
M  V30 7283 H 735.123 -0.550201 1.389 0
M  V30 7284 H 737.005 -3.61732 2.16167 0
M  V30 7285 H 735.68 -3.03892 1.11496 0
M  V30 7286 H 734.587 -1.97813 3.17523 0
M  V30 7287 H 735.92 -2.6193 4.16718 0
M  V30 7288 N 737.572 -1.44907 -0.619662 0
M  V30 7289 C 738.505 -1.47133 -1.74434 0
M  V30 7290 C 739.483 -0.328933 -1.59238 0
M  V30 7291 O 740.667 -0.527632 -1.80965 0
M  V30 7292 C 737.794 -1.31491 -3.12134 0
M  V30 7293 C 736.84 -2.49441 -3.4595 0
M  V30 7294 S 737.673 -4.11945 -3.42142 0
M  V30 7295 C 738.829 -3.98747 -4.82443 0
M  V30 7296 H 739.062 -2.42295 -1.7228 0
M  V30 7297 H 736.595 -1.32343 -0.795276 0
M  V30 7298 H 738.553 -1.23153 -3.91591 0
M  V30 7299 H 737.214 -0.378203 -3.11815 0
M  V30 7300 H 736.407 -2.3439 -4.46181 0
M  V30 7301 H 736.009 -2.54577 -2.73982 0
M  V30 7302 H 738.301 -3.63145 -5.71954 0
M  V30 7303 H 739.244 -4.98848 -5.0255 0
M  V30 7304 H 739.652 -3.30608 -4.57557 0
M  V30 7305 N 739.05 0.861098 -1.31996 0
M  V30 7306 C 739.96 2.00154 -1.22374 0
M  V30 7307 C 740.976 1.73447 -0.138631 0
M  V30 7308 O 742.152 1.98191 -0.358104 0
M  V30 7309 C 739.217 3.33696 -0.940645 0
M  V30 7310 C 738.278 3.73668 -2.11355 0
M  V30 7311 C 737.511 5.00837 -1.84386 0
M  V30 7312 O 737.734 5.64996 -0.783287 0
M  V30 7313 O 736.668 5.37787 -2.70313 0
M  V30 7314 H 740.494 2.11207 -2.18233 0
M  V30 7315 H 738.079 0.990768 -1.11822 0
M  V30 7316 H 739.961 4.13756 -0.798987 0
M  V30 7317 H 738.636 3.23698 -0.0121636 0
M  V30 7318 H 737.543 2.94211 -2.31065 0
M  V30 7319 H 738.876 3.88303 -3.02459 0
M  V30 7320 N 740.528 1.15101 1.07655 0
M  V30 7321 C 741.475 0.844958 2.14777 0
M  V30 7322 C 742.445 -0.200798 1.64882 0
M  V30 7323 O 743.63 -0.0690278 1.90675 0
M  V30 7324 C 740.77 0.337018 3.4345 0
M  V30 7325 C 739.883 1.44398 4.07153 0
M  V30 7326 C 739.018 0.892487 5.23649 0
M  V30 7327 C 738.057 1.9766 5.79307 0
M  V30 7328 N 737.194 1.44171 6.87138 0
M  V30 7329 H 742.034 1.76242 2.40297 0
M  V30 7330 H 739.571 0.879435 1.17917 0
M  V30 7331 H 741.529 0.024256 4.17193 0
M  V30 7332 H 740.159 -0.543531 3.18191 0
M  V30 7333 H 739.211 1.87299 3.31094 0
M  V30 7334 H 740.523 2.26262 4.4453 0
M  V30 7335 H 739.677 0.532083 6.04362 0
M  V30 7336 H 738.416 0.0429854 4.87681 0
M  V30 7337 H 737.421 2.34586 4.97242 0
M  V30 7338 H 738.646 2.82982 6.17331 0
M  V30 7339 H 736.592 0.614518 6.53115 0
M  V30 7340 H 736.509 2.19665 7.23383 0
M  V30 7341 H 737.777 1.10945 7.71564 0
M  V30 7342 N 742.006 -1.2595 0.947325 0
M  V30 7343 C 742.938 -2.25336 0.41906 0
M  V30 7344 C 743.951 -1.56135 -0.461051 0
M  V30 7345 O 745.14 -1.76438 -0.270505 0
M  V30 7346 C 742.24 -3.36334 -0.416233 0
M  V30 7347 C 741.413 -4.35088 0.449162 0
M  V30 7348 C 740.472 -5.25185 -0.326716 0
M  V30 7349 O 739.498 -5.68548 0.272374 0
M  V30 7350 N 740.7 -5.57388 -1.6217 0
M  V30 7351 H 743.465 -2.71298 1.27348 0
M  V30 7352 H 741.026 -1.39781 0.81688 0
M  V30 7353 H 743.018 -3.93564 -0.942826 0
M  V30 7354 H 741.588 -2.89819 -1.17148 0
M  V30 7355 H 740.808 -3.76841 1.15692 0
M  V30 7356 H 742.096 -4.98056 1.04008 0
M  V30 7357 H 741.494 -5.2405 -2.13046 0
M  V30 7358 H 740.051 -6.17234 -2.0944 0
M  V30 7359 N 743.484 -0.715051 -1.40445 0
M  V30 7360 C 744.416 -0.0227516 -2.29189 0
M  V30 7361 C 745.429 0.724313 -1.458 0
M  V30 7362 O 746.618 0.571781 -1.69094 0
M  V30 7363 C 743.718 0.992038 -3.24055 0
M  V30 7364 C 742.891 0.310613 -4.36296 0
M  V30 7365 C 741.95 1.23071 -5.11605 0
M  V30 7366 O 740.976 0.71571 -5.64682 0
M  V30 7367 N 742.178 2.56188 -5.2091 0
M  V30 7368 H 744.943 -0.78473 -2.89244 0
M  V30 7369 H 742.504 -0.562637 -1.51809 0
M  V30 7370 H 744.496 1.60973 -3.71308 0
M  V30 7371 H 743.066 1.65538 -2.65171 0
M  V30 7372 H 742.286 -0.487269 -3.91177 0
M  V30 7373 H 743.574 -0.162415 -5.08541 0
M  V30 7374 H 742.972 3.00527 -4.7927 0
M  V30 7375 H 741.529 3.13103 -5.71673 0
M  V30 7376 N 744.962 1.50701 -0.461195 0
M  V30 7377 C 746.378 1.59187 -0.114786 0
M  V30 7378 C 746.578 1.4702 1.37794 0
M  V30 7379 O 745.634 1.32361 2.15027 0
M  V30 7380 C 746.947 2.93453 -0.656167 0
M  V30 7381 C 748.495 3.06824 -0.618715 0
M  V30 7382 C 748.97 4.4365 -1.13747 0
M  V30 7383 N 750.461 4.50035 -1.09646 0
M  V30 7384 C 751.196 5.54278 -1.46846 0
M  V30 7385 N 750.692 6.65822 -1.91448 0
M  V30 7386 N 752.485 5.44767 -1.38512 0
M  V30 7387 H 744.636 1.56853 -1.43216 0
M  V30 7388 H 746.899 0.740712 -0.59165 0
M  V30 7389 H 746.605 3.07802 -1.7015 0
M  V30 7390 H 746.479 3.77082 -0.0942261 0
M  V30 7391 H 748.866 2.92129 0.417685 0
M  V30 7392 H 748.947 2.24976 -1.21734 0
M  V30 7393 H 748.591 4.59093 -2.17245 0
M  V30 7394 H 748.521 5.24074 -0.515153 0
M  V30 7395 H 751.012 3.69988 -0.769217 0
M  V30 7396 H 751.325 7.41413 -2.18007 0
M  V30 7397 H 749.67 6.66968 -1.95393 0
M  V30 7398 H 752.861 4.56511 -1.03516 0
M  V30 7399 H 753.034 6.25889 -1.6783 0
M  V30 7400 N 746.441 0.193421 1.56409 0
M  V30 7401 C 747.351 -0.740112 2.2262 0
M  V30 7402 C 748.367 -1.23597 1.22474 0
M  V30 7403 O 749.543 -1.28348 1.55206 0
M  V30 7404 C 746.608 -1.94317 2.87127 0
M  V30 7405 C 745.669 -1.49205 4.02538 0
M  V30 7406 C 744.902 -2.63776 4.63959 0
M  V30 7407 O 745.125 -3.81215 4.24301 0
M  V30 7408 O 744.059 -2.36585 5.53454 0
M  V30 7409 H 747.885 -0.206238 3.02999 0
M  V30 7410 H 745.47 -0.0357938 1.49357 0
M  V30 7411 H 747.352 -2.64633 3.27944 0
M  V30 7412 H 746.027 -2.46568 2.09728 0
M  V30 7413 H 744.934 -0.757738 3.66346 0
M  V30 7414 H 746.267 -1.01622 4.81595 0
M  V30 7415 N 747.919 -1.57396 -0.0801906 0
M  V30 7416 C 748.851 -1.9982 -1.12271 0
M  V30 7417 C 749.864 -0.902902 -1.35468 0
M  V30 7418 O 751.053 -1.18088 -1.33856 0
M  V30 7419 C 748.153 -2.31476 -2.47532 0
M  V30 7420 C 747.326 -3.62745 -2.44407 0
M  V30 7421 C 746.385 -3.82168 -3.6171 0
M  V30 7422 O 745.411 -4.53852 -3.43522 0
M  V30 7423 N 746.613 -3.2388 -4.81749 0
M  V30 7424 H 749.378 -2.89864 -0.761501 0
M  V30 7425 H 746.939 -1.5965 -0.268965 0
M  V30 7426 H 748.931 -2.4165 -3.24634 0
M  V30 7427 H 747.501 -1.47364 -2.75686 0
M  V30 7428 H 746.721 -3.63403 -1.52747 0
M  V30 7429 H 748.009 -4.48954 -2.39412 0
M  V30 7430 H 747.407 -2.6568 -4.9943 0
M  V30 7431 H 745.964 -3.39515 -5.56392 0
M  V30 7432 N 749.397 0.351382 -1.53633 0
M  V30 7433 C 750.643 1.09411 -1.70754 0
M  V30 7434 C 750.976 1.88544 -0.465293 0
M  V30 7435 O 750.251 1.86923 0.537608 0
M  V30 7436 C 750.534 2.04173 -2.96623 0
M  V30 7437 C 750.387 1.28556 -4.31038 0
M  V30 7438 C 751.706 3.04102 -3.18136 0
M  V30 7439 H 748.825 0.396373 -0.621335 0
M  V30 7440 H 751.467 0.373464 -1.86293 0
M  V30 7441 H 749.617 2.65625 -2.83506 0
M  V30 7442 H 751.289 0.697786 -4.55992 0
M  V30 7443 H 749.532 0.587498 -4.29803 0
M  V30 7444 H 750.203 1.97989 -5.15271 0
M  V30 7445 H 752.679 2.5276 -3.30532 0
M  V30 7446 H 751.555 3.67616 -4.07615 0
M  V30 7447 H 751.816 3.75053 -2.34068 0
M  V30 7448 N 750.875 1.45233 0.611969 0
M  V30 7449 C 751.785 1.56098 1.7513 0
M  V30 7450 C 752.801 0.445646 1.68196 0
M  V30 7451 O 753.977 0.705718 1.88631 0
M  V30 7452 C 751.042 1.52052 3.11579 0
M  V30 7453 C 750.103 2.74589 3.29999 0
M  V30 7454 C 749.336 2.70726 4.59938 0
M  V30 7455 O 749.559 1.77806 5.41979 0
M  V30 7456 O 748.493 3.61864 4.80976 0
M  V30 7457 H 752.319 2.52392 1.68914 0
M  V30 7458 H 749.904 1.27695 0.775528 0
M  V30 7459 H 751.786 1.52387 3.92882 0
M  V30 7460 H 750.461 0.589085 3.18295 0
M  V30 7461 H 749.368 2.79817 2.48301 0
M  V30 7462 H 750.701 3.66843 3.28157 0
M  V30 7463 N 752.353 -0.854086 1.3245 0
M  V30 7464 C 753.3 -1.96271 1.21434 0
M  V30 7465 C 754.27 -1.6582 0.0963851 0
M  V30 7466 O 755.455 -1.88851 0.27203 0
M  V30 7467 C 752.595 -3.31939 0.943952 0
M  V30 7468 C 751.708 -3.74885 2.14675 0
M  V30 7469 C 750.843 -4.99347 1.81179 0
M  V30 7470 C 749.882 -5.34785 2.97777 0
M  V30 7471 N 749.019 -6.50425 2.6437 0
M  V30 7472 H 753.859 -2.05025 2.16261 0
M  V30 7473 H 751.396 -1.00348 1.07558 0
M  V30 7474 H 753.354 -4.10076 0.767675 0
M  V30 7475 H 751.984 -3.22784 0.0324763 0
M  V30 7476 H 751.036 -2.92396 2.43328 0
M  V30 7477 H 752.348 -3.97068 3.01891 0
M  V30 7478 H 751.502 -5.85193 1.60107 0
M  V30 7479 H 750.241 -4.79101 0.911777 0
M  V30 7480 H 749.246 -4.47451 3.1948 0
M  V30 7481 H 750.471 -5.56988 3.88511 0
M  V30 7482 H 748.417 -6.31695 1.7691 0
M  V30 7483 H 748.334 -6.7263 3.45116 0
M  V30 7484 H 749.602 -7.39422 2.46729 0
M  V30 7485 N 753.831 -1.1567 -1.07043 0
M  V30 7486 C 754.779 -0.852204 -2.16426 0
M  V30 7487 C 755.773 0.175661 -1.68487 0
M  V30 7488 O 756.979 0.0303874 -1.79974 0
M  V30 7489 H 753.354 -0.257942 -0.706378 0
M  V30 7490 H 755.325 -1.78231 -2.39324 0
M  V30 7491 C 754.074 -0.361362 -3.45817 0
M  V30 7492 H 753.397 -1.14369 -3.83092 0
M  V30 7493 H 754.837 -0.186997 -4.23587 0
M  V30 7494 C 753.296 0.917703 -3.2416 0
M  V30 7495 O 753.826 1.98858 -3.49025 0
M  V30 7496 N 752.032 0.858456 -2.77631 0
M  V30 7497 H 751.579 -0.0131821 -2.57597 0
M  V30 7498 H 751.537 1.71478 -2.6352 0
M  V30 7499 N 755.309 1.25446 -0.953992 0
M  V30 7500 C 756.242 2.24341 -0.417912 0
M  V30 7501 C 757.22 1.54709 0.5004 0
M  V30 7502 O 758.404 1.83414 0.434923 0
M  V30 7503 C 755.531 3.36352 0.398155 0
M  V30 7504 C 754.577 4.24007 -0.460461 0
M  V30 7505 S 755.41 5.00951 -1.89231 0
M  V30 7506 C 756.566 6.1643 -1.08465 0
M  V30 7507 H 756.799 2.69465 -1.25602 0
M  V30 7508 H 754.332 1.34512 -0.758018 0
M  V30 7509 H 756.29 4.01325 0.863059 0
M  V30 7510 H 754.951 2.89813 1.21108 0
M  V30 7511 H 754.144 5.03728 0.165415 0
M  V30 7512 H 753.746 3.63965 -0.860549 0
M  V30 7513 H 756.038 6.76681 -0.333017 0
M  V30 7514 H 756.981 6.8335 -1.85577 0
M  V30 7515 H 757.389 5.61139 -0.615062 0
M  V30 7516 N 756.787 0.722489 1.40064 0
M  V30 7517 C 757.734 0.0743738 2.3068 0
M  V30 7518 C 758.704 -0.743004 1.48555 0
M  V30 7519 O 759.889 -0.705536 1.77276 0
M  V30 7520 C 757.029 -0.836292 3.34814 0
M  V30 7521 C 756.142 -0.00764663 4.31999 0
M  V30 7522 C 755.277 -0.918428 5.232 0
M  V30 7523 C 754.316 -0.0842838 6.12042 0
M  V30 7524 N 753.453 -0.950316 6.95639 0
M  V30 7525 H 758.293 0.852794 2.85537 0
M  V30 7526 H 755.83 0.432222 1.40607 0
M  V30 7527 H 757.788 -1.3786 3.93765 0
M  V30 7528 H 756.418 -1.58082 2.81443 0
M  V30 7529 H 755.47 0.651928 3.74772 0
M  V30 7530 H 756.782 0.63786 4.94705 0
M  V30 7531 H 755.936 -1.52902 5.87116 0
M  V30 7532 H 754.675 -1.59774 4.60786 0
M  V30 7533 H 753.68 0.5392 5.4715 0
M  V30 7534 H 754.905 0.591628 6.76518 0
M  V30 7535 H 752.851 -1.61515 6.35806 0
M  V30 7536 H 752.768 -0.361004 7.55138 0
M  V30 7537 H 754.036 -1.54687 7.63997 0
M  V30 7538 N 758.265 -1.50454 0.469181 0
M  V30 7539 C 759.542 -1.9504 -0.147955 0
M  V30 7540 C 759.922 -1.40946 -1.57154 0
M  V30 7541 O 759.27 -0.609663 -2.20217 0
M  V30 7542 C 759.48 -3.48875 -0.0932198 0
M  V30 7543 C 760.828 -4.23655 -0.283056 0
M  V30 7544 O 761.852 -3.55795 -0.169892 0
M  V30 7545 O 760.711 -5.44102 -0.511396 0
M  V30 7546 H 757.805 -0.819283 -0.11271 0
M  V30 7547 H 760.351 -1.6123 0.529446 0
M  V30 7548 H 759.123 -3.80791 0.900784 0
M  V30 7549 H 758.746 -3.89217 -0.812161 0
M  V30 7550 N 759.743 -0.201713 -1.56304 0
M  V30 7551 C 760.706 0.702811 -2.18159 0
M  V30 7552 C 761.706 1.13619 -1.13787 0
M  V30 7553 O 762.896 1.0482 -1.39134 0
M  V30 7554 C 760.028 1.96032 -2.78898 0
M  V30 7555 H 761.221 0.163836 -2.99452 0
M  V30 7556 H 758.774 0.04791 -1.56227 0
M  V30 7557 H 759.509 2.54165 -2.01421 0
M  V30 7558 H 759.294 1.65824 -3.55309 0
M  V30 7559 H 760.784 2.60519 -3.26373 0
M  V30 7560 N 761.222 1.57436 0.0718424 0
M  V30 7561 C 762.169 2.03686 1.08539 0
M  V30 7562 C 763.139 0.917474 1.38462 0
M  V30 7563 O 764.324 1.18513 1.4953 0
M  V30 7564 C 761.464 2.48566 2.39393 0
M  V30 7565 C 760.577 3.74122 2.16001 0
M  V30 7566 C 759.712 4.07786 3.40418 0
M  V30 7567 C 758.751 5.26383 3.1239 0
M  V30 7568 N 757.888 5.55685 4.29138 0
M  V30 7569 H 762.728 2.90043 0.684018 0
M  V30 7570 H 760.265 1.43438 0.326183 0
M  V30 7571 H 762.223 2.72639 3.15791 0
M  V30 7572 H 760.853 1.65186 2.77333 0
M  V30 7573 H 759.905 3.57389 1.30296 0
M  V30 7574 H 761.217 4.60659 1.91298 0
M  V30 7575 H 760.371 4.32759 4.25211 0
M  V30 7576 H 759.11 3.19817 3.68197 0
M  V30 7577 H 758.115 5.01206 2.25993 0
M  V30 7578 H 759.34 6.1597 2.85934 0
M  V30 7579 H 757.286 4.70675 4.56948 0
M  V30 7580 H 757.203 6.3664 4.07708 0
M  V30 7581 H 758.471 5.85209 5.14928 0
M  V30 7582 N 762.7 -0.34323 1.53817 0
M  V30 7583 C 763.977 -1.10047 1.61706 0
M  V30 7584 C 764.357 -2.06495 0.438514 0
M  V30 7585 O 763.705 -2.21297 -0.569188 0
M  V30 7586 C 763.915 -1.81985 2.97796 0
M  V30 7587 C 765.263 -2.35717 3.53161 0
M  V30 7588 O 766.287 -1.9208 2.99973 0
M  V30 7589 O 765.146 -3.15551 4.46195 0
M  V30 7590 H 762.24 -0.506096 0.654061 0
M  V30 7591 H 764.786 -0.344697 1.66162 0
M  V30 7592 H 763.558 -1.11722 3.75012 0
M  V30 7593 H 763.181 -2.64419 2.96931 0
M  V30 7594 N 764.178 -1.45556 -0.604258 0
M  V30 7595 C 765.125 -1.54482 -1.71476 0
M  V30 7596 C 766.095 -0.390479 -1.61445 0
M  V30 7597 O 767.28 -0.604371 -1.80975 0
M  V30 7598 C 764.42 -1.52064 -3.09791 0
M  V30 7599 C 763.533 -2.78073 -3.30604 0
M  V30 7600 C 762.668 -2.67304 -4.59044 0
M  V30 7601 C 761.707 -3.88352 -4.73127 0
M  V30 7602 N 760.844 -3.76098 -5.9287 0
M  V30 7603 H 765.684 -2.49349 -1.63184 0
M  V30 7604 H 763.221 -1.23725 -0.795641 0
M  V30 7605 H 765.179 -1.48649 -3.89819 0
M  V30 7606 H 763.809 -0.607442 -3.17033 0
M  V30 7607 H 762.861 -2.91561 -2.44329 0
M  V30 7608 H 764.173 -3.67847 -3.36883 0
M  V30 7609 H 763.327 -2.61875 -5.47272 0
M  V30 7610 H 762.066 -1.75135 -4.55169 0
M  V30 7611 H 761.071 -3.94137 -3.83322 0
M  V30 7612 H 762.296 -4.81591 -4.78797 0
M  V30 7613 H 760.242 -2.867 -5.90033 0
M  V30 7614 H 760.159 -4.59509 -6.00323 0
M  V30 7615 H 761.427 -3.74607 -6.83586 0
M  V30 7616 N 765.656 0.84705 -1.32902 0
M  V30 7617 C 766.586 1.97166 -1.25091 0
M  V30 7618 C 767.567 1.69578 -0.133161 0
M  V30 7619 O 768.752 1.91519 -0.321591 0
M  V30 7620 C 765.882 3.33157 -0.981006 0
M  V30 7621 C 764.836 3.75119 -2.06082 0
M  V30 7622 C 764.162 5.08826 -1.64318 0
M  V30 7623 C 765.462 3.89774 -3.47669 0
M  V30 7624 H 767.156 2.03958 -2.19184 0
M  V30 7625 H 764.702 0.979907 -1.05517 0
M  V30 7626 H 766.655 4.11393 -0.912891 0
M  V30 7627 H 765.379 3.266 -0.00445559 0
M  V30 7628 H 764.038 2.9914 -2.11921 0
M  V30 7629 H 763.686 4.98732 -0.653876 0
M  V30 7630 H 763.386 5.37873 -2.36572 0
M  V30 7631 H 764.91 5.89546 -1.58958 0
M  V30 7632 H 766.324 4.58343 -3.44376 0
M  V30 7633 H 764.721 4.30248 -4.18338 0
M  V30 7634 H 765.791 2.92463 -3.86773 0
M  V30 7635 N 767.134 1.16236 1.06428 0
M  V30 7636 C 768.044 0.881976 2.1739 0
M  V30 7637 C 769.06 -0.145259 1.73393 0
M  V30 7638 O 770.236 0.0310558 2.01376 0
M  V30 7639 C 767.301 0.385496 3.4455 0
M  V30 7640 C 766.362 1.47779 4.03063 0
M  V30 7641 C 765.595 1.0049 5.24154 0
M  V30 7642 O 765.818 -0.145889 5.70213 0
M  V30 7643 O 764.752 1.79265 5.74585 0
M  V30 7644 H 768.578 1.80983 2.43883 0
M  V30 7645 H 766.163 0.942226 1.15942 0
M  V30 7646 H 768.045 0.115536 4.21242 0
M  V30 7647 H 766.72 -0.514369 3.19587 0
M  V30 7648 H 765.627 1.80147 3.27869 0
M  V30 7649 H 766.96 2.35291 4.32318 0
M  V30 7650 N 768.612 -1.24939 0.960631 0
M  V30 7651 C 769.837 -1.9742 0.635608 0
M  V30 7652 C 770.262 -1.70857 -0.786737 0
M  V30 7653 O 769.62 -0.968063 -1.53291 0
M  V30 7654 C 769.668 -3.48987 0.907771 0
M  V30 7655 O 768.772 -4.12399 -0.0104053 0
M  V30 7656 H 768.113 -0.61871 0.241027 0
M  V30 7657 H 770.643 -1.58901 1.28886 0
M  V30 7658 H 770.653 -3.99334 0.836453 0
M  V30 7659 H 769.328 -3.6765 1.94439 0
M  V30 7660 H 767.905 -3.72727 0.113631 0
M  V30 7661 N 770.09 -0.729906 -1.39679 0
M  V30 7662 C 771 -0.0880322 -2.34435 0
M  V30 7663 C 772.016 0.727674 -1.58053 0
M  V30 7664 O 773.192 0.657321 -1.90371 0
M  V30 7665 C 770.257 0.812211 -3.37052 0
M  V30 7666 C 769.318 -0.0151681 -4.29297 0
M  V30 7667 C 768.551 0.842202 -5.27013 0
M  V30 7668 O 768.774 2.08108 -5.31081 0
M  V30 7669 O 767.708 0.27357 -6.01278 0
M  V30 7670 H 771.534 -0.869989 -2.90972 0
M  V30 7671 H 769.119 -0.490522 -1.41118 0
M  V30 7672 H 771.001 1.32745 -3.99946 0
M  V30 7673 H 769.676 1.57307 -2.82907 0
M  V30 7674 H 768.583 -0.575811 -3.69642 0
M  V30 7675 H 769.916 -0.738129 -4.86634 0
M  V30 7676 N 771.568 1.50203 -0.477153 0
M  V30 7677 C 772.501 2.25343 0.359983 0
M  V30 7678 C 773.479 1.28909 0.991022 0
M  V30 7679 O 774.663 1.58146 1.02578 0
M  V30 7680 C 771.79 3.03431 1.5049 0
M  V30 7681 C 770.836 4.14836 0.99063 0
M  V30 7682 S 771.669 5.35407 -0.0995413 0
M  V30 7683 C 772.825 6.17045 1.04911 0
M  V30 7684 H 773.058 2.95999 -0.277836 0
M  V30 7685 H 770.591 1.52159 -0.262115 0
M  V30 7686 H 772.549 3.49012 2.16105 0
M  V30 7687 H 771.21 2.32289 2.11425 0
M  V30 7688 H 770.403 4.689 1.84794 0
M  V30 7689 H 770.005 3.71723 0.412097 0
M  V30 7690 H 772.297 6.48546 1.95946 0
M  V30 7691 H 773.24 7.05979 0.547596 0
M  V30 7692 H 773.648 5.49193 1.30567 0
M  V30 7693 N 773.046 0.209999 1.56195 0
M  V30 7694 C 773.956 -0.716459 2.23392 0
M  V30 7695 C 774.972 -1.22291 1.23778 0
M  V30 7696 O 776.148 -1.26694 1.56558 0
M  V30 7697 C 773.213 -1.91261 2.89172 0
M  V30 7698 C 772.274 -1.44927 4.04097 0
M  V30 7699 C 771.507 -2.5884 4.66731 0
M  V30 7700 O 771.73 -3.76693 4.2832 0
M  V30 7701 O 770.664 -2.30701 5.55932 0
M  V30 7702 H 774.49 -0.174089 3.03201 0
M  V30 7703 H 772.075 -0.0199505 1.49387 0
M  V30 7704 H 773.957 -2.6114 3.30733 0
M  V30 7705 H 772.632 -2.4433 2.12331 0
M  V30 7706 H 771.539 -0.718839 3.67129 0
M  V30 7707 H 772.872 -0.965084 4.82646 0
M  V30 7708 N 774.524 -1.57472 -0.0634922 0
M  V30 7709 C 775.801 -1.78736 -0.794538 0
M  V30 7710 C 776.181 -0.799645 -1.95369 0
M  V30 7711 O 775.529 0.165521 -2.279 0
M  V30 7712 C 775.739 -3.25471 -1.25975 0
M  V30 7713 C 777.087 -3.89528 -1.68976 0
M  V30 7714 O 778.111 -3.29412 -1.35521 0
M  V30 7715 O 776.97 -4.95305 -2.30944 0
M  V30 7716 H 774.064 -0.733813 -0.381376 0
M  V30 7717 H 776.61 -1.69646 -0.0429258 0
M  V30 7718 H 775.382 -3.88922 -0.430721 0
M  V30 7719 H 775.005 -3.39317 -2.07243 0
M  V30 7720 N 776.003 0.335068 -1.53997 0
M  V30 7721 C 776.966 1.39481 -1.81872 0
M  V30 7722 C 777.966 1.4524 -0.690078 0
M  V30 7723 O 779.156 1.45467 -0.958377 0
M  V30 7724 C 776.288 2.78329 -1.9684 0
M  V30 7725 H 777.481 1.16024 -2.76547 0
M  V30 7726 H 775.034 0.569926 -1.45539 0
M  V30 7727 H 775.769 3.07058 -1.04337 0
M  V30 7728 H 775.554 2.75544 -2.78958 0
M  V30 7729 H 777.044 3.55016 -2.19894 0
M  V30 7730 N 777.481 1.45874 0.596531 0
M  V30 7731 C 778.711 1.5379 1.37958 0
M  V30 7732 C 779.119 0.173086 1.88407 0
M  V30 7733 O 778.462 -0.837498 1.63498 0
M  V30 7734 C 778.524 2.47044 2.61169 0
M  V30 7735 C 778.188 3.93565 2.32283 0
M  V30 7736 C 779.185 4.83162 1.91965 0
M  V30 7737 C 776.87 4.38579 2.44854 0
M  V30 7738 C 778.864 6.15782 1.64593 0
M  V30 7739 C 776.551 5.71238 2.17095 0
M  V30 7740 C 777.549 6.59659 1.77028 0
M  V30 7741 O 777.237 7.89857 1.49601 0
M  V30 7742 H 776.969 0.523 0.428307 0
M  V30 7743 H 779.523 1.91855 0.733529 0
M  V30 7744 H 777.753 2.0397 3.28532 0
M  V30 7745 H 779.442 2.4552 3.23226 0
M  V30 7746 H 780.208 4.49646 1.8178 0
M  V30 7747 H 776.087 3.6999 2.75006 0
M  V30 7748 H 779.631 6.84757 1.33245 0
M  V30 7749 H 775.528 6.04306 2.26901 0
M  V30 7750 H 776.296 8.01991 1.63561 0
M  V30 7751 N 778.959 -0.83999 1.33349 0
M  V30 7752 C 779.909 -1.93817 1.20079 0
M  V30 7753 C 780.893 -1.60564 0.103978 0
M  V30 7754 O 782.085 -1.73859 0.331964 0
M  V30 7755 C 779.214 -3.30151 0.941031 0
M  V30 7756 C 778.3 -3.69577 2.08023 0
M  V30 7757 N 778.691 -3.80707 3.3301 0
M  V30 7758 C 776.989 -3.99309 1.98667 0
M  V30 7759 C 777.69 -4.14899 4.07717 0
M  V30 7760 N 776.666 -4.27208 3.36146 0
M  V30 7761 H 780.468 -2.00576 2.14817 0
M  V30 7762 H 777.982 -1.03264 1.2534 0
M  V30 7763 H 779.979 -4.08617 0.826894 0
M  V30 7764 H 778.639 -3.247 0.00216738 0
M  V30 7765 H 779.65 -3.64644 3.67771 0
M  V30 7766 H 776.327 -4.02076 1.12433 0
M  V30 7767 H 777.717 -4.30857 5.15569 0
M  V30 7768 N 780.437 -1.16799 -1.0581 0
M  V30 7769 C 781.347 -0.893492 -2.16919 0
M  V30 7770 C 782.363 0.136061 -1.73467 0
M  V30 7771 O 783.539 -0.0417348 -2.01357 0
M  V30 7772 C 780.604 -0.403763 -3.44341 0
M  V30 7773 C 779.665 -1.49914 -4.02274 0
M  V30 7774 C 778.898 -1.03269 -5.23614 0
M  V30 7775 O 779.121 0.115647 -5.70283 0
M  V30 7776 O 778.055 -1.8231 -5.73626 0
M  V30 7777 H 781.881 -1.82274 -2.42919 0
M  V30 7778 H 779.466 -0.948361 -1.1544 0
M  V30 7779 H 781.348 -0.137874 -4.21174 0
M  V30 7780 H 780.023 0.497413 -3.19855 0
M  V30 7781 H 778.93 -1.81883 -3.26909 0
M  V30 7782 H 780.263 -2.3758 -4.31064 0
M  V30 7783 N 781.915 1.24427 -0.967243 0
M  V30 7784 C 782.865 2.23143 -0.468106 0
M  V30 7785 C 783.849 1.5449 0.449633 0
M  V30 7786 O 785.041 1.74761 0.28063 0
M  V30 7787 C 782.17 3.42454 0.240867 0
M  V30 7788 C 781.256 4.18355 -0.695674 0
M  V30 7789 N 781.647 4.71428 -1.83273 0
M  V30 7790 C 779.945 4.43116 -0.506365 0
M  V30 7791 C 780.646 5.29041 -2.41849 0
M  V30 7792 N 779.622 5.16213 -1.70369 0
M  V30 7793 H 783.424 2.61795 -1.3357 0
M  V30 7794 H 780.938 1.39809 -0.826277 0
M  V30 7795 H 782.935 4.12329 0.615668 0
M  V30 7796 H 781.595 3.05323 1.10491 0
M  V30 7797 H 782.606 4.68177 -2.21428 0
M  V30 7798 H 779.283 4.16319 0.313747 0
M  V30 7799 H 780.673 5.80811 -3.37799 0
M  V30 7800 N 783.393 0.737304 1.3929 0
M  V30 7801 C 784.325 0.0592106 2.29124 0
M  V30 7802 C 785.338 -0.701026 1.46934 0
M  V30 7803 O 786.527 -0.544808 1.69983 0
M  V30 7804 C 783.627 -0.940358 3.25592 0
M  V30 7805 C 782.8 -0.241163 4.36735 0
M  V30 7806 C 781.859 -1.14916 5.13498 0
M  V30 7807 O 780.885 -0.625783 5.6575 0
M  V30 7808 N 782.087 -2.47869 5.2492 0
M  V30 7809 H 784.852 0.830647 2.87959 0
M  V30 7810 H 782.413 0.586718 1.50895 0
M  V30 7811 H 784.405 -1.55046 3.73822 0
M  V30 7812 H 782.975 -1.61299 2.67771 0
M  V30 7813 H 782.195 0.549441 3.90352 0
M  V30 7814 H 783.483 0.243299 5.08218 0
M  V30 7815 H 782.881 -2.92864 4.83991 0
M  V30 7816 H 781.438 -3.03969 5.76581 0
M  V30 7817 N 784.871 -1.49948 0.485112 0
M  V30 7818 C 785.834 -2.27351 -0.290546 0
M  V30 7819 C 786.834 -1.32704 -0.908087 0
M  V30 7820 O 788.024 -1.56007 -0.775085 0
M  V30 7821 C 785.156 -3.10135 -1.41524 0
M  V30 7822 H 786.349 -2.97374 0.388454 0
M  V30 7823 H 783.902 -1.54453 0.239586 0
M  V30 7824 H 784.637 -2.44641 -2.12888 0
M  V30 7825 H 784.422 -3.79705 -0.978074 0
M  V30 7826 H 785.912 -3.68638 -1.96204 0
M  V30 7827 N 786.349 -0.21828 -1.56081 0
M  V30 7828 C 787.297 0.709679 -2.21509 0
M  V30 7829 C 788.291 1.20221 -1.19346 0
M  V30 7830 O 789.497 1.16241 -1.37433 0
M  V30 7831 H 785.872 0.247271 -0.710184 0
M  V30 7832 H 787.843 0.134386 -2.98097 0
M  V30 7833 C 786.592 1.90853 -2.90638 0
M  V30 7834 H 785.915 1.53865 -3.69006 0
M  V30 7835 H 787.355 2.53568 -3.39822 0
M  V30 7836 C 785.814 2.76189 -1.92929 0
M  V30 7837 O 786.344 3.74842 -1.44416 0
M  V30 7838 N 784.55 2.42157 -1.6065 0
M  V30 7839 H 784.097 1.61987 -2.00294 0
M  V30 7840 H 784.055 2.99534 -0.955347 0
M  V30 7841 N 787.827 1.57504 0.0551401 0
M  V30 7842 C 788.757 2.07864 1.06372 0
M  V30 7843 C 789.738 0.975565 1.39344 0
M  V30 7844 O 790.923 1.24929 1.48682 0
M  V30 7845 C 788.053 2.53643 2.3724 0
M  V30 7846 C 787.007 3.67978 2.18578 0
M  V30 7847 C 786.333 3.9987 3.54976 0
M  V30 7848 C 787.633 4.97405 1.59329 0
M  V30 7849 H 789.327 2.92379 0.644595 0
M  V30 7850 H 786.873 1.40654 0.308619 0
M  V30 7851 H 788.826 2.8749 3.08103 0
M  V30 7852 H 787.55 1.66177 2.81163 0
M  V30 7853 H 786.209 3.3444 1.50152 0
M  V30 7854 H 785.857 3.0951 3.965 0
M  V30 7855 H 785.557 4.76867 3.43324 0
M  V30 7856 H 787.081 4.36228 4.27244 0
M  V30 7857 H 788.495 5.29375 2.20078 0
M  V30 7858 H 786.892 5.78837 1.58327 0
M  V30 7859 H 787.962 4.81697 0.55638 0
M  V30 7860 N 789.305 -0.326896 1.54172 0
M  V30 7861 C 790.235 -1.40741 1.86317 0
M  V30 7862 C 791.216 -1.54125 0.719684 0
M  V30 7863 O 792.401 -1.6806 0.973117 0
M  V30 7864 C 789.531 -2.77557 2.08757 0
M  V30 7865 C 788.485 -2.78965 3.24596 0
M  V30 7866 C 787.811 -4.18824 3.32401 0
M  V30 7867 C 789.111 -2.4301 4.62324 0
M  V30 7868 H 790.805 -1.14088 2.76811 0
M  V30 7869 H 788.351 -0.547389 1.3319 0
M  V30 7870 H 790.304 -3.53209 2.29829 0
M  V30 7871 H 789.028 -3.0568 1.15009 0
M  V30 7872 H 787.687 -2.05767 3.03406 0
M  V30 7873 H 787.335 -4.44083 2.36218 0
M  V30 7874 H 787.035 -4.20673 4.10253 0
M  V30 7875 H 788.559 -4.96294 3.55703 0
M  V30 7876 H 789.973 -3.08375 4.83299 0
M  V30 7877 H 788.37 -2.56116 5.42701 0
M  V30 7878 H 789.44 -1.38165 4.64799 0
M  V30 7879 N 790.784 -1.46188 -0.588786 0
M  V30 7880 C 792.2 -1.31009 -0.911524 0
M  V30 7881 C 792.4 -0.277017 -1.99587 0
M  V30 7882 O 791.456 0.322532 -2.50432 0
M  V30 7883 C 792.769 -2.69459 -1.33463 0
M  V30 7884 C 794.317 -2.77502 -1.44782 0
M  V30 7885 C 794.792 -4.1652 -1.90461 0
M  V30 7886 N 796.283 -4.18907 -1.97665 0
M  V30 7887 C 797.018 -5.23359 -2.34271 0
M  V30 7888 N 796.514 -6.38143 -2.69714 0
M  V30 7889 N 798.307 -5.10723 -2.34774 0
M  V30 7890 H 790.458 -2.12016 0.127614 0
M  V30 7891 H 792.721 -0.947984 -0.00557599 0
M  V30 7892 H 792.427 -3.46336 -0.611929 0
M  V30 7893 H 792.301 -2.99165 -2.2974 0
M  V30 7894 H 794.688 -2.00917 -2.1614 0
M  V30 7895 H 794.769 -2.51488 -0.467724 0
M  V30 7896 H 794.413 -4.93597 -1.19684 0
M  V30 7897 H 794.343 -4.39937 -2.89418 0
M  V30 7898 H 796.834 -3.36084 -1.72789 0
M  V30 7899 H 797.147 -7.13624 -2.96582 0
M  V30 7900 H 795.492 -6.41514 -2.67366 0
M  V30 7901 H 798.683 -4.20088 -2.06503 0
M  V30 7902 H 798.856 -5.9224 -2.62975 0
M  V30 7903 N 792.262 0.832906 -1.33792 0
M  V30 7904 C 793.194 1.95042 -1.2038 0
M  V30 7905 C 794.207 1.62253 -0.133299 0
M  V30 7906 O 795.396 1.74315 -0.384261 0
M  V30 7907 C 792.496 3.287 -0.825215 0
M  V30 7908 C 791.669 3.89581 -1.98861 0
M  V30 7909 C 790.728 5.01602 -1.59003 0
M  V30 7910 O 789.754 5.20431 -2.30522 0
M  V30 7911 N 790.956 5.78356 -0.498446 0
M  V30 7912 H 793.721 2.07083 -2.16649 0
M  V30 7913 H 791.282 1.00896 -1.26616 0
M  V30 7914 H 793.274 4.01074 -0.540559 0
M  V30 7915 H 791.844 3.12565 0.0469796 0
M  V30 7916 H 791.064 3.09723 -2.43856 0
M  V30 7917 H 792.352 4.26989 -2.76691 0
M  V30 7918 H 791.75 5.65618 0.0963297 0
M  V30 7919 H 790.307 6.51226 -0.273485 0
M  V30 7920 N 793.74 1.17359 1.05189 0
M  V30 7921 C 795.017 0.871914 1.75091 0
M  V30 7922 C 795.397 -0.627821 2.01548 0
M  V30 7923 O 794.745 -1.5791 1.65156 0
M  V30 7924 C 794.955 1.70687 3.04413 0
M  V30 7925 C 796.303 1.92684 3.78362 0
M  V30 7926 O 797.327 1.67645 3.14282 0
M  V30 7927 O 796.186 2.34765 4.93505 0
M  V30 7928 H 793.28 0.322831 0.761386 0
M  V30 7929 H 795.826 1.28054 1.11357 0
M  V30 7930 H 794.598 2.72405 2.80911 0
M  V30 7931 H 794.221 1.29602 3.75884 0
M  V30 7932 N 795.218 -1.23913 0.973828 0
M  V30 7933 C 796.148 -2.27453 0.527969 0
M  V30 7934 C 797.129 -1.6443 -0.435513 0
M  V30 7935 O 798.314 -1.9137 -0.330306 0
M  V30 7936 C 795.444 -3.4685 -0.176757 0
M  V30 7937 C 794.398 -4.22181 0.703352 0
M  V30 7938 C 793.724 -5.34534 -0.133215 0
M  V30 7939 C 795.024 -4.82865 1.99096 0
M  V30 7940 H 796.718 -2.65 1.3934 0
M  V30 7941 H 794.264 -1.27388 0.671446 0
M  V30 7942 H 796.217 -4.18424 -0.499934 0
M  V30 7943 H 794.941 -3.08346 -1.07659 0
M  V30 7944 H 793.6 -3.52416 1.00989 0
M  V30 7945 H 793.248 -4.92271 -1.03338 0
M  V30 7946 H 792.948 -5.85855 0.452494 0
M  V30 7947 H 794.472 -6.08933 -0.450924 0
M  V30 7948 H 795.886 -5.46481 1.73297 0
M  V30 7949 H 794.283 -5.44444 2.52389 0
M  V30 7950 H 795.353 -4.03977 2.68199 0
M  V30 7951 N 796.696 -0.74468 -1.38897 0
M  V30 7952 C 797.629 -0.0596441 -2.28122 0
M  V30 7953 C 798.607 0.73764 -1.44906 0
M  V30 7954 O 799.791 0.718155 -1.74284 0
M  V30 7955 C 796.918 0.922533 -3.25894 0
M  V30 7956 C 795.964 0.212566 -4.2597 0
M  V30 7957 S 796.797 -1.08035 -5.24489 0
M  V30 7958 C 797.953 -0.101014 -6.25818 0
M  V30 7959 H 798.186 -0.816289 -2.85874 0
M  V30 7960 H 795.719 -0.536882 -1.44765 0
M  V30 7961 H 797.677 1.4839 -3.82741 0
M  V30 7962 H 796.338 1.65209 -2.67142 0
M  V30 7963 H 795.531 0.956106 -4.94848 0
M  V30 7964 H 795.133 -0.277029 -3.72973 0
M  V30 7965 H 797.425 0.736072 -6.7349 0
M  V30 7966 H 798.368 -0.757206 -7.0404 0
M  V30 7967 H 798.776 0.275706 -5.63826 0
M  V30 7968 N 798.174 1.49689 -0.493057 0
M  V30 7969 C 799.59 1.58907 -0.148526 0
M  V30 7970 C 799.79 1.4991 1.34645 0
M  V30 7971 O 798.846 1.36893 2.12171 0
M  V30 7972 C 800.159 2.91996 -0.718265 0
M  V30 7973 C 801.707 3.05443 -0.683658 0
M  V30 7974 C 802.182 4.41138 -1.23132 0
M  V30 7975 N 803.673 4.47608 -1.19167 0
M  V30 7976 C 804.408 5.51038 -1.5857 0
M  V30 7977 N 803.904 6.61612 -2.05528 0
M  V30 7978 N 805.697 5.41706 -1.50036 0
M  V30 7979 H 797.848 1.5378 -1.46511 0
M  V30 7980 H 800.111 0.727996 -0.607228 0
M  V30 7981 H 799.817 3.04123 -1.7664 0
M  V30 7982 H 799.691 3.76798 -0.17419 0
M  V30 7983 H 802.078 2.92949 0.355626 0
M  V30 7984 H 802.159 2.22344 -1.26479 0
M  V30 7985 H 801.803 4.54382 -2.26935 0
M  V30 7986 H 801.733 5.22864 -0.626201 0
M  V30 7987 H 804.224 3.68274 -0.847524 0
M  V30 7988 H 804.537 7.36622 -2.33685 0
M  V30 7989 H 802.882 6.62674 -2.09497 0
M  V30 7990 H 806.073 4.54212 -1.13176 0
M  V30 7991 H 806.246 6.22188 -1.81068 0
M  V30 7992 N 799.652 0.226554 1.55963 0
M  V30 7993 C 801.068 -0.128733 1.5908 0
M  V30 7994 C 801.268 -1.58558 1.24345 0
M  V30 7995 O 800.324 -2.32661 0.981069 0
M  V30 7996 C 801.637 0.202076 3.0002 0
M  V30 7997 C 803.185 0.144718 3.12665 0
M  V30 7998 C 803.66 0.449272 4.55791 0
M  V30 7999 N 805.151 0.399026 4.61478 0
M  V30 8000 C 805.886 0.608106 5.70166 0
M  V30 8001 N 805.382 0.879227 6.87198 0
M  V30 8002 N 807.175 0.5402 5.59498 0
M  V30 8003 H 799.326 1.17686 1.76816 0
M  V30 8004 H 801.589 0.472072 0.822102 0
M  V30 8005 H 801.295 1.21341 3.30105 0
M  V30 8006 H 801.169 -0.480554 3.74126 0
M  V30 8007 H 803.556 -0.857261 2.82374 0
M  V30 8008 H 803.637 0.860899 2.40878 0
M  V30 8009 H 803.281 1.44871 4.86801 0
M  V30 8010 H 803.211 -0.288157 5.25811 0
M  V30 8011 H 805.702 0.197372 3.77384 0
M  V30 8012 H 806.015 1.02673 7.65949 0
M  V30 8013 H 804.36 0.916477 6.88931 0
M  V30 8014 H 807.551 0.328581 4.66945 0
M  V30 8015 H 807.724 0.706548 6.44137 0
M  V30 8016 N 801.13 -1.57531 -0.0467866 0
M  V30 8017 C 802.062 -2.02156 -1.08007 0
M  V30 8018 C 803.075 -0.931434 -1.33522 0
M  V30 8019 O 804.264 -1.209 -1.31321 0
M  V30 8020 C 801.364 -2.36675 -2.42566 0
M  V30 8021 C 800.537 -3.67848 -2.36658 0
M  V30 8022 C 799.596 -3.89754 -3.53523 0
M  V30 8023 O 798.622 -4.61036 -3.33818 0
M  V30 8024 N 799.824 -3.34025 -4.74771 0
M  V30 8025 H 802.589 -2.91414 -0.699845 0
M  V30 8026 H 800.15 -1.60185 -0.235041 0
M  V30 8027 H 802.142 -2.48482 -3.19435 0
M  V30 8028 H 800.712 -1.53178 -2.72498 0
M  V30 8029 H 799.932 -3.66561 -1.45005 0
M  V30 8030 H 801.22 -4.53931 -2.29835 0
M  V30 8031 H 800.618 -2.76214 -4.93683 0
M  V30 8032 H 799.175 -3.51241 -5.49066 0
M  V30 8033 N 802.608 0.318715 -1.54344 0
M  V30 8034 C 803.518 1.41535 -1.87097 0
M  V30 8035 C 804.534 1.56361 -0.763353 0
M  V30 8036 O 805.71 1.71365 -1.05811 0
M  V30 8037 C 802.775 2.76178 -2.09587 0
M  V30 8038 C 801.836 2.70486 -3.3337 0
M  V30 8039 C 801.069 3.98708 -3.54778 0
M  V30 8040 O 801.292 4.9721 -2.79532 0
M  V30 8041 O 800.226 4.01674 -4.48266 0
M  V30 8042 H 804.052 1.16764 -2.80357 0
M  V30 8043 H 801.637 0.51318 -1.4031 0
M  V30 8044 H 803.519 3.55873 -2.25682 0
M  V30 8045 H 802.194 3.00829 -1.19514 0
M  V30 8046 H 801.101 1.89325 -3.22656 0
M  V30 8047 H 802.434 2.50789 -4.23516 0
M  V30 8048 N 804.086 1.46499 0.581025 0
M  V30 8049 C 804.996 1.59778 1.71779 0
M  V30 8050 C 806.012 0.481223 1.67213 0
M  V30 8051 O 807.188 0.74557 1.87091 0
M  V30 8052 C 804.253 1.58626 3.08283 0
M  V30 8053 C 803.314 2.81527 3.241 0
M  V30 8054 C 802.547 2.80421 4.54092 0
M  V30 8055 O 802.77 1.89262 5.38085 0
M  V30 8056 O 801.704 3.71984 4.73193 0
M  V30 8057 H 805.53 2.55918 1.63523 0
M  V30 8058 H 803.115 1.29311 0.748267 0
M  V30 8059 H 804.997 1.60686 3.89561 0
M  V30 8060 H 803.672 0.656467 3.16973 0
M  V30 8061 H 802.579 2.85021 2.42309 0
M  V30 8062 H 803.912 3.73721 3.20302 0
M  V30 8063 N 805.565 -0.825799 1.34232 0
M  V30 8064 C 806.495 -1.95151 1.28212 0
M  V30 8065 C 807.476 -1.69345 0.160123 0
M  V30 8066 O 808.661 -1.90983 0.352019 0
M  V30 8067 C 805.791 -3.31554 1.03388 0
M  V30 8068 C 804.745 -3.71793 2.12023 0
M  V30 8069 C 804.071 -5.06147 1.72392 0
M  V30 8070 C 805.371 -3.84193 3.53826 0
M  V30 8071 H 807.065 -2.00445 2.22401 0
M  V30 8072 H 804.611 -0.962996 1.07063 0
M  V30 8073 H 806.564 -4.09889 0.978225 0
M  V30 8074 H 805.288 -3.26551 0.0564142 0
M  V30 8075 H 803.947 -2.95731 2.16654 0
M  V30 8076 H 803.595 -4.97628 0.733137 0
M  V30 8077 H 803.295 -5.34041 2.451 0
M  V30 8078 H 804.819 -5.86943 1.68317 0
M  V30 8079 H 806.233 -4.52806 3.51624 0
M  V30 8080 H 804.63 -4.23538 4.2513 0
M  V30 8081 H 805.7 -2.86272 3.91377 0
M  V30 8082 N 807.043 -1.17915 -1.04565 0
M  V30 8083 C 808.459 -0.927761 -1.29864 0
M  V30 8084 C 808.659 0.409536 -1.97294 0
M  V30 8085 O 807.715 1.14505 -2.25044 0
M  V30 8086 C 809.028 -2.08967 -2.16225 0
M  V30 8087 C 810.576 -2.12741 -2.29587 0
M  V30 8088 C 811.051 -3.28335 -3.19312 0
M  V30 8089 N 812.542 -3.28164 -3.26898 0
M  V30 8090 C 813.277 -4.14249 -3.96466 0
M  V30 8091 N 812.773 -5.10457 -4.68407 0
M  V30 8092 N 814.566 -4.02179 -3.92694 0
M  V30 8093 H 806.717 -2.03983 -0.592011 0
M  V30 8094 H 808.98 -0.891023 -0.323701 0
M  V30 8095 H 808.686 -3.05654 -1.73979 0
M  V30 8096 H 808.56 -2.04606 -3.16885 0
M  V30 8097 H 810.947 -1.16636 -2.71072 0
M  V30 8098 H 811.028 -2.21162 -1.28535 0
M  V30 8099 H 810.672 -4.2471 -2.78539 0
M  V30 8100 H 810.602 -3.17151 -4.20384 0
M  V30 8101 H 813.093 -2.58511 -2.75646 0
M  V30 8102 H 813.406 -5.72526 -5.1907 0
M  V30 8103 H 811.751 -5.14422 -4.67328 0
M  V30 8104 H 814.942 -3.26308 -3.3562 0
M  V30 8105 H 815.115 -4.69486 -4.4664 0
M  V30 8106 N 808.521 1.23394 -0.980386 0
M  V30 8107 C 809.937 1.43961 -0.689008 0
M  V30 8108 C 810.137 1.87229 0.744809 0
M  V30 8109 O 809.193 2.01831 1.51725 0
M  V30 8110 C 810.506 2.49128 -1.68392 0
M  V30 8111 C 812.054 2.62941 -1.69796 0
M  V30 8112 C 812.529 3.71317 -2.68118 0
M  V30 8113 N 814.02 3.7876 -2.66636 0
M  V30 8114 C 814.755 4.62176 -3.39383 0
M  V30 8115 N 814.251 5.49682 -4.21688 0
M  V30 8116 N 816.044 4.56372 -3.28147 0
M  V30 8117 H 808.195 0.936106 -1.90659 0
M  V30 8118 H 810.458 0.473023 -0.821555 0
M  V30 8119 H 810.164 2.24252 -2.70931 0
M  V30 8120 H 810.038 3.47514 -1.46675 0
M  V30 8121 H 812.425 2.87168 -0.679617 0
M  V30 8122 H 812.506 1.64871 -1.95579 0
M  V30 8123 H 812.15 3.4784 -3.70095 0
M  V30 8124 H 812.08 4.68929 -2.3961 0
M  V30 8125 H 814.571 3.16226 -2.06904 0
M  V30 8126 H 814.884 6.10323 -4.74053 0
M  V30 8127 H 813.229 5.49306 -4.25779 0
M  V30 8128 H 816.42 3.87029 -2.63299 0
M  V30 8129 H 816.593 5.21153 -3.85102 0
M  V30 8130 N 809.999 0.752036 1.385 0
M  V30 8131 C 810.932 0.0717411 2.28087 0
M  V30 8132 C 811.91 -0.729945 1.45295 0
M  V30 8133 O 813.094 -0.708902 1.74662 0
M  V30 8134 C 810.221 -0.905237 3.26379 0
M  V30 8135 C 809.267 -0.189973 4.26077 0
M  V30 8136 S 810.1 1.10815 5.23909 0
M  V30 8137 C 811.256 0.134202 6.25756 0
M  V30 8138 H 811.489 0.831438 2.85437 0
M  V30 8139 H 809.022 0.544552 1.44478 0
M  V30 8140 H 810.98 -1.46358 3.83523 0
M  V30 8141 H 809.641 -1.63789 2.68015 0
M  V30 8142 H 808.834 -0.92985 4.95348 0
M  V30 8143 H 808.436 0.296804 3.7282 0
M  V30 8144 H 810.728 -0.700345 6.7387 0
M  V30 8145 H 811.671 0.794532 7.03628 0
M  V30 8146 H 812.079 -0.245801 5.63965 0
M  V30 8147 N 811.477 -1.49425 0.500989 0
M  V30 8148 C 812.387 -2.32899 -0.282011 0
M  V30 8149 C 813.403 -1.44632 -0.967346 0
M  V30 8150 O 814.579 -1.77654 -0.94873 0
M  V30 8151 C 811.644 -3.20069 -1.33253 0
M  V30 8152 C 810.705 -4.24186 -0.660636 0
M  V30 8153 C 809.938 -5.07191 -1.6611 0
M  V30 8154 O 810.161 -4.91712 -2.89094 0
M  V30 8155 O 809.095 -5.8948 -1.21643 0
M  V30 8156 H 812.921 -3.01038 0.401224 0
M  V30 8157 H 810.506 -1.47079 0.262323 0
M  V30 8158 H 812.388 -3.74071 -1.94033 0
M  V30 8159 H 811.063 -2.54625 -1.9987 0
M  V30 8160 H 809.97 -3.74098 -0.0130959 0
M  V30 8161 H 811.303 -4.92186 -0.0369179 0
M  V30 8162 N 812.955 -0.234822 -1.55841 0
M  V30 8163 C 813.865 0.680828 -2.24504 0
M  V30 8164 C 814.881 1.20306 -1.25708 0
M  V30 8165 O 816.057 1.24188 -1.58554 0
M  V30 8166 C 813.122 1.86636 -2.92178 0
M  V30 8167 C 812.183 1.3848 -4.06352 0
M  V30 8168 C 811.416 2.51382 -4.70789 0
M  V30 8169 O 811.639 3.69831 -4.34259 0
M  V30 8170 O 810.573 2.21828 -5.59532 0
M  V30 8171 H 814.399 0.12583 -3.03439 0
M  V30 8172 H 811.984 -0.00381817 -1.494 0
M  V30 8173 H 813.866 2.55845 -3.34845 0
M  V30 8174 H 812.541 2.40921 -2.16192 0
M  V30 8175 H 811.448 0.660341 -3.68226 0
M  V30 8176 H 812.781 0.888177 -4.8412 0
M  V30 8177 N 814.433 1.57553 0.0384317 0
M  V30 8178 C 815.363 2.0898 1.04161 0
M  V30 8179 C 816.344 0.99029 1.38301 0
M  V30 8180 O 817.529 1.26499 1.47349 0
M  V30 8181 C 814.659 2.56145 2.34536 0
M  V30 8182 C 813.613 3.70275 2.14663 0
M  V30 8183 C 812.939 4.03612 3.50715 0
M  V30 8184 C 814.239 4.99067 1.54045 0
M  V30 8185 H 815.933 2.93046 0.613548 0
M  V30 8186 H 813.479 1.40973 0.293684 0
M  V30 8187 H 815.432 2.90741 3.05037 0
M  V30 8188 H 814.156 1.6915 2.79385 0
M  V30 8189 H 812.815 3.36013 1.46597 0
M  V30 8190 H 812.463 3.13698 3.93195 0
M  V30 8191 H 812.163 4.80482 3.38247 0
M  V30 8192 H 813.687 4.40735 4.22593 0
M  V30 8193 H 815.101 5.3168 2.14451 0
M  V30 8194 H 813.498 5.80484 1.52178 0
M  V30 8195 H 814.568 4.8226 0.505259 0
M  V30 8196 N 815.911 -0.310526 1.54511 0
M  V30 8197 C 816.861 -1.38405 1.81185 0
M  V30 8198 C 817.845 -1.46355 0.668499 0
M  V30 8199 O 819.037 -1.50668 0.928873 0
M  V30 8200 C 816.166 -2.75059 2.0542 0
M  V30 8201 C 815.252 -2.7137 3.25913 0
M  V30 8202 N 815.643 -2.37298 4.4668 0
M  V30 8203 C 813.941 -3.02484 3.27749 0
M  V30 8204 C 814.642 -2.42669 5.28665 0
M  V30 8205 N 813.618 -2.79639 4.66158 0
M  V30 8206 H 817.42 -1.11012 2.72128 0
M  V30 8207 H 814.934 -0.519068 1.53881 0
M  V30 8208 H 816.931 -3.52451 2.22674 0
M  V30 8209 H 815.591 -3.03372 1.15739 0
M  V30 8210 H 816.602 -2.09917 4.73451 0
M  V30 8211 H 813.279 -3.35754 2.48144 0
M  V30 8212 H 814.669 -2.19206 6.35136 0
M  V30 8213 N 817.389 -1.46805 -0.573248 0
M  V30 8214 C 818.337 -1.58468 -1.70267 0
M  V30 8215 C 819.331 -0.452694 -1.63239 0
M  V30 8216 O 820.537 -0.629915 -1.68618 0
M  V30 8217 H 816.912 -0.498408 -0.56311 0
M  V30 8218 H 818.883 -2.5341 -1.57563 0
M  V30 8219 C 817.632 -1.60104 -3.08645 0
M  V30 8220 H 816.955 -2.4655 -3.14727 0
M  V30 8221 H 818.395 -1.72318 -3.87405 0
M  V30 8222 C 816.854 -0.33138 -3.35266 0
M  V30 8223 O 817.384 0.57438 -3.97572 0
M  V30 8224 N 815.59 -0.216358 -2.89793 0
M  V30 8225 H 815.137 -0.954345 -2.3927 0
M  V30 8226 H 815.095 0.632253 -3.07977 0
M  V30 8227 N 818.867 0.818669 -1.34668 0
M  V30 8228 C 819.799 1.93754 -1.22442 0
M  V30 8229 C 820.812 1.62103 -0.150501 0
M  V30 8230 O 822.001 1.73898 -0.402728 0
M  V30 8231 C 819.101 3.27806 -0.860031 0
M  V30 8232 C 818.274 3.8745 -2.02981 0
M  V30 8233 C 817.333 4.99887 -1.64314 0
M  V30 8234 O 816.359 5.17957 -2.36029 0
M  V30 8235 N 817.561 5.77795 -0.55976 0
M  V30 8236 H 820.326 2.04773 -2.18833 0
M  V30 8237 H 817.887 0.995472 -1.27679 0
M  V30 8238 H 819.879 4.00478 -0.583068 0
M  V30 8239 H 818.449 3.12597 0.0138253 0
M  V30 8240 H 817.669 3.07119 -2.47127 0
M  V30 8241 H 818.957 4.2403 -2.81204 0
M  V30 8242 H 818.355 5.65688 0.0363329 0
M  V30 8243 H 816.912 6.50899 -0.342541 0
M  V30 8244 N 820.346 1.18468 1.03938 0
M  V30 8245 C 821.256 0.927889 2.1547 0
M  V30 8246 C 822.272 -0.108447 1.73662 0
M  V30 8247 O 823.448 0.0737636 2.01265 0
M  V30 8248 C 820.513 0.458494 3.43655 0
M  V30 8249 C 819.574 1.56295 3.99838 0
M  V30 8250 C 818.807 1.11586 5.21904 0
M  V30 8251 O 819.03 -0.0249057 5.70395 0
M  V30 8252 O 817.964 1.91412 5.70653 0
M  V30 8253 H 821.79 1.86116 2.39989 0
M  V30 8254 H 819.375 0.966607 1.13917 0
M  V30 8255 H 821.257 0.204861 4.20902 0
M  V30 8256 H 819.932 -0.446464 3.20606 0
M  V30 8257 H 818.839 1.87061 3.23974 0
M  V30 8258 H 820.172 2.44408 4.2723 0
M  V30 8259 N 821.824 -1.22873 0.986916 0
M  V30 8260 C 822.757 -2.23154 0.477245 0
M  V30 8261 C 823.735 -1.55981 -0.459206 0
M  V30 8262 O 824.919 -1.84503 -0.386141 0
M  V30 8263 C 822.046 -3.37289 -0.308838 0
M  V30 8264 C 821.092 -4.22637 0.572717 0
M  V30 8265 S 821.925 -4.95758 2.02446 0
M  V30 8266 C 823.081 -6.13338 1.2477 0
M  V30 8267 H 823.314 -2.6604 1.32702 0
M  V30 8268 H 820.847 -1.32455 0.793415 0
M  V30 8269 H 822.805 -4.03472 -0.756351 0
M  V30 8270 H 821.466 -2.92922 -1.13381 0
M  V30 8271 H 820.659 -5.0399 -0.0318024 0
M  V30 8272 H 820.261 -3.61555 0.956746 0
M  V30 8273 H 822.553 -6.7556 0.51231 0
M  V30 8274 H 823.496 -6.78189 2.03629 0
M  V30 8275 H 823.904 -5.59311 0.763622 0
M  V30 8276 N 823.302 -0.75937 -1.38099 0
M  V30 8277 C 824.234 -0.0956547 -2.29 0
M  V30 8278 C 825.247 0.677561 -1.4803 0
M  V30 8279 O 826.436 0.517696 -1.70828 0
M  V30 8280 C 823.536 0.88844 -3.27047 0
M  V30 8281 C 822.709 0.171652 -4.37063 0
M  V30 8282 C 821.768 1.06733 -5.15262 0
M  V30 8283 O 820.794 0.535698 -5.66674 0
M  V30 8284 N 821.996 2.39486 -5.28797 0
M  V30 8285 H 824.761 -0.876354 -2.86601 0
M  V30 8286 H 822.322 -0.61065 -1.49942 0
M  V30 8287 H 824.314 1.49079 -3.76241 0
M  V30 8288 H 822.884 1.57018 -2.70304 0
M  V30 8289 H 822.104 -0.611473 -3.89429 0
M  V30 8290 H 823.392 -0.324121 -5.07767 0
M  V30 8291 H 822.79 2.85127 -4.88589 0
M  V30 8292 H 821.347 2.94758 -5.81344 0
M  V30 8293 N 824.78 1.49157 -0.508906 0
M  V30 8294 C 825.727 2.2927 0.265288 0
M  V30 8295 C 826.697 1.3603 0.953162 0
M  V30 8296 O 827.882 1.64989 0.958291 0
M  V30 8297 C 825.022 3.18897 1.31904 0
M  V30 8298 C 824.135 4.27201 0.642144 0
M  V30 8299 C 823.27 5.04033 1.67701 0
M  V30 8300 C 822.309 6.04165 0.982422 0
M  V30 8301 N 821.446 6.74133 1.96186 0
M  V30 8302 H 826.286 2.94967 -0.424107 0
M  V30 8303 H 823.823 1.45431 -0.220991 0
M  V30 8304 H 825.781 3.69242 1.94206 0
M  V30 8305 H 824.411 2.55168 1.97709 0
M  V30 8306 H 823.463 3.80283 -0.0943395 0
M  V30 8307 H 824.775 4.98708 0.0957507 0
M  V30 8308 H 823.929 5.58287 2.37487 0
M  V30 8309 H 822.668 4.32317 2.25728 0
M  V30 8310 H 821.673 5.49135 0.270378 0
M  V30 8311 H 822.898 6.7787 0.408554 0
M  V30 8312 H 820.844 6.05183 2.53159 0
M  V30 8313 H 820.761 7.41643 1.46634 0
M  V30 8314 H 822.029 7.32987 2.65236 0
M  V30 8315 N 826.258 0.243083 1.55714 0
M  V30 8316 C 827.674 -0.111853 1.59208 0
M  V30 8317 C 827.874 -1.5723 1.2602 0
M  V30 8318 O 826.93 -2.31608 1.00569 0
M  V30 8319 C 828.243 0.233885 2.99789 0
M  V30 8320 C 829.791 0.177873 3.12494 0
M  V30 8321 C 830.266 0.49759 4.55289 0
M  V30 8322 N 831.757 0.447949 4.61029 0
M  V30 8323 C 832.492 0.668545 5.69489 0
M  V30 8324 N 831.988 0.952064 6.86227 0
M  V30 8325 N 833.781 0.599512 5.58894 0
M  V30 8326 H 825.932 1.19554 1.75558 0
M  V30 8327 H 828.195 0.480765 0.817049 0
M  V30 8328 H 827.901 1.24835 3.28799 0
M  V30 8329 H 827.775 -0.440846 3.74615 0
M  V30 8330 H 830.162 -0.827263 2.83267 0
M  V30 8331 H 830.243 0.886399 2.39951 0
M  V30 8332 H 829.887 1.50026 4.85237 0
M  V30 8333 H 829.817 -0.232371 5.26087 0
M  V30 8334 H 832.308 0.237388 3.77154 0
M  V30 8335 H 832.621 1.10791 7.64817 0
M  V30 8336 H 830.966 0.989496 6.8792 0
M  V30 8337 H 834.157 0.378088 4.66571 0
M  V30 8338 H 834.33 0.774828 6.43351 0
M  V30 8339 N 827.736 -1.57571 -0.0300757 0
M  V30 8340 C 828.683 -2.06492 -1.03101 0
M  V30 8341 C 829.653 -0.953862 -1.3598 0
M  V30 8342 O 830.838 -1.22436 -1.46335 0
M  V30 8343 C 827.978 -2.54826 -2.32718 0
M  V30 8344 C 827.091 -3.79718 -2.06006 0
M  V30 8345 C 826.226 -4.16668 -3.29487 0
M  V30 8346 C 825.265 -5.3448 -2.98324 0
M  V30 8347 N 824.402 -5.66867 -4.14254 0
M  V30 8348 H 829.242 -2.91755 -0.606877 0
M  V30 8349 H 826.779 -1.44252 -0.288038 0
M  V30 8350 H 828.737 -2.80916 -3.08451 0
M  V30 8351 H 827.367 -1.72481 -2.72856 0
M  V30 8352 H 826.419 -3.60718 -1.20774 0
M  V30 8353 H 827.731 -4.65569 -1.79017 0
M  V30 8354 H 826.885 -4.43881 -4.13588 0
M  V30 8355 H 825.624 -3.29466 -3.59588 0
M  V30 8356 H 824.629 -5.07021 -2.12625 0
M  V30 8357 H 825.854 -6.23334 -2.69502 0
M  V30 8358 H 823.8 -4.82625 -4.44308 0
M  V30 8359 H 823.717 -6.47226 -3.90685 0
M  V30 8360 H 824.985 -5.98656 -4.99231 0
M  V30 8361 N 829.214 0.302327 -1.54673 0
M  V30 8362 C 830.124 1.39542 -1.88587 0
M  V30 8363 C 831.14 1.55543 -0.779895 0
M  V30 8364 O 832.316 1.70233 -1.07623 0
M  V30 8365 C 829.381 2.7394 -2.12504 0
M  V30 8366 C 828.442 2.66935 -3.3622 0
M  V30 8367 C 827.675 3.94923 -3.58987 0
M  V30 8368 O 827.898 4.94218 -2.84789 0
M  V30 8369 O 826.832 3.96896 -4.52501 0
M  V30 8370 H 830.658 1.13784 -2.81579 0
M  V30 8371 H 828.243 0.49827 -1.40846 0
M  V30 8372 H 830.125 3.5346 -2.29443 0
M  V30 8373 H 828.8 2.99544 -1.22698 0
M  V30 8374 H 827.707 1.85892 -3.24646 0
M  V30 8375 H 829.04 2.46283 -4.26152 0
M  V30 8376 N 830.692 1.47107 0.565454 0
M  V30 8377 C 831.625 1.53505 1.68853 0
M  V30 8378 C 832.603 0.387806 1.57908 0
M  V30 8379 O 833.787 0.594433 1.78882 0
M  V30 8380 C 830.914 1.42985 3.07039 0
M  V30 8381 C 829.96 2.62109 3.36454 0
M  V30 8382 S 830.793 4.2436 3.26617 0
M  V30 8383 C 831.949 4.16378 4.67312 0
M  V30 8384 H 832.182 2.48522 1.63169 0
M  V30 8385 H 829.715 1.35204 0.745609 0
M  V30 8386 H 831.673 1.37602 3.8675 0
M  V30 8387 H 830.334 0.493671 3.10196 0
M  V30 8388 H 829.527 2.50788 4.37174 0
M  V30 8389 H 829.129 2.64571 2.64345 0
M  V30 8390 H 831.421 3.84123 5.58082 0
M  V30 8391 H 832.364 5.17156 4.83689 0
M  V30 8392 H 832.772 3.47363 4.44971 0
M  V30 8393 N 832.17 -0.811516 1.35101 0
M  V30 8394 C 833.102 -1.93102 1.23468 0
M  V30 8395 C 834.115 -1.62021 0.159095 0
M  V30 8396 O 835.304 -1.73682 0.411945 0
M  V30 8397 C 832.404 -3.27345 0.877404 0
M  V30 8398 C 831.577 -3.86368 2.05033 0
M  V30 8399 C 830.636 -4.99009 1.66963 0
M  V30 8400 O 829.662 -5.16698 2.38772 0
M  V30 8401 N 830.864 -5.7749 0.590394 0
M  V30 8402 H 833.629 -2.0361 2.19916 0
M  V30 8403 H 831.19 -0.988687 1.28205 0
M  V30 8404 H 833.182 -4.00163 0.604298 0
M  V30 8405 H 831.752 -3.126 0.00275267 0
M  V30 8406 H 830.972 -3.05804 2.48752 0
M  V30 8407 H 832.26 -4.22533 2.83449 0
M  V30 8408 H 831.658 -5.657 -0.00633259 0
M  V30 8409 H 830.215 -6.50708 0.377055 0
M  V30 8410 N 833.648 -1.19017 -1.03309 0
M  V30 8411 C 834.578 -0.94772 -2.13402 0
M  V30 8412 C 835.559 0.117383 -1.69694 0
M  V30 8413 O 836.744 -0.0367733 -1.94165 0
M  V30 8414 C 833.874 -0.480977 -3.43953 0
M  V30 8415 C 832.828 -1.48743 -4.01322 0
M  V30 8416 C 832.154 -0.877924 -5.27443 0
M  V30 8417 C 833.454 -2.86642 -4.36616 0
M  V30 8418 H 835.148 -1.86846 -2.33942 0
M  V30 8419 H 832.694 -0.899781 -1.12427 0
M  V30 8420 H 834.647 -0.298677 -4.2034 0
M  V30 8421 H 833.371 0.475348 -3.23122 0
M  V30 8422 H 832.03 -1.65681 -3.27025 0
M  V30 8423 H 831.678 0.0858232 -5.02927 0
M  V30 8424 H 831.378 -1.54996 -5.66789 0
M  V30 8425 H 832.902 -0.706326 -6.06501 0
M  V30 8426 H 834.316 -2.73312 -5.03958 0
M  V30 8427 H 832.713 -3.50599 -4.87032 0
M  V30 8428 H 833.783 -3.39617 -3.46105 0
M  V30 8429 N 835.127 1.22348 -0.993418 0
M  V30 8430 C 836.543 1.43222 -0.704238 0
M  V30 8431 C 836.743 1.88009 0.724909 0
M  V30 8432 O 835.799 2.03429 1.49575 0
M  V30 8433 C 837.112 2.47328 -1.71025 0
M  V30 8434 C 838.66 2.61126 -1.72576 0
M  V30 8435 C 839.135 3.68453 -2.72041 0
M  V30 8436 N 840.626 3.75911 -2.70639 0
M  V30 8437 C 841.361 4.58551 -3.44266 0
M  V30 8438 N 840.857 5.45179 -4.27495 0
M  V30 8439 N 842.65 4.52866 -3.32969 0
M  V30 8440 H 834.801 0.915832 -1.91641 0
M  V30 8441 H 837.064 0.464283 -0.826526 0
M  V30 8442 H 836.77 2.21366 -2.73295 0
M  V30 8443 H 836.644 3.45939 -1.50353 0
M  V30 8444 H 839.031 2.86431 -0.710037 0
M  V30 8445 H 839.112 1.62787 -1.97317 0
M  V30 8446 H 838.756 3.43895 -3.73763 0
M  V30 8447 H 838.686 4.66362 -2.4457 0
M  V30 8448 H 841.177 3.14014 -2.10247 0
M  V30 8449 H 841.49 6.0526 -4.80499 0
M  V30 8450 H 839.835 5.44759 -4.31582 0
M  V30 8451 H 843.026 3.84215 -2.67389 0
M  V30 8452 H 843.199 5.17039 -3.90608 0
M  V30 8453 N 836.605 0.766683 1.37694 0
M  V30 8454 C 837.537 0.107798 2.28946 0
M  V30 8455 C 838.55 -0.669701 1.48387 0
M  V30 8456 O 839.739 -0.508629 1.711 0
M  V30 8457 C 836.839 -0.871084 3.27514 0
M  V30 8458 C 836.012 -0.148471 4.37148 0
M  V30 8459 C 835.071 -1.03998 5.1582 0
M  V30 8460 O 834.097 -0.505639 5.6695 0
M  V30 8461 N 835.299 -2.36679 5.3006 0
M  V30 8462 H 838.064 0.89154 2.86132 0
M  V30 8463 H 835.625 0.618593 1.49616 0
M  V30 8464 H 837.617 -1.47081 3.77027 0
M  V30 8465 H 836.187 -1.55582 2.71133 0
M  V30 8466 H 835.407 0.632117 3.89099 0
M  V30 8467 H 836.695 0.351045 5.07588 0
M  V30 8468 H 836.093 -2.82532 4.90094 0
M  V30 8469 H 834.65 -2.9167 5.82899 0
M  V30 8470 N 838.083 -1.48885 0.516809 0
M  V30 8471 C 838.993 -2.33185 -0.257293 0
M  V30 8472 C 840.009 -1.4565 -0.951952 0
M  V30 8473 O 841.185 -1.78651 -0.929834 0
M  V30 8474 C 838.25 -3.21465 -1.29851 0
M  V30 8475 C 837.311 -4.24863 -0.615608 0
M  V30 8476 C 836.544 -5.08925 -1.60722 0
M  V30 8477 O 836.767 -4.9475 -2.83863 0
M  V30 8478 O 835.701 -5.90737 -1.15384 0
M  V30 8479 H 839.527 -3.00596 0.433131 0
M  V30 8480 H 837.112 -1.46792 0.277908 0
M  V30 8481 H 838.994 -3.76108 -1.90055 0
M  V30 8482 H 837.669 -2.5673 -1.97158 0
M  V30 8483 H 836.576 -3.74091 0.0265829 0
M  V30 8484 H 837.909 -4.92198 0.0152871 0
M  V30 8485 N 839.561 -0.251338 -1.55583 0
M  V30 8486 C 840.471 0.656978 -2.25213 0
M  V30 8487 C 841.487 1.18966 -1.26977 0
M  V30 8488 O 842.663 1.22499 -1.59862 0
M  V30 8489 C 839.728 1.83527 -2.94141 0
M  V30 8490 C 838.789 1.34162 -4.07798 0
M  V30 8491 C 838.022 2.46375 -4.73429 0
M  V30 8492 O 838.245 3.65205 -4.38157 0
M  V30 8493 O 837.179 2.15881 -5.61853 0
M  V30 8494 H 841.005 0.0936395 -3.03556 0
M  V30 8495 H 838.59 -0.0196638 -1.49387 0
M  V30 8496 H 840.472 2.52279 -3.3754 0
M  V30 8497 H 839.147 2.38614 -2.18735 0
M  V30 8498 H 838.054 0.621249 -3.68906 0
M  V30 8499 H 839.387 0.836779 -4.85035 0
M  V30 8500 N 841.039 1.57585 0.0217189 0
M  V30 8501 C 841.949 2.10444 1.03684 0
M  V30 8502 C 842.965 1.04472 1.39146 0
M  V30 8503 O 844.141 1.36249 1.48317 0
M  V30 8504 C 841.206 2.5794 2.31664 0
M  V30 8505 C 840.267 3.78425 2.02714 0
M  V30 8506 C 839.5 4.23646 3.24592 0
M  V30 8507 O 839.723 3.6834 4.35525 0
M  V30 8508 O 838.657 5.16013 3.09862 0
M  V30 8509 H 842.483 2.97354 0.617584 0
M  V30 8510 H 840.068 1.47473 0.239174 0
M  V30 8511 H 841.95 2.88785 3.06889 0
M  V30 8512 H 840.625 1.74138 2.7287 0
M  V30 8513 H 839.532 3.52587 1.25033 0
M  V30 8514 H 840.865 4.63234 1.66359 0
M  V30 8515 N 842.517 -0.29412 1.54831 0
M  V30 8516 C 843.933 -0.640167 1.46199 0
M  V30 8517 C 844.133 -1.90426 0.658798 0
M  V30 8518 O 843.189 -2.51932 0.169228 0
M  V30 8519 C 844.502 -0.786763 2.90225 0
M  V30 8520 C 846.05 -0.882201 3.0031 0
M  V30 8521 C 846.525 -1.06074 4.45547 0
M  V30 8522 N 848.016 -1.12678 4.49286 0
M  V30 8523 C 848.751 -1.28334 5.58854 0
M  V30 8524 N 848.247 -1.40845 6.78332 0
M  V30 8525 N 850.04 -1.31277 5.46555 0
M  V30 8526 H 842.191 0.536334 2.05517 0
M  V30 8527 H 844.454 0.178363 0.93107 0
M  V30 8528 H 844.16 0.0713018 3.51628 0
M  V30 8529 H 844.034 -1.67364 3.38037 0
M  V30 8530 H 846.421 -1.73075 2.39017 0
M  V30 8531 H 846.502 0.0288405 2.55784 0
M  V30 8532 H 846.146 -0.216935 5.07437 0
M  V30 8533 H 846.076 -1.98611 4.8771 0
M  V30 8534 H 848.567 -1.04335 3.63212 0
M  V30 8535 H 848.88 -1.52566 7.57591 0
M  V30 8536 H 847.225 -1.37888 6.81184 0
M  V30 8537 H 850.416 -1.2112 4.52159 0
M  V30 8538 H 850.589 -1.43136 6.31994 0
M  V30 8539 N 843.995 -1.47404 -0.557645 0
M  V30 8540 C 845.411 -1.32913 -0.88353 0
M  V30 8541 C 845.611 -0.31929 -1.98954 0
M  V30 8542 O 844.667 0.26934 -2.51059 0
M  V30 8543 C 845.98 -2.72229 -1.27718 0
M  V30 8544 C 847.528 -2.8051 -1.38863 0
M  V30 8545 C 848.003 -4.20466 -1.81583 0
M  V30 8546 N 849.494 -4.23005 -1.88735 0
M  V30 8547 C 850.229 -5.2821 -2.23118 0
M  V30 8548 N 849.725 -6.4372 -2.56117 0
M  V30 8549 N 851.518 -5.15588 -2.23888 0
M  V30 8550 H 843.669 -2.11698 0.172557 0
M  V30 8551 H 845.932 -0.947889 0.0145334 0
M  V30 8552 H 845.638 -3.47556 -0.538329 0
M  V30 8553 H 845.512 -3.03971 -2.23342 0
M  V30 8554 H 847.899 -2.05457 -2.11829 0
M  V30 8555 H 847.98 -2.52423 -0.414274 0
M  V30 8556 H 847.624 -4.96025 -1.09187 0
M  V30 8557 H 847.554 -4.45977 -2.80021 0
M  V30 8558 H 850.045 -3.39674 -1.65621 0
M  V30 8559 H 850.358 -7.19754 -2.81378 0
M  V30 8560 H 848.703 -6.47041 -2.53698 0
M  V30 8561 H 851.894 -4.24374 -1.97546 0
M  V30 8562 H 852.067 -5.97685 -2.50353 0
M  V30 8563 N 845.473 0.80434 -1.35529 0
M  V30 8564 C 846.889 1.10023 -1.15616 0
M  V30 8565 C 847.089 2.01478 0.0298535 0
M  V30 8566 O 846.145 2.42609 0.699778 0
M  V30 8567 C 847.458 1.72905 -2.46017 0
M  V30 8568 C 849.006 1.85315 -2.52245 0
M  V30 8569 C 849.481 2.51612 -3.82695 0
M  V30 8570 N 850.972 2.59095 -3.83958 0
M  V30 8571 C 851.707 3.11167 -4.81625 0
M  V30 8572 N 851.203 3.63659 -5.89681 0
M  V30 8573 N 852.996 3.09741 -4.6906 0
M  V30 8574 H 845.147 0.196428 -2.1149 0
M  V30 8575 H 847.41 0.149735 -0.9361 0
M  V30 8576 H 847.116 1.13171 -3.32994 0
M  V30 8577 H 846.99 2.72579 -2.6073 0
M  V30 8578 H 849.377 2.44191 -1.65695 0
M  V30 8579 H 849.458 0.844886 -2.41444 0
M  V30 8580 H 849.102 1.93385 -4.69643 0
M  V30 8581 H 849.032 3.5298 -3.90785 0
M  V30 8582 H 851.523 2.21908 -3.05884 0
M  V30 8583 H 851.836 4.01699 -6.60195 0
M  V30 8584 H 850.181 3.61852 -5.9337 0
M  V30 8585 H 853.372 2.68011 -3.83781 0
M  V30 8586 H 853.545 3.50016 -5.45338 0
M  V30 8587 N 846.951 1.19563 1.02676 0
M  V30 8588 C 848.367 0.948304 1.28372 0
M  V30 8589 C 848.567 -0.378096 1.97921 0
M  V30 8590 O 847.623 -1.1091 2.26838 0
M  V30 8591 C 848.936 2.12381 2.12873 0
M  V30 8592 C 850.484 2.16366 2.26174 0
M  V30 8593 C 850.959 3.33374 3.14048 0
M  V30 8594 N 852.45 3.33323 3.21636 0
M  V30 8595 C 853.185 4.20504 3.89825 0
M  V30 8596 N 852.681 5.17845 4.60227 0
M  V30 8597 N 854.474 4.08375 3.86246 0
M  V30 8598 H 846.625 2.04899 0.559485 0
M  V30 8599 H 848.888 0.89606 0.309484 0
M  V30 8600 H 848.594 3.08383 1.69094 0
M  V30 8601 H 848.468 2.09621 3.1359 0
M  V30 8602 H 850.855 1.20933 2.69182 0
M  V30 8603 H 850.936 2.23179 1.25 0
M  V30 8604 H 850.58 4.29087 2.71747 0
M  V30 8605 H 850.51 3.23798 4.15286 0
M  V30 8606 H 853.001 2.62863 2.71498 0
M  V30 8607 H 853.314 5.80712 5.09896 0
M  V30 8608 H 851.659 5.21791 4.59085 0
M  V30 8609 H 854.85 3.31606 3.30386 0
M  V30 8610 H 855.023 4.76532 4.39114 0
M  V30 8611 N 848.429 -1.21819 0.999893 0
M  V30 8612 C 849.339 -2.27691 0.565159 0
M  V30 8613 C 850.355 -1.69587 -0.389398 0
M  V30 8614 O 851.531 -1.99786 -0.254499 0
M  V30 8615 C 848.596 -3.46537 -0.106432 0
M  V30 8616 C 847.657 -4.19932 0.891964 0
M  V30 8617 C 846.89 -5.33103 0.252327 0
M  V30 8618 O 847.113 -5.62398 -0.952103 0
M  V30 8619 O 846.047 -5.94184 0.960698 0
M  V30 8620 H 849.873 -2.67059 1.44613 0
M  V30 8621 H 847.458 -1.28119 0.768499 0
M  V30 8622 H 849.34 -4.18631 -0.482301 0
M  V30 8623 H 848.015 -3.09079 -0.961865 0
M  V30 8624 H 846.922 -3.5008 1.3189 0
M  V30 8625 H 848.255 -4.61287 1.71682 0
M  V30 8626 N 849.908 -0.773975 -1.37286 0
M  V30 8627 C 850.818 -0.162571 -2.34036 0
M  V30 8628 C 851.834 0.677022 -1.60289 0
M  V30 8629 O 853.01 0.596423 -1.92366 0
M  V30 8630 C 850.075 0.70457 -3.39465 0
M  V30 8631 C 849.136 -0.151738 -4.29032 0
M  V30 8632 C 848.369 0.674111 -5.29426 0
M  V30 8633 O 848.592 1.91107 -5.37433 0
M  V30 8634 O 847.526 0.0821398 -6.01844 0
M  V30 8635 H 851.352 -0.962119 -2.88057 0
M  V30 8636 H 848.937 -0.53517 -1.39486 0
M  V30 8637 H 850.819 1.19954 -4.03967 0
M  V30 8638 H 849.494 1.48227 -2.87768 0
M  V30 8639 H 848.401 -0.693118 -3.67623 0
M  V30 8640 H 849.734 -0.892575 -4.84039 0
M  V30 8641 N 851.386 1.48609 -0.524698 0
M  V30 8642 C 852.296 2.33318 0.244923 0
M  V30 8643 C 853.312 1.46153 0.944214 0
M  V30 8644 O 854.488 1.79141 0.920347 0
M  V30 8645 C 851.553 3.22149 1.28144 0
M  V30 8646 C 850.614 4.25184 0.593068 0
M  V30 8647 C 849.847 5.0977 1.5802 0
M  V30 8648 O 850.07 4.96249 2.81235 0
M  V30 8649 O 849.004 5.9134 1.1225 0
M  V30 8650 H 852.83 3.00362 -0.449066 0
M  V30 8651 H 850.415 1.46643 -0.285689 0
M  V30 8652 H 852.297 3.77111 1.88057 0
M  V30 8653 H 850.972 2.57772 1.95793 0
M  V30 8654 H 849.879 3.74071 -0.0464214 0
M  V30 8655 H 851.212 4.92183 -0.0413893 0
M  V30 8656 N 852.864 0.259585 1.55447 0
M  V30 8657 C 853.797 -0.675542 2.17972 0
M  V30 8658 C 854.775 -1.16362 1.13572 0
M  V30 8659 O 855.959 -1.23944 1.42021 0
M  V30 8660 C 853.086 -1.91952 2.79056 0
M  V30 8661 C 852.132 -1.56824 3.96621 0
M  V30 8662 S 852.965 -0.659846 5.31419 0
M  V30 8663 C 854.121 -1.91255 5.95963 0
M  V30 8664 H 854.354 -0.144236 2.9695 0
M  V30 8665 H 851.887 0.0439448 1.54337 0
M  V30 8666 H 853.845 -2.63362 3.14882 0
M  V30 8667 H 852.506 -2.42196 2 0
M  V30 8668 H 851.699 -2.49348 4.37997 0
M  V30 8669 H 851.301 -0.934472 3.62138 0
M  V30 8670 H 853.593 -2.85834 6.14252 0
M  V30 8671 H 854.536 -1.54207 6.91105 0
M  V30 8672 H 854.944 -2.07042 5.25161 0
M  V30 8673 N 854.342 -1.57594 -0.0133615 0
M  V30 8674 C 855.275 -2.02991 -1.04259 0
M  V30 8675 C 856.253 -0.917193 -1.34262 0
M  V30 8676 O 857.437 -1.18428 -1.46653 0
M  V30 8677 C 854.564 -2.41624 -2.37351 0
M  V30 8678 C 853.61 -3.63495 -2.231 0
M  V30 8679 S 854.443 -5.1198 -1.5696 0
M  V30 8680 C 855.599 -5.5387 -2.91511 0
M  V30 8681 H 855.832 -2.89973 -0.655985 0
M  V30 8682 H 853.365 -1.52769 -0.223827 0
M  V30 8683 H 855.323 -2.64551 -3.13884 0
M  V30 8684 H 853.984 -1.55065 -2.73155 0
M  V30 8685 H 853.177 -3.88233 -3.21389 0
M  V30 8686 H 852.779 -3.405 -1.54711 0
M  V30 8687 H 855.071 -5.55514 -3.87828 0
M  V30 8688 H 856.014 -6.53988 -2.71488 0
M  V30 8689 H 856.422 -4.81404 -2.94806 0
M  V30 8690 N 855.82 0.285905 -1.54985 0
M  V30 8691 C 857.069 1.01691 -1.74189 0
M  V30 8692 C 857.382 1.87908 -0.543135 0
M  V30 8693 O 858.588 2.64389 -0.617305 0
M  V30 8694 C 857.044 1.85785 -3.0824 0
M  V30 8695 C 856.652 1.04497 -4.35642 0
M  V30 8696 C 858.396 2.58393 -3.36798 0
M  V30 8697 C 856.303 1.87955 -5.60738 0
M  V30 8698 H 855.233 0.383396 -0.649248 0
M  V30 8699 H 857.884 0.27317 -1.81455 0
M  V30 8700 H 856.266 2.64205 -2.94978 0
M  V30 8701 H 857.44 0.305847 -4.59784 0
M  V30 8702 H 855.755 0.434023 -4.14132 0
M  V30 8703 H 858.352 3.21214 -4.27464 0
M  V30 8704 H 858.695 3.28011 -2.56349 0
M  V30 8705 H 859.228 1.87012 -3.511 0
M  V30 8706 H 855.967 1.22781 -6.43898 0
M  V30 8707 H 855.487 2.59499 -5.40759 0
M  V30 8708 H 857.166 2.45636 -5.98558 0
M  V30 8709 N 857.298 1.47698 0.54982 0
M  V30 8710 C 858.714 1.3338 0.876468 0
M  V30 8711 C 858.914 0.329837 1.98782 0
M  V30 8712 O 857.97 -0.256022 2.51199 0
M  V30 8713 C 859.283 2.72903 1.26272 0
M  V30 8714 C 860.831 2.81243 1.37373 0
M  V30 8715 C 861.306 4.21423 1.79351 0
M  V30 8716 N 862.797 4.24 1.86489 0
M  V30 8717 C 863.532 5.29386 2.20313 0
M  V30 8718 N 863.028 6.4507 2.527 0
M  V30 8719 N 864.821 5.16768 2.2115 0
M  V30 8720 H 856.972 2.11603 -0.183781 0
M  V30 8721 H 859.235 0.947798 -0.0195601 0
M  V30 8722 H 858.941 3.47836 0.519889 0
M  V30 8723 H 858.815 3.05151 2.21727 0
M  V30 8724 H 861.202 2.06577 2.10737 0
M  V30 8725 H 861.283 2.52639 0.400882 0
M  V30 8726 H 860.927 4.96597 1.06555 0
M  V30 8727 H 860.857 4.47456 2.77652 0
M  V30 8728 H 863.348 3.40547 1.63817 0
M  V30 8729 H 863.661 7.21236 2.77557 0
M  V30 8730 H 862.006 6.48377 2.50263 0
M  V30 8731 H 865.197 4.25416 1.95293 0
M  V30 8732 H 865.37 5.99004 2.4718 0
M  V30 8733 N 858.776 -0.797141 1.35954 0
M  V30 8734 C 859.708 -1.91782 1.25509 0
M  V30 8735 C 860.721 -1.61843 0.176271 0
M  V30 8736 O 861.91 -1.73235 0.430343 0
M  V30 8737 C 859.01 -3.26396 0.912073 0
M  V30 8738 C 858.183 -3.84171 2.0912 0
M  V30 8739 C 857.242 -4.9721 1.72246 0
M  V30 8740 O 856.268 -5.14136 2.44239 0
M  V30 8741 N 857.47 -5.76831 0.651611 0
M  V30 8742 H 860.235 -2.01266 2.22063 0
M  V30 8743 H 857.796 -0.975033 1.29247 0
M  V30 8744 H 859.788 -3.99499 0.646707 0
M  V30 8745 H 858.358 -3.12579 0.0359079 0
M  V30 8746 H 857.578 -3.03148 2.51982 0
M  V30 8747 H 858.866 -4.19503 2.87914 0
M  V30 8748 H 858.264 -5.65675 0.0536678 0
M  V30 8749 H 856.821 -6.50272 0.44605 0
M  V30 8750 N 860.254 -1.20106 -1.0204 0
M  V30 8751 C 861.67 -0.955099 -1.27867 0
M  V30 8752 C 861.87 0.367595 -1.98119 0
M  V30 8753 O 860.926 1.09705 -2.27423 0
M  V30 8754 C 862.239 -2.13507 -2.11744 0
M  V30 8755 C 863.787 -2.17563 -2.25023 0
M  V30 8756 C 864.262 -3.35035 -3.12275 0
M  V30 8757 N 865.753 -3.35024 -3.19864 0
M  V30 8758 C 866.488 -4.22566 -3.8759 0
M  V30 8759 N 865.984 -5.20278 -4.57474 0
M  V30 8760 N 867.777 -4.10418 -3.84075 0
M  V30 8761 H 859.928 -2.05193 -0.54861 0
M  V30 8762 H 862.191 -0.897689 -0.304728 0
M  V30 8763 H 861.897 -3.09275 -1.67456 0
M  V30 8764 H 861.771 -2.11281 -3.12474 0
M  V30 8765 H 864.158 -1.22359 -2.68537 0
M  V30 8766 H 864.239 -2.23838 -1.23815 0
M  V30 8767 H 863.883 -4.30522 -2.69468 0
M  V30 8768 H 863.813 -3.25996 -4.13563 0
M  V30 8769 H 866.304 -2.64299 -2.701 0
M  V30 8770 H 866.617 -5.83408 -5.06809 0
M  V30 8771 H 864.962 -5.24219 -4.56311 0
M  V30 8772 H 868.153 -3.33353 -3.28623 0
M  V30 8773 H 868.326 -4.78854 -4.36581 0
M  V30 8774 N 861.732 1.21287 -1.00634 0
M  V30 8775 C 862.642 2.27388 -0.577226 0
M  V30 8776 C 863.658 1.69791 0.380399 0
M  V30 8777 O 864.834 1.99918 0.2439 0
M  V30 8778 C 861.899 3.46588 0.0880532 0
M  V30 8779 C 860.96 4.19453 -0.914222 0
M  V30 8780 C 860.193 5.32962 -0.280596 0
M  V30 8781 O 860.416 5.62895 0.922265 0
M  V30 8782 O 859.35 5.93666 -0.992196 0
M  V30 8783 H 863.176 2.66289 -1.46028 0
M  V30 8784 H 860.761 1.2771 -0.775283 0
M  V30 8785 H 862.643 4.18881 0.460094 0
M  V30 8786 H 861.318 3.09585 0.945461 0
M  V30 8787 H 860.225 3.49376 -1.33744 0
M  V30 8788 H 861.558 4.6037 -1.74126 0
M  V30 8789 N 863.21 0.781244 1.36873 0
M  V30 8790 C 864.143 0.120106 2.27884 0
M  V30 8791 C 865.121 -0.698961 1.4681 0
M  V30 8792 O 866.305 -0.671694 1.76126 0
M  V30 8793 C 863.432 -0.835804 3.28226 0
M  V30 8794 C 862.478 -0.0995527 4.26384 0
M  V30 8795 S 863.311 1.21903 5.2144 0
M  V30 8796 C 864.467 0.266904 6.25331 0
M  V30 8797 H 864.7 0.891796 2.83609 0
M  V30 8798 H 862.233 0.575075 1.43291 0
M  V30 8799 H 864.191 -1.3819 3.86541 0
M  V30 8800 H 862.852 -1.58068 2.71428 0
M  V30 8801 H 862.045 -0.82457 4.97209 0
M  V30 8802 H 861.647 0.375818 3.72107 0
M  V30 8803 H 863.939 -0.55725 6.75204 0
M  V30 8804 H 864.882 0.943603 7.01785 0
M  V30 8805 H 865.29 -0.126121 5.64359 0
M  V30 8806 N 864.689 -1.48329 0.532571 0
M  V30 8807 C 865.599 -2.33445 -0.232546 0
M  V30 8808 C 866.615 -1.46651 -0.93645 0
M  V30 8809 O 867.791 -1.79627 -0.910834 0
M  V30 8810 C 864.856 -3.22824 -1.26434 0
M  V30 8811 C 863.917 -4.25492 -0.570511 0
M  V30 8812 C 863.15 -5.10601 -1.55315 0
M  V30 8813 O 863.373 -4.97733 -2.78599 0
M  V30 8814 O 862.307 -5.91927 -1.09112 0
M  V30 8815 H 866.133 -3.00119 0.464988 0
M  V30 8816 H 863.718 -1.46489 0.293462 0
M  V30 8817 H 865.6 -3.78103 -1.86055 0
M  V30 8818 H 864.275 -2.58807 -1.94424 0
M  V30 8819 H 863.182 -3.74041 0.0662587 0
M  V30 8820 H 864.515 -4.92154 0.0674904 0
M  V30 8821 N 866.167 -0.267825 -1.55308 0
M  V30 8822 C 867.077 0.633055 -2.25897 0
M  V30 8823 C 868.093 1.17613 -1.28231 0
M  V30 8824 O 869.269 1.20797 -1.61153 0
M  V30 8825 C 866.334 1.80397 -2.96071 0
M  V30 8826 C 865.395 1.29829 -4.09198 0
M  V30 8827 C 864.628 2.4134 -4.76016 0
M  V30 8828 O 864.851 3.60537 -4.42006 0
M  V30 8829 O 863.785 2.09909 -5.64111 0
M  V30 8830 H 867.611 0.0614381 -3.03638 0
M  V30 8831 H 865.196 -0.0355072 -1.49358 0
M  V30 8832 H 867.078 2.48685 -3.40197 0
M  V30 8833 H 865.753 2.36281 -2.21253 0
M  V30 8834 H 864.66 0.582086 -3.69544 0
M  V30 8835 H 865.993 0.785288 -4.85895 0
M  V30 8836 N 867.645 1.57599 0.00500368 0
M  V30 8837 C 868.577 2.04949 1.02609 0
M  V30 8838 C 869.59 0.966507 1.31006 0
M  V30 8839 O 870.779 1.2434 1.2807 0
M  V30 8840 C 867.879 2.43023 2.36206 0
M  V30 8841 C 867.052 3.73993 2.26821 0
M  V30 8842 C 866.111 3.9899 3.43065 0
M  V30 8843 O 865.137 4.69725 3.21477 0
M  V30 8844 N 866.339 3.46496 4.65748 0
M  V30 8845 H 869.104 2.93167 0.622336 0
M  V30 8846 H 866.665 1.60752 0.192488 0
M  V30 8847 H 868.657 2.56863 3.12735 0
M  V30 8848 H 867.227 1.60349 2.68341 0
M  V30 8849 H 866.447 3.70277 1.35235 0
M  V30 8850 H 867.735 4.59865 2.17719 0
M  V30 8851 H 867.133 2.89206 4.86186 0
M  V30 8852 H 865.69 3.65675 5.3956 0
M  V30 8853 N 869.123 -0.277682 1.55134 0
M  V30 8854 C 870.056 -1.3685 1.82612 0
M  V30 8855 C 871.034 -1.47752 0.678833 0
M  V30 8856 O 872.218 -1.6445 0.921329 0
M  V30 8857 C 869.345 -2.74539 1.98359 0
M  V30 8858 C 868.391 -2.80945 3.20893 0
M  V30 8859 S 869.224 -2.40666 4.78373 0
M  V30 8860 C 870.38 -3.80338 4.97085 0
M  V30 8861 H 870.613 -1.13338 2.74849 0
M  V30 8862 H 868.146 -0.477063 1.46845 0
M  V30 8863 H 870.104 -3.53834 2.08115 0
M  V30 8864 H 868.765 -2.95306 1.07019 0
M  V30 8865 H 867.958 -3.81992 3.28783 0
M  V30 8866 H 867.56 -2.09667 3.09703 0
M  V30 8867 H 869.852 -4.75565 4.8254 0
M  V30 8868 H 870.795 -3.77403 5.99143 0
M  V30 8869 H 871.203 -3.71424 4.25094 0
M  V30 8870 N 870.601 -1.47988 -0.541979 0
M  V30 8871 C 872.017 -1.33843 -0.869383 0
M  V30 8872 C 872.217 -0.340374 -1.98604 0
M  V30 8873 O 871.273 0.242696 -2.51331 0
M  V30 8874 C 872.586 -2.73568 -1.24823 0
M  V30 8875 C 874.134 -2.81967 -1.3588 0
M  V30 8876 C 874.609 -4.22368 -1.77114 0
M  V30 8877 N 876.1 -4.24983 -1.84237 0
M  V30 8878 C 876.835 -5.30547 -2.17503 0
M  V30 8879 N 876.331 -6.46401 -2.49275 0
M  V30 8880 N 878.124 -5.17933 -2.18406 0
M  V30 8881 H 870.275 -2.11503 0.195001 0
M  V30 8882 H 872.538 -0.947681 0.0245862 0
M  V30 8883 H 872.244 -3.48107 -0.501435 0
M  V30 8884 H 872.118 -3.06322 -2.20106 0
M  V30 8885 H 874.505 -2.07692 -2.09638 0
M  V30 8886 H 874.586 -2.52848 -0.387478 0
M  V30 8887 H 874.23 -4.97155 -1.0392 0
M  V30 8888 H 874.16 -4.48922 -2.75275 0
M  V30 8889 H 876.651 -3.41411 -1.62009 0
M  V30 8890 H 876.964 -7.22698 -2.73729 0
M  V30 8891 H 875.309 -6.49696 -2.46821 0
M  V30 8892 H 878.5 -4.26445 -1.93034 0
M  V30 8893 H 878.673 -6.00307 -2.44 0
M  V30 8894 N 872.079 0.78992 -1.36375 0
M  V30 8895 C 873.495 1.0879 -1.16777 0
M  V30 8896 C 873.695 2.01498 0.00848236 0
M  V30 8897 O 872.751 2.43338 0.674007 0
M  V30 8898 C 874.064 1.70285 -2.47837 0
M  V30 8899 C 875.612 1.82629 -2.54196 0
M  V30 8900 C 876.087 2.47539 -3.85342 0
M  V30 8901 N 877.578 2.55008 -3.86685 0
M  V30 8902 C 878.313 3.06041 -4.84898 0
M  V30 8903 N 877.809 3.57385 -5.93505 0
M  V30 8904 N 879.602 3.04748 -4.72319 0
M  V30 8905 H 871.753 0.173985 -2.11686 0
M  V30 8906 H 874.016 0.139798 -0.937636 0
M  V30 8907 H 873.722 1.09633 -3.34176 0
M  V30 8908 H 873.596 2.69799 -2.63607 0
M  V30 8909 H 875.983 2.42419 -1.68276 0
M  V30 8910 H 876.064 0.81923 -2.42327 0
M  V30 8911 H 875.708 1.88393 -4.71668 0
M  V30 8912 H 875.638 3.48815 -3.94507 0
M  V30 8913 H 878.129 2.18651 -3.08221 0
M  V30 8914 H 878.442 3.94674 -6.64419 0
M  V30 8915 H 876.787 3.55538 -5.97175 0
M  V30 8916 H 879.978 2.63925 -3.86602 0
M  V30 8917 H 880.151 3.44212 -5.49019 0
M  V30 8918 N 873.557 1.20646 1.01402 0
M  V30 8919 C 874.489 0.915392 2.10127 0
M  V30 8920 C 875.502 -0.0978705 1.62506 0
M  V30 8921 O 876.691 0.133477 1.78 0
M  V30 8922 C 873.791 0.351304 3.37074 0
M  V30 8923 C 872.964 1.41673 4.13821 0
M  V30 8924 C 872.023 0.8635 5.19067 0
M  V30 8925 O 871.049 1.54481 5.47836 0
M  V30 8926 N 872.251 -0.325799 5.79585 0
M  V30 8927 H 875.016 1.85132 2.35682 0
M  V30 8928 H 872.577 1.11048 1.17813 0
M  V30 8929 H 874.569 -0.032996 4.04687 0
M  V30 8930 H 873.139 -0.489242 3.08748 0
M  V30 8931 H 872.359 1.97526 3.41141 0
M  V30 8932 H 873.647 2.1342 4.61876 0
M  V30 8933 H 873.045 -0.896534 5.58551 0
M  V30 8934 H 871.602 -0.651708 6.48534 0
M  V30 8935 N 875.035 -1.20752 1.01276 0
M  V30 8936 C 876.451 -1.42084 0.726934 0
M  V30 8937 C 876.651 -1.89138 -0.694907 0
M  V30 8938 O 875.707 -2.05783 -1.4632 0
M  V30 8939 C 877.02 -2.44575 1.74938 0
M  V30 8940 C 878.568 -2.58347 1.76708 0
M  V30 8941 C 879.043 -3.64078 2.77869 0
M  V30 8942 N 880.534 -3.71558 2.76585 0
M  V30 8943 C 881.269 -4.53016 3.51517 0
M  V30 8944 N 880.765 -5.38309 4.36114 0
M  V30 8945 N 882.558 -4.47512 3.40132 0
M  V30 8946 H 874.709 -0.885228 1.93074 0
M  V30 8947 H 876.972 -0.451075 0.833808 0
M  V30 8948 H 876.678 -2.1699 2.76782 0
M  V30 8949 H 876.552 -3.43503 1.55838 0
M  V30 8950 H 878.939 -2.85265 0.755516 0
M  V30 8951 H 879.02 -1.59628 1.99882 0
M  V30 8952 H 878.664 -3.37905 3.79187 0
M  V30 8953 H 878.594 -4.62412 2.51958 0
M  V30 8954 H 881.085 -3.10629 2.15216 0
M  V30 8955 H 881.398 -5.9754 4.90068 0
M  V30 8956 H 879.743 -5.37824 4.40194 0
M  V30 8957 H 882.934 -3.79912 2.73467 0
M  V30 8958 H 883.107 -5.10759 3.98784 0
M  V30 8959 N 876.513 -0.788492 -1.36457 0
M  V30 8960 C 877.423 -0.187385 -2.3385 0
M  V30 8961 C 878.439 0.659984 -1.60998 0
M  V30 8962 O 879.615 0.575986 -1.92988 0
M  V30 8963 C 876.68 0.668525 -3.40194 0
M  V30 8964 C 875.741 -0.197234 -4.28847 0
M  V30 8965 C 874.974 0.61792 -5.30111 0
M  V30 8966 O 875.197 1.85396 -5.3943 0
M  V30 8967 O 874.131 0.0183016 -6.01897 0
M  V30 8968 H 877.957 -0.992617 -2.87021 0
M  V30 8969 H 875.542 -0.549934 -1.3891 0
M  V30 8970 H 877.424 1.15663 -4.05216 0
M  V30 8971 H 876.099 1.45166 -2.89324 0
M  V30 8972 H 875.006 -0.73207 -3.66867 0
M  V30 8973 H 876.339 -0.943863 -4.83065 0
M  V30 8974 N 877.991 1.48044 -0.54043 0
M  V30 8975 C 878.901 2.33565 0.220163 0
M  V30 8976 C 879.917 1.47146 0.928659 0
M  V30 8977 O 881.093 1.80107 0.901295 0
M  V30 8978 C 878.158 3.2349 1.2472 0
M  V30 8979 C 877.219 4.25789 0.547938 0
M  V30 8980 C 876.452 5.11417 1.52605 0
M  V30 8981 O 876.675 4.99204 2.75956 0
M  V30 8982 O 875.609 5.92498 1.05972 0
M  V30 8983 H 879.435 2.99868 -0.480898 0
M  V30 8984 H 877.02 1.46332 -0.301226 0
M  V30 8985 H 878.902 3.79084 1.84047 0
M  V30 8986 H 877.577 2.59835 1.93048 0
M  V30 8987 H 876.484 3.74001 -0.0860941 0
M  V30 8988 H 877.817 4.92111 -0.0935896 0
M  V30 8989 N 879.47 0.276058 1.55163 0
M  V30 8990 C 880.695 -0.346648 2.04483 0
M  V30 8991 C 881.12 -1.48613 1.15308 0
M  V30 8992 O 880.478 -1.80663 0.151875 0
M  V30 8993 C 880.526 -0.804268 3.51517 0
M  V30 8994 O 879.63 -1.91143 3.65429 0
M  V30 8995 H 878.971 -0.0715251 0.660136 0
M  V30 8996 H 881.501 0.410631 2.00437 0
M  V30 8997 H 881.511 -1.09977 3.92898 0
M  V30 8998 H 880.186 0.0294123 4.1589 0
M  V30 8999 H 878.763 -1.61839 3.3595 0
M  V30 9000 N 880.948 -1.576 0.00335426 0
M  V30 9001 C 882.178 -1.94713 -0.690682 0
M  V30 9002 C 882.586 -0.876915 -1.67651 0
M  V30 9003 O 881.929 0.152434 -1.83066 0
M  V30 9004 C 881.991 -3.27833 -1.47532 0
M  V30 9005 C 881.655 -4.52344 -0.650704 0
M  V30 9006 C 882.652 -5.19862 0.0630537 0
M  V30 9007 C 880.337 -4.98755 -0.595687 0
M  V30 9008 C 882.331 -6.32093 0.820779 0
M  V30 9009 C 880.018 -6.10875 0.165761 0
M  V30 9010 C 881.016 -6.77401 0.872724 0
M  V30 9011 O 880.704 -7.87372 1.62174 0
M  V30 9012 H 880.436 -0.646627 -0.197104 0
M  V30 9013 H 882.99 -2.05335 0.0516082 0
M  V30 9014 H 881.22 -3.13628 -2.26217 0
M  V30 9015 H 882.909 -3.50034 -2.05501 0
M  V30 9016 H 883.675 -4.84991 0.0297223 0
M  V30 9017 H 879.554 -4.46797 -1.13549 0
M  V30 9018 H 883.098 -6.83953 1.37312 0
M  V30 9019 H 878.995 -6.45187 0.200901 0
M  V30 9020 H 879.763 -8.03905 1.5388 0
M  V30 9021 N 882.426 0.269451 -1.5528 0
M  V30 9022 C 883.651 1.02299 -1.80415 0
M  V30 9023 C 884.076 1.7902 -0.577363 0
M  V30 9024 O 883.434 1.75018 0.473125 0
M  V30 9025 C 883.482 1.95445 -3.0304 0
M  V30 9026 O 882.586 3.04271 -2.78375 0
M  V30 9027 H 881.927 0.292289 -0.596207 0
M  V30 9028 H 884.457 0.297282 -2.02429 0
M  V30 9029 H 884.467 2.37333 -3.31869 0
M  V30 9030 H 883.142 1.39017 -3.91978 0
M  V30 9031 H 881.719 2.66673 -2.60653 0
M  V30 9032 N 883.904 1.48273 0.534124 0
M  V30 9033 C 885.32 1.34302 0.862272 0
M  V30 9034 C 885.52 0.350902 1.98421 0
M  V30 9035 O 884.576 -0.229364 2.51456 0
M  V30 9036 C 885.889 2.74227 1.23371 0
M  V30 9037 C 887.437 2.82684 1.34383 0
M  V30 9038 C 887.912 4.23301 1.74871 0
M  V30 9039 N 889.403 4.25954 1.81981 0
M  V30 9040 C 890.138 5.31693 2.14686 0
M  V30 9041 N 889.634 6.47714 2.45844 0
M  V30 9042 N 891.427 5.19084 2.15657 0
M  V30 9043 H 883.578 2.11397 -0.206215 0
M  V30 9044 H 885.841 0.947537 -0.0296116 0
M  V30 9045 H 885.547 3.48368 0.482967 0
M  V30 9046 H 885.421 3.07485 2.18478 0
M  V30 9047 H 887.808 2.08801 2.08534 0
M  V30 9048 H 887.889 2.5305 0.374063 0
M  V30 9049 H 887.533 4.97699 1.01282 0
M  V30 9050 H 887.463 4.50376 2.7289 0
M  V30 9051 H 889.954 3.42266 1.60196 0
M  V30 9052 H 890.267 7.2414 2.69892 0
M  V30 9053 H 888.612 6.50995 2.43372 0
M  V30 9054 H 891.803 4.27463 1.9077 0
M  V30 9055 H 891.976 6.01592 2.40813 0
M  V30 9056 N 885.382 -0.782676 1.36792 0
M  V30 9057 C 886.315 -1.90241 1.2603 0
M  V30 9058 C 887.293 -1.61969 0.143055 0
M  V30 9059 O 888.477 -1.85843 0.315366 0
M  V30 9060 C 885.604 -3.25218 0.946082 0
M  V30 9061 C 884.65 -3.72414 2.0787 0
M  V30 9062 S 885.483 -3.87376 3.69729 0
M  V30 9063 C 886.639 -5.25219 3.40435 0
M  V30 9064 H 886.872 -1.99079 2.20805 0
M  V30 9065 H 884.405 -0.942625 1.22286 0
M  V30 9066 H 886.363 -4.03183 0.771612 0
M  V30 9067 H 885.024 -3.14096 0.0159991 0
M  V30 9068 H 884.217 -4.7024 1.81358 0
M  V30 9069 H 883.819 -3.01519 2.21274 0
M  V30 9070 H 886.111 -6.10025 2.94746 0
M  V30 9071 H 887.054 -5.56738 4.37549 0
M  V30 9072 H 887.462 -4.92638 2.75622 0
M  V30 9073 N 886.86 -1.21182 -1.00761 0
M  V30 9074 C 888.108 -1.02543 -1.74153 0
M  V30 9075 C 888.429 0.442372 -1.89916 0
M  V30 9076 O 887.699 1.31927 -1.44818 0
M  V30 9077 H 886.279 -0.37644 -0.645214 0
M  V30 9078 H 888.941 -1.52446 -1.21434 0
M  V30 9079 H 888.037 -1.49122 -2.7417 0
M  V30 9080 N 888.338 1.20213 -1.01915 0
M  V30 9081 C 889.568 1.93341 -0.728197 0
M  V30 9082 C 889.976 1.75151 0.715454 0
M  V30 9083 O 889.319 1.06437 1.49722 0
M  V30 9084 C 889.381 3.45677 -0.9873 0
M  V30 9085 C 889.045 3.8763 -2.42057 0
M  V30 9086 C 890.042 3.93184 -3.40151 0
M  V30 9087 C 887.727 4.19547 -2.76199 0
M  V30 9088 C 889.721 4.30069 -4.70446 0
M  V30 9089 C 887.408 4.56106 -4.06707 0
M  V30 9090 C 888.406 4.6134 -5.03641 0
M  V30 9091 O 888.094 4.97059 -6.31813 0
M  V30 9092 H 887.826 0.621258 -0.266485 0
M  V30 9093 H 890.38 1.53577 -1.36393 0
M  V30 9094 H 888.61 3.85578 -0.294405 0
M  V30 9095 H 890.299 4.00035 -0.687536 0
M  V30 9096 H 891.065 3.68687 -3.15111 0
M  V30 9097 H 886.944 4.14663 -2.01434 0
M  V30 9098 H 890.488 4.34069 -5.46105 0
M  V30 9099 H 886.385 4.80059 -4.31525 0
M  V30 9100 H 887.153 5.15043 -6.36139 0
M  V30 9101 N 889.816 0.795718 1.36037 0
M  V30 9102 C 890.749 0.144269 2.27744 0
M  V30 9103 C 891.727 -0.683351 1.47543 0
M  V30 9104 O 892.911 -0.652976 1.76829 0
M  V30 9105 C 890.038 -0.800944 3.29094 0
M  V30 9106 C 889.084 -0.0543234 4.26465 0
M  V30 9107 S 889.917 1.27426 5.20118 0
M  V30 9108 C 891.073 0.333213 6.25012 0
M  V30 9109 H 891.306 0.921827 2.82648 0
M  V30 9110 H 888.839 0.590241 1.42673 0
M  V30 9111 H 890.797 -1.34082 3.87985 0
M  V30 9112 H 889.458 -1.5518 2.7309 0
M  V30 9113 H 888.651 -0.771788 4.98056 0
M  V30 9114 H 888.253 0.415264 3.71687 0
M  V30 9115 H 890.545 -0.485604 6.75757 0
M  V30 9116 H 891.488 1.01798 7.00744 0
M  V30 9117 H 891.896 -0.066256 5.64461 0
M  V30 9118 N 891.294 -1.47756 0.548274 0
M  V30 9119 C 892.571 -1.9555 -0.0443603 0
M  V30 9120 C 892.951 -1.49079 -1.49462 0
M  V30 9121 O 892.299 -0.725538 -2.16675 0
M  V30 9122 C 892.509 -3.48879 0.0918425 0
M  V30 9123 C 893.857 -4.2456 -0.0580879 0
M  V30 9124 O 894.881 -3.56195 0.018946 0
M  V30 9125 O 893.74 -5.46048 -0.222261 0
M  V30 9126 H 890.834 -0.824106 -0.0691235 0
M  V30 9127 H 893.38 -1.58196 0.614166 0
M  V30 9128 H 892.152 -3.7548 1.10137 0
M  V30 9129 H 891.775 -3.92975 -0.604704 0
M  V30 9130 N 892.772 -0.284283 -1.55015 0
M  V30 9131 C 894.183 0.211681 -1.85496 0
M  V30 9132 C 894.534 1.54735 -1.2063 0
M  V30 9133 O 893.659 2.10594 -0.497918 0
M  V30 9134 C 894.254 0.390864 -3.36538 0
M  V30 9135 C 892.813 0.831055 -3.67111 0
M  V30 9136 C 891.96 -0.0703581 -2.77211 0
M  V30 9137 H 894.911 -0.505803 -1.50424 0
M  V30 9138 H 894.932 1.22803 -3.60138 0
M  V30 9139 H 894.444 -0.581409 -3.8372 0
M  V30 9140 H 892.545 1.81447 -3.25434 0
M  V30 9141 H 892.658 0.662026 -4.74504 0
M  V30 9142 H 891.022 0.447528 -2.50737 0
M  V30 9143 H 891.805 -1.03868 -3.2721 0
M  V30 9144 N 894.251 1.57596 -0.0117121 0
M  V30 9145 C 895.667 1.55837 0.344506 0
M  V30 9146 C 895.867 1.01557 1.74036 0
M  V30 9147 O 894.923 0.654563 2.43868 0
M  V30 9148 C 896.236 2.99973 0.209023 0
M  V30 9149 C 897.784 3.11717 0.283092 0
M  V30 9150 C 898.259 4.57659 0.176599 0
M  V30 9151 N 899.75 4.62608 0.234133 0
M  V30 9152 C 900.485 5.73132 0.175252 0
M  V30 9153 N 899.981 6.92768 0.0662888 0
M  V30 9154 N 901.774 5.61638 0.227972 0
M  V30 9155 H 893.925 1.91215 -0.924692 0
M  V30 9156 H 896.188 0.878807 -0.355531 0
M  V30 9157 H 895.894 3.4357 -0.751826 0
M  V30 9158 H 895.768 3.64075 0.98635 0
M  V30 9159 H 898.155 2.68043 1.23439 0
M  V30 9160 H 898.236 2.50369 -0.52431 0
M  V30 9161 H 897.88 5.02011 -0.771205 0
M  V30 9162 H 897.81 5.16967 1.00264 0
M  V30 9163 H 900.301 3.76549 0.319203 0
M  V30 9164 H 900.614 7.72795 0.0275765 0
M  V30 9165 H 898.959 6.94993 0.0317502 0
M  V30 9166 H 902.15 4.67063 0.311377 0
M  V30 9167 H 902.323 6.47754 0.178621 0
M  V30 9168 N 895.729 -0.261212 1.5542 0
M  V30 9169 C 896.639 -1.34493 1.92221 0
M  V30 9170 C 897.655 -1.53421 0.82086 0
M  V30 9171 O 898.831 -1.6732 1.12099 0
M  V30 9172 C 895.896 -2.68209 2.19692 0
M  V30 9173 C 894.957 -2.57927 3.43179 0
M  V30 9174 C 894.19 -3.85266 3.69331 0
M  V30 9175 O 894.413 -4.86493 2.97793 0
M  V30 9176 O 893.347 -3.8476 4.62865 0
M  V30 9177 H 897.173 -1.06278 2.84497 0
M  V30 9178 H 894.758 -0.460752 1.42118 0
M  V30 9179 H 896.64 -3.47252 2.38734 0
M  V30 9180 H 895.315 -2.96186 1.30597 0
M  V30 9181 H 894.222 -1.77219 3.2946 0
M  V30 9182 H 895.555 -2.34898 4.32532 0
M  V30 9183 N 897.207 -1.48554 -0.526253 0
M  V30 9184 C 898.623 -1.34757 -0.855138 0
M  V30 9185 C 898.823 -0.36142 -1.98232 0
M  V30 9186 O 897.879 0.216026 -2.51574 0
M  V30 9187 C 899.192 -2.74877 -1.21915 0
M  V30 9188 C 900.74 -2.83393 -1.32882 0
M  V30 9189 C 901.215 -4.24223 -1.72624 0
M  V30 9190 N 902.706 -4.26913 -1.7972 0
M  V30 9191 C 903.441 -5.32824 -2.11863 0
M  V30 9192 N 902.937 -6.49008 -2.42405 0
M  V30 9193 N 904.73 -5.20221 -2.12901 0
M  V30 9194 H 896.881 -2.11284 0.217422 0
M  V30 9195 H 899.144 -0.947367 0.0346362 0
M  V30 9196 H 898.85 -3.48619 -0.464486 0
M  V30 9197 H 898.724 -3.0864 -2.16844 0
M  V30 9198 H 901.111 -2.09904 -2.07424 0
M  V30 9199 H 901.192 -2.53245 -0.360638 0
M  V30 9200 H 900.836 -4.98229 -0.986411 0
M  V30 9201 H 900.766 -4.51817 -2.70498 0
M  V30 9202 H 903.257 -3.4311 -1.58379 0
M  V30 9203 H 903.57 -7.25561 -2.66048 0
M  V30 9204 H 901.915 -6.52277 -2.39917 0
M  V30 9205 H 905.106 -4.28469 -1.885 0
M  V30 9206 H 905.279 -6.02861 -2.37619 0
M  V30 9207 N 898.685 0.775411 -1.37205 0
M  V30 9208 C 899.962 1.5229 -1.22748 0
M  V30 9209 C 900.342 2.10327 0.180487 0
M  V30 9210 O 899.69 1.95206 1.18772 0
M  V30 9211 C 899.9 2.60671 -2.3206 0
M  V30 9212 C 901.248 3.28173 -2.6942 0
M  V30 9213 O 902.272 2.70963 -2.31208 0
M  V30 9214 O 901.131 4.31598 -3.3524 0
M  V30 9215 H 898.225 0.674326 -0.478762 0
M  V30 9216 H 900.771 0.812691 -1.48975 0
M  V30 9217 H 899.543 2.1588 -3.26361 0
M  V30 9218 H 899.166 3.39296 -2.07277 0
M  V30 9219 N 900.163 1.21714 1.00117 0
M  V30 9220 C 901.096 0.923113 2.08696 0
M  V30 9221 C 902.074 -0.130827 1.62073 0
M  V30 9222 O 903.258 -0.00103064 1.885 0
M  V30 9223 C 900.385 0.386807 3.36484 0
M  V30 9224 C 899.431 1.42414 4.0202 0
M  V30 9225 S 900.264 2.99466 4.43937 0
M  V30 9226 C 901.42 2.47452 5.74907 0
M  V30 9227 H 901.653 1.84258 2.33315 0
M  V30 9228 H 899.186 1.0473 1.1345 0
M  V30 9229 H 901.144 0.0839547 4.10414 0
M  V30 9230 H 899.805 -0.511413 3.09909 0
M  V30 9231 H 898.998 0.998593 4.94008 0
M  V30 9232 H 898.6 1.67527 3.34381 0
M  V30 9233 H 900.892 1.88177 6.50842 0
M  V30 9234 H 901.835 3.37898 6.22279 0
M  V30 9235 H 902.243 1.89027 5.31911 0
M  V30 9236 N 901.641 -1.19671 1.02551 0
M  V30 9237 C 903.057 -1.41305 0.741963 0
M  V30 9238 C 903.257 -1.89865 -0.674807 0
M  V30 9239 O 902.313 -2.07323 -1.44129 0
M  V30 9240 C 903.626 -2.42706 1.77522 0
M  V30 9241 C 905.174 -2.56458 1.79438 0
M  V30 9242 C 905.649 -3.61111 2.81715 0
M  V30 9243 N 907.14 -3.68603 2.8051 0
M  V30 9244 C 907.875 -4.49262 3.56302 0
M  V30 9245 N 907.371 -5.33653 4.41799 0
M  V30 9246 N 909.164 -4.43879 3.44859 0
M  V30 9247 H 901.315 -0.8647 1.94002 0
M  V30 9248 H 903.578 -0.442206 0.838545 0
M  V30 9249 H 903.284 -2.14042 2.79068 0
M  V30 9250 H 903.158 -3.41831 1.59472 0
M  V30 9251 H 905.545 -2.84447 0.78573 0
M  V30 9252 H 905.626 -1.57499 2.01563 0
M  V30 9253 H 905.27 -3.33864 3.82749 0
M  V30 9254 H 905.2 -4.59713 2.56849 0
M  V30 9255 H 907.691 -3.08329 2.18498 0
M  V30 9256 H 908.004 -5.92308 4.96378 0
M  V30 9257 H 906.349 -5.33125 4.45873 0
M  V30 9258 H 909.54 -3.7699 2.77482 0
M  V30 9259 H 909.713 -5.06501 4.04179 0
M  V30 9260 N 903.119 -0.802921 -1.35613 0
M  V30 9261 C 904.052 -0.156345 -2.27664 0
M  V30 9262 C 905.03 0.675517 -1.47904 0
M  V30 9263 O 906.214 0.643589 -1.77173 0
M  V30 9264 C 903.341 0.78348 -3.29514 0
M  V30 9265 C 902.387 0.0317062 -4.26488 0
M  V30 9266 S 903.22 -1.30183 -5.19435 0
M  V30 9267 C 904.376 -0.366354 -6.24827 0
M  V30 9268 H 904.609 -0.936803 -2.82155 0
M  V30 9269 H 902.142 -0.597799 -1.42358 0
M  V30 9270 H 904.1 1.32023 -3.8869 0
M  V30 9271 H 902.761 1.53729 -2.73909 0
M  V30 9272 H 901.954 0.745364 -4.98458 0
M  V30 9273 H 901.556 -0.43497 -3.71462 0
M  V30 9274 H 903.848 0.44976 -6.76005 0
M  V30 9275 H 904.791 -1.05513 -7.00195 0
M  V30 9276 H 905.199 0.0363203 -5.64488 0
M  V30 9277 N 904.597 1.47463 -0.556102 0
M  V30 9278 C 905.845 2.02075 -0.0315712 0
M  V30 9279 C 906.166 1.43292 1.32259 0
M  V30 9280 O 905.436 0.60771 1.86236 0
M  V30 9281 H 904.016 0.74695 -0.0086816 0
M  V30 9282 H 906.678 1.80879 -0.725859 0
M  V30 9283 H 905.774 3.12047 0.0573538 0
M  V30 9284 N 906.075 0.2925 1.54862 0
M  V30 9285 C 907.323 -0.318633 1.99572 0
M  V30 9286 C 907.644 -1.55062 1.1824 0
M  V30 9287 O 906.914 -1.93943 0.276226 0
M  V30 9288 H 905.494 -0.120722 0.737181 0
M  V30 9289 H 908.156 0.401862 1.90712 0
M  V30 9290 H 907.252 -0.596542 3.06346 0
M  V30 9291 N 907.553 -1.57587 0.0200696 0
M  V30 9292 C 908.801 -1.91046 -0.65922 0
M  V30 9293 C 909.122 -0.896197 -1.73186 0
M  V30 9294 O 908.392 0.0635952 -1.95797 0
M  V30 9295 H 906.972 -0.705163 -0.246483 0
M  V30 9296 H 909.634 -1.94789 0.0657368 0
M  V30 9297 H 908.73 -2.91399 -1.11773 0
M  V30 9298 N 909.032 0.252966 -1.55557 0
M  V30 9299 C 910.28 0.979912 -1.76754 0
M  V30 9300 C 910.601 1.86083 -0.582944 0
M  V30 9301 O 909.871 1.91742 0.401497 0
M  V30 9302 H 908.451 0.364805 -0.651864 0
M  V30 9303 H 911.113 0.272372 -1.92987 0
M  V30 9304 H 910.209 1.60518 -2.67657 0
M  V30 9305 N 910.51 1.48831 0.518367 0
M  V30 9306 C 911.473 1.63721 1.604 0
M  V30 9307 C 912.473 0.509857 1.52503 0
M  V30 9308 O 913.663 0.775922 1.55965 0
M  V30 9309 C 910.795 1.61831 3.00039 0
M  V30 9310 H 911.988 2.60534 1.48533 0
M  V30 9311 H 909.541 1.37602 0.741309 0
M  V30 9312 H 910.276 0.665387 3.17401 0
M  V30 9313 H 910.061 2.43686 3.0718 0
M  V30 9314 H 911.551 1.75467 3.78947 0
M  V30 9315 N 911.988 -0.768124 1.37614 0
M  V30 9316 C 912.921 -1.88894 1.2804 0
M  V30 9317 C 913.899 -1.61809 0.160226 0
M  V30 9318 O 915.083 -1.85498 0.33506 0
M  V30 9319 C 912.21 -3.24197 0.980523 0
M  V30 9320 C 911.256 -3.70188 2.11808 0
M  V30 9321 S 912.089 -3.83433 3.73817 0
M  V30 9322 C 913.245 -5.21578 3.45987 0
M  V30 9323 H 913.478 -1.96726 2.22904 0
M  V30 9324 H 911.011 -0.929602 1.23279 0
M  V30 9325 H 912.969 -4.02342 0.814331 0
M  V30 9326 H 911.63 -3.14061 0.0493122 0
M  V30 9327 H 910.823 -4.6829 1.86335 0
M  V30 9328 H 910.425 -2.99155 2.2446 0
M  V30 9329 H 912.717 -6.06865 3.012 0
M  V30 9330 H 913.66 -5.52065 4.43429 0
M  V30 9331 H 914.068 -4.89687 2.80832 0
M  V30 9332 N 913.466 -1.22244 -0.994698 0
M  V30 9333 C 914.414 -0.988118 -2.10568 0
M  V30 9334 C 915.408 0.0681541 -1.69263 0
M  V30 9335 O 916.614 -0.0841311 -1.79803 0
M  V30 9336 H 912.989 -0.302343 -0.688544 0
M  V30 9337 H 914.96 -1.93091 -2.27505 0
M  V30 9338 C 913.709 -0.580557 -3.42819 0
M  V30 9339 H 913.032 -1.385 -3.75044 0
M  V30 9340 H 914.472 -0.456004 -4.21541 0
M  V30 9341 C 912.931 0.709692 -3.2934 0
M  V30 9342 O 913.461 1.76259 -3.60965 0
M  V30 9343 N 911.667 0.680155 -2.82528 0
M  V30 9344 H 911.214 -0.176977 -2.56991 0
M  V30 9345 H 911.172 1.54372 -2.73892 0
M  V30 9346 N 914.944 1.19125 -1.03184 0
M  V30 9347 C 915.877 2.21229 -0.559739 0
M  V30 9348 C 916.855 1.57578 0.400998 0
M  V30 9349 O 918.039 1.85809 0.317399 0
M  V30 9350 C 915.166 3.38203 0.183442 0
M  V30 9351 C 914.212 4.2022 -0.729182 0
M  V30 9352 S 915.045 4.87903 -2.20706 0
M  V30 9353 C 916.201 6.08284 -1.47448 0
M  V30 9354 H 916.434 2.60932 -1.42484 0
M  V30 9355 H 913.967 1.29419 -0.842028 0
M  V30 9356 H 915.925 4.06001 0.606084 0
M  V30 9357 H 914.586 2.96929 1.02432 0
M  V30 9358 H 913.779 5.03761 -0.155272 0
M  V30 9359 H 913.381 3.57755 -1.09028 0
M  V30 9360 H 915.673 6.73193 -0.762687 0
M  V30 9361 H 916.616 6.70165 -2.28659 0
M  V30 9362 H 917.024 5.56092 -0.97068 0
M  V30 9363 N 916.422 0.810101 1.35185 0
M  V30 9364 C 917.67 0.391343 1.98275 0
M  V30 9365 C 917.991 -1.04592 1.64577 0
M  V30 9366 O 917.261 -1.72417 0.93001 0
M  V30 9367 H 915.841 0.141715 0.733434 0
M  V30 9368 H 918.503 1.03672 1.6504 0
M  V30 9369 H 917.599 0.49991 3.0807 0
M  V30 9370 N 917.9 -1.47166 0.563914 0
M  V30 9371 C 919.177 -1.95586 -0.0236172 0
M  V30 9372 C 919.557 -1.50655 -1.47872 0
M  V30 9373 O 918.905 -0.748479 -2.15894 0
M  V30 9374 C 919.115 -3.48762 0.128841 0
M  V30 9375 C 920.463 -4.24598 -0.0130544 0
M  V30 9376 O 921.487 -3.56155 0.0567242 0
M  V30 9377 O 920.346 -5.46253 -0.164332 0
M  V30 9378 H 917.44 -0.824793 -0.0603789 0
M  V30 9379 H 919.986 -1.57536 0.63091 0
M  V30 9380 H 918.758 -3.74291 1.14113 0
M  V30 9381 H 918.381 -3.93594 -0.56299 0
M  V30 9382 N 919.378 -0.300708 -1.54705 0
M  V30 9383 C 920.789 0.191995 -1.8571 0
M  V30 9384 C 921.14 1.53447 -1.22264 0
M  V30 9385 O 920.265 2.10054 -0.520226 0
M  V30 9386 C 920.86 0.355148 -3.36933 0
M  V30 9387 C 919.419 0.792071 -3.67972 0
M  V30 9388 C 918.566 -0.099756 -2.77121 0
M  V30 9389 H 921.517 -0.521729 -1.49879 0
M  V30 9390 H 921.538 1.18977 -3.61421 0
M  V30 9391 H 921.05 -0.622075 -3.83082 0
M  V30 9392 H 919.151 1.77986 -3.27341 0
M  V30 9393 H 919.264 0.611661 -4.75179 0
M  V30 9394 H 917.628 0.420909 -2.51198 0
M  V30 9395 H 918.411 -1.07333 -3.2609 0
M  V30 9396 N 920.856 1.57574 -0.0284266 0
M  V30 9397 C 922.086 1.95787 0.659617 0
M  V30 9398 C 922.494 0.903475 1.66235 0
M  V30 9399 O 921.837 -0.12329 1.83286 0
M  V30 9400 C 921.899 3.30139 1.42298 0
M  V30 9401 C 921.563 4.53322 0.578658 0
M  V30 9402 C 922.56 5.19696 -0.145751 0
M  V30 9403 C 920.245 4.9964 0.516264 0
M  V30 9404 C 922.239 6.30708 -0.921235 0
M  V30 9405 C 919.926 6.10534 -0.262925 0
M  V30 9406 C 920.924 6.75927 -0.980382 0
M  V30 9407 O 920.612 7.84692 -1.7468 0
M  V30 9408 H 920.344 0.649681 0.186792 0
M  V30 9409 H 922.898 2.05227 -0.0842687 0
M  V30 9410 H 921.128 3.17188 2.21199 0
M  V30 9411 H 922.817 3.53259 1.99906 0
M  V30 9412 H 923.583 4.84882 -0.106876 0
M  V30 9413 H 919.462 4.48547 1.06427 0
M  V30 9414 H 923.006 6.81682 -1.48176 0
M  V30 9415 H 918.903 6.44786 -0.303519 0
M  V30 9416 H 919.671 8.01355 -1.6665 0
M  V30 9417 N 922.334 -0.244713 1.55689 0
M  V30 9418 C 923.582 -0.970525 1.77272 0
M  V30 9419 C 923.903 -1.85771 0.592804 0
M  V30 9420 O 923.173 -1.91952 -0.391323 0
M  V30 9421 H 921.753 -0.361342 0.653789 0
M  V30 9422 H 924.415 -0.262134 1.93129 0
M  V30 9423 H 923.511 -1.59096 2.68505 0
M  V30 9424 N 923.813 -1.49104 -0.510467 0
M  V30 9425 C 925.038 -1.62068 -1.29417 0
M  V30 9426 C 925.463 -0.288432 -1.85875 0
M  V30 9427 O 924.821 0.742667 -1.65391 0
M  V30 9428 C 924.869 -2.68506 -2.40701 0
M  V30 9429 O 923.973 -2.27021 -3.4429 0
M  V30 9430 H 923.314 -0.542778 -0.382476 0
M  V30 9431 H 925.844 -1.95228 -0.612154 0
M  V30 9432 H 925.854 -2.90383 -2.86604 0
M  V30 9433 H 924.529 -3.65216 -1.98973 0
M  V30 9434 H 923.106 -2.15436 -3.04371 0
M  V30 9435 N 925.291 0.760815 -1.38019 0
M  V30 9436 C 926.539 1.51673 -1.33566 0
M  V30 9437 C 926.86 1.94852 0.076024 0
M  V30 9438 O 926.13 1.67112 1.02227 0
M  V30 9439 H 924.71 0.562581 -0.491438 0
M  V30 9440 H 927.372 0.904832 -1.72623 0
M  V30 9441 H 926.468 2.41102 -1.98182 0
M  V30 9442 N 926.769 1.22769 0.988202 0
M  V30 9443 C 928.017 1.05301 1.725 0
M  V30 9444 C 928.338 -0.412103 1.90596 0
M  V30 9445 O 927.608 -1.29606 1.46898 0
M  V30 9446 H 926.188 0.386658 0.639144 0
M  V30 9447 H 928.85 1.54359 1.18993 0
M  V30 9448 H 927.946 1.53465 2.71763 0
M  V30 9449 N 928.247 -1.18576 1.03814 0
M  V30 9450 C 929.179 -2.21607 0.585055 0
M  V30 9451 C 930.192 -1.59125 -0.343963 0
M  V30 9452 O 931.381 -1.77959 -0.138882 0
M  V30 9453 C 928.481 -3.38495 -0.165602 0
M  V30 9454 C 927.654 -4.30557 0.770662 0
M  V30 9455 C 926.713 -5.26161 0.0637534 0
M  V30 9456 O 925.739 -5.64961 0.693359 0
M  V30 9457 N 926.941 -5.67882 -1.20377 0
M  V30 9458 H 929.706 -2.61104 1.47121 0
M  V30 9459 H 927.267 -1.33336 0.918316 0
M  V30 9460 H 929.259 -3.99474 -0.648292 0
M  V30 9461 H 927.829 -2.97711 -0.953268 0
M  V30 9462 H 927.049 -3.67221 1.43326 0
M  V30 9463 H 928.337 -4.88969 1.40667 0
M  V30 9464 H 927.735 -5.38409 -1.73586 0
M  V30 9465 H 926.292 -6.31069 -1.63079 0
M  V30 9466 N 929.725 -0.817259 -1.34754 0
M  V30 9467 C 930.672 -0.233108 -2.2962 0
M  V30 9468 C 931.642 0.638902 -1.53321 0
M  V30 9469 O 932.827 0.581739 -1.81715 0
M  V30 9470 C 929.967 0.603659 -3.39779 0
M  V30 9471 C 929.08 -0.289967 -4.31026 0
M  V30 9472 C 928.215 0.555825 -5.28284 0
M  V30 9473 C 927.254 -0.337539 -6.11169 0
M  V30 9474 N 926.391 0.468847 -7.00533 0
M  V30 9475 H 931.231 -1.04747 -2.78984 0
M  V30 9476 H 928.768 -0.528056 -1.37295 0
M  V30 9477 H 930.726 1.10407 -4.02326 0
M  V30 9478 H 929.356 1.38319 -2.91664 0
M  V30 9479 H 928.408 -0.908552 -3.69391 0
M  V30 9480 H 929.72 -0.977136 -4.89135 0
M  V30 9481 H 928.874 1.12094 -5.96255 0
M  V30 9482 H 927.613 1.27652 -4.70698 0
M  V30 9483 H 926.618 -0.914839 -5.42135 0
M  V30 9484 H 927.843 -1.05626 -6.70835 0
M  V30 9485 H 925.789 1.17332 -6.45422 0
M  V30 9486 H 925.706 -0.160052 -7.55831 0
M  V30 9487 H 926.974 1.01689 -7.72839 0
M  V30 9488 N 931.203 1.46865 -0.571711 0
M  V30 9489 C 932.45 2.0243 -0.0531071 0
M  V30 9490 C 932.778 1.44446 1.30252 0
M  V30 9491 O 932.033 0.595182 1.8643 0
M  V30 9492 C 932.332 3.57323 0.0742311 0
M  V30 9493 C 931.998 4.34295 -1.21237 0
M  V30 9494 C 930.66 4.55044 -1.56489 0
M  V30 9495 C 933.012 4.78577 -2.0643 0
M  V30 9496 C 930.34 5.17325 -2.76752 0
M  V30 9497 C 932.692 5.42186 -3.25909 0
M  V30 9498 C 931.356 5.61165 -3.61456 0
M  V30 9499 H 930.626 0.740745 -0.0194333 0
M  V30 9500 H 933.273 1.76366 -0.74614 0
M  V30 9501 H 931.578 3.82461 0.850325 0
M  V30 9502 H 933.275 3.97982 0.491077 0
M  V30 9503 H 929.865 4.18435 -0.927922 0
M  V30 9504 H 934.049 4.62313 -1.80501 0
M  V30 9505 H 929.305 5.30211 -3.04444 0
M  V30 9506 H 933.479 5.75459 -3.92198 0
M  V30 9507 H 931.106 6.09195 -4.54737 0
M  V30 9508 N 932.681 0.308908 1.54543 0
M  V30 9509 C 934.092 -0.182144 1.85809 0
M  V30 9510 C 934.443 -1.52796 1.23076 0
M  V30 9511 O 933.568 -2.09775 0.531358 0
M  V30 9512 C 934.163 -0.337275 3.37117 0
M  V30 9513 C 932.722 -0.772545 3.68387 0
M  V30 9514 C 931.869 0.114451 2.77064 0
M  V30 9515 H 934.82 0.529671 1.496 0
M  V30 9516 H 934.841 -1.17058 3.62046 0
M  V30 9517 H 934.353 0.642382 3.82747 0
M  V30 9518 H 932.454 -1.76247 3.2828 0
M  V30 9519 H 932.567 -0.586453 4.75497 0
M  V30 9520 H 930.931 -0.407581 2.51418 0
M  V30 9521 H 931.714 1.09061 3.25516 0
M  V30 9522 N 934.159 -1.57557 0.0367827 0
M  V30 9523 C 935.57 -1.79853 -0.500971 0
M  V30 9524 C 935.921 -0.947749 -1.71791 0
M  V30 9525 O 935.046 -0.160287 -2.15806 0
M  V30 9526 C 935.641 -3.26193 -0.915626 0
M  V30 9527 C 934.2 -3.49457 -1.39845 0
M  V30 9528 C 933.347 -2.74864 -0.366784 0
M  V30 9529 H 936.298 -1.56509 0.262768 0
M  V30 9530 H 936.319 -3.36324 -1.7795 0
M  V30 9531 H 935.831 -3.88089 -0.0297227 0
M  V30 9532 H 933.932 -2.92823 -2.30402 0
M  V30 9533 H 934.045 -4.58172 -1.40054 0
M  V30 9534 H 932.409 -2.4057 -0.836554 0
M  V30 9535 H 933.192 -3.39479 0.510785 0
M  V30 9536 N 935.637 0.236453 -1.55816 0
M  V30 9537 C 936.567 1.29639 -1.94206 0
M  V30 9538 C 937.548 1.49667 -0.808319 0
M  V30 9539 O 938.733 1.621 -1.06945 0
M  V30 9540 C 935.863 2.64914 -2.24584 0
M  V30 9541 C 934.817 2.59565 -3.40308 0
M  V30 9542 C 934.143 3.98732 -3.56254 0
M  V30 9543 C 935.443 2.15642 -4.75706 0
M  V30 9544 H 937.137 0.977552 -2.82992 0
M  V30 9545 H 934.683 0.468804 -1.36155 0
M  V30 9546 H 936.636 3.39209 -2.50031 0
M  V30 9547 H 935.36 2.98455 -1.32636 0
M  V30 9548 H 934.019 1.87728 -3.14887 0
M  V30 9549 H 933.667 4.29556 -2.61707 0
M  V30 9550 H 933.367 3.96039 -4.34082 0
M  V30 9551 H 934.891 4.74711 -3.84033 0
M  V30 9552 H 936.305 2.79673 -5.00456 0
M  V30 9553 H 934.702 2.24039 -5.56711 0
M  V30 9554 H 935.772 1.10831 -4.72064 0
M  V30 9555 N 937.115 1.49373 0.502552 0
M  V30 9556 C 938.363 1.58467 1.25429 0
M  V30 9557 C 938.684 0.272593 1.93085 0
M  V30 9558 O 937.954 -0.707947 1.82661 0
M  V30 9559 H 936.534 0.583866 0.46595 0
M  V30 9560 H 939.196 1.8599 0.582568 0
M  V30 9561 H 938.292 2.37993 2.01906 0
M  V30 9562 N 938.594 -0.753485 1.38421 0
M  V30 9563 C 939.842 -1.50962 1.34368 0
M  V30 9564 C 940.163 -1.94889 -0.0656895 0
M  V30 9565 O 939.433 -1.67652 -1.01339 0
M  V30 9566 H 938.013 -0.559967 0.494415 0
M  V30 9567 H 940.675 -0.895665 1.73101 0
M  V30 9568 H 939.771 -2.40048 1.99458 0
M  V30 9569 N 940.072 -1.23292 -0.981677 0
M  V30 9570 C 941.32 -1.06214 -1.71939 0
M  V30 9571 C 941.641 0.401989 -1.90812 0
M  V30 9572 O 940.911 1.28825 -1.47584 0
M  V30 9573 H 939.491 -0.390042 -0.637084 0
M  V30 9574 H 942.153 -1.54988 -1.18173 0
M  V30 9575 H 941.249 -1.54904 -2.70945 0
M  V30 9576 N 941.55 1.18024 -1.04442 0
M  V30 9577 C 942.798 1.87727 -0.74854 0
M  V30 9578 C 943.119 1.80975 0.726156 0
M  V30 9579 O 942.389 1.23061 1.52423 0
M  V30 9580 H 940.969 0.694974 -0.273897 0
M  V30 9581 H 943.631 1.43213 -1.32197 0
M  V30 9582 H 942.727 2.93665 -1.05674 0
M  V30 9583 N 943.028 0.824394 1.34319 0
M  V30 9584 C 944.276 0.41235 1.97849 0
M  V30 9585 C 944.597 -1.02841 1.65677 0
M  V30 9586 O 943.867 -1.71421 0.948245 0
M  V30 9587 H 942.447 0.149486 0.73189 0
M  V30 9588 H 945.109 1.05416 1.63931 0
M  V30 9589 H 944.205 0.532557 3.07523 0
M  V30 9590 N 944.506 -1.46559 0.579492 0
M  V30 9591 C 945.755 -2.01606 0.0615735 0
M  V30 9592 C 946.068 -1.45695 -1.30508 0
M  V30 9593 O 947.274 -1.92541 -1.91416 0
M  V30 9594 C 945.73 -3.59851 0.059496 0
M  V30 9595 C 945.338 -4.24757 1.42427 0
M  V30 9596 C 947.082 -4.22567 -0.404646 0
M  V30 9597 C 944.989 -5.75072 1.38009 0
M  V30 9598 H 943.919 -0.753754 0.0192491 0
M  V30 9599 H 946.57 -1.68326 0.73066 0
M  V30 9600 H 944.952 -3.90193 -0.675691 0
M  V30 9601 H 946.126 -4.06029 2.17893 0
M  V30 9602 H 944.441 -3.74121 1.82817 0
M  V30 9603 H 947.038 -5.32748 -0.456441 0
M  V30 9604 H 947.381 -3.91279 -1.42149 0
M  V30 9605 H 947.914 -3.96839 0.276376 0
M  V30 9606 H 944.653 -6.11014 2.37364 0
M  V30 9607 H 944.173 -5.96073 0.667583 0
M  V30 9608 H 945.852 -6.37724 1.09163 0
M  V30 9609 N 945.984 -0.3171 -1.54377 0
M  V30 9610 C 947.232 0.286842 -2.00054 0
M  V30 9611 C 947.553 1.53161 -1.20692 0
M  V30 9612 O 946.823 1.93479 -0.307045 0
M  V30 9613 H 945.403 0.108979 -0.739008 0
M  V30 9614 H 948.065 -0.432152 -1.90049 0
M  V30 9615 H 947.161 0.547729 -3.07256 0
M  V30 9616 N 947.462 1.57535 -0.0451378 0
M  V30 9617 C 948.692 1.96476 0.638814 0
M  V30 9618 C 949.1 0.921056 1.65267 0
M  V30 9619 O 948.443 -0.103843 1.83406 0
M  V30 9620 C 948.505 3.31629 1.38788 0
M  V30 9621 C 948.169 4.5391 0.530545 0
M  V30 9622 C 949.166 5.19512 -0.200864 0
M  V30 9623 C 946.851 5.00159 0.463242 0
M  V30 9624 C 948.845 6.29695 -0.988078 0
M  V30 9625 C 946.532 6.10221 -0.327665 0
M  V30 9626 C 947.53 6.74849 -1.05202 0
M  V30 9627 O 947.218 7.82795 -1.82993 0
M  V30 9628 H 946.95 0.651625 0.17989 0
M  V30 9629 H 949.504 2.05126 -0.106031 0
M  V30 9630 H 947.734 3.19516 2.17822 0
M  V30 9631 H 949.423 3.5536 1.96148 0
M  V30 9632 H 950.189 4.84742 -0.158299 0
M  V30 9633 H 946.068 4.49651 1.01663 0
M  V30 9634 H 949.612 6.80072 -1.55397 0
M  V30 9635 H 945.509 6.44428 -0.37189 0
M  V30 9636 H 946.277 7.99542 -1.7514 0
M  V30 9637 N 948.94 -0.228186 1.55939 0
M  V30 9638 C 949.85 -1.30386 1.9503 0
M  V30 9639 C 950.866 -1.51645 0.853218 0
M  V30 9640 O 952.042 -1.64904 1.15623 0
M  V30 9641 C 949.107 -2.63489 2.25332 0
M  V30 9642 C 948.168 -2.5059 3.48573 0
M  V30 9643 C 947.401 -3.77345 3.7742 0
M  V30 9644 O 947.624 -4.80067 3.08045 0
M  V30 9645 O 946.558 -3.74855 4.70922 0
M  V30 9646 H 950.384 -1.0022 2.86687 0
M  V30 9647 H 947.969 -0.430503 1.43063 0
M  V30 9648 H 949.851 -3.4211 2.46046 0
M  V30 9649 H 948.526 -2.93349 1.3685 0
M  V30 9650 H 947.433 -1.70191 3.33145 0
M  V30 9651 H 948.766 -2.2567 4.37417 0
M  V30 9652 N 950.418 -1.49637 -0.494624 0
M  V30 9653 C 951.381 -1.66252 -1.57775 0
M  V30 9654 C 952.381 -0.534054 -1.51672 0
M  V30 9655 O 953.571 -0.800637 -1.54711 0
M  V30 9656 C 950.703 -1.66584 -2.97426 0
M  V30 9657 H 951.896 -2.62864 -1.4437 0
M  V30 9658 H 949.449 -1.38764 -0.719323 0
M  V30 9659 H 950.184 -0.715798 -3.16302 0
M  V30 9660 H 949.969 -2.48543 -3.03264 0
M  V30 9661 H 951.459 -1.81474 -3.76108 0
M  V30 9662 N 951.896 0.746133 -1.38819 0
M  V30 9663 C 952.844 1.88137 -1.36774 0
M  V30 9664 C 953.838 1.67508 -0.252495 0
M  V30 9665 O 955.044 1.74985 -0.421935 0
M  V30 9666 H 951.419 0.619116 -0.426849 0
M  V30 9667 H 953.39 1.86978 -2.32555 0
M  V30 9668 C 952.139 3.25703 -1.21708 0
M  V30 9669 H 951.462 3.42168 -2.06788 0
M  V30 9670 H 952.902 4.05361 -1.24332 0
M  V30 9671 C 951.361 3.36816 0.0754257 0
M  V30 9672 O 951.891 3.87742 1.04972 0
M  V30 9673 N 950.097 2.90287 0.134761 0
M  V30 9674 H 949.644 2.49034 -0.658779 0
M  V30 9675 H 949.602 2.98103 0.999109 0
M  V30 9676 N 953.375 1.23811 0.975125 0
M  V30 9677 C 954.786 1.0675 1.53171 0
M  V30 9678 C 955.137 -0.363475 1.92804 0
M  V30 9679 O 954.262 -1.25089 1.76583 0
M  V30 9680 C 954.857 1.93161 2.78342 0
M  V30 9681 C 953.416 1.80346 3.30382 0
M  V30 9682 C 952.563 1.88544 2.03338 0
M  V30 9683 H 955.514 1.37396 0.79423 0
M  V30 9684 H 955.535 1.45951 3.51395 0
M  V30 9685 H 955.047 2.97302 2.49465 0
M  V30 9686 H 953.148 0.790077 3.64127 0
M  V30 9687 H 953.261 2.64026 3.99784 0
M  V30 9688 H 951.625 1.32186 2.17713 0
M  V30 9689 H 952.408 2.94252 1.76836 0
M  V30 9690 N 954.853 -1.17469 1.05066 0
M  V30 9691 C 956.101 -1.87327 0.758485 0
M  V30 9692 C 956.422 -1.81358 -0.716549 0
M  V30 9693 O 955.692 -1.23868 -1.51768 0
M  V30 9694 H 954.272 -0.693512 0.277579 0
M  V30 9695 H 956.934 -1.4251 1.32954 0
M  V30 9696 H 956.03 -2.93101 1.0723 0
M  V30 9697 N 956.331 -0.831506 -1.3388 0
M  V30 9698 C 957.577 -0.424302 -1.98312 0
M  V30 9699 C 957.91 1.01211 -1.65741 0
M  V30 9700 O 957.185 1.70636 -0.933464 0
M  V30 9701 C 957.468 -0.636815 -3.54424 0
M  V30 9702 C 957.321 -2.11997 -3.96708 0
M  V30 9703 C 958.64 -0.0782411 -4.4003 0
M  V30 9704 H 955.759 -0.155637 -0.720379 0
M  V30 9705 H 958.401 -1.04566 -1.58638 0
M  V30 9706 H 956.551 -0.107907 -3.8835 0
M  V30 9707 H 958.223 -2.71317 -3.73075 0
M  V30 9708 H 956.466 -2.60723 -3.46707 0
M  V30 9709 H 957.137 -2.21944 -5.05416 0
M  V30 9710 H 959.613 -0.530243 -4.12708 0
M  V30 9711 H 958.489 -0.256676 -5.483 0
M  V30 9712 H 958.75 1.01745 -4.30233 0
M  V30 9713 N 957.809 1.4625 -0.587256 0
M  V30 9714 C 959.22 1.85997 -0.161918 0
M  V30 9715 C 959.571 1.49025 1.27616 0
M  V30 9716 O 958.696 0.907282 1.96462 0
M  V30 9717 C 959.291 3.37582 -0.287077 0
M  V30 9718 C 957.85 3.76308 0.0834211 0
M  V30 9719 C 956.997 2.70259 -0.620932 0
M  V30 9720 H 959.948 1.3734 -0.795199 0
M  V30 9721 H 959.969 3.77379 0.486333 0
M  V30 9722 H 959.481 3.64459 -1.33383 0
M  V30 9723 H 957.582 3.55047 1.13013 0
M  V30 9724 H 957.695 4.78184 -0.296064 0
M  V30 9725 H 956.059 2.54628 -0.0607027 0
M  V30 9726 H 956.842 2.99975 -1.66942 0
M  V30 9727 N 959.287 0.325282 1.54207 0
M  V30 9728 C 960.698 -0.162426 1.85992 0
M  V30 9729 C 961.049 -1.51482 1.2469 0
M  V30 9730 O 960.174 -2.092 0.553578 0
M  V30 9731 C 960.769 -0.3015 3.37456 0
M  V30 9732 C 959.328 -0.73343 3.69185 0
M  V30 9733 C 958.475 0.143831 2.76927 0
M  V30 9734 H 961.426 0.545508 1.4903 0
M  V30 9735 H 961.447 -1.13212 3.63268 0
M  V30 9736 H 960.959 0.682942 3.82044 0
M  V30 9737 H 959.06 -1.72755 3.30131 0
M  V30 9738 H 959.173 -0.535987 4.76092 0
M  V30 9739 H 957.537 -0.380892 2.51836 0
M  V30 9740 H 958.32 1.12507 3.24341 0
M  V30 9741 N 960.765 -1.57509 0.0534917 0
M  V30 9742 C 961.728 -2.10563 -0.905307 0
M  V30 9743 C 962.728 -1.02571 -1.23838 0
M  V30 9744 O 963.918 -1.28635 -1.17468 0
M  V30 9745 C 961.05 -2.5918 -2.21447 0
M  V30 9746 H 962.243 -2.96575 -0.445354 0
M  V30 9747 H 959.796 -1.55079 -0.194947 0
M  V30 9748 H 960.531 -1.76568 -2.72019 0
M  V30 9749 H 960.316 -3.38098 -1.98575 0
M  V30 9750 H 961.806 -3.00365 -2.90122 0
M  V30 9751 N 962.243 0.219913 -1.56058 0
M  V30 9752 C 963.471 0.960915 -1.83232 0
M  V30 9753 C 963.886 1.77878 -0.632828 0
M  V30 9754 O 963.243 1.78093 0.398624 0
M  V30 9755 C 963.294 1.87716 -3.08942 0
M  V30 9756 O 963.015 1.09235 -4.24263 0
M  V30 9757 C 964.516 2.73192 -3.49115 0
M  V30 9758 H 961.736 0.281546 -0.609075 0
M  V30 9759 H 964.28 0.234648 -2.03149 0
M  V30 9760 H 962.435 2.55736 -2.90995 0
M  V30 9761 H 962.849 1.71446 -4.95688 0
M  V30 9762 H 964.323 3.33181 -4.40107 0
M  V30 9763 H 964.8 3.45668 -2.70943 0
M  V30 9764 H 965.406 2.10583 -3.69506 0
M  V30 9765 N 963.721 1.49897 0.486681 0
M  V30 9766 C 964.654 1.6224 1.60479 0
M  V30 9767 C 965.632 0.470964 1.5563 0
M  V30 9768 O 966.816 0.688418 1.75479 0
M  V30 9769 C 963.943 1.59059 2.99028 0
M  V30 9770 C 962.989 2.79575 3.22087 0
M  V30 9771 S 963.822 4.41077 3.03664 0
M  V30 9772 C 964.978 4.40564 4.44583 0
M  V30 9773 H 965.211 2.56822 1.49766 0
M  V30 9774 H 962.744 1.38966 0.672893 0
M  V30 9775 H 964.702 1.5791 3.78913 0
M  V30 9776 H 963.363 0.657405 3.07143 0
M  V30 9777 H 962.556 2.73609 4.23266 0
M  V30 9778 H 962.158 2.78211 2.49949 0
M  V30 9779 H 964.45 4.13166 5.36936 0
M  V30 9780 H 965.393 5.42068 4.55596 0
M  V30 9781 H 965.801 3.70461 4.25933 0
M  V30 9782 N 965.199 -0.738761 1.39212 0
M  V30 9783 C 966.424 -1.5331 1.39681 0
M  V30 9784 C 966.849 -1.88098 -0.00768715 0
M  V30 9785 O 966.207 -1.51642 -0.993699 0
M  V30 9786 C 966.255 -2.79958 2.27279 0
M  V30 9787 O 965.359 -3.75727 1.70008 0
M  V30 9788 H 964.7 -0.463131 0.475821 0
M  V30 9789 H 967.23 -0.911768 1.83161 0
M  V30 9790 H 967.24 -3.28732 2.41659 0
M  V30 9791 H 965.915 -2.5397 3.29351 0
M  V30 9792 H 964.492 -3.34483 1.64851 0
M  V30 9793 N 966.677 -1.24326 -0.968545 0
M  V30 9794 C 967.925 -1.08032 -1.70803 0
M  V30 9795 C 968.246 0.381728 -1.91227 0
M  V30 9796 O 967.516 1.27253 -1.48942 0
M  V30 9797 H 966.096 -0.396777 -0.632912 0
M  V30 9798 H 968.758 -1.56232 -1.16523 0
M  V30 9799 H 967.854 -1.57769 -2.69287 0
M  V30 9800 N 968.156 1.1691 -1.05688 0
M  V30 9801 C 969.381 1.91745 -0.790478 0
M  V30 9802 C 969.806 1.76568 0.648478 0
M  V30 9803 O 969.164 1.08682 1.45114 0
M  V30 9804 C 969.212 3.4067 -1.18222 0
M  V30 9805 O 968.316 4.11177 -0.317341 0
M  V30 9806 H 967.657 0.5976 -0.28943 0
M  V30 9807 H 970.187 1.48157 -1.41105 0
M  V30 9808 H 970.197 3.91424 -1.15114 0
M  V30 9809 H 968.872 3.51036 -2.2304 0
M  V30 9810 H 967.449 3.70645 -0.409459 0
M  V30 9811 N 969.634 0.838594 1.33437 0
M  V30 9812 C 970.567 0.216651 2.27169 0
M  V30 9813 C 971.545 -0.636065 1.49643 0
M  V30 9814 O 972.729 -0.596388 1.78817 0
M  V30 9815 C 969.856 -0.69584 3.31475 0
M  V30 9816 C 968.902 0.0813808 4.26422 0
M  V30 9817 S 969.735 1.43909 5.15801 0
M  V30 9818 C 970.891 0.531887 6.23636 0
M  V30 9819 H 971.124 1.01128 2.79572 0
M  V30 9820 H 968.657 0.635332 1.40723 0
M  V30 9821 H 970.615 -1.21671 3.92054 0
M  V30 9822 H 969.276 -1.46413 2.77888 0
M  V30 9823 H 968.469 -0.612944 5.00259 0
M  V30 9824 H 968.071 0.533304 3.70178 0
M  V30 9825 H 970.363 -0.270371 6.7696 0
M  V30 9826 H 971.306 1.24041 6.97151 0
M  V30 9827 H 971.714 0.113357 5.64386 0
M  V30 9828 N 971.112 -1.45937 0.595003 0
M  V30 9829 C 972.045 -2.27491 -0.179775 0
M  V30 9830 C 973.023 -1.36376 -0.88545 0
M  V30 9831 O 974.207 -1.65797 -0.896863 0
M  V30 9832 C 971.334 -3.1443 -1.25902 0
M  V30 9833 C 970.38 -4.21396 -0.657847 0
M  V30 9834 S 971.213 -5.32923 0.524689 0
M  V30 9835 C 972.369 -6.2343 -0.555452 0
M  V30 9836 H 972.602 -2.92855 0.512173 0
M  V30 9837 H 970.135 -1.49595 0.382199 0
M  V30 9838 H 972.093 -3.65081 -1.87687 0
M  V30 9839 H 970.754 -2.48356 -1.92297 0
M  V30 9840 H 969.947 -4.82102 -1.46948 0
M  V30 9841 H 969.549 -3.73822 -0.115403 0
M  V30 9842 H 971.841 -6.62066 -1.43789 0
M  V30 9843 H 972.784 -7.08098 0.0151431 0
M  V30 9844 H 973.192 -5.57831 -0.865125 0
M  V30 9845 N 972.59 -0.333456 -1.54032 0
M  V30 9846 C 973.838 0.265608 -2.00347 0
M  V30 9847 C 974.159 1.51873 -1.2231 0
M  V30 9848 O 973.429 1.93142 -0.327549 0
M  V30 9849 H 972.009 0.101135 -0.740122 0
M  V30 9850 H 974.671 -0.452285 -1.8958 0
M  V30 9851 H 973.767 0.51511 -3.0782 0
M  V30 9852 N 974.068 1.57479 -0.061844 0
M  V30 9853 C 975.293 1.97843 0.622311 0
M  V30 9854 C 975.718 0.939602 1.62951 0
M  V30 9855 O 975.076 -0.095958 1.81046 0
M  V30 9856 C 975.124 3.37262 1.2762 0
M  V30 9857 O 974.228 3.35943 2.39199 0
M  V30 9858 H 973.569 0.644212 0.160896 0
M  V30 9859 H 976.099 2.04165 -0.133409 0
M  V30 9860 H 976.109 3.74226 1.62539 0
M  V30 9861 H 974.784 4.12404 0.538112 0
M  V30 9862 H 973.361 3.10737 2.06148 0
M  V30 9863 N 975.546 -0.211634 1.56173 0
M  V30 9864 C 976.823 -0.959467 1.70451 0
M  V30 9865 C 977.203 -2.02036 0.611942 0
M  V30 9866 O 976.551 -2.25325 -0.37959 0
M  V30 9867 C 976.761 -1.56092 3.12148 0
M  V30 9868 C 978.109 -2.04939 3.71867 0
M  V30 9869 O 979.133 -1.65966 3.15172 0
M  V30 9870 O 977.992 -2.766 4.71333 0
M  V30 9871 H 975.086 -0.448844 0.6946 0
M  V30 9872 H 977.632 -0.202633 1.68486 0
M  V30 9873 H 976.404 -0.79538 3.83131 0
M  V30 9874 H 976.027 -2.38303 3.18273 0
M  V30 9875 N 977.024 -1.50153 -0.478725 0
M  V30 9876 C 977.957 -1.63089 -1.59616 0
M  V30 9877 C 978.935 -0.479211 -1.55378 0
M  V30 9878 O 980.119 -0.697715 -1.75112 0
M  V30 9879 C 977.246 -1.60643 -2.9818 0
M  V30 9880 C 976.292 -2.81279 -3.206 0
M  V30 9881 S 977.125 -4.42681 -3.0132 0
M  V30 9882 C 978.281 -4.42915 -4.42241 0
M  V30 9883 H 978.514 -2.57612 -1.48402 0
M  V30 9884 H 976.047 -1.39321 -0.665513 0
M  V30 9885 H 978.005 -1.59917 -3.7807 0
M  V30 9886 H 976.666 -0.673684 -3.0679 0
M  V30 9887 H 975.859 -2.7585 -4.21809 0
M  V30 9888 H 975.461 -2.79533 -2.4847 0
M  V30 9889 H 977.753 -4.16007 -5.34737 0
M  V30 9890 H 978.696 -5.44477 -4.52715 0
M  V30 9891 H 979.104 -3.72715 -4.23962 0
M  V30 9892 N 978.502 0.731368 -1.39602 0
M  V30 9893 C 979.918 1.03739 -1.21286 0
M  V30 9894 C 980.118 2.01353 -0.0769875 0
M  V30 9895 O 979.174 2.45978 0.570193 0
M  V30 9896 C 980.487 1.59621 -2.54837 0
M  V30 9897 C 982.035 1.71683 -2.61713 0
M  V30 9898 C 982.51 2.30973 -3.95494 0
M  V30 9899 N 984.001 2.38378 -3.97153 0
M  V30 9900 C 984.736 2.852 -4.97442 0
M  V30 9901 N 984.232 3.31891 -6.08129 0
M  V30 9902 N 986.025 2.84441 -4.84819 0
M  V30 9903 H 978.176 0.0840456 -2.12234 0
M  V30 9904 H 980.439 0.0999038 -0.942721 0
M  V30 9905 H 980.145 0.953608 -3.38525 0
M  V30 9906 H 980.019 2.58375 -2.74813 0
M  V30 9907 H 982.406 2.35064 -1.78406 0
M  V30 9908 H 982.487 0.715714 -2.45583 0
M  V30 9909 H 982.131 1.68219 -4.79234 0
M  V30 9910 H 982.061 3.31769 -4.08946 0
M  V30 9911 H 984.552 2.05382 -3.17217 0
M  V30 9912 H 984.865 3.66138 -6.8056 0
M  V30 9913 H 983.21 3.2989 -6.11717 0
M  V30 9914 H 986.401 2.4729 -3.97448 0
M  V30 9915 H 986.574 3.20616 -5.63124 0
M  V30 9916 N 979.98 1.24838 0.961938 0
M  V30 9917 C 981.208 1.11871 1.74047 0
M  V30 9918 C 981.623 -0.328209 1.85925 0
M  V30 9919 O 980.98 -1.22616 1.35173 0
M  V30 9920 C 981.031 1.75931 3.15801 0
M  V30 9921 O 980.752 3.14967 3.04512 0
M  V30 9922 C 982.253 1.68649 4.09966 0
M  V30 9923 H 979.473 0.390569 0.545616 0
M  V30 9924 H 982.017 1.65058 1.20732 0
M  V30 9925 H 980.172 1.26733 3.66084 0
M  V30 9926 H 980.586 3.46349 3.93882 0
M  V30 9927 H 982.06 2.18144 5.07067 0
M  V30 9928 H 982.537 0.648831 4.34381 0
M  V30 9929 H 983.143 2.17301 3.65596 0
M  V30 9930 N 981.458 -1.16348 1.06306 0
M  V30 9931 C 982.368 -2.24375 0.685059 0
M  V30 9932 C 983.384 -1.71413 -0.298956 0
M  V30 9933 O 984.56 -2.00854 -0.148239 0
M  V30 9934 C 981.625 -3.46614 0.0774088 0
M  V30 9935 C 980.686 -4.14613 1.11331 0
M  V30 9936 C 979.919 -5.31016 0.534559 0
M  V30 9937 O 980.142 -5.66654 -0.65265 0
M  V30 9938 O 979.076 -5.88256 1.27431 0
M  V30 9939 H 982.902 -2.59018 1.58566 0
M  V30 9940 H 980.487 -1.23865 0.835332 0
M  V30 9941 H 982.369 -4.20599 -0.259716 0
M  V30 9942 H 981.044 -3.13743 -0.796677 0
M  V30 9943 H 979.951 -3.42597 1.50261 0
M  V30 9944 H 981.284 -4.51538 1.95893 0
M  V30 9945 N 982.937 -0.845659 -1.3299 0
M  V30 9946 C 984.353 -0.53433 -1.5039 0
M  V30 9947 C 984.553 0.936939 -1.78392 0
M  V30 9948 O 983.609 1.72043 -1.84818 0
M  V30 9949 C 984.922 -1.41354 -2.65404 0
M  V30 9950 C 986.47 -1.41303 -2.79289 0
M  V30 9951 C 986.945 -2.27724 -3.97373 0
M  V30 9952 N 988.436 -2.25471 -4.0462 0
M  V30 9953 C 989.171 -2.89074 -4.95201 0
M  V30 9954 N 988.667 -3.61755 -5.90851 0
M  V30 9955 N 990.46 -2.78508 -4.88251 0
M  V30 9956 H 982.611 -1.79798 -1.13078 0
M  V30 9957 H 984.874 -0.767454 -0.556524 0
M  V30 9958 H 984.58 -2.45936 -2.51413 0
M  V30 9959 H 984.454 -1.09445 -3.60973 0
M  V30 9960 H 986.841 -0.374899 -2.92709 0
M  V30 9961 H 986.922 -1.77222 -1.84461 0
M  V30 9962 H 986.566 -3.316 -3.84713 0
M  V30 9963 H 986.496 -1.89142 -4.9146 0
M  V30 9964 H 988.987 -1.72622 -3.3617 0
M  V30 9965 H 989.3 -4.07475 -6.56646 0
M  V30 9966 H 987.645 -3.65863 -5.90906 0
M  V30 9967 H 990.836 -2.21285 -4.12493 0
M  V30 9968 H 991.009 -3.2836 -5.58645 0
M  V30 9969 N 984.415 1.45619 -0.602734 0
M  V30 9970 C 985.662 2.02272 -0.0960337 0
M  V30 9971 C 985.99 1.47177 1.27159 0
M  V30 9972 O 985.245 0.634593 1.85125 0
M  V30 9973 C 985.544 3.574 -0.00157909 0
M  V30 9974 C 985.21 4.31626 -1.30422 0
M  V30 9975 C 983.872 4.51622 -1.66106 0
M  V30 9976 C 986.224 4.74091 -2.16535 0
M  V30 9977 C 983.552 5.11338 -2.87663 0
M  V30 9978 C 985.904 5.35151 -3.37336 0
M  V30 9979 C 984.568 5.53371 -3.73278 0
M  V30 9980 H 983.838 0.740166 -0.0351412 0
M  V30 9981 H 986.485 1.74744 -0.783382 0
M  V30 9982 H 984.79 3.84179 0.769008 0
M  V30 9983 H 986.487 3.98934 0.406549 0
M  V30 9984 H 983.077 4.16372 -1.01647 0
M  V30 9985 H 987.261 4.5838 -1.90266 0
M  V30 9986 H 982.517 5.23634 -3.15622 0
M  V30 9987 H 986.691 5.67011 -4.04316 0
M  V30 9988 H 984.318 5.99412 -4.67556 0
M  V30 9989 N 985.893 0.34162 1.53853 0
M  V30 9990 C 987.141 -0.254979 2.00485 0
M  V30 9991 C 987.462 -1.51222 1.23114 0
M  V30 9992 O 986.732 -1.92966 0.337787 0
M  V30 9993 H 985.312 -0.0972084 0.740648 0
M  V30 9994 H 987.974 0.462332 1.89337 0
M  V30 9995 H 987.07 -0.498778 3.08089 0
M  V30 9996 N 987.371 -1.57444 0.0701946 0
M  V30 9997 C 988.303 -2.09611 -0.927142 0
M  V30 9998 C 989.316 -1.02791 -1.26245 0
M  V30 9999 O 990.505 -1.30309 -1.21992 0
M  V30 10000 C 987.605 -2.54015 -2.24342 0
M  V30 10001 C 986.778 -3.84389 -2.08719 0
M  V30 10002 C 985.837 -4.14904 -3.23638 0
M  V30 10003 O 984.863 -4.84528 -2.98699 0
M  V30 10004 N 986.065 -3.68322 -4.48686 0
M  V30 10005 H 988.83 -2.95803 -0.481753 0
M  V30 10006 H 986.391 -1.61487 -0.115572 0
M  V30 10007 H 988.383 -2.71492 -3.00124 0
M  V30 10008 H 986.953 -1.72969 -2.60385 0
M  V30 10009 H 986.173 -3.76308 -1.17415 0
M  V30 10010 H 987.461 -4.69729 -1.9553 0
M  V30 10011 H 986.859 -3.12073 -4.71834 0
M  V30 10012 H 985.416 -3.91002 -5.21499 0
M  V30 10013 N 988.849 0.203349 -1.56283 0
M  V30 10014 C 990.097 0.923183 -1.79782 0
M  V30 10015 C 990.418 1.84134 -0.64185 0
M  V30 10016 O 989.688 1.92922 0.340292 0
M  V30 10017 H 988.268 0.343881 -0.66314 0
M  V30 10018 H 990.93 0.210837 -1.93756 0
M  V30 10019 H 990.026 1.51921 -2.72629 0
M  V30 10020 N 990.327 1.50405 0.470755 0
M  V30 10021 C 991.575 1.61092 1.2204 0
M  V30 10022 C 991.896 0.313487 1.92464 0
M  V30 10023 O 991.166 -0.669043 1.84121 0
M  V30 10024 H 989.746 0.593618 0.45346 0
M  V30 10025 H 992.408 1.87184 0.542985 0
M  V30 10026 H 991.504 2.42222 1.96812 0
M  V30 10027 N 991.805 -0.723954 1.39988 0
M  V30 10028 C 992.768 -1.81973 1.3935 0
M  V30 10029 C 993.768 -1.58187 0.288702 0
M  V30 10030 O 994.958 -1.65383 0.547181 0
M  V30 10031 C 992.09 -3.19937 1.177 0
M  V30 10032 H 993.283 -1.83939 2.36868 0
M  V30 10033 H 990.836 -0.928742 1.25714 0
M  V30 10034 H 991.571 -3.23625 0.209093 0
M  V30 10035 H 991.356 -3.386 1.97719 0
M  V30 10036 H 992.846 -3.99981 1.20022 0
M  V30 10037 N 993.283 -1.25346 -0.955304 0
M  V30 10038 C 994.531 -1.09837 -1.69647 0
M  V30 10039 C 994.852 0.361425 -1.91621 0
M  V30 10040 O 994.122 1.25666 -1.50283 0
M  V30 10041 H 992.702 -0.403467 -0.628668 0
M  V30 10042 H 995.364 -1.57459 -1.14859 0
M  V30 10043 H 994.46 -1.60616 -2.67598 0
M  V30 10044 N 994.761 1.15782 -1.06922 0
M  V30 10045 C 996.172 1.68062 -0.813144 0
M  V30 10046 C 996.523 1.84681 0.662374 0
M  V30 10047 O 995.648 1.54696 1.51321 0
M  V30 10048 C 996.243 3.05273 -1.46949 0
M  V30 10049 C 994.802 3.54647 -1.26104 0
M  V30 10050 C 993.949 2.30477 -1.54194 0
M  V30 10051 H 996.9 1.00056 -1.23185 0
M  V30 10052 H 996.921 3.69986 -0.888308 0
M  V30 10053 H 996.433 2.93145 -2.54337 0
M  V30 10054 H 994.534 3.72024 -0.20718 0
M  V30 10055 H 994.647 4.36354 -1.97819 0
M  V30 10056 H 993.011 2.35803 -0.96276 0
M  V30 10057 H 993.794 2.2094 -2.62755 0
M  V30 10058 N 996.239 0.8527 1.3254 0
M  V30 10059 C 997.485 0.455798 1.97612 0
M  V30 10060 C 997.818 -0.985616 1.6733 0
M  V30 10061 O 997.093 -1.69129 0.960493 0
M  V30 10062 C 997.376 0.69312 3.53366 0
M  V30 10063 C 997.229 2.18281 3.93285 0
M  V30 10064 C 998.548 0.148236 4.3985 0
M  V30 10065 H 995.667 0.167078 0.717812 0
M  V30 10066 H 998.309 1.07076 1.56954 0
M  V30 10067 H 996.459 0.169677 3.88129 0
M  V30 10068 H 998.131 2.77218 3.68711 0
M  V30 10069 H 996.374 2.66206 3.42515 0
M  V30 10070 H 997.045 2.29957 5.01821 0
M  V30 10071 H 999.521 0.595834 4.11812 0
M  V30 10072 H 998.397 0.343873 5.47822 0
M  V30 10073 H 998.658 -0.948872 4.31797 0
M  V30 10074 N 997.718 -1.45297 0.610449 0
M  V30 10075 C 998.966 -2.01819 0.106548 0
M  V30 10076 C 999.287 -1.48102 -1.26849 0
M  V30 10077 O 998.557 -0.676411 -1.83852 0
M  V30 10078 H 997.137 -0.746113 0.0363982 0
M  V30 10079 H 999.799 -1.78061 0.792491 0
M  V30 10080 H 998.895 -3.12045 0.0585 0
M  V30 10081 N 999.196 -0.349774 -1.5367 0
M  V30 10082 C 1000.44 0.244343 -2.00617 0
M  V30 10083 C 1000.76 1.50567 -1.23914 0
M  V30 10084 O 1000.03 1.92784 -0.348016 0
M  V30 10085 H 998.615 0.0932792 -0.741153 0
M  V30 10086 H 1001.28 -0.472367 -1.89089 0
M  V30 10087 H 1000.37 0.482433 -3.08349 0
M  V30 10088 N 1000.67 1.57404 -0.0785433 0
M  V30 10089 C 1001.61 2.101 0.916013 0
M  V30 10090 C 1002.62 1.03459 1.25698 0
M  V30 10091 O 1003.81 1.30954 1.21299 0
M  V30 10092 C 1000.91 2.55202 2.22992 0
M  V30 10093 C 1000.08 3.85491 2.06678 0
M  V30 10094 C 999.14 4.16614 3.21433 0
M  V30 10095 O 998.166 4.86105 2.96126 0
M  V30 10096 N 999.368 3.70697 4.46726 0
M  V30 10097 H 1002.13 2.96054 0.466059 0
M  V30 10098 H 999.694 1.61546 0.107006 0
M  V30 10099 H 1001.69 2.7308 2.9868 0
M  V30 10100 H 1000.26 1.74348 2.59464 0
M  V30 10101 H 999.476 3.76925 1.15417 0
M  V30 10102 H 1000.76 4.70759 1.93036 0
M  V30 10103 H 1000.16 3.14571 4.70172 0
M  V30 10104 H 998.719 3.93762 5.19418 0
M  V30 10105 N 1002.15 -0.195058 1.56388 0
M  V30 10106 C 1003.4 -0.913636 1.8027 0
M  V30 10107 C 1003.72 -1.83791 0.651606 0
M  V30 10108 O 1002.99 -1.931 -0.330057 0
M  V30 10109 H 1001.57 -0.34036 0.664954 0
M  V30 10110 H 1004.23 -0.200559 1.93865 0
M  V30 10111 H 1003.33 -1.50473 2.7343 0
M  V30 10112 N 1003.63 -1.50653 -0.462772 0
M  V30 10113 C 1005.04 -1.54821 -1.04342 0
M  V30 10114 C 1005.39 -0.356595 -1.92932 0
M  V30 10115 O 1004.52 0.529579 -2.0982 0
M  V30 10116 C 1005.11 -2.80571 -1.89909 0
M  V30 10117 C 1003.67 -2.87394 -2.43067 0
M  V30 10118 C 1002.82 -2.49206 -1.21621 0
M  V30 10119 H 1005.77 -1.56797 -0.245048 0
M  V30 10120 H 1005.79 -2.62897 -2.75074 0
M  V30 10121 H 1005.3 -3.67281 -1.25405 0
M  V30 10122 H 1003.4 -2.05055 -3.111 0
M  V30 10123 H 1003.52 -3.90477 -2.77605 0
M  V30 10124 H 1001.88 -2.01829 -1.55361 0
M  V30 10125 H 1002.66 -3.38233 -0.587669 0
M  V30 10126 N 1005.11 0.71652 -1.4037 0
M  V30 10127 C 1006.52 1.02447 -1.22379 0
M  V30 10128 C 1006.72 2.0126 -0.0983394 0
M  V30 10129 O 1005.78 2.46569 0.544071 0
M  V30 10130 C 1007.09 1.56909 -2.56515 0
M  V30 10131 C 1008.64 1.68898 -2.6352 0
M  V30 10132 C 1009.12 2.26765 -3.97922 0
M  V30 10133 N 1010.61 2.34152 -3.99658 0
M  V30 10134 C 1011.34 2.79907 -5.00439 0
M  V30 10135 N 1010.84 3.25422 -6.11615 0
M  V30 10136 N 1012.63 2.79283 -4.87809 0
M  V30 10137 H 1004.78 0.0615306 -2.12311 0
M  V30 10138 H 1007.05 0.0898994 -0.943728 0
M  V30 10139 H 1006.75 0.917649 -3.39517 0
M  V30 10140 H 1006.63 2.55446 -2.77538 0
M  V30 10141 H 1009.01 2.33159 -1.8089 0
M  V30 10142 H 1009.09 0.689626 -2.46329 0
M  V30 10143 H 1008.74 1.63126 -4.80991 0
M  V30 10144 H 1008.67 3.27413 -4.12442 0
M  V30 10145 H 1011.16 2.02006 -3.19378 0
M  V30 10146 H 1011.47 3.58899 -6.84406 0
M  V30 10147 H 1009.82 3.23383 -6.15181 0
M  V30 10148 H 1013.01 2.43061 -4.00049 0
M  V30 10149 H 1013.18 3.14626 -5.66493 0
M  V30 10150 N 1006.59 1.25851 0.948643 0
M  V30 10151 C 1007.83 1.10735 1.69062 0
M  V30 10152 C 1008.16 -0.351257 1.9181 0
M  V30 10153 O 1007.43 -1.24867 1.50947 0
M  V30 10154 H 1006.01 0.406796 0.626519 0
M  V30 10155 H 1008.67 1.58066 1.14022 0
M  V30 10156 H 1007.76 1.62033 2.66743 0
M  V30 10157 N 1008.06 -1.15214 1.07534 0
M  V30 10158 C 1009 -2.18999 0.641461 0
M  V30 10159 C 1009.98 -1.58958 -0.342238 0
M  V30 10160 O 1011.16 -1.86859 -0.248218 0
M  V30 10161 C 1008.29 -3.38651 -0.0577939 0
M  V30 10162 C 1007.33 -4.17225 0.884641 0
M  V30 10163 S 1008.17 -4.79375 2.38663 0
M  V30 10164 C 1009.32 -6.02393 1.69923 0
M  V30 10165 H 1009.55 -2.55464 1.52071 0
M  V30 10166 H 1007.09 -1.26205 0.889481 0
M  V30 10167 H 1009.05 -4.07971 -0.454982 0
M  V30 10168 H 1007.71 -3.00526 -0.913407 0
M  V30 10169 H 1006.9 -5.02837 0.342133 0
M  V30 10170 H 1006.5 -3.53463 1.2223 0
M  V30 10171 H 1008.79 -6.69899 1.01201 0
M  V30 10172 H 1009.74 -6.61216 2.53375 0
M  V30 10173 H 1010.14 -5.52106 1.1764 0
M  V30 10174 N 1009.54 -0.859717 -1.32086 0
M  V30 10175 C 1010.79 -0.464662 -1.96686 0
M  V30 10176 C 1011.11 0.98412 -1.68345 0
M  V30 10177 O 1010.38 1.68847 -0.993361 0
M  V30 10178 H 1008.96 -0.168838 -0.727669 0
M  V30 10179 H 1011.62 -1.09726 -1.61079 0
M  V30 10180 H 1010.72 -0.613904 -3.06003 0
M  V30 10181 N 1011.02 1.44971 -0.618145 0
M  V30 10182 C 1012.43 1.85611 -0.201334 0
M  V30 10183 C 1012.78 1.51698 1.24427 0
M  V30 10184 O 1011.91 0.94875 1.94493 0
M  V30 10185 C 1012.5 3.36897 -0.358619 0
M  V30 10186 C 1011.06 3.764 0.00358196 0
M  V30 10187 C 1010.21 2.68881 -0.678118 0
M  V30 10188 H 1013.16 1.35622 -0.824152 0
M  V30 10189 H 1013.18 3.78326 0.406176 0
M  V30 10190 H 1012.69 3.61548 -1.41084 0
M  V30 10191 H 1010.79 3.57365 1.05457 0
M  V30 10192 H 1010.91 4.77449 -0.397427 0
M  V30 10193 H 1009.27 2.54442 -0.114699 0
M  V30 10194 H 1010.05 2.96367 -1.73268 0
M  V30 10195 N 1012.5 0.357919 1.53482 0
M  V30 10196 C 1013.75 -0.2337 2.00744 0
M  V30 10197 C 1014.07 -1.49908 1.2471 0
M  V30 10198 O 1013.34 -1.92597 0.358235 0
M  V30 10199 H 1011.92 -0.0893474 0.741637 0
M  V30 10200 H 1014.58 0.482388 1.88836 0
M  V30 10201 H 1013.68 -0.466073 3.086 0
M  V30 10202 N 1013.98 -1.5736 0.0868897 0
M  V30 10203 C 1015.2 -1.98388 -0.587349 0
M  V30 10204 C 1015.62 -0.965757 -1.6223 0
M  V30 10205 O 1014.98 0.0456981 -1.82443 0
M  V30 10206 C 1015.03 -3.39479 -1.24242 0
M  V30 10207 O 1014.75 -4.37393 -0.248878 0
M  V30 10208 C 1016.25 -3.95465 -2.00305 0
M  V30 10209 H 1013.47 -0.652111 -0.15809 0
M  V30 10210 H 1016.01 -2.03843 0.163754 0
M  V30 10211 H 1014.17 -3.35063 -1.94451 0
M  V30 10212 H 1014.58 -5.19525 -0.720678 0
M  V30 10213 H 1016.06 -4.96363 -2.41511 0
M  V30 10214 H 1016.53 -3.32832 -2.86565 0
M  V30 10215 H 1017.14 -4.03328 -1.34931 0
M  V30 10216 N 1015.45 0.186762 -1.56489 0
M  V30 10217 C 1016.87 0.750675 -1.70944 0
M  V30 10218 C 1017.22 1.83483 -0.694858 0
M  V30 10219 O 1016.34 2.159 0.147009 0
M  V30 10220 C 1016.94 1.36843 -3.09934 0
M  V30 10221 C 1015.5 1.87934 -3.26125 0
M  V30 10222 C 1014.64 0.75242 -2.66897 0
M  V30 10223 H 1017.59 -0.0384292 -1.58653 0
M  V30 10224 H 1017.61 2.23795 -3.07727 0
M  V30 10225 H 1017.13 0.579135 -3.83755 0
M  V30 10226 H 1015.23 2.69556 -2.57235 0
M  V30 10227 H 1015.34 2.0354 -4.33715 0
M  V30 10228 H 1013.7 1.16888 -2.26295 0
M  V30 10229 H 1014.49 -0.0247769 -3.43291 0
M  V30 10230 N 1016.93 1.50896 0.454776 0
M  V30 10231 C 1017.9 1.70377 1.53312 0
M  V30 10232 C 1018.9 0.57408 1.50203 0
M  V30 10233 O 1020.09 0.841374 1.52534 0
M  V30 10234 C 1017.22 1.74411 2.92905 0
M  V30 10235 H 1018.41 2.66599 1.37349 0
M  V30 10236 H 1015.96 1.40622 0.68228 0
M  V30 10237 H 1016.7 0.799408 3.14293 0
M  V30 10238 H 1016.48 2.56496 2.96568 0
M  V30 10239 H 1017.97 1.91382 3.71164 0
M  V30 10240 N 1018.41 -0.709066 1.40748 0
M  V30 10241 C 1019.66 -1.46611 1.39103 0
M  V30 10242 C 1019.98 -1.95 -0.00365366 0
M  V30 10243 O 1019.25 -1.70791 -0.959541 0
M  V30 10244 H 1017.83 -0.543954 0.511979 0
M  V30 10245 H 1020.49 -0.840141 1.75863 0
M  V30 10246 H 1019.59 -2.33581 2.06994 0
M  V30 10247 N 1019.89 -1.26353 -0.941956 0
M  V30 10248 C 1021.12 -1.1446 -1.71996 0
M  V30 10249 C 1021.53 0.302957 -1.86759 0
M  V30 10250 O 1020.87 1.2193 -1.374 0
M  V30 10251 C 1020.93 -1.73986 -3.14593 0
M  V30 10252 C 1020.6 -3.23078 -3.23217 0
M  V30 10253 C 1021.59 -4.19905 -3.06554 0
M  V30 10254 C 1019.28 -3.63526 -3.46632 0
M  V30 10255 C 1021.27 -5.55159 -3.13172 0
M  V30 10256 C 1018.96 -4.98914 -3.52886 0
M  V30 10257 C 1019.96 -5.9454 -3.36172 0
M  V30 10258 O 1019.65 -7.27462 -3.42132 0
M  V30 10259 H 1019.38 -0.399453 -0.545356 0
M  V30 10260 H 1021.93 -1.67455 -1.18945 0
M  V30 10261 H 1020.16 -1.15453 -3.69063 0
M  V30 10262 H 1021.85 -1.57011 -3.74302 0
M  V30 10263 H 1022.62 -3.89995 -2.88321 0
M  V30 10264 H 1018.5 -2.8958 -3.58698 0
M  V30 10265 H 1022.04 -6.29777 -3.00044 0
M  V30 10266 H 1017.94 -5.28485 -3.70639 0
M  V30 10267 H 1018.7 -7.35725 -3.5868 0
M  V30 10268 N 1021.37 1.14642 -1.08144 0
M  V30 10269 C 1022.62 1.8525 -0.807885 0
M  V30 10270 C 1022.94 1.83194 0.668213 0
M  V30 10271 O 1022.21 1.27848 1.48431 0
M  V30 10272 H 1020.79 0.685909 -0.295868 0
M  V30 10273 H 1023.45 1.38935 -1.36686 0
M  V30 10274 H 1022.54 2.90155 -1.14964 0
M  V30 10275 N 1022.85 0.866709 1.31628 0
M  V30 10276 C 1024.26 0.558188 1.49521 0
M  V30 10277 C 1024.46 -0.90844 1.7986 0
M  V30 10278 O 1023.52 -1.6908 1.87531 0
M  V30 10279 C 1024.83 1.45559 2.63122 0
M  V30 10280 C 1026.38 1.45728 2.77006 0
M  V30 10281 C 1026.85 2.34017 3.937 0
M  V30 10282 N 1028.34 2.31879 4.00982 0
M  V30 10283 C 1029.08 2.96915 4.90539 0
M  V30 10284 N 1028.58 3.71109 5.85021 0
M  V30 10285 N 1030.37 2.86241 4.83759 0
M  V30 10286 H 1022.52 1.81574 1.10203 0
M  V30 10287 H 1024.78 0.77621 0.544244 0
M  V30 10288 H 1024.49 2.49904 2.47469 0
M  V30 10289 H 1024.36 1.15174 3.59186 0
M  V30 10290 H 1026.75 0.421419 2.92075 0
M  V30 10291 H 1026.83 1.80134 1.81619 0
M  V30 10292 H 1026.47 3.37678 3.79389 0
M  V30 10293 H 1026.4 1.96937 4.88388 0
M  V30 10294 H 1028.9 1.77948 3.33381 0
M  V30 10295 H 1029.21 4.1787 6.5008 0
M  V30 10296 H 1027.55 3.75217 5.8501 0
M  V30 10297 H 1030.74 2.27819 4.08921 0
M  V30 10298 H 1030.92 3.37206 5.5335 0
M  V30 10299 N 1024.32 -1.44642 0.625825 0
M  V30 10300 C 1025.57 -2.01695 0.127948 0
M  V30 10301 C 1025.89 -1.49439 -1.25271 0
M  V30 10302 O 1025.16 -0.695873 -1.83124 0
M  V30 10303 H 1023.74 -0.745685 0.0443096 0
M  V30 10304 H 1026.4 -1.7721 0.811332 0
M  V30 10305 H 1025.5 -3.11966 0.0915933 0
M  V30 10306 N 1025.8 -0.366053 -1.5329 0
M  V30 10307 C 1027.22 -0.0150149 -1.59593 0
M  V30 10308 C 1027.42 1.46719 -1.38116 0
M  V30 10309 O 1026.47 2.22884 -1.18656 0
M  V30 10310 C 1027.79 -0.471374 -2.96982 0
M  V30 10311 C 1029.33 -0.425634 -3.10092 0
M  V30 10312 C 1029.81 -0.857812 -4.49895 0
M  V30 10313 N 1031.3 -0.81289 -4.56011 0
M  V30 10314 C 1032.04 -1.11898 -5.62376 0
M  V30 10315 N 1031.53 -1.49436 -6.76491 0
M  V30 10316 N 1033.32 -1.04174 -5.52362 0
M  V30 10317 H 1025.48 -1.33127 -1.65502 0
M  V30 10318 H 1027.74 -0.544172 -0.776261 0
M  V30 10319 H 1027.44 -1.50569 -3.1784 0
M  V30 10320 H 1027.32 0.141764 -3.76934 0
M  V30 10321 H 1029.71 0.599548 -2.88945 0
M  V30 10322 H 1029.79 -1.07427 -2.32149 0
M  V30 10323 H 1029.43 -1.88111 -4.7178 0
M  V30 10324 H 1029.36 -0.186419 -5.2627 0
M  V30 10325 H 1031.85 -0.536343 -3.74075 0
M  V30 10326 H 1032.16 -1.71217 -7.53594 0
M  V30 10327 H 1030.51 -1.53302 -6.77882 0
M  V30 10328 H 1033.7 -0.747654 -4.62091 0
M  V30 10329 H 1033.87 -1.28362 -6.35159 0
M  V30 10330 N 1027.28 1.57312 -0.0952337 0
M  V30 10331 C 1028.19 2.17556 0.877877 0
M  V30 10332 C 1029.21 1.14505 1.31014 0
M  V30 10333 O 1030.38 1.46876 1.37802 0
M  V30 10334 C 1027.45 2.74413 2.11892 0
M  V30 10335 C 1026.51 3.92419 1.74085 0
M  V30 10336 C 1025.74 4.46556 2.92273 0
M  V30 10337 O 1025.96 3.99631 4.07002 0
M  V30 10338 O 1024.9 5.37576 2.70732 0
M  V30 10339 H 1028.72 3.01116 0.395312 0
M  V30 10340 H 1026.31 1.48841 0.129123 0
M  V30 10341 H 1028.19 3.10754 2.84622 0
M  V30 10342 H 1026.87 1.93899 2.59201 0
M  V30 10343 H 1025.77 3.6089 0.985346 0
M  V30 10344 H 1027.11 4.74298 1.31539 0
M  V30 10345 N 1028.76 -0.17846 1.56586 0
M  V30 10346 C 1029.67 -1.24115 1.9908 0
M  V30 10347 C 1030.68 -1.48854 0.901031 0
M  V30 10348 O 1031.86 -1.61142 1.2081 0
M  V30 10349 C 1028.92 -2.56187 2.33601 0
M  V30 10350 C 1027.99 -2.39373 3.56369 0
M  V30 10351 C 1027.22 -3.65147 3.89234 0
M  V30 10352 O 1027.44 -4.70024 3.23162 0
M  V30 10353 O 1026.38 -3.59683 4.82609 0
M  V30 10354 H 1030.2 -0.910482 2.89731 0
M  V30 10355 H 1027.79 -0.38477 1.4436 0
M  V30 10356 H 1029.67 -3.34109 2.56806 0
M  V30 10357 H 1028.34 -2.88847 1.46113 0
M  V30 10358 H 1027.25 -1.59506 3.38391 0
M  V30 10359 H 1028.58 -2.1164 4.44375 0
M  V30 10360 N 1030.24 -1.51135 -0.446768 0
M  V30 10361 C 1031.47 -1.66887 -1.21788 0
M  V30 10362 C 1031.87 -0.361729 -1.8571 0
M  V30 10363 O 1031.22 0.668784 -1.71093 0
M  V30 10364 C 1031.28 -2.72062 -2.34994 0
M  V30 10365 C 1030.94 -4.14935 -1.91516 0
M  V30 10366 C 1031.94 -5.00021 -1.42389 0
M  V30 10367 C 1029.62 -4.60985 -1.99495 0
M  V30 10368 C 1031.62 -6.29216 -1.01816 0
M  V30 10369 C 1029.31 -5.90179 -1.58532 0
M  V30 10370 C 1030.3 -6.74121 -1.09774 0
M  V30 10371 O 1029.99 -8.009 -0.69389 0
M  V30 10372 H 1029.72 -0.563431 -0.373525 0
M  V30 10373 H 1032.28 -1.98261 -0.536818 0
M  V30 10374 H 1030.51 -2.35983 -3.06348 0
M  V30 10375 H 1032.2 -2.76788 -2.96889 0
M  V30 10376 H 1032.96 -4.6565 -1.35627 0
M  V30 10377 H 1028.84 -3.95777 -2.36393 0
M  V30 10378 H 1032.39 -6.94687 -0.636879 0
M  V30 10379 H 1028.28 -6.24066 -1.64962 0
M  V30 10380 H 1029.05 -8.14376 -0.820582 0
M  V30 10381 N 1031.71 0.701592 -1.41122 0
M  V30 10382 C 1032.62 1.84548 -1.44841 0
M  V30 10383 C 1033.64 1.70654 -0.339594 0
M  V30 10384 O 1034.82 1.92675 -0.586378 0
M  V30 10385 C 1031.88 3.20477 -1.3227 0
M  V30 10386 C 1030.94 3.46524 -2.53415 0
M  V30 10387 C 1030.17 4.75968 -2.41434 0
M  V30 10388 O 1030.4 5.52037 -1.43566 0
M  V30 10389 O 1029.33 5.02664 -3.31078 0
M  V30 10390 H 1033.16 1.84367 -2.41335 0
M  V30 10391 H 1030.74 0.853863 -1.22595 0
M  V30 10392 H 1032.62 4.01642 -1.2752 0
M  V30 10393 H 1031.3 3.21355 -0.388889 0
M  V30 10394 H 1030.21 2.65313 -2.63742 0
M  V30 10395 H 1031.54 3.50455 -3.45604 0
M  V30 10396 N 1033.19 1.2685 0.935242 0
M  V30 10397 C 1034.44 1.12522 1.67878 0
M  V30 10398 C 1034.76 -0.330894 1.92172 0
M  V30 10399 O 1034.03 -1.23259 1.52263 0
M  V30 10400 H 1032.61 0.413418 0.622169 0
M  V30 10401 H 1035.27 1.59267 1.12339 0
M  V30 10402 H 1034.37 1.64853 2.65009 0
M  V30 10403 N 1034.67 -1.14067 1.0875 0
M  V30 10404 C 1036.08 -1.66747 0.839778 0
M  V30 10405 C 1036.43 -1.85711 -0.632909 0
M  V30 10406 O 1035.56 -1.57084 -1.48841 0
M  V30 10407 C 1036.15 -3.02896 1.51787 0
M  V30 10408 C 1034.71 -3.52596 1.3173 0
M  V30 10409 C 1033.86 -2.27994 1.57841 0
M  V30 10410 H 1036.81 -0.980838 1.24761 0
M  V30 10411 H 1036.83 -3.68526 0.947057 0
M  V30 10412 H 1036.34 -2.89062 2.58969 0
M  V30 10413 H 1034.44 -3.71647 0.266339 0
M  V30 10414 H 1034.56 -4.33151 2.04736 0
M  V30 10415 H 1032.92 -2.34241 1.00015 0
M  V30 10416 H 1033.7 -2.16732 2.66237 0
M  V30 10417 N 1036.15 -0.873678 -1.31166 0
M  V30 10418 C 1037.1 -0.321349 -2.3037 0
M  V30 10419 C 1038.09 0.565568 -1.5968 0
M  V30 10420 O 1039.3 0.451257 -1.74252 0
M  V30 10421 H 1035.67 -0.0852425 -0.747153 0
M  V30 10422 H 1037.64 -1.17191 -2.74425 0
M  V30 10423 C 1036.39 0.459016 -3.44657 0
M  V30 10424 H 1035.71 -0.214185 -3.99226 0
M  V30 10425 H 1037.15 0.810758 -4.16176 0
M  V30 10426 C 1035.61 1.65173 -2.93632 0
M  V30 10427 O 1036.14 2.75105 -2.92711 0
M  V30 10428 N 1034.35 1.4851 -2.49786 0
M  V30 10429 H 1033.9 0.590785 -2.50734 0
M  V30 10430 H 1033.85 2.28452 -2.16002 0
M  V30 10431 N 1037.63 1.44308 -0.633487 0
M  V30 10432 C 1038.57 2.30694 0.0700257 0
M  V30 10433 C 1039.54 1.43618 0.834447 0
M  V30 10434 O 1040.73 1.72517 0.815014 0
M  V30 10435 C 1037.87 3.28929 1.04403 0
M  V30 10436 C 1036.98 4.31106 0.277779 0
M  V30 10437 C 1036.12 5.16433 1.24381 0
M  V30 10438 C 1035.16 6.10317 0.466855 0
M  V30 10439 N 1034.29 6.88335 1.38347 0
M  V30 10440 H 1039.13 2.90311 -0.672567 0
M  V30 10441 H 1036.67 1.43034 -0.343449 0
M  V30 10442 H 1038.63 3.84373 1.62214 0
M  V30 10443 H 1037.26 2.71006 1.75372 0
M  V30 10444 H 1036.31 3.78115 -0.416292 0
M  V30 10445 H 1037.62 4.97725 -0.327251 0
M  V30 10446 H 1036.78 5.76406 1.89318 0
M  V30 10447 H 1035.51 4.49893 1.88276 0
M  V30 10448 H 1034.52 5.49451 -0.195989 0
M  V30 10449 H 1035.74 6.78894 -0.167414 0
M  V30 10450 H 1033.69 6.24461 2.00959 0
M  V30 10451 H 1033.61 7.51402 0.832517 0
M  V30 10452 H 1034.88 7.52829 2.0216 0
M  V30 10453 N 1039.1 0.374177 1.53094 0
M  V30 10454 C 1040.05 -0.468226 2.26001 0
M  V30 10455 C 1041.02 -1.07041 1.27009 0
M  V30 10456 O 1042.21 -1.10129 1.55809 0
M  V30 10457 C 1039.35 -1.59754 3.05896 0
M  V30 10458 C 1038.46 -1.01969 4.19793 0
M  V30 10459 C 1037.59 -2.11882 4.87113 0
M  V30 10460 C 1036.63 -1.51607 5.93028 0
M  V30 10461 N 1035.77 -2.55388 6.54004 0
M  V30 10462 H 1040.61 0.159983 2.9757 0
M  V30 10463 H 1038.15 0.0907196 1.4682 0
M  V30 10464 H 1040.11 -2.26288 3.50499 0
M  V30 10465 H 1038.74 -2.19628 2.36565 0
M  V30 10466 H 1037.79 -0.244386 3.79614 0
M  V30 10467 H 1039.1 -0.539089 4.95878 0
M  V30 10468 H 1038.25 -2.86218 5.34943 0
M  V30 10469 H 1036.99 -2.63297 4.10519 0
M  V30 10470 H 1036 -0.757891 5.44551 0
M  V30 10471 H 1037.22 -1.01006 6.71546 0
M  V30 10472 H 1035.17 -3.06 5.80258 0
M  V30 10473 H 1035.09 -2.12039 7.25655 0
M  V30 10474 H 1036.35 -3.294 7.06481 0
M  V30 10475 N 1040.58 -1.57259 0.103575 0
M  V30 10476 C 1041.99 -1.81816 -0.424239 0
M  V30 10477 C 1042.34 -1.01976 -1.67617 0
M  V30 10478 O 1041.47 -0.251673 -2.14932 0
M  V30 10479 C 1042.06 -3.29783 -0.776453 0
M  V30 10480 C 1040.62 -3.55074 -1.24897 0
M  V30 10481 C 1039.77 -2.76172 -0.249875 0
M  V30 10482 H 1042.72 -1.55254 0.328913 0
M  V30 10483 H 1042.74 -3.43569 -1.63526 0
M  V30 10484 H 1042.25 -3.87865 0.134906 0
M  V30 10485 H 1040.36 -3.02332 -2.17775 0
M  V30 10486 H 1040.47 -4.637 -1.20495 0
M  V30 10487 H 1038.83 -2.43902 -0.733767 0
M  V30 10488 H 1039.62 -3.37007 0.65431 0
M  V30 10489 N 1042.06 0.170153 -1.56679 0
M  V30 10490 C 1043.48 0.521966 -1.50823 0
M  V30 10491 C 1043.68 1.84589 -0.808037 0
M  V30 10492 O 1042.73 2.49791 -0.368891 0
M  V30 10493 C 1044.05 0.553648 -2.95559 0
M  V30 10494 C 1045.59 0.640769 -3.06371 0
M  V30 10495 C 1046.07 0.703332 -4.52567 0
M  V30 10496 N 1047.56 0.76619 -4.56819 0
M  V30 10497 C 1048.29 0.835192 -5.67285 0
M  V30 10498 N 1047.79 0.864957 -6.87379 0
M  V30 10499 N 1049.58 0.874302 -5.55259 0
M  V30 10500 H 1041.73 -0.697952 -2.00605 0
M  V30 10501 H 1044 -0.251787 -0.913952 0
M  V30 10502 H 1043.7 -0.350498 -3.49949 0
M  V30 10503 H 1043.58 1.39973 -3.50268 0
M  V30 10504 H 1045.96 1.53534 -2.52015 0
M  V30 10505 H 1046.05 -0.232008 -2.54746 0
M  V30 10506 H 1045.69 -0.186986 -5.07556 0
M  V30 10507 H 1045.62 1.59227 -5.0195 0
M  V30 10508 H 1048.11 0.751424 -3.70354 0
M  V30 10509 H 1048.42 0.918814 -7.67318 0
M  V30 10510 H 1046.77 0.833215 -6.89987 0
M  V30 10511 H 1049.96 0.848057 -4.60354 0
M  V30 10512 H 1050.13 0.924615 -6.4137 0
M  V30 10513 N 1043.54 1.5137 0.438746 0
M  V30 10514 C 1044.79 1.63969 1.1883 0
M  V30 10515 C 1045.11 0.355245 1.91228 0
M  V30 10516 O 1044.37 -0.660605 1.84213 0
M  V30 10517 C 1044.67 2.79221 2.23093 0
M  V30 10518 C 1044.33 4.18547 1.67717 0
M  V30 10519 C 1043 4.5645 1.52337 0
M  V30 10520 C 1045.35 5.05494 1.26986 0
M  V30 10521 C 1042.68 5.79007 0.946996 0
M  V30 10522 C 1045.03 6.28628 0.707785 0
M  V30 10523 C 1043.69 6.65305 0.540881 0
M  V30 10524 H 1042.96 0.600003 0.43483 0
M  V30 10525 H 1045.61 1.85398 0.479565 0
M  V30 10526 H 1043.91 2.52008 2.99999 0
M  V30 10527 H 1045.61 2.86168 2.80907 0
M  V30 10528 H 1042.2 3.88663 1.80663 0
M  V30 10529 H 1046.38 4.76818 1.37689 0
M  V30 10530 H 1041.64 6.06072 0.805432 0
M  V30 10531 H 1045.81 6.95342 0.38366 0
M  V30 10532 H 1043.44 7.60144 0.0921324 0
M  V30 10533 O 1045.06 -0.584496 1.50552 0
M  V30 10534 H 1045.75 -1.23942 1.48856 0
M  V30 END ATOM
M  V30 BEGIN BOND
M  V30 END BOND
M  V30 END CTAB
M  END
$$$$
