drugbank_target|O95954 Formimidoyltransferase-cyclodeaminase (DB00116; DB00142; DB03256)
 OpenBabel12092119403D

  0  0  0     0  0            999 V3000
M  V30 BEGIN CTAB
M  V30 COUNTS 8310 8381 0 0 0
M  V30 BEGIN ATOM
M  V30 1 H -0.908 1.98254 -0.117106 0
M  V30 2 N 0 1.576 0 0
M  V30 3 C 0.933 2.03868 1.02534 0
M  V30 4 C 1.911 0.928543 1.3348 0
M  V30 5 O 3.095 1.19667 1.45644 0
M  V30 6 C 0.222 2.43627 2.35294 0
M  V30 7 C -0.732 3.65373 2.2001 0
M  V30 8 S 0.101 5.13292 1.52614 0
M  V30 9 C 1.257 5.56322 2.86805 0
M  V30 10 H 1.49 2.90518 0.631377 0
M  V30 11 H -0.977 1.52953 0.210867 0
M  V30 12 H 0.981 2.67203 3.11629 0
M  V30 13 H -0.358 1.57376 2.7183 0
M  V30 14 H -1.165 3.90944 3.18086 0
M  V30 15 H -1.563 3.418 1.51819 0
M  V30 16 H 0.729 5.58782 3.83104 0
M  V30 17 H 1.672 6.56266 2.65933 0
M  V30 18 H 2.08 4.83886 2.90714 0
M  V30 19 N 1.4781 -0.272755 1.55222 0
M  V30 20 C 2.7031 -1.02683 1.80197 0
M  V30 21 C 3.1281 -1.79142 0.573551 0
M  V30 22 O 2.4861 -1.74917 -0.476849 0
M  V30 23 C 2.5341 -1.9609 3.02624 0
M  V30 24 O 1.6381 -3.04863 2.77727 0
M  V30 25 H 0.9791 -0.293557 0.595584 0
M  V30 26 H 3.5091 -0.30159 2.02365 0
M  V30 27 H 3.5191 -2.38039 3.31363 0
M  V30 28 H 2.1941 -1.39851 3.91682 0
M  V30 29 H 0.7711 -2.67228 2.60084 0
M  V30 30 N 2.9562 -1.48159 -0.537278 0
M  V30 31 C 3.8882 -1.58218 -1.65831 0
M  V30 32 C 4.9012 -0.466948 -1.5596 0
M  V30 33 O 6.0902 -0.73747 -1.62553 0
M  V30 34 C 3.1902 -1.48906 -3.04434 0
M  V30 35 C 2.3632 -2.75343 -3.3986 0
M  V30 36 C 1.4222 -2.59588 -4.57712 0
M  V30 37 O 0.4482 -3.33457 -4.61297 0
M  V30 38 N 1.6502 -1.68724 -5.55439 0
M  V30 39 H 4.4152 -2.54891 -1.57641 0
M  V30 40 H 1.9762 -1.4479 -0.724386 0
M  V30 41 H 3.9682 -1.36072 -3.81139 0
M  V30 42 H 2.5382 -0.602368 -3.06741 0
M  V30 43 H 1.7582 -3.02795 -2.52406 0
M  V30 44 H 3.0462 -3.5924 -3.60311 0
M  V30 45 H 2.4442 -1.07898 -5.55315 0
M  V30 46 H 1.0012 -1.61832 -6.3139 0
M  V30 47 N 4.4343 0.785586 -1.36625 0
M  V30 48 C 5.3643 1.91259 -1.33949 0
M  V30 49 C 6.3453 1.68795 -0.210325 0
M  V30 50 O 7.5303 1.89854 -0.408561 0
M  V30 51 C 4.6603 3.28339 -1.13186 0
M  V30 52 C 3.6143 3.65335 -2.22967 0
M  V30 53 C 2.9403 5.00806 -1.87342 0
M  V30 54 C 4.2403 3.7352 -3.65075 0
M  V30 55 H 5.9343 1.93755 -2.28253 0
M  V30 56 H 3.4803 0.930788 -1.09874 0
M  V30 57 H 5.4333 4.06804 -1.09948 0
M  V30 58 H 4.1573 3.2624 -0.153332 0
M  V30 59 H 2.8163 2.89169 -2.25337 0
M  V30 60 H 2.4643 4.95233 -0.880545 0
M  V30 61 H 2.1643 5.26529 -2.60846 0
M  V30 62 H 3.6883 5.81687 -1.85667 0
M  V30 63 H 5.1023 4.42168 -3.64911 0
M  V30 64 H 3.4993 4.10731 -4.37516 0
M  V30 65 H 4.5693 2.74527 -3.99703 0
M  V30 66 N 5.9124 1.20967 1.01018 0
M  V30 67 C 7.1584 1.02526 1.74975 0
M  V30 68 C 7.4914 -0.4408 1.89131 0
M  V30 69 O 6.7664 -1.32718 1.42184 0
M  V30 70 C 7.0494 1.71699 3.1653 0
M  V30 71 C 6.9024 3.25791 3.10129 0
M  V30 72 C 8.2214 1.45531 4.15342 0
M  V30 73 H 5.3404 0.373863 0.635134 0
M  V30 74 H 7.9824 1.49071 1.17805 0
M  V30 75 H 6.1324 1.32128 3.65341 0
M  V30 76 H 7.8044 3.74697 2.69072 0
M  V30 77 H 6.0474 3.56363 2.47362 0
M  V30 78 H 6.7184 3.69353 4.10222 0
M  V30 79 H 9.1944 1.79872 3.75213 0
M  V30 80 H 8.0704 1.96453 5.1254 0
M  V30 81 H 8.3314 0.384237 4.40427 0
M  V30 82 N 7.3905 -1.2043 1.01659 0
M  V30 83 C 8.3005 -2.2689 0.596484 0
M  V30 84 C 9.3165 -1.70107 -0.36599 0
M  V30 85 O 10.4925 -2.00117 -0.226942 0
M  V30 86 C 7.5575 -3.4665 -0.0586659 0
M  V30 87 C 6.6185 -4.18662 0.949751 0
M  V30 88 C 5.8515 -5.32705 0.32577 0
M  V30 89 O 6.0745 -5.63656 -0.874509 0
M  V30 90 O 5.0085 -5.92803 1.04249 0
M  V30 91 H 8.8345 -2.65041 1.4828 0
M  V30 92 H 6.4195 -1.27048 0.786082 0
M  V30 93 H 8.3015 -4.19256 -0.424564 0
M  V30 94 H 6.9765 -3.10375 -0.91918 0
M  V30 95 H 5.8835 -3.48229 1.36702 0
M  V30 96 H 7.2165 -4.58878 1.78023 0
M  V30 97 N 8.8686 -0.792821 -1.36206 0
M  V30 98 C 10.1086 -0.372238 -2.00982 0
M  V30 99 C 10.4726 1.03749 -1.61555 0
M  V30 100 O 11.6736 1.55934 -2.18948 0
M  V30 101 C 9.9446 -0.534566 -3.5338 0
M  V30 102 S 11.5036 -0.202365 -4.38333 0
M  V30 103 H 8.3216 -0.142044 -0.696667 0
M  V30 104 H 10.9236 -1.03206 -1.66039 0
M  V30 105 H 9.6276 -1.5608 -3.79562 0
M  V30 106 H 9.1586 0.141065 -3.93147 0
M  V30 107 H 11.1736 0.994869 -4.86124 0
M  V30 108 N 10.3467 1.47872 -0.545128 0
M  V30 109 C 11.5927 2.02793 -0.0166104 0
M  V30 110 C 11.9257 1.41987 1.32489 0
M  V30 111 O 11.2007 0.571045 1.85928 0
M  V30 112 C 11.4837 3.59989 0.0893294 0
M  V30 113 C 11.3367 4.3125 -1.27841 0
M  V30 114 C 12.6557 4.32606 0.808724 0
M  V30 115 H 9.7747 0.736962 -0.00751035 0
M  V30 116 H 12.4167 1.76433 -0.705085 0
M  V30 117 H 10.5667 3.82579 0.675681 0
M  V30 118 H 12.2387 4.20035 -1.90704 0
M  V30 119 H 10.4817 3.92076 -1.85632 0
M  V30 120 H 11.1527 5.39736 -1.15713 0
M  V30 121 H 13.6287 4.14936 0.310992 0
M  V30 122 H 12.5047 5.42251 0.851782 0
M  V30 123 H 12.7657 4.00963 1.86229 0
M  V30 124 N 11.8248 0.280983 1.55075 0
M  V30 125 C 13.2358 -0.215629 1.85451 0
M  V30 126 C 13.5868 -1.54991 1.203 0
M  V30 127 O 12.7118 -2.10699 0.493435 0
M  V30 128 C 13.3068 -0.398026 3.36454 0
M  V30 129 C 11.8658 -0.838866 3.66933 0
M  V30 130 C 11.0128 0.064458 2.77225 0
M  V30 131 H 13.9638 0.502601 1.50531 0
M  V30 132 H 13.9848 -1.23569 3.59876 0
M  V30 133 H 13.4968 0.573241 3.83843 0
M  V30 134 H 11.5978 -1.8214 3.25048 0
M  V30 135 H 11.7108 -0.672123 4.74362 0
M  V30 136 H 10.0748 -0.452863 2.50642 0
M  V30 137 H 10.8578 1.03172 3.2743 0
M  V30 138 N 13.3029 -1.57598 0.00835791 0
M  V30 139 C 14.2509 -2.10078 -0.998508 0
M  V30 140 C 15.2449 -1.02262 -1.35051 0
M  V30 141 O 16.4509 -1.20719 -1.33518 0
M  V30 142 H 12.8259 -0.670903 -0.339696 0
M  V30 143 H 14.7969 -2.93648 -0.530398 0
M  V30 144 C 13.5459 -2.62615 -2.27879 0
M  V30 145 H 12.8689 -3.45213 -2.01662 0
M  V30 146 H 14.3089 -3.03004 -2.96588 0
M  V30 147 C 12.7679 -1.54407 -2.99433 0
M  V30 148 O 13.2979 -0.931812 -3.90743 0
M  V30 149 N 11.5039 -1.2695 -2.61404 0
M  V30 150 H 11.0509 -1.76924 -1.87232 0
M  V30 151 H 11.0089 -0.547704 -3.09593 0
M  V30 152 N 14.781 0.264519 -1.55364 0
M  V30 153 C 16.028 0.994986 -1.7637 0
M  V30 154 C 16.356 1.85976 -0.5695 0
M  V30 155 O 15.611 1.90509 0.44776 0
M  V30 156 C 15.91 1.9004 -3.02687 0
M  V30 157 C 15.576 1.19243 -4.34847 0
M  V30 158 C 14.238 0.996709 -4.70764 0
M  V30 159 C 16.59 0.689296 -5.16622 0
M  V30 160 C 13.918 0.285261 -5.86006 0
M  V30 161 C 16.27 -0.00860079 -6.32599 0
M  V30 162 C 14.934 -0.215963 -6.67151 0
M  V30 163 H 14.204 0.364091 -0.645383 0
M  V30 164 H 16.851 0.266543 -1.89636 0
M  V30 165 H 15.156 2.69533 -2.84357 0
M  V30 166 H 16.853 2.46695 -3.16137 0
M  V30 167 H 13.443 1.3549 -4.06621 0
M  V30 168 H 17.627 0.828108 -4.89342 0
M  V30 169 H 12.883 0.113961 -6.11294 0
M  V30 170 H 17.057 -0.406186 -6.95214 0
M  V30 171 H 14.684 -0.769217 -7.56298 0
M  V30 172 N 16.2591 1.48442 0.529413 0
M  V30 173 C 17.4841 1.60406 1.31471 0
M  V30 174 C 17.9091 0.264738 1.86228 0
M  V30 175 O 17.2671 -0.763668 1.64432 0
M  V30 176 C 17.3151 2.65419 2.44101 0
M  V30 177 O 16.4191 2.22618 3.47153 0
M  V30 178 H 15.7601 0.537863 0.389357 0
M  V30 179 H 18.2901 1.94432 0.636965 0
M  V30 180 H 18.3001 2.86709 2.90279 0
M  V30 181 H 16.9751 3.62652 2.03608 0
M  V30 182 H 15.5521 2.11543 3.0709 0
M  V30 183 N 17.7372 -0.778329 1.37039 0
M  V30 184 C 18.6472 -1.92253 1.34446 0
M  V30 185 C 19.6632 -1.72267 0.244991 0
M  V30 186 O 20.8392 -1.95615 0.479258 0
M  V30 187 C 17.9042 -3.27282 1.144 0
M  V30 188 C 16.9652 -3.59969 2.33925 0
M  V30 189 C 16.1982 -4.88555 2.14825 0
M  V30 190 O 16.4212 -5.59113 1.12912 0
M  V30 191 O 15.3552 -5.20153 3.02861 0
M  V30 192 H 19.1812 -1.97392 2.30803 0
M  V30 193 H 16.7662 -0.920154 1.17701 0
M  V30 194 H 18.6482 -4.08062 1.05182 0
M  V30 195 H 17.3232 -3.23011 0.211124 0
M  V30 196 H 16.2302 -2.7945 2.48714 0
M  V30 197 H 17.5632 -3.68976 3.25757 0
M  V30 198 N 19.2153 -1.21501 -1.00376 0
M  V30 199 C 20.4633 -1.03095 -1.73827 0
M  V30 200 C 20.7843 0.436341 -1.90055 0
M  V30 201 O 20.0543 1.31466 -1.45236 0
M  V30 202 H 18.6343 -0.378487 -0.644016 0
M  V30 203 H 21.2963 -1.52831 -1.20949 0
M  V30 204 H 20.3923 -1.49991 -2.73695 0
M  V30 205 N 20.6934 1.19889 -1.02296 0
M  V30 206 C 21.6404 2.22901 -0.598651 0
M  V30 207 C 22.6104 1.61588 0.384521 0
M  V30 208 O 23.7954 1.88697 0.282522 0
M  V30 209 C 20.9354 3.45063 0.0504476 0
M  V30 210 C 20.0484 4.20783 -0.978053 0
M  V30 211 C 19.1834 5.30356 -0.299338 0
M  V30 212 C 18.2224 5.97826 -1.31416 0
M  V30 213 N 17.3594 6.98975 -0.661667 0
M  V30 214 H 22.1994 2.58554 -1.48169 0
M  V30 215 H 19.7364 1.27039 -0.741584 0
M  V30 216 H 21.6944 4.14831 0.443971 0
M  V30 217 H 20.3244 3.10084 0.897097 0
M  V30 218 H 19.3764 3.50018 -1.48969 0
M  V30 219 H 20.6884 4.67109 -1.74958 0
M  V30 220 H 19.8424 6.06516 0.149347 0
M  V30 221 H 18.5814 4.85084 0.504445 0
M  V30 222 H 17.5864 5.20422 -1.77317 0
M  V30 223 H 18.8114 6.45183 -2.11933 0
M  V30 224 H 16.7574 6.55886 0.122132 0
M  V30 225 H 16.6744 7.43461 -1.37117 0
M  V30 226 H 17.9424 7.7914 -0.236785 0
M  V30 227 N 22.1715 0.800033 1.35784 0
M  V30 228 C 23.1195 0.193851 2.31791 0
M  V30 229 C 24.1135 -0.652744 1.56319 0
M  V30 230 O 25.3195 -0.546641 1.71499 0
M  V30 231 H 21.6945 0.04392 0.750716 0
M  V30 232 H 23.6655 1.01883 2.80468 0
M  V30 233 C 22.4145 -0.648338 3.41602 0
M  V30 234 H 21.7375 -0.00624665 3.998 0
M  V30 235 H 23.1775 -1.03898 4.11073 0
M  V30 236 C 21.6365 -1.8111 2.84079 0
M  V30 237 O 22.1665 -2.90825 2.77099 0
M  V30 238 N 20.3725 -1.62056 2.41218 0
M  V30 239 H 19.9195 -0.728123 2.47095 0
M  V30 240 H 19.8775 -2.40013 2.03079 0
M  V30 241 N 23.6496 -1.47581 0.552962 0
M  V30 242 C 24.5816 -2.27997 -0.234533 0
M  V30 243 C 25.5946 -1.36753 -0.883321 0
M  V30 244 O 26.7836 -1.61612 -0.757889 0
M  V30 245 C 23.8836 -3.10879 -1.34935 0
M  V30 246 C 23.0566 -4.30056 -0.798158 0
M  V30 247 C 22.1156 -4.94567 -1.79694 0
M  V30 248 O 21.1416 -5.53087 -1.34474 0
M  V30 249 N 22.3436 -4.88878 -3.13015 0
M  V30 250 H 25.1086 -2.96222 0.455255 0
M  V30 251 H 22.6696 -1.57163 0.388761 0
M  V30 252 H 24.6616 -3.50903 -2.01616 0
M  V30 253 H 23.2316 -2.44924 -1.94244 0
M  V30 254 H 22.4516 -3.94174 0.0453079 0
M  V30 255 H 23.7396 -5.07152 -0.409173 0
M  V30 256 H 23.1376 -4.42526 -3.52402 0
M  V30 257 H 21.6946 -5.32934 -3.75266 0
M  V30 258 N 25.1277 -0.289203 -1.54924 0
M  V30 259 C 26.0377 0.601863 -2.26748 0
M  V30 260 C 27.0537 1.15834 -1.2984 0
M  V30 261 O 28.2297 1.18564 -1.62802 0
M  V30 262 C 25.2947 1.76299 -2.98529 0
M  V30 263 C 24.3557 1.24178 -4.10948 0
M  V30 264 C 23.5887 2.34757 -4.79296 0
M  V30 265 O 23.8117 3.54411 -4.46933 0
M  V30 266 O 22.7457 2.02115 -5.66951 0
M  V30 267 H 26.5717 0.0195879 -3.03694 0
M  V30 268 H 24.1567 -0.0560868 -1.49295 0
M  V30 269 H 26.0387 2.43973 -3.43592 0
M  V30 270 H 24.7137 2.33209 -2.24488 0
M  V30 271 H 23.6207 0.531104 -3.70311 0
M  V30 272 H 24.9537 0.718252 -4.86931 0
M  V30 273 N 26.6058 1.57591 -0.0167156 0
M  V30 274 C 27.8518 1.91567 0.665582 0
M  V30 275 C 28.1848 0.892298 1.72487 0
M  V30 276 O 27.4598 -0.0867127 1.94307 0
M  V30 277 C 27.7428 3.36069 1.29342 0
M  V30 278 C 27.5958 4.49135 0.244541 0
M  V30 279 C 28.9148 3.803 2.21495 0
M  V30 280 H 26.0338 0.69666 0.240488 0
M  V30 281 H 28.6758 1.89866 -0.0714356 0
M  V30 282 H 26.8258 3.3765 1.92158 0
M  V30 283 H 28.4978 4.59689 -0.385228 0
M  V30 284 H 26.7408 4.3165 -0.431379 0
M  V30 285 H 27.4118 5.47242 0.723207 0
M  V30 286 H 29.8878 3.80377 1.68678 0
M  V30 287 H 28.7638 4.82127 2.62382 0
M  V30 288 H 29.0248 3.15104 3.101 0
M  V30 289 N 28.0839 -0.256276 1.55502 0
M  V30 290 C 29.3329 -0.983486 1.76098 0
M  V30 291 C 29.6459 -1.86837 0.578896 0
M  V30 292 O 30.8519 -2.63163 0.667648 0
M  V30 293 C 29.3079 -1.79868 3.1173 0
M  V30 294 C 28.9159 -0.961648 4.37557 0
M  V30 295 C 30.6599 -2.51919 3.41668 0
M  V30 296 C 28.5669 -1.77219 5.64223 0
M  V30 297 H 27.4969 -0.370936 0.656447 0
M  V30 298 H 30.1479 -0.238492 1.81944 0
M  V30 299 H 28.5299 -2.58527 2.99966 0
M  V30 300 H 29.7039 -0.218048 4.60284 0
M  V30 301 H 28.0189 -0.354913 4.14885 0
M  V30 302 H 30.6159 -3.12998 4.33516 0
M  V30 303 H 30.9589 -3.23059 2.62562 0
M  V30 304 H 31.4919 -1.80278 3.54605 0
M  V30 305 H 28.2309 -1.10471 6.46124 0
M  V30 306 H 27.7509 -2.49132 5.45613 0
M  V30 307 H 29.4299 -2.34169 6.03137 0
M  V30 308 N 29.562 -1.4872 -0.521534 0
M  V30 309 C 30.839 -1.4766 -1.2828 0
M  V30 310 C 31.219 -0.19292 -2.10217 0
M  V30 311 O 30.567 0.825193 -2.13079 0
M  V30 312 C 30.777 -2.74358 -2.15705 0
M  V30 313 C 32.125 -3.23028 -2.75569 0
M  V30 314 O 33.149 -2.75333 -2.25987 0
M  V30 315 O 32.008 -4.0604 -3.65778 0
M  V30 316 H 29.102 -0.590085 -0.579421 0
M  V30 317 H 31.648 -1.60963 -0.537492 0
M  V30 318 H 30.42 -3.59292 -1.54999 0
M  V30 319 H 30.043 -2.63816 -2.97467 0
M  V30 320 N 31.0401 0.771051 -1.3745 0
M  V30 321 C 32.0031 1.86598 -1.33093 0
M  V30 322 C 33.0031 1.59076 -0.234845 0
M  V30 323 O 34.1931 1.67145 -0.490732 0
M  V30 324 C 31.3251 3.23747 -1.06773 0
M  V30 325 H 32.5181 1.91873 -2.30488 0
M  V30 326 H 30.0711 0.970876 -1.2249 0
M  V30 327 H 30.8061 3.24148 -0.099129 0
M  V30 328 H 30.5911 3.45115 -1.86112 0
M  V30 329 H 32.0811 4.03824 -1.06377 0
M  V30 330 N 32.5182 1.22032 0.997298 0
M  V30 331 C 33.7672 1.03637 1.73038 0
M  V30 332 C 34.0802 -0.429475 1.90827 0
M  V30 333 O 35.2862 -0.732995 2.61418 0
M  V30 334 C 33.7422 1.80582 3.11317 0
M  V30 335 C 33.3502 3.31387 3.01474 0
M  V30 336 C 35.0942 1.70621 3.88701 0
M  V30 337 C 33.0012 4.00791 4.3488 0
M  V30 338 H 31.9312 0.384179 0.648785 0
M  V30 339 H 34.5822 1.4584 1.11368 0
M  V30 340 H 32.9642 1.31175 3.73643 0
M  V30 341 H 34.1382 3.88155 2.4834 0
M  V30 342 H 32.4532 3.41976 2.37575 0
M  V30 343 H 35.0502 2.19799 4.87434 0
M  V30 344 H 35.3932 0.665823 4.10941 0
M  V30 345 H 35.9262 2.17547 3.33044 0
M  V30 346 H 32.6652 5.05064 4.1784 0
M  V30 347 H 32.1852 3.48811 4.87945 0
M  V30 348 H 33.8642 4.06139 5.03647 0
M  V30 349 N 33.9963 -1.19345 1.0293 0
M  V30 350 C 35.2213 -1.93538 0.745511 0
M  V30 351 C 35.6463 -1.75007 -0.689511 0
M  V30 352 O 35.0043 -1.05265 -1.47611 0
M  V30 353 C 35.0523 -3.43336 1.10239 0
M  V30 354 O 34.1563 -4.11806 0.221289 0
M  V30 355 H 33.4973 -0.604193 0.275404 0
M  V30 356 H 36.0273 -1.5141 1.37609 0
M  V30 357 H 36.0373 -3.94004 1.05947 0
M  V30 358 H 34.7123 -3.56146 2.14786 0
M  V30 359 H 33.2893 -3.715 0.322842 0
M  V30 360 N 35.4744 -0.807222 -1.35358 0
M  V30 361 C 36.7224 -0.387122 -1.98358 0
M  V30 362 C 37.0434 1.04942 -1.64354 0
M  V30 363 O 36.3134 1.72615 -0.926339 0
M  V30 364 H 34.8934 -0.140154 -0.733734 0
M  V30 365 H 37.5554 -1.0332 -1.6526 0
M  V30 366 H 36.6514 -0.493352 -3.08176 0
M  V30 367 N 36.9525 1.47285 -0.560781 0
M  V30 368 C 37.9155 2.28535 0.174488 0
M  V30 369 C 38.9155 1.37153 0.839388 0
M  V30 370 O 40.1055 1.59748 0.694702 0
M  V30 371 C 37.2375 3.16934 1.25561 0
M  V30 372 H 38.4305 2.95012 -0.539262 0
M  V30 373 H 35.9835 1.53034 -0.317865 0
M  V30 374 H 36.7185 2.55157 2.00164 0
M  V30 375 H 36.5035 3.8419 0.783604 0
M  V30 376 H 37.9935 3.78143 1.77193 0
M  V30 377 N 38.4306 0.297415 1.54768 0
M  V30 378 C 39.6796 -0.313669 1.99246 0
M  V30 379 C 39.9926 -1.55281 1.18942 0
M  V30 380 O 41.1986 -2.23825 1.5367 0
M  V30 381 C 39.6546 -0.609407 3.54703 0
M  V30 382 C 39.2626 0.611192 4.43811 0
M  V30 383 C 41.0066 -1.18188 4.07715 0
M  V30 384 C 38.9136 0.288805 5.90694 0
M  V30 385 H 37.8436 -0.120979 0.744231 0
M  V30 386 H 40.4946 0.40556 1.78962 0
M  V30 387 H 38.8766 -1.38813 3.70873 0
M  V30 388 H 40.0506 1.3875 4.39414 0
M  V30 389 H 38.3656 1.10205 4.01552 0
M  V30 390 H 40.9626 -1.43727 5.15021 0
M  V30 391 H 41.3056 -2.12299 3.58099 0
M  V30 392 H 41.8386 -0.464944 3.95074 0
M  V30 393 H 38.5776 1.19838 6.44453 0
M  V30 394 H 38.0976 -0.450305 5.98107 0
M  V30 395 H 39.7766 -0.110933 6.46905 0
M  V30 396 N 39.9087 -1.5758 0.0250728 0
M  V30 397 C 41.1367 -1.9593 -0.664747 0
M  V30 398 C 41.5517 -0.901352 -1.65895 0
M  V30 399 O 40.9087 0.117255 -1.82123 0
M  V30 400 C 40.9597 -3.34342 -1.37468 0
M  V30 401 O 40.6807 -4.36079 -0.420324 0
M  V30 402 C 42.1817 -3.873 -2.1567 0
M  V30 403 H 39.4017 -0.645405 -0.183557 0
M  V30 404 H 41.9457 -2.04329 0.0836372 0
M  V30 405 H 40.1007 -3.27175 -2.0745 0
M  V30 406 H 40.5147 -5.16297 -0.923991 0
M  V30 407 H 41.9887 -4.86504 -2.60803 0
M  V30 408 H 42.4657 -3.21331 -2.99405 0
M  V30 409 H 43.0717 -3.97723 -1.50654 0
M  V30 410 N 41.3868 0.248026 -1.55636 0
M  V30 411 C 42.3188 1.32993 -1.8667 0
M  V30 412 C 43.3318 1.44345 -0.752877 0
M  V30 413 O 44.5208 1.45715 -1.03098 0
M  V30 414 C 41.6208 2.70863 -2.03682 0
M  V30 415 C 40.7938 2.81792 -3.34532 0
M  V30 416 C 39.8528 4.005 -3.41301 0
M  V30 417 O 38.8788 3.9008 -4.14519 0
M  V30 418 N 40.0808 5.13618 -2.70512 0
M  V30 419 H 42.8458 1.06707 -2.8006 0
M  V30 420 H 40.4068 0.438129 -1.55859 0
M  V30 421 H 42.3988 3.48612 -2.05553 0
M  V30 422 H 40.9688 2.89862 -1.17041 0
M  V30 423 H 40.1888 1.90729 -3.44987 0
M  V30 424 H 41.4768 2.86043 -4.20781 0
M  V30 425 H 40.8748 5.24975 -2.10755 0
M  V30 426 H 39.4318 5.89505 -2.78077 0
M  V30 427 N 42.8649 1.48995 0.513639 0
M  V30 428 C 44.0929 1.61531 1.29288 0
M  V30 429 C 44.5079 0.281801 1.86685 0
M  V30 430 O 43.8649 -0.731111 1.67215 0
M  V30 431 C 43.9159 2.67449 2.43215 0
M  V30 432 O 43.6369 3.95626 1.88179 0
M  V30 433 C 45.1379 2.90575 3.34785 0
M  V30 434 H 42.3579 0.544165 0.392588 0
M  V30 435 H 44.9019 1.9494 0.617956 0
M  V30 436 H 43.0569 2.36853 3.0656 0
M  V30 437 H 43.4709 4.53868 2.62876 0
M  V30 438 H 44.9449 3.68449 4.11035 0
M  V30 439 H 45.4219 2.00011 3.91015 0
M  V30 440 H 46.0279 3.22538 2.77218 0
M  V30 441 N 44.343 -0.763751 1.37857 0
M  V30 442 C 45.754 -1.3405 1.29952 0
M  V30 443 C 46.105 -1.96138 -0.0492898 0
M  V30 444 O 45.23 -1.94372 -0.951239 0
M  V30 445 C 45.825 -2.43729 2.35333 0
M  V30 446 C 44.384 -2.97151 2.31037 0
M  V30 447 C 43.531 -1.70438 2.18738 0
M  V30 448 H 46.482 -0.563396 1.48363 0
M  V30 449 H 46.503 -3.23412 2.00462 0
M  V30 450 H 46.015 -1.9851 3.33489 0
M  V30 451 H 44.116 -3.46724 1.3643 0
M  V30 452 H 44.229 -3.52221 3.24772 0
M  V30 453 H 42.593 -1.93673 1.65418 0
M  V30 454 H 43.376 -1.27312 3.18821 0
M  V30 455 N 45.8211 -1.22559 -0.990812 0
M  V30 456 C 47.0691 -1.04933 -1.72724 0
M  V30 457 C 47.3901 0.416158 -1.90508 0
M  V30 458 O 46.6601 1.29918 -1.46622 0
M  V30 459 H 45.2401 -0.385296 -0.639965 0
M  V30 460 H 47.9021 -1.54105 -1.19322 0
M  V30 461 H 46.9981 -1.52886 -2.72089 0
M  V30 462 N 47.2992 1.18797 -1.03562 0
M  V30 463 C 48.5392 1.90346 -0.744832 0
M  V30 464 C 48.9032 1.78231 0.713972 0
M  V30 465 O 50.1042 2.44441 1.11813 0
M  V30 466 C 48.3752 3.36942 -1.19184 0
M  V30 467 S 49.9342 4.26638 -1.02593 0
M  V30 468 H 46.7522 0.657343 -0.270963 0
M  V30 469 H 49.3542 1.43579 -1.32685 0
M  V30 470 H 48.0582 3.43287 -2.24905 0
M  V30 471 H 47.5892 3.88745 -0.603397 0
M  V30 472 H 49.6042 4.96164 0.0596033 0
M  V30 473 N 48.7773 0.814389 1.34928 0
M  V30 474 C 50.0233 0.399013 1.98836 0
M  V30 475 C 50.3563 -1.03314 1.64438 0
M  V30 476 O 49.6313 -1.71811 0.911659 0
M  V30 477 C 49.9143 0.591629 3.55207 0
M  V30 478 C 49.7673 2.06928 3.99376 0
M  V30 479 C 51.0863 0.022199 4.40094 0
M  V30 480 H 48.2053 0.146451 0.722303 0
M  V30 481 H 50.8473 1.02537 1.59957 0
M  V30 482 H 48.9973 0.0584441 3.88456 0
M  V30 483 H 50.6693 2.66544 3.76499 0
M  V30 484 H 48.9123 2.56287 3.49999 0
M  V30 485 H 49.5833 2.1549 5.08201 0
M  V30 486 H 52.0593 0.477643 4.13349 0
M  V30 487 H 50.9353 0.186832 5.48582 0
M  V30 488 H 51.1963 -1.07215 4.28902 0
M  V30 489 N 50.2554 -1.46986 0.568584 0
M  V30 490 C 51.1854 -2.32946 -0.160753 0
M  V30 491 C 52.1664 -1.44487 -0.897631 0
M  V30 492 O 53.3514 -1.73327 -0.875867 0
M  V30 493 C 50.4814 -3.26494 -1.18403 0
M  V30 494 C 49.4354 -4.24282 -0.562895 0
M  V30 495 C 48.7614 -5.07236 -1.69163 0
M  V30 496 C 50.0614 -5.19989 0.490761 0
M  V30 497 H 51.7554 -2.94175 0.556916 0
M  V30 498 H 49.3014 -1.4146 0.26927 0
M  V30 499 H 51.2544 -3.85477 -1.70251 0
M  V30 500 H 49.9784 -2.63343 -1.93179 0
M  V30 501 H 48.6374 -3.66541 -0.0656164 0
M  V30 502 H 48.2854 -4.4048 -2.42871 0
M  V30 503 H 47.9854 -5.7345 -1.28174 0
M  V30 504 H 49.5094 -5.6908 -2.21314 0
M  V30 505 H 50.9234 -5.73271 0.0579047 0
M  V30 506 H 49.3204 -5.94469 0.820165 0
M  V30 507 H 50.3904 -4.64777 1.3824 0
M  V30 508 N 51.7335 -0.305618 -1.54608 0
M  V30 509 C 52.6635 0.561482 -2.26649 0
M  V30 510 C 53.6445 1.13415 -1.26772 0
M  V30 511 O 54.8295 1.16262 -1.55553 0
M  V30 512 C 51.9595 1.73122 -3.01075 0
M  V30 513 C 50.9135 1.2887 -4.08138 0
M  V30 514 C 50.2395 2.54396 -4.70305 0
M  V30 515 C 51.5395 0.416578 -5.20636 0
M  V30 516 H 53.2335 -0.0393902 -2.99374 0
M  V30 517 H 50.7795 -0.020385 -1.43986 0
M  V30 518 H 52.7325 2.34396 -3.50195 0
M  V30 519 H 51.4565 2.3584 -2.25936 0
M  V30 520 H 50.1155 0.698991 -3.59875 0
M  V30 521 H 49.7635 3.15439 -3.918 0
M  V30 522 H 49.4635 2.25486 -5.42614 0
M  V30 523 H 50.9875 3.16464 -5.2219 0
M  V30 524 H 52.4015 0.935116 -5.65622 0
M  V30 525 H 50.7985 0.221046 -5.99693 0
M  V30 526 H 51.8685 -0.557162 -4.81688 0
M  V30 527 N 53.2116 1.57565 -0.0334293 0
M  V30 528 C 54.4886 1.83282 0.683163 0
M  V30 529 C 54.8686 0.91823 1.90084 0
M  V30 530 O 54.2166 -0.025113 2.28486 0
M  V30 531 C 54.4266 3.32599 1.0573 0
M  V30 532 C 55.7746 3.99179 1.44711 0
M  V30 533 O 56.7986 3.3712 1.15015 0
M  V30 534 O 55.6576 5.08565 2.0006 0
M  V30 535 H 52.7516 0.755869 0.335546 0
M  V30 536 H 55.2976 1.69589 -0.0614402 0
M  V30 537 H 54.0696 3.90834 0.190828 0
M  V30 538 H 53.6926 3.51415 1.85993 0
M  V30 539 N 54.6897 -0.239769 1.55765 0
M  V30 540 C 55.9357 -0.968234 1.78194 0
M  V30 541 C 56.2687 -1.84701 0.599938 0
M  V30 542 O 55.5437 -1.9031 -0.401524 0
M  V30 543 C 55.8267 -1.8227 3.10564 0
M  V30 544 C 55.6797 -0.971633 4.3918 0
M  V30 545 C 56.9987 -2.80388 3.39221 0
M  V30 546 H 54.1177 -0.350572 0.648281 0
M  V30 547 H 56.7597 -0.238259 1.885 0
M  V30 548 H 54.9097 -2.44507 3.01908 0
M  V30 549 H 56.5817 -0.367408 4.59835 0
M  V30 550 H 54.8247 -0.276276 4.32919 0
M  V30 551 H 55.4957 -1.60346 5.28198 0
M  V30 552 H 57.9717 -2.28287 3.47885 0
M  V30 553 H 56.8477 -3.3729 4.33044 0
M  V30 554 H 57.1087 -3.57212 2.60484 0
M  V30 555 N 56.1678 -1.49265 -0.50573 0
M  V30 556 C 57.4448 -1.49012 -1.26707 0
M  V30 557 C 57.8248 -0.215205 -2.1 0
M  V30 558 O 57.1728 0.802547 -2.13943 0
M  V30 559 C 57.3828 -2.7663 -2.12783 0
M  V30 560 C 58.7308 -3.25932 -2.72127 0
M  V30 561 O 59.7548 -2.77715 -2.23054 0
M  V30 562 O 58.6138 -4.09897 -3.61451 0
M  V30 563 H 55.7078 -0.596197 -0.57313 0
M  V30 564 H 58.2538 -1.61524 -0.52039 0
M  V30 565 H 57.0258 -3.60916 -1.5118 0
M  V30 566 H 56.6488 -2.66956 -2.94653 0
M  V30 567 N 57.6459 0.756429 -1.3826 0
M  V30 568 C 58.6089 1.85176 -1.35065 0
M  V30 569 C 59.6089 1.58818 -0.251703 0
M  V30 570 O 60.7989 1.66615 -0.508433 0
M  V30 571 C 57.9309 3.22596 -1.10201 0
M  V30 572 H 59.1239 1.89417 -2.3251 0
M  V30 573 H 56.6769 0.95783 -1.23512 0
M  V30 574 H 57.4119 3.24025 -0.133504 0
M  V30 575 H 57.1969 3.43122 -1.89762 0
M  V30 576 H 58.6869 4.02673 -1.10654 0
M  V30 577 N 59.124 1.23083 0.984299 0
M  V30 578 C 60.372 1.05848 1.72165 0
M  V30 579 C 60.693 -0.406049 1.90726 0
M  V30 580 O 59.963 -1.29139 1.47309 0
M  V30 581 H 58.543 0.388685 0.637913 0
M  V30 582 H 61.205 1.54736 1.18503 0
M  V30 583 H 60.301 1.54327 2.71274 0
M  V30 584 N 60.6021 -1.18246 1.0419 0
M  V30 585 C 62.0131 -1.69914 0.773698 0
M  V30 586 C 62.3641 -1.83085 -0.705297 0
M  V30 587 O 61.4891 -1.51123 -1.5489 0
M  V30 588 C 62.0841 -3.08619 1.39784 0
M  V30 589 C 60.6431 -3.57494 1.17792 0
M  V30 590 C 59.7901 -2.34013 1.48773 0
M  V30 591 H 62.7411 -1.02904 1.20816 0
M  V30 592 H 62.7621 -3.71958 0.801714 0
M  V30 593 H 62.2741 -2.99001 2.47426 0
M  V30 594 H 60.3751 -3.72406 0.120295 0
M  V30 595 H 60.4881 -4.40852 1.87581 0
M  V30 596 H 58.8521 -2.37986 0.907463 0
M  V30 597 H 59.6351 -2.27013 2.57527 0
M  V30 598 N 62.0802 -0.821533 -1.34494 0
M  V30 599 C 63.3052 -0.420873 -2.03085 0
M  V30 600 C 63.7302 0.964915 -1.61465 0
M  V30 601 O 63.0882 1.62763 -0.798607 0
M  V30 602 C 63.1362 -0.529414 -3.56693 0
M  V30 603 O 62.2402 0.451302 -4.09923 0
M  V30 604 H 61.5812 -0.173489 -0.640935 0
M  V30 605 H 64.1112 -1.11157 -1.71771 0
M  V30 606 H 64.1212 -0.404671 -4.05988 0
M  V30 607 H 62.7962 -1.54014 -3.86332 0
M  V30 608 H 61.3732 0.285558 -3.71805 0
M  V30 609 N 63.5583 1.46682 -0.576371 0
M  V30 610 C 64.7863 2.06798 -0.0649635 0
M  V30 611 C 65.2013 1.42612 1.23723 0
M  V30 612 O 64.5583 0.529203 1.74659 0
M  V30 613 C 64.6093 3.6132 0.114202 0
M  V30 614 O 64.3303 4.23104 -1.13644 0
M  V30 615 C 65.8313 4.38349 0.66069 0
M  V30 616 H 63.0513 0.668778 -0.0545616 0
M  V30 617 H 65.5953 1.88404 -0.795237 0
M  V30 618 H 63.7503 3.79162 0.794673 0
M  V30 619 H 64.1643 5.15894 -0.946253 0
M  V30 620 H 65.6383 5.47081 0.73526 0
M  V30 621 H 66.1153 4.05953 1.67627 0
M  V30 622 H 66.7213 4.25297 0.0152951 0
M  V30 623 N 65.0364 0.313813 1.54444 0
M  V30 624 C 65.9844 -0.572171 2.25453 0
M  V30 625 C 66.9784 -1.12657 1.2651 0
M  V30 626 O 68.1844 -1.07573 1.44319 0
M  V30 627 H 64.5594 -0.203146 0.724041 0
M  V30 628 H 66.5304 0.0491145 2.9836 0
M  V30 629 C 65.2794 -1.72626 3.0182 0
M  V30 630 H 64.6024 -1.30891 3.77767 0
M  V30 631 H 66.0424 -2.32199 3.54767 0
M  V30 632 C 64.5014 -2.63806 2.09542 0
M  V30 633 O 65.0314 -3.65256 1.67185 0
M  V30 634 N 63.2374 -2.31824 1.75232 0
M  V30 635 H 62.7844 -1.49368 2.09873 0
M  V30 636 H 62.7424 -2.93095 1.13767 0
M  V30 637 N 66.5145 -1.57545 0.0417849 0
M  V30 638 C 67.9305 -1.56467 -0.314704 0
M  V30 639 C 68.1305 -1.04859 -1.72066 0
M  V30 640 O 67.1865 -0.700983 -2.42575 0
M  V30 641 C 68.4995 -3.00317 -0.15174 0
M  V30 642 C 70.0475 -3.12201 -0.223553 0
M  V30 643 C 70.5225 -4.57913 -0.0892295 0
M  V30 644 N 72.0135 -4.6297 -0.145808 0
M  V30 645 C 72.7485 -5.73362 -0.0658459 0
M  V30 646 N 72.2445 -6.92769 0.0659282 0
M  V30 647 N 74.0375 -5.6197 -0.12075 0
M  V30 648 H 66.1885 -1.89416 0.961014 0
M  V30 649 H 68.4515 -0.871862 0.372237 0
M  V30 650 H 68.1575 -3.42073 0.817254 0
M  V30 651 H 68.0315 -3.65892 -0.916692 0
M  V30 652 H 70.4185 -2.70349 -1.18301 0
M  V30 653 H 70.4995 -2.49323 0.571994 0
M  V30 654 H 70.1435 -5.00448 0.866867 0
M  V30 655 H 70.0735 -5.18786 -0.903802 0
M  V30 656 H 72.5645 -3.7709 -0.247286 0
M  V30 657 H 72.8775 -7.72707 0.119905 0
M  V30 658 H 71.2225 -6.94927 0.100885 0
M  V30 659 H 74.4135 -4.67572 -0.222187 0
M  V30 660 H 74.5865 -6.47977 -0.0549735 0
M  V30 661 N 67.9926 0.231505 -1.5589 0
M  V30 662 C 69.2206 0.974505 -1.82513 0
M  V30 663 C 69.6356 1.78344 -0.619591 0
M  V30 664 O 68.9926 1.77792 0.411848 0
M  V30 665 C 69.0436 1.90007 -3.07538 0
M  V30 666 O 68.7646 1.12385 -4.2344 0
M  V30 667 C 70.2656 2.75779 -3.47075 0
M  V30 668 H 67.4856 0.286065 -0.606966 0
M  V30 669 H 70.0296 0.249739 -2.02969 0
M  V30 670 H 68.1846 2.57891 -2.89086 0
M  V30 671 H 68.5986 1.75125 -4.944 0
M  V30 672 H 70.0726 3.36443 -4.37619 0
M  V30 673 H 70.5496 3.47672 -2.68367 0
M  V30 674 H 71.1556 2.13323 -3.67931 0
M  V30 675 N 69.4707 1.49531 0.497807 0
M  V30 676 C 70.7167 1.59415 1.25358 0
M  V30 677 C 71.0497 0.281422 1.9215 0
M  V30 678 O 70.3247 -0.715249 1.80871 0
M  V30 679 C 70.6077 2.75566 2.3181 0
M  V30 680 C 70.4607 4.16642 1.69498 0
M  V30 681 C 71.7797 2.87347 3.33346 0
M  V30 682 H 68.8987 0.580244 0.454408 0
M  V30 683 H 71.5407 1.81827 0.551262 0
M  V30 684 H 69.6907 2.56587 2.91711 0
M  V30 685 H 71.3627 4.47145 1.13399 0
M  V30 686 H 69.6057 4.22141 0.998978 0
M  V30 687 H 70.2767 4.93792 2.46725 0
M  V30 688 H 72.7527 3.04634 2.83438 0
M  V30 689 H 71.6287 3.70289 4.05188 0
M  V30 690 H 71.8897 1.96834 3.95865 0
M  V30 691 N 70.9488 -0.749086 1.3866 0
M  V30 692 C 72.1788 -1.53611 1.38157 0
M  V30 693 C 72.5868 -1.89177 -0.0293595 0
M  V30 694 O 71.9298 -1.53606 -1.00752 0
M  V30 695 C 71.9918 -2.86087 2.17702 0
M  V30 696 C 71.6558 -2.73034 3.66472 0
M  V30 697 C 72.6528 -2.42526 4.59866 0
M  V30 698 C 70.3378 -2.90345 4.09884 0
M  V30 699 C 72.3318 -2.29492 5.94653 0
M  V30 700 C 70.0188 -2.7693 5.4475 0
M  V30 701 C 71.0168 -2.46547 6.36949 0
M  V30 702 O 70.7048 -2.33199 7.69333 0
M  V30 703 H 70.4368 -0.481773 0.474205 0
M  V30 704 H 72.9908 -0.934465 1.82912 0
M  V30 705 H 71.2208 -3.48458 1.67672 0
M  V30 706 H 72.9098 -3.47625 2.09551 0
M  V30 707 H 73.6758 -2.28816 4.27631 0
M  V30 708 H 69.5548 -3.1299 3.38464 0
M  V30 709 H 73.0988 -2.05698 6.66584 0
M  V30 710 H 68.9958 -2.90215 5.76581 0
M  V30 711 H 69.7638 -2.48376 7.79905 0
M  V30 712 N 72.4269 -1.23603 -0.977757 0
M  V30 713 C 73.6549 -1.09646 -1.75458 0
M  V30 714 C 74.0699 0.351859 -1.85492 0
M  V30 715 O 73.4269 1.24327 -1.336 0
M  V30 716 C 73.4779 -1.71895 -3.18016 0
M  V30 717 O 73.1989 -3.11063 -3.08498 0
M  V30 718 C 74.6999 -1.63415 -4.12081 0
M  V30 719 H 71.9199 -0.38359 -0.550545 0
M  V30 720 H 74.4639 -1.63507 -1.22824 0
M  V30 721 H 72.6189 -1.22061 -3.67668 0
M  V30 722 H 73.0329 -3.41305 -3.9826 0
M  V30 723 H 74.5069 -2.11669 -5.09804 0
M  V30 724 H 74.9839 -0.593462 -4.35172 0
M  V30 725 H 75.5899 -2.12628 -3.68334 0
M  V30 726 N 73.905 1.17692 -1.04816 0
M  V30 727 C 75.152 1.87859 -0.75599 0
M  V30 728 C 75.48 1.80812 0.716752 0
M  V30 729 O 74.735 1.20819 1.53952 0
M  V30 730 C 75.034 3.37462 -1.17703 0
M  V30 731 C 74.7 3.64713 -2.65133 0
M  V30 732 C 73.362 3.71859 -3.05408 0
M  V30 733 C 75.714 3.76492 -3.60421 0
M  V30 734 C 73.042 3.88271 -4.39843 0
M  V30 735 C 75.394 3.94421 -4.94585 0
M  V30 736 C 74.058 3.99806 -5.3452 0
M  V30 737 H 73.328 0.687425 -0.276636 0
M  V30 738 H 75.975 1.39255 -1.31455 0
M  V30 739 H 74.28 3.88097 -0.537395 0
M  V30 740 H 75.977 3.90109 -0.928218 0
M  V30 741 H 72.567 3.59772 -2.32942 0
M  V30 742 H 76.751 3.70295 -3.30447 0
M  V30 743 H 72.007 3.90687 -4.70291 0
M  V30 744 H 76.181 4.02477 -5.68318 0
M  V30 745 H 73.808 4.12276 -6.38696 0
M  V30 746 N 75.3831 0.828654 1.34056 0
M  V30 747 C 76.6291 0.42008 1.98402 0
M  V30 748 C 76.9621 -1.01564 1.65525 0
M  V30 749 O 76.2371 -1.70834 0.929831 0
M  V30 750 C 76.5201 0.62927 3.54559 0
M  V30 751 C 76.3731 2.11152 3.97159 0
M  V30 752 C 77.6921 0.0688756 4.40046 0
M  V30 753 H 74.8111 0.154104 0.720709 0
M  V30 754 H 77.4531 1.04228 1.5886 0
M  V30 755 H 75.6031 0.0996418 3.88372 0
M  V30 756 H 77.2751 2.70522 3.73651 0
M  V30 757 H 75.5181 2.59985 3.47261 0
M  V30 758 H 76.1891 2.20868 5.05887 0
M  V30 759 H 78.6651 0.521458 4.1282 0
M  V30 760 H 77.5411 0.245006 5.48353 0
M  V30 761 H 77.8021 -1.0266 4.30015 0
M  V30 762 N 76.8612 -1.46375 0.584142 0
M  V30 763 C 78.1092 -2.01978 0.0701287 0
M  V30 764 C 78.4302 -1.4579 -1.295 0
M  V30 765 O 77.7002 -0.64314 -1.85042 0
M  V30 766 H 76.2802 -0.746648 0.0229345 0
M  V30 767 H 78.9422 -1.79461 0.760245 0
M  V30 768 H 78.0382 -3.121 0.0022064 0
M  V30 769 N 78.3393 -0.321999 -1.54275 0
M  V30 770 C 79.7503 0.166384 -1.85957 0
M  V30 771 C 80.1013 1.51747 -1.24367 0
M  V30 772 O 79.2263 2.09317 -0.549124 0
M  V30 773 C 79.8213 0.308681 -3.37391 0
M  V30 774 C 78.3803 0.741286 -3.69028 0
M  V30 775 C 77.5273 -0.137937 -2.76957 0
M  V30 776 H 80.4783 -0.542335 -1.49146 0
M  V30 777 H 80.4993 1.13984 -3.63026 0
M  V30 778 H 80.0113 -0.674809 -3.82188 0
M  V30 779 H 78.1123 1.73458 -3.29762 0
M  V30 780 H 78.2253 0.546118 -4.75977 0
M  V30 781 H 76.5893 0.386251 -2.51754 0
M  V30 782 H 77.3723 -1.11816 -3.2458 0
M  V30 783 N 79.8174 1.5752 -0.0501392 0
M  V30 784 C 81.2284 1.80271 0.485705 0
M  V30 785 C 81.5794 0.96228 1.70981 0
M  V30 786 O 80.7044 0.178578 2.15662 0
M  V30 787 C 81.2994 3.26957 0.887938 0
M  V30 788 C 79.8584 3.5063 1.36877 0
M  V30 789 C 79.0054 2.75165 0.343468 0
M  V30 790 H 81.9564 1.56281 -0.276028 0
M  V30 791 H 81.9774 3.37821 1.75093 0
M  V30 792 H 81.4894 3.881 -0.0031809 0
M  V30 793 H 79.5904 2.94766 2.27911 0
M  V30 794 H 79.7034 4.59343 1.36164 0
M  V30 795 H 78.0674 2.4127 0.816128 0
M  V30 796 H 78.8504 3.39034 -0.539548 0
M  V30 797 N 81.2955 -0.223234 1.56011 0
M  V30 798 C 82.2055 -1.29766 1.95443 0
M  V30 799 C 83.2215 -1.51373 0.858028 0
M  V30 800 O 84.3975 -1.64536 1.16146 0
M  V30 801 C 81.4625 -2.62772 2.26167 0
M  V30 802 C 80.5235 -2.49482 3.49367 0
M  V30 803 C 79.7565 -3.76145 3.78616 0
M  V30 804 O 79.9795 -4.79087 3.09568 0
M  V30 805 O 78.9135 -3.73358 4.72109 0
M  V30 806 H 82.7395 -0.99309 2.87004 0
M  V30 807 H 80.3245 -0.425958 1.43199 0
M  V30 808 H 82.2065 -3.41327 2.47131 0
M  V30 809 H 80.8815 -2.92913 1.37781 0
M  V30 810 H 79.7885 -1.69133 3.33684 0
M  V30 811 H 81.1215 -2.2428 4.38131 0
M  V30 812 N 82.7736 -1.49793 -0.48987 0
M  V30 813 C 84.0136 -1.61466 -1.25332 0
M  V30 814 C 84.3776 -0.299688 -1.89647 0
M  V30 815 O 85.5786 -0.291687 -2.67213 0
M  V30 816 C 83.8496 -2.74944 -2.28343 0
M  V30 817 S 85.4086 -3.06637 -3.13878 0
M  V30 818 H 82.2266 -0.569411 -0.425784 0
M  V30 819 H 84.8286 -1.875 -0.553541 0
M  V30 820 H 83.5326 -3.68994 -1.79643 0
M  V30 821 H 83.0636 -2.50938 -3.02975 0
M  V30 822 H 85.0786 -2.49015 -4.29192 0
M  V30 823 N 84.2517 0.741722 -1.39055 0
M  V30 824 C 85.4977 1.50336 -1.36113 0
M  V30 825 C 85.8307 1.94148 0.0450796 0
M  V30 826 O 85.1057 1.66301 1.00868 0
M  V30 827 C 85.3887 2.74773 -2.32749 0
M  V30 828 C 85.2417 2.37023 -3.82283 0
M  V30 829 C 86.5607 3.76846 -2.27322 0
M  V30 830 H 83.6797 0.545351 -0.495743 0
M  V30 831 H 86.3217 0.848624 -1.69995 0
M  V30 832 H 84.4717 3.30639 -2.03986 0
M  V30 833 H 86.1437 1.8684 -4.21768 0
M  V30 834 H 84.3867 1.69334 -3.99385 0
M  V30 835 H 85.0577 3.26104 -4.45376 0
M  V30 836 H 87.5337 3.30548 -2.5274 0
M  V30 837 H 86.4097 4.6159 -2.97028 0
M  V30 838 H 86.6707 4.23286 -1.27599 0
M  V30 839 N 85.7298 1.2412 0.971189 0
M  V30 840 C 86.9758 1.08041 1.71625 0
M  V30 841 C 87.3088 -0.380407 1.90438 0
M  V30 842 O 86.5838 -1.28127 1.46334 0
M  V30 843 C 86.8668 1.81682 3.10908 0
M  V30 844 C 86.7198 3.35493 2.99608 0
M  V30 845 C 88.0388 1.58671 4.10501 0
M  V30 846 H 85.1578 0.39388 0.622919 0
M  V30 847 H 87.7998 1.52743 1.13003 0
M  V30 848 H 85.9498 1.43684 3.60953 0
M  V30 849 H 87.6218 3.83068 2.57015 0
M  V30 850 H 85.8648 3.64052 2.35899 0
M  V30 851 H 86.5358 3.82217 3.98264 0
M  V30 852 H 89.0118 1.91719 3.69301 0
M  V30 853 H 87.8878 2.1266 5.06031 0
M  V30 854 H 88.1488 0.524161 4.38982 0
M  V30 855 N 87.2079 -1.17134 1.05439 0
M  V30 856 C 88.1179 -2.24878 0.668365 0
M  V30 857 C 89.1339 -1.71186 -0.311687 0
M  V30 858 O 90.3099 -2.00738 -0.163161 0
M  V30 859 C 87.3749 -3.46662 0.051648 0
M  V30 860 C 86.4359 -4.15429 1.08246 0
M  V30 861 C 85.6689 -5.31399 0.495082 0
M  V30 862 O 85.8919 -5.66153 -0.694743 0
M  V30 863 O 84.8259 -5.89187 1.23056 0
M  V30 864 H 88.6519 -2.60189 1.56637 0
M  V30 865 H 86.2369 -1.24482 0.826104 0
M  V30 866 H 88.1189 -4.20394 -0.290966 0
M  V30 867 H 86.7939 -3.13142 -0.819971 0
M  V30 868 H 85.7009 -3.43704 1.47711 0
M  V30 869 H 87.0339 -4.52982 1.92532 0
M  V30 870 N 88.686 -0.835752 -1.33615 0
M  V30 871 C 89.934 -0.429109 -1.97492 0
M  V30 872 C 90.255 1.01433 -1.66543 0
M  V30 873 O 89.525 1.70611 -0.962744 0
M  V30 874 H 88.105 -0.155686 -0.730596 0
M  V30 875 H 90.767 -1.06802 -1.63031 0
M  V30 876 H 89.863 -0.55861 -3.0706 0
M  V30 877 N 90.1641 1.46063 -0.591896 0
M  V30 878 C 91.1271 2.28854 0.125973 0
M  V30 879 C 92.1271 1.38903 0.810107 0
M  V30 880 O 93.3171 1.61186 0.66066 0
M  V30 881 C 90.4491 3.19526 1.1881 0
M  V30 882 H 91.6421 2.93802 -0.601717 0
M  V30 883 H 89.1951 1.52325 -0.350254 0
M  V30 884 H 89.9301 2.59345 1.94707 0
M  V30 885 H 89.7151 3.85766 0.701936 0
M  V30 886 H 91.2051 3.81817 1.69132 0
M  V30 887 N 91.6422 0.330177 1.54103 0
M  V30 888 C 92.5722 -0.525353 2.27513 0
M  V30 889 C 93.5532 -1.11383 1.2856 0
M  V30 890 O 94.7382 -1.13773 1.57383 0
M  V30 891 C 91.8682 -1.6831 3.03791 0
M  V30 892 C 90.8222 -1.2236 4.10137 0
M  V30 893 C 90.1482 -2.46882 4.74293 0
M  V30 894 C 91.4482 -0.333697 5.21233 0
M  V30 895 H 93.1422 0.087013 2.99274 0
M  V30 896 H 90.6882 0.0432893 1.43935 0
M  V30 897 H 92.6412 -2.28795 3.5388 0
M  V30 898 H 91.3652 -2.32216 2.29659 0
M  V30 899 H 90.0242 -0.64165 3.60941 0
M  V30 900 H 89.6722 -3.09165 3.96769 0
M  V30 901 H 89.3722 -2.16825 5.46133 0
M  V30 902 H 90.8962 -3.08117 5.27159 0
M  V30 903 H 92.3102 -0.845013 5.67038 0
M  V30 904 H 90.7072 -0.125612 5.99969 0
M  V30 905 H 91.7772 0.633724 4.80741 0
M  V30 906 N 93.1203 -1.57491 0.0584922 0
M  V30 907 C 94.0683 -2.13148 -0.931168 0
M  V30 908 C 95.0623 -1.06507 -1.31729 0
M  V30 909 O 96.2683 -1.24906 -1.29609 0
M  V30 910 H 92.6433 -0.68137 -0.31818 0
M  V30 911 H 94.6143 -2.95187 -0.436707 0
M  V30 912 C 93.3633 -2.69732 -2.19408 0
M  V30 913 H 92.6863 -3.51454 -1.90578 0
M  V30 914 H 94.1263 -3.12287 -2.86798 0
M  V30 915 C 92.5853 -1.63855 -2.94369 0
M  V30 916 O 93.1153 -1.05565 -3.87581 0
M  V30 917 N 91.3213 -1.35202 -2.57233 0
M  V30 918 H 90.8683 -1.82791 -1.81508 0
M  V30 919 H 90.8263 -0.645922 -3.07693 0
M  V30 920 N 94.5984 0.214957 -1.56127 0
M  V30 921 C 95.5614 1.24997 -1.92116 0
M  V30 922 C 96.5614 1.39467 -0.800344 0
M  V30 923 O 97.7514 1.37619 -1.06802 0
M  V30 924 C 94.8834 2.62271 -2.17777 0
M  V30 925 H 96.0764 0.942875 -2.84693 0
M  V30 926 H 93.6294 0.455654 -1.49511 0
M  V30 927 H 94.3644 2.98068 -1.27773 0
M  V30 928 H 94.1494 2.53143 -2.99434 0
M  V30 929 H 95.6394 3.36946 -2.46693 0
M  V30 930 N 96.0765 1.50051 0.48192 0
M  V30 931 C 97.0395 1.67584 1.5636 0
M  V30 932 C 98.0395 0.546894 1.51214 0
M  V30 933 O 99.2295 0.813725 1.54026 0
M  V30 934 C 96.3615 1.691 2.96003 0
M  V30 935 H 97.5545 2.64078 1.42136 0
M  V30 936 H 95.1075 1.39369 0.707533 0
M  V30 937 H 95.8425 0.742589 3.15684 0
M  V30 938 H 95.6275 2.51105 3.01146 0
M  V30 939 H 97.1175 1.84656 3.74556 0
M  V30 940 N 97.5546 -0.734337 1.39446 0
M  V30 941 C 98.9706 -1.03997 1.21065 0
M  V30 942 C 99.1706 -2.01369 0.0727019 0
M  V30 943 O 98.2266 -2.45856 -0.575426 0
M  V30 944 C 99.5396 -1.60163 2.54496 0
M  V30 945 C 101.088 -1.7224 2.61347 0
M  V30 946 C 101.563 -2.31814 3.95002 0
M  V30 947 N 103.054 -2.39223 3.96644 0
M  V30 948 C 103.789 -2.86258 4.96834 0
M  V30 949 N 103.285 -3.33184 6.07421 0
M  V30 950 N 105.078 -2.85473 4.84213 0
M  V30 951 H 97.2286 -0.0885624 2.12215 0
M  V30 952 H 99.4916 -0.10191 0.942506 0
M  V30 953 H 99.1976 -0.960811 3.38321 0
M  V30 954 H 99.0716 -2.5896 2.74262 0
M  V30 955 H 101.459 -2.35443 1.77906 0
M  V30 956 H 101.54 -0.720939 2.4543 0
M  V30 957 H 101.184 -1.69238 4.78875 0
M  V30 958 H 101.114 -3.32638 4.08239 0
M  V30 959 H 103.605 -2.06057 3.16779 0
M  V30 960 H 103.918 -3.67586 6.7978 0
M  V30 961 H 102.263 -3.31191 6.11013 0
M  V30 962 H 105.454 -2.48136 3.96921 0
M  V30 963 H 105.627 -3.21814 5.62441 0
M  V30 964 N 99.0327 -1.24633 -0.964593 0
M  V30 965 C 100.279 -1.08949 -1.71049 0
M  V30 966 C 100.612 0.370302 -1.90637 0
M  V30 967 O 99.8867 1.27349 -1.47011 0
M  V30 968 C 100.17 -1.83329 -3.0994 0
M  V30 969 C 100.023 -3.37077 -2.97824 0
M  V30 970 C 101.342 -1.60846 -4.09654 0
M  V30 971 H 98.4607 -0.397178 -0.620821 0
M  V30 972 H 101.103 -1.5334 -1.12191 0
M  V30 973 H 99.2527 -1.45597 -3.60186 0
M  V30 974 H 100.925 -3.84425 -2.5498 0
M  V30 975 H 99.1677 -3.65298 -2.33965 0
M  V30 976 H 99.8387 -3.84324 -3.96231 0
M  V30 977 H 102.315 -1.93674 -3.68279 0
M  V30 978 H 101.191 -2.1534 -5.04896 0
M  V30 979 H 101.452 -0.547434 -4.38698 0
M  V30 980 N 100.511 1.16574 -1.06058 0
M  V30 981 C 101.474 2.19085 -0.673392 0
M  V30 982 C 102.474 1.5835 0.279648 0
M  V30 983 O 103.664 1.74088 0.0623488 0
M  V30 984 C 100.796 3.40899 0.00954234 0
M  V30 985 H 101.989 2.54853 -1.58081 0
M  V30 986 H 99.5418 1.30808 -0.855516 0
M  V30 987 H 100.277 3.10684 0.929826 0
M  V30 988 H 100.062 3.86233 -0.67573 0
M  V30 989 H 101.552 4.1675 0.266245 0
M  V30 990 N 101.989 0.842826 1.3317 0
M  V30 991 C 103.214 0.453129 2.02389 0
M  V30 992 C 103.639 -0.939105 1.6298 0
M  V30 993 O 102.997 -1.61472 0.8244 0
M  V30 994 C 103.045 0.586094 3.55805 0
M  V30 995 O 102.149 -0.386029 4.10589 0
M  V30 996 H 101.49 0.183664 0.638094 0
M  V30 997 H 104.02 1.13875 1.69981 0
M  V30 998 H 104.03 0.469209 4.05293 0
M  V30 999 H 102.705 1.6014 3.83833 0
M  V30 1000 H 101.282 -0.226371 3.72212 0
M  V30 1001 N 103.467 -1.45747 0.599634 0
M  V30 1002 C 104.883 -1.57424 0.26264 0
M  V30 1003 C 105.083 -1.59222 -1.23493 0
M  V30 1004 O 104.139 -1.51825 -2.01756 0
M  V30 1005 C 105.452 -2.86061 0.926795 0
M  V30 1006 C 107 -2.99722 0.901967 0
M  V30 1007 C 107.475 -4.31119 1.54598 0
M  V30 1008 N 108.966 -4.37858 1.5111 0
M  V30 1009 C 109.701 -5.3818 1.97863 0
M  V30 1010 N 109.197 -6.45083 2.52666 0
M  V30 1011 N 110.99 -5.29487 1.88679 0
M  V30 1012 H 103.141 -1.42823 1.57211 0
M  V30 1013 H 105.404 -0.68235 0.658105 0
M  V30 1014 H 105.11 -2.90605 1.98095 0
M  V30 1015 H 104.984 -3.74563 0.445238 0
M  V30 1016 H 107.371 -2.9475 -0.143617 0
M  V30 1017 H 107.452 -2.12652 1.42171 0
M  V30 1018 H 107.096 -4.36849 2.59085 0
M  V30 1019 H 107.026 -5.16992 1.00132 0
M  V30 1020 H 109.517 -3.61209 1.11068 0
M  V30 1021 H 109.83 -7.17869 2.86155 0
M  V30 1022 H 108.175 -6.45856 2.56701 0
M  V30 1023 H 111.366 -4.44877 1.4561 0
M  V30 1024 H 111.539 -6.07524 2.25429 0
M  V30 1025 N 104.945 -0.338344 -1.53925 0
M  V30 1026 C 105.875 0.51328 -2.27789 0
M  V30 1027 C 106.856 1.107 -1.29149 0
M  V30 1028 O 108.041 1.12937 -1.57984 0
M  V30 1029 C 105.171 1.66697 -3.04679 0
M  V30 1030 C 104.125 1.20183 -4.1078 0
M  V30 1031 C 103.451 2.44363 -4.75595 0
M  V30 1032 C 104.751 0.30605 -5.21403 0
M  V30 1033 H 106.445 -0.102883 -2.99223 0
M  V30 1034 H 103.991 -0.0509219 -1.4391 0
M  V30 1035 H 105.944 2.26915 -3.55088 0
M  V30 1036 H 104.668 2.30995 -2.30887 0
M  V30 1037 H 103.327 0.622499 -3.61276 0
M  V30 1038 H 102.975 3.07057 -3.98403 0
M  V30 1039 H 102.675 2.13925 -5.47275 0
M  V30 1040 H 104.199 3.05317 -5.28786 0
M  V30 1041 H 105.613 0.814929 -5.67478 0
M  V30 1042 H 104.01 0.0937929 -6.00027 0
M  V30 1043 H 105.08 -0.65921 -4.80398 0
M  V30 1044 N 106.423 1.57458 -0.0668435 0
M  V30 1045 C 107.672 1.92477 0.602947 0
M  V30 1046 C 107.985 0.948419 1.71068 0
M  V30 1047 O 109.191 1.19124 2.43971 0
M  V30 1048 C 107.647 3.41903 1.12383 0
M  V30 1049 C 107.255 4.47975 0.04737 0
M  V30 1050 C 108.999 3.85931 1.76797 0
M  V30 1051 C 106.906 5.88529 0.582022 0
M  V30 1052 H 105.836 0.718387 0.22899 0
M  V30 1053 H 108.487 1.82978 -0.138276 0
M  V30 1054 H 106.869 3.46459 1.91787 0
M  V30 1055 H 108.043 4.55029 -0.726978 0
M  V30 1056 H 106.358 4.13384 -0.500243 0
M  V30 1057 H 108.955 4.88322 2.17821 0
M  V30 1058 H 109.298 3.23029 2.62599 0
M  V30 1059 H 109.831 3.83958 1.04024 0
M  V30 1060 H 106.57 6.55065 -0.238721 0
M  V30 1061 H 106.09 5.85004 1.324 0
M  V30 1062 H 107.769 6.38258 1.05999 0
M  V30 1063 N 107.901 -0.206675 1.56239 0
M  V30 1064 C 109.178 -0.954051 1.70755 0
M  V30 1065 C 109.558 -2.01841 0.618353 0
M  V30 1066 O 108.906 -2.25444 -0.372434 0
M  V30 1067 C 109.116 -1.551 3.12642 0
M  V30 1068 C 110.464 -2.03757 3.72516 0
M  V30 1069 O 111.488 -1.64965 3.15698 0
M  V30 1070 O 110.347 -2.75103 4.72208 0
M  V30 1071 H 107.441 -0.446636 0.696021 0
M  V30 1072 H 109.987 -0.197283 1.68549 0
M  V30 1073 H 108.759 -0.783212 3.83382 0
M  V30 1074 H 108.382 -2.37291 3.19028 0
M  V30 1075 N 109.379 -1.50304 -0.473955 0
M  V30 1076 C 110.312 -1.63595 -1.59097 0
M  V30 1077 C 111.29 -0.484142 -1.55225 0
M  V30 1078 O 112.474 -0.703271 -1.7489 0
M  V30 1079 C 109.601 -1.61589 -2.97669 0
M  V30 1080 C 108.647 -2.82295 -3.19705 0
M  V30 1081 S 109.48 -4.43635 -2.99913 0
M  V30 1082 C 110.636 -4.44317 -4.40832 0
M  V30 1083 H 110.869 -2.58082 -1.47583 0
M  V30 1084 H 108.402 -1.39531 -0.661087 0
M  V30 1085 H 110.36 -1.61116 -3.7756 0
M  V30 1086 H 109.021 -0.683421 -3.06575 0
M  V30 1087 H 108.214 -2.77188 -4.20931 0
M  V30 1088 H 107.816 -2.8032 -2.47582 0
M  V30 1089 H 110.108 -4.17703 -5.33414 0
M  V30 1090 H 111.051 -5.45911 -4.50984 0
M  V30 1091 H 111.459 -3.74059 -4.22777 0
M  V30 1092 N 110.857 0.726932 -1.39834 0
M  V30 1093 C 112.082 1.52121 -1.40976 0
M  V30 1094 C 112.507 1.88098 -0.00826029 0
M  V30 1095 O 111.865 1.52479 0.980807 0
M  V30 1096 C 111.913 2.78021 -2.29644 0
M  V30 1097 O 111.017 3.74272 -1.73188 0
M  V30 1098 H 110.358 0.45908 -0.479731 0
M  V30 1099 H 112.888 0.896207 -1.83927 0
M  V30 1100 H 112.898 3.26671 -2.44438 0
M  V30 1101 H 111.573 2.51169 -3.31492 0
M  V30 1102 H 110.15 3.33073 -1.6768 0
M  V30 1103 N 112.336 1.25143 0.95797 0
M  V30 1104 C 113.752 1.01892 1.22842 0
M  V30 1105 C 113.952 -0.266311 1.99732 0
M  V30 1106 O 113.008 -0.979913 2.3271 0
M  V30 1107 C 114.321 2.24004 2.00606 0
M  V30 1108 C 115.869 2.28731 2.13662 0
M  V30 1109 C 116.344 3.5049 2.94823 0
M  V30 1110 N 117.835 3.50866 3.02403 0
M  V30 1111 C 118.57 4.4174 3.65586 0
M  V30 1112 N 118.066 5.42882 4.30408 0
M  V30 1113 N 119.859 4.29429 3.62694 0
M  V30 1114 H 112.01 2.07718 0.443493 0
M  V30 1115 H 114.273 0.912031 0.258657 0
M  V30 1116 H 113.979 3.17395 1.51503 0
M  V30 1117 H 113.853 2.26907 3.01319 0
M  V30 1118 H 116.24 1.35865 2.61963 0
M  V30 1119 H 116.321 2.29848 1.12265 0
M  V30 1120 H 115.965 4.43676 2.47213 0
M  V30 1121 H 115.895 3.46617 3.96439 0
M  V30 1122 H 118.386 2.777 2.56302 0
M  V30 1123 H 118.699 6.0844 4.76467 0
M  V30 1124 H 117.044 5.46758 4.29047 0
M  V30 1125 H 120.235 3.49643 3.11236 0
M  V30 1126 H 120.408 5.00448 4.1165 0
M  V30 1127 N 113.814 -1.1601 1.06675 0
M  V30 1128 C 114.764 -2.18512 0.650888 0
M  V30 1129 C 115.748 -1.57677 -0.320441 0
M  V30 1130 O 116.94 -1.76482 -0.135266 0
M  V30 1131 C 114.069 -3.43273 0.0429255 0
M  V30 1132 C 113.155 -4.11176 1.03898 0
M  V30 1133 N 113.546 -4.54672 2.216 0
M  V30 1134 C 111.844 -4.37417 0.870779 0
M  V30 1135 C 112.545 -5.07248 2.84736 0
M  V30 1136 N 111.521 -5.0037 2.12441 0
M  V30 1137 H 115.323 -2.49863 1.54745 0
M  V30 1138 H 112.837 -1.32503 0.938975 0
M  V30 1139 H 114.834 -4.16006 -0.272857 0
M  V30 1140 H 113.494 -3.13408 -0.84884 0
M  V30 1141 H 114.505 -4.4828 2.59356 0
M  V30 1142 H 111.182 -4.17488 0.0313293 0
M  V30 1143 H 112.572 -5.50912 3.84636 0
M  V30 1144 N 115.292 -0.849877 -1.32721 0
M  V30 1145 C 116.224 -0.248332 -2.27851 0
M  V30 1146 C 117.237 0.577218 -1.52224 0
M  V30 1147 O 118.426 0.402489 -1.73903 0
M  V30 1148 C 115.526 0.668107 -3.32249 0
M  V30 1149 C 114.699 -0.120534 -4.37234 0
M  V30 1150 C 113.758 0.720932 -5.21238 0
M  V30 1151 O 112.784 0.156166 -5.68986 0
M  V30 1152 N 113.986 2.03647 -5.43607 0
M  V30 1153 H 116.751 -1.06575 -2.80111 0
M  V30 1154 H 114.312 -0.709395 -1.45531 0
M  V30 1155 H 116.304 1.23627 -3.85355 0
M  V30 1156 H 114.874 1.38621 -2.80184 0
M  V30 1157 H 114.094 -0.870108 -3.84477 0
M  V30 1158 H 115.382 -0.662406 -5.0447 0
M  V30 1159 H 114.78 2.51871 -5.06535 0
M  V30 1160 H 113.337 2.55287 -5.99727 0
M  V30 1161 N 116.77 1.45427 -0.607355 0
M  V30 1162 C 118.018 2.01841 -0.102253 0
M  V30 1163 C 118.339 1.47832 1.27164 0
M  V30 1164 O 117.609 0.672497 1.83995 0
M  V30 1165 H 116.189 0.746188 -0.0348101 0
M  V30 1166 H 118.851 1.78229 -0.7887 0
M  V30 1167 H 117.947 3.12057 -0.0518585 0
M  V30 1168 N 118.248 0.346503 1.53744 0
M  V30 1169 C 119.158 -0.517293 2.28826 0
M  V30 1170 C 120.174 -1.10935 1.3405 0
M  V30 1171 O 121.35 -1.1244 1.6709 0
M  V30 1172 C 118.415 -1.65098 3.04866 0
M  V30 1173 C 117.476 -1.0884 4.15274 0
M  V30 1174 C 116.709 -2.16806 4.87679 0
M  V30 1175 O 116.932 -3.3758 4.59778 0
M  V30 1176 O 115.866 -1.80934 5.74061 0
M  V30 1177 H 119.692 0.0931396 3.03557 0
M  V30 1178 H 117.277 0.111458 1.48984 0
M  V30 1179 H 119.159 -2.31053 3.5241 0
M  V30 1180 H 117.834 -2.24717 2.32989 0
M  V30 1181 H 116.741 -0.3933 3.72027 0
M  V30 1182 H 118.074 -0.537036 4.89261 0
M  V30 1183 N 119.726 -1.57421 0.075193 0
M  V30 1184 C 120.676 -2.09441 -0.901025 0
M  V30 1185 C 121.66 -1.00486 -1.25663 0
M  V30 1186 O 122.852 -1.2679 -1.23504 0
M  V30 1187 C 119.981 -2.66233 -2.16737 0
M  V30 1188 C 119.067 -3.82198 -1.83808 0
M  V30 1189 N 119.458 -4.91028 -1.21345 0
M  V30 1190 C 117.756 -3.91558 -2.13538 0
M  V30 1191 C 118.457 -5.71852 -1.06585 0
M  V30 1192 N 117.433 -5.20233 -1.57667 0
M  V30 1193 H 121.235 -2.90972 -0.413815 0
M  V30 1194 H 118.749 -1.6189 -0.128601 0
M  V30 1195 H 120.746 -3.01819 -2.87595 0
M  V30 1196 H 119.406 -1.8615 -2.66042 0
M  V30 1197 H 120.417 -5.10323 -0.88268 0
M  V30 1198 H 117.094 -3.22454 -2.65197 0
M  V30 1199 H 118.484 -6.69401 -0.578933 0
M  V30 1200 N 121.204 0.198386 -1.56346 0
M  V30 1201 C 122.615 0.763358 -1.70381 0
M  V30 1202 C 122.966 1.83995 -0.681203 0
M  V30 1203 O 122.091 2.15785 0.16305 0
M  V30 1204 C 122.686 1.39143 -3.08909 0
M  V30 1205 C 121.245 1.90352 -3.2472 0
M  V30 1206 C 120.392 0.772233 -2.6633 0
M  V30 1207 H 123.343 -0.0266377 -1.58678 0
M  V30 1208 H 123.364 2.26076 -3.06055 0
M  V30 1209 H 122.876 0.607638 -3.83314 0
M  V30 1210 H 120.977 2.71461 -2.55225 0
M  V30 1211 H 121.09 2.06757 -4.3219 0
M  V30 1212 H 119.454 1.18566 -2.2542 0
M  V30 1213 H 120.237 0.00073556 -3.433 0
M  V30 1214 N 122.682 1.50554 0.465978 0
M  V30 1215 C 124.098 1.38093 0.800154 0
M  V30 1216 C 124.298 0.440988 1.96615 0
M  V30 1217 O 123.354 -0.114499 2.5224 0
M  V30 1218 C 124.667 2.79565 1.10742 0
M  V30 1219 C 126.215 2.88516 1.21357 0
M  V30 1220 C 126.69 4.30833 1.55393 0
M  V30 1221 N 128.181 4.33807 1.62375 0
M  V30 1222 C 128.916 5.40927 1.90225 0
M  V30 1223 N 128.412 6.58247 2.16062 0
M  V30 1224 N 130.205 5.28376 1.9177 0
M  V30 1225 H 122.356 2.10237 -0.302366 0
M  V30 1226 H 124.619 0.945203 -0.0727746 0
M  V30 1227 H 124.325 3.50208 0.323661 0
M  V30 1228 H 124.199 3.17125 2.04234 0
M  V30 1229 H 126.586 2.1809 1.98799 0
M  V30 1230 H 126.667 2.54492 0.258321 0
M  V30 1231 H 126.311 5.01799 0.784889 0
M  V30 1232 H 126.241 4.62347 2.52076 0
M  V30 1233 H 128.732 3.49212 1.44427 0
M  V30 1234 H 129.045 7.3569 2.36601 0
M  V30 1235 H 127.39 6.61413 2.13444 0
M  V30 1236 H 130.581 4.35715 1.71085 0
M  V30 1237 H 130.754 6.11944 2.13139 0
M  V30 1238 N 124.16 -0.719506 1.40217 0
M  V30 1239 C 125.093 -1.84298 1.34571 0
M  V30 1240 C 126.071 -1.61149 0.216741 0
M  V30 1241 O 127.255 -1.84212 0.399756 0
M  V30 1242 C 124.382 -3.20568 1.09335 0
M  V30 1243 C 123.428 -3.62551 2.24631 0
M  V30 1244 S 124.261 -3.7012 3.87004 0
M  V30 1245 C 125.417 -5.09154 3.64024 0
M  V30 1246 H 125.65 -1.88807 2.2965 0
M  V30 1247 H 123.183 -0.885901 1.26456 0
M  V30 1248 H 125.141 -3.99246 0.954602 0
M  V30 1249 H 123.802 -3.13696 0.159164 0
M  V30 1250 H 122.995 -4.61483 2.02606 0
M  V30 1251 H 122.597 -2.91119 2.34789 0
M  V30 1252 H 124.889 -5.95955 3.22248 0
M  V30 1253 H 125.832 -5.36213 4.62473 0
M  V30 1254 H 126.24 -4.79562 2.97793 0
M  V30 1255 N 125.638 -1.25649 -0.95132 0
M  V30 1256 C 126.886 -1.10375 -1.69298 0
M  V30 1257 C 127.207 0.355339 -1.91735 0
M  V30 1258 O 126.477 1.25188 -1.50681 0
M  V30 1259 H 125.057 -0.405461 -0.627384 0
M  V30 1260 H 127.719 -1.57823 -1.14358 0
M  V30 1261 H 126.815 -1.61465 -2.67087 0
M  V30 1262 N 127.117 1.15442 -1.07289 0
M  V30 1263 C 128.08 2.18358 -0.696591 0
M  V30 1264 C 129.08 1.58637 0.262837 0
M  V30 1265 O 130.27 1.74145 0.0438809 0
M  V30 1266 C 127.402 3.4089 -0.0266151 0
M  V30 1267 H 128.595 2.53162 -1.60776 0
M  V30 1268 H 126.148 1.29893 -0.869342 0
M  V30 1269 H 126.883 3.11653 0.896822 0
M  V30 1270 H 126.668 3.85495 -0.716657 0
M  V30 1271 H 128.158 4.17009 0.222028 0
M  V30 1272 N 128.595 0.856903 1.32268 0
M  V30 1273 C 129.525 0.31858 2.31316 0
M  V30 1274 C 130.506 -0.583487 1.59779 0
M  V30 1275 O 131.691 -0.503259 1.87566 0
M  V30 1276 C 128.821 -0.491979 3.43798 0
M  V30 1277 C 127.775 0.315849 4.26833 0
M  V30 1278 C 127.101 -0.619586 5.31098 0
M  V30 1279 C 128.401 1.54282 4.98993 0
M  V30 1280 H 130.095 1.14621 2.76591 0
M  V30 1281 H 127.641 0.552613 1.32974 0
M  V30 1282 H 129.594 -0.879012 4.1213 0
M  V30 1283 H 128.318 -1.35299 2.97257 0
M  V30 1284 H 126.977 0.684664 3.6015 0
M  V30 1285 H 126.625 -1.47751 4.8081 0
M  V30 1286 H 126.325 -0.0830621 5.87541 0
M  V30 1287 H 127.849 -1.00375 6.02293 0
M  V30 1288 H 129.263 1.22796 5.59995 0
M  V30 1289 H 127.66 2.01745 5.65172 0
M  V30 1290 H 128.73 2.30285 4.26728 0
M  V30 1291 N 130.073 -1.45103 0.615059 0
M  V30 1292 C 131.35 -1.95549 0.0448276 0
M  V30 1293 C 131.73 -1.55737 -1.4251 0
M  V30 1294 O 131.078 -0.823556 -2.13143 0
M  V30 1295 C 131.288 -3.48098 0.250785 0
M  V30 1296 C 132.636 -4.24384 0.135509 0
M  V30 1297 O 133.66 -3.55738 0.181299 0
M  V30 1298 O 132.519 -5.46493 0.0268878 0
M  V30 1299 H 129.613 -0.8264 -0.0314845 0
M  V30 1300 H 132.159 -1.55232 0.685642 0
M  V30 1301 H 130.931 -3.7007 1.27139 0
M  V30 1302 H 130.554 -3.95323 -0.424937 0
M  V30 1303 N 131.551 -0.354651 -1.53558 0
M  V30 1304 C 132.797 0.238797 -2.01389 0
M  V30 1305 C 133.13 1.49309 -1.2418 0
M  V30 1306 O 132.405 1.91638 -0.332457 0
M  V30 1307 C 132.688 0.541771 -3.56001 0
M  V30 1308 C 132.541 -0.725388 -4.43912 0
M  V30 1309 C 133.86 1.34685 -4.18984 0
M  V30 1310 H 130.979 0.0853177 -0.732045 0
M  V30 1311 H 133.621 -0.477384 -1.83905 0
M  V30 1312 H 131.771 1.15189 -3.71031 0
M  V30 1313 H 133.443 -1.36313 -4.407 0
M  V30 1314 H 131.686 -1.34801 -4.12324 0
M  V30 1315 H 132.357 -0.468505 -5.50008 0
M  V30 1316 H 134.833 0.830837 -4.07721 0
M  V30 1317 H 133.709 1.52759 -5.27215 0
M  V30 1318 H 133.97 2.35221 -3.74331 0
M  V30 1319 N 133.029 1.57378 -0.0835403 0
M  V30 1320 C 134.269 1.95808 0.586381 0
M  V30 1321 C 134.633 0.963706 1.66062 0
M  V30 1322 O 135.834 1.23608 2.38693 0
M  V30 1323 C 134.105 3.38808 1.13771 0
M  V30 1324 S 135.664 3.99225 1.82112 0
M  V30 1325 H 132.482 0.684675 0.191679 0
M  V30 1326 H 135.084 1.94843 -0.160194 0
M  V30 1327 H 133.788 4.08954 0.344197 0
M  V30 1328 H 133.319 3.43344 1.92038 0
M  V30 1329 H 135.334 3.87087 3.10449 0
M  V30 1330 N 134.507 -0.190092 1.56449 0
M  V30 1331 C 135.918 -0.754312 1.70784 0
M  V30 1332 C 136.269 -1.83631 0.690951 0
M  V30 1333 O 135.394 -2.15868 -0.151604 0
M  V30 1334 C 135.989 -1.37503 3.09642 0
M  V30 1335 C 134.548 -1.88628 3.25725 0
M  V30 1336 C 133.695 -0.758098 2.66736 0
M  V30 1337 H 136.646 0.0350524 1.58661 0
M  V30 1338 H 136.667 -2.2445 3.0725 0
M  V30 1339 H 136.179 -0.587302 3.83631 0
M  V30 1340 H 134.28 -2.70103 2.56661 0
M  V30 1341 H 134.393 -2.04462 4.3328 0
M  V30 1342 H 132.757 -1.17369 2.26046 0
M  V30 1343 H 133.54 0.0174705 3.43296 0
M  V30 1344 N 135.985 -1.50799 -0.457987 0
M  V30 1345 C 137.232 -1.62442 -1.20908 0
M  V30 1346 C 137.56 -0.330865 -1.91665 0
M  V30 1347 O 136.815 0.68401 -1.83357 0
M  V30 1348 C 137.114 -2.76358 -2.2663 0
M  V30 1349 C 136.78 -4.16378 -1.73033 0
M  V30 1350 C 135.442 -4.54473 -1.58138 0
M  V30 1351 C 137.794 -5.03836 -1.33413 0
M  V30 1352 C 135.122 -5.77754 -1.02065 0
M  V30 1353 C 137.474 -6.27676 -0.78778 0
M  V30 1354 C 136.138 -6.64562 -0.625561 0
M  V30 1355 H 135.408 -0.594417 -0.442435 0
M  V30 1356 H 138.055 -1.84772 -0.503136 0
M  V30 1357 H 136.36 -2.48167 -3.03184 0
M  V30 1358 H 138.057 -2.82568 -2.84528 0
M  V30 1359 H 134.647 -3.86331 -1.85598 0
M  V30 1360 H 138.831 -4.75026 -1.4375 0
M  V30 1361 H 134.087 -6.04997 -0.882547 0
M  V30 1362 H 138.261 -6.94797 -0.472177 0
M  V30 1363 H 135.888 -7.59965 -0.188926 0
M  V30 1364 N 137.463 0.71206 -1.40597 0
M  V30 1365 C 138.712 1.46754 -1.38369 0
M  V30 1366 C 139.025 1.95598 0.0097839 0
M  V30 1367 O 140.231 2.71059 0.154677 0
M  V30 1368 C 138.687 2.65289 -2.43207 0
M  V30 1369 C 138.295 2.23301 -3.88382 0
M  V30 1370 C 140.039 3.43008 -2.50091 0
M  V30 1371 C 137.946 3.38696 -4.84808 0
M  V30 1372 H 136.876 0.55118 -0.514506 0
M  V30 1373 H 139.527 0.774616 -1.66349 0
M  V30 1374 H 137.909 3.36769 -2.08332 0
M  V30 1375 H 139.083 1.59218 -4.32419 0
M  V30 1376 H 137.398 1.58618 -3.85006 0
M  V30 1377 H 139.995 4.28881 -3.1932 0
M  V30 1378 H 140.338 3.87065 -1.53253 0
M  V30 1379 H 140.871 2.78574 -2.83974 0
M  V30 1380 H 137.61 2.99668 -5.82992 0
M  V30 1381 H 137.13 4.01683 -4.45433 0
M  V30 1382 H 138.809 4.04712 -5.04794 0
M  V30 1383 N 138.941 1.26152 0.944643 0
M  V30 1384 C 140.352 1.10454 1.50522 0
M  V30 1385 C 140.703 -0.31635 1.93633 0
M  V30 1386 O 139.828 -1.20746 1.79581 0
M  V30 1387 C 140.423 1.99891 2.73549 0
M  V30 1388 C 138.982 1.88348 3.25886 0
M  V30 1389 C 138.129 1.93447 1.9868 0
M  V30 1390 H 141.08 1.39292 0.760489 0
M  V30 1391 H 141.101 1.54477 3.47732 0
M  V30 1392 H 140.613 3.03297 2.42141 0
M  V30 1393 H 138.714 0.878636 3.62092 0
M  V30 1394 H 138.827 2.73696 3.93227 0
M  V30 1395 H 137.191 1.37456 2.14425 0
M  V30 1396 H 137.974 2.98476 1.69607 0
M  V30 1397 N 140.419 -1.14872 1.07899 0
M  V30 1398 C 141.665 -1.86064 0.806725 0
M  V30 1399 C 141.998 -1.82434 -0.665706 0
M  V30 1400 O 141.273 -1.25138 -1.48899 0
M  V30 1401 C 141.556 -3.34929 1.32267 0
M  V30 1402 C 141.409 -3.47161 2.86006 0
M  V30 1403 C 142.728 -4.29863 0.943717 0
M  V30 1404 H 139.847 -0.675591 0.294526 0
M  V30 1405 H 142.489 -1.34925 1.33773 0
M  V30 1406 H 140.639 -3.78611 0.870974 0
M  V30 1407 H 142.311 -3.12302 3.39507 0
M  V30 1408 H 140.554 -2.88539 3.23925 0
M  V30 1409 H 141.225 -4.51777 3.17177 0
M  V30 1410 H 143.701 -3.9417 1.33302 0
M  V30 1411 H 142.577 -5.32494 1.33198 0
M  V30 1412 H 142.838 -4.41846 -0.149796 0
M  V30 1413 N 141.898 -0.863906 -1.31812 0
M  V30 1414 C 143.314 -0.555004 -1.49639 0
M  V30 1415 C 143.514 0.912266 -1.79666 0
M  V30 1416 O 142.57 1.69479 -1.87171 0
M  V30 1417 C 143.883 -1.44998 -2.63431 0
M  V30 1418 C 145.431 -1.45138 -2.77316 0
M  V30 1419 C 145.906 -2.33179 -3.94197 0
M  V30 1420 N 147.397 -2.31025 -4.01474 0
M  V30 1421 C 148.132 -2.95871 -4.9117 0
M  V30 1422 N 147.628 -3.69863 -5.8581 0
M  V30 1423 N 149.421 -2.85211 -4.84367 0
M  V30 1424 H 141.572 -1.81339 -1.10589 0
M  V30 1425 H 143.835 -0.77505 -0.545895 0
M  V30 1426 H 143.541 -2.49377 -2.48 0
M  V30 1427 H 143.415 -1.14409 -3.59431 0
M  V30 1428 H 145.802 -0.415201 -2.92164 0
M  V30 1429 H 145.883 -1.79747 -1.82001 0
M  V30 1430 H 145.527 -3.3687 -3.80107 0
M  V30 1431 H 145.457 -1.95897 -4.88807 0
M  V30 1432 H 147.948 -1.77238 -3.33759 0
M  V30 1433 H 148.261 -4.16486 -6.50968 0
M  V30 1434 H 146.606 -3.73971 -5.85808 0
M  V30 1435 H 149.797 -2.26948 -4.09405 0
M  V30 1436 H 149.97 -3.36027 -5.54066 0
M  V30 1437 N 143.376 1.44774 -0.622745 0
M  V30 1438 C 144.624 2.01721 -0.123655 0
M  V30 1439 C 144.945 1.49172 1.25589 0
M  V30 1440 O 144.215 0.691974 1.83272 0
M  V30 1441 H 142.795 0.745777 -0.0427225 0
M  V30 1442 H 145.457 1.77382 -0.807559 0
M  V30 1443 H 144.553 3.11984 -0.0849534 0
M  V30 1444 N 144.854 0.36279 1.53368 0
M  V30 1445 C 146.1 -0.228113 2.01513 0
M  V30 1446 C 146.433 -1.48648 1.2497 0
M  V30 1447 O 145.708 -1.91459 0.342616 0
M  V30 1448 C 145.991 -0.522884 3.56284 0
M  V30 1449 C 145.844 0.74892 4.43521 0
M  V30 1450 C 147.163 -1.32461 4.19693 0
M  V30 1451 H 144.282 -0.0814343 0.732487 0
M  V30 1452 H 146.924 0.48713 1.83649 0
M  V30 1453 H 145.074 -1.1322 3.71636 0
M  V30 1454 H 146.746 1.38648 4.39971 0
M  V30 1455 H 144.989 1.36986 4.11603 0
M  V30 1456 H 145.66 0.497667 5.49752 0
M  V30 1457 H 148.136 -0.809203 4.08156 0
M  V30 1458 H 147.012 -1.49961 5.28018 0
M  V30 1459 H 147.273 -2.33232 3.75573 0
M  V30 1460 N 146.332 -1.57332 0.0918853 0
M  V30 1461 C 147.557 -1.98995 -0.584442 0
M  V30 1462 C 147.982 -0.970528 -1.61128 0
M  V30 1463 O 147.34 0.0613904 -1.81196 0
M  V30 1464 C 147.388 -3.39636 -1.21161 0
M  V30 1465 O 146.492 -3.40447 -2.32744 0
M  V30 1466 H 145.833 -0.647165 -0.148572 0
M  V30 1467 H 148.363 -2.03873 0.172347 0
M  V30 1468 H 148.373 -3.7726 -1.55367 0
M  V30 1469 H 147.048 -4.13356 -0.459313 0
M  V30 1470 H 145.625 -3.14614 -2.0018 0
M  V30 1471 N 147.81 0.181792 -1.56548 0
M  V30 1472 C 149.056 0.901431 -1.81665 0
M  V30 1473 C 149.389 1.82347 -0.668075 0
M  V30 1474 O 148.664 1.91669 0.330615 0
M  V30 1475 C 148.947 1.70618 -3.17115 0
M  V30 1476 C 148.8 0.807964 -4.42484 0
M  V30 1477 C 150.119 2.67605 -3.49393 0
M  V30 1478 H 147.238 0.32627 -0.660846 0
M  V30 1479 H 149.88 0.168134 -1.89255 0
M  V30 1480 H 148.03 2.33133 -3.10775 0
M  V30 1481 H 149.702 0.19649 -4.60881 0
M  V30 1482 H 147.945 0.115411 -4.33646 0
M  V30 1483 H 148.616 1.40632 -5.33785 0
M  V30 1484 H 151.092 2.15218 -3.56118 0
M  V30 1485 H 149.968 3.20985 -4.45264 0
M  V30 1486 H 150.229 3.47298 -2.73563 0
M  V30 1487 N 149.288 1.51039 0.449983 0
M  V30 1488 C 150.565 1.53612 1.21089 0
M  V30 1489 C 150.945 0.292997 2.09057 0
M  V30 1490 O 150.293 -0.72259 2.16774 0
M  V30 1491 C 150.503 2.84337 2.0237 0
M  V30 1492 C 151.851 3.35807 2.59843 0
M  V30 1493 O 152.875 2.85802 2.12593 0
M  V30 1494 O 151.734 4.23029 3.45989 0
M  V30 1495 H 148.828 0.617057 0.550608 0
M  V30 1496 H 151.374 1.63344 0.460082 0
M  V30 1497 H 150.146 3.66278 1.37681 0
M  V30 1498 H 149.769 2.77708 2.84542 0
M  V30 1499 N 150.766 -0.704594 1.40972 0
M  V30 1500 C 151.676 -1.84856 1.44448 0
M  V30 1501 C 152.692 -1.70726 0.335961 0
M  V30 1502 O 153.868 -1.92799 0.582276 0
M  V30 1503 C 150.933 -3.20758 1.31587 0
M  V30 1504 C 149.994 -3.47063 2.52677 0
M  V30 1505 C 149.227 -4.76481 2.4042 0
M  V30 1506 O 149.45 -5.52341 1.42391 0
M  V30 1507 O 148.384 -5.03367 3.30007 0
M  V30 1508 H 152.21 -1.8488 2.40942 0
M  V30 1509 H 149.795 -0.85647 1.22413 0
M  V30 1510 H 151.677 -4.01913 1.26665 0
M  V30 1511 H 150.352 -3.21438 0.382049 0
M  V30 1512 H 149.259 -2.65873 2.63177 0
M  V30 1513 H 150.592 -3.5119 3.44858 0
M  V30 1514 N 152.244 -1.26651 -0.937939 0
M  V30 1515 C 153.484 -1.13611 -1.69917 0
M  V30 1516 C 153.848 0.314687 -1.89404 0
M  V30 1517 O 155.049 0.567285 -2.62746 0
M  V30 1518 C 153.32 -1.88742 -3.03498 0
M  V30 1519 S 154.879 -1.91794 -3.94665 0
M  V30 1520 H 151.697 -0.405767 -0.583844 0
M  V30 1521 H 154.299 -1.60416 -1.11745 0
M  V30 1522 H 153.003 -2.9336 -2.86999 0
M  V30 1523 H 152.534 -1.42391 -3.66727 0
M  V30 1524 H 154.549 -1.00698 -4.85875 0
M  V30 1525 N 153.722 1.14298 -1.08507 0
M  V30 1526 C 154.968 1.85633 -0.816581 0
M  V30 1527 C 155.301 1.82784 0.656021 0
M  V30 1528 O 154.576 1.25926 1.48233 0
M  V30 1529 C 154.859 3.34223 -1.34041 0
M  V30 1530 C 154.712 3.45639 -2.87843 0
M  V30 1531 C 156.031 4.29356 -0.9665 0
M  V30 1532 H 153.15 0.67402 -0.298104 0
M  V30 1533 H 155.792 1.34214 -1.34487 0
M  V30 1534 H 153.942 3.78144 -0.89104 0
M  V30 1535 H 155.614 3.10498 -3.41158 0
M  V30 1536 H 153.857 2.86817 -3.25451 0
M  V30 1537 H 154.528 4.50089 -3.19569 0
M  V30 1538 H 157.004 3.93457 -1.35391 0
M  V30 1539 H 155.88 5.3178 -1.3602 0
M  V30 1540 H 156.141 4.41919 0.126362 0
M  V30 1541 N 155.201 0.870884 1.31352 0
M  V30 1542 C 156.131 0.343096 2.30966 0
M  V30 1543 C 157.112 -0.566507 1.60389 0
M  V30 1544 O 158.297 -0.483336 1.88089 0
M  V30 1545 C 155.427 -0.455487 3.443 0
M  V30 1546 C 154.381 0.361103 4.26474 0
M  V30 1547 C 153.707 -0.563221 5.31725 0
M  V30 1548 C 155.007 1.59566 4.97329 0
M  V30 1549 H 156.701 1.17548 2.75359 0
M  V30 1550 H 154.247 0.566686 1.32381 0
M  V30 1551 H 156.2 -0.83525 4.13039 0
M  V30 1552 H 154.924 -1.32139 2.98675 0
M  V30 1553 H 153.583 0.722825 3.59403 0
M  V30 1554 H 153.231 -1.42643 4.82351 0
M  V30 1555 H 152.931 -0.0207409 5.87596 0
M  V30 1556 H 154.455 -0.939808 6.03324 0
M  V30 1557 H 155.869 1.28728 5.58661 0
M  V30 1558 H 154.266 2.07728 5.63 0
M  V30 1559 H 155.336 2.34798 4.24262 0
M  V30 1560 N 156.679 -1.44442 0.630414 0
M  V30 1561 C 157.919 -2.03934 0.137919 0
M  V30 1562 C 158.283 -1.48509 -1.21692 0
M  V30 1563 O 159.484 -1.99499 -1.80149 0
M  V30 1564 C 157.755 -3.57187 0.123373 0
M  V30 1565 S 159.314 -4.37741 -0.304604 0
M  V30 1566 H 156.132 -0.708401 0.0607353 0
M  V30 1567 H 158.734 -1.76835 0.833643 0
M  V30 1568 H 157.438 -3.95032 1.11256 0
M  V30 1569 H 156.969 -3.88895 -0.59362 0
M  V30 1570 H 158.984 -4.71403 -1.54897 0
M  V30 1571 N 158.157 -0.370918 -1.53173 0
M  V30 1572 C 159.12 0.460778 -2.24521 0
M  V30 1573 C 160.12 1.00536 -1.25496 0
M  V30 1574 O 161.31 0.890266 -1.49733 0
M  V30 1575 C 158.442 1.64457 -2.98608 0
M  V30 1576 H 159.635 -0.163613 -2.99453 0
M  V30 1577 H 157.188 -0.122699 -1.55818 0
M  V30 1578 H 157.923 2.30691 -2.2793 0
M  V30 1579 H 157.708 1.26099 -3.7127 0
M  V30 1580 H 159.198 2.23384 -3.5283 0
M  V30 1581 N 159.635 1.57281 -0.100228 0
M  V30 1582 C 160.567 2.11342 0.886972 0
M  V30 1583 C 161.58 1.05182 1.24261 0
M  V30 1584 O 162.769 1.32613 1.19483 0
M  V30 1585 C 159.869 2.5825 2.19454 0
M  V30 1586 C 159.042 3.88302 2.01346 0
M  V30 1587 C 158.101 4.21004 3.15661 0
M  V30 1588 O 157.127 4.9014 2.89398 0
M  V30 1589 N 158.329 3.76818 4.41575 0
M  V30 1590 H 161.094 2.96668 0.425216 0
M  V30 1591 H 158.655 1.61678 0.0847334 0
M  V30 1592 H 160.647 2.7717 2.94888 0
M  V30 1593 H 159.217 1.77907 2.57037 0
M  V30 1594 H 158.437 3.7848 1.10212 0
M  V30 1595 H 159.725 4.73375 1.8653 0
M  V30 1596 H 159.123 3.2102 4.65792 0
M  V30 1597 H 157.68 4.00882 5.13942 0
M  V30 1598 N 161.113 -0.173488 1.56642 0
M  V30 1599 C 162.076 -1.19859 1.95362 0
M  V30 1600 C 163.076 -1.37296 0.83704 0
M  V30 1601 O 164.266 -1.34739 1.10413 0
M  V30 1602 C 161.398 -2.56405 2.24654 0
M  V30 1603 H 162.591 -0.867062 2.87092 0
M  V30 1604 H 160.144 -0.415853 1.50666 0
M  V30 1605 H 160.879 -2.94576 1.35631 0
M  V30 1606 H 160.664 -2.45115 3.06041 0
M  V30 1607 H 162.154 -3.30287 2.5554 0
M  V30 1608 N 162.591 -1.51276 -0.441967 0
M  V30 1609 C 163.838 -1.63715 -1.19179 0
M  V30 1610 C 164.166 -0.351175 -1.91303 0
M  V30 1611 O 163.421 0.664524 -1.84072 0
M  V30 1612 C 163.72 -2.78746 -2.23686 0
M  V30 1613 C 163.386 -4.18189 -1.68607 0
M  V30 1614 C 162.048 -4.56125 -1.53308 0
M  V30 1615 C 164.4 -5.05222 -1.28062 0
M  V30 1616 C 161.728 -5.78804 -0.959317 0
M  V30 1617 C 164.08 -6.28476 -0.721162 0
M  V30 1618 C 162.744 -6.65188 -0.55504 0
M  V30 1619 H 162.014 -0.599076 -0.436106 0
M  V30 1620 H 164.661 -1.85296 -0.48351 0
M  V30 1621 H 162.966 -2.51369 -3.00535 0
M  V30 1622 H 164.663 -2.8557 -2.81515 0
M  V30 1623 H 161.253 -3.88277 -1.8149 0
M  V30 1624 H 165.437 -4.76524 -1.38704 0
M  V30 1625 H 160.693 -6.05899 -0.81833 0
M  V30 1626 H 164.867 -6.95259 -0.398458 0
M  V30 1627 H 162.494 -7.60123 -0.108311 0
M  V30 1628 N 164.069 0.697108 -1.41344 0
M  V30 1629 C 165.317 1.45426 -1.40341 0
M  V30 1630 C 165.638 1.94996 -0.0128787 0
M  V30 1631 O 164.908 1.71599 0.945027 0
M  V30 1632 H 163.488 0.539594 -0.516573 0
M  V30 1633 H 166.15 0.825201 -1.76569 0
M  V30 1634 H 165.246 2.31817 -2.08967 0
M  V30 1635 N 165.547 1.27147 0.931209 0
M  V30 1636 C 166.479 1.05364 2.03546 0
M  V30 1637 C 167.492 0.0108438 1.62796 0
M  V30 1638 O 168.681 0.25202 1.76712 0
M  V30 1639 C 165.781 0.575566 3.33977 0
M  V30 1640 C 164.954 1.68985 4.03439 0
M  V30 1641 C 164.013 1.20813 5.12143 0
M  V30 1642 O 163.039 1.90712 5.363 0
M  V30 1643 N 164.241 0.0618851 5.80467 0
M  V30 1644 H 167.006 2.00454 2.22796 0
M  V30 1645 H 164.567 1.18666 1.10136 0
M  V30 1646 H 166.559 0.237264 4.04004 0
M  V30 1647 H 165.129 -0.282016 3.11325 0
M  V30 1648 H 164.349 2.19861 3.27192 0
M  V30 1649 H 165.637 2.4378 4.46597 0
M  V30 1650 H 165.035 -0.521621 5.6329 0
M  V30 1651 H 163.592 -0.217264 6.51438 0
M  V30 1652 N 167.025 -1.13721 1.09112 0
M  V30 1653 C 168.441 -1.36914 0.820174 0
M  V30 1654 C 168.641 -1.93356 -0.567079 0
M  V30 1655 O 167.697 -2.15093 -1.32255 0
M  V30 1656 C 169.01 -2.3235 1.90877 0
M  V30 1657 C 170.558 -2.45973 1.93562 0
M  V30 1658 C 171.033 -3.44714 3.01556 0
M  V30 1659 N 172.524 -3.52263 3.00775 0
M  V30 1660 C 173.259 -4.28536 3.80978 0
M  V30 1661 N 172.755 -5.07991 4.71081 0
M  V30 1662 N 174.548 -4.23804 3.69251 0
M  V30 1663 H 166.699 -0.754348 1.98553 0
M  V30 1664 H 168.962 -0.3944 0.862063 0
M  V30 1665 H 168.668 -1.98027 2.90651 0
M  V30 1666 H 168.542 -3.32332 1.78424 0
M  V30 1667 H 170.929 -2.79584 0.944286 0
M  V30 1668 H 171.01 -1.45926 2.10093 0
M  V30 1669 H 170.654 -3.11835 4.00901 0
M  V30 1670 H 170.584 -4.44558 2.82269 0
M  V30 1671 H 173.075 -2.95567 2.35475 0
M  V30 1672 H 173.388 -5.63487 5.28869 0
M  V30 1673 H 171.733 -5.07235 4.75119 0
M  V30 1674 H 174.924 -3.60806 2.98222 0
M  V30 1675 H 175.097 -4.82995 4.31995 0
M  V30 1676 N 168.503 -0.877838 -1.30888 0
M  V30 1677 C 169.433 -0.35534 -2.3078 0
M  V30 1678 C 170.414 0.557994 -1.60687 0
M  V30 1679 O 171.599 0.473355 -1.88343 0
M  V30 1680 C 168.729 0.437221 -3.44537 0
M  V30 1681 C 167.683 -0.383715 -4.26276 0
M  V30 1682 C 167.009 0.535014 -5.32017 0
M  V30 1683 C 168.309 -1.62201 -4.96476 0
M  V30 1684 H 170.003 -1.19007 -2.74732 0
M  V30 1685 H 167.549 -0.573698 -1.32078 0
M  V30 1686 H 169.502 0.813334 -4.13477 0
M  V30 1687 H 168.226 1.30553 -2.99372 0
M  V30 1688 H 166.885 -0.741874 -3.59015 0
M  V30 1689 H 166.533 1.40083 -4.831 0
M  V30 1690 H 166.233 -0.0104211 -5.87599 0
M  V30 1691 H 167.757 0.907799 -6.03814 0
M  V30 1692 H 169.171 -1.31689 -5.5797 0
M  V30 1693 H 167.568 -2.10711 -5.61891 0
M  V30 1694 H 168.638 -2.37044 -4.23011 0
M  V30 1695 N 169.982 1.44106 -0.638065 0
M  V30 1696 C 170.945 2.29138 0.0531013 0
M  V30 1697 C 171.945 1.41409 0.765506 0
M  V30 1698 O 173.135 1.63206 0.609046 0
M  V30 1699 C 170.267 3.23144 1.08584 0
M  V30 1700 H 171.46 2.91739 -0.694883 0
M  V30 1701 H 169.013 1.51134 -0.398538 0
M  V30 1702 H 169.748 2.65408 1.86357 0
M  V30 1703 H 169.533 3.87804 0.578852 0
M  V30 1704 H 171.023 3.87004 1.56899 0
M  V30 1705 N 171.46 0.379036 1.52974 0
M  V30 1706 C 172.37 -0.468639 2.29872 0
M  V30 1707 C 173.386 -1.08067 1.36373 0
M  V30 1708 O 174.562 -1.08871 1.69438 0
M  V30 1709 C 171.627 -1.58594 3.083 0
M  V30 1710 C 170.688 -1.00007 4.17489 0
M  V30 1711 C 169.921 -2.06413 4.92168 0
M  V30 1712 O 170.144 -3.27751 4.66835 0
M  V30 1713 O 169.078 -1.68717 5.7777 0
M  V30 1714 H 172.904 0.157508 3.03291 0
M  V30 1715 H 170.489 0.143035 1.48714 0
M  V30 1716 H 172.371 -2.23525 3.57232 0
M  V30 1717 H 171.046 -2.19724 2.37703 0
M  V30 1718 H 169.953 -0.314299 3.72777 0
M  V30 1719 H 171.286 -0.433135 4.90291 0
M  V30 1720 N 172.938 -1.57226 0.108567 0
M  V30 1721 C 173.848 -2.18292 -0.859401 0
M  V30 1722 C 174.864 -1.15612 -1.30038 0
M  V30 1723 O 176.04 -1.48039 -1.36552 0
M  V30 1724 C 173.105 -2.762 -2.09558 0
M  V30 1725 C 172.166 -3.93881 -1.70752 0
M  V30 1726 C 171.399 -4.49018 -2.88477 0
M  V30 1727 O 171.622 -4.03068 -4.036 0
M  V30 1728 O 170.556 -5.39852 -2.66164 0
M  V30 1729 H 174.382 -3.01441 -0.369769 0
M  V30 1730 H 171.967 -1.48945 -0.1165 0
M  V30 1731 H 173.849 -3.13156 -2.81978 0
M  V30 1732 H 172.524 -1.96089 -2.57548 0
M  V30 1733 H 171.431 -3.61713 -0.954714 0
M  V30 1734 H 172.764 -4.75396 -1.27513 0
M  V30 1735 N 174.416 0.165178 -1.56732 0
M  V30 1736 C 175.346 1.20651 -1.99914 0
M  V30 1737 C 176.327 1.45827 -0.875705 0
M  V30 1738 O 177.512 1.57057 -1.14223 0
M  V30 1739 C 174.642 2.54401 -2.36427 0
M  V30 1740 C 173.596 2.43782 -3.51787 0
M  V30 1741 C 172.922 3.82078 -3.7406 0
M  V30 1742 C 174.222 1.93732 -4.85041 0
M  V30 1743 H 175.916 0.847534 -2.87154 0
M  V30 1744 H 173.462 0.40625 -1.38151 0
M  V30 1745 H 175.415 3.27458 -2.65234 0
M  V30 1746 H 174.139 2.92098 -1.46103 0
M  V30 1747 H 172.798 1.73178 -3.23117 0
M  V30 1748 H 172.446 4.17179 -2.81017 0
M  V30 1749 H 172.146 3.7584 -4.51684 0
M  V30 1750 H 173.67 4.56712 -4.05274 0
M  V30 1751 H 175.084 2.56569 -5.12684 0
M  V30 1752 H 173.481 1.98428 -5.66345 0
M  V30 1753 H 174.551 0.891962 -4.76626 0
M  V30 1754 N 175.894 1.51508 0.433938 0
M  V30 1755 C 177.171 1.54888 1.19453 0
M  V30 1756 C 177.551 0.315154 2.08734 0
M  V30 1757 O 176.899 -0.699558 2.17528 0
M  V30 1758 C 177.109 2.86467 1.99342 0
M  V30 1759 C 178.457 3.38545 2.56267 0
M  V30 1760 O 179.481 2.88041 2.0955 0
M  V30 1761 O 178.34 4.26675 3.41483 0
M  V30 1762 H 175.434 0.622863 0.544032 0
M  V30 1763 H 177.98 1.63823 0.442732 0
M  V30 1764 H 176.752 3.67718 1.33788 0
M  V30 1765 H 176.375 2.8071 2.8158 0
M  V30 1766 N 177.372 -0.689602 1.41712 0
M  V30 1767 C 178.618 -1.45181 1.41599 0
M  V30 1768 C 178.951 -1.94181 0.0270081 0
M  V30 1769 O 178.226 -1.6993 -0.946265 0
M  V30 1770 C 178.509 -2.65945 2.42787 0
M  V30 1771 C 178.362 -2.22672 3.90816 0
M  V30 1772 C 179.681 -3.68149 2.41151 0
M  V30 1773 H 176.8 -0.526576 0.515642 0
M  V30 1774 H 179.442 -0.784947 1.73028 0
M  V30 1775 H 177.592 -3.2284 2.16116 0
M  V30 1776 H 179.264 -1.71058 4.28412 0
M  V30 1777 H 177.507 -1.54394 4.05395 0
M  V30 1778 H 178.178 -3.0935 4.57172 0
M  V30 1779 H 180.654 -3.2094 2.64834 0
M  V30 1780 H 179.53 -4.50248 3.13955 0
M  V30 1781 H 179.791 -4.18259 1.43221 0
M  V30 1782 N 178.85 -1.27639 -0.924453 0
M  V30 1783 C 180.261 -1.12834 -1.48746 0
M  V30 1784 C 180.612 0.285505 -1.94112 0
M  V30 1785 O 179.737 1.17874 -1.81479 0
M  V30 1786 C 180.332 -2.04217 -2.70334 0
M  V30 1787 C 178.891 -1.93509 -3.22848 0
M  V30 1788 C 178.038 -1.96583 -1.95577 0
M  V30 1789 H 180.989 -1.40484 -0.738233 0
M  V30 1790 H 181.01 -1.59989 -3.4523 0
M  V30 1791 H 180.522 -3.07111 -2.37285 0
M  V30 1792 H 178.623 -0.936131 -3.60649 0
M  V30 1793 H 178.736 -2.79917 -3.88823 0
M  V30 1794 H 177.1 -1.4085 -2.12211 0
M  V30 1795 H 177.883 -3.01137 -1.64837 0
M  V30 1796 N 180.328 1.1314 -1.09713 0
M  V30 1797 C 181.574 1.84757 -0.836224 0
M  V30 1798 C 181.907 1.8347 0.636598 0
M  V30 1799 O 181.182 1.27491 1.46889 0
M  V30 1800 C 181.465 3.32782 -1.37578 0
M  V30 1801 C 181.318 3.42567 -2.91493 0
M  V30 1802 C 182.637 4.28307 -1.01198 0
M  V30 1803 H 179.756 0.67082 -0.305236 0
M  V30 1804 H 182.398 1.3278 -1.35903 0
M  V30 1805 H 180.548 3.77177 -0.931097 0
M  V30 1806 H 182.22 3.06862 -3.44432 0
M  V30 1807 H 180.463 2.83349 -3.28475 0
M  V30 1808 H 181.134 4.46674 -3.24324 0
M  V30 1809 H 183.61 3.91999 -1.39556 0
M  V30 1810 H 182.486 5.30307 -1.41653 0
M  V30 1811 H 182.747 4.42029 0.0794833 0
M  V30 1812 N 181.806 0.884767 1.30421 0
M  V30 1813 C 183.036 0.517293 2.00019 0
M  V30 1814 C 183.444 -0.898632 1.66497 0
M  V30 1815 O 182.787 -1.60245 0.898181 0
M  V30 1816 C 182.849 0.612025 3.54252 0
M  V30 1817 C 182.513 1.99222 4.1129 0
M  V30 1818 C 183.51 2.9616 4.273 0
M  V30 1819 C 181.195 2.29755 4.46674 0
M  V30 1820 C 183.189 4.21764 4.77906 0
M  V30 1821 C 180.876 3.55606 4.96979 0
M  V30 1822 C 181.874 4.51425 5.12547 0
M  V30 1823 O 181.562 5.75043 5.61766 0
M  V30 1824 H 181.294 0.198529 0.64619 0
M  V30 1825 H 183.848 1.1919 1.67281 0
M  V30 1826 H 182.078 -0.119561 3.86515 0
M  V30 1827 H 183.767 0.255859 4.05093 0
M  V30 1828 H 184.533 2.73882 4.00267 0
M  V30 1829 H 180.412 1.55942 4.33824 0
M  V30 1830 H 183.956 4.96561 4.89972 0
M  V30 1831 H 179.853 3.7772 5.23448 0
M  V30 1832 H 180.621 5.77422 5.80109 0
M  V30 1833 N 183.284 -1.43765 0.645699 0
M  V30 1834 C 184.214 -2.33471 -0.0370477 0
M  V30 1835 C 185.195 -1.49042 -0.819779 0
M  V30 1836 O 186.38 -1.77726 -0.782758 0
M  V30 1837 C 183.51 -3.32311 -1.0093 0
M  V30 1838 C 182.464 -4.2667 -0.337201 0
M  V30 1839 C 181.79 -5.1549 -1.42037 0
M  V30 1840 C 183.09 -5.16657 0.765706 0
M  V30 1841 H 184.784 -2.90809 0.712069 0
M  V30 1842 H 182.33 -1.39834 0.343876 0
M  V30 1843 H 184.283 -3.9396 -1.49578 0
M  V30 1844 H 183.007 -2.73213 -1.78948 0
M  V30 1845 H 181.666 -3.66374 0.128771 0
M  V30 1846 H 181.314 -4.52735 -2.1918 0
M  V30 1847 H 181.014 -5.79438 -0.975966 0
M  V30 1848 H 182.538 -5.80012 -1.90838 0
M  V30 1849 H 183.952 -5.72158 0.361702 0
M  V30 1850 H 182.349 -5.89286 1.13413 0
M  V30 1851 H 183.419 -4.56796 1.62683 0
M  V30 1852 N 184.763 -0.387143 -1.52771 0
M  V30 1853 C 185.993 0.195585 -2.05672 0
M  V30 1854 C 186.401 1.41241 -1.25887 0
M  V30 1855 O 185.744 1.81265 -0.298081 0
M  V30 1856 C 185.806 0.632327 -3.53895 0
M  V30 1857 C 185.47 -0.470739 -4.54569 0
M  V30 1858 C 186.467 -1.32746 -5.02667 0
M  V30 1859 C 184.152 -0.637151 -4.98243 0
M  V30 1860 C 186.146 -2.33574 -5.93061 0
M  V30 1861 C 183.833 -1.64877 -5.88438 0
M  V30 1862 C 184.831 -2.49649 -6.35739 0
M  V30 1863 O 184.519 -3.49082 -7.24153 0
M  V30 1864 H 184.251 0.033658 -0.675162 0
M  V30 1865 H 186.805 -0.550221 -1.97893 0
M  V30 1866 H 185.035 1.43008 -3.59285 0
M  V30 1867 H 186.724 1.14048 -3.89548 0
M  V30 1868 H 187.49 -1.21019 -4.69659 0
M  V30 1869 H 183.369 0.0129567 -4.60998 0
M  V30 1870 H 186.913 -2.99777 -6.29904 0
M  V30 1871 H 182.81 -1.76643 -6.2086 0
M  V30 1872 H 183.578 -3.45065 -7.42208 0
M  V30 1873 N 186.241 1.57166 -0.116904 0
M  V30 1874 C 187.489 1.94737 0.540533 0
M  V30 1875 C 187.81 1.00096 1.67349 0
M  V30 1876 O 187.08 0.0568854 1.95817 0
M  V30 1877 H 185.66 0.718981 0.202669 0
M  V30 1878 H 188.322 1.94017 -0.185353 0
M  V30 1879 H 187.418 2.97719 0.936483 0
M  V30 1880 N 187.719 -0.156864 1.56817 0
M  V30 1881 C 188.629 -1.2136 2.00771 0
M  V30 1882 C 189.645 -1.47598 0.921459 0
M  V30 1883 O 190.821 -1.59462 1.2302 0
M  V30 1884 C 187.886 -2.52943 2.37109 0
M  V30 1885 C 186.947 -2.34439 3.59634 0
M  V30 1886 C 186.18 -3.59748 3.94229 0
M  V30 1887 O 186.403 -4.65526 3.29609 0
M  V30 1888 O 185.337 -3.52998 4.8752 0
M  V30 1889 H 189.163 -0.870468 2.90958 0
M  V30 1890 H 186.748 -0.36484 1.44877 0
M  V30 1891 H 188.63 -3.30538 2.61386 0
M  V30 1892 H 187.305 -2.86806 1.5008 0
M  V30 1893 H 186.212 -1.54828 3.40557 0
M  V30 1894 H 187.545 -2.05496 4.4725 0
M  V30 1895 N 189.197 -1.51736 -0.425897 0
M  V30 1896 C 190.16 -1.73271 -1.50032 0
M  V30 1897 C 191.16 -0.602639 -1.4908 0
M  V30 1898 O 192.35 -0.87033 -1.509 0
M  V30 1899 C 189.482 -1.79969 -2.89523 0
M  V30 1900 H 190.675 -2.69172 -1.32237 0
M  V30 1901 H 188.228 -1.41899 -0.65532 0
M  V30 1902 H 188.963 -0.859241 -3.1271 0
M  V30 1903 H 188.748 -2.62109 -2.91619 0
M  V30 1904 H 190.238 -1.9843 -3.67444 0
M  V30 1905 N 190.675 0.682077 -1.42076 0
M  V30 1906 C 191.638 1.77756 -1.44691 0
M  V30 1907 C 192.638 1.5726 -0.335535 0
M  V30 1908 O 193.828 1.63686 -0.596037 0
M  V30 1909 C 190.96 3.16301 -1.27146 0
M  V30 1910 H 192.153 1.76826 -2.42224 0
M  V30 1911 H 189.706 0.891012 -1.28416 0
M  V30 1912 H 190.441 3.22862 -0.305075 0
M  V30 1913 H 190.226 3.32581 -2.07683 0
M  V30 1914 H 191.716 3.96241 -1.31843 0
M  V30 1915 N 192.153 1.28127 0.917671 0
M  V30 1916 C 193.569 1.05749 1.19538 0
M  V30 1917 C 193.769 -0.202633 2.00479 0
M  V30 1918 O 192.825 -0.905382 2.3571 0
M  V30 1919 C 194.138 2.30273 1.93378 0
M  V30 1920 C 195.686 2.35412 2.06277 0
M  V30 1921 C 196.161 3.59692 2.83524 0
M  V30 1922 N 197.652 3.60309 2.91087 0
M  V30 1923 C 198.387 4.53147 3.51348 0
M  V30 1924 N 197.883 5.563 4.12919 0
M  V30 1925 N 199.676 4.40751 3.48849 0
M  V30 1926 H 191.827 2.09024 0.377184 0
M  V30 1927 H 194.09 0.919798 0.22951 0
M  V30 1928 H 193.796 3.22055 1.41328 0
M  V30 1929 H 193.67 2.36378 2.93947 0
M  V30 1930 H 196.057 1.4413 2.57508 0
M  V30 1931 H 196.138 2.33304 1.04895 0
M  V30 1932 H 195.782 4.51316 2.32973 0
M  V30 1933 H 195.712 3.59054 3.85211 0
M  V30 1934 H 198.203 2.85714 2.47338 0
M  V30 1935 H 198.516 6.2329 4.56869 0
M  V30 1936 H 196.861 5.60131 4.11435 0
M  V30 1937 H 200.052 3.59367 2.99955 0
M  V30 1938 H 200.225 5.13291 3.9552 0
M  V30 1939 N 193.631 -1.12557 1.10312 0
M  V30 1940 C 194.564 -2.1737 0.694674 0
M  V30 1941 C 195.542 -1.59745 -0.303373 0
M  V30 1942 O 196.726 -1.87408 -0.202578 0
M  V30 1943 C 193.853 -3.38691 0.0248052 0
M  V30 1944 C 192.899 -4.14943 0.986121 0
M  V30 1945 S 193.732 -4.73413 2.50281 0
M  V30 1946 C 194.888 -5.9807 1.84562 0
M  V30 1947 H 195.121 -2.5168 1.58255 0
M  V30 1948 H 192.654 -1.23998 0.919992 0
M  V30 1949 H 194.612 -4.08959 -0.355361 0
M  V30 1950 H 193.273 -3.02664 -0.839851 0
M  V30 1951 H 192.466 -5.01854 0.464651 0
M  V30 1952 H 192.068 -3.50377 1.30813 0
M  V30 1953 H 194.36 -6.67232 1.17507 0
M  V30 1954 H 195.303 -6.54841 2.69423 0
M  V30 1955 H 195.711 -5.49073 1.31069 0
M  V30 1956 N 195.109 -0.891671 -1.2995 0
M  V30 1957 C 196.386 -0.433307 -1.9074 0
M  V30 1958 C 196.766 1.08646 -1.80995 0
M  V30 1959 O 196.114 1.92476 -1.23147 0
M  V30 1960 C 196.324 -0.938895 -3.36134 0
M  V30 1961 C 197.672 -0.977829 -4.13187 0
M  V30 1962 O 198.696 -0.886015 -3.45005 0
M  V30 1963 O 197.555 -1.11453 -5.35015 0
M  V30 1964 H 194.649 -0.133699 -0.816121 0
M  V30 1965 H 197.195 -0.981011 -1.38471 0
M  V30 1966 H 195.967 -1.98281 -3.37343 0
M  V30 1967 H 195.59 -0.37074 -3.95868 0
M  V30 1968 N 196.587 1.43421 -0.653314 0
M  V30 1969 C 197.812 2.06678 -0.172846 0
M  V30 1970 C 198.237 1.48648 1.15262 0
M  V30 1971 O 197.595 0.596457 1.71208 0
M  V30 1972 C 197.643 3.60474 -0.0953184 0
M  V30 1973 O 196.747 4.01487 0.942442 0
M  V30 1974 H 196.088 0.657181 -0.0949155 0
M  V30 1975 H 198.618 1.83925 -0.896265 0
M  V30 1976 H 198.628 4.07905 0.0879728 0
M  V30 1977 H 197.303 4.02088 -1.06291 0
M  V30 1978 H 195.88 3.65646 0.731932 0
M  V30 1979 N 198.065 0.39524 1.52563 0
M  V30 1980 C 199.481 0.0454682 1.59535 0
M  V30 1981 C 199.681 -1.44056 1.4089 0
M  V30 1982 O 198.737 -2.20579 1.22888 0
M  V30 1983 C 200.05 0.527963 2.96029 0
M  V30 1984 C 201.598 0.484733 3.09224 0
M  V30 1985 C 202.073 0.943512 4.48176 0
M  V30 1986 N 203.564 0.899765 4.54377 0
M  V30 1987 C 204.299 1.22609 5.60138 0
M  V30 1988 N 203.795 1.62319 6.73516 0
M  V30 1989 N 205.588 1.14696 5.50274 0
M  V30 1990 H 197.739 1.36261 1.62931 0
M  V30 1991 H 200.002 0.558887 0.765735 0
M  V30 1992 H 199.708 1.56607 3.14908 0
M  V30 1993 H 199.582 -0.0698056 3.77135 0
M  V30 1994 H 201.969 -0.544298 2.90037 0
M  V30 1995 H 202.05 1.11838 2.30056 0
M  V30 1996 H 201.694 1.9708 4.68104 0
M  V30 1997 H 201.624 0.286817 5.25818 0
M  V30 1998 H 204.115 0.607632 3.72983 0
M  V30 1999 H 204.428 1.85567 7.5019 0
M  V30 2000 H 202.773 1.66211 6.74833 0
M  V30 2001 H 205.964 0.835701 4.6058 0
M  V30 2002 H 206.137 1.40459 6.32594 0
M  V30 2003 N 199.544 -1.57102 0.125237 0
M  V30 2004 C 200.96 -1.57915 -0.231322 0
M  V30 2005 C 201.16 -1.13833 -1.66266 0
M  V30 2006 O 200.216 -0.828581 -2.38518 0
M  V30 2007 C 201.529 -3.00699 0.00766489 0
M  V30 2008 C 203.077 -3.12947 -0.0577483 0
M  V30 2009 C 203.552 -4.57742 0.153626 0
M  V30 2010 N 205.043 -4.63092 0.0998073 0
M  V30 2011 C 205.778 -5.72905 0.238174 0
M  V30 2012 N 205.274 -6.91445 0.433057 0
M  V30 2013 N 207.067 -5.6182 0.177308 0
M  V30 2014 H 199.218 -1.84055 1.06007 0
M  V30 2015 H 201.481 -0.850905 0.417929 0
M  V30 2016 H 201.187 -3.3726 0.997431 0
M  V30 2017 H 201.061 -3.70236 -0.721452 0
M  V30 2018 H 203.448 -2.7624 -1.03804 0
M  V30 2019 H 203.529 -2.4594 0.70335 0
M  V30 2020 H 203.173 -4.95149 1.13092 0
M  V30 2021 H 203.103 -5.22848 -0.627534 0
M  V30 2022 H 205.594 -3.77871 -0.047051 0
M  V30 2023 H 205.907 -7.70985 0.529332 0
M  V30 2024 H 204.252 -6.93415 0.469109 0
M  V30 2025 H 207.443 -4.68093 0.0259748 0
M  V30 2026 H 207.616 -6.47357 0.288582 0
M  V30 2027 N 201.022 0.148545 -1.56898 0
M  V30 2028 C 202.25 0.876389 -1.87422 0
M  V30 2029 C 202.665 1.74809 -0.713256 0
M  V30 2030 O 202.022 1.79725 0.317025 0
M  V30 2031 C 202.073 1.73438 -3.17178 0
M  V30 2032 O 201.794 0.897809 -4.28802 0
M  V30 2033 C 203.295 2.56993 -3.61205 0
M  V30 2034 H 200.515 0.253489 -0.621277 0
M  V30 2035 H 203.059 0.141798 -2.04008 0
M  V30 2036 H 201.214 2.42205 -3.0235 0
M  V30 2037 H 201.628 1.48672 -5.02988 0
M  V30 2038 H 203.102 3.12773 -4.54838 0
M  V30 2039 H 203.579 3.32958 -2.86419 0
M  V30 2040 H 204.185 1.9352 -3.78722 0
M  V30 2041 N 202.5 1.5196 0.417844 0
M  V30 2042 C 203.43 1.77634 1.51554 0
M  V30 2043 C 204.411 0.626918 1.58126 0
M  V30 2044 O 205.596 0.871632 1.7354 0
M  V30 2045 C 202.726 1.91911 2.8946 0
M  V30 2046 C 201.68 3.07463 2.97743 0
M  V30 2047 C 201.006 3.06951 4.37819 0
M  V30 2048 C 202.306 4.47082 2.70027 0
M  V30 2049 H 204 2.6955 1.3032 0
M  V30 2050 H 201.546 1.29706 0.625492 0
M  V30 2051 H 203.499 2.08455 3.6623 0
M  V30 2052 H 202.223 0.966598 3.11969 0
M  V30 2053 H 200.882 2.90656 2.23416 0
M  V30 2054 H 200.53 2.09438 4.57323 0
M  V30 2055 H 200.23 3.84556 4.44286 0
M  V30 2056 H 201.754 3.25613 5.16535 0
M  V30 2057 H 203.168 4.6414 3.36522 0
M  V30 2058 H 201.565 5.2654 2.87881 0
M  V30 2059 H 202.635 4.55777 1.65514 0
M  V30 2060 N 203.978 -0.674533 1.42435 0
M  V30 2061 C 205.389 -1.25514 1.38214 0
M  V30 2062 C 205.74 -1.96055 0.0755464 0
M  V30 2063 O 204.865 -2.00028 -0.8257 0
M  V30 2064 C 205.46 -2.28269 2.50357 0
M  V30 2065 C 204.019 -2.81856 2.49467 0
M  V30 2066 C 203.166 -1.56182 2.29134 0
M  V30 2067 H 206.117 -0.467902 1.51646 0
M  V30 2068 H 206.138 -3.10009 2.20624 0
M  V30 2069 H 205.65 -1.769 3.45439 0
M  V30 2070 H 203.751 -3.37346 1.58204 0
M  V30 2071 H 203.864 -3.30854 3.46515 0
M  V30 2072 H 202.228 -1.82761 1.774 0
M  V30 2073 H 203.011 -1.06778 3.26272 0
M  V30 2074 N 205.456 -1.28612 -0.910864 0
M  V30 2075 C 206.419 -1.12803 -1.9952 0
M  V30 2076 C 207.419 -0.0668264 -1.60661 0
M  V30 2077 O 208.609 -0.312847 -1.71368 0
M  V30 2078 C 205.741 -0.72254 -3.33155 0
M  V30 2079 H 206.934 -2.09109 -2.14973 0
M  V30 2080 H 204.487 -1.11639 -1.09391 0
M  V30 2081 H 205.222 0.241152 -3.23402 0
M  V30 2082 H 205.007 -1.48916 -3.62721 0
M  V30 2083 H 206.497 -0.634666 -4.12749 0
M  V30 2084 N 206.934 1.1197 -1.10907 0
M  V30 2085 C 208.183 1.82947 -0.849302 0
M  V30 2086 C 208.496 1.85275 0.627112 0
M  V30 2087 O 209.702 2.52296 1.00295 0
M  V30 2088 C 208.158 3.28529 -1.46959 0
M  V30 2089 C 207.766 3.34546 -2.97965 0
M  V30 2090 C 209.51 4.04443 -1.28942 0
M  V30 2091 C 207.417 4.74491 -3.53004 0
M  V30 2092 H 206.347 0.685477 -0.314065 0
M  V30 2093 H 208.998 1.2604 -1.33365 0
M  V30 2094 H 207.38 3.85333 -0.912917 0
M  V30 2095 H 208.554 2.87654 -3.59989 0
M  V30 2096 H 206.869 2.72108 -3.15192 0
M  V30 2097 H 209.466 5.07787 -1.67502 0
M  V30 2098 H 209.809 4.15656 -0.231456 0
M  V30 2099 H 210.342 3.5401 -1.81443 0
M  V30 2100 H 207.081 4.68474 -4.58489 0
M  V30 2101 H 206.601 5.21816 -2.9575 0
M  V30 2102 H 208.28 5.4344 -3.51115 0
M  V30 2103 N 208.412 0.89855 1.29475 0
M  V30 2104 C 209.828 0.594483 1.48115 0
M  V30 2105 C 210.028 -0.86431 1.82022 0
M  V30 2106 O 209.084 -1.64457 1.91599 0
M  V30 2107 C 210.397 1.51932 2.59494 0
M  V30 2108 C 211.945 1.5244 2.7337 0
M  V30 2109 C 212.42 2.43548 3.87877 0
M  V30 2110 N 213.911 2.41589 3.95208 0
M  V30 2111 C 214.646 3.08789 4.83153 0
M  V30 2112 N 214.142 3.85265 5.75798 0
M  V30 2113 N 215.935 2.97952 4.76635 0
M  V30 2114 H 208.086 1.84207 1.05742 0
M  V30 2115 H 210.349 0.789251 0.525154 0
M  V30 2116 H 210.055 2.55865 2.41301 0
M  V30 2117 H 209.929 1.23899 3.56271 0
M  V30 2118 H 212.316 0.492518 2.90961 0
M  V30 2119 H 212.397 1.8451 1.77172 0
M  V30 2120 H 212.041 3.46829 3.71041 0
M  V30 2121 H 211.971 2.08788 4.83441 0
M  V30 2122 H 214.462 1.86025 3.28943 0
M  V30 2123 H 214.775 4.33598 6.39697 0
M  V30 2124 H 213.12 3.89371 5.75687 0
M  V30 2125 H 216.311 2.37723 4.03244 0
M  V30 2126 H 216.484 3.50599 5.44962 0
M  V30 2127 N 209.89 -1.43072 0.660911 0
M  V30 2128 C 210.853 -2.29194 -0.0166406 0
M  V30 2129 C 211.853 -1.42609 -0.742912 0
M  V30 2130 O 213.043 -1.64155 -0.583004 0
M  V30 2131 C 210.175 -3.24831 -1.0343 0
M  V30 2132 H 211.368 -2.90596 0.741208 0
M  V30 2133 H 208.921 -1.5048 0.422532 0
M  V30 2134 H 209.656 -2.68339 -1.82111 0
M  V30 2135 H 209.441 -3.88676 -0.517082 0
M  V30 2136 H 210.931 -3.89451 -1.50723 0
M  V30 2137 N 211.368 -0.403325 -1.52352 0
M  V30 2138 C 212.616 0.174003 -2.0135 0
M  V30 2139 C 212.937 1.46139 -1.29106 0
M  V30 2140 O 212.207 1.91448 -0.415253 0
M  V30 2141 H 210.787 0.0672911 -0.743963 0
M  V30 2142 H 213.449 -0.538235 -1.87321 0
M  V30 2143 H 212.545 0.374254 -3.09848 0
M  V30 2144 N 212.846 1.57033 -0.133567 0
M  V30 2145 C 213.756 2.19632 0.824564 0
M  V30 2146 C 214.772 1.17666 1.28182 0
M  V30 2147 O 215.948 1.50193 1.3418 0
M  V30 2148 C 213.013 2.79499 2.05137 0
M  V30 2149 C 212.074 3.96548 1.64464 0
M  V30 2150 C 211.307 4.5355 2.81297 0
M  V30 2151 O 211.53 4.09438 3.97136 0
M  V30 2152 O 210.464 5.44018 2.57542 0
M  V30 2153 H 214.29 3.01991 0.321766 0
M  V30 2154 H 211.875 1.49112 0.0927889 0
M  V30 2155 H 213.757 3.17602 2.7696 0
M  V30 2156 H 212.432 2.00162 2.54395 0
M  V30 2157 H 211.339 3.63186 0.897048 0
M  V30 2158 H 212.672 4.77364 1.19934 0
M  V30 2159 N 214.325 -0.140222 1.56975 0
M  V30 2160 C 215.555 -0.865181 1.87612 0
M  V30 2161 C 215.963 -1.74942 0.72055 0
M  V30 2162 O 215.306 -1.80917 -0.318561 0
M  V30 2163 C 215.368 -1.76782 3.13031 0
M  V30 2164 C 215.032 -1.06005 4.44536 0
M  V30 2165 C 216.029 -0.410768 5.18275 0
M  V30 2166 C 213.714 -1.04754 4.91255 0
M  V30 2167 C 215.708 0.241572 6.36942 0
M  V30 2168 C 213.395 -0.391394 6.09845 0
M  V30 2169 C 214.393 0.252029 6.82535 0
M  V30 2170 O 214.081 0.897757 7.98871 0
M  V30 2171 H 213.813 -0.255188 0.625983 0
M  V30 2172 H 216.367 -0.135653 2.04952 0
M  V30 2173 H 214.597 -2.53846 2.91718 0
M  V30 2174 H 216.286 -2.36533 3.29859 0
M  V30 2175 H 217.052 -0.412195 4.83245 0
M  V30 2176 H 212.931 -1.53777 4.34596 0
M  V30 2177 H 216.475 0.744375 6.93617 0
M  V30 2178 H 212.372 -0.387656 6.44335 0
M  V30 2179 H 213.14 0.800102 8.1458 0
M  V30 2180 N 215.803 -1.52179 -0.40978 0
M  V30 2181 C 216.713 -1.78364 -1.52392 0
M  V30 2182 C 217.729 -0.669183 -1.60617 0
M  V30 2183 O 218.905 -0.954518 -1.77344 0
M  V30 2184 C 215.97 -1.92822 -2.88133 0
M  V30 2185 C 215.031 -3.16725 -2.898 0
M  V30 2186 C 214.264 -3.30483 -4.19067 0
M  V30 2187 O 214.487 -2.49522 -5.12928 0
M  V30 2188 O 213.421 -4.2363 -4.27576 0
M  V30 2189 H 217.247 -2.72931 -1.33201 0
M  V30 2190 H 214.832 -1.37016 -0.59557 0
M  V30 2191 H 216.714 -2.04157 -3.68643 0
M  V30 2192 H 215.389 -1.01444 -3.07393 0
M  V30 2193 H 214.296 -3.10848 -2.08146 0
M  V30 2194 H 215.629 -4.07881 -2.75489 0
M  V30 2195 N 217.281 0.66697 -1.42791 0
M  V30 2196 C 218.244 1.76211 -1.46568 0
M  V30 2197 C 219.244 1.56896 -0.352196 0
M  V30 2198 O 220.434 1.63044 -0.613364 0
M  V30 2199 C 217.566 3.14935 -1.30494 0
M  V30 2200 H 218.759 1.74247 -2.44086 0
M  V30 2201 H 216.312 0.877342 -1.29354 0
M  V30 2202 H 217.047 3.2252 -0.339301 0
M  V30 2203 H 216.832 3.30359 -2.11199 0
M  V30 2204 H 218.322 3.94821 -1.36038 0
M  V30 2205 N 218.759 1.29093 0.90403 0
M  V30 2206 C 219.689 1.16401 2.02418 0
M  V30 2207 C 220.67 0.0593085 1.69997 0
M  V30 2208 O 221.855 0.238021 1.92736 0
M  V30 2209 C 218.985 0.835233 3.37107 0
M  V30 2210 C 217.939 1.89578 3.83724 0
M  V30 2211 C 217.265 1.42041 5.15489 0
M  V30 2212 C 218.565 3.30394 4.04521 0
M  V30 2213 H 220.259 2.10109 2.13295 0
M  V30 2214 H 217.805 1.01157 1.02486 0
M  V30 2215 H 219.758 0.733169 4.14973 0
M  V30 2216 H 218.482 -0.137543 3.2631 0
M  V30 2217 H 217.141 1.98715 3.08071 0
M  V30 2218 H 216.789 0.436426 5.01103 0
M  V30 2219 H 216.489 2.12964 5.4765 0
M  V30 2220 H 218.013 1.33176 5.959 0
M  V30 2221 H 219.427 3.24123 4.72882 0
M  V30 2222 H 217.824 3.99237 4.48029 0
M  V30 2223 H 218.894 3.73692 3.09002 0
M  V30 2224 N 220.237 -1.11381 1.11499 0
M  V30 2225 C 221.648 -1.6465 0.880191 0
M  V30 2226 C 221.999 -1.87199 -0.587434 0
M  V30 2227 O 221.124 -1.60667 -1.44966 0
M  V30 2228 C 221.719 -2.99105 1.59128 0
M  V30 2229 C 220.278 -3.49279 1.40289 0
M  V30 2230 C 219.425 -2.24077 1.63354 0
M  V30 2231 H 222.376 -0.950123 1.27116 0
M  V30 2232 H 222.397 -3.66107 1.03664 0
M  V30 2233 H 221.909 -2.82661 2.65941 0
M  V30 2234 H 220.01 -3.70887 0.356888 0
M  V30 2235 H 220.123 -4.2803 2.15238 0
M  V30 2236 H 218.487 -2.31733 1.05698 0
M  V30 2237 H 219.27 -2.10175 2.71443 0
M  V30 2238 N 221.715 -0.905404 -1.28997 0
M  V30 2239 C 222.662 -0.385892 -2.27551 0
M  V30 2240 C 223.632 0.535113 -1.57244 0
M  V30 2241 O 224.817 0.459119 -1.85194 0
M  V30 2242 C 221.957 0.375461 -3.43051 0
M  V30 2243 C 221.07 -0.577092 -4.28128 0
M  V30 2244 C 220.205 0.201879 -5.30816 0
M  V30 2245 C 219.244 -0.744829 -6.07551 0
M  V30 2246 N 218.381 9.42587e-05 -7.021 0
M  V30 2247 H 223.221 -1.23139 -2.71368 0
M  V30 2248 H 220.758 -0.618542 -1.33463 0
M  V30 2249 H 222.716 0.832992 -4.088 0
M  V30 2250 H 221.346 1.18537 -3.00248 0
M  V30 2251 H 220.398 -1.15315 -3.62501 0
M  V30 2252 H 221.71 -1.30152 -4.8152 0
M  V30 2253 H 220.864 0.720351 -6.02408 0
M  V30 2254 H 219.603 0.959413 -4.7817 0
M  V30 2255 H 218.608 -1.27475 -5.34818 0
M  V30 2256 H 219.833 -1.50178 -6.62286 0
M  V30 2257 H 217.779 0.739791 -6.51815 0
M  V30 2258 H 217.696 -0.664321 -7.53076 0
M  V30 2259 H 218.964 0.498644 -7.77903 0
M  V30 2260 N 223.193 1.4272 -0.668489 0
M  V30 2261 C 224.14 2.30796 0.0137489 0
M  V30 2262 C 225.11 1.4561 0.799177 0
M  V30 2263 O 226.295 1.74453 0.772702 0
M  V30 2264 C 223.435 3.31377 0.963507 0
M  V30 2265 C 222.548 4.31655 0.172569 0
M  V30 2266 C 221.683 5.19312 1.1175 0
M  V30 2267 C 220.722 6.11274 0.317886 0
M  V30 2268 N 219.859 6.91504 1.2152 0
M  V30 2269 H 224.699 2.88585 -0.743161 0
M  V30 2270 H 222.236 1.42154 -0.378226 0
M  V30 2271 H 224.194 3.88214 1.52792 0
M  V30 2272 H 222.824 2.75202 1.68712 0
M  V30 2273 H 221.876 3.76988 -0.508374 0
M  V30 2274 H 223.188 4.96779 -0.448527 0
M  V30 2275 H 222.342 5.80851 1.75206 0
M  V30 2276 H 221.081 4.5435 1.77249 0
M  V30 2277 H 220.086 5.48809 -0.329918 0
M  V30 2278 H 221.311 6.78283 -0.332917 0
M  V30 2279 H 219.257 6.29176 1.85671 0
M  V30 2280 H 219.174 7.53209 0.649036 0
M  V30 2281 H 220.442 7.57535 1.83742 0
M  V30 2282 N 224.671 0.411399 1.52136 0
M  V30 2283 C 225.601 -0.404015 2.29978 0
M  V30 2284 C 226.582 -1.04412 1.34284 0
M  V30 2285 O 227.767 -1.0527 1.63192 0
M  V30 2286 C 224.897 -1.5197 3.12286 0
M  V30 2287 C 223.851 -1.00448 4.16046 0
M  V30 2288 C 223.177 -2.21393 4.86712 0
M  V30 2289 C 224.477 -0.0569336 5.22269 0
M  V30 2290 H 226.171 0.245529 2.98392 0
M  V30 2291 H 223.717 0.119525 1.43503 0
M  V30 2292 H 225.67 -2.09715 3.6551 0
M  V30 2293 H 224.394 -2.19716 2.41646 0
M  V30 2294 H 223.053 -0.449421 3.63835 0
M  V30 2295 H 222.701 -2.87699 4.12599 0
M  V30 2296 H 222.401 -1.87571 5.56858 0
M  V30 2297 H 223.925 -2.7974 5.4275 0
M  V30 2298 H 225.339 -0.54325 5.7072 0
M  V30 2299 H 223.736 0.192594 5.99791 0
M  V30 2300 H 224.806 0.887663 4.76706 0
M  V30 2301 N 226.149 -1.5696 0.141893 0
M  V30 2302 C 227.081 -2.13619 -0.830627 0
M  V30 2303 C 228.094 -1.08439 -1.21428 0
M  V30 2304 O 229.283 -1.35734 -1.15925 0
M  V30 2305 C 226.383 -2.63978 -2.12529 0
M  V30 2306 C 225.556 -3.93504 -1.9098 0
M  V30 2307 C 224.615 -4.29225 -3.04388 0
M  V30 2308 O 223.641 -4.97641 -2.76302 0
M  V30 2309 N 224.843 -3.88393 -4.31429 0
M  V30 2310 H 227.608 -2.97691 -0.34641 0
M  V30 2311 H 225.169 -1.61846 -0.0418375 0
M  V30 2312 H 227.161 -2.84891 -2.87436 0
M  V30 2313 H 225.731 -1.84659 -2.52229 0
M  V30 2314 H 224.951 -3.81269 -1.00139 0
M  V30 2315 H 226.239 -4.78154 -1.73914 0
M  V30 2316 H 225.637 -3.33257 -4.57117 0
M  V30 2317 H 224.194 -4.14368 -5.03133 0
M  V30 2318 N 227.627 0.131896 -1.57047 0
M  V30 2319 C 228.559 1.1878 -1.9602 0
M  V30 2320 C 229.572 1.38363 -0.857875 0
M  V30 2321 O 230.761 1.37666 -1.13623 0
M  V30 2322 C 227.861 2.55008 -2.23213 0
M  V30 2323 C 227.034 2.56201 -3.54513 0
M  V30 2324 C 226.093 3.7408 -3.70069 0
M  V30 2325 O 225.119 3.58258 -4.42312 0
M  V30 2326 N 226.321 4.92137 -3.07866 0
M  V30 2327 H 229.086 0.85639 -2.87204 0
M  V30 2328 H 226.647 0.321309 -1.5868 0
M  V30 2329 H 228.639 3.32404 -2.30846 0
M  V30 2330 H 227.209 2.80382 -1.3822 0
M  V30 2331 H 226.429 1.64613 -3.58185 0
M  V30 2332 H 227.717 2.54043 -4.4084 0
M  V30 2333 H 227.115 5.07895 -2.49116 0
M  V30 2334 H 225.672 5.67254 -3.21039 0
M  V30 2335 N 229.106 1.52395 0.401703 0
M  V30 2336 C 230.069 1.75636 1.47257 0
M  V30 2337 C 231.069 0.62628 1.48103 0
M  V30 2338 O 232.259 0.894227 1.49497 0
M  V30 2339 C 229.391 1.84553 2.86624 0
M  V30 2340 H 230.584 2.71241 1.27938 0
M  V30 2341 H 228.137 1.42923 0.632662 0
M  V30 2342 H 228.872 0.908882 3.11303 0
M  V30 2343 H 228.657 2.66715 2.87412 0
M  V30 2344 H 230.147 2.04251 3.64241 0
M  V30 2345 N 230.584 -0.659388 1.43143 0
M  V30 2346 C 231.861 -1.41627 1.34912 0
M  V30 2347 C 232.241 -2.11099 -0.00607785 0
M  V30 2348 O 231.589 -2.04353 -1.02236 0
M  V30 2349 C 231.799 -2.40604 2.52805 0
M  V30 2350 C 233.147 -3.04789 2.95616 0
M  V30 2351 O 234.171 -2.50932 2.52807 0
M  V30 2352 O 233.03 -4.02421 3.69756 0
M  V30 2353 H 230.124 -0.63246 0.532844 0
M  V30 2354 H 232.67 -0.686814 1.5518 0
M  V30 2355 H 231.442 -1.88174 3.43083 0
M  V30 2356 H 231.065 -3.21009 2.34604 0
M  V30 2357 N 232.062 -1.29571 -0.897171 0
M  V30 2358 C 233.308 -1.18873 -1.65048 0
M  V30 2359 C 233.663 0.256707 -1.9068 0
M  V30 2360 O 232.956 1.18202 -1.50794 0
M  V30 2361 C 233.15 -1.9382 -3.00281 0
M  V30 2362 C 232.979 -3.45503 -2.8785 0
M  V30 2363 C 231.749 -4.14856 -2.88483 0
M  V30 2364 C 233.947 -4.40956 -2.64693 0
M  V30 2365 N 231.929 -5.52886 -2.66815 0
M  V30 2366 C 233.3 -5.66464 -2.5203 0
M  V30 2367 C 235.355 -4.3069 -2.49821 0
M  V30 2368 C 234.058 -6.82871 -2.26008 0
M  V30 2369 C 236.084 -5.46852 -2.25182 0
M  V30 2370 C 235.446 -6.71333 -2.13286 0
M  V30 2371 H 231.545 -0.489998 -0.609447 0
M  V30 2372 H 234.129 -1.63431 -1.05822 0
M  V30 2373 H 232.3 -1.51671 -3.57562 0
M  V30 2374 H 234.032 -1.75366 -3.64731 0
M  V30 2375 H 230.787 -3.66579 -2.99861 0
M  V30 2376 H 231.211 -6.25487 -2.59027 0
M  V30 2377 H 235.853 -3.35141 -2.5776 0
M  V30 2378 H 233.571 -7.78473 -2.16806 0
M  V30 2379 H 237.157 -5.40809 -2.14515 0
M  V30 2380 H 236.037 -7.59701 -1.94485 0
M  V30 2381 N 233.54 1.10788 -1.12088 0
M  V30 2382 C 234.503 2.15207 -0.788577 0
M  V30 2383 C 235.503 1.59609 0.195317 0
M  V30 2384 O 236.693 1.74174 -0.0300193 0
M  V30 2385 C 233.825 3.4047 -0.171174 0
M  V30 2386 H 235.018 2.46116 -1.71368 0
M  V30 2387 H 232.571 1.26089 -0.923652 0
M  V30 2388 H 233.306 3.15176 0.763832 0
M  V30 2389 H 233.091 3.82109 -0.879514 0
M  V30 2390 H 234.581 4.17576 0.04496 0
M  V30 2391 N 235.018 0.912232 1.28515 0
M  V30 2392 C 236.429 0.591352 1.77087 0
M  V30 2393 C 236.78 -0.8933 1.74684 0
M  V30 2394 O 235.905 -1.69876 1.34056 0
M  V30 2395 C 236.5 1.06668 3.2157 0
M  V30 2396 C 235.059 0.79675 3.67871 0
M  V30 2397 C 234.206 1.23427 2.48316 0
M  V30 2398 H 237.157 1.09365 1.15 0
M  V30 2399 H 237.178 0.407455 3.78312 0
M  V30 2400 H 236.69 2.14726 3.23287 0
M  V30 2401 H 234.791 -0.270679 3.71616 0
M  V30 2402 H 234.904 1.40343 4.58084 0
M  V30 2403 H 233.268 0.653036 2.46186 0
M  V30 2404 H 234.051 2.32316 2.52753 0
M  V30 2405 N 236.496 -1.42363 0.676048 0
M  V30 2406 C 237.773 -1.95183 0.127726 0
M  V30 2407 C 238.153 -1.61641 -1.35777 0
M  V30 2408 O 237.501 -0.913216 -2.09458 0
M  V30 2409 C 237.711 -3.46721 0.398199 0
M  V30 2410 C 239.059 -4.23427 0.315383 0
M  V30 2411 O 240.083 -3.54649 0.332016 0
M  V30 2412 O 238.942 -5.45888 0.25865 0
M  V30 2413 H 236.036 -0.826992 0.00359427 0
M  V30 2414 H 238.582 -1.52184 0.750864 0
M  V30 2415 H 237.354 -3.64344 1.4272 0
M  V30 2416 H 236.977 -3.96769 -0.256885 0
M  V30 2417 N 237.974 -0.419461 -1.51915 0
M  V30 2418 C 239.221 0.152939 -2.01922 0
M  V30 2419 C 239.549 1.4426 -1.30458 0
M  V30 2420 O 238.804 1.91514 -0.402593 0
M  V30 2421 C 239.103 0.437067 -3.54717 0
M  V30 2422 C 238.769 -0.764632 -4.44369 0
M  V30 2423 C 237.431 -1.09423 -4.68594 0
M  V30 2424 C 239.783 -1.56713 -4.97082 0
M  V30 2425 C 237.111 -2.22732 -5.42777 0
M  V30 2426 C 239.463 -2.69107 -5.72507 0
M  V30 2427 C 238.127 -3.02541 -5.95 0
M  V30 2428 H 237.397 0.0559644 -0.738884 0
M  V30 2429 H 240.044 -0.562998 -1.83037 0
M  V30 2430 H 238.349 1.23469 -3.71837 0
M  V30 2431 H 240.046 0.893083 -3.90928 0
M  V30 2432 H 236.636 -0.497775 -4.257 0
M  V30 2433 H 240.82 -1.32571 -4.78266 0
M  V30 2434 H 236.076 -2.48971 -5.58411 0
M  V30 2435 H 240.25 -3.31671 -6.12346 0
M  V30 2436 H 237.877 -3.90457 -6.52264 0
M  V30 2437 N 239.452 1.56882 -0.150215 0
M  V30 2438 C 240.7 1.9584 0.499105 0
M  V30 2439 C 241.021 1.03623 1.65188 0
M  V30 2440 O 240.291 0.0984084 1.95653 0
M  V30 2441 H 238.871 0.723119 0.187373 0
M  V30 2442 H 241.533 1.9358 -0.226466 0
M  V30 2443 H 240.629 2.99638 0.873122 0
M  V30 2444 N 240.93 -0.123565 1.57115 0
M  V30 2445 C 242.341 -0.681198 1.73829 0
M  V30 2446 C 242.692 -1.80535 0.768214 0
M  V30 2447 O 241.817 -2.16317 -0.0599103 0
M  V30 2448 C 242.412 -1.24246 3.15196 0
M  V30 2449 C 240.971 -1.74643 3.33432 0
M  V30 2450 C 240.118 -0.644284 2.69711 0
M  V30 2451 H 243.069 0.102315 1.5837 0
M  V30 2452 H 243.09 -2.11216 3.16493 0
M  V30 2453 H 242.602 -0.424062 3.85776 0
M  V30 2454 H 240.703 -2.58974 2.67886 0
M  V30 2455 H 240.816 -1.85902 4.41562 0
M  V30 2456 H 239.18 -1.07676 2.3082 0
M  V30 2457 H 239.963 0.163058 3.42913 0
M  V30 2458 N 242.408 -1.52605 -0.393616 0
M  V30 2459 C 243.633 -1.71592 -1.16495 0
M  V30 2460 C 244.058 -0.43133 -1.83088 0
M  V30 2461 O 243.416 0.612523 -1.7064 0
M  V30 2462 C 243.464 -2.86318 -2.19213 0
M  V30 2463 O 242.568 -2.52969 -3.257 0
M  V30 2464 H 241.909 -0.570734 -0.33935 0
M  V30 2465 H 244.439 -1.99377 -0.459324 0
M  V30 2466 H 244.449 -3.1168 -2.63286 0
M  V30 2467 H 243.124 -3.79511 -1.7013 0
M  V30 2468 H 241.701 -2.38332 -2.86797 0
M  V30 2469 N 243.887 0.651787 -1.4349 0
M  V30 2470 C 245.112 1.44434 -1.48841 0
M  V30 2471 C 245.537 1.8779 -0.107955 0
M  V30 2472 O 244.895 1.57464 0.898602 0
M  V30 2473 C 244.943 2.65458 -2.44059 0
M  V30 2474 O 244.047 3.64566 -1.92784 0
M  V30 2475 H 243.388 0.433005 -0.503391 0
M  V30 2476 H 245.918 0.797451 -1.88419 0
M  V30 2477 H 245.928 3.13255 -2.6141 0
M  V30 2478 H 244.603 2.33244 -3.4434 0
M  V30 2479 H 243.18 3.23716 -1.851 0
M  V30 2480 N 245.365 1.30045 0.890287 0
M  V30 2481 C 246.612 1.18561 1.64163 0
M  V30 2482 C 246.94 -0.260852 1.92743 0
M  V30 2483 O 246.195 -1.20376 1.54299 0
M  V30 2484 C 246.494 1.95409 2.99249 0
M  V30 2485 C 246.16 3.45066 2.90242 0
M  V30 2486 C 244.822 3.85878 2.87492 0
M  V30 2487 C 247.174 4.4039 2.78758 0
M  V30 2488 C 244.502 5.20314 2.7109 0
M  V30 2489 C 246.854 5.74928 2.63894 0
M  V30 2490 C 245.518 6.14986 2.59516 0
M  V30 2491 H 244.788 0.433846 0.600715 0
M  V30 2492 H 247.435 1.61088 1.03552 0
M  V30 2493 H 245.74 1.45501 3.63781 0
M  V30 2494 H 247.437 1.8392 3.56334 0
M  V30 2495 H 244.027 3.12631 2.93189 0
M  V30 2496 H 248.211 4.09806 2.79952 0
M  V30 2497 H 243.467 5.50449 2.66112 0
M  V30 2498 H 247.641 6.48434 2.53981 0
M  V30 2499 H 245.268 7.19104 2.46565 0
M  V30 2500 N 246.843 -1.10192 1.12674 0
M  V30 2501 C 248.089 -1.82475 0.884915 0
M  V30 2502 C 248.422 -1.85093 -0.58773 0
M  V30 2503 O 247.697 -1.3134 -1.43457 0
M  V30 2504 C 247.98 -3.29018 1.46353 0
M  V30 2505 C 247.833 -3.34718 3.00473 0
M  V30 2506 C 249.152 -4.25473 1.12519 0
M  V30 2507 H 246.271 -0.662492 0.322915 0
M  V30 2508 H 248.913 -1.2913 1.39375 0
M  V30 2509 H 247.063 -3.74576 1.03077 0
M  V30 2510 H 248.735 -2.97622 3.52447 0
M  V30 2511 H 246.978 -2.74541 3.35872 0
M  V30 2512 H 247.649 -4.37918 3.36053 0
M  V30 2513 H 250.125 -3.88161 1.499 0
M  V30 2514 H 249.001 -5.26365 1.55663 0
M  V30 2515 H 249.262 -4.42084 0.0377407 0
M  V30 2516 N 248.321 -0.919034 -1.28029 0
M  V30 2517 C 249.732 -0.600735 -1.76771 0
M  V30 2518 C 250.083 0.884024 -1.75156 0
M  V30 2519 O 249.208 1.69163 -1.34956 0
M  V30 2520 C 249.803 -1.08372 -3.21 0
M  V30 2521 C 248.362 -0.816248 -3.67443 0
M  V30 2522 C 247.509 -1.24742 -2.47658 0
M  V30 2523 H 250.46 -1.09974 -1.14418 0
M  V30 2524 H 250.481 -0.427512 -3.78091 0
M  V30 2525 H 249.993 -2.16437 -3.22144 0
M  V30 2526 H 248.094 0.250968 -3.71754 0
M  V30 2527 H 248.207 -1.4277 -4.57333 0
M  V30 2528 H 246.571 -0.666083 -2.45836 0
M  V30 2529 H 247.354 -2.33653 -2.51518 0
M  V30 2530 N 249.799 1.42003 -0.683588 0
M  V30 2531 C 251.024 2.06265 -0.216647 0
M  V30 2532 C 251.449 1.51059 1.12083 0
M  V30 2533 O 250.807 0.632638 1.69904 0
M  V30 2534 C 250.855 3.60191 -0.171759 0
M  V30 2535 O 249.959 4.03396 0.857069 0
M  V30 2536 H 249.3 0.65502 -0.108834 0
M  V30 2537 H 251.83 1.81982 -0.935077 0
M  V30 2538 H 251.84 4.08 0.0014303 0
M  V30 2539 H 250.515 3.99743 -1.14796 0
M  V30 2540 H 249.092 3.67117 0.654208 0
M  V30 2541 N 251.277 0.427512 1.51691 0
M  V30 2542 C 252.523 -0.134744 2.02953 0
M  V30 2543 C 252.878 -1.41235 1.30654 0
M  V30 2544 O 252.171 -1.87168 0.409713 0
M  V30 2545 C 252.365 -0.418249 3.54944 0
M  V30 2546 C 252.194 0.830327 4.41968 0
M  V30 2547 C 250.964 1.36097 4.86627 0
M  V30 2548 C 253.162 1.7137 4.84909 0
M  V30 2549 N 251.144 2.56311 5.57833 0
M  V30 2550 C 252.515 2.76195 5.55082 0
M  V30 2551 C 254.57 1.72928 4.66905 0
M  V30 2552 C 253.273 3.82512 6.09161 0
M  V30 2553 C 255.299 2.78175 5.21894 0
M  V30 2554 C 254.661 3.8172 5.92004 0
M  V30 2555 H 250.76 -0.0103958 0.781931 0
M  V30 2556 H 253.344 0.585981 1.85673 0
M  V30 2557 H 251.515 -1.10801 3.7226 0
M  V30 2558 H 253.247 -0.970999 3.92879 0
M  V30 2559 H 250.002 0.916311 4.64651 0
M  V30 2560 H 250.426 3.17242 5.98069 0
M  V30 2561 H 255.068 0.942081 4.12171 0
M  V30 2562 H 252.786 4.62077 6.62956 0
M  V30 2563 H 256.372 2.8031 5.09821 0
M  V30 2564 H 255.252 4.61821 6.33791 0
M  V30 2565 N 252.755 -1.56801 0.158532 0
M  V30 2566 C 254.003 -1.96102 -0.488712 0
M  V30 2567 C 254.324 -1.04498 -1.64636 0
M  V30 2568 O 253.594 -0.108783 -1.95598 0
M  V30 2569 H 252.174 -0.724102 -0.183535 0
M  V30 2570 H 254.836 -1.93457 0.236728 0
M  V30 2571 H 253.932 -3.00097 -0.857219 0
M  V30 2572 N 254.233 0.115231 -1.57178 0
M  V30 2573 C 255.196 1.12526 -1.99676 0
M  V30 2574 C 256.196 1.34095 -0.88742 0
M  V30 2575 O 257.386 1.30548 -1.15337 0
M  V30 2576 C 254.518 2.4789 -2.34015 0
M  V30 2577 H 255.711 0.759912 -2.90113 0
M  V30 2578 H 253.264 0.359648 -1.52106 0
M  V30 2579 H 253.999 2.89339 -1.4647 0
M  V30 2580 H 253.784 2.33588 -3.14927 0
M  V30 2581 H 255.274 3.20575 -2.67622 0
M  V30 2582 N 255.711 1.52812 0.385517 0
M  V30 2583 C 256.939 1.71907 1.15133 0
M  V30 2584 C 257.354 0.439004 1.83625 0
M  V30 2585 O 256.711 -0.586765 1.7281 0
M  V30 2586 C 256.762 2.87099 2.19673 0
M  V30 2587 O 256.483 4.10151 1.53973 0
M  V30 2588 C 257.984 3.17902 3.08955 0
M  V30 2589 H 255.204 0.575479 0.345057 0
M  V30 2590 H 257.748 1.99476 0.45052 0
M  V30 2591 H 255.903 2.61982 2.85384 0
M  V30 2592 H 256.317 4.74514 2.23465 0
M  V30 2593 H 257.791 4.01959 3.7833 0
M  V30 2594 H 258.268 2.3243 3.72657 0
M  V30 2595 H 258.874 3.44871 2.48885 0
M  V30 2596 N 257.189 -0.644168 1.43834 0
M  V30 2597 C 258.152 -1.73857 1.49353 0
M  V30 2598 C 259.152 -1.56315 0.377112 0
M  V30 2599 O 260.342 -1.62048 0.639226 0
M  V30 2600 C 257.474 -3.12819 1.35488 0
M  V30 2601 H 258.667 -1.70342 2.46827 0
M  V30 2602 H 256.22 -0.856652 1.30733 0
M  V30 2603 H 256.955 -3.2194 0.390569 0
M  V30 2604 H 256.74 -3.26958 2.16428 0
M  V30 2605 H 258.23 -3.92606 1.42302 0
M  V30 2606 N 258.668 -1.30515 -0.883378 0
M  V30 2607 C 259.896 -1.22359 -1.66841 0
M  V30 2608 C 260.311 0.213296 -1.87591 0
M  V30 2609 O 259.668 1.14075 -1.42454 0
M  V30 2610 C 259.719 -1.95011 -3.04389 0
M  V30 2611 O 259.44 -3.3309 -2.84575 0
M  V30 2612 C 260.941 -1.93532 -3.98824 0
M  V30 2613 H 258.161 -0.423371 -0.520575 0
M  V30 2614 H 260.705 -1.72167 -1.10357 0
M  V30 2615 H 258.86 -1.48997 -3.57601 0
M  V30 2616 H 259.274 -3.69907 -3.71846 0
M  V30 2617 H 260.748 -2.48902 -4.92699 0
M  V30 2618 H 261.225 -0.914627 -4.29571 0
M  V30 2619 H 261.831 -2.39364 -3.51547 0
M  V30 2620 N 260.146 1.09593 -1.13257 0
M  V30 2621 C 261.394 1.81375 -0.891492 0
M  V30 2622 C 261.715 1.86049 0.584009 0
M  V30 2623 O 260.985 1.34481 1.42449 0
M  V30 2624 H 259.565 0.671708 -0.326828 0
M  V30 2625 H 262.227 1.3256 -1.42877 0
M  V30 2626 H 261.323 2.84612 -1.28071 0
M  V30 2627 N 261.624 0.925811 1.2754 0
M  V30 2628 C 262.587 0.428129 2.25166 0
M  V30 2629 C 263.587 -0.452261 1.54309 0
M  V30 2630 O 264.777 -0.253608 1.72344 0
M  V30 2631 C 261.909 -0.384749 3.38722 0
M  V30 2632 H 263.102 1.29066 2.70706 0
M  V30 2633 H 260.655 0.706323 1.3943 0
M  V30 2634 H 261.39 -1.26618 2.98561 0
M  V30 2635 H 261.175 0.246454 3.91325 0
M  V30 2636 H 262.665 -0.723389 4.11287 0
M  V30 2637 N 263.102 -1.41638 0.69111 0
M  V30 2638 C 264.518 -1.55435 0.362224 0
M  V30 2639 C 264.718 -1.66754 -1.13117 0
M  V30 2640 O 263.774 -1.64348 -1.91692 0
M  V30 2641 C 265.087 -2.79588 1.10684 0
M  V30 2642 C 266.635 -2.9338 1.09075 0
M  V30 2643 C 267.11 -4.20414 1.81703 0
M  V30 2644 N 268.601 -4.27362 1.7865 0
M  V30 2645 C 269.336 -5.24507 2.31689 0
M  V30 2646 N 268.832 -6.27708 2.93179 0
M  V30 2647 N 270.625 -5.16416 2.2197 0
M  V30 2648 H 262.776 -1.32536 1.65976 0
M  V30 2649 H 265.039 -0.639115 0.700168 0
M  V30 2650 H 264.745 -2.77419 2.16175 0
M  V30 2651 H 264.619 -3.70973 0.682545 0
M  V30 2652 H 267.006 -2.95067 0.0441238 0
M  V30 2653 H 267.087 -2.0318 1.55407 0
M  V30 2654 H 266.731 -4.19488 2.86343 0
M  V30 2655 H 266.661 -5.09578 1.32808 0
M  V30 2656 H 269.152 -3.53415 1.33815 0
M  V30 2657 H 269.465 -6.98217 3.31229 0
M  V30 2658 H 267.81 -6.28223 2.97255 0
M  V30 2659 H 271.001 -4.34716 1.73607 0
M  V30 2660 H 271.174 -5.91958 2.63609 0
M  V30 2661 N 264.58 -0.43555 -1.51462 0
M  V30 2662 C 265.527 0.376797 -2.27703 0
M  V30 2663 C 266.497 1.01838 -1.31219 0
M  V30 2664 O 267.682 1.03762 -1.60119 0
M  V30 2665 C 264.822 1.47301 -3.12084 0
M  V30 2666 C 263.935 0.849744 -4.2356 0
M  V30 2667 C 263.07 1.92086 -4.95254 0
M  V30 2668 C 262.109 1.27593 -5.98654 0
M  V30 2669 N 261.246 2.28833 -6.63762 0
M  V30 2670 H 266.086 -0.279734 -2.96684 0
M  V30 2671 H 263.623 -0.149795 -1.46335 0
M  V30 2672 H 265.581 2.11984 -3.59331 0
M  V30 2673 H 264.211 2.0992 -2.45221 0
M  V30 2674 H 263.263 0.0912529 -3.80291 0
M  V30 2675 H 264.575 0.338878 -4.97648 0
M  V30 2676 H 263.729 2.64435 -5.46039 0
M  V30 2677 H 262.468 2.46545 -4.20793 0
M  V30 2678 H 261.473 0.537893 -5.47162 0
M  V30 2679 H 262.698 0.738693 -6.7507 0
M  V30 2680 H 260.644 2.82375 -5.92115 0
M  V30 2681 H 260.561 1.82632 -7.33608 0
M  V30 2682 H 261.829 3.00671 -7.19178 0
M  V30 2683 N 266.058 1.56714 -0.166846 0
M  V30 2684 C 267.305 1.96747 0.479252 0
M  V30 2685 C 267.633 1.05263 1.63554 0
M  V30 2686 O 266.888 0.0858098 1.95512 0
M  V30 2687 C 267.187 3.42889 1.00806 0
M  V30 2688 C 266.853 4.50889 -0.0318574 0
M  V30 2689 C 265.515 4.8015 -0.317675 0
M  V30 2690 C 267.867 5.15949 -0.737956 0
M  V30 2691 C 265.195 5.71772 -1.31506 0
M  V30 2692 C 267.547 6.08647 -1.72429 0
M  V30 2693 C 266.211 6.36277 -2.0176 0
M  V30 2694 H 265.481 0.719949 0.175371 0
M  V30 2695 H 268.128 1.89756 -0.257864 0
M  V30 2696 H 266.433 3.4681 1.82291 0
M  V30 2697 H 268.13 3.71203 1.51689 0
M  V30 2698 H 264.72 4.28128 0.201088 0
M  V30 2699 H 268.904 4.93458 -0.530351 0
M  V30 2700 H 264.16 5.91465 -1.54853 0
M  V30 2701 H 268.334 6.58129 -2.27682 0
M  V30 2702 H 265.961 7.07075 -2.79194 0
M  V30 2703 N 267.536 -0.106894 1.57237 0
M  V30 2704 C 268.466 -1.13148 2.04254 0
M  V30 2705 C 269.447 -1.42476 0.929224 0
M  V30 2706 O 270.632 -1.52709 1.19973 0
M  V30 2707 C 267.762 -2.4545 2.45706 0
M  V30 2708 C 266.716 -2.30558 3.60592 0
M  V30 2709 C 266.042 -3.67931 3.87983 0
M  V30 2710 C 267.342 -1.75597 4.91897 0
M  V30 2711 H 269.036 -0.740374 2.90101 0
M  V30 2712 H 266.582 -0.354696 1.39563 0
M  V30 2713 H 268.535 -3.17389 2.77205 0
M  V30 2714 H 267.259 -2.86475 1.56843 0
M  V30 2715 H 265.918 -1.61067 3.29322 0
M  V30 2716 H 265.566 -4.06462 2.96306 0
M  V30 2717 H 265.266 -3.58817 4.65322 0
M  V30 2718 H 266.79 -4.41356 4.21945 0
M  V30 2719 H 268.204 -2.37364 5.21854 0
M  V30 2720 H 266.601 -1.77272 5.73319 0
M  V30 2721 H 267.671 -0.714451 4.79608 0
M  V30 2722 N 269.014 -1.53014 -0.377408 0
M  V30 2723 C 270.263 -1.67845 -1.11853 0
M  V30 2724 C 270.576 -0.430625 -1.90801 0
M  V30 2725 O 271.782 -0.459261 -2.67587 0
M  V30 2726 C 270.238 -2.96668 -2.03756 0
M  V30 2727 C 269.846 -4.28671 -1.30175 0
M  V30 2728 C 271.59 -3.20865 -2.77932 0
M  V30 2729 C 269.497 -5.48591 -2.20911 0
M  V30 2730 H 268.427 -0.625343 -0.421263 0
M  V30 2731 H 271.078 -1.79514 -0.380409 0
M  V30 2732 H 269.46 -2.78773 -2.8125 0
M  V30 2733 H 270.634 -4.57157 -0.578259 0
M  V30 2734 H 268.949 -4.10825 -0.679108 0
M  V30 2735 H 271.546 -4.07642 -3.46024 0
M  V30 2736 H 271.889 -2.36424 -3.4265 0
M  V30 2737 H 272.422 -3.39379 -2.07525 0
M  V30 2738 H 269.161 -6.35474 -1.6079 0
M  V30 2739 H 268.681 -5.244 -2.91144 0
M  V30 2740 H 270.36 -5.8292 -2.80736 0
M  V30 2741 N 270.492 0.636531 -1.44174 0
M  V30 2742 C 271.455 1.73063 -1.50273 0
M  V30 2743 C 272.455 1.56113 -0.385397 0
M  V30 2744 O 273.645 1.61707 -0.64781 0
M  V30 2745 C 270.777 3.12096 -1.37145 0
M  V30 2746 H 271.97 1.69031 -2.47727 0
M  V30 2747 H 269.523 0.849706 -1.31186 0
M  V30 2748 H 270.258 3.21728 -0.407636 0
M  V30 2749 H 270.043 3.25805 -2.18159 0
M  V30 2750 H 271.533 3.91846 -1.44382 0
M  V30 2751 N 271.97 1.30982 0.876444 0
M  V30 2752 C 273.217 1.20296 1.62896 0
M  V30 2753 C 273.545 -0.240395 1.93009 0
M  V30 2754 O 272.8 -1.18733 1.55567 0
M  V30 2755 C 273.099 1.98572 2.9716 0
M  V30 2756 C 272.765 3.48125 2.86566 0
M  V30 2757 C 271.427 3.88905 2.83383 0
M  V30 2758 C 273.779 4.43322 2.74071 0
M  V30 2759 C 271.107 5.2316 2.65556 0
M  V30 2760 C 273.459 5.77695 2.57781 0
M  V30 2761 C 272.123 6.17704 2.52979 0
M  V30 2762 H 271.393 0.440193 0.59608 0
M  V30 2763 H 274.04 1.62177 1.01837 0
M  V30 2764 H 272.345 1.49352 3.62217 0
M  V30 2765 H 274.042 1.8769 3.54364 0
M  V30 2766 H 270.632 3.15723 2.89856 0
M  V30 2767 H 274.816 4.12752 2.75589 0
M  V30 2768 H 270.072 5.53241 2.60259 0
M  V30 2769 H 274.246 6.51091 2.47089 0
M  V30 2770 H 271.873 7.21678 2.38924 0
M  V30 2771 N 273.449 -1.08991 1.13837 0
M  V30 2772 C 274.397 -2.17841 0.815347 0
M  V30 2773 C 275.391 -1.68164 -0.204233 0
M  V30 2774 O 276.597 -1.79897 -0.0609304 0
M  V30 2775 H 272.972 -0.710654 0.245915 0
M  V30 2776 H 274.943 -2.42315 1.74143 0
M  V30 2777 C 273.692 -3.46381 0.302614 0
M  V30 2778 H 273.015 -3.84979 1.0785 0
M  V30 2779 H 274.455 -4.23844 0.115074 0
M  V30 2780 C 272.914 -3.22556 -0.972591 0
M  V30 2781 O 273.444 -3.45599 -2.04754 0
M  V30 2782 N 271.65 -2.76134 -0.905455 0
M  V30 2783 H 271.197 -2.57582 -0.0305421 0
M  V30 2784 H 271.155 -2.60571 -1.75926 0
M  V30 2785 N 274.927 -0.932562 -1.27047 0
M  V30 2786 C 276.176 -0.571351 -1.93439 0
M  V30 2787 C 276.489 0.892467 -1.74053 0
M  V30 2788 O 277.695 1.36267 -2.34826 0
M  V30 2789 C 276.151 -0.97106 -3.46552 0
M  V30 2790 C 275.759 -2.4559 -3.74686 0
M  V30 2791 C 277.503 -0.681333 -4.18997 0
M  V30 2792 C 275.41 -2.79475 -5.21198 0
M  V30 2793 H 274.34 -0.209966 -0.724176 0
M  V30 2794 H 276.991 -1.13403 -1.44263 0
M  V30 2795 H 275.373 -0.336983 -3.94564 0
M  V30 2796 H 276.547 -3.13829 -3.37414 0
M  V30 2797 H 274.862 -2.71802 -3.15456 0
M  V30 2798 H 277.459 -0.910939 -5.26883 0
M  V30 2799 H 277.802 0.381628 -4.14547 0
M  V30 2800 H 278.335 -1.27473 -3.76823 0
M  V30 2801 H 275.074 -3.847 -5.30741 0
M  V30 2802 H 274.594 -2.1589 -5.596 0
M  V30 2803 H 276.273 -2.67478 -5.89122 0
M  V30 2804 N 276.405 1.4127 -0.698611 0
M  V30 2805 C 277.353 2.32588 -0.023855 0
M  V30 2806 C 278.347 1.51128 0.765292 0
M  V30 2807 O 279.553 1.67043 0.670571 0
M  V30 2808 H 275.928 0.751918 0.0110871 0
M  V30 2809 H 277.899 2.87167 -0.811031 0
M  V30 2810 C 276.648 3.35947 0.896369 0
M  V30 2811 H 275.971 3.98684 0.298548 0
M  V30 2812 H 277.411 4.02376 1.33676 0
M  V30 2813 C 275.87 2.70076 2.01396 0
M  V30 2814 O 276.4 2.55093 3.10307 0
M  V30 2815 N 274.606 2.28724 1.79259 0
M  V30 2816 H 274.153 2.4111 0.906841 0
M  V30 2817 H 274.111 1.84986 2.54219 0
M  V30 2818 N 277.883 0.443576 1.51229 0
M  V30 2819 C 278.813 -0.355142 2.30783 0
M  V30 2820 C 279.794 -1.0154 1.36468 0
M  V30 2821 O 280.979 -1.01785 1.65389 0
M  V30 2822 C 278.109 -1.45312 3.15439 0
M  V30 2823 C 277.063 -0.916002 4.18083 0
M  V30 2824 C 276.389 -2.1102 4.91299 0
M  V30 2825 C 277.689 0.0538602 5.22272 0
M  V30 2826 H 279.383 0.308767 2.97804 0
M  V30 2827 H 276.929 0.149937 1.43217 0
M  V30 2828 H 278.882 -2.01914 3.69876 0
M  V30 2829 H 277.606 -2.14541 2.46252 0
M  V30 2830 H 276.265 -0.372145 3.64706 0
M  V30 2831 H 275.913 -2.78882 4.18609 0
M  V30 2832 H 275.613 -1.75717 5.60712 0
M  V30 2833 H 277.137 -2.68164 5.48562 0
M  V30 2834 H 278.551 -0.422069 5.71744 0
M  V30 2835 H 276.948 0.319776 5.99247 0
M  V30 2836 H 278.018 0.98858 4.74716 0
M  V30 2837 N 279.361 -1.56624 0.175154 0
M  V30 2838 C 280.291 -2.21155 -0.749195 0
M  V30 2839 C 281.272 -1.16836 -1.23626 0
M  V30 2840 O 282.457 -1.45277 -1.28873 0
M  V30 2841 C 279.587 -2.8553 -1.97711 0
M  V30 2842 C 278.541 -3.95921 -1.62575 0
M  V30 2843 C 277.867 -4.47365 -2.92864 0
M  V30 2844 C 279.167 -5.15323 -0.850838 0
M  V30 2845 H 280.861 -2.98653 -0.211295 0
M  V30 2846 H 278.407 -1.43651 -0.100188 0
M  V30 2847 H 280.36 -3.2935 -2.62881 0
M  V30 2848 H 279.084 -2.05406 -2.53921 0
M  V30 2849 H 277.743 -3.52762 -0.997719 0
M  V30 2850 H 277.391 -3.64027 -3.47122 0
M  V30 2851 H 277.091 -5.21839 -2.70106 0
M  V30 2852 H 278.615 -4.93873 -3.59056 0
M  V30 2853 H 280.029 -5.55812 -1.40521 0
M  V30 2854 H 278.426 -5.95739 -0.722154 0
M  V30 2855 H 279.496 -4.84661 0.152082 0
M  V30 2856 N 280.839 0.0985539 -1.57292 0
M  V30 2857 C 282.087 0.801092 -1.85545 0
M  V30 2858 C 282.408 1.79438 -0.763353 0
M  V30 2859 O 281.678 1.94763 0.21073 0
M  V30 2860 H 280.258 0.29884 -0.684619 0
M  V30 2861 H 282.92 0.0810064 -1.94732 0
M  V30 2862 H 282.016 1.3338 -2.82163 0
M  V30 2863 N 282.317 1.53212 0.369288 0
M  V30 2864 C 283.545 1.73119 1.13303 0
M  V30 2865 C 283.96 0.458455 1.83149 0
M  V30 2866 O 283.317 -0.568403 1.73423 0
M  V30 2867 C 283.368 2.89413 2.16616 0
M  V30 2868 O 283.089 4.11761 1.49614 0
M  V30 2869 C 284.59 3.21161 3.05566 0
M  V30 2870 H 281.81 0.579107 0.338934 0
M  V30 2871 H 284.354 1.99942 0.429338 0
M  V30 2872 H 282.509 2.64994 2.82589 0
M  V30 2873 H 282.923 4.76858 2.18419 0
M  V30 2874 H 284.397 4.05949 3.74045 0
M  V30 2875 H 284.874 2.36369 3.70171 0
M  V30 2876 H 285.48 3.47492 2.45213 0
M  V30 2877 N 283.795 -0.628877 1.44509 0
M  V30 2878 C 284.742 -1.74074 1.51549 0
M  V30 2879 C 285.712 -1.62084 0.363021 0
M  V30 2880 O 286.897 -1.81975 0.573567 0
M  V30 2881 C 284.037 -3.12328 1.46784 0
M  V30 2882 C 283.15 -3.35277 2.72422 0
M  V30 2883 C 282.285 -4.63515 2.59475 0
M  V30 2884 C 281.324 -4.7965 3.80266 0
M  V30 2885 N 280.461 -5.99168 3.65981 0
M  V30 2886 H 285.301 -1.67392 2.46544 0
M  V30 2887 H 282.838 -0.816527 1.22357 0
M  V30 2888 H 284.796 -3.92286 1.42012 0
M  V30 2889 H 283.426 -3.18018 0.553544 0
M  V30 2890 H 282.478 -2.49242 2.87372 0
M  V30 2891 H 283.79 -3.43078 3.62076 0
M  V30 2892 H 282.944 -5.51638 2.52548 0
M  V30 2893 H 281.683 -4.58076 1.67384 0
M  V30 2894 H 280.688 -3.89957 3.87574 0
M  V30 2895 H 281.913 -4.86902 4.73395 0
M  V30 2896 H 279.859 -5.94814 2.76644 0
M  V30 2897 H 279.776 -6.08035 4.49254 0
M  V30 2898 H 281.044 -6.89846 3.6295 0
M  V30 2899 N 285.273 -1.31445 -0.869486 0
M  V30 2900 C 286.183 -1.21097 -2.0093 0
M  V30 2901 C 287.199 -0.127584 -1.73532 0
M  V30 2902 O 288.375 -0.345477 -1.98415 0
M  V30 2903 C 285.44 -0.919378 -3.34288 0
M  V30 2904 C 284.501 -2.08971 -3.75006 0
M  V30 2905 C 283.734 -1.81194 -5.02001 0
M  V30 2906 O 283.957 -0.747296 -5.65484 0
M  V30 2907 O 282.891 -2.66883 -5.39497 0
M  V30 2908 H 286.717 -2.16883 -2.12592 0
M  V30 2909 H 284.302 -1.11189 -0.997868 0
M  V30 2910 H 286.184 -0.772625 -4.14257 0
M  V30 2911 H 284.859 0.00844772 -3.23699 0
M  V30 2912 H 283.766 -2.29187 -2.95676 0
M  V30 2913 H 285.099 -2.9998 -3.90221 0
M  V30 2914 N 286.751 1.08385 -1.14413 0
M  V30 2915 C 287.683 2.1519 -0.789036 0
M  V30 2916 C 288.696 1.61638 0.19417 0
M  V30 2917 O 289.885 1.78479 -0.0275711 0
M  V30 2918 C 286.985 3.38565 -0.15058 0
M  V30 2919 C 286.158 4.21501 -1.16857 0
M  V30 2920 C 285.217 5.23277 -0.553832 0
M  V30 2921 O 284.243 5.56041 -1.21686 0
M  V30 2922 N 285.445 5.76629 0.669296 0
M  V30 2923 H 288.21 2.46257 -1.70814 0
M  V30 2924 H 285.771 1.24198 -1.03858 0
M  V30 2925 H 287.763 4.03777 0.273181 0
M  V30 2926 H 286.333 3.05299 0.671667 0
M  V30 2927 H 285.553 3.52265 -1.76926 0
M  V30 2928 H 286.841 4.73731 -1.85624 0
M  V30 2929 H 286.239 5.52243 1.22654 0
M  V30 2930 H 284.796 6.43521 1.03556 0
M  V30 2931 N 288.23 0.939286 1.26551 0
M  V30 2932 C 289.193 0.451987 2.24699 0
M  V30 2933 C 290.193 -0.435869 1.5478 0
M  V30 2934 O 291.383 -0.235314 1.72603 0
M  V30 2935 C 288.515 -0.348801 3.39111 0
M  V30 2936 H 289.708 1.3193 2.69322 0
M  V30 2937 H 287.261 0.721072 1.38673 0
M  V30 2938 H 287.996 -1.23444 2.99887 0
M  V30 2939 H 287.781 0.287945 3.91041 0
M  V30 2940 H 289.271 -0.679726 4.12031 0
M  V30 2941 N 289.708 -1.40897 0.706093 0
M  V30 2942 C 290.658 -2.27987 0.0240746 0
M  V30 2943 C 291.642 -1.42759 -0.742204 0
M  V30 2944 O 292.834 -1.65936 -0.615966 0
M  V30 2945 C 289.963 -3.31186 -0.903907 0
M  V30 2946 C 289.049 -4.2389 -0.133318 0
M  V30 2947 N 289.44 -4.98113 0.878444 0
M  V30 2948 C 287.738 -4.44485 -0.367269 0
M  V30 2949 C 288.439 -5.6604 1.34064 0
M  V30 2950 N 287.415 -5.39522 0.664565 0
M  V30 2951 H 291.217 -2.82812 0.799658 0
M  V30 2952 H 288.731 -1.53235 0.537845 0
M  V30 2953 H 290.728 -3.92413 -1.40775 0
M  V30 2954 H 289.388 -2.77922 -1.67897 0
M  V30 2955 H 290.399 -5.02364 1.25901 0
M  V30 2956 H 287.076 -4.02213 -1.1194 0
M  V30 2957 H 288.466 -6.35524 2.1808 0
M  V30 2958 N 291.186 -0.45159 -1.50991 0
M  V30 2959 C 292.602 -0.104647 -1.59257 0
M  V30 2960 C 292.802 1.38728 -1.4614 0
M  V30 2961 O 291.858 2.15866 -1.30989 0
M  V30 2962 C 293.171 -0.637468 -2.93865 0
M  V30 2963 C 294.719 -0.599166 -3.07212 0
M  V30 2964 C 295.194 -1.1092 -4.44366 0
M  V30 2965 N 296.685 -1.06778 -4.50725 0
M  V30 2966 C 297.42 -1.43314 -5.55201 0
M  V30 2967 N 296.916 -1.87204 -6.67028 0
M  V30 2968 N 298.709 -1.3504 -5.45638 0
M  V30 2969 H 290.86 -1.42214 -1.57762 0
M  V30 2970 H 293.123 -0.586921 -0.744465 0
M  V30 2971 H 292.829 -1.68187 -3.08879 0
M  V30 2972 H 292.703 -0.0702139 -3.77135 0
M  V30 2973 H 295.09 0.436277 -2.91857 0
M  V30 2974 H 295.171 -1.20299 -2.25747 0
M  V30 2975 H 294.815 -2.14318 -4.60467 0
M  V30 2976 H 294.745 -0.481773 -5.24392 0
M  V30 2977 H 297.236 -0.745643 -3.70471 0
M  V30 2978 H 297.549 -2.13282 -7.42786 0
M  V30 2979 H 295.894 -1.91142 -6.68199 0
M  V30 2980 H 299.085 -1.00607 -4.57161 0
M  V30 2981 H 299.258 -1.63841 -6.26945 0
M  V30 2982 N 292.664 1.56529 -0.183458 0
M  V30 2983 C 293.913 1.96419 0.458511 0
M  V30 2984 C 294.226 1.0727 1.63562 0
M  V30 2985 O 295.432 1.36893 2.34462 0
M  V30 2986 C 293.888 3.49298 0.867122 0
M  V30 2987 C 293.496 4.47092 -0.285057 0
M  V30 2988 C 295.24 3.97983 1.47683 0
M  V30 2989 C 293.147 5.91225 0.143862 0
M  V30 2990 H 292.077 0.733394 0.175071 0
M  V30 2991 H 294.728 1.81448 -0.273624 0
M  V30 2992 H 293.11 3.59731 1.65559 0
M  V30 2993 H 294.284 4.48383 -1.0625 0
M  V30 2994 H 292.599 4.08535 -0.805503 0
M  V30 2995 H 295.196 5.03134 1.80999 0
M  V30 2996 H 295.539 3.41618 2.37914 0
M  V30 2997 H 296.072 3.90617 0.752562 0
M  V30 2998 H 292.811 6.5149 -0.723974 0
M  V30 2999 H 292.331 5.93214 0.886413 0
M  V30 3000 H 294.01 6.44362 0.583628 0
M  V30 3001 N 294.142 -0.090211 1.57342 0
M  V30 3002 C 295.105 -1.09335 2.01441 0
M  V30 3003 C 296.105 -1.32666 0.908641 0
M  V30 3004 O 297.295 -1.28697 1.174 0
M  V30 3005 C 294.427 -2.44136 2.3793 0
M  V30 3006 H 295.62 -0.713662 2.91285 0
M  V30 3007 H 293.173 -0.335404 1.52659 0
M  V30 3008 H 293.908 -2.86972 1.51055 0
M  V30 3009 H 293.693 -2.28548 3.18603 0
M  V30 3010 H 295.183 -3.16277 2.72688 0
M  V30 3011 N 295.62 -1.53406 -0.361157 0
M  V30 3012 C 296.55 -1.83136 -1.44857 0
M  V30 3013 C 297.531 -0.685174 -1.5569 0
M  V30 3014 O 298.716 -0.93544 -1.70186 0
M  V30 3015 C 295.846 -2.02522 -2.82138 0
M  V30 3016 C 294.8 -3.18302 -2.86126 0
M  V30 3017 C 294.126 -3.22989 -4.26125 0
M  V30 3018 C 295.426 -4.56796 -2.53248 0
M  V30 3019 H 297.12 -2.74201 -1.20226 0
M  V30 3020 H 294.666 -1.31938 -0.576922 0
M  V30 3021 H 296.619 -2.21904 -3.58241 0
M  V30 3022 H 295.343 -1.08172 -3.08166 0
M  V30 3023 H 294.002 -2.98747 -2.12475 0
M  V30 3024 H 293.65 -2.26267 -4.49235 0
M  V30 3025 H 293.35 -4.00781 -4.29708 0
M  V30 3026 H 294.874 -3.44559 -5.04094 0
M  V30 3027 H 296.288 -4.7631 -3.19064 0
M  V30 3028 H 294.685 -5.36862 -2.68141 0
M  V30 3029 H 295.755 -4.61606 -1.48484 0
M  V30 3030 N 297.098 0.621204 -1.44841 0
M  V30 3031 C 298.046 1.75385 -1.52784 0
M  V30 3032 C 299.04 1.64639 -0.398779 0
M  V30 3033 O 300.246 1.70598 -0.574137 0
M  V30 3034 H 296.621 0.579193 -0.479625 0
M  V30 3035 H 298.592 1.6581 -2.48092 0
M  V30 3036 C 297.341 3.13742 -1.4987 0
M  V30 3037 H 296.664 3.22663 -2.36069 0
M  V30 3038 H 298.104 3.92861 -1.59487 0
M  V30 3039 C 296.563 3.36175 -0.220973 0
M  V30 3040 O 297.093 3.95469 0.704782 0
M  V30 3041 N 295.299 2.90348 -0.120963 0
M  V30 3042 H 294.846 2.42278 -0.875162 0
M  V30 3043 H 294.804 3.05732 0.733168 0
M  V30 3044 N 298.576 1.31904 0.862503 0
M  V30 3045 C 299.506 1.22782 1.98612 0
M  V30 3046 C 300.487 0.113362 1.69722 0
M  V30 3047 O 301.672 0.299218 1.91881 0
M  V30 3048 C 298.802 0.942058 3.34279 0
M  V30 3049 C 297.756 2.0169 3.77499 0
M  V30 3050 C 297.082 1.58369 5.10709 0
M  V30 3051 C 298.382 3.43096 3.93805 0
M  V30 3052 H 300.076 2.16788 2.06502 0
M  V30 3053 H 297.622 1.04366 0.992154 0
M  V30 3054 H 299.575 0.864818 4.1243 0
M  V30 3055 H 298.299 -0.0336603 3.26583 0
M  V30 3056 H 296.958 2.08416 3.01593 0
M  V30 3057 H 296.606 0.595628 4.99461 0
M  V30 3058 H 296.306 2.30279 5.40597 0
M  V30 3059 H 297.83 1.52067 5.91361 0
M  V30 3060 H 299.244 3.39003 4.62331 0
M  V30 3061 H 297.641 4.13288 4.35101 0
M  V30 3062 H 298.711 3.83334 2.96957 0
M  V30 3063 N 300.054 -1.07777 1.14986 0
M  V30 3064 C 301.47 -1.32373 0.891596 0
M  V30 3065 C 301.67 -1.9609 -0.463788 0
M  V30 3066 O 300.726 -2.21801 -1.20667 0
M  V30 3067 C 302.039 -2.21905 2.02925 0
M  V30 3068 C 303.587 -2.35367 2.06329 0
M  V30 3069 C 304.062 -3.28245 3.19405 0
M  V30 3070 N 305.553 -3.35824 3.19024 0
M  V30 3071 C 306.288 -4.07739 4.03158 0
M  V30 3072 N 305.784 -4.82306 4.97346 0
M  V30 3073 N 307.577 -4.03635 3.91197 0
M  V30 3074 H 299.728 -0.648039 2.02273 0
M  V30 3075 H 301.991 -0.348149 0.881757 0
M  V30 3076 H 301.697 -1.82342 3.0074 0
M  V30 3077 H 301.571 -3.22407 1.95789 0
M  V30 3078 H 303.958 -2.74186 1.09116 0
M  V30 3079 H 304.039 -1.34585 2.17533 0
M  V30 3080 H 303.683 -2.90146 4.16867 0
M  V30 3081 H 303.613 -4.28971 3.05437 0
M  V30 3082 H 306.104 -2.8267 2.50811 0
M  V30 3083 H 306.417 -5.34661 5.57994 0
M  V30 3084 H 304.762 -4.81337 5.01338 0
M  V30 3085 H 307.953 -3.44491 3.16928 0
M  V30 3086 H 308.126 -4.59417 4.5699 0
M  V30 3087 N 301.532 -0.945985 -1.26051 0
M  V30 3088 C 302.442 -0.465633 -2.29933 0
M  V30 3089 C 303.458 0.462761 -1.67733 0
M  V30 3090 O 304.634 0.341118 -1.9849 0
M  V30 3091 C 301.699 0.256994 -3.45746 0
M  V30 3092 C 300.76 -0.708549 -4.23412 0
M  V30 3093 C 299.993 -0.0203135 -5.33696 0
M  V30 3094 O 300.216 1.19571 -5.57726 0
M  V30 3095 O 299.15 -0.701459 -5.97799 0
M  V30 3096 H 302.976 -1.32866 -2.73094 0
M  V30 3097 H 300.561 -0.712071 -1.31339 0
M  V30 3098 H 302.443 0.663852 -4.16138 0
M  V30 3099 H 301.118 1.09533 -3.04605 0
M  V30 3100 H 300.025 -1.16545 -3.55483 0
M  V30 3101 H 301.358 -1.51465 -4.68315 0
M  V30 3102 N 303.011 1.40521 -0.713556 0
M  V30 3103 C 303.943 2.29191 -0.0203126 0
M  V30 3104 C 304.956 1.45723 0.725864 0
M  V30 3105 O 306.145 1.69033 0.573581 0
M  V30 3106 C 303.245 3.2395 0.995486 0
M  V30 3107 C 302.418 4.36262 0.315256 0
M  V30 3108 C 301.477 5.11474 1.23616 0
M  V30 3109 O 300.503 5.64606 0.721719 0
M  V30 3110 N 301.705 5.20638 2.56743 0
M  V30 3111 H 304.47 2.89327 -0.781652 0
M  V30 3112 H 302.031 1.51869 -0.561022 0
M  V30 3113 H 304.023 3.71137 1.61368 0
M  V30 3114 H 302.593 2.64995 1.6582 0
M  V30 3115 H 301.813 3.91228 -0.483106 0
M  V30 3116 H 303.101 5.08558 -0.157004 0
M  V30 3117 H 302.499 4.7895 3.01037 0
M  V30 3118 H 301.056 5.71339 3.13712 0
M  V30 3119 N 304.489 0.459591 1.5075 0
M  V30 3120 C 305.737 -0.0991532 2.01857 0
M  V30 3121 C 306.058 -1.41247 1.34441 0
M  V30 3122 O 305.328 -1.89775 0.486022 0
M  V30 3123 H 303.908 -0.039633 0.745948 0
M  V30 3124 H 306.57 0.607387 1.85194 0
M  V30 3125 H 305.666 -0.258998 3.11023 0
M  V30 3126 N 305.967 -1.56429 0.191757 0
M  V30 3127 C 307.383 -1.58754 -0.164137 0
M  V30 3128 C 307.583 -1.20782 -1.61288 0
M  V30 3129 O 306.639 -0.928999 -2.34789 0
M  V30 3130 C 307.952 -3.00396 0.135195 0
M  V30 3131 C 309.5 -3.1291 0.0750351 0
M  V30 3132 C 309.975 -4.56679 0.347632 0
M  V30 3133 N 311.466 -4.62252 0.296131 0
M  V30 3134 C 312.201 -5.71379 0.480948 0
M  V30 3135 N 311.697 -6.88986 0.725933 0
M  V30 3136 N 313.49 -5.60563 0.415435 0
M  V30 3137 H 305.641 -1.79393 1.13718 0
M  V30 3138 H 307.904 -0.832414 0.453643 0
M  V30 3139 H 307.61 -3.32726 1.13958 0
M  V30 3140 H 307.484 -3.72963 -0.563773 0
M  V30 3141 H 309.871 -2.80394 -0.919948 0
M  V30 3142 H 309.952 -2.42736 0.807029 0
M  V30 3143 H 309.596 -4.89907 1.33992 0
M  V30 3144 H 309.526 -5.25039 -0.405212 0
M  V30 3145 H 312.017 -3.7773 0.113259 0
M  V30 3146 H 312.33 -7.68046 0.855857 0
M  V30 3147 H 310.675 -6.90801 0.762788 0
M  V30 3148 H 313.866 -4.67561 0.224486 0
M  V30 3149 H 314.039 -6.45551 0.562889 0
M  V30 3150 N 307.445 0.0818655 -1.57387 0
M  V30 3151 C 308.693 0.781368 -1.86384 0
M  V30 3152 C 309.014 1.78618 -0.782342 0
M  V30 3153 O 308.284 1.94976 0.190061 0
M  V30 3154 H 306.864 0.291562 -0.687751 0
M  V30 3155 H 309.526 0.060348 -1.94807 0
M  V30 3156 H 308.622 1.3038 -2.83562 0
M  V30 3157 N 308.923 1.53595 0.353017 0
M  V30 3158 C 309.87 1.80919 1.43308 0
M  V30 3159 C 310.84 0.654288 1.5267 0
M  V30 3160 O 312.025 0.897759 1.6836 0
M  V30 3161 C 309.165 2.01605 2.80089 0
M  V30 3162 C 308.278 3.29321 2.79593 0
M  V30 3163 C 307.413 3.40125 4.0803 0
M  V30 3164 C 306.452 4.61826 4.01725 0
M  V30 3165 N 305.589 4.69716 5.21834 0
M  V30 3166 H 310.429 2.73074 1.19308 0
M  V30 3167 H 307.966 1.35263 0.578131 0
M  V30 3168 H 309.924 2.11586 3.59565 0
M  V30 3169 H 308.554 1.12772 3.0246 0
M  V30 3170 H 307.606 3.28229 1.92276 0
M  V30 3171 H 308.918 4.18884 2.70809 0
M  V30 3172 H 308.072 3.49488 4.95927 0
M  V30 3173 H 306.811 2.48601 4.19582 0
M  V30 3174 H 305.816 4.52552 3.12213 0
M  V30 3175 H 307.041 5.54705 3.91764 0
M  V30 3176 H 304.987 3.81097 5.33948 0
M  V30 3177 H 304.904 5.53202 5.1527 0
M  V30 3178 H 306.172 4.83376 6.11529 0
M  V30 3179 N 310.401 -0.613514 1.45168 0
M  V30 3180 C 311.678 -1.37263 1.39349 0
M  V30 3181 C 312.058 -2.11012 0.0610848 0
M  V30 3182 O 311.406 -2.07502 -0.956825 0
M  V30 3183 C 311.616 -2.3244 2.60332 0
M  V30 3184 C 312.964 -2.9523 3.05163 0
M  V30 3185 O 313.988 -2.42762 2.60663 0
M  V30 3186 O 312.847 -3.90454 3.82372 0
M  V30 3187 H 309.941 -0.615188 0.552696 0
M  V30 3188 H 312.487 -0.637097 1.57287 0
M  V30 3189 H 311.259 -1.77164 3.48896 0
M  V30 3190 H 310.882 -3.13383 2.44698 0
M  V30 3191 N 311.879 -1.3236 -0.855495 0
M  V30 3192 C 312.811 -1.17052 -1.97057 0
M  V30 3193 C 313.824 -0.10574 -1.62456 0
M  V30 3194 O 315.013 -0.354619 -1.74942 0
M  V30 3195 C 312.113 -0.769305 -3.30053 0
M  V30 3196 C 311.286 -1.9222 -3.929 0
M  V30 3197 C 310.345 -1.50466 -5.04228 0
M  V30 3198 O 309.371 -2.21655 -5.24269 0
M  V30 3199 N 310.573 -0.400209 -5.79119 0
M  V30 3200 H 313.338 -2.13103 -2.1073 0
M  V30 3201 H 310.899 -1.24885 -1.0303 0
M  V30 3202 H 312.891 -0.472407 -4.01933 0
M  V30 3203 H 311.461 0.100025 -3.1244 0
M  V30 3204 H 310.681 -2.38563 -3.13817 0
M  V30 3205 H 311.969 -2.69403 -4.31624 0
M  V30 3206 H 311.367 0.192319 -5.65373 0
M  V30 3207 H 309.924 -0.162912 -6.51596 0
M  V30 3208 N 313.357 1.07166 -1.15556 0
M  V30 3209 C 314.768 1.6127 -0.940693 0
M  V30 3210 C 315.119 1.89251 0.517551 0
M  V30 3211 O 314.244 1.65937 1.38903 0
M  V30 3212 C 314.839 2.92993 -1.7012 0
M  V30 3213 C 313.398 3.43832 -1.53156 0
M  V30 3214 C 312.545 2.1786 -1.71558 0
M  V30 3215 H 315.496 0.90229 -1.30554 0
M  V30 3216 H 315.517 3.62007 -1.17181 0
M  V30 3217 H 315.029 2.72596 -2.76248 0
M  V30 3218 H 313.13 3.69307 -0.494294 0
M  V30 3219 H 313.243 4.19747 -2.30975 0
M  V30 3220 H 311.607 2.2765 -1.14225 0
M  V30 3221 H 312.39 1.99956 -2.79056 0
M  V30 3222 N 314.835 0.952656 1.25548 0
M  V30 3223 C 316.083 0.605176 1.92826 0
M  V30 3224 C 316.404 -0.860261 1.74999 0
M  V30 3225 O 315.674 -1.6125 1.11244 0
M  V30 3226 H 314.254 0.220832 0.713612 0
M  V30 3227 H 316.916 1.21047 1.52754 0
M  V30 3228 H 316.012 0.832798 3.00784 0
M  V30 3229 N 316.313 -1.40141 0.720998 0
M  V30 3230 C 317.729 -1.54632 0.395113 0
M  V30 3231 C 317.929 -1.69115 -1.09555 0
M  V30 3232 O 316.985 -1.68377 -1.88163 0
M  V30 3233 C 318.298 -2.77177 1.1659 0
M  V30 3234 C 319.846 -2.91 1.15274 0
M  V30 3235 C 320.321 -4.16465 1.90579 0
M  V30 3236 N 321.812 -4.23476 1.87675 0
M  V30 3237 C 322.547 -5.19475 2.42762 0
M  V30 3238 N 322.043 -6.21348 3.06428 0
M  V30 3239 N 323.836 -5.11592 2.32874 0
M  V30 3240 H 315.987 -1.28986 1.68749 0
M  V30 3241 H 318.25 -0.62412 0.713567 0
M  V30 3242 H 317.956 -2.72771 2.22011 0
M  V30 3243 H 317.83 -3.69442 0.76108 0
M  V30 3244 H 320.217 -2.94907 0.106702 0
M  V30 3245 H 320.298 -1.99838 1.59682 0
M  V30 3246 H 319.942 -4.1332 2.95176 0
M  V30 3247 H 319.872 -5.06646 1.43587 0
M  V30 3248 H 322.363 -3.50497 1.41281 0
M  V30 3249 H 322.676 -6.91034 3.45965 0
M  V30 3250 H 321.021 -6.21777 3.10514 0
M  V30 3251 H 324.212 -4.30936 1.82789 0
M  V30 3252 H 324.385 -5.86233 2.76106 0
M  V30 3253 N 317.792 -0.46758 -1.50504 0
M  V30 3254 C 318.722 0.318381 -2.31319 0
M  V30 3255 C 319.703 0.993564 -1.38066 0
M  V30 3256 O 320.888 0.991411 -1.66987 0
M  V30 3257 C 318.018 1.40275 -3.17711 0
M  V30 3258 C 316.972 0.849373 -4.19487 0
M  V30 3259 C 316.298 2.03177 -4.94594 0
M  V30 3260 C 317.598 -0.136942 -5.2212 0
M  V30 3261 H 319.292 -0.356106 -2.97275 0
M  V30 3262 H 316.838 -0.172703 -1.42961 0
M  V30 3263 H 318.791 1.96004 -3.73042 0
M  V30 3264 H 317.515 2.10596 -2.49634 0
M  V30 3265 H 316.174 0.314076 -3.65252 0
M  V30 3266 H 315.822 2.72187 -4.22993 0
M  V30 3267 H 315.522 1.66774 -5.63436 0
M  V30 3268 H 317.046 2.59403 -5.52759 0
M  V30 3269 H 318.46 0.331056 -5.72343 0
M  V30 3270 H 316.857 -0.41507 -5.98663 0
M  V30 3271 H 317.927 -1.06398 -4.73083 0
M  V30 3272 N 319.27 1.56325 -0.20005 0
M  V30 3273 C 320.217 2.1932 0.718833 0
M  V30 3274 C 321.187 1.14198 1.20615 0
M  V30 3275 O 322.372 1.42469 1.26914 0
M  V30 3276 C 319.512 2.86041 1.93066 0
M  V30 3277 C 318.625 4.05702 1.48425 0
M  V30 3278 C 317.76 4.60266 2.65196 0
M  V30 3279 C 316.799 5.72273 2.17185 0
M  V30 3280 N 315.936 6.21221 3.27152 0
M  V30 3281 H 320.776 2.97486 0.17489 0
M  V30 3282 H 318.313 1.46911 0.0745794 0
M  V30 3283 H 320.271 3.22897 2.64184 0
M  V30 3284 H 318.901 2.1043 2.44783 0
M  V30 3285 H 317.953 3.74475 0.668755 0
M  V30 3286 H 319.265 4.86699 1.09204 0
M  V30 3287 H 318.419 4.99453 3.4443 0
M  V30 3288 H 317.158 3.78386 3.07693 0
M  V30 3289 H 316.163 5.3261 1.36407 0
M  V30 3290 H 317.388 6.55974 1.75713 0
M  V30 3291 H 315.334 5.42263 3.69171 0
M  V30 3292 H 315.251 6.97284 2.92116 0
M  V30 3293 H 316.519 6.65063 4.06585 0
M  V30 3294 N 320.748 -0.0735177 1.57428 0
M  V30 3295 C 321.695 -1.08756 2.0357 0
M  V30 3296 C 322.665 -1.38559 0.916 0
M  V30 3297 O 323.85 -1.49656 1.18354 0
M  V30 3298 C 320.99 -2.39657 2.48311 0
M  V30 3299 C 320.103 -2.16399 3.73892 0
M  V30 3300 C 319.238 -3.40852 4.07423 0
M  V30 3301 C 318.277 -3.1295 5.2605 0
M  V30 3302 N 317.414 -4.29729 5.55228 0
M  V30 3303 H 322.254 -0.687104 2.8997 0
M  V30 3304 H 319.791 -0.327709 1.43403 0
M  V30 3305 H 321.749 -3.16081 2.72303 0
M  V30 3306 H 320.379 -2.77508 1.64891 0
M  V30 3307 H 319.431 -1.30676 3.57251 0
M  V30 3308 H 320.743 -1.91788 4.60455 0
M  V30 3309 H 319.897 -4.25671 4.32306 0
M  V30 3310 H 318.636 -3.68537 3.19425 0
M  V30 3311 H 317.641 -2.26526 5.00965 0
M  V30 3312 H 318.866 -2.86589 6.15665 0
M  V30 3313 H 316.812 -4.57448 4.70188 0
M  V30 3314 H 316.729 -4.08385 6.36206 0
M  V30 3315 H 317.997 -5.1555 5.84661 0
M  V30 3316 N 322.226 -1.5378 -0.344866 0
M  V30 3317 C 323.472 -1.71216 -1.08687 0
M  V30 3318 C 323.805 -0.473281 -1.88345 0
M  V30 3319 O 323.08 0.52968 -1.87149 0
M  V30 3320 C 323.363 -2.97486 -2.02914 0
M  V30 3321 C 323.216 -4.31579 -1.26727 0
M  V30 3322 C 324.535 -3.19422 -3.0275 0
M  V30 3323 H 321.654 -0.62301 -0.393735 0
M  V30 3324 H 324.296 -1.8645 -0.365563 0
M  V30 3325 H 322.446 -2.84629 -2.64421 0
M  V30 3326 H 324.118 -4.56284 -0.67845 0
M  V30 3327 H 322.361 -4.30049 -0.569273 0
M  V30 3328 H 323.032 -5.16106 -1.95803 0
M  V30 3329 H 325.508 -3.316 -2.51357 0
M  V30 3330 H 324.384 -4.09169 -3.65885 0
M  V30 3331 H 324.645 -2.35656 -3.74057 0
M  V30 3332 N 323.704 0.605807 -1.45491 0
M  V30 3333 C 324.636 1.73031 -1.5031 0
M  V30 3334 C 325.649 1.57968 -0.393687 0
M  V30 3335 O 326.838 1.65817 -0.660839 0
M  V30 3336 C 323.938 3.11049 -1.34543 0
M  V30 3337 C 323.111 3.52334 -2.59189 0
M  V30 3338 C 322.17 4.69323 -2.37954 0
M  V30 3339 O 321.196 4.7635 -3.11575 0
M  V30 3340 N 322.398 5.62705 -1.4263 0
M  V30 3341 H 325.163 1.6936 -2.4726 0
M  V30 3342 H 322.724 0.79114 -1.41254 0
M  V30 3343 H 324.716 3.87071 -1.18144 0
M  V30 3344 H 323.286 3.09217 -0.458623 0
M  V30 3345 H 322.506 2.66256 -2.90691 0
M  V30 3346 H 323.794 3.76677 -3.42041 0
M  V30 3347 H 323.192 5.59744 -0.818758 0
M  V30 3348 H 321.749 6.38252 -1.32202 0
M  V30 3349 N 325.182 1.32811 0.848464 0
M  V30 3350 C 326.43 1.23479 1.59991 0
M  V30 3351 C 326.751 -0.201853 1.93952 0
M  V30 3352 O 326.021 -1.12818 1.60153 0
M  V30 3353 H 324.601 0.454034 0.593179 0
M  V30 3354 H 327.263 1.66412 1.01455 0
M  V30 3355 H 326.359 1.82178 2.53412 0
M  V30 3356 N 326.66 -1.06551 1.16123 0
M  V30 3357 C 327.909 -1.78687 0.935622 0
M  V30 3358 C 328.222 -1.88056 -0.538001 0
M  V30 3359 O 329.428 -2.56794 -0.88143 0
M  V30 3360 C 327.884 -3.21143 1.62466 0
M  V30 3361 C 327.492 -3.19949 3.13587 0
M  V30 3362 C 329.236 -3.9783 1.48092 0
M  V30 3363 C 327.143 -4.57108 3.75241 0
M  V30 3364 H 326.073 -0.669712 0.346412 0
M  V30 3365 H 328.724 -1.19534 1.39226 0
M  V30 3366 H 327.106 -3.80539 1.09572 0
M  V30 3367 H 328.28 -2.70151 3.73303 0
M  V30 3368 H 326.595 -2.5676 3.27816 0
M  V30 3369 H 329.192 -4.99217 1.91538 0
M  V30 3370 H 329.535 -4.14078 0.429507 0
M  V30 3371 H 330.068 -3.4495 1.98127 0
M  V30 3372 H 326.807 -4.46065 4.80319 0
M  V30 3373 H 326.327 -5.07111 3.20309 0
M  V30 3374 H 328.006 -5.26069 3.76644 0
M  V30 3375 N 328.138 -0.959301 -1.25041 0
M  V30 3376 C 329.386 -0.615393 -1.92503 0
M  V30 3377 C 329.707 0.850969 -1.75452 0
M  V30 3378 O 328.977 1.60658 -1.12098 0
M  V30 3379 H 327.557 -0.224613 -0.712431 0
M  V30 3380 H 330.219 -1.21855 -1.5211 0
M  V30 3381 H 329.315 -0.848738 -3.00338 0
M  V30 3382 N 329.616 1.39756 -0.72842 0
M  V30 3383 C 330.862 2.01425 -0.282761 0
M  V30 3384 C 331.217 1.56754 1.11561 0
M  V30 3385 O 330.51 0.783482 1.74849 0
M  V30 3386 C 330.704 3.56002 -0.315776 0
M  V30 3387 C 330.533 4.1568 -1.71582 0
M  V30 3388 C 329.303 4.48555 -2.32651 0
M  V30 3389 C 331.501 4.39667 -2.66829 0
M  V30 3390 N 329.483 4.93698 -3.64877 0
M  V30 3391 C 330.854 4.86942 -3.8378 0
M  V30 3392 C 332.909 4.21724 -2.64675 0
M  V30 3393 C 331.612 5.18158 -4.98904 0
M  V30 3394 C 333.638 4.54049 -3.78937 0
M  V30 3395 C 333 5.01525 -4.94623 0
M  V30 3396 H 329.099 0.76756 -0.149583 0
M  V30 3397 H 331.683 1.69784 -0.952976 0
M  V30 3398 H 329.854 3.87046 0.324057 0
M  V30 3399 H 331.586 4.0443 0.147808 0
M  V30 3400 H 328.341 4.36128 -1.84633 0
M  V30 3401 H 328.765 5.20635 -4.32744 0
M  V30 3402 H 333.407 3.84228 -1.76433 0
M  V30 3403 H 331.125 5.54562 -5.87781 0
M  V30 3404 H 334.711 4.41795 -3.78561 0
M  V30 3405 H 333.591 5.26065 -5.81572 0
M  V30 3406 N 331.094 0.475555 1.50254 0
M  V30 3407 C 332.324 -0.0753399 2.06463 0
M  V30 3408 C 332.732 -1.33661 1.33908 0
M  V30 3409 O 332.075 -1.79219 0.403257 0
M  V30 3410 C 332.137 -0.424921 3.5698 0
M  V30 3411 C 331.801 0.734965 4.51051 0
M  V30 3412 C 332.798 1.61827 4.94073 0
M  V30 3413 C 330.483 0.926557 4.9368 0
M  V30 3414 C 332.477 2.67754 5.78434 0
M  V30 3415 C 330.164 1.98904 5.77824 0
M  V30 3416 C 331.162 2.8629 6.20103 0
M  V30 3417 O 330.85 3.90708 7.02568 0
M  V30 3418 H 330.582 0.00576308 0.675975 0
M  V30 3419 H 333.136 0.664662 1.94349 0
M  V30 3420 H 331.366 -1.21817 3.67012 0
M  V30 3421 H 333.055 -0.911422 3.95535 0
M  V30 3422 H 333.821 1.48196 4.61804 0
M  V30 3423 H 329.7 0.25584 4.6029 0
M  V30 3424 H 333.244 3.35992 6.11355 0
M  V30 3425 H 329.141 2.12541 6.09505 0
M  V30 3426 H 329.909 3.87751 7.20827 0
M  V30 3427 N 332.573 -1.56217 0.208337 0
M  V30 3428 C 333.503 -2.22694 -0.702116 0
M  V30 3429 C 334.484 -1.19432 -1.2112 0
M  V30 3430 O 335.669 -1.47978 -1.25762 0
M  V30 3431 C 332.799 -2.8966 -1.9161 0
M  V30 3432 C 331.753 -3.9928 -1.5414 0
M  V30 3433 C 331.079 -4.53476 -2.83308 0
M  V30 3434 C 332.379 -5.17012 -0.741339 0
M  V30 3435 H 334.073 -2.99034 -0.147898 0
M  V30 3436 H 331.619 -1.43831 -0.0696951 0
M  V30 3437 H 333.572 -3.34852 -2.55836 0
M  V30 3438 H 332.296 -2.10746 -2.49507 0
M  V30 3439 H 330.955 -3.54799 -0.922668 0
M  V30 3440 H 330.603 -3.71308 -3.39322 0
M  V30 3441 H 330.303 -5.27451 -2.58976 0
M  V30 3442 H 331.827 -5.01378 -3.485 0
M  V30 3443 H 333.241 -5.58667 -1.28699 0
M  V30 3444 H 331.638 -5.97137 -0.595627 0
M  V30 3445 H 332.708 -4.8423 0.254851 0
M  V30 3446 N 334.051 0.0651679 -1.57465 0
M  V30 3447 C 335.328 0.79644 -1.78651 0
M  V30 3448 C 335.708 1.95454 -0.797566 0
M  V30 3449 O 335.056 2.27882 0.167946 0
M  V30 3450 C 335.266 1.26322 -3.25337 0
M  V30 3451 C 336.614 1.6939 -3.89348 0
M  V30 3452 O 337.638 1.35872 -3.29268 0
M  V30 3453 O 336.497 2.31471 -4.95059 0
M  V30 3454 H 333.591 0.382157 -0.733407 0
M  V30 3455 H 336.137 0.0447311 -1.69641 0
M  V30 3456 H 334.909 0.434859 -3.88876 0
M  V30 3457 H 334.532 2.07604 -3.39096 0
M  V30 3458 N 335.529 1.53961 0.336706 0
M  V30 3459 C 336.439 1.85432 1.43708 0
M  V30 3460 C 337.455 0.745053 1.57242 0
M  V30 3461 O 338.631 1.03804 1.72588 0
M  V30 3462 C 335.696 2.06349 2.78605 0
M  V30 3463 C 334.757 3.30191 2.74358 0
M  V30 3464 C 333.99 3.50101 4.02822 0
M  V30 3465 O 334.213 2.7371 5.00439 0
M  V30 3466 O 333.147 4.43547 4.06878 0
M  V30 3467 H 336.973 2.78975 1.20028 0
M  V30 3468 H 334.558 1.39701 0.52952 0
M  V30 3469 H 336.44 2.21513 3.58483 0
M  V30 3470 H 335.115 1.15995 3.02203 0
M  V30 3471 H 334.022 3.20425 1.93078 0
M  V30 3472 H 335.355 4.2056 2.55715 0
M  V30 3473 N 337.007 -0.598083 1.45811 0
M  V30 3474 C 337.954 -1.7082 1.55207 0
M  V30 3475 C 338.924 -1.61278 0.39732 0
M  V30 3476 O 340.109 -1.80717 0.612038 0
M  V30 3477 C 337.249 -3.09144 1.53376 0
M  V30 3478 C 336.362 -3.29423 2.79472 0
M  V30 3479 C 335.497 -4.57907 2.69248 0
M  V30 3480 C 334.536 -4.71476 3.90354 0
M  V30 3481 N 333.673 -5.9127 3.78608 0
M  V30 3482 H 338.513 -1.62125 2.50039 0
M  V30 3483 H 336.05 -0.790389 1.24062 0
M  V30 3484 H 338.008 -3.89186 1.50301 0
M  V30 3485 H 336.638 -3.16773 0.620876 0
M  V30 3486 H 335.69 -2.43091 2.92594 0
M  V30 3487 H 337.002 -3.3532 3.69272 0
M  V30 3488 H 336.156 -5.46157 2.64192 0
M  V30 3489 H 334.895 -4.54423 1.77063 0
M  V30 3490 H 333.9 -3.81648 3.95759 0
M  V30 3491 H 335.125 -4.76751 4.83617 0
M  V30 3492 H 333.071 -5.88813 2.89199 0
M  V30 3493 H 332.988 -5.98369 4.6205 0
M  V30 3494 H 334.256 -6.81992 3.77501 0
M  V30 3495 N 338.485 -1.33259 -0.841409 0
M  V30 3496 C 339.433 -1.23279 -1.97244 0
M  V30 3497 C 340.427 -0.134706 -1.68864 0
M  V30 3498 O 341.633 -0.298501 -1.77508 0
M  V30 3499 H 338.008 -0.382497 -0.647457 0
M  V30 3500 H 339.979 -2.18906 -2.02787 0
M  V30 3501 C 338.728 -0.986268 -3.33419 0
M  V30 3502 H 338.051 -1.82347 -3.55794 0
M  V30 3503 H 339.491 -0.956728 -4.13065 0
M  V30 3504 C 337.95 0.310842 -3.35463 0
M  V30 3505 O 338.48 1.31838 -3.79449 0
M  V30 3506 N 336.686 0.337485 -2.88634 0
M  V30 3507 H 336.233 -0.482967 -2.53032 0
M  V30 3508 H 336.191 1.20518 -2.90384 0
M  V30 3509 N 339.963 1.05934 -1.16686 0
M  V30 3510 C 340.893 2.1546 -0.899949 0
M  V30 3511 C 341.874 1.69391 0.155154 0
M  V30 3512 O 343.059 1.94199 0.00648693 0
M  V30 3513 C 340.189 3.44939 -0.404241 0
M  V30 3514 C 339.143 4.04536 -1.39767 0
M  V30 3515 C 338.469 5.29268 -0.760216 0
M  V30 3516 C 339.769 4.42893 -2.76845 0
M  V30 3517 H 341.463 2.38046 -1.81588 0
M  V30 3518 H 339.009 1.14404 -0.874514 0
M  V30 3519 H 340.962 4.20901 -0.204971 0
M  V30 3520 H 339.686 3.21983 0.547206 0
M  V30 3521 H 338.345 3.30635 -1.58355 0
M  V30 3522 H 337.993 5.02611 0.197831 0
M  V30 3523 H 337.693 5.70101 -1.42332 0
M  V30 3524 H 339.217 6.07924 -0.57105 0
M  V30 3525 H 340.631 5.09921 -2.62019 0
M  V30 3526 H 339.028 4.94721 -3.39663 0
M  V30 3527 H 340.098 3.53584 -3.31823 0
M  V30 3528 N 341.441 0.965919 1.2453 0
M  V30 3529 C 342.404 0.499547 2.2369 0
M  V30 3530 C 343.404 -0.40294 1.5567 0
M  V30 3531 O 344.594 -0.19865 1.73064 0
M  V30 3532 C 341.726 -0.276792 3.39774 0
M  V30 3533 H 342.919 1.37613 2.66463 0
M  V30 3534 H 340.472 0.750324 1.37112 0
M  V30 3535 H 341.207 -1.17055 3.02438 0
M  V30 3536 H 340.992 0.370826 3.90343 0
M  V30 3537 H 342.482 -0.592175 4.1338 0
M  V30 3538 N 342.919 -1.39368 0.735821 0
M  V30 3539 C 343.851 -2.2913 0.0567723 0
M  V30 3540 C 344.864 -1.46859 -0.702589 0
M  V30 3541 O 346.053 -1.69925 -0.546616 0
M  V30 3542 C 343.153 -3.25492 -0.943823 0
M  V30 3543 C 342.326 -4.36709 -0.24581 0
M  V30 3544 C 341.385 -5.13376 -1.15463 0
M  V30 3545 O 340.411 -5.65683 -0.631803 0
M  V30 3546 N 341.613 -5.24656 -2.48427 0
M  V30 3547 H 344.378 -2.88047 0.827582 0
M  V30 3548 H 341.939 -1.50957 0.585112 0
M  V30 3549 H 343.931 -3.73657 -1.55443 0
M  V30 3550 H 342.501 -2.676 -1.61583 0
M  V30 3551 H 341.721 -3.9041 0.545286 0
M  V30 3552 H 343.009 -5.08244 0.237891 0
M  V30 3553 H 342.407 -4.83679 -2.93379 0
M  V30 3554 H 340.964 -5.76258 -3.04582 0
M  V30 3555 N 344.397 -0.483516 -1.5 0
M  V30 3556 C 345.643 0.0672592 -2.02688 0
M  V30 3557 C 345.976 1.38247 -1.36387 0
M  V30 3558 O 345.251 1.88131 -0.493675 0
M  V30 3559 C 345.534 0.238109 -3.59312 0
M  V30 3560 C 345.387 -1.099 -4.36168 0
M  V30 3561 C 346.706 0.986916 -4.28892 0
M  V30 3562 H 343.825 0.0229696 -0.736642 0
M  V30 3563 H 346.467 -0.631527 -1.79197 0
M  V30 3564 H 344.617 0.8333 -3.79458 0
M  V30 3565 H 346.289 -1.73172 -4.27562 0
M  V30 3566 H 344.532 -1.69261 -3.99416 0
M  V30 3567 H 345.203 -0.932954 -5.44059 0
M  V30 3568 H 347.679 0.482302 -4.13295 0
M  V30 3569 H 346.555 1.07527 -5.38265 0
M  V30 3570 H 346.816 2.0265 -3.92919 0
M  V30 3571 N 345.875 1.56104 -0.216619 0
M  V30 3572 C 347.1 2.0301 0.424462 0
M  V30 3573 C 347.525 1.0955 1.52907 0
M  V30 3574 O 346.883 0.0827914 1.81111 0
M  V30 3575 C 346.931 3.4819 0.937883 0
M  V30 3576 O 346.035 3.57865 2.04955 0
M  V30 3577 H 345.376 0.656925 0.0966755 0
M  V30 3578 H 347.906 2.01859 -0.33381 0
M  V30 3579 H 347.916 3.88413 1.24897 0
M  V30 3580 H 346.591 4.15699 0.129387 0
M  V30 3581 H 345.168 3.29527 1.74546 0
M  V30 3582 N 347.353 -0.0568162 1.57498 0
M  V30 3583 C 348.581 -0.765626 1.92213 0
M  V30 3584 C 348.996 -1.70353 0.813961 0
M  V30 3585 O 348.353 -1.81268 -0.211701 0
M  V30 3586 C 348.404 -1.5465 3.2675 0
M  V30 3587 O 348.125 -0.646278 4.33307 0
M  V30 3588 C 349.626 -2.35497 3.75574 0
M  V30 3589 H 346.846 -0.216835 0.634999 0
M  V30 3590 H 349.39 -0.0226146 2.04487 0
M  V30 3591 H 347.545 -2.24165 3.15957 0
M  V30 3592 H 347.959 -1.19093 5.108 0
M  V30 3593 H 349.433 -2.85722 4.72299 0
M  V30 3594 H 349.91 -3.15692 3.05344 0
M  V30 3595 H 350.516 -1.7111 3.8936 0
M  V30 3596 N 348.832 -1.54138 -0.328536 0
M  V30 3597 C 349.78 -1.83894 -1.42428 0
M  V30 3598 C 350.774 -0.710478 -1.53781 0
M  V30 3599 O 351.98 -0.894062 -1.56226 0
M  V30 3600 H 348.355 -0.582837 -0.475189 0
M  V30 3601 H 350.326 -2.75537 -1.14552 0
M  V30 3602 C 349.075 -2.07866 -2.78724 0
M  V30 3603 H 348.398 -2.94158 -2.7076 0
M  V30 3604 H 349.838 -2.32644 -3.54476 0
M  V30 3605 C 348.297 -0.868689 -3.25508 0
M  V30 3606 O 348.827 -0.0754908 -4.01629 0
M  V30 3607 N 347.033 -0.681711 -2.82491 0
M  V30 3608 H 346.58 -1.32838 -2.20708 0
M  V30 3609 H 346.538 0.126374 -3.14146 0
M  V30 3610 N 350.31 0.590341 -1.46126 0
M  V30 3611 C 351.24 1.71032 -1.58966 0
M  V30 3612 C 352.221 1.64302 -0.440335 0
M  V30 3613 O 353.406 1.82436 -0.665634 0
M  V30 3614 C 350.536 3.09665 -1.57241 0
M  V30 3615 C 349.49 3.31221 -2.71066 0
M  V30 3616 C 348.816 4.70303 -2.54399 0
M  V30 3617 C 350.116 3.19796 -4.1295 0
M  V30 3618 H 351.81 1.60543 -2.52718 0
M  V30 3619 H 349.356 0.770933 -1.21625 0
M  V30 3620 H 351.309 3.87831 -1.64819 0
M  V30 3621 H 350.033 3.21036 -0.600289 0
M  V30 3622 H 348.692 2.55452 -2.62944 0
M  V30 3623 H 348.34 4.78429 -1.55288 0
M  V30 3624 H 348.04 4.85679 -3.30741 0
M  V30 3625 H 349.564 5.50647 -2.63857 0
M  V30 3626 H 350.978 3.87815 -4.22223 0
M  V30 3627 H 349.375 3.46696 -4.89818 0
M  V30 3628 H 350.445 2.16983 -4.33643 0
M  V30 3629 N 351.788 1.33704 0.83433 0
M  V30 3630 C 352.718 1.26967 1.95963 0
M  V30 3631 C 353.699 0.149337 1.69443 0
M  V30 3632 O 354.884 0.339852 1.91203 0
M  V30 3633 C 352.014 1.01275 3.32206 0
M  V30 3634 C 350.968 2.09652 3.73136 0
M  V30 3635 C 350.294 1.69166 5.07235 0
M  V30 3636 C 351.594 3.51372 3.86439 0
M  V30 3637 H 353.288 2.2112 2.01857 0
M  V30 3638 H 350.834 1.06447 0.969793 0
M  V30 3639 H 352.787 0.952106 4.10503 0
M  V30 3640 H 351.511 0.0356203 3.26581 0
M  V30 3641 H 350.17 2.14766 2.97104 0
M  V30 3642 H 349.818 0.701437 4.98085 0
M  V30 3643 H 349.518 2.41694 5.35591 0
M  V30 3644 H 351.042 1.64576 5.88003 0
M  V30 3645 H 352.456 3.48734 4.55036 0
M  V30 3646 H 350.853 4.22425 4.26236 0
M  V30 3647 H 351.923 3.89546 2.88759 0
M  V30 3648 N 353.266 -1.05314 1.17247 0
M  V30 3649 C 354.543 -1.75184 0.87005 0
M  V30 3650 C 354.923 -2.01481 -0.629965 0
M  V30 3651 O 354.271 -1.64988 -1.58086 0
M  V30 3652 C 354.481 -3.04594 1.70363 0
M  V30 3653 C 355.829 -3.78567 1.92281 0
M  V30 3654 O 356.853 -3.14461 1.67311 0
M  V30 3655 O 355.712 -4.93755 2.3424 0
M  V30 3656 H 352.806 -0.761729 0.322021 0
M  V30 3657 H 355.352 -1.11493 1.27935 0
M  V30 3658 H 354.124 -2.81201 2.72106 0
M  V30 3659 H 353.747 -3.76022 1.29202 0
M  V30 3660 N 354.744 -0.972509 -1.24016 0
M  V30 3661 C 355.991 -0.637034 -1.92219 0
M  V30 3662 C 356.319 0.828418 -1.75976 0
M  V30 3663 O 355.574 1.61206 -1.10955 0
M  V30 3664 C 355.873 -0.963694 -3.44162 0
M  V30 3665 C 355.539 -2.41807 -3.80579 0
M  V30 3666 C 354.201 -2.81556 -3.9023 0
M  V30 3667 C 356.553 -3.36172 -3.98293 0
M  V30 3668 C 353.881 -4.14702 -4.15017 0
M  V30 3669 C 356.233 -4.68952 -4.24578 0
M  V30 3670 C 354.897 -5.08472 -4.32449 0
M  V30 3671 H 354.167 -0.233107 -0.703379 0
M  V30 3672 H 356.814 -1.2249 -1.47202 0
M  V30 3673 H 355.119 -0.29365 -3.90698 0
M  V30 3674 H 356.816 -0.682449 -3.9515 0
M  V30 3675 H 353.406 -2.09988 -3.73635 0
M  V30 3676 H 357.59 -3.06644 -3.90234 0
M  V30 3677 H 352.846 -4.4494 -4.19331 0
M  V30 3678 H 357.02 -5.42037 -4.37229 0
M  V30 3679 H 354.647 -6.11665 -4.51409 0
M  V30 3680 N 356.222 1.38976 -0.743202 0
M  V30 3681 C 357.132 2.3434 -0.110399 0
M  V30 3682 C 358.148 1.58741 0.712559 0
M  V30 3683 O 359.324 1.9099 0.639125 0
M  V30 3684 C 356.389 3.37812 0.780012 0
M  V30 3685 C 355.45 4.29263 -0.0561319 0
M  V30 3686 C 354.683 5.27793 0.791875 0
M  V30 3687 O 354.906 5.33043 2.03031 0
M  V30 3688 O 353.84 6.01512 0.216183 0
M  V30 3689 H 357.666 2.90129 -0.897714 0
M  V30 3690 H 355.251 1.40643 -0.503966 0
M  V30 3691 H 357.133 4.01194 1.28923 0
M  V30 3692 H 355.808 2.84395 1.546 0
M  V30 3693 H 354.715 3.69076 -0.611056 0
M  V30 3694 H 356.048 4.85907 -0.784531 0
M  V30 3695 N 357.7 0.491464 1.49741 0
M  V30 3696 C 358.946 -0.0565092 2.02721 0
M  V30 3697 C 359.279 -1.37522 1.37118 0
M  V30 3698 O 358.554 -1.87866 0.503645 0
M  V30 3699 C 358.837 -0.219051 3.59433 0
M  V30 3700 C 358.69 1.12211 4.35579 0
M  V30 3701 C 360.009 -0.964157 4.29409 0
M  V30 3702 H 357.128 -0.0190627 0.736753 0
M  V30 3703 H 359.77 0.641021 1.7886 0
M  V30 3704 H 357.92 -0.813165 3.79895 0
M  V30 3705 H 359.592 1.75437 4.26637 0
M  V30 3706 H 357.835 1.71377 3.98513 0
M  V30 3707 H 358.506 0.961794 5.43556 0
M  V30 3708 H 360.982 -0.460378 4.13545 0
M  V30 3709 H 359.858 -1.04671 5.38828 0
M  V30 3710 H 360.119 -2.00563 3.93988 0
M  V30 3711 N 359.178 -1.55987 0.224894 0
M  V30 3712 C 360.406 -2.02784 -0.410665 0
M  V30 3713 C 360.821 -1.10464 -1.53112 0
M  V30 3714 O 360.178 -0.114871 -1.82138 0
M  V30 3715 C 360.229 -3.49087 -0.939165 0
M  V30 3716 O 359.95 -4.37887 0.136614 0
M  V30 3717 C 361.451 -4.11543 -1.64763 0
M  V30 3718 H 358.671 -0.663484 -0.100148 0
M  V30 3719 H 361.215 -2.01614 0.342326 0
M  V30 3720 H 359.37 -3.50861 -1.64242 0
M  V30 3721 H 359.784 -5.23849 -0.261155 0
M  V30 3722 H 361.258 -5.15673 -1.96939 0
M  V30 3723 H 361.735 -3.56736 -2.56195 0
M  V30 3724 H 362.341 -4.13629 -0.989503 0
M  V30 3725 N 360.656 0.0484629 -1.57525 0
M  V30 3726 C 361.619 1.03956 -2.04269 0
M  V30 3727 C 362.619 1.30211 -0.943496 0
M  V30 3728 O 363.809 1.25539 -1.20771 0
M  V30 3729 C 360.941 2.37742 -2.44319 0
M  V30 3730 H 362.134 0.636182 -2.93075 0
M  V30 3731 H 359.687 0.294811 -1.53494 0
M  V30 3732 H 360.422 2.82866 -1.5861 0
M  V30 3733 H 360.207 2.20021 -3.24551 0
M  V30 3734 H 361.697 3.08936 -2.80978 0
M  V30 3735 N 362.134 1.5431 0.320358 0
M  V30 3736 C 363.064 1.86912 1.3995 0
M  V30 3737 C 364.045 0.726211 1.53819 0
M  V30 3738 O 365.23 0.980233 1.67646 0
M  V30 3739 C 362.36 2.09932 2.7667 0
M  V30 3740 C 361.314 3.25776 2.77586 0
M  V30 3741 C 360.64 3.34173 4.17412 0
M  V30 3742 C 361.94 4.6335 2.41048 0
M  V30 3743 H 363.634 2.77292 1.12914 0
M  V30 3744 H 361.18 1.33421 0.541738 0
M  V30 3745 H 363.133 2.31324 3.52232 0
M  V30 3746 H 361.857 1.16304 3.0519 0
M  V30 3747 H 360.516 3.04276 2.04479 0
M  V30 3748 H 360.164 2.38098 4.43078 0
M  V30 3749 H 359.864 4.12033 4.18931 0
M  V30 3750 H 361.388 3.57803 4.94782 0
M  V30 3751 H 362.802 4.84602 3.06324 0
M  V30 3752 H 361.199 5.43782 2.53813 0
M  V30 3753 H 362.269 4.65381 1.36193 0
M  V30 3754 N 363.613 -0.582584 1.46437 0
M  V30 3755 C 364.563 -1.68654 1.53426 0
M  V30 3756 C 365.547 -1.55971 0.395194 0
M  V30 3757 O 366.739 -1.64884 0.643612 0
M  V30 3758 C 363.868 -3.07439 1.52762 0
M  V30 3759 C 362.954 -3.25418 2.71963 0
M  V30 3760 N 363.345 -3.13556 3.96883 0
M  V30 3761 C 361.643 -3.56357 2.68189 0
M  V30 3762 C 362.344 -3.33543 4.76575 0
M  V30 3763 N 361.32 -3.58704 4.08451 0
M  V30 3764 H 365.122 -1.58014 2.47808 0
M  V30 3765 H 362.636 -0.786617 1.42078 0
M  V30 3766 H 364.633 -3.86671 1.55857 0
M  V30 3767 H 363.293 -3.1921 0.594573 0
M  V30 3768 H 364.304 -2.9142 4.28129 0
M  V30 3769 H 360.981 -3.74812 1.83908 0
M  V30 3770 H 362.371 -3.29555 5.85528 0
M  V30 3771 N 365.091 -1.34144 -0.827227 0
M  V30 3772 C 366.319 -1.29325 -1.61501 0
M  V30 3773 C 366.734 0.13354 -1.88327 0
M  V30 3774 O 366.091 1.0793 -1.47164 0
M  V30 3775 C 366.142 -2.07746 -2.95844 0
M  V30 3776 O 365.863 -3.4486 -2.70191 0
M  V30 3777 C 367.364 -2.10273 -3.90256 0
M  V30 3778 H 364.584 -0.445069 -0.50215 0
M  V30 3779 H 367.128 -1.76693 -1.02955 0
M  V30 3780 H 365.283 -1.6403 -3.5096 0
M  V30 3781 H 365.697 -3.85345 -3.55822 0
M  V30 3782 H 367.171 -2.69575 -4.81698 0
M  V30 3783 H 367.648 -1.096 -4.25305 0
M  V30 3784 H 368.254 -2.54059 -3.41078 0
M  V30 3785 N 366.569 1.04691 -1.17803 0
M  V30 3786 C 367.815 1.78045 -0.970969 0
M  V30 3787 C 368.148 1.87686 0.498751 0
M  V30 3788 O 367.423 1.38035 1.37027 0
M  V30 3789 C 367.706 3.2166 -1.61884 0
M  V30 3790 C 367.559 3.20001 -3.161 0
M  V30 3791 C 368.878 4.1962 -1.3269 0
M  V30 3792 H 365.997 0.64633 -0.354155 0
M  V30 3793 H 368.639 1.22333 -1.45378 0
M  V30 3794 H 366.789 3.69232 -1.20831 0
M  V30 3795 H 368.461 2.80467 -3.66246 0
M  V30 3796 H 366.704 2.58203 -3.48588 0
M  V30 3797 H 367.375 4.21386 -3.56564 0
M  V30 3798 H 369.851 3.80567 -1.68249 0
M  V30 3799 H 368.727 5.18339 -1.80599 0
M  V30 3800 H 368.988 4.414 -0.248622 0
M  V30 3801 N 368.047 0.979072 1.23499 0
M  V30 3802 C 369.277 0.664237 1.95631 0
M  V30 3803 C 369.685 -0.772653 1.72704 0
M  V30 3804 O 369.028 -1.53141 1.01457 0
M  V30 3805 C 369.09 0.873115 3.48736 0
M  V30 3806 C 368.754 2.29182 3.95379 0
M  V30 3807 C 369.751 3.2704 4.04155 0
M  V30 3808 C 367.436 2.62256 4.28401 0
M  V30 3809 C 369.43 4.56052 4.45304 0
M  V30 3810 C 367.117 3.91491 4.69231 0
M  V30 3811 C 368.115 4.88201 4.77649 0
M  V30 3812 O 367.803 6.15129 5.17563 0
M  V30 3813 H 367.535 0.245915 0.629684 0
M  V30 3814 H 370.089 1.3127 1.57979 0
M  V30 3815 H 368.319 0.167476 3.86337 0
M  V30 3816 H 370.008 0.555642 4.02079 0
M  V30 3817 H 370.774 3.02819 3.78848 0
M  V30 3818 H 366.653 1.87692 4.21061 0
M  V30 3819 H 370.197 5.31538 4.51789 0
M  V30 3820 H 366.094 4.15508 4.93987 0
M  V30 3821 H 366.862 6.18862 5.35679 0
M  V30 3822 N 369.525 -1.3858 0.750561 0
M  V30 3823 C 370.435 -2.34278 0.122825 0
M  V30 3824 C 371.451 -1.59116 -0.704131 0
M  V30 3825 O 372.627 -1.91326 -0.628987 0
M  V30 3826 C 369.692 -3.38221 -0.762086 0
M  V30 3827 C 368.753 -4.29227 0.078896 0
M  V30 3828 C 367.986 -5.28205 -0.763874 0
M  V30 3829 O 368.209 -5.34112 -2.00201 0
M  V30 3830 O 367.143 -6.01618 -0.18428 0
M  V30 3831 H 370.969 -2.89649 0.913088 0
M  V30 3832 H 368.554 -1.40374 0.511417 0
M  V30 3833 H 370.436 -4.01872 -1.26793 0
M  V30 3834 H 369.111 -2.85211 -1.5309 0
M  V30 3835 H 368.018 -3.68747 0.630621 0
M  V30 3836 H 369.351 -4.85484 0.810289 0
M  V30 3837 N 371.003 -0.499398 -1.49478 0
M  V30 3838 C 371.913 0.284489 -2.32869 0
M  V30 3839 C 372.929 0.968885 -1.44529 0
M  V30 3840 O 374.105 0.95062 -1.77553 0
M  V30 3841 C 371.17 1.33594 -3.19928 0
M  V30 3842 C 370.231 0.665149 -4.24116 0
M  V30 3843 C 369.464 1.6665 -5.07014 0
M  V30 3844 O 369.687 2.89618 -4.91404 0
M  V30 3845 O 368.621 1.22271 -5.8935 0
M  V30 3846 H 372.447 -0.39802 -3.01081 0
M  V30 3847 H 370.032 -0.260758 -1.47107 0
M  V30 3848 H 371.914 1.94431 -3.73864 0
M  V30 3849 H 370.589 2.0014 -2.54412 0
M  V30 3850 H 369.496 0.0170769 -3.74096 0
M  V30 3851 H 370.829 0.0421555 -4.92182 0
M  V30 3852 N 372.481 1.55866 -0.233164 0
M  V30 3853 C 373.709 2.02998 0.399905 0
M  V30 3854 C 374.124 1.11274 1.52524 0
M  V30 3855 O 373.481 0.124528 1.82075 0
M  V30 3856 C 373.532 3.4958 0.920639 0
M  V30 3857 O 373.253 4.37808 -0.159834 0
M  V30 3858 C 374.754 4.12411 1.62578 0
M  V30 3859 H 371.974 0.664006 0.0966281 0
M  V30 3860 H 374.518 2.0143 -0.353013 0
M  V30 3861 H 372.673 3.51727 1.62379 0
M  V30 3862 H 373.087 5.23981 0.23337 0
M  V30 3863 H 374.561 5.16711 1.94201 0
M  V30 3864 H 375.038 3.5809 2.54299 0
M  V30 3865 H 375.644 4.14148 0.967553 0
M  V30 3866 N 373.959 -0.0401083 1.57549 0
M  V30 3867 C 375.199 -0.738098 1.90608 0
M  V30 3868 C 375.563 -1.73107 0.830539 0
M  V30 3869 O 376.764 -2.4765 1.04513 0
M  V30 3870 C 375.035 -1.39985 3.28845 0
M  V30 3871 S 376.594 -2.12852 3.83718 0
M  V30 3872 H 373.412 -0.24477 0.667539 0
M  V30 3873 H 376.014 0.00693599 1.95499 0
M  V30 3874 H 374.718 -0.663775 4.04997 0
M  V30 3875 H 374.249 -2.18366 3.2723 0
M  V30 3876 H 376.264 -3.39842 3.61555 0
M  V30 3877 N 375.437 -1.54477 -0.31217 0
M  V30 3878 C 376.853 -1.45442 -0.657185 0
M  V30 3879 C 377.053 -0.63653 -1.91182 0
M  V30 3880 O 376.109 -0.139815 -2.52113 0
M  V30 3881 C 377.422 -2.89287 -0.82058 0
M  V30 3882 C 378.97 -2.9926 -0.917188 0
M  V30 3883 C 379.445 -4.44279 -1.11267 0
M  V30 3884 N 380.936 -4.4794 -1.17914 0
M  V30 3885 C 381.671 -5.57318 -1.34848 0
M  V30 3886 N 381.167 -6.76642 -1.48752 0
M  V30 3887 N 382.96 -5.44986 -1.37647 0
M  V30 3888 H 375.111 -2.06129 0.512313 0
M  V30 3889 H 377.374 -0.933088 0.167485 0
M  V30 3890 H 377.08 -3.51687 0.0302604 0
M  V30 3891 H 376.954 -3.36061 -1.71298 0
M  V30 3892 H 379.341 -2.36981 -1.75852 0
M  V30 3893 H 379.422 -2.558 -0.00101257 0
M  V30 3894 H 379.066 -5.07149 -0.27614 0
M  V30 3895 H 378.996 -4.85359 -2.04289 0
M  V30 3896 H 381.487 -3.61969 -1.08567 0
M  V30 3897 H 381.8 -7.55758 -1.61397 0
M  V30 3898 H 380.145 -6.79529 -1.45828 0
M  V30 3899 H 383.336 -4.50715 -1.26388 0
M  V30 3900 H 383.509 -6.3028 -1.50501 0
M  V30 3901 N 376.915 0.57481 -1.46744 0
M  V30 3902 C 377.825 1.711 -1.60505 0
M  V30 3903 C 378.841 1.67008 -0.488307 0
M  V30 3904 O 380.017 1.86774 -0.753495 0
M  V30 3905 C 377.082 3.07608 -1.59932 0
M  V30 3906 C 376.143 3.22904 -2.82898 0
M  V30 3907 C 375.376 4.529 -2.82343 0
M  V30 3908 O 375.599 5.37278 -1.91542 0
M  V30 3909 O 374.533 4.71611 -3.73987 0
M  V30 3910 H 378.359 1.62436 -2.56609 0
M  V30 3911 H 375.944 0.742779 -1.29627 0
M  V30 3912 H 377.826 3.88877 -1.62336 0
M  V30 3913 H 376.501 3.16692 -0.669898 0
M  V30 3914 H 375.408 2.41099 -2.86046 0
M  V30 3915 H 376.741 3.18715 -3.75076 0
M  V30 3916 N 378.394 1.34581 0.820102 0
M  V30 3917 C 379.357 1.2628 1.91275 0
M  V30 3918 C 380.357 0.177344 1.59819 0
M  V30 3919 O 381.547 0.430156 1.68806 0
M  V30 3920 C 378.679 0.950327 3.27386 0
M  V30 3921 H 379.872 2.23421 2.00057 0
M  V30 3922 H 377.425 1.1891 1.0144 0
M  V30 3923 H 378.16 -0.0177938 3.24295 0
M  V30 3924 H 377.945 1.73549 3.51601 0
M  V30 3925 H 379.435 0.917492 4.07396 0
M  V30 3926 N 379.872 -1.04064 1.18357 0
M  V30 3927 C 380.804 -2.12114 0.868358 0
M  V30 3928 C 381.817 -1.62247 -0.134045 0
M  V30 3929 O 383.006 -1.78253 0.0937933 0
M  V30 3930 C 380.106 -3.37773 0.276132 0
M  V30 3931 C 379.279 -4.16874 1.3242 0
M  V30 3932 C 378.338 -5.20861 0.747662 0
M  V30 3933 O 377.364 -5.51141 1.42239 0
M  V30 3934 N 378.566 -5.78715 -0.454823 0
M  V30 3935 H 381.331 -2.39748 1.79836 0
M  V30 3936 H 378.892 -1.20258 1.08396 0
M  V30 3937 H 380.884 -4.04513 -0.123133 0
M  V30 3938 H 379.454 -3.07581 -0.557895 0
M  V30 3939 H 378.674 -3.45456 1.89878 0
M  V30 3940 H 379.962 -4.66516 2.03078 0
M  V30 3941 H 379.36 -5.56415 -1.02073 0
M  V30 3942 H 377.917 -6.46921 -0.79601 0
M  V30 3943 N 381.35 -0.985608 -1.22978 0
M  V30 3944 C 382.26 -0.538548 -2.28335 0
M  V30 3945 C 383.276 0.409163 -1.69121 0
M  V30 3946 O 384.452 0.277797 -1.99475 0
M  V30 3947 C 381.517 0.146867 -3.46389 0
M  V30 3948 C 380.578 -0.842896 -4.20944 0
M  V30 3949 C 379.811 -0.190095 -5.33361 0
M  V30 3950 O 380.034 1.01767 -5.61248 0
M  V30 3951 O 378.968 -0.891289 -5.95264 0
M  V30 3952 H 382.794 -1.41487 -2.68729 0
M  V30 3953 H 380.379 -0.753495 -1.29007 0
M  V30 3954 H 382.261 0.531125 -4.1804 0
M  V30 3955 H 380.936 0.997871 -3.07935 0
M  V30 3956 H 379.843 -1.27795 -3.51595 0
M  V30 3957 H 381.176 -1.66287 -4.6326 0
M  V30 3958 N 382.828 1.3818 -0.7579 0
M  V30 3959 C 383.758 2.33027 -0.148597 0
M  V30 3960 C 384.739 1.55085 0.69875 0
M  V30 3961 O 385.924 1.83384 0.639053 0
M  V30 3962 C 383.054 3.3928 0.742034 0
M  V30 3963 C 382.008 4.28 -0.00291946 0
M  V30 3964 C 381.334 5.25146 1.00625 0
M  V30 3965 C 382.634 5.08938 -1.17385 0
M  V30 3966 H 384.328 2.84231 -0.940909 0
M  V30 3967 H 381.874 1.36659 -0.453908 0
M  V30 3968 H 383.827 4.046 1.17799 0
M  V30 3969 H 382.551 2.86569 1.56671 0
M  V30 3970 H 381.21 3.64192 -0.419504 0
M  V30 3971 H 380.858 4.68721 1.8251 0
M  V30 3972 H 380.558 5.85361 0.512428 0
M  V30 3973 H 382.082 5.93342 1.44143 0
M  V30 3974 H 383.496 5.67474 -0.815224 0
M  V30 3975 H 381.893 5.7841 -1.59882 0
M  V30 3976 H 382.963 4.42424 -1.98468 0
M  V30 3977 N 384.306 0.507319 1.49211 0
M  V30 3978 C 385.531 -0.033725 2.07373 0
M  V30 3979 C 385.956 -1.29485 1.36437 0
M  V30 3980 O 385.314 -1.76294 0.423087 0
M  V30 3981 C 385.362 -0.263945 3.59633 0
M  V30 3982 O 384.466 -1.33737 3.90113 0
M  V30 3983 H 383.807 0.0290331 0.663365 0
M  V30 3984 H 386.337 0.708749 1.91932 0
M  V30 3985 H 386.347 -0.493536 4.05004 0
M  V30 3986 H 385.022 0.657424 4.10671 0
M  V30 3987 H 383.599 -1.09224 3.56545 0
M  V30 3988 N 385.784 -1.5574 0.241426 0
M  V30 3989 C 386.714 -2.24133 -0.654722 0
M  V30 3990 C 387.695 -1.21974 -1.1856 0
M  V30 3991 O 388.88 -1.50612 -1.22595 0
M  V30 3992 C 386.01 -2.93659 -1.85423 0
M  V30 3993 C 384.964 -4.0246 -1.45636 0
M  V30 3994 C 384.29 -4.59383 -2.73626 0
M  V30 3995 C 385.59 -5.18468 -0.631506 0
M  V30 3996 H 387.284 -2.99281 -0.0844353 0
M  V30 3997 H 384.83 -1.43947 -0.0391707 0
M  V30 3998 H 386.783 -3.40203 -2.48676 0
M  V30 3999 H 385.507 -2.15991 -2.44981 0
M  V30 4000 H 384.166 -3.56676 -0.847202 0
M  V30 4001 H 383.814 -3.78422 -3.3137 0
M  V30 4002 H 383.514 -5.32826 -2.4773 0
M  V30 4003 H 385.038 -5.08658 -3.37786 0
M  V30 4004 H 386.452 -5.61272 -1.1682 0
M  V30 4005 H 384.849 -5.98266 -0.468831 0
M  V30 4006 H 385.919 -4.8358 0.357506 0
M  V30 4007 N 387.262 0.0317525 -1.57568 0
M  V30 4008 C 388.673 0.578692 -1.77505 0
M  V30 4009 C 389.024 1.75749 -0.872164 0
M  V30 4010 O 388.149 2.16298 -0.0663106 0
M  V30 4011 C 388.744 1.05658 -3.21904 0
M  V30 4012 C 387.303 1.54906 -3.43047 0
M  V30 4013 C 386.45 0.485939 -2.73009 0
M  V30 4014 H 389.401 -0.194475 -1.57504 0
M  V30 4015 H 389.422 1.92404 -3.28269 0
M  V30 4016 H 388.934 0.198422 -3.87592 0
M  V30 4017 H 387.035 2.42915 -2.82529 0
M  V30 4018 H 387.148 1.59841 -4.5165 0
M  V30 4019 H 385.512 0.940354 -2.36705 0
M  V30 4020 H 386.295 -0.362709 -3.41379 0
M  V30 4021 N 388.74 1.54641 0.303973 0
M  V30 4022 C 389.986 1.74038 1.04109 0
M  V30 4023 C 390.319 0.523051 1.87024 0
M  V30 4024 O 389.594 -0.479874 1.88487 0
M  V30 4025 C 389.877 3.02761 1.94955 0
M  V30 4026 C 389.73 4.34787 1.1524 0
M  V30 4027 C 391.049 3.27336 2.94175 0
M  V30 4028 H 388.168 0.63323 0.377079 0
M  V30 4029 H 390.81 1.87354 0.316001 0
M  V30 4030 H 388.96 2.9154 2.56782 0
M  V30 4031 H 390.632 4.57922 0.557236 0
M  V30 4032 H 388.875 4.31407 0.455053 0
M  V30 4033 H 389.546 5.21116 1.8205 0
M  V30 4034 H 392.022 3.38148 2.42477 0
M  V30 4035 H 390.898 4.18726 3.54908 0
M  V30 4036 H 391.159 2.45491 3.67677 0
M  V30 4037 N 390.218 -0.567019 1.47046 0
M  V30 4038 C 391.464 -1.32658 1.53394 0
M  V30 4039 C 391.797 -1.93254 0.19148 0
M  V30 4040 O 391.072 -1.77338 -0.798844 0
M  V30 4041 C 391.355 -2.44412 2.64452 0
M  V30 4042 C 391.208 -1.88749 4.08282 0
M  V30 4043 C 392.527 -3.46387 2.71485 0
M  V30 4044 H 389.646 -0.48098 0.558415 0
M  V30 4045 H 392.288 -0.635481 1.79058 0
M  V30 4046 H 390.438 -3.03363 2.427 0
M  V30 4047 H 392.11 -1.34134 4.41368 0
M  V30 4048 H 390.353 -1.19481 4.17021 0
M  V30 4049 H 391.024 -2.69491 4.81745 0
M  V30 4050 H 393.5 -2.9734 2.91081 0
M  V30 4051 H 392.376 -4.2202 3.50985 0
M  V30 4052 H 392.637 -4.04616 1.78153 0
M  V30 4053 N 391.696 -1.35014 -0.812953 0
M  V30 4054 C 392.944 -1.27678 -1.56661 0
M  V30 4055 C 393.265 0.150359 -1.94419 0
M  V30 4056 O 392.535 1.08532 -1.63088 0
M  V30 4057 H 391.115 -0.469602 -0.580933 0
M  V30 4058 H 393.777 -1.69043 -0.970076 0
M  V30 4059 H 392.873 -1.88833 -2.48492 0
M  V30 4060 N 393.175 1.03435 -1.18907 0
M  V30 4061 C 394.4 1.80919 -1.01406 0
M  V30 4062 C 394.825 1.83055 0.432721 0
M  V30 4063 O 394.183 1.25252 1.31079 0
M  V30 4064 C 394.231 3.24091 -1.58105 0
M  V30 4065 O 393.335 4.04434 -0.806669 0
M  V30 4066 H 392.676 0.558709 -0.358803 0
M  V30 4067 H 395.206 1.30223 -1.57807 0
M  V30 4068 H 395.216 3.74853 -1.61087 0
M  V30 4069 H 393.891 3.21851 -2.6341 0
M  V30 4070 H 392.468 3.63091 -0.849666 0
M  V30 4071 N 394.653 0.992116 1.22453 0
M  V30 4072 C 395.585 0.500024 2.23679 0
M  V30 4073 C 396.598 -0.404463 1.57696 0
M  V30 4074 O 397.787 -0.206722 1.77299 0
M  V30 4075 C 394.887 -0.294711 3.37616 0
M  V30 4076 C 394.06 0.605723 4.33186 0
M  V30 4077 C 393.119 -0.13717 5.26021 0
M  V30 4078 O 392.145 0.477164 5.67196 0
M  V30 4079 N 393.347 -1.4197 5.62872 0
M  V30 4080 H 396.112 1.37045 2.66531 0
M  V30 4081 H 393.673 0.866741 1.36745 0
M  V30 4082 H 395.665 -0.800329 3.96707 0
M  V30 4083 H 394.235 -1.06623 2.93854 0
M  V30 4084 H 393.455 1.29202 3.72425 0
M  V30 4085 H 394.743 1.21896 4.93983 0
M  V30 4086 H 394.141 -1.94015 5.31389 0
M  V30 4087 H 392.698 -1.87052 6.24383 0
M  V30 4088 N 396.131 -1.37776 0.765217 0
M  V30 4089 C 397.061 -2.32945 0.160953 0
M  V30 4090 C 398.042 -1.55454 -0.690516 0
M  V30 4091 O 399.227 -1.83721 -0.629318 0
M  V30 4092 C 396.357 -3.39669 -0.724031 0
M  V30 4093 C 395.311 -4.27992 0.0256173 0
M  V30 4094 C 394.637 -5.25673 -0.978383 0
M  V30 4095 C 395.937 -5.08309 1.20082 0
M  V30 4096 H 397.631 -2.83728 0.955969 0
M  V30 4097 H 395.177 -1.36416 0.461149 0
M  V30 4098 H 397.13 -4.05219 -1.15652 0
M  V30 4099 H 395.854 -2.87396 -1.5515 0
M  V30 4100 H 394.513 -3.63964 0.438812 0
M  V30 4101 H 394.161 -4.69682 -1.80022 0
M  V30 4102 H 393.861 -5.85625 -0.481378 0
M  V30 4103 H 395.385 -5.94098 -1.40995 0
M  V30 4104 H 396.799 -5.67034 0.845307 0
M  V30 4105 H 395.196 -5.77554 1.62947 0
M  V30 4106 H 396.266 -4.41365 2.00811 0
M  V30 4107 N 397.609 -0.515225 -1.4894 0
M  V30 4108 C 398.855 0.0242508 -2.02785 0
M  V30 4109 C 399.188 1.35323 -1.39289 0
M  V30 4110 O 398.463 1.87041 -0.533469 0
M  V30 4111 C 398.746 0.16184 -3.59736 0
M  V30 4112 C 398.599 -1.19127 -4.33738 0
M  V30 4113 C 399.918 0.895719 -4.30888 0
M  V30 4114 H 397.037 0.00733914 -0.736963 0
M  V30 4115 H 399.679 -0.669395 -1.77818 0
M  V30 4116 H 397.829 0.752624 -3.8114 0
M  V30 4117 H 399.501 -1.82202 -4.23792 0
M  V30 4118 H 397.744 -1.77695 -3.95736 0
M  V30 4119 H 398.415 -1.04815 -5.41957 0
M  V30 4120 H 400.891 0.394528 -4.14225 0
M  V30 4121 H 399.767 0.960859 -5.40425 0
M  V30 4122 H 400.028 1.9427 -3.97129 0
M  V30 4123 N 399.087 1.5561 -0.249682 0
M  V30 4124 C 400.335 1.98618 0.373548 0
M  V30 4125 C 400.656 1.13919 1.58264 0
M  V30 4126 O 399.926 0.222637 1.94631 0
M  V30 4127 H 398.506 0.733571 0.141006 0
M  V30 4128 H 401.168 1.91748 -0.349117 0
M  V30 4129 H 400.264 3.04584 0.680796 0
M  V30 4130 N 400.565 -0.0233959 1.57583 0
M  V30 4131 C 401.495 -1.02162 2.09965 0
M  V30 4132 C 402.476 -1.3735 1.00344 0
M  V30 4133 O 403.661 -1.46135 1.27899 0
M  V30 4134 C 400.791 -2.32081 2.58371 0
M  V30 4135 C 399.745 -2.1112 3.72307 0
M  V30 4136 C 399.071 -3.46848 4.06941 0
M  V30 4137 C 400.371 -1.49276 5.00514 0
M  V30 4138 H 402.065 -0.585557 2.93618 0
M  V30 4139 H 399.611 -0.280218 1.41247 0
M  V30 4140 H 401.564 -3.02249 2.93639 0
M  V30 4141 H 400.288 -2.77758 1.71808 0
M  V30 4142 H 398.947 -1.43384 3.37397 0
M  V30 4143 H 398.595 -3.90184 3.17436 0
M  V30 4144 H 398.295 -3.33646 4.83688 0
M  V30 4145 H 399.819 -4.18369 4.44747 0
M  V30 4146 H 401.233 -2.09368 5.33702 0
M  V30 4147 H 399.63 -1.46632 5.8191 0
M  V30 4148 H 400.7 -0.459217 4.82721 0
M  V30 4149 N 402.043 -1.548 -0.295768 0
M  V30 4150 C 403.289 -1.74588 -1.03184 0
M  V30 4151 C 403.622 -0.532962 -1.86744 0
M  V30 4152 O 402.897 0.469872 -1.88739 0
M  V30 4153 C 403.18 -3.03791 -1.93347 0
M  V30 4154 C 403.033 -4.35392 -1.12933 0
M  V30 4155 C 404.352 -3.28892 -2.92435 0
M  V30 4156 H 401.471 -0.635221 -0.373715 0
M  V30 4157 H 404.113 -1.87519 -0.30606 0
M  V30 4158 H 402.263 -2.92898 -2.55232 0
M  V30 4159 H 403.935 -4.58211 -0.532943 0
M  V30 4160 H 402.178 -4.31642 -0.432168 0
M  V30 4161 H 402.849 -5.22074 -1.79284 0
M  V30 4162 H 405.325 -3.39429 -2.4068 0
M  V30 4163 H 404.201 -4.20603 -3.52682 0
M  V30 4164 H 404.462 -2.47437 -3.6637 0
M  V30 4165 N 403.521 0.559213 -1.47345 0
M  V30 4166 C 404.932 1.14134 -1.47751 0
M  V30 4167 C 405.283 1.94834 -0.231103 0
M  V30 4168 O 404.408 2.05957 0.664137 0
M  V30 4169 C 405.003 2.07653 -2.67705 0
M  V30 4170 C 403.562 2.61141 -2.71076 0
M  V30 4171 C 402.709 1.3748 -2.40821 0
M  V30 4172 H 405.66 0.345917 -1.54884 0
M  V30 4173 H 405.681 2.91497 -2.44561 0
M  V30 4174 H 405.193 1.4889 -3.58404 0
M  V30 4175 H 403.294 3.23707 -1.84511 0
M  V30 4176 H 403.407 3.02272 -3.7171 0
M  V30 4177 H 401.771 1.68086 -1.91362 0
M  V30 4178 H 402.554 0.805135 -3.33725 0
M  V30 4179 N 404.999 1.35443 0.805782 0
M  V30 4180 C 405.929 1.31095 1.93226 0
M  V30 4181 C 406.91 0.185244 1.69088 0
M  V30 4182 O 408.095 0.380332 1.90439 0
M  V30 4183 C 405.225 1.08299 3.29983 0
M  V30 4184 C 404.179 2.17519 3.68605 0
M  V30 4185 C 403.505 1.79887 5.03532 0
M  V30 4186 C 404.805 3.5949 3.78898 0
M  V30 4187 H 406.499 2.25352 1.97122 0
M  V30 4188 H 404.045 1.0848 0.946996 0
M  V30 4189 H 405.998 1.03897 4.08391 0
M  V30 4190 H 404.722 0.104885 3.26432 0
M  V30 4191 H 403.381 2.2102 2.92482 0
M  V30 4192 H 403.029 0.80693 4.96485 0
M  V30 4193 H 402.729 2.53001 5.30344 0
M  V30 4194 H 404.253 1.77011 5.84379 0
M  V30 4195 H 405.667 3.58307 4.47536 0
M  V30 4196 H 404.064 4.31371 4.1718 0
M  V30 4197 H 405.134 3.95584 2.80431 0
M  V30 4198 N 406.477 -1.02803 1.19454 0
M  V30 4199 C 407.424 -2.11099 0.933046 0
M  V30 4200 C 408.394 -1.65571 -0.132447 0
M  V30 4201 O 409.579 -1.90797 0.00987576 0
M  V30 4202 C 406.719 -3.41763 0.478747 0
M  V30 4203 C 405.832 -4.00833 1.6111 0
M  V30 4204 C 404.967 -5.19511 1.10825 0
M  V30 4205 C 404.006 -5.70639 2.21445 0
M  V30 4206 N 403.143 -6.80589 1.72461 0
M  V30 4207 H 407.983 -2.32804 1.86028 0
M  V30 4208 H 405.52 -1.14179 0.927441 0
M  V30 4209 H 407.478 -4.16736 0.196745 0
M  V30 4210 H 406.108 -3.20166 -0.411493 0
M  V30 4211 H 405.16 -3.23066 2.00829 0
M  V30 4212 H 406.472 -4.34794 2.4445 0
M  V30 4213 H 405.626 -6.01645 0.781533 0
M  V30 4214 H 404.365 -4.87086 0.244606 0
M  V30 4215 H 403.37 -4.87116 2.54947 0
M  V30 4216 H 404.595 -6.05102 3.08267 0
M  V30 4217 H 402.541 -6.50016 0.884056 0
M  V30 4218 H 402.458 -7.13681 2.49389 0
M  V30 4219 H 403.726 -7.66317 1.42755 0
M  V30 4220 N 407.956 -0.998596 -1.21925 0
M  V30 4221 C 408.919 -0.558679 -2.22287 0
M  V30 4222 C 409.919 0.361525 -1.56683 0
M  V30 4223 O 411.109 0.152695 -1.73529 0
M  V30 4224 C 408.241 0.18661 -3.40389 0
M  V30 4225 H 409.434 -1.4463 -2.62721 0
M  V30 4226 H 406.987 -0.786413 -1.35075 0
M  V30 4227 H 407.722 1.08996 -3.05435 0
M  V30 4228 H 407.507 -0.474188 -3.89222 0
M  V30 4229 H 408.997 0.482367 -4.14805 0
M  V30 4230 N 409.434 1.37368 -0.772513 0
M  V30 4231 C 410.364 2.32856 -0.173304 0
M  V30 4232 C 411.345 1.55818 0.682262 0
M  V30 4233 O 412.53 1.84052 0.619566 0
M  V30 4234 C 409.66 3.40048 0.706007 0
M  V30 4235 C 408.614 4.27973 -0.0483144 0
M  V30 4236 C 407.94 5.26184 0.950491 0
M  V30 4237 C 409.24 5.07665 -1.22776 0
M  V30 4238 H 410.934 2.83217 -0.971002 0
M  V30 4239 H 408.48 1.3617 -0.468377 0
M  V30 4240 H 410.433 4.05827 1.13501 0
M  V30 4241 H 409.157 2.88214 1.53623 0
M  V30 4242 H 407.816 3.63726 -0.458107 0
M  V30 4243 H 407.464 4.7063 1.77529 0
M  V30 4244 H 407.164 5.85872 0.450314 0
M  V30 4245 H 408.688 5.94838 1.37842 0
M  V30 4246 H 410.102 5.66578 -0.875366 0
M  V30 4247 H 408.499 5.76681 -1.66007 0
M  V30 4248 H 409.569 4.40294 -2.03149 0
M  V30 4249 N 410.912 0.523116 1.48665 0
M  V30 4250 C 411.842 -0.23231 2.32342 0
M  V30 4251 C 412.823 -0.941637 1.41659 0
M  V30 4252 O 414.008 -0.928751 1.70552 0
M  V30 4253 C 411.138 -1.28387 3.22698 0
M  V30 4254 C 410.092 -0.693098 4.22351 0
M  V30 4255 C 409.418 -1.8468 5.01794 0
M  V30 4256 C 410.718 0.33063 5.21252 0
M  V30 4257 H 412.412 0.466192 2.95748 0
M  V30 4258 H 409.958 0.225643 1.42221 0
M  V30 4259 H 411.911 -1.82024 3.80059 0
M  V30 4260 H 410.635 -2.01186 2.57278 0
M  V30 4261 H 409.294 -0.178299 3.66166 0
M  V30 4262 H 408.942 -2.56301 4.32804 0
M  V30 4263 H 408.642 -1.45747 5.69238 0
M  V30 4264 H 410.166 -2.38709 5.62006 0
M  V30 4265 H 411.58 -0.118407 5.73178 0
M  V30 4266 H 409.977 0.636974 5.9671 0
M  V30 4267 H 411.047 1.23883 4.68808 0
M  V30 4268 N 412.39 -1.55475 0.257931 0
M  V30 4269 C 413.667 -1.91155 -0.414629 0
M  V30 4270 C 414.047 -1.18008 -1.75035 0
M  V30 4271 O 413.395 -0.301193 -2.26506 0
M  V30 4272 C 413.605 -3.44283 -0.571859 0
M  V30 4273 C 414.953 -4.15744 -0.862678 0
M  V30 4274 O 415.977 -3.50083 -0.657314 0
M  V30 4275 O 414.836 -5.31909 -1.2544 0
M  V30 4276 H 411.93 -0.796016 -0.22425 0
M  V30 4277 H 414.476 -1.66976 0.302814 0
M  V30 4278 H 413.248 -3.89558 0.368844 0
M  V30 4279 H 412.871 -3.7436 -1.33943 0
M  V30 4280 N 413.868 0.0150385 -1.57593 0
M  V30 4281 C 414.831 0.995996 -2.06428 0
M  V30 4282 C 415.831 1.2818 -0.970903 0
M  V30 4283 O 417.021 1.22949 -1.23406 0
M  V30 4284 C 414.153 2.32506 -2.49307 0
M  V30 4285 H 415.346 0.573873 -2.94358 0
M  V30 4286 H 412.899 0.262186 -1.54085 0
M  V30 4287 H 413.634 2.79438 -1.64575 0
M  V30 4288 H 413.419 2.13087 -3.29145 0
M  V30 4289 H 414.909 3.02906 -2.87468 0
M  V30 4290 N 415.346 1.54954 0.287554 0
M  V30 4291 C 416.309 1.86076 1.33823 0
M  V30 4292 C 417.309 0.734414 1.43049 0
M  V30 4293 O 418.499 1.00266 1.42452 0
M  V30 4294 C 415.631 2.05305 2.72144 0
M  V30 4295 H 416.824 2.79984 1.07465 0
M  V30 4296 H 414.377 1.47223 0.524902 0
M  V30 4297 H 415.112 1.1373 3.03704 0
M  V30 4298 H 414.897 2.873 2.66836 0
M  V30 4299 H 416.387 2.30706 3.48087 0
M  V30 4300 N 416.824 -0.551391 1.4764 0
M  V30 4301 C 417.787 -1.64007 1.60107 0
M  V30 4302 C 418.787 -1.53601 0.47576 0
M  V30 4303 O 419.977 -1.57655 0.740988 0
M  V30 4304 C 417.109 -3.03569 1.55108 0
M  V30 4305 H 418.302 -1.543 2.57161 0
M  V30 4306 H 415.855 -0.771776 1.35917 0
M  V30 4307 H 416.59 -3.18804 0.594519 0
M  V30 4308 H 416.375 -3.12532 2.36783 0
M  V30 4309 H 417.865 -3.82762 1.66982 0
M  V30 4310 N 418.302 -1.35869 -0.798587 0
M  V30 4311 C 419.549 -1.29588 -1.55606 0
M  V30 4312 C 419.877 0.127456 -1.94082 0
M  V30 4313 O 419.132 1.09461 -1.62225 0
M  V30 4314 C 419.431 -2.1556 -2.85077 0
M  V30 4315 C 419.097 -3.6424 -2.65781 0
M  V30 4316 C 417.759 -4.04766 -2.60227 0
M  V30 4317 C 420.111 -4.58547 -2.47758 0
M  V30 4318 C 417.439 -5.37753 -2.34603 0
M  V30 4319 C 419.791 -5.91742 -2.23662 0
M  V30 4320 C 418.455 -6.31402 -2.16534 0
M  V30 4321 H 417.725 -0.474197 -0.569402 0
M  V30 4322 H 420.372 -1.67839 -0.922086 0
M  V30 4323 H 418.677 -1.70216 -3.52893 0
M  V30 4324 H 420.374 -2.08031 -3.42818 0
M  V30 4325 H 416.964 -3.32086 -2.70956 0
M  V30 4326 H 421.148 -4.28117 -2.51056 0
M  V30 4327 H 416.404 -5.67474 -2.2756 0
M  V30 4328 H 420.578 -6.6439 -2.08708 0
M  V30 4329 H 418.205 -7.34381 -1.96441 0
M  V30 4330 N 419.78 1.02168 -1.19998 0
M  V30 4331 C 421.01 1.79036 -1.031 0
M  V30 4332 C 421.418 1.84409 0.423078 0
M  V30 4333 O 420.761 1.29228 1.30559 0
M  V30 4334 C 420.823 3.25185 -1.53281 0
M  V30 4335 C 420.487 3.43431 -3.01503 0
M  V30 4336 C 421.484 3.33063 -3.99206 0
M  V30 4337 C 419.169 3.69412 -3.40353 0
M  V30 4338 C 421.163 3.48413 -5.33748 0
M  V30 4339 C 418.85 3.84406 -4.75053 0
M  V30 4340 C 419.848 3.7391 -5.71559 0
M  V30 4341 O 419.536 3.88452 -7.03818 0
M  V30 4342 H 419.268 0.570043 -0.363355 0
M  V30 4343 H 421.822 1.29524 -1.59414 0
M  V30 4344 H 420.052 3.75756 -0.913483 0
M  V30 4345 H 421.741 3.83671 -1.32481 0
M  V30 4346 H 422.507 3.12934 -3.70537 0
M  V30 4347 H 418.386 3.76671 -2.65782 0
M  V30 4348 H 421.93 3.40137 -6.09059 0
M  V30 4349 H 417.827 4.04035 -5.03415 0
M  V30 4350 H 418.595 4.055 -7.10993 0
M  V30 4351 N 421.258 1.00505 1.21394 0
M  V30 4352 C 422.498 0.696149 1.9218 0
M  V30 4353 C 422.862 -0.759099 1.76357 0
M  V30 4354 O 424.063 -1.17998 2.41516 0
M  V30 4355 C 422.334 1.10571 3.39866 0
M  V30 4356 S 423.893 0.91702 4.29111 0
M  V30 4357 H 420.711 0.254147 0.664026 0
M  V30 4358 H 423.313 1.28988 1.46909 0
M  V30 4359 H 422.017 2.16096 3.489 0
M  V30 4360 H 421.548 0.504268 3.90155 0
M  V30 4361 H 423.563 -0.185855 4.95852 0
M  V30 4362 N 422.737 -1.36956 0.779787 0
M  V30 4363 C 423.647 -2.33965 0.172491 0
M  V30 4364 C 424.663 -1.60574 -0.670222 0
M  V30 4365 O 425.839 -1.92617 -0.588263 0
M  V30 4366 C 422.904 -3.39761 -0.690173 0
M  V30 4367 C 421.965 -4.28964 0.169924 0
M  V30 4368 C 421.198 -5.29707 -0.651662 0
M  V30 4369 O 421.421 -5.38238 -1.88827 0
M  V30 4370 O 420.355 -6.01873 -0.0566264 0
M  V30 4371 H 424.181 -2.87647 0.974321 0
M  V30 4372 H 421.766 -1.39258 0.541078 0
M  V30 4373 H 423.648 -4.04471 -1.1824 0
M  V30 4374 H 422.323 -2.88394 -1.47006 0
M  V30 4375 H 421.23 -3.67326 0.708696 0
M  V30 4376 H 422.563 -4.83656 0.913085 0
M  V30 4377 N 424.215 -0.530993 -1.48385 0
M  V30 4378 C 425.162 0.231223 -2.29639 0
M  V30 4379 C 426.132 0.932864 -1.37429 0
M  V30 4380 O 427.317 0.933692 -1.66394 0
M  V30 4381 C 424.457 1.27155 -3.2082 0
M  V30 4382 C 423.57 0.578655 -4.28107 0
M  V30 4383 C 422.705 1.602 -5.06467 0
M  V30 4384 C 421.744 0.892625 -6.05556 0
M  V30 4385 N 420.881 1.86157 -6.76971 0
M  V30 4386 H 425.721 -0.467848 -2.94305 0
M  V30 4387 H 423.258 -0.242556 -1.45086 0
M  V30 4388 H 425.216 1.88703 -3.72085 0
M  V30 4389 H 423.846 1.939 -2.58075 0
M  V30 4390 H 422.898 -0.150782 -3.80101 0
M  V30 4391 H 424.21 0.0217065 -4.98795 0
M  V30 4392 H 423.364 2.29173 -5.61751 0
M  V30 4393 H 422.103 2.19285 -4.35621 0
M  V30 4394 H 421.108 0.188829 -5.49476 0
M  V30 4395 H 422.333 0.307878 -6.78402 0
M  V30 4396 H 420.279 2.44147 -6.08875 0
M  V30 4397 H 420.196 1.35608 -7.43738 0
M  V30 4398 H 421.464 2.54325 -7.36844 0
M  V30 4399 N 425.693 1.55336 -0.266172 0
M  V30 4400 C 426.603 2.2583 0.635458 0
M  V30 4401 C 427.619 1.28106 1.17749 0
M  V30 4402 O 428.795 1.61024 1.20968 0
M  V30 4403 C 425.86 2.95879 1.80712 0
M  V30 4404 C 424.921 4.09059 1.30265 0
M  V30 4405 C 424.154 4.75759 2.41846 0
M  V30 4406 O 424.377 4.41622 3.61007 0
M  V30 4407 O 423.311 5.63888 2.1051 0
M  V30 4408 H 427.137 3.03631 0.0646693 0
M  V30 4409 H 424.722 1.49361 -0.0339177 0
M  V30 4410 H 426.604 3.39932 2.49047 0
M  V30 4411 H 425.279 2.21002 2.36516 0
M  V30 4412 H 424.186 3.69482 0.586019 0
M  V30 4413 H 425.519 4.85811 0.790458 0
M  V30 4414 N 427.171 -0.0066808 1.57599 0
M  V30 4415 C 428.119 -1.01851 2.09115 0
M  V30 4416 C 429.113 -1.36021 1.00969 0
M  V30 4417 O 430.319 -1.34663 1.19439 0
M  V30 4418 H 426.694 -0.346083 0.667631 0
M  V30 4419 H 428.665 -0.558394 2.93129 0
M  V30 4420 C 427.414 -2.30374 2.60429 0
M  V30 4421 H 426.737 -2.04947 3.43273 0
M  V30 4422 H 428.177 -2.99466 3.00161 0
M  V30 4423 C 426.636 -3.00893 1.51542 0
M  V30 4424 O 427.166 -3.91614 0.894484 0
M  V30 4425 N 425.372 -2.62603 1.2445 0
M  V30 4426 H 424.919 -1.88911 1.75129 0
M  V30 4427 H 424.877 -3.10101 0.518137 0
M  V30 4428 N 428.649 -1.55105 -0.279332 0
M  V30 4429 C 429.579 -1.90557 -1.34945 0
M  V30 4430 C 430.56 -0.766738 -1.51839 0
M  V30 4431 O 431.745 -1.02434 -1.64988 0
M  V30 4432 C 428.875 -2.17193 -2.71006 0
M  V30 4433 C 427.829 -3.33021 -2.68851 0
M  V30 4434 C 427.155 -3.45123 -4.08405 0
M  V30 4435 C 428.455 -4.69578 -2.28678 0
M  V30 4436 H 430.149 -2.80188 -1.05522 0
M  V30 4437 H 427.695 -1.34811 -0.506173 0
M  V30 4438 H 429.648 -2.40581 -3.45975 0
M  V30 4439 H 428.372 -1.24355 -3.01999 0
M  V30 4440 H 427.031 -3.0959 -1.9634 0
M  V30 4441 H 426.679 -2.49762 -4.3661 0
M  V30 4442 H 426.379 -4.22995 -4.07859 0
M  V30 4443 H 427.903 -3.70796 -4.85121 0
M  V30 4444 H 429.317 -4.92553 -2.93368 0
M  V30 4445 H 427.714 -5.5032 -2.39306 0
M  V30 4446 H 428.784 -4.68828 -1.23807 0
M  V30 4447 N 430.127 0.543554 -1.4793 0
M  V30 4448 C 431.374 1.30008 -1.55255 0
M  V30 4449 C 431.702 1.93245 -0.220612 0
M  V30 4450 O 430.957 1.79141 0.787843 0
M  V30 4451 C 431.256 2.42078 -2.62932 0
M  V30 4452 C 430.922 1.96583 -4.0579 0
M  V30 4453 C 429.584 1.83893 -4.44676 0
M  V30 4454 C 431.936 1.62034 -4.95373 0
M  V30 4455 C 429.264 1.34969 -5.70964 0
M  V30 4456 C 431.616 1.14577 -6.22137 0
M  V30 4457 C 430.28 1.00493 -6.59892 0
M  V30 4458 H 429.55 0.475735 -0.568117 0
M  V30 4459 H 432.197 0.608075 -1.81589 0
M  V30 4460 H 430.502 3.16892 -2.30406 0
M  V30 4461 H 432.199 3.00236 -2.65818 0
M  V30 4462 H 428.789 2.07407 -3.75074 0
M  V30 4463 H 432.973 1.70705 -4.66019 0
M  V30 4464 H 428.229 1.2274 -5.98953 0
M  V30 4465 H 432.403 0.869109 -6.90955 0
M  V30 4466 H 430.03 0.623624 -7.57638 0
M  V30 4467 N 431.605 1.3629 0.791371 0
M  V30 4468 C 432.854 1.29742 1.54434 0
M  V30 4469 C 433.167 -0.121729 1.95221 0
M  V30 4470 O 434.373 -0.309579 2.69729 0
M  V30 4471 C 432.829 2.27623 2.78776 0
M  V30 4472 C 432.437 3.74963 2.45166 0
M  V30 4473 C 434.181 2.30047 3.56761 0
M  V30 4474 C 432.088 4.64626 3.65891 0
M  V30 4475 H 431.018 0.482113 0.579727 0
M  V30 4476 H 433.669 1.61642 0.868565 0
M  V30 4477 H 432.051 1.88714 3.48142 0
M  V30 4478 H 433.225 4.22596 1.83709 0
M  V30 4479 H 431.54 3.75295 1.80396 0
M  V30 4480 H 434.137 2.94247 4.46456 0
M  V30 4481 H 434.48 1.30846 3.95203 0
M  V30 4482 H 435.013 2.67563 2.94372 0
M  V30 4483 H 431.752 5.64883 3.32547 0
M  V30 4484 H 431.272 4.2171 4.26521 0
M  V30 4485 H 432.951 4.80801 4.32943 0
M  V30 4486 N 433.083 -1.0153 1.20538 0
M  V30 4487 C 434.013 -2.11972 0.979295 0
M  V30 4488 C 434.994 -1.6985 -0.0921787 0
M  V30 4489 O 436.179 -1.94089 0.0655932 0
M  V30 4490 C 433.309 -3.43201 0.531984 0
M  V30 4491 C 432.263 -3.9907 1.54685 0
M  V30 4492 C 431.589 -5.26082 0.956127 0
M  V30 4493 C 432.889 -4.32313 2.93092 0
M  V30 4494 H 434.583 -2.31143 1.90298 0
M  V30 4495 H 432.129 -1.11079 0.916372 0
M  V30 4496 H 434.082 -4.1985 0.361044 0
M  V30 4497 H 432.806 -3.23792 -0.427327 0
M  V30 4498 H 431.465 -3.2453 1.70517 0
M  V30 4499 H 431.113 -5.02999 -0.0111538 0
M  V30 4500 H 430.813 -5.64426 1.63393 0
M  V30 4501 H 432.337 -6.05386 0.796284 0
M  V30 4502 H 433.751 -4.99845 2.80763 0
M  V30 4503 H 432.148 -4.81774 3.57791 0
M  V30 4504 H 433.218 -3.41025 3.44717 0
M  V30 4505 N 434.561 -1.01147 -1.20859 0
M  V30 4506 C 435.471 -0.58686 -2.27141 0
M  V30 4507 C 436.487 0.373198 -1.69951 0
M  V30 4508 O 437.663 0.235423 -2.00019 0
M  V30 4509 C 434.728 0.0733602 -3.46622 0
M  V30 4510 C 433.789 -0.931995 -4.19061 0
M  V30 4511 C 433.022 -0.303186 -5.32838 0
M  V30 4512 O 433.245 0.898395 -5.63281 0
M  V30 4513 O 432.179 -1.01735 -5.9324 0
M  V30 4514 H 436.005 -1.47155 -2.65667 0
M  V30 4515 H 433.59 -0.780689 -1.2738 0
M  V30 4516 H 435.472 0.442333 -4.19072 0
M  V30 4517 H 434.147 0.932329 -3.09983 0
M  V30 4518 H 433.054 -1.35224 -3.48805 0
M  V30 4519 H 434.387 -1.76076 -4.59628 0
M  V30 4520 N 436.039 1.36541 -0.78704 0
M  V30 4521 C 436.949 2.3387 -0.184896 0
M  V30 4522 C 437.965 1.60927 0.661697 0
M  V30 4523 O 439.141 1.92927 0.57804 0
M  V30 4524 C 436.206 3.40122 0.672145 0
M  V30 4525 C 435.267 4.28867 -0.19267 0
M  V30 4526 C 434.5 5.30045 0.623561 0
M  V30 4527 O 434.723 5.39232 1.8597 0
M  V30 4528 O 433.657 6.01895 0.0247068 0
M  V30 4529 H 437.483 2.87126 -0.989562 0
M  V30 4530 H 435.068 1.38969 -0.548455 0
M  V30 4531 H 436.95 4.05093 1.16094 0
M  V30 4532 H 435.625 2.89169 1.45474 0
M  V30 4533 H 434.532 3.66945 -0.728166 0
M  V30 4534 H 435.865 4.83165 -0.938722 0
M  V30 4535 N 437.518 0.538854 1.48102 0
M  V30 4536 C 438.428 -0.222648 2.33541 0
M  V30 4537 C 439.444 -0.930225 1.47047 0
M  V30 4538 O 440.62 -0.903211 1.80011 0
M  V30 4539 C 437.685 -1.25064 3.23357 0
M  V30 4540 C 436.746 -0.552469 4.2573 0
M  V30 4541 C 435.979 -1.53149 5.11254 0
M  V30 4542 O 436.202 -2.76487 4.9891 0
M  V30 4543 O 435.136 -1.06602 5.92385 0
M  V30 4544 H 438.962 0.477707 2.99919 0
M  V30 4545 H 436.547 0.299669 1.46364 0
M  V30 4546 H 438.429 -1.8445 3.78888 0
M  V30 4547 H 437.104 -1.93325 2.59629 0
M  V30 4548 H 436.011 0.082114 3.7401 0
M  V30 4549 H 437.344 0.0883526 4.92121 0
M  V30 4550 N 438.996 -1.55193 0.274407 0
M  V30 4551 C 439.928 -2.1989 -0.646595 0
M  V30 4552 C 440.941 -1.1834 -1.11801 0
M  V30 4553 O 442.13 -1.4507 -1.04004 0
M  V30 4554 C 439.23 -2.8104 -1.89393 0
M  V30 4555 C 438.403 -4.08274 -1.56943 0
M  V30 4556 C 437.462 -4.53478 -2.66916 0
M  V30 4557 O 436.488 -5.19267 -2.33132 0
M  V30 4558 N 437.69 -4.2356 -3.9696 0
M  V30 4559 H 440.455 -2.99556 -0.0928686 0
M  V30 4560 H 438.016 -1.61618 0.0954783 0
M  V30 4561 H 440.008 -3.08226 -2.62257 0
M  V30 4562 H 438.578 -2.05372 -2.35672 0
M  V30 4563 H 437.798 -3.88384 -0.674655 0
M  V30 4564 H 439.086 -4.91173 -1.32764 0
M  V30 4565 H 438.484 -3.70799 -4.27229 0
M  V30 4566 H 437.041 -4.55518 -4.66205 0
M  V30 4567 N 440.474 -0.00167713 -1.576 0
M  V30 4568 C 441.89 0.354422 -1.55615 0
M  V30 4569 C 442.09 1.74679 -1.00447 0
M  V30 4570 O 441.146 2.4428 -0.639022 0
M  V30 4571 C 442.459 0.22812 -2.99833 0
M  V30 4572 C 444.007 0.302934 -3.11531 0
M  V30 4573 C 444.482 0.205737 -4.57538 0
M  V30 4574 N 445.973 0.263584 -4.62449 0
M  V30 4575 C 446.708 0.211742 -5.73009 0
M  V30 4576 N 446.204 0.110399 -6.92712 0
M  V30 4577 N 447.997 0.263729 -5.61481 0
M  V30 4578 H 440.148 -0.912498 -1.918 0
M  V30 4579 H 442.411 -0.349928 -0.881053 0
M  V30 4580 H 442.117 -0.729934 -3.44042 0
M  V30 4581 H 441.991 1.00951 -3.6344 0
M  V30 4582 H 444.378 1.25143 -2.67251 0
M  V30 4583 H 444.459 -0.508357 -2.50698 0
M  V30 4584 H 444.103 -0.739225 -5.02492 0
M  V30 4585 H 444.033 1.03554 -5.16318 0
M  V30 4586 H 446.524 0.343173 -3.76339 0
M  V30 4587 H 446.837 0.0767828 -7.72762 0
M  V30 4588 H 445.182 0.0760025 -6.94958 0
M  V30 4589 H 448.373 0.34111 -4.66855 0
M  V30 4590 H 448.546 0.219862 -6.47627 0
M  V30 4591 N 441.952 1.55251 0.271103 0
M  V30 4592 C 443.201 1.75151 1.00025 0
M  V30 4593 C 443.514 0.561041 1.87381 0
M  V30 4594 O 444.72 0.642506 2.63788 0
M  V30 4595 C 443.176 3.09999 1.82835 0
M  V30 4596 C 442.784 4.3662 1.00336 0
M  V30 4597 C 444.528 3.39249 2.55168 0
M  V30 4598 C 442.435 5.62506 1.82595 0
M  V30 4599 H 441.365 0.652877 0.377183 0
M  V30 4600 H 444.016 1.81708 0.255843 0
M  V30 4601 H 442.398 2.97485 2.61378 0
M  V30 4602 H 443.572 4.60055 0.261959 0
M  V30 4603 H 441.887 4.14527 0.394486 0
M  V30 4604 H 444.484 4.3051 3.1712 0
M  V30 4605 H 444.827 2.59467 3.2555 0
M  V30 4606 H 445.36 3.52869 1.83653 0
M  V30 4607 H 442.099 6.45041 1.16631 0
M  V30 4608 H 441.619 5.43211 2.54327 0
M  V30 4609 H 443.298 6.00875 2.39913 0
M  V30 4610 N 443.43 -0.535701 1.48216 0
M  V30 4611 C 444.846 -0.863701 1.3421 0
M  V30 4612 C 445.046 -1.98458 0.34879 0
M  V30 4613 O 444.102 -2.51432 -0.23204 0
M  V30 4614 C 445.415 -1.23662 2.74095 0
M  V30 4615 C 446.963 -1.34683 2.82541 0
M  V30 4616 C 447.438 -1.75322 4.23115 0
M  V30 4617 N 448.929 -1.82434 4.2576 0
M  V30 4618 C 449.664 -2.15252 5.31464 0
M  V30 4619 N 449.16 -2.46533 6.47452 0
M  V30 4620 N 450.953 -2.16209 5.18855 0
M  V30 4621 H 443.104 0.203965 2.11418 0
M  V30 4622 H 445.367 0.0286033 0.947568 0
M  V30 4623 H 445.073 -0.486674 3.48316 0
M  V30 4624 H 444.947 -2.18805 3.07253 0
M  V30 4625 H 447.334 -2.08756 2.08579 0
M  V30 4626 H 447.415 -0.376756 2.5301 0
M  V30 4627 H 447.059 -1.01812 4.97591 0
M  V30 4628 H 446.989 -2.7337 4.50085 0
M  V30 4629 H 449.48 -1.6056 3.42095 0
M  V30 4630 H 449.793 -2.70662 7.23852 0
M  V30 4631 H 448.138 -2.44065 6.50736 0
M  V30 4632 H 451.329 -1.91224 4.2726 0
M  V30 4633 H 451.502 -2.41453 6.01335 0
M  V30 4634 N 444.908 -1.36708 -0.784132 0
M  V30 4635 C 445.838 -1.34153 -1.91116 0
M  V30 4636 C 446.819 -0.212121 -1.68772 0
M  V30 4637 O 448.004 -0.410581 -1.8981 0
M  V30 4638 C 445.134 -1.13535 -3.28218 0
M  V30 4639 C 444.088 -2.23356 -3.65097 0
M  V30 4640 C 443.414 -1.87875 -5.00607 0
M  V30 4641 C 444.714 -3.65473 -3.73131 0
M  V30 4642 H 446.408 -2.28459 -1.93512 0
M  V30 4643 H 443.954 -1.09973 -0.929618 0
M  V30 4644 H 445.907 -1.10381 -4.06687 0
M  V30 4645 H 444.631 -0.156804 -3.26223 0
M  V30 4646 H 443.29 -2.25645 -2.88929 0
M  V30 4647 H 442.938 -0.885814 -4.95139 0
M  V30 4648 H 442.638 -2.61406 -5.26252 0
M  V30 4649 H 444.162 -1.86286 -5.81489 0
M  V30 4650 H 445.576 -3.65382 -4.41779 0
M  V30 4651 H 443.973 -4.37953 -4.10265 0
M  V30 4652 H 445.043 -3.99995 -2.74102 0
M  V30 4653 N 446.386 1.0089 -1.21074 0
M  V30 4654 C 447.632 1.74866 -1.02712 0
M  V30 4655 C 447.965 1.89178 0.438787 0
M  V30 4656 O 447.24 1.42325 1.32567 0
M  V30 4657 C 447.523 3.16347 -1.72036 0
M  V30 4658 C 447.376 3.09782 -3.26121 0
M  V30 4659 C 448.695 4.15187 -1.45973 0
M  V30 4660 H 445.814 0.634736 -0.374539 0
M  V30 4661 H 448.456 1.17646 -1.49196 0
M  V30 4662 H 446.606 3.65201 -1.32517 0
M  V30 4663 H 448.278 2.68673 -3.74983 0
M  V30 4664 H 446.521 2.46982 -3.56626 0
M  V30 4665 H 447.192 4.09829 -3.6979 0
M  V30 4666 H 449.668 3.75022 -1.80272 0
M  V30 4667 H 448.544 5.12331 -1.96999 0
M  V30 4668 H 448.805 4.40386 -0.388924 0
M  V30 4669 N 447.864 1.01787 1.20321 0
M  V30 4670 C 449.11 0.708985 1.90003 0
M  V30 4671 C 449.443 -0.759572 1.78729 0
M  V30 4672 O 448.718 -1.55198 1.17234 0
M  V30 4673 C 449.001 1.1469 3.41348 0
M  V30 4674 C 448.854 2.67586 3.61549 0
M  V30 4675 C 450.173 0.71915 4.34185 0
M  V30 4676 H 447.292 0.259034 0.689978 0
M  V30 4677 H 449.934 1.26584 1.41692 0
M  V30 4678 H 448.084 0.673128 3.82624 0
M  V30 4679 H 449.756 3.22826 3.29517 0
M  V30 4680 H 447.999 3.085 3.04976 0
M  V30 4681 H 448.67 2.93281 4.67643 0
M  V30 4682 H 451.146 1.12647 4.00562 0
M  V30 4683 H 450.022 1.05358 5.38694 0
M  V30 4684 H 450.283 -0.379111 4.40472 0
M  V30 4685 N 449.342 -1.36122 0.79427 0
M  V30 4686 C 450.567 -2.03891 0.379871 0
M  V30 4687 C 450.992 -1.59488 -0.997251 0
M  V30 4688 O 450.35 -0.765652 -1.64339 0
M  V30 4689 C 450.398 -3.57687 0.457442 0
M  V30 4690 O 449.502 -4.08931 -0.5338 0
M  V30 4691 H 448.843 -0.6443 0.160541 0
M  V30 4692 H 451.373 -1.73976 1.07673 0
M  V30 4693 H 451.383 -4.06721 0.322792 0
M  V30 4694 H 450.058 -3.89357 1.46199 0
M  V30 4695 H 448.635 -3.71154 -0.360409 0
M  V30 4696 N 450.82 -0.546701 -1.47814 0
M  V30 4697 C 452.236 -0.205717 -1.58269 0
M  V30 4698 C 452.436 1.29153 -1.54667 0
M  V30 4699 O 451.492 2.07098 -1.44453 0
M  V30 4700 C 452.805 -0.823065 -2.89216 0
M  V30 4701 C 454.353 -0.793328 -3.02779 0
M  V30 4702 C 454.828 -1.38955 -4.36412 0
M  V30 4703 N 456.319 -1.35227 -4.43021 0
M  V30 4704 C 457.054 -1.78333 -5.44963 0
M  V30 4705 N 456.55 -2.29246 -6.53772 0
M  V30 4706 N 458.343 -1.69467 -5.35945 0
M  V30 4707 H 450.494 -1.5196 -1.48398 0
M  V30 4708 H 452.757 -0.633078 -0.705632 0
M  V30 4709 H 452.463 -1.8749 -2.97558 0
M  V30 4710 H 452.337 -0.309915 -3.75925 0
M  V30 4711 H 454.724 0.249784 -2.94041 0
M  V30 4712 H 454.805 -1.34412 -2.17639 0
M  V30 4713 H 454.449 -2.43168 -4.45906 0
M  V30 4714 H 454.379 -0.814291 -5.20266 0
M  V30 4715 H 456.87 -0.979739 -3.64979 0
M  V30 4716 H 457.183 -2.60089 -7.27718 0
M  V30 4717 H 455.528 -2.3325 -6.5469 0
M  V30 4718 H 458.719 -1.29477 -4.49837 0
M  V30 4719 H 458.892 -2.03381 -6.15256 0
M  V30 4720 N 452.299 1.55045 -0.282633 0
M  V30 4721 C 453.229 2.2579 0.595066 0
M  V30 4722 C 454.21 1.25074 1.15284 0
M  V30 4723 O 455.395 1.5381 1.18559 0
M  V30 4724 C 452.525 2.98472 1.77572 0
M  V30 4725 C 451.479 4.0618 1.34914 0
M  V30 4726 C 450.805 4.66477 2.6135 0
M  V30 4727 C 452.105 5.1996 0.493821 0
M  V30 4728 H 453.799 2.994 0.00505653 0
M  V30 4729 H 451.345 1.44 0.000992001 0
M  V30 4730 H 453.298 3.46677 2.39568 0
M  V30 4731 H 452.022 2.2241 2.39168 0
M  V30 4732 H 450.681 3.58797 0.752338 0
M  V30 4733 H 450.329 3.87074 3.2122 0
M  V30 4734 H 450.029 5.39207 2.33516 0
M  V30 4735 H 451.553 5.17435 3.24181 0
M  V30 4736 H 452.967 5.64172 1.01898 0
M  V30 4737 H 451.364 5.99299 0.310047 0
M  V30 4738 H 452.434 4.82462 -0.485593 0
M  V30 4739 N 453.777 0.010035 1.57597 0
M  V30 4740 C 455.025 -0.671371 1.90623 0
M  V30 4741 C 455.346 -1.73753 0.885151 0
M  V30 4742 O 454.616 -1.95752 -0.0760611 0
M  V30 4743 H 453.196 -0.250968 0.703579 0
M  V30 4744 H 455.858 0.0533325 1.94827 0
M  V30 4745 H 454.954 -1.13626 2.90681 0
M  V30 4746 N 455.255 -1.55392 -0.262866 0
M  V30 4747 C 456.185 -1.91978 -1.32917 0
M  V30 4748 C 457.166 -0.7828 -1.51017 0
M  V30 4749 O 458.351 -1.04178 -1.63892 0
M  V30 4750 C 455.481 -2.20055 -2.68687 0
M  V30 4751 C 454.435 -3.35854 -2.65304 0
M  V30 4752 C 453.761 -3.49435 -4.04721 0
M  V30 4753 C 455.061 -4.71977 -2.23685 0
M  V30 4754 H 456.755 -2.81292 -1.02544 0
M  V30 4755 H 454.301 -1.3534 -0.491846 0
M  V30 4756 H 456.254 -2.44237 -3.43404 0
M  V30 4757 H 454.978 -1.27551 -3.00663 0
M  V30 4758 H 453.637 -3.11655 -1.93045 0
M  V30 4759 H 453.285 -2.54379 -4.33936 0
M  V30 4760 H 452.985 -4.27297 -4.0335 0
M  V30 4761 H 454.509 -3.7592 -4.81161 0
M  V30 4762 H 455.923 -4.95637 -2.88127 0
M  V30 4763 H 454.32 -5.52828 -2.33456 0
M  V30 4764 H 455.39 -4.70115 -1.18827 0
M  V30 4765 N 456.733 0.527833 -1.48498 0
M  V30 4766 C 458.01 1.28905 -1.47115 0
M  V30 4767 C 458.39 2.10297 -0.184007 0
M  V30 4768 O 457.738 2.12728 0.834218 0
M  V30 4769 C 457.948 2.16866 -2.73441 0
M  V30 4770 C 459.296 2.76936 -3.21857 0
M  V30 4771 O 460.32 2.27152 -2.74373 0
M  V30 4772 O 459.179 3.67496 -4.04486 0
M  V30 4773 H 456.273 0.581918 -0.587623 0
M  V30 4774 H 458.819 0.544311 -1.60734 0
M  V30 4775 H 457.591 1.56521 -3.58632 0
M  V30 4776 H 457.214 2.98583 -2.62553 0
M  V30 4777 N 458.211 1.37122 0.776871 0
M  V30 4778 C 459.436 1.354 1.57104 0
M  V30 4779 C 459.861 -0.0595562 1.88006 0
M  V30 4780 O 459.219 -1.03514 1.48844 0
M  V30 4781 C 459.267 2.19472 2.8612 0
M  V30 4782 O 458.371 1.59582 3.80273 0
M  V30 4783 H 457.712 0.462869 0.476076 0
M  V30 4784 H 460.242 1.80577 0.961932 0
M  V30 4785 H 460.252 2.32502 3.35271 0
M  V30 4786 H 458.927 3.22222 2.62956 0
M  V30 4787 H 457.504 1.55564 3.38902 0
M  V30 4788 N 459.689 -1.00246 1.21608 0
M  V30 4789 C 460.619 -2.10921 1.00172 0
M  V30 4790 C 461.6 -1.69938 -0.0741587 0
M  V30 4791 O 462.785 -1.94009 0.0861753 0
M  V30 4792 C 459.915 -3.42618 0.568355 0
M  V30 4793 C 458.869 -3.97407 1.58909 0
M  V30 4794 C 458.195 -5.25038 1.01187 0
M  V30 4795 C 459.495 -4.2918 2.97661 0
M  V30 4796 H 461.189 -2.29112 1.92739 0
M  V30 4797 H 458.735 -1.10101 0.928102 0
M  V30 4798 H 460.688 -4.19444 0.405555 0
M  V30 4799 H 459.412 -3.24227 -0.392961 0
M  V30 4800 H 458.071 -3.22703 1.73949 0
M  V30 4801 H 457.719 -5.02982 0.0421965 0
M  V30 4802 H 457.419 -5.62661 1.6937 0
M  V30 4803 H 458.943 -6.04507 0.860448 0
M  V30 4804 H 460.357 -4.96839 2.86049 0
M  V30 4805 H 458.754 -4.77952 3.6288 0
M  V30 4806 H 459.824 -3.3735 3.48315 0
M  V30 4807 N 461.167 -1.02423 -1.1978 0
M  V30 4808 C 462.407 -0.726635 -1.91048 0
M  V30 4809 C 462.771 0.730947 -1.77542 0
M  V30 4810 O 463.972 1.14141 -2.43362 0
M  V30 4811 C 462.243 -1.15964 -3.38064 0
M  V30 4812 S 463.802 -0.985172 -4.27598 0
M  V30 4813 H 460.62 -0.264679 -0.659899 0
M  V30 4814 H 463.222 -1.31309 -1.44838 0
M  V30 4815 H 461.926 -2.21619 -3.45417 0
M  V30 4816 H 461.457 -0.566274 -3.89303 0
M  V30 4817 H 463.472 0.106946 -4.96085 0
M  V30 4818 N 462.645 1.35699 -0.801477 0
M  V30 4819 C 464.056 1.81415 -0.441073 0
M  V30 4820 C 464.407 1.66595 1.03636 0
M  V30 4821 O 463.532 1.19369 1.80499 0
M  V30 4822 C 464.127 3.29369 -0.793819 0
M  V30 4823 C 462.686 3.73248 -0.486083 0
M  V30 4824 C 461.833 2.57775 -1.02213 0
M  V30 4825 H 464.784 1.23749 -0.993572 0
M  V30 4826 H 464.805 3.80395 -0.0894158 0
M  V30 4827 H 464.317 3.40123 -1.86917 0
M  V30 4828 H 462.418 3.68046 0.580735 0
M  V30 4829 H 462.531 4.68222 -1.01513 0
M  V30 4830 H 460.895 2.50788 -0.444712 0
M  V30 4831 H 461.678 2.71309 -2.10348 0
M  V30 4832 N 464.123 0.554532 1.47522 0
M  V30 4833 C 465.37 0.029479 2.02479 0
M  V30 4834 C 465.698 -1.31929 1.42916 0
M  V30 4835 O 464.953 -1.87112 0.573385 0
M  V30 4836 C 465.252 -0.115927 3.57212 0
M  V30 4837 C 464.918 1.16161 4.3568 0
M  V30 4838 C 463.58 1.51168 4.56839 0
M  V30 4839 C 465.932 2.0083 4.80954 0
M  V30 4840 C 463.26 2.70696 5.2052 0
M  V30 4841 C 465.612 3.19559 5.45953 0
M  V30 4842 C 464.276 3.54882 5.65345 0
M  V30 4843 H 463.546 0.0107871 0.740921 0
M  V30 4844 H 466.193 0.725506 1.77225 0
M  V30 4845 H 464.498 -0.894902 3.81443 0
M  V30 4846 H 466.195 -0.53749 3.97381 0
M  V30 4847 H 462.785 0.879026 4.19489 0
M  V30 4848 H 466.969 1.75093 4.64388 0
M  V30 4849 H 462.225 2.98236 5.33728 0
M  V30 4850 H 466.399 3.85456 5.79997 0
M  V30 4851 H 464.026 4.47596 6.1446 0
M  V30 4852 N 465.601 -1.54893 0.290851 0
M  V30 4853 C 466.826 -2.04804 -0.32712 0
M  V30 4854 C 467.251 -1.16721 -1.47506 0
M  V30 4855 O 466.609 -0.169107 -1.8051 0
M  V30 4856 C 466.657 -3.52268 -0.770689 0
M  V30 4857 O 465.761 -3.67236 -1.87647 0
M  V30 4858 H 465.102 -0.660789 -0.0652227 0
M  V30 4859 H 467.632 -2.00036 0.429739 0
M  V30 4860 H 467.642 -3.9393 -1.06223 0
M  V30 4861 H 466.317 -4.15843 0.069096 0
M  V30 4862 H 464.894 -3.37479 -1.58626 0
M  V30 4863 N 467.08 -0.0183926 -1.57589 0
M  V30 4864 C 468.491 0.521927 -1.79256 0
M  V30 4865 C 468.842 1.72885 -0.927636 0
M  V30 4866 O 467.967 2.15978 -0.135091 0
M  V30 4867 C 468.562 0.953632 -3.25102 0
M  V30 4868 C 467.121 1.43913 -3.47801 0
M  V30 4869 C 466.268 0.398837 -2.74417 0
M  V30 4870 H 469.219 -0.244485 -1.56805 0
M  V30 4871 H 469.24 1.81863 -3.34224 0
M  V30 4872 H 468.752 0.0750123 -3.88028 0
M  V30 4873 H 466.853 2.33804 -2.90115 0
M  V30 4874 H 466.966 1.45391 -4.56507 0
M  V30 4875 H 465.33 0.864572 -2.39577 0
M  V30 4876 H 466.113 -0.471132 -3.40052 0
M  V30 4877 N 468.558 1.5553 0.254621 0
M  V30 4878 C 469.505 1.89666 1.31512 0
M  V30 4879 C 470.475 0.750057 1.482 0
M  V30 4880 O 471.66 1.00301 1.62309 0
M  V30 4881 C 468.8 2.19009 2.667 0
M  V30 4882 C 467.913 3.46435 2.58083 0
M  V30 4883 C 467.048 3.65386 3.85573 0
M  V30 4884 C 466.087 4.8644 3.71541 0
M  V30 4885 N 465.224 5.01952 4.90906 0
M  V30 4886 H 470.064 2.80109 1.017 0
M  V30 4887 H 467.601 1.38666 0.490938 0
M  V30 4888 H 469.559 2.34025 3.45381 0
M  V30 4889 H 468.189 1.31779 2.94676 0
M  V30 4890 H 467.241 3.39792 1.71013 0
M  V30 4891 H 468.553 4.35258 2.43622 0
M  V30 4892 H 467.707 3.80319 4.72697 0
M  V30 4893 H 466.446 2.74781 4.02922 0
M  V30 4894 H 465.451 4.71491 2.82801 0
M  V30 4895 H 466.676 5.78497 3.55694 0
M  V30 4896 H 464.622 4.14283 5.08631 0
M  V30 4897 H 464.539 5.84851 4.79046 0
M  V30 4898 H 465.807 5.21289 5.7955 0
M  V30 4899 N 470.036 -0.519951 1.48776 0
M  V30 4900 C 470.946 -1.65025 1.66745 0
M  V30 4901 C 471.962 -1.6508 0.549954 0
M  V30 4902 O 473.138 -1.83848 0.822295 0
M  V30 4903 C 470.203 -3.0146 1.71238 0
M  V30 4904 C 469.264 -3.12182 2.94688 0
M  V30 4905 C 468.497 -4.42109 2.98958 0
M  V30 4906 O 468.72 -5.29799 2.1135 0
M  V30 4907 O 467.654 -4.57406 3.91233 0
M  V30 4908 H 471.48 -1.52801 2.62461 0
M  V30 4909 H 469.065 -0.694157 1.32294 0
M  V30 4910 H 470.947 -3.82584 1.76657 0
M  V30 4911 H 469.622 -3.13988 0.786975 0
M  V30 4912 H 468.529 -2.30316 2.94797 0
M  V30 4913 H 469.862 -3.04574 3.86646 0
M  V30 4914 N 471.514 -1.37532 -0.769588 0
M  V30 4915 C 472.93 -1.18379 -1.07045 0
M  V30 4916 C 473.13 -0.0214312 -2.01489 0
M  V30 4917 O 472.186 0.637809 -2.44312 0
M  V30 4918 C 473.499 -2.50338 -1.66588 0
M  V30 4919 C 475.047 -2.56879 -1.78835 0
M  V30 4920 C 475.522 -3.88974 -2.41792 0
M  V30 4921 N 477.013 -3.90428 -2.4924 0
M  V30 4922 C 477.748 -4.89388 -2.98809 0
M  V30 4923 N 477.244 -5.98745 -3.48535 0
M  V30 4924 N 479.037 -4.76791 -2.97703 0
M  V30 4925 H 471.188 -2.11921 -0.142541 0
M  V30 4926 H 473.451 -0.939608 -0.125863 0
M  V30 4927 H 473.157 -3.35767 -1.0466 0
M  V30 4928 H 473.031 -2.67583 -2.65856 0
M  V30 4929 H 475.418 -1.71856 -2.39895 0
M  V30 4930 H 475.499 -2.43516 -0.783166 0
M  V30 4931 H 475.143 -4.74412 -1.81371 0
M  V30 4932 H 475.073 -3.99641 -3.4292 0
M  V30 4933 H 477.564 -3.11433 -2.14052 0
M  V30 4934 H 477.877 -6.70205 -3.84767 0
M  V30 4935 H 476.222 -6.02387 -3.46634 0
M  V30 4936 H 479.413 -3.90478 -2.58157 0
M  V30 4937 H 479.586 -5.54069 -3.36024 0
M  V30 4938 N 472.992 0.995999 -1.22138 0
M  V30 4939 C 474.241 1.72928 -1.03821 0
M  V30 4940 C 474.554 1.90872 0.427444 0
M  V30 4941 O 475.76 2.61496 0.730212 0
M  V30 4942 C 474.216 3.11124 -1.80913 0
M  V30 4943 C 473.824 3.01122 -3.31707 0
M  V30 4944 C 475.568 3.8852 -1.71035 0
M  V30 4945 C 473.475 4.34453 -4.01253 0
M  V30 4946 H 472.405 0.648376 -0.384869 0
M  V30 4947 H 475.056 1.11213 -1.45959 0
M  V30 4948 H 473.438 3.73503 -1.31573 0
M  V30 4949 H 474.612 2.47926 -3.88419 0
M  V30 4950 H 472.927 2.3721 -3.42228 0
M  V30 4951 H 475.524 4.872 -2.20318 0
M  V30 4952 H 475.867 4.1087 -0.670196 0
M  V30 4953 H 476.4 3.32812 -2.17902 0
M  V30 4954 H 473.139 4.17303 -5.05508 0
M  V30 4955 H 472.659 4.87574 -3.49331 0
M  V30 4956 H 474.338 5.03215 -4.06674 0
M  V30 4957 N 474.47 1.03057 1.19235 0
M  V30 4958 C 475.719 0.72326 1.88287 0
M  V30 4959 C 476.032 -0.751333 1.80594 0
M  V30 4960 O 477.238 -1.17176 2.44912 0
M  V30 4961 C 475.694 1.24338 3.3774 0
M  V30 4962 C 475.302 2.74587 3.53986 0
M  V30 4963 C 477.046 1.01213 4.12257 0
M  V30 4964 C 474.953 3.20009 4.97341 0
M  V30 4965 H 473.883 0.266848 0.705201 0
M  V30 4966 H 476.534 1.24509 1.34795 0
M  V30 4967 H 474.916 0.649457 3.90638 0
M  V30 4968 H 476.09 3.39649 3.11408 0
M  V30 4969 H 474.405 2.9601 2.9286 0
M  V30 4970 H 477.002 1.32675 5.17978 0
M  V30 4971 H 477.345 -0.051001 4.16269 0
M  V30 4972 H 477.878 1.57014 3.65501 0
M  V30 4973 H 474.617 4.25659 4.98493 0
M  V30 4974 H 474.137 2.59676 5.40674 0
M  V30 4975 H 475.816 3.13447 5.66003 0
M  V30 4976 N 475.948 -1.35272 0.808662 0
M  V30 4977 C 476.858 -2.33546 0.222079 0
M  V30 4978 C 477.874 -1.6196 -0.636011 0
M  V30 4979 O 479.05 -1.93822 -0.547274 0
M  V30 4980 C 476.115 -3.41148 -0.61795 0
M  V30 4981 C 475.176 -4.28507 0.260875 0
M  V30 4982 C 474.409 -5.3097 -0.539156 0
M  V30 4983 O 474.632 -5.42123 -1.77367 0
M  V30 4984 O 473.566 -6.01858 0.0710526 0
M  V30 4985 H 477.392 -2.85515 1.03512 0
M  V30 4986 H 474.977 -1.38079 0.570495 0
M  V30 4987 H 476.859 -4.06889 -1.09634 0
M  V30 4988 H 475.534 -2.91447 -1.40855 0
M  V30 4989 H 474.441 -3.6574 0.786451 0
M  V30 4990 H 475.774 -4.81611 1.01547 0
M  V30 4991 N 477.426 -0.562348 -1.47226 0
M  V30 4992 C 478.656 -0.0451619 -2.06551 0
M  V30 4993 C 479.064 1.25626 -1.41473 0
M  V30 4994 O 478.407 1.76563 -0.507061 0
M  V30 4995 C 478.469 0.216068 -3.5885 0
M  V30 4996 C 478.133 -0.996691 -4.45999 0
M  V30 4997 C 479.13 -1.90358 -4.83797 0
M  V30 4998 C 476.815 -1.21281 -4.87438 0
M  V30 4999 C 478.809 -3.01023 -5.6184 0
M  V30 5000 C 476.496 -2.32255 -5.65244 0
M  V30 5001 C 477.494 -3.21956 -6.02356 0
M  V30 5002 O 477.182 -4.31005 -6.78594 0
M  V30 5003 H 476.914 -0.0451646 -0.67449 0
M  V30 5004 H 479.468 -0.776842 -1.90143 0
M  V30 5005 H 477.698 1.00212 -3.7349 0
M  V30 5006 H 479.387 0.679264 -4.00176 0
M  V30 5007 H 480.153 -1.74868 -4.52378 0
M  V30 5008 H 476.032 -0.523767 -4.58015 0
M  V30 5009 H 479.576 -3.71064 -5.90726 0
M  V30 5010 H 475.473 -2.47715 -5.96077 0
M  V30 5011 H 476.241 -4.29118 -6.96994 0
M  V30 5012 N 478.904 1.54736 -0.299062 0
M  V30 5013 C 479.834 2.26409 0.571085 0
M  V30 5014 C 480.815 1.2629 1.13951 0
M  V30 5015 O 482 1.55059 1.16921 0
M  V30 5016 C 479.13 3.00338 1.74396 0
M  V30 5017 C 478.084 4.07588 1.30599 0
M  V30 5018 C 477.41 4.69222 2.56387 0
M  V30 5019 C 478.71 5.20455 0.438645 0
M  V30 5020 H 480.404 2.99388 -0.0266991 0
M  V30 5021 H 477.95 1.43993 -0.0142812 0
M  V30 5022 H 479.903 3.49198 2.35878 0
M  V30 5023 H 478.627 2.24934 2.36796 0
M  V30 5024 H 477.286 3.59575 0.71424 0
M  V30 5025 H 476.934 3.9046 3.17097 0
M  V30 5026 H 476.634 5.41653 2.27784 0
M  V30 5027 H 478.158 5.20844 3.18675 0
M  V30 5028 H 479.572 5.65221 0.959085 0
M  V30 5029 H 477.969 5.99594 0.246466 0
M  V30 5030 H 479.039 4.8192 -0.536738 0
M  V30 5031 N 480.382 0.0267497 1.57577 0
M  V30 5032 C 481.628 -0.653371 1.91987 0
M  V30 5033 C 481.961 -1.71915 0.903263 0
M  V30 5034 O 481.236 -1.94358 -0.0743387 0
M  V30 5035 C 481.519 -1.272 3.36886 0
M  V30 5036 C 481.372 -0.215938 4.49281 0
M  V30 5037 C 482.691 -2.19069 3.81703 0
M  V30 5038 H 479.81 -0.236047 0.698177 0
M  V30 5039 H 482.452 0.0835236 1.89816 0
M  V30 5040 H 480.602 -1.90005 3.38866 0
M  V30 5041 H 482.274 0.41449 4.59434 0
M  V30 5042 H 480.517 0.458855 4.31366 0
M  V30 5043 H 481.188 -0.688347 5.47691 0
M  V30 5044 H 483.664 -1.66253 3.81444 0
M  V30 5045 H 482.54 -2.59307 4.83788 0
M  V30 5046 H 482.801 -3.08087 3.17072 0
M  V30 5047 N 481.861 -1.55662 -0.24637 0
M  V30 5048 C 483.272 -1.67953 -0.81539 0
M  V30 5049 C 483.623 -0.624302 -1.86002 0
M  V30 5050 O 482.748 0.229328 -2.15181 0
M  V30 5051 C 483.343 -3.04484 -1.48576 0
M  V30 5052 C 481.902 -3.18713 -2.00248 0
M  V30 5053 C 481.049 -2.6383 -0.853766 0
M  V30 5054 H 484 -1.58685 -0.0221692 0
M  V30 5055 H 484.021 -2.98959 -2.3538 0
M  V30 5056 H 483.533 -3.81264 -0.725222 0
M  V30 5057 H 481.634 -2.46757 -2.79181 0
M  V30 5058 H 481.747 -4.25628 -2.1995 0
M  V30 5059 H 480.111 -2.21667 -1.25442 0
M  V30 5060 H 480.894 -3.43135 -0.106302 0
M  V30 5061 N 483.339 0.512053 -1.4905 0
M  V30 5062 C 484.249 1.64139 -1.67617 0
M  V30 5063 C 485.265 1.64786 -0.558701 0
M  V30 5064 O 486.441 1.8341 -0.832034 0
M  V30 5065 C 483.506 3.00548 -1.72835 0
M  V30 5066 C 482.567 3.10615 -2.96339 0
M  V30 5067 C 481.8 4.40517 -3.01298 0
M  V30 5068 O 482.023 5.28671 -2.14157 0
M  V30 5069 O 480.957 4.55325 -3.93653 0
M  V30 5070 H 484.783 1.51407 -2.63267 0
M  V30 5071 H 482.368 0.687131 -1.32661 0
M  V30 5072 H 484.25 3.81641 -1.78683 0
M  V30 5073 H 482.925 3.13566 -0.803616 0
M  V30 5074 H 481.832 2.2875 -2.96014 0
M  V30 5075 H 483.165 3.0252 -3.88256 0
M  V30 5076 N 484.817 1.37938 0.762283 0
M  V30 5077 C 486.233 1.18945 1.06415 0
M  V30 5078 C 486.433 0.0321163 2.01474 0
M  V30 5079 O 485.489 -0.624844 2.44647 0
M  V30 5080 C 486.802 2.51218 1.65258 0
M  V30 5081 C 488.35 2.57824 1.7747 0
M  V30 5082 C 488.825 3.90251 2.39725 0
M  V30 5083 N 490.316 3.91744 2.47166 0
M  V30 5084 C 491.051 4.90966 2.96209 0
M  V30 5085 N 490.547 6.00585 3.45354 0
M  V30 5086 N 492.34 4.78363 2.9517 0
M  V30 5087 H 484.491 2.11994 0.131301 0
M  V30 5088 H 486.754 0.940262 0.120879 0
M  V30 5089 H 486.46 3.36317 1.02878 0
M  V30 5090 H 486.334 2.68989 2.64433 0
M  V30 5091 H 488.721 1.73126 2.3898 0
M  V30 5092 H 488.802 2.43928 0.770241 0
M  V30 5093 H 488.446 4.75368 1.78852 0
M  V30 5094 H 488.376 4.01454 3.40796 0
M  V30 5095 H 490.867 3.12563 2.12397 0
M  V30 5096 H 491.18 6.72236 3.81207 0
M  V30 5097 H 489.525 6.04217 3.43434 0
M  V30 5098 H 492.716 3.91841 2.56082 0
M  V30 5099 H 492.889 5.55843 3.33081 0
M  V30 5100 N 486.295 -0.989507 1.22664 0
M  V30 5101 C 487.543 -1.72612 1.05117 0
M  V30 5102 C 487.864 -1.90552 -0.414131 0
M  V30 5103 O 487.134 -1.4676 -1.29762 0
M  V30 5104 H 485.714 -0.639555 0.385977 0
M  V30 5105 H 488.376 -1.19158 1.54232 0
M  V30 5106 H 487.472 -2.71926 1.53175 0
M  V30 5107 N 487.773 -1.03688 -1.18687 0
M  V30 5108 C 489.184 -0.766488 -1.70241 0
M  V30 5109 C 489.535 0.713052 -1.82784 0
M  V30 5110 O 488.66 1.55529 -1.50465 0
M  V30 5111 C 489.255 -1.38475 -3.09209 0
M  V30 5112 C 487.814 -1.16276 -3.5799 0
M  V30 5113 C 486.961 -1.4778 -2.34641 0
M  V30 5114 H 489.912 -1.20378 -1.03415 0
M  V30 5115 H 489.933 -0.785939 -3.72295 0
M  V30 5116 H 489.445 -2.46157 -3.00048 0
M  V30 5117 H 487.546 -0.104508 -3.72453 0
M  V30 5118 H 487.659 -1.8571 -4.41643 0
M  V30 5119 H 486.023 -0.897366 -2.38368 0
M  V30 5120 H 486.806 -2.56562 -2.28102 0
M  V30 5121 N 489.251 1.34841 -0.815825 0
M  V30 5122 C 490.161 2.33425 -0.234462 0
M  V30 5123 C 491.177 1.62295 0.627413 0
M  V30 5124 O 492.353 1.94109 0.536987 0
M  V30 5125 C 489.418 3.41471 0.599849 0
M  V30 5126 C 488.479 4.28362 -0.283596 0
M  V30 5127 C 487.712 5.31248 0.51099 0
M  V30 5128 O 487.935 5.43056 1.7449 0
M  V30 5129 O 486.869 6.01812 -0.10297 0
M  V30 5130 H 490.695 2.84962 -1.05024 0
M  V30 5131 H 488.28 1.37774 -0.577809 0
M  V30 5132 H 490.162 4.07464 1.07475 0
M  V30 5133 H 488.837 2.9219 1.39308 0
M  V30 5134 H 487.744 3.65318 -0.805836 0
M  V30 5135 H 489.077 4.81066 -1.041 0
M  V30 5136 N 490.729 0.570148 1.46925 0
M  V30 5137 C 492.145 0.23087 1.57921 0
M  V30 5138 C 492.345 -1.26676 1.56702 0
M  V30 5139 O 491.401 -2.04774 1.47729 0
M  V30 5140 C 492.714 0.868973 2.8787 0
M  V30 5141 C 494.262 0.841397 3.01479 0
M  V30 5142 C 494.737 1.45881 4.34146 0
M  V30 5143 N 496.228 1.42258 4.40814 0
M  V30 5144 C 496.963 1.8698 5.42057 0
M  V30 5145 N 496.459 2.39618 6.50042 0
M  V30 5146 N 498.252 1.77972 5.33181 0
M  V30 5147 H 490.403 1.54301 1.45962 0
M  V30 5148 H 492.666 0.644224 0.69547 0
M  V30 5149 H 492.372 1.922 2.94537 0
M  V30 5150 H 492.246 0.369682 3.75384 0
M  V30 5151 H 494.633 -0.202973 2.94401 0
M  V30 5152 H 494.714 1.37858 2.15474 0
M  V30 5153 H 494.358 2.50231 4.4198 0
M  V30 5154 H 494.288 0.896958 5.18905 0
M  V30 5155 H 496.779 1.03768 3.63374 0
M  V30 5156 H 497.092 2.71633 7.23488 0
M  V30 5157 H 495.437 2.43636 6.50897 0
M  V30 5158 H 498.628 1.36617 4.4772 0
M  V30 5159 H 498.801 2.13143 6.11943 0
M  V30 5160 N 492.207 -1.54576 0.307264 0
M  V30 5161 C 493.455 -1.99867 -0.299574 0
M  V30 5162 C 493.776 -1.19714 -1.53927 0
M  V30 5163 O 493.046 -0.29472 -1.9367 0
M  V30 5164 H 491.626 -0.738299 -0.113683 0
M  V30 5165 H 494.288 -1.9032 0.420042 0
M  V30 5166 H 493.384 -3.06901 -0.567283 0
M  V30 5167 N 493.685 -0.035106 -1.57561 0
M  V30 5168 C 494.615 0.942993 -2.13612 0
M  V30 5169 C 495.596 1.33531 -1.05373 0
M  V30 5170 O 496.781 1.41287 -1.33235 0
M  V30 5171 C 493.911 2.22332 -2.66807 0
M  V30 5172 C 492.865 1.97156 -3.79886 0
M  V30 5173 C 492.191 3.31506 -4.19533 0
M  V30 5174 C 493.491 1.30596 -5.05709 0
M  V30 5175 H 495.185 0.476179 -2.95589 0
M  V30 5176 H 492.731 0.227602 -1.4219 0
M  V30 5177 H 494.684 2.91142 -3.04654 0
M  V30 5178 H 493.408 2.7119 -1.81999 0
M  V30 5179 H 492.067 1.30763 -3.42486 0
M  V30 5180 H 491.715 3.78134 -3.31698 0
M  V30 5181 H 491.415 3.15465 -4.95738 0
M  V30 5182 H 492.939 4.01574 -4.59968 0
M  V30 5183 H 494.353 1.89416 -5.41105 0
M  V30 5184 H 492.75 1.24934 -5.86951 0
M  V30 5185 H 493.82 0.279742 -4.84092 0
M  V30 5186 N 495.163 1.55791 0.238111 0
M  V30 5187 C 496.411 1.77681 0.963001 0
M  V30 5188 C 496.732 0.600674 1.85518 0
M  V30 5189 O 496.002 -0.383182 1.92116 0
M  V30 5190 H 494.582 0.655315 0.358568 0
M  V30 5191 H 497.244 1.93239 0.253945 0
M  V30 5192 H 496.34 2.69177 1.57956 0
M  V30 5193 N 496.642 -0.504142 1.49319 0
M  V30 5194 C 497.867 -1.28729 1.62615 0
M  V30 5195 C 498.292 -1.85752 0.296309 0
M  V30 5196 O 497.65 -1.65704 -0.735649 0
M  V30 5197 C 497.698 -2.39561 2.69524 0
M  V30 5198 O 496.802 -3.43324 2.28478 0
M  V30 5199 H 496.143 -0.380172 0.544395 0
M  V30 5200 H 498.673 -0.603872 1.95485 0
M  V30 5201 H 498.683 -2.8537 2.91595 0
M  V30 5202 H 497.358 -1.97423 3.66056 0
M  V30 5203 H 495.935 -3.03455 2.16725 0
M  V30 5204 N 498.12 -1.38341 -0.754957 0
M  V30 5205 C 499.067 -1.3546 -1.86867 0
M  V30 5206 C 500.037 -0.217369 -1.64672 0
M  V30 5207 O 501.222 -0.409383 -1.86356 0
M  V30 5208 C 498.362 -1.18413 -3.24149 0
M  V30 5209 C 497.475 -2.41511 -3.58185 0
M  V30 5210 C 496.61 -2.17205 -4.84763 0
M  V30 5211 C 495.649 -3.36081 -5.11582 0
M  V30 5212 N 494.786 -3.11219 -6.29354 0
M  V30 5213 H 499.626 -2.30672 -1.88664 0
M  V30 5214 H 497.163 -1.14607 -0.922154 0
M  V30 5215 H 499.121 -1.06545 -4.03366 0
M  V30 5216 H 497.751 -0.268397 -3.21682 0
M  V30 5217 H 496.803 -2.64056 -2.73822 0
M  V30 5218 H 498.115 -3.30115 -3.73932 0
M  V30 5219 H 497.269 -2.02465 -5.7192 0
M  V30 5220 H 496.008 -1.25964 -4.71152 0
M  V30 5221 H 495.013 -3.51341 -4.22894 0
M  V30 5222 H 496.238 -4.28196 -5.27091 0
M  V30 5223 H 494.184 -2.22624 -6.17069 0
M  V30 5224 H 494.101 -3.93373 -6.45596 0
M  V30 5225 H 495.369 -3.00132 -7.19403 0
M  V30 5226 N 499.598 0.982988 -1.23187 0
M  V30 5227 C 500.823 1.76455 -1.08988 0
M  V30 5228 C 501.248 1.84726 0.354691 0
M  V30 5229 O 500.606 1.30699 1.25649 0
M  V30 5230 C 500.654 3.17094 -1.71708 0
M  V30 5231 O 499.758 4.00648 -0.977477 0
M  V30 5232 H 499.099 0.542988 -0.382177 0
M  V30 5233 H 501.629 1.23413 -1.63188 0
M  V30 5234 H 501.639 3.67684 -1.76841 0
M  V30 5235 H 500.314 3.10389 -2.76823 0
M  V30 5236 H 498.891 3.59161 -1.0029 0
M  V30 5237 N 501.076 1.04316 1.18135 0
M  V30 5238 C 502.006 0.657299 2.24058 0
M  V30 5239 C 502.987 -0.340678 1.66654 0
M  V30 5240 O 504.172 -0.220223 1.92947 0
M  V30 5241 C 501.302 0.0220715 3.47293 0
M  V30 5242 C 500.256 0.943857 4.17463 0
M  V30 5243 C 499.582 0.172973 5.3442 0
M  V30 5244 C 500.882 2.26409 4.70677 0
M  V30 5245 H 502.576 1.5428 2.56589 0
M  V30 5246 H 500.122 0.743263 1.23335 0
M  V30 5247 H 502.075 -0.259607 4.206 0
M  V30 5248 H 500.799 -0.898323 3.14003 0
M  V30 5249 H 499.458 1.20996 3.46057 0
M  V30 5250 H 499.106 -0.749907 4.97379 0
M  V30 5251 H 498.806 0.787098 5.82304 0
M  V30 5252 H 500.33 -0.101628 6.10515 0
M  V30 5253 H 501.744 2.04294 5.35665 0
M  V30 5254 H 500.141 2.8314 5.29105 0
M  V30 5255 H 501.211 2.90883 3.87962 0
M  V30 5256 N 502.554 -1.34406 0.822964 0
M  V30 5257 C 503.97 -1.51275 0.508727 0
M  V30 5258 C 504.17 -1.76776 -0.967083 0
M  V30 5259 O 503.226 -1.81871 -1.75155 0
M  V30 5260 C 504.539 -2.67765 1.36829 0
M  V30 5261 C 506.087 -2.81647 1.36542 0
M  V30 5262 C 506.562 -4.01181 2.20947 0
M  V30 5263 N 508.053 -4.08388 2.18571 0
M  V30 5264 C 508.788 -5.00036 2.80627 0
M  V30 5265 N 508.284 -5.96906 3.51674 0
M  V30 5266 N 510.077 -4.92908 2.70181 0
M  V30 5267 H 502.228 -1.16113 1.77852 0
M  V30 5268 H 504.491 -0.56947 0.757897 0
M  V30 5269 H 504.197 -2.55551 2.41633 0
M  V30 5270 H 504.071 -3.62779 1.03303 0
M  V30 5271 H 506.458 -2.93303 0.325163 0
M  V30 5272 H 506.539 -1.87443 1.74066 0
M  V30 5273 H 506.183 -3.90286 3.25022 0
M  V30 5274 H 506.113 -4.94599 1.80774 0
M  V30 5275 H 508.604 -3.39051 1.66891 0
M  V30 5276 H 508.917 -6.63468 3.96271 0
M  V30 5277 H 507.262 -5.9703 3.5578 0
M  V30 5278 H 510.453 -4.1619 2.14251 0
M  V30 5279 H 510.626 -5.64137 3.18831 0
M  V30 5280 N 504.032 -0.577932 -1.46621 0
M  V30 5281 C 504.995 0.147805 -2.28723 0
M  V30 5282 C 505.995 0.823325 -1.38123 0
M  V30 5283 O 507.185 0.676011 -1.60548 0
M  V30 5284 C 504.317 1.21853 -3.18378 0
M  V30 5285 H 505.51 -0.573654 -2.94362 0
M  V30 5286 H 503.063 -0.335703 -1.52652 0
M  V30 5287 H 503.798 1.97173 -2.57475 0
M  V30 5288 H 503.583 0.738714 -3.85078 0
M  V30 5289 H 505.073 1.72768 -3.80186 0
M  V30 5290 N 505.51 1.54411 -0.315457 0
M  V30 5291 C 506.757 2.00419 0.289543 0
M  V30 5292 C 507.085 1.20373 1.52776 0
M  V30 5293 O 506.34 0.271769 1.93804 0
M  V30 5294 C 506.639 3.50936 0.676652 0
M  V30 5295 C 506.305 4.48532 -0.461472 0
M  V30 5296 C 504.967 4.74936 -0.773879 0
M  V30 5297 C 507.319 5.06567 -1.22637 0
M  V30 5298 C 504.647 5.56634 -1.85405 0
M  V30 5299 C 506.999 5.89441 -2.29657 0
M  V30 5300 C 505.663 6.1415 -2.61488 0
M  V30 5301 H 504.933 0.733386 0.105951 0
M  V30 5302 H 507.58 1.86434 -0.437554 0
M  V30 5303 H 505.885 3.62606 1.48405 0
M  V30 5304 H 507.582 3.83971 1.15618 0
M  V30 5305 H 504.172 4.28096 -0.207893 0
M  V30 5306 H 508.356 4.86157 -0.998271 0
M  V30 5307 H 503.612 5.74012 -2.10523 0
M  V30 5308 H 507.786 6.33432 -2.89374 0
M  V30 5309 H 505.413 6.77245 -3.45317 0
M  V30 5310 N 506.988 0.0434614 1.5754 0
M  V30 5311 C 508.234 -0.632971 1.92669 0
M  V30 5312 C 508.567 -1.70947 0.921446 0
M  V30 5313 O 507.842 -1.94426 -0.0537202 0
M  V30 5314 C 508.125 -1.23619 3.38216 0
M  V30 5315 C 507.978 -0.168274 4.49485 0
M  V30 5316 C 509.297 -2.15008 3.84005 0
M  V30 5317 H 506.416 -0.228629 0.700641 0
M  V30 5318 H 509.058 0.103651 1.89717 0
M  V30 5319 H 507.208 -1.864 3.40863 0
M  V30 5320 H 508.88 0.463196 4.58969 0
M  V30 5321 H 507.123 0.504581 4.30855 0
M  V30 5322 H 507.794 -0.630218 5.48391 0
M  V30 5323 H 510.27 -1.62198 3.83185 0
M  V30 5324 H 509.146 -2.54161 4.86511 0
M  V30 5325 H 509.407 -3.04707 3.20322 0
M  V30 5326 N 508.466 -1.55915 -0.229846 0
M  V30 5327 C 509.714 -1.7819 -0.953565 0
M  V30 5328 C 510.035 -0.610504 -1.85197 0
M  V30 5329 O 509.305 0.372988 -1.92316 0
M  V30 5330 H 507.885 -0.657208 -0.355087 0
M  V30 5331 H 510.547 -1.9337 -0.243693 0
M  V30 5332 H 509.643 -2.70011 -1.56527 0
M  V30 5333 N 509.944 0.496216 -1.49584 0
M  V30 5334 C 510.854 1.62352 -1.69349 0
M  V30 5335 C 511.87 1.64184 -0.576147 0
M  V30 5336 O 513.046 1.82517 -0.85144 0
M  V30 5337 C 510.111 2.98698 -1.76013 0
M  V30 5338 C 509.172 3.07454 -2.99617 0
M  V30 5339 C 508.405 4.37296 -3.05953 0
M  V30 5340 O 508.628 5.2637 -2.19752 0
M  V30 5341 O 507.562 4.51124 -3.9846 0
M  V30 5342 H 511.388 1.48606 -2.64859 0
M  V30 5343 H 508.973 0.673022 -1.33382 0
M  V30 5344 H 510.855 3.79725 -1.82721 0
M  V30 5345 H 509.53 3.12696 -0.836828 0
M  V30 5346 H 508.437 2.25597 -2.98424 0
M  V30 5347 H 509.77 2.98385 -3.91443 0
M  V30 5348 N 511.423 1.38739 0.74761 0
M  V30 5349 C 512.669 1.35475 1.50912 0
M  V30 5350 C 513.002 -0.0533093 1.94127 0
M  V30 5351 O 512.277 -1.01572 1.65871 0
M  V30 5352 C 512.56 2.31582 2.75757 0
M  V30 5353 C 512.413 3.81274 2.38642 0
M  V30 5354 C 513.732 2.25722 3.77806 0
M  V30 5355 H 510.851 0.493427 0.547447 0
M  V30 5356 H 513.493 1.69634 0.855823 0
M  V30 5357 H 511.643 2.02582 3.31501 0
M  V30 5358 H 513.315 4.20972 1.88626 0
M  V30 5359 H 511.558 3.98664 1.71025 0
M  V30 5360 H 512.229 4.4399 3.27989 0
M  V30 5361 H 514.705 2.51336 3.31616 0
M  V30 5362 H 513.581 2.95069 4.62845 0
M  V30 5363 H 513.842 1.25803 4.23823 0
M  V30 5364 N 512.901 -0.976442 1.23707 0
M  V30 5365 C 514.149 -1.71487 1.06942 0
M  V30 5366 C 514.47 -1.9098 -0.393897 0
M  V30 5367 O 513.74 -1.48128 -1.28198 0
M  V30 5368 H 512.32 -0.635425 0.392739 0
M  V30 5369 H 514.982 -1.17515 1.55487 0
M  V30 5370 H 514.078 -2.70286 1.56051 0
M  V30 5371 N 514.379 -1.04941 -1.1758 0
M  V30 5372 C 515.342 -0.652456 -2.19717 0
M  V30 5373 C 516.342 0.294745 -1.58076 0
M  V30 5374 O 517.532 0.0789579 -1.74021 0
M  V30 5375 C 514.664 0.0420712 -3.40874 0
M  V30 5376 H 515.857 -1.55642 -2.5635 0
M  V30 5377 H 513.41 -0.842995 -1.31618 0
M  V30 5378 H 514.145 0.95943 -3.09783 0
M  V30 5379 H 513.93 -0.638844 -3.86861 0
M  V30 5380 H 515.42 0.306 -4.16477 0
M  V30 5381 N 515.857 1.33968 -0.830081 0
M  V30 5382 C 517.273 1.51003 -0.516742 0
M  V30 5383 C 517.473 1.77286 0.957694 0
M  V30 5384 O 516.529 1.82797 1.74188 0
M  V30 5385 C 517.842 2.67036 -1.38247 0
M  V30 5386 C 519.39 2.80919 -1.38034 0
M  V30 5387 C 519.865 4.00004 -2.23071 0
M  V30 5388 N 521.356 4.07224 -2.20733 0
M  V30 5389 C 522.091 4.98541 -2.83275 0
M  V30 5390 N 521.587 5.95033 -3.54835 0
M  V30 5391 N 523.38 4.91469 -2.72791 0
M  V30 5392 H 515.531 1.15168 -1.78466 0
M  V30 5393 H 517.794 0.565443 -0.760906 0
M  V30 5394 H 517.5 2.54266 -2.42985 0
M  V30 5395 H 517.374 3.62226 -1.05225 0
M  V30 5396 H 519.761 2.93127 -0.340713 0
M  V30 5397 H 519.842 1.86517 -1.75057 0
M  V30 5398 H 519.486 3.88557 -3.27087 0
M  V30 5399 H 519.416 4.93634 -1.83394 0
M  V30 5400 H 521.907 3.38162 -1.68687 0
M  V30 5401 H 522.22 6.61357 -3.99784 0
M  V30 5402 H 520.565 5.95135 -3.58942 0
M  V30 5403 H 523.756 4.15048 -2.16456 0
M  V30 5404 H 523.929 5.62439 -3.21818 0
M  V30 5405 N 517.335 0.585699 1.46312 0
M  V30 5406 C 518.56 0.0762461 2.0726 0
M  V30 5407 C 518.985 -1.22071 1.43109 0
M  V30 5408 O 518.343 -1.73804 0.515942 0
M  V30 5409 C 518.391 -0.0729404 3.60526 0
M  V30 5410 O 517.495 -1.1287 3.96654 0
M  V30 5411 H 516.836 0.0641558 0.660893 0
M  V30 5412 H 519.366 0.809492 1.87905 0
M  V30 5413 H 519.376 -0.278158 4.07051 0
M  V30 5414 H 518.051 0.874188 4.06609 0
M  V30 5415 H 516.628 -0.901703 3.61834 0
M  V30 5416 N 518.813 -1.54241 0.323641 0
M  V30 5417 C 519.776 -2.22997 -0.529602 0
M  V30 5418 C 520.776 -1.22345 -1.04347 0
M  V30 5419 O 521.966 -1.46924 -0.935889 0
M  V30 5420 C 519.098 -2.93409 -1.73562 0
M  V30 5421 H 520.291 -2.99815 0.0714518 0
M  V30 5422 H 517.844 -1.56121 0.0747258 0
M  V30 5423 H 518.579 -2.20729 -2.37591 0
M  V30 5424 H 518.364 -3.67217 -1.37456 0
M  V30 5425 H 519.854 -3.45794 -2.34128 0
M  V30 5426 N 520.291 -0.0518155 -1.57515 0
M  V30 5427 C 521.254 0.907547 -2.10467 0
M  V30 5428 C 522.254 1.23947 -1.02439 0
M  V30 5429 O 523.444 1.17604 -1.2851 0
M  V30 5430 C 520.576 2.21723 -2.58944 0
M  V30 5431 H 521.769 0.44851 -2.96527 0
M  V30 5432 H 519.322 0.196598 -1.55059 0
M  V30 5433 H 520.057 2.72206 -1.76279 0
M  V30 5434 H 519.842 1.98935 -3.37886 0
M  V30 5435 H 521.332 2.90441 -3.00056 0
M  V30 5436 N 521.769 1.56035 0.221574 0
M  V30 5437 C 523.18 1.69229 0.788567 0
M  V30 5438 C 523.531 0.653814 1.84986 0
M  V30 5439 O 522.656 -0.195065 2.15519 0
M  V30 5440 C 523.251 3.06809 1.43713 0
M  V30 5441 C 521.81 3.21858 1.95152 0
M  V30 5442 C 520.957 2.65155 0.811685 0
M  V30 5443 H 523.908 1.587 -0.00307894 0
M  V30 5444 H 523.929 3.02666 2.30594 0
M  V30 5445 H 523.441 3.82369 0.664475 0
M  V30 5446 H 521.542 2.51167 2.7522 0
M  V30 5447 H 521.655 4.29073 2.1315 0
M  V30 5448 H 520.019 2.23635 1.21899 0
M  V30 5449 H 520.802 3.43261 0.0516987 0
M  V30 5450 N 523.247 -0.488276 1.49845 0
M  V30 5451 C 524.495 -1.23911 1.59657 0
M  V30 5452 C 524.816 -1.92816 0.291005 0
M  V30 5453 O 524.086 -1.83328 -0.690485 0
M  V30 5454 H 522.666 -0.460357 0.588286 0
M  V30 5455 H 525.328 -0.564794 1.86537 0
M  V30 5456 H 524.424 -1.99625 2.39909 0
M  V30 5457 N 524.725 -1.39134 -0.740242 0
M  V30 5458 C 525.973 -1.35803 -1.49673 0
M  V30 5459 C 526.294 0.0470897 -1.94943 0
M  V30 5460 O 525.564 0.997347 -1.68611 0
M  V30 5461 H 524.144 -0.499736 -0.555224 0
M  V30 5462 H 526.806 -1.73947 -0.879107 0
M  V30 5463 H 525.902 -2.0174 -2.38133 0
M  V30 5464 N 526.204 0.969867 -1.24223 0
M  V30 5465 C 527.452 1.70918 -1.0785 0
M  V30 5466 C 527.773 1.91186 0.383763 0
M  V30 5467 O 527.043 1.48806 1.27411 0
M  V30 5468 H 525.623 0.633334 -0.396103 0
M  V30 5469 H 528.285 1.16689 -1.56108 0
M  V30 5470 H 527.381 2.69455 -1.57482 0
M  V30 5471 N 527.682 1.05563 1.17022 0
M  V30 5472 C 528.907 0.788437 1.91829 0
M  V30 5473 C 529.332 -0.650356 1.76499 0
M  V30 5474 O 528.69 -1.45229 1.08527 0
M  V30 5475 C 528.738 1.1786 3.40795 0
M  V30 5476 O 527.842 0.312965 4.11211 0
M  V30 5477 H 527.183 0.288794 0.597908 0
M  V30 5478 H 529.713 1.40948 1.48307 0
M  V30 5479 H 529.723 1.14697 3.91546 0
M  V30 5480 H 528.398 2.22666 3.51273 0
M  V30 5481 H 526.975 0.405515 3.70689 0
M  V30 5482 N 529.16 -1.33526 0.837174 0
M  V30 5483 C 530.406 -1.9813 0.432704 0
M  V30 5484 C 530.739 -1.66168 -1.00508 0
M  V30 5485 O 530.014 -0.94069 -1.70239 0
M  V30 5486 C 530.297 -3.54151 0.651834 0
M  V30 5487 C 530.15 -3.95806 2.13676 0
M  V30 5488 C 531.469 -4.39993 0.0968937 0
M  V30 5489 H 528.588 -0.719713 0.15869 0
M  V30 5490 H 531.23 -1.58193 1.05237 0
M  V30 5491 H 529.38 -3.88301 0.124369 0
M  V30 5492 H 531.052 -3.71921 2.72896 0
M  V30 5493 H 529.295 -3.45599 2.62191 0
M  V30 5494 H 529.966 -5.0447 2.24084 0
M  V30 5495 H 532.442 -4.12479 0.547733 0
M  V30 5496 H 531.318 -5.48186 0.279917 0
M  V30 5497 H 531.579 -4.3066 -0.9992 0
M  V30 5498 N 530.638 -0.59345 -1.46 0
M  V30 5499 C 531.601 0.123538 -2.28867 0
M  V30 5500 C 532.601 0.808628 -1.38989 0
M  V30 5501 O 533.791 0.658945 -1.61256 0
M  V30 5502 C 530.923 1.1847 -3.19653 0
M  V30 5503 H 532.116 -0.604843 -2.93737 0
M  V30 5504 H 529.669 -0.351875 -1.52288 0
M  V30 5505 H 530.404 1.94431 -2.59552 0
M  V30 5506 H 530.189 0.69783 -3.8584 0
M  V30 5507 H 531.679 1.68726 -3.81997 0
M  V30 5508 N 532.116 1.54067 -0.331816 0
M  V30 5509 C 533.079 2.23275 0.517768 0
M  V30 5510 C 534.079 1.22897 1.03697 0
M  V30 5511 O 535.269 1.47419 0.928084 0
M  V30 5512 C 532.401 2.94326 1.72004 0
M  V30 5513 H 533.594 2.99773 -0.0873507 0
M  V30 5514 H 531.147 1.56079 -0.0830042 0
M  V30 5515 H 531.882 2.21986 2.36417 0
M  V30 5516 H 531.667 3.67941 1.35507 0
M  V30 5517 H 533.157 3.47031 2.32291 0
M  V30 5518 N 533.594 0.0601682 1.57485 0
M  V30 5519 C 534.557 -0.896373 2.10945 0
M  V30 5520 C 535.557 -1.23402 1.03095 0
M  V30 5521 O 536.747 -1.16921 1.29132 0
M  V30 5522 C 533.879 -2.20346 2.60116 0
M  V30 5523 H 535.072 -0.432778 2.96761 0
M  V30 5524 H 532.625 -0.188372 1.55161 0
M  V30 5525 H 533.36 -2.71268 1.7772 0
M  V30 5526 H 533.145 -1.9714 3.38937 0
M  V30 5527 H 534.635 -2.88846 3.01592 0
M  V30 5528 N 535.072 -1.5615 -0.213296 0
M  V30 5529 C 536.035 -1.92249 -1.24792 0
M  V30 5530 C 537.035 -0.801828 -1.39382 0
M  V30 5531 O 538.225 -1.06948 -1.37506 0
M  V30 5532 C 535.357 -2.18056 -2.62039 0
M  V30 5533 H 536.55 -2.84793 -0.939845 0
M  V30 5534 H 534.103 -1.49559 -0.454062 0
M  V30 5535 H 534.838 -1.2809 -2.97932 0
M  V30 5536 H 534.623 -2.99703 -2.52825 0
M  V30 5537 H 536.113 -2.47051 -3.36683 0
M  V30 5538 N 536.55 0.480323 -1.50102 0
M  V30 5539 C 537.513 1.56181 -1.6775 0
M  V30 5540 C 538.513 1.51156 -0.548503 0
M  V30 5541 O 539.703 1.5394 -0.815363 0
M  V30 5542 C 536.835 2.95823 -1.69415 0
M  V30 5543 H 538.028 1.41855 -2.6423 0
M  V30 5544 H 535.581 0.70605 -1.39444 0
M  V30 5545 H 536.316 3.15604 -0.745948 0
M  V30 5546 H 536.101 3.00878 -2.51425 0
M  V30 5547 H 537.591 3.74359 -1.85054 0
M  V30 5548 N 538.028 1.39524 0.732853 0
M  V30 5549 C 538.991 1.38189 1.82857 0
M  V30 5550 C 539.991 0.278624 1.58368 0
M  V30 5551 O 541.181 0.536639 1.65728 0
M  V30 5552 C 538.313 1.15661 3.2068 0
M  V30 5553 H 539.506 2.35692 1.85444 0
M  V30 5554 H 537.059 1.2512 0.936728 0
M  V30 5555 H 537.794 0.188482 3.23752 0
M  V30 5556 H 537.579 1.95559 3.39852 0
M  V30 5557 H 539.069 1.17472 4.00737 0
M  V30 5558 N 539.506 -0.963266 1.24736 0
M  V30 5559 C 540.439 -2.05758 0.986852 0
M  V30 5560 C 541.417 -1.62398 -0.0809272 0
M  V30 5561 O 542.601 -1.88414 0.0569347 0
M  V30 5562 C 539.728 -3.35135 0.490095 0
M  V30 5563 C 538.774 -3.97451 1.54709 0
M  V30 5564 S 539.607 -4.34519 3.12976 0
M  V30 5565 C 540.763 -5.67026 2.65014 0
M  V30 5566 H 540.996 -2.27539 1.91346 0
M  V30 5567 H 538.529 -1.10176 1.08169 0
M  V30 5568 H 540.487 -4.09962 0.21012 0
M  V30 5569 H 539.148 -3.11335 -0.415873 0
M  V30 5570 H 538.341 -4.90704 1.15003 0
M  V30 5571 H 537.943 -3.29071 1.77731 0
M  V30 5572 H 540.235 -6.44748 2.08102 0
M  V30 5573 H 541.178 -6.11594 3.56873 0
M  V30 5574 H 541.586 -5.25847 2.05294 0
M  V30 5575 N 540.985 -1.06182 -1.16461 0
M  V30 5576 C 542.233 -0.776326 -1.86595 0
M  V30 5577 C 542.554 0.69921 -1.82033 0
M  V30 5578 O 541.824 1.50579 -1.2531 0
M  V30 5579 H 540.404 -0.284184 -0.690832 0
M  V30 5580 H 543.066 -1.34308 -1.41235 0
M  V30 5581 H 542.162 -1.10022 -2.92064 0
M  V30 5582 N 542.463 1.3308 -0.844243 0
M  V30 5583 C 543.426 2.27403 -0.286485 0
M  V30 5584 C 544.426 1.51179 0.547872 0
M  V30 5585 O 545.616 1.70421 0.360886 0
M  V30 5586 C 542.748 3.35653 0.595813 0
M  V30 5587 H 543.941 2.78248 -1.11885 0
M  V30 5588 H 541.494 1.43574 -0.617749 0
M  V30 5589 H 542.229 2.90058 1.4504 0
M  V30 5590 H 542.014 3.921 -0.00125994 0
M  V30 5591 H 543.504 4.05958 0.979168 0
M  V30 5592 N 543.941 0.601185 1.45683 0
M  V30 5593 C 544.904 -0.111398 2.28929 0
M  V30 5594 C 545.904 -0.801246 1.39416 0
M  V30 5595 O 547.094 -0.650383 1.61603 0
M  V30 5596 C 544.226 -1.16773 3.20276 0
M  V30 5597 H 545.419 0.620412 2.93413 0
M  V30 5598 H 542.972 0.359946 1.52099 0
M  V30 5599 H 543.707 -1.93051 2.60579 0
M  V30 5600 H 543.492 -0.677358 3.86205 0
M  V30 5601 H 544.982 -1.66698 3.82886 0
M  V30 5602 N 545.419 -1.53889 0.339982 0
M  V30 5603 C 546.349 -2.27843 -0.510856 0
M  V30 5604 C 547.33 -1.29267 -1.10563 0
M  V30 5605 O 548.515 -1.58104 -1.12768 0
M  V30 5606 C 545.645 -3.04857 -1.66372 0
M  V30 5607 C 544.599 -4.10907 -1.19746 0
M  V30 5608 C 543.925 -4.75855 -2.43857 0
M  V30 5609 C 545.225 -5.21435 -0.300501 0
M  V30 5610 H 546.919 -2.99212 0.106067 0
M  V30 5611 H 544.465 -1.43904 0.0524533 0
M  V30 5612 H 546.418 -3.5533 -2.26537 0
M  V30 5613 H 545.142 -2.31133 -2.30749 0
M  V30 5614 H 543.801 -3.61342 -0.618654 0
M  V30 5615 H 543.449 -3.9873 -3.06633 0
M  V30 5616 H 543.149 -5.47502 -2.13343 0
M  V30 5617 H 544.673 -5.2911 -3.04754 0
M  V30 5618 H 546.087 -5.67565 -0.80889 0
M  V30 5619 H 544.484 -6.00036 -0.0874076 0
M  V30 5620 H 545.554 -4.80328 0.664321 0
M  V30 5621 N 546.897 -0.0685191 -1.57451 0
M  V30 5622 C 548.145 0.60016 -1.92983 0
M  V30 5623 C 548.466 1.70348 -0.949028 0
M  V30 5624 O 547.736 1.959 0.00335647 0
M  V30 5625 H 546.316 0.224682 -0.712409 0
M  V30 5626 H 548.978 -0.125605 -1.94495 0
M  V30 5627 H 548.074 1.02759 -2.94698 0
M  V30 5628 N 548.375 1.56261 0.205012 0
M  V30 5629 C 549.6 1.84491 0.947512 0
M  V30 5630 C 550.025 0.650894 1.76479 0
M  V30 5631 O 549.383 -0.40035 1.76824 0
M  V30 5632 C 549.431 3.10863 1.82747 0
M  V30 5633 O 548.535 2.90719 2.925 0
M  V30 5634 H 547.876 0.607783 0.267386 0
M  V30 5635 H 550.406 2.03485 0.213323 0
M  V30 5636 H 550.416 3.41399 2.23407 0
M  V30 5637 H 549.091 3.97392 1.2269 0
M  V30 5638 H 547.668 2.71457 2.55667 0
M  V30 5639 N 549.853 -0.472356 1.50355 0
M  V30 5640 C 550.786 -1.58923 1.63764 0
M  V30 5641 C 551.764 -1.55173 0.485793 0
M  V30 5642 O 552.948 -1.74815 0.705132 0
M  V30 5643 C 550.075 -2.97497 1.61905 0
M  V30 5644 C 549.121 -3.19405 2.82635 0
M  V30 5645 S 549.954 -2.99441 4.43954 0
M  V30 5646 C 551.11 -4.40359 4.44786 0
M  V30 5647 H 551.343 -1.47309 2.58239 0
M  V30 5648 H 548.876 -0.659601 1.39602 0
M  V30 5649 H 550.834 -3.77389 1.61518 0
M  V30 5650 H 549.495 -3.06502 0.686683 0
M  V30 5651 H 548.688 -4.20636 2.77636 0
M  V30 5652 H 548.29 -2.47283 2.80583 0
M  V30 5653 H 550.582 -5.32969 4.1827 0
M  V30 5654 H 551.525 -4.50403 5.46391 0
M  V30 5655 H 551.933 -4.22378 3.74509 0
M  V30 5656 N 551.331 -1.39911 -0.725443 0
M  V30 5657 C 552.577 -1.37858 -1.48738 0
M  V30 5658 C 552.91 0.0224187 -1.94187 0
M  V30 5659 O 552.185 0.989204 -1.67466 0
M  V30 5660 C 552.468 -2.3594 -2.72038 0
M  V30 5661 C 552.321 -3.85023 -2.32546 0
M  V30 5662 C 553.64 -2.31704 -3.74167 0
M  V30 5663 H 550.759 -0.502074 -0.539528 0
M  V30 5664 H 553.401 -1.70974 -0.828728 0
M  V30 5665 H 551.551 -2.0783 -3.28236 0
M  V30 5666 H 553.223 -4.2392 -1.81905 0
M  V30 5667 H 551.466 -4.01334 -1.64661 0
M  V30 5668 H 552.137 -4.49152 -3.20884 0
M  V30 5669 H 554.613 -2.5658 -3.27576 0
M  V30 5670 H 553.489 -3.02395 -4.58092 0
M  V30 5671 H 553.75 -1.3253 -4.21768 0
M  V30 5672 N 552.809 0.956637 -1.25245 0
M  V30 5673 C 554.057 1.69764 -1.09657 0
M  V30 5674 C 554.378 1.91583 0.363464 0
M  V30 5675 O 553.648 1.50149 1.25825 0
M  V30 5676 H 552.228 0.629097 -0.402798 0
M  V30 5677 H 554.89 1.15026 -1.57337 0
M  V30 5678 H 553.986 2.67769 -1.60331 0
M  V30 5679 N 554.287 1.06798 1.15896 0
M  V30 5680 C 555.217 0.704677 2.22613 0
M  V30 5681 C 556.198 -0.305252 1.67339 0
M  V30 5682 O 557.383 -0.179247 1.93371 0
M  V30 5683 C 554.513 0.0957325 3.47168 0
M  V30 5684 C 553.467 1.0322 4.15367 0
M  V30 5685 C 552.793 0.286293 5.33933 0
M  V30 5686 C 554.093 2.36341 4.65768 0
M  V30 5687 H 555.787 1.59688 2.53259 0
M  V30 5688 H 553.333 0.769257 1.21731 0
M  V30 5689 H 555.286 -0.170333 4.21056 0
M  V30 5690 H 554.01 -0.831516 3.15838 0
M  V30 5691 H 552.669 1.28309 3.43413 0
M  V30 5692 H 552.317 -0.644237 4.98857 0
M  V30 5693 H 552.017 0.910436 5.80504 0
M  V30 5694 H 553.541 0.0278938 6.10594 0
M  V30 5695 H 554.955 2.1561 5.31211 0
M  V30 5696 H 553.352 2.94299 5.2298 0
M  V30 5697 H 554.422 2.99047 3.81705 0
M  V30 5698 N 555.766 -1.3263 0.851289 0
M  V30 5699 C 556.699 -2.26952 0.238318 0
M  V30 5700 C 557.677 -1.50243 -0.621757 0
M  V30 5701 O 558.861 -1.79378 -0.579298 0
M  V30 5702 C 555.988 -3.32124 -0.664178 0
M  V30 5703 C 555.034 -4.26325 0.122067 0
M  V30 5704 S 555.867 -5.14404 1.48824 0
M  V30 5705 C 557.023 -6.231 0.591372 0
M  V30 5706 H 557.256 -2.78594 1.03791 0
M  V30 5707 H 554.789 -1.4011 0.648731 0
M  V30 5708 H 556.747 -3.93197 -1.17924 0
M  V30 5709 H 555.408 -2.79273 -1.43755 0
M  V30 5710 H 554.601 -5.00821 -0.565181 0
M  V30 5711 H 554.203 -3.69652 0.568602 0
M  V30 5712 H 556.495 -6.77187 -0.205762 0
M  V30 5713 H 557.438 -6.95936 1.30687 0
M  V30 5714 H 557.846 -5.64252 0.167206 0
M  V30 5715 N 557.244 -0.608902 -1.45362 0
M  V30 5716 C 558.472 -0.111013 -2.06602 0
M  V30 5717 C 558.887 1.20516 -1.45332 0
M  V30 5718 O 558.244 1.73437 -0.567978 0
M  V30 5719 C 558.295 0.033688 -3.61484 0
M  V30 5720 O 558.016 -1.23041 -4.20467 0
M  V30 5721 C 559.517 0.562882 -4.39712 0
M  V30 5722 H 556.737 -0.0694453 -0.667397 0
M  V30 5723 H 559.281 -0.837008 -1.86586 0
M  V30 5724 H 557.436 0.710016 -3.80838 0
M  V30 5725 H 557.85 -1.06094 -5.13658 0
M  V30 5726 H 559.324 0.613213 -5.48583 0
M  V30 5727 H 559.801 1.58543 -4.09586 0
M  V30 5728 H 560.407 -0.0794454 -4.25226 0
M  V30 5729 N 558.722 1.53707 -0.348139 0
M  V30 5730 C 559.952 2.05108 0.247864 0
M  V30 5731 C 560.36 1.22252 1.44399 0
M  V30 5732 O 559.703 0.251853 1.81965 0
M  V30 5733 C 559.765 3.52171 0.722187 0
M  V30 5734 C 559.429 4.5562 -0.354902 0
M  V30 5735 C 560.426 5.05883 -1.19911 0
M  V30 5736 C 558.111 4.99703 -0.510145 0
M  V30 5737 C 560.105 5.98814 -2.18406 0
M  V30 5738 C 557.792 5.92443 -1.49848 0
M  V30 5739 C 558.79 6.41887 -2.33389 0
M  V30 5740 O 558.478 7.32802 -3.3054 0
M  V30 5741 H 558.21 0.674086 0.0508296 0
M  V30 5742 H 560.764 1.99229 -0.49968 0
M  V30 5743 H 558.994 3.55529 1.52105 0
M  V30 5744 H 560.683 3.8652 1.23925 0
M  V30 5745 H 561.449 4.72586 -1.09028 0
M  V30 5746 H 557.328 4.60816 0.130274 0
M  V30 5747 H 560.872 6.3733 -2.83649 0
M  V30 5748 H 556.769 6.25155 -1.60786 0
M  V30 5749 H 557.537 7.50749 -3.26064 0
M  V30 5750 N 560.2 0.0768682 1.57412 0
M  V30 5751 C 561.448 -0.589918 1.93299 0
M  V30 5752 C 561.769 -1.69842 0.958049 0
M  V30 5753 O 561.039 -1.95899 0.00703261 0
M  V30 5754 H 559.619 -0.220901 0.713591 0
M  V30 5755 H 562.281 0.135917 1.94425 0
M  V30 5756 H 561.377 -1.01195 2.95239 0
M  V30 5757 N 561.678 -1.56367 -0.196722 0
M  V30 5758 C 563.094 -1.49916 -0.54749 0
M  V30 5759 C 563.294 -0.77659 -1.85934 0
M  V30 5760 O 562.35 -0.32644 -2.50381 0
M  V30 5761 C 563.663 -2.94577 -0.603734 0
M  V30 5762 C 565.211 -3.05239 -0.692677 0
M  V30 5763 C 565.686 -4.51308 -0.780046 0
M  V30 5764 N 567.177 -4.55453 -0.843616 0
M  V30 5765 C 567.912 -5.65786 -0.931358 0
M  V30 5766 N 567.408 -6.85812 -0.981503 0
M  V30 5767 N 569.201 -5.53695 -0.968421 0
M  V30 5768 H 561.352 -2.01761 0.663803 0
M  V30 5769 H 563.615 -0.918094 0.236238 0
M  V30 5770 H 563.321 -3.50494 0.29105 0
M  V30 5771 H 563.195 -3.47841 -1.45898 0
M  V30 5772 H 565.582 -2.49372 -1.57789 0
M  V30 5773 H 565.663 -2.55103 0.188736 0
M  V30 5774 H 565.307 -5.078 0.100811 0
M  V30 5775 H 565.237 -4.99176 -1.67724 0
M  V30 5776 H 567.728 -3.69025 -0.814176 0
M  V30 5777 H 568.041 -7.65648 -1.04892 0
M  V30 5778 H 566.386 -6.88474 -0.950208 0
M  V30 5779 H 569.577 -4.58848 -0.926072 0
M  V30 5780 H 569.75 -6.39708 -1.03334 0
M  V30 5781 N 563.156 0.464375 -1.50603 0
M  V30 5782 C 564.572 0.798684 -1.38178 0
M  V30 5783 C 564.772 1.96568 -0.44308 0
M  V30 5784 O 563.828 2.52252 0.111814 0
M  V30 5785 C 565.141 1.10444 -2.79683 0
M  V30 5786 C 566.689 1.2105 -2.88645 0
M  V30 5787 C 567.164 1.54934 -4.30998 0
M  V30 5788 N 568.655 1.61913 -4.3398 0
M  V30 5789 C 569.39 1.8965 -5.41129 0
M  V30 5790 N 568.886 2.15361 -6.58477 0
M  V30 5791 N 570.679 1.91207 -5.28579 0
M  V30 5792 H 562.83 -0.304603 -2.10204 0
M  V30 5793 H 565.093 -0.0737804 -0.945125 0
M  V30 5794 H 564.799 0.319934 -3.50242 0
M  V30 5795 H 564.673 2.03896 -3.17342 0
M  V30 5796 H 567.06 1.98567 -2.18301 0
M  V30 5797 H 567.141 0.255613 -2.5452 0
M  V30 5798 H 566.785 0.779549 -5.01882 0
M  V30 5799 H 566.715 2.51584 -4.62615 0
M  V30 5800 H 569.206 1.44055 -3.49366 0
M  V30 5801 H 569.519 2.35818 -7.35941 0
M  V30 5802 H 567.864 2.1274 -6.6164 0
M  V30 5803 H 571.055 1.70622 -4.35897 0
M  V30 5804 H 571.228 2.12488 -6.12171 0
M  V30 5805 N 564.634 1.40294 0.718013 0
M  V30 5806 C 565.566 1.36281 1.84283 0
M  V30 5807 C 566.579 0.268621 1.60569 0
M  V30 5808 O 567.768 0.528798 1.70487 0
M  V30 5809 C 564.868 1.09741 3.2064 0
M  V30 5810 C 564.041 2.30767 3.71571 0
M  V30 5811 C 563.1 2.00424 4.86535 0
M  V30 5812 O 562.126 2.73268 4.99313 0
M  V30 5813 N 563.328 0.980724 5.72156 0
M  V30 5814 H 566.093 2.3322 1.88225 0
M  V30 5815 H 563.654 1.34616 0.899453 0
M  V30 5816 H 565.646 0.874322 3.95143 0
M  V30 5817 H 564.216 0.214771 3.11861 0
M  V30 5818 H 563.436 2.68921 2.88228 0
M  V30 5819 H 564.724 3.11455 4.02335 0
M  V30 5820 H 564.122 0.377375 5.6444 0
M  V30 5821 H 562.679 0.817538 6.46653 0
M  V30 5822 N 566.112 -0.949982 1.2575 0
M  V30 5823 C 567.359 -1.69515 1.10774 0
M  V30 5824 C 567.687 -1.91316 -0.350479 0
M  V30 5825 O 566.942 -1.48515 -1.27443 0
M  V30 5826 C 567.241 -3.08039 1.81237 0
M  V30 5827 C 566.907 -3.06023 3.31151 0
M  V30 5828 C 565.569 -3.0518 3.72047 0
M  V30 5829 C 567.921 -2.98998 4.26907 0
M  V30 5830 C 565.249 -2.95067 5.07102 0
M  V30 5831 C 567.601 -2.90426 5.61992 0
M  V30 5832 C 566.265 -2.87922 6.0221 0
M  V30 5833 H 565.535 -0.6203 0.405351 0
M  V30 5834 H 568.182 -1.10953 1.56082 0
M  V30 5835 H 566.487 -3.70172 1.28373 0
M  V30 5836 H 568.184 -3.64526 1.67098 0
M  V30 5837 H 564.774 -3.07453 2.98614 0
M  V30 5838 H 568.958 -2.98764 3.963 0
M  V30 5839 H 564.214 -2.915 5.37436 0
M  V30 5840 H 568.388 -2.83952 6.35881 0
M  V30 5841 H 566.015 -2.79841 7.06819 0
M  V30 5842 N 567.59 -1.07411 -1.15328 0
M  V30 5843 C 568.522 -0.652924 -2.19703 0
M  V30 5844 C 569.535 0.294869 -1.60107 0
M  V30 5845 O 570.724 0.0840932 -1.78302 0
M  V30 5846 C 567.824 0.061434 -3.38844 0
M  V30 5847 C 566.997 -0.902696 -4.27984 0
M  V30 5848 C 566.056 -0.225521 -5.25717 0
M  V30 5849 O 565.082 -0.86676 -5.62562 0
M  V30 5850 N 566.284 1.02858 -5.71315 0
M  V30 5851 H 569.049 -1.55081 -2.56457 0
M  V30 5852 H 566.61 -0.958883 -1.30449 0
M  V30 5853 H 568.602 0.525145 -4.01278 0
M  V30 5854 H 567.172 0.861269 -3.00501 0
M  V30 5855 H 566.392 -1.54551 -3.6264 0
M  V30 5856 H 567.68 -1.55636 -4.84412 0
M  V30 5857 H 567.078 1.56948 -5.43492 0
M  V30 5858 H 565.635 1.43596 -6.35786 0
M  V30 5859 N 569.068 1.32177 -0.85831 0
M  V30 5860 C 570.293 2.01847 -0.476718 0
M  V30 5861 C 570.718 1.64065 0.920021 0
M  V30 5862 O 570.076 0.843189 1.60499 0
M  V30 5863 C 570.124 3.55097 -0.627578 0
M  V30 5864 O 569.228 4.11012 0.338086 0
M  V30 5865 H 568.569 0.635907 -0.191099 0
M  V30 5866 H 571.099 1.68641 -1.15851 0
M  V30 5867 H 571.109 4.04718 -0.516476 0
M  V30 5868 H 569.784 3.81938 -1.64609 0
M  V30 5869 H 568.361 3.72451 0.182917 0
M  V30 5870 N 570.547 0.616602 1.45037 0
M  V30 5871 C 571.477 -0.0840787 2.33349 0
M  V30 5872 C 572.458 -0.849641 1.4736 0
M  V30 5873 O 573.643 -0.818407 1.76113 0
M  V30 5874 C 570.773 -1.07604 3.3021 0
M  V30 5875 C 569.727 -0.423096 4.25904 0
M  V30 5876 C 569.053 -1.52394 5.12523 0
M  V30 5877 C 570.353 0.661457 5.18095 0
M  V30 5878 H 572.047 0.653333 2.92185 0
M  V30 5879 H 569.593 0.315634 1.40498 0
M  V30 5880 H 571.546 -1.57485 3.90866 0
M  V30 5881 H 570.27 -1.84416 2.69552 0
M  V30 5882 H 568.929 0.05493 3.66559 0
M  V30 5883 H 568.577 -2.28257 4.48227 0
M  V30 5884 H 568.277 -1.09251 5.77354 0
M  V30 5885 H 569.801 -2.02485 5.76049 0
M  V30 5886 H 571.215 0.246353 5.7277 0
M  V30 5887 H 569.612 1.01517 5.91451 0
M  V30 5888 H 570.682 1.53446 4.59981 0
M  V30 5889 N 572.025 -1.5352 0.356285 0
M  V30 5890 C 573.302 -1.93405 -0.292223 0
M  V30 5891 C 573.682 -1.28901 -1.67176 0
M  V30 5892 O 573.03 -0.444632 -2.24132 0
M  V30 5893 C 573.24 -3.47223 -0.35175 0
M  V30 5894 C 574.588 -4.20389 -0.596534 0
M  V30 5895 O 575.612 -3.53554 -0.433344 0
M  V30 5896 O 574.471 -5.3881 -0.913589 0
M  V30 5897 H 571.565 -0.808666 -0.173172 0
M  V30 5898 H 574.111 -1.64713 0.408391 0
M  V30 5899 H 572.883 -3.86423 0.615841 0
M  V30 5900 H 572.506 -3.8212 -1.09864 0
M  V30 5901 N 573.503 -0.0852151 -1.57369 0
M  V30 5902 C 574.731 0.58946 -1.98325 0
M  V30 5903 C 575.146 1.62333 -0.96403 0
M  V30 5904 O 574.503 1.82438 0.0476395 0
M  V30 5905 C 574.554 1.24604 -3.39347 0
M  V30 5906 O 574.275 0.253532 -4.37366 0
M  V30 5907 C 575.776 2.00726 -3.95252 0
M  V30 5908 H 572.996 0.158783 -0.651942 0
M  V30 5909 H 575.54 -0.161584 -2.03861 0
M  V30 5910 H 573.695 1.94808 -3.34856 0
M  V30 5911 H 574.109 0.726207 -5.19448 0
M  V30 5912 H 575.583 2.42039 -4.96106 0
M  V30 5913 H 576.06 2.86919 -3.32527 0
M  V30 5914 H 576.666 1.3536 -4.03185 0
M  V30 5915 N 574.981 1.5647 0.188427 0
M  V30 5916 C 576.209 1.85131 0.923803 0
M  V30 5917 C 576.624 0.668537 1.76567 0
M  V30 5918 O 575.981 -0.362662 1.7886 0
M  V30 5919 C 576.032 3.12661 1.81453 0
M  V30 5920 O 575.753 4.26378 1.00665 0
M  V30 5921 C 577.254 3.54548 2.66103 0
M  V30 5922 H 574.474 0.614624 0.269218 0
M  V30 5923 H 577.018 2.03581 0.193671 0
M  V30 5924 H 575.173 2.96088 2.49821 0
M  V30 5925 H 575.587 4.99041 1.61425 0
M  V30 5926 H 577.061 4.4673 3.24247 0
M  V30 5927 H 577.538 2.77853 3.40139 0
M  V30 5928 H 578.144 3.73674 2.03096 0
M  V30 5929 N 576.459 -0.456382 1.50847 0
M  V30 5930 C 577.392 -1.57177 1.65441 0
M  V30 5931 C 578.37 -1.54649 0.502224 0
M  V30 5932 O 579.554 -1.74057 0.723633 0
M  V30 5933 C 576.681 -2.95763 1.65052 0
M  V30 5934 C 575.727 -3.16389 2.86007 0
M  V30 5935 S 576.56 -2.94716 4.47105 0
M  V30 5936 C 577.716 -4.35617 4.49432 0
M  V30 5937 H 577.949 -1.44561 2.59787 0
M  V30 5938 H 575.482 -0.644758 1.40293 0
M  V30 5939 H 577.44 -3.75654 1.65512 0
M  V30 5940 H 576.101 -3.05756 0.719153 0
M  V30 5941 H 575.294 -4.17667 2.82081 0
M  V30 5942 H 574.896 -2.44293 2.8319 0
M  V30 5943 H 577.188 -5.28503 4.239 0
M  V30 5944 H 578.131 -4.44582 5.51137 0
M  V30 5945 H 578.539 -4.18382 3.78967 0
M  V30 5946 N 577.937 -1.40673 -0.710563 0
M  V30 5947 C 579.353 -1.22813 -1.01928 0
M  V30 5948 C 579.553 -0.10687 -2.01216 0
M  V30 5949 O 578.609 0.533614 -2.46797 0
M  V30 5950 C 579.922 -2.57178 -1.5582 0
M  V30 5951 C 581.47 -2.64233 -1.67779 0
M  V30 5952 C 581.945 -3.98879 -2.25076 0
M  V30 5953 N 583.436 -4.00647 -2.32456 0
M  V30 5954 C 584.171 -5.01621 -2.77784 0
M  V30 5955 N 583.667 -6.12989 -3.22826 0
M  V30 5956 N 585.46 -4.88988 -2.77213 0
M  V30 5957 H 577.611 -2.12335 -0.05253 0
M  V30 5958 H 579.874 -0.9441 -0.085898 0
M  V30 5959 H 579.58 -3.39903 -0.903249 0
M  V30 5960 H 579.454 -2.78618 -2.54267 0
M  V30 5961 H 581.841 -1.81876 -2.3239 0
M  V30 5962 H 581.922 -2.46619 -0.679178 0
M  V30 5963 H 581.566 -4.81678 -1.61086 0
M  V30 5964 H 581.496 -4.13826 -3.25661 0
M  V30 5965 H 583.987 -3.20231 -2.0065 0
M  V30 5966 H 584.3 -6.85921 -3.55995 0
M  V30 5967 H 582.645 -6.16547 -3.20773 0
M  V30 5968 H 585.836 -4.01075 -2.41363 0
M  V30 5969 H 586.009 -5.67822 -3.12221 0
M  V30 5970 N 579.415 0.9433 -1.26252 0
M  V30 5971 C 580.831 1.21644 -1.03319 0
M  V30 5972 C 581.031 2.0003 0.242983 0
M  V30 5973 O 580.087 2.33838 0.952688 0
M  V30 5974 C 581.4 1.97978 -2.2633 0
M  V30 5975 C 582.948 2.10978 -2.31209 0
M  V30 5976 C 583.423 2.90713 -3.53907 0
M  V30 5977 N 584.914 2.98287 -3.54371 0
M  V30 5978 C 585.649 3.60406 -4.45976 0
M  V30 5979 N 585.145 4.24043 -5.47868 0
M  V30 5980 N 586.938 3.57658 -4.33633 0
M  V30 5981 H 579.089 0.419221 -2.08222 0
M  V30 5982 H 581.352 0.247995 -0.914988 0
M  V30 5983 H 581.058 1.47788 -3.19142 0
M  V30 5984 H 580.932 2.9865 -2.30408 0
M  V30 5985 H 583.319 2.6036 -1.38913 0
M  V30 5986 H 583.4 1.09575 -2.31143 0
M  V30 5987 H 583.044 2.42018 -4.46531 0
M  V30 5988 H 582.974 3.92367 -3.5122 0
M  V30 5989 H 585.465 2.53044 -2.80673 0
M  V30 5990 H 585.778 4.69334 -6.13959 0
M  V30 5991 H 584.123 4.22637 -5.51728 0
M  V30 5992 H 587.314 3.07134 -3.53251 0
M  V30 5993 H 587.487 4.05782 -5.05218 0
M  V30 5994 N 580.893 1.08022 1.14757 0
M  V30 5995 C 581.823 0.728248 2.21853 0
M  V30 5996 C 582.804 -0.287486 1.67653 0
M  V30 5997 O 583.989 -0.158727 1.9355 0
M  V30 5998 C 581.119 0.132549 3.47047 0
M  V30 5999 C 580.073 1.07619 4.14249 0
M  V30 6000 C 579.399 0.342907 5.33599 0
M  V30 6001 C 580.699 2.41268 4.63235 0
M  V30 6002 H 582.393 1.62365 2.51551 0
M  V30 6003 H 579.939 0.782125 1.20908 0
M  V30 6004 H 581.892 -0.125665 4.21213 0
M  V30 6005 H 580.616 -0.797971 3.16702 0
M  V30 6006 H 579.275 1.31944 3.42033 0
M  V30 6007 H 578.923 -0.59129 4.99513 0
M  V30 6008 H 578.623 0.971955 5.79506 0
M  V30 6009 H 580.147 0.0926538 6.1053 0
M  V30 6010 H 581.561 2.21232 5.28894 0
M  V30 6011 H 579.958 2.9983 5.19829 0
M  V30 6012 H 581.028 3.03079 3.78512 0
M  V30 6013 N 582.371 -1.3172 0.865308 0
M  V30 6014 C 583.62 -1.96145 0.470098 0
M  V30 6015 C 583.933 -1.69182 -0.981674 0
M  V30 6016 O 585.139 -2.27431 -1.48281 0
M  V30 6017 C 583.595 -3.51129 0.789732 0
M  V30 6018 C 583.203 -3.86938 2.25795 0
M  V30 6019 C 584.947 -4.2197 0.462765 0
M  V30 6020 C 582.854 -5.35012 2.52024 0
M  V30 6021 H 581.784 -0.734105 0.172065 0
M  V30 6022 H 584.435 -1.49959 1.05757 0
M  V30 6023 H 582.817 -3.95781 0.131571 0
M  V30 6024 H 583.991 -3.5326 2.95879 0
M  V30 6025 H 582.306 -3.29149 2.55049 0
M  V30 6026 H 584.903 -5.30904 0.636019 0
M  V30 6027 H 585.246 -4.12005 -0.59645 0
M  V30 6028 H 585.779 -3.82936 1.07727 0
M  V30 6029 H 582.518 -5.50008 3.56611 0
M  V30 6030 H 582.038 -5.70058 1.8653 0
M  V30 6031 H 583.717 -6.0222 2.36515 0
M  V30 6032 N 583.85 -0.624285 -1.44708 0
M  V30 6033 C 585.26 -0.2092 -1.85524 0
M  V30 6034 C 585.611 1.23783 -1.52225 0
M  V30 6035 O 584.736 1.94089 -0.956986 0
M  V30 6036 C 585.332 -0.372897 -3.36742 0
M  V30 6037 C 583.891 -0.012374 -3.76398 0
M  V30 6038 C 583.038 -0.68951 -2.68591 0
M  V30 6039 H 585.989 -0.829894 -1.35272 0
M  V30 6040 H 586.01 0.390134 -3.78495 0
M  V30 6041 H 585.522 -1.42615 -3.60947 0
M  V30 6042 H 583.623 1.03941 -3.57809 0
M  V30 6043 H 583.736 -0.417663 -4.77276 0
M  V30 6044 H 582.1 -0.125484 -2.54391 0
M  V30 6045 H 582.883 -1.74522 -2.9563 0
M  V30 6046 N 585.328 1.53329 -0.364422 0
M  V30 6047 C 586.739 1.86345 0.115039 0
M  V30 6048 C 587.09 1.28505 1.4826 0
M  V30 6049 O 586.215 0.606639 2.07723 0
M  V30 6050 C 586.81 3.38114 0.215522 0
M  V30 6051 C 585.369 3.70932 0.639237 0
M  V30 6052 C 584.516 2.76471 -0.214261 0
M  V30 6053 H 587.467 1.47593 -0.583258 0
M  V30 6054 H 587.488 3.66031 1.0393 0
M  V30 6055 H 587 3.80182 -0.779948 0
M  V30 6056 H 585.101 3.3442 1.64298 0
M  V30 6057 H 585.214 4.77302 0.41465 0
M  V30 6058 H 583.578 2.52724 0.316678 0
M  V30 6059 H 584.361 3.21373 -1.20725 0
M  V30 6060 N 586.806 0.0935595 1.57322 0
M  V30 6061 C 588.053 -0.570509 1.94297 0
M  V30 6062 C 588.381 -1.68286 0.97519 0
M  V30 6063 O 587.636 -1.95699 -0.00548655 0
M  V30 6064 C 587.935 -1.16692 3.37813 0
M  V30 6065 C 587.601 -0.178509 4.50547 0
M  V30 6066 C 586.263 0.0933475 4.81109 0
M  V30 6067 C 588.615 0.496472 5.1883 0
M  V30 6068 C 585.943 1.0469 5.77284 0
M  V30 6069 C 588.295 1.43849 6.16028 0
M  V30 6070 C 586.959 1.71859 6.44997 0
M  V30 6071 H 586.229 -0.208764 0.710984 0
M  V30 6072 H 588.876 0.169066 1.90752 0
M  V30 6073 H 587.181 -1.98271 3.37929 0
M  V30 6074 H 588.878 -1.6884 3.63722 0
M  V30 6075 H 585.468 -0.400584 4.26724 0
M  V30 6076 H 589.652 0.299584 4.95395 0
M  V30 6077 H 584.908 1.27094 5.98044 0
M  V30 6078 H 589.082 1.96734 6.68034 0
M  V30 6079 H 586.709 2.45906 7.19329 0
M  V30 6080 N 588.284 -1.56567 -0.180126 0
M  V30 6081 C 589.7 -1.50488 -0.531559 0
M  V30 6082 C 589.9 -0.796267 -1.851 0
M  V30 6083 O 588.956 -0.352978 -2.50021 0
M  V30 6084 C 590.269 -2.95201 -0.572456 0
M  V30 6085 C 591.817 -3.05957 -0.660264 0
M  V30 6086 C 592.292 -4.5211 -0.732135 0
M  V30 6087 N 593.783 -4.56322 -0.795262 0
M  V30 6088 C 594.518 -5.66742 -0.871296 0
M  V30 6089 N 594.014 -6.86815 -0.908708 0
M  V30 6090 N 595.807 -5.54691 -0.909639 0
M  V30 6091 H 587.958 -2.01045 0.685165 0
M  V30 6092 H 590.221 -0.915536 0.245962 0
M  V30 6093 H 589.927 -3.50165 0.328208 0
M  V30 6094 H 589.801 -3.49369 -1.422 0
M  V30 6095 H 592.188 -2.51032 -1.55136 0
M  V30 6096 H 592.269 -2.54888 0.215783 0
M  V30 6097 H 591.913 -5.07664 0.154664 0
M  V30 6098 H 591.843 -5.00926 -1.6242 0
M  V30 6099 H 594.334 -3.69868 -0.77499 0
M  V30 6100 H 594.647 -7.66718 -0.967654 0
M  V30 6101 H 592.992 -6.89443 -0.877132 0
M  V30 6102 H 596.183 -4.59804 -0.877353 0
M  V30 6103 H 596.356 -6.40768 -0.965434 0
M  V30 6104 N 589.762 0.448376 -1.51087 0
M  V30 6105 C 590.672 1.56882 -1.74428 0
M  V30 6106 C 591.688 1.62268 -0.62809 0
M  V30 6107 O 592.864 1.79716 -0.909075 0
M  V30 6108 C 589.929 2.92947 -1.85426 0
M  V30 6109 C 588.99 2.97766 -3.09247 0
M  V30 6110 C 588.223 4.27341 -3.19711 0
M  V30 6111 O 588.446 5.19112 -2.36387 0
M  V30 6112 O 587.38 4.38219 -4.12611 0
M  V30 6113 H 591.206 1.40104 -2.69452 0
M  V30 6114 H 588.791 0.630247 -1.35456 0
M  V30 6115 H 590.673 3.73719 -1.94709 0
M  V30 6116 H 589.348 3.09876 -0.935887 0
M  V30 6117 H 588.255 2.15989 -3.0545 0
M  V30 6118 H 589.588 2.8578 -4.00738 0
M  V30 6119 N 591.24 1.41047 0.703093 0
M  V30 6120 C 592.203 1.42036 1.79884 0
M  V30 6121 C 593.203 0.312153 1.57741 0
M  V30 6122 O 594.393 0.571672 1.64553 0
M  V30 6123 C 591.525 1.22437 3.18154 0
M  V30 6124 H 592.718 2.39572 1.80403 0
M  V30 6125 H 590.271 1.27079 0.909977 0
M  V30 6126 H 591.006 0.257112 3.23279 0
M  V30 6127 H 590.791 2.02723 3.35627 0
M  V30 6128 H 592.281 1.25946 3.98155 0
M  V30 6129 N 592.718 -0.936591 1.26751 0
M  V30 6130 C 593.943 -1.72288 1.15462 0
M  V30 6131 C 594.368 -1.85915 -0.285887 0
M  V30 6132 O 593.726 -1.35272 -1.20711 0
M  V30 6133 C 593.774 -3.10503 1.83359 0
M  V30 6134 O 592.878 -3.96745 1.1255 0
M  V30 6135 H 592.219 -0.52843 0.402067 0
M  V30 6136 H 594.749 -1.17271 1.67656 0
M  V30 6137 H 594.759 -3.60867 1.90365 0
M  V30 6138 H 593.434 -2.99901 2.88153 0
M  V30 6139 H 592.011 -3.55191 1.13551 0
M  V30 6140 N 594.196 -1.08629 -1.14182 0
M  V30 6141 C 595.159 -0.722027 -2.1753 0
M  V30 6142 C 596.159 0.244305 -1.58933 0
M  V30 6143 O 597.349 0.0235545 -1.74184 0
M  V30 6144 C 594.481 -0.0663966 -3.40835 0
M  V30 6145 H 595.674 -1.63719 -2.51269 0
M  V30 6146 H 593.227 -0.884442 -1.28869 0
M  V30 6147 H 593.962 0.860389 -3.12678 0
M  V30 6148 H 593.747 -0.761598 -3.84632 0
M  V30 6149 H 595.237 0.173346 -4.1724 0
M  V30 6150 N 595.674 1.31259 -0.872281 0
M  V30 6151 C 596.621 2.28459 -0.327857 0
M  V30 6152 C 597.591 1.55831 0.574957 0
M  V30 6153 O 598.776 1.83965 0.506101 0
M  V30 6154 C 595.916 3.41985 0.462644 0
M  V30 6155 C 595.029 4.29458 -0.467949 0
M  V30 6156 C 594.164 5.30131 0.336903 0
M  V30 6157 C 593.203 6.0925 -0.58997 0
M  V30 6158 N 592.34 7.01872 0.178775 0
M  V30 6159 H 597.18 2.74414 -1.16193 0
M  V30 6160 H 594.717 1.34994 -0.584376 0
M  V30 6161 H 596.675 4.06547 0.936759 0
M  V30 6162 H 595.305 2.97134 1.2614 0
M  V30 6163 H 594.357 3.65318 -1.06052 0
M  V30 6164 H 595.669 4.84677 -1.17856 0
M  V30 6165 H 594.823 6.0038 0.873427 0
M  V30 6166 H 593.562 4.75573 1.08079 0
M  V30 6167 H 592.567 5.37889 -1.13823 0
M  V30 6168 H 593.792 6.65894 -1.33275 0
M  V30 6169 H 591.738 6.49721 0.905435 0
M  V30 6170 H 591.655 7.54522 -0.472452 0
M  V30 6171 H 592.923 7.76382 0.696454 0
M  V30 6172 N 597.152 0.631951 1.44375 0
M  V30 6173 C 598.082 -0.0593243 2.33425 0
M  V30 6174 C 599.063 -0.833964 1.48253 0
M  V30 6175 O 600.248 -0.799682 1.76971 0
M  V30 6176 C 597.378 -1.04096 3.31333 0
M  V30 6177 C 596.332 -0.377899 4.26328 0
M  V30 6178 C 595.658 -1.4695 5.14111 0
M  V30 6179 C 596.958 0.716371 5.17364 0
M  V30 6180 H 598.652 0.684287 2.91475 0
M  V30 6181 H 596.198 0.330518 1.40156 0
M  V30 6182 H 598.151 -1.53331 3.92514 0
M  V30 6183 H 596.875 -1.81547 2.71493 0
M  V30 6184 H 595.534 0.0938054 3.6648 0
M  V30 6185 H 595.182 -2.2349 4.50623 0
M  V30 6186 H 594.882 -1.03121 5.78481 0
M  V30 6187 H 596.406 -1.96363 5.78164 0
M  V30 6188 H 597.82 0.307089 5.72477 0
M  V30 6189 H 596.217 1.07784 5.90341 0
M  V30 6190 H 597.287 1.58316 4.58327 0
M  V30 6191 N 598.631 -1.53133 0.372548 0
M  V30 6192 C 599.859 -2.05774 -0.215515 0
M  V30 6193 C 600.274 -1.24555 -1.41886 0
M  V30 6194 O 599.631 -0.287951 -1.80214 0
M  V30 6195 C 599.682 -3.5645 -0.602161 0
M  V30 6196 O 599.403 -4.34591 0.553359 0
M  V30 6197 C 600.904 -4.25374 -1.24787 0
M  V30 6198 H 598.124 -0.670009 -0.0364529 0
M  V30 6199 H 600.668 -1.97434 0.532934 0
M  V30 6200 H 598.823 -3.64918 -1.30052 0
M  V30 6201 H 599.237 -5.23954 0.239336 0
M  V30 6202 H 600.711 -5.32097 -1.46891 0
M  V30 6203 H 601.188 -3.79531 -2.21026 0
M  V30 6204 H 601.794 -4.21177 -0.590752 0
M  V30 6205 N 600.109 -0.101901 -1.5727 0
M  V30 6206 C 601.337 0.568392 -1.98939 0
M  V30 6207 C 601.752 1.61301 -0.981194 0
M  V30 6208 O 601.109 1.82478 0.0282869 0
M  V30 6209 C 601.16 1.20997 -3.40649 0
M  V30 6210 O 600.881 0.207129 -4.3761 0
M  V30 6211 C 602.382 1.96523 -3.97358 0
M  V30 6212 H 599.602 0.15186 -0.65359 0
M  V30 6213 H 602.146 -0.183198 -2.03678 0
M  V30 6214 H 600.301 1.91245 -3.36904 0
M  V30 6215 H 600.715 0.671071 -5.20189 0
M  V30 6216 H 602.189 2.36764 -4.98645 0
M  V30 6217 H 602.666 2.83376 -3.35552 0
M  V30 6218 H 603.272 1.31076 -4.04598 0
M  V30 6219 N 601.587 1.56661 0.17182 0
M  V30 6220 C 602.517 1.99401 1.21498 0
M  V30 6221 C 603.498 0.869516 1.46197 0
M  V30 6222 O 604.683 1.13556 1.57539 0
M  V30 6223 C 601.813 2.35346 2.55401 0
M  V30 6224 C 600.767 3.5075 2.45272 0
M  V30 6225 C 600.093 3.72437 3.8366 0
M  V30 6226 C 601.393 4.84216 1.95787 0
M  V30 6227 H 603.087 2.86792 0.859699 0
M  V30 6228 H 600.633 1.37977 0.412103 0
M  V30 6229 H 602.586 2.63843 3.2858 0
M  V30 6230 H 601.31 1.44864 2.92715 0
M  V30 6231 H 599.969 3.2238 1.74547 0
M  V30 6232 H 599.617 2.79246 4.18367 0
M  V30 6233 H 599.317 4.50087 3.77751 0
M  V30 6234 H 600.841 4.03334 4.58426 0
M  V30 6235 H 602.255 5.11592 2.5874 0
M  V30 6236 H 600.652 5.65498 2.00827 0
M  V30 6237 H 601.722 4.76243 0.912159 0
M  V30 6238 N 603.065 -0.440357 1.51323 0
M  V30 6239 C 604.311 -1.19181 1.64085 0
M  V30 6240 C 604.644 -1.90936 0.354575 0
M  V30 6241 O 603.919 -1.8347 -0.645675 0
M  V30 6242 C 604.202 -2.2112 2.84215 0
M  V30 6243 C 604.055 -1.53468 4.22809 0
M  V30 6244 C 605.374 -3.22133 2.99864 0
M  V30 6245 H 602.493 -0.431924 0.597169 0
M  V30 6246 H 605.135 -0.481443 1.83799 0
M  V30 6247 H 603.285 -2.81703 2.67537 0
M  V30 6248 H 604.957 -0.962455 4.51148 0
M  V30 6249 H 603.2 -0.837086 4.25647 0
M  V30 6250 H 603.871 -2.27694 5.02852 0
M  V30 6251 H 606.347 -2.71601 3.15233 0
M  V30 6252 H 605.223 -3.90756 3.85488 0
M  V30 6253 H 605.484 -3.88061 2.11804 0
M  V30 6254 N 604.543 -1.41418 -0.695603 0
M  V30 6255 C 605.82 -1.31264 -1.45014 0
M  V30 6256 C 606.2 0.0597994 -2.11015 0
M  V30 6257 O 605.548 1.07403 -2.01685 0
M  V30 6258 C 605.758 -2.466 -2.4696 0
M  V30 6259 C 607.106 -2.87763 -3.12214 0
M  V30 6260 O 608.13 -2.46339 -2.57285 0
M  V30 6261 O 606.989 -3.59395 -4.11701 0
M  V30 6262 H 604.083 -0.516576 -0.645816 0
M  V30 6263 H 606.629 -1.53382 -0.726084 0
M  V30 6264 H 605.401 -3.38183 -1.96845 0
M  V30 6265 H 605.024 -2.26358 -3.26876 0
M  V30 6266 N 606.021 0.929856 -1.27246 0
M  V30 6267 C 606.984 2.01172 -1.09829 0
M  V30 6268 C 607.984 1.60743 -0.0429687 0
M  V30 6269 O 609.174 1.71813 -0.287373 0
M  V30 6270 C 606.306 3.34191 -0.673003 0
M  V30 6271 H 607.499 2.18054 -2.05895 0
M  V30 6272 H 605.052 1.11036 -1.10003 0
M  V30 6273 H 605.787 3.23009 0.289134 0
M  V30 6274 H 605.572 3.64892 -1.43515 0
M  V30 6275 H 607.062 4.13646 -0.573323 0
M  V30 6276 N 607.499 1.09233 1.13605 0
M  V30 6277 C 608.776 0.739633 1.81077 0
M  V30 6278 C 609.156 -0.775595 1.96336 0
M  V30 6279 O 608.504 -1.69726 1.52988 0
M  V30 6280 C 608.714 1.47636 3.16235 0
M  V30 6281 C 610.062 1.64087 3.91613 0
M  V30 6282 O 611.086 1.43871 3.25852 0
M  V30 6283 O 609.945 1.97511 5.0956 0
M  V30 6284 H 607.039 0.265464 0.783236 0
M  V30 6285 H 609.585 1.19441 1.20549 0
M  V30 6286 H 608.357 2.50818 3.00344 0
M  V30 6287 H 607.98 1.01362 3.84462 0
M  V30 6288 N 608.977 -1.30795 0.87923 0
M  V30 6289 C 609.94 -2.26563 0.346676 0
M  V30 6290 C 610.94 -1.52578 -0.507597 0
M  V30 6291 O 612.13 -1.71318 -0.315575 0
M  V30 6292 C 609.262 -3.37115 -0.506611 0
M  V30 6293 H 610.455 -2.75183 1.19223 0
M  V30 6294 H 608.008 -1.41886 0.655598 0
M  V30 6295 H 608.743 -2.93802 -1.37299 0
M  V30 6296 H 608.528 -3.91959 0.105218 0
M  V30 6297 H 610.018 -4.08412 -0.871192 0
M  V30 6298 N 610.455 -0.639598 -1.44038 0
M  V30 6299 C 611.365 0.0612377 -2.3452 0
M  V30 6300 C 612.381 0.826717 -1.53106 0
M  V30 6301 O 613.557 0.777059 -1.85806 0
M  V30 6302 C 610.622 1.02492 -3.31204 0
M  V30 6303 C 609.683 0.25788 -4.28525 0
M  V30 6304 C 608.916 1.17566 -5.2059 0
M  V30 6305 O 609.139 2.41461 -5.16771 0
M  V30 6306 O 608.073 0.655407 -5.98321 0
M  V30 6307 H 611.899 -0.68318 -2.95916 0
M  V30 6308 H 609.484 -0.399784 -1.43952 0
M  V30 6309 H 611.366 1.57911 -3.90694 0
M  V30 6310 H 610.041 1.7498 -2.7233 0
M  V30 6311 H 608.948 -0.339566 -3.72556 0
M  V30 6312 H 610.281 -0.427154 -4.90343 0
M  V30 6313 N 611.933 1.52934 -0.380664 0
M  V30 6314 C 612.896 2.24809 0.446473 0
M  V30 6315 C 613.896 1.26133 0.997347 0
M  V30 6316 O 615.086 1.50297 0.880714 0
M  V30 6317 C 612.218 2.99649 1.62553 0
M  V30 6318 H 613.411 2.99343 -0.182677 0
M  V30 6319 H 610.964 1.55736 -0.132618 0
M  V30 6320 H 611.699 2.29395 2.29235 0
M  V30 6321 H 611.484 3.72066 1.23732 0
M  V30 6322 H 612.974 3.54246 2.21133 0
M  V30 6323 N 613.412 0.11024 1.57214 0
M  V30 6324 C 614.659 -0.54987 1.94891 0
M  V30 6325 C 614.987 -1.67243 0.992984 0
M  V30 6326 O 614.242 -1.95694 0.0152703 0
M  V30 6327 C 614.541 -1.13102 3.39032 0
M  V30 6328 C 614.207 -0.130713 4.5071 0
M  V30 6329 C 612.869 0.14437 4.80983 0
M  V30 6330 C 615.221 0.551472 5.18274 0
M  V30 6331 C 612.549 1.10807 5.76141 0
M  V30 6332 C 614.901 1.50375 6.14467 0
M  V30 6333 C 613.565 1.78691 6.43138 0
M  V30 6334 H 612.835 -0.201212 0.713158 0
M  V30 6335 H 615.482 0.189288 1.90562 0
M  V30 6336 H 613.787 -1.94675 3.40013 0
M  V30 6337 H 615.484 -1.64973 3.65493 0
M  V30 6338 H 612.074 -0.355301 4.27125 0
M  V30 6339 H 616.258 0.35211 4.95049 0
M  V30 6340 H 611.514 1.3343 5.96663 0
M  V30 6341 H 615.688 2.03808 6.65909 0
M  V30 6342 H 613.315 2.53522 7.1668 0
M  V30 6343 N 614.89 -1.56749 -0.16351 0
M  V30 6344 C 616.118 -1.86577 -0.894233 0
M  V30 6345 C 616.533 -0.696543 -1.75481 0
M  V30 6346 O 615.89 0.334161 -1.79415 0
M  V30 6347 C 615.941 -3.15508 -1.76456 0
M  V30 6348 O 615.662 -4.27926 -0.938685 0
M  V30 6349 C 617.163 -3.58737 -2.60428 0
M  V30 6350 H 614.383 -0.618829 -0.259405 0
M  V30 6351 H 616.927 -2.03863 -0.161259 0
M  V30 6352 H 615.082 -3.00025 -2.45079 0
M  V30 6353 H 615.496 -5.01546 -1.53465 0
M  V30 6354 H 616.97 -4.51832 -3.17099 0
M  V30 6355 H 617.447 -2.83229 -3.35675 0
M  V30 6356 H 618.053 -3.76858 -1.97125 0
M  V30 6357 N 616.368 0.432326 -1.51554 0
M  V30 6358 C 617.331 1.50765 -1.72634 0
M  V30 6359 C 618.331 1.49334 -0.596314 0
M  V30 6360 O 619.521 1.51268 -0.863925 0
M  V30 6361 C 616.653 2.90284 -1.7874 0
M  V30 6362 H 617.846 1.33377 -2.68609 0
M  V30 6363 H 615.399 0.661329 -1.4162 0
M  V30 6364 H 616.134 3.13071 -0.845977 0
M  V30 6365 H 615.919 2.92727 -2.6087 0
M  V30 6366 H 617.409 3.68282 -1.96871 0
M  V30 6367 N 617.846 1.41785 0.688094 0
M  V30 6368 C 619.076 1.44705 1.47459 0
M  V30 6369 C 619.484 0.052916 1.89126 0
M  V30 6370 O 618.827 -0.939781 1.57841 0
M  V30 6371 C 618.889 2.29935 2.76352 0
M  V30 6372 C 618.553 3.77996 2.56843 0
M  V30 6373 C 619.55 4.69976 2.22304 0
M  V30 6374 C 617.235 4.2212 2.7225 0
M  V30 6375 C 619.229 6.04068 2.03421 0
M  V30 6376 C 616.916 5.56275 2.52985 0
M  V30 6377 C 617.914 6.47065 2.18621 0
M  V30 6378 O 617.602 7.78744 1.9953 0
M  V30 6379 H 617.334 0.494703 0.460701 0
M  V30 6380 H 619.888 1.86802 0.854057 0
M  V30 6381 H 618.118 1.82664 3.40839 0
M  V30 6382 H 619.807 2.24467 3.38186 0
M  V30 6383 H 620.573 4.37175 2.10008 0
M  V30 6384 H 616.452 3.51752 2.97979 0
M  V30 6385 H 619.996 6.74897 1.76523 0
M  V30 6386 H 615.893 5.88653 2.64873 0
M  V30 6387 H 616.661 7.89966 2.14234 0
M  V30 6388 N 619.324 -0.923095 1.27737 0
M  V30 6389 C 620.254 -2.04124 1.13383 0
M  V30 6390 C 621.235 -1.70066 0.0340658 0
M  V30 6391 O 622.42 -1.93068 0.209383 0
M  V30 6392 C 619.55 -3.3831 0.785097 0
M  V30 6393 C 618.504 -3.86496 1.8386 0
M  V30 6394 C 617.83 -5.1754 1.34373 0
M  V30 6395 C 619.13 -4.09381 3.24353 0
M  V30 6396 H 620.824 -2.1639 2.06919 0
M  V30 6397 H 618.37 -1.03976 0.996243 0
M  V30 6398 H 620.323 -4.16016 0.671485 0
M  V30 6399 H 619.047 -3.2607 -0.185969 0
M  V30 6400 H 617.706 -3.10987 1.9412 0
M  V30 6401 H 617.354 -5.01696 0.361989 0
M  V30 6402 H 617.054 -5.50751 2.04811 0
M  V30 6403 H 618.578 -5.97811 1.24315 0
M  V30 6404 H 619.992 -4.77641 3.17067 0
M  V30 6405 H 618.389 -4.53906 3.92542 0
M  V30 6406 H 619.459 -3.14515 3.69064 0
M  V30 6407 N 620.802 -1.09834 -1.13024 0
M  V30 6408 C 621.712 -0.753731 -2.22162 0
M  V30 6409 C 622.728 0.246105 -1.72251 0
M  V30 6410 O 623.904 0.0864051 -2.01215 0
M  V30 6411 C 620.969 -0.183958 -3.46212 0
M  V30 6412 C 620.03 -1.24028 -4.10993 0
M  V30 6413 C 619.263 -0.697597 -5.29121 0
M  V30 6414 O 619.486 0.478092 -5.68393 0
M  V30 6415 O 618.42 -1.4546 -5.84059 0
M  V30 6416 H 622.246 -1.66456 -2.5402 0
M  V30 6417 H 619.831 -0.873026 -1.21238 0
M  V30 6418 H 621.713 0.130257 -4.21199 0
M  V30 6419 H 620.388 0.699823 -3.16045 0
M  V30 6420 H 619.295 -1.60725 -3.37814 0
M  V30 6421 H 620.628 -2.09685 -4.45301 0
M  V30 6422 N 622.28 1.30327 -0.886154 0
M  V30 6423 C 623.243 2.26376 -0.358687 0
M  V30 6424 C 624.243 1.52845 0.499498 0
M  V30 6425 O 625.433 1.71483 0.306485 0
M  V30 6426 C 622.565 3.37379 0.488726 0
M  V30 6427 H 623.758 2.74547 -1.20681 0
M  V30 6428 H 621.311 1.41536 -0.663113 0
M  V30 6429 H 622.046 2.94526 1.35739 0
M  V30 6430 H 621.831 3.91897 -0.126003 0
M  V30 6431 H 623.321 4.08868 0.84952 0
M  V30 6432 N 623.758 0.647228 1.43697 0
M  V30 6433 C 624.691 -0.097646 2.27991 0
M  V30 6434 C 625.669 -0.83571 1.3948 0
M  V30 6435 O 626.853 -0.836509 1.68922 0
M  V30 6436 C 623.98 -1.14484 3.18765 0
M  V30 6437 C 623.026 -0.505503 4.23494 0
M  V30 6438 S 623.859 0.716471 5.30685 0
M  V30 6439 C 625.015 -0.330339 6.25028 0
M  V30 6440 H 625.248 0.617417 2.90818 0
M  V30 6441 H 622.781 0.435881 1.4812 0
M  V30 6442 H 624.739 -1.74403 3.7161 0
M  V30 6443 H 623.4 -1.83219 2.55127 0
M  V30 6444 H 622.593 -1.29473 4.87086 0
M  V30 6445 H 622.195 0.0194377 3.73995 0
M  V30 6446 H 624.487 -1.19828 6.66819 0
M  V30 6447 H 625.43 0.270409 7.07583 0
M  V30 6448 H 625.838 -0.663459 5.60588 0
M  V30 6449 N 625.236 -1.5273 0.388769 0
M  V30 6450 C 626.652 -1.59553 0.0387049 0
M  V30 6451 C 626.852 -1.40278 -1.44652 0
M  V30 6452 O 625.908 -1.21951 -2.21098 0
M  V30 6453 C 627.221 -2.9625 0.515409 0
M  V30 6454 C 628.769 -3.09426 0.471621 0
M  V30 6455 C 629.244 -4.48572 0.924505 0
M  V30 6456 N 630.735 -4.54754 0.880496 0
M  V30 6457 C 631.47 -5.60653 1.20234 0
M  V30 6458 N 630.966 -6.74198 1.59463 0
M  V30 6459 N 632.759 -5.50755 1.12363 0
M  V30 6460 H 624.91 -1.63508 1.35569 0
M  V30 6461 H 627.173 -0.768097 0.555636 0
M  V30 6462 H 626.879 -3.15569 1.5527 0
M  V30 6463 H 626.753 -3.77102 -0.085792 0
M  V30 6464 H 629.14 -2.89804 -0.556588 0
M  V30 6465 H 629.221 -2.30528 1.10862 0
M  V30 6466 H 628.865 -4.68936 1.95094 0
M  V30 6467 H 628.795 -5.25935 0.264524 0
M  V30 6468 H 631.286 -3.73237 0.591815 0
M  V30 6469 H 631.599 -7.5097 1.82385 0
M  V30 6470 H 629.944 -6.75531 1.63349 0
M  V30 6471 H 633.135 -4.6093 0.816169 0
M  V30 6472 H 633.308 -6.33184 1.37777 0
M  V30 6473 N 626.714 -0.118576 -1.57153 0
M  V30 6474 C 627.644 0.828436 -2.1831 0
M  V30 6475 C 628.625 1.27758 -1.12303 0
M  V30 6476 O 629.81 1.34026 -1.40537 0
M  V30 6477 C 626.94 2.07876 -2.78217 0
M  V30 6478 C 625.894 1.76742 -3.89803 0
M  V30 6479 C 625.22 3.08801 -4.36516 0
M  V30 6480 C 626.52 1.03606 -5.11921 0
M  V30 6481 H 628.214 0.318824 -2.97698 0
M  V30 6482 H 625.76 0.151911 -1.43196 0
M  V30 6483 H 627.713 2.74584 -3.19659 0
M  V30 6484 H 626.437 2.61161 -1.96118 0
M  V30 6485 H 625.096 1.12424 -3.48936 0
M  V30 6486 H 624.744 3.6002 -3.51276 0
M  V30 6487 H 624.444 2.88743 -5.11763 0
M  V30 6488 H 625.968 3.76627 -4.80608 0
M  V30 6489 H 627.382 1.60467 -5.50385 0
M  V30 6490 H 625.779 0.936454 -5.92748 0
M  V30 6491 H 626.849 0.0227421 -4.84895 0
M  V30 6492 N 628.193 1.56834 0.155195 0
M  V30 6493 C 629.604 1.72421 0.716082 0
M  V30 6494 C 629.955 0.731685 1.82046 0
M  V30 6495 O 629.08 -0.103481 2.16152 0
M  V30 6496 C 629.675 3.12629 1.30571 0
M  V30 6497 C 628.234 3.29846 1.81325 0
M  V30 6498 C 627.381 2.68359 0.698494 0
M  V30 6499 H 630.332 1.58544 -0.0703861 0
M  V30 6500 H 630.353 3.12174 2.1755 0
M  V30 6501 H 629.865 3.84844 0.501701 0
M  V30 6502 H 627.966 2.62614 2.64319 0
M  V30 6503 H 628.079 4.37727 1.9476 0
M  V30 6504 H 626.443 2.28604 1.12305 0
M  V30 6505 H 627.226 3.43171 -0.0939366 0
M  V30 6506 N 629.671 -0.424282 1.51781 0
M  V30 6507 C 630.618 -1.51591 1.74037 0
M  V30 6508 C 631.588 -1.55556 0.582358 0
M  V30 6509 O 632.773 -1.72364 0.818245 0
M  V30 6510 C 629.913 -2.89188 1.8832 0
M  V30 6511 C 629.026 -2.9465 3.1592 0
M  V30 6512 C 628.161 -4.23452 3.20721 0
M  V30 6513 C 627.2 -4.22831 4.42584 0
M  V30 6514 N 626.337 -5.43178 4.44862 0
M  V30 6515 H 631.177 -1.31917 2.67212 0
M  V30 6516 H 628.714 -0.640599 1.32419 0
M  V30 6517 H 630.672 -3.69044 1.94583 0
M  V30 6518 H 629.302 -3.07392 0.985402 0
M  V30 6519 H 628.354 -2.07378 3.18902 0
M  V30 6520 H 629.666 -2.90055 4.05795 0
M  V30 6521 H 628.82 -5.1169 3.25973 0
M  V30 6522 H 627.559 -4.30722 2.28757 0
M  V30 6523 H 626.564 -3.32984 4.37495 0
M  V30 6524 H 627.789 -4.17213 5.35826 0
M  V30 6525 H 625.735 -5.51145 3.55775 0
M  V30 6526 H 625.652 -5.40515 5.28563 0
M  V30 6527 H 626.92 -6.33412 4.54324 0
M  V30 6528 N 631.149 -1.42148 -0.680565 0
M  V30 6529 C 632.097 -1.45401 -1.81552 0
M  V30 6530 C 633.091 -0.33036 -1.66147 0
M  V30 6531 O 634.297 -0.503103 -1.72826 0
M  V30 6532 H 630.672 -0.455265 -0.59853 0
M  V30 6533 H 632.643 -2.41024 -1.75926 0
M  V30 6534 C 631.392 -1.36769 -3.19671 0
M  V30 6535 H 630.715 -2.22525 -3.32149 0
M  V30 6536 H 632.155 -1.43106 -3.9912 0
M  V30 6537 C 630.614 -0.0817752 -3.36801 0
M  V30 6538 O 631.144 0.867707 -3.92216 0
M  V30 6539 N 629.35 -0.000799811 -2.906 0
M  V30 6540 H 628.897 -0.774231 -2.4569 0
M  V30 6541 H 628.855 0.858961 -3.02439 0
M  V30 6542 N 632.627 0.916307 -1.28225 0
M  V30 6543 C 633.855 1.69901 -1.18073 0
M  V30 6544 C 634.27 1.86988 0.260968 0
M  V30 6545 O 633.627 1.39505 1.17663 0
M  V30 6546 C 633.678 3.09254 -1.87201 0
M  V30 6547 O 633.399 2.92959 -3.2574 0
M  V30 6548 C 634.9 4.0362 -1.83319 0
M  V30 6549 H 632.12 0.531181 -0.409985 0
M  V30 6550 H 634.664 1.14703 -1.69303 0
M  V30 6551 H 632.819 3.61277 -1.39848 0
M  V30 6552 H 633.233 3.81139 -3.60324 0
M  V30 6553 H 634.707 4.98873 -2.36282 0
M  V30 6554 H 635.184 4.3176 -0.805007 0
M  V30 6555 H 635.79 3.57524 -2.3034 0
M  V30 6556 N 634.105 1.10431 1.1244 0
M  V30 6557 C 635.516 0.864439 1.65482 0
M  V30 6558 C 635.867 -0.60527 1.8663 0
M  V30 6559 O 634.992 -1.46492 1.59276 0
M  V30 6560 C 635.587 1.56267 3.0061 0
M  V30 6561 C 634.146 1.3695 3.50602 0
M  V30 6562 C 633.293 1.61209 2.25626 0
M  V30 6563 H 636.244 1.26203 0.962209 0
M  V30 6564 H 636.265 1.00166 3.67079 0
M  V30 6565 H 635.777 2.63231 2.85186 0
M  V30 6566 H 633.878 0.321481 3.71211 0
M  V30 6567 H 633.991 2.11143 4.30064 0
M  V30 6568 H 632.355 1.03482 2.32731 0
M  V30 6569 H 633.138 2.69425 2.12756 0
M  V30 6570 N 635.583 -1.29855 0.893053 0
M  V30 6571 C 636.493 -2.31661 0.370157 0
M  V30 6572 C 637.509 -1.65677 -0.531723 0
M  V30 6573 O 638.685 -1.9691 -0.422902 0
M  V30 6574 C 635.75 -3.44388 -0.399741 0
M  V30 6575 C 634.811 -4.2598 0.532861 0
M  V30 6576 C 634.044 -5.33324 -0.200388 0
M  V30 6577 O 634.267 -5.52305 -1.42531 0
M  V30 6578 O 633.201 -6.00188 0.453668 0
M  V30 6579 H 637.027 -2.78354 1.2146 0
M  V30 6580 H 634.612 -1.34171 0.657153 0
M  V30 6581 H 636.494 -4.13037 -0.835358 0
M  V30 6582 H 635.169 -2.99815 -1.22035 0
M  V30 6583 H 634.076 -3.59998 1.01746 0
M  V30 6584 H 635.409 -4.74178 1.3197 0
M  V30 6585 N 637.061 -0.65484 -1.43351 0
M  V30 6586 C 637.971 0.0363603 -2.34572 0
M  V30 6587 C 638.987 0.810432 -1.53974 0
M  V30 6588 O 640.163 0.757308 -1.86619 0
M  V30 6589 C 637.228 0.989733 -3.32273 0
M  V30 6590 C 636.289 0.212414 -4.28774 0
M  V30 6591 C 635.522 1.12038 -5.21808 0
M  V30 6592 O 635.745 2.35967 -5.19303 0
M  V30 6593 O 634.679 0.59191 -5.98982 0
M  V30 6594 H 638.505 -0.714527 -2.95175 0
M  V30 6595 H 636.09 -0.415029 -1.4352 0
M  V30 6596 H 637.972 1.53759 -3.92347 0
M  V30 6597 H 636.647 1.72082 -2.74171 0
M  V30 6598 H 635.554 -0.379062 -3.72175 0
M  V30 6599 H 636.887 -0.479138 -4.89862 0
M  V30 6600 N 638.539 1.52521 -0.396863 0
M  V30 6601 C 639.486 2.26671 0.434624 0
M  V30 6602 C 640.456 1.28584 1.05144 0
M  V30 6603 O 641.641 1.57426 1.07804 0
M  V30 6604 C 638.781 3.08234 1.55196 0
M  V30 6605 C 637.894 4.21261 0.957262 0
M  V30 6606 C 637.029 4.90205 2.04627 0
M  V30 6607 C 636.068 5.95213 1.42787 0
M  V30 6608 N 635.205 6.57723 2.45651 0
M  V30 6609 H 640.045 2.973 -0.204139 0
M  V30 6610 H 637.582 1.46669 -0.112505 0
M  V30 6611 H 639.54 3.53819 2.2106 0
M  V30 6612 H 638.17 2.398 2.16092 0
M  V30 6613 H 637.222 3.79935 0.188005 0
M  V30 6614 H 638.534 4.96624 0.465416 0
M  V30 6615 H 637.688 5.39133 2.78246 0
M  V30 6616 H 636.427 4.14383 2.57174 0
M  V30 6617 H 635.432 5.45616 0.676968 0
M  V30 6618 H 636.657 6.72972 0.910255 0
M  V30 6619 H 634.603 5.84737 2.97353 0
M  V30 6620 H 634.52 7.28723 2.01243 0
M  V30 6621 H 635.788 7.11293 3.18876 0
M  V30 6622 N 640.017 0.126909 1.57088 0
M  V30 6623 C 641.294 -0.573152 1.87014 0
M  V30 6624 C 641.674 -1.84297 1.02945 0
M  V30 6625 O 641.022 -2.28232 0.110573 0
M  V30 6626 C 641.232 -0.857984 3.38289 0
M  V30 6627 C 642.58 -1.20759 4.07066 0
M  V30 6628 O 643.604 -0.947992 3.43353 0
M  V30 6629 O 642.463 -1.69516 5.19545 0
M  V30 6630 H 639.557 -0.290082 0.774456 0
M  V30 6631 H 642.103 0.162008 1.68925 0
M  V30 6632 H 640.875 0.0415286 3.91278 0
M  V30 6633 H 640.498 -1.64803 3.61837 0
M  V30 6634 N 641.495 -1.56914 -0.146875 0
M  V30 6635 C 642.911 -1.51582 -0.499518 0
M  V30 6636 C 643.111 -0.83535 -1.83369 0
M  V30 6637 O 642.167 -0.405932 -2.49216 0
M  V30 6638 C 643.48 -2.96349 -0.509711 0
M  V30 6639 C 645.028 -3.07288 -0.595217 0
M  V30 6640 C 645.503 -4.53562 -0.636071 0
M  V30 6641 N 646.994 -4.57906 -0.69829 0
M  V30 6642 C 647.729 -5.68462 -0.750886 0
M  V30 6643 N 647.225 -6.88588 -0.76282 0
M  V30 6644 N 649.018 -5.56496 -0.791777 0
M  V30 6645 H 641.169 -1.99547 0.727656 0
M  V30 6646 H 643.432 -0.910113 0.265327 0
M  V30 6647 H 643.138 -3.4939 0.402409 0
M  V30 6648 H 643.012 -3.52307 -1.34758 0
M  V30 6649 H 645.399 -2.54266 -1.49776 0
M  V30 6650 H 645.48 -2.54373 0.2698 0
M  V30 6651 H 645.124 -5.07222 0.262313 0
M  V30 6652 H 645.054 -5.04259 -1.51758 0
M  V30 6653 H 647.545 -3.71429 -0.696362 0
M  V30 6654 H 647.858 -7.68598 -0.804804 0
M  V30 6655 H 646.203 -6.91148 -0.730694 0
M  V30 6656 H 649.394 -4.61562 -0.779624 0
M  V30 6657 H 649.567 -6.42671 -0.829301 0
M  V30 6658 N 642.974 0.416227 -1.52004 0
M  V30 6659 C 644.39 0.754319 -1.40649 0
M  V30 6660 C 644.59 1.95059 -0.505392 0
M  V30 6661 O 643.646 2.5248 0.0315057 0
M  V30 6662 C 644.959 1.0149 -2.83055 0
M  V30 6663 C 646.507 1.11805 -2.9235 0
M  V30 6664 C 646.982 1.41144 -4.35709 0
M  V30 6665 N 648.473 1.48024 -4.38911 0
M  V30 6666 C 649.208 1.72338 -5.46889 0
M  V30 6667 N 648.704 1.94303 -6.64995 0
M  V30 6668 N 650.497 1.74294 -5.34395 0
M  V30 6669 H 642.648 -0.371324 -2.09129 0
M  V30 6670 H 644.911 -0.103811 -0.942299 0
M  V30 6671 H 644.617 0.208345 -3.51082 0
M  V30 6672 H 644.491 1.93697 -3.23668 0
M  V30 6673 H 646.878 1.91521 -2.24508 0
M  V30 6674 H 646.959 0.17451 -2.55204 0
M  V30 6675 H 646.603 0.619484 -5.04108 0
M  V30 6676 H 646.533 2.36739 -4.70385 0
M  V30 6677 H 649.024 1.32868 -3.53772 0
M  V30 6678 H 649.337 2.12286 -7.43071 0
M  V30 6679 H 647.682 1.91582 -6.68073 0
M  V30 6680 H 650.873 1.56667 -4.41104 0
M  V30 6681 H 651.046 1.92904 -6.18621 0
M  V30 6682 N 644.452 1.42507 0.673017 0
M  V30 6683 C 645.68 1.46473 1.46128 0
M  V30 6684 C 646.095 0.0765912 1.88645 0
M  V30 6685 O 645.452 -0.909057 1.58248 0
M  V30 6686 C 645.503 2.39339 2.70923 0
M  V30 6687 O 645.224 3.72752 2.3019 0
M  V30 6688 C 646.725 2.52343 3.64469 0
M  V30 6689 H 643.945 0.49812 0.449575 0
M  V30 6690 H 646.489 1.87041 0.826802 0
M  V30 6691 H 644.644 2.02019 3.30556 0
M  V30 6692 H 645.058 4.22503 3.10791 0
M  V30 6693 H 646.532 3.2144 4.48754 0
M  V30 6694 H 647.009 1.56189 4.1049 0
M  V30 6695 H 647.615 2.90392 3.10729 0
M  V30 6696 N 645.93 -0.909495 1.28709 0
M  V30 6697 C 646.893 -1.99399 1.13016 0
M  V30 6698 C 647.893 -1.60654 0.068536 0
M  V30 6699 O 649.083 -1.71334 0.314671 0
M  V30 6700 C 646.215 -3.33078 0.726085 0
M  V30 6701 H 647.408 -2.14751 2.09338 0
M  V30 6702 H 644.961 -1.09272 1.11756 0
M  V30 6703 H 645.696 -3.23428 -0.23771 0
M  V30 6704 H 645.481 -3.62562 1.49302 0
M  V30 6705 H 646.971 -4.12681 0.639058 0
M  V30 6706 N 647.408 -1.11026 -1.11852 0
M  V30 6707 C 648.371 -0.768006 -2.1595 0
M  V30 6708 C 649.371 0.210538 -1.59416 0
M  V30 6709 O 650.561 -0.0133978 -1.74195 0
M  V30 6710 C 647.693 -0.138678 -3.40618 0
M  V30 6711 H 648.886 -1.69012 -2.4774 0
M  V30 6712 H 646.439 -0.911578 -1.26964 0
M  V30 6713 H 647.174 0.793872 -3.14433 0
M  V30 6714 H 646.959 -0.843012 -3.8293 0
M  V30 6715 H 648.449 0.0848039 -4.17514 0
M  V30 6716 N 648.886 1.2938 -0.899927 0
M  V30 6717 C 649.816 2.30144 -0.39446 0
M  V30 6718 C 650.797 1.61611 0.530639 0
M  V30 6719 O 651.982 1.89119 0.441319 0
M  V30 6720 C 649.112 3.45229 0.37868 0
M  V30 6721 C 648.066 4.25564 -0.456012 0
M  V30 6722 C 647.392 5.32848 0.444637 0
M  V30 6723 C 648.692 4.93651 -1.70605 0
M  V30 6724 H 650.386 2.72673 -1.23653 0
M  V30 6725 H 647.932 1.31086 -0.596034 0
M  V30 6726 H 649.885 4.14797 0.743037 0
M  V30 6727 H 648.609 3.01545 1.25453 0
M  V30 6728 H 647.268 3.57704 -0.802704 0
M  V30 6729 H 646.916 4.85408 1.31863 0
M  V30 6730 H 646.616 5.87497 -0.110154 0
M  V30 6731 H 648.14 6.05268 0.805182 0
M  V30 6732 H 649.554 5.55655 -1.41141 0
M  V30 6733 H 647.951 5.58233 -2.20217 0
M  V30 6734 H 649.021 4.18926 -2.4419 0
M  V30 6735 N 650.364 0.662433 1.43002 0
M  V30 6736 C 651.296 -0.062326 2.29115 0
M  V30 6737 C 652.309 -0.777926 1.43011 0
M  V30 6738 O 653.498 -0.634146 1.66856 0
M  V30 6739 C 650.598 -1.11163 3.2015 0
M  V30 6740 C 649.771 -0.472327 4.34842 0
M  V30 6741 C 648.83 -1.41974 5.06685 0
M  V30 6742 O 647.856 -0.924795 5.61637 0
M  V30 6743 N 649.058 -2.75345 5.11043 0
M  V30 6744 H 651.823 0.676838 2.91957 0
M  V30 6745 H 649.384 0.505907 1.53793 0
M  V30 6746 H 651.376 -1.74643 3.65078 0
M  V30 6747 H 649.946 -1.75266 2.58845 0
M  V30 6748 H 649.166 0.341751 3.92716 0
M  V30 6749 H 650.454 -0.0264381 5.08793 0
M  V30 6750 H 649.852 -3.18108 4.67786 0
M  V30 6751 H 648.409 -3.34105 5.59658 0
M  V30 6752 N 651.842 -1.52309 0.404946 0
M  V30 6753 C 652.752 -2.30634 -0.429555 0
M  V30 6754 C 653.768 -1.38187 -1.05737 0
M  V30 6755 O 654.944 -1.71261 -1.05979 0
M  V30 6756 C 652.009 -3.10947 -1.53339 0
M  V30 6757 C 651.07 -4.19126 -0.929065 0
M  V30 6758 C 650.303 -4.95601 -1.9803 0
M  V30 6759 O 650.526 -4.72331 -3.1978 0
M  V30 6760 O 649.46 -5.80551 -1.58886 0
M  V30 6761 H 653.286 -3.0298 0.208963 0
M  V30 6762 H 650.871 -1.4845 0.168255 0
M  V30 6763 H 652.753 -3.60974 -2.1743 0
M  V30 6764 H 651.428 -2.41399 -2.15658 0
M  V30 6765 H 650.335 -3.73257 -0.250982 0
M  V30 6766 H 651.668 -4.90955 -0.349855 0
M  V30 6767 N 653.32 -0.135238 -1.57019 0
M  V30 6768 C 654.568 0.51777 -1.95355 0
M  V30 6769 C 654.889 1.6617 -1.02042 0
M  V30 6770 O 654.159 1.95738 -0.0797343 0
M  V30 6771 H 652.739 0.194264 -0.721298 0
M  V30 6772 H 655.401 -0.207983 -1.93787 0
M  V30 6773 H 654.497 0.901675 -2.98791 0
M  V30 6774 N 654.798 1.5699 0.138552 0
M  V30 6775 C 655.728 2.01933 1.17241 0
M  V30 6776 C 656.709 0.90033 1.44319 0
M  V30 6777 O 657.894 1.16872 1.55095 0
M  V30 6778 C 655.024 2.40711 2.50351 0
M  V30 6779 C 653.978 3.55874 2.37776 0
M  V30 6780 C 653.304 3.80491 3.75674 0
M  V30 6781 C 654.604 4.8826 1.85472 0
M  V30 6782 H 656.298 2.88551 0.798672 0
M  V30 6783 H 653.844 1.3882 0.382743 0
M  V30 6784 H 655.797 2.70754 3.22909 0
M  V30 6785 H 654.521 1.5104 2.89576 0
M  V30 6786 H 653.18 3.2601 1.67669 0
M  V30 6787 H 652.828 2.88057 4.12349 0
M  V30 6788 H 652.528 4.57998 3.68119 0
M  V30 6789 H 654.052 4.12967 4.49767 0
M  V30 6790 H 655.466 5.16965 2.4783 0
M  V30 6791 H 653.863 5.69631 1.88787 0
M  V30 6792 H 654.933 4.78071 0.810935 0
M  V30 6793 N 656.276 -0.40816 1.52223 0
M  V30 6794 C 657.692 -0.74685 1.41047 0
M  V30 6795 C 657.892 -1.94788 0.51573 0
M  V30 6796 O 656.948 -2.52494 -0.0181156 0
M  V30 6797 C 658.261 -0.999878 2.83589 0
M  V30 6798 C 659.809 -1.10253 2.92939 0
M  V30 6799 C 660.284 -1.38832 4.36451 0
M  V30 6800 N 661.775 -1.45694 4.3969 0
M  V30 6801 C 662.51 -1.69435 5.47795 0
M  V30 6802 N 662.006 -1.90774 6.66016 0
M  V30 6803 N 663.799 -1.71458 5.35312 0
M  V30 6804 H 655.95 0.382409 2.08929 0
M  V30 6805 H 658.213 0.108807 0.941735 0
M  V30 6806 H 657.919 -0.189723 3.51188 0
M  V30 6807 H 657.793 -1.91978 3.24691 0
M  V30 6808 H 660.18 -1.90328 2.2552 0
M  V30 6809 H 660.261 -0.160973 2.55293 0
M  V30 6810 H 659.905 -0.592741 5.04429 0
M  V30 6811 H 659.835 -2.34241 4.71634 0
M  V30 6812 H 662.326 -1.3099 3.54472 0
M  V30 6813 H 662.639 -2.08342 7.44186 0
M  V30 6814 H 660.984 -1.88037 6.69079 0
M  V30 6815 H 664.175 -1.54326 4.41929 0
M  V30 6816 H 664.348 -1.89621 6.19635 0
M  V30 6817 N 657.755 -1.42862 -0.66545 0
M  V30 6818 C 659.171 -1.25993 -0.979687 0
M  V30 6819 C 659.371 -0.170831 -2.00775 0
M  V30 6820 O 658.427 0.454827 -2.4837 0
M  V30 6821 C 659.74 -2.62005 -1.47559 0
M  V30 6822 C 661.288 -2.69437 -1.59288 0
M  V30 6823 C 661.763 -4.05838 -2.12272 0
M  V30 6824 N 663.254 -4.0784 -2.19592 0
M  V30 6825 C 663.989 -5.10205 -2.61684 0
M  V30 6826 N 663.485 -6.22949 -3.03161 0
M  V30 6827 N 665.278 -4.9756 -2.61516 0
M  V30 6828 H 657.429 -2.12395 0.0150493 0
M  V30 6829 H 659.692 -0.946355 -0.0558187 0
M  V30 6830 H 659.398 -3.42605 -0.794654 0
M  V30 6831 H 659.272 -2.86566 -2.45275 0
M  V30 6832 H 661.659 -1.89178 -2.26486 0
M  V30 6833 H 661.74 -2.48655 -0.600374 0
M  V30 6834 H 661.384 -4.86559 -1.4568 0
M  V30 6835 H 661.314 -4.23977 -3.12331 0
M  V30 6836 H 663.805 -3.26452 -1.90361 0
M  V30 6837 H 664.118 -6.96899 -3.33993 0
M  V30 6838 H 662.463 -6.2644 -3.00995 0
M  V30 6839 H 665.654 -4.08551 -2.28481 0
M  V30 6840 H 665.827 -5.77468 -2.93999 0
M  V30 6841 N 659.233 0.902656 -1.29189 0
M  V30 6842 C 660.196 1.98797 -1.14071 0
M  V30 6843 C 661.196 1.60615 -0.0770549 0
M  V30 6844 O 662.386 1.71165 -0.323753 0
M  V30 6845 C 659.518 3.32688 -0.743739 0
M  V30 6846 H 660.711 2.13637 -2.10473 0
M  V30 6847 H 658.264 1.08678 -1.12334 0
M  V30 6848 H 658.999 3.23549 0.220554 0
M  V30 6849 H 658.784 3.61765 -1.51223 0
M  V30 6850 H 660.274 4.12337 -0.660935 0
M  V30 6851 N 660.711 1.11618 1.11262 0
M  V30 6852 C 661.957 0.867463 1.83311 0
M  V30 6853 C 662.29 -0.605366 1.84524 0
M  V30 6854 O 661.565 -1.44704 1.29965 0
M  V30 6855 C 661.848 1.43207 3.30399 0
M  V30 6856 C 661.701 2.97265 3.3757 0
M  V30 6857 C 663.02 1.08454 4.26528 0
M  V30 6858 H 660.139 0.316578 0.665543 0
M  V30 6859 H 662.781 1.38137 1.30454 0
M  V30 6860 H 660.931 0.994982 3.75543 0
M  V30 6861 H 662.603 3.49591 3.00971 0
M  V30 6862 H 660.846 3.33237 2.77733 0
M  V30 6863 H 661.517 3.31859 4.41105 0
M  V30 6864 H 663.993 1.4619 3.89574 0
M  V30 6865 H 662.869 1.50633 5.27826 0
M  V30 6866 H 663.13 -0.00444568 4.421 0
M  V30 6867 N 662.189 -1.289 0.906776 0
M  V30 6868 C 663.414 -1.99939 0.551303 0
M  V30 6869 C 663.839 -1.67366 -0.858496 0
M  V30 6870 O 663.197 -0.902176 -1.57259 0
M  V30 6871 C 663.245 -3.52523 0.758937 0
M  V30 6872 O 662.349 -4.11983 -0.185308 0
M  V30 6873 H 661.69 -0.628376 0.214568 0
M  V30 6874 H 664.22 -1.64225 1.2203 0
M  V30 6875 H 664.23 -4.02522 0.666329 0
M  V30 6876 H 662.905 -3.75566 1.78671 0
M  V30 6877 H 661.482 -3.72873 -0.0445577 0
M  V30 6878 N 663.667 -0.670007 -1.42649 0
M  V30 6879 C 664.913 -0.190568 -2.01903 0
M  V30 6880 C 665.246 1.19817 -1.52832 0
M  V30 6881 O 664.521 1.80342 -0.728485 0
M  V30 6882 C 664.804 -0.21991 -3.59428 0
M  V30 6883 C 664.657 -1.64376 -4.18689 0
M  V30 6884 C 665.976 0.434519 -4.3795 0
M  V30 6885 H 663.095 -0.0707219 -0.733599 0
M  V30 6886 H 665.737 -0.853883 -1.69732 0
M  V30 6887 H 663.887 0.344894 -3.86966 0
M  V30 6888 H 665.559 -2.26044 -4.02122 0
M  V30 6889 H 663.802 -2.18591 -3.747 0
M  V30 6890 H 664.473 -1.61601 -5.27815 0
M  V30 6891 H 666.949 -0.0462156 -4.16074 0
M  V30 6892 H 665.825 0.38333 -5.4756 0
M  V30 6893 H 666.086 1.51135 -4.15464 0
M  V30 6894 N 665.145 1.52092 -0.413018 0
M  V30 6895 C 666.556 1.86617 0.0556967 0
M  V30 6896 C 666.907 1.33156 1.44097 0
M  V30 6897 O 666.032 0.672417 2.05688 0
M  V30 6898 C 666.627 3.38628 0.107844 0
M  V30 6899 C 665.186 3.72778 0.520904 0
M  V30 6900 C 664.333 2.75649 -0.302109 0
M  V30 6901 H 667.284 1.45663 -0.629919 0
M  V30 6902 H 667.305 3.69152 0.922324 0
M  V30 6903 H 666.817 3.77508 -0.900506 0
M  V30 6904 H 664.918 3.39478 1.53575 0
M  V30 6905 H 665.031 4.7838 0.262591 0
M  V30 6906 H 663.395 2.53603 0.236115 0
M  V30 6907 H 664.178 3.17369 -1.30888 0
M  V30 6908 N 666.623 0.143563 1.56945 0
M  V30 6909 C 667.553 -0.7936 2.196 0
M  V30 6910 C 668.534 -1.25955 1.14321 0
M  V30 6911 O 669.719 -1.31773 1.42651 0
M  V30 6912 C 666.849 -2.03424 2.81489 0
M  V30 6913 C 665.803 -1.70519 3.92565 0
M  V30 6914 C 665.129 -3.01817 4.41373 0
M  V30 6915 C 666.429 -0.95449 5.13504 0
M  V30 6916 H 668.123 -0.271423 2.98167 0
M  V30 6917 H 665.669 -0.12911 1.4342 0
M  V30 6918 H 667.622 -2.69463 3.23987 0
M  V30 6919 H 666.346 -2.58008 2.00248 0
M  V30 6920 H 665.005 -1.06859 3.5068 0
M  V30 6921 H 664.653 -3.54386 3.56959 0
M  V30 6922 H 664.353 -2.80565 5.16292 0
M  V30 6923 H 665.877 -3.68934 4.86539 0
M  V30 6924 H 667.291 -1.5169 5.52868 0
M  V30 6925 H 665.688 -0.842035 5.94163 0
M  V30 6926 H 666.758 0.0544033 4.84869 0
M  V30 6927 N 668.101 -1.57061 -0.130224 0
M  V30 6928 C 669.329 -1.88432 -0.854456 0
M  V30 6929 C 669.744 -0.733608 -1.73964 0
M  V30 6930 O 669.101 0.296029 -1.80083 0
M  V30 6931 C 669.152 -3.1918 -1.69724 0
M  V30 6932 O 668.873 -4.2982 -0.847705 0
M  V30 6933 C 670.374 -3.6418 -2.5276 0
M  V30 6934 H 667.594 -0.624193 -0.246221 0
M  V30 6935 H 670.138 -2.04159 -0.11798 0
M  V30 6936 H 668.293 -3.05156 -2.3866 0
M  V30 6937 H 668.707 -5.04689 -1.42792 0
M  V30 6938 H 670.181 -4.58457 -3.07443 0
M  V30 6939 H 670.658 -2.90285 -3.29592 0
M  V30 6940 H 671.264 -3.80954 -1.89087 0
M  V30 6941 N 669.579 0.400081 -1.52437 0
M  V30 6942 C 670.509 1.4947 -1.7939 0
M  V30 6943 C 671.49 1.57383 -0.645329 0
M  V30 6944 O 672.675 1.72511 -0.891826 0
M  V30 6945 C 669.805 2.87201 -1.95276 0
M  V30 6946 C 668.759 2.94134 -3.10917 0
M  V30 6947 C 668.085 4.34207 -3.1204 0
M  V30 6948 C 669.385 2.64791 -4.50203 0
M  V30 6949 H 671.079 1.27165 -2.71052 0
M  V30 6950 H 668.625 0.610312 -1.30427 0
M  V30 6951 H 670.578 3.63772 -2.12715 0
M  V30 6952 H 669.302 3.10819 -1.00294 0
M  V30 6953 H 667.961 2.20009 -2.93243 0
M  V30 6954 H 667.609 4.54848 -2.14761 0
M  V30 6955 H 667.309 4.39768 -3.89715 0
M  V30 6956 H 668.833 5.127 -3.31619 0
M  V30 6957 H 670.247 3.31083 -4.68035 0
M  V30 6958 H 668.644 2.81717 -5.29864 0
M  V30 6959 H 669.714 1.60184 -4.57678 0
M  V30 6960 N 671.057 1.43213 0.657864 0
M  V30 6961 C 672.02 1.47687 1.75275 0
M  V30 6962 C 673.02 0.362179 1.56668 0
M  V30 6963 O 674.21 0.623734 1.62651 0
M  V30 6964 C 671.342 1.32497 3.14098 0
M  V30 6965 H 672.535 2.4519 1.7269 0
M  V30 6966 H 670.088 1.2991 0.869087 0
M  V30 6967 H 670.823 0.359831 3.22298 0
M  V30 6968 H 670.608 2.13299 3.29008 0
M  V30 6969 H 672.098 1.38549 3.93946 0
M  V30 6970 N 672.536 -0.895792 1.29666 0
M  V30 6971 C 673.446 -2.03329 1.17024 0
M  V30 6972 C 674.462 -1.73753 0.0925962 0
M  V30 6973 O 675.638 -1.99071 0.305431 0
M  V30 6974 C 672.703 -3.36072 0.851841 0
M  V30 6975 C 671.764 -3.7914 2.01373 0
M  V30 6976 C 670.997 -5.05549 1.71043 0
M  V30 6977 O 671.22 -5.66874 0.633213 0
M  V30 6978 O 670.154 -5.44764 2.5596 0
M  V30 6979 H 673.98 -2.16918 2.12556 0
M  V30 6980 H 671.565 -1.02007 1.09156 0
M  V30 6981 H 673.447 -4.15729 0.689006 0
M  V30 6982 H 672.122 -3.23616 -0.0736634 0
M  V30 6983 H 671.029 -3.00233 2.23183 0
M  V30 6984 H 672.362 -3.96186 2.92058 0
M  V30 6985 N 674.014 -1.12206 -1.10668 0
M  V30 6986 C 675.242 -0.898635 -1.86366 0
M  V30 6987 C 675.657 0.551991 -1.80551 0
M  V30 6988 O 675.014 1.38152 -1.19249 0
M  V30 6989 C 675.065 -1.36199 -3.34861 0
M  V30 6990 O 674.786 -2.75576 -3.40573 0
M  V30 6991 C 676.287 -1.17515 -4.2744 0
M  V30 6992 H 673.507 -0.321281 -0.589084 0
M  V30 6993 H 676.051 -1.49142 -1.39918 0
M  V30 6994 H 674.206 -0.81249 -3.78784 0
M  V30 6995 H 674.62 -2.95851 -4.33096 0
M  V30 6996 H 676.094 -1.54827 -5.29842 0
M  V30 6997 H 676.571 -0.115486 -4.39048 0
M  V30 6998 H 677.177 -1.71203 -3.89319 0
M  V30 6999 N 675.492 1.28418 -0.913599 0
M  V30 7000 C 676.738 1.9527 -0.547484 0
M  V30 7001 C 677.071 1.71745 0.906486 0
M  V30 7002 O 676.346 1.03834 1.64465 0
M  V30 7003 C 676.629 3.49748 -0.857205 0
M  V30 7004 C 676.482 3.82675 -2.3639 0
M  V30 7005 C 677.801 4.3868 -0.353258 0
M  V30 7006 H 674.92 0.709236 -0.200381 0
M  V30 7007 H 677.562 1.51789 -1.14281 0
M  V30 7008 H 675.712 3.86915 -0.350548 0
M  V30 7009 H 677.384 3.55378 -2.94116 0
M  V30 7010 H 675.627 3.29724 -2.81894 0
M  V30 7011 H 676.298 4.90547 -2.53115 0
M  V30 7012 H 678.774 4.08584 -0.787288 0
M  V30 7013 H 677.65 5.45621 -0.599049 0
M  V30 7014 H 677.911 4.35753 0.746413 0
M  V30 7015 N 676.97 0.677563 1.42291 0
M  V30 7016 C 677.933 0.0101085 2.29198 0
M  V30 7017 C 678.933 -0.726219 1.43467 0
M  V30 7018 O 680.123 -0.563807 1.64824 0
M  V30 7019 C 677.255 -0.996316 3.26016 0
M  V30 7020 H 678.448 0.775071 2.89711 0
M  V30 7021 H 676.001 0.440065 1.49977 0
M  V30 7022 H 676.736 -1.78967 2.70446 0
M  V30 7023 H 676.521 -0.471687 3.89253 0
M  V30 7024 H 678.011 -1.46167 3.91184 0
M  V30 7025 N 678.448 -1.51871 0.421078 0
M  V30 7026 C 679.673 -2.0684 -0.152371 0
M  V30 7027 C 680.098 -1.28802 -1.37083 0
M  V30 7028 O 679.456 -0.321482 -1.78427 0
M  V30 7029 C 679.504 -3.57532 -0.469368 0
M  V30 7030 O 678.608 -3.81818 -1.55848 0
M  V30 7031 H 677.949 -0.663939 -0.00898586 0
M  V30 7032 H 680.479 -1.95674 0.597724 0
M  V30 7033 H 680.489 -4.01515 -0.724553 0
M  V30 7034 H 679.164 -4.13761 0.421276 0
M  V30 7035 H 677.741 -3.49709 -1.29453 0
M  V30 7036 N 679.926 -0.151884 -1.56866 0
M  V30 7037 C 680.856 0.781943 -2.20018 0
M  V30 7038 C 681.837 1.25347 -1.14987 0
M  V30 7039 O 683.022 1.31015 -1.43348 0
M  V30 7040 C 680.152 2.01928 -2.82564 0
M  V30 7041 C 679.106 1.68434 -3.93464 0
M  V30 7042 C 678.432 2.99472 -4.42968 0
M  V30 7043 C 679.732 0.927244 -5.14003 0
M  V30 7044 H 681.426 0.255607 -2.98307 0
M  V30 7045 H 678.972 0.121502 -1.43486 0
M  V30 7046 H 680.925 2.67741 -3.25411 0
M  V30 7047 H 679.649 2.56943 -2.01614 0
M  V30 7048 H 678.308 1.04998 -3.51242 0
M  V30 7049 H 677.956 3.52488 -3.58834 0
M  V30 7050 H 677.656 2.77823 -5.17772 0
M  V30 7051 H 679.18 3.66348 -4.88489 0
M  V30 7052 H 680.594 1.48756 -5.53665 0
M  V30 7053 H 678.991 0.810513 -5.94601 0
M  V30 7054 H 680.061 -0.0801163 -4.84834 0
M  V30 7055 N 681.404 1.57128 0.121893 0
M  V30 7056 C 682.65 1.85853 0.826451 0
M  V30 7057 C 683.005 0.739262 1.77631 0
M  V30 7058 O 682.298 -0.260959 1.89815 0
M  V30 7059 C 682.492 3.1874 1.61677 0
M  V30 7060 C 682.321 4.43487 0.744944 0
M  V30 7061 C 681.091 5.03707 0.400891 0
M  V30 7062 C 683.289 5.1426 0.0638779 0
M  V30 7063 N 681.271 6.12006 -0.481902 0
M  V30 7064 C 682.642 6.16281 -0.678033 0
M  V30 7065 C 684.697 4.97898 -0.0128424 0
M  V30 7066 C 683.4 7.0371 -1.48946 0
M  V30 7067 C 685.426 5.85812 -0.81108 0
M  V30 7068 C 684.788 6.87333 -1.54119 0
M  V30 7069 H 680.887 0.730367 0.279442 0
M  V30 7070 H 683.471 1.9449 0.0903486 0
M  V30 7071 H 681.642 3.11204 2.32393 0
M  V30 7072 H 683.374 3.35283 2.26644 0
M  V30 7073 H 680.129 4.67744 0.742469 0
M  V30 7074 H 680.553 6.70787 -0.915063 0
M  V30 7075 H 685.195 4.19372 0.537278 0
M  V30 7076 H 682.913 7.81646 -2.05074 0
M  V30 7077 H 686.499 5.75217 -0.872764 0
M  V30 7078 H 685.379 7.54182 -2.14893 0
M  V30 7079 N 682.882 -0.391992 1.52647 0
M  V30 7080 C 684.293 -0.970064 1.5952 0
M  V30 7081 C 684.644 -1.91059 0.446207 0
M  V30 7082 O 683.769 -2.12062 -0.431125 0
M  V30 7083 C 684.364 -1.76614 2.89125 0
M  V30 7084 C 682.923 -2.29396 2.9842 0
M  V30 7085 C 682.07 -1.09864 2.54608 0
M  V30 7086 H 685.021 -0.171638 1.57769 0
M  V30 7087 H 685.042 -2.62511 2.75442 0
M  V30 7088 H 684.554 -1.08135 3.72731 0
M  V30 7089 H 682.655 -3.01196 2.19344 0
M  V30 7090 H 682.768 -2.59088 4.03002 0
M  V30 7091 H 681.132 -1.45777 2.08857 0
M  V30 7092 H 681.915 -0.429249 3.40606 0
M  V30 7093 N 684.36 -1.4356 -0.65026 0
M  V30 7094 C 685.323 -1.48615 -1.74489 0
M  V30 7095 C 686.323 -0.370483 -1.56474 0
M  V30 7096 O 687.513 -0.632351 -1.62317 0
M  V30 7097 C 684.645 -1.34161 -3.13391 0
M  V30 7098 H 685.838 -2.46103 -1.71387 0
M  V30 7099 H 683.391 -1.30369 -0.862186 0
M  V30 7100 H 684.126 -0.376918 -3.22102 0
M  V30 7101 H 683.911 -2.1504 -3.27872 0
M  V30 7102 H 685.401 -1.40637 -3.93206 0
M  V30 7103 N 685.838 0.888903 -1.30139 0
M  V30 7104 C 686.768 2.01046 -1.18755 0
M  V30 7105 C 687.749 1.69916 -0.0791438 0
M  V30 7106 O 688.934 1.92445 -0.260498 0
M  V30 7107 C 686.064 3.36109 -0.874518 0
M  V30 7108 C 685.018 3.81486 -1.94043 0
M  V30 7109 C 684.344 5.13796 -1.48047 0
M  V30 7110 C 685.644 4.00637 -3.35093 0
M  V30 7111 H 687.338 2.10828 -2.12584 0
M  V30 7112 H 684.884 1.01298 -1.02346 0
M  V30 7113 H 686.837 4.14089 -0.781548 0
M  V30 7114 H 685.561 3.26449 0.0994519 0
M  V30 7115 H 684.22 3.05731 -2.02297 0
M  V30 7116 H 683.868 5.0056 -0.494878 0
M  V30 7117 H 683.568 5.45127 -2.19341 0
M  V30 7118 H 685.092 5.94305 -1.40121 0
M  V30 7119 H 686.506 4.69067 -3.2962 0
M  V30 7120 H 684.903 4.43339 -4.04438 0
M  V30 7121 H 685.973 3.0462 -3.77273 0
M  V30 7122 N 687.317 1.12792 1.10072 0
M  V30 7123 C 688.249 0.757003 2.16338 0
M  V30 7124 C 689.262 -0.218144 1.61332 0
M  V30 7125 O 690.451 0.0010727 1.785 0
M  V30 7126 C 687.551 0.100303 3.38752 0
M  V30 7127 C 686.724 1.10586 4.2319 0
M  V30 7128 C 685.783 0.47609 5.24042 0
M  V30 7129 O 684.809 1.13418 5.57786 0
M  V30 7130 N 686.011 -0.754823 5.75572 0
M  V30 7131 H 688.776 1.6714 2.48766 0
M  V30 7132 H 686.337 1.02003 1.25726 0
M  V30 7133 H 688.329 -0.333092 4.03327 0
M  V30 7134 H 686.899 -0.716915 3.04268 0
M  V30 7135 H 686.119 1.71677 3.54853 0
M  V30 7136 H 687.407 1.78571 4.76435 0
M  V30 7137 H 686.805 -1.30838 5.50362 0
M  V30 7138 H 685.362 -1.13098 6.41913 0
M  V30 7139 N 688.795 -1.27931 0.920396 0
M  V30 7140 C 689.705 -2.30824 0.419212 0
M  V30 7141 C 690.721 -1.66767 -0.496461 0
M  V30 7142 O 691.897 -1.97763 -0.38104 0
M  V30 7143 C 688.962 -3.45158 -0.326601 0
M  V30 7144 C 688.023 -4.24754 0.623098 0
M  V30 7145 C 687.256 -5.33629 -0.0872172 0
M  V30 7146 O 687.479 -5.55204 -1.30784 0
M  V30 7147 O 686.413 -5.99091 0.580875 0
M  V30 7148 H 690.239 -2.75716 1.27337 0
M  V30 7149 H 687.824 -1.32747 0.685465 0
M  V30 7150 H 689.706 -4.14716 -0.747559 0
M  V30 7151 H 688.381 -3.02336 -1.15648 0
M  V30 7152 H 687.288 -3.57759 1.09359 0
M  V30 7153 H 688.621 -4.71272 1.41998 0
M  V30 7154 N 690.273 -0.685099 -1.4193 0
M  V30 7155 C 691.203 -0.0273506 -2.33484 0
M  V30 7156 C 692.184 0.778366 -1.51246 0
M  V30 7157 O 693.369 0.733449 -1.79817 0
M  V30 7158 C 690.499 0.917272 -3.34968 0
M  V30 7159 C 689.453 0.21941 -4.27437 0
M  V30 7160 C 688.779 1.27768 -5.1921 0
M  V30 7161 C 690.079 -0.907894 -5.14349 0
M  V30 7162 H 691.773 -0.791994 -2.88735 0
M  V30 7163 H 689.319 -0.382308 -1.38832 0
M  V30 7164 H 691.272 1.38657 -3.97935 0
M  V30 7165 H 689.996 1.71346 -2.78043 0
M  V30 7166 H 688.655 -0.229757 -3.65879 0
M  V30 7167 H 688.303 2.06612 -4.58607 0
M  V30 7168 H 688.003 0.815803 -5.81909 0
M  V30 7169 H 689.527 1.7477 -5.85054 0
M  V30 7170 H 690.941 -0.519348 -5.70943 0
M  V30 7171 H 689.338 -1.2962 -5.85934 0
M  V30 7172 H 690.408 -1.75218 -4.52136 0
M  V30 7173 N 691.751 1.51645 -0.429126 0
M  V30 7174 C 692.714 2.26116 0.374726 0
M  V30 7175 C 693.714 1.29242 0.956714 0
M  V30 7176 O 694.904 1.53022 0.832452 0
M  V30 7177 C 692.036 3.04669 1.52937 0
M  V30 7178 H 693.229 2.9861 -0.277818 0
M  V30 7179 H 690.782 1.55236 -0.182097 0
M  V30 7180 H 691.517 2.36571 2.21821 0
M  V30 7181 H 691.302 3.75814 1.11833 0
M  V30 7182 H 692.792 3.61102 2.09751 0
M  V30 7183 N 693.229 0.160201 1.56784 0
M  V30 7184 C 694.645 -0.196089 1.58391 0
M  V30 7185 C 694.845 -1.63689 1.17508 0
M  V30 7186 O 693.901 -2.36613 0.881506 0
M  V30 7187 C 695.214 0.0746449 3.00607 0
M  V30 7188 C 696.762 0.0119762 3.12998 0
M  V30 7189 C 697.237 0.255551 4.57286 0
M  V30 7190 N 698.728 0.202938 4.62755 0
M  V30 7191 C 699.463 0.365731 5.72232 0
M  V30 7192 N 698.959 0.586972 6.90309 0
M  V30 7193 N 700.752 0.302411 5.61286 0
M  V30 7194 H 692.903 1.1008 1.81648 0
M  V30 7195 H 695.166 0.436779 0.841384 0
M  V30 7196 H 694.872 1.07231 3.34954 0
M  V30 7197 H 694.746 -0.638802 3.71751 0
M  V30 7198 H 697.133 -0.976254 2.78484 0
M  V30 7199 H 697.214 0.75796 2.44313 0
M  V30 7200 H 696.858 1.24094 4.92507 0
M  V30 7201 H 696.788 -0.510912 5.24116 0
M  V30 7202 H 699.279 0.0371328 3.77882 0
M  V30 7203 H 699.592 0.700941 7.69615 0
M  V30 7204 H 697.937 0.623453 6.92198 0
M  V30 7205 H 701.128 0.130238 4.67919 0
M  V30 7206 H 701.301 0.432712 6.46554 0
M  V30 7207 N 694.707 -1.5719 -0.113559 0
M  V30 7208 C 695.947 -1.86958 -0.82621 0
M  V30 7209 C 696.311 -0.748884 -1.76793 0
M  V30 7210 O 697.512 -0.92847 -2.52256 0
M  V30 7211 C 695.783 -3.21957 -1.55173 0
M  V30 7212 S 697.342 -3.73371 -2.3052 0
M  V30 7213 H 694.16 -0.655394 -0.275643 0
M  V30 7214 H 696.762 -1.95318 -0.0842684 0
M  V30 7215 H 695.466 -4.01459 -0.851977 0
M  V30 7216 H 694.997 -3.16688 -2.33393 0
M  V30 7217 H 697.012 -3.45308 -3.56338 0
M  V30 7218 N 696.185 0.383891 -1.52853 0
M  V30 7219 C 697.433 1.12619 -1.67814 0
M  V30 7220 C 697.754 1.90354 -0.423141 0
M  V30 7221 O 697.024 1.87649 0.562554 0
M  V30 7222 H 695.604 0.418738 -0.618601 0
M  V30 7223 H 698.266 0.43495 -1.89985 0
M  V30 7224 H 697.362 1.82624 -2.5309 0
M  V30 7225 N 697.663 1.43903 0.642637 0
M  V30 7226 C 698.611 1.50164 1.77634 0
M  V30 7227 C 699.605 0.374294 1.65213 0
M  V30 7228 O 700.811 0.548748 1.71431 0
M  V30 7229 H 697.186 0.470974 0.586249 0
M  V30 7230 H 699.157 2.45603 1.69474 0
M  V30 7231 C 697.906 1.45196 3.15933 0
M  V30 7232 H 697.229 2.31253 3.26132 0
M  V30 7233 H 698.669 1.53638 3.95185 0
M  V30 7234 C 697.128 0.171043 3.36466 0
M  V30 7235 O 697.658 -0.763413 3.94379 0
M  V30 7236 N 695.864 0.077847 2.90496 0
M  V30 7237 H 695.411 0.8391 2.43551 0
M  V30 7238 H 695.369 -0.778473 3.0461 0
M  V30 7239 N 699.141 -0.881989 1.30609 0
M  V30 7240 C 700.071 -2.00413 1.1982 0
M  V30 7241 C 701.052 -1.69871 0.0881538 0
M  V30 7242 O 702.237 -1.92304 0.2707 0
M  V30 7243 C 699.367 -3.35641 0.89233 0
M  V30 7244 C 698.321 -3.80451 1.96064 0
M  V30 7245 C 697.647 -5.13003 1.5077 0
M  V30 7246 C 698.947 -3.98855 3.37213 0
M  V30 7247 H 700.641 -2.09698 2.13699 0
M  V30 7248 H 698.187 -1.00754 1.02882 0
M  V30 7249 H 700.14 -4.13669 0.803497 0
M  V30 7250 H 698.864 -3.26497 -0.0821381 0
M  V30 7251 H 697.523 -3.04654 2.03916 0
M  V30 7252 H 697.171 -5.0029 0.521417 0
M  V30 7253 H 696.871 -5.43956 2.22229 0
M  V30 7254 H 698.395 -5.93554 1.43271 0
M  V30 7255 H 699.809 -4.67312 3.32103 0
M  V30 7256 H 698.206 -4.41188 4.06784 0
M  V30 7257 H 699.276 -3.02614 3.78883 0
M  V30 7258 N 700.619 -1.13374 -1.09472 0
M  V30 7259 C 701.582 -0.813639 -2.14272 0
M  V30 7260 C 702.582 0.176677 -1.59826 0
M  V30 7261 O 703.772 -0.0503441 -1.74127 0
M  V30 7262 C 700.904 -0.210897 -3.40247 0
M  V30 7263 H 702.097 -1.74229 -2.44099 0
M  V30 7264 H 699.65 -0.938304 -1.25002 0
M  V30 7265 H 700.385 0.726998 -3.16046 0
M  V30 7266 H 700.17 -0.924048 -3.81056 0
M  V30 7267 H 701.66 -0.00377603 -4.176 0
M  V30 7268 N 702.098 1.27442 -0.927168 0
M  V30 7269 C 703.338 1.96157 -0.574608 0
M  V30 7270 C 703.702 1.71265 0.867897 0
M  V30 7271 O 704.903 2.33664 1.3287 0
M  V30 7272 C 703.174 3.46115 -0.891009 0
M  V30 7273 S 704.733 4.34006 -0.646885 0
M  V30 7274 H 701.551 0.678619 -0.212125 0
M  V30 7275 H 704.153 1.54688 -1.19549 0
M  V30 7276 H 702.857 3.6173 -1.93854 0
M  V30 7277 H 702.388 3.92545 -0.259301 0
M  V30 7278 H 704.403 4.93719 0.495568 0
M  V30 7279 N 703.576 0.692616 1.41565 0
M  V30 7280 C 704.992 0.363878 1.55397 0
M  V30 7281 C 705.192 -1.1294 1.66874 0
M  V30 7282 O 704.248 -1.91517 1.64552 0
M  V30 7283 C 705.561 1.10982 2.7947 0
M  V30 7284 C 707.109 1.09387 2.93263 0
M  V30 7285 C 707.584 1.8215 4.20221 0
M  V30 7286 N 709.075 1.79105 4.27172 0
M  V30 7287 C 709.81 2.32247 5.2426 0
M  V30 7288 N 709.306 2.93847 6.27396 0
M  V30 7289 N 711.099 2.22519 5.1618 0
M  V30 7290 H 703.25 1.66116 1.3236 0
M  V30 7291 H 705.513 0.700848 0.63837 0
M  V30 7292 H 705.219 2.1647 2.77188 0
M  V30 7293 H 705.093 0.686492 3.709 0
M  V30 7294 H 707.48 0.0472638 2.95062 0
M  V30 7295 H 707.561 1.55623 2.03015 0
M  V30 7296 H 707.205 2.86789 4.19183 0
M  V30 7297 H 707.135 1.33351 5.09436 0
M  V30 7298 H 709.626 1.34191 3.53272 0
M  V30 7299 H 709.939 3.31972 6.97864 0
M  V30 7300 H 708.284 2.97924 6.27906 0
M  V30 7301 H 711.475 1.7407 4.34531 0
M  V30 7302 H 711.648 2.64239 5.91677 0
M  V30 7303 N 705.054 -1.51416 0.437162 0
M  V30 7304 C 706.279 -2.0699 -0.130424 0
M  V30 7305 C 706.704 -1.30249 -1.35709 0
M  V30 7306 O 706.062 -0.340388 -1.78076 0
M  V30 7307 C 706.11 -3.5801 -0.43142 0
M  V30 7308 O 705.214 -3.8345 -1.5179 0
M  V30 7309 H 704.555 -0.663997 -0.00194339 0
M  V30 7310 H 707.085 -1.95029 0.618445 0
M  V30 7311 H 707.095 -4.02261 -0.681926 0
M  V30 7312 H 705.77 -4.13291 0.465137 0
M  V30 7313 H 704.347 -3.51062 -1.25737 0
M  V30 7314 N 706.532 -0.168513 -1.56696 0
M  V30 7315 C 707.809 0.523367 -1.88468 0
M  V30 7316 C 708.189 1.81503 -1.07796 0
M  V30 7317 O 707.537 2.27859 -0.171045 0
M  V30 7318 C 707.747 0.767991 -3.40445 0
M  V30 7319 C 709.095 1.09924 -4.10124 0
M  V30 7320 O 710.119 0.856625 -3.45746 0
M  V30 7321 O 708.978 1.55681 -5.23856 0
M  V30 7322 H 706.072 0.269447 -0.781874 0
M  V30 7323 H 708.618 -0.206739 -1.68436 0
M  V30 7324 H 707.39 -0.145254 -3.9103 0
M  V30 7325 H 707.013 1.55151 -3.66079 0
M  V30 7326 N 708.01 1.57248 0.105221 0
M  V30 7327 C 708.94 2.04374 1.12931 0
M  V30 7328 C 709.921 0.93074 1.42377 0
M  V30 7329 O 711.106 1.20136 1.52581 0
M  V30 7330 C 708.236 2.45967 2.45189 0
M  V30 7331 C 707.19 3.60838 2.30174 0
M  V30 7332 C 706.516 3.88374 3.67518 0
M  V30 7333 C 707.816 4.92084 1.75073 0
M  V30 7334 H 709.51 2.9018 0.737287 0
M  V30 7335 H 707.056 1.39601 0.353211 0
M  V30 7336 H 709.009 2.77542 3.17094 0
M  V30 7337 H 707.733 1.57148 2.86308 0
M  V30 7338 H 706.392 3.29493 1.60716 0
M  V30 7339 H 706.04 2.96739 4.06147 0
M  V30 7340 H 705.74 4.65703 3.58321 0
M  V30 7341 H 707.264 4.22415 4.40906 0
M  V30 7342 H 708.678 5.22106 2.36809 0
M  V30 7343 H 707.075 5.73507 1.76662 0
M  V30 7344 H 708.145 4.79684 0.709347 0
M  V30 7345 N 709.488 -0.375779 1.53054 0
M  V30 7346 C 710.42 -1.47963 1.75042 0
M  V30 7347 C 711.433 -1.50073 0.631031 0
M  V30 7348 O 712.622 -1.53736 0.907052 0
M  V30 7349 C 709.722 -2.86767 1.80604 0
M  V30 7350 C 708.895 -3.08471 3.10104 0
M  V30 7351 C 707.954 -4.27332 3.07041 0
M  V30 7352 O 706.98 -4.22998 3.80869 0
M  V30 7353 N 708.182 -5.34214 2.27147 0
M  V30 7354 H 710.947 -1.29484 2.70285 0
M  V30 7355 H 708.508 -0.565416 1.51706 0
M  V30 7356 H 710.5 -3.64404 1.76045 0
M  V30 7357 H 709.07 -2.98542 0.926897 0
M  V30 7358 H 708.29 -2.18583 3.28048 0
M  V30 7359 H 709.578 -3.19834 3.95706 0
M  V30 7360 H 708.976 -5.40594 1.66656 0
M  V30 7361 H 707.533 -6.10467 2.28415 0
M  V30 7362 N 710.966 -1.44241 -0.634997 0
M  V30 7363 C 712.212 -1.47038 -1.39669 0
M  V30 7364 C 712.545 -0.101122 -1.93937 0
M  V30 7365 O 711.82 0.880699 -1.73418 0
M  V30 7366 C 712.103 -2.52763 -2.56482 0
M  V30 7367 C 711.956 -3.99032 -2.07589 0
M  V30 7368 C 713.275 -2.55031 -3.58674 0
M  V30 7369 H 710.394 -0.53537 -0.506506 0
M  V30 7370 H 713.036 -1.75898 -0.718317 0
M  V30 7371 H 711.186 -2.28284 -3.14354 0
M  V30 7372 H 712.858 -4.3463 -1.54577 0
M  V30 7373 H 711.101 -4.10994 -1.38804 0
M  V30 7374 H 711.772 -4.68649 -2.91671 0
M  V30 7375 H 714.248 -2.76893 -3.10595 0
M  V30 7376 H 713.124 -3.30916 -4.37934 0
M  V30 7377 H 713.385 -1.59085 -4.12486 0
M  V30 7378 N 712.444 0.87505 -1.31075 0
M  V30 7379 C 713.407 1.96333 -1.18263 0
M  V30 7380 C 714.407 1.60416 -0.111106 0
M  V30 7381 O 715.597 1.7044 -0.359987 0
M  V30 7382 C 712.729 3.31036 -0.81414 0
M  V30 7383 H 713.922 2.09125 -2.14958 0
M  V30 7384 H 711.475 1.06271 -1.14614 0
M  V30 7385 H 712.21 3.23944 0.151875 0
M  V30 7386 H 711.995 3.58476 -1.58862 0
M  V30 7387 H 713.485 4.10842 -0.748249 0
M  V30 7388 N 713.922 1.13953 1.08869 0
M  V30 7389 C 714.885 0.824991 2.13838 0
M  V30 7390 C 715.885 -0.168198 1.59918 0
M  V30 7391 O 717.075 0.0595778 1.74098 0
M  V30 7392 C 714.207 0.228938 3.4013 0
M  V30 7393 H 715.4 1.75521 2.43171 0
M  V30 7394 H 712.953 0.94492 1.24503 0
M  V30 7395 H 713.688 -0.710227 3.16427 0
M  V30 7396 H 713.473 0.944243 3.80561 0
M  V30 7397 H 714.963 0.0259223 4.17592 0
M  V30 7398 N 715.4 -1.26948 0.933913 0
M  V30 7399 C 716.347 -2.26635 0.436484 0
M  V30 7400 C 717.317 -1.58397 -0.499953 0
M  V30 7401 O 718.502 -1.86171 -0.417753 0
M  V30 7402 C 715.642 -3.43803 -0.298951 0
M  V30 7403 C 714.755 -4.26736 0.672316 0
M  V30 7404 C 713.89 -5.31134 -0.0835872 0
M  V30 7405 C 712.929 -6.05742 0.879979 0
M  V30 7406 N 712.066 -7.01926 0.156301 0
M  V30 7407 H 716.906 -2.68558 1.29154 0
M  V30 7408 H 714.443 -1.32052 0.648118 0
M  V30 7409 H 716.401 -4.10554 -0.741723 0
M  V30 7410 H 715.031 -3.02814 -1.1182 0
M  V30 7411 H 714.083 -3.59842 1.23361 0
M  V30 7412 H 715.395 -4.78502 1.40846 0
M  V30 7413 H 714.549 -6.03863 -0.585984 0
M  V30 7414 H 713.288 -4.80188 -0.852661 0
M  V30 7415 H 712.293 -5.31846 1.39357 0
M  V30 7416 H 713.518 -6.58777 1.64894 0
M  V30 7417 H 711.464 -6.53301 -0.594413 0
M  V30 7418 H 711.381 -7.51409 0.831906 0
M  V30 7419 H 712.649 -7.78821 -0.325239 0
M  V30 7420 N 716.879 -0.700114 -1.41195 0
M  V30 7421 C 717.842 -0.0465706 -2.29153 0
M  V30 7422 C 718.842 0.703302 -1.44604 0
M  V30 7423 O 720.032 0.537513 -1.657 0
M  V30 7424 C 717.164 0.944324 -3.2756 0
M  V30 7425 H 718.357 -0.821064 -2.88442 0
M  V30 7426 H 715.91 -0.463869 -1.49258 0
M  V30 7427 H 716.645 1.74642 -2.73259 0
M  V30 7428 H 716.43 0.409701 -3.89954 0
M  V30 7429 H 717.92 1.39925 -3.9346 0
M  V30 7430 N 718.357 1.51182 -0.445186 0
M  V30 7431 C 719.287 2.30821 0.352686 0
M  V30 7432 C 720.268 1.36576 1.01395 0
M  V30 7433 O 721.453 1.65497 1.01609 0
M  V30 7434 C 718.583 3.15593 1.44976 0
M  V30 7435 C 717.537 4.1818 0.911553 0
M  V30 7436 C 716.863 4.91523 2.10497 0
M  V30 7437 C 718.163 5.22266 -0.059418 0
M  V30 7438 H 719.857 2.97771 -0.311936 0
M  V30 7439 H 717.403 1.43201 -0.151461 0
M  V30 7440 H 719.356 3.70091 2.01521 0
M  V30 7441 H 718.08 2.4648 2.14278 0
M  V30 7442 H 716.739 3.64746 0.368264 0
M  V30 7443 H 716.387 4.18906 2.78437 0
M  V30 7444 H 716.087 5.60898 1.7512 0
M  V30 7445 H 717.611 5.48847 2.6758 0
M  V30 7446 H 719.025 5.71789 0.415985 0
M  V30 7447 H 717.422 5.99213 -0.326152 0
M  V30 7448 H 718.492 4.7461 -0.993631 0
M  V30 7449 N 719.835 0.176821 1.56605 0
M  V30 7450 C 720.745 -0.763682 2.21822 0
M  V30 7451 C 721.761 -1.24889 1.21156 0
M  V30 7452 O 722.937 -1.29987 1.53836 0
M  V30 7453 C 720.002 -1.97352 2.8505 0
M  V30 7454 C 719.063 -1.53466 4.00932 0
M  V30 7455 C 718.296 -2.68682 4.61135 0
M  V30 7456 O 718.519 -3.85694 4.20234 0
M  V30 7457 O 717.453 -2.42442 5.50913 0
M  V30 7458 H 721.279 -0.238363 3.02763 0
M  V30 7459 H 718.864 -0.0516331 1.49311 0
M  V30 7460 H 720.746 -2.68096 3.25119 0
M  V30 7461 H 719.421 -2.48779 2.07101 0
M  V30 7462 H 718.328 -0.796551 3.65521 0
M  V30 7463 H 719.661 -1.06724 4.8049 0
M  V30 7464 N 721.313 -1.57302 -0.09688 0
M  V30 7465 C 722.246 -1.97179 -1.14872 0
M  V30 7466 C 723.224 -0.844734 -1.38935 0
M  V30 7467 O 724.408 -1.10487 -1.52725 0
M  V30 7468 C 721.535 -2.28703 -2.49826 0
M  V30 7469 C 720.581 -3.51158 -2.42054 0
M  V30 7470 S 721.414 -5.0294 -1.83879 0
M  V30 7471 C 722.57 -5.37639 -3.2046 0
M  V30 7472 H 722.803 -2.86088 -0.808771 0
M  V30 7473 H 720.336 -1.51368 -0.304492 0
M  V30 7474 H 722.294 -2.47541 -3.27466 0
M  V30 7475 H 720.955 -1.40368 -2.8099 0
M  V30 7476 H 720.148 -3.70651 -3.41517 0
M  V30 7477 H 719.75 -3.31821 -1.72543 0
M  V30 7478 H 722.042 -5.34175 -4.16729 0
M  V30 7479 H 722.985 -6.38677 -3.05773 0
M  V30 7480 H 723.393 -4.651 -3.19909 0
M  V30 7481 N 722.791 0.367657 -1.53252 0
M  V30 7482 C 724.039 1.10832 -1.68999 0
M  V30 7483 C 724.36 1.89894 -0.443306 0
M  V30 7484 O 723.63 1.88235 0.54262 0
M  V30 7485 H 722.21 0.412153 -0.623008 0
M  V30 7486 H 724.872 0.414775 -1.90435 0
M  V30 7487 H 723.968 1.7993 -2.55013 0
M  V30 7488 N 724.269 1.44576 0.627338 0
M  V30 7489 C 725.515 1.47777 1.38888 0
M  V30 7490 C 725.848 0.111406 1.9388 0
M  V30 7491 O 725.123 -0.87149 1.73883 0
M  V30 7492 C 725.406 2.54119 2.55138 0
M  V30 7493 C 725.259 4.00128 2.0547 0
M  V30 7494 C 726.578 2.56929 3.57317 0
M  V30 7495 H 723.697 0.538048 0.50366 0
M  V30 7496 H 726.339 1.76277 0.708978 0
M  V30 7497 H 724.489 2.29948 3.13139 0
M  V30 7498 H 726.161 4.35444 1.5227 0
M  V30 7499 H 724.404 4.11724 1.36623 0
M  V30 7500 H 725.075 4.7019 2.89181 0
M  V30 7501 H 727.551 2.78536 3.09122 0
M  V30 7502 H 726.427 3.33234 4.36173 0
M  V30 7503 H 726.688 1.6127 4.11636 0
M  V30 7504 N 725.747 -0.868086 1.31537 0
M  V30 7505 C 726.994 -1.62127 1.2133 0
M  V30 7506 C 727.322 -1.93158 -0.2281 0
M  V30 7507 O 726.577 -1.5632 -1.1774 0
M  V30 7508 C 726.876 -2.95889 2.0046 0
M  V30 7509 C 726.542 -2.84343 3.49943 0
M  V30 7510 C 725.204 -2.80901 3.90702 0
M  V30 7511 C 727.556 -2.71243 4.45058 0
M  V30 7512 C 724.884 -2.6222 5.24841 0
M  V30 7513 C 727.236 -2.54098 5.79325 0
M  V30 7514 C 725.9 -2.4904 6.19302 0
M  V30 7515 H 725.17 -0.593265 0.443979 0
M  V30 7516 H 727.817 -1.00803 1.62822 0
M  V30 7517 H 726.122 -3.61259 1.51655 0
M  V30 7518 H 727.819 -3.53161 1.89942 0
M  V30 7519 H 724.409 -2.8784 3.17563 0
M  V30 7520 H 728.593 -2.72956 4.14498 0
M  V30 7521 H 723.849 -2.56731 5.54887 0
M  V30 7522 H 728.023 -2.42938 6.52652 0
M  V30 7523 H 725.65 -2.34324 7.23185 0
M  V30 7524 N 727.225 -1.14528 -1.08264 0
M  V30 7525 C 728.473 -0.912599 -1.80322 0
M  V30 7526 C 728.794 0.562256 -1.86718 0
M  V30 7527 O 728.064 1.40869 -1.36135 0
M  V30 7528 H 726.644 -0.334645 -0.667849 0
M  V30 7529 H 729.306 -1.44415 -1.30883 0
M  V30 7530 H 728.402 -1.31384 -2.83098 0
M  V30 7531 N 728.703 1.26451 -0.940633 0
M  V30 7532 C 729.666 2.24651 -0.454378 0
M  V30 7533 C 730.666 1.54826 0.434222 0
M  V30 7534 O 731.856 1.72628 0.233477 0
M  V30 7535 C 728.988 3.39148 0.345192 0
M  V30 7536 H 730.181 2.69182 -1.32217 0
M  V30 7537 H 727.734 1.38596 -0.722547 0
M  V30 7538 H 728.469 3.00018 1.23125 0
M  V30 7539 H 728.254 3.9101 -0.292107 0
M  V30 7540 H 729.744 4.12103 0.675341 0
M  V30 7541 N 730.181 0.707592 1.40822 0
M  V30 7542 C 731.411 0.252706 2.05049 0
M  V30 7543 C 731.819 -1.10758 1.53393 0
M  V30 7544 O 731.162 -1.70567 0.682097 0
M  V30 7545 C 731.224 0.146001 3.59203 0
M  V30 7546 C 730.888 1.44027 4.33711 0
M  V30 7547 C 731.885 2.38058 4.62195 0
M  V30 7548 C 729.57 1.69698 4.72766 0
M  V30 7549 C 731.564 3.56013 5.28709 0
M  V30 7550 C 729.251 2.87936 5.39014 0
M  V30 7551 C 730.249 3.80915 5.66915 0
M  V30 7552 O 729.937 4.9708 6.31796 0
M  V30 7553 H 729.669 0.112784 0.666525 0
M  V30 7554 H 732.223 0.96417 1.81364 0
M  V30 7555 H 730.453 -0.621338 3.81676 0
M  V30 7556 H 732.142 -0.273275 4.04979 0
M  V30 7557 H 732.908 2.19487 4.32493 0
M  V30 7558 H 728.787 0.981835 4.50423 0
M  V30 7559 H 732.331 4.28604 5.50404 0
M  V30 7560 H 728.228 3.06419 5.68135 0
M  V30 7561 H 728.996 4.97053 6.50293 0
M  V30 7562 N 731.66 -1.50943 0.453197 0
M  V30 7563 C 732.907 -2.02212 -0.107922 0
M  V30 7564 C 733.235 -1.33639 -1.41318 0
M  V30 7565 O 732.49 -0.445154 -1.9057 0
M  V30 7566 C 732.789 -3.55603 -0.357944 0
M  V30 7567 C 732.455 -4.42556 0.863427 0
M  V30 7568 C 731.117 -4.6604 1.19834 0
M  V30 7569 C 733.469 -4.93468 1.67747 0
M  V30 7570 C 730.797 -5.37681 2.34768 0
M  V30 7571 C 733.149 -5.6637 2.81793 0
M  V30 7572 C 731.813 -5.88113 3.1572 0
M  V30 7573 H 731.083 -0.739947 -0.0394916 0
M  V30 7574 H 733.73 -1.81738 0.60363 0
M  V30 7575 H 732.035 -3.74495 -1.15156 0
M  V30 7576 H 733.732 -3.92821 -0.805781 0
M  V30 7577 H 730.322 -4.24485 0.592478 0
M  V30 7578 H 734.506 -4.75194 1.43192 0
M  V30 7579 H 729.762 -5.52727 2.61348 0
M  V30 7580 H 733.936 -6.04806 3.45229 0
M  V30 7581 H 731.563 -6.43404 4.04889 0
M  V30 7582 N 733.138 -0.185124 -1.56509 0
M  V30 7583 C 734.086 0.756505 -2.19954 0
M  V30 7584 C 735.08 1.22725 -1.16769 0
M  V30 7585 O 736.286 1.1913 -1.34937 0
M  V30 7586 H 732.661 0.262279 -0.704779 0
M  V30 7587 H 734.632 0.197587 -2.97745 0
M  V30 7588 C 733.381 1.96975 -2.86524 0
M  V30 7589 H 732.704 1.61658 -3.65659 0
M  V30 7590 H 734.144 2.60719 -3.34367 0
M  V30 7591 C 732.603 2.80219 -1.87027 0
M  V30 7592 O 733.133 3.77821 -1.36433 0
M  V30 7593 N 731.339 2.4551 -1.55477 0
M  V30 7594 H 730.886 1.66199 -1.96813 0
M  V30 7595 H 730.844 3.01493 -0.891597 0
M  V30 7596 N 734.616 1.57351 0.0885366 0
M  V30 7597 C 735.862 1.86696 0.791996 0
M  V30 7598 C 736.195 0.775148 1.78059 0
M  V30 7599 O 735.47 -0.216247 1.93294 0
M  V30 7600 C 735.753 3.26684 1.51491 0
M  V30 7601 C 735.606 4.465 0.543858 0
M  V30 7602 C 736.925 3.64664 2.46391 0
M  V30 7603 H 734.044 0.679049 0.286463 0
M  V30 7604 H 736.686 1.89919 0.0554866 0
M  V30 7605 H 734.836 3.24067 2.14273 0
M  V30 7606 H 736.508 4.61235 -0.0774597 0
M  V30 7607 H 734.751 4.33567 -0.142228 0
M  V30 7608 H 735.422 5.41192 1.08696 0
M  V30 7609 H 737.898 3.68267 1.93698 0
M  V30 7610 H 736.774 4.63534 2.93986 0
M  V30 7611 H 737.035 2.93698 3.30445 0
M  V30 7612 N 736.094 -0.359525 1.53444 0
M  V30 7613 C 737.024 -1.44662 1.8329 0
M  V30 7614 C 738.005 -1.55617 0.68683 0
M  V30 7615 O 739.19 -1.70086 0.93725 0
M  V30 7616 C 736.32 -2.81923 2.02822 0
M  V30 7617 C 735.274 -2.85787 3.18606 0
M  V30 7618 C 734.6 -4.25781 3.23442 0
M  V30 7619 C 735.9 -2.52762 4.57065 0
M  V30 7620 H 737.594 -1.19934 2.74329 0
M  V30 7621 H 735.14 -0.575517 1.31999 0
M  V30 7622 H 737.093 -3.58005 2.22285 0
M  V30 7623 H 735.817 -3.08051 1.085 0
M  V30 7624 H 734.476 -2.12157 2.98973 0
M  V30 7625 H 734.124 -4.48994 2.26745 0
M  V30 7626 H 733.824 -4.29281 4.01238 0
M  V30 7627 H 735.348 -5.03727 3.45096 0
M  V30 7628 H 736.762 -3.18557 4.76649 0
M  V30 7629 H 735.159 -2.67569 5.37147 0
M  V30 7630 H 736.229 -1.47993 4.61764 0
M  V30 7631 N 737.572 -1.44907 -0.619662 0
M  V30 7632 C 738.821 -1.47569 -1.37501 0
M  V30 7633 C 739.134 -0.116707 -1.95252 0
M  V30 7634 O 740.34 -0.020909 -2.71492 0
M  V30 7635 C 738.796 -2.59851 -2.49009 0
M  V30 7636 C 738.404 -4.02008 -1.97722 0
M  V30 7637 C 740.148 -2.71746 -3.2612 0
M  V30 7638 C 738.055 -5.05693 -3.0664 0
M  V30 7639 H 736.985 -0.549068 -0.51676 0
M  V30 7640 H 739.636 -1.71009 -0.665437 0
M  V30 7641 H 738.018 -2.29671 -3.22594 0
M  V30 7642 H 739.192 -4.41809 -1.30925 0
M  V30 7643 H 737.507 -3.94456 -1.33392 0
M  V30 7644 H 740.104 -3.46382 -4.07337 0
M  V30 7645 H 740.447 -1.77959 -3.76346 0
M  V30 7646 H 740.98 -3.01392 -2.5963 0
M  V30 7647 H 737.719 -6.01148 -2.61345 0
M  V30 7648 H 737.239 -4.70473 -3.72042 0
M  V30 7649 H 738.918 -5.29906 -3.71226 0
M  V30 7650 N 739.05 0.861098 -1.31996 0
M  V30 7651 C 739.998 1.99052 -1.20337 0
M  V30 7652 C 740.992 1.69045 -0.109623 0
M  V30 7653 O 742.198 1.77931 -0.272117 0
M  V30 7654 H 738.573 0.653064 -0.372843 0
M  V30 7655 H 740.544 2.06015 -2.15872 0
M  V30 7656 C 739.293 3.34846 -0.936663 0
M  V30 7657 H 738.616 3.58462 -1.77045 0
M  V30 7658 H 740.056 4.1444 -0.895302 0
M  V30 7659 C 738.515 3.34965 0.360607 0
M  V30 7660 O 739.045 3.7745 1.37456 0
M  V30 7661 N 737.251 2.88101 0.380296 0
M  V30 7662 H 736.798 2.53721 -0.445351 0
M  V30 7663 H 736.756 2.88563 1.24816 0
M  V30 7664 N 740.528 1.15101 1.07655 0
M  V30 7665 C 741.458 0.867864 2.16773 0
M  V30 7666 C 742.439 -0.180283 1.69142 0
M  V30 7667 O 743.624 -0.0353152 1.94168 0
M  V30 7668 C 740.754 0.35299 3.45501 0
M  V30 7669 C 739.708 1.33746 4.06566 0
M  V30 7670 C 739.034 0.681562 5.30338 0
M  V30 7671 C 740.334 2.7024 4.46954 0
M  V30 7672 H 742.028 1.78034 2.40716 0
M  V30 7673 H 739.574 0.857435 1.15689 0
M  V30 7674 H 741.527 0.142465 4.21159 0
M  V30 7675 H 740.251 -0.594945 3.21135 0
M  V30 7676 H 738.91 1.53429 3.32949 0
M  V30 7677 H 738.558 -0.272422 5.02262 0
M  V30 7678 H 738.258 1.33853 5.72151 0
M  V30 7679 H 739.782 0.48074 6.08705 0
M  V30 7680 H 741.196 2.5442 5.13754 0
M  V30 7681 H 739.593 3.32282 4.99709 0
M  V30 7682 H 740.663 3.26537 3.58471 0
M  V30 7683 N 742.006 -1.2595 0.947325 0
M  V30 7684 C 743.422 -1.45737 0.650597 0
M  V30 7685 C 743.622 -1.85189 -0.794188 0
M  V30 7686 O 742.678 -1.97738 -1.57022 0
M  V30 7687 C 743.991 -2.53505 1.61728 0
M  V30 7688 C 745.539 -2.67351 1.62765 0
M  V30 7689 C 746.014 -3.78296 2.58179 0
M  V30 7690 N 747.505 -3.85696 2.56501 0
M  V30 7691 C 748.24 -4.71012 3.2701 0
M  V30 7692 N 747.736 -5.60669 4.06966 0
M  V30 7693 N 749.529 -4.64912 3.15932 0
M  V30 7694 H 741.68 -0.986327 1.8811 0
M  V30 7695 H 743.943 -0.494639 0.808725 0
M  V30 7696 H 743.649 -2.31357 2.6489 0
M  V30 7697 H 743.523 -3.51281 1.3741 0
M  V30 7698 H 745.91 -2.88869 0.603241 0
M  V30 7699 H 745.991 -1.69998 1.91139 0
M  V30 7700 H 745.635 -3.5753 3.60742 0
M  V30 7701 H 745.565 -4.75117 2.27093 0
M  V30 7702 H 748.056 -3.21601 1.98447 0
M  V30 7703 H 748.369 -6.22677 4.57704 0
M  V30 7704 H 746.714 -5.60402 4.11066 0
M  V30 7705 H 749.905 -3.93874 2.52945 0
M  V30 7706 H 750.078 -5.3118 3.71149 0
M  V30 7707 N 743.484 -0.715051 -1.40445 0
M  V30 7708 C 744.761 -0.181503 -1.94756 0
M  V30 7709 C 745.141 1.31268 -1.65324 0
M  V30 7710 O 744.489 2.0686 -0.970631 0
M  V30 7711 C 744.699 -0.493663 -3.45491 0
M  V30 7712 C 746.047 -0.432032 -4.22396 0
M  V30 7713 O 747.071 -0.429692 -3.53599 0
M  V30 7714 O 745.93 -0.409091 -5.44967 0
M  V30 7715 H 743.024 -0.0263989 -0.826579 0
M  V30 7716 H 745.57 -0.792546 -1.50056 0
M  V30 7717 H 744.342 -1.52713 -3.6027 0
M  V30 7718 H 743.965 0.14737 -3.97327 0
M  V30 7719 N 744.962 1.50701 -0.461195 0
M  V30 7720 C 746.211 2.01458 0.0988277 0
M  V30 7721 C 746.524 1.34863 1.41673 0
M  V30 7722 O 747.73 1.76721 2.06111 0
M  V30 7723 C 746.186 3.59186 0.226648 0
M  V30 7724 C 745.794 4.34732 -1.08223 0
M  V30 7725 C 747.538 4.18015 0.73916 0
M  V30 7726 C 745.445 5.8422 -0.918747 0
M  V30 7727 H 744.375 0.7529 0.040709 0
M  V30 7728 H 747.026 1.736 -0.594589 0
M  V30 7729 H 745.408 3.83589 0.983621 0
M  V30 7730 H 746.582 4.22059 -1.84939 0
M  V30 7731 H 744.897 3.87466 -1.52509 0
M  V30 7732 H 747.494 5.27436 0.878347 0
M  V30 7733 H 747.837 3.78746 1.72793 0
M  V30 7734 H 748.37 3.9778 0.0398469 0
M  V30 7735 H 745.109 6.27944 -1.88059 0
M  V30 7736 H 744.629 5.99493 -0.191801 0
M  V30 7737 H 746.308 6.44382 -0.581405 0
M  V30 7738 N 746.441 0.193421 1.56409 0
M  V30 7739 C 747.669 -0.451438 2.01915 0
M  V30 7740 C 748.084 -1.55306 1.07357 0
M  V30 7741 O 747.441 -1.82333 0.0781512 0
M  V30 7742 C 747.492 -1.00931 3.47124 0
M  V30 7743 O 747.213 0.0483623 4.38073 0
M  V30 7744 C 748.714 -1.73021 4.0814 0
M  V30 7745 H 745.934 -0.113495 0.661332 0
M  V30 7746 H 748.478 0.301636 2.02263 0
M  V30 7747 H 746.633 -1.71277 3.47481 0
M  V30 7748 H 747.047 -0.366644 5.23217 0
M  V30 7749 H 748.521 -2.07289 5.11601 0
M  V30 7750 H 748.998 -2.6333 3.51502 0
M  V30 7751 H 749.604 -1.07264 4.11551 0
M  V30 7752 N 747.919 -1.57396 -0.0801906 0
M  V30 7753 C 749.196 -1.77883 -0.813451 0
M  V30 7754 C 749.576 -0.778879 -1.96206 0
M  V30 7755 O 748.924 0.189683 -2.27711 0
M  V30 7756 C 749.134 -3.24116 -1.2942 0
M  V30 7757 C 750.482 -3.87714 -1.73098 0
M  V30 7758 O 751.506 -3.27956 -1.39007 0
M  V30 7759 O 750.365 -4.92828 -2.36184 0
M  V30 7760 H 747.459 -0.729727 -0.389138 0
M  V30 7761 H 750.005 -1.69591 -0.0609166 0
M  V30 7762 H 748.777 -3.88443 -0.471947 0
M  V30 7763 H 748.4 -3.371 -2.1083 0
M  V30 7764 N 749.397 0.351382 -1.53633 0
M  V30 7765 C 750.307 1.45471 -1.84052 0
M  V30 7766 C 751.323 1.57945 -0.730015 0
M  V30 7767 O 752.499 1.73571 -1.02153 0
M  V30 7768 C 749.564 2.80562 -2.03681 0
M  V30 7769 C 748.625 2.77497 -3.27558 0
M  V30 7770 C 747.858 4.06144 -3.46241 0
M  V30 7771 O 748.081 5.03028 -2.68922 0
M  V30 7772 O 747.015 4.11092 -4.39645 0
M  V30 7773 H 750.841 1.22684 -2.77817 0
M  V30 7774 H 748.426 0.542827 -1.3919 0
M  V30 7775 H 750.308 3.6058 -2.18082 0
M  V30 7776 H 748.983 3.03296 -1.13106 0
M  V30 7777 H 747.89 1.96126 -3.18568 0
M  V30 7778 H 749.223 2.59716 -4.18101 0
M  V30 7779 N 750.875 1.45233 0.611969 0
M  V30 7780 C 751.838 1.53189 1.70487 0
M  V30 7781 C 752.838 0.411839 1.55437 0
M  V30 7782 O 754.028 0.675164 1.60584 0
M  V30 7783 C 751.16 1.42422 3.09723 0
M  V30 7784 H 752.353 2.5056 1.64802 0
M  V30 7785 H 749.906 1.32609 0.827318 0
M  V30 7786 H 750.641 0.462185 3.2099 0
M  V30 7787 H 750.426 2.23658 3.22055 0
M  V30 7788 H 751.916 1.51012 3.89339 0
M  V30 7789 N 752.353 -0.854086 1.3245 0
M  V30 7790 C 753.6 -1.60831 1.23043 0
M  V30 7791 C 753.928 -1.93389 -0.2076 0
M  V30 7792 O 753.183 -1.5756 -1.16075 0
M  V30 7793 C 753.482 -2.93746 2.03587 0
M  V30 7794 C 753.148 -2.80615 3.52939 0
M  V30 7795 C 751.81 -2.76742 3.93659 0
M  V30 7796 C 754.162 -2.66507 4.4791 0
M  V30 7797 C 751.49 -2.56638 5.27592 0
M  V30 7798 C 753.842 -2.47939 5.81987 0
M  V30 7799 C 752.506 -2.42458 6.21909 0
M  V30 7800 H 751.776 -0.588523 0.450247 0
M  V30 7801 H 754.423 -0.990699 1.63882 0
M  V30 7802 H 752.728 -3.5963 1.55478 0
M  V30 7803 H 754.425 -3.51127 1.93677 0
M  V30 7804 H 751.015 -2.84456 3.20598 0
M  V30 7805 H 755.199 -2.68544 4.1737 0
M  V30 7806 H 750.455 -2.50831 5.57579 0
M  V30 7807 H 754.629 -2.36002 6.55192 0
M  V30 7808 H 752.256 -2.2664 7.2563 0
M  V30 7809 N 753.831 -1.1567 -1.07043 0
M  V30 7810 C 754.778 -0.856336 -2.14326 0
M  V30 7811 C 755.748 0.192051 -1.64986 0
M  V30 7812 O 756.933 0.0589148 -1.90709 0
M  V30 7813 C 754.073 -0.355227 -3.43267 0
M  V30 7814 C 753.186 -1.46555 -4.06381 0
M  V30 7815 C 752.321 -0.920245 -5.23168 0
M  V30 7816 C 751.36 -2.00729 -5.78251 0
M  V30 7817 N 750.497 -1.47813 -6.86364 0
M  V30 7818 H 755.337 -1.77514 -2.39359 0
M  V30 7819 H 752.874 -0.885676 -1.17449 0
M  V30 7820 H 754.832 -0.0463804 -4.17174 0
M  V30 7821 H 753.462 0.526649 -3.18475 0
M  V30 7822 H 752.514 -1.89052 -3.30096 0
M  V30 7823 H 753.826 -2.28616 -4.43324 0
M  V30 7824 H 752.98 -0.564127 -6.04072 0
M  V30 7825 H 751.719 -0.0688477 -4.87651 0
M  V30 7826 H 750.724 -2.3722 -4.95991 0
M  V30 7827 H 751.949 -2.86252 -6.15822 0
M  V30 7828 H 749.895 -0.649145 -6.5278 0
M  V30 7829 H 749.812 -2.23498 -7.22208 0
M  V30 7830 H 751.08 -1.15036 -7.70965 0
M  V30 7831 N 755.309 1.25446 -0.953992 0
M  V30 7832 C 756.586 1.884 -0.525823 0
M  V30 7833 C 756.966 1.86079 0.996891 0
M  V30 7834 O 756.314 1.32389 1.8624 0
M  V30 7835 C 756.524 3.31154 -1.10172 0
M  V30 7836 C 757.872 4.07926 -1.17819 0
M  V30 7837 O 758.896 3.40273 -1.05323 0
M  V30 7838 O 757.755 5.28942 -1.37415 0
M  V30 7839 H 754.849 0.808629 -0.173345 0
M  V30 7840 H 757.395 1.33522 -1.04738 0
M  V30 7841 H 756.167 3.27271 -2.14499 0
M  V30 7842 H 755.79 3.93588 -0.56338 0
M  V30 7843 N 756.787 0.722489 1.40064 0
M  V30 7844 C 757.719 0.0349057 2.29173 0
M  V30 7845 C 758.732 -0.716571 1.46182 0
M  V30 7846 O 759.921 -0.562806 1.69395 0
M  V30 7847 C 757.021 -0.974839 3.24577 0
M  V30 7848 C 756.194 -0.287471 4.36454 0
M  V30 7849 C 755.253 -1.20356 5.12251 0
M  V30 7850 O 754.279 -0.685753 5.65054 0
M  V30 7851 N 755.481 -2.53422 5.22262 0
M  V30 7852 H 758.246 0.800058 2.88824 0
M  V30 7853 H 755.807 0.57068 1.51509 0
M  V30 7854 H 757.799 -1.59002 3.72157 0
M  V30 7855 H 756.369 -1.6413 2.66046 0
M  V30 7856 H 755.589 0.508008 3.90913 0
M  V30 7857 H 756.877 0.189382 5.08447 0
M  V30 7858 H 756.275 -2.97981 4.80857 0
M  V30 7859 H 754.832 -3.10067 5.73325 0
M  V30 7860 N 758.265 -1.50454 0.469181 0
M  V30 7861 C 759.514 -2.01507 -0.0881425 0
M  V30 7862 C 759.827 -1.35613 -1.40956 0
M  V30 7863 O 761.033 -1.77812 -2.05171 0
M  V30 7864 C 759.489 -3.59301 -0.207596 0
M  V30 7865 C 759.097 -4.34152 1.10527 0
M  V30 7866 C 760.841 -4.18401 -0.716981 0
M  V30 7867 C 758.748 -5.83725 0.949717 0
M  V30 7868 H 757.678 -0.753106 -0.0367156 0
M  V30 7869 H 760.329 -1.73282 0.603788 0
M  V30 7870 H 758.711 -3.84106 -0.963265 0
M  V30 7871 H 759.885 -4.21073 1.87175 0
M  V30 7872 H 758.2 -3.86652 1.54562 0
M  V30 7873 H 760.797 -5.27895 -0.850363 0
M  V30 7874 H 761.14 -3.79657 -1.70782 0
M  V30 7875 H 761.673 -3.97796 -0.0187511 0
M  V30 7876 H 758.412 -6.26938 1.91387 0
M  V30 7877 H 757.932 -5.99383 0.223591 0
M  V30 7878 H 759.611 -6.44065 0.61557 0
M  V30 7879 N 759.743 -0.201713 -1.56304 0
M  V30 7880 C 760.693 0.729444 -2.16016 0
M  V30 7881 C 761.677 1.17164 -1.10279 0
M  V30 7882 O 762.869 1.12893 -1.36324 0
M  V30 7883 C 759.998 1.94594 -2.82822 0
M  V30 7884 C 759.084 1.52434 -3.95758 0
M  V30 7885 N 759.475 0.814106 -4.99205 0
M  V30 7886 C 757.773 1.81314 -4.07481 0
M  V30 7887 C 758.474 0.601896 -5.78578 0
M  V30 7888 N 757.45 1.15263 -5.3124 0
M  V30 7889 H 761.252 0.178163 -2.93359 0
M  V30 7890 H 758.766 -0.00218038 -1.624 0
M  V30 7891 H 760.763 2.62357 -3.23998 0
M  V30 7892 H 759.423 2.50188 -2.06969 0
M  V30 7893 H 760.434 0.468872 -5.15773 0
M  V30 7894 H 757.111 2.3837 -3.42762 0
M  V30 7895 H 758.501 0.0380119 -6.71889 0
M  V30 7896 N 761.222 1.57436 0.0718424 0
M  V30 7897 C 762.172 2.00132 1.09229 0
M  V30 7898 C 763.156 0.883379 1.34481 0
M  V30 7899 O 764.348 1.14728 1.34783 0
M  V30 7900 C 761.477 2.44876 2.40605 0
M  V30 7901 C 760.563 3.63405 2.18627 0
M  V30 7902 N 760.954 4.77583 1.66579 0
M  V30 7903 C 759.252 3.69953 2.491 0
M  V30 7904 C 759.953 5.5943 1.59415 0
M  V30 7905 N 758.929 5.03275 2.05464 0
M  V30 7906 H 762.731 2.85849 0.683185 0
M  V30 7907 H 760.245 1.59987 0.278914 0
M  V30 7908 H 762.242 2.73703 3.14471 0
M  V30 7909 H 760.902 1.60546 2.82232 0
M  V30 7910 H 761.913 4.99875 1.35443 0
M  V30 7911 H 758.59 2.96336 2.94094 0
M  V30 7912 H 759.98 6.61093 1.20026 0
M  V30 7913 N 762.7 -0.34323 1.53817 0
M  V30 7914 C 764.116 -0.686355 1.44088 0
M  V30 7915 C 764.316 -1.92426 0.597882 0
M  V30 7916 O 763.372 -2.52343 0.0889918 0
M  V30 7917 C 764.685 -0.878698 2.87575 0
M  V30 7918 C 766.233 -0.977296 2.97352 0
M  V30 7919 C 766.708 -1.20195 4.41947 0
M  V30 7920 N 768.199 -1.26915 4.45474 0
M  V30 7921 C 768.934 -1.46049 5.54488 0
M  V30 7922 N 768.43 -1.62354 6.73508 0
M  V30 7923 N 770.223 -1.48599 5.42102 0
M  V30 7924 H 762.374 0.470679 2.07119 0
M  V30 7925 H 764.637 0.148652 0.936273 0
M  V30 7926 H 764.343 -0.040602 3.51677 0
M  V30 7927 H 764.217 -1.78034 3.32541 0
M  V30 7928 H 766.604 -1.80591 2.3339 0
M  V30 7929 H 766.685 -0.0525498 2.55746 0
M  V30 7930 H 766.329 -0.378262 5.06489 0
M  V30 7931 H 766.259 -2.14027 4.81145 0
M  V30 7932 H 768.75 -1.15837 3.59708 0
M  V30 7933 H 769.063 -1.76591 7.52353 0
M  V30 7934 H 767.408 -1.5949 6.76453 0
M  V30 7935 H 770.599 -1.35443 4.48077 0
M  V30 7936 H 770.772 -1.6317 6.2712 0
M  V30 7937 N 764.178 -1.45556 -0.604258 0
M  V30 7938 C 765.424 -1.49968 -1.36519 0
M  V30 7939 C 765.757 -0.142236 -1.93678 0
M  V30 7940 O 765.032 0.843717 -1.75247 0
M  V30 7941 C 765.315 -2.58146 -2.51063 0
M  V30 7942 C 765.168 -4.03346 -1.99078 0
M  V30 7943 C 766.487 -2.62581 -3.53184 0
M  V30 7944 H 763.606 -0.545993 -0.495036 0
M  V30 7945 H 766.248 -1.77382 -0.680845 0
M  V30 7946 H 764.398 -2.34901 -3.09441 0
M  V30 7947 H 766.07 -4.37811 -1.45323 0
M  V30 7948 H 764.313 -4.13845 -1.30055 0
M  V30 7949 H 764.984 -4.74731 -2.81664 0
M  V30 7950 H 767.46 -2.83419 -3.04652 0
M  V30 7951 H 766.336 -3.40131 -4.30816 0
M  V30 7952 H 766.597 -1.67798 -4.09019 0
M  V30 7953 N 765.656 0.84705 -1.32902 0
M  V30 7954 C 766.881 1.63925 -1.27056 0
M  V30 7955 C 767.306 1.87443 0.157136 0
M  V30 7956 O 766.664 1.43266 1.11106 0
M  V30 7957 C 766.712 2.97134 -2.04313 0
M  V30 7958 O 765.816 3.88049 -1.39614 0
M  V30 7959 H 765.157 0.499477 -0.437514 0
M  V30 7960 H 767.687 1.05443 -1.75336 0
M  V30 7961 H 767.697 3.46896 -2.14772 0
M  V30 7962 H 766.372 2.79339 -3.08128 0
M  V30 7963 H 764.949 3.46525 -1.3775 0
M  V30 7964 N 767.134 1.16236 1.06428 0
M  V30 7965 C 768.359 0.967688 1.83441 0
M  V30 7966 C 768.784 -0.479167 1.81894 0
M  V30 7967 O 768.142 -1.34224 1.21875 0
M  V30 7968 C 768.19 1.49806 3.2801 0
M  V30 7969 O 767.294 0.703481 4.06356 0
M  V30 7970 H 766.635 0.344468 0.56766 0
M  V30 7971 H 769.165 1.54442 1.34197 0
M  V30 7972 H 769.175 1.51495 3.78831 0
M  V30 7973 H 767.85 2.55133 3.2845 0
M  V30 7974 H 766.427 0.756986 3.65136 0
M  V30 7975 N 768.612 -1.24939 0.960631 0
M  V30 7976 C 769.542 -2.28 0.503815 0
M  V30 7977 C 770.523 -1.63959 -0.452928 0
M  V30 7978 O 771.708 -1.91009 -0.350585 0
M  V30 7979 C 768.838 -3.46643 -0.213535 0
M  V30 7980 C 767.792 -4.22903 0.658535 0
M  V30 7981 C 767.118 -5.34363 -0.189902 0
M  V30 7982 C 768.418 -4.84949 1.93963 0
M  V30 7983 H 770.112 -2.66462 1.36521 0
M  V30 7984 H 767.658 -1.28093 0.657897 0
M  V30 7985 H 769.611 -4.1787 -0.544286 0
M  V30 7986 H 768.335 -3.07187 -1.10923 0
M  V30 7987 H 766.994 -3.53467 0.972455 0
M  V30 7988 H 766.642 -4.91147 -1.08553 0
M  V30 7989 H 766.342 -5.86302 0.390331 0
M  V30 7990 H 767.866 -6.0842 -0.515484 0
M  V30 7991 H 769.28 -5.48288 1.67491 0
M  V30 7992 H 767.677 -5.47091 2.46601 0
M  V30 7993 H 768.747 -4.06799 2.639 0
M  V30 7994 N 770.09 -0.729906 -1.39679 0
M  V30 7995 C 771.02 -0.101618 -2.33279 0
M  V30 7996 C 772.001 0.729854 -1.53646 0
M  V30 7997 O 773.186 0.67587 -1.82059 0
M  V30 7998 C 770.316 0.81024 -3.37716 0
M  V30 7999 C 769.27 0.0833126 -4.27919 0
M  V30 8000 C 768.596 1.11185 -5.23012 0
M  V30 8001 C 769.896 -1.07107 -5.112 0
M  V30 8002 H 771.59 -0.883452 -2.86069 0
M  V30 8003 H 769.136 -0.426283 -1.37546 0
M  V30 8004 H 771.089 1.25927 -4.02145 0
M  V30 8005 H 769.813 1.62413 -2.83354 0
M  V30 8006 H 768.472 -0.346043 -3.64963 0
M  V30 8007 H 768.12 1.91917 -4.64948 0
M  V30 8008 H 767.82 0.63026 -5.8421 0
M  V30 8009 H 769.344 1.56068 -5.90318 0
M  V30 8010 H 770.758 -0.700726 -5.69002 0
M  V30 8011 H 769.155 -1.48196 -5.81514 0
M  V30 8012 H 770.225 -1.89513 -4.46332 0
M  V30 8013 N 771.568 1.50203 -0.477153 0
M  V30 8014 C 772.5 2.26508 0.350239 0
M  V30 8015 C 773.513 1.32081 0.95176 0
M  V30 8016 O 774.702 1.57546 0.839139 0
M  V30 8017 C 771.802 3.0361 1.50579 0
M  V30 8018 C 770.975 4.25438 1.01595 0
M  V30 8019 C 770.034 4.84783 2.04626 0
M  V30 8020 O 769.06 5.45528 1.62442 0
M  V30 8021 N 770.262 4.72318 3.37485 0
M  V30 8022 H 773.027 2.98155 -0.30394 0
M  V30 8023 H 770.588 1.58938 -0.308289 0
M  V30 8024 H 772.58 3.4019 2.1921 0
M  V30 8025 H 771.15 2.34724 2.06455 0
M  V30 8026 H 770.37 3.93894 0.155316 0
M  V30 8027 H 771.658 5.04413 0.666694 0
M  V30 8028 H 771.056 4.24022 3.74462 0
M  V30 8029 H 769.613 5.13149 4.01897 0
M  V30 8030 N 773.046 0.209999 1.56195 0
M  V30 8031 C 773.956 -0.716459 2.23392 0
M  V30 8032 C 774.972 -1.22291 1.23778 0
M  V30 8033 O 776.148 -1.26694 1.56558 0
M  V30 8034 C 773.213 -1.91261 2.89172 0
M  V30 8035 C 772.274 -1.44927 4.04097 0
M  V30 8036 C 771.507 -2.5884 4.66731 0
M  V30 8037 O 771.73 -3.76693 4.2832 0
M  V30 8038 O 770.664 -2.30701 5.55932 0
M  V30 8039 H 774.49 -0.174089 3.03201 0
M  V30 8040 H 772.075 -0.0199505 1.49387 0
M  V30 8041 H 773.957 -2.6114 3.30733 0
M  V30 8042 H 772.632 -2.4433 2.12331 0
M  V30 8043 H 771.539 -0.718839 3.67129 0
M  V30 8044 H 772.872 -0.965084 4.82646 0
M  V30 8045 N 774.524 -1.57472 -0.0634922 0
M  V30 8046 C 775.487 -2.03268 -1.059 0
M  V30 8047 C 776.487 -0.931028 -1.31105 0
M  V30 8048 O 777.677 -1.19567 -1.26686 0
M  V30 8049 C 774.809 -2.42039 -2.40062 0
M  V30 8050 H 776.002 -2.92454 -0.664119 0
M  V30 8051 H 773.555 -1.53206 -0.309444 0
M  V30 8052 H 774.29 -1.55904 -2.84367 0
M  V30 8053 H 774.075 -3.22437 -2.23108 0
M  V30 8054 H 775.565 -2.78017 -3.11603 0
M  V30 8055 N 776.003 0.335068 -1.53997 0
M  V30 8056 C 776.95 1.41187 -1.82579 0
M  V30 8057 C 777.92 1.51897 -0.672061 0
M  V30 8058 O 779.105 1.673 -0.917346 0
M  V30 8059 C 776.245 2.77717 -2.0486 0
M  V30 8060 C 775.358 2.7573 -3.32561 0
M  V30 8061 C 774.493 4.04032 -3.44864 0
M  V30 8062 C 773.532 3.96308 -4.66483 0
M  V30 8063 N 772.669 5.16317 -4.75774 0
M  V30 8064 H 777.509 1.16113 -2.74448 0
M  V30 8065 H 775.046 0.562305 -1.35928 0
M  V30 8066 H 777.004 3.57071 -2.15768 0
M  V30 8067 H 775.634 3.01124 -1.16294 0
M  V30 8068 H 774.686 1.88432 -3.3045 0
M  V30 8069 H 775.998 2.65902 -4.22016 0
M  V30 8070 H 775.152 4.91814 -3.55251 0
M  V30 8071 H 773.891 4.16652 -2.53481 0
M  V30 8072 H 772.896 3.06911 -4.56164 0
M  V30 8073 H 774.121 3.85263 -5.5924 0
M  V30 8074 H 772.067 5.29464 -3.87303 0
M  V30 8075 H 771.984 5.08779 -5.59178 0
M  V30 8076 H 773.252 6.05846 -4.9048 0
M  V30 8077 N 777.481 1.45874 0.596531 0
M  V30 8078 C 778.709 1.54013 1.38158 0
M  V30 8079 C 779.124 0.17648 1.87973 0
M  V30 8080 O 778.481 -0.823895 1.62844 0
M  V30 8081 C 778.532 2.53363 2.57855 0
M  V30 8082 O 778.253 3.8443 2.10108 0
M  V30 8083 C 779.754 2.71308 3.50581 0
M  V30 8084 H 776.974 0.521251 0.422538 0
M  V30 8085 H 779.518 1.9116 0.726493 0
M  V30 8086 H 777.673 2.19257 3.19382 0
M  V30 8087 H 778.087 4.38384 2.87958 0
M  V30 8088 H 779.561 3.44776 4.31084 0
M  V30 8089 H 780.038 1.77728 4.01633 0
M  V30 8090 H 780.644 3.06455 2.94899 0
M  V30 8091 N 778.959 -0.83999 1.33349 0
M  V30 8092 C 779.891 -1.95678 1.19344 0
M  V30 8093 C 780.904 -1.62322 0.124692 0
M  V30 8094 O 782.093 -1.74516 0.375012 0
M  V30 8095 C 779.193 -3.29133 0.807771 0
M  V30 8096 C 778.366 -3.9063 1.96792 0
M  V30 8097 C 777.425 -5.02438 1.56341 0
M  V30 8098 O 776.451 -5.21646 2.27759 0
M  V30 8099 N 777.653 -5.78612 0.467767 0
M  V30 8100 H 780.418 -2.08229 2.15548 0
M  V30 8101 H 777.979 -1.01566 1.26079 0
M  V30 8102 H 779.971 -4.01355 0.519282 0
M  V30 8103 H 778.541 -3.12535 -0.063555 0
M  V30 8104 H 777.761 -3.11011 2.4221 0
M  V30 8105 H 779.049 -4.2845 2.74422 0
M  V30 8106 H 778.447 -5.65559 -0.126324 0
M  V30 8107 H 777.004 -6.51362 0.238945 0
M  V30 8108 N 780.437 -1.16799 -1.0581 0
M  V30 8109 C 781.4 -0.881396 -2.11575 0
M  V30 8110 C 782.4 0.12574 -1.60308 0
M  V30 8111 O 783.59 -0.105716 -1.73879 0
M  V30 8112 C 780.722 -0.319037 -3.39404 0
M  V30 8113 H 781.915 -1.81907 -2.38432 0
M  V30 8114 H 779.468 -0.977597 -1.21954 0
M  V30 8115 H 780.203 0.626082 -3.18199 0
M  V30 8116 H 779.988 -1.04481 -3.77923 0
M  V30 8117 H 781.478 -0.13663 -4.17376 0
M  V30 8118 N 781.915 1.24427 -0.967243 0
M  V30 8119 C 782.878 2.23637 -0.501927 0
M  V30 8120 C 783.878 1.55712 0.401283 0
M  V30 8121 O 785.068 1.73085 0.196808 0
M  V30 8122 C 782.2 3.39804 0.273176 0
M  V30 8123 H 783.393 2.66317 -1.37897 0
M  V30 8124 H 780.946 1.37033 -0.751783 0
M  V30 8125 H 781.681 3.02562 1.16733 0
M  V30 8126 H 781.466 3.90303 -0.37498 0
M  V30 8127 H 782.956 4.13443 0.587776 0
M  V30 8128 N 783.393 0.737304 1.3929 0
M  V30 8129 C 784.323 0.113988 2.33222 0
M  V30 8130 C 785.304 -0.721695 1.54031 0
M  V30 8131 O 786.489 -0.666206 1.82415 0
M  V30 8132 C 783.619 -0.792319 3.38141 0
M  V30 8133 C 782.573 -0.0606178 4.27957 0
M  V30 8134 C 781.899 -1.08409 5.23595 0
M  V30 8135 C 783.199 1.09817 5.10625 0
M  V30 8136 H 784.893 0.898611 2.85596 0
M  V30 8137 H 782.439 0.433571 1.37318 0
M  V30 8138 H 784.392 -1.23793 4.02807 0
M  V30 8139 H 783.116 -1.60908 2.84211 0
M  V30 8140 H 781.775 0.365393 3.64775 0
M  V30 8141 H 781.423 -1.89449 4.6596 0
M  V30 8142 H 781.123 -0.599269 5.84536 0
M  V30 8143 H 782.647 -1.52936 5.91137 0
M  V30 8144 H 784.061 0.730892 5.68622 0
M  V30 8145 H 782.458 1.51278 5.80719 0
M  V30 8146 H 783.528 1.91878 4.45321 0
M  V30 8147 N 784.871 -1.49948 0.485112 0
M  V30 8148 C 786.117 -2.02695 -0.0651022 0
M  V30 8149 C 786.45 -1.36534 -1.38102 0
M  V30 8150 O 785.725 -0.495677 -1.88078 0
M  V30 8151 C 786.008 -3.59337 -0.234285 0
M  V30 8152 C 785.861 -4.3605 1.10364 0
M  V30 8153 C 787.18 -4.28996 -0.982351 0
M  V30 8154 H 784.299 -0.736666 -0.0221856 0
M  V30 8155 H 786.941 -1.7913 0.633433 0
M  V30 8156 H 785.091 -3.79546 -0.829262 0
M  V30 8157 H 786.763 -4.27377 1.73627 0
M  V30 8158 H 785.006 -3.99236 1.69686 0
M  V30 8159 H 785.677 -5.43959 0.938743 0
M  V30 8160 H 788.153 -4.13346 -0.477904 0
M  V30 8161 H 787.029 -5.38379 -1.06955 0
M  V30 8162 H 787.29 -3.93135 -2.02231 0
M  V30 8163 N 786.349 -0.21828 -1.56081 0
M  V30 8164 C 787.279 0.687922 -2.23136 0
M  V30 8165 C 788.26 1.20357 -1.202 0
M  V30 8166 O 789.445 1.24817 -1.48776 0
M  V30 8167 C 786.575 1.89762 -2.90874 0
M  V30 8168 C 785.529 1.51595 -4.00254 0
M  V30 8169 C 784.855 2.80415 -4.55271 0
M  V30 8170 C 786.155 0.708404 -5.17474 0
M  V30 8171 H 787.849 0.128854 -2.99123 0
M  V30 8172 H 785.395 0.0605354 -1.43873 0
M  V30 8173 H 787.348 2.53699 -3.36474 0
M  V30 8174 H 786.072 2.4816 -2.1233 0
M  V30 8175 H 784.731 0.900058 -3.55379 0
M  V30 8176 H 784.379 3.36951 -3.73461 0
M  V30 8177 H 784.079 2.55613 -5.2909 0
M  V30 8178 H 785.603 3.453 -5.03587 0
M  V30 8179 H 787.017 1.2514 -5.59476 0
M  V30 8180 H 785.414 0.557593 -5.97504 0
M  V30 8181 H 786.484 -0.285679 -4.84058 0
M  V30 8182 N 787.827 1.57504 0.0551401 0
M  V30 8183 C 789.104 1.79155 0.785048 0
M  V30 8184 C 789.484 0.809995 1.94942 0
M  V30 8185 O 788.832 -0.153432 2.27984 0
M  V30 8186 C 789.042 3.26134 1.24247 0
M  V30 8187 C 790.39 3.90419 1.66908 0
M  V30 8188 O 791.414 3.30126 1.33772 0
M  V30 8189 O 790.273 4.96523 2.28314 0
M  V30 8190 H 787.367 0.735825 0.377479 0
M  V30 8191 H 789.913 1.69666 0.0339285 0
M  V30 8192 H 788.685 3.89145 0.410089 0
M  V30 8193 H 788.308 3.40411 2.05441 0
M  V30 8194 N 789.305 -0.326896 1.54172 0
M  V30 8195 C 790.545 -1.07349 1.73941 0
M  V30 8196 C 790.909 -1.85355 0.50075 0
M  V30 8197 O 792.11 -2.62562 0.575731 0
M  V30 8198 C 790.381 -1.97636 2.97783 0
M  V30 8199 S 791.94 -2.79292 3.3844 0
M  V30 8200 H 788.758 -0.362459 0.611673 0
M  V30 8201 H 791.36 -0.349884 1.92344 0
M  V30 8202 H 790.064 -1.39158 3.86087 0
M  V30 8203 H 789.595 -2.74406 2.81895 0
M  V30 8204 H 791.61 -4.00106 2.93478 0
M  V30 8205 N 790.784 -1.46188 -0.588786 0
M  V30 8206 C 791.714 -1.59148 -1.70863 0
M  V30 8207 C 792.695 -0.442083 -1.64255 0
M  V30 8208 O 793.88 -0.667575 -1.82365 0
M  V30 8209 C 791.01 -1.5757 -3.09498 0
M  V30 8210 C 789.964 -2.71418 -3.30932 0
M  V30 8211 C 789.29 -2.549 -4.70032 0
M  V30 8212 C 790.59 -4.1329 -3.19356 0
M  V30 8213 H 792.284 -2.52889 -1.60274 0
M  V30 8214 H 789.83 -1.21707 -0.769638 0
M  V30 8215 H 791.783 -1.65231 -3.87655 0
M  V30 8216 H 790.507 -0.603705 -3.20972 0
M  V30 8217 H 789.166 -2.63216 -2.55172 0
M  V30 8218 H 788.814 -1.55797 -4.78264 0
M  V30 8219 H 788.514 -3.31257 -4.85327 0
M  V30 8220 H 790.038 -2.64443 -5.50366 0
M  V30 8221 H 791.452 -4.22636 -3.87365 0
M  V30 8222 H 789.849 -4.90187 -3.46175 0
M  V30 8223 H 790.919 -4.33874 -2.16522 0
M  V30 8224 N 792.262 0.832906 -1.33792 0
M  V30 8225 C 793.172 1.97514 -1.26592 0
M  V30 8226 C 794.188 1.73114 -0.175391 0
M  V30 8227 O 795.364 1.97387 -0.400062 0
M  V30 8228 C 792.429 3.31625 -1.01121 0
M  V30 8229 C 791.49 3.69101 -2.19233 0
M  V30 8230 C 790.723 4.96813 -1.94968 0
M  V30 8231 O 790.946 5.63208 -0.902955 0
M  V30 8232 O 789.88 5.31932 -2.8166 0
M  V30 8233 H 793.706 2.0653 -2.22664 0
M  V30 8234 H 791.291 0.966826 -1.13898 0
M  V30 8235 H 793.173 4.11968 -0.886571 0
M  V30 8236 H 791.848 3.23599 -0.080822 0
M  V30 8237 H 790.755 2.89243 -2.37253 0
M  V30 8238 H 792.088 3.818 -3.10628 0
M  V30 8239 N 793.74 1.17359 1.05189 0
M  V30 8240 C 794.968 0.986529 1.81866 0
M  V30 8241 C 795.383 -0.46522 1.82979 0
M  V30 8242 O 794.74 -1.32305 1.25705 0
M  V30 8243 C 794.791 1.52021 3.27982 0
M  V30 8244 O 794.512 2.91511 3.27037 0
M  V30 8245 C 796.013 1.37774 4.21347 0
M  V30 8246 H 793.233 0.349021 0.573084 0
M  V30 8247 H 795.777 1.55648 1.32643 0
M  V30 8248 H 793.932 0.992287 3.74476 0
M  V30 8249 H 794.346 3.16178 4.18488 0
M  V30 8250 H 795.82 1.7993 5.21852 0
M  V30 8251 H 796.297 0.32483 4.37997 0
M  V30 8252 H 796.903 1.89583 3.80708 0
M  V30 8253 N 795.218 -1.23913 0.973828 0
M  V30 8254 C 796.634 -1.44325 0.681363 0
M  V30 8255 C 796.834 -1.86832 -0.754728 0
M  V30 8256 O 795.89 -2.01024 -1.52793 0
M  V30 8257 C 797.203 -2.50017 1.67069 0
M  V30 8258 C 798.751 -2.63838 1.68399 0
M  V30 8259 C 799.226 -3.72734 2.66145 0
M  V30 8260 N 800.717 -3.80169 2.64624 0
M  V30 8261 C 801.452 -4.6397 3.36927 0
M  V30 8262 N 800.948 -5.51911 4.18767 0
M  V30 8263 N 802.741 -4.58106 3.25722 0
M  V30 8264 H 794.892 -0.946204 1.9016 0
M  V30 8265 H 797.155 -0.477374 0.819035 0
M  V30 8266 H 796.861 -2.25686 2.69738 0
M  V30 8267 H 796.735 -3.48287 1.4483 0
M  V30 8268 H 799.122 -2.87524 0.664379 0
M  V30 8269 H 799.203 -1.65906 1.94702 0
M  V30 8270 H 798.847 -3.49797 3.68245 0
M  V30 8271 H 798.777 -4.70193 2.3712 0
M  V30 8272 H 801.268 -3.17319 2.05224 0
M  V30 8273 H 801.581 -6.12828 4.70809 0
M  V30 8274 H 799.926 -5.51556 4.2286 0
M  V30 8275 H 803.117 -3.8842 2.61242 0
M  V30 8276 H 803.29 -5.23188 3.82333 0
M  V30 8277 N 796.696 -0.74468 -1.38897 0
M  V30 8278 C 797.628 -0.0713608 -2.29089 0
M  V30 8279 C 798.641 0.693224 -1.47303 0
M  V30 8280 O 799.83 0.535785 -1.70269 0
M  V30 8281 C 796.93 0.923078 -3.26087 0
M  V30 8282 C 796.103 0.217998 -4.36856 0
M  V30 8283 C 795.162 1.12192 -5.14101 0
M  V30 8284 O 794.188 0.595771 -5.66073 0
M  V30 8285 N 795.39 2.45082 -5.26227 0
M  V30 8286 H 798.155 -0.845906 -2.87514 0
M  V30 8287 H 795.716 -0.594712 -1.50581 0
M  V30 8288 H 797.708 1.53061 -3.74639 0
M  V30 8289 H 796.278 1.59876 -2.68623 0
M  V30 8290 H 795.498 -0.570134 -3.90055 0
M  V30 8291 H 796.786 -0.270248 -5.08082 0
M  V30 8292 H 796.184 2.90294 -4.85537 0
M  V30 8293 H 794.741 3.00907 -5.78185 0
M  V30 8294 N 798.174 1.49689 -0.493057 0
M  V30 8295 C 799.084 2.32746 0.294358 0
M  V30 8296 C 800.1 1.44117 0.975003 0
M  V30 8297 O 801.276 1.77149 0.958138 0
M  V30 8298 C 798.341 3.19358 1.34949 0
M  V30 8299 C 797.402 4.2383 0.683122 0
M  V30 8300 C 796.635 5.06303 1.68798 0
M  V30 8301 O 796.858 4.90172 2.91698 0
M  V30 8302 O 795.792 5.88826 1.24768 0
M  V30 8303 H 799.618 3.01247 -0.385254 0
M  V30 8304 H 797.203 1.47216 -0.254519 0
M  V30 8305 H 799.085 3.73037 1.96014 0
M  V30 8306 H 797.76 2.53561 2.01217 0
M  V30 8307 H 796.667 3.74086 0.0329351 0
M  V30 8308 H 798 4.9216 0.0630192 0
M  V30 8309 O 799.691 0.368172 1.57247 0
M  V30 8310 H 800.382 -0.181825 1.92845 0
M  V30 END ATOM
M  V30 BEGIN BOND
M  V30 END BOND
M  V30 END CTAB
M  END
$$$$
